0:0:0
     RDKit          3D

 95104  0  0  1  0  0  0  0  0999 V2000
  -29.9960  -22.1470   20.1070 C   0  0  0  0  0  2  0  0  0  0  0  0
  -31.0040  -14.4670   19.6620 C   0  0  0  0  0  0  0  0  0  0  0  0
  -30.5800  -12.3620   18.4950 C   0  0  0  0  0  2  0  0  0  0  0  0
  -29.4870  -12.6340   17.4370 C   0  0  0  0  0  2  0  0  0  0  0  0
  -28.0770  -12.4850   18.0470 C   0  0  0  0  0  2  0  0  0  0  0  0
  -27.9090  -13.2590   19.3830 C   0  0  0  0  0  3  0  0  0  0  0  0
  -29.0980  -12.9620   20.3290 C   0  0  0  0  0  2  0  0  0  0  0  0
  -30.3420  -13.2840   19.6100 N   0  0  0  0  0  0  0  0  0  0  0  0
  -32.1180  -14.6480   19.1590 O   0  0  0  0  0  0  0  0  0  0  0  0
  -30.3080  -20.7280   19.6220 C   0  0  0  0  0  0  0  0  0  0  0  0
  -29.4620  -18.2860   22.2880 C   0  0  0  0  0  2  0  0  0  0  0  0
  -29.4200  -17.7610   18.9610 C   0  0  0  0  0  2  0  0  0  0  0  0
  -29.6660  -19.7370   21.8420 C   0  0  0  0  0  2  0  0  0  0  0  0
  -29.8490  -16.3340   18.5960 C   0  0  0  0  0  2  0  0  0  0  0  0
  -29.7500  -16.0360   21.0880 C   0  0  0  0  0  2  0  0  0  0  0  0
  -30.2990  -17.4580   21.3180 C   0  0  0  0  0  3  0  0  0  0  0  0
  -30.3700  -18.3040   20.0410 C   0  0  0  0  0  3  0  0  0  0  0  0
  -30.0660  -19.6780   20.4350 N   0  0  0  0  0  0  0  0  0  0  0  0
  -30.1600  -15.5110   19.7830 N   0  0  0  0  0  0  0  0  0  0  0  0
  -30.7780  -20.5760   18.4910 O   0  0  0  0  0  0  0  0  0  0  0  0
  -25.6350  -13.8650   20.4280 C   0  0  0  0  0  0  0  0  0  0  0  0
  -24.6070  -13.0840   20.8830 C   0  0  0  0  0  0  0  0  0  0  0  0
  -25.0350  -11.7320   20.7160 C   0  0  0  0  0  0  0  0  0  0  0  0
  -26.6250  -12.9820   20.0140 N   0  0  0  0  0  0  0  0  0  0  0  0
  -26.2740  -11.6930   20.2450 N   0  0  0  0  0  0  0  0  0  0  0  0
  -24.3190  -10.4680   20.9190 C   0  0  0  0  0  0  0  0  0  0  0  0
  -24.7750   -9.5020   21.8430 C   0  0  0  0  0  3  0  0  0  0  0  0
  -24.0610   -8.3010   22.0340 C   0  0  0  0  0  3  0  0  0  0  0  0
  -22.8770   -8.0560   21.3000 C   0  0  0  0  0  0  0  0  0  0  0  0
  -22.4390   -9.0100   20.3640 C   0  0  0  0  0  3  0  0  0  0  0  0
  -23.1550  -10.2040   20.1700 C   0  0  0  0  0  3  0  0  0  0  0  0
  -22.1320   -6.9070   21.4000 O   0  0  0  0  0  0  0  0  0  0  0  0
  -21.9960   -6.2400   22.5910 C   0  0  0  0  0  0  0  0  0  0  0  0
  -21.4520   -6.8650   23.7350 C   0  0  0  0  0  3  0  0  0  0  0  0
  -21.2610   -6.1240   24.9190 C   0  0  0  0  0  3  0  0  0  0  0  0
  -21.6070   -4.7610   24.9600 C   0  0  0  0  0  0  0  0  0  0  0  0
  -22.1450   -4.1350   23.8210 C   0  0  0  0  0  3  0  0  0  0  0  0
  -22.3370   -4.8740   22.6400 C   0  0  0  0  0  0  0  0  0  0  0  0
  -22.8340   -4.2610   21.5380 F   0  0  0  0  0  0  0  0  0  0  0  0
  -21.4180   -4.0460   26.0940 F   0  0  0  0  0  0  0  0  0  0  0  0
  -23.2630  -13.5590   21.3580 C   0  0  0  0  0  0  0  0  0  0  0  0
  -22.6480  -12.8300   22.2830 N   0  0  0  0  0  0  0  0  0  0  0  0
  -22.7710  -14.6070   20.9440 O   0  0  0  0  0  0  0  0  0  0  0  0
  -23.0610  -11.9820   22.6410 H   0  0  0  0  0  0  0  0  0  0  0  0
  -21.7500  -13.1270   22.6400 H   0  0  0  0  0  0  0  0  0  0  0  0
  -25.8030  -15.2410   20.3090 N   0  0  0  0  0  0  0  0  0  0  0  0
  -25.0690  -15.8970   20.5480 H   0  0  0  0  0  0  0  0  0  0  0  0
  -26.6130  -15.6820   19.8940 H   0  0  0  0  0  0  0  0  0  0  0  0
  -29.8730  -23.1220   18.9190 C   0  0  0  0  0  2  0  0  0  0  0  0
  -29.7860  -24.5250   19.3480 N   0  0  0  0  0  4  0  0  0  0  0  0
  -30.6910  -24.8230   19.6790 H   0  0  0  0  0  0  0  0  0  0  0  0
  -29.1460  -24.6170   20.1250 H   0  0  0  0  0  0  0  0  0  0  0  0
  -29.3280  -25.4440   18.2850 C   0  0  0  0  0  2  0  0  0  0  0  0
  -29.4090  -26.8800   18.7880 C   0  0  0  0  0  2  0  0  0  0  0  0
  -28.7640  -26.9030   20.0540 O   0  0  0  0  0  0  0  0  0  0  0  0
  -24.7210  -31.8170   23.1130 C   0  0  0  0  0  0  0  0  0  0  0  0
  -27.5510  -27.5290   20.0570 C   0  0  0  0  0  0  0  0  0  0  0  0
  -23.5770  -30.3730   21.4560 C   0  0  0  0  0  3  0  0  0  0  0  0
  -25.0960  -28.8910   20.0480 C   0  0  0  0  0  0  0  0  0  0  0  0
  -26.0790  -30.8370   21.2780 C   0  0  0  0  0  2  0  0  0  0  0  0
  -26.2190  -29.4700   20.6520 C   0  0  0  0  0  0  0  0  0  0  0  0
  -27.4480  -28.7870   20.6740 C   0  0  0  0  0  3  0  0  0  0  0  0
  -26.4180  -26.9410   19.4550 C   0  0  0  0  0  3  0  0  0  0  0  0
  -25.1860  -27.6200   19.4500 C   0  0  0  0  0  3  0  0  0  0  0  0
  -23.8190  -29.6960   20.0780 C   0  0  0  0  0  2  0  0  0  0  0  0
  -24.8070  -31.0250   22.0070 N   0  0  0  0  0  0  0  0  0  0  0  0
  -23.6280  -32.0500   23.6470 O   0  0  0  0  0  0  0  0  0  0  0  0
  -22.9580  -29.3310   22.4120 C   0  0  0  0  0  0  0  0  0  0  0  0
  -21.6470  -29.0830   22.2550 N   0  0  0  0  0  0  0  0  0  0  0  0
  -23.6530  -28.7450   23.2480 O   0  0  0  0  0  0  0  0  0  0  0  0
  -21.1480  -29.6090   21.5520 H   0  0  0  0  0  0  0  0  0  0  0  0
  -18.3260  -27.7360   22.6800 C   0  0  0  0  0  0  0  0  0  0  0  0
  -20.8590  -28.1150   23.0160 C   0  0  0  0  0  3  0  0  0  0  0  0
  -21.0450  -26.6860   22.4570 C   0  0  0  0  0  2  0  0  0  0  0  0
  -19.9870  -26.3040   21.4170 C   0  0  0  0  0  2  0  0  0  0  0  0
  -18.5840  -26.3910   22.0240 C   0  0  0  0  0  2  0  0  0  0  0  0
  -19.3960  -28.5530   23.1320 C   0  0  0  0  0  0  0  0  0  0  0  0
  -19.1020  -29.8120   23.7020 C   0  0  0  0  0  3  0  0  0  0  0  0
  -17.7720  -30.2530   23.8280 C   0  0  0  0  0  3  0  0  0  0  0  0
  -16.7160  -29.4330   23.3940 C   0  0  0  0  0  3  0  0  0  0  0  0
  -16.9950  -28.1780   22.8250 C   0  0  0  0  0  3  0  0  0  0  0  0
  -25.9830  -32.4890   23.7400 C   0  0  0  0  0  3  0  0  0  0  0  0
  -26.5600  -31.7010   24.9790 C   0  0  1  0  0  0  0  0  0  0  0  0
  -25.4940  -31.3420   26.0400 C   0  0  0  0  0  1  0  0  0  0  0  0
  -27.2360  -30.3860   24.5240 C   0  0  0  0  0  1  0  0  0  0  0  0
  -27.6570  -32.5460   25.6690 C   0  0  0  0  0  1  0  0  0  0  0  0
  -25.6100  -33.8580   24.1180 N   0  0  0  0  0  0  0  0  0  0  0  0
  -25.8870  -34.9480   23.3930 C   0  0  0  0  0  0  0  0  0  0  0  0
  -26.5560  -34.9140   22.3560 O   0  0  0  0  0  0  0  0  0  0  0  0
  -25.0140  -33.9560   24.9270 H   0  0  0  0  0  0  0  0  0  0  0  0
  -24.0790  -36.6710   23.0950 C   0  0  0  0  0  1  0  0  0  0  0  0
  -25.3340  -36.2950   23.8980 C   0  0  0  0  0  3  0  0  0  0  0  0
  -27.4240  -37.2510   24.7680 C   0  0  0  0  0  1  0  0  0  0  0  0
  -26.3180  -37.3980   23.8250 N   0  0  0  0  0  0  0  0  0  0  0  0
  -25.8690  -38.2920   24.0020 H   0  0  0  0  0  0  0  0  0  0  0  0
  2 19  1  0
  3  8  1  0
  4  5  1  0
  4  3  1  0
  6  5  1  0
  6 24  1  0
  6  7  1  0
  8  2  1  0
  8  7  1  0
  9  2  2  0
 10  1  1  0
 10 18  1  0
 13 11  1  0
 14 12  1  0
 14 19  1  0
 16 15  1  0
 16 11  1  0
 17 12  1  0
 17 18  1  0
 17 16  1  0
 18 13  1  0
 19 15  1  0
 20 10  2  0
 21 22  2  0
 22 41  1  0
 23 22  1  0
 23 26  1  0
 24 25  1  0
 24 21  1  0
 25 23  2  0
 26 27  1  0
 27 28  2  0
 29 32  1  0
 29 28  1  0
 30 29  2  0
 31 30  1  0
 31 26  2  0
 32 33  1  0
 33 38  2  0
 33 34  1  0
 34 35  2  0
 35 36  1  0
 36 40  1  0
 37 36  2  0
 38 37  1  0
 39 38  1  0
 41 42  1  0
 42 45  1  0
 42 44  1  0
 43 41  2  0
 46 21  1  0
 46 47  1  0
 48 46  1  0
 49 50  1  0
 49  1  1  0
 50 51  1  0
 50 52  1  0
 53 54  1  0
 53 50  1  0
 54 55  1  0
 55 57  1  0
 56 67  2  0
 57 62  1  0
 58 66  1  0
 58 68  1  0
 59 65  1  0
 59 61  1  0
 60 66  1  0
 61 62  2  0
 61 60  1  0
 63 57  2  0
 64 63  1  0
 64 59  2  0
 65 58  1  0
 66 56  1  0
 68 70  2  0
 69 68  1  0
 71 69  1  0
 72 81  2  0
 72 77  1  0
 73 69  1  0
 73 77  1  0
 74 73  1  0
 75 76  1  0
 75 74  1  0
 76 72  1  0
 77 78  2  0
 78 79  1  0
 80 79  2  0
 81 80  1  0
 82 56  1  0
 82 87  1  0
 82 83  1  0
 83 86  1  1
 83 84  1  0
 85 83  1  0
 87 90  1  0
 88 92  1  0
 88 87  1  0
 89 88  2  0
 92 91  1  0
 94 92  1  0
 94 95  1  0
 94 93  1  0
M  ISO  4   2 100  19 100  54 101  55 101
M  END
>  <TORSDO>  (1) 
F 20

>  <SCORE>  (1) 
-10.770

>  <name>  (1) 
0

>  <ligand_id>  (1) 
0

>  <original_smiles>  (1) 
[H]c1c([H])c([H])c2c(c1[H])C([H])([H])C([H])([H])C([H])([H])C2([H])N([H])C(=O)C1([H])N(C(=O)C([H])(N([H])C(=O)C([H])(N([H])C([H])([H])[H])C([H])([H])[H])C(C([H])([H])[H])(C([H])([H])[H])C([H])([H])[H])C([H])([H])c2c([H])c(OC([H])([H])C([H])([H])[N+]([H])([H])C([H])([H])C([H])([H])C(=O)N3C([H])([H])C([H])([H])C4([H])C([H])([H])N(C(=O)N5C([H])([H])C([H])([H])C([H])([H])C([H])(n6nc(-c7c([H])c([H])c(Oc8c([H])c([H])c(F)c([H])c8F)c([H])c7[H])c(C(=O)N([H])[H])c6N([H])[H])C5([H])[H])C([H])([H])C([H])([H])C34[H])c([H])c([H])c2C1([H])[H]

>  <smiles>  (1) 
[H]c1c([H])c([H])c2c(c1[H])C([H])([H])C([H])([H])C([H])([H])C2([H])N([H])C(=O)C1([H])N(C(=O)C([H])(N([H])C(=O)C([H])(N([H])C([H])([H])[H])C([H])([H])[H])C(C([H])([H])[H])(C([H])([H])[H])C([H])([H])[H])C([H])([H])c2c([H])c(OC([H])([H])C([H])([H])[N+]([H])([H])C([H])([H])C([H])([H])C(=O)N3C([H])([H])C([H])([H])C4([H])C([H])([H])N(C(=O)N5C([H])([H])C([H])([H])C([H])([H])C([H])(n6nc(-c7c([H])c([H])c(Oc8c([H])c([H])c(F)c([H])c8F)c([H])c7[H])c(C(=O)N([H])[H])c6N([H])[H])C5([H])[H])C([H])([H])C([H])([H])C34[H])c([H])c([H])c2C1([H])[H]

$$$$
1:0:0
     RDKit          3D

 97106  0  0  1  0  0  0  0  0999 V2000
  -26.6040  -21.2320   19.5030 C   0  0  0  0  0  2  0  0  0  0  0  0
  -28.6060  -21.5890   18.0320 C   0  0  0  0  0  2  0  0  0  0  0  0
  -27.0950  -22.5450   20.1610 C   0  0  0  0  0  2  0  0  0  0  0  0
  -29.3340  -22.4190   19.1270 C   0  0  0  0  0  2  0  0  0  0  0  0
  -27.6580  -20.5120   18.6100 C   0  0  0  0  0  3  0  0  0  0  0  0
  -28.5560  -22.5100   20.3970 N   0  0  1  0  0  4  0  0  0  0  0  0
  -28.7130  -21.6250   20.8570 H   0  0  0  0  0  0  0  0  0  0  0  0
  -29.6400  -19.4830   19.9100 C   0  0  0  0  0  3  0  0  0  0  0  0
  -30.2440  -18.4260   20.6030 C   0  0  0  0  0  3  0  0  0  0  0  0
  -28.4030  -16.9690   19.9970 C   0  0  0  0  0  3  0  0  0  0  0  0
  -28.3660  -19.3320   19.3110 C   0  0  0  0  0  0  0  0  0  0  0  0
  -29.6330  -17.1580   20.6600 C   0  0  0  0  0  0  0  0  0  0  0  0
  -27.7760  -18.0430   19.3270 C   0  0  0  0  0  0  0  0  0  0  0  0
  -26.6050  -17.8220   18.6830 F   0  0  0  0  0  0  0  0  0  0  0  0
  -30.3240  -16.0220   21.4080 C   0  0  0  0  0  2  0  0  0  0  0  0
  -31.7610  -14.0730   20.6820 C   0  0  0  0  0  0  0  0  0  0  0  0
  -31.5830  -11.6550   20.2910 C   0  0  0  0  0  2  0  0  0  0  0  0
  -30.7550  -11.3870   19.0160 C   0  0  0  0  0  2  0  0  0  0  0  0
  -29.2450  -11.3560   19.3180 C   0  0  0  0  0  2  0  0  0  0  0  0
  -28.7840  -12.5540   20.1900 C   0  0  0  0  0  3  0  0  0  0  0  0
  -29.7250  -12.7390   21.3980 C   0  0  0  0  0  2  0  0  0  0  0  0
  -31.0930  -12.9070   20.8840 N   0  0  0  0  0  0  0  0  0  0  0  0
  -32.9240  -14.1240   20.2800 O   0  0  0  0  0  0  0  0  0  0  0  0
  -31.0110  -15.1500   20.4600 N   0  0  0  0  0  0  0  0  0  0  0  0
  -31.4790  -15.7160   19.7690 H   0  0  0  0  0  0  0  0  0  0  0  0
  -26.4430  -13.3900   20.8540 C   0  0  0  0  0  0  0  0  0  0  0  0
  -25.2800  -12.7230   21.1420 C   0  0  0  0  0  0  0  0  0  0  0  0
  -25.5930  -11.3330   21.0460 C   0  0  0  0  0  0  0  0  0  0  0  0
  -27.3910  -12.4100   20.6060 N   0  0  0  0  0  0  0  0  0  0  0  0
  -26.8800  -11.1640   20.7760 N   0  0  0  0  0  0  0  0  0  0  0  0
  -24.7260  -10.1520   21.1450 C   0  0  0  0  0  0  0  0  0  0  0  0
  -24.8260   -9.2550   22.2310 C   0  0  0  0  0  3  0  0  0  0  0  0
  -23.9720   -8.1340   22.3140 C   0  0  0  0  0  3  0  0  0  0  0  0
  -23.0040   -7.9040   21.3090 C   0  0  0  0  0  0  0  0  0  0  0  0
  -22.9200   -8.7900   20.2200 C   0  0  0  0  0  3  0  0  0  0  0  0
  -23.7760   -9.9030   20.1350 C   0  0  0  0  0  3  0  0  0  0  0  0
  -22.1520   -6.8270   21.2920 O   0  0  0  0  0  0  0  0  0  0  0  0
  -21.5740   -6.3480   22.4390 C   0  0  0  0  0  0  0  0  0  0  0  0
  -20.7610   -7.1610   23.2580 C   0  0  0  0  0  3  0  0  0  0  0  0
  -20.1290   -6.6090   24.3910 C   0  0  0  0  0  3  0  0  0  0  0  0
  -20.3020   -5.2460   24.7000 C   0  0  0  0  0  0  0  0  0  0  0  0
  -21.1070   -4.4350   23.8820 C   0  0  0  0  0  3  0  0  0  0  0  0
  -21.7390   -4.9840   22.7530 C   0  0  0  0  0  0  0  0  0  0  0  0
  -22.4980   -4.1930   21.9570 F   0  0  0  0  0  0  0  0  0  0  0  0
  -19.6900   -4.7140   25.7840 F   0  0  0  0  0  0  0  0  0  0  0  0
  -23.9360  -13.3400   21.3970 C   0  0  0  0  0  0  0  0  0  0  0  0
  -23.1010  -12.6900   22.2030 N   0  0  0  0  0  0  0  0  0  0  0  0
  -23.6300  -14.4280   20.9160 O   0  0  0  0  0  0  0  0  0  0  0  0
  -23.3520  -11.8030   22.6150 H   0  0  0  0  0  0  0  0  0  0  0  0
  -22.1990  -13.0930   22.4130 H   0  0  0  0  0  0  0  0  0  0  0  0
  -26.7730  -14.7370   20.7700 N   0  0  0  0  0  0  0  0  0  0  0  0
  -26.1200  -15.4810   20.9810 H   0  0  0  0  0  0  0  0  0  0  0  0
  -27.7180  -15.0680   20.6130 H   0  0  0  0  0  0  0  0  0  0  0  0
  -29.0450  -23.5200   21.3790 C   0  0  0  0  0  2  0  0  0  0  0  0
  -28.6800  -24.9590   20.9790 C   0  0  0  0  0  2  0  0  0  0  0  0
  -29.6470  -26.0520   21.4500 C   0  0  0  0  0  2  0  0  0  0  0  0
  -29.5510  -27.1640   20.5660 O   0  0  0  0  0  0  0  0  0  0  0  0
  -24.8040  -31.6460   23.3570 C   0  0  0  0  0  0  0  0  0  0  0  0
  -28.3020  -27.7200   20.4870 C   0  0  0  0  0  0  0  0  0  0  0  0
  -23.9710  -30.1840   21.5400 C   0  0  0  0  0  3  0  0  0  0  0  0
  -25.7540  -28.8890   20.2620 C   0  0  0  0  0  0  0  0  0  0  0  0
  -26.4360  -30.8480   21.6620 C   0  0  0  0  0  2  0  0  0  0  0  0
  -26.7570  -29.5250   21.0080 C   0  0  0  0  0  0  0  0  0  0  0  0
  -28.0330  -28.9430   21.1290 C   0  0  0  0  0  3  0  0  0  0  0  0
  -27.2940  -27.0950   19.7220 C   0  0  0  0  0  3  0  0  0  0  0  0
  -26.0140  -27.6640   19.6230 C   0  0  0  0  0  3  0  0  0  0  0  0
  -24.4180  -29.5850   20.1780 C   0  0  0  0  0  2  0  0  0  0  0  0
  -25.0790  -30.9070   22.2470 N   0  0  0  0  0  0  0  0  0  0  0  0
  -23.6450  -31.7750   23.7680 O   0  0  0  0  0  0  0  0  0  0  0  0
  -23.3370  -29.0580   22.3850 C   0  0  0  0  0  0  0  0  0  0  0  0
  -22.0630  -28.7470   22.0980 N   0  0  0  0  0  0  0  0  0  0  0  0
  -23.9930  -28.4630   23.2440 O   0  0  0  0  0  0  0  0  0  0  0  0
  -21.5950  -29.2790   21.3770 H   0  0  0  0  0  0  0  0  0  0  0  0
  -18.7530  -27.3190   22.2950 C   0  0  0  0  0  0  0  0  0  0  0  0
  -21.2710  -27.6940   22.7320 C   0  0  0  0  0  3  0  0  0  0  0  0
  -21.4910  -26.3340   22.0330 C   0  0  0  0  0  2  0  0  0  0  0  0
  -20.4670  -26.0630   20.9290 C   0  0  0  0  0  2  0  0  0  0  0  0
  -19.0480  -26.0570   21.5030 C   0  0  0  0  0  2  0  0  0  0  0  0
  -19.8000  -28.1010   22.8540 C   0  0  0  0  0  0  0  0  0  0  0  0
  -19.4770  -29.2910   23.5390 C   0  0  0  0  0  3  0  0  0  0  0  0
  -18.1370  -29.7000   23.6790 C   0  0  0  0  0  3  0  0  0  0  0  0
  -17.1040  -28.9140   23.1370 C   0  0  0  0  0  3  0  0  0  0  0  0
  -17.4120  -27.7250   22.4540 C   0  0  0  0  0  3  0  0  0  0  0  0
  -25.9290  -32.3850   24.1490 C   0  0  0  0  0  3  0  0  0  0  0  0
  -25.4590  -33.7500   24.4100 N   0  0  0  0  0  0  0  0  0  0  0  0
  -25.7220  -34.8060   23.6280 C   0  0  0  0  0  0  0  0  0  0  0  0
  -26.4590  -34.7430   22.6400 O   0  0  0  0  0  0  0  0  0  0  0  0
  -24.8100  -33.8650   25.1740 H   0  0  0  0  0  0  0  0  0  0  0  0
  -23.8020  -36.3530   23.1520 C   0  0  0  0  0  1  0  0  0  0  0  0
  -25.0650  -36.1450   24.0030 C   0  0  0  0  0  3  0  0  0  0  0  0
  -27.0520  -37.3240   24.8290 C   0  0  0  0  0  1  0  0  0  0  0  0
  -25.9680  -37.3070   23.8520 N   0  0  0  0  0  0  0  0  0  0  0  0
  -25.4520  -38.1800   23.9330 H   0  0  0  0  0  0  0  0  0  0  0  0
  -26.3260  -31.6590   25.4910 C   0  0  1  0  0  0  0  0  0  0  0  0
  -25.1120  -31.2500   26.3580 C   0  0  0  0  0  1  0  0  0  0  0  0
  -27.1500  -30.3810   25.1970 C   0  0  0  0  0  1  0  0  0  0  0  0
  -27.2340  -32.5840   26.3370 C   0  0  0  0  0  1  0  0  0  0  0  0
  1  3  1  0
  2  5  1  0
  2  4  1  0
  3  6  1  0
  4  6  1  0
  5 11  1  0
  5  1  1  0
  6  7  1  1
  6 54  1  0
  8  9  1  0
  9 12  2  0
 10 12  1  0
 11 13  1  0
 11  8  2  0
 12 15  1  0
 13 10  2  0
 14 13  1  0
 16 22  1  0
 17 22  1  0
 18 19  1  0
 18 17  1  0
 20 19  1  0
 20 29  1  0
 20 21  1  0
 22 21  1  0
 23 16  2  0
 24 16  1  0
 24 15  1  0
 25 24  1  0
 26 27  2  0
 27 46  1  0
 28 27  1  0
 28 31  1  0
 29 30  1  0
 29 26  1  0
 30 28  2  0
 31 32  1  0
 32 33  2  0
 34 33  1  0
 35 34  2  0
 36 35  1  0
 36 31  2  0
 37 34  1  0
 37 38  1  0
 38 43  2  0
 38 39  1  0
 39 40  2  0
 40 41  1  0
 41 45  1  0
 42 41  2  0
 43 42  1  0
 44 43  1  0
 46 47  1  0
 47 50  1  0
 47 49  1  0
 48 46  2  0
 51 26  1  0
 51 52  1  0
 53 51  1  0
 55 54  1  0
 55 56  1  0
 57 56  1  0
 58 69  2  0
 59 57  1  0
 59 64  1  0
 60 68  1  0
 60 70  1  0
 61 63  1  0
 62 68  1  0
 63 64  2  0
 63 62  1  0
 65 59  2  0
 66 65  1  0
 66 61  2  0
 67 61  1  0
 67 60  1  0
 68 58  1  0
 70 72  2  0
 71 70  1  0
 73 71  1  0
 74 83  2  0
 74 79  1  0
 75 71  1  0
 75 79  1  0
 76 75  1  0
 77 78  1  0
 77 76  1  0
 78 74  1  0
 79 80  2  0
 80 81  1  0
 82 81  2  0
 83 82  1  0
 84 58  1  0
 84 85  1  0
 84 94  1  0
 85 88  1  0
 86 90  1  0
 86 85  1  0
 87 86  2  0
 90 89  1  0
 92 93  1  0
 92 90  1  0
 92 91  1  0
 94 97  1  1
 94 95  1  0
 96 94  1  0
M  ISO  4  16 100  24 100  56 101  57 101
M  END
>  <TORSDO>  (2) 
F 21

>  <SCORE>  (2) 
-10.608

>  <name>  (2) 
1

>  <ligand_id>  (2) 
1

>  <original_smiles>  (2) 
[H]c1c([H])c([H])c2c(c1[H])C([H])([H])C([H])([H])C([H])([H])C2([H])N([H])C(=O)C1([H])N(C(=O)C([H])(N([H])C(=O)C([H])(N([H])C([H])([H])[H])C([H])([H])[H])C(C([H])([H])[H])(C([H])([H])[H])C([H])([H])[H])C([H])([H])c2c([H])c(OC([H])([H])C([H])([H])C([H])([H])[N+]3([H])C([H])([H])C([H])([H])C([H])(c4c([H])c([H])c(C([H])([H])N([H])C(=O)N5C([H])([H])C([H])([H])C([H])([H])C([H])(n6nc(-c7c([H])c([H])c(Oc8c([H])c([H])c(F)c([H])c8F)c([H])c7[H])c(C(=O)N([H])[H])c6N([H])[H])C5([H])[H])c([H])c4F)C([H])([H])C3([H])[H])c([H])c([H])c2C1([H])[H]

>  <smiles>  (2) 
[H]c1c([H])c([H])c2c(c1[H])C([H])([H])C([H])([H])C([H])([H])C2([H])N([H])C(=O)C1([H])N(C(=O)C([H])(N([H])C(=O)C([H])(N([H])C([H])([H])[H])C([H])([H])[H])C(C([H])([H])[H])(C([H])([H])[H])C([H])([H])[H])C([H])([H])c2c([H])c(OC([H])([H])C([H])([H])C([H])([H])[N+]3([H])C([H])([H])C([H])([H])C([H])(c4c([H])c([H])c(C([H])([H])N([H])C(=O)N5C([H])([H])C([H])([H])C([H])([H])C([H])(n6nc(-c7c([H])c([H])c(Oc8c([H])c([H])c(F)c([H])c8F)c([H])c7[H])c(C(=O)N([H])[H])c6N([H])[H])C5([H])[H])c([H])c4F)C([H])([H])C3([H])[H])c([H])c([H])c2C1([H])[H]

$$$$
2:0:0
     RDKit          3D

 93101  0  0  1  0  0  0  0  0999 V2000
  -30.0180  -19.5040   20.4320 C   0  0  0  0  0  3  0  0  0  0  0  0
  -27.4610  -19.0140   19.4090 C   0  0  0  0  0  3  0  0  0  0  0  0
  -29.5940  -18.1590   20.2570 C   0  0  0  0  0  0  0  0  0  0  0  0
  -29.1910  -20.6050   20.0880 C   0  0  0  0  0  0  0  0  0  0  0  0
  -28.3050  -17.9310   19.7250 C   0  0  0  0  0  0  0  0  0  0  0  0
  -27.8950  -20.3420   19.5750 C   0  0  0  0  0  0  0  0  0  0  0  0
  -27.8680  -16.6740   19.4910 F   0  0  0  0  0  0  0  0  0  0  0  0
  -27.0720  -21.3490   19.1910 F   0  0  0  0  0  0  0  0  0  0  0  0
  -29.6980  -21.9170   20.2120 N   0  0  0  0  0  0  0  0  0  0  0  0
  -30.6980  -21.9710   20.3890 H   0  0  0  0  0  0  0  0  0  0  0  0
  -28.9060  -22.9650   20.8710 C   0  0  0  0  0  2  0  0  0  0  0  0
  -29.0370  -24.3470   20.1850 C   0  0  0  0  0  2  0  0  0  0  0  0
  -28.3760  -25.4900   20.9870 C   0  0  0  0  0  2  0  0  0  0  0  0
  -28.4520  -26.7360   20.2780 O   0  0  0  0  0  0  0  0  0  0  0  0
  -24.5630  -31.8810   23.2680 C   0  0  0  0  0  0  0  0  0  0  0  0
  -27.2840  -27.4630   20.2570 C   0  0  0  0  0  0  0  0  0  0  0  0
  -23.3930  -30.4750   21.6040 C   0  0  0  0  0  3  0  0  0  0  0  0
  -24.8830  -28.9440   20.2080 C   0  0  0  0  0  0  0  0  0  0  0  0
  -25.9180  -30.8530   21.4500 C   0  0  0  0  0  2  0  0  0  0  0  0
  -26.0250  -29.4840   20.8130 C   0  0  0  0  0  0  0  0  0  0  0  0
  -27.2340  -28.7550   20.8220 C   0  0  0  0  0  3  0  0  0  0  0  0
  -26.1290  -26.9320   19.6490 C   0  0  0  0  0  3  0  0  0  0  0  0
  -24.9290  -27.6690   19.6160 C   0  0  0  0  0  3  0  0  0  0  0  0
  -23.6300  -29.7930   20.2290 C   0  0  0  0  0  2  0  0  0  0  0  0
  -24.6440  -31.0820   22.1670 N   0  0  0  0  0  0  0  0  0  0  0  0
  -23.4720  -32.1470   23.7910 O   0  0  0  0  0  0  0  0  0  0  0  0
  -22.7250  -29.4550   22.5550 C   0  0  0  0  0  0  0  0  0  0  0  0
  -21.4060  -29.2610   22.3870 N   0  0  0  0  0  0  0  0  0  0  0  0
  -23.3880  -28.8390   23.3930 O   0  0  0  0  0  0  0  0  0  0  0  0
  -20.9420  -29.7800   21.6560 H   0  0  0  0  0  0  0  0  0  0  0  0
  -18.0270  -28.0560   22.8080 C   0  0  0  0  0  0  0  0  0  0  0  0
  -20.5740  -28.3250   23.1430 C   0  0  0  0  0  3  0  0  0  0  0  0
  -20.6970  -26.8930   22.5710 C   0  0  0  0  0  2  0  0  0  0  0  0
  -19.6240  -26.5680   21.5290 C   0  0  0  0  0  2  0  0  0  0  0  0
  -18.2280  -26.7030   22.1400 C   0  0  0  0  0  2  0  0  0  0  0  0
  -19.1300  -28.8250   23.2640 C   0  0  0  0  0  0  0  0  0  0  0  0
  -18.8880  -30.0890   23.8430 C   0  0  0  0  0  3  0  0  0  0  0  0
  -17.5760  -30.5810   23.9800 C   0  0  0  0  0  3  0  0  0  0  0  0
  -16.4880  -29.8080   23.5390 C   0  0  0  0  0  3  0  0  0  0  0  0
  -16.7140  -28.5500   22.9550 C   0  0  0  0  0  3  0  0  0  0  0  0
  -25.8350  -32.5120   23.9180 C   0  0  0  0  0  3  0  0  0  0  0  0
  -25.5270  -33.9160   24.2190 N   0  0  0  0  0  0  0  0  0  0  0  0
  -25.8870  -34.9540   23.4510 C   0  0  0  0  0  0  0  0  0  0  0  0
  -26.5840  -34.8300   22.4390 O   0  0  0  0  0  0  0  0  0  0  0  0
  -24.9140  -34.0880   25.0020 H   0  0  0  0  0  0  0  0  0  0  0  0
  -24.1840  -36.7500   23.0170 C   0  0  0  0  0  1  0  0  0  0  0  0
  -25.3960  -36.3510   23.8720 C   0  0  0  0  0  3  0  0  0  0  0  0
  -27.5080  -37.2370   24.7590 C   0  0  0  0  0  1  0  0  0  0  0  0
  -26.4400  -37.3950   23.7760 N   0  0  0  0  0  0  0  0  0  0  0  0
  -26.0380  -38.3210   23.8920 H   0  0  0  0  0  0  0  0  0  0  0  0
  -26.3170  -31.7550   25.2160 C   0  0  1  0  0  0  0  0  0  0  0  0
  -25.1940  -31.5300   26.2550 C   0  0  0  0  0  1  0  0  0  0  0  0
  -26.9090  -30.3720   24.8520 C   0  0  0  0  0  1  0  0  0  0  0  0
  -27.4530  -32.5540   25.8980 C   0  0  0  0  0  1  0  0  0  0  0  0
  -30.5730  -17.0130   20.5920 C   0  0  0  0  0  2  0  0  0  0  0  0
  -30.7520  -14.5240   20.3650 C   0  0  0  0  0  0  0  0  0  0  0  0
  -30.3880  -12.3710   19.2300 C   0  0  0  0  0  2  0  0  0  0  0  0
  -29.4200  -12.5790   18.0480 C   0  0  0  0  0  2  0  0  0  0  0  0
  -27.9570  -12.4430   18.5140 C   0  0  0  0  0  2  0  0  0  0  0  0
  -27.6500  -13.2870   19.7800 C   0  0  0  0  0  3  0  0  0  0  0  0
  -28.7330  -13.0880   20.8660 C   0  0  0  0  0  2  0  0  0  0  0  0
  -30.0430  -13.3680   20.2560 N   0  0  0  0  0  0  0  0  0  0  0  0
  -31.9230  -14.6230   19.9900 O   0  0  0  0  0  0  0  0  0  0  0  0
  -30.0470  -15.6300   20.6820 N   0  0  0  0  0  0  0  0  0  0  0  0
  -29.0600  -15.5200   20.8530 H   0  0  0  0  0  0  0  0  0  0  0  0
  -25.2660  -13.8920   20.5410 C   0  0  0  0  0  0  0  0  0  0  0  0
  -24.2000  -13.1190   20.9160 C   0  0  0  0  0  0  0  0  0  0  0  0
  -24.6570  -11.7690   20.8650 C   0  0  0  0  0  0  0  0  0  0  0  0
  -26.3060  -13.0110   20.2860 N   0  0  0  0  0  0  0  0  0  0  0  0
  -25.9430  -11.7270   20.5410 N   0  0  0  0  0  0  0  0  0  0  0  0
  -23.9300  -10.5050   21.0490 C   0  0  0  0  0  0  0  0  0  0  0  0
  -24.3590   -9.5370   21.9820 C   0  0  0  0  0  3  0  0  0  0  0  0
  -23.6330   -8.3400   22.1550 C   0  0  0  0  0  3  0  0  0  0  0  0
  -22.4640   -8.1020   21.3940 C   0  0  0  0  0  0  0  0  0  0  0  0
  -22.0530   -9.0600   20.4500 C   0  0  0  0  0  3  0  0  0  0  0  0
  -22.7810  -10.2490   20.2740 C   0  0  0  0  0  3  0  0  0  0  0  0
  -21.7100   -6.9580   21.4760 O   0  0  0  0  0  0  0  0  0  0  0  0
  -21.6440   -6.2200   22.6310 C   0  0  0  0  0  0  0  0  0  0  0  0
  -21.1790   -6.7740   23.8430 C   0  0  0  0  0  3  0  0  0  0  0  0
  -21.0600   -5.9630   24.9890 C   0  0  0  0  0  3  0  0  0  0  0  0
  -21.3990   -4.5980   24.9230 C   0  0  0  0  0  0  0  0  0  0  0  0
  -21.8620   -4.0440   23.7170 C   0  0  0  0  0  3  0  0  0  0  0  0
  -21.9800   -4.8520   22.5730 C   0  0  0  0  0  0  0  0  0  0  0  0
  -22.4030   -4.3090   21.4070 F   0  0  0  0  0  0  0  0  0  0  0  0
  -21.2810   -3.8150   26.0210 F   0  0  0  0  0  0  0  0  0  0  0  0
  -22.8080  -13.5990   21.2110 C   0  0  0  0  0  0  0  0  0  0  0  0
  -22.0800  -12.8890   22.0680 N   0  0  0  0  0  0  0  0  0  0  0  0
  -22.3700  -14.6380   20.7140 O   0  0  0  0  0  0  0  0  0  0  0  0
  -22.4410  -12.0510   22.4990 H   0  0  0  0  0  0  0  0  0  0  0  0
  -21.1450  -13.1920   22.2990 H   0  0  0  0  0  0  0  0  0  0  0  0
  -25.4250  -15.2650   20.3830 N   0  0  0  0  0  0  0  0  0  0  0  0
  -24.6590  -15.9130   20.5270 H   0  0  0  0  0  0  0  0  0  0  0  0
  -26.2820  -15.7320   20.0940 H   0  0  0  0  0  0  0  0  0  0  0  0
  2  6  2  0
  2  5  1  0
  3  1  1  0
  3 55  1  0
  4  9  1  0
  4  1  2  0
  5  3  2  0
  6  4  1  0
  7  5  1  0
  8  6  1  0
  9 10  1  0
  9 11  1  0
 12 11  1  0
 12 13  1  0
 14 13  1  0
 15 26  2  0
 16 14  1  0
 16 21  1  0
 17 25  1  0
 17 27  1  0
 18 24  1  0
 18 20  1  0
 19 25  1  0
 20 21  2  0
 20 19  1  0
 22 16  2  0
 23 22  1  0
 23 18  2  0
 24 17  1  0
 25 15  1  0
 27 29  2  0
 28 27  1  0
 30 28  1  0
 31 40  2  0
 31 36  1  0
 32 28  1  0
 32 36  1  0
 33 32  1  0
 34 35  1  0
 34 33  1  0
 35 31  1  0
 36 37  2  0
 37 38  1  0
 39 38  2  0
 40 39  1  0
 41 15  1  0
 41 42  1  0
 41 51  1  0
 42 45  1  0
 43 47  1  0
 43 42  1  0
 44 43  2  0
 47 46  1  0
 49 47  1  0
 49 50  1  0
 49 48  1  0
 51 54  1  1
 51 52  1  0
 53 51  1  0
 55 64  1  0
 56 64  1  0
 57 62  1  0
 58 59  1  0
 58 57  1  0
 60 59  1  0
 60 69  1  0
 60 61  1  0
 62 56  1  0
 62 61  1  0
 63 56  2  0
 64 65  1  0
 66 67  2  0
 67 86  1  0
 68 67  1  0
 68 71  1  0
 69 70  1  0
 69 66  1  0
 70 68  2  0
 71 72  1  0
 72 73  2  0
 74 77  1  0
 74 73  1  0
 75 74  2  0
 76 75  1  0
 76 71  2  0
 77 78  1  0
 78 79  1  0
 79 80  2  0
 81 80  1  0
 81 85  1  0
 82 81  2  0
 83 78  2  0
 83 82  1  0
 84 83  1  0
 86 87  1  0
 87 90  1  0
 87 89  1  0
 88 86  2  0
 91 92  1  0
 91 66  1  0
 93 91  1  0
M  ISO  4  13 101  14 101  56 100  64 100
M  END
>  <TORSDO>  (3) 
F 21

>  <SCORE>  (3) 
-13.824

>  <name>  (3) 
2

>  <ligand_id>  (3) 
2

>  <original_smiles>  (3) 
[H]c1c([H])c([H])c2c(c1[H])C([H])([H])C([H])([H])C([H])([H])C2([H])N([H])C(=O)C1([H])N(C(=O)C([H])(N([H])C(=O)C([H])(N([H])C([H])([H])[H])C([H])([H])[H])C(C([H])([H])[H])(C([H])([H])[H])C([H])([H])[H])C([H])([H])c2c([H])c(OC([H])([H])C([H])([H])C([H])([H])N([H])c3c([H])c(C([H])([H])N([H])C(=O)N4C([H])([H])C([H])([H])C([H])([H])C([H])(n5nc(-c6c([H])c([H])c(Oc7c([H])c([H])c(F)c([H])c7F)c([H])c6[H])c(C(=O)N([H])[H])c5N([H])[H])C4([H])[H])c(F)c([H])c3F)c([H])c([H])c2C1([H])[H]

>  <smiles>  (3) 
[H]c1c([H])c([H])c2c(c1[H])C([H])([H])C([H])([H])C([H])([H])C2([H])N([H])C(=O)C1([H])N(C(=O)C([H])(N([H])C(=O)C([H])(N([H])C([H])([H])[H])C([H])([H])[H])C(C([H])([H])[H])(C([H])([H])[H])C([H])([H])[H])C([H])([H])c2c([H])c(OC([H])([H])C([H])([H])C([H])([H])N([H])c3c([H])c(C([H])([H])N([H])C(=O)N4C([H])([H])C([H])([H])C([H])([H])C([H])(n5nc(-c6c([H])c([H])c(Oc7c([H])c([H])c(F)c([H])c7F)c([H])c6[H])c(C(=O)N([H])[H])c5N([H])[H])C4([H])[H])c(F)c([H])c3F)c([H])c([H])c2C1([H])[H]

$$$$
3:0:0
     RDKit          3D

 90 98  0  0  1  0  0  0  0  0999 V2000
  -28.9300  -22.4280   19.7890 N   0  0  0  0  0  4  0  0  0  0  0  0
  -29.5380  -22.5490   18.9950 H   0  0  0  0  0  0  0  0  0  0  0  0
  -28.0160  -22.2160   19.4170 H   0  0  0  0  0  0  0  0  0  0  0  0
  -28.8480  -23.7710   20.5330 C   0  0  0  0  0  3  0  0  0  0  0  0
  -28.4270  -25.0630   19.6720 C   0  0  0  0  0  3  0  0  0  0  0  0
  -28.3400  -26.4250   20.2910 O   0  0  0  0  0  0  0  0  0  0  0  0
  -24.5740  -31.8640   23.2260 C   0  0  0  0  0  0  0  0  0  0  0  0
  -27.2040  -27.2620   20.2080 C   0  0  0  0  0  0  0  0  0  0  0  0
  -23.3840  -30.4610   21.5820 C   0  0  0  0  0  3  0  0  0  0  0  0
  -24.8430  -28.9030   20.1760 C   0  0  0  0  0  0  0  0  0  0  0  0
  -25.9290  -30.7650   21.4260 C   0  0  0  0  0  2  0  0  0  0  0  0
  -26.0090  -29.3810   20.7840 C   0  0  0  0  0  0  0  0  0  0  0  0
  -27.1880  -28.5730   20.7930 C   0  0  0  0  0  3  0  0  0  0  0  0
  -26.0060  -26.8460   19.5760 C   0  0  0  0  0  3  0  0  0  0  0  0
  -24.8470  -27.6420   19.5650 C   0  0  0  0  0  3  0  0  0  0  0  0
  -23.6100  -29.7820   20.2070 C   0  0  0  0  0  2  0  0  0  0  0  0
  -24.6480  -31.0480   22.1340 N   0  0  0  0  0  0  0  0  0  0  0  0
  -23.4850  -32.1490   23.7460 O   0  0  0  0  0  0  0  0  0  0  0  0
  -22.7070  -29.4500   22.5390 C   0  0  0  0  0  0  0  0  0  0  0  0
  -21.3830  -29.2690   22.3940 N   0  0  0  0  0  0  0  0  0  0  0  0
  -23.3730  -28.8310   23.3730 O   0  0  0  0  0  0  0  0  0  0  0  0
  -20.9060  -29.8210   21.6940 H   0  0  0  0  0  0  0  0  0  0  0  0
  -18.0040  -28.0530   22.8360 C   0  0  0  0  0  0  0  0  0  0  0  0
  -20.5550  -28.3360   23.1580 C   0  0  0  0  0  3  0  0  0  0  0  0
  -20.6780  -26.8970   22.6060 C   0  0  0  0  0  2  0  0  0  0  0  0
  -19.6020  -26.5510   21.5720 C   0  0  0  0  0  2  0  0  0  0  0  0
  -18.2050  -26.6960   22.1850 C   0  0  0  0  0  2  0  0  0  0  0  0
  -19.1070  -28.8310   23.2790 C   0  0  0  0  0  0  0  0  0  0  0  0
  -18.8670  -30.1000   23.8480 C   0  0  0  0  0  3  0  0  0  0  0  0
  -17.5540  -30.5940   23.9770 C   0  0  0  0  0  3  0  0  0  0  0  0
  -16.4660  -29.8150   23.5490 C   0  0  0  0  0  3  0  0  0  0  0  0
  -16.6910  -28.5470   22.9850 C   0  0  0  0  0  3  0  0  0  0  0  0
  -25.8510  -32.4960   23.8590 C   0  0  0  0  0  3  0  0  0  0  0  0
  -26.3490  -31.7330   25.1490 C   0  0  1  0  0  0  0  0  0  0  0  0
  -25.2420  -31.5090   26.2050 C   0  0  0  0  0  1  0  0  0  0  0  0
  -26.9310  -30.3510   24.7760 C   0  0  0  0  0  1  0  0  0  0  0  0
  -27.4930  -32.5290   25.8190 C   0  0  0  0  0  1  0  0  0  0  0  0
  -25.5420  -33.8990   24.1760 N   0  0  0  0  0  0  0  0  0  0  0  0
  -25.8760  -34.9450   23.4100 C   0  0  0  0  0  0  0  0  0  0  0  0
  -26.5470  -34.8320   22.3800 O   0  0  0  0  0  0  0  0  0  0  0  0
  -24.9460  -34.0620   24.9750 H   0  0  0  0  0  0  0  0  0  0  0  0
  -24.1440  -36.7340   23.0470 C   0  0  0  0  0  1  0  0  0  0  0  0
  -25.3910  -36.3380   23.8560 C   0  0  0  0  0  3  0  0  0  0  0  0
  -27.5280  -37.2320   24.6650 C   0  0  0  0  0  1  0  0  0  0  0  0
  -26.4210  -37.3890   23.7260 N   0  0  0  0  0  0  0  0  0  0  0  0
  -26.0160  -38.3110   23.8660 H   0  0  0  0  0  0  0  0  0  0  0  0
  -29.3990  -21.1680   20.5240 C   0  0  0  0  0  2  0  0  0  0  0  0
  -29.4810  -19.8050   19.6700 C   0  0  0  0  0  3  0  0  0  0  0  0
  -28.2760  -19.5850   19.1390 F   0  0  0  0  0  0  0  0  0  0  0  0
  -30.7630  -14.6980   19.9740 C   0  0  0  0  0  0  0  0  0  0  0  0
  -30.4400  -12.4720   18.8910 C   0  0  0  0  0  2  0  0  0  0  0  0
  -29.4170  -12.6020   17.7410 C   0  0  0  0  0  2  0  0  0  0  0  0
  -27.9760  -12.4460   18.2680 C   0  0  0  0  0  2  0  0  0  0  0  0
  -27.7100  -13.2930   19.5420 C   0  0  0  0  0  3  0  0  0  0  0  0
  -28.8440  -13.1170   20.5740 C   0  0  0  0  0  2  0  0  0  0  0  0
  -30.0970  -13.4940   19.9090 N   0  0  0  0  0  0  0  0  0  0  0  0
  -31.8990  -14.7840   19.4970 O   0  0  0  0  0  0  0  0  0  0  0  0
  -29.1700  -17.8080   21.4450 C   0  0  0  0  0  2  0  0  0  0  0  0
  -29.6010  -16.3180   21.5400 C   0  0  0  0  0  2  0  0  0  0  0  0
  -30.1600  -17.1380   19.4060 C   0  0  0  0  0  2  0  0  0  0  0  0
  -30.0010  -18.4190   20.3190 C   0  0  0  0  0  3  0  0  0  0  0  0
  -30.0340  -15.8640   20.2050 N   0  0  0  0  0  0  0  0  0  0  0  0
  -25.3860  -13.8990   20.4460 C   0  0  0  0  0  0  0  0  0  0  0  0
  -24.3350  -13.1290   20.8660 C   0  0  0  0  0  0  0  0  0  0  0  0
  -24.7740  -11.7740   20.7660 C   0  0  0  0  0  0  0  0  0  0  0  0
  -26.3970  -13.0120   20.1150 N   0  0  0  0  0  0  0  0  0  0  0  0
  -26.0390  -11.7270   20.3660 N   0  0  0  0  0  0  0  0  0  0  0  0
  -24.0440  -10.5150   20.9720 C   0  0  0  0  0  0  0  0  0  0  0  0
  -24.5060   -9.5310   21.8730 C   0  0  0  0  0  3  0  0  0  0  0  0
  -23.7760   -8.3380   22.0680 C   0  0  0  0  0  3  0  0  0  0  0  0
  -22.5680   -8.1230   21.3620 C   0  0  0  0  0  0  0  0  0  0  0  0
  -22.1240   -9.0960   20.4500 C   0  0  0  0  0  3  0  0  0  0  0  0
  -22.8550  -10.2790   20.2530 C   0  0  0  0  0  3  0  0  0  0  0  0
  -21.8070   -6.9850   21.4690 O   0  0  0  0  0  0  0  0  0  0  0  0
  -21.7690   -6.2500   22.6270 C   0  0  0  0  0  0  0  0  0  0  0  0
  -21.3760   -6.8180   23.8580 C   0  0  0  0  0  3  0  0  0  0  0  0
  -21.2820   -6.0110   25.0080 C   0  0  0  0  0  3  0  0  0  0  0  0
  -21.5730   -4.6360   24.9300 C   0  0  0  0  0  0  0  0  0  0  0  0
  -21.9590   -4.0660   23.7030 C   0  0  0  0  0  3  0  0  0  0  0  0
  -22.0530   -4.8710   22.5550 C   0  0  0  0  0  0  0  0  0  0  0  0
  -22.4050   -4.3140   21.3710 F   0  0  0  0  0  0  0  0  0  0  0  0
  -21.4760   -3.8570   26.0330 F   0  0  0  0  0  0  0  0  0  0  0  0
  -22.9680  -13.6170   21.2490 C   0  0  0  0  0  0  0  0  0  0  0  0
  -22.2960  -12.9100   22.1490 N   0  0  0  0  0  0  0  0  0  0  0  0
  -22.5080  -14.6580   20.7830 O   0  0  0  0  0  0  0  0  0  0  0  0
  -22.6830  -12.0670   22.5470 H   0  0  0  0  0  0  0  0  0  0  0  0
  -21.3820  -13.2190   22.4480 H   0  0  0  0  0  0  0  0  0  0  0  0
  -25.5630  -15.2710   20.2980 N   0  0  0  0  0  0  0  0  0  0  0  0
  -24.8250  -15.9400   20.4910 H   0  0  0  0  0  0  0  0  0  0  0  0
  -26.4090  -15.7060   19.9530 H   0  0  0  0  0  0  0  0  0  0  0  0
  1 47  1  0
  1  4  1  0
  2  1  1  0
  3  1  1  0
  5  6  1  0
  5  4  2  0
  7 18  2  0
  8  6  1  0
  8 13  1  0
  9 17  1  0
  9 19  1  0
 10 16  1  0
 10 12  1  0
 11 17  1  0
 12 13  2  0
 12 11  1  0
 14  8  2  0
 15 14  1  0
 15 10  2  0
 16  9  1  0
 17  7  1  0
 19 21  2  0
 20 19  1  0
 22 20  1  0
 23 32  2  0
 23 28  1  0
 24 20  1  0
 24 28  1  0
 25 24  1  0
 26 27  1  0
 26 25  1  0
 27 23  1  0
 28 29  2  0
 29 30  1  0
 31 30  2  0
 32 31  1  0
 33  7  1  0
 33 38  1  0
 33 34  1  0
 34 37  1  1
 34 35  1  0
 36 34  1  0
 38 41  1  0
 39 43  1  0
 39 38  1  0
 40 39  2  0
 43 42  1  0
 45 43  1  0
 45 46  1  0
 45 44  1  0
 48 49  1  0
 48 47  1  0
 50 62  1  0
 51 56  1  0
 52 53  1  0
 52 51  1  0
 54 53  1  0
 54 66  1  0
 54 55  1  0
 56 50  1  0
 56 55  1  0
 57 50  2  0
 58 59  1  0
 60 62  1  0
 60 61  1  0
 61 48  1  0
 61 58  1  0
 62 59  1  0
 63 64  2  0
 64 83  1  0
 65 64  1  0
 65 68  1  0
 66 67  1  0
 66 63  1  0
 67 65  2  0
 68 69  1  0
 69 70  2  0
 71 74  1  0
 71 70  1  0
 72 71  2  0
 73 72  1  0
 73 68  2  0
 74 75  1  0
 75 76  1  0
 76 77  2  0
 78 77  1  0
 78 82  1  0
 79 78  2  0
 80 75  2  0
 80 79  1  0
 81 80  1  0
 83 84  1  0
 84 87  1  0
 84 86  1  0
 85 83  2  0
 88 63  1  0
 88 89  1  0
 90 88  1  0
M  ISO  4   5 101   6 101  50 100  62 100
M  END
>  <TORSDO>  (4) 
F 20

>  <SCORE>  (4) 
-13.100

>  <name>  (4) 
3

>  <ligand_id>  (4) 
3

>  <original_smiles>  (4) 
[H]c1c([H])c([H])c2c(c1[H])C([H])([H])C([H])([H])C([H])([H])C2([H])N([H])C(=O)C1([H])N(C(=O)C([H])(N([H])C(=O)C([H])(N([H])C([H])([H])[H])C([H])([H])[H])C(C([H])([H])[H])(C([H])([H])[H])C([H])([H])[H])C([H])([H])c2c([H])c(OC([H])([H])C([H])([H])[N+]([H])([H])C([H])([H])C([H])(F)C3([H])C([H])([H])N(C(=O)N4C([H])([H])C([H])([H])C([H])([H])C([H])(n5nc(-c6c([H])c([H])c(Oc7c([H])c([H])c(F)c([H])c7F)c([H])c6[H])c(C(=O)N([H])[H])c5N([H])[H])C4([H])[H])C([H])([H])C3([H])[H])c([H])c([H])c2C1([H])[H]

>  <smiles>  (4) 
[H]c1c([H])c([H])c2c(c1[H])C([H])([H])C([H])([H])C([H])([H])C2([H])N([H])C(=O)C1([H])N(C(=O)C([H])(N([H])C(=O)C([H])(N([H])C([H])([H])[H])C([H])([H])[H])C(C([H])([H])[H])(C([H])([H])[H])C([H])([H])[H])C([H])([H])c2c([H])c(OC([H])([H])C([H])([H])[N+]([H])([H])C([H])([H])C([H])(F)C3([H])C([H])([H])N(C(=O)N4C([H])([H])C([H])([H])C([H])([H])C([H])(n5nc(-c6c([H])c([H])c(Oc7c([H])c([H])c(F)c([H])c7F)c([H])c6[H])c(C(=O)N([H])[H])c5N([H])[H])C4([H])[H])C([H])([H])C3([H])[H])c([H])c([H])c2C1([H])[H]

$$$$
4:0:0
     RDKit          3D

 95103  0  0  1  0  0  0  0  0999 V2000
  -28.8960  -23.4690   20.0410 C   0  0  0  0  0  3  0  0  0  0  0  0
  -28.8460  -22.0650   20.9300 C   0  0  0  0  0  2  0  0  0  0  0  0
  -28.1530  -19.5370   20.4040 C   0  0  0  0  0  3  0  0  0  0  0  0
  -30.7110  -18.4510   20.5240 C   0  0  0  0  0  3  0  0  0  0  0  0
  -29.1890  -20.5130   20.5350 C   0  0  0  0  0  0  0  0  0  0  0  0
  -29.6500  -17.4870   20.4450 C   0  0  0  0  0  0  0  0  0  0  0  0
  -28.3710  -18.1140   20.3640 C   0  0  0  0  0  0  0  0  0  0  0  0
  -30.4890  -19.8930   20.5790 C   0  0  0  0  0  0  0  0  0  0  0  0
  -27.2890  -17.3070   20.2800 F   0  0  0  0  0  0  0  0  0  0  0  0
  -31.5660  -20.6970   20.7380 F   0  0  0  0  0  0  0  0  0  0  0  0
  -30.5440  -14.8940   20.2810 C   0  0  0  0  0  0  0  0  0  0  0  0
  -30.4160  -12.5790   19.2810 C   0  0  0  0  0  2  0  0  0  0  0  0
  -29.4560  -12.6070   18.0680 C   0  0  0  0  0  2  0  0  0  0  0  0
  -27.9930  -12.4110   18.5150 C   0  0  0  0  0  2  0  0  0  0  0  0
  -27.6190  -13.3010   19.7290 C   0  0  0  0  0  3  0  0  0  0  0  0
  -28.6930  -13.2310   20.8370 C   0  0  0  0  0  2  0  0  0  0  0  0
  -29.9730  -13.6310   20.2310 N   0  0  0  0  0  0  0  0  0  0  0  0
  -31.7270  -15.0330   19.9560 O   0  0  0  0  0  0  0  0  0  0  0  0
  -29.6760  -15.9720   20.5050 N   0  0  0  0  0  0  0  0  0  0  0  0
  -28.7490  -15.6160   20.6830 H   0  0  0  0  0  0  0  0  0  0  0  0
  -25.2370  -13.8810   20.4860 C   0  0  0  0  0  0  0  0  0  0  0  0
  -24.1770  -13.1030   20.8630 C   0  0  0  0  0  0  0  0  0  0  0  0
  -24.6430  -11.7540   20.8220 C   0  0  0  0  0  0  0  0  0  0  0  0
  -26.2820  -13.0060   20.2360 N   0  0  0  0  0  0  0  0  0  0  0  0
  -25.9320  -11.7200   20.5020 N   0  0  0  0  0  0  0  0  0  0  0  0
  -23.9190  -10.4920   21.0130 C   0  0  0  0  0  0  0  0  0  0  0  0
  -24.3500   -9.5260   21.9500 C   0  0  0  0  0  3  0  0  0  0  0  0
  -23.6240   -8.3290   22.1290 C   0  0  0  0  0  3  0  0  0  0  0  0
  -22.4520   -8.0890   21.3710 C   0  0  0  0  0  0  0  0  0  0  0  0
  -22.0400   -9.0440   20.4260 C   0  0  0  0  0  3  0  0  0  0  0  0
  -22.7670  -10.2320   20.2440 C   0  0  0  0  0  3  0  0  0  0  0  0
  -21.6980   -6.9450   21.4600 O   0  0  0  0  0  0  0  0  0  0  0  0
  -21.6380   -6.2100   22.6180 C   0  0  0  0  0  0  0  0  0  0  0  0
  -21.1920   -6.7730   23.8330 C   0  0  0  0  0  3  0  0  0  0  0  0
  -21.0800   -5.9650   24.9820 C   0  0  0  0  0  3  0  0  0  0  0  0
  -21.4020   -4.5960   24.9170 C   0  0  0  0  0  0  0  0  0  0  0  0
  -21.8410   -4.0330   23.7060 C   0  0  0  0  0  3  0  0  0  0  0  0
  -21.9550   -4.8380   22.5580 C   0  0  0  0  0  0  0  0  0  0  0  0
  -22.3580   -4.2870   21.3880 F   0  0  0  0  0  0  0  0  0  0  0  0
  -21.2860   -3.8180   26.0180 F   0  0  0  0  0  0  0  0  0  0  0  0
  -22.7830  -13.5800   21.1500 C   0  0  0  0  0  0  0  0  0  0  0  0
  -22.0630  -12.8800   22.0200 N   0  0  0  0  0  0  0  0  0  0  0  0
  -22.3410  -14.6090   20.6400 O   0  0  0  0  0  0  0  0  0  0  0  0
  -22.4330  -12.0480   22.4530 H   0  0  0  0  0  0  0  0  0  0  0  0
  -21.1280  -13.1830   22.2550 H   0  0  0  0  0  0  0  0  0  0  0  0
  -25.3860  -15.2520   20.3190 N   0  0  0  0  0  0  0  0  0  0  0  0
  -24.6130  -15.8880   20.4730 H   0  0  0  0  0  0  0  0  0  0  0  0
  -26.2380  -15.7420   20.0700 H   0  0  0  0  0  0  0  0  0  0  0  0
  -28.6490  -23.2030   18.5400 C   0  0  0  0  0  2  0  0  0  0  0  0
  -27.3090  -22.6600   18.2410 N   0  0  0  0  0  4  0  0  0  0  0  0
  -27.1650  -21.7730   18.6870 H   0  0  0  0  0  0  0  0  0  0  0  0
  -27.2250  -22.5160   17.2500 H   0  0  0  0  0  0  0  0  0  0  0  0
  -26.5790  -23.2910   18.5180 H   0  0  0  0  0  0  0  0  0  0  0  0
  -28.0800  -24.8260   20.5700 C   0  0  0  0  0  2  0  0  0  0  0  0
  -28.3030  -26.2930   20.1650 O   0  0  0  0  0  0  0  0  0  0  0  0
  -24.6100  -31.8750   23.1840 C   0  0  0  0  0  0  0  0  0  0  0  0
  -27.2170  -27.2220   20.1530 C   0  0  0  0  0  0  0  0  0  0  0  0
  -23.4120  -30.4740   21.5450 C   0  0  0  0  0  3  0  0  0  0  0  0
  -24.8680  -28.9110   20.1230 C   0  0  0  0  0  0  0  0  0  0  0  0
  -25.9610  -30.7680   21.3730 C   0  0  0  0  0  2  0  0  0  0  0  0
  -26.0430  -29.3790   20.7260 C   0  0  0  0  0  0  0  0  0  0  0  0
  -27.2210  -28.5510   20.7230 C   0  0  0  0  0  3  0  0  0  0  0  0
  -26.0190  -26.8410   19.5140 C   0  0  0  0  0  3  0  0  0  0  0  0
  -24.8650  -27.6520   19.5020 C   0  0  0  0  0  3  0  0  0  0  0  0
  -23.6330  -29.7950   20.1670 C   0  0  0  0  0  2  0  0  0  0  0  0
  -24.6810  -31.0590   22.0900 N   0  0  0  0  0  0  0  0  0  0  0  0
  -23.5240  -32.1540   23.7140 O   0  0  0  0  0  0  0  0  0  0  0  0
  -22.7420  -29.4630   22.5080 C   0  0  0  0  0  0  0  0  0  0  0  0
  -21.4140  -29.2930   22.3870 N   0  0  0  0  0  0  0  0  0  0  0  0
  -23.4180  -28.8320   23.3240 O   0  0  0  0  0  0  0  0  0  0  0  0
  -20.9250  -29.8530   21.7020 H   0  0  0  0  0  0  0  0  0  0  0  0
  -18.0310  -28.1110   22.9110 C   0  0  0  0  0  0  0  0  0  0  0  0
  -20.5940  -28.3560   23.1590 C   0  0  0  0  0  3  0  0  0  0  0  0
  -20.6830  -26.9270   22.5750 C   0  0  0  0  0  2  0  0  0  0  0  0
  -19.5700  -26.6170   21.5680 C   0  0  0  0  0  2  0  0  0  0  0  0
  -18.1940  -26.7650   22.2250 C   0  0  0  0  0  2  0  0  0  0  0  0
  -19.1580  -28.8650   23.3360 C   0  0  0  0  0  0  0  0  0  0  0  0
  -18.9500  -30.1240   23.9390 C   0  0  0  0  0  3  0  0  0  0  0  0
  -17.6500  -30.6300   24.1220 C   0  0  0  0  0  3  0  0  0  0  0  0
  -16.5380  -29.8730   23.7120 C   0  0  0  0  0  3  0  0  0  0  0  0
  -16.7300  -28.6160   23.1130 C   0  0  0  0  0  3  0  0  0  0  0  0
  -25.8870  -32.5130   23.8090 C   0  0  0  0  0  3  0  0  0  0  0  0
  -25.5690  -33.9080   24.1510 N   0  0  0  0  0  0  0  0  0  0  0  0
  -25.8960  -34.9710   23.4050 C   0  0  0  0  0  0  0  0  0  0  0  0
  -26.5640  -34.8800   22.3710 O   0  0  0  0  0  0  0  0  0  0  0  0
  -24.9740  -34.0510   24.9530 H   0  0  0  0  0  0  0  0  0  0  0  0
  -24.1630  -36.7650   23.0700 C   0  0  0  0  0  1  0  0  0  0  0  0
  -25.4040  -36.3530   23.8770 C   0  0  0  0  0  3  0  0  0  0  0  0
  -27.5360  -37.2370   24.7200 C   0  0  0  0  0  1  0  0  0  0  0  0
  -26.4340  -37.4110   23.7770 N   0  0  0  0  0  0  0  0  0  0  0  0
  -26.0250  -38.3280   23.9320 H   0  0  0  0  0  0  0  0  0  0  0  0
  -26.4070  -31.7380   25.0830 C   0  0  1  0  0  0  0  0  0  0  0  0
  -25.3160  -31.4920   26.1510 C   0  0  0  0  0  1  0  0  0  0  0  0
  -26.9960  -30.3650   24.6880 C   0  0  0  0  0  1  0  0  0  0  0  0
  -27.5560  -32.5340   25.7470 C   0  0  0  0  0  1  0  0  0  0  0  0
  1 49  1  0
  1 54  1  0
  1  2  1  0
  3  5  1  0
  4  8  1  0
  5  8  2  0
  5  2  1  0
  6 19  1  0
  6  4  2  0
  7  3  2  0
  7  6  1  0
  8 10  1  0
  9  7  1  0
 11 19  1  0
 12 17  1  0
 13 14  1  0
 13 12  1  0
 15 14  1  0
 15 24  1  0
 15 16  1  0
 17 11  1  0
 17 16  1  0
 18 11  2  0
 19 20  1  0
 21 22  2  0
 22 41  1  0
 23 22  1  0
 23 26  1  0
 24 21  1  0
 24 25  1  0
 25 23  2  0
 26 27  1  0
 27 28  2  0
 29 32  1  0
 29 28  1  0
 30 29  2  0
 31 30  1  0
 31 26  2  0
 32 33  1  0
 33 34  1  0
 34 35  2  0
 36 35  1  0
 36 40  1  0
 37 36  2  0
 38 33  2  0
 38 37  1  0
 39 38  1  0
 41 42  1  0
 42 45  1  0
 42 44  1  0
 43 41  2  0
 46 47  1  0
 46 21  1  0
 48 46  1  0
 50 53  1  0
 50 49  1  0
 50 51  1  0
 52 50  1  0
 55 54  1  0
 56 67  2  0
 57 55  1  0
 57 62  1  0
 58 66  1  0
 58 68  1  0
 59 65  1  0
 59 61  1  0
 60 66  1  0
 61 60  1  0
 62 61  2  0
 63 57  2  0
 64 63  1  0
 64 59  2  0
 65 58  1  0
 66 56  1  0
 68 70  2  0
 69 68  1  0
 71 69  1  0
 72 81  2  0
 72 77  1  0
 73 69  1  0
 73 77  1  0
 74 73  1  0
 75 76  1  0
 75 74  1  0
 76 72  1  0
 77 78  2  0
 78 79  1  0
 80 79  2  0
 81 80  1  0
 82 56  1  0
 82 83  1  0
 82 92  1  0
 83 86  1  0
 84 88  1  0
 84 83  1  0
 85 84  2  0
 88 87  1  0
 90 88  1  0
 90 91  1  0
 90 89  1  0
 92 95  1  1
 92 93  1  0
 94 92  1  0
M  ISO  4  11 100  19 100  54 101  55 101
M  END
>  <TORSDO>  (5) 
F 21

>  <SCORE>  (5) 
-14.086

>  <name>  (5) 
4

>  <ligand_id>  (5) 
4

>  <original_smiles>  (5) 
[H]c1c([H])c([H])c2c(c1[H])C([H])([H])C([H])([H])C([H])([H])C2([H])N([H])C(=O)C1([H])N(C(=O)C([H])(N([H])C(=O)C([H])(N([H])C([H])([H])[H])C([H])([H])[H])C(C([H])([H])[H])(C([H])([H])[H])C([H])([H])[H])C([H])([H])c2c([H])c(OC([H])([H])C([H])(C([H])([H])c3c([H])c(F)c(N([H])C(=O)N4C([H])([H])C([H])([H])C([H])([H])C([H])(n5nc(-c6c([H])c([H])c(Oc7c([H])c([H])c(F)c([H])c7F)c([H])c6[H])c(C(=O)N([H])[H])c5N([H])[H])C4([H])[H])c([H])c3F)C([H])([H])[N+]([H])([H])[H])c([H])c([H])c2C1([H])[H]

>  <smiles>  (5) 
[H]c1c([H])c([H])c2c(c1[H])C([H])([H])C([H])([H])C([H])([H])C2([H])N([H])C(=O)C1([H])N(C(=O)C([H])(N([H])C(=O)C([H])(N([H])C([H])([H])[H])C([H])([H])[H])C(C([H])([H])[H])(C([H])([H])[H])C([H])([H])[H])C([H])([H])c2c([H])c(OC([H])([H])C([H])(C([H])([H])c3c([H])c(F)c(N([H])C(=O)N4C([H])([H])C([H])([H])C([H])([H])C([H])(n5nc(-c6c([H])c([H])c(Oc7c([H])c([H])c(F)c([H])c7F)c([H])c6[H])c(C(=O)N([H])[H])c5N([H])[H])C4([H])[H])c([H])c3F)C([H])([H])[N+]([H])([H])[H])c([H])c([H])c2C1([H])[H]

$$$$
5:0:0
     RDKit          3D

 96104  0  0  1  0  0  0  0  0999 V2000
  -26.6700  -20.9450   17.4360 C   0  0  0  0  0  2  0  0  0  0  0  0
  -26.2180  -20.6810   18.8900 C   0  0  0  0  0  2  0  0  0  0  0  0
  -28.0200  -19.2690   19.8490 C   0  0  0  0  0  0  0  0  0  0  0  0
  -26.7840  -19.4250   19.3630 N   0  0  0  0  0  0  0  0  0  0  0  0
  -28.7430  -20.2150   20.1660 O   0  0  0  0  0  0  0  0  0  0  0  0
  -26.2540  -18.5840   19.1660 H   0  0  0  0  0  0  0  0  0  0  0  0
  -30.9190  -14.3040   19.9970 C   0  0  0  0  0  0  0  0  0  0  0  0
  -30.5190  -12.1870   18.8160 C   0  0  0  0  0  2  0  0  0  0  0  0
  -29.4970  -12.4570   17.6890 C   0  0  0  0  0  2  0  0  0  0  0  0
  -28.0480  -12.3570   18.2110 C   0  0  0  0  0  2  0  0  0  0  0  0
  -27.8210  -13.1400   19.5320 C   0  0  0  0  0  3  0  0  0  0  0  0
  -28.9470  -12.8180   20.5450 C   0  0  0  0  0  2  0  0  0  0  0  0
  -30.2280  -13.1360   19.9000 N   0  0  0  0  0  0  0  0  0  0  0  0
  -32.0780  -14.4180   19.5790 O   0  0  0  0  0  0  0  0  0  0  0  0
  -29.6370  -17.6320   18.8480 C   0  0  0  0  0  2  0  0  0  0  0  0
  -29.1410  -17.4130   21.2400 C   0  0  0  0  0  2  0  0  0  0  0  0
  -30.0260  -16.1560   18.7260 C   0  0  0  0  0  2  0  0  0  0  0  0
  -29.4660  -15.9060   21.2310 C   0  0  0  0  0  2  0  0  0  0  0  0
  -28.5430  -17.8310   19.8930 C   0  0  0  0  0  3  0  0  0  0  0  0
  -30.1240  -15.4020   20.0000 N   0  0  0  0  0  0  0  0  0  0  0  0
  -25.4860  -13.7920   20.3990 C   0  0  0  0  0  0  0  0  0  0  0  0
  -24.4230  -13.0370   20.8130 C   0  0  0  0  0  0  0  0  0  0  0  0
  -24.8480  -11.6760   20.7200 C   0  0  0  0  0  0  0  0  0  0  0  0
  -26.4940  -12.8910   20.0880 N   0  0  0  0  0  0  0  0  0  0  0  0
  -26.1160  -11.6130   20.3330 N   0  0  0  0  0  0  0  0  0  0  0  0
  -24.1060  -10.4260   20.9200 C   0  0  0  0  0  0  0  0  0  0  0  0
  -24.5220   -9.4660   21.8680 C   0  0  0  0  0  3  0  0  0  0  0  0
  -23.7820   -8.2790   22.0560 C   0  0  0  0  0  3  0  0  0  0  0  0
  -22.6120   -8.0450   21.2950 C   0  0  0  0  0  0  0  0  0  0  0  0
  -22.2150   -8.9940   20.3360 C   0  0  0  0  0  3  0  0  0  0  0  0
  -22.9570  -10.1720   20.1470 C   0  0  0  0  0  3  0  0  0  0  0  0
  -21.8440   -6.9100   21.3920 O   0  0  0  0  0  0  0  0  0  0  0  0
  -21.7100   -6.2320   22.5760 C   0  0  0  0  0  0  0  0  0  0  0  0
  -21.2000   -6.8510   23.7380 C   0  0  0  0  0  3  0  0  0  0  0  0
  -21.0130   -6.0990   24.9140 C   0  0  0  0  0  3  0  0  0  0  0  0
  -21.3280   -4.7260   24.9290 C   0  0  0  0  0  0  0  0  0  0  0  0
  -21.8330   -4.1060   23.7730 C   0  0  0  0  0  3  0  0  0  0  0  0
  -22.0200   -4.8560   22.5990 C   0  0  0  0  0  0  0  0  0  0  0  0
  -22.4870   -4.2490   21.4800 F   0  0  0  0  0  0  0  0  0  0  0  0
  -21.1420   -4.0000   26.0560 F   0  0  0  0  0  0  0  0  0  0  0  0
  -23.0570  -13.5380   21.1840 C   0  0  0  0  0  0  0  0  0  0  0  0
  -22.3780  -12.8490   22.0940 N   0  0  0  0  0  0  0  0  0  0  0  0
  -22.6040  -14.5750   20.7030 O   0  0  0  0  0  0  0  0  0  0  0  0
  -22.7580  -12.0080   22.5050 H   0  0  0  0  0  0  0  0  0  0  0  0
  -21.4640  -13.1660   22.3860 H   0  0  0  0  0  0  0  0  0  0  0  0
  -25.6720  -15.1620   20.2440 N   0  0  0  0  0  0  0  0  0  0  0  0
  -24.9300  -15.8300   20.4200 H   0  0  0  0  0  0  0  0  0  0  0  0
  -26.5180  -15.5810   19.8860 H   0  0  0  0  0  0  0  0  0  0  0  0
  -26.3280  -22.3500   16.8910 C   0  0  0  0  0  2  0  0  0  0  0  0
  -27.4010  -23.3510   17.1090 N   0  0  0  0  0  4  0  0  0  0  0  0
  -27.1030  -24.2010   16.6560 H   0  0  0  0  0  0  0  0  0  0  0  0
  -28.2430  -23.0520   16.6440 H   0  0  0  0  0  0  0  0  0  0  0  0
  -27.6910  -23.6510   18.5270 C   0  0  0  0  0  2  0  0  0  0  0  0
  -28.4790  -24.9570   18.7210 C   0  0  0  0  0  2  0  0  0  0  0  0
  -28.4870  -25.3770   20.2030 C   0  0  0  0  0  2  0  0  0  0  0  0
  -28.5130  -26.7930   20.3640 O   0  0  0  0  0  0  0  0  0  0  0  0
  -24.6090  -31.9460   23.2910 C   0  0  0  0  0  0  0  0  0  0  0  0
  -27.3110  -27.4720   20.3320 C   0  0  0  0  0  0  0  0  0  0  0  0
  -23.4350  -30.5290   21.6390 C   0  0  0  0  0  3  0  0  0  0  0  0
  -24.9130  -28.9710   20.2760 C   0  0  0  0  0  0  0  0  0  0  0  0
  -25.9650  -30.8800   21.4950 C   0  0  0  0  0  2  0  0  0  0  0  0
  -26.0600  -29.5030   20.8760 C   0  0  0  0  0  0  0  0  0  0  0  0
  -27.2600  -28.7630   20.8960 C   0  0  0  0  0  3  0  0  0  0  0  0
  -26.1330  -26.9410   19.7480 C   0  0  0  0  0  3  0  0  0  0  0  0
  -24.9430  -27.6860   19.7130 C   0  0  0  0  0  3  0  0  0  0  0  0
  -23.6740  -29.8340   20.2740 C   0  0  0  0  0  2  0  0  0  0  0  0
  -24.6870  -31.1330   22.2020 N   0  0  0  0  0  0  0  0  0  0  0  0
  -23.5180  -32.2290   23.8030 O   0  0  0  0  0  0  0  0  0  0  0  0
  -22.7590  -29.5200   22.5960 C   0  0  0  0  0  0  0  0  0  0  0  0
  -21.4380  -29.3410   22.4360 N   0  0  0  0  0  0  0  0  0  0  0  0
  -23.4200  -28.9030   23.4360 O   0  0  0  0  0  0  0  0  0  0  0  0
  -20.9690  -29.8890   21.7290 H   0  0  0  0  0  0  0  0  0  0  0  0
  -18.0470  -28.1770   22.8650 C   0  0  0  0  0  0  0  0  0  0  0  0
  -20.5980  -28.4190   23.1980 C   0  0  0  0  0  3  0  0  0  0  0  0
  -20.7050  -26.9800   22.6400 C   0  0  0  0  0  2  0  0  0  0  0  0
  -19.6250  -26.6530   21.6040 C   0  0  0  0  0  2  0  0  0  0  0  0
  -18.2290  -26.8180   22.2130 C   0  0  0  0  0  2  0  0  0  0  0  0
  -19.1600  -28.9360   23.3140 C   0  0  0  0  0  0  0  0  0  0  0  0
  -18.9380  -30.2090   23.8820 C   0  0  0  0  0  3  0  0  0  0  0  0
  -17.6330  -30.7220   24.0100 C   0  0  0  0  0  3  0  0  0  0  0  0
  -16.5340  -29.9610   23.5790 C   0  0  0  0  0  3  0  0  0  0  0  0
  -16.7410  -28.6910   23.0110 C   0  0  0  0  0  3  0  0  0  0  0  0
  -25.8840  -32.5770   23.9320 C   0  0  0  0  0  3  0  0  0  0  0  0
  -25.5760  -33.9800   24.2390 N   0  0  0  0  0  0  0  0  0  0  0  0
  -25.9210  -35.0200   23.4670 C   0  0  0  0  0  0  0  0  0  0  0  0
  -26.6040  -34.8990   22.4470 O   0  0  0  0  0  0  0  0  0  0  0  0
  -24.9700  -34.1480   25.0290 H   0  0  0  0  0  0  0  0  0  0  0  0
  -24.1950  -36.8040   23.0660 C   0  0  0  0  0  1  0  0  0  0  0  0
  -25.4270  -36.4140   23.8960 C   0  0  0  0  0  3  0  0  0  0  0  0
  -27.5530  -37.3140   24.7340 C   0  0  0  0  0  1  0  0  0  0  0  0
  -26.4610  -37.4670   23.7770 N   0  0  0  0  0  0  0  0  0  0  0  0
  -26.0530  -38.3890   23.9040 H   0  0  0  0  0  0  0  0  0  0  0  0
  -26.3730  -31.8170   25.2250 C   0  0  1  0  0  0  0  0  0  0  0  0
  -25.2570  -31.5820   26.2670 C   0  0  0  0  0  1  0  0  0  0  0  0
  -26.9700  -30.4390   24.8540 C   0  0  0  0  0  1  0  0  0  0  0  0
  -27.5060  -32.6190   25.9090 C   0  0  0  0  0  1  0  0  0  0  0  0
  1  2  1  0
  2  4  1  0
  3  5  2  0
  4  3  1  0
  6  4  1  0
  7 20  1  0
  8 13  1  0
  9 10  1  0
  9  8  1  0
 11 10  1  0
 11 24  1  0
 11 12  1  0
 13  7  1  0
 13 12  1  0
 14  7  2  0
 15 19  1  0
 17 15  1  0
 17 20  1  0
 18 16  1  0
 19  3  1  0
 19 16  1  0
 20 18  1  0
 21 22  2  0
 22 41  1  0
 23 22  1  0
 23 26  1  0
 24 25  1  0
 24 21  1  0
 25 23  2  0
 26 27  1  0
 27 28  2  0
 29 32  1  0
 29 28  1  0
 30 29  2  0
 31 30  1  0
 31 26  2  0
 32 33  1  0
 33 38  2  0
 33 34  1  0
 34 35  2  0
 35 36  1  0
 36 40  1  0
 37 36  2  0
 38 37  1  0
 39 38  1  0
 41 42  1  0
 42 45  1  0
 42 44  1  0
 43 41  2  0
 46 21  1  0
 46 47  1  0
 48 46  1  0
 49 50  1  0
 49  1  1  0
 50 53  1  0
 51 50  1  0
 52 50  1  0
 53 54  1  0
 54 55  1  0
 55 56  1  0
 57 68  2  0
 58 56  1  0
 58 63  1  0
 59 67  1  0
 59 69  1  0
 60 62  1  0
 61 67  1  0
 62 63  2  0
 62 61  1  0
 64 58  2  0
 65 64  1  0
 65 60  2  0
 66 60  1  0
 66 59  1  0
 67 57  1  0
 69 71  2  0
 70 69  1  0
 72 70  1  0
 73 82  2  0
 73 78  1  0
 74 70  1  0
 74 78  1  0
 75 74  1  0
 76 77  1  0
 76 75  1  0
 77 73  1  0
 78 79  2  0
 79 80  1  0
 81 80  2  0
 82 81  1  0
 83 57  1  0
 83 84  1  0
 83 93  1  0
 84 87  1  0
 85 89  1  0
 85 84  1  0
 86 85  2  0
 89 88  1  0
 91 89  1  0
 91 92  1  0
 91 90  1  0
 93 96  1  1
 93 94  1  0
 95 93  1  0
M  ISO  4   7 100  20 100  55 101  56 101
M  END
>  <TORSDO>  (6) 
F 23

>  <SCORE>  (6) 
-11.090

>  <name>  (6) 
5

>  <ligand_id>  (6) 
5

>  <original_smiles>  (6) 
[H]c1c([H])c([H])c2c(c1[H])C([H])([H])C([H])([H])C([H])([H])C2([H])N([H])C(=O)C1([H])N(C(=O)C([H])(N([H])C(=O)C([H])(N([H])C([H])([H])[H])C([H])([H])[H])C(C([H])([H])[H])(C([H])([H])[H])C([H])([H])[H])C([H])([H])c2c([H])c(OC([H])([H])C([H])([H])C([H])([H])[N+]([H])([H])C([H])([H])C([H])([H])C([H])([H])N([H])C(=O)C3([H])C([H])([H])C([H])([H])N(C(=O)N4C([H])([H])C([H])([H])C([H])([H])C([H])(n5nc(-c6c([H])c([H])c(Oc7c([H])c([H])c(F)c([H])c7F)c([H])c6[H])c(C(=O)N([H])[H])c5N([H])[H])C4([H])[H])C([H])([H])C3([H])[H])c([H])c([H])c2C1([H])[H]

>  <smiles>  (6) 
[H]c1c([H])c([H])c2c(c1[H])C([H])([H])C([H])([H])C([H])([H])C2([H])N([H])C(=O)C1([H])N(C(=O)C([H])(N([H])C(=O)C([H])(N([H])C([H])([H])[H])C([H])([H])[H])C(C([H])([H])[H])(C([H])([H])[H])C([H])([H])[H])C([H])([H])c2c([H])c(OC([H])([H])C([H])([H])C([H])([H])[N+]([H])([H])C([H])([H])C([H])([H])C([H])([H])N([H])C(=O)C3([H])C([H])([H])C([H])([H])N(C(=O)N4C([H])([H])C([H])([H])C([H])([H])C([H])(n5nc(-c6c([H])c([H])c(Oc7c([H])c([H])c(F)c([H])c7F)c([H])c6[H])c(C(=O)N([H])[H])c5N([H])[H])C4([H])[H])C([H])([H])C3([H])[H])c([H])c([H])c2C1([H])[H]

$$$$
6:0:0
     RDKit          3D

 94102  0  0  1  0  0  0  0  0999 V2000
  -29.8260  -22.5980   21.5230 C   0  0  0  0  0  0  0  0  0  0  0  0
  -29.8650  -23.8540   21.9820 N   0  0  0  0  0  0  0  0  0  0  0  0
  -29.7920  -22.3230   20.3210 O   0  0  0  0  0  0  0  0  0  0  0  0
  -29.9090  -23.9840   22.9850 H   0  0  0  0  0  0  0  0  0  0  0  0
  -29.8210  -21.4710   22.5550 C   0  0  0  0  0  2  0  0  0  0  0  0
  -30.9480  -17.8420   22.6530 C   0  0  0  0  0  2  0  0  0  0  0  0
  -32.5160  -19.1620   21.1340 C   0  0  0  0  0  2  0  0  0  0  0  0
  -29.8980  -18.9730   22.5100 C   0  0  0  0  0  2  0  0  0  0  0  0
  -31.9370  -20.3040   21.9870 C   0  0  0  0  0  2  0  0  0  0  0  0
  -31.9410  -17.7610   21.4730 C   0  0  0  0  0  3  0  0  0  0  0  0
  -30.4540  -20.2560   21.9890 N   0  0  2  0  0  4  0  0  0  0  0  0
  -30.1760  -20.3210   21.0180 H   0  0  0  0  0  0  0  0  0  0  0  0
  -31.3240  -17.0760   20.2320 C   0  0  0  0  0  2  0  0  0  0  0  0
  -31.5160  -14.6180   19.9910 C   0  0  0  0  0  0  0  0  0  0  0  0
  -31.0720  -12.4290   18.9690 C   0  0  0  0  0  2  0  0  0  0  0  0
  -30.1020  -12.6070   17.7840 C   0  0  0  0  0  2  0  0  0  0  0  0
  -28.6390  -12.5690   18.2640 C   0  0  0  0  0  2  0  0  0  0  0  0
  -28.3790  -13.4900   19.4850 C   0  0  0  0  0  3  0  0  0  0  0  0
  -29.4560  -13.2830   20.5740 C   0  0  0  0  0  2  0  0  0  0  0  0
  -30.7770  -13.4800   19.9540 N   0  0  0  0  0  0  0  0  0  0  0  0
  -32.6220  -14.7200   19.4550 O   0  0  0  0  0  0  0  0  0  0  0  0
  -30.8940  -15.6980   20.4900 N   0  0  0  0  0  0  0  0  0  0  0  0
  -29.9810  -15.5540   20.8960 H   0  0  0  0  0  0  0  0  0  0  0  0
  -26.0660  -14.2500   20.3260 C   0  0  0  0  0  0  0  0  0  0  0  0
  -24.9580  -13.5450   20.7140 C   0  0  0  0  0  0  0  0  0  0  0  0
  -25.3100  -12.1650   20.6060 C   0  0  0  0  0  0  0  0  0  0  0  0
  -27.0290  -13.3010   20.0140 N   0  0  0  0  0  0  0  0  0  0  0  0
  -26.5780  -12.0410   20.2380 N   0  0  0  0  0  0  0  0  0  0  0  0
  -24.4970  -10.9540   20.7790 C   0  0  0  0  0  0  0  0  0  0  0  0
  -24.8590   -9.9460   21.6990 C   0  0  0  0  0  3  0  0  0  0  0  0
  -24.0520   -8.8000   21.8600 C   0  0  0  0  0  3  0  0  0  0  0  0
  -22.8690   -8.6520   21.1000 C   0  0  0  0  0  0  0  0  0  0  0  0
  -22.5240   -9.6470   20.1680 C   0  0  0  0  0  3  0  0  0  0  0  0
  -23.3310  -10.7860   20.0050 C   0  0  0  0  0  3  0  0  0  0  0  0
  -22.0370   -7.5610   21.1700 O   0  0  0  0  0  0  0  0  0  0  0  0
  -21.8700   -6.8590   22.3370 C   0  0  0  0  0  0  0  0  0  0  0  0
  -21.4100   -7.4770   23.5210 C   0  0  0  0  0  3  0  0  0  0  0  0
  -21.1860   -6.7040   24.6770 C   0  0  0  0  0  3  0  0  0  0  0  0
  -21.4100   -5.3140   24.6510 C   0  0  0  0  0  0  0  0  0  0  0  0
  -21.8640   -4.6960   23.4720 C   0  0  0  0  0  3  0  0  0  0  0  0
  -22.0890   -5.4660   22.3180 C   0  0  0  0  0  0  0  0  0  0  0  0
  -22.5050   -4.8620   21.1790 F   0  0  0  0  0  0  0  0  0  0  0  0
  -21.1880   -4.5700   25.7600 F   0  0  0  0  0  0  0  0  0  0  0  0
  -23.6150  -14.1140   21.0710 C   0  0  0  0  0  0  0  0  0  0  0  0
  -22.8820  -13.4470   21.9550 N   0  0  0  0  0  0  0  0  0  0  0  0
  -23.2290  -15.1840   20.6020 O   0  0  0  0  0  0  0  0  0  0  0  0
  -23.2080  -12.5810   22.3570 H   0  0  0  0  0  0  0  0  0  0  0  0
  -21.9810  -13.8080   22.2340 H   0  0  0  0  0  0  0  0  0  0  0  0
  -26.3330  -15.6090   20.1950 N   0  0  0  0  0  0  0  0  0  0  0  0
  -25.6280  -16.3190   20.3570 H   0  0  0  0  0  0  0  0  0  0  0  0
  -27.1980  -15.9870   19.8270 H   0  0  0  0  0  0  0  0  0  0  0  0
  -29.8700  -25.0690   21.1680 C   0  0  0  0  0  2  0  0  0  0  0  0
  -28.4510  -25.5090   20.7650 C   0  0  0  0  0  2  0  0  0  0  0  0
  -28.5080  -26.8290   20.2250 O   0  0  0  0  0  0  0  0  0  0  0  0
  -24.6290  -31.9530   23.2340 C   0  0  0  0  0  0  0  0  0  0  0  0
  -27.3170  -27.5160   20.2170 C   0  0  0  0  0  0  0  0  0  0  0  0
  -23.4310  -30.5150   21.6140 C   0  0  0  0  0  3  0  0  0  0  0  0
  -24.8990  -28.9720   20.2110 C   0  0  0  0  0  0  0  0  0  0  0  0
  -25.9480  -30.9080   21.3990 C   0  0  0  0  0  2  0  0  0  0  0  0
  -26.0500  -29.5290   20.7810 C   0  0  0  0  0  0  0  0  0  0  0  0
  -27.2650  -28.8100   20.7760 C   0  0  0  0  0  3  0  0  0  0  0  0
  -26.1490  -26.9610   19.6500 C   0  0  0  0  0  3  0  0  0  0  0  0
  -24.9420  -27.6860   19.6430 C   0  0  0  0  0  3  0  0  0  0  0  0
  -23.6460  -29.8170   20.2430 C   0  0  0  0  0  2  0  0  0  0  0  0
  -24.6870  -31.1400   22.1410 N   0  0  0  0  0  0  0  0  0  0  0  0
  -23.5460  -32.2210   23.7730 O   0  0  0  0  0  0  0  0  0  0  0  0
  -22.7930  -29.5000   22.5900 C   0  0  0  0  0  0  0  0  0  0  0  0
  -21.4800  -29.2700   22.4370 N   0  0  0  0  0  0  0  0  0  0  0  0
  -23.4790  -28.9240   23.4400 O   0  0  0  0  0  0  0  0  0  0  0  0
  -20.9860  -29.7910   21.7260 H   0  0  0  0  0  0  0  0  0  0  0  0
  -18.1560  -27.9130   22.8340 C   0  0  0  0  0  0  0  0  0  0  0  0
  -20.6780  -28.3290   23.2180 C   0  0  0  0  0  3  0  0  0  0  0  0
  -20.8880  -26.8780   22.7290 C   0  0  0  0  0  2  0  0  0  0  0  0
  -19.8610  -26.4400   21.6800 C   0  0  0  0  0  2  0  0  0  0  0  0
  -18.4410  -26.5420   22.2440 C   0  0  0  0  0  2  0  0  0  0  0  0
  -19.2070  -28.7580   23.2770 C   0  0  0  0  0  0  0  0  0  0  0  0
  -18.8900  -30.0360   23.7850 C   0  0  0  0  0  3  0  0  0  0  0  0
  -17.5540  -30.4740   23.8530 C   0  0  0  0  0  3  0  0  0  0  0  0
  -16.5160  -29.6260   23.4290 C   0  0  0  0  0  3  0  0  0  0  0  0
  -16.8170  -28.3480   22.9250 C   0  0  0  0  0  3  0  0  0  0  0  0
  -25.9110  -32.6030   23.8430 C   0  0  0  0  0  3  0  0  0  0  0  0
  -25.5870  -33.9980   24.1660 N   0  0  0  0  0  0  0  0  0  0  0  0
  -25.9330  -35.0510   23.4110 C   0  0  0  0  0  0  0  0  0  0  0  0
  -26.6280  -34.9500   22.3970 O   0  0  0  0  0  0  0  0  0  0  0  0
  -24.9730  -34.1530   24.9530 H   0  0  0  0  0  0  0  0  0  0  0  0
  -24.2110  -36.8350   23.0040 C   0  0  0  0  0  1  0  0  0  0  0  0
  -25.4270  -36.4360   23.8550 C   0  0  0  0  0  3  0  0  0  0  0  0
  -27.5330  -37.3220   24.7520 C   0  0  0  0  0  1  0  0  0  0  0  0
  -26.4600  -37.4920   23.7760 N   0  0  0  0  0  0  0  0  0  0  0  0
  -26.0450  -38.4100   23.9180 H   0  0  0  0  0  0  0  0  0  0  0  0
  -26.4510  -31.8440   25.1170 C   0  0  1  0  0  0  0  0  0  0  0  0
  -25.3670  -31.5830   26.1900 C   0  0  0  0  0  1  0  0  0  0  0  0
  -27.0610  -30.4800   24.7190 C   0  0  0  0  0  1  0  0  0  0  0  0
  -27.5900  -32.6620   25.7720 C   0  0  0  0  0  1  0  0  0  0  0  0
  1  2  1  0
  1  5  1  0
  2  4  1  0
  3  1  2  0
  7 10  1  0
  7  9  1  0
  8  6  1  0
  9 11  1  0
 10 13  1  0
 10  6  1  0
 11  8  1  0
 11  5  1  0
 11 12  1  6
 13 22  1  0
 14 22  1  0
 15 20  1  0
 16 17  1  0
 16 15  1  0
 18 17  1  0
 18 27  1  0
 18 19  1  0
 20 14  1  0
 20 19  1  0
 21 14  2  0
 22 23  1  0
 24 25  2  0
 25 44  1  0
 26 25  1  0
 26 29  1  0
 27 28  1  0
 27 24  1  0
 28 26  2  0
 29 30  1  0
 30 31  2  0
 32 35  1  0
 32 31  1  0
 33 32  2  0
 34 33  1  0
 34 29  2  0
 35 36  1  0
 36 37  1  0
 37 38  2  0
 39 38  1  0
 39 43  1  0
 40 39  2  0
 41 36  2  0
 41 40  1  0
 42 41  1  0
 44 45  1  0
 45 48  1  0
 45 47  1  0
 46 44  2  0
 49 24  1  0
 49 50  1  0
 51 49  1  0
 52  2  1  0
 53 52  1  0
 54 53  1  0
 55 66  2  0
 56 54  1  0
 56 61  1  0
 57 65  1  0
 57 67  1  0
 58 64  1  0
 58 60  1  0
 59 65  1  0
 60 59  1  0
 61 60  2  0
 62 56  2  0
 63 62  1  0
 63 58  2  0
 64 57  1  0
 65 55  1  0
 67 69  2  0
 68 67  1  0
 70 68  1  0
 71 80  2  0
 71 76  1  0
 72 68  1  0
 72 76  1  0
 73 72  1  0
 74 75  1  0
 74 73  1  0
 75 71  1  0
 76 77  2  0
 77 78  1  0
 79 78  2  0
 80 79  1  0
 81 55  1  0
 81 82  1  0
 81 91  1  0
 82 85  1  0
 83 87  1  0
 83 82  1  0
 84 83  2  0
 87 86  1  0
 89 87  1  0
 89 90  1  0
 89 88  1  0
 91 94  1  1
 91 92  1  0
 93 91  1  0
M  ISO  4  14 100  22 100  53 101  54 101
M  END
>  <TORSDO>  (7) 
F 21

>  <SCORE>  (7) 
-11.639

>  <name>  (7) 
6

>  <ligand_id>  (7) 
6

>  <original_smiles>  (7) 
[H]c1c([H])c([H])c2c(c1[H])C([H])([H])C([H])([H])C([H])([H])C2([H])N([H])C(=O)C1([H])N(C(=O)C([H])(N([H])C(=O)C([H])(N([H])C([H])([H])[H])C([H])([H])[H])C(C([H])([H])[H])(C([H])([H])[H])C([H])([H])[H])C([H])([H])c2c([H])c(OC([H])([H])C([H])([H])N([H])C(=O)C([H])([H])[N+]3([H])C([H])([H])C([H])([H])C([H])(C([H])([H])N([H])C(=O)N4C([H])([H])C([H])([H])C([H])([H])C([H])(n5nc(-c6c([H])c([H])c(Oc7c([H])c([H])c(F)c([H])c7F)c([H])c6[H])c(C(=O)N([H])[H])c5N([H])[H])C4([H])[H])C([H])([H])C3([H])[H])c([H])c([H])c2C1([H])[H]

>  <smiles>  (7) 
[H]c1c([H])c([H])c2c(c1[H])C([H])([H])C([H])([H])C([H])([H])C2([H])N([H])C(=O)C1([H])N(C(=O)C([H])(N([H])C(=O)C([H])(N([H])C([H])([H])[H])C([H])([H])[H])C(C([H])([H])[H])(C([H])([H])[H])C([H])([H])[H])C([H])([H])c2c([H])c(OC([H])([H])C([H])([H])N([H])C(=O)C([H])([H])[N+]3([H])C([H])([H])C([H])([H])C([H])(C([H])([H])N([H])C(=O)N4C([H])([H])C([H])([H])C([H])([H])C([H])(n5nc(-c6c([H])c([H])c(Oc7c([H])c([H])c(F)c([H])c7F)c([H])c6[H])c(C(=O)N([H])[H])c5N([H])[H])C4([H])[H])C([H])([H])C3([H])[H])c([H])c([H])c2C1([H])[H]

$$$$
7:0:0
     RDKit          3D

 98107  0  0  1  0  0  0  0  0999 V2000
  -28.8990  -19.2340   20.4080 C   0  0  0  0  0  3  0  0  0  0  0  0
  -29.8090  -18.1540   20.3430 C   0  0  0  0  0  3  0  0  0  0  0  0
  -31.5410  -19.5050   21.4370 C   0  0  0  0  0  3  0  0  0  0  0  0
  -29.3320  -20.4340   21.0040 C   0  0  0  0  0  0  0  0  0  0  0  0
  -30.6300  -20.5690   21.4830 C   0  0  0  0  0  0  0  0  0  0  0  0
  -31.1190  -18.2810   20.8710 C   0  0  0  0  0  0  0  0  0  0  0  0
  -29.5770  -22.6830   21.7820 C   0  0  0  0  0  0  0  0  0  0  0  0
  -30.8910  -21.9510   22.0090 C   0  0  0  0  0  2  0  0  0  0  0  0
  -28.5300  -21.6950   21.2310 C   0  0  0  0  0  3  0  0  0  0  0  0
  -29.4600  -23.9290   22.0420 N   0  0  0  0  0  0  0  0  0  0  0  0
  -27.4930  -21.4410   22.2390 N   0  0  0  0  0  4  0  0  0  0  0  0
  -27.9210  -21.0530   23.0610 H   0  0  0  0  0  0  0  0  0  0  0  0
  -26.8190  -20.7900   21.8850 H   0  0  0  0  0  0  0  0  0  0  0  0
  -27.0250  -22.2900   22.4920 H   0  0  0  0  0  0  0  0  0  0  0  0
  -32.1020  -17.1280   20.8060 C   0  0  0  0  0  2  0  0  0  0  0  0
  -31.7290  -15.9200   21.6970 C   0  0  0  0  0  2  0  0  0  0  0  0
  -30.8370  -14.3230   20.0200 C   0  0  0  0  0  0  0  0  0  0  0  0
  -30.3250  -12.2000   18.8930 C   0  0  0  0  0  2  0  0  0  0  0  0
  -29.3050  -12.3650   17.7570 C   0  0  0  0  0  2  0  0  0  0  0  0
  -27.8750  -12.2340   18.3080 C   0  0  0  0  0  2  0  0  0  0  0  0
  -27.6290  -13.1440   19.5400 C   0  0  0  0  0  3  0  0  0  0  0  0
  -28.7590  -13.0000   20.5840 C   0  0  0  0  0  2  0  0  0  0  0  0
  -30.0560  -13.2210   19.9170 N   0  0  0  0  0  0  0  0  0  0  0  0
  -31.7290  -14.5890   19.2130 O   0  0  0  0  0  0  0  0  0  0  0  0
  -30.7070  -15.0170   21.1560 N   0  0  0  0  0  0  0  0  0  0  0  0
  -29.9730  -14.7240   21.7830 H   0  0  0  0  0  0  0  0  0  0  0  0
  -25.3260  -13.7890   20.4970 C   0  0  0  0  0  0  0  0  0  0  0  0
  -24.2690  -13.0330   20.9240 C   0  0  0  0  0  0  0  0  0  0  0  0
  -24.6740  -11.6700   20.7830 C   0  0  0  0  0  0  0  0  0  0  0  0
  -26.3140  -12.8900   20.1270 N   0  0  0  0  0  0  0  0  0  0  0  0
  -25.9280  -11.6070   20.3530 N   0  0  0  0  0  0  0  0  0  0  0  0
  -23.9230  -10.4230   20.9780 C   0  0  0  0  0  0  0  0  0  0  0  0
  -24.3740   -9.4190   21.8630 C   0  0  0  0  0  3  0  0  0  0  0  0
  -23.6240   -8.2370   22.0460 C   0  0  0  0  0  3  0  0  0  0  0  0
  -22.4080   -8.0510   21.3440 C   0  0  0  0  0  0  0  0  0  0  0  0
  -21.9760   -9.0440   20.4480 C   0  0  0  0  0  3  0  0  0  0  0  0
  -22.7260  -10.2170   20.2620 C   0  0  0  0  0  3  0  0  0  0  0  0
  -21.6280   -6.9240   21.4400 O   0  0  0  0  0  0  0  0  0  0  0  0
  -21.5870   -6.1720   22.5860 C   0  0  0  0  0  0  0  0  0  0  0  0
  -21.1860   -6.7200   23.8240 C   0  0  0  0  0  3  0  0  0  0  0  0
  -21.0920   -5.8950   24.9630 C   0  0  0  0  0  3  0  0  0  0  0  0
  -21.3890   -4.5220   24.8650 C   0  0  0  0  0  0  0  0  0  0  0  0
  -21.7820   -3.9730   23.6320 C   0  0  0  0  0  3  0  0  0  0  0  0
  -21.8780   -4.7950   22.4950 C   0  0  0  0  0  0  0  0  0  0  0  0
  -22.2370   -4.2570   21.3050 F   0  0  0  0  0  0  0  0  0  0  0  0
  -21.2900   -3.7270   25.9550 F   0  0  0  0  0  0  0  0  0  0  0  0
  -22.9210  -13.5390   21.3520 C   0  0  0  0  0  0  0  0  0  0  0  0
  -22.2540  -12.8230   22.2500 N   0  0  0  0  0  0  0  0  0  0  0  0
  -22.4730  -14.6030   20.9260 O   0  0  0  0  0  0  0  0  0  0  0  0
  -22.6300  -11.9590   22.6140 H   0  0  0  0  0  0  0  0  0  0  0  0
  -21.3530  -13.1420   22.5780 H   0  0  0  0  0  0  0  0  0  0  0  0
  -25.5240  -15.1620   20.3740 N   0  0  0  0  0  0  0  0  0  0  0  0
  -24.7940  -15.8350   20.5840 H   0  0  0  0  0  0  0  0  0  0  0  0
  -26.3640  -15.5880   20.0030 H   0  0  0  0  0  0  0  0  0  0  0  0
  -28.2260  -24.6600   21.8230 C   0  0  0  0  0  2  0  0  0  0  0  0
  -28.5210  -26.0470   21.2350 C   0  0  0  0  0  2  0  0  0  0  0  0
  -28.7870  -26.0390   19.7080 C   0  0  0  0  0  2  0  0  0  0  0  0
  -28.6700  -27.3380   19.1240 O   0  0  0  0  0  0  0  0  0  0  0  0
  -24.4960  -31.5530   22.9730 C   0  0  0  0  0  0  0  0  0  0  0  0
  -27.4260  -27.9140   19.2110 C   0  0  0  0  0  0  0  0  0  0  0  0
  -23.3540  -30.2540   21.2000 C   0  0  0  0  0  3  0  0  0  0  0  0
  -24.8830  -29.0860   19.5230 C   0  0  0  0  0  0  0  0  0  0  0  0
  -25.8080  -30.9230   20.9540 C   0  0  0  0  0  2  0  0  0  0  0  0
  -26.0030  -29.6700   20.1280 C   0  0  0  0  0  0  0  0  0  0  0  0
  -27.2770  -29.0930   19.9650 C   0  0  0  0  0  3  0  0  0  0  0  0
  -26.2930  -27.3290   18.6020 C   0  0  0  0  0  3  0  0  0  0  0  0
  -25.0210  -27.9140   18.7570 C   0  0  0  0  0  3  0  0  0  0  0  0
  -23.5560  -29.7800   19.7360 C   0  0  0  0  0  2  0  0  0  0  0  0
  -24.5730  -30.9180   21.7690 N   0  0  0  0  0  0  0  0  0  0  0  0
  -23.4230  -31.6320   23.5880 O   0  0  0  0  0  0  0  0  0  0  0  0
  -22.8630  -29.0550   22.0400 C   0  0  0  0  0  0  0  0  0  0  0  0
  -21.5690  -28.7210   21.9010 N   0  0  0  0  0  0  0  0  0  0  0  0
  -23.6380  -28.4290   22.7670 O   0  0  0  0  0  0  0  0  0  0  0  0
  -20.9980  -29.2870   21.2890 H   0  0  0  0  0  0  0  0  0  0  0  0
  -18.4180  -26.9740   22.1700 C   0  0  0  0  0  0  0  0  0  0  0  0
  -20.8950  -27.6020   22.5580 C   0  0  0  0  0  3  0  0  0  0  0  0
  -21.2360  -26.2620   21.8670 C   0  0  0  0  0  2  0  0  0  0  0  0
  -20.2240  -25.8630   20.7880 C   0  0  0  0  0  2  0  0  0  0  0  0
  -18.8210  -25.7340   21.3900 C   0  0  0  0  0  2  0  0  0  0  0  0
  -19.3910  -27.8600   22.7030 C   0  0  0  0  0  0  0  0  0  0  0  0
  -18.9620  -29.0160   23.3890 C   0  0  0  0  0  3  0  0  0  0  0  0
  -17.5910  -29.2930   23.5460 C   0  0  0  0  0  3  0  0  0  0  0  0
  -16.6320  -28.4050   23.0300 C   0  0  0  0  0  3  0  0  0  0  0  0
  -17.0450  -27.2470   22.3480 C   0  0  0  0  0  3  0  0  0  0  0  0
  -25.7430  -32.2300   23.6250 C   0  0  0  0  0  3  0  0  0  0  0  0
  -25.3400  -33.5740   24.0600 N   0  0  0  0  0  0  0  0  0  0  0  0
  -25.6090  -34.7020   23.3890 C   0  0  0  0  0  0  0  0  0  0  0  0
  -26.2920  -34.7230   22.3610 O   0  0  0  0  0  0  0  0  0  0  0  0
  -24.7350  -33.6260   24.8670 H   0  0  0  0  0  0  0  0  0  0  0  0
  -23.7660  -36.3940   23.1500 C   0  0  0  0  0  1  0  0  0  0  0  0
  -25.0260  -36.0140   23.9450 C   0  0  0  0  0  3  0  0  0  0  0  0
  -27.0900  -36.9700   24.8660 C   0  0  0  0  0  1  0  0  0  0  0  0
  -25.9860  -37.1390   23.9240 N   0  0  0  0  0  0  0  0  0  0  0  0
  -25.5210  -38.0160   24.1370 H   0  0  0  0  0  0  0  0  0  0  0  0
  -26.3370  -31.4080   24.8340 C   0  0  1  0  0  0  0  0  0  0  0  0
  -25.2880  -31.0250   25.9040 C   0  0  0  0  0  1  0  0  0  0  0  0
  -26.9990  -30.1050   24.3300 C   0  0  0  0  0  1  0  0  0  0  0  0
  -27.4500  -32.2290   25.5270 C   0  0  0  0  0  1  0  0  0  0  0  0
  1  4  1  0
  2  1  2  0
  2  6  1  0
  3  5  1  0
  4  9  1  0
  4  5  2  0
  5  8  1  0
  6  3  2  0
  7  8  1  0
  7 10  2  0
  9  7  1  0
  9 11  1  0
 11 14  1  0
 11 12  1  0
 13 11  1  0
 15  6  1  0
 15 16  1  0
 17 25  1  0
 18 23  1  0
 19 20  1  0
 19 18  1  0
 21 20  1  0
 21 30  1  0
 21 22  1  0
 23 17  1  0
 23 22  1  0
 24 17  2  0
 25 16  1  0
 25 26  1  0
 27 28  2  0
 28 47  1  0
 29 28  1  0
 29 32  1  0
 30 31  1  0
 30 27  1  0
 31 29  2  0
 32 33  1  0
 33 34  2  0
 35 38  1  0
 35 34  1  0
 36 35  2  0
 37 36  1  0
 37 32  2  0
 38 39  1  0
 39 40  1  0
 40 41  2  0
 42 41  1  0
 42 46  1  0
 43 42  2  0
 44 39  2  0
 44 43  1  0
 45 44  1  0
 47 48  1  0
 48 51  1  0
 48 50  1  0
 49 47  2  0
 52 27  1  0
 52 53  1  0
 54 52  1  0
 55 10  1  0
 56 55  1  0
 57 56  1  0
 58 60  1  0
 58 57  1  0
 59 70  2  0
 60 65  1  0
 61 69  1  0
 61 71  1  0
 62 68  1  0
 62 64  1  0
 63 69  1  0
 64 63  1  0
 65 64  2  0
 66 67  1  0
 66 60  2  0
 67 62  2  0
 68 61  1  0
 69 59  1  0
 71 73  2  0
 72 71  1  0
 74 72  1  0
 75 84  2  0
 75 80  1  0
 76 72  1  0
 76 80  1  0
 77 76  1  0
 78 79  1  0
 78 77  1  0
 79 75  1  0
 80 81  2  0
 81 82  1  0
 83 82  2  0
 84 83  1  0
 85 59  1  0
 85 86  1  0
 85 95  1  0
 86 89  1  0
 87 91  1  0
 87 86  1  0
 88 87  2  0
 91 90  1  0
 93 91  1  0
 93 94  1  0
 93 92  1  0
 95 98  1  1
 95 96  1  0
 97 95  1  0
M  ISO  4  17 100  25 100  57 101  58 101
M  END
>  <TORSDO>  (8) 
F 22

>  <SCORE>  (8) 
-10.780

>  <name>  (8) 
7

>  <ligand_id>  (8) 
7

>  <original_smiles>  (8) 
[H]c1c([H])c([H])c2c(c1[H])C([H])([H])C([H])([H])C([H])([H])C2([H])N([H])C(=O)C1([H])N(C(=O)C([H])(N([H])C(=O)C([H])(N([H])C([H])([H])[H])C([H])([H])[H])C(C([H])([H])[H])(C([H])([H])[H])C([H])([H])[H])C([H])([H])c2c([H])c(OC([H])([H])C([H])([H])C([H])([H])N=C3C([H])([H])c4c([H])c(C([H])([H])C([H])([H])N([H])C(=O)N5C([H])([H])C([H])([H])C([H])([H])C([H])(n6nc(-c7c([H])c([H])c(Oc8c([H])c([H])c(F)c([H])c8F)c([H])c7[H])c(C(=O)N([H])[H])c6N([H])[H])C5([H])[H])c([H])c([H])c4C3([H])[N+]([H])([H])[H])c([H])c([H])c2C1([H])[H]

>  <smiles>  (8) 
[H]c1c([H])c([H])c2c(c1[H])C([H])([H])C([H])([H])C([H])([H])C2([H])N([H])C(=O)C1([H])N(C(=O)C([H])(N([H])C(=O)C([H])(N([H])C([H])([H])[H])C([H])([H])[H])C(C([H])([H])[H])(C([H])([H])[H])C([H])([H])[H])C([H])([H])c2c([H])c(OC([H])([H])C([H])([H])C([H])([H])N=C3C([H])([H])c4c([H])c(C([H])([H])C([H])([H])N([H])C(=O)N5C([H])([H])C([H])([H])C([H])([H])C([H])(n6nc(-c7c([H])c([H])c(Oc8c([H])c([H])c(F)c([H])c8F)c([H])c7[H])c(C(=O)N([H])[H])c6N([H])[H])C5([H])[H])c([H])c([H])c4C3([H])[N+]([H])([H])[H])c([H])c([H])c2C1([H])[H]

$$$$
8:0:0
     RDKit          3D

 96104  0  0  1  0  0  0  0  0999 V2000
  -32.6790  -21.4910   21.6410 C   0  0  0  0  0  2  0  0  0  0  0  0
  -32.4690  -20.0130   22.0570 C   0  0  0  0  0  2  0  0  0  0  0  0
  -29.9730  -17.4990   22.8470 C   0  0  0  0  0  2  0  0  0  0  0  0
  -29.6690  -19.1430   20.9250 C   0  0  0  0  0  2  0  0  0  0  0  0
  -31.1570  -18.3520   23.3700 C   0  0  0  0  0  2  0  0  0  0  0  0
  -29.9540  -20.1090   22.0920 C   0  0  0  0  0  2  0  0  0  0  0  0
  -29.7550  -17.6510   21.3260 C   0  0  0  0  0  3  0  0  0  0  0  0
  -31.2060  -19.7380   22.8080 N   0  0  2  0  0  4  0  0  0  0  0  0
  -31.2450  -20.3380   23.6210 H   0  0  0  0  0  0  0  0  0  0  0  0
  -30.8210  -16.8880   20.5150 C   0  0  0  0  0  2  0  0  0  0  0  0
  -31.2720  -14.5180   19.9390 C   0  0  0  0  0  0  0  0  0  0  0  0
  -30.9150  -12.3520   18.8250 C   0  0  0  0  0  2  0  0  0  0  0  0
  -29.9150  -12.5500   17.6670 C   0  0  0  0  0  2  0  0  0  0  0  0
  -28.4600  -12.4400   18.1640 C   0  0  0  0  0  2  0  0  0  0  0  0
  -28.1940  -13.3130   19.4170 C   0  0  0  0  0  3  0  0  0  0  0  0
  -29.2880  -13.0690   20.4820 C   0  0  0  0  0  2  0  0  0  0  0  0
  -30.6010  -13.3420   19.8640 N   0  0  0  0  0  0  0  0  0  0  0  0
  -32.3110  -14.7640   19.3180 O   0  0  0  0  0  0  0  0  0  0  0  0
  -30.6400  -15.4520   20.6560 N   0  0  0  0  0  0  0  0  0  0  0  0
  -29.8200  -15.1410   21.1550 H   0  0  0  0  0  0  0  0  0  0  0  0
  -25.8530  -13.9910   20.2540 C   0  0  0  0  0  0  0  0  0  0  0  0
  -24.7800  -13.2470   20.6690 C   0  0  0  0  0  0  0  0  0  0  0  0
  -25.1930  -11.8830   20.5900 C   0  0  0  0  0  0  0  0  0  0  0  0
  -26.8550  -13.0800   19.9560 N   0  0  0  0  0  0  0  0  0  0  0  0
  -26.4630  -11.8050   20.2100 N   0  0  0  0  0  0  0  0  0  0  0  0
  -24.4380  -10.6410   20.7980 C   0  0  0  0  0  0  0  0  0  0  0  0
  -24.8250   -9.6980   21.7760 C   0  0  0  0  0  3  0  0  0  0  0  0
  -24.0730   -8.5200   21.9690 C   0  0  0  0  0  3  0  0  0  0  0  0
  -22.9210   -8.2760   21.1850 C   0  0  0  0  0  0  0  0  0  0  0  0
  -22.5550   -9.2050   20.1980 C   0  0  0  0  0  3  0  0  0  0  0  0
  -23.3070  -10.3760   20.0020 C   0  0  0  0  0  3  0  0  0  0  0  0
  -22.1440   -7.1470   21.2860 O   0  0  0  0  0  0  0  0  0  0  0  0
  -21.9490   -6.5130   22.4870 C   0  0  0  0  0  0  0  0  0  0  0  0
  -21.3890   -7.1780   23.5990 C   0  0  0  0  0  3  0  0  0  0  0  0
  -21.1420   -6.4700   24.7920 C   0  0  0  0  0  3  0  0  0  0  0  0
  -21.4430   -5.0970   24.8710 C   0  0  0  0  0  0  0  0  0  0  0  0
  -21.9950   -4.4320   23.7620 C   0  0  0  0  0  3  0  0  0  0  0  0
  -22.2450   -5.1370   22.5730 C   0  0  0  0  0  0  0  0  0  0  0  0
  -22.7580   -4.4870   21.5010 F   0  0  0  0  0  0  0  0  0  0  0  0
  -21.1990   -4.4130   26.0140 F   0  0  0  0  0  0  0  0  0  0  0  0
  -23.4160  -13.7640   21.0260 C   0  0  0  0  0  0  0  0  0  0  0  0
  -22.7210  -13.0840   21.9320 N   0  0  0  0  0  0  0  0  0  0  0  0
  -22.9780  -14.8040   20.5370 O   0  0  0  0  0  0  0  0  0  0  0  0
  -23.0860  -12.2410   22.3490 H   0  0  0  0  0  0  0  0  0  0  0  0
  -21.8080  -13.4130   22.2140 H   0  0  0  0  0  0  0  0  0  0  0  0
  -26.0530  -15.3580   20.0890 N   0  0  0  0  0  0  0  0  0  0  0  0
  -25.3080  -16.0310   20.2360 H   0  0  0  0  0  0  0  0  0  0  0  0
  -26.8990  -15.7760   19.7220 H   0  0  0  0  0  0  0  0  0  0  0  0
  -32.1110  -21.8450   20.2460 C   0  0  0  0  0  2  0  0  0  0  0  0
  -31.9920  -23.3060   20.0430 N   0  0  0  0  0  4  0  0  0  0  0  0
  -31.9540  -23.7460   20.9470 H   0  0  0  0  0  0  0  0  0  0  0  0
  -32.8200  -23.6440   19.5760 H   0  0  0  0  0  0  0  0  0  0  0  0
  -30.7840  -23.7280   19.2940 C   0  0  0  0  0  2  0  0  0  0  0  0
  -30.4880  -25.2180   19.5120 C   0  0  0  0  0  2  0  0  0  0  0  0
  -29.0570  -25.6280   19.1410 C   0  0  0  0  0  2  0  0  0  0  0  0
  -28.8920  -26.9350   19.6680 O   0  0  0  0  0  0  0  0  0  0  0  0
  -24.7130  -31.5300   23.0700 C   0  0  0  0  0  0  0  0  0  0  0  0
  -27.6390  -27.5000   19.7080 C   0  0  0  0  0  0  0  0  0  0  0  0
  -23.5970  -30.1680   21.3330 C   0  0  0  0  0  3  0  0  0  0  0  0
  -25.1410  -28.8160   19.8210 C   0  0  0  0  0  0  0  0  0  0  0  0
  -26.0920  -30.6970   21.1730 C   0  0  0  0  0  2  0  0  0  0  0  0
  -26.2600  -29.3810   20.4450 C   0  0  0  0  0  0  0  0  0  0  0  0
  -27.5070  -28.7270   20.3890 C   0  0  0  0  0  3  0  0  0  0  0  0
  -26.5000  -26.9320   19.0900 C   0  0  0  0  0  3  0  0  0  0  0  0
  -25.2540  -27.5870   19.1460 C   0  0  0  0  0  3  0  0  0  0  0  0
  -23.8480  -29.5910   19.9150 C   0  0  0  0  0  2  0  0  0  0  0  0
  -24.8180  -30.8100   21.9180 N   0  0  0  0  0  0  0  0  0  0  0  0
  -23.6170  -31.7020   23.6210 O   0  0  0  0  0  0  0  0  0  0  0  0
  -23.0090  -29.0480   22.2200 C   0  0  0  0  0  0  0  0  0  0  0  0
  -21.6980  -28.7960   22.0690 N   0  0  0  0  0  0  0  0  0  0  0  0
  -23.7260  -28.4130   22.9960 O   0  0  0  0  0  0  0  0  0  0  0  0
  -21.1790  -29.3650   21.4140 H   0  0  0  0  0  0  0  0  0  0  0  0
  -18.3940  -27.3970   22.4800 C   0  0  0  0  0  0  0  0  0  0  0  0
  -20.9360  -27.7640   22.7710 C   0  0  0  0  0  3  0  0  0  0  0  0
  -21.1110  -26.3870   22.0910 C   0  0  0  0  0  2  0  0  0  0  0  0
  -20.0230  -26.0830   21.0560 C   0  0  0  0  0  2  0  0  0  0  0  0
  -18.6380  -26.1110   21.7090 C   0  0  0  0  0  2  0  0  0  0  0  0
  -19.4740  -28.1830   22.9640 C   0  0  0  0  0  0  0  0  0  0  0  0
  -19.1940  -29.3880   23.6430 C   0  0  0  0  0  3  0  0  0  0  0  0
  -17.8660  -29.8090   23.8440 C   0  0  0  0  0  3  0  0  0  0  0  0
  -16.8000  -29.0210   23.3770 C   0  0  0  0  0  3  0  0  0  0  0  0
  -17.0660  -27.8160   22.7000 C   0  0  0  0  0  3  0  0  0  0  0  0
  -25.9600  -32.1920   23.7380 C   0  0  0  0  0  3  0  0  0  0  0  0
  -25.5880  -33.5660   24.0990 N   0  0  0  0  0  0  0  0  0  0  0  0
  -25.9040  -34.6530   23.3830 C   0  0  0  0  0  0  0  0  0  0  0  0
  -26.6110  -34.6070   22.3720 O   0  0  0  0  0  0  0  0  0  0  0  0
  -24.9610  -33.6740   24.8830 H   0  0  0  0  0  0  0  0  0  0  0  0
  -24.1290  -36.3950   23.0090 C   0  0  0  0  0  1  0  0  0  0  0  0
  -25.3480  -36.0060   23.8630 C   0  0  0  0  0  3  0  0  0  0  0  0
  -27.4050  -36.9380   24.8250 C   0  0  0  0  0  1  0  0  0  0  0  0
  -26.3460  -37.0970   23.8310 N   0  0  0  0  0  0  0  0  0  0  0  0
  -25.9000  -37.9980   23.9830 H   0  0  0  0  0  0  0  0  0  0  0  0
  -26.4830  -31.4030   25.0000 C   0  0  1  0  0  0  0  0  0  0  0  0
  -25.3780  -31.0850   26.0350 C   0  0  0  0  0  1  0  0  0  0  0  0
  -27.1340  -30.0650   24.5780 C   0  0  0  0  0  1  0  0  0  0  0  0
  -27.5850  -32.2240   25.7130 C   0  0  0  0  0  1  0  0  0  0  0  0
  1  2  1  0
  2  8  1  0
  3  5  1  0
  4  7  1  0
  4  6  1  0
  6  8  1  0
  7 10  1  0
  7  3  1  0
  8  5  1  0
  8  9  1  1
 10 19  1  0
 11 19  1  0
 12 17  1  0
 13 14  1  0
 13 12  1  0
 15 14  1  0
 15 24  1  0
 15 16  1  0
 17 11  1  0
 17 16  1  0
 18 11  2  0
 19 20  1  0
 21 22  2  0
 22 41  1  0
 23 22  1  0
 23 26  1  0
 24 25  1  0
 24 21  1  0
 25 23  2  0
 26 27  1  0
 27 28  2  0
 29 32  1  0
 29 28  1  0
 30 29  2  0
 31 30  1  0
 31 26  2  0
 32 33  1  0
 33 38  2  0
 33 34  1  0
 34 35  2  0
 35 36  1  0
 36 40  1  0
 37 36  2  0
 38 37  1  0
 39 38  1  0
 41 42  1  0
 42 45  1  0
 42 44  1  0
 43 41  2  0
 46 47  1  0
 46 21  1  0
 48 46  1  0
 49  1  1  0
 50 49  1  0
 50 51  1  0
 52 50  1  0
 53 54  1  0
 53 50  1  0
 55 54  1  0
 55 56  1  0
 56 58  1  0
 57 68  2  0
 58 63  1  0
 59 67  1  0
 59 69  1  0
 60 66  1  0
 60 62  1  0
 61 67  1  0
 62 61  1  0
 63 62  2  0
 64 65  1  0
 64 58  2  0
 65 60  2  0
 66 59  1  0
 67 57  1  0
 69 71  2  0
 70 69  1  0
 72 70  1  0
 73 82  2  0
 73 78  1  0
 74 70  1  0
 74 78  1  0
 75 74  1  0
 76 77  1  0
 76 75  1  0
 77 73  1  0
 78 79  2  0
 79 80  1  0
 81 80  2  0
 82 81  1  0
 83 57  1  0
 83 84  1  0
 83 93  1  0
 84 87  1  0
 85 89  1  0
 85 84  1  0
 86 85  2  0
 89 88  1  0
 91 89  1  0
 91 92  1  0
 91 90  1  0
 93 96  1  1
 93 94  1  0
 95 93  1  0
M  ISO  4  11 100  19 100  55 101  56 101
M  END
>  <TORSDO>  (9) 
F 24

>  <SCORE>  (9) 
-9.690

>  <name>  (9) 
8

>  <ligand_id>  (9) 
8

>  <original_smiles>  (9) 
[H]c1c([H])c([H])c2c(c1[H])C([H])([H])C([H])([H])C([H])([H])C2([H])N([H])C(=O)C1([H])N(C(=O)C([H])(N([H])C(=O)C([H])(N([H])C([H])([H])[H])C([H])([H])[H])C(C([H])([H])[H])(C([H])([H])[H])C([H])([H])[H])C([H])([H])c2c([H])c(OC([H])([H])C([H])([H])C([H])([H])[N+]([H])([H])C([H])([H])C([H])([H])C([H])([H])[N+]3([H])C([H])([H])C([H])([H])C([H])(C([H])([H])N([H])C(=O)N4C([H])([H])C([H])([H])C([H])([H])C([H])(n5nc(-c6c([H])c([H])c(Oc7c([H])c([H])c(F)c([H])c7F)c([H])c6[H])c(C(=O)N([H])[H])c5N([H])[H])C4([H])[H])C([H])([H])C3([H])[H])c([H])c([H])c2C1([H])[H]

>  <smiles>  (9) 
[H]c1c([H])c([H])c2c(c1[H])C([H])([H])C([H])([H])C([H])([H])C2([H])N([H])C(=O)C1([H])N(C(=O)C([H])(N([H])C(=O)C([H])(N([H])C([H])([H])[H])C([H])([H])[H])C(C([H])([H])[H])(C([H])([H])[H])C([H])([H])[H])C([H])([H])c2c([H])c(OC([H])([H])C([H])([H])C([H])([H])[N+]([H])([H])C([H])([H])C([H])([H])C([H])([H])[N+]3([H])C([H])([H])C([H])([H])C([H])(C([H])([H])N([H])C(=O)N4C([H])([H])C([H])([H])C([H])([H])C([H])(n5nc(-c6c([H])c([H])c(Oc7c([H])c([H])c(F)c([H])c7F)c([H])c6[H])c(C(=O)N([H])[H])c5N([H])[H])C4([H])[H])C([H])([H])C3([H])[H])c([H])c([H])c2C1([H])[H]

$$$$
9:0:0
     RDKit          3D

 97105  0  0  1  0  0  0  0  0999 V2000
  -28.0140  -19.4700   18.3530 C   0  0  0  0  0  2  0  0  0  0  0  0
  -29.5800  -18.2690   19.8530 C   0  0  0  0  0  0  0  0  0  0  0  0
  -28.4020  -18.8720   19.6340 N   0  0  0  0  0  0  0  0  0  0  0  0
  -30.4850  -18.2640   19.0150 O   0  0  0  0  0  0  0  0  0  0  0  0
  -27.7030  -18.8290   20.3670 H   0  0  0  0  0  0  0  0  0  0  0  0
  -30.6740  -14.3020   20.1600 C   0  0  0  0  0  0  0  0  0  0  0  0
  -30.2360  -12.2870   18.7900 C   0  0  0  0  0  2  0  0  0  0  0  0
  -29.2120  -12.5730   17.6750 C   0  0  0  0  0  2  0  0  0  0  0  0
  -27.7660  -12.4330   18.1880 C   0  0  0  0  0  2  0  0  0  0  0  0
  -27.5310  -13.2060   19.5100 C   0  0  0  0  0  3  0  0  0  0  0  0
  -28.6370  -12.8610   20.5290 C   0  0  0  0  0  2  0  0  0  0  0  0
  -29.9430  -13.1830   19.9190 N   0  0  0  0  0  0  0  0  0  0  0  0
  -31.6960  -14.6050   19.5360 O   0  0  0  0  0  0  0  0  0  0  0  0
  -31.0770  -15.1930   22.4140 C   0  0  0  0  0  2  0  0  0  0  0  0
  -29.2230  -16.0690   21.0740 C   0  0  0  0  0  2  0  0  0  0  0  0
  -31.6720  -16.6130   22.5560 C   0  0  0  0  0  2  0  0  0  0  0  0
  -29.7800  -17.5210   21.1780 C   0  0  0  0  0  3  0  0  0  0  0  0
  -30.2550  -15.0320   21.2150 N   0  0  0  0  0  0  0  0  0  0  0  0
  -31.2210  -17.5590   21.5090 N   0  0  0  0  0  4  0  0  0  0  0  0
  -31.6980  -17.3670   20.6390 H   0  0  0  0  0  0  0  0  0  0  0  0
  -31.4740  -18.5000   21.7680 H   0  0  0  0  0  0  0  0  0  0  0  0
  -25.1780  -13.8510   20.3330 C   0  0  0  0  0  0  0  0  0  0  0  0
  -24.1270  -13.0920   20.7670 C   0  0  0  0  0  0  0  0  0  0  0  0
  -24.5750  -11.7380   20.7220 C   0  0  0  0  0  0  0  0  0  0  0  0
  -26.2000  -12.9570   20.0550 N   0  0  0  0  0  0  0  0  0  0  0  0
  -25.8440  -11.6800   20.3440 N   0  0  0  0  0  0  0  0  0  0  0  0
  -23.8540  -10.4810   20.9570 C   0  0  0  0  0  0  0  0  0  0  0  0
  -24.3170   -9.5240   21.8860 C   0  0  0  0  0  3  0  0  0  0  0  0
  -23.5960   -8.3300   22.1020 C   0  0  0  0  0  3  0  0  0  0  0  0
  -22.3960   -8.0870   21.3900 C   0  0  0  0  0  0  0  0  0  0  0  0
  -21.9540   -9.0330   20.4480 C   0  0  0  0  0  3  0  0  0  0  0  0
  -22.6770  -10.2170   20.2310 C   0  0  0  0  0  3  0  0  0  0  0  0
  -21.6400   -6.9490   21.5160 O   0  0  0  0  0  0  0  0  0  0  0  0
  -21.6220   -6.2250   22.6820 C   0  0  0  0  0  0  0  0  0  0  0  0
  -21.2380   -6.8060   23.9110 C   0  0  0  0  0  3  0  0  0  0  0  0
  -21.1750   -6.0140   25.0740 C   0  0  0  0  0  3  0  0  0  0  0  0
  -21.4730   -4.6400   25.0080 C   0  0  0  0  0  0  0  0  0  0  0  0
  -21.8470   -4.0590   23.7830 C   0  0  0  0  0  3  0  0  0  0  0  0
  -21.9190   -4.8500   22.6250 C   0  0  0  0  0  0  0  0  0  0  0  0
  -22.2630   -4.2830   21.4430 F   0  0  0  0  0  0  0  0  0  0  0  0
  -21.4020   -3.8750   26.1230 F   0  0  0  0  0  0  0  0  0  0  0  0
  -22.7480  -13.5810   21.1050 C   0  0  0  0  0  0  0  0  0  0  0  0
  -22.0570  -12.8970   22.0100 N   0  0  0  0  0  0  0  0  0  0  0  0
  -22.2890  -14.6010   20.5910 O   0  0  0  0  0  0  0  0  0  0  0  0
  -22.4340  -12.0630   22.4400 H   0  0  0  0  0  0  0  0  0  0  0  0
  -21.1300  -13.2050   22.2720 H   0  0  0  0  0  0  0  0  0  0  0  0
  -25.3470  -15.2200   20.1330 N   0  0  0  0  0  0  0  0  0  0  0  0
  -26.1680  -15.6330   19.7160 H   0  0  0  0  0  0  0  0  0  0  0  0
  -24.5900  -15.8830   20.2670 H   0  0  0  0  0  0  0  0  0  0  0  0
  -28.6260  -20.8700   18.1320 C   0  0  0  0  0  2  0  0  0  0  0  0
  -27.8330  -21.9460   18.7720 N   0  0  0  0  0  4  0  0  0  0  0  0
  -27.1820  -22.2970   18.0870 H   0  0  0  0  0  0  0  0  0  0  0  0
  -27.2890  -21.5480   19.5200 H   0  0  0  0  0  0  0  0  0  0  0  0
  -28.6370  -23.0650   19.3160 C   0  0  0  0  0  2  0  0  0  0  0  0
  -27.8460  -24.3910   19.3910 C   0  0  0  0  0  2  0  0  0  0  0  0
  -28.4330  -25.4110   20.3980 C   0  0  0  0  0  2  0  0  0  0  0  0
  -28.3800  -26.7920   20.0190 O   0  0  0  0  0  0  0  0  0  0  0  0
  -24.5710  -31.8970   23.2350 C   0  0  0  0  0  0  0  0  0  0  0  0
  -27.1830  -27.4700   20.1010 C   0  0  0  0  0  0  0  0  0  0  0  0
  -23.3510  -30.5110   21.5940 C   0  0  0  0  0  3  0  0  0  0  0  0
  -24.7890  -28.9750   20.1590 C   0  0  0  0  0  0  0  0  0  0  0  0
  -25.8770  -30.8620   21.3840 C   0  0  0  0  0  2  0  0  0  0  0  0
  -25.9530  -29.4950   20.7370 C   0  0  0  0  0  0  0  0  0  0  0  0
  -27.1520  -28.7490   20.7030 C   0  0  0  0  0  3  0  0  0  0  0  0
  -25.9980  -26.9660   19.5240 C   0  0  0  0  0  3  0  0  0  0  0  0
  -24.8040  -27.7090   19.5540 C   0  0  0  0  0  3  0  0  0  0  0  0
  -23.5510  -29.8390   20.2130 C   0  0  0  0  0  2  0  0  0  0  0  0
  -24.6190  -31.1030   22.1310 N   0  0  0  0  0  0  0  0  0  0  0  0
  -23.4930  -32.1720   23.7810 O   0  0  0  0  0  0  0  0  0  0  0  0
  -22.7000  -29.4840   22.5500 C   0  0  0  0  0  0  0  0  0  0  0  0
  -21.3760  -29.3020   22.4210 N   0  0  0  0  0  0  0  0  0  0  0  0
  -23.3840  -28.8540   23.3610 O   0  0  0  0  0  0  0  0  0  0  0  0
  -20.8850  -29.8650   21.7390 H   0  0  0  0  0  0  0  0  0  0  0  0
  -18.0010  -28.1110   22.9150 C   0  0  0  0  0  0  0  0  0  0  0  0
  -20.5590  -28.3630   23.1870 C   0  0  0  0  0  3  0  0  0  0  0  0
  -20.6590  -26.9330   22.6070 C   0  0  0  0  0  2  0  0  0  0  0  0
  -19.5570  -26.6160   21.5910 C   0  0  0  0  0  2  0  0  0  0  0  0
  -18.1770  -26.7620   22.2360 C   0  0  0  0  0  2  0  0  0  0  0  0
  -19.1220  -28.8690   23.3480 C   0  0  0  0  0  0  0  0  0  0  0  0
  -18.9050  -30.1310   23.9420 C   0  0  0  0  0  3  0  0  0  0  0  0
  -17.6010  -30.6370   24.1050 C   0  0  0  0  0  3  0  0  0  0  0  0
  -16.4960  -29.8760   23.6880 C   0  0  0  0  0  3  0  0  0  0  0  0
  -16.6980  -28.6140   23.1010 C   0  0  0  0  0  3  0  0  0  0  0  0
  -25.8640  -32.5180   23.8510 C   0  0  0  0  0  3  0  0  0  0  0  0
  -25.5620  -33.9160   24.1890 N   0  0  0  0  0  0  0  0  0  0  0  0
  -25.8920  -34.9690   23.4280 C   0  0  0  0  0  0  0  0  0  0  0  0
  -26.5560  -34.8660   22.3930 O   0  0  0  0  0  0  0  0  0  0  0  0
  -24.9710  -34.0680   24.9940 H   0  0  0  0  0  0  0  0  0  0  0  0
  -24.1690  -36.7660   23.0870 C   0  0  0  0  0  1  0  0  0  0  0  0
  -25.4120  -36.3560   23.8920 C   0  0  0  0  0  3  0  0  0  0  0  0
  -27.5560  -37.2340   24.7100 C   0  0  0  0  0  1  0  0  0  0  0  0
  -26.4480  -37.4050   23.7750 N   0  0  0  0  0  0  0  0  0  0  0  0
  -26.0450  -38.3260   23.9290 H   0  0  0  0  0  0  0  0  0  0  0  0
  -26.3860  -31.7350   25.1180 C   0  0  1  0  0  0  0  0  0  0  0  0
  -25.3000  -31.4970   26.1910 C   0  0  0  0  0  1  0  0  0  0  0  0
  -26.9630  -30.3590   24.7090 C   0  0  0  0  0  1  0  0  0  0  0  0
  -27.5420  -32.5220   25.7770 C   0  0  0  0  0  1  0  0  0  0  0  0
  1  3  1  0
  3  2  1  0
  3  5  1  0
  4  2  2  0
  6 18  1  0
  7 12  1  0
  8  9  1  0
  8  7  1  0
 10  9  1  0
 10 25  1  0
 10 11  1  0
 12  6  1  0
 12 11  1  0
 13  6  2  0
 14 16  1  0
 15 17  1  0
 15 18  1  0
 17  2  1  0
 17 19  1  0
 18 14  1  0
 19 21  1  0
 19 16  1  0
 20 19  1  0
 22 23  2  0
 23 42  1  0
 24 23  1  0
 24 27  1  0
 25 22  1  0
 25 26  1  0
 26 24  2  0
 27 28  1  0
 28 29  2  0
 30 33  1  0
 30 29  1  0
 31 30  2  0
 32 31  1  0
 32 27  2  0
 33 34  1  0
 34 35  1  0
 35 36  2  0
 37 36  1  0
 37 41  1  0
 38 37  2  0
 39 34  2  0
 39 38  1  0
 40 39  1  0
 42 43  1  0
 43 46  1  0
 43 45  1  0
 44 42  2  0
 47 49  1  0
 47 22  1  0
 48 47  1  0
 50  1  1  0
 50 51  1  0
 51 54  1  0
 51 53  1  0
 52 51  1  0
 54 55  1  0
 55 56  1  0
 57 59  1  0
 57 56  1  0
 58 69  2  0
 59 64  1  0
 60 68  1  0
 60 70  1  0
 61 67  1  0
 61 63  1  0
 62 68  1  0
 63 62  1  0
 64 63  2  0
 65 66  1  0
 65 59  2  0
 66 61  2  0
 67 60  1  0
 68 58  1  0
 70 72  2  0
 71 70  1  0
 73 71  1  0
 74 83  2  0
 74 79  1  0
 75 71  1  0
 75 79  1  0
 76 75  1  0
 77 78  1  0
 77 76  1  0
 78 74  1  0
 79 80  2  0
 80 81  1  0
 82 81  2  0
 83 82  1  0
 84 58  1  0
 84 85  1  0
 84 94  1  0
 85 88  1  0
 86 90  1  0
 86 85  1  0
 87 86  2  0
 90 89  1  0
 92 90  1  0
 92 93  1  0
 92 91  1  0
 94 97  1  1
 94 95  1  0
 96 94  1  0
M  ISO  4   6 100  18 100  56 101  57 101
M  END
>  <TORSDO>  (10) 
F 22

>  <SCORE>  (10) 
-11.371

>  <name>  (10) 
9

>  <ligand_id>  (10) 
9

>  <original_smiles>  (10) 
[H]c1c([H])c([H])c2c(c1[H])C([H])([H])C([H])([H])C([H])([H])C2([H])N([H])C(=O)C1([H])N(C(=O)C([H])(N([H])C(=O)C([H])(N([H])C([H])([H])[H])C([H])([H])[H])C(C([H])([H])[H])(C([H])([H])[H])C([H])([H])[H])C([H])([H])c2c([H])c(OC([H])([H])C([H])([H])C([H])([H])[N+]([H])([H])C([H])([H])C([H])([H])N([H])C(=O)C3([H])C([H])([H])N(C(=O)N4C([H])([H])C([H])([H])C([H])([H])C([H])(n5nc(-c6c([H])c([H])c(Oc7c([H])c([H])c(F)c([H])c7F)c([H])c6[H])c(C(=O)N([H])[H])c5N([H])[H])C4([H])[H])C([H])([H])C([H])([H])[N+]3([H])[H])c([H])c([H])c2C1([H])[H]

>  <smiles>  (10) 
[H]c1c([H])c([H])c2c(c1[H])C([H])([H])C([H])([H])C([H])([H])C2([H])N([H])C(=O)C1([H])N(C(=O)C([H])(N([H])C(=O)C([H])(N([H])C([H])([H])[H])C([H])([H])[H])C(C([H])([H])[H])(C([H])([H])[H])C([H])([H])[H])C([H])([H])c2c([H])c(OC([H])([H])C([H])([H])C([H])([H])[N+]([H])([H])C([H])([H])C([H])([H])N([H])C(=O)C3([H])C([H])([H])N(C(=O)N4C([H])([H])C([H])([H])C([H])([H])C([H])(n5nc(-c6c([H])c([H])c(Oc7c([H])c([H])c(F)c([H])c7F)c([H])c6[H])c(C(=O)N([H])[H])c5N([H])[H])C4([H])[H])C([H])([H])C([H])([H])[N+]3([H])[H])c([H])c([H])c2C1([H])[H]

$$$$
10:0:0
     RDKit          3D

101110  0  0  1  0  0  0  0  0999 V2000
  -30.2670  -18.6700   21.4320 C   0  0  0  0  0  2  0  0  0  0  0  0
  -30.6980  -20.2420   18.9920 C   0  0  0  0  0  2  0  0  0  0  0  0
  -31.1380  -19.9650   21.4520 C   0  0  0  0  0  3  0  0  0  0  0  0
  -30.7260  -20.9920   20.3510 C   0  0  0  0  0  3  0  0  0  0  0  0
  -30.2710  -17.9920   20.0350 C   0  0  0  0  0  3  0  0  0  0  0  0
  -29.8820  -19.0030   19.0160 N   0  0  0  0  0  4  0  0  0  0  0  0
  -29.9570  -18.5790   18.1030 H   0  0  0  0  0  0  0  0  0  0  0  0
  -28.9110  -19.2420   19.1380 H   0  0  0  0  0  0  0  0  0  0  0  0
  -30.4420  -21.4170   24.9640 C   0  0  0  0  0  3  0  0  0  0  0  0
  -31.7400  -21.7840   25.3700 C   0  0  0  0  0  3  0  0  0  0  0  0
  -30.2330  -20.8330   23.6990 C   0  0  0  0  0  3  0  0  0  0  0  0
  -32.8300  -21.5670   24.5060 C   0  0  0  0  0  3  0  0  0  0  0  0
  -31.3230  -20.6090   22.8270 C   0  0  0  0  0  0  0  0  0  0  0  0
  -32.6230  -20.9880   23.2400 C   0  0  0  0  0  0  0  0  0  0  0  0
  -33.6800  -20.8050   22.4150 F   0  0  0  0  0  0  0  0  0  0  0  0
  -29.4490  -21.8570   20.6290 C   0  0  0  0  0  2  0  0  0  0  0  0
  -29.7100  -23.2120   21.2100 N   0  0  0  0  0  4  0  0  0  0  0  0
  -30.6690  -23.2800   21.5180 H   0  0  0  0  0  0  0  0  0  0  0  0
  -29.1370  -23.2880   22.0360 H   0  0  0  0  0  0  0  0  0  0  0  0
  -29.3830  -24.3740   20.3250 C   0  0  0  0  0  2  0  0  0  0  0  0
  -29.0880  -25.6820   21.1060 C   0  0  0  0  0  2  0  0  0  0  0  0
  -29.0460  -26.8280   20.2370 O   0  0  0  0  0  0  0  0  0  0  0  0
  -24.7910  -31.7160   23.2280 C   0  0  0  0  0  0  0  0  0  0  0  0
  -27.8450  -27.5030   20.2120 C   0  0  0  0  0  0  0  0  0  0  0  0
  -23.7610  -30.3040   21.4780 C   0  0  0  0  0  3  0  0  0  0  0  0
  -25.3790  -28.8790   20.1100 C   0  0  0  0  0  0  0  0  0  0  0  0
  -26.2710  -30.7930   21.4480 C   0  0  0  0  0  2  0  0  0  0  0  0
  -26.4680  -29.4470   20.7840 C   0  0  0  0  0  0  0  0  0  0  0  0
  -27.7070  -28.7640   20.8330 C   0  0  0  0  0  3  0  0  0  0  0  0
  -26.7430  -26.9480   19.5290 C   0  0  0  0  0  3  0  0  0  0  0  0
  -25.5100  -27.6270   19.4800 C   0  0  0  0  0  3  0  0  0  0  0  0
  -24.0920  -29.6720   20.0980 C   0  0  0  0  0  2  0  0  0  0  0  0
  -24.9540  -30.9520   22.1110 N   0  0  0  0  0  0  0  0  0  0  0  0
  -23.6670  -31.9190   23.7070 O   0  0  0  0  0  0  0  0  0  0  0  0
  -23.1050  -29.2260   22.3710 C   0  0  0  0  0  0  0  0  0  0  0  0
  -21.7850  -29.0390   22.2110 N   0  0  0  0  0  0  0  0  0  0  0  0
  -23.7830  -28.5640   23.1630 O   0  0  0  0  0  0  0  0  0  0  0  0
  -21.3040  -29.6260   21.5440 H   0  0  0  0  0  0  0  0  0  0  0  0
  -18.4080  -27.8200   22.6180 C   0  0  0  0  0  0  0  0  0  0  0  0
  -20.9640  -28.0520   22.9130 C   0  0  0  0  0  3  0  0  0  0  0  0
  -21.0670  -26.6660   22.2370 C   0  0  0  0  0  2  0  0  0  0  0  0
  -19.9640  -26.4180   21.2010 C   0  0  0  0  0  2  0  0  0  0  0  0
  -18.5820  -26.5200   21.8510 C   0  0  0  0  0  2  0  0  0  0  0  0
  -19.5270  -28.5480   23.1030 C   0  0  0  0  0  0  0  0  0  0  0  0
  -19.3100  -29.7670   23.7810 C   0  0  0  0  0  3  0  0  0  0  0  0
  -18.0070  -30.2600   23.9780 C   0  0  0  0  0  3  0  0  0  0  0  0
  -16.9020  -29.5280   23.5100 C   0  0  0  0  0  3  0  0  0  0  0  0
  -17.1030  -28.3100   22.8360 C   0  0  0  0  0  3  0  0  0  0  0  0
  -26.0050  -32.3890   23.9440 C   0  0  0  0  0  3  0  0  0  0  0  0
  -25.6370  -33.7840   24.2190 N   0  0  0  0  0  0  0  0  0  0  0  0
  -25.9900  -34.8280   23.4580 C   0  0  0  0  0  0  0  0  0  0  0  0
  -26.7280  -34.7200   22.4750 O   0  0  0  0  0  0  0  0  0  0  0  0
  -24.9820  -33.9360   24.9720 H   0  0  0  0  0  0  0  0  0  0  0  0
  -24.2220  -36.5450   22.9730 C   0  0  0  0  0  1  0  0  0  0  0  0
  -25.4380  -36.2100   23.8500 C   0  0  0  0  0  3  0  0  0  0  0  0
  -27.4950  -37.1990   24.7530 C   0  0  0  0  0  1  0  0  0  0  0  0
  -26.4400  -37.2950   23.7480 N   0  0  0  0  0  0  0  0  0  0  0  0
  -25.9960  -38.2050   23.8390 H   0  0  0  0  0  0  0  0  0  0  0  0
  -26.4320  -31.6520   25.2710 C   0  0  1  0  0  0  0  0  0  0  0  0
  -25.2590  -31.4040   26.2500 C   0  0  0  0  0  1  0  0  0  0  0  0
  -27.0720  -30.2830   24.9470 C   0  0  0  0  0  1  0  0  0  0  0  0
  -27.5110  -32.4820   26.0070 C   0  0  0  0  0  1  0  0  0  0  0  0
  -29.3100  -16.7720   19.8940 C   0  0  0  0  0  2  0  0  0  0  0  0
  -30.3320  -14.5670   20.3300 C   0  0  0  0  0  0  0  0  0  0  0  0
  -30.1100  -12.3740   19.2370 C   0  0  0  0  0  2  0  0  0  0  0  0
  -29.1250  -12.5340   18.0580 C   0  0  0  0  0  2  0  0  0  0  0  0
  -27.6710  -12.3390   18.5300 C   0  0  0  0  0  2  0  0  0  0  0  0
  -27.3370  -13.1690   19.7990 C   0  0  0  0  0  3  0  0  0  0  0  0
  -28.4340  -12.9970   20.8780 C   0  0  0  0  0  2  0  0  0  0  0  0
  -29.7310  -13.3470   20.2760 N   0  0  0  0  0  0  0  0  0  0  0  0
  -31.4270  -14.8070   19.8140 O   0  0  0  0  0  0  0  0  0  0  0  0
  -29.5310  -15.5740   20.7290 N   0  0  0  0  0  0  0  0  0  0  0  0
  -28.7260  -15.2740   21.2590 H   0  0  0  0  0  0  0  0  0  0  0  0
  -24.9430  -13.6910   20.5950 C   0  0  0  0  0  0  0  0  0  0  0  0
  -23.9110  -12.8780   20.9830 C   0  0  0  0  0  0  0  0  0  0  0  0
  -24.4110  -11.5430   20.9080 C   0  0  0  0  0  0  0  0  0  0  0  0
  -26.0060  -12.8460   20.3140 N   0  0  0  0  0  0  0  0  0  0  0  0
  -25.6910  -11.5490   20.5570 N   0  0  0  0  0  0  0  0  0  0  0  0
  -23.7300  -10.2550   21.0950 C   0  0  0  0  0  0  0  0  0  0  0  0
  -24.1950   -9.3010   22.0270 C   0  0  0  0  0  3  0  0  0  0  0  0
  -23.5100   -8.0790   22.2020 C   0  0  0  0  0  3  0  0  0  0  0  0
  -22.3470   -7.8020   21.4450 C   0  0  0  0  0  0  0  0  0  0  0  0
  -21.9030   -8.7460   20.5020 C   0  0  0  0  0  3  0  0  0  0  0  0
  -22.5890   -9.9600   20.3250 C   0  0  0  0  0  3  0  0  0  0  0  0
  -21.6330   -6.6300   21.5280 O   0  0  0  0  0  0  0  0  0  0  0  0
  -21.5900   -5.8960   22.6850 C   0  0  0  0  0  0  0  0  0  0  0  0
  -21.0750   -6.4280   23.8870 C   0  0  0  0  0  3  0  0  0  0  0  0
  -20.9850   -5.6160   25.0350 C   0  0  0  0  0  3  0  0  0  0  0  0
  -21.4010   -4.2720   24.9820 C   0  0  0  0  0  0  0  0  0  0  0  0
  -21.9110   -3.7390   23.7860 C   0  0  0  0  0  3  0  0  0  0  0  0
  -22.0020   -4.5490   22.6400 C   0  0  0  0  0  0  0  0  0  0  0  0
  -22.4740   -4.0240   21.4830 F   0  0  0  0  0  0  0  0  0  0  0  0
  -21.3070   -3.4900   26.0840 F   0  0  0  0  0  0  0  0  0  0  0  0
  -22.5110  -13.3090   21.3130 C   0  0  0  0  0  0  0  0  0  0  0  0
  -21.8350  -12.5700   22.1880 N   0  0  0  0  0  0  0  0  0  0  0  0
  -22.0250  -14.3320   20.8320 O   0  0  0  0  0  0  0  0  0  0  0  0
  -22.2410  -11.7420   22.5950 H   0  0  0  0  0  0  0  0  0  0  0  0
  -20.8990  -12.8410   22.4540 H   0  0  0  0  0  0  0  0  0  0  0  0
  -25.0590  -15.0680   20.4380 N   0  0  0  0  0  0  0  0  0  0  0  0
  -24.2710  -15.6920   20.5790 H   0  0  0  0  0  0  0  0  0  0  0  0
  -25.8740  -15.5390   20.0670 H   0  0  0  0  0  0  0  0  0  0  0  0
  1  3  1  0
  2  6  1  0
  2  4  1  0
  3 13  1  0
  4 16  1  0
  4  3  1  0
  5 63  1  0
  5  1  1  0
  6  8  1  0
  6  5  1  0
  7  6  1  0
  9 10  1  0
 11  9  2  0
 12 10  2  0
 13 14  2  0
 13 11  1  0
 14 12  1  0
 15 14  1  0
 16 17  1  0
 17 18  1  0
 17 19  1  0
 20 21  1  0
 20 17  1  0
 22 21  1  0
 23 34  2  0
 24 22  1  0
 24 29  1  0
 25 33  1  0
 25 35  1  0
 26 28  1  0
 27 33  1  0
 28 29  2  0
 28 27  1  0
 30 24  2  0
 31 30  1  0
 31 26  2  0
 32 26  1  0
 32 25  1  0
 33 23  1  0
 35 37  2  0
 36 35  1  0
 38 36  1  0
 39 48  2  0
 39 44  1  0
 40 36  1  0
 40 44  1  0
 41 40  1  0
 42 43  1  0
 42 41  1  0
 43 39  1  0
 44 45  2  0
 45 46  1  0
 47 46  2  0
 48 47  1  0
 49 23  1  0
 49 50  1  0
 49 59  1  0
 50 53  1  0
 51 55  1  0
 51 50  1  0
 52 51  2  0
 55 54  1  0
 57 58  1  0
 57 55  1  0
 57 56  1  0
 59 62  1  1
 59 60  1  0
 61 59  1  0
 63 72  1  0
 64 72  1  0
 65 70  1  0
 66 67  1  0
 66 65  1  0
 68 67  1  0
 68 77  1  0
 68 69  1  0
 70 64  1  0
 70 69  1  0
 71 64  2  0
 72 73  1  0
 74 75  2  0
 75 94  1  0
 76 75  1  0
 76 79  1  0
 77 78  1  0
 77 74  1  0
 78 76  2  0
 79 80  1  0
 80 81  2  0
 82 85  1  0
 82 81  1  0
 83 82  2  0
 84 83  1  0
 84 79  2  0
 85 86  1  0
 86 87  1  0
 87 88  2  0
 89 88  1  0
 89 93  1  0
 90 89  2  0
 91 86  2  0
 91 90  1  0
 92 91  1  0
 94 95  1  0
 95 98  1  0
 95 97  1  0
 96 94  2  0
 99100  1  0
 99 74  1  0
101 99  1  0
M  ISO  4  21 101  22 101  64 100  72 100
M  END
>  <TORSDO>  (11) 
F 22

>  <SCORE>  (11) 
-11.924

>  <name>  (11) 
10

>  <ligand_id>  (11) 
10

>  <original_smiles>  (11) 
[H]c1c([H])c([H])c(C2([H])C([H])([H])C([H])(C([H])([H])N([H])C(=O)N3C([H])([H])C([H])([H])C([H])([H])C([H])(n4nc(-c5c([H])c([H])c(Oc6c([H])c([H])c(F)c([H])c6F)c([H])c5[H])c(C(=O)N([H])[H])c4N([H])[H])C3([H])[H])[N+]([H])([H])C([H])([H])C2([H])C([H])([H])[N+]([H])([H])C([H])([H])C([H])([H])Oc2c([H])c([H])c3c(c2[H])C([H])([H])N(C(=O)C([H])(N([H])C(=O)C([H])(N([H])C([H])([H])[H])C([H])([H])[H])C(C([H])([H])[H])(C([H])([H])[H])C([H])([H])[H])C([H])(C(=O)N([H])C2([H])c4c([H])c([H])c([H])c([H])c4C([H])([H])C([H])([H])C2([H])[H])C3([H])[H])c(F)c1[H]

>  <smiles>  (11) 
[H]c1c([H])c([H])c(C2([H])C([H])([H])C([H])(C([H])([H])N([H])C(=O)N3C([H])([H])C([H])([H])C([H])([H])C([H])(n4nc(-c5c([H])c([H])c(Oc6c([H])c([H])c(F)c([H])c6F)c([H])c5[H])c(C(=O)N([H])[H])c4N([H])[H])C3([H])[H])[N+]([H])([H])C([H])([H])C2([H])C([H])([H])[N+]([H])([H])C([H])([H])C([H])([H])Oc2c([H])c([H])c3c(c2[H])C([H])([H])N(C(=O)C([H])(N([H])C(=O)C([H])(N([H])C([H])([H])[H])C([H])([H])[H])C(C([H])([H])[H])(C([H])([H])[H])C([H])([H])[H])C([H])(C(=O)N([H])C2([H])c4c([H])c([H])c([H])c([H])c4C([H])([H])C([H])([H])C2([H])[H])C3([H])[H])c(F)c1[H]

$$$$
11:0:0
     RDKit          3D

 95103  0  0  1  0  0  0  0  0999 V2000
  -30.1210  -21.1870   20.2370 C   0  0  0  0  0  0  0  0  0  0  0  0
  -31.1630  -21.7930   19.9480 O   0  0  0  0  0  0  0  0  0  0  0  0
  -31.2850  -17.5650   20.7600 C   0  0  0  0  0  3  0  0  0  0  0  0
  -28.8640  -17.5620   20.7010 C   0  0  0  0  0  3  0  0  0  0  0  0
  -30.0760  -19.6950   20.4600 C   0  0  0  0  0  0  0  0  0  0  0  0
  -30.0740  -16.8410   20.8020 C   0  0  0  0  0  0  0  0  0  0  0  0
  -31.2870  -18.9640   20.5890 C   0  0  0  0  0  0  0  0  0  0  0  0
  -28.8580  -18.9640   20.5230 C   0  0  0  0  0  0  0  0  0  0  0  0
  -32.4950  -19.5830   20.5520 F   0  0  0  0  0  0  0  0  0  0  0  0
  -27.6570  -19.5790   20.4000 F   0  0  0  0  0  0  0  0  0  0  0  0
  -30.7320  -14.4750   20.3250 C   0  0  0  0  0  0  0  0  0  0  0  0
  -30.4390  -12.3470   19.1170 C   0  0  0  0  0  2  0  0  0  0  0  0
  -29.4630  -12.5840   17.9460 C   0  0  0  0  0  2  0  0  0  0  0  0
  -27.9990  -12.4410   18.4080 C   0  0  0  0  0  2  0  0  0  0  0  0
  -27.6940  -13.2420   19.7000 C   0  0  0  0  0  3  0  0  0  0  0  0
  -28.7710  -12.9600   20.7740 C   0  0  0  0  0  2  0  0  0  0  0  0
  -30.0860  -13.2870   20.1910 N   0  0  0  0  0  0  0  0  0  0  0  0
  -31.8340  -14.6980   19.8150 O   0  0  0  0  0  0  0  0  0  0  0  0
  -30.0120  -15.4220   20.9600 N   0  0  0  0  0  0  0  0  0  0  0  0
  -29.1480  -15.0670   21.3440 H   0  0  0  0  0  0  0  0  0  0  0  0
  -25.3030  -13.8390   20.4490 C   0  0  0  0  0  0  0  0  0  0  0  0
  -24.2470  -13.0610   20.8390 C   0  0  0  0  0  0  0  0  0  0  0  0
  -24.7140  -11.7120   20.7880 C   0  0  0  0  0  0  0  0  0  0  0  0
  -26.3480  -12.9640   20.1970 N   0  0  0  0  0  0  0  0  0  0  0  0
  -25.9960  -11.6800   20.4540 N   0  0  0  0  0  0  0  0  0  0  0  0
  -23.9970  -10.4440   20.9820 C   0  0  0  0  0  0  0  0  0  0  0  0
  -24.4210   -9.4940   21.9370 C   0  0  0  0  0  3  0  0  0  0  0  0
  -23.7050   -8.2910   22.1140 C   0  0  0  0  0  3  0  0  0  0  0  0
  -22.5530   -8.0290   21.3380 C   0  0  0  0  0  0  0  0  0  0  0  0
  -22.1470   -8.9690   20.3730 C   0  0  0  0  0  3  0  0  0  0  0  0
  -22.8640  -10.1630   20.1930 C   0  0  0  0  0  3  0  0  0  0  0  0
  -21.8100   -6.8770   21.4260 O   0  0  0  0  0  0  0  0  0  0  0  0
  -21.7090   -6.1740   22.5990 C   0  0  0  0  0  0  0  0  0  0  0  0
  -21.1820   -6.7540   23.7740 C   0  0  0  0  0  3  0  0  0  0  0  0
  -21.0350   -5.9730   24.9390 C   0  0  0  0  0  3  0  0  0  0  0  0
  -21.4020   -4.6150   24.9280 C   0  0  0  0  0  0  0  0  0  0  0  0
  -21.9220   -4.0340   23.7580 C   0  0  0  0  0  3  0  0  0  0  0  0
  -22.0720   -4.8120   22.5950 C   0  0  0  0  0  0  0  0  0  0  0  0
  -22.5520   -4.2430   21.4640 F   0  0  0  0  0  0  0  0  0  0  0  0
  -21.2540   -3.8620   26.0430 F   0  0  0  0  0  0  0  0  0  0  0  0
  -22.8540  -13.5310   21.1440 C   0  0  0  0  0  0  0  0  0  0  0  0
  -22.1440  -12.8150   22.0120 N   0  0  0  0  0  0  0  0  0  0  0  0
  -22.4040  -14.5640   20.6510 O   0  0  0  0  0  0  0  0  0  0  0  0
  -22.5190  -11.9760   22.4270 H   0  0  0  0  0  0  0  0  0  0  0  0
  -21.2120  -13.1130   22.2620 H   0  0  0  0  0  0  0  0  0  0  0  0
  -25.4560  -15.2110   20.2630 N   0  0  0  0  0  0  0  0  0  0  0  0
  -24.6580  -15.8340   20.3180 H   0  0  0  0  0  0  0  0  0  0  0  0
  -26.2420  -15.6220   19.7770 H   0  0  0  0  0  0  0  0  0  0  0  0
  -28.8280  -22.0240   20.3310 C   0  0  0  0  0  2  0  0  0  0  0  0
  -29.1890  -23.4560   20.1740 N   0  0  0  0  0  4  0  0  0  0  0  0
  -29.9810  -23.4320   19.5440 H   0  0  0  0  0  0  0  0  0  0  0  0
  -29.5410  -23.8070   21.0510 H   0  0  0  0  0  0  0  0  0  0  0  0
  -28.1250  -24.3460   19.6410 C   0  0  0  0  0  2  0  0  0  0  0  0
  -28.6730  -25.7180   19.1680 C   0  0  0  0  0  2  0  0  0  0  0  0
  -28.4790  -26.7730   20.1200 O   0  0  0  0  0  0  0  0  0  0  0  0
  -24.6030  -31.8750   23.2300 C   0  0  0  0  0  0  0  0  0  0  0  0
  -27.2790  -27.4580   20.1250 C   0  0  0  0  0  0  0  0  0  0  0  0
  -23.4060  -30.4730   21.5810 C   0  0  0  0  0  3  0  0  0  0  0  0
  -24.8690  -28.9470   20.1570 C   0  0  0  0  0  0  0  0  0  0  0  0
  -25.9290  -30.8460   21.3870 C   0  0  0  0  0  2  0  0  0  0  0  0
  -26.0220  -29.4730   20.7510 C   0  0  0  0  0  0  0  0  0  0  0  0
  -27.2250  -28.7300   20.7440 C   0  0  0  0  0  3  0  0  0  0  0  0
  -26.0990  -26.9460   19.5330 C   0  0  0  0  0  3  0  0  0  0  0  0
  -24.9000  -27.6820   19.5510 C   0  0  0  0  0  3  0  0  0  0  0  0
  -23.6220  -29.8020   20.1980 C   0  0  0  0  0  2  0  0  0  0  0  0
  -24.6650  -31.0790   22.1250 N   0  0  0  0  0  0  0  0  0  0  0  0
  -23.5190  -32.1410   23.7660 O   0  0  0  0  0  0  0  0  0  0  0  0
  -22.7580  -29.4460   22.5350 C   0  0  0  0  0  0  0  0  0  0  0  0
  -21.4330  -29.2690   22.4110 N   0  0  0  0  0  0  0  0  0  0  0  0
  -23.4420  -28.8110   23.3430 O   0  0  0  0  0  0  0  0  0  0  0  0
  -20.9420  -29.8370   21.7350 H   0  0  0  0  0  0  0  0  0  0  0  0
  -18.0530  -28.1010   22.9250 C   0  0  0  0  0  0  0  0  0  0  0  0
  -20.6160  -28.3270   23.1730 C   0  0  0  0  0  3  0  0  0  0  0  0
  -20.6970  -26.9050   22.5700 C   0  0  0  0  0  2  0  0  0  0  0  0
  -19.5810  -26.6110   21.5640 C   0  0  0  0  0  2  0  0  0  0  0  0
  -18.2070  -26.7610   22.2250 C   0  0  0  0  0  2  0  0  0  0  0  0
  -19.1850  -28.8450   23.3530 C   0  0  0  0  0  0  0  0  0  0  0  0
  -18.9870  -30.1020   23.9650 C   0  0  0  0  0  3  0  0  0  0  0  0
  -17.6890  -30.6150   24.1530 C   0  0  0  0  0  3  0  0  0  0  0  0
  -16.5730  -29.8680   23.7380 C   0  0  0  0  0  3  0  0  0  0  0  0
  -16.7550  -28.6140   23.1300 C   0  0  0  0  0  3  0  0  0  0  0  0
  -25.8850  -32.5070   23.8580 C   0  0  0  0  0  3  0  0  0  0  0  0
  -25.5740  -33.9070   24.1810 N   0  0  0  0  0  0  0  0  0  0  0  0
  -25.9110  -34.9560   23.4190 C   0  0  0  0  0  0  0  0  0  0  0  0
  -26.5890  -34.8490   22.3930 O   0  0  0  0  0  0  0  0  0  0  0  0
  -24.9770  -34.0650   24.9790 H   0  0  0  0  0  0  0  0  0  0  0  0
  -24.1890  -36.7490   23.0340 C   0  0  0  0  0  1  0  0  0  0  0  0
  -25.4160  -36.3440   23.8680 C   0  0  0  0  0  3  0  0  0  0  0  0
  -27.5350  -37.2280   24.7350 C   0  0  0  0  0  1  0  0  0  0  0  0
  -26.4490  -37.3990   23.7740 N   0  0  0  0  0  0  0  0  0  0  0  0
  -26.0370  -38.3160   23.9250 H   0  0  0  0  0  0  0  0  0  0  0  0
  -26.3970  -31.7360   25.1350 C   0  0  1  0  0  0  0  0  0  0  0  0
  -25.3000  -31.4860   26.1950 C   0  0  0  0  0  1  0  0  0  0  0  0
  -26.9850  -30.3630   24.7350 C   0  0  0  0  0  1  0  0  0  0  0  0
  -27.5430  -32.5310   25.8060 C   0  0  0  0  0  1  0  0  0  0  0  0
  1 49  1  0
  1  5  1  0
  2  1  2  0
  3  6  1  0
  4  6  2  0
  5  8  2  0
  5  7  1  0
  6 19  1  0
  7  3  2  0
  8  4  1  0
  9  7  1  0
 10  8  1  0
 11 19  1  0
 12 17  1  0
 13 14  1  0
 13 12  1  0
 15 14  1  0
 15 24  1  0
 15 16  1  0
 17 11  1  0
 17 16  1  0
 18 11  2  0
 19 20  1  0
 21 22  2  0
 22 41  1  0
 23 22  1  0
 23 26  1  0
 24 21  1  0
 24 25  1  0
 25 23  2  0
 26 27  1  0
 27 28  2  0
 29 32  1  0
 29 28  1  0
 30 29  2  0
 31 30  1  0
 31 26  2  0
 32 33  1  0
 33 34  1  0
 34 35  2  0
 36 35  1  0
 36 40  1  0
 37 36  2  0
 38 33  2  0
 38 37  1  0
 39 38  1  0
 41 42  1  0
 42 45  1  0
 42 44  1  0
 43 41  2  0
 46 47  1  0
 46 21  1  0
 48 46  1  0
 50 49  1  0
 50 52  1  0
 51 50  1  0
 53 50  1  0
 54 53  1  0
 54 55  1  0
 55 57  1  0
 56 67  2  0
 57 62  1  0
 58 66  1  0
 58 68  1  0
 59 65  1  0
 59 61  1  0
 60 66  1  0
 61 60  1  0
 62 61  2  0
 63 64  1  0
 63 57  2  0
 64 59  2  0
 65 58  1  0
 66 56  1  0
 68 70  2  0
 69 68  1  0
 71 69  1  0
 72 81  2  0
 72 77  1  0
 73 69  1  0
 73 77  1  0
 74 73  1  0
 75 76  1  0
 75 74  1  0
 76 72  1  0
 77 78  2  0
 78 79  1  0
 80 79  2  0
 81 80  1  0
 82 56  1  0
 82 83  1  0
 82 92  1  0
 83 86  1  0
 84 88  1  0
 84 83  1  0
 85 84  2  0
 88 87  1  0
 90 88  1  0
 90 91  1  0
 90 89  1  0
 92 95  1  1
 92 93  1  0
 94 92  1  0
M  ISO  4  11 100  19 100  54 101  55 101
M  END
>  <TORSDO>  (12) 
F 21

>  <SCORE>  (12) 
-13.725

>  <name>  (12) 
11

>  <ligand_id>  (12) 
11

>  <original_smiles>  (12) 
[H]c1c([H])c([H])c2c(c1[H])C([H])([H])C([H])([H])C([H])([H])C2([H])N([H])C(=O)C1([H])N(C(=O)C([H])(N([H])C(=O)C([H])(N([H])C([H])([H])[H])C([H])([H])[H])C(C([H])([H])[H])(C([H])([H])[H])C([H])([H])[H])C([H])([H])c2c([H])c(OC([H])([H])C([H])([H])[N+]([H])([H])C([H])([H])C(=O)c3c(F)c([H])c(N([H])C(=O)N4C([H])([H])C([H])([H])C([H])([H])C([H])(n5nc(-c6c([H])c([H])c(Oc7c([H])c([H])c(F)c([H])c7F)c([H])c6[H])c(C(=O)N([H])[H])c5N([H])[H])C4([H])[H])c([H])c3F)c([H])c([H])c2C1([H])[H]

>  <smiles>  (12) 
[H]c1c([H])c([H])c2c(c1[H])C([H])([H])C([H])([H])C([H])([H])C2([H])N([H])C(=O)C1([H])N(C(=O)C([H])(N([H])C(=O)C([H])(N([H])C([H])([H])[H])C([H])([H])[H])C(C([H])([H])[H])(C([H])([H])[H])C([H])([H])[H])C([H])([H])c2c([H])c(OC([H])([H])C([H])([H])[N+]([H])([H])C([H])([H])C(=O)c3c(F)c([H])c(N([H])C(=O)N4C([H])([H])C([H])([H])C([H])([H])C([H])(n5nc(-c6c([H])c([H])c(Oc7c([H])c([H])c(F)c([H])c7F)c([H])c6[H])c(C(=O)N([H])[H])c5N([H])[H])C4([H])[H])c([H])c3F)c([H])c([H])c2C1([H])[H]

$$$$
12:0:0
     RDKit          3D

 92100  0  0  1  0  0  0  0  0999 V2000
  -29.3350  -21.4650   19.8040 C   0  0  0  0  0  0  0  0  0  0  0  0
  -29.0540  -22.7790   19.6030 N   0  0  0  0  0  0  0  0  0  0  0  0
  -29.2040  -20.6960   18.8520 O   0  0  0  0  0  0  0  0  0  0  0  0
  -28.7170  -22.9470   18.6650 H   0  0  0  0  0  0  0  0  0  0  0  0
  -29.8080  -20.8420   21.1400 C   0  0  0  0  0  2  0  0  0  0  0  0
  -30.5940  -19.5750   20.9250 N   0  0  0  0  0  4  0  0  0  0  0  0
  -30.8570  -19.5740   19.9510 H   0  0  0  0  0  0  0  0  0  0  0  0
  -31.4390  -19.6780   21.4600 H   0  0  0  0  0  0  0  0  0  0  0  0
  -30.6970  -14.6140   20.3590 C   0  0  0  0  0  0  0  0  0  0  0  0
  -30.3580  -12.4150   19.2570 C   0  0  0  0  0  2  0  0  0  0  0  0
  -29.4030  -12.5330   18.0500 C   0  0  0  0  0  2  0  0  0  0  0  0
  -27.9430  -12.3400   18.5040 C   0  0  0  0  0  2  0  0  0  0  0  0
  -27.5890  -13.2110   19.7320 C   0  0  0  0  0  3  0  0  0  0  0  0
  -28.6710  -13.1200   20.8370 C   0  0  0  0  0  2  0  0  0  0  0  0
  -29.9680  -13.4550   20.2340 N   0  0  0  0  0  0  0  0  0  0  0  0
  -31.8710  -14.6460   19.9770 O   0  0  0  0  0  0  0  0  0  0  0  0
  -28.8080  -17.8160   20.4140 C   0  0  0  0  0  2  0  0  0  0  0  0
  -28.7770  -16.2820   20.4940 C   0  0  0  0  0  2  0  0  0  0  0  0
  -30.9420  -17.0070   21.0770 C   0  0  0  0  0  2  0  0  0  0  0  0
  -29.9920  -18.2340   21.2670 C   0  0  0  0  0  3  0  0  0  0  0  0
  -30.1250  -15.7860   20.8220 N   0  0  0  0  0  0  0  0  0  0  0  0
  -25.2120  -13.8370   20.4780 C   0  0  0  0  0  0  0  0  0  0  0  0
  -24.1470  -13.0660   20.8610 C   0  0  0  0  0  0  0  0  0  0  0  0
  -24.6100  -11.7160   20.8330 C   0  0  0  0  0  0  0  0  0  0  0  0
  -26.2520  -12.9490   20.2420 N   0  0  0  0  0  0  0  0  0  0  0  0
  -25.8960  -11.6700   20.5160 N   0  0  0  0  0  0  0  0  0  0  0  0
  -23.8880  -10.4570   21.0310 C   0  0  0  0  0  0  0  0  0  0  0  0
  -24.3370   -9.4850   21.9520 C   0  0  0  0  0  3  0  0  0  0  0  0
  -23.6160   -8.2870   22.1370 C   0  0  0  0  0  3  0  0  0  0  0  0
  -22.4300   -8.0550   21.4010 C   0  0  0  0  0  0  0  0  0  0  0  0
  -21.9990   -9.0150   20.4690 C   0  0  0  0  0  3  0  0  0  0  0  0
  -22.7230  -10.2040   20.2830 C   0  0  0  0  0  3  0  0  0  0  0  0
  -21.6770   -6.9110   21.4980 O   0  0  0  0  0  0  0  0  0  0  0  0
  -21.6610   -6.1550   22.6430 C   0  0  0  0  0  0  0  0  0  0  0  0
  -21.2740   -6.6990   23.8870 C   0  0  0  0  0  3  0  0  0  0  0  0
  -21.2060   -5.8730   25.0260 C   0  0  0  0  0  3  0  0  0  0  0  0
  -21.5110   -4.5030   24.9220 C   0  0  0  0  0  0  0  0  0  0  0  0
  -21.8900   -3.9580   23.6830 C   0  0  0  0  0  3  0  0  0  0  0  0
  -21.9630   -4.7820   22.5460 C   0  0  0  0  0  0  0  0  0  0  0  0
  -22.3090   -4.2470   21.3510 F   0  0  0  0  0  0  0  0  0  0  0  0
  -21.4350   -3.7080   26.0140 F   0  0  0  0  0  0  0  0  0  0  0  0
  -22.7540  -13.5490   21.1330 C   0  0  0  0  0  0  0  0  0  0  0  0
  -22.0270  -12.8650   22.0110 N   0  0  0  0  0  0  0  0  0  0  0  0
  -22.3160  -14.5710   20.6080 O   0  0  0  0  0  0  0  0  0  0  0  0
  -22.3960  -12.0420   22.4630 H   0  0  0  0  0  0  0  0  0  0  0  0
  -21.0930  -13.1750   22.2330 H   0  0  0  0  0  0  0  0  0  0  0  0
  -25.3700  -15.2060   20.2870 N   0  0  0  0  0  0  0  0  0  0  0  0
  -24.5950  -15.8530   20.3900 H   0  0  0  0  0  0  0  0  0  0  0  0
  -26.2010  -15.6450   19.9160 H   0  0  0  0  0  0  0  0  0  0  0  0
  -29.2000  -24.0330   20.3890 C   0  0  0  0  0  2  0  0  0  0  0  0
  -28.1370  -25.1040   19.9390 C   0  0  0  0  0  2  0  0  0  0  0  0
  -28.3250  -26.5260   20.2490 O   0  0  0  0  0  0  0  0  0  0  0  0
  -24.5980  -31.8710   23.2550 C   0  0  0  0  0  0  0  0  0  0  0  0
  -27.1950  -27.3510   20.1800 C   0  0  0  0  0  0  0  0  0  0  0  0
  -23.3820  -30.4800   21.6140 C   0  0  0  0  0  3  0  0  0  0  0  0
  -24.8250  -28.9400   20.1810 C   0  0  0  0  0  0  0  0  0  0  0  0
  -25.9180  -30.8100   21.4180 C   0  0  0  0  0  2  0  0  0  0  0  0
  -25.9940  -29.4350   20.7720 C   0  0  0  0  0  0  0  0  0  0  0  0
  -27.1820  -28.6510   20.7630 C   0  0  0  0  0  3  0  0  0  0  0  0
  -26.0010  -26.9080   19.5590 C   0  0  0  0  0  3  0  0  0  0  0  0
  -24.8270  -27.6800   19.5680 C   0  0  0  0  0  3  0  0  0  0  0  0
  -23.5870  -29.8080   20.2320 C   0  0  0  0  0  2  0  0  0  0  0  0
  -24.6520  -31.0670   22.1540 N   0  0  0  0  0  0  0  0  0  0  0  0
  -23.5170  -32.1470   23.7970 O   0  0  0  0  0  0  0  0  0  0  0  0
  -22.7230  -29.4600   22.5740 C   0  0  0  0  0  0  0  0  0  0  0  0
  -21.3980  -29.2860   22.4500 N   0  0  0  0  0  0  0  0  0  0  0  0
  -23.4020  -28.8310   23.3870 O   0  0  0  0  0  0  0  0  0  0  0  0
  -20.9080  -29.8460   21.7690 H   0  0  0  0  0  0  0  0  0  0  0  0
  -18.0170  -28.1040   22.9480 C   0  0  0  0  0  0  0  0  0  0  0  0
  -20.5770  -28.3520   23.2200 C   0  0  0  0  0  3  0  0  0  0  0  0
  -20.6710  -26.9180   22.6450 C   0  0  0  0  0  2  0  0  0  0  0  0
  -19.5680  -26.6000   21.6300 C   0  0  0  0  0  2  0  0  0  0  0  0
  -18.1870  -26.7520   22.2740 C   0  0  0  0  0  2  0  0  0  0  0  0
  -19.1390  -28.8610   23.3770 C   0  0  0  0  0  0  0  0  0  0  0  0
  -18.9240  -30.1260   23.9680 C   0  0  0  0  0  3  0  0  0  0  0  0
  -17.6210  -30.6330   24.1330 C   0  0  0  0  0  3  0  0  0  0  0  0
  -16.5140  -29.8730   23.7190 C   0  0  0  0  0  3  0  0  0  0  0  0
  -16.7120  -28.6100   23.1320 C   0  0  0  0  0  3  0  0  0  0  0  0
  -25.8860  -32.4960   23.8730 C   0  0  0  0  0  3  0  0  0  0  0  0
  -26.4020  -31.7210   25.1460 C   0  0  1  0  0  0  0  0  0  0  0  0
  -25.3110  -31.4890   26.2180 C   0  0  0  0  0  1  0  0  0  0  0  0
  -26.9750  -30.3410   24.7490 C   0  0  0  0  0  1  0  0  0  0  0  0
  -27.5570  -32.5080   25.8080 C   0  0  0  0  0  1  0  0  0  0  0  0
  -25.5820  -33.8950   24.2050 N   0  0  0  0  0  0  0  0  0  0  0  0
  -25.9140  -34.9470   23.4470 C   0  0  0  0  0  0  0  0  0  0  0  0
  -26.5780  -34.8430   22.4120 O   0  0  0  0  0  0  0  0  0  0  0  0
  -24.9880  -34.0480   25.0060 H   0  0  0  0  0  0  0  0  0  0  0  0
  -24.1860  -36.7430   23.1100 C   0  0  0  0  0  1  0  0  0  0  0  0
  -25.4340  -36.3360   23.9090 C   0  0  0  0  0  3  0  0  0  0  0  0
  -27.5780  -37.2140   24.7200 C   0  0  0  0  0  1  0  0  0  0  0  0
  -26.4670  -37.3870   23.7870 N   0  0  0  0  0  0  0  0  0  0  0  0
  -26.0650  -38.3080   23.9420 H   0  0  0  0  0  0  0  0  0  0  0  0
  1  5  1  0
  2  1  1  0
  2 50  1  0
  3  1  2  0
  4  2  1  0
  6  5  1  0
  6  8  1  0
  7  6  1  0
  9 21  1  0
 10 15  1  0
 11 12  1  0
 11 10  1  0
 13 12  1  0
 13 25  1  0
 13 14  1  0
 15  9  1  0
 15 14  1  0
 16  9  2  0
 17 18  1  0
 17 20  1  0
 18 21  1  0
 19 20  1  0
 20  6  1  0
 21 19  1  0
 22 23  2  0
 23 42  1  0
 24 23  1  0
 24 27  1  0
 25 22  1  0
 25 26  1  0
 26 24  2  0
 27 28  1  0
 28 29  2  0
 30 33  1  0
 30 29  1  0
 31 30  2  0
 32 31  1  0
 32 27  2  0
 33 34  1  0
 34 35  1  0
 35 36  2  0
 37 36  1  0
 37 41  1  0
 38 37  2  0
 39 34  2  0
 39 38  1  0
 40 39  1  0
 42 43  1  0
 43 46  1  0
 43 45  1  0
 44 42  2  0
 47 48  1  0
 47 22  1  0
 49 47  1  0
 51 52  1  0
 51 50  1  0
 53 64  2  0
 54 52  1  0
 54 59  1  0
 55 63  1  0
 55 65  1  0
 56 62  1  0
 56 58  1  0
 57 63  1  0
 58 57  1  0
 59 58  2  0
 60 61  1  0
 60 54  2  0
 61 56  2  0
 62 55  1  0
 63 53  1  0
 65 67  2  0
 66 65  1  0
 68 66  1  0
 69 78  2  0
 69 74  1  0
 70 66  1  0
 70 74  1  0
 71 70  1  0
 72 73  1  0
 72 71  1  0
 73 69  1  0
 74 75  2  0
 75 76  1  0
 77 76  2  0
 78 77  1  0
 79 53  1  0
 79 84  1  0
 79 80  1  0
 80 83  1  1
 80 81  1  0
 82 80  1  0
 84 87  1  0
 85 89  1  0
 85 84  1  0
 86 85  2  0
 89 88  1  0
 91 89  1  0
 91 92  1  0
 91 90  1  0
M  ISO  4   9 100  21 100  51 101  52 101
M  END
>  <TORSDO>  (13) 
F 20

>  <SCORE>  (13) 
-13.888

>  <name>  (13) 
12

>  <ligand_id>  (13) 
12

>  <original_smiles>  (13) 
[H]c1c([H])c([H])c2c(c1[H])C([H])([H])C([H])([H])C([H])([H])C2([H])N([H])C(=O)C1([H])N(C(=O)C([H])(N([H])C(=O)C([H])(N([H])C([H])([H])[H])C([H])([H])[H])C(C([H])([H])[H])(C([H])([H])[H])C([H])([H])[H])C([H])([H])c2c([H])c(OC([H])([H])C([H])([H])N([H])C(=O)C([H])([H])[N+]([H])([H])C3([H])C([H])([H])N(C(=O)N4C([H])([H])C([H])([H])C([H])([H])C([H])(n5nc(-c6c([H])c([H])c(Oc7c([H])c([H])c(F)c([H])c7F)c([H])c6[H])c(C(=O)N([H])[H])c5N([H])[H])C4([H])[H])C([H])([H])C3([H])[H])c([H])c([H])c2C1([H])[H]

>  <smiles>  (13) 
[H]c1c([H])c([H])c2c(c1[H])C([H])([H])C([H])([H])C([H])([H])C2([H])N([H])C(=O)C1([H])N(C(=O)C([H])(N([H])C(=O)C([H])(N([H])C([H])([H])[H])C([H])([H])[H])C(C([H])([H])[H])(C([H])([H])[H])C([H])([H])[H])C([H])([H])c2c([H])c(OC([H])([H])C([H])([H])N([H])C(=O)C([H])([H])[N+]([H])([H])C3([H])C([H])([H])N(C(=O)N4C([H])([H])C([H])([H])C([H])([H])C([H])(n5nc(-c6c([H])c([H])c(Oc7c([H])c([H])c(F)c([H])c7F)c([H])c6[H])c(C(=O)N([H])[H])c5N([H])[H])C4([H])[H])C([H])([H])C3([H])[H])c([H])c([H])c2C1([H])[H]

$$$$
13:0:0
     RDKit          3D

 99108  0  0  1  0  0  0  0  0999 V2000
  -31.7610  -24.2420   20.0330 C   0  0  0  0  0  2  0  0  0  0  0  0
  -32.0610  -26.0590   18.3360 C   0  0  0  0  0  2  0  0  0  0  0  0
  -32.2030  -23.2060   18.9900 C   0  0  0  0  0  2  0  0  0  0  0  0
  -32.4860  -24.9970   17.2970 C   0  0  0  0  0  2  0  0  0  0  0  0
  -32.4220  -25.6040   19.7620 C   0  0  0  0  0  3  0  0  0  0  0  0
  -31.9170  -23.6550   17.6020 N   0  0  1  0  0  4  0  0  0  0  0  0
  -30.9160  -23.7530   17.5370 H   0  0  0  0  0  0  0  0  0  0  0  0
  -30.7850  -27.1720   20.9380 C   0  0  0  0  0  3  0  0  0  0  0  0
  -32.7370  -27.9100   22.8210 C   0  0  0  0  0  3  0  0  0  0  0  0
  -32.0870  -26.6320   20.8410 C   0  0  0  0  0  0  0  0  0  0  0  0
  -30.4460  -28.0560   21.9840 C   0  0  0  0  0  0  0  0  0  0  0  0
  -33.0690  -27.0270   21.7790 C   0  0  0  0  0  0  0  0  0  0  0  0
  -31.4300  -28.4100   22.9360 C   0  0  0  0  0  0  0  0  0  0  0  0
  -34.3360  -26.5540   21.6930 F   0  0  0  0  0  0  0  0  0  0  0  0
  -31.1340  -29.2600   23.9470 F   0  0  0  0  0  0  0  0  0  0  0  0
  -29.0520  -28.6680   22.0520 C   0  0  0  0  0  2  0  0  0  0  0  0
  -28.2110  -29.9950   24.0350 C   0  0  0  0  0  0  0  0  0  0  0  0
  -27.8140  -31.5970   25.8760 C   0  0  0  0  0  2  0  0  0  0  0  0
  -26.9860  -32.8070   25.3960 C   0  0  0  0  0  2  0  0  0  0  0  0
  -27.8800  -33.8840   24.7450 C   0  0  0  0  0  2  0  0  0  0  0  0
  -28.8500  -33.2900   23.6910 C   0  0  0  0  0  3  0  0  0  0  0  0
  -29.5960  -32.0810   24.2930 C   0  0  0  0  0  2  0  0  0  0  0  0
  -28.5860  -31.0920   24.7370 N   0  0  0  0  0  0  0  0  0  0  0  0
  -27.2190  -29.3020   24.2930 O   0  0  0  0  0  0  0  0  0  0  0  0
  -29.0600  -29.7200   23.0480 N   0  0  0  0  0  0  0  0  0  0  0  0
  -29.8500  -30.3450   22.9930 H   0  0  0  0  0  0  0  0  0  0  0  0
  -30.2220  -35.4740   23.7800 C   0  0  0  0  0  0  0  0  0  0  0  0
  -31.1390  -36.0080   22.9140 C   0  0  0  0  0  0  0  0  0  0  0  0
  -31.2150  -35.1030   21.8110 C   0  0  0  0  0  0  0  0  0  0  0  0
  -29.7800  -34.2980   23.1870 N   0  0  0  0  0  0  0  0  0  0  0  0
  -30.3520  -34.1100   21.9700 N   0  0  0  0  0  0  0  0  0  0  0  0
  -32.0980  -35.0940   20.6400 C   0  0  0  0  0  0  0  0  0  0  0  0
  -31.8720  -34.2250   19.5490 C   0  0  0  0  0  3  0  0  0  0  0  0
  -32.7290  -34.2470   18.4270 C   0  0  0  0  0  3  0  0  0  0  0  0
  -33.8200  -35.1460   18.3880 C   0  0  0  0  0  0  0  0  0  0  0  0
  -34.0560  -35.9910   19.4860 C   0  0  0  0  0  3  0  0  0  0  0  0
  -33.2070  -35.9630   20.6040 C   0  0  0  0  0  3  0  0  0  0  0  0
  -34.7210  -35.2210   17.3520 O   0  0  0  0  0  0  0  0  0  0  0  0
  -34.9520  -34.1550   16.5220 C   0  0  0  0  0  0  0  0  0  0  0  0
  -33.9540  -33.1950   16.2470 C   0  0  0  0  0  3  0  0  0  0  0  0
  -34.2130  -32.1540   15.3320 C   0  0  0  0  0  3  0  0  0  0  0  0
  -35.4620  -32.0780   14.6880 C   0  0  0  0  0  0  0  0  0  0  0  0
  -36.4550  -33.0350   14.9580 C   0  0  0  0  0  3  0  0  0  0  0  0
  -36.1990  -34.0730   15.8700 C   0  0  0  0  0  0  0  0  0  0  0  0
  -37.1520  -35.0080   16.1110 F   0  0  0  0  0  0  0  0  0  0  0  0
  -35.7090  -31.0820   13.8050 F   0  0  0  0  0  0  0  0  0  0  0  0
  -31.9690  -37.2400   23.1350 C   0  0  0  0  0  0  0  0  0  0  0  0
  -32.3980  -37.8950   22.0610 N   0  0  0  0  0  0  0  0  0  0  0  0
  -32.2060  -37.6560   24.2680 O   0  0  0  0  0  0  0  0  0  0  0  0
  -32.1970  -37.5620   21.1300 H   0  0  0  0  0  0  0  0  0  0  0  0
  -32.9470  -38.7350   22.1740 H   0  0  0  0  0  0  0  0  0  0  0  0
  -29.7430  -35.8790   25.0220 N   0  0  0  0  0  0  0  0  0  0  0  0
  -30.0840  -36.7160   25.4820 H   0  0  0  0  0  0  0  0  0  0  0  0
  -29.0690  -35.3670   25.5780 H   0  0  0  0  0  0  0  0  0  0  0  0
  -32.2700  -22.6130   16.6020 C   0  0  0  0  0  2  0  0  0  0  0  0
  -32.9880  -23.2050   15.3800 C   0  0  0  0  0  2  0  0  0  0  0  0
  -34.4970  -22.8830   15.3090 C   0  0  0  0  0  2  0  0  0  0  0  0
  -35.3230  -23.2710   16.5550 C   0  0  0  0  0  2  0  0  0  0  0  0
  -36.4450  -22.4170   16.7880 O   0  0  0  0  0  0  0  0  0  0  0  0
  -41.2150  -21.9180   21.9940 C   0  0  0  0  0  0  0  0  0  0  0  0
  -36.6860  -21.9280   18.0530 C   0  0  0  0  0  0  0  0  0  0  0  0
  -39.2050  -20.4990   22.2560 C   0  0  0  0  0  3  0  0  0  0  0  0
  -37.2910  -20.9920   20.6480 C   0  0  0  0  0  0  0  0  0  0  0  0
  -39.0980  -22.6940   20.9420 C   0  0  0  0  0  2  0  0  0  0  0  0
  -38.0040  -22.0670   20.1080 C   0  0  0  0  0  0  0  0  0  0  0  0
  -37.7020  -22.5420   18.8140 C   0  0  0  0  0  3  0  0  0  0  0  0
  -35.9610  -20.8550   18.6210 C   0  0  0  0  0  3  0  0  0  0  0  0
  -36.2680  -20.3770   19.9080 C   0  0  0  0  0  3  0  0  0  0  0  0
  -37.6690  -20.5480   22.0420 C   0  0  0  0  0  2  0  0  0  0  0  0
  -39.8980  -21.7140   21.7150 N   0  0  0  0  0  0  0  0  0  0  0  0
  -41.8430  -21.1410   22.7280 O   0  0  0  0  0  0  0  0  0  0  0  0
  -39.7440  -19.1760   21.6680 C   0  0  0  0  0  0  0  0  0  0  0  0
  -39.3600  -18.0490   22.2870 N   0  0  0  0  0  0  0  0  0  0  0  0
  -40.4620  -19.1750   20.6650 O   0  0  0  0  0  0  0  0  0  0  0  0
  -38.7750  -18.1340   23.1060 H   0  0  0  0  0  0  0  0  0  0  0  0
  -40.5330  -14.8700   23.5390 C   0  0  0  0  0  0  0  0  0  0  0  0
  -39.7150  -16.6870   21.8930 C   0  0  0  0  0  3  0  0  0  0  0  0
  -38.4510  -15.8140   21.7140 C   0  0  0  0  0  2  0  0  0  0  0  0
  -38.0690  -15.0410   22.9810 C   0  0  0  0  0  2  0  0  0  0  0  0
  -39.2150  -14.1220   23.4170 C   0  0  0  0  0  2  0  0  0  0  0  0
  -40.7600  -16.0830   22.8370 C   0  0  0  0  0  0  0  0  0  0  0  0
  -41.9870  -16.7580   23.0130 C   0  0  0  0  0  3  0  0  0  0  0  0
  -42.9770  -16.2410   23.8700 C   0  0  0  0  0  3  0  0  0  0  0  0
  -42.7540  -15.0320   24.5510 C   0  0  0  0  0  3  0  0  0  0  0  0
  -41.5370  -14.3460   24.3810 C   0  0  0  0  0  3  0  0  0  0  0  0
  -41.9890  -23.1520   21.4310 C   0  0  0  0  0  3  0  0  0  0  0  0
  -43.1700  -23.3580   22.2800 N   0  0  0  0  0  0  0  0  0  0  0  0
  -43.1260  -23.7460   23.5610 C   0  0  0  0  0  0  0  0  0  0  0  0
  -42.0750  -24.0430   24.1360 O   0  0  0  0  0  0  0  0  0  0  0  0
  -44.0600  -23.0850   21.8910 H   0  0  0  0  0  0  0  0  0  0  0  0
  -45.0970  -22.4190   24.3830 C   0  0  0  0  0  1  0  0  0  0  0  0
  -44.4610  -23.8170   24.3260 C   0  0  0  0  0  3  0  0  0  0  0  0
  -44.0490  -25.7910   25.7250 C   0  0  0  0  0  1  0  0  0  0  0  0
  -44.3290  -24.3580   25.6950 N   0  0  0  0  0  0  0  0  0  0  0  0
  -45.1750  -24.1900   26.2320 H   0  0  0  0  0  0  0  0  0  0  0  0
  -42.4070  -22.9880   19.9170 C   0  0  1  0  0  0  0  0  0  0  0  0
  -43.1010  -21.6440   19.6060 C   0  0  0  0  0  1  0  0  0  0  0  0
  -41.1720  -23.1070   18.9900 C   0  0  0  0  0  1  0  0  0  0  0  0
  -43.3760  -24.1250   19.5140 C   0  0  0  0  0  1  0  0  0  0  0  0
  2  5  1  0
  3  1  1  0
  4  6  1  0
  4  2  1  0
  5  1  1  0
  5 10  1  0
  6  3  1  0
  6  7  1  1
  8 11  1  0
  9 13  1  0
 10  8  2  0
 10 12  1  0
 11 16  1  0
 11 13  2  0
 12  9  2  0
 13 15  1  0
 14 12  1  0
 16 25  1  0
 17 24  2  0
 17 23  1  0
 19 18  1  0
 20 19  1  0
 21 30  1  0
 21 22  1  0
 21 20  1  0
 22 23  1  0
 23 18  1  0
 25 17  1  0
 26 25  1  0
 27 52  1  0
 28 47  1  0
 28 27  2  0
 29 31  2  0
 29 28  1  0
 30 27  1  0
 31 30  1  0
 32 29  1  0
 33 32  2  0
 34 33  1  0
 35 34  2  0
 35 36  1  0
 36 37  2  0
 37 32  1  0
 38 35  1  0
 39 38  1  0
 40 39  1  0
 41 40  2  0
 42 43  2  0
 42 41  1  0
 43 44  1  0
 44 45  1  0
 44 39  2  0
 46 42  1  0
 47 49  2  0
 48 51  1  0
 48 47  1  0
 50 48  1  0
 52 53  1  0
 52 54  1  0
 55  6  1  0
 56 55  1  0
 57 56  1  0
 57 58  1  0
 58 59  1  0
 59 61  1  0
 60 71  2  0
 61 67  2  0
 61 66  1  0
 62 72  1  0
 63 69  1  0
 64 70  1  0
 65 63  1  0
 65 64  1  0
 66 65  2  0
 67 68  1  0
 68 63  2  0
 69 62  1  0
 70 60  1  0
 70 62  1  0
 72 73  1  0
 73 75  1  0
 74 72  2  0
 76 85  1  0
 77 73  1  0
 77 81  1  0
 78 77  1  0
 78 79  1  0
 79 80  1  0
 80 76  1  0
 81 82  1  0
 81 76  2  0
 82 83  2  0
 83 84  1  0
 85 84  2  0
 86 60  1  0
 86 87  1  0
 87 88  1  0
 88 89  2  0
 88 92  1  0
 90 87  1  0
 92 91  1  0
 92 94  1  0
 94 93  1  0
 94 95  1  0
 96 86  1  0
 96 97  1  1
 98 96  1  0
 99 96  1  0
M  ISO  4  17 100  25 100  58 101  59 101
M  END
>  <TORSDO>  (14) 
F 22

>  <SCORE>  (14) 
-1.364

>  <name>  (14) 
13

>  <ligand_id>  (14) 
13

>  <original_smiles>  (14) 
[H]c1c([H])c([H])c2c(c1[H])C([H])([H])C([H])([H])C([H])([H])C2([H])N([H])C(=O)C1([H])N(C(=O)C([H])(N([H])C(=O)C([H])(N([H])C([H])([H])[H])C([H])([H])[H])C(C([H])([H])[H])(C([H])([H])[H])C([H])([H])[H])C([H])([H])c2c([H])c(OC([H])([H])C([H])([H])C([H])([H])C([H])([H])[N+]3([H])C([H])([H])C([H])([H])C([H])(c4c([H])c(C([H])([H])N([H])C(=O)N5C([H])([H])C([H])([H])C([H])([H])C([H])(n6nc(-c7c([H])c([H])c(Oc8c([H])c([H])c(F)c([H])c8F)c([H])c7[H])c(C(=O)N([H])[H])c6N([H])[H])C5([H])[H])c(F)c([H])c4F)C([H])([H])C3([H])[H])c([H])c([H])c2C1([H])[H]

>  <smiles>  (14) 
[H]c1c([H])c([H])c2c(c1[H])C([H])([H])C([H])([H])C([H])([H])C2([H])N([H])C(=O)C1([H])N(C(=O)C([H])(N([H])C(=O)C([H])(N([H])C([H])([H])[H])C([H])([H])[H])C(C([H])([H])[H])(C([H])([H])[H])C([H])([H])[H])C([H])([H])c2c([H])c(OC([H])([H])C([H])([H])C([H])([H])C([H])([H])[N+]3([H])C([H])([H])C([H])([H])C([H])(c4c([H])c(C([H])([H])N([H])C(=O)N5C([H])([H])C([H])([H])C([H])([H])C([H])(n6nc(-c7c([H])c([H])c(Oc8c([H])c([H])c(F)c([H])c8F)c([H])c7[H])c(C(=O)N([H])[H])c6N([H])[H])C5([H])[H])c(F)c([H])c4F)C([H])([H])C3([H])[H])c([H])c([H])c2C1([H])[H]

$$$$
14:0:0
     RDKit          3D

 96104  0  0  1  0  0  0  0  0999 V2000
  -29.9630  -22.0960   24.1920 C   0  0  0  0  0  2  0  0  0  0  0  0
  -28.5170  -21.3590   22.2610 C   0  0  0  0  0  2  0  0  0  0  0  0
  -30.4500  -23.2790   23.3290 C   0  0  0  0  0  2  0  0  0  0  0  0
  -29.0640  -22.5460   21.4360 C   0  0  0  0  0  2  0  0  0  0  0  0
  -29.4710  -20.8790   23.3780 C   0  0  0  0  0  3  0  0  0  0  0  0
  -29.4660  -23.6970   22.2940 N   0  0  2  0  0  4  0  0  0  0  0  0
  -28.6370  -24.0160   22.7780 H   0  0  0  0  0  0  0  0  0  0  0  0
  -30.5820  -20.0140   22.8910 N   0  0  0  0  0  4  0  0  0  0  0  0
  -31.3130  -20.0400   23.5850 H   0  0  0  0  0  0  0  0  0  0  0  0
  -30.9730  -20.3730   22.0340 H   0  0  0  0  0  0  0  0  0  0  0  0
  -30.2410  -18.5790   22.7120 C   0  0  0  0  0  2  0  0  0  0  0  0
  -31.2860  -17.8540   21.8380 C   0  0  0  0  0  2  0  0  0  0  0  0
  -31.4050  -16.3300   22.0770 C   0  0  0  0  0  2  0  0  0  0  0  0
  -30.2560  -15.4650   21.5250 C   0  0  0  0  0  2  0  0  0  0  0  0
  -30.6870  -14.4030   19.3040 C   0  0  0  0  0  0  0  0  0  0  0  0
  -30.2860  -12.1310   18.4400 C   0  0  0  0  0  2  0  0  0  0  0  0
  -29.1980  -12.1150   17.3480 C   0  0  0  0  0  2  0  0  0  0  0  0
  -27.7930  -12.0010   17.9720 C   0  0  0  0  0  2  0  0  0  0  0  0
  -27.5680  -13.0220   19.1180 C   0  0  0  0  0  3  0  0  0  0  0  0
  -28.7460  -12.9860   20.1130 C   0  0  0  0  0  2  0  0  0  0  0  0
  -30.0000  -13.2330   19.3750 N   0  0  0  0  0  0  0  0  0  0  0  0
  -31.5890  -14.6090   18.4900 O   0  0  0  0  0  0  0  0  0  0  0  0
  -30.2640  -15.4230   20.0620 N   0  0  0  0  0  0  0  0  0  0  0  0
  -30.5660  -16.2990   19.6640 H   0  0  0  0  0  0  0  0  0  0  0  0
  -25.3310  -13.7130   20.1960 C   0  0  0  0  0  0  0  0  0  0  0  0
  -24.3040  -12.9760   20.7210 C   0  0  0  0  0  0  0  0  0  0  0  0
  -24.7020  -11.6100   20.6060 C   0  0  0  0  0  0  0  0  0  0  0  0
  -26.2930  -12.7970   19.7960 N   0  0  0  0  0  0  0  0  0  0  0  0
  -25.9240  -11.5250   20.0970 N   0  0  0  0  0  0  0  0  0  0  0  0
  -23.9680  -10.3720   20.8990 C   0  0  0  0  0  0  0  0  0  0  0  0
  -24.4710   -9.4090   21.8010 C   0  0  0  0  0  3  0  0  0  0  0  0
  -23.7380   -8.2360   22.0790 C   0  0  0  0  0  3  0  0  0  0  0  0
  -22.4890   -8.0160   21.4540 C   0  0  0  0  0  0  0  0  0  0  0  0
  -22.0020   -8.9660   20.5390 C   0  0  0  0  0  3  0  0  0  0  0  0
  -22.7360  -10.1310   20.2600 C   0  0  0  0  0  3  0  0  0  0  0  0
  -21.7180   -6.8920   21.6430 O   0  0  0  0  0  0  0  0  0  0  0  0
  -21.7030   -6.2240   22.8400 C   0  0  0  0  0  0  0  0  0  0  0  0
  -21.3660   -6.8690   24.0510 C   0  0  0  0  0  3  0  0  0  0  0  0
  -21.2940   -6.1280   25.2470 C   0  0  0  0  0  3  0  0  0  0  0  0
  -21.5490   -4.7440   25.2360 C   0  0  0  0  0  0  0  0  0  0  0  0
  -21.8790   -4.0980   24.0310 C   0  0  0  0  0  3  0  0  0  0  0  0
  -21.9530   -4.8370   22.8360 C   0  0  0  0  0  0  0  0  0  0  0  0
  -22.2510   -4.2050   21.6750 F   0  0  0  0  0  0  0  0  0  0  0  0
  -21.4710   -4.0300   26.3830 F   0  0  0  0  0  0  0  0  0  0  0  0
  -22.9880  -13.5020   21.2150 C   0  0  0  0  0  0  0  0  0  0  0  0
  -22.3980  -12.8450   22.2070 N   0  0  0  0  0  0  0  0  0  0  0  0
  -22.4940  -14.5290   20.7510 O   0  0  0  0  0  0  0  0  0  0  0  0
  -22.8150  -12.0160   22.6060 H   0  0  0  0  0  0  0  0  0  0  0  0
  -21.5170  -13.1750   22.5740 H   0  0  0  0  0  0  0  0  0  0  0  0
  -25.5180  -15.0810   20.0070 N   0  0  0  0  0  0  0  0  0  0  0  0
  -24.8020  -15.7570   20.2490 H   0  0  0  0  0  0  0  0  0  0  0  0
  -26.3290  -15.4990   19.5660 H   0  0  0  0  0  0  0  0  0  0  0  0
  -29.9840  -24.8800   21.5430 C   0  0  0  0  0  2  0  0  0  0  0  0
  -29.2070  -25.2700   20.2660 C   0  0  0  0  0  2  0  0  0  0  0  0
  -29.7980  -26.5380   19.6170 C   0  0  0  0  0  2  0  0  0  0  0  0
  -29.5130  -27.7040   20.3930 O   0  0  0  0  0  0  0  0  0  0  0  0
  -24.9220  -32.0110   23.6860 C   0  0  0  0  0  0  0  0  0  0  0  0
  -28.2450  -28.2470   20.3710 C   0  0  0  0  0  0  0  0  0  0  0  0
  -23.9950  -30.7010   21.8060 C   0  0  0  0  0  3  0  0  0  0  0  0
  -25.7000  -29.4860   20.3550 C   0  0  0  0  0  0  0  0  0  0  0  0
  -26.4760  -31.3200   21.8650 C   0  0  0  0  0  2  0  0  0  0  0  0
  -26.7490  -30.0490   21.0910 C   0  0  0  0  0  0  0  0  0  0  0  0
  -28.0190  -29.4350   21.1000 C   0  0  0  0  0  3  0  0  0  0  0  0
  -27.1650  -27.6820   19.6460 C   0  0  0  0  0  3  0  0  0  0  0  0
  -25.9010  -28.2990   19.6330 C   0  0  0  0  0  3  0  0  0  0  0  0
  -24.3740  -30.2100   20.3850 C   0  0  0  0  0  2  0  0  0  0  0  0
  -25.1440  -31.3550   22.5130 N   0  0  0  0  0  0  0  0  0  0  0  0
  -23.7810  -32.1110   24.1590 O   0  0  0  0  0  0  0  0  0  0  0  0
  -23.3870  -29.5150   22.5890 C   0  0  0  0  0  0  0  0  0  0  0  0
  -22.0980  -29.2330   22.3400 N   0  0  0  0  0  0  0  0  0  0  0  0
  -24.0750  -28.8580   23.3740 O   0  0  0  0  0  0  0  0  0  0  0  0
  -21.6010  -29.8240   21.6870 H   0  0  0  0  0  0  0  0  0  0  0  0
  -18.8250  -27.7110   22.4470 C   0  0  0  0  0  0  0  0  0  0  0  0
  -21.3270  -28.1410   22.9310 C   0  0  0  0  0  3  0  0  0  0  0  0
  -21.5970  -26.8090   22.1950 C   0  0  0  0  0  2  0  0  0  0  0  0
  -20.5930  -26.5250   21.0740 C   0  0  0  0  0  2  0  0  0  0  0  0
  -19.1660  -26.4760   21.6280 C   0  0  0  0  0  2  0  0  0  0  0  0
  -19.8410  -28.5010   23.0450 C   0  0  0  0  0  0  0  0  0  0  0  0
  -19.4750  -29.6610   23.7620 C   0  0  0  0  0  3  0  0  0  0  0  0
  -18.1230  -30.0290   23.8920 C   0  0  0  0  0  3  0  0  0  0  0  0
  -17.1190  -29.2320   23.3120 C   0  0  0  0  0  3  0  0  0  0  0  0
  -17.4710  -28.0750   22.5950 C   0  0  0  0  0  3  0  0  0  0  0  0
  -26.0860  -32.6850   24.4800 C   0  0  0  0  0  3  0  0  0  0  0  0
  -25.6760  -34.0630   24.7770 N   0  0  0  0  0  0  0  0  0  0  0  0
  -26.0580  -35.1380   24.0760 C   0  0  0  0  0  0  0  0  0  0  0  0
  -26.8600  -35.0790   23.1400 O   0  0  0  0  0  0  0  0  0  0  0  0
  -24.9770  -34.1820   25.4960 H   0  0  0  0  0  0  0  0  0  0  0  0
  -24.3080  -36.8550   23.5130 C   0  0  0  0  0  1  0  0  0  0  0  0
  -25.4500  -36.4970   24.4760 C   0  0  0  0  0  3  0  0  0  0  0  0
  -27.4190  -37.4630   25.5810 C   0  0  0  0  0  1  0  0  0  0  0  0
  -26.4390  -37.5970   24.5060 N   0  0  0  0  0  0  0  0  0  0  0  0
  -25.9740  -38.4930   24.6110 H   0  0  0  0  0  0  0  0  0  0  0  0
  -26.4620  -31.9150   25.8050 C   0  0  1  0  0  0  0  0  0  0  0  0
  -25.2440  -31.5800   26.6960 C   0  0  0  0  0  1  0  0  0  0  0  0
  -27.1880  -30.5900   25.4770 C   0  0  0  0  0  1  0  0  0  0  0  0
  -27.4460  -32.7640   26.6430 C   0  0  0  0  0  1  0  0  0  0  0  0
  2  5  1  0
  3  1  1  0
  4  2  1  0
  4  6  1  0
  5  8  1  0
  5  1  1  0
  6  7  1  1
  6  3  1  0
  8  9  1  0
 10  8  1  0
 11  8  1  0
 12 13  1  0
 12 11  1  0
 14 13  1  0
 15 21  1  0
 15 23  1  0
 16 21  1  0
 17 18  1  0
 17 16  1  0
 19 18  1  0
 19 28  1  0
 19 20  1  0
 21 20  1  0
 22 15  2  0
 23 14  1  0
 24 23  1  0
 25 26  2  0
 26 45  1  0
 27 26  1  0
 27 30  1  0
 28 29  1  0
 28 25  1  0
 29 27  2  0
 30 31  1  0
 31 32  2  0
 33 36  1  0
 33 32  1  0
 34 33  2  0
 35 34  1  0
 35 30  2  0
 36 37  1  0
 37 38  1  0
 38 39  2  0
 40 39  1  0
 40 44  1  0
 41 40  2  0
 42 37  2  0
 42 41  1  0
 43 42  1  0
 45 46  1  0
 46 49  1  0
 46 48  1  0
 47 45  2  0
 50 25  1  0
 50 51  1  0
 52 50  1  0
 53  6  1  0
 54 53  1  0
 55 54  1  0
 55 56  1  0
 57 68  2  0
 58 56  1  0
 58 63  1  0
 59 67  1  0
 59 69  1  0
 60 66  1  0
 60 62  1  0
 61 67  1  0
 62 63  2  0
 62 61  1  0
 64 58  2  0
 65 64  1  0
 65 60  2  0
 66 59  1  0
 67 57  1  0
 69 71  2  0
 70 69  1  0
 72 70  1  0
 73 82  2  0
 73 78  1  0
 74 70  1  0
 74 78  1  0
 75 74  1  0
 76 77  1  0
 76 75  1  0
 77 73  1  0
 78 79  2  0
 79 80  1  0
 81 80  2  0
 82 81  1  0
 83 57  1  0
 83 84  1  0
 83 93  1  0
 84 87  1  0
 85 89  1  0
 85 84  1  0
 86 85  2  0
 89 88  1  0
 89 91  1  0
 91 92  1  0
 91 90  1  0
 93 96  1  1
 93 94  1  0
 95 93  1  0
M  ISO  4  15 100  23 100  55 101  56 101
M  END
>  <TORSDO>  (15) 
F 24

>  <SCORE>  (15) 
-7.800

>  <name>  (15) 
14

>  <ligand_id>  (15) 
14

>  <original_smiles>  (15) 
[H]c1c([H])c([H])c2c(c1[H])C([H])([H])C([H])([H])C([H])([H])C2([H])N([H])C(=O)C1([H])N(C(=O)C([H])(N([H])C(=O)C([H])(N([H])C([H])([H])[H])C([H])([H])[H])C(C([H])([H])[H])(C([H])([H])[H])C([H])([H])[H])C([H])([H])c2c([H])c(OC([H])([H])C([H])([H])C([H])([H])[N+]3([H])C([H])([H])C([H])([H])C([H])([N+]([H])([H])C([H])([H])C([H])([H])C([H])([H])C([H])([H])N([H])C(=O)N4C([H])([H])C([H])([H])C([H])([H])C([H])(n5nc(-c6c([H])c([H])c(Oc7c([H])c([H])c(F)c([H])c7F)c([H])c6[H])c(C(=O)N([H])[H])c5N([H])[H])C4([H])[H])C([H])([H])C3([H])[H])c([H])c([H])c2C1([H])[H]

>  <smiles>  (15) 
[H]c1c([H])c([H])c2c(c1[H])C([H])([H])C([H])([H])C([H])([H])C2([H])N([H])C(=O)C1([H])N(C(=O)C([H])(N([H])C(=O)C([H])(N([H])C([H])([H])[H])C([H])([H])[H])C(C([H])([H])[H])(C([H])([H])[H])C([H])([H])[H])C([H])([H])c2c([H])c(OC([H])([H])C([H])([H])C([H])([H])[N+]3([H])C([H])([H])C([H])([H])C([H])([N+]([H])([H])C([H])([H])C([H])([H])C([H])([H])C([H])([H])N([H])C(=O)N4C([H])([H])C([H])([H])C([H])([H])C([H])(n5nc(-c6c([H])c([H])c(Oc7c([H])c([H])c(F)c([H])c7F)c([H])c6[H])c(C(=O)N([H])[H])c5N([H])[H])C4([H])[H])C([H])([H])C3([H])[H])c([H])c([H])c2C1([H])[H]

$$$$
15:0:0
     RDKit          3D

 98106  0  0  1  0  0  0  0  0999 V2000
  -30.5480  -21.3830   23.3330 C   0  0  0  0  0  0  0  0  0  0  0  0
  -29.9190  -20.2740   22.9250 N   0  0  0  0  0  0  0  0  0  0  0  0
  -30.2510  -21.9040   24.4070 O   0  0  0  0  0  0  0  0  0  0  0  0
  -29.2310  -19.9060   23.5680 H   0  0  0  0  0  0  0  0  0  0  0  0
  -30.8650  -18.2590   21.7380 C   0  0  0  0  0  2  0  0  0  0  0  0
  -28.6980  -19.0600   21.1420 C   0  0  0  0  0  2  0  0  0  0  0  0
  -30.0510  -19.5550   21.6550 C   0  0  0  0  0  3  0  0  0  0  0  0
  -30.3110  -17.3890   20.5870 C   0  0  0  0  0  3  0  0  0  0  0  0
  -29.0390  -18.0190   20.1640 N   0  0  0  0  0  4  0  0  0  0  0  0
  -29.1890  -18.4580   19.2690 H   0  0  0  0  0  0  0  0  0  0  0  0
  -28.2880  -17.3540   20.0610 H   0  0  0  0  0  0  0  0  0  0  0  0
  -30.0970  -15.9120   20.9690 C   0  0  0  0  0  2  0  0  0  0  0  0
  -31.6010  -14.1800   19.9320 C   0  0  0  0  0  0  0  0  0  0  0  0
  -31.1140  -11.9740   18.9300 C   0  0  0  0  0  2  0  0  0  0  0  0
  -30.1250  -12.0890   17.7520 C   0  0  0  0  0  2  0  0  0  0  0  0
  -28.6650  -12.0900   18.2440 C   0  0  0  0  0  2  0  0  0  0  0  0
  -28.4410  -13.0850   19.4100 C   0  0  0  0  0  3  0  0  0  0  0  0
  -29.5110  -12.8560   20.5050 C   0  0  0  0  0  2  0  0  0  0  0  0
  -30.8310  -13.0570   19.8850 N   0  0  0  0  0  0  0  0  0  0  0  0
  -32.6310  -14.3080   19.2660 O   0  0  0  0  0  0  0  0  0  0  0  0
  -31.3170  -15.0950   20.8750 N   0  0  0  0  0  0  0  0  0  0  0  0
  -32.1420  -15.6180   21.1310 H   0  0  0  0  0  0  0  0  0  0  0  0
  -26.1860  -14.0050   20.2510 C   0  0  0  0  0  0  0  0  0  0  0  0
  -25.0440  -13.3720   20.6630 C   0  0  0  0  0  0  0  0  0  0  0  0
  -25.3150  -11.9720   20.5750 C   0  0  0  0  0  0  0  0  0  0  0  0
  -27.0870  -12.9940   19.9460 N   0  0  0  0  0  0  0  0  0  0  0  0
  -26.5680  -11.7670   20.1940 N   0  0  0  0  0  0  0  0  0  0  0  0
  -24.4390  -10.8100   20.7720 C   0  0  0  0  0  0  0  0  0  0  0  0
  -24.7920   -9.7640   21.6510 C   0  0  0  0  0  3  0  0  0  0  0  0
  -23.9270   -8.6640   21.8390 C   0  0  0  0  0  3  0  0  0  0  0  0
  -22.6950   -8.6060   21.1450 C   0  0  0  0  0  0  0  0  0  0  0  0
  -22.3600   -9.6380   20.2520 C   0  0  0  0  0  3  0  0  0  0  0  0
  -23.2250  -10.7290   20.0630 C   0  0  0  0  0  3  0  0  0  0  0  0
  -21.8040   -7.5640   21.2450 O   0  0  0  0  0  0  0  0  0  0  0  0
  -21.7090   -6.8060   22.3850 C   0  0  0  0  0  0  0  0  0  0  0  0
  -21.4350   -7.3840   23.6440 C   0  0  0  0  0  3  0  0  0  0  0  0
  -21.2770   -6.5600   24.7770 C   0  0  0  0  0  3  0  0  0  0  0  0
  -21.3810   -5.1620   24.6530 C   0  0  0  0  0  0  0  0  0  0  0  0
  -21.6490   -4.5860   23.3970 C   0  0  0  0  0  3  0  0  0  0  0  0
  -21.8090   -5.4050   22.2670 C   0  0  0  0  0  0  0  0  0  0  0  0
  -22.0460   -4.8430   21.0580 F   0  0  0  0  0  0  0  0  0  0  0  0
  -21.2220   -4.3700   25.7380 F   0  0  0  0  0  0  0  0  0  0  0  0
  -23.7360  -14.0190   21.0190 C   0  0  0  0  0  0  0  0  0  0  0  0
  -22.9740  -13.4070   21.9180 N   0  0  0  0  0  0  0  0  0  0  0  0
  -23.4070  -15.1010   20.5340 O   0  0  0  0  0  0  0  0  0  0  0  0
  -23.2550  -12.5290   22.3300 H   0  0  0  0  0  0  0  0  0  0  0  0
  -22.0970  -13.8230   22.2000 H   0  0  0  0  0  0  0  0  0  0  0  0
  -26.5290  -15.3460   20.0820 N   0  0  0  0  0  0  0  0  0  0  0  0
  -25.7490  -15.9960   20.0850 H   0  0  0  0  0  0  0  0  0  0  0  0
  -27.1790  -15.5480   19.3340 H   0  0  0  0  0  0  0  0  0  0  0  0
  -31.6350  -22.0410   22.4790 C   0  0  0  0  0  2  0  0  0  0  0  0
  -31.3090  -23.4640   22.2560 N   0  0  0  0  0  4  0  0  0  0  0  0
  -31.0310  -23.8360   23.1520 H   0  0  0  0  0  0  0  0  0  0  0  0
  -32.1470  -23.9420   21.9690 H   0  0  0  0  0  0  0  0  0  0  0  0
  -30.2380  -23.7090   21.2600 C   0  0  0  0  0  2  0  0  0  0  0  0
  -30.0050  -25.2090   21.0210 C   0  0  0  0  0  2  0  0  0  0  0  0
  -28.7600  -25.5150   20.1750 C   0  0  0  0  0  2  0  0  0  0  0  0
  -28.7010  -26.9310   20.0590 O   0  0  0  0  0  0  0  0  0  0  0  0
  -24.5010  -31.7280   23.1370 C   0  0  0  0  0  0  0  0  0  0  0  0
  -27.4610  -27.5230   20.0470 C   0  0  0  0  0  0  0  0  0  0  0  0
  -23.4080  -30.2910   21.4430 C   0  0  0  0  0  3  0  0  0  0  0  0
  -24.9750  -28.8570   20.0320 C   0  0  0  0  0  0  0  0  0  0  0  0
  -25.9090  -30.8020   21.3040 C   0  0  0  0  0  2  0  0  0  0  0  0
  -26.0840  -29.4490   20.6470 C   0  0  0  0  0  0  0  0  0  0  0  0
  -27.3300  -28.7900   20.6480 C   0  0  0  0  0  3  0  0  0  0  0  0
  -26.3350  -26.9290   19.4320 C   0  0  0  0  0  3  0  0  0  0  0  0
  -25.0940  -27.5940   19.4230 C   0  0  0  0  0  3  0  0  0  0  0  0
  -23.6840  -29.6420   20.0580 C   0  0  0  0  0  2  0  0  0  0  0  0
  -24.6220  -30.9550   22.0210 N   0  0  0  0  0  0  0  0  0  0  0  0
  -23.3960  -31.9300   23.6570 O   0  0  0  0  0  0  0  0  0  0  0  0
  -22.7950  -29.2200   22.3720 C   0  0  0  0  0  0  0  0  0  0  0  0
  -21.4800  -28.9880   22.2280 N   0  0  0  0  0  0  0  0  0  0  0  0
  -23.4970  -28.6010   23.1750 O   0  0  0  0  0  0  0  0  0  0  0  0
  -20.9740  -29.5410   21.5500 H   0  0  0  0  0  0  0  0  0  0  0  0
  -18.1470  -27.6690   22.6730 C   0  0  0  0  0  0  0  0  0  0  0  0
  -20.6940  -28.0000   22.9650 C   0  0  0  0  0  3  0  0  0  0  0  0
  -20.8450  -26.5930   22.3410 C   0  0  0  0  0  2  0  0  0  0  0  0
  -19.7570  -26.2680   21.3140 C   0  0  0  0  0  2  0  0  0  0  0  0
  -18.3700  -26.3490   21.9560 C   0  0  0  0  0  2  0  0  0  0  0  0
  -19.2390  -28.4520   23.1320 C   0  0  0  0  0  0  0  0  0  0  0  0
  -18.9790  -29.6890   23.7600 C   0  0  0  0  0  3  0  0  0  0  0  0
  -17.6580  -30.1440   23.9350 C   0  0  0  0  0  3  0  0  0  0  0  0
  -16.5800  -29.3580   23.4940 C   0  0  0  0  0  3  0  0  0  0  0  0
  -16.8260  -28.1230   22.8680 C   0  0  0  0  0  3  0  0  0  0  0  0
  -25.7400  -32.4120   23.7970 C   0  0  0  0  0  3  0  0  0  0  0  0
  -25.3540  -33.7870   24.1380 N   0  0  0  0  0  0  0  0  0  0  0  0
  -25.6580  -34.8660   23.4050 C   0  0  0  0  0  0  0  0  0  0  0  0
  -26.3660  -34.8120   22.3950 O   0  0  0  0  0  0  0  0  0  0  0  0
  -24.7280  -33.9000   24.9220 H   0  0  0  0  0  0  0  0  0  0  0  0
  -23.8550  -36.5740   23.0160 C   0  0  0  0  0  1  0  0  0  0  0  0
  -25.0880  -36.2200   23.8650 C   0  0  0  0  0  3  0  0  0  0  0  0
  -27.1490  -37.1920   24.7780 C   0  0  0  0  0  1  0  0  0  0  0  0
  -26.0690  -37.3250   23.8030 N   0  0  0  0  0  0  0  0  0  0  0  0
  -25.6130  -38.2210   23.9550 H   0  0  0  0  0  0  0  0  0  0  0  0
  -26.2690  -31.6470   25.0700 C   0  0  1  0  0  0  0  0  0  0  0  0
  -25.1670  -31.3330   26.1100 C   0  0  0  0  0  1  0  0  0  0  0  0
  -26.9320  -30.3100   24.6660 C   0  0  0  0  0  1  0  0  0  0  0  0
  -27.3610  -32.4890   25.7720 C   0  0  0  0  0  1  0  0  0  0  0  0
  1  3  2  0
  2  1  1  0
  2  4  1  0
  6  7  1  0
  7  5  1  0
  7  2  1  0
  8 12  1  0
  8  5  1  0
  9  8  1  0
  9  6  1  0
 10  9  1  0
 11  9  1  0
 13 21  1  0
 14 19  1  0
 15 16  1  0
 15 14  1  0
 17 16  1  0
 17 26  1  0
 17 18  1  0
 19 13  1  0
 19 18  1  0
 20 13  2  0
 21 12  1  0
 21 22  1  0
 23 24  2  0
 24 43  1  0
 25 24  1  0
 25 28  1  0
 26 27  1  0
 26 23  1  0
 27 25  2  0
 28 29  1  0
 29 30  2  0
 31 34  1  0
 31 30  1  0
 32 31  2  0
 33 32  1  0
 33 28  2  0
 34 35  1  0
 35 36  1  0
 36 37  2  0
 38 37  1  0
 38 42  1  0
 39 38  2  0
 40 35  2  0
 40 39  1  0
 41 40  1  0
 43 44  1  0
 44 47  1  0
 44 46  1  0
 45 43  2  0
 48 49  1  0
 48 23  1  0
 50 48  1  0
 51  1  1  0
 52 51  1  0
 52 53  1  0
 54 52  1  0
 55 52  1  0
 56 55  1  0
 57 56  1  0
 58 57  1  0
 59 70  2  0
 60 58  1  0
 60 65  1  0
 61 69  1  0
 61 71  1  0
 62 68  1  0
 62 64  1  0
 63 69  1  0
 64 65  2  0
 64 63  1  0
 66 60  2  0
 67 66  1  0
 67 62  2  0
 68 61  1  0
 69 59  1  0
 71 73  2  0
 72 71  1  0
 74 72  1  0
 75 84  2  0
 75 80  1  0
 76 72  1  0
 76 80  1  0
 77 76  1  0
 78 79  1  0
 78 77  1  0
 79 75  1  0
 80 81  2  0
 81 82  1  0
 83 82  2  0
 84 83  1  0
 85 59  1  0
 85 86  1  0
 85 95  1  0
 86 89  1  0
 87 91  1  0
 87 86  1  0
 88 87  2  0
 91 90  1  0
 93 91  1  0
 93 94  1  0
 93 92  1  0
 95 98  1  1
 95 96  1  0
 97 95  1  0
M  ISO  4  13 100  21 100  57 101  58 101
M  END
>  <TORSDO>  (16) 
F 23

>  <SCORE>  (16) 
-11.023

>  <name>  (16) 
15

>  <ligand_id>  (16) 
15

>  <original_smiles>  (16) 
[H]c1c([H])c([H])c2c(c1[H])C([H])([H])C([H])([H])C([H])([H])C2([H])N([H])C(=O)C1([H])N(C(=O)C([H])(N([H])C(=O)C([H])(N([H])C([H])([H])[H])C([H])([H])[H])C(C([H])([H])[H])(C([H])([H])[H])C([H])([H])[H])C([H])([H])c2c([H])c(OC([H])([H])C([H])([H])C([H])([H])[N+]([H])([H])C([H])([H])C(=O)N([H])C3([H])C([H])([H])C([H])(C([H])([H])N([H])C(=O)N4C([H])([H])C([H])([H])C([H])([H])C([H])(n5nc(-c6c([H])c([H])c(Oc7c([H])c([H])c(F)c([H])c7F)c([H])c6[H])c(C(=O)N([H])[H])c5N([H])[H])C4([H])[H])[N+]([H])([H])C3([H])[H])c([H])c([H])c2C1([H])[H]

>  <smiles>  (16) 
[H]c1c([H])c([H])c2c(c1[H])C([H])([H])C([H])([H])C([H])([H])C2([H])N([H])C(=O)C1([H])N(C(=O)C([H])(N([H])C(=O)C([H])(N([H])C([H])([H])[H])C([H])([H])[H])C(C([H])([H])[H])(C([H])([H])[H])C([H])([H])[H])C([H])([H])c2c([H])c(OC([H])([H])C([H])([H])C([H])([H])[N+]([H])([H])C([H])([H])C(=O)N([H])C3([H])C([H])([H])C([H])(C([H])([H])N([H])C(=O)N4C([H])([H])C([H])([H])C([H])([H])C([H])(n5nc(-c6c([H])c([H])c(Oc7c([H])c([H])c(F)c([H])c7F)c([H])c6[H])c(C(=O)N([H])[H])c5N([H])[H])C4([H])[H])[N+]([H])([H])C3([H])[H])c([H])c([H])c2C1([H])[H]

$$$$
16:0:0
     RDKit          3D

100108  0  0  1  0  0  0  0  0999 V2000
  -31.6500  -22.4060   21.5510 C   0  0  0  0  0  0  0  0  0  0  0  0
  -31.4720  -21.6850   20.4380 N   0  0  0  0  0  0  0  0  0  0  0  0
  -32.0860  -21.9200   22.5950 O   0  0  0  0  0  0  0  0  0  0  0  0
  -31.1380  -22.1690   19.6150 H   0  0  0  0  0  0  0  0  0  0  0  0
  -31.2500  -23.8800   21.4990 C   0  0  0  0  0  2  0  0  0  0  0  0
  -29.8230  -24.0640   22.0350 C   0  0  0  0  0  2  0  0  0  0  0  0
  -29.4150  -25.5380   22.2100 C   0  0  0  0  0  2  0  0  0  0  0  0
  -27.9470  -25.6720   22.3510 N   0  0  0  0  0  4  0  0  0  0  0  0
  -27.7750  -26.1600   23.2160 H   0  0  0  0  0  0  0  0  0  0  0  0
  -27.5290  -24.7620   22.4650 H   0  0  0  0  0  0  0  0  0  0  0  0
  -27.2810  -26.4380   21.2650 C   0  0  0  0  0  2  0  0  0  0  0  0
  -26.8250  -24.4590   19.6710 C   0  0  0  0  0  1  0  0  0  0  0  0
  -27.4630  -25.8470   19.8330 C   0  0  0  0  0  3  0  0  0  0  0  0
  -27.0310  -26.7280   18.7810 O   0  0  0  0  0  0  0  0  0  0  0  0
  -24.5770  -31.6640   23.2100 C   0  0  0  0  0  0  0  0  0  0  0  0
  -25.9840  -27.5560   19.0940 C   0  0  0  0  0  0  0  0  0  0  0  0
  -22.8980  -30.6410   21.7050 C   0  0  0  0  0  3  0  0  0  0  0  0
  -23.8280  -29.2160   19.8060 C   0  0  0  0  0  0  0  0  0  0  0  0
  -25.3420  -30.8220   20.9940 C   0  0  0  0  0  2  0  0  0  0  0  0
  -25.1310  -29.5620   20.1850 C   0  0  0  0  0  0  0  0  0  0  0  0
  -26.2120  -28.7490   19.8120 C   0  0  0  0  0  3  0  0  0  0  0  0
  -24.6760  -27.2240   18.6940 C   0  0  0  0  0  3  0  0  0  0  0  0
  -23.5930  -28.0520   19.0510 C   0  0  0  0  0  3  0  0  0  0  0  0
  -22.7290  -30.1560   20.2390 C   0  0  0  0  0  2  0  0  0  0  0  0
  -24.3050  -31.0440   22.0250 N   0  0  0  0  0  0  0  0  0  0  0  0
  -23.6710  -31.9440   24.0050 O   0  0  0  0  0  0  0  0  0  0  0  0
  -22.3430  -29.5490   22.6470 C   0  0  0  0  0  0  0  0  0  0  0  0
  -21.0230  -29.3180   22.5740 N   0  0  0  0  0  0  0  0  0  0  0  0
  -23.0940  -28.9130   23.3920 O   0  0  0  0  0  0  0  0  0  0  0  0
  -20.4760  -29.8870   21.9430 H   0  0  0  0  0  0  0  0  0  0  0  0
  -17.7970  -27.7360   22.9240 C   0  0  0  0  0  0  0  0  0  0  0  0
  -20.2830  -28.3140   23.3350 C   0  0  0  0  0  3  0  0  0  0  0  0
  -20.5950  -26.8900   22.8200 C   0  0  0  0  0  2  0  0  0  0  0  0
  -19.6050  -26.4010   21.7590 C   0  0  0  0  0  2  0  0  0  0  0  0
  -18.1780  -26.3960   22.3160 C   0  0  0  0  0  2  0  0  0  0  0  0
  -18.7870  -28.6430   23.3880 C   0  0  0  0  0  0  0  0  0  0  0  0
  -18.3820  -29.8890   23.9110 C   0  0  0  0  0  3  0  0  0  0  0  0
  -17.0180  -30.2320   23.9820 C   0  0  0  0  0  3  0  0  0  0  0  0
  -16.0430  -29.3250   23.5370 C   0  0  0  0  0  3  0  0  0  0  0  0
  -16.4320  -28.0790   23.0140 C   0  0  0  0  0  3  0  0  0  0  0  0
  -26.0310  -32.0700   23.6090 C   0  0  0  0  0  3  0  0  0  0  0  0
  -25.9870  -33.4510   24.1060 N   0  0  0  0  0  0  0  0  0  0  0  0
  -26.3920  -34.5210   23.4090 C   0  0  0  0  0  0  0  0  0  0  0  0
  -26.9150  -34.4370   22.2940 O   0  0  0  0  0  0  0  0  0  0  0  0
  -25.5200  -33.5990   24.9900 H   0  0  0  0  0  0  0  0  0  0  0  0
  -24.9410  -36.5760   23.4330 C   0  0  0  0  0  1  0  0  0  0  0  0
  -26.1810  -35.9070   24.0500 C   0  0  0  0  0  3  0  0  0  0  0  0
  -28.4960  -36.3790   24.7160 C   0  0  0  0  0  1  0  0  0  0  0  0
  -27.3520  -36.8030   23.9140 N   0  0  0  0  0  0  0  0  0  0  0  0
  -27.1120  -37.7540   24.1790 H   0  0  0  0  0  0  0  0  0  0  0  0
  -26.6740  -31.1100   24.6830 C   0  0  1  0  0  0  0  0  0  0  0  0
  -25.7950  -30.9030   25.9380 C   0  0  0  0  0  1  0  0  0  0  0  0
  -26.9570  -29.7210   24.0640 C   0  0  0  0  0  1  0  0  0  0  0  0
  -28.0390  -31.6730   25.1400 C   0  0  0  0  0  1  0  0  0  0  0  0
  -31.7150  -20.2480   20.3030 C   0  0  0  0  0  2  0  0  0  0  0  0
  -30.6360  -19.4020   21.0250 C   0  0  0  0  0  2  0  0  0  0  0  0
  -30.5650  -13.6920   20.2460 C   0  0  0  0  0  0  0  0  0  0  0  0
  -30.1970  -11.5210   19.1580 C   0  0  0  0  0  2  0  0  0  0  0  0
  -29.1810  -11.6950   18.0110 C   0  0  0  0  0  2  0  0  0  0  0  0
  -27.7350  -11.5640   18.5340 C   0  0  0  0  0  2  0  0  0  0  0  0
  -27.4650  -12.4150   19.8040 C   0  0  0  0  0  3  0  0  0  0  0  0
  -28.5950  -12.2360   20.8450 C   0  0  0  0  0  2  0  0  0  0  0  0
  -29.8760  -12.5260   20.1800 N   0  0  0  0  0  0  0  0  0  0  0  0
  -31.7220  -13.8250   19.8390 O   0  0  0  0  0  0  0  0  0  0  0  0
  -30.2010  -16.4410   18.6010 C   0  0  0  0  0  2  0  0  0  0  0  0
  -29.2370  -15.4490   19.2740 C   0  0  0  0  0  2  0  0  0  0  0  0
  -30.1050  -15.6520   21.6290 C   0  0  0  0  0  2  0  0  0  0  0  0
  -30.1140  -17.8570   19.1780 C   0  0  0  0  0  2  0  0  0  0  0  0
  -29.7360  -17.1590   21.5320 C   0  0  0  0  0  2  0  0  0  0  0  0
  -29.8150  -14.7980   20.4610 N   0  0  0  0  0  0  0  0  0  0  0  0
  -30.5680  -17.9710   20.5890 N   0  0  2  0  0  4  0  0  0  0  0  0
  -31.5100  -17.6120   20.6500 H   0  0  0  0  0  0  0  0  0  0  0  0
  -25.1190  -13.0140   20.6760 C   0  0  0  0  0  0  0  0  0  0  0  0
  -24.0740  -12.2370   21.0940 C   0  0  0  0  0  0  0  0  0  0  0  0
  -24.5310  -10.8860   21.0100 C   0  0  0  0  0  0  0  0  0  0  0  0
  -26.1470  -12.1360   20.3680 N   0  0  0  0  0  0  0  0  0  0  0  0
  -25.8010  -10.8500   20.6310 N   0  0  0  0  0  0  0  0  0  0  0  0
  -23.8200   -9.6200   21.2190 C   0  0  0  0  0  0  0  0  0  0  0  0
  -24.2740   -8.6650   22.1540 C   0  0  0  0  0  3  0  0  0  0  0  0
  -23.5650   -7.4620   22.3510 C   0  0  0  0  0  3  0  0  0  0  0  0
  -22.3870   -7.2040   21.6090 C   0  0  0  0  0  0  0  0  0  0  0  0
  -21.9530   -8.1480   20.6610 C   0  0  0  0  0  3  0  0  0  0  0  0
  -22.6630   -9.3420   20.4640 C   0  0  0  0  0  3  0  0  0  0  0  0
  -21.6470   -6.0520   21.7120 O   0  0  0  0  0  0  0  0  0  0  0  0
  -21.5690   -5.3500   22.8870 C   0  0  0  0  0  0  0  0  0  0  0  0
  -20.9690   -5.8930   24.0430 C   0  0  0  0  0  3  0  0  0  0  0  0
  -20.8530   -5.1120   25.2100 C   0  0  0  0  0  3  0  0  0  0  0  0
  -21.3220   -3.7850   25.2200 C   0  0  0  0  0  0  0  0  0  0  0  0
  -21.9090   -3.2380   24.0650 C   0  0  0  0  0  3  0  0  0  0  0  0
  -22.0290   -4.0170   22.9000 C   0  0  0  0  0  0  0  0  0  0  0  0
  -22.5780   -3.4790   21.7860 F   0  0  0  0  0  0  0  0  0  0  0  0
  -21.2020   -3.0300   26.3370 F   0  0  0  0  0  0  0  0  0  0  0  0
  -22.6940  -12.7070   21.4590 C   0  0  0  0  0  0  0  0  0  0  0  0
  -22.0120  -11.9800   22.3370 N   0  0  0  0  0  0  0  0  0  0  0  0
  -22.2310  -13.7510   21.0000 O   0  0  0  0  0  0  0  0  0  0  0  0
  -22.4000  -11.1320   22.7260 H   0  0  0  0  0  0  0  0  0  0  0  0
  -21.0890  -12.2730   22.6230 H   0  0  0  0  0  0  0  0  0  0  0  0
  -25.2770  -14.3880   20.5130 N   0  0  0  0  0  0  0  0  0  0  0  0
  -24.5280  -15.0520   20.6770 H   0  0  0  0  0  0  0  0  0  0  0  0
  -26.1200  -14.8240   20.1620 H   0  0  0  0  0  0  0  0  0  0  0  0
  1  3  2  0
  2  1  1  0
  4  2  1  0
  5  1  1  0
  5  6  1  0
  6  7  1  0
  7  8  1  0
  8 10  1  0
  8  9  1  0
 11  8  1  0
 13 12  1  0
 13 11  1  0
 14 16  1  0
 14 13  1  0
 15 26  2  0
 16 21  1  0
 17 25  1  0
 17 27  1  0
 18 20  1  0
 18 24  1  0
 19 25  1  0
 20 19  1  0
 21 20  2  0
 22 23  1  0
 22 16  2  0
 23 18  2  0
 24 17  1  0
 25 15  1  0
 27 29  2  0
 28 27  1  0
 30 28  1  0
 31 40  2  0
 31 36  1  0
 32 28  1  0
 32 36  1  0
 33 32  1  0
 34 35  1  0
 34 33  1  0
 35 31  1  0
 36 37  2  0
 37 38  1  0
 39 38  2  0
 40 39  1  0
 41 15  1  0
 41 42  1  0
 41 51  1  0
 42 45  1  0
 43 47  1  0
 43 42  1  0
 44 43  2  0
 47 46  1  0
 49 47  1  0
 49 50  1  0
 49 48  1  0
 51 54  1  1
 51 52  1  0
 53 51  1  0
 55  2  1  0
 55 56  1  0
 57 70  1  0
 58 63  1  0
 59 60  1  0
 59 58  1  0
 61 60  1  0
 61 76  1  0
 61 62  1  0
 63 57  1  0
 63 62  1  0
 64 57  2  0
 65 68  1  0
 65 66  1  0
 66 70  1  0
 68 71  1  0
 69 67  1  0
 70 67  1  0
 71 72  1  6
 71 56  1  0
 71 69  1  0
 73 74  2  0
 74 93  1  0
 75 74  1  0
 75 78  1  0
 76 77  1  0
 76 73  1  0
 77 75  2  0
 78 79  1  0
 79 80  2  0
 81 84  1  0
 81 80  1  0
 82 81  2  0
 83 82  1  0
 83 78  2  0
 84 85  1  0
 85 90  2  0
 85 86  1  0
 86 87  2  0
 87 88  1  0
 88 92  1  0
 89 88  2  0
 90 89  1  0
 91 90  1  0
 93 94  1  0
 94 97  1  0
 94 96  1  0
 95 93  2  0
 98 73  1  0
 98 99  1  0
100 98  1  0
M  ISO  4  13 101  14 101  57 100  70 100
M  END
>  <TORSDO>  (17) 
F 24

>  <SCORE>  (17) 
-8.938

>  <name>  (17) 
16

>  <ligand_id>  (17) 
16

>  <original_smiles>  (17) 
[H]c1c([H])c([H])c2c(c1[H])C([H])([H])C([H])([H])C([H])([H])C2([H])N([H])C(=O)C1([H])N(C(=O)C([H])(N([H])C(=O)C([H])(N([H])C([H])([H])[H])C([H])([H])[H])C(C([H])([H])[H])(C([H])([H])[H])C([H])([H])[H])C([H])([H])c2c([H])c(OC([H])(C([H])([H])[H])C([H])([H])[N+]([H])([H])C([H])([H])C([H])([H])C([H])([H])C(=O)N([H])C([H])([H])C([H])([H])[N+]3([H])C([H])([H])C([H])([H])N(C(=O)N4C([H])([H])C([H])([H])C([H])([H])C([H])(n5nc(-c6c([H])c([H])c(Oc7c([H])c([H])c(F)c([H])c7F)c([H])c6[H])c(C(=O)N([H])[H])c5N([H])[H])C4([H])[H])C([H])([H])C([H])([H])C3([H])[H])c([H])c([H])c2C1([H])[H]

>  <smiles>  (17) 
[H]c1c([H])c([H])c2c(c1[H])C([H])([H])C([H])([H])C([H])([H])C2([H])N([H])C(=O)C1([H])N(C(=O)C([H])(N([H])C(=O)C([H])(N([H])C([H])([H])[H])C([H])([H])[H])C(C([H])([H])[H])(C([H])([H])[H])C([H])([H])[H])C([H])([H])c2c([H])c(OC([H])(C([H])([H])[H])C([H])([H])[N+]([H])([H])C([H])([H])C([H])([H])C([H])([H])C(=O)N([H])C([H])([H])C([H])([H])[N+]3([H])C([H])([H])C([H])([H])N(C(=O)N4C([H])([H])C([H])([H])C([H])([H])C([H])(n5nc(-c6c([H])c([H])c(Oc7c([H])c([H])c(F)c([H])c7F)c([H])c6[H])c(C(=O)N([H])[H])c5N([H])[H])C4([H])[H])C([H])([H])C([H])([H])C3([H])[H])c([H])c([H])c2C1([H])[H]

$$$$
17:0:0
     RDKit          3D

 94 96  0  0  1  0  0  0  0  0999 V2000
  -22.8960  -25.6170   20.3930 C   0  0  0  0  0  1  0  0  0  0  0  0
  -21.9840  -27.2440   20.0940 N   0  0  0  0  0  0  0  0  0  0  0  0
  -21.0680  -26.8280   20.1880 H   0  0  0  0  0  0  0  0  0  0  0  0
  -22.0100  -27.4230   19.0990 H   0  0  0  0  0  0  0  0  0  0  0  0
  -21.4780  -28.9160   20.9750 C   0  0  0  0  0 15  0  0  0  0  0  0
  -22.2260  -29.8470   22.9220 C   0  0  0  0  0 15  0  0  0  0  0  0
  -24.2180  -29.3200   23.7910 C   0  0  0  0  0 15  0  0  0  0  0  0
  -25.8550  -28.6440   22.8860 O   0  0  0  0  0  1  0  0  0  0  0  0
  -24.5600  -31.8540   22.9290 C   0  0  0  0  0  0  0  0  0  0  0  0
  -26.4950  -27.9420   21.6920 C   0  0  0  0  0  3  0  0  0  0  0  0
  -23.8890  -29.5290   21.2710 C   0  0  0  0  0  2  0  0  0  0  0  0
  -25.2930  -28.9510   19.7060 C   0  0  0  0  0  3  0  0  0  0  0  0
  -25.9580  -30.9910   21.1050 C   0  0  0  0  0  2  0  0  0  0  0  0
  -26.2900  -29.6650   20.4390 C   0  0  0  0  0  3  0  0  0  0  0  0
  -27.2640  -28.8970   21.0660 C   0  0  0  0  0  2  0  0  0  0  0  0
  -25.9910  -26.9940   20.7110 C   0  0  0  0  0  2  0  0  0  0  0  0
  -25.3330  -27.5540   19.6120 C   0  0  0  0  0  2  0  0  0  0  0  0
  -23.9730  -29.4960   19.7700 C   0  0  0  0  0  2  0  0  0  0  0  0
  -24.6980  -30.8940   21.8360 N   0  0  0  0  0  0  0  0  0  0  0  0
  -23.4700  -32.1740   23.4320 O   0  0  0  0  0  0  0  0  0  0  0  0
  -23.4300  -27.7930   22.1700 C   0  0  0  0  0  2  0  0  0  0  0  0
  -22.2010  -27.4220   22.9730 N   0  0  0  0  0  0  0  0  0  0  0  0
  -24.1260  -27.0540   22.7820 O   0  0  0  0  0  1  0  0  0  0  0  0
  -22.5520  -26.6660   23.5410 H   0  0  0  0  0  0  0  0  0  0  0  0
  -17.9990  -27.9270   22.7650 C   0  0  0  0  0  0  0  0  0  0  0  0
  -20.6210  -27.5700   23.3710 C   0  0  0  0  0  3  0  0  0  0  0  0
  -20.2200  -26.2050   22.8790 C   0  0  0  0  0  2  0  0  0  0  0  0
  -19.3090  -26.1470   21.6530 C   0  0  0  0  0  2  0  0  0  0  0  0
  -17.9470  -26.5730   22.1010 C   0  0  0  0  0  2  0  0  0  0  0  0
  -19.2410  -28.5250   23.2350 C   0  0  0  0  0  0  0  0  0  0  0  0
  -19.0030  -29.8240   23.8170 C   0  0  0  0  0  3  0  0  0  0  0  0
  -17.7170  -30.4390   23.9000 C   0  0  0  0  0  3  0  0  0  0  0  0
  -16.5560  -29.7790   23.4650 C   0  0  0  0  0  3  0  0  0  0  0  0
  -16.7130  -28.5130   22.8980 C   0  0  0  0  0  3  0  0  0  0  0  0
  -25.7550  -32.4870   23.8060 C   0  0  0  0  0  3  0  0  0  0  0  0
  -25.3660  -33.8730   24.1270 N   0  0  0  0  0  0  0  0  0  0  0  0
  -25.7320  -34.9440   23.4240 C   0  0  0  0  0  0  0  0  0  0  0  0
  -26.4570  -34.8550   22.4320 O   0  0  0  0  0  0  0  0  0  0  0  0
  -24.7000  -33.9850   24.8750 H   0  0  0  0  0  0  0  0  0  0  0  0
  -23.9870  -36.7220   23.0390 C   0  0  0  0  0  1  0  0  0  0  0  0
  -25.2100  -36.3250   23.8790 C   0  0  0  0  0  3  0  0  0  0  0  0
  -27.3150  -37.2460   24.7510 C   0  0  0  0  0  1  0  0  0  0  0  0
  -26.2320  -37.3880   23.7830 N   0  0  0  0  0  0  0  0  0  0  0  0
  -25.8120  -38.3060   23.9030 H   0  0  0  0  0  0  0  0  0  0  0  0
  -26.1810  -31.8290   25.2200 C   0  0  1  0  0  0  0  0  0  0  0  0
  -25.0400  -31.6600   26.2750 C   0  0  0  0  0  1  0  0  0  0  0  0
  -26.9650  -30.4990   25.0460 C   0  0  0  0  0  1  0  0  0  0  0  0
  -27.2340  -32.7330   25.9390 C   0  0  0  0  0  1  0  0  0  0  0  0
  -24.2190  -24.2310   19.7010 C   0  0  0  0  0  1  0  0  0  0  0  0
  -25.2540  -22.6760   20.2640 C   0  0  0  0  0  0  0  0  0  0  0  0
  -26.0560  -21.4020   19.7010 N   0  0  0  0  0  0  0  0  0  0  0  0
  -25.3320  -22.6870   21.4920 O   0  0  0  0  0  0  0  0  0  0  0  0
  -25.9410  -21.3940   18.6950 H   0  0  0  0  0  0  0  0  0  0  0  0
  -29.8600  -15.9330   19.6400 C   0  0  0  0  0  0  0  0  0  0  0  0
  -30.2940  -13.3760   18.8580 C   0  0  0  0  0  2  0  0  0  0  0  0
  -29.3720  -12.8470   17.7260 C   0  0  0  0  0  2  0  0  0  0  0  0
  -27.9820  -12.4750   18.2740 C   0  0  0  0  0  2  0  0  0  0  0  0
  -27.5300  -13.4830   19.3560 C   0  0  0  0  0  3  0  0  0  0  0  0
  -28.5870  -13.7860   20.4100 C   0  0  0  0  0  2  0  0  0  0  0  0
  -29.5820  -14.5030   19.6390 N   0  0  0  0  0  0  0  0  0  0  0  0
  -31.1070  -15.9620   19.4200 O   0  0  0  0  0  0  0  0  0  0  0  0
  -28.6960  -20.0190   20.0440 C   0  0  0  0  0  2  0  0  0  0  0  0
  -29.5500  -18.6080   20.2630 C   0  0  0  0  0  2  0  0  0  0  0  0
  -27.5040  -18.1890   19.5960 C   0  0  0  0  0  2  0  0  0  0  0  0
  -27.1190  -19.9470   20.1360 C   0  0  0  0  0  3  0  0  0  0  0  0
  -28.9570  -17.2710   19.8430 N   0  0  0  0  0  0  0  0  0  0  0  0
  -25.3530  -14.0690   20.4500 C   0  0  0  0  0  0  0  0  0  0  0  0
  -24.3160  -13.3120   20.9000 C   0  0  0  0  0  0  0  0  0  0  0  0
  -24.7150  -11.9540   20.7220 C   0  0  0  0  0  0  0  0  0  0  0  0
  -26.2900  -13.1670   19.9960 N   0  0  0  0  0  0  0  0  0  0  0  0
  -25.9470  -11.8830   20.2380 N   0  0  0  0  0  0  0  0  0  0  0  0
  -23.9640  -10.7150   20.9100 C   0  0  0  0  0  0  0  0  0  0  0  0
  -24.4210   -9.6970   21.7730 C   0  0  0  0  0  3  0  0  0  0  0  0
  -23.6610   -8.5220   21.9510 C   0  0  0  0  0  3  0  0  0  0  0  0
  -22.4330   -8.3630   21.2640 C   0  0  0  0  0  0  0  0  0  0  0  0
  -21.9990   -9.3710   20.3860 C   0  0  0  0  0  3  0  0  0  0  0  0
  -22.7580  -10.5360   20.2060 C   0  0  0  0  0  3  0  0  0  0  0  0
  -21.6390   -7.2480   21.3570 O   0  0  0  0  0  0  0  0  0  0  0  0
  -21.5840   -6.5020   22.5060 C   0  0  0  0  0  0  0  0  0  0  0  0
  -21.2140   -7.0660   23.7460 C   0  0  0  0  0  3  0  0  0  0  0  0
  -21.1020   -6.2470   24.8860 C   0  0  0  0  0  3  0  0  0  0  0  0
  -21.3510   -4.8650   24.7870 C   0  0  0  0  0  0  0  0  0  0  0  0
  -21.7150   -4.3000   23.5520 C   0  0  0  0  0  3  0  0  0  0  0  0
  -21.8290   -5.1170   22.4140 C   0  0  0  0  0  0  0  0  0  0  0  0
  -22.1610   -4.5670   21.2210 F   0  0  0  0  0  0  0  0  0  0  0  0
  -21.2350   -4.0750   25.8810 F   0  0  0  0  0  0  0  0  0  0  0  0
  -22.9910  -13.8340   21.3620 C   0  0  0  0  0  0  0  0  0  0  0  0
  -22.3410  -13.1260   22.2770 N   0  0  0  0  0  0  0  0  0  0  0  0
  -22.5510  -14.9060   20.9480 O   0  0  0  0  0  0  0  0  0  0  0  0
  -22.7160  -12.2590   22.6330 H   0  0  0  0  0  0  0  0  0  0  0  0
  -21.4530  -13.4570   22.6280 H   0  0  0  0  0  0  0  0  0  0  0  0
  -25.5570  -15.4360   20.3510 N   0  0  0  0  0  0  0  0  0  0  0  0
  -24.8380  -16.1020   20.6120 H   0  0  0  0  0  0  0  0  0  0  0  0
  -26.3620  -15.8630   19.9160 H   0  0  0  0  0  0  0  0  0  0  0  0
  2  3  1  0
  2  1  1  0
  4  2  1  0
  9 20  2  0
 10  8  1  0
 11 19  1  0
 12 17  1  0
 12 18  1  0
 12 14  1  0
 13 19  1  0
 14 15  1  0
 14 13  1  0
 15 10  1  0
 16 10  1  0
 17 16  1  0
 18 11  1  0
 19  9  1  0
 21 23  1  0
 21 22  1  0
 22 24  1  0
 25 34  2  0
 25 30  1  0
 26 22  1  0
 27 26  1  0
 28 29  1  0
 28 27  1  0
 29 25  1  0
 30 26  1  0
 30 31  2  0
 31 32  1  0
 33 32  2  0
 34 33  1  0
 35  9  1  0
 35 36  1  0
 35 45  1  0
 36 39  1  0
 37 41  1  0
 37 36  1  0
 38 37  2  0
 41 40  1  0
 43 41  1  0
 43 44  1  0
 43 42  1  0
 45 48  1  1
 45 46  1  0
 47 45  1  0
 49 50  1  0
 50 52  2  0
 51 50  1  0
 53 51  1  0
 54 66  1  0
 55 60  1  0
 56 57  1  0
 56 55  1  0
 58 57  1  0
 58 70  1  0
 58 59  1  0
 60 54  1  0
 60 59  1  0
 61 54  2  0
 62 65  1  0
 62 63  1  0
 64 66  1  0
 64 65  1  0
 65 51  1  0
 66 63  1  0
 67 68  2  0
 68 87  1  0
 69 68  1  0
 69 72  1  0
 70 71  1  0
 70 67  1  0
 71 69  2  0
 72 73  1  0
 73 74  2  0
 75 78  1  0
 75 74  1  0
 76 75  2  0
 77 76  1  0
 77 72  2  0
 78 79  1  0
 79 80  1  0
 80 81  2  0
 82 81  1  0
 82 86  1  0
 83 82  2  0
 84 79  2  0
 84 83  1  0
 85 84  1  0
 87 88  1  0
 88 91  1  0
 88 90  1  0
 89 87  2  0
 92 67  1  0
 92 93  1  0
 94 92  1  0
M  ISO  4   7 101   8 101  54 100  66 100
M  END
>  <TORSDO>  (18) 
F 22

>  <SCORE>  (18) 
-13.923

>  <name>  (18) 
17

>  <ligand_id>  (18) 
17

>  <original_smiles>  (18) 
[H]c1c([H])c([H])c2c(c1[H])C([H])([H])C([H])([H])C([H])([H])C2([H])N([H])C(=O)C1([H])N(C(=O)C([H])(N([H])C(=O)C([H])(N([H])C([H])([H])[H])C([H])([H])[H])C(C([H])([H])[H])(C([H])([H])[H])C([H])([H])[H])C([H])([H])c2c([H])c(OC([H])([H])C([H])([H])C([H])([H])[N+]([H])([H])C([H])([H])C([H])([H])C(=O)N([H])C3([H])C([H])([H])N(C(=O)N4C([H])([H])C([H])([H])C([H])([H])C([H])(n5nc(-c6c([H])c([H])c(Oc7c([H])c([H])c(F)c([H])c7F)c([H])c6[H])c(C(=O)N([H])[H])c5N([H])[H])C4([H])[H])C([H])([H])C3([H])[H])c([H])c([H])c2C1([H])[H]

>  <smiles>  (18) 
[H]c1c([H])c([H])c2c(c1[H])C([H])([H])C([H])([H])C([H])([H])C2([H])N([H])C(=O)C1([H])N(C(=O)C([H])(N([H])C(=O)C([H])(N([H])C([H])([H])[H])C([H])([H])[H])C(C([H])([H])[H])(C([H])([H])[H])C([H])([H])[H])C([H])([H])c2c([H])c(OC([H])([H])C([H])([H])C([H])([H])[N+]([H])([H])C([H])([H])C([H])([H])C(=O)N([H])C3([H])C([H])([H])N(C(=O)N4C([H])([H])C([H])([H])C([H])([H])C([H])(n5nc(-c6c([H])c([H])c(Oc7c([H])c([H])c(F)c([H])c7F)c([H])c6[H])c(C(=O)N([H])[H])c5N([H])[H])C4([H])[H])C([H])([H])C3([H])[H])c([H])c([H])c2C1([H])[H]

$$$$
18:0:0
     RDKit          3D

 93100  0  0  1  0  0  0  0  0999 V2000
  -31.6170  -23.3110   22.3130 C   0  0  0  0  0  1  0  0  0  0  0  0
  -30.2880  -23.1360   21.6720 N   0  0  2  0  0  4  0  0  0  0  0  0
  -30.4790  -22.9190   20.7040 H   0  0  0  0  0  0  0  0  0  0  0  0
  -29.4760  -24.3940   21.6770 C   0  0  0  0  0  2  0  0  0  0  0  0
  -30.2030  -25.6380   21.0970 C   0  0  0  0  0  2  0  0  0  0  0  0
  -29.3280  -26.9000   21.0400 C   0  0  0  0  0  2  0  0  0  0  0  0
  -28.3390  -26.7210   20.0360 O   0  0  0  0  0  0  0  0  0  0  0  0
  -24.5920  -31.9030   23.2440 C   0  0  0  0  0  0  0  0  0  0  0  0
  -27.2120  -27.5050   20.1070 C   0  0  0  0  0  0  0  0  0  0  0  0
  -23.3670  -30.5050   21.6100 C   0  0  0  0  0  3  0  0  0  0  0  0
  -24.8050  -28.9780   20.1590 C   0  0  0  0  0  0  0  0  0  0  0  0
  -25.8840  -30.8790   21.3770 C   0  0  0  0  0  2  0  0  0  0  0  0
  -25.9640  -29.5100   20.7390 C   0  0  0  0  0  0  0  0  0  0  0  0
  -27.1700  -28.7800   20.7190 C   0  0  0  0  0  3  0  0  0  0  0  0
  -26.0420  -26.9880   19.5170 C   0  0  0  0  0  3  0  0  0  0  0  0
  -24.8360  -27.7120   19.5500 C   0  0  0  0  0  3  0  0  0  0  0  0
  -23.5580  -29.8300   20.2240 C   0  0  0  0  0  2  0  0  0  0  0  0
  -24.6330  -31.1090   22.1350 N   0  0  0  0  0  0  0  0  0  0  0  0
  -23.5180  -32.1690   23.8000 O   0  0  0  0  0  0  0  0  0  0  0  0
  -22.7320  -29.4780   22.5730 C   0  0  0  0  0  0  0  0  0  0  0  0
  -21.4080  -29.2880   22.4570 N   0  0  0  0  0  0  0  0  0  0  0  0
  -23.4280  -28.8540   23.3800 O   0  0  0  0  0  0  0  0  0  0  0  0
  -20.9100  -29.8460   21.7760 H   0  0  0  0  0  0  0  0  0  0  0  0
  -18.0470  -28.0690   22.9650 C   0  0  0  0  0  0  0  0  0  0  0  0
  -20.6020  -28.3450   23.2310 C   0  0  0  0  0  3  0  0  0  0  0  0
  -20.7140  -26.9150   22.6550 C   0  0  0  0  0  2  0  0  0  0  0  0
  -19.6120  -26.5830   21.6430 C   0  0  0  0  0  2  0  0  0  0  0  0
  -18.2320  -26.7200   22.2920 C   0  0  0  0  0  2  0  0  0  0  0  0
  -19.1610  -28.8400   23.3910 C   0  0  0  0  0  0  0  0  0  0  0  0
  -18.9350  -30.1030   23.9780 C   0  0  0  0  0  3  0  0  0  0  0  0
  -17.6270  -30.5950   24.1460 C   0  0  0  0  0  3  0  0  0  0  0  0
  -16.5270  -29.8220   23.7370 C   0  0  0  0  0  3  0  0  0  0  0  0
  -16.7380  -28.5600   23.1520 C   0  0  0  0  0  3  0  0  0  0  0  0
  -25.8870  -32.5310   23.8490 C   0  0  0  0  0  3  0  0  0  0  0  0
  -26.4250  -31.7530   25.1130 C   0  0  1  0  0  0  0  0  0  0  0  0
  -25.3490  -31.5070   26.1950 C   0  0  0  0  0  1  0  0  0  0  0  0
  -27.0030  -30.3780   24.6990 C   0  0  0  0  0  1  0  0  0  0  0  0
  -27.5850  -32.5440   25.7610 C   0  0  0  0  0  1  0  0  0  0  0  0
  -25.5840  -33.9270   24.1880 N   0  0  0  0  0  0  0  0  0  0  0  0
  -25.9110  -34.9810   23.4280 C   0  0  0  0  0  0  0  0  0  0  0  0
  -26.5710  -34.8800   22.3890 O   0  0  0  0  0  0  0  0  0  0  0  0
  -24.9950  -34.0790   24.9940 H   0  0  0  0  0  0  0  0  0  0  0  0
  -24.1800  -36.7740   23.0930 C   0  0  0  0  0  1  0  0  0  0  0  0
  -25.4270  -36.3670   23.8930 C   0  0  0  0  0  3  0  0  0  0  0  0
  -27.5700  -37.2460   24.7080 C   0  0  0  0  0  1  0  0  0  0  0  0
  -26.4610  -37.4200   23.7750 N   0  0  0  0  0  0  0  0  0  0  0  0
  -26.0560  -38.3400   23.9310 H   0  0  0  0  0  0  0  0  0  0  0  0
  -29.5620  -21.9610   22.2520 C   0  0  0  0  0  2  0  0  0  0  0  0
  -28.8170  -21.0710   21.2210 C   0  0  0  0  0  2  0  0  0  0  0  0
  -29.6700  -20.1650   20.2890 C   0  0  0  0  0  2  0  0  0  0  0  0
  -31.9250  -19.3730   20.9220 C   0  0  0  0  0  1  0  0  0  0  0  0
  -30.4640  -19.1220   21.0100 N   0  0  2  0  0  4  0  0  0  0  0  0
  -30.2190  -19.2020   21.9830 H   0  0  0  0  0  0  0  0  0  0  0  0
  -30.1000  -17.7230   20.6310 C   0  0  0  0  0  2  0  0  0  0  0  0
  -30.6380  -16.6600   21.6220 C   0  0  0  0  0  2  0  0  0  0  0  0
  -30.6640  -14.4590   20.4360 C   0  0  0  0  0  0  0  0  0  0  0  0
  -30.3050  -12.3740   19.1660 C   0  0  0  0  0  2  0  0  0  0  0  0
  -29.3430  -12.6180   17.9850 C   0  0  0  0  0  2  0  0  0  0  0  0
  -27.8810  -12.4530   18.4380 C   0  0  0  0  0  2  0  0  0  0  0  0
  -27.5650  -13.2750   19.7120 C   0  0  0  0  0  3  0  0  0  0  0  0
  -28.6270  -13.0170   20.8060 C   0  0  0  0  0  2  0  0  0  0  0  0
  -29.9570  -13.3150   20.2420 N   0  0  0  0  0  0  0  0  0  0  0  0
  -31.7020  -14.7310   19.8290 O   0  0  0  0  0  0  0  0  0  0  0  0
  -30.1360  -15.3160   21.3200 N   0  0  0  0  0  0  0  0  0  0  0  0
  -29.3110  -15.0060   21.8140 H   0  0  0  0  0  0  0  0  0  0  0  0
  -25.1580  -13.8890   20.3960 C   0  0  0  0  0  0  0  0  0  0  0  0
  -24.0920  -13.1160   20.7730 C   0  0  0  0  0  0  0  0  0  0  0  0
  -24.5600  -11.7680   20.7710 C   0  0  0  0  0  0  0  0  0  0  0  0
  -26.2090  -13.0080   20.1900 N   0  0  0  0  0  0  0  0  0  0  0  0
  -25.8510  -11.7300   20.4690 N   0  0  0  0  0  0  0  0  0  0  0  0
  -23.8400  -10.5050   20.9840 C   0  0  0  0  0  0  0  0  0  0  0  0
  -24.2860   -9.5520   21.9250 C   0  0  0  0  0  3  0  0  0  0  0  0
  -23.5710   -8.3510   22.1230 C   0  0  0  0  0  3  0  0  0  0  0  0
  -22.3940   -8.0970   21.3790 C   0  0  0  0  0  0  0  0  0  0  0  0
  -21.9690   -9.0380   20.4250 C   0  0  0  0  0  3  0  0  0  0  0  0
  -22.6850  -10.2290   20.2270 C   0  0  0  0  0  3  0  0  0  0  0  0
  -21.6460   -6.9490   21.4870 O   0  0  0  0  0  0  0  0  0  0  0  0
  -21.6210   -6.2140   22.6440 C   0  0  0  0  0  0  0  0  0  0  0  0
  -21.2180   -6.7760   23.8750 C   0  0  0  0  0  3  0  0  0  0  0  0
  -21.1430   -5.9670   25.0270 C   0  0  0  0  0  3  0  0  0  0  0  0
  -21.4570   -4.5970   24.9470 C   0  0  0  0  0  0  0  0  0  0  0  0
  -21.8510   -4.0340   23.7200 C   0  0  0  0  0  3  0  0  0  0  0  0
  -21.9310   -4.8410   22.5720 C   0  0  0  0  0  0  0  0  0  0  0  0
  -22.2930   -4.2900   21.3880 F   0  0  0  0  0  0  0  0  0  0  0  0
  -21.3770   -3.8170   26.0510 F   0  0  0  0  0  0  0  0  0  0  0  0
  -22.6910  -13.5900   21.0380 C   0  0  0  0  0  0  0  0  0  0  0  0
  -21.9680  -12.9020   21.9170 N   0  0  0  0  0  0  0  0  0  0  0  0
  -22.2460  -14.6050   20.5030 O   0  0  0  0  0  0  0  0  0  0  0  0
  -22.3410  -12.0830   22.3710 H   0  0  0  0  0  0  0  0  0  0  0  0
  -21.0280  -13.2010   22.1400 H   0  0  0  0  0  0  0  0  0  0  0  0
  -25.3220  -15.2540   20.1930 N   0  0  0  0  0  0  0  0  0  0  0  0
  -24.5540  -15.9140   20.2710 H   0  0  0  0  0  0  0  0  0  0  0  0
  -26.1830  -15.6810   19.8730 H   0  0  0  0  0  0  0  0  0  0  0  0
  2  4  1  0
  2 48  1  0
  2  1  1  0
  2  3  1  6
  5  4  1  0
  6  5  1  0
  7  9  1  0
  7  6  1  0
  8 19  2  0
  9 14  1  0
 10 18  1  0
 10 20  1  0
 11 17  1  0
 11 13  1  0
 12 18  1  0
 13 12  1  0
 14 13  2  0
 15 16  1  0
 15  9  2  0
 16 11  2  0
 17 10  1  0
 18  8  1  0
 20 22  2  0
 21 20  1  0
 23 21  1  0
 24 33  2  0
 24 29  1  0
 25 21  1  0
 25 29  1  0
 26 25  1  0
 27 28  1  0
 27 26  1  0
 28 24  1  0
 29 30  2  0
 30 31  1  0
 32 31  2  0
 33 32  1  0
 34  8  1  0
 34 39  1  0
 34 35  1  0
 35 38  1  1
 35 36  1  0
 37 35  1  0
 39 42  1  0
 40 44  1  0
 40 39  1  0
 41 40  2  0
 44 43  1  0
 46 44  1  0
 46 47  1  0
 46 45  1  0
 49 48  1  0
 50 52  1  0
 50 49  1  0
 51 52  1  0
 52 53  1  1
 54 52  1  0
 54 55  1  0
 56 64  1  0
 57 62  1  0
 58 59  1  0
 58 57  1  0
 60 59  1  0
 60 69  1  0
 60 61  1  0
 62 56  1  0
 62 61  1  0
 63 56  2  0
 64 55  1  0
 64 65  1  0
 66 67  2  0
 67 86  1  0
 68 67  1  0
 68 71  1  0
 69 66  1  0
 69 70  1  0
 70 68  2  0
 71 72  1  0
 72 73  2  0
 74 77  1  0
 74 73  1  0
 75 74  2  0
 76 75  1  0
 76 71  2  0
 77 78  1  0
 78 79  1  0
 79 80  2  0
 81 80  1  0
 81 85  1  0
 82 81  2  0
 83 78  2  0
 83 82  1  0
 84 83  1  0
 86 87  1  0
 87 90  1  0
 87 89  1  0
 88 86  2  0
 91 92  1  0
 91 66  1  0
 93 91  1  0
M  ISO  4   6 101   7 101  56 100  64 100
M  END
>  <TORSDO>  (19) 
F 25

>  <SCORE>  (19) 
-11.110

>  <name>  (19) 
18

>  <ligand_id>  (19) 
18

>  <original_smiles>  (19) 
[H]c1c([H])c([H])c2c(c1[H])C([H])([H])C([H])([H])C([H])([H])C2([H])N([H])C(=O)C1([H])N(C(=O)C([H])(N([H])C(=O)C([H])(N([H])C([H])([H])[H])C([H])([H])[H])C(C([H])([H])[H])(C([H])([H])[H])C([H])([H])[H])C([H])([H])c2c([H])c(OC([H])([H])C([H])([H])C([H])([H])[N+]([H])(C([H])([H])[H])C([H])([H])C([H])([H])C([H])([H])[N+]([H])(C([H])([H])[H])C([H])([H])C([H])([H])N([H])C(=O)N3C([H])([H])C([H])([H])C([H])([H])C([H])(n4nc(-c5c([H])c([H])c(Oc6c([H])c([H])c(F)c([H])c6F)c([H])c5[H])c(C(=O)N([H])[H])c4N([H])[H])C3([H])[H])c([H])c([H])c2C1([H])[H]

>  <smiles>  (19) 
[H]c1c([H])c([H])c2c(c1[H])C([H])([H])C([H])([H])C([H])([H])C2([H])N([H])C(=O)C1([H])N(C(=O)C([H])(N([H])C(=O)C([H])(N([H])C([H])([H])[H])C([H])([H])[H])C(C([H])([H])[H])(C([H])([H])[H])C([H])([H])[H])C([H])([H])c2c([H])c(OC([H])([H])C([H])([H])C([H])([H])[N+]([H])(C([H])([H])[H])C([H])([H])C([H])([H])C([H])([H])[N+]([H])(C([H])([H])[H])C([H])([H])C([H])([H])N([H])C(=O)N3C([H])([H])C([H])([H])C([H])([H])C([H])(n4nc(-c5c([H])c([H])c(Oc6c([H])c([H])c(F)c([H])c6F)c([H])c5[H])c(C(=O)N([H])[H])c4N([H])[H])C3([H])[H])c([H])c([H])c2C1([H])[H]

$$$$
19:0:0
     RDKit          3D

 94102  0  0  1  0  0  0  0  0999 V2000
  -30.6210  -22.4600   23.8960 C   0  0  0  0  0  2  0  0  0  0  0  0
  -29.7790  -23.0970   22.8550 N   0  0  0  0  0  4  0  0  0  0  0  0
  -28.8270  -22.7770   22.9530 H   0  0  0  0  0  0  0  0  0  0  0  0
  -30.1160  -22.8010   21.9540 H   0  0  0  0  0  0  0  0  0  0  0  0
  -29.7700  -24.5780   22.8370 C   0  0  0  0  0  2  0  0  0  0  0  0
  -29.0270  -25.0730   21.5870 C   0  0  0  0  0  2  0  0  0  0  0  0
  -29.1100  -26.5850   21.3520 C   0  0  0  0  0  2  0  0  0  0  0  0
  -28.4520  -26.8310   20.1110 O   0  0  0  0  0  0  0  0  0  0  0  0
  -24.5570  -31.9130   23.2290 C   0  0  0  0  0  0  0  0  0  0  0  0
  -27.2790  -27.5400   20.1730 C   0  0  0  0  0  0  0  0  0  0  0  0
  -23.3730  -30.4970   21.5740 C   0  0  0  0  0  3  0  0  0  0  0  0
  -24.8550  -28.9810   20.1630 C   0  0  0  0  0  0  0  0  0  0  0  0
  -25.8890  -30.8970   21.3920 C   0  0  0  0  0  2  0  0  0  0  0  0
  -25.9950  -29.5270   20.7670 C   0  0  0  0  0  0  0  0  0  0  0  0
  -27.2090  -28.8110   20.7790 C   0  0  0  0  0  3  0  0  0  0  0  0
  -26.1290  -27.0000   19.5610 C   0  0  0  0  0  3  0  0  0  0  0  0
  -24.9130  -27.7100   19.5640 C   0  0  0  0  0  3  0  0  0  0  0  0
  -23.5990  -29.8200   20.1950 C   0  0  0  0  0  2  0  0  0  0  0  0
  -24.6230  -31.1180   22.1240 N   0  0  0  0  0  0  0  0  0  0  0  0
  -23.4690  -32.1750   23.7630 O   0  0  0  0  0  0  0  0  0  0  0  0
  -22.7290  -29.4680   22.5320 C   0  0  0  0  0  0  0  0  0  0  0  0
  -21.4060  -29.2810   22.3990 N   0  0  0  0  0  0  0  0  0  0  0  0
  -23.4140  -28.8420   23.3450 O   0  0  0  0  0  0  0  0  0  0  0  0
  -20.9160  -29.8380   21.7140 H   0  0  0  0  0  0  0  0  0  0  0  0
  -18.0330  -28.0900   22.8930 C   0  0  0  0  0  0  0  0  0  0  0  0
  -20.5910  -28.3390   23.1610 C   0  0  0  0  0  3  0  0  0  0  0  0
  -20.6900  -26.9130   22.5700 C   0  0  0  0  0  2  0  0  0  0  0  0
  -19.5840  -26.6030   21.5560 C   0  0  0  0  0  2  0  0  0  0  0  0
  -18.2050  -26.7470   22.2050 C   0  0  0  0  0  2  0  0  0  0  0  0
  -19.1550  -28.8450   23.3270 C   0  0  0  0  0  0  0  0  0  0  0  0
  -18.9410  -30.1060   23.9280 C   0  0  0  0  0  3  0  0  0  0  0  0
  -17.6380  -30.6100   24.1020 C   0  0  0  0  0  3  0  0  0  0  0  0
  -16.5300  -29.8510   23.6850 C   0  0  0  0  0  3  0  0  0  0  0  0
  -16.7280  -28.5930   23.0850 C   0  0  0  0  0  3  0  0  0  0  0  0
  -25.8360  -32.5500   23.8580 C   0  0  0  0  0  3  0  0  0  0  0  0
  -25.5200  -33.9470   24.1790 N   0  0  0  0  0  0  0  0  0  0  0  0
  -25.8610  -34.9960   23.4190 C   0  0  0  0  0  0  0  0  0  0  0  0
  -26.5500  -34.8880   22.3990 O   0  0  0  0  0  0  0  0  0  0  0  0
  -24.9120  -34.1050   24.9690 H   0  0  0  0  0  0  0  0  0  0  0  0
  -24.1440  -36.7890   23.0150 C   0  0  0  0  0  1  0  0  0  0  0  0
  -25.3610  -36.3840   23.8610 C   0  0  0  0  0  3  0  0  0  0  0  0
  -27.4680  -37.2740   24.7550 C   0  0  0  0  0  1  0  0  0  0  0  0
  -26.3960  -37.4370   23.7770 N   0  0  0  0  0  0  0  0  0  0  0  0
  -25.9820  -38.3550   23.9140 H   0  0  0  0  0  0  0  0  0  0  0  0
  -26.3550  -31.7860   25.1370 C   0  0  1  0  0  0  0  0  0  0  0  0
  -25.2580  -31.5380   26.1990 C   0  0  0  0  0  1  0  0  0  0  0  0
  -26.9530  -30.4130   24.7440 C   0  0  0  0  0  1  0  0  0  0  0  0
  -27.4940  -32.5930   25.8080 C   0  0  0  0  0  1  0  0  0  0  0  0
  -31.2550  -21.1460   23.3950 C   0  0  0  0  0  2  0  0  0  0  0  0
  -30.3000  -19.9320   23.3100 C   0  0  0  0  0  2  0  0  0  0  0  0
  -30.7870  -17.7510   20.3090 C   0  0  0  0  0  2  0  0  0  0  0  0
  -30.8420  -19.1270   20.9930 C   0  0  0  0  0  2  0  0  0  0  0  0
  -30.3260  -17.5090   22.6410 C   0  0  0  0  0  2  0  0  0  0  0  0
  -30.9410  -16.7500   21.4640 C   0  0  0  0  0  3  0  0  0  0  0  0
  -30.8760  -18.8660   22.4550 N   0  0  2  0  0  4  0  0  0  0  0  0
  -31.8500  -18.7790   22.7040 H   0  0  0  0  0  0  0  0  0  0  0  0
  -30.8690  -14.5670   20.3290 C   0  0  0  0  0  0  0  0  0  0  0  0
  -30.4690  -12.5230   19.0230 C   0  0  0  0  0  2  0  0  0  0  0  0
  -29.4730  -12.8140   17.8830 C   0  0  0  0  0  2  0  0  0  0  0  0
  -28.0220  -12.6540   18.3750 C   0  0  0  0  0  2  0  0  0  0  0  0
  -27.7540  -13.4100   19.7030 C   0  0  0  0  0  3  0  0  0  0  0  0
  -28.8560  -13.1070   20.7440 C   0  0  0  0  0  2  0  0  0  0  0  0
  -30.1590  -13.4290   20.1370 N   0  0  0  0  0  0  0  0  0  0  0  0
  -31.9030  -14.8310   19.7090 O   0  0  0  0  0  0  0  0  0  0  0  0
  -30.3490  -15.4380   21.2030 N   0  0  0  0  0  0  0  0  0  0  0  0
  -29.5000  -15.1740   21.6830 H   0  0  0  0  0  0  0  0  0  0  0  0
  -25.3790  -13.9720   20.5160 C   0  0  0  0  0  0  0  0  0  0  0  0
  -24.3330  -13.1770   20.9060 C   0  0  0  0  0  0  0  0  0  0  0  0
  -24.8070  -11.8330   20.8150 C   0  0  0  0  0  0  0  0  0  0  0  0
  -26.4230  -13.1100   20.2230 N   0  0  0  0  0  0  0  0  0  0  0  0
  -26.0840  -11.8160   20.4560 N   0  0  0  0  0  0  0  0  0  0  0  0
  -24.1040  -10.5560   20.9970 C   0  0  0  0  0  0  0  0  0  0  0  0
  -24.5480   -9.5930   21.9310 C   0  0  0  0  0  3  0  0  0  0  0  0
  -23.8440   -8.3820   22.1010 C   0  0  0  0  0  3  0  0  0  0  0  0
  -22.6820   -8.1230   21.3370 C   0  0  0  0  0  0  0  0  0  0  0  0
  -22.2570   -9.0750   20.3920 C   0  0  0  0  0  3  0  0  0  0  0  0
  -22.9620  -10.2780   20.2210 C   0  0  0  0  0  3  0  0  0  0  0  0
  -21.9500   -6.9630   21.4150 O   0  0  0  0  0  0  0  0  0  0  0  0
  -21.8450   -6.2580   22.5870 C   0  0  0  0  0  0  0  0  0  0  0  0
  -21.3110   -6.8350   23.7590 C   0  0  0  0  0  3  0  0  0  0  0  0
  -21.1540   -6.0520   24.9200 C   0  0  0  0  0  3  0  0  0  0  0  0
  -21.5250   -4.6930   24.9100 C   0  0  0  0  0  0  0  0  0  0  0  0
  -22.0550   -4.1170   23.7420 C   0  0  0  0  0  3  0  0  0  0  0  0
  -22.2110   -4.8970   22.5830 C   0  0  0  0  0  0  0  0  0  0  0  0
  -22.7010   -4.3300   21.4530 F   0  0  0  0  0  0  0  0  0  0  0  0
  -21.3700   -3.9390   26.0230 F   0  0  0  0  0  0  0  0  0  0  0  0
  -22.9440  -13.6290   21.2490 C   0  0  0  0  0  0  0  0  0  0  0  0
  -22.2660  -12.9000   22.1310 N   0  0  0  0  0  0  0  0  0  0  0  0
  -22.4700  -14.6600   20.7740 O   0  0  0  0  0  0  0  0  0  0  0  0
  -22.6660  -12.0660   22.5320 H   0  0  0  0  0  0  0  0  0  0  0  0
  -21.3350  -13.1810   22.4050 H   0  0  0  0  0  0  0  0  0  0  0  0
  -25.5240  -15.3480   20.3710 N   0  0  0  0  0  0  0  0  0  0  0  0
  -24.7600  -15.9960   20.5240 H   0  0  0  0  0  0  0  0  0  0  0  0
  -26.3570  -15.7950   20.0080 H   0  0  0  0  0  0  0  0  0  0  0  0
  2  3  1  0
  2  1  1  0
  4  2  1  0
  5  2  1  0
  6  5  1  0
  7  6  1  0
  8 10  1  0
  8  7  1  0
  9 20  2  0
 10 15  1  0
 11 19  1  0
 11 21  1  0
 12 18  1  0
 12 14  1  0
 13 19  1  0
 14 15  2  0
 14 13  1  0
 16 17  1  0
 16 10  2  0
 17 12  2  0
 18 11  1  0
 19  9  1  0
 21 23  2  0
 22 21  1  0
 24 22  1  0
 25 34  2  0
 25 30  1  0
 26 22  1  0
 26 30  1  0
 27 26  1  0
 28 29  1  0
 28 27  1  0
 29 25  1  0
 30 31  2  0
 31 32  1  0
 33 32  2  0
 34 33  1  0
 35  9  1  0
 35 36  1  0
 35 45  1  0
 36 39  1  0
 37 41  1  0
 37 36  1  0
 38 37  2  0
 41 40  1  0
 43 41  1  0
 43 44  1  0
 43 42  1  0
 45 48  1  1
 45 46  1  0
 47 45  1  0
 49  1  1  0
 50 49  1  0
 51 52  1  0
 51 54  1  0
 52 55  1  0
 54 65  1  0
 54 53  1  0
 55 53  1  0
 55 56  1  1
 55 50  1  0
 57 65  1  0
 58 63  1  0
 59 60  1  0
 59 58  1  0
 61 60  1  0
 61 70  1  0
 61 62  1  0
 63 57  1  0
 63 62  1  0
 64 57  2  0
 65 66  1  0
 67 68  2  0
 68 87  1  0
 69 68  1  0
 69 72  1  0
 70 71  1  0
 70 67  1  0
 71 69  2  0
 72 73  1  0
 73 74  2  0
 75 78  1  0
 75 74  1  0
 76 75  2  0
 77 76  1  0
 77 72  2  0
 78 79  1  0
 79 80  1  0
 80 81  2  0
 82 81  1  0
 82 86  1  0
 83 82  2  0
 84 79  2  0
 84 83  1  0
 85 84  1  0
 87 88  1  0
 88 91  1  0
 88 90  1  0
 89 87  2  0
 92 67  1  0
 92 93  1  0
 94 92  1  0
M  ISO  4   7 101   8 101  57 100  65 100
M  END
>  <TORSDO>  (20) 
F 23

>  <SCORE>  (20) 
-12.306

>  <name>  (20) 
19

>  <ligand_id>  (20) 
19

>  <original_smiles>  (20) 
[H]c1c([H])c([H])c2c(c1[H])C([H])([H])C([H])([H])C([H])([H])C2([H])N([H])C(=O)C1([H])N(C(=O)C([H])(N([H])C(=O)C([H])(N([H])C([H])([H])[H])C([H])([H])[H])C(C([H])([H])[H])(C([H])([H])[H])C([H])([H])[H])C([H])([H])c2c([H])c(OC([H])([H])C([H])([H])C([H])([H])[N+]([H])([H])C([H])([H])C([H])([H])C([H])([H])[N+]3([H])C([H])([H])C([H])([H])C([H])(N([H])C(=O)N4C([H])([H])C([H])([H])C([H])([H])C([H])(n5nc(-c6c([H])c([H])c(Oc7c([H])c([H])c(F)c([H])c7F)c([H])c6[H])c(C(=O)N([H])[H])c5N([H])[H])C4([H])[H])C3([H])[H])c([H])c([H])c2C1([H])[H]

>  <smiles>  (20) 
[H]c1c([H])c([H])c2c(c1[H])C([H])([H])C([H])([H])C([H])([H])C2([H])N([H])C(=O)C1([H])N(C(=O)C([H])(N([H])C(=O)C([H])(N([H])C([H])([H])[H])C([H])([H])[H])C(C([H])([H])[H])(C([H])([H])[H])C([H])([H])[H])C([H])([H])c2c([H])c(OC([H])([H])C([H])([H])C([H])([H])[N+]([H])([H])C([H])([H])C([H])([H])C([H])([H])[N+]3([H])C([H])([H])C([H])([H])C([H])(N([H])C(=O)N4C([H])([H])C([H])([H])C([H])([H])C([H])(n5nc(-c6c([H])c([H])c(Oc7c([H])c([H])c(F)c([H])c7F)c([H])c6[H])c(C(=O)N([H])[H])c5N([H])[H])C4([H])[H])C3([H])[H])c([H])c([H])c2C1([H])[H]

$$$$
20:0:0
     RDKit          3D

 93101  0  0  1  0  0  0  0  0999 V2000
  -27.4720  -22.6990   22.2590 C   0  0  0  0  0  2  0  0  0  0  0  0
  -28.8400  -22.0050   22.3220 C   0  0  0  0  0  2  0  0  0  0  0  0
  -27.2600  -23.0250   20.7800 C   0  0  0  0  0  2  0  0  0  0  0  0
  -29.4170  -22.0590   20.8890 C   0  0  0  0  0  3  0  0  0  0  0  0
  -28.6200  -23.1240   20.1970 N   0  0  2  0  0  4  0  0  0  0  0  0
  -28.5810  -22.8360   19.2260 H   0  0  0  0  0  0  0  0  0  0  0  0
  -29.3090  -20.6790   20.1610 C   0  0  0  0  0  0  0  0  0  0  0  0
  -29.8540  -19.5780   20.7300 N   0  0  0  0  0  0  0  0  0  0  0  0
  -28.7240  -20.6180   19.0770 O   0  0  0  0  0  0  0  0  0  0  0  0
  -30.3250  -19.6980   21.6180 H   0  0  0  0  0  0  0  0  0  0  0  0
  -29.7830  -18.2060   20.1850 C   0  0  0  0  0  2  0  0  0  0  0  0
  -30.5980  -17.1600   21.0060 C   0  0  0  0  0  2  0  0  0  0  0  0
  -30.8630  -14.7680   20.1880 C   0  0  0  0  0  0  0  0  0  0  0  0
  -30.5700  -12.6050   19.0220 C   0  0  0  0  0  2  0  0  0  0  0  0
  -29.5970  -12.8010   17.8430 C   0  0  0  0  0  2  0  0  0  0  0  0
  -28.1330  -12.6470   18.3020 C   0  0  0  0  0  2  0  0  0  0  0  0
  -27.8180  -13.4630   19.5830 C   0  0  0  0  0  3  0  0  0  0  0  0
  -28.9020  -13.2470   20.6630 C   0  0  0  0  0  2  0  0  0  0  0  0
  -30.2060  -13.5810   20.0630 N   0  0  0  0  0  0  0  0  0  0  0  0
  -31.9710  -14.9760   19.6820 O   0  0  0  0  0  0  0  0  0  0  0  0
  -30.1730  -15.7590   20.7890 N   0  0  0  0  0  0  0  0  0  0  0  0
  -29.2690  -15.5020   21.1590 H   0  0  0  0  0  0  0  0  0  0  0  0
  -25.4340  -14.0450   20.3540 C   0  0  0  0  0  0  0  0  0  0  0  0
  -24.3800  -13.2610   20.7400 C   0  0  0  0  0  0  0  0  0  0  0  0
  -24.8520  -11.9140   20.6920 C   0  0  0  0  0  0  0  0  0  0  0  0
  -26.4780  -13.1730   20.0900 N   0  0  0  0  0  0  0  0  0  0  0  0
  -26.1340  -11.8860   20.3520 N   0  0  0  0  0  0  0  0  0  0  0  0
  -24.1430  -10.6440   20.8920 C   0  0  0  0  0  0  0  0  0  0  0  0
  -24.5690   -9.7010   21.8530 C   0  0  0  0  0  3  0  0  0  0  0  0
  -23.8590   -8.4960   22.0360 C   0  0  0  0  0  3  0  0  0  0  0  0
  -22.7090   -8.2230   21.2580 C   0  0  0  0  0  0  0  0  0  0  0  0
  -22.3010   -9.1560   20.2880 C   0  0  0  0  0  3  0  0  0  0  0  0
  -23.0120  -10.3530   20.1020 C   0  0  0  0  0  3  0  0  0  0  0  0
  -21.9730   -7.0660   21.3480 O   0  0  0  0  0  0  0  0  0  0  0  0
  -21.8650   -6.3730   22.5280 C   0  0  0  0  0  0  0  0  0  0  0  0
  -21.3040   -6.9570   23.6850 C   0  0  0  0  0  3  0  0  0  0  0  0
  -21.1480   -6.1890   24.8560 C   0  0  0  0  0  3  0  0  0  0  0  0
  -21.5400   -4.8370   24.8700 C   0  0  0  0  0  0  0  0  0  0  0  0
  -22.0920   -4.2520   23.7170 C   0  0  0  0  0  3  0  0  0  0  0  0
  -22.2500   -5.0180   22.5480 C   0  0  0  0  0  0  0  0  0  0  0  0
  -22.7660   -4.4450   21.4340 F   0  0  0  0  0  0  0  0  0  0  0  0
  -21.3810   -4.0960   25.9910 F   0  0  0  0  0  0  0  0  0  0  0  0
  -22.9860  -13.7270   21.0450 C   0  0  0  0  0  0  0  0  0  0  0  0
  -22.2850  -13.0260   21.9300 N   0  0  0  0  0  0  0  0  0  0  0  0
  -22.5280  -14.7510   20.5400 O   0  0  0  0  0  0  0  0  0  0  0  0
  -22.6680  -12.1990   22.3630 H   0  0  0  0  0  0  0  0  0  0  0  0
  -21.3520  -13.3230   22.1770 H   0  0  0  0  0  0  0  0  0  0  0  0
  -25.5870  -15.4180   20.1840 N   0  0  0  0  0  0  0  0  0  0  0  0
  -24.8180  -16.0670   20.3160 H   0  0  0  0  0  0  0  0  0  0  0  0
  -26.4190  -15.8600   19.8150 H   0  0  0  0  0  0  0  0  0  0  0  0
  -29.1750  -24.5230   20.2940 C   0  0  0  0  0  2  0  0  0  0  0  0
  -28.5440  -25.5430   19.2930 C   0  0  0  0  0  2  0  0  0  0  0  0
  -28.4530  -26.9010   19.8150 O   0  0  0  0  0  0  0  0  0  0  0  0
  -24.6130  -31.9280   23.1550 C   0  0  0  0  0  0  0  0  0  0  0  0
  -27.2490  -27.6020   19.8490 C   0  0  0  0  0  0  0  0  0  0  0  0
  -23.3860  -30.5480   21.5150 C   0  0  0  0  0  3  0  0  0  0  0  0
  -24.8240  -29.0890   19.9970 C   0  0  0  0  0  0  0  0  0  0  0  0
  -25.9010  -30.9540   21.2520 C   0  0  0  0  0  2  0  0  0  0  0  0
  -25.9930  -29.6020   20.5680 C   0  0  0  0  0  0  0  0  0  0  0  0
  -27.2020  -28.8640   20.4990 C   0  0  0  0  0  3  0  0  0  0  0  0
  -26.0500  -27.1230   19.2610 C   0  0  0  0  0  3  0  0  0  0  0  0
  -24.8510  -27.8480   19.3450 C   0  0  0  0  0  3  0  0  0  0  0  0
  -23.5670  -29.9220   20.1070 C   0  0  0  0  0  2  0  0  0  0  0  0
  -24.6540  -31.1580   22.0320 N   0  0  0  0  0  0  0  0  0  0  0  0
  -23.5440  -32.1610   23.7360 O   0  0  0  0  0  0  0  0  0  0  0  0
  -22.7900  -29.4820   22.4620 C   0  0  0  0  0  0  0  0  0  0  0  0
  -21.4700  -29.2530   22.3540 N   0  0  0  0  0  0  0  0  0  0  0  0
  -23.5090  -28.8660   23.2520 O   0  0  0  0  0  0  0  0  0  0  0  0
  -20.9480  -29.8060   21.6880 H   0  0  0  0  0  0  0  0  0  0  0  0
  -18.1550  -27.9140   22.8740 C   0  0  0  0  0  0  0  0  0  0  0  0
  -20.7030  -28.2710   23.1190 C   0  0  0  0  0  3  0  0  0  0  0  0
  -20.8560  -26.8540   22.5190 C   0  0  0  0  0  2  0  0  0  0  0  0
  -19.7540  -26.5040   21.5130 C   0  0  0  0  0  2  0  0  0  0  0  0
  -18.3760  -26.5830   22.1750 C   0  0  0  0  0  2  0  0  0  0  0  0
  -19.2470  -28.7130   23.3030 C   0  0  0  0  0  0  0  0  0  0  0  0
  -18.9850  -29.9580   23.9180 C   0  0  0  0  0  3  0  0  0  0  0  0
  -17.6620  -30.4030   24.1060 C   0  0  0  0  0  3  0  0  0  0  0  0
  -16.5860  -29.6010   23.6920 C   0  0  0  0  0  3  0  0  0  0  0  0
  -16.8310  -28.3590   23.0810 C   0  0  0  0  0  3  0  0  0  0  0  0
  -25.9040  -32.5710   23.7510 C   0  0  0  0  0  3  0  0  0  0  0  0
  -25.5900  -33.9670   24.0800 N   0  0  0  0  0  0  0  0  0  0  0  0
  -25.9160  -35.0200   23.3190 C   0  0  0  0  0  0  0  0  0  0  0  0
  -26.5830  -34.9180   22.2860 O   0  0  0  0  0  0  0  0  0  0  0  0
  -24.9980  -34.1180   24.8830 H   0  0  0  0  0  0  0  0  0  0  0  0
  -24.1960  -36.8170   22.9420 C   0  0  0  0  0  1  0  0  0  0  0  0
  -25.4210  -36.4060   23.7750 C   0  0  0  0  0  3  0  0  0  0  0  0
  -27.5360  -37.2890   24.6560 C   0  0  0  0  0  1  0  0  0  0  0  0
  -26.4560  -37.4590   23.6870 N   0  0  0  0  0  0  0  0  0  0  0  0
  -26.0470  -38.3780   23.8250 H   0  0  0  0  0  0  0  0  0  0  0  0
  -26.4480  -31.8090   25.0210 C   0  0  1  0  0  0  0  0  0  0  0  0
  -25.3760  -31.5640   26.1070 C   0  0  0  0  0  1  0  0  0  0  0  0
  -27.0410  -30.4380   24.6220 C   0  0  0  0  0  1  0  0  0  0  0  0
  -27.6010  -32.6180   25.6630 C   0  0  0  0  0  1  0  0  0  0  0  0
  1  2  1  0
  3  1  1  0
  4  7  1  0
  4  2  1  0
  5 51  1  0
  5  3  1  0
  5  4  1  0
  5  6  1  6
  7  8  1  0
  8 10  1  0
  9  7  2  0
 11  8  1  0
 11 12  1  0
 13 21  1  0
 14 19  1  0
 15 16  1  0
 15 14  1  0
 17 16  1  0
 17 26  1  0
 17 18  1  0
 19 13  1  0
 19 18  1  0
 20 13  2  0
 21 12  1  0
 21 22  1  0
 23 24  2  0
 24 43  1  0
 25 24  1  0
 25 28  1  0
 26 27  1  0
 26 23  1  0
 27 25  2  0
 28 29  1  0
 29 30  2  0
 31 34  1  0
 31 30  1  0
 32 31  2  0
 33 32  1  0
 33 28  2  0
 34 35  1  0
 35 40  2  0
 35 36  1  0
 36 37  2  0
 37 38  1  0
 38 42  1  0
 39 38  2  0
 40 39  1  0
 41 40  1  0
 43 44  1  0
 44 47  1  0
 44 46  1  0
 45 43  2  0
 48 49  1  0
 48 23  1  0
 50 48  1  0
 52 53  1  0
 52 51  1  0
 53 55  1  0
 54 65  2  0
 55 60  1  0
 56 64  1  0
 56 66  1  0
 57 63  1  0
 57 59  1  0
 58 64  1  0
 59 58  1  0
 60 59  2  0
 61 62  1  0
 61 55  2  0
 62 57  2  0
 63 56  1  0
 64 54  1  0
 66 68  2  0
 67 66  1  0
 69 67  1  0
 70 79  2  0
 70 75  1  0
 71 67  1  0
 71 75  1  0
 72 71  1  0
 73 74  1  0
 73 72  1  0
 74 70  1  0
 75 76  2  0
 76 77  1  0
 78 77  2  0
 79 78  1  0
 80 54  1  0
 80 81  1  0
 80 90  1  0
 81 84  1  0
 82 86  1  0
 82 81  1  0
 83 82  2  0
 86 85  1  0
 88 86  1  0
 88 89  1  0
 88 87  1  0
 90 93  1  1
 90 91  1  0
 92 90  1  0
M  ISO  4  13 100  21 100  52 101  53 101
M  END
>  <TORSDO>  (21) 
F 21

>  <SCORE>  (21) 
-12.774

>  <name>  (21) 
20

>  <ligand_id>  (21) 
20

>  <original_smiles>  (21) 
[H]c1c([H])c([H])c2c(c1[H])C([H])([H])C([H])([H])C([H])([H])C2([H])N([H])C(=O)C1([H])N(C(=O)C([H])(N([H])C(=O)C([H])(N([H])C([H])([H])[H])C([H])([H])[H])C(C([H])([H])[H])(C([H])([H])[H])C([H])([H])[H])C([H])([H])c2c([H])c(OC([H])([H])C([H])([H])[N+]3([H])C([H])([H])C([H])([H])C([H])([H])C3([H])C(=O)N([H])C([H])([H])C([H])([H])N([H])C(=O)N3C([H])([H])C([H])([H])C([H])([H])C([H])(n4nc(-c5c([H])c([H])c(Oc6c([H])c([H])c(F)c([H])c6F)c([H])c5[H])c(C(=O)N([H])[H])c4N([H])[H])C3([H])[H])c([H])c([H])c2C1([H])[H]

>  <smiles>  (21) 
[H]c1c([H])c([H])c2c(c1[H])C([H])([H])C([H])([H])C([H])([H])C2([H])N([H])C(=O)C1([H])N(C(=O)C([H])(N([H])C(=O)C([H])(N([H])C([H])([H])[H])C([H])([H])[H])C(C([H])([H])[H])(C([H])([H])[H])C([H])([H])[H])C([H])([H])c2c([H])c(OC([H])([H])C([H])([H])[N+]3([H])C([H])([H])C([H])([H])C([H])([H])C3([H])C(=O)N([H])C([H])([H])C([H])([H])N([H])C(=O)N3C([H])([H])C([H])([H])C([H])([H])C([H])(n4nc(-c5c([H])c([H])c(Oc6c([H])c([H])c(F)c([H])c6F)c([H])c5[H])c(C(=O)N([H])[H])c4N([H])[H])C3([H])[H])c([H])c([H])c2C1([H])[H]

$$$$
21:0:0
     RDKit          3D

 97105  0  0  1  0  0  0  0  0999 V2000
  -26.5580  -21.7700   20.4400 C   0  0  0  0  0  1  0  0  0  0  0  0
  -26.9650  -19.7190   19.0990 C   0  0  0  0  0  1  0  0  0  0  0  0
  -27.6490  -20.9850   19.6700 C   0  0  2  0  0  0  0  0  0  0  0  0
  -28.7690  -20.5960   20.7040 C   0  0  0  0  0  2  0  0  0  0  0  0
  -30.2830  -17.3370   19.3420 C   0  0  0  0  0  2  0  0  0  0  0  0
  -30.5470  -17.3920   21.8560 C   0  0  0  0  0  2  0  0  0  0  0  0
  -29.9930  -18.8390   19.3960 C   0  0  0  0  0  2  0  0  0  0  0  0
  -30.1430  -18.8770   21.8220 C   0  0  0  0  0  2  0  0  0  0  0  0
  -31.1410  -16.8580   20.5320 C   0  0  0  0  0  3  0  0  0  0  0  0
  -29.2830  -19.1970   20.6500 N   0  0  1  0  0  4  0  0  0  0  0  0
  -28.4660  -18.6070   20.7250 H   0  0  0  0  0  0  0  0  0  0  0  0
  -31.6230  -14.4780   19.8170 C   0  0  0  0  0  0  0  0  0  0  0  0
  -31.2140  -12.2050   18.9490 C   0  0  0  0  0  2  0  0  0  0  0  0
  -30.2300  -12.2300   17.7630 C   0  0  0  0  0  2  0  0  0  0  0  0
  -28.7620  -12.2430   18.2360 C   0  0  0  0  0  2  0  0  0  0  0  0
  -28.4990  -13.3030   19.3360 C   0  0  0  0  0  3  0  0  0  0  0  0
  -29.5620  -13.1820   20.4480 C   0  0  0  0  0  2  0  0  0  0  0  0
  -30.9040  -13.3310   19.8380 N   0  0  0  0  0  0  0  0  0  0  0  0
  -32.6090  -14.6750   19.0960 O   0  0  0  0  0  0  0  0  0  0  0  0
  -31.1200  -15.4050   20.6360 N   0  0  0  0  0  0  0  0  0  0  0  0
  -30.4290  -15.0310   21.2690 H   0  0  0  0  0  0  0  0  0  0  0  0
  -26.2090  -14.1840   20.1400 C   0  0  0  0  0  0  0  0  0  0  0  0
  -25.0820  -13.5360   20.5700 C   0  0  0  0  0  0  0  0  0  0  0  0
  -25.3870  -12.1420   20.5200 C   0  0  0  0  0  0  0  0  0  0  0  0
  -27.1410  -13.1920   19.8700 N   0  0  0  0  0  0  0  0  0  0  0  0
  -26.6490  -11.9590   20.1510 N   0  0  0  0  0  0  0  0  0  0  0  0
  -24.5360  -10.9680   20.7490 C   0  0  0  0  0  0  0  0  0  0  0  0
  -24.8870   -9.9760   21.6920 C   0  0  0  0  0  3  0  0  0  0  0  0
  -24.0450   -8.8650   21.9080 C   0  0  0  0  0  3  0  0  0  0  0  0
  -22.8360   -8.7380   21.1830 C   0  0  0  0  0  0  0  0  0  0  0  0
  -22.5010   -9.7180   20.2330 C   0  0  0  0  0  3  0  0  0  0  0  0
  -23.3420  -10.8230   20.0140 C   0  0  0  0  0  3  0  0  0  0  0  0
  -21.9700   -7.6790   21.3110 O   0  0  0  0  0  0  0  0  0  0  0  0
  -21.8330   -6.9990   22.4950 C   0  0  0  0  0  0  0  0  0  0  0  0
  -21.4510   -7.6510   23.6880 C   0  0  0  0  0  3  0  0  0  0  0  0
  -21.2500   -6.9020   24.8640 C   0  0  0  0  0  3  0  0  0  0  0  0
  -21.4220   -5.5060   24.8490 C   0  0  0  0  0  0  0  0  0  0  0  0
  -21.7990   -4.8550   23.6610 C   0  0  0  0  0  3  0  0  0  0  0  0
  -22.0000   -5.6010   22.4870 C   0  0  0  0  0  0  0  0  0  0  0  0
  -22.3380   -4.9660   21.3370 F   0  0  0  0  0  0  0  0  0  0  0  0
  -21.2220   -4.7850   25.9770 F   0  0  0  0  0  0  0  0  0  0  0  0
  -23.7630  -14.1670   20.9100 C   0  0  0  0  0  0  0  0  0  0  0  0
  -23.0300  -13.5910   21.8590 N   0  0  0  0  0  0  0  0  0  0  0  0
  -23.3930  -15.2070   20.3680 O   0  0  0  0  0  0  0  0  0  0  0  0
  -23.3330  -12.7470   22.3200 H   0  0  0  0  0  0  0  0  0  0  0  0
  -22.1480  -14.0050   22.1260 H   0  0  0  0  0  0  0  0  0  0  0  0
  -26.5110  -15.5270   19.9360 N   0  0  0  0  0  0  0  0  0  0  0  0
  -25.7780  -16.2250   19.9960 H   0  0  0  0  0  0  0  0  0  0  0  0
  -27.3120  -15.8330   19.3980 H   0  0  0  0  0  0  0  0  0  0  0  0
  -28.1270  -21.8850   18.4810 C   0  0  0  0  0  2  0  0  0  0  0  0
  -29.0040  -23.0060   18.8940 N   0  0  0  0  0  4  0  0  0  0  0  0
  -28.4900  -23.5600   19.5570 H   0  0  0  0  0  0  0  0  0  0  0  0
  -29.8340  -22.6660   19.3540 H   0  0  0  0  0  0  0  0  0  0  0  0
  -29.4360  -23.9050   17.7980 C   0  0  0  0  0  2  0  0  0  0  0  0
  -29.4860  -25.3690   18.2690 C   0  0  0  0  0  2  0  0  0  0  0  0
  -28.0720  -25.9240   18.4830 C   0  0  0  0  0  2  0  0  0  0  0  0
  -28.0990  -27.1710   19.1580 O   0  0  0  0  0  0  0  0  0  0  0  0
  -24.4800  -31.7350   23.2140 C   0  0  0  0  0  0  0  0  0  0  0  0
  -26.8910  -27.8070   19.3580 C   0  0  0  0  0  0  0  0  0  0  0  0
  -23.1440  -30.5250   21.5200 C   0  0  0  0  0  3  0  0  0  0  0  0
  -24.4760  -29.2170   19.7910 C   0  0  0  0  0  0  0  0  0  0  0  0
  -25.6330  -30.9740   21.1410 C   0  0  0  0  0  2  0  0  0  0  0  0
  -25.6770  -29.6980   20.3270 C   0  0  0  0  0  0  0  0  0  0  0  0
  -26.8820  -29.0010   20.1090 C   0  0  0  0  0  3  0  0  0  0  0  0
  -25.6630  -27.3240   18.8370 C   0  0  0  0  0  3  0  0  0  0  0  0
  -24.4640  -28.0240   19.0510 C   0  0  0  0  0  3  0  0  0  0  0  0
  -23.2290  -30.0250   20.0550 C   0  0  0  0  0  2  0  0  0  0  0  0
  -24.4440  -31.0820   22.0170 N   0  0  0  0  0  0  0  0  0  0  0  0
  -23.4500  -31.9170   23.8760 O   0  0  0  0  0  0  0  0  0  0  0  0
  -22.5950  -29.3750   22.3930 C   0  0  0  0  0  0  0  0  0  0  0  0
  -21.2850  -29.1060   22.2700 N   0  0  0  0  0  0  0  0  0  0  0  0
  -23.3430  -28.7320   23.1340 O   0  0  0  0  0  0  0  0  0  0  0  0
  -20.7410  -29.6840   21.6450 H   0  0  0  0  0  0  0  0  0  0  0  0
  -18.0540  -27.5150   22.5700 C   0  0  0  0  0  0  0  0  0  0  0  0
  -20.5550  -28.0460   22.9630 C   0  0  0  0  0  3  0  0  0  0  0  0
  -20.8440  -26.6660   22.3320 C   0  0  0  0  0  2  0  0  0  0  0  0
  -19.8270  -26.2670   21.2580 C   0  0  0  0  0  2  0  0  0  0  0  0
  -18.4120  -26.2260   21.8460 C   0  0  0  0  0  2  0  0  0  0  0  0
  -19.0610  -28.3760   23.0780 C   0  0  0  0  0  0  0  0  0  0  0  0
  -18.6770  -29.5810   23.7080 C   0  0  0  0  0  3  0  0  0  0  0  0
  -17.3190  -29.9270   23.8300 C   0  0  0  0  0  3  0  0  0  0  0  0
  -16.3250  -29.0600   23.3450 C   0  0  0  0  0  3  0  0  0  0  0  0
  -16.6930  -27.8550   22.7210 C   0  0  0  0  0  3  0  0  0  0  0  0
  -25.8140  -32.3070   23.7910 C   0  0  0  0  0  3  0  0  0  0  0  0
  -25.5710  -33.7040   24.1630 N   0  0  0  0  0  0  0  0  0  0  0  0
  -25.9080  -34.7580   23.4100 C   0  0  0  0  0  0  0  0  0  0  0  0
  -26.5340  -34.6560   22.3520 O   0  0  0  0  0  0  0  0  0  0  0  0
  -25.0290  -33.8650   25.0000 H   0  0  0  0  0  0  0  0  0  0  0  0
  -24.2240  -36.6040   23.1600 C   0  0  0  0  0  1  0  0  0  0  0  0
  -25.4840  -36.1500   23.9130 C   0  0  0  0  0  3  0  0  0  0  0  0
  -27.6750  -36.9520   24.6780 C   0  0  0  0  0  1  0  0  0  0  0  0
  -26.5430  -37.1730   23.7790 N   0  0  0  0  0  0  0  0  0  0  0  0
  -26.1710  -38.1010   23.9600 H   0  0  0  0  0  0  0  0  0  0  0  0
  -26.3630  -31.4880   25.0240 C   0  0  1  0  0  0  0  0  0  0  0  0
  -25.3190  -31.2740   26.1430 C   0  0  0  0  0  1  0  0  0  0  0  0
  -26.8630  -30.0950   24.5730 C   0  0  0  0  0  1  0  0  0  0  0  0
  -27.5810  -32.2200   25.6390 C   0  0  0  0  0  1  0  0  0  0  0  0
  3  2  1  6
  3  1  1  0
  3  4  1  0
  5  7  1  0
  5  9  1  0
  7 10  1  0
  8  6  1  0
  9 20  1  0
  9  6  1  0
 10  4  1  0
 10 11  1  1
 10  8  1  0
 12 18  1  0
 12 20  1  0
 13 18  1  0
 14 15  1  0
 14 13  1  0
 16 15  1  0
 16 25  1  0
 16 17  1  0
 18 17  1  0
 19 12  2  0
 20 21  1  0
 22 23  2  0
 23 42  1  0
 24 23  1  0
 24 27  1  0
 25 22  1  0
 25 26  1  0
 26 24  2  0
 27 28  1  0
 28 29  2  0
 30 33  1  0
 30 29  1  0
 31 30  2  0
 32 31  1  0
 32 27  2  0
 33 34  1  0
 34 35  1  0
 35 36  2  0
 37 36  1  0
 37 41  1  0
 38 37  2  0
 39 34  2  0
 39 38  1  0
 40 39  1  0
 42 43  1  0
 43 46  1  0
 43 45  1  0
 44 42  2  0
 47 48  1  0
 47 22  1  0
 49 47  1  0
 50 51  1  0
 50  3  1  0
 51 53  1  0
 51 52  1  0
 54 55  1  0
 54 51  1  0
 55 56  1  0
 56 57  1  0
 57 59  1  0
 58 69  2  0
 59 64  1  0
 60 68  1  0
 60 70  1  0
 61 67  1  0
 61 63  1  0
 62 68  1  0
 63 62  1  0
 64 63  2  0
 65 66  1  0
 65 59  2  0
 66 61  2  0
 67 60  1  0
 68 58  1  0
 70 72  2  0
 71 70  1  0
 73 71  1  0
 74 83  2  0
 74 79  1  0
 75 71  1  0
 75 79  1  0
 76 75  1  0
 77 78  1  0
 77 76  1  0
 78 74  1  0
 79 80  2  0
 80 81  1  0
 82 81  2  0
 83 82  1  0
 84 58  1  0
 84 85  1  0
 84 94  1  0
 85 88  1  0
 86 90  1  0
 86 85  1  0
 87 86  2  0
 90 89  1  0
 92 90  1  0
 92 93  1  0
 92 91  1  0
 94 97  1  1
 94 95  1  0
 96 94  1  0
M  ISO  4  12 100  20 100  56 101  57 101
M  END
>  <TORSDO>  (22) 
F 23

>  <SCORE>  (22) 
-10.635

>  <name>  (22) 
21

>  <ligand_id>  (22) 
21

>  <original_smiles>  (22) 
[H]c1c([H])c([H])c2c(c1[H])C([H])([H])C([H])([H])C([H])([H])C2([H])N([H])C(=O)C1([H])N(C(=O)C([H])(N([H])C(=O)C([H])(N([H])C([H])([H])[H])C([H])([H])[H])C(C([H])([H])[H])(C([H])([H])[H])C([H])([H])[H])C([H])([H])c2c([H])c(OC([H])([H])C([H])([H])C([H])([H])[N+]([H])([H])C([H])([H])C(C([H])([H])[H])(C([H])([H])[H])C([H])([H])[N+]3([H])C([H])([H])C([H])([H])C([H])(N([H])C(=O)N4C([H])([H])C([H])([H])C([H])([H])C([H])(n5nc(-c6c([H])c([H])c(Oc7c([H])c([H])c(F)c([H])c7F)c([H])c6[H])c(C(=O)N([H])[H])c5N([H])[H])C4([H])[H])C([H])([H])C3([H])[H])c([H])c([H])c2C1([H])[H]

>  <smiles>  (22) 
[H]c1c([H])c([H])c2c(c1[H])C([H])([H])C([H])([H])C([H])([H])C2([H])N([H])C(=O)C1([H])N(C(=O)C([H])(N([H])C(=O)C([H])(N([H])C([H])([H])[H])C([H])([H])[H])C(C([H])([H])[H])(C([H])([H])[H])C([H])([H])[H])C([H])([H])c2c([H])c(OC([H])([H])C([H])([H])C([H])([H])[N+]([H])([H])C([H])([H])C(C([H])([H])[H])(C([H])([H])[H])C([H])([H])[N+]3([H])C([H])([H])C([H])([H])C([H])(N([H])C(=O)N4C([H])([H])C([H])([H])C([H])([H])C([H])(n5nc(-c6c([H])c([H])c(Oc7c([H])c([H])c(F)c([H])c7F)c([H])c6[H])c(C(=O)N([H])[H])c5N([H])[H])C4([H])[H])C([H])([H])C3([H])[H])c([H])c([H])c2C1([H])[H]

$$$$
22:0:0
     RDKit          3D

 97106  0  0  1  0  0  0  0  0999 V2000
  -26.4470  -21.6920   21.5330 C   0  0  0  0  0  2  0  0  0  0  0  0
  -26.4830  -22.0230   20.0410 C   0  0  0  0  0  2  0  0  0  0  0  0
  -27.6270  -22.4790   22.1280 C   0  0  0  0  0  2  0  0  0  0  0  0
  -27.9770  -22.2920   19.7750 C   0  0  0  0  0  3  0  0  0  0  0  0
  -28.3920  -23.0460   20.9860 N   0  0  1  0  0  4  0  0  0  0  0  0
  -29.3810  -22.8430   21.1220 H   0  0  0  0  0  0  0  0  0  0  0  0
  -28.2450  -19.9310   18.8180 C   0  0  0  0  0  3  0  0  0  0  0  0
  -28.9160  -18.7040   18.6890 C   0  0  0  0  0  3  0  0  0  0  0  0
  -30.7110  -19.5430   20.0990 C   0  0  0  0  0  3  0  0  0  0  0  0
  -28.7820  -20.9830   19.6030 C   0  0  0  0  0  0  0  0  0  0  0  0
  -30.1540  -18.5060   19.3320 C   0  0  0  0  0  0  0  0  0  0  0  0
  -30.0440  -20.7750   20.2220 C   0  0  0  0  0  0  0  0  0  0  0  0
  -30.6390  -21.7550   20.9460 F   0  0  0  0  0  0  0  0  0  0  0  0
  -30.9270  -17.2210   19.1310 C   0  0  0  0  0  2  0  0  0  0  0  0
  -31.5380  -15.1840   20.2900 C   0  0  0  0  0  0  0  0  0  0  0  0
  -31.2780  -12.9400   19.3840 C   0  0  0  0  0  2  0  0  0  0  0  0
  -30.3880  -13.0860   18.1320 C   0  0  0  0  0  2  0  0  0  0  0  0
  -28.8980  -12.9950   18.5130 C   0  0  0  0  0  2  0  0  0  0  0  0
  -28.5180  -13.9150   19.7040 C   0  0  0  0  0  3  0  0  0  0  0  0
  -29.5370  -13.7870   20.8650 C   0  0  0  0  0  2  0  0  0  0  0  0
  -30.8880  -13.9990   20.3260 N   0  0  0  0  0  0  0  0  0  0  0  0
  -32.7290  -15.3080   19.9940 O   0  0  0  0  0  0  0  0  0  0  0  0
  -30.7120  -16.2270   20.1780 N   0  0  0  0  0  0  0  0  0  0  0  0
  -29.7580  -16.0630   20.4580 H   0  0  0  0  0  0  0  0  0  0  0  0
  -26.1280  -14.5780   20.3820 C   0  0  0  0  0  0  0  0  0  0  0  0
  -25.0310  -13.8280   20.7140 C   0  0  0  0  0  0  0  0  0  0  0  0
  -25.4590  -12.4660   20.6790 C   0  0  0  0  0  0  0  0  0  0  0  0
  -27.1530  -13.6720   20.1560 N   0  0  0  0  0  0  0  0  0  0  0  0
  -26.7530  -12.3960   20.3950 N   0  0  0  0  0  0  0  0  0  0  0  0
  -24.6990  -11.2200   20.8420 C   0  0  0  0  0  0  0  0  0  0  0  0
  -25.0290  -10.2720   21.8380 C   0  0  0  0  0  3  0  0  0  0  0  0
  -24.2720   -9.0900   21.9800 C   0  0  0  0  0  3  0  0  0  0  0  0
  -23.1700   -8.8450   21.1290 C   0  0  0  0  0  0  0  0  0  0  0  0
  -22.8590   -9.7790   20.1250 C   0  0  0  0  0  3  0  0  0  0  0  0
  -23.6190  -10.9530   19.9790 C   0  0  0  0  0  3  0  0  0  0  0  0
  -22.3960   -7.7100   21.1790 O   0  0  0  0  0  0  0  0  0  0  0  0
  -22.1230   -7.0780   22.3640 C   0  0  0  0  0  0  0  0  0  0  0  0
  -21.4670   -7.7350   23.4290 C   0  0  0  0  0  3  0  0  0  0  0  0
  -21.1530   -7.0280   24.6060 C   0  0  0  0  0  3  0  0  0  0  0  0
  -21.4780   -5.6630   24.7170 C   0  0  0  0  0  0  0  0  0  0  0  0
  -22.1210   -5.0040   23.6550 C   0  0  0  0  0  3  0  0  0  0  0  0
  -22.4420   -5.7100   22.4810 C   0  0  0  0  0  0  0  0  0  0  0  0
  -23.0460   -5.0660   21.4520 F   0  0  0  0  0  0  0  0  0  0  0  0
  -21.1660   -4.9790   25.8430 F   0  0  0  0  0  0  0  0  0  0  0  0
  -23.6410  -14.3400   20.9630 C   0  0  0  0  0  0  0  0  0  0  0  0
  -22.8850  -13.6630   21.8220 N   0  0  0  0  0  0  0  0  0  0  0  0
  -23.2330  -15.3750   20.4350 O   0  0  0  0  0  0  0  0  0  0  0  0
  -23.2260  -12.8230   22.2680 H   0  0  0  0  0  0  0  0  0  0  0  0
  -21.9520  -13.9830   22.0340 H   0  0  0  0  0  0  0  0  0  0  0  0
  -26.3290  -15.9500   20.2340 N   0  0  0  0  0  0  0  0  0  0  0  0
  -25.5840  -16.6200   20.3860 H   0  0  0  0  0  0  0  0  0  0  0  0
  -27.2070  -16.3910   19.9940 H   0  0  0  0  0  0  0  0  0  0  0  0
  -28.2940  -24.5310   20.9050 C   0  0  0  0  0  2  0  0  0  0  0  0
  -29.3270  -25.1730   19.9550 C   0  0  0  0  0  3  0  0  0  0  0  0
  -30.4880  -24.5310   20.1100 F   0  0  0  0  0  0  0  0  0  0  0  0
  -29.5500  -26.6860   20.2150 C   0  0  0  0  0  2  0  0  0  0  0  0
  -29.0090  -27.4790   19.1620 O   0  0  0  0  0  0  0  0  0  0  0  0
  -24.6560  -31.5860   23.0640 C   0  0  0  0  0  0  0  0  0  0  0  0
  -27.7570  -27.9980   19.3740 C   0  0  0  0  0  0  0  0  0  0  0  0
  -23.5910  -30.2810   21.2510 C   0  0  0  0  0  3  0  0  0  0  0  0
  -25.1910  -29.1390   19.6250 C   0  0  0  0  0  0  0  0  0  0  0  0
  -26.0410  -30.9860   21.0830 C   0  0  0  0  0  2  0  0  0  0  0  0
  -26.2850  -29.7310   20.2730 C   0  0  0  0  0  0  0  0  0  0  0  0
  -27.5720  -29.1630   20.1510 C   0  0  0  0  0  3  0  0  0  0  0  0
  -26.6500  -27.4050   18.7360 C   0  0  0  0  0  3  0  0  0  0  0  0
  -25.3650  -27.9690   18.8640 C   0  0  0  0  0  3  0  0  0  0  0  0
  -23.8490  -29.8150   19.7930 C   0  0  0  0  0  2  0  0  0  0  0  0
  -24.7810  -30.9590   21.8600 N   0  0  0  0  0  0  0  0  0  0  0  0
  -23.5640  -31.6430   23.6450 O   0  0  0  0  0  0  0  0  0  0  0  0
  -23.0950  -29.0660   22.0690 C   0  0  0  0  0  0  0  0  0  0  0  0
  -21.8100  -28.7160   21.8970 N   0  0  0  0  0  0  0  0  0  0  0  0
  -23.8630  -28.4470   22.8100 O   0  0  0  0  0  0  0  0  0  0  0  0
  -21.2450  -29.2780   21.2740 H   0  0  0  0  0  0  0  0  0  0  0  0
  -18.6540  -26.9750   22.1400 C   0  0  0  0  0  0  0  0  0  0  0  0
  -21.1350  -27.5830   22.5290 C   0  0  0  0  0  3  0  0  0  0  0  0
  -21.4690  -26.2600   21.7990 C   0  0  0  0  0  2  0  0  0  0  0  0
  -20.4480  -25.8960   20.7170 C   0  0  0  0  0  2  0  0  0  0  0  0
  -19.0480  -25.7550   21.3250 C   0  0  0  0  0  2  0  0  0  0  0  0
  -19.6350  -27.8420   22.6910 C   0  0  0  0  0  0  0  0  0  0  0  0
  -19.2130  -28.9820   23.4110 C   0  0  0  0  0  3  0  0  0  0  0  0
  -17.8450  -29.2580   23.5850 C   0  0  0  0  0  3  0  0  0  0  0  0
  -16.8790  -28.3880   23.0500 C   0  0  0  0  0  3  0  0  0  0  0  0
  -17.2850  -27.2490   22.3330 C   0  0  0  0  0  3  0  0  0  0  0  0
  -25.8700  -32.2830   23.7550 C   0  0  0  0  0  3  0  0  0  0  0  0
  -25.4460  -33.6360   24.1340 N   0  0  0  0  0  0  0  0  0  0  0  0
  -25.7370  -34.7450   23.4410 C   0  0  0  0  0  0  0  0  0  0  0  0
  -26.4620  -34.7390   22.4410 O   0  0  0  0  0  0  0  0  0  0  0  0
  -24.8020  -33.7090   24.9090 H   0  0  0  0  0  0  0  0  0  0  0  0
  -23.9030  -36.4270   23.0810 C   0  0  0  0  0  1  0  0  0  0  0  0
  -25.1310  -36.0720   23.9360 C   0  0  0  0  0  3  0  0  0  0  0  0
  -27.1500  -37.0650   24.9190 C   0  0  0  0  0  1  0  0  0  0  0  0
  -26.0890  -37.1990   23.9230 N   0  0  0  0  0  0  0  0  0  0  0  0
  -25.6110  -38.0800   24.0840 H   0  0  0  0  0  0  0  0  0  0  0  0
  -26.4060  -31.4920   25.0120 C   0  0  1  0  0  0  0  0  0  0  0  0
  -25.3030  -31.1290   26.0340 C   0  0  0  0  0  1  0  0  0  0  0  0
  -27.0950  -30.1780   24.5730 C   0  0  0  0  0  1  0  0  0  0  0  0
  -27.4790  -32.3320   25.7410 C   0  0  0  0  0  1  0  0  0  0  0  0
  1  3  1  0
  2  1  1  0
  4 10  1  0
  4  2  1  0
  4  5  1  0
  5  6  1  1
  5  3  1  0
  7 10  1  0
  8  7  2  0
  8 11  1  0
  9 12  1  0
 10 12  2  0
 11  9  2  0
 12 13  1  0
 14 11  1  0
 14 23  1  0
 15 21  1  0
 16 21  1  0
 17 18  1  0
 17 16  1  0
 19 18  1  0
 19 28  1  0
 19 20  1  0
 21 20  1  0
 22 15  2  0
 23 15  1  0
 23 24  1  0
 25 26  2  0
 26 45  1  0
 27 26  1  0
 27 30  1  0
 28 25  1  0
 28 29  1  0
 29 27  2  0
 30 31  1  0
 31 32  2  0
 33 36  1  0
 33 32  1  0
 34 33  2  0
 35 34  1  0
 35 30  2  0
 36 37  1  0
 37 42  2  0
 37 38  1  0
 38 39  2  0
 39 40  1  0
 40 44  1  0
 41 40  2  0
 42 41  1  0
 43 42  1  0
 45 46  1  0
 46 49  1  0
 46 48  1  0
 47 45  2  0
 50 25  1  0
 50 51  1  0
 52 50  1  0
 53  5  1  0
 54 55  1  0
 54 56  1  0
 54 53  1  0
 57 59  1  0
 57 56  1  0
 58 69  2  0
 59 64  1  0
 60 68  1  0
 60 70  1  0
 61 67  1  0
 61 63  1  0
 62 68  1  0
 63 62  1  0
 64 63  2  0
 65 66  1  0
 65 59  2  0
 66 61  2  0
 67 60  1  0
 68 58  1  0
 70 72  2  0
 71 70  1  0
 73 71  1  0
 74 83  2  0
 74 79  1  0
 75 71  1  0
 75 79  1  0
 76 75  1  0
 77 78  1  0
 77 76  1  0
 78 74  1  0
 79 80  2  0
 80 81  1  0
 82 81  2  0
 83 82  1  0
 84 58  1  0
 84 85  1  0
 84 94  1  0
 85 88  1  0
 86 90  1  0
 86 85  1  0
 87 86  2  0
 90 89  1  0
 92 90  1  0
 92 93  1  0
 92 91  1  0
 94 97  1  1
 94 95  1  0
 96 94  1  0
M  ISO  4  15 100  23 100  56 101  57 101
M  END
>  <TORSDO>  (23) 
F 21

>  <SCORE>  (23) 
-7.824

>  <name>  (23) 
22

>  <ligand_id>  (23) 
22

>  <original_smiles>  (23) 
[H]c1c([H])c([H])c2c(c1[H])C([H])([H])C([H])([H])C([H])([H])C2([H])N([H])C(=O)C1([H])N(C(=O)C([H])(N([H])C(=O)C([H])(N([H])C([H])([H])[H])C([H])([H])[H])C(C([H])([H])[H])(C([H])([H])[H])C([H])([H])[H])C([H])([H])c2c([H])c(OC([H])([H])C([H])(F)C([H])([H])[N+]3([H])C([H])([H])C([H])([H])C([H])([H])C3([H])c3c([H])c([H])c(C([H])([H])N([H])C(=O)N4C([H])([H])C([H])([H])C([H])([H])C([H])(n5nc(-c6c([H])c([H])c(Oc7c([H])c([H])c(F)c([H])c7F)c([H])c6[H])c(C(=O)N([H])[H])c5N([H])[H])C4([H])[H])c([H])c3F)c([H])c([H])c2C1([H])[H]

>  <smiles>  (23) 
[H]c1c([H])c([H])c2c(c1[H])C([H])([H])C([H])([H])C([H])([H])C2([H])N([H])C(=O)C1([H])N(C(=O)C([H])(N([H])C(=O)C([H])(N([H])C([H])([H])[H])C([H])([H])[H])C(C([H])([H])[H])(C([H])([H])[H])C([H])([H])[H])C([H])([H])c2c([H])c(OC([H])([H])C([H])(F)C([H])([H])[N+]3([H])C([H])([H])C([H])([H])C([H])([H])C3([H])c3c([H])c([H])c(C([H])([H])N([H])C(=O)N4C([H])([H])C([H])([H])C([H])([H])C([H])(n5nc(-c6c([H])c([H])c(Oc7c([H])c([H])c(F)c([H])c7F)c([H])c6[H])c(C(=O)N([H])[H])c5N([H])[H])C4([H])[H])c([H])c3F)c([H])c([H])c2C1([H])[H]

$$$$
23:0:0
     RDKit          3D

101109  0  0  1  0  0  0  0  0999 V2000
  -30.4950  -20.3230   22.5690 C   0  0  0  0  0  2  0  0  0  0  0  0
  -31.1790  -18.9670   22.3470 C   0  0  0  0  0  2  0  0  0  0  0  0
  -29.1040  -19.9130   20.5330 C   0  0  0  0  0  2  0  0  0  0  0  0
  -30.0450  -20.9330   21.2340 C   0  0  0  0  0  3  0  0  0  0  0  0
  -30.2880  -17.9470   21.5870 C   0  0  0  0  0  3  0  0  0  0  0  0
  -29.7610  -18.5850   20.3460 N   0  0  0  0  0  4  0  0  0  0  0  0
  -30.5190  -18.7060   19.6940 H   0  0  0  0  0  0  0  0  0  0  0  0
  -29.0980  -17.9620   19.9170 H   0  0  0  0  0  0  0  0  0  0  0  0
  -29.4560  -22.2630   21.5020 N   0  0  0  0  0  0  0  0  0  0  0  0
  -28.6060  -22.1740   22.0610 H   0  0  0  0  0  0  0  0  0  0  0  0
  -29.2020  -23.1610   20.3530 C   0  0  0  0  0  2  0  0  0  0  0  0
  -29.0360  -24.6430   20.8140 C   0  0  0  0  0  3  0  0  0  0  0  0
  -30.2730  -25.0200   21.4000 O   0  0  0  0  0  0  0  0  0  0  0  0
  -30.2280  -25.9630   21.5330 H   0  0  0  0  0  0  0  0  0  0  0  0
  -28.7750  -25.6580   19.6700 C   0  0  0  0  0  2  0  0  0  0  0  0
  -28.5670  -26.9840   20.2060 O   0  0  0  0  0  0  0  0  0  0  0  0
  -24.5280  -31.9690   23.2880 C   0  0  0  0  0  0  0  0  0  0  0  0
  -27.3400  -27.6260   20.1840 C   0  0  0  0  0  0  0  0  0  0  0  0
  -23.3860  -30.5610   21.6070 C   0  0  0  0  0  3  0  0  0  0  0  0
  -24.9000  -29.0820   20.1860 C   0  0  0  0  0  0  0  0  0  0  0  0
  -25.9060  -30.9840   21.4570 C   0  0  0  0  0  2  0  0  0  0  0  0
  -26.0350  -29.6230   20.8000 C   0  0  0  0  0  0  0  0  0  0  0  0
  -27.2510  -28.9010   20.7950 C   0  0  0  0  0  3  0  0  0  0  0  0
  -26.1760  -27.1000   19.5730 C   0  0  0  0  0  3  0  0  0  0  0  0
  -24.9670  -27.8200   19.5720 C   0  0  0  0  0  3  0  0  0  0  0  0
  -23.6360  -29.9090   20.2210 C   0  0  0  0  0  2  0  0  0  0  0  0
  -24.6240  -31.1860   22.1750 N   0  0  0  0  0  0  0  0  0  0  0  0
  -23.4310  -32.2060   23.8130 O   0  0  0  0  0  0  0  0  0  0  0  0
  -22.7470  -29.5080   22.5420 C   0  0  0  0  0  0  0  0  0  0  0  0
  -21.4430  -29.2530   22.3530 N   0  0  0  0  0  0  0  0  0  0  0  0
  -23.4250  -28.9240   23.3910 O   0  0  0  0  0  0  0  0  0  0  0  0
  -20.9560  -29.7810   21.6420 H   0  0  0  0  0  0  0  0  0  0  0  0
  -18.1270  -27.8500   22.6660 C   0  0  0  0  0  0  0  0  0  0  0  0
  -20.6420  -28.2740   23.0890 C   0  0  0  0  0  3  0  0  0  0  0  0
  -20.8710  -26.8460   22.5430 C   0  0  0  0  0  2  0  0  0  0  0  0
  -19.8550  -26.4400   21.4700 C   0  0  0  0  0  2  0  0  0  0  0  0
  -18.4300  -26.5050   22.0270 C   0  0  0  0  0  2  0  0  0  0  0  0
  -19.1680  -28.6860   23.1510 C   0  0  0  0  0  0  0  0  0  0  0  0
  -18.8340  -29.9420   23.7060 C   0  0  0  0  0  3  0  0  0  0  0  0
  -17.4930  -30.3610   23.7840 C   0  0  0  0  0  3  0  0  0  0  0  0
  -16.4660  -29.5210   23.3190 C   0  0  0  0  0  3  0  0  0  0  0  0
  -16.7840  -28.2680   22.7640 C   0  0  0  0  0  3  0  0  0  0  0  0
  -25.7850  -32.6260   23.9380 C   0  0  0  0  0  3  0  0  0  0  0  0
  -26.2710  -31.8830   25.2430 C   0  0  1  0  0  0  0  0  0  0  0  0
  -25.1390  -31.6160   26.2630 C   0  0  0  0  0  1  0  0  0  0  0  0
  -26.9170  -30.5240   24.8870 C   0  0  0  0  0  1  0  0  0  0  0  0
  -27.3630  -32.7200   25.9470 C   0  0  0  0  0  1  0  0  0  0  0  0
  -25.4540  -34.0270   24.2310 N   0  0  0  0  0  0  0  0  0  0  0  0
  -25.7920  -35.0660   23.4560 C   0  0  0  0  0  0  0  0  0  0  0  0
  -26.4850  -34.9470   22.4410 O   0  0  0  0  0  0  0  0  0  0  0  0
  -24.8420  -34.1920   25.0150 H   0  0  0  0  0  0  0  0  0  0  0  0
  -24.0470  -36.8230   23.0220 C   0  0  0  0  0  1  0  0  0  0  0  0
  -25.2750  -36.4570   23.8690 C   0  0  0  0  0  3  0  0  0  0  0  0
  -27.3820  -37.3890   24.7190 C   0  0  0  0  0  1  0  0  0  0  0  0
  -26.2950  -37.5220   23.7510 N   0  0  0  0  0  0  0  0  0  0  0  0
  -25.8750  -38.4390   23.8710 H   0  0  0  0  0  0  0  0  0  0  0  0
  -31.0660  -16.6130   21.2860 C   0  0  0  0  0  3  0  0  0  0  0  0
  -30.6300  -14.5300   19.9730 C   0  0  0  0  0  0  0  0  0  0  0  0
  -30.1600  -12.3890   18.8370 C   0  0  0  0  0  2  0  0  0  0  0  0
  -29.1230  -12.5680   17.7120 C   0  0  0  0  0  2  0  0  0  0  0  0
  -27.6960  -12.4340   18.2730 C   0  0  0  0  0  2  0  0  0  0  0  0
  -27.4670  -13.2980   19.5410 C   0  0  0  0  0  3  0  0  0  0  0  0
  -28.6130  -13.1150   20.5630 C   0  0  0  0  0  2  0  0  0  0  0  0
  -29.8860  -13.3940   19.8790 N   0  0  0  0  0  0  0  0  0  0  0  0
  -31.6420  -14.7120   19.2940 O   0  0  0  0  0  0  0  0  0  0  0  0
  -30.2200  -15.4730   20.8500 N   0  0  0  0  0  0  0  0  0  0  0  0
  -29.3670  -15.2780   21.3530 H   0  0  0  0  0  0  0  0  0  0  0  0
  -25.1640  -13.9250   20.5000 C   0  0  0  0  0  0  0  0  0  0  0  0
  -24.1160  -13.1610   20.9410 C   0  0  0  0  0  0  0  0  0  0  0  0
  -24.5380  -11.8020   20.8130 C   0  0  0  0  0  0  0  0  0  0  0  0
  -26.1600  -13.0320   20.1370 N   0  0  0  0  0  0  0  0  0  0  0  0
  -25.7920  -11.7480   20.3820 N   0  0  0  0  0  0  0  0  0  0  0  0
  -23.8000  -10.5490   21.0230 C   0  0  0  0  0  0  0  0  0  0  0  0
  -24.2770   -9.5510   21.9020 C   0  0  0  0  0  3  0  0  0  0  0  0
  -23.5420   -8.3620   22.1010 C   0  0  0  0  0  3  0  0  0  0  0  0
  -22.3160   -8.1640   21.4230 C   0  0  0  0  0  0  0  0  0  0  0  0
  -21.8580   -9.1500   20.5310 C   0  0  0  0  0  3  0  0  0  0  0  0
  -22.5930  -10.3300   20.3300 C   0  0  0  0  0  3  0  0  0  0  0  0
  -21.5470   -7.0310   21.5350 O   0  0  0  0  0  0  0  0  0  0  0  0
  -21.5430   -6.2760   22.6790 C   0  0  0  0  0  0  0  0  0  0  0  0
  -21.1940   -6.8240   23.9330 C   0  0  0  0  0  3  0  0  0  0  0  0
  -21.1340   -5.9960   25.0720 C   0  0  0  0  0  3  0  0  0  0  0  0
  -21.4110   -4.6210   24.9580 C   0  0  0  0  0  0  0  0  0  0  0  0
  -21.7530   -4.0710   23.7110 C   0  0  0  0  0  3  0  0  0  0  0  0
  -21.8150   -4.8960   22.5740 C   0  0  0  0  0  0  0  0  0  0  0  0
  -22.1230   -4.3580   21.3690 F   0  0  0  0  0  0  0  0  0  0  0  0
  -21.3470   -3.8230   26.0510 F   0  0  0  0  0  0  0  0  0  0  0  0
  -22.7630  -13.6570   21.3640 C   0  0  0  0  0  0  0  0  0  0  0  0
  -22.1100  -12.9480   22.2790 N   0  0  0  0  0  0  0  0  0  0  0  0
  -22.3000  -14.7060   20.9200 O   0  0  0  0  0  0  0  0  0  0  0  0
  -22.5010  -12.0990   22.6570 H   0  0  0  0  0  0  0  0  0  0  0  0
  -21.2050  -13.2600   22.6030 H   0  0  0  0  0  0  0  0  0  0  0  0
  -25.3460  -15.2970   20.3580 N   0  0  0  0  0  0  0  0  0  0  0  0
  -24.6020  -15.9610   20.5470 H   0  0  0  0  0  0  0  0  0  0  0  0
  -26.1560  -15.7210   19.9260 H   0  0  0  0  0  0  0  0  0  0  0  0
  -32.0320  -16.1420   22.4130 C   0  0  0  0  0  2  0  0  0  0  0  0
  -31.3790  -15.7870   23.7680 C   0  0  0  0  0  2  0  0  0  0  0  0
  -32.3670  -15.3320   24.7640 N   0  0  0  0  0  4  0  0  0  0  0  0
  -32.8480  -14.5080   24.4520 H   0  0  0  0  0  0  0  0  0  0  0  0
  -31.9040  -15.1070   25.6280 H   0  0  0  0  0  0  0  0  0  0  0  0
  -33.0470  -16.0450   24.9580 H   0  0  0  0  0  0  0  0  0  0  0  0
  2  1  1  0
  3  4  1  0
  4  9  1  0
  4  1  1  0
  5 57  1  0
  5  2  1  0
  6  3  1  0
  6  5  1  0
  7  6  1  0
  8  6  1  0
  9 10  1  0
 11 12  1  0
 11  9  1  0
 12 15  1  0
 12 13  1  0
 13 14  1  0
 15 16  1  0
 17 28  2  0
 18 16  1  0
 18 23  1  0
 19 27  1  0
 19 29  1  0
 20 26  1  0
 20 22  1  0
 21 27  1  0
 22 21  1  0
 23 22  2  0
 24 18  2  0
 25 24  1  0
 25 20  2  0
 26 19  1  0
 27 17  1  0
 29 31  2  0
 30 29  1  0
 32 30  1  0
 33 42  2  0
 33 38  1  0
 34 30  1  0
 34 38  1  0
 35 34  1  0
 36 37  1  0
 36 35  1  0
 37 33  1  0
 38 39  2  0
 39 40  1  0
 41 40  2  0
 42 41  1  0
 43 17  1  0
 43 48  1  0
 43 44  1  0
 44 47  1  1
 44 45  1  0
 46 44  1  0
 48 51  1  0
 49 53  1  0
 49 48  1  0
 50 49  2  0
 53 52  1  0
 55 53  1  0
 55 56  1  0
 55 54  1  0
 57 96  1  0
 58 66  1  0
 59 64  1  0
 60 61  1  0
 60 59  1  0
 62 61  1  0
 62 71  1  0
 62 63  1  0
 64 58  1  0
 64 63  1  0
 65 58  2  0
 66 57  1  0
 66 67  1  0
 68 69  2  0
 69 88  1  0
 70 69  1  0
 70 73  1  0
 71 72  1  0
 71 68  1  0
 72 70  2  0
 73 74  1  0
 74 75  2  0
 76 79  1  0
 76 75  1  0
 77 76  2  0
 78 77  1  0
 78 73  2  0
 79 80  1  0
 80 81  1  0
 81 82  2  0
 83 82  1  0
 83 87  1  0
 84 83  2  0
 85 80  2  0
 85 84  1  0
 86 85  1  0
 88 89  1  0
 89 92  1  0
 89 91  1  0
 90 88  2  0
 93 68  1  0
 93 94  1  0
 95 93  1  0
 96 97  1  0
 97 98  1  0
 98101  1  0
 98100  1  0
 99 98  1  0
M  ISO  4  15 101  16 101  58 100  66 100
M  END
>  <TORSDO>  (24) 
F 25

>  <SCORE>  (24) 
-3.991

>  <name>  (24) 
23

>  <ligand_id>  (24) 
23

>  <original_smiles>  (24) 
[H]OC([H])(C([H])([H])Oc1c([H])c([H])c2c(c1[H])C([H])([H])N(C(=O)C([H])(N([H])C(=O)C([H])(N([H])C([H])([H])[H])C([H])([H])[H])C(C([H])([H])[H])(C([H])([H])[H])C([H])([H])[H])C([H])(C(=O)N([H])C1([H])c3c([H])c([H])c([H])c([H])c3C([H])([H])C([H])([H])C1([H])[H])C2([H])[H])C([H])([H])N([H])C1([H])C([H])([H])C([H])([H])C([H])(C([H])(N([H])C(=O)N2C([H])([H])C([H])([H])C([H])([H])C([H])(n3nc(-c4c([H])c([H])c(Oc5c([H])c([H])c(F)c([H])c5F)c([H])c4[H])c(C(=O)N([H])[H])c3N([H])[H])C2([H])[H])C([H])([H])C([H])([H])[N+]([H])([H])[H])[N+]([H])([H])C1([H])[H]

>  <smiles>  (24) 
[H]OC([H])(C([H])([H])Oc1c([H])c([H])c2c(c1[H])C([H])([H])N(C(=O)C([H])(N([H])C(=O)C([H])(N([H])C([H])([H])[H])C([H])([H])[H])C(C([H])([H])[H])(C([H])([H])[H])C([H])([H])[H])C([H])(C(=O)N([H])C1([H])c3c([H])c([H])c([H])c([H])c3C([H])([H])C([H])([H])C1([H])[H])C2([H])[H])C([H])([H])N([H])C1([H])C([H])([H])C([H])([H])C([H])(C([H])(N([H])C(=O)N2C([H])([H])C([H])([H])C([H])([H])C([H])(n3nc(-c4c([H])c([H])c(Oc5c([H])c([H])c(F)c([H])c5F)c([H])c4[H])c(C(=O)N([H])[H])c3N([H])[H])C2([H])[H])C([H])([H])C([H])([H])[N+]([H])([H])[H])[N+]([H])([H])C1([H])[H]

$$$$
24:0:0
     RDKit          3D

 94102  0  0  1  0  0  0  0  0999 V2000
  -28.5920  -21.4940   17.6830 C   0  0  0  0  0  2  0  0  0  0  0  0
  -28.9480  -22.4710   18.7320 N   0  0  0  0  0  4  0  0  0  0  0  0
  -28.0870  -22.7810   19.1510 H   0  0  0  0  0  0  0  0  0  0  0  0
  -29.4680  -21.9700   19.4360 H   0  0  0  0  0  0  0  0  0  0  0  0
  -29.7270  -23.6360   18.2540 C   0  0  0  0  0  2  0  0  0  0  0  0
  -29.7320  -24.7960   19.2720 C   0  0  0  0  0  2  0  0  0  0  0  0
  -28.3750  -25.5070   19.3080 C   0  0  0  0  0  2  0  0  0  0  0  0
  -28.3770  -26.7060   20.0790 O   0  0  0  0  0  0  0  0  0  0  0  0
  -24.6020  -31.8780   23.2110 C   0  0  0  0  0  0  0  0  0  0  0  0
  -27.1900  -27.4140   20.1040 C   0  0  0  0  0  0  0  0  0  0  0  0
  -23.3750  -30.4790   21.5870 C   0  0  0  0  0  3  0  0  0  0  0  0
  -24.8020  -28.9340   20.1570 C   0  0  0  0  0  0  0  0  0  0  0  0
  -25.9060  -30.8160   21.3730 C   0  0  0  0  0  2  0  0  0  0  0  0
  -25.9710  -29.4450   20.7370 C   0  0  0  0  0  0  0  0  0  0  0  0
  -27.1640  -28.6880   20.7130 C   0  0  0  0  0  3  0  0  0  0  0  0
  -25.9880  -26.9180   19.5320 C   0  0  0  0  0  3  0  0  0  0  0  0
  -24.8030  -27.6680   19.5600 C   0  0  0  0  0  3  0  0  0  0  0  0
  -23.5700  -29.8040   20.2060 C   0  0  0  0  0  2  0  0  0  0  0  0
  -24.6470  -31.0740   22.1130 N   0  0  0  0  0  0  0  0  0  0  0  0
  -23.5250  -32.1570   23.7560 O   0  0  0  0  0  0  0  0  0  0  0  0
  -22.7290  -29.4590   22.5500 C   0  0  0  0  0  0  0  0  0  0  0  0
  -21.4030  -29.2860   22.4370 N   0  0  0  0  0  0  0  0  0  0  0  0
  -23.4170  -28.8280   23.3570 O   0  0  0  0  0  0  0  0  0  0  0  0
  -20.9090  -29.8510   21.7600 H   0  0  0  0  0  0  0  0  0  0  0  0
  -18.0240  -28.1170   22.9640 C   0  0  0  0  0  0  0  0  0  0  0  0
  -20.5860  -28.3570   23.2160 C   0  0  0  0  0  3  0  0  0  0  0  0
  -20.6730  -26.9210   22.6460 C   0  0  0  0  0  2  0  0  0  0  0  0
  -19.5610  -26.6030   21.6400 C   0  0  0  0  0  2  0  0  0  0  0  0
  -18.1860  -26.7620   22.2930 C   0  0  0  0  0  2  0  0  0  0  0  0
  -19.1520  -28.8710   23.3830 C   0  0  0  0  0  0  0  0  0  0  0  0
  -18.9470  -30.1400   23.9670 C   0  0  0  0  0  3  0  0  0  0  0  0
  -17.6480  -30.6530   24.1370 C   0  0  0  0  0  3  0  0  0  0  0  0
  -16.5340  -29.8950   23.7370 C   0  0  0  0  0  3  0  0  0  0  0  0
  -16.7250  -28.6280   23.1560 C   0  0  0  0  0  3  0  0  0  0  0  0
  -25.8950  -32.5060   23.8170 C   0  0  0  0  0  3  0  0  0  0  0  0
  -25.5930  -33.9040   24.1520 N   0  0  0  0  0  0  0  0  0  0  0  0
  -25.9160  -34.9560   23.3890 C   0  0  0  0  0  0  0  0  0  0  0  0
  -26.5740  -34.8530   22.3500 O   0  0  0  0  0  0  0  0  0  0  0  0
  -25.0100  -34.0580   24.9620 H   0  0  0  0  0  0  0  0  0  0  0  0
  -24.1840  -36.7490   23.0540 C   0  0  0  0  0  1  0  0  0  0  0  0
  -25.4330  -36.3430   23.8530 C   0  0  0  0  0  3  0  0  0  0  0  0
  -27.5790  -37.2240   24.6600 C   0  0  0  0  0  1  0  0  0  0  0  0
  -26.4640  -37.3970   23.7320 N   0  0  0  0  0  0  0  0  0  0  0  0
  -26.0590  -38.3160   23.8930 H   0  0  0  0  0  0  0  0  0  0  0  0
  -26.4290  -31.7290   25.0830 C   0  0  1  0  0  0  0  0  0  0  0  0
  -25.3540  -31.4870   26.1670 C   0  0  0  0  0  1  0  0  0  0  0  0
  -27.0040  -30.3530   24.6760 C   0  0  0  0  0  1  0  0  0  0  0  0
  -27.5870  -32.5230   25.7340 C   0  0  0  0  0  1  0  0  0  0  0  0
  -27.8820  -20.2870   18.3140 C   0  0  0  0  0  2  0  0  0  0  0  0
  -30.1410  -17.3930   19.1170 C   0  0  0  0  0  2  0  0  0  0  0  0
  -29.2880  -18.4080   21.2650 C   0  0  0  0  0  2  0  0  0  0  0  0
  -29.0860  -18.2220   18.3740 C   0  0  0  0  0  2  0  0  0  0  0  0
  -28.3060  -19.2300   20.4140 C   0  0  0  0  0  2  0  0  0  0  0  0
  -29.7040  -17.1100   20.5640 C   0  0  0  0  0  3  0  0  0  0  0  0
  -28.8490  -19.4910   19.0770 N   0  0  0  0  0  0  0  0  0  0  0  0
  -30.7760  -16.3440   21.3650 C   0  0  0  0  0  2  0  0  0  0  0  0
  -31.1650  -14.1330   20.2490 C   0  0  0  0  0  0  0  0  0  0  0  0
  -30.7320  -12.0910   18.9260 C   0  0  0  0  0  2  0  0  0  0  0  0
  -29.7550  -12.4120   17.7810 C   0  0  0  0  0  2  0  0  0  0  0  0
  -28.2900  -12.3350   18.2520 C   0  0  0  0  0  2  0  0  0  0  0  0
  -28.0420  -13.1310   19.5560 C   0  0  0  0  0  3  0  0  0  0  0  0
  -29.1000  -12.7390   20.6080 C   0  0  0  0  0  2  0  0  0  0  0  0
  -30.4400  -13.0050   20.0380 N   0  0  0  0  0  0  0  0  0  0  0  0
  -32.1930  -14.4360   19.6370 O   0  0  0  0  0  0  0  0  0  0  0  0
  -30.5980  -14.9240   21.1570 N   0  0  0  0  0  0  0  0  0  0  0  0
  -29.7670  -14.5280   21.5680 H   0  0  0  0  0  0  0  0  0  0  0  0
  -25.6730  -13.8690   20.2540 C   0  0  0  0  0  0  0  0  0  0  0  0
  -24.5730  -13.1520   20.6530 C   0  0  0  0  0  0  0  0  0  0  0  0
  -24.9770  -11.7830   20.6490 C   0  0  0  0  0  0  0  0  0  0  0  0
  -26.6790  -12.9370   20.0450 N   0  0  0  0  0  0  0  0  0  0  0  0
  -26.2580  -11.6760   20.3290 N   0  0  0  0  0  0  0  0  0  0  0  0
  -24.2030  -10.5550   20.8750 C   0  0  0  0  0  0  0  0  0  0  0  0
  -24.5910   -9.5970   21.8360 C   0  0  0  0  0  3  0  0  0  0  0  0
  -23.8130   -8.4370   22.0420 C   0  0  0  0  0  3  0  0  0  0  0  0
  -22.6330   -8.2290   21.2870 C   0  0  0  0  0  0  0  0  0  0  0  0
  -22.2680   -9.1770   20.3150 C   0  0  0  0  0  3  0  0  0  0  0  0
  -23.0470  -10.3260   20.1070 C   0  0  0  0  0  3  0  0  0  0  0  0
  -21.8300   -7.1190   21.4010 O   0  0  0  0  0  0  0  0  0  0  0  0
  -21.7320   -6.4210   22.5780 C   0  0  0  0  0  0  0  0  0  0  0  0
  -21.3160   -7.0390   23.7770 C   0  0  0  0  0  3  0  0  0  0  0  0
  -21.1590   -6.2710   24.9460 C   0  0  0  0  0  3  0  0  0  0  0  0
  -21.4130   -4.8860   24.9220 C   0  0  0  0  0  0  0  0  0  0  0  0
  -21.8230   -4.2690   23.7280 C   0  0  0  0  0  3  0  0  0  0  0  0
  -21.9810   -5.0340   22.5580 C   0  0  0  0  0  0  0  0  0  0  0  0
  -22.3570   -4.4300   21.4050 F   0  0  0  0  0  0  0  0  0  0  0  0
  -21.2580   -4.1460   26.0440 F   0  0  0  0  0  0  0  0  0  0  0  0
  -23.2040  -13.7000   20.9330 C   0  0  0  0  0  0  0  0  0  0  0  0
  -22.4580  -13.0560   21.8240 N   0  0  0  0  0  0  0  0  0  0  0  0
  -22.8050  -14.7330   20.4030 O   0  0  0  0  0  0  0  0  0  0  0  0
  -22.7980  -12.2260   22.2840 H   0  0  0  0  0  0  0  0  0  0  0  0
  -21.5420  -13.4120   22.0530 H   0  0  0  0  0  0  0  0  0  0  0  0
  -25.8930  -15.2260   20.0400 N   0  0  0  0  0  0  0  0  0  0  0  0
  -25.1480  -15.9090   20.1120 H   0  0  0  0  0  0  0  0  0  0  0  0
  -26.7590  -15.6290   19.7050 H   0  0  0  0  0  0  0  0  0  0  0  0
  1 49  1  0
  1  2  1  0
  2  3  1  0
  2  4  1  0
  5  2  1  0
  5  6  1  0
  6  7  1  0
  7  8  1  0
  8 10  1  0
  9 20  2  0
 10 15  1  0
 11 19  1  0
 11 21  1  0
 12 18  1  0
 12 14  1  0
 13 19  1  0
 14 13  1  0
 15 14  2  0
 16 17  1  0
 16 10  2  0
 17 12  2  0
 18 11  1  0
 19  9  1  0
 21 23  2  0
 22 21  1  0
 24 22  1  0
 25 34  2  0
 25 30  1  0
 26 22  1  0
 26 30  1  0
 27 26  1  0
 28 29  1  0
 28 27  1  0
 29 25  1  0
 30 31  2  0
 31 32  1  0
 33 32  2  0
 34 33  1  0
 35  9  1  0
 35 36  1  0
 35 45  1  0
 36 39  1  0
 37 41  1  0
 37 36  1  0
 38 37  2  0
 41 40  1  0
 43 41  1  0
 43 44  1  0
 43 42  1  0
 45 48  1  1
 45 46  1  0
 47 45  1  0
 49 55  1  0
 50 54  1  0
 52 55  1  0
 52 50  1  0
 53 51  1  0
 54 51  1  0
 54 56  1  0
 55 53  1  0
 57 65  1  0
 58 63  1  0
 59 60  1  0
 59 58  1  0
 61 60  1  0
 61 70  1  0
 61 62  1  0
 63 57  1  0
 63 62  1  0
 64 57  2  0
 65 56  1  0
 65 66  1  0
 67 68  2  0
 68 87  1  0
 69 68  1  0
 69 72  1  0
 70 67  1  0
 70 71  1  0
 71 69  2  0
 72 73  1  0
 73 74  2  0
 75 78  1  0
 75 74  1  0
 76 75  2  0
 77 76  1  0
 77 72  2  0
 78 79  1  0
 79 80  1  0
 80 81  2  0
 82 81  1  0
 82 86  1  0
 83 82  2  0
 84 79  2  0
 84 83  1  0
 85 84  1  0
 87 88  1  0
 88 91  1  0
 88 90  1  0
 89 87  2  0
 92 93  1  0
 92 67  1  0
 94 92  1  0
M  ISO  4   7 101   8 101  57 100  65 100
M  END
>  <TORSDO>  (25) 
F 23

>  <SCORE>  (25) 
-12.498

>  <name>  (25) 
24

>  <ligand_id>  (25) 
24

>  <original_smiles>  (25) 
[H]c1c([H])c([H])c2c(c1[H])C([H])([H])C([H])([H])C([H])([H])C2([H])N([H])C(=O)C1([H])N(C(=O)C([H])(N([H])C(=O)C([H])(N([H])C([H])([H])[H])C([H])([H])[H])C(C([H])([H])[H])(C([H])([H])[H])C([H])([H])[H])C([H])([H])c2c([H])c(OC([H])([H])C([H])([H])C([H])([H])[N+]([H])([H])C([H])([H])C([H])([H])N3C([H])([H])C([H])([H])C([H])(C([H])([H])N([H])C(=O)N4C([H])([H])C([H])([H])C([H])([H])C([H])(n5nc(-c6c([H])c([H])c(Oc7c([H])c([H])c(F)c([H])c7F)c([H])c6[H])c(C(=O)N([H])[H])c5N([H])[H])C4([H])[H])C([H])([H])C3([H])[H])c([H])c([H])c2C1([H])[H]

>  <smiles>  (25) 
[H]c1c([H])c([H])c2c(c1[H])C([H])([H])C([H])([H])C([H])([H])C2([H])N([H])C(=O)C1([H])N(C(=O)C([H])(N([H])C(=O)C([H])(N([H])C([H])([H])[H])C([H])([H])[H])C(C([H])([H])[H])(C([H])([H])[H])C([H])([H])[H])C([H])([H])c2c([H])c(OC([H])([H])C([H])([H])C([H])([H])[N+]([H])([H])C([H])([H])C([H])([H])N3C([H])([H])C([H])([H])C([H])(C([H])([H])N([H])C(=O)N4C([H])([H])C([H])([H])C([H])([H])C([H])(n5nc(-c6c([H])c([H])c(Oc7c([H])c([H])c(F)c([H])c7F)c([H])c6[H])c(C(=O)N([H])[H])c5N([H])[H])C4([H])[H])C([H])([H])C3([H])[H])c([H])c([H])c2C1([H])[H]

$$$$
25:0:0
     RDKit          3D

 95103  0  0  1  0  0  0  0  0999 V2000
  -27.7540  -22.6130   22.2210 C   0  0  0  0  0  2  0  0  0  0  0  0
  -27.2850  -23.3300   21.0120 N   0  0  0  0  0  4  0  0  0  0  0  0
  -26.2840  -23.2260   20.9650 H   0  0  0  0  0  0  0  0  0  0  0  0
  -27.6530  -22.9030   20.1800 H   0  0  0  0  0  0  0  0  0  0  0  0
  -27.6020  -24.7750   20.9590 C   0  0  0  0  0  2  0  0  0  0  0  0
  -29.0920  -25.0660   20.6360 C   0  0  0  0  0  2  0  0  0  0  0  0
  -29.4190  -26.5570   20.4240 C   0  0  0  0  0  2  0  0  0  0  0  0
  -28.8400  -27.0390   19.2070 O   0  0  0  0  0  0  0  0  0  0  0  0
  -24.8040  -31.3310   23.1820 C   0  0  0  0  0  0  0  0  0  0  0  0
  -27.6410  -27.6860   19.3630 C   0  0  0  0  0  0  0  0  0  0  0  0
  -23.6300  -30.0920   21.3900 C   0  0  0  0  0  3  0  0  0  0  0  0
  -25.1310  -28.9270   19.6850 C   0  0  0  0  0  0  0  0  0  0  0  0
  -26.0970  -30.7100   21.1530 C   0  0  0  0  0  2  0  0  0  0  0  0
  -26.2630  -29.4650   20.3090 C   0  0  0  0  0  0  0  0  0  0  0  0
  -27.5210  -28.8450   20.1600 C   0  0  0  0  0  3  0  0  0  0  0  0
  -26.5050  -27.1760   18.7050 C   0  0  0  0  0  3  0  0  0  0  0  0
  -25.2440  -27.7790   18.8820 C   0  0  0  0  0  3  0  0  0  0  0  0
  -23.8220  -29.6490   19.9110 C   0  0  0  0  0  2  0  0  0  0  0  0
  -24.8610  -30.7170   21.9680 N   0  0  0  0  0  0  0  0  0  0  0  0
  -23.7360  -31.4210   23.8020 O   0  0  0  0  0  0  0  0  0  0  0  0
  -23.1200  -28.8830   22.2050 C   0  0  0  0  0  0  0  0  0  0  0  0
  -21.8320  -28.5450   22.0350 N   0  0  0  0  0  0  0  0  0  0  0  0
  -23.8820  -28.2530   22.9430 O   0  0  0  0  0  0  0  0  0  0  0  0
  -21.2760  -29.1250   21.4220 H   0  0  0  0  0  0  0  0  0  0  0  0
  -18.6830  -26.7850   22.2100 C   0  0  0  0  0  0  0  0  0  0  0  0
  -21.1470  -27.4170   22.6650 C   0  0  0  0  0  3  0  0  0  0  0  0
  -21.5140  -26.0840   21.9680 C   0  0  0  0  0  2  0  0  0  0  0  0
  -20.5290  -25.6860   20.8660 C   0  0  0  0  0  2  0  0  0  0  0  0
  -19.1130  -25.5500   21.4360 C   0  0  0  0  0  2  0  0  0  0  0  0
  -19.6380  -27.6690   22.7770 C   0  0  0  0  0  0  0  0  0  0  0  0
  -19.1880  -28.8230   23.4530 C   0  0  0  0  0  3  0  0  0  0  0  0
  -17.8130  -29.0900   23.5800 C   0  0  0  0  0  3  0  0  0  0  0  0
  -16.8720  -28.2040   23.0290 C   0  0  0  0  0  3  0  0  0  0  0  0
  -17.3060  -27.0530   22.3500 C   0  0  0  0  0  3  0  0  0  0  0  0
  -26.0690  -31.9700   23.8380 C   0  0  0  0  0  3  0  0  0  0  0  0
  -25.7270  -33.3500   24.2050 N   0  0  0  0  0  0  0  0  0  0  0  0
  -26.0760  -34.4340   23.5000 C   0  0  0  0  0  0  0  0  0  0  0  0
  -26.7910  -34.3750   22.4940 O   0  0  0  0  0  0  0  0  0  0  0  0
  -25.0980  -33.4690   24.9870 H   0  0  0  0  0  0  0  0  0  0  0  0
  -24.3490  -36.2220   23.1150 C   0  0  0  0  0  1  0  0  0  0  0  0
  -25.5450  -35.7970   23.9820 C   0  0  0  0  0  3  0  0  0  0  0  0
  -27.6140  -36.6680   24.9740 C   0  0  0  0  0  1  0  0  0  0  0  0
  -26.5690  -36.8630   23.9740 N   0  0  0  0  0  0  0  0  0  0  0  0
  -26.1430  -37.7720   24.1370 H   0  0  0  0  0  0  0  0  0  0  0  0
  -26.5930  -31.1690   25.0920 C   0  0  1  0  0  0  0  0  0  0  0  0
  -25.4950  -30.8660   26.1370 C   0  0  0  0  0  1  0  0  0  0  0  0
  -27.2190  -29.8220   24.6590 C   0  0  0  0  0  1  0  0  0  0  0  0
  -27.7080  -31.9740   25.7990 C   0  0  0  0  0  1  0  0  0  0  0  0
  -27.9030  -21.0920   22.0020 C   0  0  0  0  0  2  0  0  0  0  0  0
  -29.0600  -20.7260   21.0400 C   0  0  0  0  0  2  0  0  0  0  0  0
  -29.0840  -16.8830   20.8050 C   0  0  0  0  0  2  0  0  0  0  0  0
  -31.4670  -17.7580   20.8860 C   0  0  0  0  0  2  0  0  0  0  0  0
  -28.6040  -18.3250   20.5460 C   0  0  0  0  0  2  0  0  0  0  0  0
  -30.9110  -19.1670   20.6180 C   0  0  0  0  0  2  0  0  0  0  0  0
  -30.5310  -16.6650   20.3210 C   0  0  0  0  0  3  0  0  0  0  0  0
  -29.5310  -19.3200   21.1530 N   0  0  1  0  0  4  0  0  0  0  0  0
  -29.5830  -19.1180   22.1420 H   0  0  0  0  0  0  0  0  0  0  0  0
  -31.2740  -14.4430   19.6090 C   0  0  0  0  0  0  0  0  0  0  0  0
  -30.7490  -12.3090   18.4870 C   0  0  0  0  0  2  0  0  0  0  0  0
  -29.7170  -12.5240   17.3640 C   0  0  0  0  0  2  0  0  0  0  0  0
  -28.2860  -12.4220   17.9290 C   0  0  0  0  0  2  0  0  0  0  0  0
  -28.0800  -13.3140   19.1820 C   0  0  0  0  0  3  0  0  0  0  0  0
  -29.2200  -13.1040   20.2060 C   0  0  0  0  0  2  0  0  0  0  0  0
  -30.5140  -13.3180   19.5270 N   0  0  0  0  0  0  0  0  0  0  0  0
  -32.1930  -14.7020   18.8250 O   0  0  0  0  0  0  0  0  0  0  0  0
  -31.6380  -15.0590   21.8980 C   0  0  0  0  0  1  0  0  0  0  0  0
  -30.9670  -15.2860   20.6150 N   0  0  0  0  0  0  0  0  0  0  0  0
  -25.7860  -14.0080   20.1300 C   0  0  0  0  0  0  0  0  0  0  0  0
  -24.7260  -13.2750   20.5900 C   0  0  0  0  0  0  0  0  0  0  0  0
  -25.1160  -11.9040   20.4800 C   0  0  0  0  0  0  0  0  0  0  0  0
  -26.7640  -13.0890   19.7810 N   0  0  0  0  0  0  0  0  0  0  0  0
  -26.3650  -11.8160   20.0400 N   0  0  0  0  0  0  0  0  0  0  0  0
  -24.3510  -10.6730   20.7110 C   0  0  0  0  0  0  0  0  0  0  0  0
  -24.7470   -9.7290   21.6850 C   0  0  0  0  0  3  0  0  0  0  0  0
  -23.9860   -8.5610   21.9010 C   0  0  0  0  0  3  0  0  0  0  0  0
  -22.8130   -8.3280   21.1440 C   0  0  0  0  0  0  0  0  0  0  0  0
  -22.4350   -9.2590   20.1600 C   0  0  0  0  0  3  0  0  0  0  0  0
  -23.1960  -10.4190   19.9430 C   0  0  0  0  0  3  0  0  0  0  0  0
  -22.0250   -7.2100   21.2690 O   0  0  0  0  0  0  0  0  0  0  0  0
  -21.8200   -6.6040   22.4820 C   0  0  0  0  0  0  0  0  0  0  0  0
  -21.3130   -7.3120   23.5920 C   0  0  0  0  0  3  0  0  0  0  0  0
  -21.0550   -6.6340   24.8010 C   0  0  0  0  0  3  0  0  0  0  0  0
  -21.2940   -5.2490   24.8980 C   0  0  0  0  0  0  0  0  0  0  0  0
  -21.7920   -4.5420   23.7890 C   0  0  0  0  0  3  0  0  0  0  0  0
  -22.0530   -5.2180   22.5850 C   0  0  0  0  0  0  0  0  0  0  0  0
  -22.5170   -4.5260   21.5160 F   0  0  0  0  0  0  0  0  0  0  0  0
  -21.0360   -4.5970   26.0550 F   0  0  0  0  0  0  0  0  0  0  0  0
  -23.3880  -13.8080   21.0160 C   0  0  0  0  0  0  0  0  0  0  0  0
  -22.7640  -13.1790   22.0050 N   0  0  0  0  0  0  0  0  0  0  0  0
  -22.9100  -14.8200   20.5030 O   0  0  0  0  0  0  0  0  0  0  0  0
  -23.1650  -12.3640   22.4420 H   0  0  0  0  0  0  0  0  0  0  0  0
  -21.8700  -13.5180   22.3320 H   0  0  0  0  0  0  0  0  0  0  0  0
  -25.9870  -15.3720   19.9600 N   0  0  0  0  0  0  0  0  0  0  0  0
  -25.2170  -16.0240   20.0770 H   0  0  0  0  0  0  0  0  0  0  0  0
  -26.7610  -15.7600   19.4360 H   0  0  0  0  0  0  0  0  0  0  0  0
  2  1  1  0
  3  2  1  0
  4  2  1  0
  5  2  1  0
  6  5  1  0
  7  6  1  0
  8 10  1  0
  8  7  1  0
  9 20  2  0
 10 15  1  0
 11 19  1  0
 11 21  1  0
 12 18  1  0
 12 14  1  0
 13 19  1  0
 14 13  1  0
 15 14  2  0
 16 17  1  0
 16 10  2  0
 17 12  2  0
 18 11  1  0
 19  9  1  0
 21 23  2  0
 22 21  1  0
 24 22  1  0
 25 34  2  0
 25 30  1  0
 26 22  1  0
 26 30  1  0
 27 26  1  0
 28 29  1  0
 28 27  1  0
 29 25  1  0
 30 31  2  0
 31 32  1  0
 33 32  2  0
 34 33  1  0
 35  9  1  0
 35 36  1  0
 35 45  1  0
 36 39  1  0
 37 41  1  0
 37 36  1  0
 38 37  2  0
 41 40  1  0
 43 41  1  0
 43 44  1  0
 43 42  1  0
 45 48  1  1
 45 46  1  0
 47 45  1  0
 49  1  1  0
 50 56  1  0
 50 49  1  0
 53 51  1  0
 53 56  1  0
 54 52  1  0
 54 56  1  0
 55 67  1  0
 55 51  1  0
 55 52  1  0
 56 57  1  1
 58 67  1  0
 59 64  1  0
 60 61  1  0
 60 59  1  0
 62 61  1  0
 62 71  1  0
 62 63  1  0
 64 58  1  0
 64 63  1  0
 65 58  2  0
 67 66  1  0
 68 69  2  0
 69 88  1  0
 70 69  1  0
 70 73  1  0
 71 72  1  0
 71 68  1  0
 72 70  2  0
 73 74  1  0
 74 75  2  0
 76 79  1  0
 76 75  1  0
 77 76  2  0
 78 77  1  0
 78 73  2  0
 79 80  1  0
 80 85  2  0
 80 81  1  0
 81 82  2  0
 82 83  1  0
 83 87  1  0
 84 83  2  0
 85 84  1  0
 86 85  1  0
 88 89  1  0
 89 92  1  0
 89 91  1  0
 90 88  2  0
 93 94  1  0
 93 68  1  0
 95 93  1  0
M  ISO  4   7 101   8 101  58 100  67 100
M  END
>  <TORSDO>  (26) 
F 23

>  <SCORE>  (26) 
-8.641

>  <name>  (26) 
25

>  <ligand_id>  (26) 
25

>  <original_smiles>  (26) 
[H]c1c([H])c([H])c2c(c1[H])C([H])([H])C([H])([H])C([H])([H])C2([H])N([H])C(=O)C1([H])N(C(=O)C([H])(N([H])C(=O)C([H])(N([H])C([H])([H])[H])C([H])([H])[H])C(C([H])([H])[H])(C([H])([H])[H])C([H])([H])[H])C([H])([H])c2c([H])c(OC([H])([H])C([H])([H])C([H])([H])[N+]([H])([H])C([H])([H])C([H])([H])C([H])([H])[N+]3([H])C([H])([H])C([H])([H])C([H])(N(C(=O)N4C([H])([H])C([H])([H])C([H])([H])C([H])(n5nc(-c6c([H])c([H])c(Oc7c([H])c([H])c(F)c([H])c7F)c([H])c6[H])c(C(=O)N([H])[H])c5N([H])[H])C4([H])[H])C([H])([H])[H])C([H])([H])C3([H])[H])c([H])c([H])c2C1([H])[H]

>  <smiles>  (26) 
[H]c1c([H])c([H])c2c(c1[H])C([H])([H])C([H])([H])C([H])([H])C2([H])N([H])C(=O)C1([H])N(C(=O)C([H])(N([H])C(=O)C([H])(N([H])C([H])([H])[H])C([H])([H])[H])C(C([H])([H])[H])(C([H])([H])[H])C([H])([H])[H])C([H])([H])c2c([H])c(OC([H])([H])C([H])([H])C([H])([H])[N+]([H])([H])C([H])([H])C([H])([H])C([H])([H])[N+]3([H])C([H])([H])C([H])([H])C([H])(N(C(=O)N4C([H])([H])C([H])([H])C([H])([H])C([H])(n5nc(-c6c([H])c([H])c(Oc7c([H])c([H])c(F)c([H])c7F)c([H])c6[H])c(C(=O)N([H])[H])c5N([H])[H])C4([H])[H])C([H])([H])[H])C([H])([H])C3([H])[H])c([H])c([H])c2C1([H])[H]

$$$$
26:0:0
     RDKit          3D

 99107  0  0  1  0  0  0  0  0999 V2000
  -31.1900  -20.1890   17.9600 C   0  0  0  0  0  2  0  0  0  0  0  0
  -31.8430  -18.9840   18.5260 N   0  0  0  0  0  4  0  0  0  0  0  0
  -32.2770  -18.4880   17.7630 H   0  0  0  0  0  0  0  0  0  0  0  0
  -31.1720  -18.3540   18.9360 H   0  0  0  0  0  0  0  0  0  0  0  0
  -32.8830  -19.2410   19.5400 C   0  0  0  0  0  2  0  0  0  0  0  0
  -33.4640  -17.9130   20.0660 C   0  0  0  0  0  2  0  0  0  0  0  0
  -30.8410  -13.9170   19.4490 C   0  0  0  0  0  0  0  0  0  0  0  0
  -30.1570  -11.9210   18.1600 C   0  0  0  0  0  2  0  0  0  0  0  0
  -29.0870  -12.2710   17.1080 C   0  0  0  0  0  2  0  0  0  0  0  0
  -27.6740  -12.2230   17.7200 C   0  0  0  0  0  2  0  0  0  0  0  0
  -27.5820  -13.0080   19.0550 C   0  0  0  0  0  3  0  0  0  0  0  0
  -28.7380  -12.6010   19.9980 C   0  0  0  0  0  2  0  0  0  0  0  0
  -30.0100  -12.8450   19.2970 N   0  0  0  0  0  0  0  0  0  0  0  0
  -31.7850  -14.1210   18.6790 O   0  0  0  0  0  0  0  0  0  0  0  0
  -29.5670  -16.5740   21.9070 C   0  0  0  0  0  2  0  0  0  0  0  0
  -30.3920  -17.8730   21.8220 C   0  0  0  0  0  2  0  0  0  0  0  0
  -29.6280  -15.6610   20.6560 C   0  0  0  0  0  2  0  0  0  0  0  0
  -31.9140  -17.7070   21.9190 C   0  0  0  0  0  2  0  0  0  0  0  0
  -31.8780  -14.7670   21.4760 C   0  0  0  0  0  2  0  0  0  0  0  0
  -32.9590  -15.7580   20.9780 C   0  0  0  0  0  2  0  0  0  0  0  0
  -30.7020  -14.6380   20.5880 N   0  0  0  0  0  0  0  0  0  0  0  0
  -32.4180  -17.0900   20.6860 N   0  0  0  0  0  0  0  0  0  0  0  0
  -25.3020  -13.7800   19.9760 C   0  0  0  0  0  0  0  0  0  0  0  0
  -24.2440  -13.0840   20.4950 C   0  0  0  0  0  0  0  0  0  0  0  0
  -24.6320  -11.7090   20.4790 C   0  0  0  0  0  0  0  0  0  0  0  0
  -26.2740  -12.8340   19.6840 N   0  0  0  0  0  0  0  0  0  0  0  0
  -25.8770  -11.5860   20.0380 N   0  0  0  0  0  0  0  0  0  0  0  0
  -23.8710  -10.4970   20.8090 C   0  0  0  0  0  0  0  0  0  0  0  0
  -24.3370   -9.5720   21.7720 C   0  0  0  0  0  3  0  0  0  0  0  0
  -23.5790   -8.4230   22.0840 C   0  0  0  0  0  3  0  0  0  0  0  0
  -22.3430   -8.1920   21.4370 C   0  0  0  0  0  0  0  0  0  0  0  0
  -21.8950   -9.1020   20.4650 C   0  0  0  0  0  3  0  0  0  0  0  0
  -22.6530  -10.2440   20.1510 C   0  0  0  0  0  3  0  0  0  0  0  0
  -21.5520   -7.0900   21.6580 O   0  0  0  0  0  0  0  0  0  0  0  0
  -21.5490   -6.4370   22.8650 C   0  0  0  0  0  0  0  0  0  0  0  0
  -21.2450   -7.1030   24.0720 C   0  0  0  0  0  3  0  0  0  0  0  0
  -21.1850   -6.3780   25.2800 C   0  0  0  0  0  3  0  0  0  0  0  0
  -21.4210   -4.9910   25.2820 C   0  0  0  0  0  0  0  0  0  0  0  0
  -21.7190   -4.3260   24.0790 C   0  0  0  0  0  3  0  0  0  0  0  0
  -21.7800   -5.0470   22.8740 C   0  0  0  0  0  0  0  0  0  0  0  0
  -22.0480   -4.3980   21.7160 F   0  0  0  0  0  0  0  0  0  0  0  0
  -21.3560   -4.2930   26.4400 F   0  0  0  0  0  0  0  0  0  0  0  0
  -22.9110  -13.6470   20.8940 C   0  0  0  0  0  0  0  0  0  0  0  0
  -22.2670  -13.0500   21.8910 N   0  0  0  0  0  0  0  0  0  0  0  0
  -22.4520  -14.6520   20.3540 O   0  0  0  0  0  0  0  0  0  0  0  0
  -22.6520  -12.2370   22.3510 H   0  0  0  0  0  0  0  0  0  0  0  0
  -21.3770  -13.4130   22.2030 H   0  0  0  0  0  0  0  0  0  0  0  0
  -25.5150  -15.1320   19.7170 N   0  0  0  0  0  0  0  0  0  0  0  0
  -24.8070  -15.8360   19.9000 H   0  0  0  0  0  0  0  0  0  0  0  0
  -26.3580  -15.5150   19.3090 H   0  0  0  0  0  0  0  0  0  0  0  0
  -29.6500  -20.0920   17.9290 C   0  0  0  0  0  2  0  0  0  0  0  0
  -28.9240  -20.7070   19.1470 C   0  0  0  0  0  2  0  0  0  0  0  0
  -28.5480  -22.1250   18.9200 N   0  0  0  0  0  4  0  0  0  0  0  0
  -27.5480  -22.1460   18.7890 H   0  0  0  0  0  0  0  0  0  0  0  0
  -28.9600  -22.4480   18.0600 H   0  0  0  0  0  0  0  0  0  0  0  0
  -28.8960  -23.0610   20.0140 C   0  0  0  0  0  2  0  0  0  0  0  0
  -28.7250  -24.5360   19.5790 C   0  0  0  0  0  2  0  0  0  0  0  0
  -28.6020  -25.5030   20.7710 C   0  0  0  0  0  2  0  0  0  0  0  0
  -28.6370  -26.8680   20.3430 O   0  0  0  0  0  0  0  0  0  0  0  0
  -24.6540  -31.9500   23.2890 C   0  0  0  0  0  0  0  0  0  0  0  0
  -27.4380  -27.5390   20.3170 C   0  0  0  0  0  0  0  0  0  0  0  0
  -23.5010  -30.5030   21.6460 C   0  0  0  0  0  3  0  0  0  0  0  0
  -25.0080  -28.9770   20.2660 C   0  0  0  0  0  0  0  0  0  0  0  0
  -26.0170  -30.9220   21.4710 C   0  0  0  0  0  2  0  0  0  0  0  0
  -26.1460  -29.5460   20.8520 C   0  0  0  0  0  0  0  0  0  0  0  0
  -27.3660  -28.8370   20.8610 C   0  0  0  0  0  3  0  0  0  0  0  0
  -26.2790  -26.9670   19.7450 C   0  0  0  0  0  3  0  0  0  0  0  0
  -25.0700  -27.6860   19.7100 C   0  0  0  0  0  3  0  0  0  0  0  0
  -23.7460  -29.8120   20.2790 C   0  0  0  0  0  2  0  0  0  0  0  0
  -24.7410  -31.1380   22.1970 N   0  0  0  0  0  0  0  0  0  0  0  0
  -23.5580  -32.2010   23.8110 O   0  0  0  0  0  0  0  0  0  0  0  0
  -22.8590  -29.4740   22.6070 C   0  0  0  0  0  0  0  0  0  0  0  0
  -21.5400  -29.2640   22.4600 N   0  0  0  0  0  0  0  0  0  0  0  0
  -23.5410  -28.8720   23.4420 O   0  0  0  0  0  0  0  0  0  0  0  0
  -21.0540  -29.7950   21.7520 H   0  0  0  0  0  0  0  0  0  0  0  0
  -18.1770  -28.0310   22.9260 C   0  0  0  0  0  0  0  0  0  0  0  0
  -20.7300  -28.3220   23.2300 C   0  0  0  0  0  3  0  0  0  0  0  0
  -20.8630  -26.8930   22.6610 C   0  0  0  0  0  2  0  0  0  0  0  0
  -19.7760  -26.5470   21.6380 C   0  0  0  0  0  2  0  0  0  0  0  0
  -18.3830  -26.6780   22.2630 C   0  0  0  0  0  2  0  0  0  0  0  0
  -19.2820  -28.8080   23.3660 C   0  0  0  0  0  0  0  0  0  0  0  0
  -19.0420  -30.0730   23.9440 C   0  0  0  0  0  3  0  0  0  0  0  0
  -17.7280  -30.5610   24.0900 C   0  0  0  0  0  3  0  0  0  0  0  0
  -16.6390  -29.7780   23.6730 C   0  0  0  0  0  3  0  0  0  0  0  0
  -16.8650  -28.5140   23.0950 C   0  0  0  0  0  3  0  0  0  0  0  0
  -25.9140  -32.6140   23.9210 C   0  0  0  0  0  3  0  0  0  0  0  0
  -26.4230  -31.8700   25.2140 C   0  0  1  0  0  0  0  0  0  0  0  0
  -25.3100  -31.5900   26.2530 C   0  0  0  0  0  1  0  0  0  0  0  0
  -27.0730  -30.5170   24.8370 C   0  0  0  0  0  1  0  0  0  0  0  0
  -27.5290  -32.7080   25.8970 C   0  0  0  0  0  1  0  0  0  0  0  0
  -25.5720  -34.0080   24.2260 N   0  0  0  0  0  0  0  0  0  0  0  0
  -25.8910  -35.0550   23.4540 C   0  0  0  0  0  0  0  0  0  0  0  0
  -26.5750  -34.9500   22.4310 O   0  0  0  0  0  0  0  0  0  0  0  0
  -24.9710  -34.1650   25.0200 H   0  0  0  0  0  0  0  0  0  0  0  0
  -24.1290  -36.8030   23.0430 C   0  0  0  0  0  1  0  0  0  0  0  0
  -25.3630  -36.4390   23.8830 C   0  0  0  0  0  3  0  0  0  0  0  0
  -27.4610  -37.3810   24.7310 C   0  0  0  0  0  1  0  0  0  0  0  0
  -26.3690  -37.5150   23.7720 N   0  0  0  0  0  0  0  0  0  0  0  0
  -25.9390  -38.4250   23.9100 H   0  0  0  0  0  0  0  0  0  0  0  0
  1  2  1  0
  2  4  1  0
  2  5  1  0
  3  2  1  0
  5  6  1  0
  6 22  1  0
  7 21  1  0
  8 13  1  0
  9 10  1  0
  9  8  1  0
 11 10  1  0
 11 26  1  0
 11 12  1  0
 13  7  1  0
 13 12  1  0
 14  7  2  0
 16 15  1  0
 16 18  1  0
 17 15  1  0
 20 19  1  0
 21 17  1  0
 21 19  1  0
 22 20  1  0
 22 18  1  0
 23 24  2  0
 24 43  1  0
 25 24  1  0
 25 28  1  0
 26 23  1  0
 26 27  1  0
 27 25  2  0
 28 29  1  0
 29 30  2  0
 31 34  1  0
 31 30  1  0
 32 31  2  0
 33 32  1  0
 33 28  2  0
 34 35  1  0
 35 40  2  0
 35 36  1  0
 36 37  2  0
 37 38  1  0
 38 42  1  0
 39 38  2  0
 40 39  1  0
 41 40  1  0
 43 44  1  0
 44 47  1  0
 44 46  1  0
 45 43  2  0
 48 49  1  0
 48 23  1  0
 50 48  1  0
 51  1  1  0
 51 52  1  0
 53 52  1  0
 53 56  1  0
 54 53  1  0
 55 53  1  0
 57 56  1  0
 57 58  1  0
 59 58  1  0
 60 71  2  0
 61 59  1  0
 61 66  1  0
 62 70  1  0
 62 72  1  0
 63 69  1  0
 63 65  1  0
 64 70  1  0
 65 66  2  0
 65 64  1  0
 67 61  2  0
 68 67  1  0
 68 63  2  0
 69 62  1  0
 70 60  1  0
 72 74  2  0
 73 72  1  0
 75 73  1  0
 76 85  2  0
 76 81  1  0
 77 73  1  0
 77 81  1  0
 78 77  1  0
 79 80  1  0
 79 78  1  0
 80 76  1  0
 81 82  2  0
 82 83  1  0
 84 83  2  0
 85 84  1  0
 86 60  1  0
 86 91  1  0
 86 87  1  0
 87 90  1  1
 87 88  1  0
 89 87  1  0
 91 94  1  0
 92 96  1  0
 92 91  1  0
 93 92  2  0
 96 95  1  0
 98 96  1  0
 98 99  1  0
 98 97  1  0
M  ISO  4   7 100  21 100  58 101  59 101
M  END
>  <TORSDO>  (27) 
F 25

>  <SCORE>  (27) 
-8.414

>  <name>  (27) 
26

>  <ligand_id>  (27) 
26

>  <original_smiles>  (27) 
[H]c1c([H])c([H])c2c(c1[H])C([H])([H])C([H])([H])C([H])([H])C2([H])N([H])C(=O)C1([H])N(C(=O)C([H])(N([H])C(=O)C([H])(N([H])C([H])([H])[H])C([H])([H])[H])C(C([H])([H])[H])(C([H])([H])[H])C([H])([H])[H])C([H])([H])c2c([H])c(OC([H])([H])C([H])([H])C([H])([H])[N+]([H])([H])C([H])([H])C([H])([H])C([H])([H])[N+]([H])([H])C([H])([H])C([H])([H])N3C([H])([H])C([H])([H])N(C(=O)N4C([H])([H])C([H])([H])C([H])([H])C([H])(n5nc(-c6c([H])c([H])c(Oc7c([H])c([H])c(F)c([H])c7F)c([H])c6[H])c(C(=O)N([H])[H])c5N([H])[H])C4([H])[H])C([H])([H])C([H])([H])C([H])([H])C3([H])[H])c([H])c([H])c2C1([H])[H]

>  <smiles>  (27) 
[H]c1c([H])c([H])c2c(c1[H])C([H])([H])C([H])([H])C([H])([H])C2([H])N([H])C(=O)C1([H])N(C(=O)C([H])(N([H])C(=O)C([H])(N([H])C([H])([H])[H])C([H])([H])[H])C(C([H])([H])[H])(C([H])([H])[H])C([H])([H])[H])C([H])([H])c2c([H])c(OC([H])([H])C([H])([H])C([H])([H])[N+]([H])([H])C([H])([H])C([H])([H])C([H])([H])[N+]([H])([H])C([H])([H])C([H])([H])N3C([H])([H])C([H])([H])N(C(=O)N4C([H])([H])C([H])([H])C([H])([H])C([H])(n5nc(-c6c([H])c([H])c(Oc7c([H])c([H])c(F)c([H])c7F)c([H])c6[H])c(C(=O)N([H])[H])c5N([H])[H])C4([H])[H])C([H])([H])C([H])([H])C([H])([H])C3([H])[H])c([H])c([H])c2C1([H])[H]

$$$$
27:0:0
     RDKit          3D

 93101  0  0  1  0  0  0  0  0999 V2000
  -31.1950  -17.7580   21.5050 C   0  0  0  0  0  3  0  0  0  0  0  0
  -29.2280  -18.4960   20.3390 C   0  0  0  0  0  3  0  0  0  0  0  0
  -30.0600  -17.3800   20.7600 C   0  0  0  0  0  0  0  0  0  0  0  0
  -31.4410  -19.1180   21.8000 C   0  0  0  0  0  0  0  0  0  0  0  0
  -29.5540  -19.8760   20.6490 C   0  0  0  0  0  0  0  0  0  0  0  0
  -30.6510  -20.1370   21.3810 N   0  0  0  0  0  0  0  0  0  0  0  0
  -30.5710  -14.8220   20.4020 C   0  0  0  0  0  0  0  0  0  0  0  0
  -30.4040  -12.5510   19.3650 C   0  0  0  0  0  2  0  0  0  0  0  0
  -29.4600  -12.6150   18.1440 C   0  0  0  0  0  2  0  0  0  0  0  0
  -27.9920  -12.4250   18.5770 C   0  0  0  0  0  2  0  0  0  0  0  0
  -27.6110  -13.3050   19.7980 C   0  0  0  0  0  3  0  0  0  0  0  0
  -28.6730  -13.2170   20.9140 C   0  0  0  0  0  2  0  0  0  0  0  0
  -29.9600  -13.5920   20.3170 N   0  0  0  0  0  0  0  0  0  0  0  0
  -31.7670  -14.9260   20.1050 O   0  0  0  0  0  0  0  0  0  0  0  0
  -29.7560  -15.9390   20.5530 N   0  0  0  0  0  0  0  0  0  0  0  0
  -28.7730  -15.7150   20.5550 H   0  0  0  0  0  0  0  0  0  0  0  0
  -25.2230  -13.8760   20.5400 C   0  0  0  0  0  0  0  0  0  0  0  0
  -24.1660  -13.0920   20.9120 C   0  0  0  0  0  0  0  0  0  0  0  0
  -24.6410  -11.7460   20.8780 C   0  0  0  0  0  0  0  0  0  0  0  0
  -26.2730  -13.0050   20.2960 N   0  0  0  0  0  0  0  0  0  0  0  0
  -25.9310  -11.7200   20.5650 N   0  0  0  0  0  0  0  0  0  0  0  0
  -23.9270  -10.4770   21.0660 C   0  0  0  0  0  0  0  0  0  0  0  0
  -24.3740   -9.5080   21.9910 C   0  0  0  0  0  3  0  0  0  0  0  0
  -23.6590   -8.3040   22.1680 C   0  0  0  0  0  3  0  0  0  0  0  0
  -22.4830   -8.0610   21.4200 C   0  0  0  0  0  0  0  0  0  0  0  0
  -22.0560   -9.0170   20.4830 C   0  0  0  0  0  3  0  0  0  0  0  0
  -22.7710  -10.2130   20.3030 C   0  0  0  0  0  3  0  0  0  0  0  0
  -21.7380   -6.9100   21.5070 O   0  0  0  0  0  0  0  0  0  0  0  0
  -21.7020   -6.1590   22.6560 C   0  0  0  0  0  0  0  0  0  0  0  0
  -21.2830   -6.7030   23.8900 C   0  0  0  0  0  3  0  0  0  0  0  0
  -21.1980   -5.8790   25.0300 C   0  0  0  0  0  3  0  0  0  0  0  0
  -21.5200   -4.5120   24.9370 C   0  0  0  0  0  0  0  0  0  0  0  0
  -21.9300   -3.9670   23.7080 C   0  0  0  0  0  3  0  0  0  0  0  0
  -22.0190   -4.7880   22.5690 C   0  0  0  0  0  0  0  0  0  0  0  0
  -22.3950   -4.2540   21.3830 F   0  0  0  0  0  0  0  0  0  0  0  0
  -21.4300   -3.7170   26.0280 F   0  0  0  0  0  0  0  0  0  0  0  0
  -22.7650  -13.5570   21.1840 C   0  0  0  0  0  0  0  0  0  0  0  0
  -22.0400  -12.8510   22.0470 N   0  0  0  0  0  0  0  0  0  0  0  0
  -22.3190  -14.5800   20.6660 O   0  0  0  0  0  0  0  0  0  0  0  0
  -22.4150  -12.0270   22.4910 H   0  0  0  0  0  0  0  0  0  0  0  0
  -21.0980  -13.1440   22.2650 H   0  0  0  0  0  0  0  0  0  0  0  0
  -25.3710  -15.2480   20.3620 N   0  0  0  0  0  0  0  0  0  0  0  0
  -24.5880  -15.8840   20.4640 H   0  0  0  0  0  0  0  0  0  0  0  0
  -26.1920  -15.6980   19.9780 H   0  0  0  0  0  0  0  0  0  0  0  0
  -32.6470  -19.5120   22.6390 C   0  0  0  0  0  3  0  0  0  0  0  0
  -32.3070  -20.3890   23.5860 F   0  0  0  0  0  0  0  0  0  0  0  0
  -33.6030  -20.0390   21.8740 F   0  0  0  0  0  0  0  0  0  0  0  0
  -28.8140  -21.0420   20.2140 N   0  0  0  0  0  0  0  0  0  0  0  0
  -27.9730  -20.8460   19.6780 H   0  0  0  0  0  0  0  0  0  0  0  0
  -28.8830  -22.4170   20.8600 C   0  0  0  0  0  3  0  0  0  0  0  0
  -28.4780  -23.7540   20.0320 C   0  0  0  0  0  3  0  0  0  0  0  0
  -28.2280  -25.1350   20.8400 C   0  0  0  0  0  2  0  0  0  0  0  0
  -28.3360  -26.4960   20.2250 O   0  0  0  0  0  0  0  0  0  0  0  0
  -24.6050  -31.9490   23.2400 C   0  0  0  0  0  0  0  0  0  0  0  0
  -27.2200  -27.3500   20.2290 C   0  0  0  0  0  0  0  0  0  0  0  0
  -23.4070  -30.5380   21.6020 C   0  0  0  0  0  3  0  0  0  0  0  0
  -24.8610  -28.9720   20.1930 C   0  0  0  0  0  0  0  0  0  0  0  0
  -25.9480  -30.8490   21.4270 C   0  0  0  0  0  2  0  0  0  0  0  0
  -26.0280  -29.4640   20.7920 C   0  0  0  0  0  0  0  0  0  0  0  0
  -27.2140  -28.6670   20.7940 C   0  0  0  0  0  3  0  0  0  0  0  0
  -26.0330  -26.9110   19.6110 C   0  0  0  0  0  3  0  0  0  0  0  0
  -24.8670  -27.7030   19.5890 C   0  0  0  0  0  3  0  0  0  0  0  0
  -23.6280  -29.8510   20.2280 C   0  0  0  0  0  2  0  0  0  0  0  0
  -24.6720  -31.1340   22.1460 N   0  0  0  0  0  0  0  0  0  0  0  0
  -23.5190  -32.2270   23.7700 O   0  0  0  0  0  0  0  0  0  0  0  0
  -22.7390  -29.5320   22.5700 C   0  0  0  0  0  0  0  0  0  0  0  0
  -21.4130  -29.3570   22.4430 N   0  0  0  0  0  0  0  0  0  0  0  0
  -23.4150  -28.9100   23.3950 O   0  0  0  0  0  0  0  0  0  0  0  0
  -20.9280  -29.9090   21.7500 H   0  0  0  0  0  0  0  0  0  0  0  0
  -18.0330  -28.1630   22.9470 C   0  0  0  0  0  0  0  0  0  0  0  0
  -20.5920  -28.4250   23.2190 C   0  0  0  0  0  3  0  0  0  0  0  0
  -20.6950  -26.9890   22.6540 C   0  0  0  0  0  2  0  0  0  0  0  0
  -19.5940  -26.6590   21.6400 C   0  0  0  0  0  2  0  0  0  0  0  0
  -18.2110  -26.8100   22.2800 C   0  0  0  0  0  2  0  0  0  0  0  0
  -19.1510  -28.9280   23.3740 C   0  0  0  0  0  0  0  0  0  0  0  0
  -18.9300  -30.1940   23.9600 C   0  0  0  0  0  3  0  0  0  0  0  0
  -17.6230  -30.6940   24.1220 C   0  0  0  0  0  3  0  0  0  0  0  0
  -16.5210  -29.9270   23.7090 C   0  0  0  0  0  3  0  0  0  0  0  0
  -16.7260  -28.6630   23.1270 C   0  0  0  0  0  3  0  0  0  0  0  0
  -25.8850  -32.5850   23.8640 C   0  0  0  0  0  3  0  0  0  0  0  0
  -25.5740  -33.9850   24.1880 N   0  0  0  0  0  0  0  0  0  0  0  0
  -25.9050  -35.0360   23.4240 C   0  0  0  0  0  0  0  0  0  0  0  0
  -26.5740  -34.9280   22.3930 O   0  0  0  0  0  0  0  0  0  0  0  0
  -24.9820  -34.1440   24.9900 H   0  0  0  0  0  0  0  0  0  0  0  0
  -24.1780  -36.8310   23.0650 C   0  0  0  0  0  1  0  0  0  0  0  0
  -25.4200  -36.4280   23.8770 C   0  0  0  0  0  3  0  0  0  0  0  0
  -27.5580  -37.3110   24.7010 C   0  0  0  0  0  1  0  0  0  0  0  0
  -26.4540  -37.4790   23.7590 N   0  0  0  0  0  0  0  0  0  0  0  0
  -26.0490  -38.4000   23.9050 H   0  0  0  0  0  0  0  0  0  0  0  0
  -26.3980  -31.8230   25.1480 C   0  0  1  0  0  0  0  0  0  0  0  0
  -25.3030  -31.5930   26.2160 C   0  0  0  0  0  1  0  0  0  0  0  0
  -26.9810  -30.4410   24.7680 C   0  0  0  0  0  1  0  0  0  0  0  0
  -27.5490  -32.6210   25.8050 C   0  0  0  0  0  1  0  0  0  0  0  0
  1  4  1  0
  2  5  2  0
  2  3  1  0
  3  1  2  0
  4 45  1  0
  5  6  1  0
  6  4  2  0
  7 15  1  0
  8 13  1  0
  9 10  1  0
  9  8  1  0
 11 10  1  0
 11 20  1  0
 11 12  1  0
 13  7  1  0
 13 12  1  0
 14  7  2  0
 15 16  1  0
 15  3  1  0
 17 18  2  0
 18 37  1  0
 19 18  1  0
 19 22  1  0
 20 17  1  0
 20 21  1  0
 21 19  2  0
 22 23  1  0
 23 24  2  0
 25 28  1  0
 25 24  1  0
 26 25  2  0
 27 26  1  0
 27 22  2  0
 28 29  1  0
 29 30  1  0
 30 31  2  0
 32 31  1  0
 32 36  1  0
 33 32  2  0
 34 29  2  0
 34 33  1  0
 35 34  1  0
 37 38  1  0
 38 41  1  0
 38 40  1  0
 39 37  2  0
 42 43  1  0
 42 17  1  0
 44 42  1  0
 45 46  1  0
 47 45  1  0
 48  5  1  0
 48 50  1  0
 49 48  1  0
 51 52  1  0
 51 50  2  0
 53 55  1  0
 53 52  1  0
 54 65  2  0
 55 60  1  0
 56 64  1  0
 56 66  1  0
 57 63  1  0
 57 59  1  0
 58 64  1  0
 59 60  2  0
 59 58  1  0
 61 55  2  0
 62 61  1  0
 62 57  2  0
 63 56  1  0
 64 54  1  0
 66 68  2  0
 67 66  1  0
 69 67  1  0
 70 79  2  0
 70 75  1  0
 71 67  1  0
 71 75  1  0
 72 71  1  0
 73 74  1  0
 73 72  1  0
 74 70  1  0
 75 76  2  0
 76 77  1  0
 78 77  2  0
 79 78  1  0
 80 54  1  0
 80 81  1  0
 80 90  1  0
 81 84  1  0
 82 86  1  0
 82 81  1  0
 83 82  2  0
 86 85  1  0
 88 86  1  0
 88 89  1  0
 88 87  1  0
 90 93  1  1
 90 91  1  0
 92 90  1  0
M  ISO  4   7 100  15 100  52 101  53 101
M  END
>  <TORSDO>  (28) 
F 21

>  <SCORE>  (28) 
-13.889

>  <name>  (28) 
27

>  <ligand_id>  (28) 
27

>  <original_smiles>  (28) 
[H]c1c([H])c([H])c2c(c1[H])C([H])([H])C([H])([H])C([H])([H])C2([H])N([H])C(=O)C1([H])N(C(=O)C([H])(N([H])C(=O)C([H])(N([H])C([H])([H])[H])C([H])([H])[H])C(C([H])([H])[H])(C([H])([H])[H])C([H])([H])[H])C([H])([H])c2c([H])c(OC([H])([H])C([H])([H])C([H])([H])N([H])c3nc(C([H])(F)F)c([H])c(N([H])C(=O)N4C([H])([H])C([H])([H])C([H])([H])C([H])(n5nc(-c6c([H])c([H])c(Oc7c([H])c([H])c(F)c([H])c7F)c([H])c6[H])c(C(=O)N([H])[H])c5N([H])[H])C4([H])[H])c3[H])c([H])c([H])c2C1([H])[H]

>  <smiles>  (28) 
[H]c1c([H])c([H])c2c(c1[H])C([H])([H])C([H])([H])C([H])([H])C2([H])N([H])C(=O)C1([H])N(C(=O)C([H])(N([H])C(=O)C([H])(N([H])C([H])([H])[H])C([H])([H])[H])C(C([H])([H])[H])(C([H])([H])[H])C([H])([H])[H])C([H])([H])c2c([H])c(OC([H])([H])C([H])([H])C([H])([H])N([H])c3nc(C([H])(F)F)c([H])c(N([H])C(=O)N4C([H])([H])C([H])([H])C([H])([H])C([H])(n5nc(-c6c([H])c([H])c(Oc7c([H])c([H])c(F)c([H])c7F)c([H])c6[H])c(C(=O)N([H])[H])c5N([H])[H])C4([H])[H])c3[H])c([H])c([H])c2C1([H])[H]

$$$$
28:0:0
     RDKit          3D

 98107  0  0  1  0  0  0  0  0999 V2000
  -30.1870  -23.5850   19.1530 C   0  0  0  0  0  2  0  0  0  0  0  0
  -29.0730  -21.4860   18.2440 C   0  0  0  0  0  2  0  0  0  0  0  0
  -29.1900  -24.3970   18.3210 C   0  0  0  0  0  2  0  0  0  0  0  0
  -28.2010  -22.3940   17.3490 C   0  0  0  0  0  2  0  0  0  0  0  0
  -29.6030  -22.2060   19.5130 C   0  0  0  0  0  3  0  0  0  0  0  0
  -28.8640  -23.6950   17.0530 N   0  0  2  0  0  4  0  0  0  0  0  0
  -28.1660  -24.2580   16.5820 H   0  0  0  0  0  0  0  0  0  0  0  0
  -30.5310  -21.3340   20.3720 C   0  0  0  0  0  0  0  0  0  0  0  0
  -31.1680  -22.0110   21.5960 C   0  0  0  0  0  2  0  0  0  0  0  0
  -32.1610  -21.1040   22.3300 C   0  0  0  0  0  2  0  0  0  0  0  0
  -31.5250  -19.7290   22.4800 C   0  0  0  0  0  2  0  0  0  0  0  0
  -31.1910  -19.1390   21.0920 C   0  0  0  0  0  3  0  0  0  0  0  0
  -30.6350  -20.0830   20.1280 N   0  0  0  0  0  0  0  0  0  0  0  0
  -32.3670  -18.3300   20.5060 C   0  0  0  0  0  2  0  0  0  0  0  0
  -32.3100  -16.0650   19.4980 C   0  0  0  0  0  0  0  0  0  0  0  0
  -32.9690  -14.5260   17.6940 C   0  0  0  0  0  2  0  0  0  0  0  0
  -34.3440  -14.9400   17.1250 C   0  0  0  0  0  2  0  0  0  0  0  0
  -34.2110  -16.0500   16.0600 C   0  0  0  0  0  2  0  0  0  0  0  0
  -33.2890  -17.2130   16.5080 C   0  0  0  0  0  3  0  0  0  0  0  0
  -31.9650  -16.6550   17.0770 C   0  0  0  0  0  2  0  0  0  0  0  0
  -32.2800  -15.7250   18.1860 N   0  0  0  0  0  0  0  0  0  0  0  0
  -32.8140  -15.3800   20.3920 O   0  0  0  0  0  0  0  0  0  0  0  0
  -31.7690  -17.2550   19.7320 N   0  0  0  0  0  0  0  0  0  0  0  0
  -31.2010  -17.5760   18.9620 H   0  0  0  0  0  0  0  0  0  0  0  0
  -33.4120  -19.4950   15.3140 C   0  0  0  0  0  0  0  0  0  0  0  0
  -33.0260  -19.8980   14.0640 C   0  0  0  0  0  0  0  0  0  0  0  0
  -32.4420  -18.7490   13.4450 C   0  0  0  0  0  0  0  0  0  0  0  0
  -33.0590  -18.1600   15.4150 N   0  0  0  0  0  0  0  0  0  0  0  0
  -32.4230  -17.7300   14.2950 N   0  0  0  0  0  0  0  0  0  0  0  0
  -31.9460  -18.5460   12.0780 C   0  0  0  0  0  0  0  0  0  0  0  0
  -30.5660  -18.4110   11.8060 C   0  0  0  0  0  3  0  0  0  0  0  0
  -30.1120  -18.2320   10.4820 C   0  0  0  0  0  3  0  0  0  0  0  0
  -31.0380  -18.1900    9.4130 C   0  0  0  0  0  0  0  0  0  0  0  0
  -32.4120  -18.3010    9.6920 C   0  0  0  0  0  3  0  0  0  0  0  0
  -32.8640  -18.4740   11.0110 C   0  0  0  0  0  3  0  0  0  0  0  0
  -30.6910  -17.9910    8.1000 O   0  0  0  0  0  0  0  0  0  0  0  0
  -29.6270  -18.6430    7.5280 C   0  0  0  0  0  0  0  0  0  0  0  0
  -29.6320  -20.0410    7.3320 C   0  0  0  0  0  3  0  0  0  0  0  0
  -28.5500  -20.6650    6.6780 C   0  0  0  0  0  3  0  0  0  0  0  0
  -27.4680  -19.8920    6.2130 C   0  0  0  0  0  0  0  0  0  0  0  0
  -27.4660  -18.4990    6.4020 C   0  0  0  0  0  3  0  0  0  0  0  0
  -28.5440  -17.8760    7.0550 C   0  0  0  0  0  0  0  0  0  0  0  0
  -28.5480  -16.5310    7.2170 F   0  0  0  0  0  0  0  0  0  0  0  0
  -26.4310  -20.4850    5.5780 F   0  0  0  0  0  0  0  0  0  0  0  0
  -33.2660  -21.2430   13.4370 C   0  0  0  0  0  0  0  0  0  0  0  0
  -32.3140  -21.7300   12.6480 N   0  0  0  0  0  0  0  0  0  0  0  0
  -34.2820  -21.8920   13.6830 O   0  0  0  0  0  0  0  0  0  0  0  0
  -31.4720  -21.2060   12.4600 H   0  0  0  0  0  0  0  0  0  0  0  0
  -32.4300  -22.6400   12.2240 H   0  0  0  0  0  0  0  0  0  0  0  0
  -34.0520  -20.1440   16.3660 N   0  0  0  0  0  0  0  0  0  0  0  0
  -34.3180  -21.1200   16.3250 H   0  0  0  0  0  0  0  0  0  0  0  0
  -34.2400  -19.7220   17.2660 H   0  0  0  0  0  0  0  0  0  0  0  0
  -29.9980  -23.5590   16.0950 C   0  0  0  0  0  2  0  0  0  0  0  0
  -31.0770  -24.6650   16.2040 C   0  0  0  0  0  2  0  0  0  0  0  0
  -32.2970  -24.4180   15.2840 C   0  0  0  0  0  3  0  0  0  0  0  0
  -33.4100  -24.4570   16.0240 F   0  0  0  0  0  0  0  0  0  0  0  0
  -32.4450  -25.3380   14.0370 C   0  0  0  0  0  2  0  0  0  0  0  0
  -33.3830  -26.4100   14.1940 O   0  0  0  0  0  0  0  0  0  0  0  0
  -35.2060  -28.4760   20.7280 C   0  0  0  0  0  0  0  0  0  0  0  0
  -33.1400  -27.3010   15.2090 C   0  0  0  0  0  0  0  0  0  0  0  0
  -33.0700  -29.3740   19.8670 C   0  0  0  0  0  3  0  0  0  0  0  0
  -32.6410  -29.0300   17.3770 C   0  0  0  0  0  0  0  0  0  0  0  0
  -34.9560  -28.7390   18.2650 C   0  0  0  0  0  2  0  0  0  0  0  0
  -33.8940  -28.4240   17.2360 C   0  0  0  0  0  0  0  0  0  0  0  0
  -34.1490  -27.5510   16.1590 C   0  0  0  0  0  3  0  0  0  0  0  0
  -31.9000  -27.9660   15.3290 C   0  0  0  0  0  3  0  0  0  0  0  0
  -31.6350  -28.7960   16.4290 C   0  0  0  0  0  3  0  0  0  0  0  0
  -32.4550  -29.9500   18.5640 C   0  0  0  0  0  2  0  0  0  0  0  0
  -34.4420  -28.8180   19.6500 N   0  0  0  0  0  0  0  0  0  0  0  0
  -34.7960  -28.6460   21.8860 O   0  0  0  0  0  0  0  0  0  0  0  0
  -32.0840  -28.3500   20.4740 C   0  0  0  0  0  0  0  0  0  0  0  0
  -30.8900  -28.8280   20.8580 N   0  0  0  0  0  0  0  0  0  0  0  0
  -32.3940  -27.1580   20.5770 O   0  0  0  0  0  0  0  0  0  0  0  0
  -30.7220  -29.8150   20.7360 H   0  0  0  0  0  0  0  0  0  0  0  0
  -27.4130  -28.9400   21.8770 C   0  0  0  0  0  0  0  0  0  0  0  0
  -29.7980  -28.0460   21.4380 C   0  0  0  0  0  3  0  0  0  0  0  0
  -29.1440  -27.1240   20.3830 C   0  0  0  0  0  2  0  0  0  0  0  0
  -27.9270  -27.7580   19.7080 C   0  0  0  0  0  2  0  0  0  0  0  0
  -26.8580  -28.0810   20.7490 C   0  0  0  0  0  2  0  0  0  0  0  0
  -28.7990  -28.9320   22.1950 C   0  0  0  0  0  0  0  0  0  0  0  0
  -29.2760  -29.7710   23.2260 C   0  0  0  0  0  3  0  0  0  0  0  0
  -28.3920  -30.5990   23.9420 C   0  0  0  0  0  3  0  0  0  0  0  0
  -27.0200  -30.5890   23.6380 C   0  0  0  0  0  3  0  0  0  0  0  0
  -26.5350  -29.7590   22.6140 C   0  0  0  0  0  3  0  0  0  0  0  0
  -36.6360  -27.8780   20.5570 C   0  0  0  0  0  3  0  0  0  0  0  0
  -37.5370  -28.6150   21.4530 N   0  0  0  0  0  0  0  0  0  0  0  0
  -38.3090  -29.6420   21.0740 C   0  0  0  0  0  0  0  0  0  0  0  0
  -38.3930  -30.0210   19.9010 O   0  0  0  0  0  0  0  0  0  0  0  0
  -37.4820  -28.3960   22.4380 H   0  0  0  0  0  0  0  0  0  0  0  0
  -38.4160  -31.6850   22.5390 C   0  0  0  0  0  1  0  0  0  0  0  0
  -39.1140  -30.3650   22.1680 C   0  0  0  0  0  3  0  0  0  0  0  0
  -41.3430  -29.4300   21.7320 C   0  0  0  0  0  1  0  0  0  0  0  0
  -40.5190  -30.6350   21.7860 N   0  0  0  0  0  0  0  0  0  0  0  0
  -40.9500  -31.2880   22.4330 H   0  0  0  0  0  0  0  0  0  0  0  0
  -36.7030  -26.3300   20.8570 C   0  0  1  0  0  0  0  0  0  0  0  0
  -36.1860  -25.9460   22.2640 C   0  0  0  0  0  1  0  0  0  0  0  0
  -35.8720  -25.5380   19.8210 C   0  0  0  0  0  1  0  0  0  0  0  0
  -38.1600  -25.8300   20.7310 C   0  0  0  0  0  1  0  0  0  0  0  0
  1  5  1  0
  2  5  1  0
  3  1  1  0
  4  2  1  0
  5  8  1  0
  6  4  1  0
  6  3  1  0
  6  7  1  6
  8  9  1  0
  9 10  1  0
 10 11  1  0
 12 14  1  0
 12 11  1  0
 13  8  2  0
 13 12  1  0
 15 23  1  0
 15 22  2  0
 16 21  1  0
 17 16  1  0
 18 19  1  0
 18 17  1  0
 19 28  1  0
 19 20  1  0
 20 21  1  0
 21 15  1  0
 23 14  1  0
 24 23  1  0
 25 28  1  0
 25 50  1  0
 26 25  2  0
 27 26  1  0
 27 29  2  0
 29 28  1  0
 30 27  1  0
 31 30  1  0
 32 31  2  0
 33 34  2  0
 33 32  1  0
 34 35  1  0
 35 30  2  0
 36 33  1  0
 37 36  1  0
 38 37  1  0
 39 38  2  0
 40 41  2  0
 40 39  1  0
 41 42  1  0
 42 43  1  0
 42 37  2  0
 44 40  1  0
 45 47  2  0
 45 26  1  0
 46 45  1  0
 48 46  1  0
 49 46  1  0
 50 52  1  0
 51 50  1  0
 53 54  1  0
 53  6  1  0
 55 56  1  0
 55 54  1  0
 57 58  1  0
 57 55  1  0
 58 60  1  0
 59 70  2  0
 60 66  2  0
 60 65  1  0
 61 71  1  0
 62 68  1  0
 63 69  1  0
 64 62  1  0
 64 63  1  0
 65 64  2  0
 66 67  1  0
 67 62  2  0
 68 61  1  0
 69 61  1  0
 69 59  1  0
 71 73  2  0
 71 72  1  0
 74 72  1  0
 75 80  2  0
 75 84  1  0
 76 72  1  0
 76 80  1  0
 77 76  1  0
 78 77  1  0
 78 79  1  0
 79 75  1  0
 80 81  1  0
 81 82  2  0
 83 82  1  0
 84 83  2  0
 85 59  1  0
 85 95  1  0
 85 86  1  0
 86 89  1  0
 87 86  1  0
 87 91  1  0
 88 87  2  0
 91 90  1  0
 92 93  1  0
 93 91  1  0
 93 94  1  0
 95 96  1  1
 97 95  1  0
 98 95  1  0
M  ISO  4  15 100  23 100  57 101  58 101
M  END
>  <TORSDO>  (29) 
F 22

>  <SCORE>  (29) 
-4.178

>  <name>  (29) 
28

>  <ligand_id>  (29) 
28

>  <original_smiles>  (29) 
[H]c1c([H])c([H])c2c(c1[H])C([H])([H])C([H])([H])C([H])([H])C2([H])N([H])C(=O)C1([H])N(C(=O)C([H])(N([H])C(=O)C([H])(N([H])C([H])([H])[H])C([H])([H])[H])C(C([H])([H])[H])(C([H])([H])[H])C([H])([H])[H])C([H])([H])c2c([H])c(OC([H])([H])C([H])(F)C([H])([H])C([H])([H])[N+]3([H])C([H])([H])C([H])([H])C([H])(C4=NC([H])(C([H])([H])N([H])C(=O)N5C([H])([H])C([H])([H])C([H])([H])C([H])(n6nc(-c7c([H])c([H])c(Oc8c([H])c([H])c(F)c([H])c8F)c([H])c7[H])c(C(=O)N([H])[H])c6N([H])[H])C5([H])[H])C([H])([H])C([H])([H])C4([H])[H])C([H])([H])C3([H])[H])c([H])c([H])c2C1([H])[H]

>  <smiles>  (29) 
[H]c1c([H])c([H])c2c(c1[H])C([H])([H])C([H])([H])C([H])([H])C2([H])N([H])C(=O)C1([H])N(C(=O)C([H])(N([H])C(=O)C([H])(N([H])C([H])([H])[H])C([H])([H])[H])C(C([H])([H])[H])(C([H])([H])[H])C([H])([H])[H])C([H])([H])c2c([H])c(OC([H])([H])C([H])(F)C([H])([H])C([H])([H])[N+]3([H])C([H])([H])C([H])([H])C([H])(C4=NC([H])(C([H])([H])N([H])C(=O)N5C([H])([H])C([H])([H])C([H])([H])C([H])(n6nc(-c7c([H])c([H])c(Oc8c([H])c([H])c(F)c([H])c8F)c([H])c7[H])c(C(=O)N([H])[H])c6N([H])[H])C5([H])[H])C([H])([H])C([H])([H])C4([H])[H])C([H])([H])C3([H])[H])c([H])c([H])c2C1([H])[H]

$$$$
29:0:0
     RDKit          3D

 94102  0  0  1  0  0  0  0  0999 V2000
  -30.3050  -21.6640   19.6510 C   0  0  0  0  0  2  0  0  0  0  0  0
  -29.1930  -22.5570   19.3310 N   0  0  0  0  0  0  0  0  0  0  0  0
  -28.7860  -22.8720   20.2070 H   0  0  0  0  0  0  0  0  0  0  0  0
  -29.8570  -23.3240   17.0980 C   0  0  0  0  0  1  0  0  0  0  0  0
  -29.6410  -23.7220   18.5690 C   0  0  0  0  0  3  0  0  0  0  0  0
  -28.6040  -24.8600   18.6800 C   0  0  0  0  0  2  0  0  0  0  0  0
  -28.4210  -25.4020   20.1100 C   0  0  0  0  0  2  0  0  0  0  0  0
  -28.3920  -26.8250   20.1460 O   0  0  0  0  0  0  0  0  0  0  0  0
  -24.5550  -31.9210   23.2250 C   0  0  0  0  0  0  0  0  0  0  0  0
  -27.1810  -27.4780   20.1520 C   0  0  0  0  0  0  0  0  0  0  0  0
  -23.3330  -30.5090   21.6000 C   0  0  0  0  0  3  0  0  0  0  0  0
  -24.7730  -28.9570   20.1790 C   0  0  0  0  0  0  0  0  0  0  0  0
  -25.8540  -30.8700   21.3790 C   0  0  0  0  0  2  0  0  0  0  0  0
  -25.9330  -29.4960   20.7490 C   0  0  0  0  0  0  0  0  0  0  0  0
  -27.1370  -28.7640   20.7290 C   0  0  0  0  0  3  0  0  0  0  0  0
  -26.0030  -26.9390   19.5860 C   0  0  0  0  0  3  0  0  0  0  0  0
  -24.8020  -27.6760   19.5980 C   0  0  0  0  0  3  0  0  0  0  0  0
  -23.5300  -29.8140   20.2260 C   0  0  0  0  0  2  0  0  0  0  0  0
  -24.5990  -31.1150   22.1270 N   0  0  0  0  0  0  0  0  0  0  0  0
  -23.4790  -32.1990   23.7720 O   0  0  0  0  0  0  0  0  0  0  0  0
  -22.6880  -29.4970   22.5730 C   0  0  0  0  0  0  0  0  0  0  0  0
  -21.3630  -29.3180   22.4540 N   0  0  0  0  0  0  0  0  0  0  0  0
  -23.3750  -28.8760   23.3890 O   0  0  0  0  0  0  0  0  0  0  0  0
  -20.8700  -29.8720   21.7680 H   0  0  0  0  0  0  0  0  0  0  0  0
  -17.9910  -28.1310   22.9650 C   0  0  0  0  0  0  0  0  0  0  0  0
  -20.5480  -28.3870   23.2340 C   0  0  0  0  0  3  0  0  0  0  0  0
  -20.6480  -26.9510   22.6700 C   0  0  0  0  0  2  0  0  0  0  0  0
  -19.5460  -26.6200   21.6590 C   0  0  0  0  0  2  0  0  0  0  0  0
  -18.1650  -26.7750   22.3030 C   0  0  0  0  0  2  0  0  0  0  0  0
  -19.1100  -28.8950   23.3880 C   0  0  0  0  0  0  0  0  0  0  0  0
  -18.8950  -30.1650   23.9650 C   0  0  0  0  0  3  0  0  0  0  0  0
  -17.5910  -30.6710   24.1260 C   0  0  0  0  0  3  0  0  0  0  0  0
  -16.4850  -29.9030   23.7210 C   0  0  0  0  0  3  0  0  0  0  0  0
  -16.6860  -28.6350   23.1460 C   0  0  0  0  0  3  0  0  0  0  0  0
  -25.8480  -32.5500   23.8320 C   0  0  0  0  0  3  0  0  0  0  0  0
  -26.3780  -31.7800   25.1040 C   0  0  1  0  0  0  0  0  0  0  0  0
  -25.2950  -31.5440   26.1840 C   0  0  0  0  0  1  0  0  0  0  0  0
  -26.9550  -30.4020   24.7050 C   0  0  0  0  0  1  0  0  0  0  0  0
  -27.5350  -32.5740   25.7560 C   0  0  0  0  0  1  0  0  0  0  0  0
  -25.5470  -33.9500   24.1600 N   0  0  0  0  0  0  0  0  0  0  0  0
  -25.8810  -34.9990   23.3960 C   0  0  0  0  0  0  0  0  0  0  0  0
  -26.5480  -34.8890   22.3630 O   0  0  0  0  0  0  0  0  0  0  0  0
  -24.9550  -34.1090   24.9620 H   0  0  0  0  0  0  0  0  0  0  0  0
  -24.1560  -36.7930   23.0390 C   0  0  0  0  0  1  0  0  0  0  0  0
  -25.3980  -36.3890   23.8490 C   0  0  0  0  0  3  0  0  0  0  0  0
  -27.5410  -37.2660   24.6650 C   0  0  0  0  0  1  0  0  0  0  0  0
  -26.4320  -37.4400   23.7310 N   0  0  0  0  0  0  0  0  0  0  0  0
  -26.0300  -38.3590   23.8860 H   0  0  0  0  0  0  0  0  0  0  0  0
  -29.8110  -20.4340   20.4350 C   0  0  0  0  0  2  0  0  0  0  0  0
  -30.8610  -19.3950   20.5230 N   0  0  0  0  0  4  0  0  0  0  0  0
  -31.1430  -19.1470   19.5880 H   0  0  0  0  0  0  0  0  0  0  0  0
  -31.6590  -19.8110   20.9760 H   0  0  0  0  0  0  0  0  0  0  0  0
  -30.6500  -14.3860   20.2170 C   0  0  0  0  0  0  0  0  0  0  0  0
  -30.2010  -12.3390   18.9090 C   0  0  0  0  0  2  0  0  0  0  0  0
  -29.1990  -12.6060   17.7690 C   0  0  0  0  0  2  0  0  0  0  0  0
  -27.7520  -12.4460   18.2700 C   0  0  0  0  0  2  0  0  0  0  0  0
  -27.4940  -13.2350   19.5780 C   0  0  0  0  0  3  0  0  0  0  0  0
  -28.6000  -12.9410   20.6220 C   0  0  0  0  0  2  0  0  0  0  0  0
  -29.9020  -13.2640   20.0160 N   0  0  0  0  0  0  0  0  0  0  0  0
  -31.6810  -14.6030   19.5690 O   0  0  0  0  0  0  0  0  0  0  0  0
  -31.7360  -17.2420   21.4310 C   0  0  0  0  0  2  0  0  0  0  0  0
  -29.3450  -17.3830   20.6030 C   0  0  0  0  0  2  0  0  0  0  0  0
  -31.3730  -15.8670   22.0420 C   0  0  0  0  0  2  0  0  0  0  0  0
  -29.1020  -16.0250   21.2870 C   0  0  0  0  0  2  0  0  0  0  0  0
  -30.5020  -18.1630   21.2710 C   0  0  0  0  0  3  0  0  0  0  0  0
  -30.3200  -15.1990   21.2590 N   0  0  0  0  0  0  0  0  0  0  0  0
  -25.1330  -13.8630   20.3950 C   0  0  0  0  0  0  0  0  0  0  0  0
  -24.0790  -13.0950   20.8110 C   0  0  0  0  0  0  0  0  0  0  0  0
  -24.5330  -11.7420   20.7570 C   0  0  0  0  0  0  0  0  0  0  0  0
  -26.1620  -12.9760   20.1150 N   0  0  0  0  0  0  0  0  0  0  0  0
  -25.8070  -11.6960   20.3910 N   0  0  0  0  0  0  0  0  0  0  0  0
  -23.8140  -10.4820   20.9750 C   0  0  0  0  0  0  0  0  0  0  0  0
  -24.2860   -9.5110   21.8850 C   0  0  0  0  0  3  0  0  0  0  0  0
  -23.5690   -8.3130   22.0900 C   0  0  0  0  0  3  0  0  0  0  0  0
  -22.3650   -8.0780   21.3840 C   0  0  0  0  0  0  0  0  0  0  0  0
  -21.9130   -9.0370   20.4610 C   0  0  0  0  0  3  0  0  0  0  0  0
  -22.6300  -10.2270   20.2550 C   0  0  0  0  0  3  0  0  0  0  0  0
  -21.6150   -6.9320   21.5000 O   0  0  0  0  0  0  0  0  0  0  0  0
  -21.6180   -6.1840   22.6490 C   0  0  0  0  0  0  0  0  0  0  0  0
  -21.2690   -6.7370   23.9000 C   0  0  0  0  0  3  0  0  0  0  0  0
  -21.2180   -5.9170   25.0440 C   0  0  0  0  0  3  0  0  0  0  0  0
  -21.5050   -4.5420   24.9390 C   0  0  0  0  0  0  0  0  0  0  0  0
  -21.8460   -3.9880   23.6930 C   0  0  0  0  0  3  0  0  0  0  0  0
  -21.9000   -4.8070   22.5500 C   0  0  0  0  0  0  0  0  0  0  0  0
  -22.2100   -4.2630   21.3490 F   0  0  0  0  0  0  0  0  0  0  0  0
  -21.4470   -3.7510   26.0350 F   0  0  0  0  0  0  0  0  0  0  0  0
  -22.6980  -13.5770   21.1460 C   0  0  0  0  0  0  0  0  0  0  0  0
  -22.0050  -12.8760   22.0380 N   0  0  0  0  0  0  0  0  0  0  0  0
  -22.2400  -14.6060   20.6510 O   0  0  0  0  0  0  0  0  0  0  0  0
  -22.3870  -12.0410   22.4580 H   0  0  0  0  0  0  0  0  0  0  0  0
  -21.0790  -13.1800   22.3050 H   0  0  0  0  0  0  0  0  0  0  0  0
  -25.2950  -15.2330   20.2110 N   0  0  0  0  0  0  0  0  0  0  0  0
  -24.5330  -15.8880   20.3520 H   0  0  0  0  0  0  0  0  0  0  0  0
  -26.1200  -15.6670   19.8180 H   0  0  0  0  0  0  0  0  0  0  0  0
  1 49  1  0
  2  1  1  0
  2  3  1  0
  5  4  1  0
  5  6  1  0
  5  2  1  0
  6  7  1  0
  7  8  1  0
  8 10  1  0
  9 20  2  0
 10 15  1  0
 11 19  1  0
 11 21  1  0
 12 18  1  0
 12 14  1  0
 13 19  1  0
 14 13  1  0
 15 14  2  0
 16 17  1  0
 16 10  2  0
 17 12  2  0
 18 11  1  0
 19  9  1  0
 21 23  2  0
 22 21  1  0
 24 22  1  0
 25 34  2  0
 25 30  1  0
 26 22  1  0
 26 30  1  0
 27 26  1  0
 28 29  1  0
 28 27  1  0
 29 25  1  0
 30 31  2  0
 31 32  1  0
 33 32  2  0
 34 33  1  0
 35  9  1  0
 35 40  1  0
 35 36  1  0
 36 39  1  1
 36 37  1  0
 38 36  1  0
 40 43  1  0
 41 45  1  0
 41 40  1  0
 42 41  2  0
 45 44  1  0
 47 45  1  0
 47 48  1  0
 47 46  1  0
 49 50  1  0
 50 52  1  0
 51 50  1  0
 53 66  1  0
 54 59  1  0
 55 56  1  0
 55 54  1  0
 57 56  1  0
 57 70  1  0
 57 58  1  0
 59 53  1  0
 59 58  1  0
 60 53  2  0
 61 63  1  0
 62 65  1  0
 62 64  1  0
 65 50  1  0
 65 61  1  0
 66 64  1  0
 66 63  1  0
 67 68  2  0
 68 87  1  0
 69 68  1  0
 69 72  1  0
 70 71  1  0
 70 67  1  0
 71 69  2  0
 72 73  1  0
 73 74  2  0
 75 78  1  0
 75 74  1  0
 76 75  2  0
 77 76  1  0
 77 72  2  0
 78 79  1  0
 79 80  1  0
 80 81  2  0
 82 81  1  0
 82 86  1  0
 83 82  2  0
 84 79  2  0
 84 83  1  0
 85 84  1  0
 87 88  1  0
 88 91  1  0
 88 90  1  0
 89 87  2  0
 92 93  1  0
 92 67  1  0
 94 92  1  0
M  ISO  4   7 101   8 101  53 100  66 100
M  END
>  <TORSDO>  (30) 
F 22

>  <SCORE>  (30) 
-12.460

>  <name>  (30) 
29

>  <ligand_id>  (30) 
29

>  <original_smiles>  (30) 
[H]c1c([H])c([H])c2c(c1[H])C([H])([H])C([H])([H])C([H])([H])C2([H])N([H])C(=O)C1([H])N(C(=O)C([H])(N([H])C(=O)C([H])(N([H])C([H])([H])[H])C([H])([H])[H])C(C([H])([H])[H])(C([H])([H])[H])C([H])([H])[H])C([H])([H])c2c([H])c(OC([H])([H])C([H])([H])C([H])(N([H])C([H])([H])C([H])([H])[N+]([H])([H])C3([H])C([H])([H])C([H])([H])N(C(=O)N4C([H])([H])C([H])([H])C([H])([H])C([H])(n5nc(-c6c([H])c([H])c(Oc7c([H])c([H])c(F)c([H])c7F)c([H])c6[H])c(C(=O)N([H])[H])c5N([H])[H])C4([H])[H])C([H])([H])C3([H])[H])C([H])([H])[H])c([H])c([H])c2C1([H])[H]

>  <smiles>  (30) 
[H]c1c([H])c([H])c2c(c1[H])C([H])([H])C([H])([H])C([H])([H])C2([H])N([H])C(=O)C1([H])N(C(=O)C([H])(N([H])C(=O)C([H])(N([H])C([H])([H])[H])C([H])([H])[H])C(C([H])([H])[H])(C([H])([H])[H])C([H])([H])[H])C([H])([H])c2c([H])c(OC([H])([H])C([H])([H])C([H])(N([H])C([H])([H])C([H])([H])[N+]([H])([H])C3([H])C([H])([H])C([H])([H])N(C(=O)N4C([H])([H])C([H])([H])C([H])([H])C([H])(n5nc(-c6c([H])c([H])c(Oc7c([H])c([H])c(F)c([H])c7F)c([H])c6[H])c(C(=O)N([H])[H])c5N([H])[H])C4([H])[H])C([H])([H])C3([H])[H])C([H])([H])[H])c([H])c([H])c2C1([H])[H]

$$$$
30:0:0
     RDKit          3D

 93101  0  0  1  0  0  0  0  0999 V2000
  -28.7520  -20.2030   21.5250 N   0  0  0  0  0  4  0  0  0  0  0  0
  -29.5950  -20.0220   22.0450 H   0  0  0  0  0  0  0  0  0  0  0  0
  -28.1320  -20.7200   22.1270 H   0  0  0  0  0  0  0  0  0  0  0  0
  -28.0720  -18.9220   21.2430 C   0  0  0  0  0  2  0  0  0  0  0  0
  -29.6730  -16.2400   19.0110 C   0  0  0  0  0  3  0  0  0  0  0  0
  -28.8800  -17.3230   19.4330 C   0  0  0  0  0  3  0  0  0  0  0  0
  -29.9570  -17.2470   21.6170 C   0  0  0  0  0  3  0  0  0  0  0  0
  -30.5820  -15.6250   19.9000 C   0  0  0  0  0  0  0  0  0  0  0  0
  -29.0060  -17.8240   20.7460 C   0  0  0  0  0  0  0  0  0  0  0  0
  -30.7390  -16.1490   21.2020 C   0  0  0  0  0  0  0  0  0  0  0  0
  -31.6040  -15.5810   22.0760 F   0  0  0  0  0  0  0  0  0  0  0  0
  -31.3030  -14.3840   19.4550 C   0  0  0  0  0  0  0  0  0  0  0  0
  -30.9240  -12.0660   18.7110 C   0  0  0  0  0  2  0  0  0  0  0  0
  -29.8930  -12.0800   17.5620 C   0  0  0  0  0  2  0  0  0  0  0  0
  -28.4510  -12.0470   18.1110 C   0  0  0  0  0  2  0  0  0  0  0  0
  -28.2150  -13.1040   19.2220 C   0  0  0  0  0  3  0  0  0  0  0  0
  -29.3430  -13.0440   20.2750 C   0  0  0  0  0  2  0  0  0  0  0  0
  -30.6330  -13.2100   19.5830 N   0  0  0  0  0  0  0  0  0  0  0  0
  -32.3650  -14.5010   18.8330 O   0  0  0  0  0  0  0  0  0  0  0  0
  -26.0100  -13.9340   20.2600 C   0  0  0  0  0  0  0  0  0  0  0  0
  -24.8960  -13.2650   20.6900 C   0  0  0  0  0  0  0  0  0  0  0  0
  -25.1690  -11.8770   20.4940 C   0  0  0  0  0  0  0  0  0  0  0  0
  -26.8980  -12.9570   19.8340 N   0  0  0  0  0  0  0  0  0  0  0  0
  -26.4000  -11.7100   20.0290 N   0  0  0  0  0  0  0  0  0  0  0  0
  -24.3110  -10.6990   20.6690 C   0  0  0  0  0  0  0  0  0  0  0  0
  -24.6090   -9.7040   21.6250 C   0  0  0  0  0  3  0  0  0  0  0  0
  -23.7580   -8.5880   21.7850 C   0  0  0  0  0  3  0  0  0  0  0  0
  -22.5950   -8.4620   20.9900 C   0  0  0  0  0  0  0  0  0  0  0  0
  -22.3150   -9.4450   20.0240 C   0  0  0  0  0  3  0  0  0  0  0  0
  -23.1660  -10.5510   19.8610 C   0  0  0  0  0  3  0  0  0  0  0  0
  -21.7260   -7.4000   21.0570 O   0  0  0  0  0  0  0  0  0  0  0  0
  -21.4010   -6.8110   22.2520 C   0  0  0  0  0  0  0  0  0  0  0  0
  -20.8480   -7.5500   23.3200 C   0  0  0  0  0  3  0  0  0  0  0  0
  -20.4650   -6.8930   24.5060 C   0  0  0  0  0  3  0  0  0  0  0  0
  -20.6250   -5.5000   24.6230 C   0  0  0  0  0  0  0  0  0  0  0  0
  -21.1710   -4.7610   23.5590 C   0  0  0  0  0  3  0  0  0  0  0  0
  -21.5550   -5.4160   22.3750 C   0  0  0  0  0  0  0  0  0  0  0  0
  -22.0620   -4.6970   21.3440 F   0  0  0  0  0  0  0  0  0  0  0  0
  -20.2500   -4.8670   25.7600 F   0  0  0  0  0  0  0  0  0  0  0  0
  -23.6130  -13.8790   21.1690 C   0  0  0  0  0  0  0  0  0  0  0  0
  -22.9300  -13.2220   22.1030 N   0  0  0  0  0  0  0  0  0  0  0  0
  -23.2310  -14.9720   20.7530 O   0  0  0  0  0  0  0  0  0  0  0  0
  -23.2540  -12.3350   22.4590 H   0  0  0  0  0  0  0  0  0  0  0  0
  -22.0730  -13.6130   22.4660 H   0  0  0  0  0  0  0  0  0  0  0  0
  -26.3370  -15.2840   20.1800 N   0  0  0  0  0  0  0  0  0  0  0  0
  -25.6850  -16.0170   20.4360 H   0  0  0  0  0  0  0  0  0  0  0  0
  -27.2180  -15.6390   19.8280 H   0  0  0  0  0  0  0  0  0  0  0  0
  -29.0470  -21.0520   20.3490 C   0  0  0  0  0  2  0  0  0  0  0  0
  -29.1550  -22.5410   20.7360 C   0  0  0  0  0  2  0  0  0  0  0  0
  -29.2550  -23.4850   19.5230 C   0  0  0  0  0  2  0  0  0  0  0  0
  -29.0770  -24.9640   19.9150 C   0  0  0  0  0  2  0  0  0  0  0  0
  -29.2640  -25.9370   18.7380 C   0  0  0  0  0  2  0  0  0  0  0  0
  -29.0220  -27.2800   19.1560 O   0  0  0  0  0  0  0  0  0  0  0  0
  -24.6310  -31.3770   22.9400 C   0  0  0  0  0  0  0  0  0  0  0  0
  -27.7310  -27.7530   19.2750 C   0  0  0  0  0  0  0  0  0  0  0  0
  -23.5580  -30.0190   21.1720 C   0  0  0  0  0  3  0  0  0  0  0  0
  -25.1460  -28.8740   19.5410 C   0  0  0  0  0  0  0  0  0  0  0  0
  -25.9980  -30.7540   20.9530 C   0  0  0  0  0  2  0  0  0  0  0  0
  -26.2430  -29.4910   20.1540 C   0  0  0  0  0  0  0  0  0  0  0  0
  -27.5330  -28.9380   20.0170 C   0  0  0  0  0  3  0  0  0  0  0  0
  -26.6090  -27.1320   18.6750 C   0  0  0  0  0  3  0  0  0  0  0  0
  -25.3230  -27.6910   18.8020 C   0  0  0  0  0  3  0  0  0  0  0  0
  -23.8000  -29.5370   19.7160 C   0  0  0  0  0  2  0  0  0  0  0  0
  -24.7480  -30.7270   21.7480 N   0  0  0  0  0  0  0  0  0  0  0  0
  -23.5460  -31.4310   23.5360 O   0  0  0  0  0  0  0  0  0  0  0  0
  -23.0950  -28.8120   22.0190 C   0  0  0  0  0  0  0  0  0  0  0  0
  -21.8230  -28.4170   21.8490 N   0  0  0  0  0  0  0  0  0  0  0  0
  -23.8750  -28.2380   22.7830 O   0  0  0  0  0  0  0  0  0  0  0  0
  -21.2460  -28.9440   21.2070 H   0  0  0  0  0  0  0  0  0  0  0  0
  -18.7360  -26.5570   22.0860 C   0  0  0  0  0  0  0  0  0  0  0  0
  -21.1790  -27.2830   22.5100 C   0  0  0  0  0  3  0  0  0  0  0  0
  -21.5840  -25.9480   21.8430 C   0  0  0  0  0  2  0  0  0  0  0  0
  -20.6060  -25.4970   20.7530 C   0  0  0  0  0  2  0  0  0  0  0  0
  -19.2000  -25.3230   21.3320 C   0  0  0  0  0  2  0  0  0  0  0  0
  -19.6650  -27.4850   22.6260 C   0  0  0  0  0  0  0  0  0  0  0  0
  -19.1800  -28.6350   23.2870 C   0  0  0  0  0  3  0  0  0  0  0  0
  -17.7970  -28.8630   23.4150 C   0  0  0  0  0  3  0  0  0  0  0  0
  -16.8810  -27.9320   22.8940 C   0  0  0  0  0  3  0  0  0  0  0  0
  -17.3510  -26.7810   22.2360 C   0  0  0  0  0  3  0  0  0  0  0  0
  -25.8440  -32.1060   23.5970 C   0  0  0  0  0  3  0  0  0  0  0  0
  -25.3770  -33.4220   24.0510 N   0  0  0  0  0  0  0  0  0  0  0  0
  -25.6220  -34.5760   23.4160 C   0  0  0  0  0  0  0  0  0  0  0  0
  -26.3360  -34.6490   22.4120 O   0  0  0  0  0  0  0  0  0  0  0  0
  -24.7410  -33.4310   24.8350 H   0  0  0  0  0  0  0  0  0  0  0  0
  -23.7450  -36.2250   23.1370 C   0  0  0  0  0  1  0  0  0  0  0  0
  -24.9720  -35.8520   23.9840 C   0  0  0  0  0  3  0  0  0  0  0  0
  -26.9600  -36.8290   25.0400 C   0  0  0  0  0  1  0  0  0  0  0  0
  -25.8970  -37.0030   24.0540 N   0  0  0  0  0  0  0  0  0  0  0  0
  -25.3930  -37.8570   24.2780 H   0  0  0  0  0  0  0  0  0  0  0  0
  -26.4830  -31.2970   24.7920 C   0  0  1  0  0  0  0  0  0  0  0  0
  -25.4520  -30.8230   25.8420 C   0  0  0  0  0  1  0  0  0  0  0  0
  -27.2320  -30.0490   24.2670 C   0  0  0  0  0  1  0  0  0  0  0  0
  -27.5350  -32.1710   25.5150 C   0  0  0  0  0  1  0  0  0  0  0  0
  1  2  1  0
  1  3  1  0
  4  1  1  0
  5  6  2  0
  5  8  1  0
  6  9  1  0
  8 10  2  0
  9  4  1  0
  9  7  2  0
 10  7  1  0
 10 11  1  0
 12 18  1  0
 12  8  1  0
 13 18  1  0
 14 15  1  0
 14 13  1  0
 16 15  1  0
 16 23  1  0
 16 17  1  0
 18 17  1  0
 19 12  2  0
 20 21  2  0
 21 40  1  0
 22 25  1  0
 22 21  1  0
 23 24  1  0
 23 20  1  0
 24 22  2  0
 25 26  1  0
 26 27  2  0
 28 31  1  0
 28 27  1  0
 29 28  2  0
 30 29  1  0
 30 25  2  0
 31 32  1  0
 32 37  2  0
 32 33  1  0
 33 34  2  0
 34 35  1  0
 35 39  1  0
 36 35  2  0
 37 36  1  0
 38 37  1  0
 40 41  1  0
 41 43  1  0
 41 44  1  0
 42 40  2  0
 45 20  1  0
 45 46  1  0
 47 45  1  0
 48 49  1  0
 48  1  1  0
 50 51  1  0
 50 49  1  0
 52 53  1  0
 52 51  1  0
 53 55  1  0
 54 65  2  0
 55 60  1  0
 56 64  1  0
 56 66  1  0
 57 63  1  0
 57 59  1  0
 58 64  1  0
 59 58  1  0
 60 59  2  0
 61 62  1  0
 61 55  2  0
 62 57  2  0
 63 56  1  0
 64 54  1  0
 66 68  2  0
 67 66  1  0
 69 67  1  0
 70 79  2  0
 70 75  1  0
 71 67  1  0
 71 75  1  0
 72 71  1  0
 73 74  1  0
 73 72  1  0
 74 70  1  0
 75 76  2  0
 76 77  1  0
 78 77  2  0
 79 78  1  0
 80 54  1  0
 80 81  1  0
 80 90  1  0
 81 84  1  0
 82 86  1  0
 82 81  1  0
 83 82  2  0
 86 85  1  0
 86 88  1  0
 88 89  1  0
 88 87  1  0
 90 93  1  1
 90 91  1  0
 92 90  1  0
M  ISO  4   8 100  12 100  52 101  53 101
M  END
>  <TORSDO>  (31) 
F 23

>  <SCORE>  (31) 
-8.341

>  <name>  (31) 
30

>  <ligand_id>  (31) 
30

>  <original_smiles>  (31) 
[H]c1c([H])c([H])c2c(c1[H])C([H])([H])C([H])([H])C([H])([H])C2([H])N([H])C(=O)C1([H])N(C(=O)C([H])(N([H])C(=O)C([H])(N([H])C([H])([H])[H])C([H])([H])[H])C(C([H])([H])[H])(C([H])([H])[H])C([H])([H])[H])C([H])([H])c2c([H])c(OC([H])([H])C([H])([H])C([H])([H])C([H])([H])C([H])([H])[N+]([H])([H])C([H])([H])c3c([H])c([H])c(C(=O)N4C([H])([H])C([H])([H])C([H])([H])C([H])(n5nc(-c6c([H])c([H])c(Oc7c([H])c([H])c(F)c([H])c7F)c([H])c6[H])c(C(=O)N([H])[H])c5N([H])[H])C4([H])[H])c(F)c3[H])c([H])c([H])c2C1([H])[H]

>  <smiles>  (31) 
[H]c1c([H])c([H])c2c(c1[H])C([H])([H])C([H])([H])C([H])([H])C2([H])N([H])C(=O)C1([H])N(C(=O)C([H])(N([H])C(=O)C([H])(N([H])C([H])([H])[H])C([H])([H])[H])C(C([H])([H])[H])(C([H])([H])[H])C([H])([H])[H])C([H])([H])c2c([H])c(OC([H])([H])C([H])([H])C([H])([H])C([H])([H])C([H])([H])[N+]([H])([H])C([H])([H])c3c([H])c([H])c(C(=O)N4C([H])([H])C([H])([H])C([H])([H])C([H])(n5nc(-c6c([H])c([H])c(Oc7c([H])c([H])c(F)c([H])c7F)c([H])c6[H])c(C(=O)N([H])[H])c5N([H])[H])C4([H])[H])c(F)c3[H])c([H])c([H])c2C1([H])[H]

$$$$
31:0:0
     RDKit          3D

 95103  0  0  1  0  0  0  0  0999 V2000
  -27.3330  -20.6410   18.3230 C   0  0  0  0  0  2  0  0  0  0  0  0
  -28.3020  -19.4520   18.5810 C   0  0  0  0  0  2  0  0  0  0  0  0
  -26.4830  -16.9440   20.7320 C   0  0  0  0  0  2  0  0  0  0  0  0
  -27.9300  -16.4370   20.8370 C   0  0  0  0  0  2  0  0  0  0  0  0
  -26.5090  -17.9970   19.6220 C   0  0  0  0  0  2  0  0  0  0  0  0
  -28.7110  -17.2620   19.8010 C   0  0  0  0  0  3  0  0  0  0  0  0
  -27.9000  -18.5030   19.6590 N   0  0  1  0  0  4  0  0  0  0  0  0
  -27.9940  -18.9950   20.5340 H   0  0  0  0  0  0  0  0  0  0  0  0
  -30.2100  -17.4890   20.1230 C   0  0  0  0  0  2  0  0  0  0  0  0
  -30.9060  -16.3830   20.9570 C   0  0  0  0  0  2  0  0  0  0  0  0
  -30.9760  -14.0690   19.9870 C   0  0  0  0  0  0  0  0  0  0  0  0
  -30.6080  -11.8630   18.9540 C   0  0  0  0  0  2  0  0  0  0  0  0
  -29.6290  -11.9880   17.7710 C   0  0  0  0  0  2  0  0  0  0  0  0
  -28.1630  -11.9210   18.2500 C   0  0  0  0  0  2  0  0  0  0  0  0
  -27.8790  -12.8510   19.4580 C   0  0  0  0  0  3  0  0  0  0  0  0
  -28.9600  -12.6560   20.5470 C   0  0  0  0  0  2  0  0  0  0  0  0
  -30.2750  -12.9070   19.9300 N   0  0  0  0  0  0  0  0  0  0  0  0
  -32.0330  -14.2620   19.3790 O   0  0  0  0  0  0  0  0  0  0  0  0
  -30.3970  -15.0310   20.7140 N   0  0  0  0  0  0  0  0  0  0  0  0
  -29.5490  -14.7670   21.1920 H   0  0  0  0  0  0  0  0  0  0  0  0
  -25.5090  -13.5690   20.1690 C   0  0  0  0  0  0  0  0  0  0  0  0
  -24.4300  -12.8500   20.6180 C   0  0  0  0  0  0  0  0  0  0  0  0
  -24.8580  -11.4880   20.6580 C   0  0  0  0  0  0  0  0  0  0  0  0
  -26.5280  -12.6470   19.9810 N   0  0  0  0  0  0  0  0  0  0  0  0
  -26.1400  -11.3940   20.3260 N   0  0  0  0  0  0  0  0  0  0  0  0
  -24.1060  -10.2590   20.9400 C   0  0  0  0  0  0  0  0  0  0  0  0
  -24.5320   -9.3420   21.9240 C   0  0  0  0  0  3  0  0  0  0  0  0
  -23.7840   -8.1740   22.1900 C   0  0  0  0  0  3  0  0  0  0  0  0
  -22.5940   -7.9150   21.4710 C   0  0  0  0  0  0  0  0  0  0  0  0
  -22.1860   -8.8190   20.4740 C   0  0  0  0  0  3  0  0  0  0  0  0
  -22.9350   -9.9780   20.2070 C   0  0  0  0  0  3  0  0  0  0  0  0
  -21.8190   -6.7940   21.6420 O   0  0  0  0  0  0  0  0  0  0  0  0
  -21.7730   -6.1280   22.8400 C   0  0  0  0  0  0  0  0  0  0  0  0
  -21.3930   -6.7740   24.0350 C   0  0  0  0  0  3  0  0  0  0  0  0
  -21.2890   -6.0390   25.2310 C   0  0  0  0  0  3  0  0  0  0  0  0
  -21.5570   -4.6570   25.2360 C   0  0  0  0  0  0  0  0  0  0  0  0
  -21.9300   -4.0090   24.0450 C   0  0  0  0  0  3  0  0  0  0  0  0
  -22.0350   -4.7410   22.8490 C   0  0  0  0  0  0  0  0  0  0  0  0
  -22.3740   -4.1080   21.7010 F   0  0  0  0  0  0  0  0  0  0  0  0
  -21.4510   -3.9490   26.3850 F   0  0  0  0  0  0  0  0  0  0  0  0
  -23.0500  -13.3790   20.8850 C   0  0  0  0  0  0  0  0  0  0  0  0
  -22.3240  -12.7630   21.8130 N   0  0  0  0  0  0  0  0  0  0  0  0
  -22.6230  -14.3760   20.3050 O   0  0  0  0  0  0  0  0  0  0  0  0
  -22.6770  -11.9580   22.3070 H   0  0  0  0  0  0  0  0  0  0  0  0
  -21.4020  -13.1090   22.0350 H   0  0  0  0  0  0  0  0  0  0  0  0
  -25.7000  -14.9150   19.8780 N   0  0  0  0  0  0  0  0  0  0  0  0
  -24.8930  -15.5240   19.8320 H   0  0  0  0  0  0  0  0  0  0  0  0
  -26.4360  -15.1840   19.2410 H   0  0  0  0  0  0  0  0  0  0  0  0
  -27.1120  -21.7220   19.4170 C   0  0  0  0  0  2  0  0  0  0  0  0
  -28.1940  -22.7350   19.5800 N   0  0  0  0  0  4  0  0  0  0  0  0
  -28.7980  -22.7210   18.7720 H   0  0  0  0  0  0  0  0  0  0  0  0
  -28.7540  -22.4880   20.3810 H   0  0  0  0  0  0  0  0  0  0  0  0
  -27.6720  -24.1250   19.7280 C   0  0  0  0  0  2  0  0  0  0  0  0
  -28.5190  -25.0840   20.5990 C   0  0  0  0  0  2  0  0  0  0  0  0
  -28.4390  -26.5000   20.3030 O   0  0  0  0  0  0  0  0  0  0  0  0
  -24.5860  -31.7630   23.2550 C   0  0  0  0  0  0  0  0  0  0  0  0
  -27.2430  -27.1930   20.3420 C   0  0  0  0  0  0  0  0  0  0  0  0
  -23.4000  -30.3380   21.6180 C   0  0  0  0  0  3  0  0  0  0  0  0
  -24.8670  -28.7450   20.2850 C   0  0  0  0  0  0  0  0  0  0  0  0
  -25.9420  -30.6500   21.4840 C   0  0  0  0  0  2  0  0  0  0  0  0
  -26.0230  -29.2580   20.8880 C   0  0  0  0  0  0  0  0  0  0  0  0
  -27.2110  -28.4850   20.9200 C   0  0  0  0  0  3  0  0  0  0  0  0
  -26.0720  -26.7210   19.7090 C   0  0  0  0  0  3  0  0  0  0  0  0
  -24.8870  -27.4720   19.6970 C   0  0  0  0  0  3  0  0  0  0  0  0
  -23.6400  -29.6250   20.2640 C   0  0  0  0  0  2  0  0  0  0  0  0
  -24.6580  -30.9340   22.1760 N   0  0  0  0  0  0  0  0  0  0  0  0
  -23.4950  -32.0640   23.7580 O   0  0  0  0  0  0  0  0  0  0  0  0
  -22.7070  -29.3530   22.5890 C   0  0  0  0  0  0  0  0  0  0  0  0
  -21.3830  -29.1810   22.4320 N   0  0  0  0  0  0  0  0  0  0  0  0
  -23.3590  -28.7410   23.4380 O   0  0  0  0  0  0  0  0  0  0  0  0
  -20.9310  -29.6900   21.6840 H   0  0  0  0  0  0  0  0  0  0  0  0
  -17.9740  -28.0660   22.9060 C   0  0  0  0  0  0  0  0  0  0  0  0
  -20.5360  -28.2750   23.2090 C   0  0  0  0  0  3  0  0  0  0  0  0
  -20.6180  -26.8260   22.6720 C   0  0  0  0  0  2  0  0  0  0  0  0
  -19.5140  -26.4940   21.6560 C   0  0  0  0  0  2  0  0  0  0  0  0
  -18.1250  -26.6980   22.2660 C   0  0  0  0  0  2  0  0  0  0  0  0
  -19.1030  -28.8120   23.3340 C   0  0  0  0  0  0  0  0  0  0  0  0
  -18.9070  -30.0920   23.8910 C   0  0  0  0  0  3  0  0  0  0  0  0
  -17.6150  -30.6320   24.0220 C   0  0  0  0  0  3  0  0  0  0  0  0
  -16.4990  -29.8860   23.6050 C   0  0  0  0  0  3  0  0  0  0  0  0
  -16.6790  -28.6040   23.0560 C   0  0  0  0  0  3  0  0  0  0  0  0
  -25.8670  -32.3910   23.8920 C   0  0  0  0  0  3  0  0  0  0  0  0
  -25.5560  -33.7930   24.2030 N   0  0  0  0  0  0  0  0  0  0  0  0
  -25.9010  -34.8350   23.4340 C   0  0  0  0  0  0  0  0  0  0  0  0
  -26.5880  -34.7170   22.4160 O   0  0  0  0  0  0  0  0  0  0  0  0
  -24.9520  -33.9590   24.9950 H   0  0  0  0  0  0  0  0  0  0  0  0
  -24.1830  -36.6250   23.0370 C   0  0  0  0  0  1  0  0  0  0  0  0
  -25.4150  -36.2320   23.8680 C   0  0  0  0  0  3  0  0  0  0  0  0
  -27.5460  -37.1180   24.7040 C   0  0  0  0  0  1  0  0  0  0  0  0
  -26.4520  -37.2800   23.7490 N   0  0  0  0  0  0  0  0  0  0  0  0
  -26.0480  -38.2040   23.8860 H   0  0  0  0  0  0  0  0  0  0  0  0
  -26.3550  -31.6260   25.1830 C   0  0  1  0  0  0  0  0  0  0  0  0
  -25.2400  -31.4050   26.2320 C   0  0  0  0  0  1  0  0  0  0  0  0
  -26.9420  -30.2440   24.8140 C   0  0  0  0  0  1  0  0  0  0  0  0
  -27.4980  -32.4220   25.8580 C   0  0  0  0  0  1  0  0  0  0  0  0
  1  2  1  0
  1 49  1  0
  2  7  1  0
  3  4  1  0
  5  7  1  0
  5  3  1  0
  6  9  1  0
  6  4  1  0
  7  6  1  0
  7  8  1  1
  9 10  1  0
 11 19  1  0
 12 17  1  0
 13 14  1  0
 13 12  1  0
 15 14  1  0
 15 24  1  0
 15 16  1  0
 17 11  1  0
 17 16  1  0
 18 11  2  0
 19 10  1  0
 19 20  1  0
 21 22  2  0
 22 23  1  0
 22 41  1  0
 23 26  1  0
 24 21  1  0
 24 25  1  0
 25 23  2  0
 26 27  1  0
 27 28  2  0
 29 32  1  0
 29 28  1  0
 30 29  2  0
 31 30  1  0
 31 26  2  0
 32 33  1  0
 33 38  2  0
 33 34  1  0
 34 35  2  0
 35 36  1  0
 36 40  1  0
 37 36  2  0
 38 37  1  0
 39 38  1  0
 41 42  1  0
 42 45  1  0
 42 44  1  0
 43 41  2  0
 46 21  1  0
 47 46  1  0
 48 46  1  0
 49 50  1  0
 50 53  1  0
 50 52  1  0
 51 50  1  0
 53 54  1  0
 55 57  1  0
 55 54  1  0
 56 67  2  0
 57 62  1  0
 58 66  1  0
 58 68  1  0
 59 61  1  0
 60 66  1  0
 61 62  2  0
 61 60  1  0
 63 57  2  0
 64 63  1  0
 64 59  2  0
 65 59  1  0
 65 58  1  0
 66 56  1  0
 68 70  2  0
 69 68  1  0
 71 69  1  0
 72 81  2  0
 72 77  1  0
 73 69  1  0
 73 77  1  0
 74 73  1  0
 75 76  1  0
 75 74  1  0
 76 72  1  0
 77 78  2  0
 78 79  1  0
 80 79  2  0
 81 80  1  0
 82 56  1  0
 82 83  1  0
 82 92  1  0
 83 86  1  0
 84 88  1  0
 84 83  1  0
 85 84  2  0
 88 87  1  0
 90 88  1  0
 90 91  1  0
 90 89  1  0
 92 95  1  1
 92 93  1  0
 94 92  1  0
M  ISO  4  11 100  19 100  54 101  55 101
M  END
>  <TORSDO>  (32) 
F 24

>  <SCORE>  (32) 
-11.193

>  <name>  (32) 
31

>  <ligand_id>  (32) 
31

>  <original_smiles>  (32) 
[H]c1c([H])c([H])c2c(c1[H])C([H])([H])C([H])([H])C([H])([H])C2([H])N([H])C(=O)C1([H])N(C(=O)C([H])(N([H])C(=O)C([H])(N([H])C([H])([H])[H])C([H])([H])[H])C(C([H])([H])[H])(C([H])([H])[H])C([H])([H])[H])C([H])([H])c2c([H])c(OC([H])([H])C([H])([H])[N+]([H])([H])C([H])([H])C([H])([H])C([H])([H])[N+]3([H])C([H])([H])C([H])([H])C([H])([H])C3([H])C([H])([H])C([H])([H])N([H])C(=O)N3C([H])([H])C([H])([H])C([H])([H])C([H])(n4nc(-c5c([H])c([H])c(Oc6c([H])c([H])c(F)c([H])c6F)c([H])c5[H])c(C(=O)N([H])[H])c4N([H])[H])C3([H])[H])c([H])c([H])c2C1([H])[H]

>  <smiles>  (32) 
[H]c1c([H])c([H])c2c(c1[H])C([H])([H])C([H])([H])C([H])([H])C2([H])N([H])C(=O)C1([H])N(C(=O)C([H])(N([H])C(=O)C([H])(N([H])C([H])([H])[H])C([H])([H])[H])C(C([H])([H])[H])(C([H])([H])[H])C([H])([H])[H])C([H])([H])c2c([H])c(OC([H])([H])C([H])([H])[N+]([H])([H])C([H])([H])C([H])([H])C([H])([H])[N+]3([H])C([H])([H])C([H])([H])C([H])([H])C3([H])C([H])([H])C([H])([H])N([H])C(=O)N3C([H])([H])C([H])([H])C([H])([H])C([H])(n4nc(-c5c([H])c([H])c(Oc6c([H])c([H])c(F)c([H])c6F)c([H])c5[H])c(C(=O)N([H])[H])c4N([H])[H])C3([H])[H])c([H])c([H])c2C1([H])[H]

$$$$
32:0:0
     RDKit          3D

 95103  0  0  1  0  0  0  0  0999 V2000
  -32.3410  -23.6600   16.1340 C   0  0  0  0  0  0  0  0  0  0  0  0
  -31.9900  -22.6750   15.2990 N   0  0  0  0  0  0  0  0  0  0  0  0
  -32.5230  -23.4830   17.3410 O   0  0  0  0  0  0  0  0  0  0  0  0
  -31.8620  -22.9190   14.3240 H   0  0  0  0  0  0  0  0  0  0  0  0
  -32.5260  -25.0480   15.5180 C   0  0  0  0  0  2  0  0  0  0  0  0
  -31.4420  -26.0560   15.9430 C   0  0  0  0  0  2  0  0  0  0  0  0
  -31.9210  -27.5240   15.9830 C   0  0  0  0  0  2  0  0  0  0  0  0
  -32.8700  -27.7570   17.0190 O   0  0  0  0  0  0  0  0  0  0  0  0
  -36.3560  -33.9530   16.8470 C   0  0  0  0  0  0  0  0  0  0  0  0
  -34.0030  -28.4300   16.6420 C   0  0  0  0  0  0  0  0  0  0  0  0
  -37.3490  -32.1130   15.5560 C   0  0  0  0  0  3  0  0  0  0  0  0
  -36.3650  -29.7960   15.9460 C   0  0  0  0  0  0  0  0  0  0  0  0
  -35.9160  -31.6150   17.6030 C   0  0  0  0  0  2  0  0  0  0  0  0
  -35.5190  -30.3190   16.9300 C   0  0  0  0  0  0  0  0  0  0  0  0
  -34.3360  -29.6400   17.2840 C   0  0  0  0  0  3  0  0  0  0  0  0
  -34.8670  -27.9070   15.6570 C   0  0  0  0  0  3  0  0  0  0  0  0
  -36.0450  -28.5880   15.3010 C   0  0  0  0  0  3  0  0  0  0  0  0
  -37.6150  -30.5830   15.6300 C   0  0  0  0  0  2  0  0  0  0  0  0
  -36.5030  -32.6110   16.6780 N   0  0  0  0  0  0  0  0  0  0  0  0
  -36.9490  -34.7630   16.1200 O   0  0  0  0  0  0  0  0  0  0  0  0
  -36.7740  -32.4460   14.1650 C   0  0  0  0  0  0  0  0  0  0  0  0
  -37.7110  -32.8020   13.2960 N   0  0  0  0  0  0  0  0  0  0  0  0
  -35.5750  -32.3460   13.8940 O   0  0  0  0  0  0  0  0  0  0  0  0
  -38.6310  -32.9120   13.6980 H   0  0  0  0  0  0  0  0  0  0  0  0
  -39.2890  -33.3390    9.9530 C   0  0  0  0  0  0  0  0  0  0  0  0
  -37.7230  -32.8550   11.8570 C   0  0  0  0  0  3  0  0  0  0  0  0
  -36.9700  -31.8330   10.9990 C   0  0  0  0  0  2  0  0  0  0  0  0
  -37.9930  -31.0880   10.1170 C   0  0  0  0  0  2  0  0  0  0  0  0
  -38.8360  -32.0540    9.2550 C   0  0  0  0  0  2  0  0  0  0  0  0
  -38.6780  -33.7840   11.1500 C   0  0  0  0  0  0  0  0  0  0  0  0
  -39.1080  -34.9780   11.7660 C   0  0  0  0  0  3  0  0  0  0  0  0
  -40.1790  -35.7060   11.2160 C   0  0  0  0  0  3  0  0  0  0  0  0
  -40.8060  -35.2530   10.0400 C   0  0  0  0  0  3  0  0  0  0  0  0
  -40.3510  -34.0830    9.4040 C   0  0  0  0  0  3  0  0  0  0  0  0
  -35.4550  -34.5340   17.9790 C   0  0  0  0  0  3  0  0  0  0  0  0
  -36.3130  -35.3520   18.8440 N   0  0  0  0  0  0  0  0  0  0  0  0
  -36.8750  -34.9200   19.9800 C   0  0  0  0  0  0  0  0  0  0  0  0
  -36.6600  -33.7970   20.4470 O   0  0  0  0  0  0  0  0  0  0  0  0
  -36.5770  -36.2610   18.4910 H   0  0  0  0  0  0  0  0  0  0  0  0
  -39.2780  -35.4250   20.5180 C   0  0  0  0  0  1  0  0  0  0  0  0
  -37.8250  -35.8850   20.7120 C   0  0  0  0  0  3  0  0  0  0  0  0
  -36.3310  -36.7980   22.4330 C   0  0  0  0  0  1  0  0  0  0  0  0
  -37.5300  -36.0120   22.1550 N   0  0  0  0  0  0  0  0  0  0  0  0
  -38.3100  -36.4370   22.6470 H   0  0  0  0  0  0  0  0  0  0  0  0
  -34.2420  -35.3760   17.4270 C   0  0  1  0  0  0  0  0  0  0  0  0
  -34.6230  -36.8140   17.0040 C   0  0  0  0  0  1  0  0  0  0  0  0
  -33.6050  -34.6760   16.2040 C   0  0  0  0  0  1  0  0  0  0  0  0
  -33.1410  -35.4670   18.5070 C   0  0  0  0  0  1  0  0  0  0  0  0
  -31.6570  -21.3030   15.6900 C   0  0  0  0  0  2  0  0  0  0  0  0
  -32.4690  -20.2270   14.9400 C   0  0  0  0  0  2  0  0  0  0  0  0
  -29.4930  -19.4990   12.9060 C   0  0  0  0  0  2  0  0  0  0  0  0
  -30.2110  -19.4260   14.2580 C   0  0  0  0  0  2  0  0  0  0  0  0
  -31.8210  -19.8920   12.5480 C   0  0  0  0  0  2  0  0  0  0  0  0
  -30.4420  -20.3590   12.0780 C   0  0  0  0  0  3  0  0  0  0  0  0
  -31.6640  -19.4550   13.9590 N   0  0  1  0  0  4  0  0  0  0  0  0
  -31.9890  -18.5000   14.0040 H   0  0  0  0  0  0  0  0  0  0  0  0
  -30.2260  -20.3040   10.5490 C   0  0  0  0  0  2  0  0  0  0  0  0
  -31.7380  -19.8630    8.5980 C   0  0  0  0  0  0  0  0  0  0  0  0
  -32.8840  -18.3840    6.9920 C   0  0  0  0  0  2  0  0  0  0  0  0
  -32.1310  -17.0340    6.9560 C   0  0  0  0  0  2  0  0  0  0  0  0
  -32.6160  -16.0920    8.0810 C   0  0  0  0  0  2  0  0  0  0  0  0
  -32.6410  -16.7920    9.4630 C   0  0  0  0  0  3  0  0  0  0  0  0
  -33.3940  -18.1320    9.3540 C   0  0  0  0  0  2  0  0  0  0  0  0
  -32.7110  -18.9550    8.3340 N   0  0  0  0  0  0  0  0  0  0  0  0
  -31.0720  -20.4400    7.7300 O   0  0  0  0  0  0  0  0  0  0  0  0
  -31.4910  -19.9810    9.9080 N   0  0  0  0  0  0  0  0  0  0  0  0
  -32.1630  -19.5040   10.4940 H   0  0  0  0  0  0  0  0  0  0  0  0
  -32.6520  -14.8970   11.2120 C   0  0  0  0  0  0  0  0  0  0  0  0
  -33.6530  -14.3910   12.0020 C   0  0  0  0  0  0  0  0  0  0  0  0
  -34.8150  -15.1660   11.7090 C   0  0  0  0  0  0  0  0  0  0  0  0
  -33.2250  -15.9350   10.4940 N   0  0  0  0  0  0  0  0  0  0  0  0
  -34.5220  -16.1240   10.8370 N   0  0  0  0  0  0  0  0  0  0  0  0
  -36.2030  -15.0220   12.1610 C   0  0  0  0  0  0  0  0  0  0  0  0
  -36.7330  -15.8330   13.1900 C   0  0  0  0  0  3  0  0  0  0  0  0
  -38.0680  -15.6650   13.6170 C   0  0  0  0  0  3  0  0  0  0  0  0
  -38.8850  -14.6760   13.0200 C   0  0  0  0  0  0  0  0  0  0  0  0
  -38.3610  -13.8870   11.9820 C   0  0  0  0  0  3  0  0  0  0  0  0
  -37.0330  -14.0590   11.5530 C   0  0  0  0  0  3  0  0  0  0  0  0
  -40.2000  -14.4580   13.3530 O   0  0  0  0  0  0  0  0  0  0  0  0
  -40.5600  -13.9980   14.5940 C   0  0  0  0  0  0  0  0  0  0  0  0
  -40.2590  -12.6840   15.0180 C   0  0  0  0  0  3  0  0  0  0  0  0
  -40.7090  -12.2290   16.2730 C   0  0  0  0  0  3  0  0  0  0  0  0
  -41.4650  -13.0800   17.1020 C   0  0  0  0  0  0  0  0  0  0  0  0
  -41.7710  -14.3860   16.6790 C   0  0  0  0  0  3  0  0  0  0  0  0
  -41.3210  -14.8420   15.4270 C   0  0  0  0  0  0  0  0  0  0  0  0
  -41.6350  -16.0950   15.0160 F   0  0  0  0  0  0  0  0  0  0  0  0
  -41.9040  -12.6410   18.3050 F   0  0  0  0  0  0  0  0  0  0  0  0
  -33.5650  -13.1960   12.9050 C   0  0  0  0  0  0  0  0  0  0  0  0
  -33.8730  -13.3750   14.1870 N   0  0  0  0  0  0  0  0  0  0  0  0
  -33.1800  -12.1050   12.4890 O   0  0  0  0  0  0  0  0  0  0  0  0
  -34.1790  -14.2740   14.5290 H   0  0  0  0  0  0  0  0  0  0  0  0
  -33.8010  -12.6030   14.8350 H   0  0  0  0  0  0  0  0  0  0  0  0
  -31.3160  -14.5520   11.0320 N   0  0  0  0  0  0  0  0  0  0  0  0
  -30.9160  -13.7220   11.4520 H   0  0  0  0  0  0  0  0  0  0  0  0
  -30.7400  -14.9420   10.2960 H   0  0  0  0  0  0  0  0  0  0  0  0
  1  3  2  0
  2 49  1  0
  2  1  1  0
  4  2  1  0
  5  6  1  0
  5  1  1  0
  6  7  1  0
  7  8  1  0
 10  8  1  0
 10 15  1  0
 11 21  1  0
 11 18  1  0
 11 19  1  0
 12 14  1  0
 14 15  2  0
 14 13  1  0
 16 10  2  0
 17 16  1  0
 17 12  2  0
 18 12  1  0
 19  9  1  0
 19 13  1  0
 20  9  2  0
 22 24  1  0
 22 21  1  0
 23 21  2  0
 25 30  1  0
 26 22  1  0
 27 26  1  0
 28 27  1  0
 29 25  1  0
 29 28  1  0
 30 31  2  0
 30 26  1  0
 32 31  1  0
 33 32  2  0
 34 25  2  0
 34 33  1  0
 35  9  1  0
 35 36  1  0
 36 37  1  0
 37 38  2  0
 37 41  1  0
 39 36  1  0
 41 40  1  0
 41 43  1  0
 43 42  1  0
 43 44  1  0
 45 35  1  0
 45 48  1  1
 46 45  1  0
 47 45  1  0
 50 49  1  0
 51 52  1  0
 53 55  1  0
 54 57  1  0
 54 53  1  0
 54 51  1  0
 55 56  1  6
 55 52  1  0
 55 50  1  0
 58 66  1  0
 59 64  1  0
 60 59  1  0
 60 61  1  0
 62 61  1  0
 62 71  1  0
 63 62  1  0
 64 58  1  0
 64 63  1  0
 65 58  2  0
 66 67  1  0
 66 57  1  0
 68 69  2  0
 69 88  1  0
 70 69  1  0
 70 73  1  0
 71 72  1  0
 71 68  1  0
 72 70  2  0
 73 74  1  0
 74 75  2  0
 76 79  1  0
 76 75  1  0
 77 76  2  0
 78 77  1  0
 78 73  2  0
 79 80  1  0
 80 81  2  0
 80 85  1  0
 81 82  1  0
 82 83  2  0
 83 87  1  0
 84 83  1  0
 85 84  2  0
 86 85  1  0
 88 89  1  0
 89 91  1  0
 89 92  1  0
 90 88  2  0
 93 68  1  0
 93 94  1  0
 95 93  1  0
M  ISO  4   7 101   8 101  58 100  66 100
M  END
>  <TORSDO>  (33) 
F 23

>  <SCORE>  (33) 
-2.590

>  <name>  (33) 
32

>  <ligand_id>  (33) 
32

>  <original_smiles>  (33) 
[H]c1c([H])c([H])c2c(c1[H])C([H])([H])C([H])([H])C([H])([H])C2([H])N([H])C(=O)C1([H])N(C(=O)C([H])(N([H])C(=O)C([H])(N([H])C([H])([H])[H])C([H])([H])[H])C(C([H])([H])[H])(C([H])([H])[H])C([H])([H])[H])C([H])([H])c2c([H])c(OC([H])([H])C([H])([H])C([H])([H])C(=O)N([H])C([H])([H])C([H])([H])[N+]3([H])C([H])([H])C([H])([H])C([H])(C([H])([H])N([H])C(=O)N4C([H])([H])C([H])([H])C([H])([H])C([H])(n5nc(-c6c([H])c([H])c(Oc7c([H])c([H])c(F)c([H])c7F)c([H])c6[H])c(C(=O)N([H])[H])c5N([H])[H])C4([H])[H])C3([H])[H])c([H])c([H])c2C1([H])[H]

>  <smiles>  (33) 
[H]c1c([H])c([H])c2c(c1[H])C([H])([H])C([H])([H])C([H])([H])C2([H])N([H])C(=O)C1([H])N(C(=O)C([H])(N([H])C(=O)C([H])(N([H])C([H])([H])[H])C([H])([H])[H])C(C([H])([H])[H])(C([H])([H])[H])C([H])([H])[H])C([H])([H])c2c([H])c(OC([H])([H])C([H])([H])C([H])([H])C(=O)N([H])C([H])([H])C([H])([H])[N+]3([H])C([H])([H])C([H])([H])C([H])(C([H])([H])N([H])C(=O)N4C([H])([H])C([H])([H])C([H])([H])C([H])(n5nc(-c6c([H])c([H])c(Oc7c([H])c([H])c(F)c([H])c7F)c([H])c6[H])c(C(=O)N([H])[H])c5N([H])[H])C4([H])[H])C3([H])[H])c([H])c([H])c2C1([H])[H]

$$$$
33:0:0
     RDKit          3D

 97105  0  0  1  0  0  0  0  0999 V2000
  -31.5320  -23.8990   21.0940 C   0  0  0  0  0  0  0  0  0  0  0  0
  -31.1390  -23.1600   22.1390 N   0  0  0  0  0  0  0  0  0  0  0  0
  -32.1780  -23.4130   20.1650 O   0  0  0  0  0  0  0  0  0  0  0  0
  -30.6430  -23.6330   22.8820 H   0  0  0  0  0  0  0  0  0  0  0  0
  -31.4000  -26.0510   19.7090 C   0  0  0  0  0  1  0  0  0  0  0  0
  -31.1460  -25.3920   21.0840 C   0  0  0  0  0  3  0  0  0  0  0  0
  -29.7230  -25.6900   21.6410 C   0  0  0  0  0  2  0  0  0  0  0  0
  -28.5050  -24.9330   21.0530 C   0  0  0  0  0  2  0  0  0  0  0  0
  -28.1330  -25.2760   19.6030 C   0  0  0  0  0  2  0  0  0  0  0  0
  -28.1590  -26.6910   19.4360 O   0  0  0  0  0  0  0  0  0  0  0  0
  -24.5870  -31.6350   23.0780 C   0  0  0  0  0  0  0  0  0  0  0  0
  -26.9830  -27.3840   19.5810 C   0  0  0  0  0  0  0  0  0  0  0  0
  -23.2810  -30.4060   21.3720 C   0  0  0  0  0  3  0  0  0  0  0  0
  -24.6340  -28.9320   19.7970 C   0  0  0  0  0  0  0  0  0  0  0  0
  -25.8100  -30.6990   21.1230 C   0  0  0  0  0  2  0  0  0  0  0  0
  -25.8250  -29.3800   20.3820 C   0  0  0  0  0  0  0  0  0  0  0  0
  -27.0030  -28.6120   20.2720 C   0  0  0  0  0  3  0  0  0  0  0  0
  -25.7750  -26.9420   18.9970 C   0  0  0  0  0  3  0  0  0  0  0  0
  -24.6020  -27.7080   19.1080 C   0  0  0  0  0  3  0  0  0  0  0  0
  -23.4240  -29.8230   19.9420 C   0  0  0  0  0  2  0  0  0  0  0  0
  -24.5790  -30.9240   21.9150 N   0  0  0  0  0  0  0  0  0  0  0  0
  -23.5330  -31.9020   23.6720 O   0  0  0  0  0  0  0  0  0  0  0  0
  -22.6260  -29.3360   22.2740 C   0  0  0  0  0  0  0  0  0  0  0  0
  -21.2910  -29.2160   22.1800 N   0  0  0  0  0  0  0  0  0  0  0  0
  -23.3110  -28.6200   23.0090 O   0  0  0  0  0  0  0  0  0  0  0  0
  -20.8020  -29.8430   21.5570 H   0  0  0  0  0  0  0  0  0  0  0  0
  -17.8890  -28.1300   22.7100 C   0  0  0  0  0  0  0  0  0  0  0  0
  -20.4630  -28.2510   22.9010 C   0  0  0  0  0  3  0  0  0  0  0  0
  -20.4780  -26.8720   22.2020 C   0  0  0  0  0  2  0  0  0  0  0  0
  -19.3270  -26.6860   21.2110 C   0  0  0  0  0  2  0  0  0  0  0  0
  -17.9770  -26.8360   21.9190 C   0  0  0  0  0  2  0  0  0  0  0  0
  -19.0560  -28.8040   23.1560 C   0  0  0  0  0  0  0  0  0  0  0  0
  -18.9190  -30.0220   23.8560 C   0  0  0  0  0  3  0  0  0  0  0  0
  -17.6460  -30.5640   24.1160 C   0  0  0  0  0  3  0  0  0  0  0  0
  -16.4930  -29.8840   23.6860 C   0  0  0  0  0  3  0  0  0  0  0  0
  -16.6150  -28.6700   22.9880 C   0  0  0  0  0  3  0  0  0  0  0  0
  -25.9140  -32.1700   23.7010 C   0  0  0  0  0  3  0  0  0  0  0  0
  -25.6680  -33.5490   24.1440 N   0  0  0  0  0  0  0  0  0  0  0  0
  -26.0370  -34.6430   23.4640 C   0  0  0  0  0  0  0  0  0  0  0  0
  -26.6900  -34.5920   22.4170 O   0  0  0  0  0  0  0  0  0  0  0  0
  -25.0900  -33.6650   24.9630 H   0  0  0  0  0  0  0  0  0  0  0  0
  -24.3890  -36.5300   23.2640 C   0  0  0  0  0  1  0  0  0  0  0  0
  -25.6150  -36.0110   24.0320 C   0  0  0  0  0  3  0  0  0  0  0  0
  -27.7870  -36.7360   24.9180 C   0  0  0  0  0  1  0  0  0  0  0  0
  -26.6930  -37.0230   23.9940 N   0  0  0  0  0  0  0  0  0  0  0  0
  -26.3290  -37.9480   24.2070 H   0  0  0  0  0  0  0  0  0  0  0  0
  -26.4440  -31.2840   24.8950 C   0  0  1  0  0  0  0  0  0  0  0  0
  -25.3760  -31.0070   25.9800 C   0  0  0  0  0  1  0  0  0  0  0  0
  -26.9650  -29.9210   24.3810 C   0  0  0  0  0  1  0  0  0  0  0  0
  -27.6440  -31.9850   25.5750 C   0  0  0  0  0  1  0  0  0  0  0  0
  -31.3040  -21.7110   22.2740 C   0  0  0  0  0  2  0  0  0  0  0  0
  -30.5210  -20.9380   21.1830 C   0  0  0  0  0  2  0  0  0  0  0  0
  -29.1370  -17.3910   20.7370 C   0  0  0  0  0  2  0  0  0  0  0  0
  -31.4220  -17.2040   21.7200 C   0  0  0  0  0  2  0  0  0  0  0  0
  -29.3880  -18.8860   20.4730 C   0  0  0  0  0  2  0  0  0  0  0  0
  -31.6410  -18.7160   21.4730 C   0  0  0  0  0  2  0  0  0  0  0  0
  -30.4570  -16.6120   20.6770 C   0  0  0  0  0  3  0  0  0  0  0  0
  -30.3590  -19.4780   21.4380 N   0  0  1  0  0  4  0  0  0  0  0  0
  -29.9400  -19.3990   22.3540 H   0  0  0  0  0  0  0  0  0  0  0  0
  -30.8140  -14.2280   20.0940 C   0  0  0  0  0  0  0  0  0  0  0  0
  -30.4060  -12.1190   18.8940 C   0  0  0  0  0  2  0  0  0  0  0  0
  -29.4020  -12.3740   17.7550 C   0  0  0  0  0  2  0  0  0  0  0  0
  -27.9510  -12.2450   18.2630 C   0  0  0  0  0  2  0  0  0  0  0  0
  -27.6990  -13.0620   19.5590 C   0  0  0  0  0  3  0  0  0  0  0  0
  -28.8080  -12.7810   20.6000 C   0  0  0  0  0  2  0  0  0  0  0  0
  -30.1150  -13.0700   19.9760 N   0  0  0  0  0  0  0  0  0  0  0  0
  -31.8500  -14.4640   19.4650 O   0  0  0  0  0  0  0  0  0  0  0  0
  -30.2250  -15.1740   20.8400 N   0  0  0  0  0  0  0  0  0  0  0  0
  -29.4140  -14.8840   21.3680 H   0  0  0  0  0  0  0  0  0  0  0  0
  -25.3520  -13.6930   20.4150 C   0  0  0  0  0  0  0  0  0  0  0  0
  -24.2960  -12.9290   20.8400 C   0  0  0  0  0  0  0  0  0  0  0  0
  -24.7330  -11.5720   20.7560 C   0  0  0  0  0  0  0  0  0  0  0  0
  -26.3690  -12.8020   20.1070 N   0  0  0  0  0  0  0  0  0  0  0  0
  -26.0030  -11.5210   20.3680 N   0  0  0  0  0  0  0  0  0  0  0  0
  -24.0030  -10.3160   20.9700 C   0  0  0  0  0  0  0  0  0  0  0  0
  -24.4420   -9.3640   21.9160 C   0  0  0  0  0  3  0  0  0  0  0  0
  -23.7160   -8.1710   22.1210 C   0  0  0  0  0  3  0  0  0  0  0  0
  -22.5370   -7.9220   21.3780 C   0  0  0  0  0  0  0  0  0  0  0  0
  -22.1160   -8.8640   20.4230 C   0  0  0  0  0  3  0  0  0  0  0  0
  -22.8420  -10.0490   20.2170 C   0  0  0  0  0  3  0  0  0  0  0  0
  -21.7820   -6.7780   21.4890 O   0  0  0  0  0  0  0  0  0  0  0  0
  -21.7050   -6.0760   22.6650 C   0  0  0  0  0  0  0  0  0  0  0  0
  -21.2290   -6.6680   23.8560 C   0  0  0  0  0  3  0  0  0  0  0  0
  -21.1020   -5.8910   25.0240 C   0  0  0  0  0  3  0  0  0  0  0  0
  -21.4390   -4.5240   25.0030 C   0  0  0  0  0  0  0  0  0  0  0  0
  -21.9060   -3.9330   23.8160 C   0  0  0  0  0  3  0  0  0  0  0  0
  -22.0360   -4.7070   22.6500 C   0  0  0  0  0  0  0  0  0  0  0  0
  -22.4660   -4.1270   21.5040 F   0  0  0  0  0  0  0  0  0  0  0  0
  -21.3070   -3.7760   26.1230 F   0  0  0  0  0  0  0  0  0  0  0  0
  -22.9240  -13.4200   21.2030 C   0  0  0  0  0  0  0  0  0  0  0  0
  -22.2380  -12.7170   22.0980 N   0  0  0  0  0  0  0  0  0  0  0  0
  -22.4690  -14.4590   20.7280 O   0  0  0  0  0  0  0  0  0  0  0  0
  -22.6190  -11.8790   22.5110 H   0  0  0  0  0  0  0  0  0  0  0  0
  -21.3160  -13.0250   22.3740 H   0  0  0  0  0  0  0  0  0  0  0  0
  -25.5270  -15.0630   20.2470 N   0  0  0  0  0  0  0  0  0  0  0  0
  -24.7830  -15.7330   20.4070 H   0  0  0  0  0  0  0  0  0  0  0  0
  -26.3610  -15.4840   19.8580 H   0  0  0  0  0  0  0  0  0  0  0  0
  1  2  1  0
  2 51  1  0
  2  4  1  0
  3  1  2  0
  6  5  1  0
  6  1  1  0
  6  7  1  0
  8  7  1  0
  9  8  1  0
 10 12  1  0
 10  9  1  0
 11 22  2  0
 12 17  1  0
 13 21  1  0
 13 23  1  0
 14 20  1  0
 14 16  1  0
 15 21  1  0
 16 15  1  0
 17 16  2  0
 18 19  1  0
 18 12  2  0
 19 14  2  0
 20 13  1  0
 21 11  1  0
 23 25  2  0
 24 23  1  0
 26 24  1  0
 27 36  2  0
 27 32  1  0
 28 24  1  0
 28 32  1  0
 29 28  1  0
 30 31  1  0
 30 29  1  0
 31 27  1  0
 32 33  2  0
 33 34  1  0
 35 34  2  0
 36 35  1  0
 37 11  1  0
 37 38  1  0
 37 47  1  0
 38 41  1  0
 39 43  1  0
 39 38  1  0
 40 39  2  0
 43 42  1  0
 45 43  1  0
 45 46  1  0
 45 44  1  0
 47 50  1  1
 47 48  1  0
 49 47  1  0
 52 58  1  0
 52 51  1  0
 55 53  1  0
 55 58  1  0
 56 54  1  0
 57 53  1  0
 57 68  1  0
 57 54  1  0
 58 56  1  0
 58 59  1  1
 60 68  1  0
 61 66  1  0
 62 63  1  0
 62 61  1  0
 64 63  1  0
 64 73  1  0
 64 65  1  0
 66 60  1  0
 66 65  1  0
 67 60  2  0
 68 69  1  0
 70 71  2  0
 71 90  1  0
 72 71  1  0
 72 75  1  0
 73 74  1  0
 73 70  1  0
 74 72  2  0
 75 76  1  0
 76 77  2  0
 78 81  1  0
 78 77  1  0
 79 78  2  0
 80 79  1  0
 80 75  2  0
 81 82  1  0
 82 83  1  0
 83 84  2  0
 85 84  1  0
 85 89  1  0
 86 85  2  0
 87 82  2  0
 87 86  1  0
 88 87  1  0
 90 91  1  0
 91 94  1  0
 91 93  1  0
 92 90  2  0
 95 96  1  0
 95 70  1  0
 97 95  1  0
M  ISO  4   9 101  10 101  60 100  68 100
M  END
>  <TORSDO>  (34) 
F 23

>  <SCORE>  (34) 
-12.358

>  <name>  (34) 
33

>  <ligand_id>  (34) 
33

>  <original_smiles>  (34) 
[H]c1c([H])c([H])c2c(c1[H])C([H])([H])C([H])([H])C([H])([H])C2([H])N([H])C(=O)C1([H])N(C(=O)C([H])(N([H])C(=O)C([H])(N([H])C([H])([H])[H])C([H])([H])[H])C(C([H])([H])[H])(C([H])([H])[H])C([H])([H])[H])C([H])([H])c2c([H])c(OC([H])([H])C([H])([H])C([H])([H])C([H])(C(=O)N([H])C([H])([H])C([H])([H])[N+]3([H])C([H])([H])C([H])([H])C([H])(N([H])C(=O)N4C([H])([H])C([H])([H])C([H])([H])C([H])(n5nc(-c6c([H])c([H])c(Oc7c([H])c([H])c(F)c([H])c7F)c([H])c6[H])c(C(=O)N([H])[H])c5N([H])[H])C4([H])[H])C([H])([H])C3([H])[H])C([H])([H])[H])c([H])c([H])c2C1([H])[H]

>  <smiles>  (34) 
[H]c1c([H])c([H])c2c(c1[H])C([H])([H])C([H])([H])C([H])([H])C2([H])N([H])C(=O)C1([H])N(C(=O)C([H])(N([H])C(=O)C([H])(N([H])C([H])([H])[H])C([H])([H])[H])C(C([H])([H])[H])(C([H])([H])[H])C([H])([H])[H])C([H])([H])c2c([H])c(OC([H])([H])C([H])([H])C([H])([H])C([H])(C(=O)N([H])C([H])([H])C([H])([H])[N+]3([H])C([H])([H])C([H])([H])C([H])(N([H])C(=O)N4C([H])([H])C([H])([H])C([H])([H])C([H])(n5nc(-c6c([H])c([H])c(Oc7c([H])c([H])c(F)c([H])c7F)c([H])c6[H])c(C(=O)N([H])[H])c5N([H])[H])C4([H])[H])C([H])([H])C3([H])[H])C([H])([H])[H])c([H])c([H])c2C1([H])[H]

$$$$
34:0:0
     RDKit          3D

 96104  0  0  1  0  0  0  0  0999 V2000
  -30.3960  -21.2250   20.2460 C   0  0  0  0  0  3  0  0  0  0  0  0
  -29.3310  -21.3770   21.0500 C   0  0  0  0  0  3  0  0  0  0  0  0
  -31.7140  -19.6270   18.8950 C   0  0  0  0  0  3  0  0  0  0  0  0
  -30.6200  -19.9770   19.5830 C   0  0  0  0  0  3  0  0  0  0  0  0
  -30.7610  -14.3090   21.2280 C   0  0  0  0  0  0  0  0  0  0  0  0
  -30.4840  -12.0750   20.2860 C   0  0  0  0  0  2  0  0  0  0  0  0
  -29.6960  -12.0750   18.9670 C   0  0  0  0  0  2  0  0  0  0  0  0
  -28.1900  -11.9340   19.2510 C   0  0  0  0  0  2  0  0  0  0  0  0
  -27.6870  -12.9330   20.3240 C   0  0  0  0  0  3  0  0  0  0  0  0
  -28.6200  -12.9640   21.5650 C   0  0  0  0  0  2  0  0  0  0  0  0
  -29.9900  -13.1980   21.0940 N   0  0  0  0  0  0  0  0  0  0  0  0
  -31.9850  -14.2390   21.1410 O   0  0  0  0  0  0  0  0  0  0  0  0
  -31.6510  -17.2000   19.1330 C   0  0  0  0  0  3  0  0  0  0  0  0
  -31.7060  -18.2960   18.3490 C   0  0  0  0  0  2  0  0  0  0  0  0
  -31.0690  -15.9410   18.5330 C   0  0  0  0  0  2  0  0  0  0  0  0
  -32.0530  -17.1900   20.6280 C   0  0  0  0  0  2  0  0  0  0  0  0
  -29.5530  -15.8750   18.8520 C   0  0  0  0  0  2  0  0  0  0  0  0
  -31.0400  -16.6650   21.7160 C   0  0  0  0  0  2  0  0  0  0  0  0
  -29.1670  -16.0400   20.3460 C   0  0  0  0  0  2  0  0  0  0  0  0
  -30.1910  -15.5430   21.2800 N   0  0  0  0  0  0  0  0  0  0  0  0
  -25.2470  -13.5810   20.7940 C   0  0  0  0  0  0  0  0  0  0  0  0
  -24.1480  -12.8260   21.0860 C   0  0  0  0  0  0  0  0  0  0  0  0
  -24.6010  -11.4740   21.1300 C   0  0  0  0  0  0  0  0  0  0  0  0
  -26.3020  -12.6900   20.6890 N   0  0  0  0  0  0  0  0  0  0  0  0
  -25.9120  -11.4220   20.9550 N   0  0  0  0  0  0  0  0  0  0  0  0
  -23.8550  -10.2190   21.2590 C   0  0  0  0  0  0  0  0  0  0  0  0
  -24.2260   -9.2440   22.2090 C   0  0  0  0  0  3  0  0  0  0  0  0
  -23.4880   -8.0470   22.3290 C   0  0  0  0  0  3  0  0  0  0  0  0
  -22.3670   -7.8200   21.4940 C   0  0  0  0  0  0  0  0  0  0  0  0
  -22.0220   -8.7810   20.5290 C   0  0  0  0  0  3  0  0  0  0  0  0
  -22.7620   -9.9710   20.4050 C   0  0  0  0  0  3  0  0  0  0  0  0
  -21.5960   -6.6830   21.5300 O   0  0  0  0  0  0  0  0  0  0  0  0
  -21.4960   -5.9210   22.6640 C   0  0  0  0  0  0  0  0  0  0  0  0
  -20.9810   -6.4370   23.8750 C   0  0  0  0  0  3  0  0  0  0  0  0
  -20.8270   -5.5900   24.9910 C   0  0  0  0  0  3  0  0  0  0  0  0
  -21.1840   -4.2310   24.9050 C   0  0  0  0  0  0  0  0  0  0  0  0
  -21.6950   -3.7160   23.6960 C   0  0  0  0  0  3  0  0  0  0  0  0
  -21.8430   -4.5570   22.5820 C   0  0  0  0  0  0  0  0  0  0  0  0
  -22.3150   -4.0490   21.4160 F   0  0  0  0  0  0  0  0  0  0  0  0
  -21.0260   -3.4170   25.9710 F   0  0  0  0  0  0  0  0  0  0  0  0
  -22.7320  -13.3130   21.2070 C   0  0  0  0  0  0  0  0  0  0  0  0
  -21.9200  -12.6420   22.0150 N   0  0  0  0  0  0  0  0  0  0  0  0
  -22.3550  -14.3180   20.6040 O   0  0  0  0  0  0  0  0  0  0  0  0
  -22.2390  -11.8180   22.5110 H   0  0  0  0  0  0  0  0  0  0  0  0
  -20.9630  -12.9490   22.1370 H   0  0  0  0  0  0  0  0  0  0  0  0
  -25.4290  -14.9460   20.5760 N   0  0  0  0  0  0  0  0  0  0  0  0
  -24.6220  -15.5510   20.4700 H   0  0  0  0  0  0  0  0  0  0  0  0
  -26.2430  -15.2990   20.0950 H   0  0  0  0  0  0  0  0  0  0  0  0
  -28.9830  -22.6410   21.7980 C   0  0  0  0  0  2  0  0  0  0  0  0
  -30.5580  -22.5860   23.6820 C   0  0  0  0  0  1  0  0  0  0  0  0
  -30.2130  -23.2200   22.3870 N   0  0  2  0  0  4  0  0  0  0  0  0
  -30.9580  -22.9440   21.7660 H   0  0  0  0  0  0  0  0  0  0  0  0
  -30.2020  -24.7020   22.4180 C   0  0  0  0  0  2  0  0  0  0  0  0
  -30.0010  -25.3530   21.0230 C   0  0  0  0  0  2  0  0  0  0  0  0
  -29.3550  -26.7540   21.1020 C   0  0  0  0  0  2  0  0  0  0  0  0
  -28.4740  -26.8590   19.9980 O   0  0  0  0  0  0  0  0  0  0  0  0
  -24.6080  -31.9100   23.3540 C   0  0  0  0  0  0  0  0  0  0  0  0
  -27.3230  -27.5940   20.1500 C   0  0  0  0  0  0  0  0  0  0  0  0
  -23.4230  -30.5270   21.6830 C   0  0  0  0  0  3  0  0  0  0  0  0
  -24.8960  -29.0310   20.2410 C   0  0  0  0  0  0  0  0  0  0  0  0
  -25.9420  -30.9210   21.4960 C   0  0  0  0  0  2  0  0  0  0  0  0
  -26.0470  -29.5600   20.8400 C   0  0  0  0  0  0  0  0  0  0  0  0
  -27.2650  -28.8460   20.8050 C   0  0  0  0  0  3  0  0  0  0  0  0
  -26.1590  -27.0740   19.5520 C   0  0  0  0  0  3  0  0  0  0  0  0
  -24.9410  -27.7740   19.6120 C   0  0  0  0  0  3  0  0  0  0  0  0
  -23.6420  -29.8720   20.2950 C   0  0  0  0  0  2  0  0  0  0  0  0
  -24.6770  -31.1330   22.2360 N   0  0  0  0  0  0  0  0  0  0  0  0
  -23.5230  -32.1610   23.8960 O   0  0  0  0  0  0  0  0  0  0  0  0
  -22.7800  -29.4810   22.6230 C   0  0  0  0  0  0  0  0  0  0  0  0
  -21.4670  -29.2520   22.4530 N   0  0  0  0  0  0  0  0  0  0  0  0
  -23.4620  -28.8750   23.4540 O   0  0  0  0  0  0  0  0  0  0  0  0
  -20.9810  -29.7910   21.7490 H   0  0  0  0  0  0  0  0  0  0  0  0
  -18.1260  -27.9300   22.8350 C   0  0  0  0  0  0  0  0  0  0  0  0
  -20.6600  -28.2860   23.1970 C   0  0  0  0  0  3  0  0  0  0  0  0
  -20.8380  -26.8600   22.6270 C   0  0  0  0  0  2  0  0  0  0  0  0
  -19.7850  -26.4960   21.5750 C   0  0  0  0  0  2  0  0  0  0  0  0
  -18.3770  -26.5890   22.1690 C   0  0  0  0  0  2  0  0  0  0  0  0
  -19.1970  -28.7360   23.3020 C   0  0  0  0  0  0  0  0  0  0  0  0
  -18.9110  -29.9910   23.8810 C   0  0  0  0  0  3  0  0  0  0  0  0
  -17.5830  -30.4410   24.0010 C   0  0  0  0  0  3  0  0  0  0  0  0
  -16.5260  -29.6340   23.5490 C   0  0  0  0  0  3  0  0  0  0  0  0
  -16.7970  -28.3810   22.9720 C   0  0  0  0  0  3  0  0  0  0  0  0
  -25.8860  -32.5410   23.9900 C   0  0  0  0  0  3  0  0  0  0  0  0
  -25.5790  -33.9460   24.2970 N   0  0  0  0  0  0  0  0  0  0  0  0
  -25.9400  -34.9860   23.5360 C   0  0  0  0  0  0  0  0  0  0  0  0
  -26.6380  -34.8680   22.5240 O   0  0  0  0  0  0  0  0  0  0  0  0
  -24.9620  -34.1130   25.0790 H   0  0  0  0  0  0  0  0  0  0  0  0
  -24.2380  -36.7890   23.1030 C   0  0  0  0  0  1  0  0  0  0  0  0
  -25.4470  -36.3840   23.9630 C   0  0  0  0  0  3  0  0  0  0  0  0
  -27.5600  -37.2570   24.8600 C   0  0  0  0  0  1  0  0  0  0  0  0
  -26.4930  -37.4270   23.8760 N   0  0  0  0  0  0  0  0  0  0  0  0
  -26.0890  -38.3510   24.0040 H   0  0  0  0  0  0  0  0  0  0  0  0
  -26.3800  -31.7790   25.2800 C   0  0  1  0  0  0  0  0  0  0  0  0
  -25.2630  -31.5380   26.3240 C   0  0  0  0  0  1  0  0  0  0  0  0
  -26.9810  -30.4050   24.9050 C   0  0  0  0  0  1  0  0  0  0  0  0
  -27.5090  -32.5860   25.9640 C   0  0  0  0  0  1  0  0  0  0  0  0
  1  2  2  0
  2 49  1  0
  3  4  2  0
  4  1  1  0
  5 20  1  0
  6 11  1  0
  7  8  1  0
  7  6  1  0
  9  8  1  0
  9 24  1  0
  9 10  1  0
 11  5  1  0
 11 10  1  0
 12  5  2  0
 13 14  1  0
 13 16  1  0
 14  3  1  0
 15 17  1  0
 15 13  1  0
 16 18  1  0
 17 19  1  0
 19 20  1  0
 20 18  1  0
 21 22  2  0
 22 23  1  0
 22 41  1  0
 23 26  1  0
 24 21  1  0
 24 25  1  0
 25 23  2  0
 26 27  1  0
 27 28  2  0
 29 32  1  0
 29 28  1  0
 30 29  2  0
 31 30  1  0
 31 26  2  0
 32 33  1  0
 33 34  1  0
 34 35  2  0
 36 35  1  0
 36 40  1  0
 37 36  2  0
 38 33  2  0
 38 37  1  0
 39 38  1  0
 41 42  1  0
 42 45  1  0
 42 44  1  0
 43 41  2  0
 46 21  1  0
 47 46  1  0
 48 46  1  0
 49 51  1  0
 51 53  1  0
 51 50  1  0
 51 52  1  6
 54 55  1  0
 54 53  1  0
 56 58  1  0
 56 55  1  0
 57 68  2  0
 58 63  1  0
 59 67  1  0
 59 69  1  0
 60 66  1  0
 60 62  1  0
 61 67  1  0
 62 61  1  0
 63 62  2  0
 64 65  1  0
 64 58  2  0
 65 60  2  0
 66 59  1  0
 67 57  1  0
 69 71  2  0
 70 69  1  0
 72 70  1  0
 73 82  2  0
 73 78  1  0
 74 70  1  0
 74 78  1  0
 75 74  1  0
 76 77  1  0
 76 75  1  0
 77 73  1  0
 78 79  2  0
 79 80  1  0
 81 80  2  0
 82 81  1  0
 83 57  1  0
 83 84  1  0
 83 93  1  0
 84 87  1  0
 85 89  1  0
 85 84  1  0
 86 85  2  0
 89 88  1  0
 91 89  1  0
 91 92  1  0
 91 90  1  0
 93 96  1  1
 93 94  1  0
 95 93  1  0
M  ISO  4   5 100  20 100  55 101  56 101
M  END
>  <TORSDO>  (35) 
F 22

>  <SCORE>  (35) 
-12.426

>  <name>  (35) 
34

>  <ligand_id>  (35) 
34

>  <original_smiles>  (35) 
[H]C(=C([H])C([H])=C([H])C([H])([H])[N+]([H])(C([H])([H])[H])C([H])([H])C([H])([H])C([H])([H])Oc1c([H])c([H])c2c(c1[H])C([H])([H])N(C(=O)C([H])(N([H])C(=O)C([H])(N([H])C([H])([H])[H])C([H])([H])[H])C(C([H])([H])[H])(C([H])([H])[H])C([H])([H])[H])C([H])(C(=O)N([H])C1([H])c3c([H])c([H])c([H])c([H])c3C([H])([H])C([H])([H])C1([H])[H])C2([H])[H])C([H])=C1C([H])([H])C([H])([H])N(C(=O)N2C([H])([H])C([H])([H])C([H])([H])C([H])(n3nc(-c4c([H])c([H])c(Oc5c([H])c([H])c(F)c([H])c5F)c([H])c4[H])c(C(=O)N([H])[H])c3N([H])[H])C2([H])[H])C([H])([H])C([H])([H])C1([H])[H]

>  <smiles>  (35) 
[H]C(=C([H])C([H])=C([H])C([H])([H])[N+]([H])(C([H])([H])[H])C([H])([H])C([H])([H])C([H])([H])Oc1c([H])c([H])c2c(c1[H])C([H])([H])N(C(=O)C([H])(N([H])C(=O)C([H])(N([H])C([H])([H])[H])C([H])([H])[H])C(C([H])([H])[H])(C([H])([H])[H])C([H])([H])[H])C([H])(C(=O)N([H])C1([H])c3c([H])c([H])c([H])c([H])c3C([H])([H])C([H])([H])C1([H])[H])C2([H])[H])C([H])=C1C([H])([H])C([H])([H])N(C(=O)N2C([H])([H])C([H])([H])C([H])([H])C([H])(n3nc(-c4c([H])c([H])c(Oc5c([H])c([H])c(F)c([H])c5F)c([H])c4[H])c(C(=O)N([H])[H])c3N([H])[H])C2([H])[H])C([H])([H])C([H])([H])C1([H])[H]

$$$$
35:0:0
     RDKit          3D

 99107  0  0  1  0  0  0  0  0999 V2000
  -28.8270  -21.3730   18.1680 C   0  0  0  0  0  3  0  0  0  0  0  0
  -28.6610  -22.3410   19.2810 N   0  0  0  0  0  4  0  0  0  0  0  0
  -27.7370  -22.7390   19.2270 H   0  0  0  0  0  0  0  0  0  0  0  0
  -28.7120  -21.8180   20.1420 H   0  0  0  0  0  0  0  0  0  0  0  0
  -29.6970  -23.4030   19.3620 C   0  0  0  0  0  2  0  0  0  0  0  0
  -29.1350  -24.8370   19.4980 C   0  0  0  0  0  2  0  0  0  0  0  0
  -28.6240  -25.1860   20.9100 C   0  0  0  0  0  2  0  0  0  0  0  0
  -28.5750  -26.5940   21.1360 O   0  0  0  0  0  0  0  0  0  0  0  0
  -24.6520  -32.0410   23.4420 C   0  0  0  0  0  0  0  0  0  0  0  0
  -27.3840  -27.2750   20.9920 C   0  0  0  0  0  0  0  0  0  0  0  0
  -23.5190  -30.5050   21.8650 C   0  0  0  0  0  3  0  0  0  0  0  0
  -25.0210  -28.8060   20.7020 C   0  0  0  0  0  0  0  0  0  0  0  0
  -26.0570  -30.7980   21.8020 C   0  0  0  0  0  2  0  0  0  0  0  0
  -26.1490  -29.3690   21.3110 C   0  0  0  0  0  0  0  0  0  0  0  0
  -27.3290  -28.6090   21.4530 C   0  0  0  0  0  3  0  0  0  0  0  0
  -26.2300  -26.7130   20.3980 C   0  0  0  0  0  3  0  0  0  0  0  0
  -25.0550  -27.4770   20.2510 C   0  0  0  0  0  3  0  0  0  0  0  0
  -23.7990  -29.6880   20.5760 C   0  0  0  0  0  2  0  0  0  0  0  0
  -24.7570  -31.1350   22.4280 N   0  0  0  0  0  0  0  0  0  0  0  0
  -23.5460  -32.3830   23.8820 O   0  0  0  0  0  0  0  0  0  0  0  0
  -22.7800  -29.5990   22.8750 C   0  0  0  0  0  0  0  0  0  0  0  0
  -21.4770  -29.3780   22.6390 N   0  0  0  0  0  0  0  0  0  0  0  0
  -23.3800  -29.0940   23.8290 O   0  0  0  0  0  0  0  0  0  0  0  0
  -21.0570  -29.8400   21.8440 H   0  0  0  0  0  0  0  0  0  0  0  0
  -18.0750  -28.2110   22.9510 C   0  0  0  0  0  0  0  0  0  0  0  0
  -20.5930  -28.5280   23.4360 C   0  0  0  0  0  3  0  0  0  0  0  0
  -20.7530  -27.0400   23.0460 C   0  0  0  0  0  2  0  0  0  0  0  0
  -19.7540  -26.5880   21.9770 C   0  0  0  0  0  2  0  0  0  0  0  0
  -18.3170  -26.7930   22.4630 C   0  0  0  0  0  2  0  0  0  0  0  0
  -19.1470  -29.0300   23.3930 C   0  0  0  0  0  0  0  0  0  0  0  0
  -18.8730  -30.3520   23.8040 C   0  0  0  0  0  3  0  0  0  0  0  0
  -17.5590  -30.8560   23.7820 C   0  0  0  0  0  3  0  0  0  0  0  0
  -16.5010  -30.0360   23.3550 C   0  0  0  0  0  3  0  0  0  0  0  0
  -16.7590  -28.7160   22.9450 C   0  0  0  0  0  3  0  0  0  0  0  0
  -25.9160  -32.7020   24.0800 C   0  0  0  0  0  3  0  0  0  0  0  0
  -26.3790  -31.9990   25.4160 C   0  0  1  0  0  0  0  0  0  0  0  0
  -25.2290  -31.7470   26.4190 C   0  0  0  0  0  1  0  0  0  0  0  0
  -27.0490  -30.6380   25.1160 C   0  0  0  0  0  1  0  0  0  0  0  0
  -27.4450  -32.8680   26.1240 C   0  0  0  0  0  1  0  0  0  0  0  0
  -25.5990  -34.1160   24.3190 N   0  0  0  0  0  0  0  0  0  0  0  0
  -25.9430  -35.1210   23.5030 C   0  0  0  0  0  0  0  0  0  0  0  0
  -26.6360  -34.9610   22.4930 O   0  0  0  0  0  0  0  0  0  0  0  0
  -24.9780  -34.3140   25.0910 H   0  0  0  0  0  0  0  0  0  0  0  0
  -24.2000  -36.8740   23.0280 C   0  0  0  0  0  1  0  0  0  0  0  0
  -25.4410  -36.5310   23.8690 C   0  0  0  0  0  3  0  0  0  0  0  0
  -27.5490  -37.5060   24.6640 C   0  0  0  0  0  1  0  0  0  0  0  0
  -26.4640  -37.5830   23.6910 N   0  0  0  0  0  0  0  0  0  0  0  0
  -26.0480  -38.5080   23.7590 H   0  0  0  0  0  0  0  0  0  0  0  0
  -28.1700  -20.0080   18.4830 C   0  0  0  0  0  2  0  0  0  0  0  0
  -30.9460  -18.1780   20.4720 C   0  0  0  0  0  3  0  0  0  0  0  0
  -30.3000  -19.1380   19.6670 C   0  0  0  0  0  3  0  0  0  0  0  0
  -28.8380  -17.0040   20.7730 C   0  0  0  0  0  3  0  0  0  0  0  0
  -30.2240  -17.1030   21.0250 C   0  0  0  0  0  0  0  0  0  0  0  0
  -28.9110  -19.0400   19.4080 C   0  0  0  0  0  0  0  0  0  0  0  0
  -28.1890  -17.9630   19.9730 C   0  0  0  0  0  0  0  0  0  0  0  0
  -26.8640  -17.8370   19.7270 F   0  0  0  0  0  0  0  0  0  0  0  0
  -30.9390  -16.0580   21.8780 C   0  0  0  0  0  2  0  0  0  0  0  0
  -31.1080  -13.8640   20.6820 C   0  0  0  0  0  0  0  0  0  0  0  0
  -30.6760  -11.8730   19.2850 C   0  0  0  0  0  2  0  0  0  0  0  0
  -29.7060  -12.2520   18.1490 C   0  0  0  0  0  2  0  0  0  0  0  0
  -28.2390  -12.1590   18.6170 C   0  0  0  0  0  2  0  0  0  0  0  0
  -27.9930  -12.8810   19.9680 C   0  0  0  0  0  3  0  0  0  0  0  0
  -29.0540  -12.4410   21.0010 C   0  0  0  0  0  2  0  0  0  0  0  0
  -30.3850  -12.7420   20.4340 N   0  0  0  0  0  0  0  0  0  0  0  0
  -32.1720  -14.1330   20.1110 O   0  0  0  0  0  0  0  0  0  0  0  0
  -30.5290  -14.6990   21.5540 N   0  0  0  0  0  0  0  0  0  0  0  0
  -29.6660  -14.3740   21.9620 H   0  0  0  0  0  0  0  0  0  0  0  0
  -25.6290  -13.5630   20.7330 C   0  0  0  0  0  0  0  0  0  0  0  0
  -24.5360  -12.8240   21.0960 C   0  0  0  0  0  0  0  0  0  0  0  0
  -24.9400  -11.4570   20.9960 C   0  0  0  0  0  0  0  0  0  0  0  0
  -26.6340  -12.6510   20.4540 N   0  0  0  0  0  0  0  0  0  0  0  0
  -26.2200  -11.3750   20.6620 N   0  0  0  0  0  0  0  0  0  0  0  0
  -24.1640  -10.2200   21.1450 C   0  0  0  0  0  0  0  0  0  0  0  0
  -24.5230   -9.2350   22.0900 C   0  0  0  0  0  3  0  0  0  0  0  0
  -23.7520   -8.0610   22.2280 C   0  0  0  0  0  3  0  0  0  0  0  0
  -22.6080   -7.8650   21.4190 C   0  0  0  0  0  0  0  0  0  0  0  0
  -22.2680   -8.8390   20.4640 C   0  0  0  0  0  3  0  0  0  0  0  0
  -23.0390  -10.0050   20.3250 C   0  0  0  0  0  3  0  0  0  0  0  0
  -21.8160   -6.7440   21.4640 O   0  0  0  0  0  0  0  0  0  0  0  0
  -21.6600   -6.0190   22.6180 C   0  0  0  0  0  0  0  0  0  0  0  0
  -21.0350   -6.5640   23.7600 C   0  0  0  0  0  3  0  0  0  0  0  0
  -20.8340   -5.7620   24.9020 C   0  0  0  0  0  3  0  0  0  0  0  0
  -21.2450   -4.4150   24.8990 C   0  0  0  0  0  0  0  0  0  0  0  0
  -21.8600   -3.8700   23.7580 C   0  0  0  0  0  3  0  0  0  0  0  0
  -22.0630   -4.6690   22.6190 C   0  0  0  0  0  0  0  0  0  0  0  0
  -22.6370   -4.1320   21.5170 F   0  0  0  0  0  0  0  0  0  0  0  0
  -21.0460   -3.6420   25.9920 F   0  0  0  0  0  0  0  0  0  0  0  0
  -23.1670  -13.3460   21.4190 C   0  0  0  0  0  0  0  0  0  0  0  0
  -22.4300  -12.6440   22.2720 N   0  0  0  0  0  0  0  0  0  0  0  0
  -22.7630  -14.4100   20.9550 O   0  0  0  0  0  0  0  0  0  0  0  0
  -22.7710  -11.7820   22.6720 H   0  0  0  0  0  0  0  0  0  0  0  0
  -21.5120  -12.9750   22.5300 H   0  0  0  0  0  0  0  0  0  0  0  0
  -25.8460  -14.9310   20.6040 N   0  0  0  0  0  0  0  0  0  0  0  0
  -25.1070  -15.6080   20.7520 H   0  0  0  0  0  0  0  0  0  0  0  0
  -26.6850  -15.3440   20.2180 H   0  0  0  0  0  0  0  0  0  0  0  0
  -28.2530  -21.9380   16.8380 C   0  0  0  0  0  2  0  0  0  0  0  0
  -29.2830  -22.1030   15.8220 N   0  0  0  0  0  0  0  0  0  0  0  0
  -29.9210  -22.8480   16.0890 H   0  0  0  0  0  0  0  0  0  0  0  0
  -28.8570  -22.4400   14.9630 H   0  0  0  0  0  0  0  0  0  0  0  0
  1 96  1  0
  1 49  1  0
  1  2  1  0
  2  5  1  0
  2  4  1  0
  3  2  1  0
  5  6  1  0
  6  7  1  0
  7  8  1  0
  9 20  2  0
 10  8  1  0
 10 15  1  0
 11 19  1  0
 11 21  1  0
 12 14  1  0
 13 19  1  0
 14 15  2  0
 14 13  1  0
 16 10  2  0
 17 16  1  0
 17 12  2  0
 18 12  1  0
 18 11  1  0
 19  9  1  0
 21 23  2  0
 22 21  1  0
 24 22  1  0
 25 30  1  0
 26 22  1  0
 27 26  1  0
 28 29  1  0
 28 27  1  0
 29 25  1  0
 30 26  1  0
 30 31  2  0
 32 31  1  0
 33 32  2  0
 34 25  2  0
 34 33  1  0
 35  9  1  0
 35 40  1  0
 35 36  1  0
 36 39  1  1
 36 37  1  0
 38 36  1  0
 40 43  1  0
 41 45  1  0
 41 40  1  0
 42 41  2  0
 45 44  1  0
 47 48  1  0
 47 45  1  0
 47 46  1  0
 49 54  1  0
 50 53  1  0
 51 50  2  0
 52 53  2  0
 53 57  1  0
 54 51  1  0
 54 55  2  0
 55 52  1  0
 56 55  1  0
 58 66  1  0
 59 64  1  0
 60 61  1  0
 60 59  1  0
 62 61  1  0
 62 71  1  0
 62 63  1  0
 64 58  1  0
 64 63  1  0
 65 58  2  0
 66 57  1  0
 66 67  1  0
 68 69  2  0
 69 88  1  0
 70 69  1  0
 70 73  1  0
 71 72  1  0
 71 68  1  0
 72 70  2  0
 73 74  1  0
 74 75  2  0
 76 79  1  0
 76 75  1  0
 77 76  2  0
 78 77  1  0
 78 73  2  0
 79 80  1  0
 80 85  2  0
 80 81  1  0
 81 82  2  0
 83 82  1  0
 83 87  1  0
 84 83  2  0
 85 84  1  0
 86 85  1  0
 88 89  1  0
 89 92  1  0
 89 91  1  0
 90 88  2  0
 93 68  1  0
 93 94  1  0
 95 93  1  0
 97 98  1  0
 97 96  1  0
 99 97  1  0
M  ISO  4   7 101   8 101  58 100  66 100
M  END
>  <TORSDO>  (36) 
F 25

>  <SCORE>  (36) 
-11.263

>  <name>  (36) 
35

>  <ligand_id>  (36) 
35

>  <original_smiles>  (36) 
[H]c1c([H])c([H])c2c(c1[H])C([H])([H])C([H])([H])C([H])([H])C2([H])N([H])C(=O)C1([H])N(C(=O)C([H])(N([H])C(=O)C([H])(N([H])C([H])([H])[H])C([H])([H])[H])C(C([H])([H])[H])(C([H])([H])[H])C([H])([H])[H])C([H])([H])c2c([H])c(OC([H])([H])C([H])([H])C([H])([H])[N+]([H])([H])C([H])(C([H])([H])c3c([H])c([H])c(C([H])([H])N([H])C(=O)N4C([H])([H])C([H])([H])C([H])([H])C([H])(n5nc(-c6c([H])c([H])c(Oc7c([H])c([H])c(F)c([H])c7F)c([H])c6[H])c(C(=O)N([H])[H])c5N([H])[H])C4([H])[H])c([H])c3F)C([H])([H])N([H])[H])c([H])c([H])c2C1([H])[H]

>  <smiles>  (36) 
[H]c1c([H])c([H])c2c(c1[H])C([H])([H])C([H])([H])C([H])([H])C2([H])N([H])C(=O)C1([H])N(C(=O)C([H])(N([H])C(=O)C([H])(N([H])C([H])([H])[H])C([H])([H])[H])C(C([H])([H])[H])(C([H])([H])[H])C([H])([H])[H])C([H])([H])c2c([H])c(OC([H])([H])C([H])([H])C([H])([H])[N+]([H])([H])C([H])(C([H])([H])c3c([H])c([H])c(C([H])([H])N([H])C(=O)N4C([H])([H])C([H])([H])C([H])([H])C([H])(n5nc(-c6c([H])c([H])c(Oc7c([H])c([H])c(F)c([H])c7F)c([H])c6[H])c(C(=O)N([H])[H])c5N([H])[H])C4([H])[H])c([H])c3F)C([H])([H])N([H])[H])c([H])c([H])c2C1([H])[H]

$$$$
36:0:0
     RDKit          3D

 93101  0  0  1  0  0  0  0  0999 V2000
  -28.8900  -18.3070   19.9190 C   0  0  0  0  0  2  0  0  0  0  0  0
  -31.0590  -19.5050   21.5740 C   0  0  0  0  0  2  0  0  0  0  0  0
  -29.1780  -19.8270   19.4760 C   0  0  0  0  0  2  0  0  0  0  0  0
  -29.9730  -20.6380   21.7020 C   0  0  0  0  0  2  0  0  0  0  0  0
  -30.0920  -17.3750   20.3820 C   0  0  0  0  0  3  0  0  0  0  0  0
  -30.6200  -18.0070   21.6950 C   0  0  0  0  0  3  0  0  0  0  0  0
  -29.1170  -20.9500   20.5070 N   0  0  1  0  0  4  0  0  0  0  0  0
  -31.6830  -17.3000   22.0840 F   0  0  0  0  0  0  0  0  0  0  0  0
  -28.1690  -20.9350   20.8560 H   0  0  0  0  0  0  0  0  0  0  0  0
  -30.5680  -14.7620   20.2550 C   0  0  0  0  0  0  0  0  0  0  0  0
  -30.3500  -12.4990   19.2210 C   0  0  0  0  0  2  0  0  0  0  0  0
  -29.3960  -12.5990   18.0090 C   0  0  0  0  0  2  0  0  0  0  0  0
  -27.9290  -12.4340   18.4560 C   0  0  0  0  0  2  0  0  0  0  0  0
  -27.5810  -13.3070   19.6910 C   0  0  0  0  0  3  0  0  0  0  0  0
  -28.6520  -13.1840   20.7970 C   0  0  0  0  0  2  0  0  0  0  0  0
  -29.9450  -13.5360   20.1950 N   0  0  0  0  0  0  0  0  0  0  0  0
  -31.7390  -14.8750   19.8820 O   0  0  0  0  0  0  0  0  0  0  0  0
  -29.7870  -15.8770   20.5230 N   0  0  0  0  0  0  0  0  0  0  0  0
  -28.8460  -15.6560   20.8110 H   0  0  0  0  0  0  0  0  0  0  0  0
  -25.2010  -13.9090   20.4360 C   0  0  0  0  0  0  0  0  0  0  0  0
  -24.1370  -13.1380   20.8180 C   0  0  0  0  0  0  0  0  0  0  0  0
  -24.5950  -11.7860   20.7870 C   0  0  0  0  0  0  0  0  0  0  0  0
  -26.2400  -13.0250   20.1930 N   0  0  0  0  0  0  0  0  0  0  0  0
  -25.8830  -11.7440   20.4660 N   0  0  0  0  0  0  0  0  0  0  0  0
  -23.8680  -10.5270   20.9850 C   0  0  0  0  0  0  0  0  0  0  0  0
  -24.3060   -9.5590   21.9160 C   0  0  0  0  0  3  0  0  0  0  0  0
  -23.5780   -8.3630   22.1030 C   0  0  0  0  0  3  0  0  0  0  0  0
  -22.3970   -8.1290   21.3580 C   0  0  0  0  0  0  0  0  0  0  0  0
  -21.9780   -9.0860   20.4180 C   0  0  0  0  0  3  0  0  0  0  0  0
  -22.7060  -10.2710   20.2290 C   0  0  0  0  0  3  0  0  0  0  0  0
  -21.6390   -6.9870   21.4560 O   0  0  0  0  0  0  0  0  0  0  0  0
  -21.5970   -6.2460   22.6100 C   0  0  0  0  0  0  0  0  0  0  0  0
  -21.1690   -6.8010   23.8360 C   0  0  0  0  0  3  0  0  0  0  0  0
  -21.0760   -5.9860   24.9830 C   0  0  0  0  0  3  0  0  0  0  0  0
  -21.3980   -4.6190   24.9040 C   0  0  0  0  0  0  0  0  0  0  0  0
  -21.8190   -4.0640   23.6820 C   0  0  0  0  0  3  0  0  0  0  0  0
  -21.9160   -4.8750   22.5380 C   0  0  0  0  0  0  0  0  0  0  0  0
  -22.3000   -4.3300   21.3590 F   0  0  0  0  0  0  0  0  0  0  0  0
  -21.3010   -3.8340   26.0010 F   0  0  0  0  0  0  0  0  0  0  0  0
  -22.7430  -13.6200   21.1010 C   0  0  0  0  0  0  0  0  0  0  0  0
  -22.0190  -12.9240   21.9710 N   0  0  0  0  0  0  0  0  0  0  0  0
  -22.3060  -14.6500   20.5870 O   0  0  0  0  0  0  0  0  0  0  0  0
  -22.3860  -12.0900   22.4050 H   0  0  0  0  0  0  0  0  0  0  0  0
  -21.0860  -13.2280   22.2040 H   0  0  0  0  0  0  0  0  0  0  0  0
  -25.3650  -15.2780   20.2510 N   0  0  0  0  0  0  0  0  0  0  0  0
  -24.5910  -15.9260   20.3470 H   0  0  0  0  0  0  0  0  0  0  0  0
  -26.1940  -15.7100   19.8630 H   0  0  0  0  0  0  0  0  0  0  0  0
  -29.2470  -22.3890   19.9280 C   0  0  0  0  0  2  0  0  0  0  0  0
  -29.2990  -24.0270   21.9770 C   0  0  0  0  0  1  0  0  0  0  0  0
  -28.5930  -23.7050   20.6490 C   0  0  2  0  0  0  0  0  0  0  0  0
  -27.3380  -23.3700   20.9530 F   0  0  0  0  0  0  0  0  0  0  0  0
  -28.5030  -25.0750   19.7660 C   0  0  0  0  0  2  0  0  0  0  0  0
  -28.3690  -26.4630   20.3440 O   0  0  0  0  0  0  0  0  0  0  0  0
  -24.5850  -31.9030   23.2540 C   0  0  0  0  0  0  0  0  0  0  0  0
  -27.2300  -27.2970   20.2460 C   0  0  0  0  0  0  0  0  0  0  0  0
  -23.3980  -30.4920   21.6130 C   0  0  0  0  0  3  0  0  0  0  0  0
  -24.8600  -28.9320   20.2030 C   0  0  0  0  0  0  0  0  0  0  0  0
  -25.9390  -30.8070   21.4470 C   0  0  0  0  0  2  0  0  0  0  0  0
  -26.0240  -29.4210   20.8060 C   0  0  0  0  0  0  0  0  0  0  0  0
  -27.2070  -28.6160   20.8160 C   0  0  0  0  0  3  0  0  0  0  0  0
  -26.0360  -26.8650   19.6260 C   0  0  0  0  0  3  0  0  0  0  0  0
  -24.8720  -27.6620   19.6040 C   0  0  0  0  0  3  0  0  0  0  0  0
  -23.6210  -29.8060   20.2390 C   0  0  0  0  0  2  0  0  0  0  0  0
  -24.6600  -31.0870   22.1610 N   0  0  0  0  0  0  0  0  0  0  0  0
  -23.4970  -32.1800   23.7800 O   0  0  0  0  0  0  0  0  0  0  0  0
  -22.7270  -29.4830   22.5770 C   0  0  0  0  0  0  0  0  0  0  0  0
  -21.4010  -29.3060   22.4470 N   0  0  0  0  0  0  0  0  0  0  0  0
  -23.4020  -28.8610   23.4020 O   0  0  0  0  0  0  0  0  0  0  0  0
  -20.9150  -29.8590   21.7550 H   0  0  0  0  0  0  0  0  0  0  0  0
  -18.0210  -28.1180   22.9470 C   0  0  0  0  0  0  0  0  0  0  0  0
  -20.5800  -28.3730   23.2190 C   0  0  0  0  0  3  0  0  0  0  0  0
  -20.6790  -26.9400   22.6470 C   0  0  0  0  0  2  0  0  0  0  0  0
  -19.5790  -26.6180   21.6320 C   0  0  0  0  0  2  0  0  0  0  0  0
  -18.1950  -26.7690   22.2720 C   0  0  0  0  0  2  0  0  0  0  0  0
  -19.1410  -28.8790   23.3770 C   0  0  0  0  0  0  0  0  0  0  0  0
  -18.9230  -30.1440   23.9660 C   0  0  0  0  0  3  0  0  0  0  0  0
  -17.6190  -30.6480   24.1290 C   0  0  0  0  0  3  0  0  0  0  0  0
  -16.5140  -29.8830   23.7160 C   0  0  0  0  0  3  0  0  0  0  0  0
  -16.7160  -28.6210   23.1310 C   0  0  0  0  0  3  0  0  0  0  0  0
  -25.8610  -32.5430   23.8830 C   0  0  0  0  0  3  0  0  0  0  0  0
  -26.3610  -31.7920   25.1790 C   0  0  1  0  0  0  0  0  0  0  0  0
  -25.2540  -31.5730   26.2370 C   0  0  0  0  0  1  0  0  0  0  0  0
  -26.9460  -30.4080   24.8160 C   0  0  0  0  0  1  0  0  0  0  0  0
  -27.5070  -32.5920   25.8400 C   0  0  0  0  0  1  0  0  0  0  0  0
  -25.5500  -33.9470   24.1930 N   0  0  0  0  0  0  0  0  0  0  0  0
  -25.8900  -34.9910   23.4270 C   0  0  0  0  0  0  0  0  0  0  0  0
  -26.5690  -34.8750   22.4010 O   0  0  0  0  0  0  0  0  0  0  0  0
  -24.9510  -34.1120   24.9890 H   0  0  0  0  0  0  0  0  0  0  0  0
  -24.1710  -36.7830   23.0360 C   0  0  0  0  0  1  0  0  0  0  0  0
  -25.4020  -36.3860   23.8650 C   0  0  0  0  0  3  0  0  0  0  0  0
  -27.5270  -37.2750   24.7140 C   0  0  0  0  0  1  0  0  0  0  0  0
  -26.4380  -37.4350   23.7530 N   0  0  0  0  0  0  0  0  0  0  0  0
  -26.0320  -38.3560   23.8840 H   0  0  0  0  0  0  0  0  0  0  0  0
  1  5  1  0
  2  6  1  0
  2  4  1  0
  3  1  1  0
  3  7  1  0
  5 18  1  0
  5  6  1  0
  6  8  1  0
  7  9  1  1
  7  4  1  0
 10 18  1  0
 11 16  1  0
 12 13  1  0
 12 11  1  0
 14 13  1  0
 14 23  1  0
 14 15  1  0
 16 10  1  0
 16 15  1  0
 17 10  2  0
 18 19  1  0
 20 21  2  0
 21 40  1  0
 22 21  1  0
 22 25  1  0
 23 20  1  0
 23 24  1  0
 24 22  2  0
 25 26  1  0
 26 27  2  0
 28 31  1  0
 28 27  1  0
 29 28  2  0
 30 29  1  0
 30 25  2  0
 31 32  1  0
 32 33  1  0
 33 34  2  0
 35 34  1  0
 35 39  1  0
 36 35  2  0
 37 32  2  0
 37 36  1  0
 38 37  1  0
 40 41  1  0
 41 44  1  0
 41 43  1  0
 42 40  2  0
 45 46  1  0
 45 20  1  0
 47 45  1  0
 48  7  1  0
 48 50  1  0
 50 51  1  0
 50 49  1  1
 52 53  1  0
 52 50  1  0
 54 65  2  0
 55 53  1  0
 55 60  1  0
 56 64  1  0
 56 66  1  0
 57 63  1  0
 57 59  1  0
 58 64  1  0
 59 60  2  0
 59 58  1  0
 61 55  2  0
 62 61  1  0
 62 57  2  0
 63 56  1  0
 64 54  1  0
 66 68  2  0
 67 66  1  0
 69 67  1  0
 70 79  2  0
 70 75  1  0
 71 67  1  0
 71 75  1  0
 72 71  1  0
 73 74  1  0
 73 72  1  0
 74 70  1  0
 75 76  2  0
 76 77  1  0
 78 77  2  0
 79 78  1  0
 80 54  1  0
 80 85  1  0
 80 81  1  0
 81 84  1  1
 81 82  1  0
 83 81  1  0
 85 88  1  0
 86 90  1  0
 86 85  1  0
 87 86  2  0
 90 89  1  0
 92 90  1  0
 92 93  1  0
 92 91  1  0
M  ISO  4  10 100  18 100  52 101  53 101
M  END
>  <TORSDO>  (37) 
F 19

>  <SCORE>  (37) 
-14.347

>  <name>  (37) 
36

>  <ligand_id>  (37) 
36

>  <original_smiles>  (37) 
[H]c1c([H])c([H])c2c(c1[H])C([H])([H])C([H])([H])C([H])([H])C2([H])N([H])C(=O)C1([H])N(C(=O)C([H])(N([H])C(=O)C([H])(N([H])C([H])([H])[H])C([H])([H])[H])C(C([H])([H])[H])(C([H])([H])[H])C([H])([H])[H])C([H])([H])c2c([H])c(OC([H])([H])C(F)(C([H])([H])[H])C([H])([H])[N+]3([H])C([H])([H])C([H])([H])C([H])(F)C([H])(N([H])C(=O)N4C([H])([H])C([H])([H])C([H])([H])C([H])(n5nc(-c6c([H])c([H])c(Oc7c([H])c([H])c(F)c([H])c7F)c([H])c6[H])c(C(=O)N([H])[H])c5N([H])[H])C4([H])[H])C([H])([H])C3([H])[H])c([H])c([H])c2C1([H])[H]

>  <smiles>  (37) 
[H]c1c([H])c([H])c2c(c1[H])C([H])([H])C([H])([H])C([H])([H])C2([H])N([H])C(=O)C1([H])N(C(=O)C([H])(N([H])C(=O)C([H])(N([H])C([H])([H])[H])C([H])([H])[H])C(C([H])([H])[H])(C([H])([H])[H])C([H])([H])[H])C([H])([H])c2c([H])c(OC([H])([H])C(F)(C([H])([H])[H])C([H])([H])[N+]3([H])C([H])([H])C([H])([H])C([H])(F)C([H])(N([H])C(=O)N4C([H])([H])C([H])([H])C([H])([H])C([H])(n5nc(-c6c([H])c([H])c(Oc7c([H])c([H])c(F)c([H])c7F)c([H])c6[H])c(C(=O)N([H])[H])c5N([H])[H])C4([H])[H])C([H])([H])C3([H])[H])c([H])c([H])c2C1([H])[H]

$$$$
37:0:0
     RDKit          3D

102110  0  0  1  0  0  0  0  0999 V2000
  -30.3340  -20.4140   24.2060 N   0  0  0  0  0  4  0  0  0  0  0  0
  -30.9060  -20.5590   23.3880 H   0  0  0  0  0  0  0  0  0  0  0  0
  -29.3690  -20.3910   23.9190 H   0  0  0  0  0  0  0  0  0  0  0  0
  -30.5340  -21.5490   25.1340 C   0  0  0  0  0  2  0  0  0  0  0  0
  -31.1640  -22.7960   24.4720 C   0  0  0  0  0  2  0  0  0  0  0  0
  -30.8440  -22.9900   22.9730 C   0  0  0  0  0  2  0  0  0  0  0  0
  -31.2100  -24.3460   22.5110 N   0  0  0  0  0  4  0  0  0  0  0  0
  -32.1850  -24.5100   22.7040 H   0  0  0  0  0  0  0  0  0  0  0  0
  -30.6770  -25.0180   23.0420 H   0  0  0  0  0  0  0  0  0  0  0  0
  -30.9750  -24.5780   21.0680 C   0  0  0  0  0  2  0  0  0  0  0  0
  -30.7790  -26.0710   20.7500 C   0  0  0  0  0  2  0  0  0  0  0  0
  -30.4990  -26.3310   19.2620 C   0  0  0  0  0  2  0  0  0  0  0  0
  -29.9280  -27.6290   19.1300 O   0  0  0  0  0  0  0  0  0  0  0  0
  -24.7140  -30.5960   22.9340 C   0  0  0  0  0  0  0  0  0  0  0  0
  -28.5690  -27.7760   19.2920 C   0  0  0  0  0  0  0  0  0  0  0  0
  -23.9840  -29.0160   21.1750 C   0  0  0  0  0  3  0  0  0  0  0  0
  -25.7960  -28.2560   19.5520 C   0  0  0  0  0  0  0  0  0  0  0  0
  -26.1820  -30.2960   20.9430 C   0  0  0  0  0  2  0  0  0  0  0  0
  -26.7170  -29.1190   20.1580 C   0  0  0  0  0  0  0  0  0  0  0  0
  -28.1020  -28.8880   20.0240 C   0  0  0  0  0  3  0  0  0  0  0  0
  -27.6270  -26.9070   18.6920 C   0  0  0  0  0  3  0  0  0  0  0  0
  -26.2470  -27.1440   18.8200 C   0  0  0  0  0  3  0  0  0  0  0  0
  -24.3330  -28.5890   19.7250 C   0  0  0  0  0  2  0  0  0  0  0  0
  -24.9780  -29.9840   21.7450 N   0  0  0  0  0  0  0  0  0  0  0  0
  -23.6460  -30.4040   23.5310 O   0  0  0  0  0  0  0  0  0  0  0  0
  -23.8090  -27.7430   22.0310 C   0  0  0  0  0  0  0  0  0  0  0  0
  -22.6790  -27.0430   21.8350 N   0  0  0  0  0  0  0  0  0  0  0  0
  -24.6850  -27.3880   22.8250 O   0  0  0  0  0  0  0  0  0  0  0  0
  -22.0080  -27.4060   21.1730 H   0  0  0  0  0  0  0  0  0  0  0  0
  -20.1270  -24.4960   22.0370 C   0  0  0  0  0  0  0  0  0  0  0  0
  -22.3160  -25.7900   22.4990 C   0  0  0  0  0  3  0  0  0  0  0  0
  -23.0450  -24.5890   21.8550 C   0  0  0  0  0  2  0  0  0  0  0  0
  -22.2270  -23.9100   20.7520 C   0  0  0  0  0  2  0  0  0  0  0  0
  -20.8910  -23.4040   21.3060 C   0  0  0  0  0  2  0  0  0  0  0  0
  -20.7960  -25.6240   22.5830 C   0  0  0  0  0  0  0  0  0  0  0  0
  -20.0380  -26.6260   23.2250 C   0  0  0  0  0  3  0  0  0  0  0  0
  -18.6390  -26.5160   23.3310 C   0  0  0  0  0  3  0  0  0  0  0  0
  -17.9820  -25.3900   22.8070 C   0  0  0  0  0  3  0  0  0  0  0  0
  -18.7250  -24.3820   22.1640 C   0  0  0  0  0  3  0  0  0  0  0  0
  -25.7290  -31.5870   23.5880 C   0  0  0  0  0  3  0  0  0  0  0  0
  -25.0300  -32.8620   23.7960 N   0  0  0  0  0  0  0  0  0  0  0  0
  -25.1670  -33.9400   23.0140 C   0  0  0  0  0  0  0  0  0  0  0  0
  -25.9590  -33.9890   22.0700 O   0  0  0  0  0  0  0  0  0  0  0  0
  -24.3290  -32.8800   24.5210 H   0  0  0  0  0  0  0  0  0  0  0  0
  -23.1020  -35.2050   22.3430 C   0  0  0  0  0  1  0  0  0  0  0  0
  -24.2810  -35.1600   23.3270 C   0  0  0  0  0  3  0  0  0  0  0  0
  -26.0120  -36.5750   24.3400 C   0  0  0  0  0  1  0  0  0  0  0  0
  -25.0110  -36.4450   23.2840 N   0  0  0  0  0  0  0  0  0  0  0  0
  -24.3690  -37.2290   23.3580 H   0  0  0  0  0  0  0  0  0  0  0  0
  -26.3360  -31.0530   24.9420 C   0  0  1  0  0  0  0  0  0  0  0  0
  -25.2740  -30.5190   25.9310 C   0  0  0  0  0  1  0  0  0  0  0  0
  -27.3490  -29.9160   24.6670 C   0  0  0  0  0  1  0  0  0  0  0  0
  -27.1200  -32.1850   25.6460 C   0  0  0  0  0  1  0  0  0  0  0  0
  -30.7110  -19.0960   24.7760 C   0  0  0  0  0  2  0  0  0  0  0  0
  -30.9720  -17.9930   23.7120 C   0  0  0  0  0  3  0  0  0  0  0  0
  -31.2790  -19.4310   21.4950 C   0  0  0  0  0  2  0  0  0  0  0  0
  -31.2270  -17.9770   21.0810 C   0  0  0  0  0  3  0  0  0  0  0  0
  -30.5080  -18.4280   22.3270 C   0  0  0  0  0  3  0  0  0  0  0  0
  -30.4160  -17.5240   19.8910 C   0  0  0  0  0  2  0  0  0  0  0  0
  -30.1520  -15.1680   19.2120 C   0  0  0  0  0  0  0  0  0  0  0  0
  -30.4650  -12.7320   19.2600 C   0  0  0  0  0  2  0  0  0  0  0  0
  -29.5330  -11.9710   18.3070 C   0  0  0  0  0  2  0  0  0  0  0  0
  -28.1960  -11.6580   18.9980 C   0  0  0  0  0  2  0  0  0  0  0  0
  -27.5580  -12.9170   19.6400 C   0  0  0  0  0  3  0  0  0  0  0  0
  -28.5850  -13.6840   20.5060 C   0  0  0  0  0  2  0  0  0  0  0  0
  -29.7920  -13.9590   19.7010 N   0  0  0  0  0  0  0  0  0  0  0  0
  -30.8600  -15.3340   18.2130 O   0  0  0  0  0  0  0  0  0  0  0  0
  -29.8850  -16.1790   20.0400 N   0  0  0  0  0  0  0  0  0  0  0  0
  -29.4020  -15.9460   20.8960 H   0  0  0  0  0  0  0  0  0  0  0  0
  -25.5060  -13.3830   21.1310 C   0  0  0  0  0  0  0  0  0  0  0  0
  -24.5020  -12.5700   21.5840 C   0  0  0  0  0  0  0  0  0  0  0  0
  -24.7950  -11.2640   21.0860 C   0  0  0  0  0  0  0  0  0  0  0  0
  -26.3590  -12.5660   20.4020 N   0  0  0  0  0  0  0  0  0  0  0  0
  -25.9450  -11.2720   20.4240 N   0  0  0  0  0  0  0  0  0  0  0  0
  -24.0200  -10.0170   21.1510 C   0  0  0  0  0  0  0  0  0  0  0  0
  -24.2900   -9.0300   22.1240 C   0  0  0  0  0  3  0  0  0  0  0  0
  -23.5180   -7.8500   22.1800 C   0  0  0  0  0  3  0  0  0  0  0  0
  -22.4630   -7.6480   21.2600 C   0  0  0  0  0  0  0  0  0  0  0  0
  -22.2130   -8.6230   20.2780 C   0  0  0  0  0  3  0  0  0  0  0  0
  -22.9850   -9.7960   20.2210 C   0  0  0  0  0  3  0  0  0  0  0  0
  -21.6780   -6.5210   21.2210 O   0  0  0  0  0  0  0  0  0  0  0  0
  -21.0280   -6.0580   22.3370 C   0  0  0  0  0  0  0  0  0  0  0  0
  -20.0370   -6.8200   22.9930 C   0  0  0  0  0  3  0  0  0  0  0  0
  -19.3470   -6.2770   24.0950 C   0  0  0  0  0  3  0  0  0  0  0  0
  -19.6370   -4.9720   24.5370 C   0  0  0  0  0  0  0  0  0  0  0  0
  -20.6210   -4.2110   23.8810 C   0  0  0  0  0  3  0  0  0  0  0  0
  -21.3120   -4.7510   22.7820 C   0  0  0  0  0  0  0  0  0  0  0  0
  -22.2430   -4.0040   22.1410 F   0  0  0  0  0  0  0  0  0  0  0  0
  -18.9690   -4.4480   25.5900 F   0  0  0  0  0  0  0  0  0  0  0  0
  -23.2840  -12.9960   22.3550 C   0  0  0  0  0  0  0  0  0  0  0  0
  -22.7760  -12.1290   23.2250 N   0  0  0  0  0  0  0  0  0  0  0  0
  -22.8060  -14.1210   22.2250 O   0  0  0  0  0  0  0  0  0  0  0  0
  -23.1780  -11.2110   23.3440 H   0  0  0  0  0  0  0  0  0  0  0  0
  -21.9710  -12.3860   23.7790 H   0  0  0  0  0  0  0  0  0  0  0  0
  -25.7580  -14.7450   21.2630 N   0  0  0  0  0  0  0  0  0  0  0  0
  -25.1090  -15.3730   21.7250 H   0  0  0  0  0  0  0  0  0  0  0  0
  -26.5260  -15.2280   20.8120 H   0  0  0  0  0  0  0  0  0  0  0  0
  -30.3930  -16.5950   24.0670 C   0  0  0  0  0  2  0  0  0  0  0  0
  -31.1250  -15.8960   25.1440 N   0  0  0  0  0  4  0  0  0  0  0  0
  -32.0870  -15.7500   24.8880 H   0  0  0  0  0  0  0  0  0  0  0  0
  -30.7150  -14.9930   25.2970 H   0  0  0  0  0  0  0  0  0  0  0  0
  -31.0960  -16.3890   26.0180 H   0  0  0  0  0  0  0  0  0  0  0  0
  1 54  1  0
  1  4  1  0
  2  1  1  0
  3  1  1  0
  5  4  1  0
  6  5  1  0
  7  8  1  0
  7  6  1  0
  7  9  1  0
 10  7  1  0
 11 10  1  0
 12 11  1  0
 13 12  1  0
 13 15  1  0
 14 25  2  0
 15 20  1  0
 16 24  1  0
 16 26  1  0
 17 23  1  0
 17 19  1  0
 18 24  1  0
 19 18  1  0
 20 19  2  0
 21 22  1  0
 21 15  2  0
 22 17  2  0
 23 16  1  0
 24 14  1  0
 26 28  2  0
 27 26  1  0
 29 27  1  0
 30 39  2  0
 30 35  1  0
 31 27  1  0
 31 35  1  0
 32 31  1  0
 33 34  1  0
 33 32  1  0
 34 30  1  0
 35 36  2  0
 36 37  1  0
 38 37  2  0
 39 38  1  0
 40 14  1  0
 40 41  1  0
 40 50  1  0
 41 44  1  0
 42 46  1  0
 42 41  1  0
 43 42  2  0
 46 45  1  0
 48 46  1  0
 48 49  1  0
 48 47  1  0
 50 53  1  1
 50 51  1  0
 52 50  1  0
 55 98  1  0
 55 54  1  0
 56 58  1  0
 57 59  1  0
 57 56  1  0
 57 58  1  0
 58 55  1  0
 59 68  1  0
 60 66  1  0
 60 68  1  0
 61 66  1  0
 62 63  1  0
 62 61  1  0
 64 63  1  0
 64 73  1  0
 64 65  1  0
 66 65  1  0
 67 60  2  0
 68 69  1  0
 70 95  1  0
 70 71  2  0
 71 90  1  0
 72 75  1  0
 72 71  1  0
 73 74  1  0
 73 70  1  0
 74 72  2  0
 75 76  1  0
 76 77  2  0
 78 77  1  0
 79 78  2  0
 80 79  1  0
 80 75  2  0
 81 78  1  0
 81 82  1  0
 82 87  2  0
 82 83  1  0
 83 84  2  0
 84 85  1  0
 85 89  1  0
 86 85  2  0
 87 86  1  0
 88 87  1  0
 90 91  1  0
 91 93  1  0
 91 94  1  0
 92 90  2  0
 95 96  1  0
 97 95  1  0
 98 99  1  0
 99101  1  0
 99102  1  0
100 99  1  0
M  ISO  4  12 101  13 101  60 100  68 100
M  END
>  <TORSDO>  (38) 
F 29

>  <SCORE>  (38) 
9.128

>  <name>  (38) 
37

>  <ligand_id>  (38) 
37

>  <original_smiles>  (38) 
[H]c1c([H])c([H])c2c(c1[H])C([H])([H])C([H])([H])C([H])([H])C2([H])N([H])C(=O)C1([H])N(C(=O)C([H])(N([H])C(=O)C([H])(N([H])C([H])([H])[H])C([H])([H])[H])C(C([H])([H])[H])(C([H])([H])[H])C([H])([H])[H])C([H])([H])c2c([H])c(OC([H])([H])C([H])([H])C([H])([H])[N+]([H])([H])C([H])([H])C([H])([H])C([H])([H])[N+]([H])([H])C([H])([H])C([H])(C3([H])C([H])([H])C3([H])C([H])([H])N([H])C(=O)N3C([H])([H])C([H])([H])C([H])([H])C([H])(n4nc(-c5c([H])c([H])c(Oc6c([H])c([H])c(F)c([H])c6F)c([H])c5[H])c(C(=O)N([H])[H])c4N([H])[H])C3([H])[H])C([H])([H])[N+]([H])([H])[H])c([H])c([H])c2C1([H])[H]

>  <smiles>  (38) 
[H]c1c([H])c([H])c2c(c1[H])C([H])([H])C([H])([H])C([H])([H])C2([H])N([H])C(=O)C1([H])N(C(=O)C([H])(N([H])C(=O)C([H])(N([H])C([H])([H])[H])C([H])([H])[H])C(C([H])([H])[H])(C([H])([H])[H])C([H])([H])[H])C([H])([H])c2c([H])c(OC([H])([H])C([H])([H])C([H])([H])[N+]([H])([H])C([H])([H])C([H])([H])C([H])([H])[N+]([H])([H])C([H])([H])C([H])(C3([H])C([H])([H])C3([H])C([H])([H])N([H])C(=O)N3C([H])([H])C([H])([H])C([H])([H])C([H])(n4nc(-c5c([H])c([H])c(Oc6c([H])c([H])c(F)c([H])c6F)c([H])c5[H])c(C(=O)N([H])[H])c4N([H])[H])C3([H])[H])C([H])([H])[N+]([H])([H])[H])c([H])c([H])c2C1([H])[H]

$$$$
38:0:0
     RDKit          3D

 97102  0  0  1  0  0  0  0  0999 V2000
  -22.4140  -15.7020   21.0490 C   0  0  0  0  0  0  0  0  0  0  0  0
  -21.8560  -16.2720   22.0560 O   0  0  0  0  0  0  0  0  0  0  0  0
  -22.3130  -13.7590   21.1910 C   0  0  0  0  0  2  0  0  0  0  0  0
  -24.4000  -10.6320   18.6230 C   0  0  0  0  0  3  0  0  0  0  0  0
  -23.2080   -9.9290   18.3040 C   0  0  0  0  0  3  0  0  0  0  0  0
  -21.8940  -11.2800   19.9020 C   0  0  0  0  0  3  0  0  0  0  0  0
  -24.4800  -11.6740   19.6030 C   0  0  0  0  0  0  0  0  0  0  0  0
  -22.9870  -12.1660   20.2890 C   0  0  0  0  0  0  0  0  0  0  0  0
  -21.9800  -10.2080   18.9520 C   0  0  0  0  0  0  0  0  0  0  0  0
  -20.8830   -9.4210   18.6640 F   0  0  0  0  0  0  0  0  0  0  0  0
  -26.3360  -11.9530   20.0940 C   0  0  0  0  0  1  0  0  0  0  0  0
  -29.6250  -12.3890   19.1360 C   0  0  0  0  0  0  0  0  0  0  0  0
  -30.6890  -10.2450   18.3490 C   0  0  0  0  0  2  0  0  0  0  0  0
  -29.3600   -9.9240   17.6720 C   0  0  0  0  0  2  0  0  0  0  0  0
  -28.4280   -9.4560   18.8380 C   0  0  0  0  0  2  0  0  0  0  0  0
  -28.7920  -10.0700   20.2770 C   0  0  0  0  0  3  0  0  0  0  0  0
  -30.0840  -10.6600   20.6400 C   0  0  0  0  0  2  0  0  0  0  0  0
  -30.2960  -11.2180   19.3970 N   0  0  0  0  0  0  0  0  0  0  0  0
  -30.6590  -12.9870   18.6570 O   0  0  0  0  0  0  0  0  0  0  0  0
  -27.9710  -12.5980   19.2170 N   0  0  0  0  0  2  0  0  0  0  0  0
  -27.6980  -13.3740   18.6330 H   0  0  0  0  0  0  0  0  0  0  0  0
  -27.7660  -12.4010   21.9810 C   0  0  0  0  0  3  0  0  0  0  0  0
  -26.0930  -12.6480   22.2780 C   0  0  0  0  0  3  0  0  0  0  0  0
  -25.1850  -11.0590   21.6140 C   0  0  0  0  0  3  0  0  0  0  0  0
  -27.9460  -10.7500   21.0900 N   0  0  0  0  0  0  0  0  0  0  0  0
  -26.3630  -10.0460   20.8960 N   0  0  0  0  0  2  0  0  0  0  0  0
  -24.2840  -10.0030   22.0640 C   0  0  0  0  0  0  0  0  0  0  0  0
  -24.7290   -8.8560   22.7630 C   0  0  0  0  0  3  0  0  0  0  0  0
  -23.8360   -7.7880   22.9790 C   0  0  0  0  0  3  0  0  0  0  0  0
  -22.5210   -7.8790   22.4450 C   0  0  0  0  0  0  0  0  0  0  0  0
  -22.1590   -8.9810   21.6570 C   0  0  0  0  0  3  0  0  0  0  0  0
  -23.0680   -9.9960   21.4020 C   0  0  0  0  0  3  0  0  0  0  0  0
  -21.5200   -6.9870   22.6210 O   0  0  0  0  0  0  0  0  0  0  0  0
  -21.5990   -6.0210   23.5810 C   0  0  0  0  0  0  0  0  0  0  0  0
  -21.7360   -6.3220   24.9480 C   0  0  0  0  0  3  0  0  0  0  0  0
  -21.7640   -5.2730   25.8810 C   0  0  0  0  0  3  0  0  0  0  0  0
  -21.6010   -3.9370   25.4510 C   0  0  0  0  0  0  0  0  0  0  0  0
  -21.4250   -3.6550   24.0860 C   0  0  0  0  0  3  0  0  0  0  0  0
  -21.4200   -4.6940   23.1530 C   0  0  0  0  0  0  0  0  0  0  0  0
  -21.2360   -4.4310   21.8360 F   0  0  0  0  0  0  0  0  0  0  0  0
  -21.5880   -2.9410   26.3600 F   0  0  0  0  0  0  0  0  0  0  0  0
  -26.0330  -14.1800   21.8940 C   0  0  0  0  0  0  0  0  0  0  0  0
  -25.2000  -14.9150   21.1320 N   0  0  0  0  0  0  0  0  0  0  0  0
  -26.8980  -15.0510   22.1500 O   0  0  0  0  0  0  0  0  0  0  0  0
  -24.2810  -14.5680   20.6750 H   0  0  0  0  0  0  0  0  0  0  0  0
  -25.7000  -15.5910   20.5300 H   0  0  0  0  0  0  0  0  0  0  0  0
  -28.7630  -13.3590   22.0360 N   0  0  0  0  0  0  0  0  0  0  0  0
  -28.4350  -14.3390   22.2130 H   0  0  0  0  0  0  0  0  0  0  0  0
  -29.6600  -13.2950   21.5600 H   0  0  0  0  0  0  0  0  0  0  0  0
  -23.0350  -17.0630   19.8560 C   0  0  0  0  0  2  0  0  0  0  0  0
  -25.6520  -17.6710   20.3800 C   0  0  0  0  0  1  0  0  0  0  0  0
  -24.5420  -17.8410   19.2990 N   0  0  2  0  0  4  0  0  0  0  0  0
  -24.6990  -17.2040   18.5070 H   0  0  0  0  0  0  0  0  0  0  0  0
  -24.8300  -19.4750   18.6840 C   0  0  0  0  0  1  0  0  0  0  0  0
  -26.3440  -20.5570   17.9700 C   0  0  0  0  0 15  0  0  0  0  0  0
  -26.9380  -22.4520   17.7760 C   0  0  0  0  0  1  0  0  0  0  0  0
  -28.2470  -23.6610   17.4330 O   0  0  0  0  0  0  0  0  0  0  0  0
  -27.5780  -28.9740   22.6350 C   0  0  0  0  0  0  0  0  0  0  0  0
  -28.2550  -25.1540   17.7390 C   0  0  0  0  0  0  0  0  0  0  0  0
  -26.0290  -28.6570   20.7540 C   0  0  0  0  0  3  0  0  0  0  0  0
  -26.9640  -27.6100   18.6000 C   0  0  0  0  0  0  0  0  0  0  0  0
  -28.5450  -28.3150   20.3510 C   0  0  0  0  0  2  0  0  0  0  0  0
  -28.1940  -27.3230   19.1990 C   0  0  0  0  0  0  0  0  0  0  0  0
  -28.8830  -26.0960   18.7370 C   0  0  0  0  0  3  0  0  0  0  0  0
  -27.3130  -25.8090   16.9650 C   0  0  0  0  0  3  0  0  0  0  0  0
  -26.5910  -26.9140   17.4530 C   0  0  0  0  0  3  0  0  0  0  0  0
  -26.0690  -28.6730   19.2040 C   0  0  0  0  0  2  0  0  0  0  0  0
  -27.4240  -28.6510   21.3140 N   0  0  0  0  0  0  0  0  0  0  0  0
  -26.5990  -29.2360   23.3500 O   0  0  0  0  0  0  0  0  0  0  0  0
  -25.1760  -27.4760   21.2970 C   0  0  0  0  0  0  0  0  0  0  0  0
  -23.8400  -27.5580   21.1320 N   0  0  0  0  0  0  0  0  0  0  0  0
  -25.6990  -26.5010   21.8370 O   0  0  0  0  0  0  0  0  0  0  0  0
  -23.4690  -28.4040   20.6980 H   0  0  0  0  0  0  0  0  0  0  0  0
  -20.3380  -26.6290   20.9580 C   0  0  0  0  0  0  0  0  0  0  0  0
  -22.8600  -26.5440   21.5360 C   0  0  0  0  0  3  0  0  0  0  0  0
  -22.9430  -25.3170   20.5990 C   0  0  0  0  0  2  0  0  0  0  0  0
  -21.9480  -25.3860   19.4380 C   0  0  0  0  0  2  0  0  0  0  0  0
  -20.5060  -25.5080   19.9510 C   0  0  0  0  0  2  0  0  0  0  0  0
  -21.4460  -27.1220   21.6950 C   0  0  0  0  0  0  0  0  0  0  0  0
  -21.2480  -28.1810   22.6050 C   0  0  0  0  0  3  0  0  0  0  0  0
  -19.9700  -28.7360   22.8010 C   0  0  0  0  0  3  0  0  0  0  0  0
  -18.8680  -28.2310   22.0880 C   0  0  0  0  0  3  0  0  0  0  0  0
  -19.0550  -27.1840   21.1640 C   0  0  0  0  0  3  0  0  0  0  0  0
  -28.9780  -29.0620   23.3240 C   0  0  0  0  0  3  0  0  0  0  0  0
  -28.9150  -30.0770   24.3950 N   0  0  0  0  0  0  0  0  0  0  0  0
  -29.4290  -31.3080   24.3220 C   0  0  0  0  0  0  0  0  0  0  0  0
  -30.0620  -31.6950   23.3420 O   0  0  0  0  0  0  0  0  0  0  0  0
  -28.3750  -29.8550   25.2160 H   0  0  0  0  0  0  0  0  0  0  0  0
  -28.0880  -33.2510   25.1960 C   0  0  0  0  0  1  0  0  0  0  0  0
  -29.2170  -32.2520   25.5170 C   0  0  0  0  0  3  0  0  0  0  0  0
  -31.4760  -32.1460   26.4880 C   0  0  0  0  0  1  0  0  0  0  0  0
  -30.4360  -32.9960   25.9150 N   0  0  0  0  0  0  0  0  0  0  0  0
  -30.2300  -33.7480   26.5750 H   0  0  0  0  0  0  0  0  0  0  0  0
  -29.4450  -27.6760   23.9180 C   0  0  1  0  0  0  0  0  0  0  0  0
  -28.3980  -27.0260   24.8520 C   0  0  0  0  0  1  0  0  0  0  0  0
  -29.7900  -26.6810   22.7960 C   0  0  0  0  0  1  0  0  0  0  0  0
  -30.7570  -27.8600   24.7220 C   0  0  0  0  0  1  0  0  0  0  0  0
  1  3  1  0
  1  2  2  0
  4  7  1  0
  5  4  2  0
  5  9  1  0
  6  8  1  0
  7 11  1  0
  7  8  2  0
  8  3  1  0
  9  6  2  0
 10  9  1  0
 12 20  1  0
 12 18  1  0
 13 18  1  0
 14 13  1  0
 14 15  1  0
 16 15  1  0
 16 17  1  0
 16 25  1  0
 18 17  1  0
 19 12  2  0
 21 20  1  0
 22 47  1  0
 22 23  1  0
 23 42  1  0
 24 27  1  0
 24 23  1  0
 25 26  1  0
 25 22  1  0
 26 24  1  0
 27 28  1  0
 28 29  2  0
 30 33  1  0
 30 29  1  0
 31 30  2  0
 32 31  1  0
 32 27  2  0
 33 34  1  0
 34 35  1  0
 35 36  2  0
 37 36  1  0
 37 41  1  0
 38 37  2  0
 39 34  2  0
 39 38  1  0
 40 39  1  0
 42 44  2  0
 43 42  1  0
 45 43  1  0
 46 43  1  0
 47 48  1  0
 49 47  1  0
 50  1  1  0
 52 50  1  0
 52 51  1  0
 52 53  1  6
 54 52  1  0
 57 59  1  0
 57 56  1  0
 58 69  2  0
 59 64  1  0
 60 70  1  0
 60 68  1  0
 61 63  1  0
 61 67  1  0
 62 68  1  0
 63 62  1  0
 64 63  2  0
 65 66  1  0
 65 59  2  0
 66 61  2  0
 67 60  1  0
 68 58  1  0
 70 72  2  0
 71 70  1  0
 73 71  1  0
 74 83  2  0
 74 79  1  0
 75 71  1  0
 75 79  1  0
 76 75  1  0
 77 78  1  0
 77 76  1  0
 78 74  1  0
 79 80  2  0
 80 81  1  0
 82 81  2  0
 83 82  1  0
 84 58  1  0
 84 94  1  0
 84 85  1  0
 85 88  1  0
 86 85  1  0
 86 90  1  0
 87 86  2  0
 90 89  1  0
 90 92  1  0
 92 91  1  0
 92 93  1  0
 94 97  1  1
 94 95  1  0
 96 94  1  0
M  ISO  4  12 100  20 100  56 101  57 101
M  END
>  <TORSDO>  (39) 
F 24

>  <SCORE>  (39) 
21.369

>  <name>  (39) 
38

>  <ligand_id>  (39) 
38

>  <original_smiles>  (39) 
[H]c1c([H])c([H])c2c(c1[H])C([H])([H])C([H])([H])C([H])([H])C2([H])N([H])C(=O)C1([H])N(C(=O)C([H])(N([H])C(=O)C([H])(N([H])C([H])([H])[H])C([H])([H])[H])C(C([H])([H])[H])(C([H])([H])[H])C([H])([H])[H])C([H])([H])c2c([H])c(OC([H])([H])C([H])([H])C([H])([H])[N+]([H])(C([H])([H])[H])C([H])([H])C(=O)C([H])([H])c3c([H])c(F)c([H])c([H])c3C([H])([H])N([H])C(=O)N3C([H])([H])C([H])([H])C([H])([H])C([H])(n4nc(-c5c([H])c([H])c(Oc6c([H])c([H])c(F)c([H])c6F)c([H])c5[H])c(C(=O)N([H])[H])c4N([H])[H])C3([H])[H])c([H])c([H])c2C1([H])[H]

>  <smiles>  (39) 
[H]c1c([H])c([H])c2c(c1[H])C([H])([H])C([H])([H])C([H])([H])C2([H])N([H])C(=O)C1([H])N(C(=O)C([H])(N([H])C(=O)C([H])(N([H])C([H])([H])[H])C([H])([H])[H])C(C([H])([H])[H])(C([H])([H])[H])C([H])([H])[H])C([H])([H])c2c([H])c(OC([H])([H])C([H])([H])C([H])([H])[N+]([H])(C([H])([H])[H])C([H])([H])C(=O)C([H])([H])c3c([H])c(F)c([H])c([H])c3C([H])([H])N([H])C(=O)N3C([H])([H])C([H])([H])C([H])([H])C([H])(n4nc(-c5c([H])c([H])c(Oc6c([H])c([H])c(F)c([H])c6F)c([H])c5[H])c(C(=O)N([H])[H])c4N([H])[H])C3([H])[H])c([H])c([H])c2C1([H])[H]

$$$$
39:0:0
     RDKit          3D

 96104  0  0  1  0  0  0  0  0999 V2000
  -27.9190  -21.5840   20.7200 N   0  0  0  0  0  4  0  0  0  0  0  0
  -28.7460  -21.9870   21.1340 H   0  0  0  0  0  0  0  0  0  0  0  0
  -27.4940  -20.9900   21.4110 H   0  0  0  0  0  0  0  0  0  0  0  0
  -28.2880  -20.8070   19.5190 C   0  0  0  0  0  2  0  0  0  0  0  0
  -28.6490  -19.3290   19.8170 C   0  0  0  0  0  2  0  0  0  0  0  0
  -31.4300  -18.3880   17.5950 C   0  0  0  0  0  2  0  0  0  0  0  0
  -31.3080  -17.1550   18.4720 C   0  0  0  0  0  2  0  0  0  0  0  0
  -30.1810  -19.1830   17.9310 C   0  0  0  0  0  2  0  0  0  0  0  0
  -30.1430  -17.4490   19.4370 C   0  0  0  0  0  3  0  0  0  0  0  0
  -29.9840  -18.9080   19.3570 N   0  0  0  0  0  0  0  0  0  0  0  0
  -30.3740  -16.9140   20.8770 C   0  0  0  0  0  2  0  0  0  0  0  0
  -30.7500  -14.4630   20.5610 C   0  0  0  0  0  0  0  0  0  0  0  0
  -30.4410  -12.3200   19.4060 C   0  0  0  0  0  2  0  0  0  0  0  0
  -29.5300  -12.5550   18.1830 C   0  0  0  0  0  2  0  0  0  0  0  0
  -28.0420  -12.4440   18.5760 C   0  0  0  0  0  2  0  0  0  0  0  0
  -27.6900  -13.2800   19.8360 C   0  0  0  0  0  3  0  0  0  0  0  0
  -28.7160  -13.0340   20.9660 C   0  0  0  0  0  2  0  0  0  0  0  0
  -30.0610  -13.3030   20.4280 N   0  0  0  0  0  0  0  0  0  0  0  0
  -31.9020  -14.6190   20.1470 O   0  0  0  0  0  0  0  0  0  0  0  0
  -30.0230  -15.4990   20.9940 N   0  0  0  0  0  0  0  0  0  0  0  0
  -29.0870  -15.2840   21.3060 H   0  0  0  0  0  0  0  0  0  0  0  0
  -25.2730  -13.9140   20.4590 C   0  0  0  0  0  0  0  0  0  0  0  0
  -24.1910  -13.1560   20.8160 C   0  0  0  0  0  0  0  0  0  0  0  0
  -24.6440  -11.8000   20.8240 C   0  0  0  0  0  0  0  0  0  0  0  0
  -26.3210  -13.0230   20.2800 N   0  0  0  0  0  0  0  0  0  0  0  0
  -25.9420  -11.7490   20.5530 N   0  0  0  0  0  0  0  0  0  0  0  0
  -23.9060  -10.5460   21.0180 C   0  0  0  0  0  0  0  0  0  0  0  0
  -24.3230   -9.5840   21.9650 C   0  0  0  0  0  3  0  0  0  0  0  0
  -23.5860   -8.3920   22.1470 C   0  0  0  0  0  3  0  0  0  0  0  0
  -22.4200   -8.1570   21.3820 C   0  0  0  0  0  0  0  0  0  0  0  0
  -22.0230   -9.1070   20.4260 C   0  0  0  0  0  3  0  0  0  0  0  0
  -22.7590  -10.2890   20.2410 C   0  0  0  0  0  3  0  0  0  0  0  0
  -21.6540   -7.0190   21.4730 O   0  0  0  0  0  0  0  0  0  0  0  0
  -21.6030   -6.2760   22.6270 C   0  0  0  0  0  0  0  0  0  0  0  0
  -21.2030   -6.8380   23.8580 C   0  0  0  0  0  3  0  0  0  0  0  0
  -21.1000   -6.0240   25.0030 C   0  0  0  0  0  3  0  0  0  0  0  0
  -21.3830   -4.6480   24.9170 C   0  0  0  0  0  0  0  0  0  0  0  0
  -21.7750   -4.0850   23.6900 C   0  0  0  0  0  3  0  0  0  0  0  0
  -21.8820   -4.8970   22.5470 C   0  0  0  0  0  0  0  0  0  0  0  0
  -22.2390   -4.3460   21.3630 F   0  0  0  0  0  0  0  0  0  0  0  0
  -21.2760   -3.8630   26.0150 F   0  0  0  0  0  0  0  0  0  0  0  0
  -22.7890  -13.6430   21.0410 C   0  0  0  0  0  0  0  0  0  0  0  0
  -22.0340  -12.9680   21.9010 N   0  0  0  0  0  0  0  0  0  0  0  0
  -22.3690  -14.6600   20.4890 O   0  0  0  0  0  0  0  0  0  0  0  0
  -22.3830  -12.1440   22.3700 H   0  0  0  0  0  0  0  0  0  0  0  0
  -21.0920  -13.2770   22.0950 H   0  0  0  0  0  0  0  0  0  0  0  0
  -25.4520  -15.2790   20.2580 N   0  0  0  0  0  0  0  0  0  0  0  0
  -24.6840  -15.9390   20.3210 H   0  0  0  0  0  0  0  0  0  0  0  0
  -26.3100  -15.7020   19.9290 H   0  0  0  0  0  0  0  0  0  0  0  0
  -27.0120  -22.7100   20.4290 C   0  0  0  0  0  2  0  0  0  0  0  0
  -27.0720  -23.7630   21.5380 C   0  0  0  0  0  2  0  0  0  0  0  0
  -28.4330  -24.2870   21.5880 N   0  0  0  0  0  0  0  0  0  0  0  0
  -28.6930  -24.5550   20.6400 H   0  0  0  0  0  0  0  0  0  0  0  0
  -28.4850  -25.5470   22.3240 C   0  0  0  0  0  2  0  0  0  0  0  0
  -29.1610  -26.5810   21.4050 C   0  0  0  0  0  2  0  0  0  0  0  0
  -28.4330  -26.7070   20.1770 O   0  0  0  0  0  0  0  0  0  0  0  0
  -24.5930  -31.8770   23.2360 C   0  0  0  0  0  0  0  0  0  0  0  0
  -27.2760  -27.4560   20.2110 C   0  0  0  0  0  0  0  0  0  0  0  0
  -23.3950  -30.4660   21.5910 C   0  0  0  0  0  3  0  0  0  0  0  0
  -24.8610  -28.9220   20.1860 C   0  0  0  0  0  0  0  0  0  0  0  0
  -25.9150  -30.8400   21.4020 C   0  0  0  0  0  2  0  0  0  0  0  0
  -26.0070  -29.4640   20.7800 C   0  0  0  0  0  0  0  0  0  0  0  0
  -27.2130  -28.7390   20.7960 C   0  0  0  0  0  3  0  0  0  0  0  0
  -26.1210  -26.9230   19.6050 C   0  0  0  0  0  3  0  0  0  0  0  0
  -24.9090  -27.6420   19.6000 C   0  0  0  0  0  3  0  0  0  0  0  0
  -23.6120  -29.7750   20.2150 C   0  0  0  0  0  2  0  0  0  0  0  0
  -24.6520  -31.0760   22.1350 N   0  0  0  0  0  0  0  0  0  0  0  0
  -23.5100  -32.1460   23.7720 O   0  0  0  0  0  0  0  0  0  0  0  0
  -22.7460  -29.4450   22.5520 C   0  0  0  0  0  0  0  0  0  0  0  0
  -21.4200  -29.2670   22.4240 N   0  0  0  0  0  0  0  0  0  0  0  0
  -23.4280  -28.8170   23.3670 O   0  0  0  0  0  0  0  0  0  0  0  0
  -20.9280  -29.8240   21.7390 H   0  0  0  0  0  0  0  0  0  0  0  0
  -18.0430  -28.0910   22.9260 C   0  0  0  0  0  0  0  0  0  0  0  0
  -20.6020  -28.3330   23.1960 C   0  0  0  0  0  3  0  0  0  0  0  0
  -20.6970  -26.9020   22.6170 C   0  0  0  0  0  2  0  0  0  0  0  0
  -19.5920  -26.5880   21.6030 C   0  0  0  0  0  2  0  0  0  0  0  0
  -18.2120  -26.7410   22.2480 C   0  0  0  0  0  2  0  0  0  0  0  0
  -19.1660  -28.8460   23.3560 C   0  0  0  0  0  0  0  0  0  0  0  0
  -18.9570  -30.1120   23.9470 C   0  0  0  0  0  3  0  0  0  0  0  0
  -17.6550  -30.6200   24.1140 C   0  0  0  0  0  3  0  0  0  0  0  0
  -16.5460  -29.8620   23.6990 C   0  0  0  0  0  3  0  0  0  0  0  0
  -16.7410  -28.6000   23.1110 C   0  0  0  0  0  3  0  0  0  0  0  0
  -25.8780  -32.5100   23.8570 C   0  0  0  0  0  3  0  0  0  0  0  0
  -26.3990  -31.7360   25.1300 C   0  0  1  0  0  0  0  0  0  0  0  0
  -25.3100  -31.4940   26.2000 C   0  0  0  0  0  1  0  0  0  0  0  0
  -26.9820  -30.3600   24.7330 C   0  0  0  0  0  1  0  0  0  0  0  0
  -27.5480  -32.5320   25.7980 C   0  0  0  0  0  1  0  0  0  0  0  0
  -25.5680  -33.9060   24.1860 N   0  0  0  0  0  0  0  0  0  0  0  0
  -25.9030  -34.9570   23.4290 C   0  0  0  0  0  0  0  0  0  0  0  0
  -26.5740  -34.8550   22.3980 O   0  0  0  0  0  0  0  0  0  0  0  0
  -24.9680  -34.0610   24.9830 H   0  0  0  0  0  0  0  0  0  0  0  0
  -24.1670  -36.7440   23.0670 C   0  0  0  0  0  1  0  0  0  0  0  0
  -25.4080  -36.3440   23.8820 C   0  0  0  0  0  3  0  0  0  0  0  0
  -27.5400  -37.2340   24.7150 C   0  0  0  0  0  1  0  0  0  0  0  0
  -26.4360  -37.4020   23.7730 N   0  0  0  0  0  0  0  0  0  0  0  0
  -26.0260  -38.3200   23.9250 H   0  0  0  0  0  0  0  0  0  0  0  0
  1  2  1  0
  1  3  1  0
  4  5  1  0
  4  1  1  0
  6  8  1  0
  6  7  1  0
  7  9  1  0
  8 10  1  0
  9 11  1  0
 10  9  1  0
 10  5  1  0
 11 20  1  0
 12 20  1  0
 13 18  1  0
 14 15  1  0
 14 13  1  0
 16 15  1  0
 16 25  1  0
 16 17  1  0
 18 12  1  0
 18 17  1  0
 19 12  2  0
 20 21  1  0
 22 23  2  0
 23 24  1  0
 23 42  1  0
 24 27  1  0
 25 22  1  0
 25 26  1  0
 26 24  2  0
 27 28  1  0
 28 29  2  0
 30 33  1  0
 30 29  1  0
 31 30  2  0
 32 31  1  0
 32 27  2  0
 33 34  1  0
 34 35  1  0
 35 36  2  0
 37 36  1  0
 37 41  1  0
 38 37  2  0
 39 34  2  0
 39 38  1  0
 40 39  1  0
 42 43  1  0
 43 46  1  0
 43 45  1  0
 44 42  2  0
 47 48  1  0
 47 22  1  0
 49 47  1  0
 50  1  1  0
 50 51  1  0
 51 52  1  0
 52 54  1  0
 53 52  1  0
 55 54  1  0
 56 58  1  0
 56 55  1  0
 57 68  2  0
 58 63  1  0
 59 67  1  0
 59 69  1  0
 60 66  1  0
 60 62  1  0
 61 67  1  0
 62 63  2  0
 62 61  1  0
 64 58  2  0
 65 64  1  0
 65 60  2  0
 66 59  1  0
 67 57  1  0
 69 71  2  0
 70 69  1  0
 72 70  1  0
 73 82  2  0
 73 78  1  0
 74 70  1  0
 74 78  1  0
 75 74  1  0
 76 77  1  0
 76 75  1  0
 77 73  1  0
 78 79  2  0
 79 80  1  0
 81 80  2  0
 82 81  1  0
 83 57  1  0
 83 88  1  0
 83 84  1  0
 84 87  1  1
 84 85  1  0
 86 84  1  0
 88 91  1  0
 89 93  1  0
 89 88  1  0
 90 89  2  0
 93 92  1  0
 95 93  1  0
 95 96  1  0
 95 94  1  0
M  ISO  4  12 100  20 100  55 101  56 101
M  END
>  <TORSDO>  (40) 
F 25

>  <SCORE>  (40) 
-12.503

>  <name>  (40) 
39

>  <ligand_id>  (40) 
39

>  <original_smiles>  (40) 
[H]c1c([H])c([H])c2c(c1[H])C([H])([H])C([H])([H])C([H])([H])C2([H])N([H])C(=O)C1([H])N(C(=O)C([H])(N([H])C(=O)C([H])(N([H])C([H])([H])[H])C([H])([H])[H])C(C([H])([H])[H])(C([H])([H])[H])C([H])([H])[H])C([H])([H])c2c([H])c(OC([H])([H])C([H])([H])N([H])C([H])([H])C([H])([H])[N+]([H])([H])C([H])([H])C([H])([H])N3C([H])([H])C([H])([H])C([H])([H])C3([H])C([H])([H])N([H])C(=O)N3C([H])([H])C([H])([H])C([H])([H])C([H])(n4nc(-c5c([H])c([H])c(Oc6c([H])c([H])c(F)c([H])c6F)c([H])c5[H])c(C(=O)N([H])[H])c4N([H])[H])C3([H])[H])c([H])c([H])c2C1([H])[H]

>  <smiles>  (40) 
[H]c1c([H])c([H])c2c(c1[H])C([H])([H])C([H])([H])C([H])([H])C2([H])N([H])C(=O)C1([H])N(C(=O)C([H])(N([H])C(=O)C([H])(N([H])C([H])([H])[H])C([H])([H])[H])C(C([H])([H])[H])(C([H])([H])[H])C([H])([H])[H])C([H])([H])c2c([H])c(OC([H])([H])C([H])([H])N([H])C([H])([H])C([H])([H])[N+]([H])([H])C([H])([H])C([H])([H])N3C([H])([H])C([H])([H])C([H])([H])C3([H])C([H])([H])N([H])C(=O)N3C([H])([H])C([H])([H])C([H])([H])C([H])(n4nc(-c5c([H])c([H])c(Oc6c([H])c([H])c(F)c([H])c6F)c([H])c5[H])c(C(=O)N([H])[H])c4N([H])[H])C3([H])[H])c([H])c([H])c2C1([H])[H]

$$$$
40:0:0
     RDKit          3D

 93102  0  0  1  0  0  0  0  0999 V2000
  -29.5070  -22.0940   23.0850 C   0  0  0  0  0  2  0  0  0  0  0  0
  -30.6030  -21.6710   22.1010 C   0  0  0  0  0  2  0  0  0  0  0  0
  -28.4140  -22.7450   22.2220 C   0  0  0  0  0  2  0  0  0  0  0  0
  -29.9040  -21.6370   20.7310 C   0  0  0  0  0  3  0  0  0  0  0  0
  -28.9020  -22.7590   20.8170 N   0  0  2  0  0  4  0  0  0  0  0  0
  -28.1450  -22.4650   20.2100 H   0  0  0  0  0  0  0  0  0  0  0  0
  -29.2340  -20.2340   20.4760 C   0  0  0  0  0  0  0  0  0  0  0  0
  -29.9390  -19.0890   20.6920 N   0  0  0  0  0  0  0  0  0  0  0  0
  -28.0580  -20.2020   20.1080 O   0  0  0  0  0  0  0  0  0  0  0  0
  -30.9060  -19.2020   20.9640 H   0  0  0  0  0  0  0  0  0  0  0  0
  -30.7190  -14.6000   20.3470 C   0  0  0  0  0  0  0  0  0  0  0  0
  -30.4470  -12.4050   19.2430 C   0  0  0  0  0  2  0  0  0  0  0  0
  -29.4990  -12.6060   18.0410 C   0  0  0  0  0  2  0  0  0  0  0  0
  -28.0280  -12.4660   18.4790 C   0  0  0  0  0  2  0  0  0  0  0  0
  -27.6940  -13.2960   19.7480 C   0  0  0  0  0  3  0  0  0  0  0  0
  -28.7600  -13.0950   20.8470 C   0  0  0  0  0  2  0  0  0  0  0  0
  -30.0700  -13.4040   20.2570 N   0  0  0  0  0  0  0  0  0  0  0  0
  -31.8910  -14.7430   19.9870 O   0  0  0  0  0  0  0  0  0  0  0  0
  -30.2050  -16.7170   21.5780 C   0  0  0  0  0  2  0  0  0  0  0  0
  -29.8480  -16.7890   19.5700 C   0  0  0  0  0  2  0  0  0  0  0  0
  -29.4000  -17.7030   20.7150 C   0  0  0  0  0  3  0  0  0  0  0  0
  -29.9220  -15.6830   20.5580 N   0  0  0  0  0  0  0  0  0  0  0  0
  -25.3000  -13.8990   20.4710 C   0  0  0  0  0  0  0  0  0  0  0  0
  -24.2330  -13.1240   20.8380 C   0  0  0  0  0  0  0  0  0  0  0  0
  -24.6930  -11.7720   20.7990 C   0  0  0  0  0  0  0  0  0  0  0  0
  -26.3440  -13.0180   20.2350 N   0  0  0  0  0  0  0  0  0  0  0  0
  -25.9830  -11.7340   20.4890 N   0  0  0  0  0  0  0  0  0  0  0  0
  -23.9660  -10.5100   20.9870 C   0  0  0  0  0  0  0  0  0  0  0  0
  -24.3810   -9.5540   21.9410 C   0  0  0  0  0  3  0  0  0  0  0  0
  -23.6560   -8.3550   22.1150 C   0  0  0  0  0  3  0  0  0  0  0  0
  -22.5050   -8.1030   21.3330 C   0  0  0  0  0  0  0  0  0  0  0  0
  -22.1090   -9.0460   20.3680 C   0  0  0  0  0  3  0  0  0  0  0  0
  -22.8340  -10.2370   20.1940 C   0  0  0  0  0  3  0  0  0  0  0  0
  -21.7530   -6.9550   21.4150 O   0  0  0  0  0  0  0  0  0  0  0  0
  -21.6460   -6.2470   22.5850 C   0  0  0  0  0  0  0  0  0  0  0  0
  -21.1200   -6.8250   23.7610 C   0  0  0  0  0  3  0  0  0  0  0  0
  -20.9640   -6.0420   24.9220 C   0  0  0  0  0  3  0  0  0  0  0  0
  -21.3230   -4.6810   24.9070 C   0  0  0  0  0  0  0  0  0  0  0  0
  -21.8420   -4.1010   23.7350 C   0  0  0  0  0  3  0  0  0  0  0  0
  -22.0010   -4.8830   22.5780 C   0  0  0  0  0  0  0  0  0  0  0  0
  -22.4820   -4.3160   21.4460 F   0  0  0  0  0  0  0  0  0  0  0  0
  -21.1650   -3.9250   26.0190 F   0  0  0  0  0  0  0  0  0  0  0  0
  -22.8370  -13.6020   21.1160 C   0  0  0  0  0  0  0  0  0  0  0  0
  -22.1080  -12.8970   21.9770 N   0  0  0  0  0  0  0  0  0  0  0  0
  -22.4000  -14.6330   20.6080 O   0  0  0  0  0  0  0  0  0  0  0  0
  -22.4760  -12.0620   22.4100 H   0  0  0  0  0  0  0  0  0  0  0  0
  -21.1740  -13.1990   22.2080 H   0  0  0  0  0  0  0  0  0  0  0  0
  -25.4690  -15.2690   20.2990 N   0  0  0  0  0  0  0  0  0  0  0  0
  -24.7100  -15.9310   20.4110 H   0  0  0  0  0  0  0  0  0  0  0  0
  -26.3340  -15.7020   19.9990 H   0  0  0  0  0  0  0  0  0  0  0  0
  -29.3610  -24.1490   20.4030 C   0  0  0  0  0  2  0  0  0  0  0  0
  -28.1880  -25.1440   20.0550 C   0  0  0  0  0  2  0  0  0  0  0  0
  -28.4140  -26.5900   20.1580 O   0  0  0  0  0  0  0  0  0  0  0  0
  -24.6340  -31.8710   23.2260 C   0  0  0  0  0  0  0  0  0  0  0  0
  -27.2740  -27.4020   20.1130 C   0  0  0  0  0  0  0  0  0  0  0  0
  -23.4350  -30.4870   21.5690 C   0  0  0  0  0  3  0  0  0  0  0  0
  -24.8920  -28.9720   20.1250 C   0  0  0  0  0  0  0  0  0  0  0  0
  -25.9670  -30.8380   21.3770 C   0  0  0  0  0  2  0  0  0  0  0  0
  -26.0570  -29.4690   20.7210 C   0  0  0  0  0  0  0  0  0  0  0  0
  -27.2520  -28.6980   20.7060 C   0  0  0  0  0  3  0  0  0  0  0  0
  -26.0820  -26.9500   19.4960 C   0  0  0  0  0  3  0  0  0  0  0  0
  -24.9040  -27.7160   19.5040 C   0  0  0  0  0  3  0  0  0  0  0  0
  -23.6490  -29.8340   20.1800 C   0  0  0  0  0  2  0  0  0  0  0  0
  -24.6990  -31.0820   22.1150 N   0  0  0  0  0  0  0  0  0  0  0  0
  -23.5500  -32.1350   23.7650 O   0  0  0  0  0  0  0  0  0  0  0  0
  -22.7840  -29.4510   22.5150 C   0  0  0  0  0  0  0  0  0  0  0  0
  -21.4580  -29.2740   22.3920 N   0  0  0  0  0  0  0  0  0  0  0  0
  -23.4700  -28.8130   23.3190 O   0  0  0  0  0  0  0  0  0  0  0  0
  -20.9650  -29.8430   21.7200 H   0  0  0  0  0  0  0  0  0  0  0  0
  -18.0800  -28.0900   22.8950 C   0  0  0  0  0  0  0  0  0  0  0  0
  -20.6410  -28.3230   23.1490 C   0  0  0  0  0  3  0  0  0  0  0  0
  -20.7280  -26.9040   22.5410 C   0  0  0  0  0  2  0  0  0  0  0  0
  -19.6120  -26.6130   21.5300 C   0  0  0  0  0  2  0  0  0  0  0  0
  -18.2370  -26.7550   22.1900 C   0  0  0  0  0  2  0  0  0  0  0  0
  -19.2080  -28.8340   23.3310 C   0  0  0  0  0  0  0  0  0  0  0  0
  -19.0040  -30.0880   23.9480 C   0  0  0  0  0  3  0  0  0  0  0  0
  -17.7040  -30.5950   24.1380 C   0  0  0  0  0  3  0  0  0  0  0  0
  -16.5910  -29.8460   23.7170 C   0  0  0  0  0  3  0  0  0  0  0  0
  -16.7800  -28.5980   23.1010 C   0  0  0  0  0  3  0  0  0  0  0  0
  -25.9140  -32.4990   23.8570 C   0  0  0  0  0  3  0  0  0  0  0  0
  -26.4280  -31.7140   25.1270 C   0  0  1  0  0  0  0  0  0  0  0  0
  -25.3330  -31.4580   26.1880 C   0  0  0  0  0  1  0  0  0  0  0  0
  -27.0140  -30.3430   24.7130 C   0  0  0  0  0  1  0  0  0  0  0  0
  -27.5670  -32.5050   25.8090 C   0  0  0  0  0  1  0  0  0  0  0  0
  -25.6010  -33.8920   24.2010 N   0  0  0  0  0  0  0  0  0  0  0  0
  -25.9190  -34.9530   23.4470 C   0  0  0  0  0  0  0  0  0  0  0  0
  -26.5820  -34.8610   22.4100 O   0  0  0  0  0  0  0  0  0  0  0  0
  -25.0140  -34.0380   25.0080 H   0  0  0  0  0  0  0  0  0  0  0  0
  -24.1780  -36.7390   23.1180 C   0  0  0  0  0  1  0  0  0  0  0  0
  -25.4240  -36.3330   23.9200 C   0  0  0  0  0  3  0  0  0  0  0  0
  -27.5520  -37.2270   24.7580 C   0  0  0  0  0  1  0  0  0  0  0  0
  -26.4490  -37.3940   23.8140 N   0  0  0  0  0  0  0  0  0  0  0  0
  -26.0370  -38.3100   23.9670 H   0  0  0  0  0  0  0  0  0  0  0  0
  2  1  1  0
  3  1  1  0
  4  7  1  0
  4  5  1  0
  4  2  1  0
  5  3  1  0
  5  6  1  6
  7  8  1  0
  8 10  1  0
  9  7  2  0
 11 22  1  0
 12 17  1  0
 13 14  1  0
 13 12  1  0
 15 14  1  0
 15 26  1  0
 15 16  1  0
 17 11  1  0
 17 16  1  0
 18 11  2  0
 20 22  1  0
 20 21  1  0
 21  8  1  0
 21 19  1  0
 22 19  1  0
 23 24  2  0
 24 43  1  0
 25 24  1  0
 25 28  1  0
 26 23  1  0
 26 27  1  0
 27 25  2  0
 28 29  1  0
 29 30  2  0
 31 34  1  0
 31 30  1  0
 32 31  2  0
 33 32  1  0
 33 28  2  0
 34 35  1  0
 35 36  1  0
 36 37  2  0
 38 37  1  0
 38 42  1  0
 39 38  2  0
 40 35  2  0
 40 39  1  0
 41 40  1  0
 43 44  1  0
 44 47  1  0
 44 46  1  0
 45 43  2  0
 48 49  1  0
 48 23  1  0
 50 48  1  0
 51  5  1  0
 52 53  1  0
 52 51  1  0
 54 65  2  0
 55 53  1  0
 55 60  1  0
 56 64  1  0
 56 66  1  0
 57 63  1  0
 57 59  1  0
 58 64  1  0
 59 58  1  0
 60 59  2  0
 61 62  1  0
 61 55  2  0
 62 57  2  0
 63 56  1  0
 64 54  1  0
 66 68  2  0
 67 66  1  0
 69 67  1  0
 70 79  2  0
 70 75  1  0
 71 67  1  0
 71 75  1  0
 72 71  1  0
 73 74  1  0
 73 72  1  0
 74 70  1  0
 75 76  2  0
 76 77  1  0
 78 77  2  0
 79 78  1  0
 80 54  1  0
 80 85  1  0
 80 81  1  0
 81 84  1  1
 81 82  1  0
 83 81  1  0
 85 88  1  0
 86 90  1  0
 86 85  1  0
 87 86  2  0
 90 89  1  0
 92 90  1  0
 92 93  1  0
 92 91  1  0
M  ISO  4  11 100  22 100  52 101  53 101
M  END
>  <TORSDO>  (41) 
F 19

>  <SCORE>  (41) 
-14.585

>  <name>  (41) 
40

>  <ligand_id>  (41) 
40

>  <original_smiles>  (41) 
[H]c1c([H])c([H])c2c(c1[H])C([H])([H])C([H])([H])C([H])([H])C2([H])N([H])C(=O)C1([H])N(C(=O)C([H])(N([H])C(=O)C([H])(N([H])C([H])([H])[H])C([H])([H])[H])C(C([H])([H])[H])(C([H])([H])[H])C([H])([H])[H])C([H])([H])c2c([H])c(OC([H])([H])C([H])([H])[N+]3([H])C([H])([H])C([H])([H])C([H])([H])C3([H])C(=O)N([H])C3([H])C([H])([H])N(C(=O)N4C([H])([H])C([H])([H])C([H])([H])C([H])(n5nc(-c6c([H])c([H])c(Oc7c([H])c([H])c(F)c([H])c7F)c([H])c6[H])c(C(=O)N([H])[H])c5N([H])[H])C4([H])[H])C3([H])[H])c([H])c([H])c2C1([H])[H]

>  <smiles>  (41) 
[H]c1c([H])c([H])c2c(c1[H])C([H])([H])C([H])([H])C([H])([H])C2([H])N([H])C(=O)C1([H])N(C(=O)C([H])(N([H])C(=O)C([H])(N([H])C([H])([H])[H])C([H])([H])[H])C(C([H])([H])[H])(C([H])([H])[H])C([H])([H])[H])C([H])([H])c2c([H])c(OC([H])([H])C([H])([H])[N+]3([H])C([H])([H])C([H])([H])C([H])([H])C3([H])C(=O)N([H])C3([H])C([H])([H])N(C(=O)N4C([H])([H])C([H])([H])C([H])([H])C([H])(n5nc(-c6c([H])c([H])c(Oc7c([H])c([H])c(F)c([H])c7F)c([H])c6[H])c(C(=O)N([H])[H])c5N([H])[H])C4([H])[H])C3([H])[H])c([H])c([H])c2C1([H])[H]

$$$$
41:0:0
     RDKit          3D

 93 96  0  0  1  0  0  0  0  0999 V2000
  -22.7600  -22.6240   22.7460 N   0  0  0  0  0  4  0  0  0  0  0  0
  -21.7650  -22.4880   22.8110 H   0  0  0  0  0  0  0  0  0  0  0  0
  -23.1440  -21.7330   23.0240 H   0  0  0  0  0  0  0  0  0  0  0  0
  -23.0410  -23.7100   24.2380 C   0  0  0  0  0  1  0  0  0  0  0  0
  -21.2080  -25.9540   24.5330 C   0  0  0  0  0 15  0  0  0  0  0  0
  -19.7660  -26.1420   23.0840 C   0  0  0  0  0  1  0  0  0  0  0  0
  -19.2410  -25.6340   21.3960 O   0  0  0  0  0  0  0  0  0  0  0  0
  -23.2710  -29.1030   20.1130 C   0  0  0  0  0  0  0  0  0  0  0  0
  -18.4130  -26.1290   20.3060 C   0  0  0  0  0  3  0  0  0  0  0  0
  -21.7690  -28.5870   21.9560 C   0  0  0  0  0  3  0  0  0  0  0  0
  -19.2470  -28.2880   21.3960 C   0  0  0  0  0  3  0  0  0  0  0  0
  -20.8440  -28.9090   19.6020 C   0  0  0  0  0  2  0  0  0  0  0  0
  -19.6910  -28.0710   20.0920 C   0  0  0  0  0  3  0  0  0  0  0  0
  -19.1030  -26.9980   19.4030 C   0  0  0  0  0  2  0  0  0  0  0  0
  -17.3930  -26.7440   20.9720 C   0  0  0  0  0  2  0  0  0  0  0  0
  -17.9510  -27.7830   21.7400 C   0  0  0  0  0  2  0  0  0  0  0  0
  -20.2710  -28.8630   22.3590 C   0  0  0  0  0  2  0  0  0  0  0  0
  -21.9960  -28.9180   20.5320 N   0  0  0  0  0  0  0  0  0  0  0  0
  -24.2220  -29.0920   20.9090 O   0  0  0  0  0  0  0  0  0  0  0  0
  -22.3120  -27.1420   22.1410 C   0  0  0  0  0  0  0  0  0  0  0  0
  -23.5730  -26.8670   21.9320 N   0  0  0  0  0  0  0  0  0  0  0  0
  -21.5830  -26.1910   22.3810 O   0  0  0  0  0  0  0  0  0  0  0  0
  -24.1860  -27.5960   21.5950 H   0  0  0  0  0  0  0  0  0  0  0  0
  -26.7580  -25.3290   21.1690 C   0  0  0  0  0  0  0  0  0  0  0  0
  -24.2160  -25.6940   22.5760 C   0  0  0  0  0  2  0  0  0  0  0  0
  -24.8580  -26.0130   24.5160 C   0  0  0  0  0 15  0  0  0  0  0  0
  -27.2370  -26.2100   24.4210 C   0  0  0  0  0 15  0  0  0  0  0  0
  -27.8200  -25.7550   22.5320 C   0  0  0  0  0  1  0  0  0  0  0  0
  -25.2490  -25.3580   21.2050 C   0  0  0  0  0  0  0  0  0  0  0  0
  -24.5740  -25.2240   19.9120 C   0  0  0  0  0  3  0  0  0  0  0  0
  -25.1830  -24.9330   18.6620 C   0  0  0  0  0  3  0  0  0  0  0  0
  -26.5630  -24.7070   18.6510 C   0  0  0  0  0  3  0  0  0  0  0  0
  -27.3040  -24.9060   19.8660 C   0  0  0  0  0  3  0  0  0  0  0  0
  -23.5780  -29.3580   18.6170 C   0  0  0  0  0  3  0  0  0  0  0  0
  -24.6040  -28.3280   18.0080 C   0  0  1  0  0  0  0  0  0  0  0  0
  -25.8660  -28.1160   18.8750 C   0  0  0  0  0  1  0  0  0  0  0  0
  -23.9530  -26.9420   17.7910 C   0  0  0  0  0  1  0  0  0  0  0  0
  -25.0480  -28.8220   16.6130 C   0  0  0  0  0  1  0  0  0  0  0  0
  -24.0940  -30.7270   18.5360 N   0  0  0  0  0  0  0  0  0  0  0  0
  -23.4970  -31.7880   19.0880 C   0  0  0  0  0  0  0  0  0  0  0  0
  -22.3960  -31.7250   19.6420 O   0  0  0  0  0  0  0  0  0  0  0  0
  -25.0160  -30.8440   18.1430 H   0  0  0  0  0  0  0  0  0  0  0  0
  -25.1900  -33.2790   20.2000 C   0  0  0  0  0  1  0  0  0  0  0  0
  -24.2360  -33.1360   19.0030 C   0  0  0  0  0  3  0  0  0  0  0  0
  -22.5220  -34.3380   17.7240 C   0  0  0  0  0  1  0  0  0  0  0  0
  -23.3250  -34.2970   18.9440 N   0  0  0  0  0  0  0  0  0  0  0  0
  -23.8450  -35.1670   19.0120 H   0  0  0  0  0  0  0  0  0  0  0  0
  -22.9460  -22.6070   20.9570 C   0  0  0  0  0  2  0  0  0  0  0  0
  -22.1670  -23.3500   19.3190 C   0  0  0  0  0  2  0  0  0  0  0  0
  -20.6500  -22.4160   17.6600 C   0  0  0  0  0  1  0  0  0  0  0  0
  -22.0120  -22.9640   17.6160 N   0  0  0  0  0  0  0  0  0  0  0  0
  -22.6300  -24.5080   10.4070 C   0  0  0  0  0  0  0  0  0  0  0  0
  -21.6260  -25.6950    8.2040 C   0  0  0  0  0  2  0  0  0  0  0  0
  -21.0540  -27.1310    8.4190 C   0  0  0  0  0  2  0  0  0  0  0  0
  -19.6800  -27.0740    9.1120 C   0  0  0  0  0  2  0  0  0  0  0  0
  -19.6760  -26.0040   10.2280 C   0  0  0  0  0  3  0  0  0  0  0  0
  -20.1770  -24.6440    9.7430 C   0  0  0  0  0  2  0  0  0  0  0  0
  -21.5740  -24.8780    9.5050 N   0  0  0  0  0  0  0  0  0  0  0  0
  -23.6910  -24.5550    9.7220 O   0  0  0  0  0  0  0  0  0  0  0  0
  -21.6140  -24.5370   14.8400 C   0  0  0  0  0  3  0  0  0  0  0  0
  -23.3740  -23.0850   14.7100 C   0  0  0  0  0  3  0  0  0  0  0  0
  -21.4940  -24.4190   13.0910 C   0  0  0  0  0  2  0  0  0  0  0  0
  -23.5900  -23.7190   13.0670 C   0  0  0  0  0  3  0  0  0  0  0  0
  -22.2210  -23.4180   15.9070 C   0  0  0  0  0  0  0  0  0  0  0  0
  -22.5430  -24.1780   11.9530 N   0  0  0  0  0  0  0  0  0  0  0  0
  -18.1060  -25.9510   12.2140 C   0  0  0  0  0  0  0  0  0  0  0  0
  -16.7940  -25.6710   12.3410 C   0  0  0  0  0  0  0  0  0  0  0  0
  -16.3270  -25.4500   11.0150 C   0  0  0  0  0  0  0  0  0  0  0  0
  -18.4080  -25.8290   10.8740 N   0  0  0  0  0  0  0  0  0  0  0  0
  -17.3300  -25.4650   10.1470 N   0  0  0  0  0  0  0  0  0  0  0  0
  -14.9660  -25.3110   10.5230 C   0  0  0  0  0  0  0  0  0  0  0  0
  -14.6110  -24.3020    9.6050 C   0  0  0  0  0  3  0  0  0  0  0  0
  -13.2760  -24.1860    9.1690 C   0  0  0  0  0  3  0  0  0  0  0  0
  -12.2910  -25.0770    9.6570 C   0  0  0  0  0  0  0  0  0  0  0  0
  -12.6610  -26.0970   10.5500 C   0  0  0  0  0  3  0  0  0  0  0  0
  -13.9900  -26.2180   10.9780 C   0  0  0  0  0  3  0  0  0  0  0  0
  -10.9740  -25.0490    9.2760 O   0  0  0  0  0  0  0  0  0  0  0  0
  -10.4260  -23.9390    8.6900 C   0  0  0  0  0  0  0  0  0  0  0  0
  -10.4040  -22.6850    9.3400 C   0  0  0  0  0  3  0  0  0  0  0  0
   -9.7690  -21.5880    8.7240 C   0  0  0  0  0  3  0  0  0  0  0  0
   -9.1500  -21.7450    7.4700 C   0  0  0  0  0  0  0  0  0  0  0  0
   -9.1700  -22.9940    6.8240 C   0  0  0  0  0  3  0  0  0  0  0  0
   -9.8050  -24.0890    7.4350 C   0  0  0  0  0  0  0  0  0  0  0  0
   -9.8070  -25.2960    6.8190 F   0  0  0  0  0  0  0  0  0  0  0  0
   -8.5290  -20.6940    6.8850 F   0  0  0  0  0  0  0  0  0  0  0  0
  -16.0110  -25.7600   13.6140 C   0  0  0  0  0  0  0  0  0  0  0  0
  -14.9540  -24.9700   13.7320 N   0  0  0  0  0  0  0  0  0  0  0  0
  -16.3740  -26.4890   14.5370 O   0  0  0  0  0  0  0  0  0  0  0  0
  -14.6760  -24.3540   12.9800 H   0  0  0  0  0  0  0  0  0  0  0  0
  -14.4120  -24.9790   14.5850 H   0  0  0  0  0  0  0  0  0  0  0  0
  -19.0100  -26.3750   13.1550 N   0  0  0  0  0  0  0  0  0  0  0  0
  -18.7110  -26.5710   14.1040 H   0  0  0  0  0  0  0  0  0  0  0  0
  -19.9180  -26.7580   12.9360 H   0  0  0  0  0  0  0  0  0  0  0  0
  1  2  1  0
  1  3  1  0
  1  4  1  0
  7  6  1  0
  8 18  1  0
  8 19  2  0
  9 15  1  0
  9  7  1  0
 10 20  1  0
 10 17  1  0
 11 16  1  0
 11 17  1  0
 12 13  1  0
 12 18  1  0
 13 14  1  0
 13 11  1  0
 14  9  1  0
 15 16  1  0
 18 10  1  0
 20 22  2  0
 21 20  1  0
 21 25  1  0
 23 21  1  0
 24 29  1  0
 24 28  1  0
 29 25  1  0
 30 29  2  0
 31 30  1  0
 32 31  2  0
 32 33  1  0
 33 24  2  0
 34  8  1  0
 35 34  1  0
 35 36  1  1
 37 35  1  0
 38 35  1  0
 39 34  1  0
 39 40  1  0
 40 41  2  0
 42 39  1  0
 44 40  1  0
 44 43  1  0
 45 46  1  0
 46 44  1  0
 46 47  1  0
 48  1  1  0
 49 48  1  0
 51 50  1  0
 51 49  1  0
 52 65  1  0
 53 54  1  0
 53 58  1  0
 54 55  1  0
 56 55  1  0
 56 69  1  0
 57 56  1  0
 58 57  1  0
 58 52  1  0
 59 52  2  0
 60 64  2  0
 61 64  1  0
 62 60  1  0
 63 61  2  0
 64 51  1  0
 65 63  1  0
 65 62  1  0
 66 67  2  0
 66 91  1  0
 67 86  1  0
 68 67  1  0
 69 66  1  0
 70 69  1  0
 70 68  2  0
 71 76  1  0
 71 68  1  0
 72 71  2  0
 73 72  1  0
 73 74  2  0
 74 75  1  0
 75 76  2  0
 77 74  1  0
 78 77  1  0
 78 79  1  0
 80 79  2  0
 81 80  1  0
 82 83  1  0
 82 81  2  0
 83 78  2  0
 84 83  1  0
 85 81  1  0
 86 87  1  0
 86 88  2  0
 87 90  1  0
 89 87  1  0
 91 92  1  0
 93 91  1  0
M  ISO  4   6 101   7 101  52 100  65 100
M  END
>  <TORSDO>  (42) 
F 22

>  <SCORE>  (42) 
28.454

>  <name>  (42) 
41

>  <ligand_id>  (42) 
41

>  <original_smiles>  (42) 
[H]c1c([H])c([H])c2c(c1[H])C([H])([H])C([H])([H])C([H])([H])C2([H])N([H])C(=O)C1([H])N(C(=O)C([H])(N([H])C(=O)C([H])(N([H])C([H])([H])[H])C([H])([H])[H])C(C([H])([H])[H])(C([H])([H])[H])C([H])([H])[H])C([H])([H])c2c([H])c(OC([H])([H])C([H])([H])C([H])([H])[N+]([H])([H])C([H])([H])C([H])([H])N(C([H])([H])[H])C3([H])C([H])([H])C([H])([H])N(C(=O)N4C([H])([H])C([H])([H])C([H])([H])C([H])(n5nc(-c6c([H])c([H])c(Oc7c([H])c([H])c(F)c([H])c7F)c([H])c6[H])c(C(=O)N([H])[H])c5N([H])[H])C4([H])[H])C([H])([H])C3([H])[H])c([H])c([H])c2C1([H])[H]

>  <smiles>  (42) 
[H]c1c([H])c([H])c2c(c1[H])C([H])([H])C([H])([H])C([H])([H])C2([H])N([H])C(=O)C1([H])N(C(=O)C([H])(N([H])C(=O)C([H])(N([H])C([H])([H])[H])C([H])([H])[H])C(C([H])([H])[H])(C([H])([H])[H])C([H])([H])[H])C([H])([H])c2c([H])c(OC([H])([H])C([H])([H])C([H])([H])[N+]([H])([H])C([H])([H])C([H])([H])N(C([H])([H])[H])C3([H])C([H])([H])C([H])([H])N(C(=O)N4C([H])([H])C([H])([H])C([H])([H])C([H])(n5nc(-c6c([H])c([H])c(Oc7c([H])c([H])c(F)c([H])c7F)c([H])c6[H])c(C(=O)N([H])[H])c5N([H])[H])C4([H])[H])C([H])([H])C3([H])[H])c([H])c([H])c2C1([H])[H]

$$$$
42:0:0
     RDKit          3D

 96104  0  0  1  0  0  0  0  0999 V2000
  -30.7940  -23.3490   21.1420 C   0  0  0  0  0  2  0  0  0  0  0  0
  -30.0310  -22.2820   20.3040 C   0  0  0  0  0  2  0  0  0  0  0  0
  -31.8280  -19.0350   21.3450 C   0  0  0  0  0  2  0  0  0  0  0  0
  -29.4380  -18.4870   20.8490 C   0  0  0  0  0  2  0  0  0  0  0  0
  -31.6380  -20.3980   20.6580 C   0  0  0  0  0  2  0  0  0  0  0  0
  -29.2900  -19.8970   20.2130 C   0  0  0  0  0  2  0  0  0  0  0  0
  -30.8860  -17.9490   20.7880 C   0  0  0  0  0  3  0  0  0  0  0  0
  -30.2400  -20.8850   20.8010 N   0  0  2  0  0  4  0  0  0  0  0  0
  -30.0360  -20.9110   21.7880 H   0  0  0  0  0  0  0  0  0  0  0  0
  -31.1090  -16.6300   21.5750 C   0  0  0  0  0  2  0  0  0  0  0  0
  -30.9630  -14.5190   20.2370 C   0  0  0  0  0  0  0  0  0  0  0  0
  -30.6090  -12.3500   19.1060 C   0  0  0  0  0  2  0  0  0  0  0  0
  -29.6200  -12.4970   17.9320 C   0  0  0  0  0  2  0  0  0  0  0  0
  -28.1640  -12.3700   18.4190 C   0  0  0  0  0  2  0  0  0  0  0  0
  -27.8690  -13.2600   19.6570 C   0  0  0  0  0  3  0  0  0  0  0  0
  -28.9550  -13.0700   20.7340 C   0  0  0  0  0  2  0  0  0  0  0  0
  -30.2620  -13.3600   20.1170 N   0  0  0  0  0  0  0  0  0  0  0  0
  -32.0220  -14.7310   19.6380 O   0  0  0  0  0  0  0  0  0  0  0  0
  -30.4220  -15.4450   21.0490 N   0  0  0  0  0  0  0  0  0  0  0  0
  -29.5340  -15.2060   21.4680 H   0  0  0  0  0  0  0  0  0  0  0  0
  -25.5220  -13.9110   20.4890 C   0  0  0  0  0  0  0  0  0  0  0  0
  -24.4490  -13.1570   20.8850 C   0  0  0  0  0  0  0  0  0  0  0  0
  -24.8710  -11.7950   20.7950 C   0  0  0  0  0  0  0  0  0  0  0  0
  -26.5310  -13.0090   20.1880 N   0  0  0  0  0  0  0  0  0  0  0  0
  -26.1440  -11.7300   20.4250 N   0  0  0  0  0  0  0  0  0  0  0  0
  -24.1210  -10.5470   20.9840 C   0  0  0  0  0  0  0  0  0  0  0  0
  -24.5460   -9.5600   21.8990 C   0  0  0  0  0  3  0  0  0  0  0  0
  -23.7990   -8.3760   22.0750 C   0  0  0  0  0  3  0  0  0  0  0  0
  -22.6090   -8.1710   21.3360 C   0  0  0  0  0  0  0  0  0  0  0  0
  -22.2020   -9.1470   20.4080 C   0  0  0  0  0  3  0  0  0  0  0  0
  -22.9510  -10.3220   20.2300 C   0  0  0  0  0  3  0  0  0  0  0  0
  -21.8320   -7.0420   21.4230 O   0  0  0  0  0  0  0  0  0  0  0  0
  -21.7540   -6.3090   22.5780 C   0  0  0  0  0  0  0  0  0  0  0  0
  -21.2890   -6.8700   23.7870 C   0  0  0  0  0  3  0  0  0  0  0  0
  -21.1600   -6.0650   24.9350 C   0  0  0  0  0  3  0  0  0  0  0  0
  -21.4820   -4.6950   24.8740 C   0  0  0  0  0  0  0  0  0  0  0  0
  -21.9370   -4.1320   23.6700 C   0  0  0  0  0  3  0  0  0  0  0  0
  -22.0710   -4.9360   22.5250 C   0  0  0  0  0  0  0  0  0  0  0  0
  -22.4900   -4.3830   21.3620 F   0  0  0  0  0  0  0  0  0  0  0  0
  -21.3500   -3.9200   25.9750 F   0  0  0  0  0  0  0  0  0  0  0  0
  -23.0790  -13.6620   21.2370 C   0  0  0  0  0  0  0  0  0  0  0  0
  -22.3720  -12.9600   22.1150 N   0  0  0  0  0  0  0  0  0  0  0  0
  -22.6480  -14.7150   20.7690 O   0  0  0  0  0  0  0  0  0  0  0  0
  -22.7350  -12.1070   22.5150 H   0  0  0  0  0  0  0  0  0  0  0  0
  -21.4530  -13.2800   22.3910 H   0  0  0  0  0  0  0  0  0  0  0  0
  -25.7190  -15.2810   20.3410 N   0  0  0  0  0  0  0  0  0  0  0  0
  -24.9820  -15.9580   20.5060 H   0  0  0  0  0  0  0  0  0  0  0  0
  -26.5700  -15.7000   19.9870 H   0  0  0  0  0  0  0  0  0  0  0  0
  -30.6490  -24.7390   20.6610 N   0  0  0  0  0  0  0  0  0  0  0  0
  -29.6550  -25.4600   21.4830 C   0  0  0  0  0  2  0  0  0  0  0  0
  -29.2470  -26.8740   20.9660 C   0  0  0  0  0  2  0  0  0  0  0  0
  -28.1930  -26.7700   20.0110 O   0  0  0  0  0  0  0  0  0  0  0  0
  -24.5600  -32.0120   23.3120 C   0  0  0  0  0  0  0  0  0  0  0  0
  -27.0790  -27.5750   20.1300 C   0  0  0  0  0  0  0  0  0  0  0  0
  -23.2860  -30.6260   21.7050 C   0  0  0  0  0  3  0  0  0  0  0  0
  -24.6820  -29.0790   20.2320 C   0  0  0  0  0  0  0  0  0  0  0  0
  -25.8030  -30.9720   21.4210 C   0  0  0  0  0  2  0  0  0  0  0  0
  -25.8610  -29.6000   20.7800 C   0  0  0  0  0  0  0  0  0  0  0  0
  -27.0640  -28.8590   20.7260 C   0  0  0  0  0  3  0  0  0  0  0  0
  -25.8850  -27.0710   19.5750 C   0  0  0  0  0  3  0  0  0  0  0  0
  -24.6880  -27.8100   19.6240 C   0  0  0  0  0  3  0  0  0  0  0  0
  -23.4440  -29.9420   20.3190 C   0  0  0  0  0  2  0  0  0  0  0  0
  -24.5690  -31.2180   22.2040 N   0  0  0  0  0  0  0  0  0  0  0  0
  -23.5000  -32.2920   23.8910 O   0  0  0  0  0  0  0  0  0  0  0  0
  -22.6560  -29.6120   22.6860 C   0  0  0  0  0  0  0  0  0  0  0  0
  -21.3460  -29.3620   22.5270 N   0  0  0  0  0  0  0  0  0  0  0  0
  -23.3450  -29.0500   23.5430 O   0  0  0  0  0  0  0  0  0  0  0  0
  -20.8520  -29.8740   21.8100 H   0  0  0  0  0  0  0  0  0  0  0  0
  -18.0570  -27.9030   22.8620 C   0  0  0  0  0  0  0  0  0  0  0  0
  -20.5510  -28.4090   23.3040 C   0  0  0  0  0  3  0  0  0  0  0  0
  -20.8220  -26.9570   22.8500 C   0  0  0  0  0  2  0  0  0  0  0  0
  -19.8370  -26.4630   21.7860 C   0  0  0  0  0  2  0  0  0  0  0  0
  -18.3990  -26.5310   22.3110 C   0  0  0  0  0  2  0  0  0  0  0  0
  -19.0680  -28.7930   23.3130 C   0  0  0  0  0  0  0  0  0  0  0  0
  -18.6960  -30.0720   23.7820 C   0  0  0  0  0  3  0  0  0  0  0  0
  -17.3450  -30.4630   23.8110 C   0  0  0  0  0  3  0  0  0  0  0  0
  -16.3460  -29.5730   23.3810 C   0  0  0  0  0  3  0  0  0  0  0  0
  -16.7010  -28.2950   22.9110 C   0  0  0  0  0  3  0  0  0  0  0  0
  -25.8730  -32.6270   23.8920 C   0  0  0  0  0  3  0  0  0  0  0  0
  -25.5960  -34.0290   24.2290 N   0  0  0  0  0  0  0  0  0  0  0  0
  -25.9100  -35.0750   23.4520 C   0  0  0  0  0  0  0  0  0  0  0  0
  -26.5370  -34.9580   22.3950 O   0  0  0  0  0  0  0  0  0  0  0  0
  -25.0490  -34.1970   25.0600 H   0  0  0  0  0  0  0  0  0  0  0  0
  -24.1850  -36.8780   23.1600 C   0  0  0  0  0  1  0  0  0  0  0  0
  -25.4570  -36.4710   23.9200 C   0  0  0  0  0  3  0  0  0  0  0  0
  -27.6350  -37.3400   24.6520 C   0  0  0  0  0  1  0  0  0  0  0  0
  -26.4930  -37.5130   23.7580 N   0  0  0  0  0  0  0  0  0  0  0  0
  -26.1010  -38.4370   23.9230 H   0  0  0  0  0  0  0  0  0  0  0  0
  -26.4220  -31.8480   25.1490 C   0  0  1  0  0  0  0  0  0  0  0  0
  -25.3620  -31.6020   26.2480 C   0  0  0  0  0  1  0  0  0  0  0  0
  -26.9900  -30.4710   24.7290 C   0  0  0  0  0  1  0  0  0  0  0  0
  -27.5940  -32.6360   25.7790 C   0  0  0  0  0  1  0  0  0  0  0  0
  -31.9580  -25.4120   20.7680 C   0  0  0  0  0  2  0  0  0  0  0  0
  -32.6740  -25.5290   19.4070 C   0  0  0  0  0  3  0  0  0  0  0  0
  -33.2490  -24.3890   19.0270 F   0  0  0  0  0  0  0  0  0  0  0  0
  -33.6190  -26.4660   19.4880 F   0  0  0  0  0  0  0  0  0  0  0  0
  2  8  1  0
  2  1  1  0
  5  8  1  0
  5  3  1  0
  6  8  1  0
  6  4  1  0
  7  4  1  0
  7  3  1  0
  7 10  1  0
  8  9  1  1
 11 19  1  0
 12 17  1  0
 13 14  1  0
 13 12  1  0
 15 14  1  0
 15 24  1  0
 15 16  1  0
 17 11  1  0
 17 16  1  0
 18 11  2  0
 19 20  1  0
 19 10  1  0
 21 22  2  0
 22 41  1  0
 23 22  1  0
 23 26  1  0
 24 25  1  0
 24 21  1  0
 25 23  2  0
 26 27  1  0
 27 28  2  0
 29 32  1  0
 29 28  1  0
 30 29  2  0
 31 30  1  0
 31 26  2  0
 32 33  1  0
 33 34  1  0
 34 35  2  0
 36 35  1  0
 36 40  1  0
 37 36  2  0
 38 33  2  0
 38 37  1  0
 39 38  1  0
 41 42  1  0
 42 45  1  0
 42 44  1  0
 43 41  2  0
 46 21  1  0
 46 47  1  0
 48 46  1  0
 49 93  1  0
 49  1  1  0
 49 50  1  0
 51 50  1  0
 52 54  1  0
 52 51  1  0
 53 64  2  0
 54 59  1  0
 55 63  1  0
 55 65  1  0
 56 62  1  0
 56 58  1  0
 57 63  1  0
 58 57  1  0
 59 58  2  0
 60 61  1  0
 60 54  2  0
 61 56  2  0
 62 55  1  0
 63 53  1  0
 65 67  2  0
 66 65  1  0
 68 66  1  0
 69 78  2  0
 69 74  1  0
 70 66  1  0
 70 74  1  0
 71 70  1  0
 72 73  1  0
 72 71  1  0
 73 69  1  0
 74 75  2  0
 75 76  1  0
 77 76  2  0
 78 77  1  0
 79 53  1  0
 79 80  1  0
 79 89  1  0
 80 83  1  0
 81 85  1  0
 81 80  1  0
 82 81  2  0
 85 84  1  0
 87 85  1  0
 87 88  1  0
 87 86  1  0
 89 92  1  1
 89 90  1  0
 91 89  1  0
 94 96  1  0
 94 93  1  0
 95 94  1  0
M  ISO  4  11 100  19 100  51 101  52 101
M  END
>  <TORSDO>  (43) 
F 24

>  <SCORE>  (43) 
-12.482

>  <name>  (43) 
42

>  <ligand_id>  (43) 
42

>  <original_smiles>  (43) 
[H]c1c([H])c([H])c2c(c1[H])C([H])([H])C([H])([H])C([H])([H])C2([H])N([H])C(=O)C1([H])N(C(=O)C([H])(N([H])C(=O)C([H])(N([H])C([H])([H])[H])C([H])([H])[H])C(C([H])([H])[H])(C([H])([H])[H])C([H])([H])[H])C([H])([H])c2c([H])c(OC([H])([H])C([H])([H])N(C([H])([H])C([H])(F)F)C([H])([H])C([H])([H])[N+]3([H])C([H])([H])C([H])([H])C([H])(C([H])([H])N([H])C(=O)N4C([H])([H])C([H])([H])C([H])([H])C([H])(n5nc(-c6c([H])c([H])c(Oc7c([H])c([H])c(F)c([H])c7F)c([H])c6[H])c(C(=O)N([H])[H])c5N([H])[H])C4([H])[H])C([H])([H])C3([H])[H])c([H])c([H])c2C1([H])[H]

>  <smiles>  (43) 
[H]c1c([H])c([H])c2c(c1[H])C([H])([H])C([H])([H])C([H])([H])C2([H])N([H])C(=O)C1([H])N(C(=O)C([H])(N([H])C(=O)C([H])(N([H])C([H])([H])[H])C([H])([H])[H])C(C([H])([H])[H])(C([H])([H])[H])C([H])([H])[H])C([H])([H])c2c([H])c(OC([H])([H])C([H])([H])N(C([H])([H])C([H])(F)F)C([H])([H])C([H])([H])[N+]3([H])C([H])([H])C([H])([H])C([H])(C([H])([H])N([H])C(=O)N4C([H])([H])C([H])([H])C([H])([H])C([H])(n5nc(-c6c([H])c([H])c(Oc7c([H])c([H])c(F)c([H])c7F)c([H])c6[H])c(C(=O)N([H])[H])c5N([H])[H])C4([H])[H])C([H])([H])C3([H])[H])c([H])c([H])c2C1([H])[H]

$$$$
43:0:0
     RDKit          3D

 91 99  0  0  1  0  0  0  0  0999 V2000
  -27.6920  -21.7500   19.6330 C   0  0  0  0  0  3  0  0  0  0  0  0
  -27.5900  -23.1550   19.8580 C   0  0  0  0  0  3  0  0  0  0  0  0
  -29.4110  -21.5840   21.2980 C   0  0  0  0  0  3  0  0  0  0  0  0
  -28.5880  -20.9100   20.3590 C   0  0  0  0  0  0  0  0  0  0  0  0
  -28.4040  -23.8220   20.8090 C   0  0  0  0  0  0  0  0  0  0  0  0
  -29.3230  -22.9930   21.5170 C   0  0  0  0  0  0  0  0  0  0  0  0
  -30.1180  -23.5460   22.4650 F   0  0  0  0  0  0  0  0  0  0  0  0
  -27.1780  -18.7740   20.2210 C   0  0  0  0  0  1  0  0  0  0  0  0
  -28.6080  -19.3510   20.0820 C   0  0  0  0  0  3  0  0  0  0  0  0
  -29.6030  -18.3690   20.8610 C   0  0  0  0  0  2  0  0  0  0  0  0
  -30.1950  -17.1120   20.0630 C   0  0  0  0  0  2  0  0  0  0  0  0
  -30.6830  -14.5980   20.1650 C   0  0  0  0  0  0  0  0  0  0  0  0
  -30.3960  -12.3790   19.0900 C   0  0  0  0  0  2  0  0  0  0  0  0
  -29.4350  -12.5440   17.8930 C   0  0  0  0  0  2  0  0  0  0  0  0
  -27.9670  -12.4180   18.3490 C   0  0  0  0  0  2  0  0  0  0  0  0
  -27.6540  -13.2670   19.6110 C   0  0  0  0  0  3  0  0  0  0  0  0
  -28.7320  -13.0830   20.7030 C   0  0  0  0  0  2  0  0  0  0  0  0
  -30.0350  -13.3940   20.1010 N   0  0  0  0  0  0  0  0  0  0  0  0
  -31.8280  -14.7260   19.7190 O   0  0  0  0  0  0  0  0  0  0  0  0
  -29.9380  -15.6970   20.5160 N   0  0  0  0  0  0  0  0  0  0  0  0
  -29.0170  -15.4980   20.8840 H   0  0  0  0  0  0  0  0  0  0  0  0
  -25.2890  -13.8870   20.3960 C   0  0  0  0  0  0  0  0  0  0  0  0
  -24.2290  -13.1230   20.8010 C   0  0  0  0  0  0  0  0  0  0  0  0
  -24.6790  -11.7670   20.7560 C   0  0  0  0  0  0  0  0  0  0  0  0
  -26.3180  -12.9970   20.1300 N   0  0  0  0  0  0  0  0  0  0  0  0
  -25.9590  -11.7170   20.4080 N   0  0  0  0  0  0  0  0  0  0  0  0
  -23.9480  -10.5110   20.9660 C   0  0  0  0  0  0  0  0  0  0  0  0
  -24.3930   -9.5430   21.8920 C   0  0  0  0  0  3  0  0  0  0  0  0
  -23.6600   -8.3530   22.0910 C   0  0  0  0  0  3  0  0  0  0  0  0
  -22.4680   -8.1240   21.3620 C   0  0  0  0  0  0  0  0  0  0  0  0
  -22.0440   -9.0790   20.4220 C   0  0  0  0  0  3  0  0  0  0  0  0
  -22.7780  -10.2600   20.2220 C   0  0  0  0  0  3  0  0  0  0  0  0
  -21.7060   -6.9860   21.4700 O   0  0  0  0  0  0  0  0  0  0  0  0
  -21.6690   -6.2490   22.6270 C   0  0  0  0  0  0  0  0  0  0  0  0
  -21.2610   -6.8130   23.8560 C   0  0  0  0  0  3  0  0  0  0  0  0
  -21.1720   -6.0030   25.0060 C   0  0  0  0  0  3  0  0  0  0  0  0
  -21.4800   -4.6330   24.9280 C   0  0  0  0  0  0  0  0  0  0  0  0
  -21.8840   -4.0690   23.7040 C   0  0  0  0  0  3  0  0  0  0  0  0
  -21.9750   -4.8750   22.5570 C   0  0  0  0  0  0  0  0  0  0  0  0
  -22.3410   -4.3230   21.3750 F   0  0  0  0  0  0  0  0  0  0  0  0
  -21.3880   -3.8530   26.0300 F   0  0  0  0  0  0  0  0  0  0  0  0
  -22.8460  -13.6110   21.1150 C   0  0  0  0  0  0  0  0  0  0  0  0
  -22.1400  -12.9170   22.0020 N   0  0  0  0  0  0  0  0  0  0  0  0
  -22.4020  -14.6420   20.6110 O   0  0  0  0  0  0  0  0  0  0  0  0
  -22.5120  -12.0790   22.4230 H   0  0  0  0  0  0  0  0  0  0  0  0
  -21.2130  -13.2230   22.2600 H   0  0  0  0  0  0  0  0  0  0  0  0
  -25.4580  -15.2570   20.2140 N   0  0  0  0  0  0  0  0  0  0  0  0
  -24.6930  -15.9100   20.3420 H   0  0  0  0  0  0  0  0  0  0  0  0
  -26.2850  -15.6890   19.8270 H   0  0  0  0  0  0  0  0  0  0  0  0
  -28.1560  -25.3190   21.2330 C   0  0  0  0  0  2  0  0  0  0  0  0
  -28.3560  -26.4420   20.3040 O   0  0  0  0  0  0  0  0  0  0  0  0
  -24.5770  -31.8320   23.2330 C   0  0  0  0  0  0  0  0  0  0  0  0
  -27.2750  -27.3180   20.2330 C   0  0  0  0  0  0  0  0  0  0  0  0
  -23.4240  -30.4360   21.5560 C   0  0  0  0  0  3  0  0  0  0  0  0
  -24.9150  -28.9010   20.1600 C   0  0  0  0  0  0  0  0  0  0  0  0
  -25.9650  -30.7700   21.4440 C   0  0  0  0  0  2  0  0  0  0  0  0
  -26.0660  -29.4000   20.7890 C   0  0  0  0  0  0  0  0  0  0  0  0
  -27.2570  -28.6180   20.8140 C   0  0  0  0  0  3  0  0  0  0  0  0
  -26.1150  -26.8640   19.5800 C   0  0  0  0  0  3  0  0  0  0  0  0
  -24.9410  -27.6400   19.5470 C   0  0  0  0  0  3  0  0  0  0  0  0
  -23.6760  -29.7720   20.1780 C   0  0  0  0  0  2  0  0  0  0  0  0
  -24.6730  -31.0300   22.1340 N   0  0  0  0  0  0  0  0  0  0  0  0
  -23.4780  -32.1010   23.7390 O   0  0  0  0  0  0  0  0  0  0  0  0
  -22.7410  -29.4140   22.4950 C   0  0  0  0  0  0  0  0  0  0  0  0
  -21.4200  -29.2290   22.3300 N   0  0  0  0  0  0  0  0  0  0  0  0
  -23.3970  -28.7920   23.3330 O   0  0  0  0  0  0  0  0  0  0  0  0
  -20.9460  -29.7900   21.6370 H   0  0  0  0  0  0  0  0  0  0  0  0
  -18.0330  -28.0170   22.7200 C   0  0  0  0  0  0  0  0  0  0  0  0
  -20.5810  -28.2880   23.0760 C   0  0  0  0  0  3  0  0  0  0  0  0
  -20.7080  -26.8570   22.5040 C   0  0  0  0  0  2  0  0  0  0  0  0
  -19.6400  -26.5280   21.4570 C   0  0  0  0  0  2  0  0  0  0  0  0
  -18.2360  -26.6660   22.0540 C   0  0  0  0  0  2  0  0  0  0  0  0
  -19.1340  -28.7840   23.1850 C   0  0  0  0  0  0  0  0  0  0  0  0
  -18.8890  -30.0440   23.7710 C   0  0  0  0  0  3  0  0  0  0  0  0
  -17.5780  -30.5390   23.8960 C   0  0  0  0  0  3  0  0  0  0  0  0
  -16.4920  -29.7680   23.4490 C   0  0  0  0  0  3  0  0  0  0  0  0
  -16.7200  -28.5090   22.8660 C   0  0  0  0  0  3  0  0  0  0  0  0
  -25.8400  -32.4680   23.8900 C   0  0  0  0  0  3  0  0  0  0  0  0
  -26.3100  -31.7100   25.1920 C   0  0  1  0  0  0  0  0  0  0  0  0
  -25.1780  -31.4830   26.2240 C   0  0  0  0  0  1  0  0  0  0  0  0
  -26.9050  -30.3270   24.8360 C   0  0  0  0  0  1  0  0  0  0  0  0
  -27.4390  -32.5090   25.8840 C   0  0  0  0  0  1  0  0  0  0  0  0
  -25.5250  -33.8710   24.1970 N   0  0  0  0  0  0  0  0  0  0  0  0
  -25.8910  -34.9150   23.4410 C   0  0  0  0  0  0  0  0  0  0  0  0
  -26.5930  -34.7970   22.4340 O   0  0  0  0  0  0  0  0  0  0  0  0
  -24.9110  -34.0380   24.9790 H   0  0  0  0  0  0  0  0  0  0  0  0
  -24.1780  -36.7070   23.0190 C   0  0  0  0  0  1  0  0  0  0  0  0
  -25.3950  -36.3100   23.8710 C   0  0  0  0  0  3  0  0  0  0  0  0
  -27.5020  -37.1960   24.7580 C   0  0  0  0  0  1  0  0  0  0  0  0
  -26.4330  -37.3590   23.7770 N   0  0  0  0  0  0  0  0  0  0  0  0
  -26.0270  -38.2820   23.8980 H   0  0  0  0  0  0  0  0  0  0  0  0
  1  2  2  0
  1  4  1  0
  2  5  1  0
  3  6  1  0
  4  3  2  0
  5 50  1  0
  5  6  2  0
  6  7  1  0
  9  8  1  0
  9  4  1  0
  9 10  1  0
 11 20  1  0
 11 10  1  0
 12 20  1  0
 13 18  1  0
 14 15  1  0
 14 13  1  0
 16 15  1  0
 16 25  1  0
 16 17  1  0
 18 12  1  0
 18 17  1  0
 19 12  2  0
 20 21  1  0
 22 23  2  0
 23 42  1  0
 24 23  1  0
 24 27  1  0
 25 22  1  0
 25 26  1  0
 26 24  2  0
 27 28  1  0
 28 29  2  0
 30 33  1  0
 30 29  1  0
 31 30  2  0
 32 31  1  0
 32 27  2  0
 33 34  1  0
 34 35  1  0
 35 36  2  0
 37 36  1  0
 37 41  1  0
 38 37  2  0
 39 34  2  0
 39 38  1  0
 40 39  1  0
 42 43  1  0
 43 46  1  0
 43 45  1  0
 44 42  2  0
 47 48  1  0
 47 22  1  0
 49 47  1  0
 51 50  1  0
 52 63  2  0
 53 51  1  0
 53 58  1  0
 54 62  1  0
 54 64  1  0
 55 61  1  0
 55 57  1  0
 56 62  1  0
 57 58  2  0
 57 56  1  0
 59 53  2  0
 60 59  1  0
 60 55  2  0
 61 54  1  0
 62 52  1  0
 64 66  2  0
 65 64  1  0
 67 65  1  0
 68 77  2  0
 68 73  1  0
 69 65  1  0
 69 73  1  0
 70 69  1  0
 71 72  1  0
 71 70  1  0
 72 68  1  0
 73 74  2  0
 74 75  1  0
 76 75  2  0
 77 76  1  0
 78 52  1  0
 78 83  1  0
 78 79  1  0
 79 82  1  1
 79 80  1  0
 81 79  1  0
 83 86  1  0
 84 88  1  0
 84 83  1  0
 85 84  2  0
 88 87  1  0
 90 88  1  0
 90 91  1  0
 90 89  1  0
M  ISO  4  12 100  20 100  50 101  51 101
M  END
>  <TORSDO>  (44) 
F 20

>  <SCORE>  (44) 
-13.828

>  <name>  (44) 
43

>  <ligand_id>  (44) 
43

>  <original_smiles>  (44) 
[H]c1c([H])c([H])c2c(c1[H])C([H])([H])C([H])([H])C([H])([H])C2([H])N([H])C(=O)C1([H])N(C(=O)C([H])(N([H])C(=O)C([H])(N([H])C([H])([H])[H])C([H])([H])[H])C(C([H])([H])[H])(C([H])([H])[H])C([H])([H])[H])C([H])([H])c2c([H])c(OC([H])([H])c3c([H])c([H])c(C([H])(C([H])([H])[H])C([H])([H])C([H])([H])N([H])C(=O)N4C([H])([H])C([H])([H])C([H])([H])C([H])(n5nc(-c6c([H])c([H])c(Oc7c([H])c([H])c(F)c([H])c7F)c([H])c6[H])c(C(=O)N([H])[H])c5N([H])[H])C4([H])[H])c([H])c3F)c([H])c([H])c2C1([H])[H]

>  <smiles>  (44) 
[H]c1c([H])c([H])c2c(c1[H])C([H])([H])C([H])([H])C([H])([H])C2([H])N([H])C(=O)C1([H])N(C(=O)C([H])(N([H])C(=O)C([H])(N([H])C([H])([H])[H])C([H])([H])[H])C(C([H])([H])[H])(C([H])([H])[H])C([H])([H])[H])C([H])([H])c2c([H])c(OC([H])([H])c3c([H])c([H])c(C([H])(C([H])([H])[H])C([H])([H])C([H])([H])N([H])C(=O)N4C([H])([H])C([H])([H])C([H])([H])C([H])(n5nc(-c6c([H])c([H])c(Oc7c([H])c([H])c(F)c([H])c7F)c([H])c6[H])c(C(=O)N([H])[H])c5N([H])[H])C4([H])[H])c([H])c3F)c([H])c([H])c2C1([H])[H]

$$$$
44:0:0
     RDKit          3D

 94102  0  0  1  0  0  0  0  0999 V2000
  -28.0520  -21.0790   22.0970 C   0  0  0  0  0  2  0  0  0  0  0  0
  -28.4970  -19.8450   21.4310 N   0  0  0  0  0  4  0  0  0  0  0  0
  -27.7790  -19.5670   20.7820 H   0  0  0  0  0  0  0  0  0  0  0  0
  -29.3190  -20.0650   20.8900 H   0  0  0  0  0  0  0  0  0  0  0  0
  -28.0780  -16.8390   23.0070 C   0  0  0  0  0  2  0  0  0  0  0  0
  -27.6690  -18.2880   23.2910 C   0  0  0  0  0  2  0  0  0  0  0  0
  -28.7120  -17.3360   21.6970 C   0  0  0  0  0  3  0  0  0  0  0  0
  -28.8110  -18.7270   22.3530 C   0  0  0  0  0  3  0  0  0  0  0  0
  -30.6850  -14.4170   20.5980 C   0  0  0  0  0  0  0  0  0  0  0  0
  -30.4340  -12.2910   19.3780 C   0  0  0  0  0  2  0  0  0  0  0  0
  -29.4860  -12.5390   18.1850 C   0  0  0  0  0  2  0  0  0  0  0  0
  -28.0080  -12.3890   18.6030 C   0  0  0  0  0  2  0  0  0  0  0  0
  -27.6700  -13.1880   19.8870 C   0  0  0  0  0  3  0  0  0  0  0  0
  -28.7170  -12.8930   20.9880 C   0  0  0  0  0  2  0  0  0  0  0  0
  -30.0520  -13.2250   20.4440 N   0  0  0  0  0  0  0  0  0  0  0  0
  -31.8010  -14.6610   20.1280 O   0  0  0  0  0  0  0  0  0  0  0  0
  -30.0290  -16.6440   21.3290 C   0  0  0  0  0  0  0  0  0  0  0  0
  -29.8880  -15.3260   21.1700 N   0  0  0  0  0  0  0  0  0  0  0  0
  -31.0640  -17.2970   21.1660 O   0  0  0  0  0  0  0  0  0  0  0  0
  -28.9890  -14.9630   21.4370 H   0  0  0  0  0  0  0  0  0  0  0  0
  -25.2660  -13.8110   20.5710 C   0  0  0  0  0  0  0  0  0  0  0  0
  -24.1890  -13.0410   20.9220 C   0  0  0  0  0  0  0  0  0  0  0  0
  -24.6400  -11.6880   20.8770 C   0  0  0  0  0  0  0  0  0  0  0  0
  -26.3070  -12.9240   20.3410 N   0  0  0  0  0  0  0  0  0  0  0  0
  -25.9310  -11.6420   20.5800 N   0  0  0  0  0  0  0  0  0  0  0  0
  -23.9050  -10.4270   21.0430 C   0  0  0  0  0  0  0  0  0  0  0  0
  -24.3600   -9.4170   21.9190 C   0  0  0  0  0  3  0  0  0  0  0  0
  -23.6290   -8.2210   22.0740 C   0  0  0  0  0  3  0  0  0  0  0  0
  -22.4270   -8.0270   21.3540 C   0  0  0  0  0  0  0  0  0  0  0  0
  -21.9890   -9.0250   20.4660 C   0  0  0  0  0  3  0  0  0  0  0  0
  -22.7230  -10.2120   20.3080 C   0  0  0  0  0  3  0  0  0  0  0  0
  -21.6650   -6.8860   21.4230 O   0  0  0  0  0  0  0  0  0  0  0  0
  -21.6840   -6.0730   22.5270 C   0  0  0  0  0  0  0  0  0  0  0  0
  -21.4000   -6.5640   23.8210 C   0  0  0  0  0  3  0  0  0  0  0  0
  -21.3650   -5.6800   24.9170 C   0  0  0  0  0  3  0  0  0  0  0  0
  -21.6040   -4.3060   24.7220 C   0  0  0  0  0  0  0  0  0  0  0  0
  -21.8830   -3.8150   23.4350 C   0  0  0  0  0  3  0  0  0  0  0  0
  -21.9190   -4.6960   22.3400 C   0  0  0  0  0  0  0  0  0  0  0  0
  -22.1670   -4.2160   21.0980 F   0  0  0  0  0  0  0  0  0  0  0  0
  -21.5630   -3.4530   25.7720 F   0  0  0  0  0  0  0  0  0  0  0  0
  -22.7920  -13.5240   21.1880 C   0  0  0  0  0  0  0  0  0  0  0  0
  -22.0560  -12.8200   22.0430 N   0  0  0  0  0  0  0  0  0  0  0  0
  -22.3600  -14.5550   20.6740 O   0  0  0  0  0  0  0  0  0  0  0  0
  -22.4170  -11.9820   22.4740 H   0  0  0  0  0  0  0  0  0  0  0  0
  -21.1220  -13.1280   22.2730 H   0  0  0  0  0  0  0  0  0  0  0  0
  -25.4460  -15.1810   20.4110 N   0  0  0  0  0  0  0  0  0  0  0  0
  -24.6830  -15.8400   20.5240 H   0  0  0  0  0  0  0  0  0  0  0  0
  -26.2610  -15.5880   19.9700 H   0  0  0  0  0  0  0  0  0  0  0  0
  -27.7480  -22.1910   21.0760 C   0  0  0  0  0  2  0  0  0  0  0  0
  -28.3850  -23.4330   21.4880 N   0  0  0  0  0  0  0  0  0  0  0  0
  -28.0050  -23.7160   22.3890 H   0  0  0  0  0  0  0  0  0  0  0  0
  -28.0840  -24.4680   20.5120 C   0  0  0  0  0  2  0  0  0  0  0  0
  -28.5730  -25.8230   21.0320 C   0  0  0  0  0  2  0  0  0  0  0  0
  -28.4220  -26.8030   20.0190 O   0  0  0  0  0  0  0  0  0  0  0  0
  -24.6080  -31.8730   23.2130 C   0  0  0  0  0  0  0  0  0  0  0  0
  -27.2410  -27.4930   20.0760 C   0  0  0  0  0  0  0  0  0  0  0  0
  -23.3940  -30.4940   21.5540 C   0  0  0  0  0  3  0  0  0  0  0  0
  -24.8420  -28.9630   20.1190 C   0  0  0  0  0  0  0  0  0  0  0  0
  -25.9160  -30.8540   21.3580 C   0  0  0  0  0  2  0  0  0  0  0  0
  -25.9980  -29.4900   20.7100 C   0  0  0  0  0  0  0  0  0  0  0  0
  -27.2020  -28.7590   20.6910 C   0  0  0  0  0  3  0  0  0  0  0  0
  -26.0760  -26.9670   19.4830 C   0  0  0  0  0  3  0  0  0  0  0  0
  -24.8720  -27.6970   19.5080 C   0  0  0  0  0  3  0  0  0  0  0  0
  -23.6000  -29.8220   20.1700 C   0  0  0  0  0  2  0  0  0  0  0  0
  -24.6570  -31.0860   22.1020 N   0  0  0  0  0  0  0  0  0  0  0  0
  -23.5280  -32.1460   23.7550 O   0  0  0  0  0  0  0  0  0  0  0  0
  -22.7380  -29.4680   22.5040 C   0  0  0  0  0  0  0  0  0  0  0  0
  -21.4110  -29.3030   22.3760 N   0  0  0  0  0  0  0  0  0  0  0  0
  -23.4160  -28.8220   23.3060 O   0  0  0  0  0  0  0  0  0  0  0  0
  -20.9270  -29.8740   21.6980 H   0  0  0  0  0  0  0  0  0  0  0  0
  -18.0260  -28.1360   22.8480 C   0  0  0  0  0  0  0  0  0  0  0  0
  -20.5840  -28.3660   23.1340 C   0  0  0  0  0  3  0  0  0  0  0  0
  -20.6770  -26.9410   22.5410 C   0  0  0  0  0  2  0  0  0  0  0  0
  -19.5760  -26.6410   21.5180 C   0  0  0  0  0  2  0  0  0  0  0  0
  -18.1940  -26.7910   22.1590 C   0  0  0  0  0  2  0  0  0  0  0  0
  -19.1500  -28.8820   23.2910 C   0  0  0  0  0  0  0  0  0  0  0  0
  -18.9420  -30.1430   23.8920 C   0  0  0  0  0  3  0  0  0  0  0  0
  -17.6420  -30.6570   24.0550 C   0  0  0  0  0  3  0  0  0  0  0  0
  -16.5320  -29.9060   23.6310 C   0  0  0  0  0  3  0  0  0  0  0  0
  -16.7250  -28.6470   23.0340 C   0  0  0  0  0  3  0  0  0  0  0  0
  -25.8990  -32.4850   23.8420 C   0  0  0  0  0  3  0  0  0  0  0  0
  -25.5860  -33.8650   24.2360 N   0  0  0  0  0  0  0  0  0  0  0  0
  -25.9020  -34.9490   23.5160 C   0  0  0  0  0  0  0  0  0  0  0  0
  -26.5590  -34.8930   22.4730 O   0  0  0  0  0  0  0  0  0  0  0  0
  -25.0000  -33.9810   25.0490 H   0  0  0  0  0  0  0  0  0  0  0  0
  -24.1480  -36.7310   23.2640 C   0  0  0  0  0  1  0  0  0  0  0  0
  -25.4100  -36.3130   24.0350 C   0  0  0  0  0  3  0  0  0  0  0  0
  -27.5580  -37.1810   24.8470 C   0  0  0  0  0  1  0  0  0  0  0  0
  -26.4290  -37.3810   23.9410 N   0  0  0  0  0  0  0  0  0  0  0  0
  -26.0200  -38.2890   24.1410 H   0  0  0  0  0  0  0  0  0  0  0  0
  -26.4440  -31.6600   25.0710 C   0  0  1  0  0  0  0  0  0  0  0  0
  -25.3720  -31.3670   26.1460 C   0  0  0  0  0  1  0  0  0  0  0  0
  -27.0260  -30.3060   24.6020 C   0  0  0  0  0  1  0  0  0  0  0  0
  -27.6050  -32.4290   25.7450 C   0  0  0  0  0  1  0  0  0  0  0  0
  2  1  1  0
  3  2  1  0
  4  2  1  0
  5  6  1  0
  7 17  1  0
  7  8  1  0
  7  5  1  0
  8  2  1  0
  8  6  1  0
  9 18  1  0
 10 15  1  0
 11 12  1  0
 11 10  1  0
 13 12  1  0
 13 24  1  0
 13 14  1  0
 15  9  1  0
 15 14  1  0
 16  9  2  0
 18 17  1  0
 18 20  1  0
 19 17  2  0
 21 22  2  0
 22 41  1  0
 23 22  1  0
 23 26  1  0
 24 21  1  0
 24 25  1  0
 25 23  2  0
 26 27  1  0
 27 28  2  0
 29 32  1  0
 29 28  1  0
 30 29  2  0
 31 30  1  0
 31 26  2  0
 32 33  1  0
 33 34  1  0
 34 35  2  0
 36 35  1  0
 36 40  1  0
 37 36  2  0
 38 33  2  0
 38 37  1  0
 39 38  1  0
 41 42  1  0
 42 45  1  0
 42 44  1  0
 43 41  2  0
 46 47  1  0
 46 21  1  0
 48 46  1  0
 49 50  1  0
 49  1  1  0
 50 51  1  0
 52 53  1  0
 52 50  1  0
 54 56  1  0
 54 53  1  0
 55 66  2  0
 56 61  1  0
 57 65  1  0
 57 67  1  0
 58 64  1  0
 58 60  1  0
 59 65  1  0
 60 59  1  0
 61 60  2  0
 62 63  1  0
 62 56  2  0
 63 58  2  0
 64 57  1  0
 65 55  1  0
 67 69  2  0
 68 67  1  0
 70 68  1  0
 71 80  2  0
 71 76  1  0
 72 68  1  0
 72 76  1  0
 73 72  1  0
 74 75  1  0
 74 73  1  0
 75 71  1  0
 76 77  2  0
 77 78  1  0
 79 78  2  0
 80 79  1  0
 81 55  1  0
 81 82  1  0
 81 91  1  0
 82 85  1  0
 83 87  1  0
 83 82  1  0
 84 83  2  0
 87 86  1  0
 89 87  1  0
 89 90  1  0
 89 88  1  0
 91 94  1  1
 91 92  1  0
 93 91  1  0
M  ISO  4   9 100  18 100  53 101  54 101
M  END
>  <TORSDO>  (45) 
F 22

>  <SCORE>  (45) 
8.328

>  <name>  (45) 
44

>  <ligand_id>  (45) 
44

>  <original_smiles>  (45) 
[H]c1c([H])c([H])c2c(c1[H])C([H])([H])C([H])([H])C([H])([H])C2([H])N([H])C(=O)C1([H])N(C(=O)C([H])(N([H])C(=O)C([H])(N([H])C([H])([H])[H])C([H])([H])[H])C(C([H])([H])[H])(C([H])([H])[H])C([H])([H])[H])C([H])([H])c2c([H])c(OC([H])([H])C([H])([H])N([H])C([H])([H])C([H])([H])[N+]([H])([H])C3([H])C([H])([H])C([H])([H])C3([H])C(=O)N([H])C(=O)N3C([H])([H])C([H])([H])C([H])([H])C([H])(n4nc(-c5c([H])c([H])c(Oc6c([H])c([H])c(F)c([H])c6F)c([H])c5[H])c(C(=O)N([H])[H])c4N([H])[H])C3([H])[H])c([H])c([H])c2C1([H])[H]

>  <smiles>  (45) 
[H]c1c([H])c([H])c2c(c1[H])C([H])([H])C([H])([H])C([H])([H])C2([H])N([H])C(=O)C1([H])N(C(=O)C([H])(N([H])C(=O)C([H])(N([H])C([H])([H])[H])C([H])([H])[H])C(C([H])([H])[H])(C([H])([H])[H])C([H])([H])[H])C([H])([H])c2c([H])c(OC([H])([H])C([H])([H])N([H])C([H])([H])C([H])([H])[N+]([H])([H])C3([H])C([H])([H])C([H])([H])C3([H])C(=O)N([H])C(=O)N3C([H])([H])C([H])([H])C([H])([H])C([H])(n4nc(-c5c([H])c([H])c(Oc6c([H])c([H])c(F)c([H])c6F)c([H])c5[H])c(C(=O)N([H])[H])c4N([H])[H])C3([H])[H])c([H])c([H])c2C1([H])[H]

$$$$
45:0:0
     RDKit          3D

 90 98  0  0  1  0  0  0  0  0999 V2000
  -29.0840  -21.8660   20.3750 C   0  0  0  0  0  2  0  0  0  0  0  0
  -31.4420  -20.8980   20.5550 C   0  0  0  0  0  2  0  0  0  0  0  0
  -31.2180  -19.7330   21.5340 C   0  0  0  0  0  3  0  0  0  0  0  0
  -30.1010  -19.2280   20.6000 C   0  0  0  0  0  3  0  0  0  0  0  0
  -30.9530  -20.0420   23.0100 C   0  0  0  0  0  1  0  0  0  0  0  0
  -30.1060  -20.7060   19.9930 N   0  0  1  0  0  4  0  0  0  0  0  0
  -30.1800  -20.6800   18.9860 H   0  0  0  0  0  0  0  0  0  0  0  0
  -30.4930  -17.8250   19.7380 C   0  0  0  0  0  2  0  0  0  0  0  0
  -30.8240  -15.1050   19.9540 C   0  0  0  0  0  0  0  0  0  0  0  0
  -30.6000  -12.7250   19.0870 C   0  0  0  0  0  2  0  0  0  0  0  0
  -29.6490  -12.6540   17.8690 C   0  0  0  0  0  2  0  0  0  0  0  0
  -28.1880  -12.4950   18.3320 C   0  0  0  0  0  2  0  0  0  0  0  0
  -27.8230  -13.4590   19.4920 C   0  0  0  0  0  3  0  0  0  0  0  0
  -28.9060  -13.4990   20.5960 C   0  0  0  0  0  2  0  0  0  0  0  0
  -30.1760  -13.8660   19.9530 N   0  0  0  0  0  0  0  0  0  0  0  0
  -32.0020  -15.1190   19.5820 O   0  0  0  0  0  0  0  0  0  0  0  0
  -30.1370  -16.3310   20.1580 N   0  0  0  0  0  0  0  0  0  0  0  0
  -29.1850  -16.2110   20.4770 H   0  0  0  0  0  0  0  0  0  0  0  0
  -25.4670  -14.0790   20.2820 C   0  0  0  0  0  0  0  0  0  0  0  0
  -24.3970  -13.3230   20.6820 C   0  0  0  0  0  0  0  0  0  0  0  0
  -24.8400  -11.9630   20.6470 C   0  0  0  0  0  0  0  0  0  0  0  0
  -26.4920  -13.1840   20.0260 N   0  0  0  0  0  0  0  0  0  0  0  0
  -26.1240  -11.9070   20.3110 N   0  0  0  0  0  0  0  0  0  0  0  0
  -24.0970  -10.7150   20.8640 C   0  0  0  0  0  0  0  0  0  0  0  0
  -24.5240   -9.7520   21.8060 C   0  0  0  0  0  3  0  0  0  0  0  0
  -23.7750   -8.5720   22.0150 C   0  0  0  0  0  3  0  0  0  0  0  0
  -22.5870   -8.3490   21.2810 C   0  0  0  0  0  0  0  0  0  0  0  0
  -22.1750   -9.3010   20.3310 C   0  0  0  0  0  3  0  0  0  0  0  0
  -22.9250  -10.4700   20.1200 C   0  0  0  0  0  3  0  0  0  0  0  0
  -21.8110   -7.2200   21.3960 O   0  0  0  0  0  0  0  0  0  0  0  0
  -21.7520   -6.5020   22.5640 C   0  0  0  0  0  0  0  0  0  0  0  0
  -21.3420   -7.0920   23.7800 C   0  0  0  0  0  3  0  0  0  0  0  0
  -21.2230   -6.3030   24.9400 C   0  0  0  0  0  3  0  0  0  0  0  0
  -21.5100   -4.9260   24.8890 C   0  0  0  0  0  0  0  0  0  0  0  0
  -21.9170   -4.3380   23.6790 C   0  0  0  0  0  3  0  0  0  0  0  0
  -22.0340   -5.1220   22.5200 C   0  0  0  0  0  0  0  0  0  0  0  0
  -22.4050   -4.5430   21.3500 F   0  0  0  0  0  0  0  0  0  0  0  0
  -21.3930   -4.1680   26.0040 F   0  0  0  0  0  0  0  0  0  0  0  0
  -23.0170  -13.8270   20.9820 C   0  0  0  0  0  0  0  0  0  0  0  0
  -22.2960  -13.1680   21.8840 N   0  0  0  0  0  0  0  0  0  0  0  0
  -22.5810  -14.8490   20.4510 O   0  0  0  0  0  0  0  0  0  0  0  0
  -22.6530  -12.3400   22.3370 H   0  0  0  0  0  0  0  0  0  0  0  0
  -21.3690  -13.4960   22.1220 H   0  0  0  0  0  0  0  0  0  0  0  0
  -25.6440  -15.4470   20.0960 N   0  0  0  0  0  0  0  0  0  0  0  0
  -24.8910  -16.1090   20.2320 H   0  0  0  0  0  0  0  0  0  0  0  0
  -26.4740  -15.8810   19.7170 H   0  0  0  0  0  0  0  0  0  0  0  0
  -29.4200  -23.5270   20.4130 C   0  0  0  0  0  3  0  0  0  0  0  0
  -30.0420  -23.7610   21.5730 F   0  0  0  0  0  0  0  0  0  0  0  0
  -28.2540  -24.7400   20.2920 C   0  0  0  0  0  2  0  0  0  0  0  0
  -28.4400  -26.2850   20.3520 O   0  0  0  0  0  0  0  0  0  0  0  0
  -24.6270  -31.8680   23.2370 C   0  0  0  0  0  0  0  0  0  0  0  0
  -27.3360  -27.2090   20.2690 C   0  0  0  0  0  0  0  0  0  0  0  0
  -23.4620  -30.4440   21.5910 C   0  0  0  0  0  3  0  0  0  0  0  0
  -24.9530  -28.8850   20.1920 C   0  0  0  0  0  0  0  0  0  0  0  0
  -26.0060  -30.7720   21.4300 C   0  0  0  0  0  2  0  0  0  0  0  0
  -26.1180  -29.3750   20.7970 C   0  0  0  0  0  0  0  0  0  0  0  0
  -27.3070  -28.5560   20.8110 C   0  0  0  0  0  3  0  0  0  0  0  0
  -26.1340  -26.8030   19.6460 C   0  0  0  0  0  3  0  0  0  0  0  0
  -24.9730  -27.6110   19.6030 C   0  0  0  0  0  3  0  0  0  0  0  0
  -23.7030  -29.7520   20.2230 C   0  0  0  0  0  2  0  0  0  0  0  0
  -24.7170  -31.0500   22.1440 N   0  0  0  0  0  0  0  0  0  0  0  0
  -23.5330  -32.1340   23.7600 O   0  0  0  0  0  0  0  0  0  0  0  0
  -22.7930  -29.4370   22.5590 C   0  0  0  0  0  0  0  0  0  0  0  0
  -21.4730  -29.2260   22.4070 N   0  0  0  0  0  0  0  0  0  0  0  0
  -23.4660  -28.8430   23.4060 O   0  0  0  0  0  0  0  0  0  0  0  0
  -20.9890  -29.7600   21.7000 H   0  0  0  0  0  0  0  0  0  0  0  0
  -18.1270  -27.9030   22.8160 C   0  0  0  0  0  0  0  0  0  0  0  0
  -20.6610  -28.2780   23.1730 C   0  0  0  0  0  3  0  0  0  0  0  0
  -20.8410  -26.8350   22.6450 C   0  0  0  0  0  2  0  0  0  0  0  0
  -19.7930  -26.4400   21.6010 C   0  0  0  0  0  2  0  0  0  0  0  0
  -18.3840  -26.5440   22.1880 C   0  0  0  0  0  2  0  0  0  0  0  0
  -19.1950  -28.7230   23.2650 C   0  0  0  0  0  0  0  0  0  0  0  0
  -18.8990  -29.9910   23.8140 C   0  0  0  0  0  3  0  0  0  0  0  0
  -17.5670  -30.4330   23.9270 C   0  0  0  0  0  3  0  0  0  0  0  0
  -16.5140  -29.6110   23.4930 C   0  0  0  0  0  3  0  0  0  0  0  0
  -16.7940  -28.3490   22.9390 C   0  0  0  0  0  3  0  0  0  0  0  0
  -25.8890  -32.5260   23.8720 C   0  0  0  0  0  3  0  0  0  0  0  0
  -26.3790  -31.7880   25.1780 C   0  0  1  0  0  0  0  0  0  0  0  0
  -25.2660  -31.5740   26.2310 C   0  0  0  0  0  1  0  0  0  0  0  0
  -26.9740  -30.4020   24.8350 C   0  0  0  0  0  1  0  0  0  0  0  0
  -27.5050  -32.6080   25.8480 C   0  0  0  0  0  1  0  0  0  0  0  0
  -25.5600  -33.9300   24.1700 N   0  0  0  0  0  0  0  0  0  0  0  0
  -25.9220  -34.9750   23.4140 C   0  0  0  0  0  0  0  0  0  0  0  0
  -26.6330  -34.8600   22.4110 O   0  0  0  0  0  0  0  0  0  0  0  0
  -24.9210  -34.0880   24.9350 H   0  0  0  0  0  0  0  0  0  0  0  0
  -24.2080  -36.7720   22.9840 C   0  0  0  0  0  1  0  0  0  0  0  0
  -25.4190  -36.3690   23.8410 C   0  0  0  0  0  3  0  0  0  0  0  0
  -27.5240  -37.2680   24.7340 C   0  0  0  0  0  1  0  0  0  0  0  0
  -26.4550  -37.4210   23.7520 N   0  0  0  0  0  0  0  0  0  0  0  0
  -26.0410  -38.3410   23.8740 H   0  0  0  0  0  0  0  0  0  0  0  0
  1 47  1  0
  2  3  1  0
  3  5  1  0
  4  8  1  0
  4  3  1  0
  6  1  1  0
  6  2  1  0
  6  4  1  0
  6  7  1  6
  8 17  1  0
  9 17  1  0
 10 15  1  0
 11 12  1  0
 11 10  1  0
 13 12  1  0
 13 22  1  0
 13 14  1  0
 15  9  1  0
 15 14  1  0
 16  9  2  0
 17 18  1  0
 19 20  2  0
 20 39  1  0
 21 20  1  0
 21 24  1  0
 22 19  1  0
 22 23  1  0
 23 21  2  0
 24 25  1  0
 25 26  2  0
 27 30  1  0
 27 26  1  0
 28 27  2  0
 29 28  1  0
 29 24  2  0
 30 31  1  0
 31 32  1  0
 32 33  2  0
 34 33  1  0
 34 38  1  0
 35 34  2  0
 36 31  2  0
 36 35  1  0
 37 36  1  0
 39 40  1  0
 40 43  1  0
 40 42  1  0
 41 39  2  0
 44 45  1  0
 44 19  1  0
 46 44  1  0
 47 48  1  0
 49 50  1  0
 49 47  1  0
 51 62  2  0
 52 50  1  0
 52 57  1  0
 53 61  1  0
 53 63  1  0
 54 60  1  0
 54 56  1  0
 55 61  1  0
 56 57  2  0
 56 55  1  0
 58 52  2  0
 59 58  1  0
 59 54  2  0
 60 53  1  0
 61 51  1  0
 63 65  2  0
 64 63  1  0
 66 64  1  0
 67 76  2  0
 67 72  1  0
 68 64  1  0
 68 72  1  0
 69 68  1  0
 70 71  1  0
 70 69  1  0
 71 67  1  0
 72 73  2  0
 73 74  1  0
 75 74  2  0
 76 75  1  0
 77 51  1  0
 77 82  1  0
 77 78  1  0
 78 81  1  1
 78 79  1  0
 80 78  1  0
 82 85  1  0
 83 87  1  0
 83 82  1  0
 84 83  2  0
 87 86  1  0
 89 87  1  0
 89 90  1  0
 89 88  1  0
M  ISO  4   9 100  17 100  49 101  50 101
M  END
>  <TORSDO>  (46) 
F 20

>  <SCORE>  (46) 
-14.130

>  <name>  (46) 
45

>  <ligand_id>  (46) 
45

>  <original_smiles>  (46) 
[H]c1c([H])c([H])c2c(c1[H])C([H])([H])C([H])([H])C([H])([H])C2([H])N([H])C(=O)C1([H])N(C(=O)C([H])(N([H])C(=O)C([H])(N([H])C([H])([H])[H])C([H])([H])[H])C(C([H])([H])[H])(C([H])([H])[H])C([H])([H])[H])C([H])([H])c2c([H])c(OC([H])([H])C([H])(F)C([H])([H])[N+]3([H])C([H])([H])C([H])(C([H])([H])[H])C3([H])C([H])([H])N([H])C(=O)N3C([H])([H])C([H])([H])C([H])([H])C([H])(n4nc(-c5c([H])c([H])c(Oc6c([H])c([H])c(F)c([H])c6F)c([H])c5[H])c(C(=O)N([H])[H])c4N([H])[H])C3([H])[H])c([H])c([H])c2C1([H])[H]

>  <smiles>  (46) 
[H]c1c([H])c([H])c2c(c1[H])C([H])([H])C([H])([H])C([H])([H])C2([H])N([H])C(=O)C1([H])N(C(=O)C([H])(N([H])C(=O)C([H])(N([H])C([H])([H])[H])C([H])([H])[H])C(C([H])([H])[H])(C([H])([H])[H])C([H])([H])[H])C([H])([H])c2c([H])c(OC([H])([H])C([H])(F)C([H])([H])[N+]3([H])C([H])([H])C([H])(C([H])([H])[H])C3([H])C([H])([H])N([H])C(=O)N3C([H])([H])C([H])([H])C([H])([H])C([H])(n4nc(-c5c([H])c([H])c(Oc6c([H])c([H])c(F)c([H])c6F)c([H])c5[H])c(C(=O)N([H])[H])c4N([H])[H])C3([H])[H])c([H])c([H])c2C1([H])[H]

$$$$
46:0:0
     RDKit          3D

 94101  0  0  1  0  0  0  0  0999 V2000
  -29.1170  -21.7080   19.5070 C   0  0  0  0  0  0  0  0  0  0  0  0
  -29.1980  -21.5140   20.7250 O   0  0  0  0  0  0  0  0  0  0  0  0
  -29.2710  -23.1330   18.9080 C   0  0  0  0  0  3  0  0  0  0  0  0
  -30.5180  -23.5680   19.1090 F   0  0  0  0  0  0  0  0  0  0  0  0
  -28.2700  -24.2640   19.3300 C   0  0  0  0  0  2  0  0  0  0  0  0
  -28.5960  -25.1610   20.5630 C   0  0  0  0  0  2  0  0  0  0  0  0
  -28.6140  -26.5950   20.3320 O   0  0  0  0  0  0  0  0  0  0  0  0
  -24.6030  -31.8380   23.1030 C   0  0  0  0  0  0  0  0  0  0  0  0
  -27.4190  -27.2960   20.2960 C   0  0  0  0  0  0  0  0  0  0  0  0
  -23.4730  -30.3440   21.4910 C   0  0  0  0  0  3  0  0  0  0  0  0
  -24.9960  -28.7720   20.1770 C   0  0  0  0  0  0  0  0  0  0  0  0
  -25.9990  -30.7390   21.3480 C   0  0  0  0  0  2  0  0  0  0  0  0
  -26.1290  -29.3420   20.7690 C   0  0  0  0  0  0  0  0  0  0  0  0
  -27.3460  -28.6140   20.8160 C   0  0  0  0  0  3  0  0  0  0  0  0
  -26.2620  -26.7460   19.7030 C   0  0  0  0  0  3  0  0  0  0  0  0
  -25.0580  -27.4750   19.6400 C   0  0  0  0  0  3  0  0  0  0  0  0
  -23.7350  -29.6080   20.1490 C   0  0  0  0  0  2  0  0  0  0  0  0
  -24.7090  -30.9910   22.0380 N   0  0  0  0  0  0  0  0  0  0  0  0
  -23.5010  -32.1100   23.5990 O   0  0  0  0  0  0  0  0  0  0  0  0
  -22.8150  -29.3510   22.4770 C   0  0  0  0  0  0  0  0  0  0  0  0
  -21.4930  -29.1590   22.3380 N   0  0  0  0  0  0  0  0  0  0  0  0
  -23.4910  -28.7540   23.3180 O   0  0  0  0  0  0  0  0  0  0  0  0
  -21.0090  -29.6910   21.6280 H   0  0  0  0  0  0  0  0  0  0  0  0
  -18.0970  -28.0730   22.9350 C   0  0  0  0  0  0  0  0  0  0  0  0
  -20.6700  -28.2410   23.1260 C   0  0  0  0  0  3  0  0  0  0  0  0
  -20.7060  -26.8140   22.5320 C   0  0  0  0  0  2  0  0  0  0  0  0
  -19.5610  -26.5390   21.5520 C   0  0  0  0  0  2  0  0  0  0  0  0
  -18.2060  -26.7250   22.2410 C   0  0  0  0  0  2  0  0  0  0  0  0
  -19.2550  -28.7920   23.3350 C   0  0  0  0  0  0  0  0  0  0  0  0
  -19.0990  -30.0570   23.9420 C   0  0  0  0  0  3  0  0  0  0  0  0
  -17.8180  -30.6010   24.1530 C   0  0  0  0  0  3  0  0  0  0  0  0
  -16.6750  -29.8770   23.7710 C   0  0  0  0  0  3  0  0  0  0  0  0
  -16.8160  -28.6150   23.1670 C   0  0  0  0  0  3  0  0  0  0  0  0
  -25.8560  -32.5210   23.7330 C   0  0  0  0  0  3  0  0  0  0  0  0
  -26.4260  -31.7440   24.9830 C   0  0  1  0  0  0  0  0  0  0  0  0
  -25.3410  -31.3230   26.0020 C   0  0  0  0  0  1  0  0  0  0  0  0
  -27.1730  -30.4660   24.5350 C   0  0  0  0  0  1  0  0  0  0  0  0
  -27.4620  -32.6250   25.7200 C   0  0  0  0  0  1  0  0  0  0  0  0
  -25.4750  -33.8900   24.1040 N   0  0  0  0  0  0  0  0  0  0  0  0
  -25.7510  -34.9810   23.3760 C   0  0  0  0  0  0  0  0  0  0  0  0
  -26.4240  -34.9430   22.3430 O   0  0  0  0  0  0  0  0  0  0  0  0
  -24.8730  -33.9890   24.9080 H   0  0  0  0  0  0  0  0  0  0  0  0
  -23.9600  -36.7130   23.0330 C   0  0  0  0  0  1  0  0  0  0  0  0
  -25.1890  -36.3270   23.8720 C   0  0  0  0  0  3  0  0  0  0  0  0
  -27.2490  -37.2650   24.8230 C   0  0  0  0  0  1  0  0  0  0  0  0
  -26.1790  -37.4260   23.8410 N   0  0  0  0  0  0  0  0  0  0  0  0
  -25.7300  -38.3230   24.0050 H   0  0  0  0  0  0  0  0  0  0  0  0
  -28.8860  -20.5190   18.5330 C   0  0  0  0  0  2  0  0  0  0  0  0
  -29.7550  -19.3620   18.9050 N   0  0  0  0  0  4  0  0  0  0  0  0
  -29.9210  -19.4560   19.8970 H   0  0  0  0  0  0  0  0  0  0  0  0
  -30.6430  -19.4860   18.4490 H   0  0  0  0  0  0  0  0  0  0  0  0
  -29.2380  -17.9810   18.6240 C   0  0  0  0  0  2  0  0  0  0  0  0
  -30.3660  -16.8890   18.5960 C   0  0  0  0  0  2  0  0  0  0  0  0
  -30.8800  -14.5300   19.2670 C   0  0  0  0  0  0  0  0  0  0  0  0
  -30.7690  -12.0740   18.9080 C   0  0  0  0  0  2  0  0  0  0  0  0
  -29.7590  -11.7590   17.7820 C   0  0  0  0  0  2  0  0  0  0  0  0
  -28.3220  -11.6460   18.3360 C   0  0  0  0  0  2  0  0  0  0  0  0
  -27.9580  -12.8170   19.2850 C   0  0  0  0  0  3  0  0  0  0  0  0
  -29.0800  -13.0270   20.3170 C   0  0  0  0  0  2  0  0  0  0  0  0
  -30.3230  -13.3140   19.5800 N   0  0  0  0  0  0  0  0  0  0  0  0
  -31.9350  -14.5770   18.6200 O   0  0  0  0  0  0  0  0  0  0  0  0
  -30.1450  -15.6790   19.4550 N   0  0  0  0  0  0  0  0  0  0  0  0
  -25.7540  -13.5670   20.3760 C   0  0  0  0  0  0  0  0  0  0  0  0
  -24.6780  -12.8600   20.8410 C   0  0  0  0  0  0  0  0  0  0  0  0
  -24.9950  -11.4810   20.6440 C   0  0  0  0  0  0  0  0  0  0  0  0
  -26.6640  -12.6200   19.9290 N   0  0  0  0  0  0  0  0  0  0  0  0
  -26.2190  -11.3550   20.1430 N   0  0  0  0  0  0  0  0  0  0  0  0
  -24.1860  -10.2740   20.8440 C   0  0  0  0  0  0  0  0  0  0  0  0
  -24.4040   -9.4100   21.9390 C   0  0  0  0  0  3  0  0  0  0  0  0
  -23.6010   -8.2630   22.1170 C   0  0  0  0  0  3  0  0  0  0  0  0
  -22.5630   -7.9760   21.1980 C   0  0  0  0  0  0  0  0  0  0  0  0
  -22.3670   -8.8250   20.0960 C   0  0  0  0  0  3  0  0  0  0  0  0
  -23.1700   -9.9630   19.9170 C   0  0  0  0  0  3  0  0  0  0  0  0
  -21.7480   -6.8730   21.2770 O   0  0  0  0  0  0  0  0  0  0  0  0
  -21.2810   -6.4080   22.4800 C   0  0  0  0  0  0  0  0  0  0  0  0
  -20.4550   -7.1950   23.3140 C   0  0  0  0  0  3  0  0  0  0  0  0
  -19.9420   -6.6520   24.5080 C   0  0  0  0  0  3  0  0  0  0  0  0
  -20.2430   -5.3230   24.8660 C   0  0  0  0  0  0  0  0  0  0  0  0
  -21.0580   -4.5380   24.0320 C   0  0  0  0  0  3  0  0  0  0  0  0
  -21.5730   -5.0770   22.8410 C   0  0  0  0  0  0  0  0  0  0  0  0
  -22.3420   -4.3090   22.0330 F   0  0  0  0  0  0  0  0  0  0  0  0
  -19.7430   -4.7990   26.0090 F   0  0  0  0  0  0  0  0  0  0  0  0
  -23.3850  -13.4310   21.3490 C   0  0  0  0  0  0  0  0  0  0  0  0
  -22.7900  -12.8060   22.3580 N   0  0  0  0  0  0  0  0  0  0  0  0
  -22.9190  -14.4700   20.8830 O   0  0  0  0  0  0  0  0  0  0  0  0
  -23.1830  -11.9680   22.7600 H   0  0  0  0  0  0  0  0  0  0  0  0
  -21.9290  -13.1730   22.7380 H   0  0  0  0  0  0  0  0  0  0  0  0
  -26.0250  -14.9270   20.2760 N   0  0  0  0  0  0  0  0  0  0  0  0
  -25.3410  -15.6310   20.5290 H   0  0  0  0  0  0  0  0  0  0  0  0
  -26.8510  -15.3170   19.8410 H   0  0  0  0  0  0  0  0  0  0  0  0
  -29.6540  -16.1040   20.7870 C   0  0  0  0  0  2  0  0  0  0  0  0
  -30.6570  -15.9200   21.9460 C   0  0  0  0  0  3  0  0  0  0  0  0
  -31.8860  -16.2530   21.5530 F   0  0  0  0  0  0  0  0  0  0  0  0
  -30.3010  -16.7100   22.9580 F   0  0  0  0  0  0  0  0  0  0  0  0
  1  2  2  0
  3  4  1  0
  3  5  1  0
  3  1  1  0
  5  6  1  0
  7  6  1  0
  8 19  2  0
  9  7  1  0
  9 14  1  0
 10 18  1  0
 10 20  1  0
 11 13  1  0
 12 18  1  0
 13 14  2  0
 13 12  1  0
 15  9  2  0
 16 15  1  0
 16 11  2  0
 17 11  1  0
 17 10  1  0
 18  8  1  0
 20 22  2  0
 21 20  1  0
 23 21  1  0
 24 33  2  0
 24 29  1  0
 25 21  1  0
 25 29  1  0
 26 25  1  0
 27 28  1  0
 27 26  1  0
 28 24  1  0
 29 30  2  0
 30 31  1  0
 32 31  2  0
 33 32  1  0
 34  8  1  0
 34 39  1  0
 34 35  1  0
 35 38  1  1
 35 36  1  0
 37 35  1  0
 39 42  1  0
 40 44  1  0
 40 39  1  0
 41 40  2  0
 44 43  1  0
 46 44  1  0
 46 47  1  0
 46 45  1  0
 48 49  1  0
 48  1  1  0
 49 50  1  0
 51 49  1  0
 52 49  1  0
 53 52  1  0
 53 62  1  0
 54 62  1  0
 54 60  1  0
 55 60  1  0
 56 57  1  0
 56 55  1  0
 58 57  1  0
 58 66  1  0
 58 59  1  0
 60 59  1  0
 61 54  2  0
 62 91  1  0
 63 64  2  0
 64 83  1  0
 65 64  1  0
 65 68  1  0
 66 67  1  0
 66 63  1  0
 67 65  2  0
 68 69  1  0
 69 70  2  0
 71 74  1  0
 71 70  1  0
 72 71  2  0
 73 72  1  0
 73 68  2  0
 74 75  1  0
 75 80  2  0
 75 76  1  0
 76 77  2  0
 77 78  1  0
 78 82  1  0
 79 78  2  0
 80 79  1  0
 81 80  1  0
 83 84  1  0
 84 87  1  0
 84 86  1  0
 85 83  2  0
 88 63  1  0
 88 89  1  0
 90 88  1  0
 91 92  1  0
 92 94  1  0
 93 92  1  0
M  ISO  4   6 101   7 101  54 100  62 100
M  END
>  <TORSDO>  (47) 
F 25

>  <SCORE>  (47) 
-10.619

>  <name>  (47) 
46

>  <ligand_id>  (47) 
46

>  <original_smiles>  (47) 
[H]c1c([H])c([H])c2c(c1[H])C([H])([H])C([H])([H])C([H])([H])C2([H])N([H])C(=O)C1([H])N(C(=O)C([H])(N([H])C(=O)C([H])(N([H])C([H])([H])[H])C([H])([H])[H])C(C([H])([H])[H])(C([H])([H])[H])C([H])([H])[H])C([H])([H])c2c([H])c(OC([H])([H])C([H])([H])C([H])(F)C(=O)C([H])([H])[N+]([H])([H])C([H])([H])C([H])([H])N(C(=O)N3C([H])([H])C([H])([H])C([H])([H])C([H])(n4nc(-c5c([H])c([H])c(Oc6c([H])c([H])c(F)c([H])c6F)c([H])c5[H])c(C(=O)N([H])[H])c4N([H])[H])C3([H])[H])C([H])([H])C([H])(F)F)c([H])c([H])c2C1([H])[H]

>  <smiles>  (47) 
[H]c1c([H])c([H])c2c(c1[H])C([H])([H])C([H])([H])C([H])([H])C2([H])N([H])C(=O)C1([H])N(C(=O)C([H])(N([H])C(=O)C([H])(N([H])C([H])([H])[H])C([H])([H])[H])C(C([H])([H])[H])(C([H])([H])[H])C([H])([H])[H])C([H])([H])c2c([H])c(OC([H])([H])C([H])([H])C([H])(F)C(=O)C([H])([H])[N+]([H])([H])C([H])([H])C([H])([H])N(C(=O)N3C([H])([H])C([H])([H])C([H])([H])C([H])(n4nc(-c5c([H])c([H])c(Oc6c([H])c([H])c(F)c([H])c6F)c([H])c5[H])c(C(=O)N([H])[H])c4N([H])[H])C3([H])[H])C([H])([H])C([H])(F)F)c([H])c([H])c2C1([H])[H]

$$$$
47:0:0
     RDKit          3D

 96104  0  0  1  0  0  0  0  0999 V2000
  -24.0500  -22.6190   20.5760 C   0  0  0  0  0  2  0  0  0  0  0  0
  -23.8290  -22.5690   19.0570 C   0  0  0  0  0  2  0  0  0  0  0  0
  -25.5760  -22.6270   20.7660 C   0  0  0  0  0  2  0  0  0  0  0  0
  -25.1910  -22.1440   18.4850 C   0  0  0  0  0  3  0  0  0  0  0  0
  -26.1610  -22.7900   19.4130 N   0  0  1  0  0  4  0  0  0  0  0  0
  -27.0630  -22.3340   19.3810 H   0  0  0  0  0  0  0  0  0  0  0  0
  -25.2780  -20.5840   18.4560 C   0  0  0  0  0  2  0  0  0  0  0  0
  -26.4390  -19.8630   19.1890 C   0  0  0  0  0  2  0  0  0  0  0  0
  -27.2180  -18.8840   18.3830 N   0  0  0  0  0  4  0  0  0  0  0  0
  -26.6440  -18.5080   17.6420 H   0  0  0  0  0  0  0  0  0  0  0  0
  -28.0000  -19.3560   17.9570 H   0  0  0  0  0  0  0  0  0  0  0  0
  -27.7130  -17.7600   19.2150 C   0  0  0  0  0  2  0  0  0  0  0  0
  -29.1600  -17.2950   18.9380 C   0  0  0  0  0  2  0  0  0  0  0  0
  -30.3860  -15.2930   19.7990 C   0  0  0  0  0  0  0  0  0  0  0  0
  -30.6560  -12.8470   19.9510 C   0  0  0  0  0  2  0  0  0  0  0  0
  -29.8670  -12.2130   18.7890 C   0  0  0  0  0  2  0  0  0  0  0  0
  -28.3930  -11.9930   19.1810 C   0  0  0  0  0  2  0  0  0  0  0  0
  -27.7440  -13.2570   19.8090 C   0  0  0  0  0  3  0  0  0  0  0  0
  -28.6570  -13.8390   20.9140 C   0  0  0  0  0  2  0  0  0  0  0  0
  -29.9870  -14.1010   20.3210 N   0  0  0  0  0  0  0  0  0  0  0  0
  -31.4300  -15.4520   19.1570 O   0  0  0  0  0  0  0  0  0  0  0  0
  -29.4760  -16.2590   19.9250 N   0  0  0  0  0  0  0  0  0  0  0  0
  -28.7380  -16.0400   20.5790 H   0  0  0  0  0  0  0  0  0  0  0  0
  -25.3910  -13.8590   20.6740 C   0  0  0  0  0  0  0  0  0  0  0  0
  -24.3170  -13.0840   21.0120 C   0  0  0  0  0  0  0  0  0  0  0  0
  -24.7320  -11.7310   20.8140 C   0  0  0  0  0  0  0  0  0  0  0  0
  -26.3970  -12.9810   20.3040 N   0  0  0  0  0  0  0  0  0  0  0  0
  -26.0040  -11.6900   20.4370 N   0  0  0  0  0  0  0  0  0  0  0  0
  -23.9770  -10.4770   20.9060 C   0  0  0  0  0  0  0  0  0  0  0  0
  -24.3680   -9.4420   21.7840 C   0  0  0  0  0  3  0  0  0  0  0  0
  -23.6140   -8.2520   21.8640 C   0  0  0  0  0  3  0  0  0  0  0  0
  -22.4590   -8.0860   21.0650 C   0  0  0  0  0  0  0  0  0  0  0  0
  -22.0890   -9.1110   20.1770 C   0  0  0  0  0  3  0  0  0  0  0  0
  -22.8410  -10.2940   20.0930 C   0  0  0  0  0  3  0  0  0  0  0  0
  -21.6810   -6.9550   21.0580 O   0  0  0  0  0  0  0  0  0  0  0  0
  -21.4880   -6.2080   22.1940 C   0  0  0  0  0  0  0  0  0  0  0  0
  -20.9210   -6.7590   23.3610 C   0  0  0  0  0  3  0  0  0  0  0  0
  -20.6800   -5.9380   24.4810 C   0  0  0  0  0  3  0  0  0  0  0  0
  -20.9940   -4.5670   24.4310 C   0  0  0  0  0  0  0  0  0  0  0  0
  -21.5510   -4.0160   23.2650 C   0  0  0  0  0  3  0  0  0  0  0  0
  -21.7970   -4.8340   22.1480 C   0  0  0  0  0  0  0  0  0  0  0  0
  -22.3180   -4.2930   21.0210 F   0  0  0  0  0  0  0  0  0  0  0  0
  -20.7540   -3.7760   25.5040 F   0  0  0  0  0  0  0  0  0  0  0  0
  -22.9510  -13.5690   21.4030 C   0  0  0  0  0  0  0  0  0  0  0  0
  -22.2490  -12.8190   22.2420 N   0  0  0  0  0  0  0  0  0  0  0  0
  -22.5160  -14.6460   20.9940 O   0  0  0  0  0  0  0  0  0  0  0  0
  -22.6110  -11.9420   22.5840 H   0  0  0  0  0  0  0  0  0  0  0  0
  -21.3270  -13.1190   22.5300 H   0  0  0  0  0  0  0  0  0  0  0  0
  -25.5880  -15.2370   20.6240 N   0  0  0  0  0  0  0  0  0  0  0  0
  -24.7880  -15.8470   20.7490 H   0  0  0  0  0  0  0  0  0  0  0  0
  -26.2850  -15.6270   20.0040 H   0  0  0  0  0  0  0  0  0  0  0  0
  -26.4360  -24.2320   19.1350 C   0  0  0  0  0  2  0  0  0  0  0  0
  -27.1250  -24.5670   17.7840 C   0  0  0  0  0  2  0  0  0  0  0  0
  -26.3810  -25.6650   16.9960 C   0  0  0  0  0  2  0  0  0  0  0  0
  -27.3010  -26.6820   16.2760 C   0  0  0  0  0  2  0  0  0  0  0  0
  -26.6730  -27.9220   15.9310 O   0  0  0  0  0  0  0  0  0  0  0  0
  -25.3480  -29.0580   22.8460 C   0  0  0  0  0  0  0  0  0  0  0  0
  -25.8370  -28.4380   16.8900 C   0  0  0  0  0  0  0  0  0  0  0  0
  -23.4570  -29.4200   21.2920 C   0  0  0  0  0  3  0  0  0  0  0  0
  -24.0520  -29.4700   18.8160 C   0  0  0  0  0  0  0  0  0  0  0  0
  -25.8690  -29.7360   20.5080 C   0  0  0  0  0  2  0  0  0  0  0  0
  -25.4110  -29.3220   19.1260 C   0  0  0  0  0  0  0  0  0  0  0  0
  -26.3110  -28.8000   18.1710 C   0  0  0  0  0  3  0  0  0  0  0  0
  -24.4760  -28.6290   16.5810 C   0  0  0  0  0  3  0  0  0  0  0  0
  -23.5750  -29.1170   17.5430 C   0  0  0  0  0  3  0  0  0  0  0  0
  -23.1520  -30.0240   19.8960 C   0  0  0  0  0  2  0  0  0  0  0  0
  -24.9250  -29.3710   21.5890 N   0  0  0  0  0  0  0  0  0  0  0  0
  -24.5380  -28.8510   23.7610 O   0  0  0  0  0  0  0  0  0  0  0  0
  -22.7670  -28.0410   21.4020 C   0  0  0  0  0  0  0  0  0  0  0  0
  -21.4270  -28.0390   21.2990 N   0  0  0  0  0  0  0  0  0  0  0  0
  -23.4300  -27.0110   21.5550 O   0  0  0  0  0  0  0  0  0  0  0  0
  -20.9580  -28.9300   21.2120 H   0  0  0  0  0  0  0  0  0  0  0  0
  -18.0970  -26.8420   20.5790 C   0  0  0  0  0  0  0  0  0  0  0  0
  -20.5690  -26.8580   21.3250 C   0  0  0  0  0  3  0  0  0  0  0  0
  -20.8370  -25.9340   20.1100 C   0  0  0  0  0  2  0  0  0  0  0  0
  -19.8990  -26.1910   18.9270 C   0  0  0  0  0  2  0  0  0  0  0  0
  -18.4370  -26.0170   19.3500 C   0  0  0  0  0  2  0  0  0  0  0  0
  -19.0970  -27.2440   21.5030 C   0  0  0  0  0  0  0  0  0  0  0  0
  -18.7310  -28.0300   22.6150 C   0  0  0  0  0  3  0  0  0  0  0  0
  -17.3880  -28.3980   22.8180 C   0  0  0  0  0  3  0  0  0  0  0  0
  -16.3940  -27.9860   21.9120 C   0  0  0  0  0  3  0  0  0  0  0  0
  -16.7520  -27.2110   20.7930 C   0  0  0  0  0  3  0  0  0  0  0  0
  -26.8680  -28.9720   23.1990 C   0  0  0  0  0  3  0  0  0  0  0  0
  -27.2990  -27.5540   23.7410 C   0  0  1  0  0  0  0  0  0  0  0  0
  -26.4230  -27.0410   24.9070 C   0  0  0  0  0  1  0  0  0  0  0  0
  -27.2430  -26.5000   22.6130 C   0  0  0  0  0  1  0  0  0  0  0  0
  -28.7660  -27.6000   24.2300 C   0  0  0  0  0  1  0  0  0  0  0  0
  -27.1520  -30.0170   24.1910 N   0  0  0  0  0  0  0  0  0  0  0  0
  -27.8670  -31.1260   23.9470 C   0  0  0  0  0  0  0  0  0  0  0  0
  -28.4190  -31.3400   22.8640 O   0  0  0  0  0  0  0  0  0  0  0  0
  -26.6880  -29.9300   25.0850 H   0  0  0  0  0  0  0  0  0  0  0  0
  -27.1010  -33.3760   24.7610 C   0  0  0  0  0  1  0  0  0  0  0  0
  -27.9840  -32.1600   25.0820 C   0  0  0  0  0  3  0  0  0  0  0  0
  -30.2190  -31.5550   25.8970 C   0  0  0  0  0  1  0  0  0  0  0  0
  -29.3740  -32.6020   25.3310 N   0  0  0  0  0  0  0  0  0  0  0  0
  -29.3890  -33.3980   25.9630 H   0  0  0  0  0  0  0  0  0  0  0  0
  1  3  1  0
  2  1  1  0
  4  7  1  0
  4  2  1  0
  4  5  1  0
  5  3  1  0
  5  6  1  1
  7  8  1  0
  9  8  1  0
  9 12  1  0
 10  9  1  0
 11  9  1  0
 13 12  1  0
 13 22  1  0
 14 22  1  0
 14 20  1  0
 15 20  1  0
 16 17  1  0
 16 15  1  0
 18 17  1  0
 18 27  1  0
 18 19  1  0
 20 19  1  0
 21 14  2  0
 22 23  1  0
 24 25  2  0
 25 44  1  0
 26 29  1  0
 26 25  1  0
 27 28  1  0
 27 24  1  0
 28 26  2  0
 29 30  1  0
 30 31  2  0
 32 31  1  0
 33 32  2  0
 34 33  1  0
 34 29  2  0
 35 32  1  0
 35 36  1  0
 36 37  1  0
 37 38  2  0
 39 38  1  0
 39 43  1  0
 40 39  2  0
 41 36  2  0
 41 40  1  0
 42 41  1  0
 44 45  1  0
 45 48  1  0
 45 47  1  0
 46 44  2  0
 49 24  1  0
 49 50  1  0
 51 49  1  0
 52  5  1  0
 53 52  1  0
 54 53  1  0
 55 54  1  0
 56 55  1  0
 56 58  1  0
 57 68  2  0
 58 63  1  0
 59 69  1  0
 59 67  1  0
 60 62  1  0
 60 66  1  0
 61 67  1  0
 62 61  1  0
 63 62  2  0
 64 58  2  0
 64 65  1  0
 65 60  2  0
 66 59  1  0
 67 57  1  0
 69 71  2  0
 70 69  1  0
 72 70  1  0
 73 82  2  0
 73 78  1  0
 74 70  1  0
 74 78  1  0
 75 74  1  0
 76 77  1  0
 76 75  1  0
 77 73  1  0
 78 79  2  0
 79 80  1  0
 81 80  2  0
 82 81  1  0
 83 57  1  0
 83 84  1  0
 83 88  1  0
 84 87  1  1
 84 85  1  0
 86 84  1  0
 88 91  1  0
 89 88  1  0
 89 93  1  0
 90 89  2  0
 93 92  1  0
 93 95  1  0
 95 94  1  0
 95 96  1  0
M  ISO  4  14 100  22 100  55 101  56 101
M  END
>  <TORSDO>  (48) 
F 25

>  <SCORE>  (48) 
-6.539

>  <name>  (48) 
47

>  <ligand_id>  (48) 
47

>  <original_smiles>  (48) 
[H]c1c([H])c([H])c2c(c1[H])C([H])([H])C([H])([H])C([H])([H])C2([H])N([H])C(=O)C1([H])N(C(=O)C([H])(N([H])C(=O)C([H])(N([H])C([H])([H])[H])C([H])([H])[H])C(C([H])([H])[H])(C([H])([H])[H])C([H])([H])[H])C([H])([H])c2c([H])c(OC([H])([H])C([H])([H])C([H])([H])C([H])([H])[N+]3([H])C([H])([H])C([H])([H])C([H])([H])C3([H])C([H])([H])C([H])([H])[N+]([H])([H])C([H])([H])C([H])([H])N([H])C(=O)N3C([H])([H])C([H])([H])C([H])([H])C([H])(n4nc(-c5c([H])c([H])c(Oc6c([H])c([H])c(F)c([H])c6F)c([H])c5[H])c(C(=O)N([H])[H])c4N([H])[H])C3([H])[H])c([H])c([H])c2C1([H])[H]

>  <smiles>  (48) 
[H]c1c([H])c([H])c2c(c1[H])C([H])([H])C([H])([H])C([H])([H])C2([H])N([H])C(=O)C1([H])N(C(=O)C([H])(N([H])C(=O)C([H])(N([H])C([H])([H])[H])C([H])([H])[H])C(C([H])([H])[H])(C([H])([H])[H])C([H])([H])[H])C([H])([H])c2c([H])c(OC([H])([H])C([H])([H])C([H])([H])C([H])([H])[N+]3([H])C([H])([H])C([H])([H])C([H])([H])C3([H])C([H])([H])C([H])([H])[N+]([H])([H])C([H])([H])C([H])([H])N([H])C(=O)N3C([H])([H])C([H])([H])C([H])([H])C([H])(n4nc(-c5c([H])c([H])c(Oc6c([H])c([H])c(F)c([H])c6F)c([H])c5[H])c(C(=O)N([H])[H])c4N([H])[H])C3([H])[H])c([H])c([H])c2C1([H])[H]

$$$$
48:0:0
     RDKit          3D

 94102  0  0  1  0  0  0  0  0999 V2000
  -29.7230  -19.8000   20.8340 C   0  0  0  0  0  2  0  0  0  0  0  0
  -29.8030  -19.4090   18.3590 C   0  0  0  0  0  2  0  0  0  0  0  0
  -30.2050  -21.2390   20.5970 C   0  0  0  0  0  2  0  0  0  0  0  0
  -30.3150  -20.8430   18.1670 C   0  0  0  0  0  2  0  0  0  0  0  0
  -30.2250  -18.8490   19.7330 C   0  0  0  0  0  3  0  0  0  0  0  0
  -29.8210  -21.7320   19.2490 N   0  0  2  0  0  4  0  0  0  0  0  0
  -28.8140  -21.6980   19.1920 H   0  0  0  0  0  0  0  0  0  0  0  0
  -29.7320  -17.4080   19.9490 C   0  0  0  0  0  3  0  0  0  0  0  0
  -30.0150  -16.7110   18.8470 F   0  0  0  0  0  0  0  0  0  0  0  0
  -30.3880  -16.7290   21.1750 C   0  0  0  0  0  2  0  0  0  0  0  0
  -30.7200  -14.3730   20.5160 C   0  0  0  0  0  0  0  0  0  0  0  0
  -30.3700  -12.2930   19.2580 C   0  0  0  0  0  2  0  0  0  0  0  0
  -29.4270  -12.5770   18.0730 C   0  0  0  0  0  2  0  0  0  0  0  0
  -27.9510  -12.4570   18.5010 C   0  0  0  0  0  2  0  0  0  0  0  0
  -27.6370  -13.2480   19.7990 C   0  0  0  0  0  3  0  0  0  0  0  0
  -28.6870  -12.9370   20.8910 C   0  0  0  0  0  2  0  0  0  0  0  0
  -30.0240  -13.2240   20.3380 N   0  0  0  0  0  0  0  0  0  0  0  0
  -31.8110  -14.6040   19.9820 O   0  0  0  0  0  0  0  0  0  0  0  0
  -30.0720  -15.3070   21.2190 N   0  0  0  0  0  0  0  0  0  0  0  0
  -29.1950  -15.0350   21.6370 H   0  0  0  0  0  0  0  0  0  0  0  0
  -25.2320  -13.8720   20.4870 C   0  0  0  0  0  0  0  0  0  0  0  0
  -24.1610  -13.1040   20.8590 C   0  0  0  0  0  0  0  0  0  0  0  0
  -24.6190  -11.7510   20.8370 C   0  0  0  0  0  0  0  0  0  0  0  0
  -26.2770  -12.9860   20.2690 N   0  0  0  0  0  0  0  0  0  0  0  0
  -25.9090  -11.7060   20.5320 N   0  0  0  0  0  0  0  0  0  0  0  0
  -23.8900  -10.4910   21.0340 C   0  0  0  0  0  0  0  0  0  0  0  0
  -24.3260   -9.5230   21.9650 C   0  0  0  0  0  3  0  0  0  0  0  0
  -23.5990   -8.3270   22.1490 C   0  0  0  0  0  3  0  0  0  0  0  0
  -22.4210   -8.0910   21.4010 C   0  0  0  0  0  0  0  0  0  0  0  0
  -22.0020   -9.0480   20.4600 C   0  0  0  0  0  3  0  0  0  0  0  0
  -22.7310  -10.2360   20.2740 C   0  0  0  0  0  3  0  0  0  0  0  0
  -21.6650   -6.9480   21.4950 O   0  0  0  0  0  0  0  0  0  0  0  0
  -21.6300   -6.1990   22.6440 C   0  0  0  0  0  0  0  0  0  0  0  0
  -21.2330   -6.7510   23.8810 C   0  0  0  0  0  3  0  0  0  0  0  0
  -21.1460   -5.9300   25.0230 C   0  0  0  0  0  3  0  0  0  0  0  0
  -21.4450   -4.5570   24.9280 C   0  0  0  0  0  0  0  0  0  0  0  0
  -21.8340   -4.0050   23.6950 C   0  0  0  0  0  3  0  0  0  0  0  0
  -21.9240   -4.8230   22.5560 C   0  0  0  0  0  0  0  0  0  0  0  0
  -22.2800   -4.2820   21.3660 F   0  0  0  0  0  0  0  0  0  0  0  0
  -21.3520   -3.7670   26.0220 F   0  0  0  0  0  0  0  0  0  0  0  0
  -22.7640  -13.5860   21.1270 C   0  0  0  0  0  0  0  0  0  0  0  0
  -22.0320  -12.8960   21.9960 N   0  0  0  0  0  0  0  0  0  0  0  0
  -22.3280  -14.6090   20.5990 O   0  0  0  0  0  0  0  0  0  0  0  0
  -22.3960  -12.0690   22.4440 H   0  0  0  0  0  0  0  0  0  0  0  0
  -21.0960  -13.2030   22.2150 H   0  0  0  0  0  0  0  0  0  0  0  0
  -25.4030  -15.2400   20.3000 N   0  0  0  0  0  0  0  0  0  0  0  0
  -24.6400  -15.8990   20.3990 H   0  0  0  0  0  0  0  0  0  0  0  0
  -26.2550  -15.6660   19.9590 H   0  0  0  0  0  0  0  0  0  0  0  0
  -30.1920  -23.1500   19.0380 C   0  0  0  0  0  2  0  0  0  0  0  0
  -29.1790  -24.1040   19.6930 C   0  0  0  0  0  2  0  0  0  0  0  0
  -29.7800  -25.0240   20.7710 C   0  0  0  0  0  3  0  0  0  0  0  0
  -30.1590  -24.2930   21.8200 F   0  0  0  0  0  0  0  0  0  0  0  0
  -28.7760  -26.0850   21.2270 C   0  0  0  0  0  2  0  0  0  0  0  0
  -28.4450  -26.8380   20.0720 O   0  0  0  0  0  0  0  0  0  0  0  0
  -24.5900  -31.9060   23.2290 C   0  0  0  0  0  0  0  0  0  0  0  0
  -27.2650  -27.5180   20.1550 C   0  0  0  0  0  0  0  0  0  0  0  0
  -23.3900  -30.4990   21.5820 C   0  0  0  0  0  3  0  0  0  0  0  0
  -24.8550  -28.9630   20.1690 C   0  0  0  0  0  0  0  0  0  0  0  0
  -25.9090  -30.8790   21.3870 C   0  0  0  0  0  2  0  0  0  0  0  0
  -26.0030  -29.5070   20.7620 C   0  0  0  0  0  0  0  0  0  0  0  0
  -27.2130  -28.7860   20.7620 C   0  0  0  0  0  3  0  0  0  0  0  0
  -26.1110  -26.9710   19.5620 C   0  0  0  0  0  3  0  0  0  0  0  0
  -24.9000  -27.6890   19.5710 C   0  0  0  0  0  3  0  0  0  0  0  0
  -23.6040  -29.8120   20.2050 C   0  0  0  0  0  2  0  0  0  0  0  0
  -24.6470  -31.1100   22.1240 N   0  0  0  0  0  0  0  0  0  0  0  0
  -23.5080  -32.1760   23.7670 O   0  0  0  0  0  0  0  0  0  0  0  0
  -22.7420  -29.4770   22.5410 C   0  0  0  0  0  0  0  0  0  0  0  0
  -21.4190  -29.2930   22.4100 N   0  0  0  0  0  0  0  0  0  0  0  0
  -23.4270  -28.8510   23.3550 O   0  0  0  0  0  0  0  0  0  0  0  0
  -20.9300  -29.8480   21.7210 H   0  0  0  0  0  0  0  0  0  0  0  0
  -18.0440  -28.1050   22.8990 C   0  0  0  0  0  0  0  0  0  0  0  0
  -20.6020  -28.3530   23.1760 C   0  0  0  0  0  3  0  0  0  0  0  0
  -20.7000  -26.9250   22.5940 C   0  0  0  0  0  2  0  0  0  0  0  0
  -19.5980  -26.6090   21.5780 C   0  0  0  0  0  2  0  0  0  0  0  0
  -18.2170  -26.7570   22.2210 C   0  0  0  0  0  2  0  0  0  0  0  0
  -19.1640  -28.8620   23.3330 C   0  0  0  0  0  0  0  0  0  0  0  0
  -18.9490  -30.1250   23.9250 C   0  0  0  0  0  3  0  0  0  0  0  0
  -17.6470  -30.6320   24.0890 C   0  0  0  0  0  3  0  0  0  0  0  0
  -16.5400  -29.8710   23.6740 C   0  0  0  0  0  3  0  0  0  0  0  0
  -16.7400  -28.6090   23.0850 C   0  0  0  0  0  3  0  0  0  0  0  0
  -25.8750  -32.5370   23.8510 C   0  0  0  0  0  3  0  0  0  0  0  0
  -25.5650  -33.9360   24.1770 N   0  0  0  0  0  0  0  0  0  0  0  0
  -25.9100  -34.9860   23.4210 C   0  0  0  0  0  0  0  0  0  0  0  0
  -26.5920  -34.8810   22.3970 O   0  0  0  0  0  0  0  0  0  0  0  0
  -24.9600  -34.0920   24.9700 H   0  0  0  0  0  0  0  0  0  0  0  0
  -24.1920  -36.7830   23.0350 C   0  0  0  0  0  1  0  0  0  0  0  0
  -25.4170  -36.3750   23.8690 C   0  0  0  0  0  3  0  0  0  0  0  0
  -27.5400  -37.2520   24.7380 C   0  0  0  0  0  1  0  0  0  0  0  0
  -26.4550  -37.4250   23.7760 N   0  0  0  0  0  0  0  0  0  0  0  0
  -26.0490  -38.3470   23.9180 H   0  0  0  0  0  0  0  0  0  0  0  0
  -26.3950  -31.7660   25.1260 C   0  0  1  0  0  0  0  0  0  0  0  0
  -25.3020  -31.5230   26.1930 C   0  0  0  0  0  1  0  0  0  0  0  0
  -26.9800  -30.3900   24.7290 C   0  0  0  0  0  1  0  0  0  0  0  0
  -27.5440  -32.5620   25.7890 C   0  0  0  0  0  1  0  0  0  0  0  0
  2  5  1  0
  3  1  1  0
  4  2  1  0
  4  6  1  0
  5  8  1  0
  5  1  1  0
  6  3  1  0
  6  7  1  1
  8  9  1  0
  8 10  1  0
 10 19  1  0
 11 19  1  0
 12 17  1  0
 13 14  1  0
 13 12  1  0
 15 14  1  0
 15 24  1  0
 15 16  1  0
 17 11  1  0
 17 16  1  0
 18 11  2  0
 19 20  1  0
 21 22  2  0
 22 41  1  0
 23 22  1  0
 23 26  1  0
 24 21  1  0
 24 25  1  0
 25 23  2  0
 26 27  1  0
 27 28  2  0
 29 32  1  0
 29 28  1  0
 30 29  2  0
 31 30  1  0
 31 26  2  0
 32 33  1  0
 33 34  1  0
 34 35  2  0
 36 35  1  0
 36 40  1  0
 37 36  2  0
 38 33  2  0
 38 37  1  0
 39 38  1  0
 41 42  1  0
 42 45  1  0
 42 44  1  0
 43 41  2  0
 46 47  1  0
 46 21  1  0
 48 46  1  0
 49  6  1  0
 49 50  1  0
 50 51  1  0
 51 53  1  0
 51 52  1  0
 54 56  1  0
 54 53  1  0
 55 66  2  0
 56 61  1  0
 57 65  1  0
 57 67  1  0
 58 64  1  0
 58 60  1  0
 59 65  1  0
 60 59  1  0
 61 60  2  0
 62 63  1  0
 62 56  2  0
 63 58  2  0
 64 57  1  0
 65 55  1  0
 67 69  2  0
 68 67  1  0
 70 68  1  0
 71 80  2  0
 71 76  1  0
 72 68  1  0
 72 76  1  0
 73 72  1  0
 74 75  1  0
 74 73  1  0
 75 71  1  0
 76 77  2  0
 77 78  1  0
 79 78  2  0
 80 79  1  0
 81 55  1  0
 81 82  1  0
 81 91  1  0
 82 85  1  0
 83 87  1  0
 83 82  1  0
 84 83  2  0
 87 86  1  0
 89 87  1  0
 89 90  1  0
 89 88  1  0
 91 94  1  1
 91 92  1  0
 93 91  1  0
M  ISO  4  11 100  19 100  53 101  54 101
M  END
>  <TORSDO>  (49) 
F 22

>  <SCORE>  (49) 
-13.366

>  <name>  (49) 
48

>  <ligand_id>  (49) 
48

>  <original_smiles>  (49) 
[H]c1c([H])c([H])c2c(c1[H])C([H])([H])C([H])([H])C([H])([H])C2([H])N([H])C(=O)C1([H])N(C(=O)C([H])(N([H])C(=O)C([H])(N([H])C([H])([H])[H])C([H])([H])[H])C(C([H])([H])[H])(C([H])([H])[H])C([H])([H])[H])C([H])([H])c2c([H])c(OC([H])([H])C([H])(F)C([H])([H])C([H])([H])[N+]3([H])C([H])([H])C([H])([H])C([H])(C([H])(F)C([H])([H])N([H])C(=O)N4C([H])([H])C([H])([H])C([H])([H])C([H])(n5nc(-c6c([H])c([H])c(Oc7c([H])c([H])c(F)c([H])c7F)c([H])c6[H])c(C(=O)N([H])[H])c5N([H])[H])C4([H])[H])C([H])([H])C3([H])[H])c([H])c([H])c2C1([H])[H]

>  <smiles>  (49) 
[H]c1c([H])c([H])c2c(c1[H])C([H])([H])C([H])([H])C([H])([H])C2([H])N([H])C(=O)C1([H])N(C(=O)C([H])(N([H])C(=O)C([H])(N([H])C([H])([H])[H])C([H])([H])[H])C(C([H])([H])[H])(C([H])([H])[H])C([H])([H])[H])C([H])([H])c2c([H])c(OC([H])([H])C([H])(F)C([H])([H])C([H])([H])[N+]3([H])C([H])([H])C([H])([H])C([H])(C([H])(F)C([H])([H])N([H])C(=O)N4C([H])([H])C([H])([H])C([H])([H])C([H])(n5nc(-c6c([H])c([H])c(Oc7c([H])c([H])c(F)c([H])c7F)c([H])c6[H])c(C(=O)N([H])[H])c5N([H])[H])C4([H])[H])C([H])([H])C3([H])[H])c([H])c([H])c2C1([H])[H]

$$$$
49:0:0
     RDKit          3D

 93101  0  0  1  0  0  0  0  0999 V2000
  -28.1980  -21.9650   20.1100 C   0  0  0  0  0  2  0  0  0  0  0  0
  -28.8840  -20.7860   20.8000 C   0  0  0  0  0  0  0  0  0  0  0  0
  -28.5340  -19.5610   20.3930 N   0  0  0  0  0  0  0  0  0  0  0  0
  -29.7660  -20.9900   21.6370 O   0  0  0  0  0  0  0  0  0  0  0  0
  -27.7590  -19.5010   19.7470 H   0  0  0  0  0  0  0  0  0  0  0  0
  -30.8430  -14.4130   20.0590 C   0  0  0  0  0  0  0  0  0  0  0  0
  -30.3990  -12.2860   18.9280 C   0  0  0  0  0  2  0  0  0  0  0  0
  -29.4000  -12.5180   17.7790 C   0  0  0  0  0  2  0  0  0  0  0  0
  -27.9520  -12.3930   18.2880 C   0  0  0  0  0  2  0  0  0  0  0  0
  -27.6900  -13.2230   19.5760 C   0  0  0  0  0  3  0  0  0  0  0  0
  -28.8100  -13.0050   20.6170 C   0  0  0  0  0  2  0  0  0  0  0  0
  -30.0960  -13.2820   19.9640 N   0  0  0  0  0  0  0  0  0  0  0  0
  -32.0020  -14.4700   19.6360 O   0  0  0  0  0  0  0  0  0  0  0  0
  -29.5010  -17.7400   19.1060 C   0  0  0  0  0  2  0  0  0  0  0  0
  -28.9440  -17.3360   21.5010 C   0  0  0  0  0  2  0  0  0  0  0  0
  -30.5010  -16.5900   19.1610 C   0  0  0  0  0  2  0  0  0  0  0  0
  -29.9360  -16.1480   21.5190 C   0  0  0  0  0  2  0  0  0  0  0  0
  -29.4030  -18.3900   20.4830 C   0  0  0  0  0  3  0  0  0  0  0  0
  -30.1490  -15.5710   20.1760 N   0  0  0  0  0  0  0  0  0  0  0  0
  -25.3420  -13.8200   20.4420 C   0  0  0  0  0  0  0  0  0  0  0  0
  -24.2940  -13.0420   20.8570 C   0  0  0  0  0  0  0  0  0  0  0  0
  -24.7490  -11.6910   20.7740 C   0  0  0  0  0  0  0  0  0  0  0  0
  -26.3690  -12.9410   20.1320 N   0  0  0  0  0  0  0  0  0  0  0  0
  -26.0190  -11.6540   20.3900 N   0  0  0  0  0  0  0  0  0  0  0  0
  -24.0310  -10.4260   20.9790 C   0  0  0  0  0  0  0  0  0  0  0  0
  -24.4730   -9.4700   21.9200 C   0  0  0  0  0  3  0  0  0  0  0  0
  -23.7540   -8.2700   22.1140 C   0  0  0  0  0  3  0  0  0  0  0  0
  -22.5770   -8.0190   21.3690 C   0  0  0  0  0  0  0  0  0  0  0  0
  -22.1550   -8.9650   20.4170 C   0  0  0  0  0  3  0  0  0  0  0  0
  -22.8740  -10.1540   20.2210 C   0  0  0  0  0  3  0  0  0  0  0  0
  -21.8290   -6.8720   21.4720 O   0  0  0  0  0  0  0  0  0  0  0  0
  -21.7410   -6.1730   22.6500 C   0  0  0  0  0  0  0  0  0  0  0  0
  -21.2680   -6.7720   23.8380 C   0  0  0  0  0  3  0  0  0  0  0  0
  -21.1290   -5.9990   25.0080 C   0  0  0  0  0  3  0  0  0  0  0  0
  -21.4500   -4.6280   24.9890 C   0  0  0  0  0  0  0  0  0  0  0  0
  -21.9160   -4.0300   23.8060 C   0  0  0  0  0  3  0  0  0  0  0  0
  -22.0570   -4.8000   22.6380 C   0  0  0  0  0  0  0  0  0  0  0  0
  -22.4850   -4.2130   21.4950 F   0  0  0  0  0  0  0  0  0  0  0  0
  -21.3100   -3.8830   26.1110 F   0  0  0  0  0  0  0  0  0  0  0  0
  -22.9170  -13.5170   21.2210 C   0  0  0  0  0  0  0  0  0  0  0  0
  -22.2440  -12.8130   22.1240 N   0  0  0  0  0  0  0  0  0  0  0  0
  -22.4480  -14.5470   20.7380 O   0  0  0  0  0  0  0  0  0  0  0  0
  -22.6370  -11.9770   22.5320 H   0  0  0  0  0  0  0  0  0  0  0  0
  -21.3240  -13.1130   22.4120 H   0  0  0  0  0  0  0  0  0  0  0  0
  -25.5020  -15.1930   20.2840 N   0  0  0  0  0  0  0  0  0  0  0  0
  -24.7510  -15.8510   20.4660 H   0  0  0  0  0  0  0  0  0  0  0  0
  -26.3460  -15.6350   19.9420 H   0  0  0  0  0  0  0  0  0  0  0  0
  -29.2150  -22.7970   19.3020 C   0  0  0  0  0  2  0  0  0  0  0  0
  -28.5980  -24.0590   18.6840 C   0  0  0  0  0  2  0  0  0  0  0  0
  -29.6520  -24.9680   18.0180 C   0  0  0  0  0  2  0  0  0  0  0  0
  -29.1950  -26.4260   17.8290 C   0  0  0  0  0  2  0  0  0  0  0  0
  -29.3690  -27.2840   19.0940 C   0  0  0  0  0  2  0  0  0  0  0  0
  -28.4850  -26.8450   20.1180 O   0  0  0  0  0  0  0  0  0  0  0  0
  -24.6210  -31.8930   23.2480 C   0  0  0  0  0  0  0  0  0  0  0  0
  -27.3010  -27.5250   20.1550 C   0  0  0  0  0  0  0  0  0  0  0  0
  -23.4150  -30.4740   21.6140 C   0  0  0  0  0  3  0  0  0  0  0  0
  -24.8770  -28.9490   20.1850 C   0  0  0  0  0  0  0  0  0  0  0  0
  -25.9270  -30.8750   21.3930 C   0  0  0  0  0  2  0  0  0  0  0  0
  -26.0240  -29.5050   20.7630 C   0  0  0  0  0  0  0  0  0  0  0  0
  -27.2380  -28.7950   20.7560 C   0  0  0  0  0  3  0  0  0  0  0  0
  -26.1410  -26.9580   19.5900 C   0  0  0  0  0  3  0  0  0  0  0  0
  -24.9250  -27.6700   19.5970 C   0  0  0  0  0  3  0  0  0  0  0  0
  -23.6200  -29.7870   20.2350 C   0  0  0  0  0  2  0  0  0  0  0  0
  -24.6720  -31.0940   22.1440 N   0  0  0  0  0  0  0  0  0  0  0  0
  -23.5410  -32.1550   23.7960 O   0  0  0  0  0  0  0  0  0  0  0  0
  -22.7830  -29.4500   22.5810 C   0  0  0  0  0  0  0  0  0  0  0  0
  -21.4630  -29.2480   22.4520 N   0  0  0  0  0  0  0  0  0  0  0  0
  -23.4760  -28.8400   23.4000 O   0  0  0  0  0  0  0  0  0  0  0  0
  -20.9630  -29.7960   21.7650 H   0  0  0  0  0  0  0  0  0  0  0  0
  -18.1080  -28.0070   22.9400 C   0  0  0  0  0  0  0  0  0  0  0  0
  -20.6580  -28.3030   23.2250 C   0  0  0  0  0  3  0  0  0  0  0  0
  -20.7870  -26.8700   22.6570 C   0  0  0  0  0  2  0  0  0  0  0  0
  -19.6960  -26.5250   21.6390 C   0  0  0  0  0  2  0  0  0  0  0  0
  -18.3080  -26.6560   22.2760 C   0  0  0  0  0  2  0  0  0  0  0  0
  -19.2120  -28.7880   23.3700 C   0  0  0  0  0  0  0  0  0  0  0  0
  -18.9730  -30.0530   23.9490 C   0  0  0  0  0  3  0  0  0  0  0  0
  -17.6610  -30.5380   24.1030 C   0  0  0  0  0  3  0  0  0  0  0  0
  -16.5700  -29.7540   23.6910 C   0  0  0  0  0  3  0  0  0  0  0  0
  -16.7950  -28.4900   23.1160 C   0  0  0  0  0  3  0  0  0  0  0  0
  -25.9080  -32.5320   23.8570 C   0  0  0  0  0  3  0  0  0  0  0  0
  -25.5950  -33.9310   24.1780 N   0  0  0  0  0  0  0  0  0  0  0  0
  -25.9340  -34.9790   23.4160 C   0  0  0  0  0  0  0  0  0  0  0  0
  -26.6130  -34.8720   22.3910 O   0  0  0  0  0  0  0  0  0  0  0  0
  -24.9830  -34.0880   24.9660 H   0  0  0  0  0  0  0  0  0  0  0  0
  -24.2100  -36.7690   23.0290 C   0  0  0  0  0  1  0  0  0  0  0  0
  -25.4390  -36.3680   23.8600 C   0  0  0  0  0  3  0  0  0  0  0  0
  -27.5630  -37.2540   24.7140 C   0  0  0  0  0  1  0  0  0  0  0  0
  -26.4740  -37.4200   23.7560 N   0  0  0  0  0  0  0  0  0  0  0  0
  -26.0660  -38.3400   23.8950 H   0  0  0  0  0  0  0  0  0  0  0  0
  -26.4390  -31.7670   25.1300 C   0  0  1  0  0  0  0  0  0  0  0  0
  -25.3520  -31.5190   26.2010 C   0  0  0  0  0  1  0  0  0  0  0  0
  -27.0320  -30.3930   24.7340 C   0  0  0  0  0  1  0  0  0  0  0  0
  -27.5840  -32.5720   25.7870 C   0  0  0  0  0  1  0  0  0  0  0  0
  1  2  1  0
  2  4  2  0
  3  2  1  0
  5  3  1  0
  6 19  1  0
  7 12  1  0
  8  9  1  0
  8  7  1  0
 10  9  1  0
 10 23  1  0
 10 11  1  0
 12  6  1  0
 12 11  1  0
 13  6  2  0
 14 16  1  0
 14 18  1  0
 15 17  1  0
 16 19  1  0
 18  3  1  0
 18 15  1  0
 19 17  1  0
 20 21  2  0
 21 40  1  0
 22 21  1  0
 22 25  1  0
 23 24  1  0
 23 20  1  0
 24 22  2  0
 25 26  1  0
 26 27  2  0
 28 31  1  0
 28 27  1  0
 29 28  2  0
 30 29  1  0
 30 25  2  0
 31 32  1  0
 32 33  1  0
 33 34  2  0
 35 34  1  0
 35 39  1  0
 36 35  2  0
 37 32  2  0
 37 36  1  0
 38 37  1  0
 40 41  1  0
 41 44  1  0
 41 43  1  0
 42 40  2  0
 45 20  1  0
 45 46  1  0
 47 45  1  0
 48  1  1  0
 49 48  1  0
 50 49  1  0
 51 50  1  0
 51 52  1  0
 52 53  1  0
 53 55  1  0
 54 65  2  0
 55 60  1  0
 56 64  1  0
 56 66  1  0
 57 63  1  0
 57 59  1  0
 58 64  1  0
 59 58  1  0
 60 59  2  0
 61 62  1  0
 61 55  2  0
 62 57  2  0
 63 56  1  0
 64 54  1  0
 66 68  2  0
 67 66  1  0
 69 67  1  0
 70 79  2  0
 70 75  1  0
 71 67  1  0
 71 75  1  0
 72 71  1  0
 73 74  1  0
 73 72  1  0
 74 70  1  0
 75 76  2  0
 76 77  1  0
 78 77  2  0
 79 78  1  0
 80 54  1  0
 80 81  1  0
 80 90  1  0
 81 84  1  0
 82 86  1  0
 82 81  1  0
 83 82  2  0
 86 85  1  0
 88 86  1  0
 88 89  1  0
 88 87  1  0
 90 93  1  1
 90 91  1  0
 92 90  1  0
M  ISO  4   6 100  19 100  52 101  53 101
M  END
>  <TORSDO>  (50) 
F 22

>  <SCORE>  (50) 
-12.768

>  <name>  (50) 
49

>  <ligand_id>  (50) 
49

>  <original_smiles>  (50) 
[H]c1c([H])c([H])c2c(c1[H])C([H])([H])C([H])([H])C([H])([H])C2([H])N([H])C(=O)C1([H])N(C(=O)C([H])(N([H])C(=O)C([H])(N([H])C([H])([H])[H])C([H])([H])[H])C(C([H])([H])[H])(C([H])([H])[H])C([H])([H])[H])C([H])([H])c2c([H])c(OC([H])([H])C([H])([H])C([H])([H])C([H])([H])C([H])([H])C([H])([H])C(=O)N([H])C3([H])C([H])([H])C([H])([H])N(C(=O)N4C([H])([H])C([H])([H])C([H])([H])C([H])(n5nc(-c6c([H])c([H])c(Oc7c([H])c([H])c(F)c([H])c7F)c([H])c6[H])c(C(=O)N([H])[H])c5N([H])[H])C4([H])[H])C([H])([H])C3([H])[H])c([H])c([H])c2C1([H])[H]

>  <smiles>  (50) 
[H]c1c([H])c([H])c2c(c1[H])C([H])([H])C([H])([H])C([H])([H])C2([H])N([H])C(=O)C1([H])N(C(=O)C([H])(N([H])C(=O)C([H])(N([H])C([H])([H])[H])C([H])([H])[H])C(C([H])([H])[H])(C([H])([H])[H])C([H])([H])[H])C([H])([H])c2c([H])c(OC([H])([H])C([H])([H])C([H])([H])C([H])([H])C([H])([H])C([H])([H])C(=O)N([H])C3([H])C([H])([H])C([H])([H])N(C(=O)N4C([H])([H])C([H])([H])C([H])([H])C([H])(n5nc(-c6c([H])c([H])c(Oc7c([H])c([H])c(F)c([H])c7F)c([H])c6[H])c(C(=O)N([H])[H])c5N([H])[H])C4([H])[H])C([H])([H])C3([H])[H])c([H])c([H])c2C1([H])[H]

$$$$
50:0:0
     RDKit          3D

 94102  0  0  1  0  0  0  0  0999 V2000
  -29.1580  -22.7840   18.9810 C   0  0  0  0  0  2  0  0  0  0  0  0
  -30.5050  -24.8230   19.5440 C   0  0  0  0  0  0  0  0  0  0  0  0
  -29.4920  -23.9730   19.7590 N   0  0  0  0  0  0  0  0  0  0  0  0
  -31.3330  -24.6710   18.6420 O   0  0  0  0  0  0  0  0  0  0  0  0
  -28.8480  -24.2250   20.4990 H   0  0  0  0  0  0  0  0  0  0  0  0
  -30.6140  -25.9980   20.5200 C   0  0  0  0  0  2  0  0  0  0  0  0
  -29.6570  -27.1650   20.2030 C   0  0  0  0  0  2  0  0  0  0  0  0
  -28.3360  -26.6380   20.1490 O   0  0  0  0  0  0  0  0  0  0  0  0
  -24.5650  -31.8720   23.2350 C   0  0  0  0  0  0  0  0  0  0  0  0
  -27.2340  -27.4590   20.1720 C   0  0  0  0  0  0  0  0  0  0  0  0
  -23.3620  -30.4660   21.5940 C   0  0  0  0  0  3  0  0  0  0  0  0
  -24.8220  -28.9300   20.1750 C   0  0  0  0  0  0  0  0  0  0  0  0
  -25.8840  -30.8380   21.3930 C   0  0  0  0  0  2  0  0  0  0  0  0
  -25.9770  -29.4680   20.7590 C   0  0  0  0  0  0  0  0  0  0  0  0
  -27.1890  -28.7450   20.7550 C   0  0  0  0  0  3  0  0  0  0  0  0
  -26.0620  -26.9220   19.6080 C   0  0  0  0  0  3  0  0  0  0  0  0
  -24.8590  -27.6530   19.5930 C   0  0  0  0  0  3  0  0  0  0  0  0
  -23.5730  -29.7810   20.2180 C   0  0  0  0  0  2  0  0  0  0  0  0
  -24.6220  -31.0720   22.1330 N   0  0  0  0  0  0  0  0  0  0  0  0
  -23.4850  -32.1440   23.7730 O   0  0  0  0  0  0  0  0  0  0  0  0
  -22.7100  -29.4470   22.5560 C   0  0  0  0  0  0  0  0  0  0  0  0
  -21.3860  -29.2660   22.4290 N   0  0  0  0  0  0  0  0  0  0  0  0
  -23.3930  -28.8200   23.3730 O   0  0  0  0  0  0  0  0  0  0  0  0
  -20.8990  -29.8210   21.7390 H   0  0  0  0  0  0  0  0  0  0  0  0
  -18.0080  -28.0900   22.9290 C   0  0  0  0  0  0  0  0  0  0  0  0
  -20.5670  -28.3340   23.2010 C   0  0  0  0  0  3  0  0  0  0  0  0
  -20.6620  -26.9020   22.6250 C   0  0  0  0  0  2  0  0  0  0  0  0
  -19.5560  -26.5860   21.6110 C   0  0  0  0  0  2  0  0  0  0  0  0
  -18.1760  -26.7390   22.2550 C   0  0  0  0  0  2  0  0  0  0  0  0
  -19.1300  -28.8460   23.3590 C   0  0  0  0  0  0  0  0  0  0  0  0
  -18.9190  -30.1120   23.9480 C   0  0  0  0  0  3  0  0  0  0  0  0
  -17.6170  -30.6220   24.1130 C   0  0  0  0  0  3  0  0  0  0  0  0
  -16.5080  -29.8620   23.7000 C   0  0  0  0  0  3  0  0  0  0  0  0
  -16.7050  -28.5980   23.1140 C   0  0  0  0  0  3  0  0  0  0  0  0
  -25.8530  -32.5030   23.8540 C   0  0  0  0  0  3  0  0  0  0  0  0
  -25.5450  -33.8990   24.1850 N   0  0  0  0  0  0  0  0  0  0  0  0
  -25.8860  -34.9510   23.4290 C   0  0  0  0  0  0  0  0  0  0  0  0
  -26.5640  -34.8480   22.4030 O   0  0  0  0  0  0  0  0  0  0  0  0
  -24.9400  -34.0530   24.9790 H   0  0  0  0  0  0  0  0  0  0  0  0
  -24.1660  -36.7490   23.0580 C   0  0  0  0  0  1  0  0  0  0  0  0
  -25.3960  -36.3400   23.8840 C   0  0  0  0  0  3  0  0  0  0  0  0
  -27.5240  -37.2140   24.7430 C   0  0  0  0  0  1  0  0  0  0  0  0
  -26.4330  -37.3900   23.7880 N   0  0  0  0  0  0  0  0  0  0  0  0
  -26.0290  -38.3100   23.9330 H   0  0  0  0  0  0  0  0  0  0  0  0
  -26.3770  -31.7280   25.1270 C   0  0  1  0  0  0  0  0  0  0  0  0
  -25.2870  -31.4870   26.1990 C   0  0  0  0  0  1  0  0  0  0  0  0
  -26.9580  -30.3520   24.7250 C   0  0  0  0  0  1  0  0  0  0  0  0
  -27.5290  -32.5220   25.7840 C   0  0  0  0  0  1  0  0  0  0  0  0
  -29.8080  -21.5270   19.5830 C   0  0  0  0  0  2  0  0  0  0  0  0
  -29.2840  -20.2190   18.9680 C   0  0  0  0  0  2  0  0  0  0  0  0
  -31.0610  -16.9530   18.7100 C   0  0  0  0  0  2  0  0  0  0  0  0
  -30.8860  -18.4180   18.2860 C   0  0  0  0  0  2  0  0  0  0  0  0
  -29.4570  -17.9920   20.1290 C   0  0  0  0  0  2  0  0  0  0  0  0
  -30.5070  -16.8770   20.1470 C   0  0  0  0  0  3  0  0  0  0  0  0
  -30.1300  -19.0710   19.3770 N   0  0  2  0  0  4  0  0  0  0  0  0
  -30.8260  -19.4350   20.0090 H   0  0  0  0  0  0  0  0  0  0  0  0
  -30.7170  -14.4330   20.4370 C   0  0  0  0  0  0  0  0  0  0  0  0
  -30.3570  -12.2720   19.3610 C   0  0  0  0  0  2  0  0  0  0  0  0
  -29.4380  -12.5080   18.1460 C   0  0  0  0  0  2  0  0  0  0  0  0
  -27.9590  -12.3970   18.5680 C   0  0  0  0  0  2  0  0  0  0  0  0
  -27.6220  -13.2390   19.8280 C   0  0  0  0  0  3  0  0  0  0  0  0
  -28.6750  -13.0510   20.9450 C   0  0  0  0  0  2  0  0  0  0  0  0
  -30.0050  -13.2850   20.3630 N   0  0  0  0  0  0  0  0  0  0  0  0
  -31.9090  -14.5060   20.1340 O   0  0  0  0  0  0  0  0  0  0  0  0
  -29.9880  -15.5540   20.5350 N   0  0  0  0  0  0  0  0  0  0  0  0
  -29.0050  -15.4620   20.7460 H   0  0  0  0  0  0  0  0  0  0  0  0
  -25.2250  -13.8470   20.5400 C   0  0  0  0  0  0  0  0  0  0  0  0
  -24.1550  -13.0780   20.9080 C   0  0  0  0  0  0  0  0  0  0  0  0
  -24.6120  -11.7260   20.8770 C   0  0  0  0  0  0  0  0  0  0  0  0
  -26.2690  -12.9640   20.3100 N   0  0  0  0  0  0  0  0  0  0  0  0
  -25.9030  -11.6820   20.5690 N   0  0  0  0  0  0  0  0  0  0  0  0
  -23.8810  -10.4650   21.0700 C   0  0  0  0  0  0  0  0  0  0  0  0
  -24.3150   -9.4910   21.9950 C   0  0  0  0  0  3  0  0  0  0  0  0
  -23.5870   -8.2960   22.1720 C   0  0  0  0  0  3  0  0  0  0  0  0
  -22.4080   -8.0660   21.4250 C   0  0  0  0  0  0  0  0  0  0  0  0
  -21.9920   -9.0280   20.4880 C   0  0  0  0  0  3  0  0  0  0  0  0
  -22.7210  -10.2150   20.3080 C   0  0  0  0  0  3  0  0  0  0  0  0
  -21.6510   -6.9230   21.5100 O   0  0  0  0  0  0  0  0  0  0  0  0
  -21.6120   -6.1690   22.6550 C   0  0  0  0  0  0  0  0  0  0  0  0
  -21.2090   -6.7150   23.8930 C   0  0  0  0  0  3  0  0  0  0  0  0
  -21.1170   -5.8890   25.0300 C   0  0  0  0  0  3  0  0  0  0  0  0
  -21.4190   -4.5170   24.9310 C   0  0  0  0  0  0  0  0  0  0  0  0
  -21.8160   -3.9700   23.6970 C   0  0  0  0  0  3  0  0  0  0  0  0
  -21.9090   -4.7950   22.5620 C   0  0  0  0  0  0  0  0  0  0  0  0
  -22.2720   -4.2590   21.3720 F   0  0  0  0  0  0  0  0  0  0  0  0
  -21.3250   -3.7210   26.0220 F   0  0  0  0  0  0  0  0  0  0  0  0
  -22.7570  -13.5590   21.1760 C   0  0  0  0  0  0  0  0  0  0  0  0
  -22.0230  -12.8660   22.0400 N   0  0  0  0  0  0  0  0  0  0  0  0
  -22.3230  -14.5860   20.6560 O   0  0  0  0  0  0  0  0  0  0  0  0
  -22.3850  -12.0400   22.4900 H   0  0  0  0  0  0  0  0  0  0  0  0
  -21.0860  -13.1740   22.2590 H   0  0  0  0  0  0  0  0  0  0  0  0
  -25.3910  -15.2170   20.3590 N   0  0  0  0  0  0  0  0  0  0  0  0
  -24.6110  -15.8610   20.4510 H   0  0  0  0  0  0  0  0  0  0  0  0
  -26.2290  -15.6530   19.9940 H   0  0  0  0  0  0  0  0  0  0  0  0
  1 49  1  0
  1  3  1  0
  2  3  1  0
  2  6  1  0
  3  5  1  0
  4  2  2  0
  7  6  1  0
  8 10  1  0
  8  7  1  0
  9 20  2  0
 10 15  1  0
 11 19  1  0
 11 21  1  0
 12 18  1  0
 12 14  1  0
 13 19  1  0
 14 13  1  0
 15 14  2  0
 16 10  2  0
 17 16  1  0
 17 12  2  0
 18 11  1  0
 19  9  1  0
 21 23  2  0
 22 21  1  0
 24 22  1  0
 25 34  2  0
 25 30  1  0
 26 22  1  0
 26 30  1  0
 27 26  1  0
 28 29  1  0
 28 27  1  0
 29 25  1  0
 30 31  2  0
 31 32  1  0
 33 32  2  0
 34 33  1  0
 35  9  1  0
 35 36  1  0
 35 45  1  0
 36 39  1  0
 37 41  1  0
 37 36  1  0
 38 37  2  0
 41 40  1  0
 43 41  1  0
 43 44  1  0
 43 42  1  0
 45 48  1  1
 45 46  1  0
 47 45  1  0
 50 55  1  0
 50 49  1  0
 51 54  1  0
 52 51  1  0
 52 55  1  0
 53 54  1  0
 54 65  1  0
 55 56  1  1
 55 53  1  0
 57 65  1  0
 58 63  1  0
 59 60  1  0
 59 58  1  0
 61 60  1  0
 61 70  1  0
 61 62  1  0
 63 57  1  0
 63 62  1  0
 64 57  2  0
 65 66  1  0
 67 68  2  0
 68 87  1  0
 69 68  1  0
 69 72  1  0
 70 67  1  0
 70 71  1  0
 71 69  2  0
 72 73  1  0
 73 74  2  0
 75 78  1  0
 75 74  1  0
 76 75  2  0
 77 76  1  0
 77 72  2  0
 78 79  1  0
 79 80  1  0
 80 81  2  0
 82 81  1  0
 82 86  1  0
 83 82  2  0
 84 79  2  0
 84 83  1  0
 85 84  1  0
 87 88  1  0
 88 91  1  0
 88 90  1  0
 89 87  2  0
 92 93  1  0
 92 67  1  0
 94 92  1  0
M  ISO  4   7 101   8 101  57 100  65 100
M  END
>  <TORSDO>  (51) 
F 22

>  <SCORE>  (51) 
-13.093

>  <name>  (51) 
50

>  <ligand_id>  (51) 
50

>  <original_smiles>  (51) 
[H]c1c([H])c([H])c2c(c1[H])C([H])([H])C([H])([H])C([H])([H])C2([H])N([H])C(=O)C1([H])N(C(=O)C([H])(N([H])C(=O)C([H])(N([H])C([H])([H])[H])C([H])([H])[H])C(C([H])([H])[H])(C([H])([H])[H])C([H])([H])[H])C([H])([H])c2c([H])c(OC([H])([H])C([H])([H])C(=O)N([H])C([H])([H])C([H])([H])C([H])([H])[N+]3([H])C([H])([H])C([H])([H])C([H])(N([H])C(=O)N4C([H])([H])C([H])([H])C([H])([H])C([H])(n5nc(-c6c([H])c([H])c(Oc7c([H])c([H])c(F)c([H])c7F)c([H])c6[H])c(C(=O)N([H])[H])c5N([H])[H])C4([H])[H])C3([H])[H])c([H])c([H])c2C1([H])[H]

>  <smiles>  (51) 
[H]c1c([H])c([H])c2c(c1[H])C([H])([H])C([H])([H])C([H])([H])C2([H])N([H])C(=O)C1([H])N(C(=O)C([H])(N([H])C(=O)C([H])(N([H])C([H])([H])[H])C([H])([H])[H])C(C([H])([H])[H])(C([H])([H])[H])C([H])([H])[H])C([H])([H])c2c([H])c(OC([H])([H])C([H])([H])C(=O)N([H])C([H])([H])C([H])([H])C([H])([H])[N+]3([H])C([H])([H])C([H])([H])C([H])(N([H])C(=O)N4C([H])([H])C([H])([H])C([H])([H])C([H])(n5nc(-c6c([H])c([H])c(Oc7c([H])c([H])c(F)c([H])c7F)c([H])c6[H])c(C(=O)N([H])[H])c5N([H])[H])C4([H])[H])C3([H])[H])c([H])c([H])c2C1([H])[H]

$$$$
51:0:0
     RDKit          3D

 99107  0  0  1  0  0  0  0  0999 V2000
  -26.0990  -21.5690   22.9990 C   0  0  0  0  0  2  0  0  0  0  0  0
  -26.2700  -20.0520   23.3020 C   0  0  0  0  0  2  0  0  0  0  0  0
  -29.9020  -20.0790   22.3370 C   0  0  0  0  0  2  0  0  0  0  0  0
  -30.4010  -18.7380   21.7710 C   0  0  0  0  0  2  0  0  0  0  0  0
  -28.5550  -17.0740   22.3870 C   0  0  0  0  0  2  0  0  0  0  0  0
  -28.7750  -20.0190   23.3780 C   0  0  0  0  0  2  0  0  0  0  0  0
  -27.5150  -17.9380   23.1420 C   0  0  0  0  0  2  0  0  0  0  0  0
  -30.0530  -17.4530   22.5650 C   0  0  0  0  0  3  0  0  0  0  0  0
  -27.5360  -19.3970   22.8360 N   0  0  1  0  0  4  0  0  0  0  0  0
  -27.5520  -19.4760   21.8290 H   0  0  0  0  0  0  0  0  0  0  0  0
  -32.1410  -16.1180   23.2410 C   0  0  0  0  0  1  0  0  0  0  0  0
  -31.0700  -16.3360   22.1560 C   0  0  0  0  0  3  0  0  0  0  0  0
  -30.8060  -14.3290   20.7000 C   0  0  0  0  0  0  0  0  0  0  0  0
  -30.4030  -12.2760   19.4010 C   0  0  0  0  0  2  0  0  0  0  0  0
  -29.4780  -12.5400   18.2010 C   0  0  0  0  0  2  0  0  0  0  0  0
  -28.0090  -12.3770   18.6200 C   0  0  0  0  0  2  0  0  0  0  0  0
  -27.6670  -13.2060   19.8860 C   0  0  0  0  0  3  0  0  0  0  0  0
  -28.7050  -12.9660   21.0080 C   0  0  0  0  0  2  0  0  0  0  0  0
  -30.0560  -13.2210   20.4750 N   0  0  0  0  0  0  0  0  0  0  0  0
  -31.7900  -14.6270   20.0180 O   0  0  0  0  0  0  0  0  0  0  0  0
  -30.4510  -15.0630   21.7640 N   0  0  0  0  0  0  0  0  0  0  0  0
  -29.6660  -14.7300   22.3020 H   0  0  0  0  0  0  0  0  0  0  0  0
  -25.2600  -13.8170   20.5690 C   0  0  0  0  0  0  0  0  0  0  0  0
  -24.1850  -13.0450   20.9160 C   0  0  0  0  0  0  0  0  0  0  0  0
  -24.6410  -11.6920   20.8750 C   0  0  0  0  0  0  0  0  0  0  0  0
  -26.3040  -12.9350   20.3420 N   0  0  0  0  0  0  0  0  0  0  0  0
  -25.9330  -11.6500   20.5790 N   0  0  0  0  0  0  0  0  0  0  0  0
  -23.9090  -10.4300   21.0420 C   0  0  0  0  0  0  0  0  0  0  0  0
  -24.3630   -9.4190   21.9190 C   0  0  0  0  0  3  0  0  0  0  0  0
  -23.6300   -8.2240   22.0750 C   0  0  0  0  0  3  0  0  0  0  0  0
  -22.4270   -8.0300   21.3550 C   0  0  0  0  0  0  0  0  0  0  0  0
  -21.9930   -9.0270   20.4650 C   0  0  0  0  0  3  0  0  0  0  0  0
  -22.7280  -10.2130   20.3060 C   0  0  0  0  0  3  0  0  0  0  0  0
  -21.6630   -6.8910   21.4260 O   0  0  0  0  0  0  0  0  0  0  0  0
  -21.6850   -6.0750   22.5290 C   0  0  0  0  0  0  0  0  0  0  0  0
  -21.4020   -6.5650   23.8220 C   0  0  0  0  0  3  0  0  0  0  0  0
  -21.3660   -5.6800   24.9180 C   0  0  0  0  0  3  0  0  0  0  0  0
  -21.6040   -4.3070   24.7240 C   0  0  0  0  0  0  0  0  0  0  0  0
  -21.8810   -3.8160   23.4370 C   0  0  0  0  0  3  0  0  0  0  0  0
  -21.9180   -4.6970   22.3410 C   0  0  0  0  0  0  0  0  0  0  0  0
  -22.1650   -4.2160   21.0990 F   0  0  0  0  0  0  0  0  0  0  0  0
  -21.5610   -3.4550   25.7740 F   0  0  0  0  0  0  0  0  0  0  0  0
  -22.7880  -13.5230   21.1830 C   0  0  0  0  0  0  0  0  0  0  0  0
  -22.0530  -12.8210   22.0390 N   0  0  0  0  0  0  0  0  0  0  0  0
  -22.3580  -14.5530   20.6680 O   0  0  0  0  0  0  0  0  0  0  0  0
  -22.4140  -11.9840   22.4720 H   0  0  0  0  0  0  0  0  0  0  0  0
  -21.1150  -13.1220   22.2610 H   0  0  0  0  0  0  0  0  0  0  0  0
  -25.4310  -15.1900   20.4080 N   0  0  0  0  0  0  0  0  0  0  0  0
  -24.6440  -15.8290   20.4500 H   0  0  0  0  0  0  0  0  0  0  0  0
  -26.2660  -15.6180   20.0290 H   0  0  0  0  0  0  0  0  0  0  0  0
  -25.7650  -21.9780   21.5360 C   0  0  0  0  0  2  0  0  0  0  0  0
  -26.7590  -22.8820   20.8960 N   0  0  0  0  0  4  0  0  0  0  0  0
  -26.4460  -23.0530   19.9500 H   0  0  0  0  0  0  0  0  0  0  0  0
  -27.6320  -22.3890   20.8170 H   0  0  0  0  0  0  0  0  0  0  0  0
  -27.0150  -24.1970   21.5410 C   0  0  0  0  0  2  0  0  0  0  0  0
  -28.4370  -24.7020   21.2160 C   0  0  0  0  0  3  0  0  0  0  0  0
  -28.8760  -25.4630   22.2220 F   0  0  0  0  0  0  0  0  0  0  0  0
  -28.6220  -25.4640   19.8860 C   0  0  0  0  0  2  0  0  0  0  0  0
  -28.4850  -26.8700   20.0530 O   0  0  0  0  0  0  0  0  0  0  0  0
  -24.6090  -31.8730   23.2090 C   0  0  0  0  0  0  0  0  0  0  0  0
  -27.2550  -27.4840   20.0770 C   0  0  0  0  0  0  0  0  0  0  0  0
  -23.3950  -30.4930   21.5480 C   0  0  0  0  0  3  0  0  0  0  0  0
  -24.8420  -28.9500   20.1210 C   0  0  0  0  0  0  0  0  0  0  0  0
  -25.9140  -30.8480   21.3510 C   0  0  0  0  0  2  0  0  0  0  0  0
  -25.9940  -29.4810   20.7090 C   0  0  0  0  0  0  0  0  0  0  0  0
  -27.1980  -28.7520   20.6890 C   0  0  0  0  0  3  0  0  0  0  0  0
  -26.0870  -26.9560   19.4800 C   0  0  0  0  0  3  0  0  0  0  0  0
  -24.8800  -27.6830   19.5070 C   0  0  0  0  0  3  0  0  0  0  0  0
  -23.6010  -29.8090   20.1670 C   0  0  0  0  0  2  0  0  0  0  0  0
  -24.6580  -31.0840   22.0960 N   0  0  0  0  0  0  0  0  0  0  0  0
  -23.5300  -32.1460   23.7500 O   0  0  0  0  0  0  0  0  0  0  0  0
  -22.7350  -29.4730   22.5000 C   0  0  0  0  0  0  0  0  0  0  0  0
  -21.4090  -29.3120   22.3740 N   0  0  0  0  0  0  0  0  0  0  0  0
  -23.4120  -28.8230   23.3010 O   0  0  0  0  0  0  0  0  0  0  0  0
  -20.9240  -29.8830   21.6980 H   0  0  0  0  0  0  0  0  0  0  0  0
  -18.0260  -28.1320   22.8580 C   0  0  0  0  0  0  0  0  0  0  0  0
  -20.5860  -28.3660   23.1250 C   0  0  0  0  0  3  0  0  0  0  0  0
  -20.6780  -26.9470   22.5130 C   0  0  0  0  0  2  0  0  0  0  0  0
  -19.5600  -26.6510   21.5070 C   0  0  0  0  0  2  0  0  0  0  0  0
  -18.1930  -26.7830   22.1800 C   0  0  0  0  0  2  0  0  0  0  0  0
  -19.1520  -28.8810   23.2910 C   0  0  0  0  0  0  0  0  0  0  0  0
  -18.9460  -30.1430   23.8870 C   0  0  0  0  0  3  0  0  0  0  0  0
  -17.6480  -30.6600   24.0520 C   0  0  0  0  0  3  0  0  0  0  0  0
  -16.5350  -29.9080   23.6350 C   0  0  0  0  0  3  0  0  0  0  0  0
  -16.7250  -28.6470   23.0430 C   0  0  0  0  0  3  0  0  0  0  0  0
  -25.9000  -32.4840   23.8370 C   0  0  0  0  0  3  0  0  0  0  0  0
  -25.5880  -33.8640   24.2310 N   0  0  0  0  0  0  0  0  0  0  0  0
  -25.9030  -34.9490   23.5120 C   0  0  0  0  0  0  0  0  0  0  0  0
  -26.5610  -34.8940   22.4690 O   0  0  0  0  0  0  0  0  0  0  0  0
  -25.0030  -33.9780   25.0460 H   0  0  0  0  0  0  0  0  0  0  0  0
  -24.1490  -36.7330   23.2640 C   0  0  0  0  0  1  0  0  0  0  0  0
  -25.4110  -36.3130   24.0350 C   0  0  0  0  0  3  0  0  0  0  0  0
  -27.5580  -37.1820   24.8470 C   0  0  0  0  0  1  0  0  0  0  0  0
  -26.4300  -37.3800   23.9410 N   0  0  0  0  0  0  0  0  0  0  0  0
  -26.0200  -38.2870   24.1410 H   0  0  0  0  0  0  0  0  0  0  0  0
  -26.4450  -31.6600   25.0680 C   0  0  1  0  0  0  0  0  0  0  0  0
  -25.3740  -31.3690   26.1450 C   0  0  0  0  0  1  0  0  0  0  0  0
  -27.0240  -30.3030   24.6000 C   0  0  0  0  0  1  0  0  0  0  0  0
  -27.6050  -32.4300   25.7430 C   0  0  0  0  0  1  0  0  0  0  0  0
  1  2  1  0
  3  6  1  0
  4  3  1  0
  4  8  1  0
  5  8  1  0
  5  7  1  0
  8 12  1  0
  9  7  1  0
  9  2  1  0
  9  6  1  0
  9 10  1  6
 12 11  1  0
 13 21  1  0
 14 19  1  0
 15 16  1  0
 15 14  1  0
 17 16  1  0
 17 26  1  0
 17 18  1  0
 19 13  1  0
 19 18  1  0
 20 13  2  0
 21 12  1  0
 21 22  1  0
 23 24  2  0
 24 43  1  0
 25 24  1  0
 25 28  1  0
 26 23  1  0
 26 27  1  0
 27 25  2  0
 28 29  1  0
 29 30  2  0
 31 34  1  0
 31 30  1  0
 32 31  2  0
 33 32  1  0
 33 28  2  0
 34 35  1  0
 35 36  1  0
 36 37  2  0
 38 37  1  0
 38 42  1  0
 39 38  2  0
 40 35  2  0
 40 39  1  0
 41 40  1  0
 43 44  1  0
 44 47  1  0
 44 46  1  0
 45 43  2  0
 48 49  1  0
 48 23  1  0
 50 48  1  0
 51  1  1  0
 52 51  1  0
 52 55  1  0
 53 52  1  0
 54 52  1  0
 56 55  1  0
 56 57  1  0
 58 59  1  0
 58 56  1  0
 59 61  1  0
 60 71  2  0
 61 66  1  0
 62 70  1  0
 62 72  1  0
 63 69  1  0
 63 65  1  0
 64 70  1  0
 65 64  1  0
 66 65  2  0
 67 68  1  0
 67 61  2  0
 68 63  2  0
 69 62  1  0
 70 60  1  0
 72 74  2  0
 73 72  1  0
 75 73  1  0
 76 85  2  0
 76 81  1  0
 77 73  1  0
 77 81  1  0
 78 77  1  0
 79 80  1  0
 79 78  1  0
 80 76  1  0
 81 82  2  0
 82 83  1  0
 84 83  2  0
 85 84  1  0
 86 60  1  0
 86 87  1  0
 86 96  1  0
 87 90  1  0
 88 92  1  0
 88 87  1  0
 89 88  2  0
 92 91  1  0
 94 92  1  0
 94 95  1  0
 94 93  1  0
 96 99  1  1
 96 97  1  0
 98 96  1  0
M  ISO  4  13 100  21 100  58 101  59 101
M  END
>  <TORSDO>  (52) 
F 24

>  <SCORE>  (52) 
31.659

>  <name>  (52) 
51

>  <ligand_id>  (52) 
51

>  <original_smiles>  (52) 
[H]c1c([H])c([H])c2c(c1[H])C([H])([H])C([H])([H])C([H])([H])C2([H])N([H])C(=O)C1([H])N(C(=O)C([H])(N([H])C(=O)C([H])(N([H])C([H])([H])[H])C([H])([H])[H])C(C([H])([H])[H])(C([H])([H])[H])C([H])([H])[H])C([H])([H])c2c([H])c(OC([H])([H])C([H])(F)C([H])([H])[N+]([H])([H])C([H])([H])C([H])([H])C([H])([H])[N+]3([H])C([H])([H])C([H])([H])C([H])([H])C([H])(C([H])(N([H])C(=O)N4C([H])([H])C([H])([H])C([H])([H])C([H])(n5nc(-c6c([H])c([H])c(Oc7c([H])c([H])c(F)c([H])c7F)c([H])c6[H])c(C(=O)N([H])[H])c5N([H])[H])C4([H])[H])C([H])([H])[H])C([H])([H])C3([H])[H])c([H])c([H])c2C1([H])[H]

>  <smiles>  (52) 
[H]c1c([H])c([H])c2c(c1[H])C([H])([H])C([H])([H])C([H])([H])C2([H])N([H])C(=O)C1([H])N(C(=O)C([H])(N([H])C(=O)C([H])(N([H])C([H])([H])[H])C([H])([H])[H])C(C([H])([H])[H])(C([H])([H])[H])C([H])([H])[H])C([H])([H])c2c([H])c(OC([H])([H])C([H])(F)C([H])([H])[N+]([H])([H])C([H])([H])C([H])([H])C([H])([H])[N+]3([H])C([H])([H])C([H])([H])C([H])([H])C([H])(C([H])(N([H])C(=O)N4C([H])([H])C([H])([H])C([H])([H])C([H])(n5nc(-c6c([H])c([H])c(Oc7c([H])c([H])c(F)c([H])c7F)c([H])c6[H])c(C(=O)N([H])[H])c5N([H])[H])C4([H])[H])C([H])([H])[H])C([H])([H])C3([H])[H])c([H])c([H])c2C1([H])[H]

$$$$
52:0:0
     RDKit          3D

 93101  0  0  1  0  0  0  0  0999 V2000
  -27.2900  -22.7550   20.8860 N   0  0  0  0  0  4  0  0  0  0  0  0
  -27.4640  -22.3000   21.7680 H   0  0  0  0  0  0  0  0  0  0  0  0
  -26.3740  -23.1710   20.9400 H   0  0  0  0  0  0  0  0  0  0  0  0
  -27.2220  -21.7350   19.8200 C   0  0  0  0  0  2  0  0  0  0  0  0
  -28.3140  -20.6500   19.9440 C   0  0  0  0  0  2  0  0  0  0  0  0
  -27.7150  -19.2310   20.0210 C   0  0  0  0  0  2  0  0  0  0  0  0
  -30.8570  -14.5380   20.0410 C   0  0  0  0  0  0  0  0  0  0  0  0
  -30.5180  -12.3730   18.9380 C   0  0  0  0  0  2  0  0  0  0  0  0
  -29.5230  -12.5880   17.7780 C   0  0  0  0  0  2  0  0  0  0  0  0
  -28.0640  -12.4770   18.2700 C   0  0  0  0  0  2  0  0  0  0  0  0
  -27.7890  -13.2960   19.5600 C   0  0  0  0  0  3  0  0  0  0  0  0
  -28.8980  -13.0370   20.6080 C   0  0  0  0  0  2  0  0  0  0  0  0
  -30.1860  -13.3570   19.9770 N   0  0  0  0  0  0  0  0  0  0  0  0
  -32.0110  -14.6600   19.6190 O   0  0  0  0  0  0  0  0  0  0  0  0
  -29.2280  -17.7020   18.8280 C   0  0  0  0  0  0  0  0  0  0  0  0
  -30.2410  -16.5610   18.9020 C   0  0  0  0  0  2  0  0  0  0  0  0
  -29.1990  -17.6360   21.2720 C   0  0  0  0  0  2  0  0  0  0  0  0
  -29.3260  -16.1030   21.2230 C   0  0  0  0  0  2  0  0  0  0  0  0
  -28.7380  -18.1800   19.9900 N   0  0  0  0  0  0  0  0  0  0  0  0
  -30.0580  -15.6300   20.0340 N   0  0  0  0  0  0  0  0  0  0  0  0
  -28.8750  -18.1230   17.7220 O   0  0  0  0  0  0  0  0  0  0  0  0
  -25.4290  -13.9160   20.3810 C   0  0  0  0  0  0  0  0  0  0  0  0
  -24.3730  -13.1450   20.7890 C   0  0  0  0  0  0  0  0  0  0  0  0
  -24.8220  -11.7920   20.7180 C   0  0  0  0  0  0  0  0  0  0  0  0
  -26.4570  -13.0290   20.0940 N   0  0  0  0  0  0  0  0  0  0  0  0
  -26.0950  -11.7460   20.3500 N   0  0  0  0  0  0  0  0  0  0  0  0
  -24.0970  -10.5300   20.9240 C   0  0  0  0  0  0  0  0  0  0  0  0
  -24.5320   -9.5740   21.8680 C   0  0  0  0  0  3  0  0  0  0  0  0
  -23.8100   -8.3770   22.0600 C   0  0  0  0  0  3  0  0  0  0  0  0
  -22.6380   -8.1280   21.3050 C   0  0  0  0  0  0  0  0  0  0  0  0
  -22.2210   -9.0730   20.3510 C   0  0  0  0  0  3  0  0  0  0  0  0
  -22.9450  -10.2620   20.1590 C   0  0  0  0  0  3  0  0  0  0  0  0
  -21.8850   -6.9840   21.4050 O   0  0  0  0  0  0  0  0  0  0  0  0
  -21.7900   -6.2860   22.5830 C   0  0  0  0  0  0  0  0  0  0  0  0
  -21.3160   -6.8880   23.7680 C   0  0  0  0  0  3  0  0  0  0  0  0
  -21.1690   -6.1150   24.9380 C   0  0  0  0  0  3  0  0  0  0  0  0
  -21.4860   -4.7450   24.9230 C   0  0  0  0  0  0  0  0  0  0  0  0
  -21.9530   -4.1430   23.7400 C   0  0  0  0  0  3  0  0  0  0  0  0
  -22.1010   -4.9120   22.5730 C   0  0  0  0  0  0  0  0  0  0  0  0
  -22.5330   -4.3240   21.4310 F   0  0  0  0  0  0  0  0  0  0  0  0
  -21.3360   -4.0000   26.0430 F   0  0  0  0  0  0  0  0  0  0  0  0
  -22.9930  -13.6270   21.1340 C   0  0  0  0  0  0  0  0  0  0  0  0
  -22.3090  -12.9330   22.0370 N   0  0  0  0  0  0  0  0  0  0  0  0
  -22.5320  -14.6530   20.6370 O   0  0  0  0  0  0  0  0  0  0  0  0
  -22.6940  -12.1000   22.4590 H   0  0  0  0  0  0  0  0  0  0  0  0
  -21.3880  -13.2400   22.3120 H   0  0  0  0  0  0  0  0  0  0  0  0
  -25.5960  -15.2860   20.2120 N   0  0  0  0  0  0  0  0  0  0  0  0
  -24.8390  -15.9450   20.3640 H   0  0  0  0  0  0  0  0  0  0  0  0
  -26.4350  -15.7170   19.8450 H   0  0  0  0  0  0  0  0  0  0  0  0
  -28.2650  -23.8480   20.6790 C   0  0  0  0  0  2  0  0  0  0  0  0
  -28.0900  -24.9430   21.7510 C   0  0  0  0  0  2  0  0  0  0  0  0
  -28.9050  -26.2190   21.4770 C   0  0  0  0  0  2  0  0  0  0  0  0
  -28.5030  -26.8190   20.2510 O   0  0  0  0  0  0  0  0  0  0  0  0
  -24.5920  -31.9570   23.2950 C   0  0  0  0  0  0  0  0  0  0  0  0
  -27.3340  -27.5350   20.2970 C   0  0  0  0  0  0  0  0  0  0  0  0
  -23.4260  -30.5320   21.6410 C   0  0  0  0  0  3  0  0  0  0  0  0
  -24.9200  -28.9880   20.2630 C   0  0  0  0  0  0  0  0  0  0  0  0
  -25.9470  -30.9120   21.4860 C   0  0  0  0  0  2  0  0  0  0  0  0
  -26.0570  -29.5330   20.8730 C   0  0  0  0  0  0  0  0  0  0  0  0
  -27.2660  -28.8080   20.9020 C   0  0  0  0  0  3  0  0  0  0  0  0
  -26.1900  -26.9990   19.6740 C   0  0  0  0  0  3  0  0  0  0  0  0
  -24.9780  -27.7140   19.6660 C   0  0  0  0  0  3  0  0  0  0  0  0
  -23.6680  -29.8340   20.2750 C   0  0  0  0  0  2  0  0  0  0  0  0
  -24.6730  -31.1480   22.2000 N   0  0  0  0  0  0  0  0  0  0  0  0
  -23.5010  -32.2290   23.8110 O   0  0  0  0  0  0  0  0  0  0  0  0
  -22.7630  -29.5150   22.5990 C   0  0  0  0  0  0  0  0  0  0  0  0
  -21.4390  -29.3420   22.4620 N   0  0  0  0  0  0  0  0  0  0  0  0
  -23.4390  -28.8860   23.4170 O   0  0  0  0  0  0  0  0  0  0  0  0
  -20.9570  -29.9080   21.7780 H   0  0  0  0  0  0  0  0  0  0  0  0
  -18.0480  -28.1960   22.9510 C   0  0  0  0  0  0  0  0  0  0  0  0
  -20.6090  -28.4100   23.2230 C   0  0  0  0  0  3  0  0  0  0  0  0
  -20.6870  -26.9820   22.6340 C   0  0  0  0  0  2  0  0  0  0  0  0
  -19.5790  -26.6870   21.6180 C   0  0  0  0  0  2  0  0  0  0  0  0
  -18.2010  -26.8500   22.2650 C   0  0  0  0  0  2  0  0  0  0  0  0
  -19.1780  -28.9370   23.3870 C   0  0  0  0  0  0  0  0  0  0  0  0
  -18.9810  -30.2000   23.9850 C   0  0  0  0  0  3  0  0  0  0  0  0
  -17.6860  -30.7220   24.1510 C   0  0  0  0  0  3  0  0  0  0  0  0
  -16.5690  -29.9780   23.7320 C   0  0  0  0  0  3  0  0  0  0  0  0
  -16.7510  -28.7160   23.1380 C   0  0  0  0  0  3  0  0  0  0  0  0
  -25.8650  -32.5970   23.9330 C   0  0  0  0  0  3  0  0  0  0  0  0
  -26.3530  -31.8490   25.2350 C   0  0  1  0  0  0  0  0  0  0  0  0
  -25.2330  -31.6270   26.2800 C   0  0  0  0  0  1  0  0  0  0  0  0
  -26.9460  -30.4660   24.8760 C   0  0  0  0  0  1  0  0  0  0  0  0
  -27.4880  -32.6550   25.9080 C   0  0  0  0  0  1  0  0  0  0  0  0
  -25.5520  -34.0020   24.2260 N   0  0  0  0  0  0  0  0  0  0  0  0
  -25.9040  -35.0360   23.4500 C   0  0  0  0  0  0  0  0  0  0  0  0
  -26.5980  -34.9080   22.4370 O   0  0  0  0  0  0  0  0  0  0  0  0
  -24.9400  -34.1750   25.0100 H   0  0  0  0  0  0  0  0  0  0  0  0
  -24.1810  -36.8180   23.0150 C   0  0  0  0  0  1  0  0  0  0  0  0
  -25.4050  -36.4360   23.8620 C   0  0  0  0  0  3  0  0  0  0  0  0
  -27.5210  -37.3410   24.7140 C   0  0  0  0  0  1  0  0  0  0  0  0
  -26.4370  -37.4860   23.7440 N   0  0  0  0  0  0  0  0  0  0  0  0
  -26.0290  -38.4090   23.8630 H   0  0  0  0  0  0  0  0  0  0  0  0
  1  3  1  0
  1  2  1  0
  4  5  1  0
  4  1  1  0
  5  6  1  0
  8 13  1  0
  9 10  1  0
  9  8  1  0
 11 10  1  0
 11 25  1  0
 11 12  1  0
 13  7  1  0
 13 12  1  0
 14  7  2  0
 15 16  1  0
 15 19  1  0
 16 20  1  0
 18 17  1  0
 19  6  1  0
 19 17  1  0
 20  7  1  0
 20 18  1  0
 21 15  2  0
 22 23  2  0
 23 42  1  0
 24 23  1  0
 24 27  1  0
 25 26  1  0
 25 22  1  0
 26 24  2  0
 27 28  1  0
 28 29  2  0
 30 33  1  0
 30 29  1  0
 31 30  2  0
 32 31  1  0
 32 27  2  0
 33 34  1  0
 34 35  1  0
 35 36  2  0
 37 36  1  0
 37 41  1  0
 38 37  2  0
 39 34  2  0
 39 38  1  0
 40 39  1  0
 42 43  1  0
 43 46  1  0
 43 45  1  0
 44 42  2  0
 47 48  1  0
 47 22  1  0
 49 47  1  0
 50  1  1  0
 50 51  1  0
 52 51  1  0
 53 55  1  0
 53 52  1  0
 54 65  2  0
 55 60  1  0
 56 64  1  0
 56 66  1  0
 57 63  1  0
 57 59  1  0
 58 64  1  0
 59 60  2  0
 59 58  1  0
 61 55  2  0
 62 61  1  0
 62 57  2  0
 63 56  1  0
 64 54  1  0
 66 68  2  0
 67 66  1  0
 69 67  1  0
 70 79  2  0
 70 75  1  0
 71 67  1  0
 71 75  1  0
 72 71  1  0
 73 74  1  0
 73 72  1  0
 74 70  1  0
 75 76  2  0
 76 77  1  0
 78 77  2  0
 79 78  1  0
 80 54  1  0
 80 85  1  0
 80 81  1  0
 81 84  1  1
 81 82  1  0
 83 81  1  0
 85 88  1  0
 86 90  1  0
 86 85  1  0
 87 86  2  0
 90 89  1  0
 92 90  1  0
 92 93  1  0
 92 91  1  0
M  ISO  4   7 100  20 100  52 101  53 101
M  END
>  <TORSDO>  (53) 
F 22

>  <SCORE>  (53) 
-12.815

>  <name>  (53) 
52

>  <ligand_id>  (53) 
52

>  <original_smiles>  (53) 
[H]c1c([H])c([H])c2c(c1[H])C([H])([H])C([H])([H])C([H])([H])C2([H])N([H])C(=O)C1([H])N(C(=O)C([H])(N([H])C(=O)C([H])(N([H])C([H])([H])[H])C([H])([H])[H])C(C([H])([H])[H])(C([H])([H])[H])C([H])([H])[H])C([H])([H])c2c([H])c(OC([H])([H])C([H])([H])C([H])([H])[N+]([H])([H])C([H])([H])C([H])([H])C([H])([H])N3C(=O)C([H])([H])N(C(=O)N4C([H])([H])C([H])([H])C([H])([H])C([H])(n5nc(-c6c([H])c([H])c(Oc7c([H])c([H])c(F)c([H])c7F)c([H])c6[H])c(C(=O)N([H])[H])c5N([H])[H])C4([H])[H])C([H])([H])C3([H])[H])c([H])c([H])c2C1([H])[H]

>  <smiles>  (53) 
[H]c1c([H])c([H])c2c(c1[H])C([H])([H])C([H])([H])C([H])([H])C2([H])N([H])C(=O)C1([H])N(C(=O)C([H])(N([H])C(=O)C([H])(N([H])C([H])([H])[H])C([H])([H])[H])C(C([H])([H])[H])(C([H])([H])[H])C([H])([H])[H])C([H])([H])c2c([H])c(OC([H])([H])C([H])([H])C([H])([H])[N+]([H])([H])C([H])([H])C([H])([H])C([H])([H])N3C(=O)C([H])([H])N(C(=O)N4C([H])([H])C([H])([H])C([H])([H])C([H])(n5nc(-c6c([H])c([H])c(Oc7c([H])c([H])c(F)c([H])c7F)c([H])c6[H])c(C(=O)N([H])[H])c5N([H])[H])C4([H])[H])C([H])([H])C3([H])[H])c([H])c([H])c2C1([H])[H]

$$$$
53:0:0
     RDKit          3D

 94102  0  0  1  0  0  0  0  0999 V2000
  -26.7630  -21.4050   20.2070 C   0  0  0  0  0  2  0  0  0  0  0  0
  -27.8300  -22.2730   19.6660 N   0  0  0  0  0  4  0  0  0  0  0  0
  -28.6850  -21.9890   20.1200 H   0  0  0  0  0  0  0  0  0  0  0  0
  -27.9270  -22.0480   18.6890 H   0  0  0  0  0  0  0  0  0  0  0  0
  -27.6130  -23.7320   19.8040 C   0  0  0  0  0  2  0  0  0  0  0  0
  -28.8980  -24.5270   19.4900 C   0  0  0  0  0  2  0  0  0  0  0  0
  -28.6930  -25.8950   18.8140 C   0  0  0  0  0  2  0  0  0  0  0  0
  -28.4340  -26.9340   19.7570 O   0  0  0  0  0  0  0  0  0  0  0  0
  -24.5260  -31.7670   23.1590 C   0  0  0  0  0  0  0  0  0  0  0  0
  -27.2080  -27.5640   19.7980 C   0  0  0  0  0  0  0  0  0  0  0  0
  -23.3140  -30.4160   21.4830 C   0  0  0  0  0  3  0  0  0  0  0  0
  -24.7670  -28.9840   19.9500 C   0  0  0  0  0  0  0  0  0  0  0  0
  -25.8210  -30.8500   21.2390 C   0  0  0  0  0  2  0  0  0  0  0  0
  -25.9230  -29.5140   20.5360 C   0  0  0  0  0  0  0  0  0  0  0  0
  -27.1400  -28.8060   20.4650 C   0  0  0  0  0  3  0  0  0  0  0  0
  -26.0300  -27.0370   19.2210 C   0  0  0  0  0  3  0  0  0  0  0  0
  -24.8150  -27.7430   19.2950 C   0  0  0  0  0  3  0  0  0  0  0  0
  -23.5040  -29.8110   20.0650 C   0  0  0  0  0  2  0  0  0  0  0  0
  -24.5730  -31.0230   22.0210 N   0  0  0  0  0  0  0  0  0  0  0  0
  -23.4540  -31.9860   23.7370 O   0  0  0  0  0  0  0  0  0  0  0  0
  -22.7130  -29.3320   22.4060 C   0  0  0  0  0  0  0  0  0  0  0  0
  -21.3960  -29.1050   22.2840 N   0  0  0  0  0  0  0  0  0  0  0  0
  -23.4290  -28.6970   23.1860 O   0  0  0  0  0  0  0  0  0  0  0  0
  -20.8750  -29.6860   21.6440 H   0  0  0  0  0  0  0  0  0  0  0  0
  -18.0890  -27.7110   22.7140 C   0  0  0  0  0  0  0  0  0  0  0  0
  -20.6240  -28.1000   23.0160 C   0  0  0  0  0  3  0  0  0  0  0  0
  -20.8160  -26.6950   22.4000 C   0  0  0  0  0  2  0  0  0  0  0  0
  -19.7350  -26.3300   21.3770 C   0  0  0  0  0  2  0  0  0  0  0  0
  -18.3450  -26.3870   22.0110 C   0  0  0  0  0  2  0  0  0  0  0  0
  -19.1600  -28.5220   23.1720 C   0  0  0  0  0  0  0  0  0  0  0  0
  -18.8700  -29.7550   23.7910 C   0  0  0  0  0  3  0  0  0  0  0  0
  -17.5400  -30.1870   23.9530 C   0  0  0  0  0  3  0  0  0  0  0  0
  -16.4820  -29.3730   23.5110 C   0  0  0  0  0  3  0  0  0  0  0  0
  -16.7580  -28.1390   22.8980 C   0  0  0  0  0  3  0  0  0  0  0  0
  -25.8120  -32.4000   23.7770 C   0  0  0  0  0  3  0  0  0  0  0  0
  -25.4900  -33.7850   24.1450 N   0  0  0  0  0  0  0  0  0  0  0  0
  -25.7980  -34.8580   23.4030 C   0  0  0  0  0  0  0  0  0  0  0  0
  -26.4550  -34.7860   22.3630 O   0  0  0  0  0  0  0  0  0  0  0  0
  -24.9040  -33.9170   24.9560 H   0  0  0  0  0  0  0  0  0  0  0  0
  -24.0340  -36.6290   23.1160 C   0  0  0  0  0  1  0  0  0  0  0  0
  -25.2970  -36.2300   23.8970 C   0  0  0  0  0  3  0  0  0  0  0  0
  -27.4320  -37.1350   24.7020 C   0  0  0  0  0  1  0  0  0  0  0  0
  -26.3100  -37.3020   23.7830 N   0  0  0  0  0  0  0  0  0  0  0  0
  -25.8930  -38.2140   23.9550 H   0  0  0  0  0  0  0  0  0  0  0  0
  -26.3570  -31.6050   25.0260 C   0  0  1  0  0  0  0  0  0  0  0  0
  -25.2850  -31.3350   26.1060 C   0  0  0  0  0  1  0  0  0  0  0  0
  -26.9490  -30.2440   24.5930 C   0  0  0  0  0  1  0  0  0  0  0  0
  -27.5110  -32.3960   25.6880 C   0  0  0  0  0  1  0  0  0  0  0  0
  -26.9520  -19.9560   19.7070 C   0  0  0  0  0  2  0  0  0  0  0  0
  -29.1560  -20.0320   20.7760 C   0  0  0  0  0  2  0  0  0  0  0  0
  -28.6000  -18.1660   19.4680 C   0  0  0  0  0  2  0  0  0  0  0  0
  -30.4570  -19.2470   20.6020 C   0  0  0  0  0  3  0  0  0  0  0  0
  -29.9440  -17.8690   20.1630 C   0  0  0  0  0  3  0  0  0  0  0  0
  -31.4040  -19.9680   19.6260 C   0  0  0  0  0  1  0  0  0  0  0  0
  -28.3770  -19.6120   19.6150 N   0  0  0  0  0  0  0  0  0  0  0  0
  -30.9230  -16.9580   19.3690 C   0  0  0  0  0  2  0  0  0  0  0  0
  -31.4470  -14.4890   19.3130 C   0  0  0  0  0  0  0  0  0  0  0  0
  -31.2200  -12.0580   18.9450 C   0  0  0  0  0  2  0  0  0  0  0  0
  -30.2100  -11.8360   17.8040 C   0  0  0  0  0  2  0  0  0  0  0  0
  -28.7590  -11.8450   18.3310 C   0  0  0  0  0  2  0  0  0  0  0  0
  -28.4610  -13.0580   19.2540 C   0  0  0  0  0  3  0  0  0  0  0  0
  -29.5630  -13.1750   20.3260 C   0  0  0  0  0  2  0  0  0  0  0  0
  -30.8560  -13.3070   19.6270 N   0  0  0  0  0  0  0  0  0  0  0  0
  -32.4600  -14.5890   18.6130 O   0  0  0  0  0  0  0  0  0  0  0  0
  -30.7570  -15.5530   19.7480 N   0  0  0  0  0  0  0  0  0  0  0  0
  -29.9790  -15.3310   20.3470 H   0  0  0  0  0  0  0  0  0  0  0  0
  -26.2490  -13.9800   20.2080 C   0  0  0  0  0  0  0  0  0  0  0  0
  -25.1230  -13.3500   20.6640 C   0  0  0  0  0  0  0  0  0  0  0  0
  -25.3750  -11.9510   20.5340 C   0  0  0  0  0  0  0  0  0  0  0  0
  -27.1280  -12.9670   19.8490 N   0  0  0  0  0  0  0  0  0  0  0  0
  -26.6070  -11.7400   20.0940 N   0  0  0  0  0  0  0  0  0  0  0  0
  -24.4960  -10.7960   20.7570 C   0  0  0  0  0  0  0  0  0  0  0  0
  -24.8440   -9.7670   21.6590 C   0  0  0  0  0  3  0  0  0  0  0  0
  -23.9750   -8.6740   21.8680 C   0  0  0  0  0  3  0  0  0  0  0  0
  -22.7430   -8.6050   21.1760 C   0  0  0  0  0  0  0  0  0  0  0  0
  -22.4140   -9.6180   20.2600 C   0  0  0  0  0  3  0  0  0  0  0  0
  -23.2810  -10.7030   20.0490 C   0  0  0  0  0  3  0  0  0  0  0  0
  -21.8500   -7.5680   21.2970 O   0  0  0  0  0  0  0  0  0  0  0  0
  -21.7200   -6.8610   22.4650 C   0  0  0  0  0  0  0  0  0  0  0  0
  -21.3770   -7.4880   23.6820 C   0  0  0  0  0  3  0  0  0  0  0  0
  -21.1860   -6.7130   24.8440 C   0  0  0  0  0  3  0  0  0  0  0  0
  -21.3290   -5.3140   24.7880 C   0  0  0  0  0  0  0  0  0  0  0  0
  -21.6640   -4.6870   23.5750 C   0  0  0  0  0  3  0  0  0  0  0  0
  -21.8570   -5.4590   22.4160 C   0  0  0  0  0  0  0  0  0  0  0  0
  -22.1600   -4.8470   21.2460 F   0  0  0  0  0  0  0  0  0  0  0  0
  -21.1370   -4.5680   25.9010 F   0  0  0  0  0  0  0  0  0  0  0  0
  -23.8440  -14.0040   21.1020 C   0  0  0  0  0  0  0  0  0  0  0  0
  -23.1350  -13.3920   22.0440 N   0  0  0  0  0  0  0  0  0  0  0  0
  -23.4920  -15.0910   20.6480 O   0  0  0  0  0  0  0  0  0  0  0  0
  -23.4360  -12.5100   22.4340 H   0  0  0  0  0  0  0  0  0  0  0  0
  -22.2810  -13.8120   22.3850 H   0  0  0  0  0  0  0  0  0  0  0  0
  -26.5950  -15.3190   20.0550 N   0  0  0  0  0  0  0  0  0  0  0  0
  -25.9360  -16.0690   20.2340 H   0  0  0  0  0  0  0  0  0  0  0  0
  -27.4480  -15.6350   19.6170 H   0  0  0  0  0  0  0  0  0  0  0  0
  2  5  1  0
  2  3  1  0
  2  1  1  0
  4  2  1  0
  6  5  1  0
  7  6  1  0
  7  8  1  0
  8 10  1  0
  9 20  2  0
 10 15  1  0
 11 19  1  0
 11 21  1  0
 12 18  1  0
 12 14  1  0
 13 19  1  0
 14 13  1  0
 15 14  2  0
 16 17  1  0
 16 10  2  0
 17 12  2  0
 18 11  1  0
 19  9  1  0
 21 23  2  0
 22 21  1  0
 24 22  1  0
 25 34  2  0
 25 30  1  0
 26 22  1  0
 26 30  1  0
 27 26  1  0
 28 29  1  0
 28 27  1  0
 29 25  1  0
 30 31  2  0
 31 32  1  0
 33 32  2  0
 34 33  1  0
 35  9  1  0
 35 36  1  0
 35 45  1  0
 36 39  1  0
 37 41  1  0
 37 36  1  0
 38 37  2  0
 41 40  1  0
 43 41  1  0
 43 44  1  0
 43 42  1  0
 45 48  1  1
 45 46  1  0
 47 45  1  0
 49  1  1  0
 51 55  1  0
 51 53  1  0
 52 54  1  0
 52 50  1  0
 53 56  1  0
 53 52  1  0
 55 49  1  0
 55 50  1  0
 56 65  1  0
 57 63  1  0
 57 65  1  0
 58 63  1  0
 59 60  1  0
 59 58  1  0
 61 60  1  0
 61 70  1  0
 61 62  1  0
 63 62  1  0
 64 57  2  0
 65 66  1  0
 67 68  2  0
 68 87  1  0
 69 68  1  0
 69 72  1  0
 70 71  1  0
 70 67  1  0
 71 69  2  0
 72 73  1  0
 73 74  2  0
 75 78  1  0
 75 74  1  0
 76 75  2  0
 77 76  1  0
 77 72  2  0
 78 79  1  0
 79 80  1  0
 80 81  2  0
 82 81  1  0
 82 86  1  0
 83 82  2  0
 84 79  2  0
 84 83  1  0
 85 84  1  0
 87 88  1  0
 88 91  1  0
 88 90  1  0
 89 87  2  0
 92 67  1  0
 92 93  1  0
 94 92  1  0
M  ISO  4   7 101   8 101  57 100  65 100
M  END
>  <TORSDO>  (54) 
F 23

>  <SCORE>  (54) 
-11.012

>  <name>  (54) 
53

>  <ligand_id>  (54) 
53

>  <original_smiles>  (54) 
[H]c1c([H])c([H])c2c(c1[H])C([H])([H])C([H])([H])C([H])([H])C2([H])N([H])C(=O)C1([H])N(C(=O)C([H])(N([H])C(=O)C([H])(N([H])C([H])([H])[H])C([H])([H])[H])C(C([H])([H])[H])(C([H])([H])[H])C([H])([H])[H])C([H])([H])c2c([H])c(OC([H])([H])C([H])([H])C([H])([H])[N+]([H])([H])C([H])([H])C([H])([H])N3C([H])([H])C([H])(C([H])([H])[H])C([H])(C([H])([H])N([H])C(=O)N4C([H])([H])C([H])([H])C([H])([H])C([H])(n5nc(-c6c([H])c([H])c(Oc7c([H])c([H])c(F)c([H])c7F)c([H])c6[H])c(C(=O)N([H])[H])c5N([H])[H])C4([H])[H])C3([H])[H])c([H])c([H])c2C1([H])[H]

>  <smiles>  (54) 
[H]c1c([H])c([H])c2c(c1[H])C([H])([H])C([H])([H])C([H])([H])C2([H])N([H])C(=O)C1([H])N(C(=O)C([H])(N([H])C(=O)C([H])(N([H])C([H])([H])[H])C([H])([H])[H])C(C([H])([H])[H])(C([H])([H])[H])C([H])([H])[H])C([H])([H])c2c([H])c(OC([H])([H])C([H])([H])C([H])([H])[N+]([H])([H])C([H])([H])C([H])([H])N3C([H])([H])C([H])(C([H])([H])[H])C([H])(C([H])([H])N([H])C(=O)N4C([H])([H])C([H])([H])C([H])([H])C([H])(n5nc(-c6c([H])c([H])c(Oc7c([H])c([H])c(F)c([H])c7F)c([H])c6[H])c(C(=O)N([H])[H])c5N([H])[H])C4([H])[H])C3([H])[H])c([H])c([H])c2C1([H])[H]

$$$$
54:0:0
     RDKit          3D

 95103  0  0  1  0  0  0  0  0999 V2000
  -26.8220  -22.4620   21.7530 C   0  0  0  0  0  2  0  0  0  0  0  0
  -28.3130  -22.1440   21.8420 C   0  0  0  0  0  2  0  0  0  0  0  0
  -26.7950  -23.6820   20.8360 C   0  0  0  0  0  2  0  0  0  0  0  0
  -28.9080  -22.5780   20.4830 C   0  0  0  0  0  3  0  0  0  0  0  0
  -27.9050  -23.4970   19.8660 N   0  0  2  0  0  4  0  0  0  0  0  0
  -27.5690  -22.9540   19.0780 H   0  0  0  0  0  0  0  0  0  0  0  0
  -29.1830  -21.3620   19.5750 C   0  0  0  0  0  0  0  0  0  0  0  0
  -30.1280  -20.4890   19.9700 N   0  0  0  0  0  0  0  0  0  0  0  0
  -28.5240  -21.2150   18.5420 O   0  0  0  0  0  0  0  0  0  0  0  0
  -30.6090  -20.6950   20.8370 H   0  0  0  0  0  0  0  0  0  0  0  0
  -30.4370  -19.2030   19.3380 C   0  0  0  0  0  2  0  0  0  0  0  0
  -31.8320  -18.6540   19.7430 C   0  0  0  0  0  2  0  0  0  0  0  0
  -32.6150  -16.2540   20.0830 C   0  0  0  0  0  0  0  0  0  0  0  0
  -32.6610  -13.7840   19.9060 C   0  0  0  0  0  2  0  0  0  0  0  0
  -31.8940  -13.3840   18.6280 C   0  0  0  0  0  2  0  0  0  0  0  0
  -30.3710  -13.3000   18.8800 C   0  0  0  0  0  2  0  0  0  0  0  0
  -29.8180  -14.5290   19.6530 C   0  0  0  0  0  3  0  0  0  0  0  0
  -30.7060  -14.8290   20.8810 C   0  0  0  0  0  2  0  0  0  0  0  0
  -32.0820  -15.0410   20.3970 N   0  0  0  0  0  0  0  0  0  0  0  0
  -33.7530  -16.4020   19.6270 O   0  0  0  0  0  0  0  0  0  0  0  0
  -31.7380  -17.2670   20.2050 N   0  0  0  0  0  0  0  0  0  0  0  0
  -30.8570  -17.0030   20.6230 H   0  0  0  0  0  0  0  0  0  0  0  0
  -27.4120  -15.2990   20.1610 C   0  0  0  0  0  0  0  0  0  0  0  0
  -26.2800  -14.5990   20.4770 C   0  0  0  0  0  0  0  0  0  0  0  0
  -26.6600  -13.2230   20.5110 C   0  0  0  0  0  0  0  0  0  0  0  0
  -28.4170  -14.3500   20.0300 N   0  0  0  0  0  0  0  0  0  0  0  0
  -27.9640  -13.1000   20.2920 N   0  0  0  0  0  0  0  0  0  0  0  0
  -25.8510  -12.0100   20.6800 C   0  0  0  0  0  0  0  0  0  0  0  0
  -25.9990  -11.1750   21.8090 C   0  0  0  0  0  3  0  0  0  0  0  0
  -25.1960  -10.0240   21.9580 C   0  0  0  0  0  3  0  0  0  0  0  0
  -24.2320   -9.7000   20.9740 C   0  0  0  0  0  0  0  0  0  0  0  0
  -24.1050  -10.5230   19.8410 C   0  0  0  0  0  3  0  0  0  0  0  0
  -24.9080  -11.6650   19.6920 C   0  0  0  0  0  3  0  0  0  0  0  0
  -23.4250   -8.5880   21.0220 O   0  0  0  0  0  0  0  0  0  0  0  0
  -22.8590   -8.1570   22.1950 C   0  0  0  0  0  0  0  0  0  0  0  0
  -21.9820   -8.9730   22.9440 C   0  0  0  0  0  3  0  0  0  0  0  0
  -21.3710   -8.4650   24.1080 C   0  0  0  0  0  3  0  0  0  0  0  0
  -21.6260   -7.1440   24.5180 C   0  0  0  0  0  0  0  0  0  0  0  0
  -22.4930   -6.3280   23.7710 C   0  0  0  0  0  3  0  0  0  0  0  0
  -23.1050   -6.8330   22.6100 C   0  0  0  0  0  0  0  0  0  0  0  0
  -23.9240   -6.0350   21.8830 F   0  0  0  0  0  0  0  0  0  0  0  0
  -21.0330   -6.6540   25.6320 F   0  0  0  0  0  0  0  0  0  0  0  0
  -24.8960  -15.1630   20.6400 C   0  0  0  0  0  0  0  0  0  0  0  0
  -24.0760  -14.5490   21.4840 N   0  0  0  0  0  0  0  0  0  0  0  0
  -24.5490  -16.1860   20.0500 O   0  0  0  0  0  0  0  0  0  0  0  0
  -24.3650  -13.7220   21.9880 H   0  0  0  0  0  0  0  0  0  0  0  0
  -23.1450  -14.9130   21.6320 H   0  0  0  0  0  0  0  0  0  0  0  0
  -27.6670  -16.6510   19.9520 N   0  0  0  0  0  0  0  0  0  0  0  0
  -26.9190  -17.3360   19.9570 H   0  0  0  0  0  0  0  0  0  0  0  0
  -28.5390  -17.0170   19.5930 H   0  0  0  0  0  0  0  0  0  0  0  0
  -28.4670  -24.7740   19.3400 C   0  0  0  0  0  2  0  0  0  0  0  0
  -27.4390  -25.6320   18.5650 C   0  0  0  0  0  3  0  0  0  0  0  0
  -27.0150  -24.9050   17.5280 F   0  0  0  0  0  0  0  0  0  0  0  0
  -28.0430  -26.9720   18.0680 C   0  0  0  0  0  2  0  0  0  0  0  0
  -27.1400  -27.8350   17.3690 O   0  0  0  0  0  0  0  0  0  0  0  0
  -25.2750  -30.8560   23.5640 C   0  0  0  0  0  0  0  0  0  0  0  0
  -26.1890  -28.4690   18.1270 C   0  0  0  0  0  0  0  0  0  0  0  0
  -23.4630  -30.5450   21.9060 C   0  0  0  0  0  3  0  0  0  0  0  0
  -24.2070  -29.8670   19.5670 C   0  0  0  0  0  0  0  0  0  0  0  0
  -25.8860  -30.8310   21.1480 C   0  0  0  0  0  2  0  0  0  0  0  0
  -25.5520  -29.9610   19.9550 C   0  0  0  0  0  0  0  0  0  0  0  0
  -26.5500  -29.2640   19.2380 C   0  0  0  0  0  3  0  0  0  0  0  0
  -24.8360  -28.3910   17.7410 C   0  0  0  0  0  3  0  0  0  0  0  0
  -23.8420  -29.0780   18.4600 C   0  0  0  0  0  3  0  0  0  0  0  0
  -23.2030  -30.6490   20.3800 C   0  0  0  0  0  2  0  0  0  0  0  0
  -24.9090  -30.7260   22.2570 N   0  0  0  0  0  0  0  0  0  0  0  0
  -24.4290  -30.8650   24.4700 O   0  0  0  0  0  0  0  0  0  0  0  0
  -22.8740  -29.2110   22.4170 C   0  0  0  0  0  0  0  0  0  0  0  0
  -21.5450  -29.0560   22.2890 N   0  0  0  0  0  0  0  0  0  0  0  0
  -23.6030  -28.3360   22.8940 O   0  0  0  0  0  0  0  0  0  0  0  0
  -21.0150  -29.8190   21.8940 H   0  0  0  0  0  0  0  0  0  0  0  0
  -18.2980  -27.4960   22.0490 C   0  0  0  0  0  0  0  0  0  0  0  0
  -20.7800  -27.8690   22.6650 C   0  0  0  0  0  3  0  0  0  0  0  0
  -21.0890  -26.6860   21.7190 C   0  0  0  0  0  2  0  0  0  0  0  0
  -20.1150  -26.5890   20.5400 C   0  0  0  0  0  2  0  0  0  0  0  0
  -18.6780  -26.4250   21.0410 C   0  0  0  0  0  2  0  0  0  0  0  0
  -19.2860  -28.1850   22.8010 C   0  0  0  0  0  0  0  0  0  0  0  0
  -18.8810  -29.1960   23.6980 C   0  0  0  0  0  3  0  0  0  0  0  0
  -17.5190  -29.5160   23.8560 C   0  0  0  0  0  3  0  0  0  0  0  0
  -16.5440  -28.8200   23.1220 C   0  0  0  0  0  3  0  0  0  0  0  0
  -16.9340  -27.8120   22.2230 C   0  0  0  0  0  3  0  0  0  0  0  0
  -26.7680  -31.0200   23.9840 C   0  0  0  0  0  3  0  0  0  0  0  0
  -26.8520  -32.1880   24.8710 N   0  0  0  0  0  0  0  0  0  0  0  0
  -27.3730  -33.3730   24.5200 C   0  0  0  0  0  0  0  0  0  0  0  0
  -27.9030  -33.5750   23.4230 O   0  0  0  0  0  0  0  0  0  0  0  0
  -26.3940  -32.1120   25.7660 H   0  0  0  0  0  0  0  0  0  0  0  0
  -26.1630  -35.4830   25.1600 C   0  0  0  0  0  1  0  0  0  0  0  0
  -27.2930  -34.5150   25.5490 C   0  0  0  0  0  3  0  0  0  0  0  0
  -29.6270  -34.4810   26.3100 C   0  0  0  0  0  1  0  0  0  0  0  0
  -28.5580  -35.2650   25.6970 N   0  0  0  0  0  0  0  0  0  0  0  0
  -28.4180  -36.0990   26.2610 H   0  0  0  0  0  0  0  0  0  0  0  0
  -27.3630  -29.7390   24.6880 C   0  0  1  0  0  0  0  0  0  0  0  0
  -26.4930  -29.2090   25.8510 C   0  0  0  0  0  1  0  0  0  0  0  0
  -27.5370  -28.5900   23.6670 C   0  0  0  0  0  1  0  0  0  0  0  0
  -28.7690  -30.0530   25.2490 C   0  0  0  0  0  1  0  0  0  0  0  0
  1  2  1  0
  3  1  1  0
  4  7  1  0
  4  2  1  0
  5  4  1  0
  5  3  1  0
  5  6  1  6
  7  8  1  0
  8 10  1  0
  9  7  2  0
 11 12  1  0
 11  8  1  0
 12 21  1  0
 13 21  1  0
 13 19  1  0
 14 19  1  0
 15 16  1  0
 15 14  1  0
 17 16  1  0
 17 26  1  0
 17 18  1  0
 19 18  1  0
 20 13  2  0
 21 22  1  0
 23 24  2  0
 24 25  1  0
 24 43  1  0
 25 28  1  0
 26 23  1  0
 26 27  1  0
 27 25  2  0
 28 29  1  0
 29 30  2  0
 31 34  1  0
 31 30  1  0
 32 31  2  0
 33 32  1  0
 33 28  2  0
 34 35  1  0
 35 40  2  0
 35 36  1  0
 36 37  2  0
 37 38  1  0
 38 42  1  0
 39 38  2  0
 40 39  1  0
 41 40  1  0
 43 44  1  0
 44 47  1  0
 44 46  1  0
 45 43  2  0
 48 49  1  0
 48 23  1  0
 50 48  1  0
 51  5  1  0
 52 53  1  0
 52 51  1  0
 54 52  1  0
 55 54  1  0
 55 57  1  0
 56 67  2  0
 57 62  1  0
 58 66  1  0
 58 68  1  0
 59 61  1  0
 59 65  1  0
 60 66  1  0
 61 60  1  0
 62 61  2  0
 63 57  2  0
 63 64  1  0
 64 59  2  0
 65 58  1  0
 66 56  1  0
 68 70  2  0
 69 68  1  0
 71 69  1  0
 72 81  2  0
 72 77  1  0
 73 69  1  0
 73 77  1  0
 74 73  1  0
 75 76  1  0
 75 74  1  0
 76 72  1  0
 77 78  2  0
 78 79  1  0
 80 79  2  0
 81 80  1  0
 82 56  1  0
 82 92  1  0
 82 83  1  0
 83 86  1  0
 84 83  1  0
 84 88  1  0
 85 84  2  0
 88 87  1  0
 88 90  1  0
 90 91  1  0
 90 89  1  0
 92 95  1  1
 92 93  1  0
 94 92  1  0
M  ISO  4  13 100  21 100  54 101  55 101
M  END
>  <TORSDO>  (55) 
F 22

>  <SCORE>  (55) 
-6.246

>  <name>  (55) 
54

>  <ligand_id>  (55) 
54

>  <original_smiles>  (55) 
[H]c1c([H])c([H])c2c(c1[H])C([H])([H])C([H])([H])C([H])([H])C2([H])N([H])C(=O)C1([H])N(C(=O)C([H])(N([H])C(=O)C([H])(N([H])C([H])([H])[H])C([H])([H])[H])C(C([H])([H])[H])(C([H])([H])[H])C([H])([H])[H])C([H])([H])c2c([H])c(OC([H])([H])C([H])(F)C([H])([H])[N+]3([H])C([H])([H])C([H])([H])C([H])([H])C3([H])C(=O)N([H])C([H])([H])C([H])([H])N([H])C(=O)N3C([H])([H])C([H])([H])C([H])([H])C([H])(n4nc(-c5c([H])c([H])c(Oc6c([H])c([H])c(F)c([H])c6F)c([H])c5[H])c(C(=O)N([H])[H])c4N([H])[H])C3([H])[H])c([H])c([H])c2C1([H])[H]

>  <smiles>  (55) 
[H]c1c([H])c([H])c2c(c1[H])C([H])([H])C([H])([H])C([H])([H])C2([H])N([H])C(=O)C1([H])N(C(=O)C([H])(N([H])C(=O)C([H])(N([H])C([H])([H])[H])C([H])([H])[H])C(C([H])([H])[H])(C([H])([H])[H])C([H])([H])[H])C([H])([H])c2c([H])c(OC([H])([H])C([H])(F)C([H])([H])[N+]3([H])C([H])([H])C([H])([H])C([H])([H])C3([H])C(=O)N([H])C([H])([H])C([H])([H])N([H])C(=O)N3C([H])([H])C([H])([H])C([H])([H])C([H])(n4nc(-c5c([H])c([H])c(Oc6c([H])c([H])c(F)c([H])c6F)c([H])c5[H])c(C(=O)N([H])[H])c4N([H])[H])C3([H])[H])c([H])c([H])c2C1([H])[H]

$$$$
55:0:0
     RDKit          3D

 94102  0  0  1  0  0  0  0  0999 V2000
  -26.9640  -22.2820   19.0280 C   0  0  0  0  0  0  0  0  0  0  0  0
  -27.2780  -23.5600   18.7900 N   0  0  0  0  0  0  0  0  0  0  0  0
  -26.1420  -21.7150   18.3110 O   0  0  0  0  0  0  0  0  0  0  0  0
  -26.8270  -23.9710   17.9840 H   0  0  0  0  0  0  0  0  0  0  0  0
  -27.6410  -21.4870   20.1570 C   0  0  0  0  0  2  0  0  0  0  0  0
  -28.4290  -20.2920   19.5800 C   0  0  0  0  0  2  0  0  0  0  0  0
  -29.3240  -19.5530   20.6060 C   0  0  0  0  0  2  0  0  0  0  0  0
  -31.9350  -14.5700   19.6100 C   0  0  0  0  0  0  0  0  0  0  0  0
  -31.3870  -12.4170   18.5600 C   0  0  0  0  0  2  0  0  0  0  0  0
  -30.3460  -12.6740   17.4500 C   0  0  0  0  0  2  0  0  0  0  0  0
  -28.9150  -12.6470   18.0260 C   0  0  0  0  0  2  0  0  0  0  0  0
  -28.7610  -13.5240   19.2980 C   0  0  0  0  0  3  0  0  0  0  0  0
  -29.9050  -13.2430   20.2980 C   0  0  0  0  0  2  0  0  0  0  0  0
  -31.1820  -13.4400   19.5940 N   0  0  0  0  0  0  0  0  0  0  0  0
  -33.0480  -14.6420   19.0750 O   0  0  0  0  0  0  0  0  0  0  0  0
  -31.1060  -16.6670   18.7350 C   0  0  0  0  0  2  0  0  0  0  0  0
  -31.1550  -16.2900   21.1750 C   0  0  0  0  0  2  0  0  0  0  0  0
  -30.7630  -18.0980   19.1850 C   0  0  0  0  0  2  0  0  0  0  0  0
  -29.8850  -17.1680   21.3400 C   0  0  0  0  0  3  0  0  0  0  0  0
  -29.8370  -17.7570   22.7670 C   0  0  0  0  0  1  0  0  0  0  0  0
  -31.2290  -15.7000   19.8360 N   0  0  0  0  0  0  0  0  0  0  0  0
  -29.6860  -18.1520   20.2140 N   0  0  1  0  0  4  0  0  0  0  0  0
  -28.8630  -17.8030   19.7460 H   0  0  0  0  0  0  0  0  0  0  0  0
  -26.5490  -14.3140   20.3450 C   0  0  0  0  0  0  0  0  0  0  0  0
  -25.4500  -13.6270   20.7890 C   0  0  0  0  0  0  0  0  0  0  0  0
  -25.7430  -12.2440   20.5860 C   0  0  0  0  0  0  0  0  0  0  0  0
  -27.4490  -13.3520   19.9130 N   0  0  0  0  0  0  0  0  0  0  0  0
  -26.9730  -12.0970   20.1130 N   0  0  0  0  0  0  0  0  0  0  0  0
  -24.9010  -11.0520   20.7560 C   0  0  0  0  0  0  0  0  0  0  0  0
  -25.2450  -10.0310   21.6670 C   0  0  0  0  0  3  0  0  0  0  0  0
  -24.4110   -8.9040   21.8260 C   0  0  0  0  0  3  0  0  0  0  0  0
  -23.2200   -8.7910   21.0730 C   0  0  0  0  0  0  0  0  0  0  0  0
  -22.8940   -9.8000   20.1480 C   0  0  0  0  0  3  0  0  0  0  0  0
  -23.7280  -10.9180   19.9880 C   0  0  0  0  0  3  0  0  0  0  0  0
  -22.3610   -7.7200   21.1430 O   0  0  0  0  0  0  0  0  0  0  0  0
  -22.1320   -7.0590   22.3230 C   0  0  0  0  0  0  0  0  0  0  0  0
  -21.6490   -7.7260   23.4690 C   0  0  0  0  0  3  0  0  0  0  0  0
  -21.3610   -6.9950   24.6400 C   0  0  0  0  0  3  0  0  0  0  0  0
  -21.5460   -5.6000   24.6630 C   0  0  0  0  0  0  0  0  0  0  0  0
  -22.0230   -4.9340   23.5200 C   0  0  0  0  0  3  0  0  0  0  0  0
  -22.3120   -5.6610   22.3520 C   0  0  0  0  0  0  0  0  0  0  0  0
  -22.7510   -5.0120   21.2470 F   0  0  0  0  0  0  0  0  0  0  0  0
  -21.2630   -4.8970   25.7840 F   0  0  0  0  0  0  0  0  0  0  0  0
  -24.1590  -14.2230   21.2670 C   0  0  0  0  0  0  0  0  0  0  0  0
  -23.4880  -13.5600   22.2040 N   0  0  0  0  0  0  0  0  0  0  0  0
  -23.7600  -15.3070   20.8450 O   0  0  0  0  0  0  0  0  0  0  0  0
  -23.8270  -12.6800   22.5650 H   0  0  0  0  0  0  0  0  0  0  0  0
  -22.6240  -13.9390   22.5660 H   0  0  0  0  0  0  0  0  0  0  0  0
  -26.8430  -15.6710   20.2340 N   0  0  0  0  0  0  0  0  0  0  0  0
  -26.0390  -16.2780   20.3620 H   0  0  0  0  0  0  0  0  0  0  0  0
  -27.3490  -15.9140   19.3930 H   0  0  0  0  0  0  0  0  0  0  0  0
  -28.1150  -24.4690   19.5720 C   0  0  0  0  0  2  0  0  0  0  0  0
  -28.4150  -25.7530   18.7630 C   0  0  0  0  0  2  0  0  0  0  0  0
  -28.3530  -26.9500   19.5380 O   0  0  0  0  0  0  0  0  0  0  0  0
  -24.6920  -31.7640   23.2560 C   0  0  0  0  0  0  0  0  0  0  0  0
  -27.1600  -27.6400   19.6380 C   0  0  0  0  0  0  0  0  0  0  0  0
  -23.3970  -30.5420   21.5370 C   0  0  0  0  0  3  0  0  0  0  0  0
  -24.7730  -29.1440   19.9090 C   0  0  0  0  0  0  0  0  0  0  0  0
  -25.9140  -30.9020   21.2670 C   0  0  0  0  0  2  0  0  0  0  0  0
  -25.9580  -29.6000   20.4960 C   0  0  0  0  0  0  0  0  0  0  0  0
  -27.1480  -28.8510   20.3660 C   0  0  0  0  0  3  0  0  0  0  0  0
  -25.9500  -27.1960   19.0530 C   0  0  0  0  0  3  0  0  0  0  0  0
  -24.7610  -27.9370   19.1910 C   0  0  0  0  0  3  0  0  0  0  0  0
  -23.5400  -30.0000   20.0900 C   0  0  0  0  0  2  0  0  0  0  0  0
  -24.6880  -31.0790   22.0780 N   0  0  0  0  0  0  0  0  0  0  0  0
  -23.6400  -31.9890   23.8700 O   0  0  0  0  0  0  0  0  0  0  0  0
  -22.7810  -29.4330   22.4190 C   0  0  0  0  0  0  0  0  0  0  0  0
  -21.4570  -29.2400   22.2970 N   0  0  0  0  0  0  0  0  0  0  0  0
  -23.4890  -28.7500   23.1640 O   0  0  0  0  0  0  0  0  0  0  0  0
  -20.9450  -29.8480   21.6730 H   0  0  0  0  0  0  0  0  0  0  0  0
  -18.1210  -27.9110   22.6780 C   0  0  0  0  0  0  0  0  0  0  0  0
  -20.6660  -28.2300   22.9980 C   0  0  0  0  0  3  0  0  0  0  0  0
  -20.8210  -26.8440   22.3300 C   0  0  0  0  0  2  0  0  0  0  0  0
  -19.7390  -26.5510   21.2870 C   0  0  0  0  0  2  0  0  0  0  0  0
  -18.3470  -26.6120   21.9250 C   0  0  0  0  0  2  0  0  0  0  0  0
  -19.2100  -28.6800   23.1660 C   0  0  0  0  0  0  0  0  0  0  0  0
  -18.9460  -29.9010   23.8270 C   0  0  0  0  0  3  0  0  0  0  0  0
  -17.6250  -30.3530   24.0030 C   0  0  0  0  0  3  0  0  0  0  0  0
  -16.5500  -29.5790   23.5310 C   0  0  0  0  0  3  0  0  0  0  0  0
  -16.7990  -28.3610   22.8750 C   0  0  0  0  0  3  0  0  0  0  0  0
  -26.0130  -32.3200   23.8740 C   0  0  0  0  0  3  0  0  0  0  0  0
  -25.7530  -33.7000   24.3030 N   0  0  0  0  0  0  0  0  0  0  0  0
  -26.1200  -34.7910   23.6160 C   0  0  0  0  0  0  0  0  0  0  0  0
  -26.7820  -34.7380   22.5760 O   0  0  0  0  0  0  0  0  0  0  0  0
  -25.1660  -33.8160   25.1160 H   0  0  0  0  0  0  0  0  0  0  0  0
  -24.4470  -36.6560   23.3940 C   0  0  0  0  0  1  0  0  0  0  0  0
  -25.6770  -36.1580   24.1720 C   0  0  0  0  0  3  0  0  0  0  0  0
  -27.8380  -36.9120   25.0570 C   0  0  0  0  0  1  0  0  0  0  0  0
  -26.7430  -37.1820   24.1310 N   0  0  0  0  0  0  0  0  0  0  0  0
  -26.3660  -38.1010   24.3440 H   0  0  0  0  0  0  0  0  0  0  0  0
  -26.5500  -31.4520   25.0770 C   0  0  1  0  0  0  0  0  0  0  0  0
  -25.4890  -31.1750   26.1670 C   0  0  0  0  0  1  0  0  0  0  0  0
  -27.0720  -30.0870   24.5710 C   0  0  0  0  0  1  0  0  0  0  0  0
  -27.7480  -32.1650   25.7460 C   0  0  0  0  0  1  0  0  0  0  0  0
  1  5  1  0
  2  1  1  0
  2 52  1  0
  3  1  2  0
  4  2  1  0
  6  5  1  0
  6  7  1  0
  8 21  1  0
  9 14  1  0
 10 11  1  0
 10  9  1  0
 12 11  1  0
 12 27  1  0
 12 13  1  0
 14  8  1  0
 14 13  1  0
 15  8  2  0
 16 18  1  0
 16 21  1  0
 17 19  1  0
 18 22  1  0
 19 20  1  0
 21 17  1  0
 22  7  1  0
 22 19  1  0
 22 23  1  6
 24 25  2  0
 25 44  1  0
 26 29  1  0
 26 25  1  0
 27 28  1  0
 27 24  1  0
 28 26  2  0
 29 30  1  0
 30 31  2  0
 32 35  1  0
 32 31  1  0
 33 32  2  0
 34 33  1  0
 34 29  2  0
 35 36  1  0
 36 41  2  0
 36 37  1  0
 37 38  2  0
 38 39  1  0
 39 43  1  0
 40 39  2  0
 41 40  1  0
 42 41  1  0
 44 45  1  0
 45 47  1  0
 45 48  1  0
 46 44  2  0
 49 24  1  0
 49 50  1  0
 51 49  1  0
 53 54  1  0
 53 52  1  0
 54 56  1  0
 55 66  2  0
 56 61  1  0
 57 65  1  0
 57 67  1  0
 58 64  1  0
 58 60  1  0
 59 65  1  0
 60 59  1  0
 61 60  2  0
 62 63  1  0
 62 56  2  0
 63 58  2  0
 64 57  1  0
 65 55  1  0
 67 69  2  0
 68 67  1  0
 70 68  1  0
 71 80  2  0
 71 76  1  0
 72 68  1  0
 72 76  1  0
 73 72  1  0
 74 75  1  0
 74 73  1  0
 75 71  1  0
 76 77  2  0
 77 78  1  0
 79 78  2  0
 80 79  1  0
 81 55  1  0
 81 82  1  0
 81 91  1  0
 82 85  1  0
 83 87  1  0
 83 82  1  0
 84 83  2  0
 87 86  1  0
 89 87  1  0
 89 90  1  0
 89 88  1  0
 91 94  1  1
 91 92  1  0
 93 91  1  0
M  ISO  4   8 100  21 100  53 101  54 101
M  END
>  <TORSDO>  (56) 
F 21

>  <SCORE>  (56) 
-10.591

>  <name>  (56) 
55

>  <ligand_id>  (56) 
55

>  <original_smiles>  (56) 
[H]c1c([H])c([H])c2c(c1[H])C([H])([H])C([H])([H])C([H])([H])C2([H])N([H])C(=O)C1([H])N(C(=O)C([H])(N([H])C(=O)C([H])(N([H])C([H])([H])[H])C([H])([H])[H])C(C([H])([H])[H])(C([H])([H])[H])C([H])([H])[H])C([H])([H])c2c([H])c(OC([H])([H])C([H])([H])N([H])C(=O)C([H])([H])C([H])([H])C([H])([H])[N+]3([H])C([H])([H])C([H])([H])N(C(=O)N4C([H])([H])C([H])([H])C([H])([H])C([H])(n5nc(-c6c([H])c([H])c(Oc7c([H])c([H])c(F)c([H])c7F)c([H])c6[H])c(C(=O)N([H])[H])c5N([H])[H])C4([H])[H])C([H])([H])C3([H])C([H])([H])[H])c([H])c([H])c2C1([H])[H]

>  <smiles>  (56) 
[H]c1c([H])c([H])c2c(c1[H])C([H])([H])C([H])([H])C([H])([H])C2([H])N([H])C(=O)C1([H])N(C(=O)C([H])(N([H])C(=O)C([H])(N([H])C([H])([H])[H])C([H])([H])[H])C(C([H])([H])[H])(C([H])([H])[H])C([H])([H])[H])C([H])([H])c2c([H])c(OC([H])([H])C([H])([H])N([H])C(=O)C([H])([H])C([H])([H])C([H])([H])[N+]3([H])C([H])([H])C([H])([H])N(C(=O)N4C([H])([H])C([H])([H])C([H])([H])C([H])(n5nc(-c6c([H])c([H])c(Oc7c([H])c([H])c(F)c([H])c7F)c([H])c6[H])c(C(=O)N([H])[H])c5N([H])[H])C4([H])[H])C([H])([H])C3([H])C([H])([H])[H])c([H])c([H])c2C1([H])[H]

$$$$
56:0:0
     RDKit          3D

 94102  0  0  1  0  0  0  0  0999 V2000
  -29.1740  -22.1270   18.4080 C   0  0  0  0  0  2  0  0  0  0  0  0
  -29.0300  -23.0660   19.5480 N   0  0  0  0  0  4  0  0  0  0  0  0
  -28.2730  -22.7410   20.1250 H   0  0  0  0  0  0  0  0  0  0  0  0
  -29.8730  -23.0300   20.1000 H   0  0  0  0  0  0  0  0  0  0  0  0
  -28.7670  -24.4890   19.1990 C   0  0  0  0  0  2  0  0  0  0  0  0
  -28.4870  -25.3240   20.4660 C   0  0  0  0  0  2  0  0  0  0  0  0
  -28.4850  -26.7300   20.2080 O   0  0  0  0  0  0  0  0  0  0  0  0
  -24.4740  -31.7710   23.2010 C   0  0  0  0  0  0  0  0  0  0  0  0
  -27.2700  -27.3790   20.2040 C   0  0  0  0  0  0  0  0  0  0  0  0
  -23.3290  -30.3440   21.5310 C   0  0  0  0  0  3  0  0  0  0  0  0
  -24.8430  -28.8260   20.1490 C   0  0  0  0  0  0  0  0  0  0  0  0
  -25.8520  -30.7520   21.3910 C   0  0  0  0  0  2  0  0  0  0  0  0
  -25.9740  -29.3820   20.7560 C   0  0  0  0  0  0  0  0  0  0  0  0
  -27.1920  -28.6700   20.7700 C   0  0  0  0  0  3  0  0  0  0  0  0
  -26.1160  -26.8190   19.6140 C   0  0  0  0  0  3  0  0  0  0  0  0
  -24.9090  -27.5450   19.5710 C   0  0  0  0  0  3  0  0  0  0  0  0
  -23.5820  -29.6600   20.1590 C   0  0  0  0  0  2  0  0  0  0  0  0
  -24.5670  -30.9730   22.0990 N   0  0  0  0  0  0  0  0  0  0  0  0
  -23.3750  -32.0240   23.7160 O   0  0  0  0  0  0  0  0  0  0  0  0
  -22.6710  -29.3160   22.4800 C   0  0  0  0  0  0  0  0  0  0  0  0
  -21.3470  -29.1330   22.3350 N   0  0  0  0  0  0  0  0  0  0  0  0
  -23.3480  -28.6880   23.2970 O   0  0  0  0  0  0  0  0  0  0  0  0
  -20.8640  -29.6960   21.6500 H   0  0  0  0  0  0  0  0  0  0  0  0
  -17.9630  -27.9540   22.7980 C   0  0  0  0  0  0  0  0  0  0  0  0
  -20.5220  -28.1900   23.0880 C   0  0  0  0  0  3  0  0  0  0  0  0
  -20.6160  -26.7670   22.4900 C   0  0  0  0  0  2  0  0  0  0  0  0
  -19.5190  -26.4680   21.4650 C   0  0  0  0  0  2  0  0  0  0  0  0
  -18.1350  -26.6140   22.1040 C   0  0  0  0  0  2  0  0  0  0  0  0
  -19.0850  -28.7020   23.2450 C   0  0  0  0  0  0  0  0  0  0  0  0
  -18.8720  -29.9600   23.8490 C   0  0  0  0  0  3  0  0  0  0  0  0
  -17.5710  -30.4700   24.0100 C   0  0  0  0  0  3  0  0  0  0  0  0
  -16.4620  -29.7180   23.5820 C   0  0  0  0  0  3  0  0  0  0  0  0
  -16.6610  -28.4610   22.9850 C   0  0  0  0  0  3  0  0  0  0  0  0
  -25.7340  -32.4210   23.8540 C   0  0  0  0  0  3  0  0  0  0  0  0
  -25.3920  -33.8090   24.1840 N   0  0  0  0  0  0  0  0  0  0  0  0
  -25.7170  -34.8720   23.4340 C   0  0  0  0  0  0  0  0  0  0  0  0
  -26.4060  -34.7890   22.4140 O   0  0  0  0  0  0  0  0  0  0  0  0
  -24.7830  -33.9520   24.9760 H   0  0  0  0  0  0  0  0  0  0  0  0
  -23.9570  -36.6280   23.0570 C   0  0  0  0  0  1  0  0  0  0  0  0
  -25.1910  -36.2460   23.8900 C   0  0  0  0  0  3  0  0  0  0  0  0
  -27.2940  -37.1660   24.7620 C   0  0  0  0  0  1  0  0  0  0  0  0
  -26.2010  -37.3220   23.8040 N   0  0  0  0  0  0  0  0  0  0  0  0
  -25.7720  -38.2300   23.9600 H   0  0  0  0  0  0  0  0  0  0  0  0
  -26.2430  -31.6480   25.1330 C   0  0  1  0  0  0  0  0  0  0  0  0
  -25.1350  -31.3820   26.1760 C   0  0  0  0  0  1  0  0  0  0  0  0
  -26.8560  -30.2830   24.7390 C   0  0  0  0  0  1  0  0  0  0  0  0
  -27.3650  -32.4570   25.8260 C   0  0  0  0  0  1  0  0  0  0  0  0
  -27.7000  -20.3950   19.5620 C   0  0  0  0  0  1  0  0  0  0  0  0
  -29.0400  -20.6310   18.8210 C   0  0  0  0  0  3  0  0  0  0  0  0
  -30.2810  -20.0420   19.5640 C   0  0  0  0  0  2  0  0  0  0  0  0
  -30.8580  -14.3540   19.9770 C   0  0  0  0  0  0  0  0  0  0  0  0
  -30.4140  -12.2700   18.7430 C   0  0  0  0  0  2  0  0  0  0  0  0
  -29.3720  -12.5530   17.6400 C   0  0  0  0  0  2  0  0  0  0  0  0
  -27.9340  -12.4280   18.1800 C   0  0  0  0  0  2  0  0  0  0  0  0
  -27.7240  -13.2100   19.5050 C   0  0  0  0  0  3  0  0  0  0  0  0
  -28.8640  -12.8890   20.4970 C   0  0  0  0  0  2  0  0  0  0  0  0
  -30.1490  -13.1990   19.8470 N   0  0  0  0  0  0  0  0  0  0  0  0
  -31.9480  -14.5510   19.4290 O   0  0  0  0  0  0  0  0  0  0  0  0
  -29.7830  -17.2650   22.1680 C   0  0  0  0  0  2  0  0  0  0  0  0
  -30.2250  -15.8190   21.8380 C   0  0  0  0  0  2  0  0  0  0  0  0
  -29.5520  -16.3190   19.4300 C   0  0  0  0  0  2  0  0  0  0  0  0
  -30.5410  -18.4120   21.4600 C   0  0  0  0  0  2  0  0  0  0  0  0
  -30.3870  -17.5810   19.1500 C   0  0  0  0  0  2  0  0  0  0  0  0
  -30.1360  -15.4050   20.4270 N   0  0  0  0  0  0  0  0  0  0  0  0
  -30.0230  -18.6670   20.0880 N   0  0  2  0  0  4  0  0  0  0  0  0
  -29.0190  -18.6430   20.1700 H   0  0  0  0  0  0  0  0  0  0  0  0
  -25.4020  -13.8420   20.4290 C   0  0  0  0  0  0  0  0  0  0  0  0
  -24.3530  -13.0780   20.8640 C   0  0  0  0  0  0  0  0  0  0  0  0
  -24.7880  -11.7210   20.7600 C   0  0  0  0  0  0  0  0  0  0  0  0
  -26.4110  -12.9500   20.0880 N   0  0  0  0  0  0  0  0  0  0  0  0
  -26.0460  -11.6690   20.3450 N   0  0  0  0  0  0  0  0  0  0  0  0
  -24.0570  -10.4650   20.9700 C   0  0  0  0  0  0  0  0  0  0  0  0
  -24.5160   -9.4870   21.8820 C   0  0  0  0  0  3  0  0  0  0  0  0
  -23.7870   -8.2950   22.0820 C   0  0  0  0  0  3  0  0  0  0  0  0
  -22.5850   -8.0710   21.3690 C   0  0  0  0  0  0  0  0  0  0  0  0
  -22.1450   -9.0360   20.4420 C   0  0  0  0  0  3  0  0  0  0  0  0
  -22.8750  -10.2190   20.2410 C   0  0  0  0  0  3  0  0  0  0  0  0
  -21.8190   -6.9360   21.4860 O   0  0  0  0  0  0  0  0  0  0  0  0
  -21.7640   -6.2210   22.6560 C   0  0  0  0  0  0  0  0  0  0  0  0
  -21.3490   -6.8080   23.8710 C   0  0  0  0  0  3  0  0  0  0  0  0
  -21.2360   -6.0160   25.0310 C   0  0  0  0  0  3  0  0  0  0  0  0
  -21.5310   -4.6410   24.9770 C   0  0  0  0  0  0  0  0  0  0  0  0
  -21.9430   -4.0560   23.7670 C   0  0  0  0  0  3  0  0  0  0  0  0
  -22.0540   -4.8430   22.6100 C   0  0  0  0  0  0  0  0  0  0  0  0
  -22.4250   -4.2680   21.4390 F   0  0  0  0  0  0  0  0  0  0  0  0
  -21.4170   -3.8790   26.0890 F   0  0  0  0  0  0  0  0  0  0  0  0
  -22.9870  -13.5690   21.2580 C   0  0  0  0  0  0  0  0  0  0  0  0
  -22.3220  -12.8760   22.1790 N   0  0  0  0  0  0  0  0  0  0  0  0
  -22.5150  -14.6010   20.7820 O   0  0  0  0  0  0  0  0  0  0  0  0
  -22.7240  -12.0490   22.5930 H   0  0  0  0  0  0  0  0  0  0  0  0
  -21.4060  -13.1780   22.4740 H   0  0  0  0  0  0  0  0  0  0  0  0
  -25.5800  -15.2130   20.2770 N   0  0  0  0  0  0  0  0  0  0  0  0
  -24.8380  -15.8790   20.4570 H   0  0  0  0  0  0  0  0  0  0  0  0
  -26.4170  -15.6380   19.8990 H   0  0  0  0  0  0  0  0  0  0  0  0
  1 49  1  0
  1  2  1  0
  2  4  1  0
  2  3  1  0
  5  2  1  0
  5  6  1  0
  7  6  1  0
  8 19  2  0
  9  7  1  0
  9 14  1  0
 10 18  1  0
 10 20  1  0
 11 17  1  0
 11 13  1  0
 12 18  1  0
 13 14  2  0
 13 12  1  0
 15  9  2  0
 16 15  1  0
 16 11  2  0
 17 10  1  0
 18  8  1  0
 20 22  2  0
 21 20  1  0
 23 21  1  0
 24 33  2  0
 24 29  1  0
 25 21  1  0
 25 29  1  0
 26 25  1  0
 27 28  1  0
 27 26  1  0
 28 24  1  0
 29 30  2  0
 30 31  1  0
 32 31  2  0
 33 32  1  0
 34  8  1  0
 34 35  1  0
 34 44  1  0
 35 38  1  0
 36 40  1  0
 36 35  1  0
 37 36  2  0
 40 39  1  0
 42 40  1  0
 42 43  1  0
 42 41  1  0
 44 47  1  1
 44 45  1  0
 46 44  1  0
 49 48  1  0
 49 50  1  0
 50 65  1  0
 51 64  1  0
 52 57  1  0
 53 54  1  0
 53 52  1  0
 55 54  1  0
 55 70  1  0
 55 56  1  0
 57 51  1  0
 57 56  1  0
 58 51  2  0
 60 59  1  0
 61 64  1  0
 62 59  1  0
 63 61  1  0
 63 65  1  0
 64 60  1  0
 65 66  1  1
 65 62  1  0
 67 68  2  0
 68 87  1  0
 69 68  1  0
 69 72  1  0
 70 71  1  0
 70 67  1  0
 71 69  2  0
 72 73  1  0
 73 74  2  0
 75 78  1  0
 75 74  1  0
 76 75  2  0
 77 76  1  0
 77 72  2  0
 78 79  1  0
 79 80  1  0
 80 81  2  0
 82 81  1  0
 82 86  1  0
 83 82  2  0
 84 79  2  0
 84 83  1  0
 85 84  1  0
 87 88  1  0
 88 91  1  0
 88 90  1  0
 89 87  2  0
 92 67  1  0
 92 93  1  0
 94 92  1  0
M  ISO  4   6 101   7 101  51 100  64 100
M  END
>  <TORSDO>  (57) 
F 21

>  <SCORE>  (57) 
-12.637

>  <name>  (57) 
56

>  <ligand_id>  (57) 
56

>  <original_smiles>  (57) 
[H]c1c([H])c([H])c2c(c1[H])C([H])([H])C([H])([H])C([H])([H])C2([H])N([H])C(=O)C1([H])N(C(=O)C([H])(N([H])C(=O)C([H])(N([H])C([H])([H])[H])C([H])([H])[H])C(C([H])([H])[H])(C([H])([H])[H])C([H])([H])[H])C([H])([H])c2c([H])c(OC([H])([H])C([H])([H])[N+]([H])([H])C([H])([H])C([H])(C([H])([H])[H])C([H])([H])[N+]3([H])C([H])([H])C([H])([H])N(C(=O)N4C([H])([H])C([H])([H])C([H])([H])C([H])(n5nc(-c6c([H])c([H])c(Oc7c([H])c([H])c(F)c([H])c7F)c([H])c6[H])c(C(=O)N([H])[H])c5N([H])[H])C4([H])[H])C([H])([H])C([H])([H])C3([H])[H])c([H])c([H])c2C1([H])[H]

>  <smiles>  (57) 
[H]c1c([H])c([H])c2c(c1[H])C([H])([H])C([H])([H])C([H])([H])C2([H])N([H])C(=O)C1([H])N(C(=O)C([H])(N([H])C(=O)C([H])(N([H])C([H])([H])[H])C([H])([H])[H])C(C([H])([H])[H])(C([H])([H])[H])C([H])([H])[H])C([H])([H])c2c([H])c(OC([H])([H])C([H])([H])[N+]([H])([H])C([H])([H])C([H])(C([H])([H])[H])C([H])([H])[N+]3([H])C([H])([H])C([H])([H])N(C(=O)N4C([H])([H])C([H])([H])C([H])([H])C([H])(n5nc(-c6c([H])c([H])c(Oc7c([H])c([H])c(F)c([H])c7F)c([H])c6[H])c(C(=O)N([H])[H])c5N([H])[H])C4([H])[H])C([H])([H])C([H])([H])C3([H])[H])c([H])c([H])c2C1([H])[H]

$$$$
57:0:0
     RDKit          3D

100108  0  0  1  0  0  0  0  0999 V2000
  -32.9840  -20.3780   22.9130 C   0  0  0  0  0  2  0  0  0  0  0  0
  -31.6170  -19.1300   21.2660 C   0  0  0  0  0  0  0  0  0  0  0  0
  -32.1010  -19.2740   22.5070 N   0  0  0  0  0  0  0  0  0  0  0  0
  -31.8360  -19.9760   20.3950 O   0  0  0  0  0  0  0  0  0  0  0  0
  -31.8860  -18.5590   23.1930 H   0  0  0  0  0  0  0  0  0  0  0  0
  -30.6280  -14.4050   20.4910 C   0  0  0  0  0  0  0  0  0  0  0  0
  -30.3290  -12.2160   19.3610 C   0  0  0  0  0  2  0  0  0  0  0  0
  -29.3880  -12.3250   18.1430 C   0  0  0  0  0  2  0  0  0  0  0  0
  -27.9230  -12.1180   18.5690 C   0  0  0  0  0  2  0  0  0  0  0  0
  -27.5370  -12.9950   19.7830 C   0  0  0  0  0  3  0  0  0  0  0  0
  -28.6020  -12.9040   20.9140 C   0  0  0  0  0  2  0  0  0  0  0  0
  -29.9170  -13.2400   20.3410 N   0  0  0  0  0  0  0  0  0  0  0  0
  -31.7950  -14.4880   20.1030 O   0  0  0  0  0  0  0  0  0  0  0  0
  -29.2420  -18.4230   20.9590 C   0  0  0  0  0  2  0  0  0  0  0  0
  -30.7900  -16.5990   21.6570 C   0  0  0  0  0  2  0  0  0  0  0  0
  -28.7500  -15.9580   20.3020 C   0  0  0  0  0  2  0  0  0  0  0  0
  -30.6890  -17.9530   20.9050 C   0  0  0  0  0  3  0  0  0  0  0  0
  -28.3650  -17.4610   20.1730 C   0  0  0  0  0  3  0  0  0  0  0  0
  -30.0010  -15.5250   20.9790 N   0  0  0  0  0  0  0  0  0  0  0  0
  -25.1390  -13.6220   20.4610 C   0  0  0  0  0  0  0  0  0  0  0  0
  -24.0720  -12.8530   20.8340 C   0  0  0  0  0  0  0  0  0  0  0  0
  -24.5430  -11.5050   20.8330 C   0  0  0  0  0  0  0  0  0  0  0  0
  -26.1890  -12.7350   20.2620 N   0  0  0  0  0  0  0  0  0  0  0  0
  -25.8360  -11.4620   20.5510 N   0  0  0  0  0  0  0  0  0  0  0  0
  -23.8290  -10.2430   21.0290 C   0  0  0  0  0  0  0  0  0  0  0  0
  -24.2740   -9.2840   21.9660 C   0  0  0  0  0  3  0  0  0  0  0  0
  -23.5600   -8.0810   22.1450 C   0  0  0  0  0  3  0  0  0  0  0  0
  -22.3910   -7.8290   21.3880 C   0  0  0  0  0  0  0  0  0  0  0  0
  -21.9710   -8.7750   20.4370 C   0  0  0  0  0  3  0  0  0  0  0  0
  -22.6840   -9.9700   20.2540 C   0  0  0  0  0  3  0  0  0  0  0  0
  -21.6490   -6.6770   21.4810 O   0  0  0  0  0  0  0  0  0  0  0  0
  -21.6170   -5.9350   22.6330 C   0  0  0  0  0  0  0  0  0  0  0  0
  -21.1940   -6.4860   23.8620 C   0  0  0  0  0  3  0  0  0  0  0  0
  -21.1100   -5.6700   25.0070 C   0  0  0  0  0  3  0  0  0  0  0  0
  -21.4390   -4.3040   24.9250 C   0  0  0  0  0  0  0  0  0  0  0  0
  -21.8570   -3.7520   23.7010 C   0  0  0  0  0  3  0  0  0  0  0  0
  -21.9420   -4.5650   22.5580 C   0  0  0  0  0  0  0  0  0  0  0  0
  -22.3260   -4.0250   21.3760 F   0  0  0  0  0  0  0  0  0  0  0  0
  -21.3480   -3.5170   26.0230 F   0  0  0  0  0  0  0  0  0  0  0  0
  -22.6660  -13.3260   21.0700 C   0  0  0  0  0  0  0  0  0  0  0  0
  -21.9320  -12.6440   21.9400 N   0  0  0  0  0  0  0  0  0  0  0  0
  -22.2270  -14.3330   20.5170 O   0  0  0  0  0  0  0  0  0  0  0  0
  -22.3000  -11.8300   22.4100 H   0  0  0  0  0  0  0  0  0  0  0  0
  -20.9890  -12.9430   22.1430 H   0  0  0  0  0  0  0  0  0  0  0  0
  -25.2900  -14.9890   20.2390 N   0  0  0  0  0  0  0  0  0  0  0  0
  -24.4800  -15.5980   20.2230 H   0  0  0  0  0  0  0  0  0  0  0  0
  -26.0640  -15.3410   19.7010 H   0  0  0  0  0  0  0  0  0  0  0  0
  -28.2230  -17.8660   18.7570 N   0  0  0  0  0  4  0  0  0  0  0  0
  -27.9310  -18.8250   18.6910 H   0  0  0  0  0  0  0  0  0  0  0  0
  -27.5250  -17.3130   18.2880 H   0  0  0  0  0  0  0  0  0  0  0  0
  -29.0890  -17.7710   18.2550 H   0  0  0  0  0  0  0  0  0  0  0  0
  -32.3040  -21.4750   23.7720 C   0  0  0  0  0  2  0  0  0  0  0  0
  -30.9260  -22.0170   23.3140 C   0  0  0  0  0  2  0  0  0  0  0  0
  -30.9610  -23.0930   22.2870 N   0  0  0  0  0  4  0  0  0  0  0  0
  -31.2810  -22.7070   21.4120 H   0  0  0  0  0  0  0  0  0  0  0  0
  -31.6210  -23.7980   22.5750 H   0  0  0  0  0  0  0  0  0  0  0  0
  -29.6270  -23.7260   22.0840 C   0  0  0  0  0  2  0  0  0  0  0  0
  -29.6200  -24.9260   21.0660 C   0  0  0  0  0  2  0  0  0  0  0  0
  -28.7740  -26.2490   21.0850 C   0  0  0  0  0  2  0  0  0  0  0  0
  -27.8950  -26.3380   19.9510 O   0  0  0  0  0  0  0  0  0  0  0  0
  -24.4550  -31.7410   23.1520 C   0  0  0  0  0  0  0  0  0  0  0  0
  -26.7960  -27.1620   20.0450 C   0  0  0  0  0  0  0  0  0  0  0  0
  -23.1330  -30.3980   21.5430 C   0  0  0  0  0  3  0  0  0  0  0  0
  -24.4710  -28.7710   20.1040 C   0  0  0  0  0  0  0  0  0  0  0  0
  -25.6620  -30.6220   21.2850 C   0  0  0  0  0  2  0  0  0  0  0  0
  -25.6630  -29.2400   20.6690 C   0  0  0  0  0  0  0  0  0  0  0  0
  -26.8270  -28.4420   20.6490 C   0  0  0  0  0  3  0  0  0  0  0  0
  -25.5930  -26.7090   19.4670 C   0  0  0  0  0  3  0  0  0  0  0  0
  -24.4260  -27.4990   19.5050 C   0  0  0  0  0  3  0  0  0  0  0  0
  -23.2740  -29.6930   20.1660 C   0  0  0  0  0  2  0  0  0  0  0  0
  -24.4360  -30.9360   22.0510 N   0  0  0  0  0  0  0  0  0  0  0  0
  -23.4050  -32.0730   23.7200 O   0  0  0  0  0  0  0  0  0  0  0  0
  -22.4500  -29.4230   22.5300 C   0  0  0  0  0  0  0  0  0  0  0  0
  -21.1150  -29.3150   22.4330 N   0  0  0  0  0  0  0  0  0  0  0  0
  -23.1170  -28.7660   23.3330 O   0  0  0  0  0  0  0  0  0  0  0  0
  -20.6420  -29.8940   21.7520 H   0  0  0  0  0  0  0  0  0  0  0  0
  -17.6940  -28.2930   22.9940 C   0  0  0  0  0  0  0  0  0  0  0  0
  -20.2640  -28.4260   23.2270 C   0  0  0  0  0  3  0  0  0  0  0  0
  -20.2880  -26.9860   22.6670 C   0  0  0  0  0  2  0  0  0  0  0  0
  -19.1560  -26.7070   21.6730 C   0  0  0  0  0  2  0  0  0  0  0  0
  -17.7930  -26.9290   22.3340 C   0  0  0  0  0  2  0  0  0  0  0  0
  -18.8550  -29.0030   23.3990 C   0  0  0  0  0  0  0  0  0  0  0  0
  -18.7090  -30.2840   23.9770 C   0  0  0  0  0  3  0  0  0  0  0  0
  -17.4330  -30.8520   24.1510 C   0  0  0  0  0  3  0  0  0  0  0  0
  -16.2860  -30.1390   23.7630 C   0  0  0  0  0  3  0  0  0  0  0  0
  -16.4170  -28.8610   23.1920 C   0  0  0  0  0  3  0  0  0  0  0  0
  -25.7910  -32.2980   23.7360 C   0  0  0  0  0  3  0  0  0  0  0  0
  -25.5570  -33.6970   24.1130 N   0  0  0  0  0  0  0  0  0  0  0  0
  -25.9100  -34.7550   23.3700 C   0  0  0  0  0  0  0  0  0  0  0  0
  -26.5410  -34.6520   22.3150 O   0  0  0  0  0  0  0  0  0  0  0  0
  -25.0000  -33.8540   24.9390 H   0  0  0  0  0  0  0  0  0  0  0  0
  -24.2610  -36.6350   23.1080 C   0  0  0  0  0  1  0  0  0  0  0  0
  -25.4990  -36.1500   23.8790 C   0  0  0  0  0  3  0  0  0  0  0  0
  -27.6890  -36.9100   24.6860 C   0  0  0  0  0  1  0  0  0  0  0  0
  -26.5780  -37.1570   23.7730 N   0  0  0  0  0  0  0  0  0  0  0  0
  -26.2180  -38.0900   23.9560 H   0  0  0  0  0  0  0  0  0  0  0  0
  -26.3270  -31.4690   24.9680 C   0  0  1  0  0  0  0  0  0  0  0  0
  -25.2720  -31.2480   26.0770 C   0  0  0  0  0  1  0  0  0  0  0  0
  -26.8260  -30.0790   24.5070 C   0  0  0  0  0  1  0  0  0  0  0  0
  -27.5350  -32.1940   25.6040 C   0  0  0  0  0  1  0  0  0  0  0  0
  1 52  1  0
  2  3  1  0
  3  1  1  0
  3  5  1  0
  4  2  2  0
  6 19  1  0
  7 12  1  0
  8  9  1  0
  8  7  1  0
 10  9  1  0
 10 23  1  0
 10 11  1  0
 12  6  1  0
 12 11  1  0
 13  6  2  0
 16 19  1  0
 17 14  1  0
 17  2  1  0
 17 15  1  0
 18 48  1  0
 18 16  1  0
 18 14  1  0
 19 15  1  0
 20 21  2  0
 21 40  1  0
 22 21  1  0
 22 25  1  0
 23 20  1  0
 23 24  1  0
 24 22  2  0
 25 26  1  0
 26 27  2  0
 28 31  1  0
 28 27  1  0
 29 28  2  0
 30 29  1  0
 30 25  2  0
 31 32  1  0
 32 33  1  0
 33 34  2  0
 35 34  1  0
 35 39  1  0
 36 35  2  0
 37 32  2  0
 37 36  1  0
 38 37  1  0
 40 41  1  0
 41 44  1  0
 41 43  1  0
 42 40  2  0
 45 20  1  0
 46 45  1  0
 47 45  1  0
 49 48  1  0
 50 48  1  0
 51 48  1  0
 53 52  1  0
 54 56  1  0
 54 53  1  0
 55 54  1  0
 57 54  1  0
 58 59  1  0
 58 57  1  0
 60 62  1  0
 60 59  1  0
 61 72  2  0
 62 67  1  0
 63 71  1  0
 63 73  1  0
 64 70  1  0
 64 66  1  0
 65 71  1  0
 66 65  1  0
 67 66  2  0
 68 69  1  0
 68 62  2  0
 69 64  2  0
 70 63  1  0
 71 61  1  0
 73 75  2  0
 74 73  1  0
 76 74  1  0
 77 86  2  0
 77 82  1  0
 78 74  1  0
 78 82  1  0
 79 78  1  0
 80 81  1  0
 80 79  1  0
 81 77  1  0
 82 83  2  0
 83 84  1  0
 85 84  2  0
 86 85  1  0
 87 61  1  0
 87 88  1  0
 87 97  1  0
 88 91  1  0
 89 93  1  0
 89 88  1  0
 90 89  2  0
 93 92  1  0
 95 93  1  0
 95 96  1  0
 95 94  1  0
 97100  1  1
 97 98  1  0
 99 97  1  0
M  ISO  4   6 100  19 100  59 101  60 101
M  END
>  <TORSDO>  (58) 
F 24

>  <SCORE>  (58) 
-12.464

>  <name>  (58) 
57

>  <ligand_id>  (58) 
57

>  <original_smiles>  (58) 
[H]c1c([H])c([H])c2c(c1[H])C([H])([H])C([H])([H])C([H])([H])C2([H])N([H])C(=O)C1([H])N(C(=O)C([H])(N([H])C(=O)C([H])(N([H])C([H])([H])[H])C([H])([H])[H])C(C([H])([H])[H])(C([H])([H])[H])C([H])([H])[H])C([H])([H])c2c([H])c(OC([H])([H])C([H])([H])C([H])([H])[N+]([H])([H])C([H])([H])C([H])([H])C([H])([H])N([H])C(=O)C3([H])C([H])([H])N(C(=O)N4C([H])([H])C([H])([H])C([H])([H])C([H])(n5nc(-c6c([H])c([H])c(Oc7c([H])c([H])c(F)c([H])c7F)c([H])c6[H])c(C(=O)N([H])[H])c5N([H])[H])C4([H])[H])C([H])([H])C([H])([N+]([H])([H])[H])C3([H])[H])c([H])c([H])c2C1([H])[H]

>  <smiles>  (58) 
[H]c1c([H])c([H])c2c(c1[H])C([H])([H])C([H])([H])C([H])([H])C2([H])N([H])C(=O)C1([H])N(C(=O)C([H])(N([H])C(=O)C([H])(N([H])C([H])([H])[H])C([H])([H])[H])C(C([H])([H])[H])(C([H])([H])[H])C([H])([H])[H])C([H])([H])c2c([H])c(OC([H])([H])C([H])([H])C([H])([H])[N+]([H])([H])C([H])([H])C([H])([H])C([H])([H])N([H])C(=O)C3([H])C([H])([H])N(C(=O)N4C([H])([H])C([H])([H])C([H])([H])C([H])(n5nc(-c6c([H])c([H])c(Oc7c([H])c([H])c(F)c([H])c7F)c([H])c6[H])c(C(=O)N([H])[H])c5N([H])[H])C4([H])[H])C([H])([H])C([H])([N+]([H])([H])[H])C3([H])[H])c([H])c([H])c2C1([H])[H]

$$$$
58:0:0
     RDKit          3D

 97105  0  0  1  0  0  0  0  0999 V2000
  -29.5970  -23.1050   17.8740 C   0  0  0  0  0  2  0  0  0  0  0  0
  -29.5530  -21.6130   18.2460 C   0  0  0  0  0  2  0  0  0  0  0  0
  -30.2060  -21.4090   19.6290 C   0  0  0  0  0  2  0  0  0  0  0  0
  -30.9380  -18.6040   22.1080 C   0  0  0  0  0  2  0  0  0  0  0  0
  -29.9550  -17.5630   20.0810 C   0  0  0  0  0  2  0  0  0  0  0  0
  -31.0450  -19.9370   21.3620 C   0  0  0  0  0  2  0  0  0  0  0  0
  -30.0860  -18.9080   19.3320 C   0  0  0  0  0  2  0  0  0  0  0  0
  -31.0610  -17.4160   21.1450 C   0  0  0  0  0  3  0  0  0  0  0  0
  -30.0520  -20.0710   20.2620 N   0  0  2  0  0  4  0  0  0  0  0  0
  -29.1340  -20.0670   20.6850 H   0  0  0  0  0  0  0  0  0  0  0  0
  -31.0790  -16.0980   21.9520 C   0  0  0  0  0  2  0  0  0  0  0  0
  -30.9850  -14.1960   20.2890 C   0  0  0  0  0  0  0  0  0  0  0  0
  -30.5330  -12.1810   18.9270 C   0  0  0  0  0  2  0  0  0  0  0  0
  -29.5540  -12.4780   17.7740 C   0  0  0  0  0  2  0  0  0  0  0  0
  -28.0880  -12.3990   18.2460 C   0  0  0  0  0  2  0  0  0  0  0  0
  -27.8370  -13.1970   19.5520 C   0  0  0  0  0  3  0  0  0  0  0  0
  -28.8980  -12.8230   20.6060 C   0  0  0  0  0  2  0  0  0  0  0  0
  -30.2300  -13.1000   20.0330 N   0  0  0  0  0  0  0  0  0  0  0  0
  -32.0220  -14.4810   19.6790 O   0  0  0  0  0  0  0  0  0  0  0  0
  -30.4960  -14.9470   21.2810 N   0  0  0  0  0  0  0  0  0  0  0  0
  -29.6260  -14.6160   21.6680 H   0  0  0  0  0  0  0  0  0  0  0  0
  -25.4790  -13.9140   20.3040 C   0  0  0  0  0  0  0  0  0  0  0  0
  -24.3900  -13.1870   20.7040 C   0  0  0  0  0  0  0  0  0  0  0  0
  -24.7970  -11.8180   20.6760 C   0  0  0  0  0  0  0  0  0  0  0  0
  -26.4830  -12.9890   20.0580 N   0  0  0  0  0  0  0  0  0  0  0  0
  -26.0750  -11.7230   20.3350 N   0  0  0  0  0  0  0  0  0  0  0  0
  -24.0280  -10.5860   20.8960 C   0  0  0  0  0  0  0  0  0  0  0  0
  -24.4400   -9.6170   21.8350 C   0  0  0  0  0  3  0  0  0  0  0  0
  -23.6740   -8.4490   22.0420 C   0  0  0  0  0  3  0  0  0  0  0  0
  -22.4820   -8.2430   21.3060 C   0  0  0  0  0  0  0  0  0  0  0  0
  -22.0890   -9.2030   20.3570 C   0  0  0  0  0  3  0  0  0  0  0  0
  -22.8540  -10.3630   20.1500 C   0  0  0  0  0  3  0  0  0  0  0  0
  -21.6890   -7.1290   21.4210 O   0  0  0  0  0  0  0  0  0  0  0  0
  -21.6250   -6.4080   22.5870 C   0  0  0  0  0  0  0  0  0  0  0  0
  -21.2490   -7.0020   23.8110 C   0  0  0  0  0  3  0  0  0  0  0  0
  -21.1260   -6.2100   24.9690 C   0  0  0  0  0  3  0  0  0  0  0  0
  -21.3730   -4.8260   24.9070 C   0  0  0  0  0  0  0  0  0  0  0  0
  -21.7460   -4.2310   23.6880 C   0  0  0  0  0  3  0  0  0  0  0  0
  -21.8680   -5.0200   22.5300 C   0  0  0  0  0  0  0  0  0  0  0  0
  -22.2060   -4.4400   21.3540 F   0  0  0  0  0  0  0  0  0  0  0  0
  -21.2500   -4.0630   26.0180 F   0  0  0  0  0  0  0  0  0  0  0  0
  -23.0180  -13.7200   21.0070 C   0  0  0  0  0  0  0  0  0  0  0  0
  -22.2880  -13.0600   21.8990 N   0  0  0  0  0  0  0  0  0  0  0  0
  -22.6060  -14.7550   20.4860 O   0  0  0  0  0  0  0  0  0  0  0  0
  -22.6350  -12.2200   22.3390 H   0  0  0  0  0  0  0  0  0  0  0  0
  -21.3690  -13.4000   22.1450 H   0  0  0  0  0  0  0  0  0  0  0  0
  -25.6930  -15.2750   20.1110 N   0  0  0  0  0  0  0  0  0  0  0  0
  -24.9560  -15.9600   20.2410 H   0  0  0  0  0  0  0  0  0  0  0  0
  -26.5530  -15.6780   19.7600 H   0  0  0  0  0  0  0  0  0  0  0  0
  -28.9890  -23.4620   16.5030 C   0  0  0  0  0  2  0  0  0  0  0  0
  -28.9840  -24.9280   16.2790 N   0  0  0  0  0  4  0  0  0  0  0  0
  -28.8360  -25.0970   15.2950 H   0  0  0  0  0  0  0  0  0  0  0  0
  -29.8940  -25.2940   16.5000 H   0  0  0  0  0  0  0  0  0  0  0  0
  -27.9310  -25.6560   17.0280 C   0  0  0  0  0  2  0  0  0  0  0  0
  -28.3310  -27.0910   17.4430 C   0  0  0  0  0  2  0  0  0  0  0  0
  -29.0770  -27.2210   18.8060 C   0  0  0  0  0  2  0  0  0  0  0  0
  -28.3570  -26.7600   19.9620 O   0  0  0  0  0  0  0  0  0  0  0  0
  -24.5740  -31.8880   23.2450 C   0  0  0  0  0  0  0  0  0  0  0  0
  -27.1880  -27.4470   20.1590 C   0  0  0  0  0  0  0  0  0  0  0  0
  -23.3580  -30.4770   21.6210 C   0  0  0  0  0  3  0  0  0  0  0  0
  -24.7940  -28.9180   20.2220 C   0  0  0  0  0  0  0  0  0  0  0  0
  -25.8800  -30.8340   21.4070 C   0  0  0  0  0  2  0  0  0  0  0  0
  -25.9600  -29.4570   20.7860 C   0  0  0  0  0  0  0  0  0  0  0  0
  -27.1660  -28.7250   20.7550 C   0  0  0  0  0  3  0  0  0  0  0  0
  -25.9940  -26.8870   19.6670 C   0  0  0  0  0  3  0  0  0  0  0  0
  -24.8010  -27.6260   19.6750 C   0  0  0  0  0  3  0  0  0  0  0  0
  -23.5600  -29.7840   20.2500 C   0  0  0  0  0  2  0  0  0  0  0  0
  -24.6220  -31.0810   22.1500 N   0  0  0  0  0  0  0  0  0  0  0  0
  -23.4950  -32.1700   23.7860 O   0  0  0  0  0  0  0  0  0  0  0  0
  -22.7100  -29.4640   22.5900 C   0  0  0  0  0  0  0  0  0  0  0  0
  -21.3850  -29.2840   22.4660 N   0  0  0  0  0  0  0  0  0  0  0  0
  -23.3940  -28.8420   23.4060 O   0  0  0  0  0  0  0  0  0  0  0  0
  -20.8950  -29.8360   21.7770 H   0  0  0  0  0  0  0  0  0  0  0  0
  -18.0110  -28.1030   22.9730 C   0  0  0  0  0  0  0  0  0  0  0  0
  -20.5670  -28.3560   23.2460 C   0  0  0  0  0  3  0  0  0  0  0  0
  -20.6700  -26.9180   22.6870 C   0  0  0  0  0  2  0  0  0  0  0  0
  -19.5700  -26.5870   21.6740 C   0  0  0  0  0  2  0  0  0  0  0  0
  -18.1860  -26.7440   22.3110 C   0  0  0  0  0  2  0  0  0  0  0  0
  -19.1310  -28.8660   23.3970 C   0  0  0  0  0  0  0  0  0  0  0  0
  -18.9160  -30.1380   23.9680 C   0  0  0  0  0  3  0  0  0  0  0  0
  -17.6120  -30.6460   24.1240 C   0  0  0  0  0  3  0  0  0  0  0  0
  -16.5070  -29.8820   23.7160 C   0  0  0  0  0  3  0  0  0  0  0  0
  -16.7080  -28.6110   23.1460 C   0  0  0  0  0  3  0  0  0  0  0  0
  -25.8660  -32.5180   23.8560 C   0  0  0  0  0  3  0  0  0  0  0  0
  -26.3970  -31.7490   25.1280 C   0  0  1  0  0  0  0  0  0  0  0  0
  -25.3140  -31.5120   26.2050 C   0  0  0  0  0  1  0  0  0  0  0  0
  -26.9780  -30.3710   24.7300 C   0  0  0  0  0  1  0  0  0  0  0  0
  -27.5490  -32.5450   25.7830 C   0  0  0  0  0  1  0  0  0  0  0  0
  -25.5660  -33.9180   24.1830 N   0  0  0  0  0  0  0  0  0  0  0  0
  -25.9060  -34.9660   23.4210 C   0  0  0  0  0  0  0  0  0  0  0  0
  -26.5790  -34.8570   22.3910 O   0  0  0  0  0  0  0  0  0  0  0  0
  -24.9690  -34.0820   24.9810 H   0  0  0  0  0  0  0  0  0  0  0  0
  -24.1860  -36.7600   23.0570 C   0  0  0  0  0  1  0  0  0  0  0  0
  -25.4230  -36.3560   23.8760 C   0  0  0  0  0  3  0  0  0  0  0  0
  -27.5590  -37.2320   24.7100 C   0  0  0  0  0  1  0  0  0  0  0  0
  -26.4590  -37.4060   23.7660 N   0  0  0  0  0  0  0  0  0  0  0  0
  -26.0550  -38.3270   23.9150 H   0  0  0  0  0  0  0  0  0  0  0  0
  1  2  1  0
  2  3  1  0
  3  9  1  0
  5  8  1  0
  6  4  1  0
  7  5  1  0
  7  9  1  0
  8 11  1  0
  8  4  1  0
  9 10  1  1
  9  6  1  0
 12 20  1  0
 13 18  1  0
 14 15  1  0
 14 13  1  0
 16 15  1  0
 16 25  1  0
 16 17  1  0
 18 12  1  0
 18 17  1  0
 19 12  2  0
 20 21  1  0
 20 11  1  0
 22 23  2  0
 23 42  1  0
 24 23  1  0
 24 27  1  0
 25 22  1  0
 25 26  1  0
 26 24  2  0
 27 28  1  0
 28 29  2  0
 30 33  1  0
 30 29  1  0
 31 30  2  0
 32 31  1  0
 32 27  2  0
 33 34  1  0
 34 35  1  0
 35 36  2  0
 37 36  1  0
 37 41  1  0
 38 37  2  0
 39 34  2  0
 39 38  1  0
 40 39  1  0
 42 43  1  0
 43 46  1  0
 43 45  1  0
 44 42  2  0
 47 48  1  0
 47 22  1  0
 49 47  1  0
 50  1  1  0
 51 53  1  0
 51 50  1  0
 51 54  1  0
 52 51  1  0
 54 55  1  0
 55 56  1  0
 56 57  1  0
 57 59  1  0
 58 69  2  0
 59 64  1  0
 60 68  1  0
 60 70  1  0
 61 67  1  0
 61 63  1  0
 62 68  1  0
 63 62  1  0
 64 63  2  0
 65 66  1  0
 65 59  2  0
 66 61  2  0
 67 60  1  0
 68 58  1  0
 70 72  2  0
 71 70  1  0
 73 71  1  0
 74 83  2  0
 74 79  1  0
 75 71  1  0
 75 79  1  0
 76 75  1  0
 77 78  1  0
 77 76  1  0
 78 74  1  0
 79 80  2  0
 80 81  1  0
 82 81  2  0
 83 82  1  0
 84 58  1  0
 84 89  1  0
 84 85  1  0
 85 88  1  1
 85 86  1  0
 87 85  1  0
 89 92  1  0
 90 94  1  0
 90 89  1  0
 91 90  2  0
 94 93  1  0
 96 94  1  0
 96 97  1  0
 96 95  1  0
M  ISO  4  12 100  20 100  56 101  57 101
M  END
>  <TORSDO>  (59) 
F 25

>  <SCORE>  (59) 
-12.062

>  <name>  (59) 
58

>  <ligand_id>  (59) 
58

>  <original_smiles>  (59) 
[H]c1c([H])c([H])c2c(c1[H])C([H])([H])C([H])([H])C([H])([H])C2([H])N([H])C(=O)C1([H])N(C(=O)C([H])(N([H])C(=O)C([H])(N([H])C([H])([H])[H])C([H])([H])[H])C(C([H])([H])[H])(C([H])([H])[H])C([H])([H])[H])C([H])([H])c2c([H])c(OC([H])([H])C([H])([H])C([H])([H])[N+]([H])([H])C([H])([H])C([H])([H])C([H])([H])C([H])([H])[N+]3([H])C([H])([H])C([H])([H])C([H])(C([H])([H])N([H])C(=O)N4C([H])([H])C([H])([H])C([H])([H])C([H])(n5nc(-c6c([H])c([H])c(Oc7c([H])c([H])c(F)c([H])c7F)c([H])c6[H])c(C(=O)N([H])[H])c5N([H])[H])C4([H])[H])C([H])([H])C3([H])[H])c([H])c([H])c2C1([H])[H]

>  <smiles>  (59) 
[H]c1c([H])c([H])c2c(c1[H])C([H])([H])C([H])([H])C([H])([H])C2([H])N([H])C(=O)C1([H])N(C(=O)C([H])(N([H])C(=O)C([H])(N([H])C([H])([H])[H])C([H])([H])[H])C(C([H])([H])[H])(C([H])([H])[H])C([H])([H])[H])C([H])([H])c2c([H])c(OC([H])([H])C([H])([H])C([H])([H])[N+]([H])([H])C([H])([H])C([H])([H])C([H])([H])C([H])([H])[N+]3([H])C([H])([H])C([H])([H])C([H])(C([H])([H])N([H])C(=O)N4C([H])([H])C([H])([H])C([H])([H])C([H])(n5nc(-c6c([H])c([H])c(Oc7c([H])c([H])c(F)c([H])c7F)c([H])c6[H])c(C(=O)N([H])[H])c5N([H])[H])C4([H])[H])C([H])([H])C3([H])[H])c([H])c([H])c2C1([H])[H]

$$$$
59:0:0
     RDKit          3D

 98107  0  0  1  0  0  0  0  0999 V2000
  -29.0720  -20.4760   21.2670 C   0  0  0  0  0  2  0  0  0  0  0  0
  -31.1390  -21.3690   22.2790 C   0  0  0  0  0  2  0  0  0  0  0  0
  -28.6760  -21.8670   20.7670 C   0  0  0  0  0  2  0  0  0  0  0  0
  -30.7810  -22.7880   21.7960 C   0  0  0  0  0  2  0  0  0  0  0  0
  -30.5990  -20.3620   21.2660 C   0  0  0  0  0  3  0  0  0  0  0  0
  -29.3240  -22.9840   21.5160 N   0  0  1  0  0  4  0  0  0  0  0  0
  -28.8510  -23.0590   22.4060 H   0  0  0  0  0  0  0  0  0  0  0  0
  -30.4460  -18.0640   22.3510 C   0  0  0  0  0  3  0  0  0  0  0  0
  -30.7890  -16.7010   22.3700 C   0  0  0  0  0  3  0  0  0  0  0  0
  -32.5020  -17.1050   20.6780 C   0  0  0  0  0  3  0  0  0  0  0  0
  -31.0950  -18.9400   21.4550 C   0  0  0  0  0  0  0  0  0  0  0  0
  -31.7890  -16.2170   21.5040 C   0  0  0  0  0  0  0  0  0  0  0  0
  -32.1570  -18.4650   20.6530 C   0  0  0  0  0  0  0  0  0  0  0  0
  -32.8180  -19.2980   19.8120 F   0  0  0  0  0  0  0  0  0  0  0  0
  -32.0180  -14.7300   21.3800 C   0  0  0  0  0  2  0  0  0  0  0  0
  -30.5120  -14.0910   19.4920 C   0  0  0  0  0  0  0  0  0  0  0  0
  -29.7070  -12.3190   18.0020 C   0  0  0  0  0  2  0  0  0  0  0  0
  -28.5170  -12.6420   17.0920 C   0  0  0  0  0  2  0  0  0  0  0  0
  -27.1880  -12.4280   17.8350 C   0  0  0  0  0  2  0  0  0  0  0  0
  -27.1510  -13.1550   19.2030 C   0  0  0  0  0  3  0  0  0  0  0  0
  -28.4150  -12.8390   20.0330 C   0  0  0  0  0  2  0  0  0  0  0  0
  -29.6150  -13.1210   19.2250 N   0  0  0  0  0  0  0  0  0  0  0  0
  -31.1650  -14.6920   18.6330 O   0  0  0  0  0  0  0  0  0  0  0  0
  -30.8560  -14.0840   20.7860 N   0  0  0  0  0  0  0  0  0  0  0  0
  -30.3310  -13.4590   21.3810 H   0  0  0  0  0  0  0  0  0  0  0  0
  -24.9570  -13.6780   20.4510 C   0  0  0  0  0  0  0  0  0  0  0  0
  -23.9860  -12.8660   20.9730 C   0  0  0  0  0  0  0  0  0  0  0  0
  -24.4240  -11.5260   20.7380 C   0  0  0  0  0  0  0  0  0  0  0  0
  -25.9270  -12.8320   19.9360 N   0  0  0  0  0  0  0  0  0  0  0  0
  -25.6190  -11.5280   20.1610 N   0  0  0  0  0  0  0  0  0  0  0  0
  -23.7480  -10.2450   20.9750 C   0  0  0  0  0  0  0  0  0  0  0  0
  -24.2930   -9.2720   21.8430 C   0  0  0  0  0  3  0  0  0  0  0  0
  -23.6150   -8.0550   22.0700 C   0  0  0  0  0  3  0  0  0  0  0  0
  -22.3800   -7.8010   21.4290 C   0  0  0  0  0  0  0  0  0  0  0  0
  -21.8530   -8.7630   20.5490 C   0  0  0  0  0  3  0  0  0  0  0  0
  -22.5300   -9.9720   20.3200 C   0  0  0  0  0  3  0  0  0  0  0  0
  -21.6640   -6.6360   21.5680 O   0  0  0  0  0  0  0  0  0  0  0  0
  -21.6650   -5.9270   22.7430 C   0  0  0  0  0  0  0  0  0  0  0  0
  -21.2390   -6.5000   23.9610 C   0  0  0  0  0  3  0  0  0  0  0  0
  -21.1910   -5.7160   25.1300 C   0  0  0  0  0  3  0  0  0  0  0  0
  -21.5590   -4.3580   25.0830 C   0  0  0  0  0  0  0  0  0  0  0  0
  -21.9770   -3.7830   23.8700 C   0  0  0  0  0  3  0  0  0  0  0  0
  -22.0270   -4.5660   22.7020 C   0  0  0  0  0  0  0  0  0  0  0  0
  -22.4120   -4.0010   21.5320 F   0  0  0  0  0  0  0  0  0  0  0  0
  -21.5040   -3.6010   26.2040 F   0  0  0  0  0  0  0  0  0  0  0  0
  -22.6800  -13.3020   21.5710 C   0  0  0  0  0  0  0  0  0  0  0  0
  -22.1660  -12.5500   22.5380 N   0  0  0  0  0  0  0  0  0  0  0  0
  -22.1280  -14.3430   21.2140 O   0  0  0  0  0  0  0  0  0  0  0  0
  -22.6280  -11.7070   22.8460 H   0  0  0  0  0  0  0  0  0  0  0  0
  -21.2980  -12.8220   22.9780 H   0  0  0  0  0  0  0  0  0  0  0  0
  -25.0850  -15.0610   20.3530 N   0  0  0  0  0  0  0  0  0  0  0  0
  -24.3680  -15.6980   20.6840 H   0  0  0  0  0  0  0  0  0  0  0  0
  -25.8560  -15.5360   19.8980 H   0  0  0  0  0  0  0  0  0  0  0  0
  -29.0630  -24.2470   20.7870 C   0  0  0  0  0  2  0  0  0  0  0  0
  -29.3370  -25.5270   21.5850 C   0  0  0  0  0  3  0  0  0  0  0  0
  -28.3920  -25.6920   22.5140 F   0  0  0  0  0  0  0  0  0  0  0  0
  -29.3920  -26.7360   20.6470 C   0  0  0  0  0  2  0  0  0  0  0  0
  -28.3490  -26.6200   19.6750 O   0  0  0  0  0  0  0  0  0  0  0  0
  -24.7450  -31.7210   23.1050 C   0  0  0  0  0  0  0  0  0  0  0  0
  -27.1990  -27.3530   19.8390 C   0  0  0  0  0  0  0  0  0  0  0  0
  -23.4300  -30.3500   21.5130 C   0  0  0  0  0  3  0  0  0  0  0  0
  -24.7890  -28.8140   20.0020 C   0  0  0  0  0  0  0  0  0  0  0  0
  -25.9320  -30.7110   21.1700 C   0  0  0  0  0  2  0  0  0  0  0  0
  -25.9710  -29.3480   20.5220 C   0  0  0  0  0  0  0  0  0  0  0  0
  -27.1750  -28.6310   20.4370 C   0  0  0  0  0  3  0  0  0  0  0  0
  -26.0020  -26.8200   19.3150 C   0  0  0  0  0  3  0  0  0  0  0  0
  -24.7940  -27.5430   19.3980 C   0  0  0  0  0  3  0  0  0  0  0  0
  -23.5510  -29.6720   20.1200 C   0  0  0  0  0  2  0  0  0  0  0  0
  -24.7240  -30.9390   21.9890 N   0  0  0  0  0  0  0  0  0  0  0  0
  -23.7010  -31.9940   23.7120 O   0  0  0  0  0  0  0  0  0  0  0  0
  -22.8280  -29.3250   22.4980 C   0  0  0  0  0  0  0  0  0  0  0  0
  -21.5070  -29.1150   22.3980 N   0  0  0  0  0  0  0  0  0  0  0  0
  -23.5440  -28.7180   23.3000 O   0  0  0  0  0  0  0  0  0  0  0  0
  -20.9930  -29.6560   21.7160 H   0  0  0  0  0  0  0  0  0  0  0  0
  -18.1740  -27.8330   22.9310 C   0  0  0  0  0  0  0  0  0  0  0  0
  -20.7230  -28.1690   23.1900 C   0  0  0  0  0  3  0  0  0  0  0  0
  -20.8660  -26.7310   22.6410 C   0  0  0  0  0  2  0  0  0  0  0  0
  -19.7720  -26.3570   21.6360 C   0  0  0  0  0  2  0  0  0  0  0  0
  -18.3870  -26.4760   22.2810 C   0  0  0  0  0  2  0  0  0  0  0  0
  -19.2720  -28.6350   23.3420 C   0  0  0  0  0  0  0  0  0  0  0  0
  -19.0210  -29.9050   23.9080 C   0  0  0  0  0  3  0  0  0  0  0  0
  -17.7040  -30.3760   24.0650 C   0  0  0  0  0  3  0  0  0  0  0  0
  -16.6200  -29.5700   23.6730 C   0  0  0  0  0  3  0  0  0  0  0  0
  -16.8550  -28.3010   23.1130 C   0  0  0  0  0  3  0  0  0  0  0  0
  -26.0740  -32.3250   23.6590 C   0  0  0  0  0  3  0  0  0  0  0  0
  -25.7870  -33.6970   24.0970 N   0  0  0  0  0  0  0  0  0  0  0  0
  -26.0590  -34.7950   23.3800 C   0  0  0  0  0  0  0  0  0  0  0  0
  -26.6530  -34.7610   22.2990 O   0  0  0  0  0  0  0  0  0  0  0  0
  -25.2580  -33.7980   24.9500 H   0  0  0  0  0  0  0  0  0  0  0  0
  -24.3030  -36.5850   23.2580 C   0  0  0  0  0  1  0  0  0  0  0  0
  -25.6000  -36.1480   23.9560 C   0  0  0  0  0  3  0  0  0  0  0  0
  -27.7820  -36.9980   24.6890 C   0  0  0  0  0  1  0  0  0  0  0  0
  -26.6160  -37.2150   23.8360 N   0  0  0  0  0  0  0  0  0  0  0  0
  -26.2180  -38.1210   24.0670 H   0  0  0  0  0  0  0  0  0  0  0  0
  -26.7010  -31.4810   24.8340 C   0  0  1  0  0  0  0  0  0  0  0  0
  -25.6880  -31.1130   25.9410 C   0  0  0  0  0  1  0  0  0  0  0  0
  -27.3120  -30.1680   24.2940 C   0  0  0  0  0  1  0  0  0  0  0  0
  -27.8570  -32.2730   25.4900 C   0  0  0  0  0  1  0  0  0  0  0  0
  3  1  1  0
  3  6  1  0
  4  2  1  0
  5  1  1  0
  5 11  1  0
  5  2  1  0
  6  4  1  0
  6  7  1  1
  8  9  1  0
 10 12  1  0
 11  8  2  0
 12  9  2  0
 13 10  2  0
 13 11  1  0
 14 13  1  0
 15 12  1  0
 16 24  1  0
 17 22  1  0
 18 19  1  0
 18 17  1  0
 20 19  1  0
 20 29  1  0
 20 21  1  0
 22 16  1  0
 22 21  1  0
 23 16  2  0
 24 15  1  0
 24 25  1  0
 26 27  2  0
 27 46  1  0
 28 27  1  0
 28 31  1  0
 29 30  1  0
 29 26  1  0
 30 28  2  0
 31 32  1  0
 32 33  2  0
 34 37  1  0
 34 33  1  0
 35 34  2  0
 36 35  1  0
 36 31  2  0
 37 38  1  0
 38 39  1  0
 39 40  2  0
 41 40  1  0
 41 45  1  0
 42 41  2  0
 43 38  2  0
 43 42  1  0
 44 43  1  0
 46 47  1  0
 47 49  1  0
 47 50  1  0
 48 46  2  0
 51 26  1  0
 51 52  1  0
 53 51  1  0
 54  6  1  0
 54 55  1  0
 55 56  1  0
 57 55  1  0
 58 60  1  0
 58 57  1  0
 59 70  2  0
 60 65  1  0
 61 69  1  0
 61 71  1  0
 62 68  1  0
 62 64  1  0
 63 69  1  0
 64 63  1  0
 65 64  2  0
 66 67  1  0
 66 60  2  0
 67 62  2  0
 68 61  1  0
 69 59  1  0
 71 73  2  0
 72 71  1  0
 74 72  1  0
 75 84  2  0
 75 80  1  0
 76 72  1  0
 76 80  1  0
 77 76  1  0
 78 79  1  0
 78 77  1  0
 79 75  1  0
 80 81  2  0
 81 82  1  0
 83 82  2  0
 84 83  1  0
 85 59  1  0
 85 86  1  0
 85 95  1  0
 86 89  1  0
 87 91  1  0
 87 86  1  0
 88 87  2  0
 91 90  1  0
 93 91  1  0
 93 94  1  0
 93 92  1  0
 95 98  1  1
 95 96  1  0
 97 95  1  0
M  ISO  4  16 100  24 100  57 101  58 101
M  END
>  <TORSDO>  (60) 
F 21

>  <SCORE>  (60) 
-10.609

>  <name>  (60) 
59

>  <ligand_id>  (60) 
59

>  <original_smiles>  (60) 
[H]c1c([H])c([H])c2c(c1[H])C([H])([H])C([H])([H])C([H])([H])C2([H])N([H])C(=O)C1([H])N(C(=O)C([H])(N([H])C(=O)C([H])(N([H])C([H])([H])[H])C([H])([H])[H])C(C([H])([H])[H])(C([H])([H])[H])C([H])([H])[H])C([H])([H])c2c([H])c(OC([H])([H])C([H])(F)C([H])([H])[N+]3([H])C([H])([H])C([H])([H])C([H])(c4c([H])c([H])c(C([H])([H])N([H])C(=O)N5C([H])([H])C([H])([H])C([H])([H])C([H])(n6nc(-c7c([H])c([H])c(Oc8c([H])c([H])c(F)c([H])c8F)c([H])c7[H])c(C(=O)N([H])[H])c6N([H])[H])C5([H])[H])c([H])c4F)C([H])([H])C3([H])[H])c([H])c([H])c2C1([H])[H]

>  <smiles>  (60) 
[H]c1c([H])c([H])c2c(c1[H])C([H])([H])C([H])([H])C([H])([H])C2([H])N([H])C(=O)C1([H])N(C(=O)C([H])(N([H])C(=O)C([H])(N([H])C([H])([H])[H])C([H])([H])[H])C(C([H])([H])[H])(C([H])([H])[H])C([H])([H])[H])C([H])([H])c2c([H])c(OC([H])([H])C([H])(F)C([H])([H])[N+]3([H])C([H])([H])C([H])([H])C([H])(c4c([H])c([H])c(C([H])([H])N([H])C(=O)N5C([H])([H])C([H])([H])C([H])([H])C([H])(n6nc(-c7c([H])c([H])c(Oc8c([H])c([H])c(F)c([H])c8F)c([H])c7[H])c(C(=O)N([H])[H])c6N([H])[H])C5([H])[H])c([H])c4F)C([H])([H])C3([H])[H])c([H])c([H])c2C1([H])[H]

$$$$
60:0:0
     RDKit          3D

 98107  0  0  1  0  0  0  0  0999 V2000
  -26.9690  -21.7130   18.5410 C   0  0  0  0  0  2  0  0  0  0  0  0
  -26.2880  -22.7320   20.6230 C   0  0  0  0  0  2  0  0  0  0  0  0
  -27.0790  -20.6530   19.6500 C   0  0  0  0  0  3  0  0  0  0  0  0
  -27.1480  -21.5060   20.9300 C   0  0  0  0  0  3  0  0  0  0  0  0
  -26.2650  -22.8640   19.1490 N   0  0  1  0  0  4  0  0  0  0  0  0
  -28.3960  -21.9340   21.1390 F   0  0  0  0  0  0  0  0  0  0  0  0
  -25.2950  -22.7360   18.9040 H   0  0  0  0  0  0  0  0  0  0  0  0
  -29.2950  -19.8390   18.6000 C   0  0  0  0  0  3  0  0  0  0  0  0
  -29.3570  -17.6390   20.3390 C   0  0  0  0  0  3  0  0  0  0  0  0
  -28.2210  -19.6390   19.5010 C   0  0  0  0  0  0  0  0  0  0  0  0
  -30.4780  -17.9160   19.5280 C   0  0  0  0  0  0  0  0  0  0  0  0
  -30.4230  -19.0010   18.6290 C   0  0  0  0  0  0  0  0  0  0  0  0
  -28.2400  -18.4960   20.3320 C   0  0  0  0  0  0  0  0  0  0  0  0
  -31.4660  -19.2710   17.8050 F   0  0  0  0  0  0  0  0  0  0  0  0
  -27.2010  -18.2350   21.1590 F   0  0  0  0  0  0  0  0  0  0  0  0
  -31.7380  -17.0740   19.6500 C   0  0  0  0  0  2  0  0  0  0  0  0
  -31.9430  -14.6140   19.3670 C   0  0  0  0  0  0  0  0  0  0  0  0
  -31.5320  -12.2470   18.8150 C   0  0  0  0  0  2  0  0  0  0  0  0
  -30.5450  -12.1640   17.6340 C   0  0  0  0  0  2  0  0  0  0  0  0
  -29.0900  -12.1850   18.1410 C   0  0  0  0  0  2  0  0  0  0  0  0
  -28.8290  -13.3510   19.1310 C   0  0  0  0  0  3  0  0  0  0  0  0
  -29.9190  -13.3850   20.2280 C   0  0  0  0  0  2  0  0  0  0  0  0
  -31.2370  -13.4740   19.5690 N   0  0  0  0  0  0  0  0  0  0  0  0
  -32.9500  -14.6790   18.6590 O   0  0  0  0  0  0  0  0  0  0  0  0
  -31.4270  -15.6900   19.9690 N   0  0  0  0  0  0  0  0  0  0  0  0
  -30.6580  -15.5270   20.6000 H   0  0  0  0  0  0  0  0  0  0  0  0
  -26.5960  -14.2870   20.0190 C   0  0  0  0  0  0  0  0  0  0  0  0
  -25.4630  -13.6660   20.4690 C   0  0  0  0  0  0  0  0  0  0  0  0
  -25.7260  -12.2620   20.4030 C   0  0  0  0  0  0  0  0  0  0  0  0
  -27.4890  -13.2700   19.7110 N   0  0  0  0  0  0  0  0  0  0  0  0
  -26.9700  -12.0470   19.9930 N   0  0  0  0  0  0  0  0  0  0  0  0
  -24.8520  -11.1100   20.6520 C   0  0  0  0  0  0  0  0  0  0  0  0
  -25.1570  -10.1510   21.6430 C   0  0  0  0  0  3  0  0  0  0  0  0
  -24.2900   -9.0620   21.8760 C   0  0  0  0  0  3  0  0  0  0  0  0
  -23.1030   -8.9260   21.1170 C   0  0  0  0  0  0  0  0  0  0  0  0
  -22.8150   -9.8710   20.1180 C   0  0  0  0  0  3  0  0  0  0  0  0
  -23.6810  -10.9520   19.8840 C   0  0  0  0  0  3  0  0  0  0  0  0
  -22.2150   -7.8860   21.2550 O   0  0  0  0  0  0  0  0  0  0  0  0
  -22.0070   -7.2720   22.4640 C   0  0  0  0  0  0  0  0  0  0  0  0
  -21.5540   -7.9860   23.5940 C   0  0  0  0  0  3  0  0  0  0  0  0
  -21.2870   -7.3050   24.7980 C   0  0  0  0  0  3  0  0  0  0  0  0
  -21.4630   -5.9100   24.8720 C   0  0  0  0  0  0  0  0  0  0  0  0
  -21.9070   -5.1950   23.7450 C   0  0  0  0  0  3  0  0  0  0  0  0
  -22.1760   -5.8750   22.5450 C   0  0  0  0  0  0  0  0  0  0  0  0
  -22.5840   -5.1780   21.4570 F   0  0  0  0  0  0  0  0  0  0  0  0
  -21.1990   -5.2540   26.0260 F   0  0  0  0  0  0  0  0  0  0  0  0
  -24.1700  -14.3260   20.8530 C   0  0  0  0  0  0  0  0  0  0  0  0
  -23.4480  -13.7490   21.8050 N   0  0  0  0  0  0  0  0  0  0  0  0
  -23.8180  -15.3900   20.3430 O   0  0  0  0  0  0  0  0  0  0  0  0
  -23.7500  -12.8930   22.2420 H   0  0  0  0  0  0  0  0  0  0  0  0
  -22.5840  -14.1760   22.1050 H   0  0  0  0  0  0  0  0  0  0  0  0
  -26.9380  -15.6220   19.8330 N   0  0  0  0  0  0  0  0  0  0  0  0
  -26.2920  -16.3780   20.0350 H   0  0  0  0  0  0  0  0  0  0  0  0
  -27.8240  -15.9450   19.4660 H   0  0  0  0  0  0  0  0  0  0  0  0
  -26.6550  -24.1940   18.6200 C   0  0  0  0  0  3  0  0  0  0  0  0
  -28.0470  -24.7560   19.0750 C   0  0  0  0  0  3  0  0  0  0  0  0
  -28.5770  -25.9630   18.2380 C   0  0  0  0  0  2  0  0  0  0  0  0
  -28.5300  -27.2580   18.8610 O   0  0  0  0  0  0  0  0  0  0  0  0
  -24.5510  -31.5520   22.9040 C   0  0  0  0  0  0  0  0  0  0  0  0
  -27.3200  -27.9030   19.0000 C   0  0  0  0  0  0  0  0  0  0  0  0
  -23.3590  -30.3190   21.1290 C   0  0  0  0  0  3  0  0  0  0  0  0
  -24.8270  -29.1750   19.3940 C   0  0  0  0  0  0  0  0  0  0  0  0
  -25.8330  -30.9140   20.8700 C   0  0  0  0  0  2  0  0  0  0  0  0
  -25.9760  -29.6720   20.0210 C   0  0  0  0  0  0  0  0  0  0  0  0
  -27.2210  -29.0240   19.8510 C   0  0  0  0  0  3  0  0  0  0  0  0
  -26.1700  -27.5020   18.2910 C   0  0  0  0  0  3  0  0  0  0  0  0
  -24.9170  -28.0840   18.5240 C   0  0  0  0  0  3  0  0  0  0  0  0
  -23.5260  -29.8960   19.6470 C   0  0  0  0  0  2  0  0  0  0  0  0
  -24.6010  -30.9360   21.6920 N   0  0  0  0  0  0  0  0  0  0  0  0
  -23.4880  -31.6410   23.5340 O   0  0  0  0  0  0  0  0  0  0  0  0
  -22.8620  -29.0980   21.9400 C   0  0  0  0  0  0  0  0  0  0  0  0
  -21.5610  -28.7900   21.8160 N   0  0  0  0  0  0  0  0  0  0  0  0
  -23.6420  -28.4430   22.6370 O   0  0  0  0  0  0  0  0  0  0  0  0
  -20.9870  -29.3920   21.2440 H   0  0  0  0  0  0  0  0  0  0  0  0
  -18.3670  -27.1330   22.1560 C   0  0  0  0  0  0  0  0  0  0  0  0
  -20.8780  -27.6640   22.4530 C   0  0  0  0  0  3  0  0  0  0  0  0
  -21.1490  -26.3470   21.6890 C   0  0  0  0  0  2  0  0  0  0  0  0
  -20.0730  -26.0210   20.6500 C   0  0  0  0  0  2  0  0  0  0  0  0
  -18.6970  -25.9100   21.3150 C   0  0  0  0  0  2  0  0  0  0  0  0
  -19.3930  -27.9680   22.6720 C   0  0  0  0  0  0  0  0  0  0  0  0
  -19.0380  -29.1210   23.4020 C   0  0  0  0  0  3  0  0  0  0  0  0
  -17.6860  -29.4430   23.6270 C   0  0  0  0  0  3  0  0  0  0  0  0
  -16.6720  -28.6000   23.1340 C   0  0  0  0  0  3  0  0  0  0  0  0
  -17.0150  -27.4480   22.4050 C   0  0  0  0  0  3  0  0  0  0  0  0
  -25.8220  -32.1910   23.5470 C   0  0  0  0  0  3  0  0  0  0  0  0
  -25.4370  -33.5170   24.0460 N   0  0  0  0  0  0  0  0  0  0  0  0
  -25.6860  -34.6680   23.4080 C   0  0  0  0  0  0  0  0  0  0  0  0
  -26.3330  -34.7290   22.3590 O   0  0  0  0  0  0  0  0  0  0  0  0
  -24.8560  -33.5410   24.8710 H   0  0  0  0  0  0  0  0  0  0  0  0
  -23.8350  -36.3680   23.3100 C   0  0  0  0  0  1  0  0  0  0  0  0
  -25.1280  -35.9580   24.0340 C   0  0  0  0  0  3  0  0  0  0  0  0
  -27.2280  -36.8850   24.9030 C   0  0  0  0  0  1  0  0  0  0  0  0
  -26.0840  -37.0840   24.0170 N   0  0  0  0  0  0  0  0  0  0  0  0
  -25.6260  -37.9510   24.2840 H   0  0  0  0  0  0  0  0  0  0  0  0
  -26.4460  -31.3120   24.6990 C   0  0  1  0  0  0  0  0  0  0  0  0
  -25.4240  -30.8840   25.7780 C   0  0  0  0  0  1  0  0  0  0  0  0
  -27.0890  -30.0280   24.1220 C   0  0  0  0  0  1  0  0  0  0  0  0
  -27.5760  -32.0990   25.4010 C   0  0  0  0  0  1  0  0  0  0  0  0
  1  5  1  0
  1  3  1  0
  2  4  1  0
  3 10  1  0
  3  4  1  0
  4  6  1  0
  5  2  1  0
  5  7  1  6
  8 12  2  0
  8 10  1  0
 10 13  2  0
 11 16  1  0
 11  9  2  0
 12 11  1  0
 13  9  1  0
 13 15  1  0
 14 12  1  0
 16 25  1  0
 17 23  1  0
 17 25  1  0
 18 23  1  0
 19 20  1  0
 19 18  1  0
 21 20  1  0
 21 30  1  0
 21 22  1  0
 23 22  1  0
 24 17  2  0
 25 26  1  0
 27 28  2  0
 28 47  1  0
 29 28  1  0
 29 32  1  0
 30 31  1  0
 30 27  1  0
 31 29  2  0
 32 33  1  0
 33 34  2  0
 35 38  1  0
 35 34  1  0
 36 35  2  0
 37 36  1  0
 37 32  2  0
 38 39  1  0
 39 44  2  0
 39 40  1  0
 40 41  2  0
 41 42  1  0
 42 46  1  0
 43 42  2  0
 44 43  1  0
 45 44  1  0
 47 48  1  0
 48 51  1  0
 48 50  1  0
 49 47  2  0
 52 27  1  0
 52 53  1  0
 54 52  1  0
 55 56  2  0
 55  5  1  0
 57 58  1  0
 57 56  1  0
 58 60  1  0
 59 70  2  0
 60 65  1  0
 61 69  1  0
 61 71  1  0
 62 68  1  0
 62 64  1  0
 63 69  1  0
 64 63  1  0
 65 64  2  0
 66 67  1  0
 66 60  2  0
 67 62  2  0
 68 61  1  0
 69 59  1  0
 71 73  2  0
 72 71  1  0
 74 72  1  0
 75 84  2  0
 75 80  1  0
 76 72  1  0
 76 80  1  0
 77 76  1  0
 78 79  1  0
 78 77  1  0
 79 75  1  0
 80 81  2  0
 81 82  1  0
 83 82  2  0
 84 83  1  0
 85 59  1  0
 85 86  1  0
 85 95  1  0
 86 89  1  0
 87 91  1  0
 87 86  1  0
 88 87  2  0
 91 90  1  0
 93 91  1  0
 93 94  1  0
 93 92  1  0
 95 98  1  1
 95 96  1  0
 97 95  1  0
M  ISO  4  17 100  25 100  57 101  58 101
M  END
>  <TORSDO>  (61) 
F 21

>  <SCORE>  (61) 
-9.028

>  <name>  (61) 
60

>  <ligand_id>  (61) 
60

>  <original_smiles>  (61) 
[H]c1c([H])c([H])c2c(c1[H])C([H])([H])C([H])([H])C([H])([H])C2([H])N([H])C(=O)C1([H])N(C(=O)C([H])(N([H])C(=O)C([H])(N([H])C([H])([H])[H])C([H])([H])[H])C(C([H])([H])[H])(C([H])([H])[H])C([H])([H])[H])C([H])([H])c2c([H])c(OC([H])([H])C([H])([H])C([H])([H])[N+]3([H])C([H])([H])C([H])(F)C([H])(c4c([H])c(F)c(C([H])([H])N([H])C(=O)N5C([H])([H])C([H])([H])C([H])([H])C([H])(n6nc(-c7c([H])c([H])c(Oc8c([H])c([H])c(F)c([H])c8F)c([H])c7[H])c(C(=O)N([H])[H])c6N([H])[H])C5([H])[H])c([H])c4F)C3([H])[H])c([H])c([H])c2C1([H])[H]

>  <smiles>  (61) 
[H]c1c([H])c([H])c2c(c1[H])C([H])([H])C([H])([H])C([H])([H])C2([H])N([H])C(=O)C1([H])N(C(=O)C([H])(N([H])C(=O)C([H])(N([H])C([H])([H])[H])C([H])([H])[H])C(C([H])([H])[H])(C([H])([H])[H])C([H])([H])[H])C([H])([H])c2c([H])c(OC([H])([H])C([H])([H])C([H])([H])[N+]3([H])C([H])([H])C([H])(F)C([H])(c4c([H])c(F)c(C([H])([H])N([H])C(=O)N5C([H])([H])C([H])([H])C([H])([H])C([H])(n6nc(-c7c([H])c([H])c(Oc8c([H])c([H])c(F)c([H])c8F)c([H])c7[H])c(C(=O)N([H])[H])c6N([H])[H])C5([H])[H])c([H])c4F)C3([H])[H])c([H])c([H])c2C1([H])[H]

$$$$
61:0:0
     RDKit          3D

101109  0  0  1  0  0  0  0  0999 V2000
  -28.6260  -20.8370   16.1910 C   0  0  0  0  0  2  0  0  0  0  0  0
  -29.6270  -20.1600   15.3270 N   0  0  0  0  0  4  0  0  0  0  0  0
  -29.3110  -20.2540   14.3740 H   0  0  0  0  0  0  0  0  0  0  0  0
  -30.5260  -20.6120   15.3640 H   0  0  0  0  0  0  0  0  0  0  0  0
  -29.7750  -18.7040   15.5800 C   0  0  0  0  0  2  0  0  0  0  0  0
  -31.1650  -18.3120   16.1360 C   0  0  0  0  0  2  0  0  0  0  0  0
  -31.3930  -18.5310   17.6510 C   0  0  0  0  0  2  0  0  0  0  0  0
  -31.7430  -13.6420   20.7380 C   0  0  0  0  0  0  0  0  0  0  0  0
  -31.1280  -11.8810   19.1580 C   0  0  0  0  0  2  0  0  0  0  0  0
  -30.2590  -12.4520   18.0240 C   0  0  0  0  0  2  0  0  0  0  0  0
  -28.7680  -12.4500   18.4100 C   0  0  0  0  0  2  0  0  0  0  0  0
  -28.5050  -13.0030   19.8370 C   0  0  0  0  0  3  0  0  0  0  0  0
  -29.5010  -12.4290   20.8680 C   0  0  0  0  0  2  0  0  0  0  0  0
  -30.8450  -12.6990   20.3440 N   0  0  0  0  0  0  0  0  0  0  0  0
  -32.9470  -13.4100   20.6470 O   0  0  0  0  0  0  0  0  0  0  0  0
  -29.4560  -16.6020   20.3780 C   0  0  0  0  0  2  0  0  0  0  0  0
  -30.2720  -15.6510   21.3030 C   0  0  0  0  0  2  0  0  0  0  0  0
  -32.3590  -15.9510   20.1290 C   0  0  0  0  0  2  0  0  0  0  0  0
  -30.2200  -17.7620   19.7070 C   0  0  0  0  0  2  0  0  0  0  0  0
  -32.0720  -16.3580   18.6730 C   0  0  0  0  0  2  0  0  0  0  0  0
  -31.3650  -14.9570   20.6030 N   0  0  0  0  0  0  0  0  0  0  0  0
  -30.9760  -17.3590   18.4820 N   0  0  2  0  0  4  0  0  0  0  0  0
  -30.3020  -16.8740   17.9100 H   0  0  0  0  0  0  0  0  0  0  0  0
  -26.1120  -13.7930   20.3440 C   0  0  0  0  0  0  0  0  0  0  0  0
  -24.9730  -13.1040   20.6550 C   0  0  0  0  0  0  0  0  0  0  0  0
  -25.3540  -11.7300   20.7190 C   0  0  0  0  0  0  0  0  0  0  0  0
  -27.1150  -12.8400   20.2390 N   0  0  0  0  0  0  0  0  0  0  0  0
  -26.6580  -11.5970   20.5210 N   0  0  0  0  0  0  0  0  0  0  0  0
  -24.5420  -10.5240   20.9030 C   0  0  0  0  0  0  0  0  0  0  0  0
  -24.8490   -9.5780   21.9040 C   0  0  0  0  0  3  0  0  0  0  0  0
  -24.0460   -8.4290   22.0730 C   0  0  0  0  0  3  0  0  0  0  0  0
  -22.9230   -8.2220   21.2380 C   0  0  0  0  0  0  0  0  0  0  0  0
  -22.6380   -9.1550   20.2250 C   0  0  0  0  0  3  0  0  0  0  0  0
  -23.4410  -10.2960   20.0550 C   0  0  0  0  0  3  0  0  0  0  0  0
  -22.1000   -7.1250   21.3130 O   0  0  0  0  0  0  0  0  0  0  0  0
  -21.8230   -6.5160   22.5110 C   0  0  0  0  0  0  0  0  0  0  0  0
  -21.2650   -7.2260   23.5970 C   0  0  0  0  0  3  0  0  0  0  0  0
  -20.9310   -6.5440   24.7840 C   0  0  0  0  0  3  0  0  0  0  0  0
  -21.1440   -5.1560   24.8840 C   0  0  0  0  0  0  0  0  0  0  0  0
  -21.6960   -4.4480   23.8030 C   0  0  0  0  0  3  0  0  0  0  0  0
  -22.0330   -5.1270   22.6180 C   0  0  0  0  0  0  0  0  0  0  0  0
  -22.5430   -4.4360   21.5710 F   0  0  0  0  0  0  0  0  0  0  0  0
  -20.8170   -4.5010   26.0230 F   0  0  0  0  0  0  0  0  0  0  0  0
  -23.5920  -13.6770   20.7930 C   0  0  0  0  0  0  0  0  0  0  0  0
  -22.7710  -13.1010   21.6640 N   0  0  0  0  0  0  0  0  0  0  0  0
  -23.2460  -14.6750   20.1610 O   0  0  0  0  0  0  0  0  0  0  0  0
  -23.0600  -12.3000   22.2070 H   0  0  0  0  0  0  0  0  0  0  0  0
  -21.8390  -13.4690   21.7930 H   0  0  0  0  0  0  0  0  0  0  0  0
  -26.3670  -15.1410   20.1260 N   0  0  0  0  0  0  0  0  0  0  0  0
  -25.6320  -15.8370   20.1610 H   0  0  0  0  0  0  0  0  0  0  0  0
  -27.2790  -15.5300   19.9330 H   0  0  0  0  0  0  0  0  0  0  0  0
  -29.0720  -22.2200   16.7320 C   0  0  0  0  0  2  0  0  0  0  0  0
  -30.2510  -22.2450   17.7440 C   0  0  0  0  0  2  0  0  0  0  0  0
  -29.8800  -22.0140   19.1680 N   0  0  0  0  0  4  0  0  0  0  0  0
  -29.2280  -22.7310   19.4460 H   0  0  0  0  0  0  0  0  0  0  0  0
  -29.4180  -21.1260   19.2650 H   0  0  0  0  0  0  0  0  0  0  0  0
  -31.0450  -22.0310   20.0900 C   0  0  0  0  0  2  0  0  0  0  0  0
  -30.6710  -22.1820   21.5850 C   0  0  0  0  0  2  0  0  0  0  0  0
  -30.2740  -23.5990   22.0610 C   0  0  0  0  0  2  0  0  0  0  0  0
  -29.0170  -24.2120   21.4210 C   0  0  0  0  0  2  0  0  0  0  0  0
  -28.8750  -25.5510   21.8970 O   0  0  0  0  0  0  0  0  0  0  0  0
  -24.7840  -31.1510   23.4760 C   0  0  0  0  0  0  0  0  0  0  0  0
  -27.7320  -26.2520   21.5780 C   0  0  0  0  0  0  0  0  0  0  0  0
  -23.8290  -29.5540   21.8450 C   0  0  0  0  0  3  0  0  0  0  0  0
  -25.4400  -27.7910   20.9480 C   0  0  0  0  0  0  0  0  0  0  0  0
  -26.3630  -29.8190   22.0850 C   0  0  0  0  0  2  0  0  0  0  0  0
  -26.4950  -28.3670   21.6690 C   0  0  0  0  0  0  0  0  0  0  0  0
  -27.6390  -27.6040   21.9820 C   0  0  0  0  0  3  0  0  0  0  0  0
  -26.6500  -25.6860   20.8590 C   0  0  0  0  0  3  0  0  0  0  0  0
  -25.5110  -26.4480   20.5470 C   0  0  0  0  0  3  0  0  0  0  0  0
  -24.2540  -28.6730   20.6410 C   0  0  0  0  0  2  0  0  0  0  0  0
  -25.0000  -30.1970   22.5280 N   0  0  0  0  0  0  0  0  0  0  0  0
  -23.6380  -31.5290   23.7550 O   0  0  0  0  0  0  0  0  0  0  0  0
  -22.9590  -28.7010   22.7970 C   0  0  0  0  0  0  0  0  0  0  0  0
  -21.6600  -28.5820   22.4760 N   0  0  0  0  0  0  0  0  0  0  0  0
  -23.4560  -28.1420   23.7780 O   0  0  0  0  0  0  0  0  0  0  0  0
  -21.3210  -29.0790   21.6630 H   0  0  0  0  0  0  0  0  0  0  0  0
  -18.1300  -27.8720   22.7240 C   0  0  0  0  0  0  0  0  0  0  0  0
  -20.6660  -27.7980   23.2050 C   0  0  0  0  0  3  0  0  0  0  0  0
  -20.6190  -26.3400   22.6920 C   0  0  0  0  0  2  0  0  0  0  0  0
  -19.5690  -26.1210   21.5970 C   0  0  0  0  0  2  0  0  0  0  0  0
  -18.1720  -26.4820   22.1100 C   0  0  0  0  0  2  0  0  0  0  0  0
  -19.3030  -28.4960   23.2220 C   0  0  0  0  0  0  0  0  0  0  0  0
  -19.2140  -29.8040   23.7470 C   0  0  0  0  0  3  0  0  0  0  0  0
  -17.9830  -30.4840   23.7770 C   0  0  0  0  0  3  0  0  0  0  0  0
  -16.8200  -29.8570   23.2990 C   0  0  0  0  0  3  0  0  0  0  0  0
  -16.8950  -28.5510   22.7770 C   0  0  0  0  0  3  0  0  0  0  0  0
  -25.9680  -31.8340   24.2350 C   0  0  0  0  0  3  0  0  0  0  0  0
  -25.6480  -33.2630   24.3540 N   0  0  0  0  0  0  0  0  0  0  0  0
  -26.1180  -34.2170   23.5400 C   0  0  0  0  0  0  0  0  0  0  0  0
  -26.9340  -33.9910   22.6430 O   0  0  0  0  0  0  0  0  0  0  0  0
  -24.9510  -33.5170   25.0370 H   0  0  0  0  0  0  0  0  0  0  0  0
  -24.5120  -35.9720   22.7240 C   0  0  0  0  0  1  0  0  0  0  0  0
  -25.6010  -35.6520   23.7600 C   0  0  0  0  0  3  0  0  0  0  0  0
  -27.5880  -36.6180   24.8290 C   0  0  0  0  0  1  0  0  0  0  0  0
  -26.6650  -36.6780   23.6980 N   0  0  0  0  0  0  0  0  0  0  0  0
  -26.2610  -37.6110   23.6750 H   0  0  0  0  0  0  0  0  0  0  0  0
  -26.2440  -31.2060   25.6570 C   0  0  1  0  0  0  0  0  0  0  0  0
  -24.9670  -31.0160   26.5080 C   0  0  0  0  0  1  0  0  0  0  0  0
  -26.9340  -29.8280   25.5210 C   0  0  0  0  0  1  0  0  0  0  0  0
  -27.2180  -32.1100   26.4500 C   0  0  0  0  0  1  0  0  0  0  0  0
  1 52  1  0
  2  4  1  0
  2  5  1  0
  2  1  1  0
  3  2  1  0
  5  6  1  0
  6  7  1  0
  7 22  1  0
  9 14  1  0
 10 11  1  0
 10  9  1  0
 12 11  1  0
 12 27  1  0
 12 13  1  0
 14  8  1  0
 14 13  1  0
 15  8  2  0
 16 17  1  0
 18 21  1  0
 19 16  1  0
 20 18  1  0
 21  8  1  0
 21 17  1  0
 22 20  1  0
 22 19  1  0
 22 23  1  6
 24 25  2  0
 25 26  1  0
 25 44  1  0
 26 29  1  0
 27 24  1  0
 27 28  1  0
 28 26  2  0
 29 30  1  0
 30 31  2  0
 32 35  1  0
 32 31  1  0
 33 32  2  0
 34 33  1  0
 34 29  2  0
 35 36  1  0
 36 41  2  0
 36 37  1  0
 37 38  2  0
 38 39  1  0
 39 43  1  0
 40 39  2  0
 41 40  1  0
 42 41  1  0
 44 45  1  0
 45 48  1  0
 45 47  1  0
 46 44  2  0
 49 50  1  0
 49 24  1  0
 51 49  1  0
 52 53  1  0
 53 54  1  0
 54 56  1  0
 54 55  1  0
 54 57  1  0
 57 58  1  0
 58 59  1  0
 60 61  1  0
 60 59  1  0
 62 73  2  0
 63 61  1  0
 63 68  1  0
 64 72  1  0
 64 74  1  0
 65 67  1  0
 66 72  1  0
 67 68  2  0
 67 66  1  0
 69 63  2  0
 70 69  1  0
 70 65  2  0
 71 65  1  0
 71 64  1  0
 72 62  1  0
 74 76  2  0
 75 74  1  0
 77 75  1  0
 78 87  2  0
 78 83  1  0
 79 75  1  0
 79 83  1  0
 80 79  1  0
 81 82  1  0
 81 80  1  0
 82 78  1  0
 83 84  2  0
 84 85  1  0
 86 85  2  0
 87 86  1  0
 88 62  1  0
 88 89  1  0
 88 98  1  0
 89 92  1  0
 90 94  1  0
 90 89  1  0
 91 90  2  0
 94 93  1  0
 96 94  1  0
 96 95  1  0
 97 96  1  0
 98101  1  1
 98 99  1  0
100 98  1  0
M  ISO  4   8 100  21 100  60 101  61 101
M  END
>  <TORSDO>  (62) 
F 27

>  <SCORE>  (62) 
-9.324

>  <name>  (62) 
61

>  <ligand_id>  (62) 
61

>  <original_smiles>  (62) 
[H]c1c([H])c([H])c2c(c1[H])C([H])([H])C([H])([H])C([H])([H])C2([H])N([H])C(=O)C1([H])N(C(=O)C([H])(N([H])C(=O)C([H])(N([H])C([H])([H])[H])C([H])([H])[H])C(C([H])([H])[H])(C([H])([H])[H])C([H])([H])[H])C([H])([H])c2c([H])c(OC([H])([H])C([H])([H])C([H])([H])C([H])([H])[N+]([H])([H])C([H])([H])C([H])([H])C([H])([H])[N+]([H])([H])C([H])([H])C([H])([H])C([H])([H])[N+]3([H])C([H])([H])C([H])([H])N(C(=O)N4C([H])([H])C([H])([H])C([H])([H])C([H])(n5nc(-c6c([H])c([H])c(Oc7c([H])c([H])c(F)c([H])c7F)c([H])c6[H])c(C(=O)N([H])[H])c5N([H])[H])C4([H])[H])C([H])([H])C([H])([H])C3([H])[H])c([H])c([H])c2C1([H])[H]

>  <smiles>  (62) 
[H]c1c([H])c([H])c2c(c1[H])C([H])([H])C([H])([H])C([H])([H])C2([H])N([H])C(=O)C1([H])N(C(=O)C([H])(N([H])C(=O)C([H])(N([H])C([H])([H])[H])C([H])([H])[H])C(C([H])([H])[H])(C([H])([H])[H])C([H])([H])[H])C([H])([H])c2c([H])c(OC([H])([H])C([H])([H])C([H])([H])C([H])([H])[N+]([H])([H])C([H])([H])C([H])([H])C([H])([H])[N+]([H])([H])C([H])([H])C([H])([H])C([H])([H])[N+]3([H])C([H])([H])C([H])([H])N(C(=O)N4C([H])([H])C([H])([H])C([H])([H])C([H])(n5nc(-c6c([H])c([H])c(Oc7c([H])c([H])c(F)c([H])c7F)c([H])c6[H])c(C(=O)N([H])[H])c5N([H])[H])C4([H])[H])C([H])([H])C([H])([H])C3([H])[H])c([H])c([H])c2C1([H])[H]

$$$$
62:0:0
     RDKit          3D

 94102  0  0  1  0  0  0  0  0999 V2000
  -27.9680  -22.9820   22.2620 N   0  0  0  0  0  4  0  0  0  0  0  0
  -27.1470  -22.6870   22.7660 H   0  0  0  0  0  0  0  0  0  0  0  0
  -28.7780  -22.7710   22.8230 H   0  0  0  0  0  0  0  0  0  0  0  0
  -28.0310  -22.2190   20.9940 C   0  0  0  0  0  2  0  0  0  0  0  0
  -28.5240  -20.7670   21.2180 C   0  0  0  0  0  2  0  0  0  0  0  0
  -28.5140  -19.9290   19.9190 C   0  0  0  0  0  2  0  0  0  0  0  0
  -29.8660  -16.5140   21.1870 C   0  0  0  0  0  3  0  0  0  0  0  0
  -29.2030  -17.7670   21.1660 C   0  0  0  0  0  3  0  0  0  0  0  0
  -29.9660  -18.1290   18.8930 C   0  0  0  0  0  3  0  0  0  0  0  0
  -30.5830  -16.0480   20.0560 C   0  0  0  0  0  0  0  0  0  0  0  0
  -29.2400  -18.5840   20.0120 C   0  0  0  0  0  0  0  0  0  0  0  0
  -30.6250  -16.8850   18.9090 C   0  0  0  0  0  0  0  0  0  0  0  0
  -31.2870  -16.4890   17.7930 F   0  0  0  0  0  0  0  0  0  0  0  0
  -31.3530  -14.7370   20.0360 C   0  0  0  0  0  0  0  0  0  0  0  0
  -31.0010  -12.4790   19.1500 C   0  0  0  0  0  2  0  0  0  0  0  0
  -30.0790  -12.6410   17.9240 C   0  0  0  0  0  2  0  0  0  0  0  0
  -28.6000  -12.5860   18.3540 C   0  0  0  0  0  2  0  0  0  0  0  0
  -28.2840  -13.5260   19.5470 C   0  0  0  0  0  3  0  0  0  0  0  0
  -29.3300  -13.3690   20.6700 C   0  0  0  0  0  2  0  0  0  0  0  0
  -30.6650  -13.5610   20.0890 N   0  0  0  0  0  0  0  0  0  0  0  0
  -32.5360  -14.7830   19.6840 O   0  0  0  0  0  0  0  0  0  0  0  0
  -25.9520  -14.2850   20.3130 C   0  0  0  0  0  0  0  0  0  0  0  0
  -24.8380  -13.5860   20.6880 C   0  0  0  0  0  0  0  0  0  0  0  0
  -25.2040  -12.2030   20.6370 C   0  0  0  0  0  0  0  0  0  0  0  0
  -26.9270  -13.3360   20.0490 N   0  0  0  0  0  0  0  0  0  0  0  0
  -26.4820  -12.0780   20.3030 N   0  0  0  0  0  0  0  0  0  0  0  0
  -24.3950  -10.9930   20.8320 C   0  0  0  0  0  0  0  0  0  0  0  0
  -24.7560  -10.0050   21.7740 C   0  0  0  0  0  3  0  0  0  0  0  0
  -23.9540   -8.8590   21.9520 C   0  0  0  0  0  3  0  0  0  0  0  0
  -22.7760   -8.6890   21.1840 C   0  0  0  0  0  0  0  0  0  0  0  0
  -22.4350   -9.6650   20.2300 C   0  0  0  0  0  3  0  0  0  0  0  0
  -23.2370  -10.8040   20.0510 C   0  0  0  0  0  3  0  0  0  0  0  0
  -21.9510   -7.5950   21.2690 O   0  0  0  0  0  0  0  0  0  0  0  0
  -21.8050   -6.8940   22.4380 C   0  0  0  0  0  0  0  0  0  0  0  0
  -21.3820   -7.5170   23.6320 C   0  0  0  0  0  3  0  0  0  0  0  0
  -21.1730   -6.7470   24.7930 C   0  0  0  0  0  3  0  0  0  0  0  0
  -21.3800   -5.3550   24.7620 C   0  0  0  0  0  0  0  0  0  0  0  0
  -21.8000   -4.7300   23.5740 C   0  0  0  0  0  3  0  0  0  0  0  0
  -22.0080   -5.4980   22.4140 C   0  0  0  0  0  0  0  0  0  0  0  0
  -22.3880   -4.8900   21.2660 F   0  0  0  0  0  0  0  0  0  0  0  0
  -21.1770   -4.6120   25.8770 F   0  0  0  0  0  0  0  0  0  0  0  0
  -23.4810  -14.1530   20.9950 C   0  0  0  0  0  0  0  0  0  0  0  0
  -22.7320  -13.5060   21.8800 N   0  0  0  0  0  0  0  0  0  0  0  0
  -23.1010  -15.2100   20.4910 O   0  0  0  0  0  0  0  0  0  0  0  0
  -23.0590  -12.6530   22.3100 H   0  0  0  0  0  0  0  0  0  0  0  0
  -21.8260  -13.8740   22.1340 H   0  0  0  0  0  0  0  0  0  0  0  0
  -26.2110  -15.6440   20.1550 N   0  0  0  0  0  0  0  0  0  0  0  0
  -25.5050  -16.3550   20.2990 H   0  0  0  0  0  0  0  0  0  0  0  0
  -27.1110  -16.0290   19.9010 H   0  0  0  0  0  0  0  0  0  0  0  0
  -27.8770  -24.4560   22.1370 C   0  0  0  0  0  2  0  0  0  0  0  0
  -29.2120  -25.1110   21.7210 C   0  0  0  0  0  3  0  0  0  0  0  0
  -30.1510  -24.7730   22.6070 F   0  0  0  0  0  0  0  0  0  0  0  0
  -29.1010  -26.6510   21.6150 C   0  0  0  0  0  2  0  0  0  0  0  0
  -28.5900  -26.9970   20.3220 O   0  0  0  0  0  0  0  0  0  0  0  0
  -24.5530  -32.0120   23.3470 C   0  0  0  0  0  0  0  0  0  0  0  0
  -27.4170  -27.7110   20.3130 C   0  0  0  0  0  0  0  0  0  0  0  0
  -23.4240  -30.5890   21.6580 C   0  0  0  0  0  3  0  0  0  0  0  0
  -24.9630  -29.1030   20.2700 C   0  0  0  0  0  0  0  0  0  0  0  0
  -25.9370  -31.0400   21.5190 C   0  0  0  0  0  2  0  0  0  0  0  0
  -26.0830  -29.6760   20.8840 C   0  0  0  0  0  0  0  0  0  0  0  0
  -27.3120  -28.9880   20.9060 C   0  0  0  0  0  3  0  0  0  0  0  0
  -26.2920  -27.1490   19.6820 C   0  0  0  0  0  3  0  0  0  0  0  0
  -25.0580  -27.8330   19.6720 C   0  0  0  0  0  3  0  0  0  0  0  0
  -23.6880  -29.9150   20.2840 C   0  0  0  0  0  2  0  0  0  0  0  0
  -24.6540  -31.2300   22.2340 N   0  0  0  0  0  0  0  0  0  0  0  0
  -23.4560  -32.2430   23.8710 O   0  0  0  0  0  0  0  0  0  0  0  0
  -22.7750  -29.5480   22.5980 C   0  0  0  0  0  0  0  0  0  0  0  0
  -21.4590  -29.3350   22.4500 N   0  0  0  0  0  0  0  0  0  0  0  0
  -23.4630  -28.9260   23.4120 O   0  0  0  0  0  0  0  0  0  0  0  0
  -20.9560  -29.8850   21.7680 H   0  0  0  0  0  0  0  0  0  0  0  0
  -18.1100  -28.0690   22.9140 C   0  0  0  0  0  0  0  0  0  0  0  0
  -20.6600  -28.3720   23.2080 C   0  0  0  0  0  3  0  0  0  0  0  0
  -20.7960  -26.9520   22.6120 C   0  0  0  0  0  2  0  0  0  0  0  0
  -19.7090  -26.6220   21.5830 C   0  0  0  0  0  2  0  0  0  0  0  0
  -18.3190  -26.7330   22.2180 C   0  0  0  0  0  2  0  0  0  0  0  0
  -19.2110  -28.8440   23.3650 C   0  0  0  0  0  0  0  0  0  0  0  0
  -18.9650  -30.0910   23.9750 C   0  0  0  0  0  3  0  0  0  0  0  0
  -17.6520  -30.5690   24.1360 C   0  0  0  0  0  3  0  0  0  0  0  0
  -16.5650  -29.7930   23.7020 C   0  0  0  0  0  3  0  0  0  0  0  0
  -16.7950  -28.5440   23.0960 C   0  0  0  0  0  3  0  0  0  0  0  0
  -25.8100  -32.6750   23.9980 C   0  0  0  0  0  3  0  0  0  0  0  0
  -25.4700  -34.0700   24.3010 N   0  0  0  0  0  0  0  0  0  0  0  0
  -25.8000  -35.1160   23.5300 C   0  0  0  0  0  0  0  0  0  0  0  0
  -26.4980  -35.0090   22.5170 O   0  0  0  0  0  0  0  0  0  0  0  0
  -24.8680  -34.2260   25.0950 H   0  0  0  0  0  0  0  0  0  0  0  0
  -24.0560  -36.8780   23.0840 C   0  0  0  0  0  1  0  0  0  0  0  0
  -25.2700  -36.5010   23.9480 C   0  0  0  0  0  3  0  0  0  0  0  0
  -27.3590  -37.4390   24.8290 C   0  0  0  0  0  1  0  0  0  0  0  0
  -26.2840  -37.5740   23.8510 N   0  0  0  0  0  0  0  0  0  0  0  0
  -25.8560  -38.4850   23.9750 H   0  0  0  0  0  0  0  0  0  0  0  0
  -26.3070  -31.9280   25.2960 C   0  0  1  0  0  0  0  0  0  0  0  0
  -25.1890  -31.6670   26.3340 C   0  0  0  0  0  1  0  0  0  0  0  0
  -26.9450  -30.5640   24.9350 C   0  0  0  0  0  1  0  0  0  0  0  0
  -27.4150  -32.7620   25.9840 C   0  0  0  0  0  1  0  0  0  0  0  0
  1  2  1  0
  1  3  1  0
  4  5  1  0
  4  1  1  0
  6 11  1  0
  6  5  1  0
  8  7  1  0
  9 12  2  0
  9 11  1  0
 10  7  2  0
 11  8  2  0
 12 10  1  0
 13 12  1  0
 14 10  1  0
 14 20  1  0
 15 20  1  0
 16 17  1  0
 16 15  1  0
 18 17  1  0
 18 25  1  0
 18 19  1  0
 20 19  1  0
 21 14  2  0
 22 23  2  0
 23 42  1  0
 24 23  1  0
 24 27  1  0
 25 26  1  0
 25 22  1  0
 26 24  2  0
 27 28  1  0
 28 29  2  0
 30 33  1  0
 30 29  1  0
 31 30  2  0
 32 31  1  0
 32 27  2  0
 33 34  1  0
 34 35  1  0
 35 36  2  0
 37 36  1  0
 37 41  1  0
 38 37  2  0
 39 34  2  0
 39 38  1  0
 40 39  1  0
 42 43  1  0
 43 46  1  0
 43 45  1  0
 44 42  2  0
 47 48  1  0
 47 22  1  0
 49 47  1  0
 50  1  1  0
 51 50  1  0
 51 52  1  0
 53 51  1  0
 54 53  1  0
 55 66  2  0
 56 54  1  0
 56 61  1  0
 57 65  1  0
 57 67  1  0
 58 64  1  0
 58 60  1  0
 59 65  1  0
 60 61  2  0
 60 59  1  0
 62 56  2  0
 63 62  1  0
 63 58  2  0
 64 57  1  0
 65 55  1  0
 67 69  2  0
 68 67  1  0
 70 68  1  0
 71 80  2  0
 71 76  1  0
 72 68  1  0
 72 76  1  0
 73 72  1  0
 74 75  1  0
 74 73  1  0
 75 71  1  0
 76 77  2  0
 77 78  1  0
 79 78  2  0
 80 79  1  0
 81 55  1  0
 81 82  1  0
 81 91  1  0
 82 85  1  0
 83 87  1  0
 83 82  1  0
 84 83  2  0
 87 86  1  0
 89 87  1  0
 89 90  1  0
 89 88  1  0
 91 94  1  1
 91 92  1  0
 93 91  1  0
M  ISO  4  10 100  14 100  53 101  54 101
M  END
>  <TORSDO>  (63) 
F 23

>  <SCORE>  (63) 
-12.148

>  <name>  (63) 
62

>  <ligand_id>  (63) 
62

>  <original_smiles>  (63) 
[H]c1c([H])c([H])c2c(c1[H])C([H])([H])C([H])([H])C([H])([H])C2([H])N([H])C(=O)C1([H])N(C(=O)C([H])(N([H])C(=O)C([H])(N([H])C([H])([H])[H])C([H])([H])[H])C(C([H])([H])[H])(C([H])([H])[H])C([H])([H])[H])C([H])([H])c2c([H])c(OC([H])([H])C([H])(F)C([H])([H])[N+]([H])([H])C([H])([H])C([H])([H])C([H])([H])c3c([H])c([H])c(C(=O)N4C([H])([H])C([H])([H])C([H])([H])C([H])(n5nc(-c6c([H])c([H])c(Oc7c([H])c([H])c(F)c([H])c7F)c([H])c6[H])c(C(=O)N([H])[H])c5N([H])[H])C4([H])[H])c(F)c3[H])c([H])c([H])c2C1([H])[H]

>  <smiles>  (63) 
[H]c1c([H])c([H])c2c(c1[H])C([H])([H])C([H])([H])C([H])([H])C2([H])N([H])C(=O)C1([H])N(C(=O)C([H])(N([H])C(=O)C([H])(N([H])C([H])([H])[H])C([H])([H])[H])C(C([H])([H])[H])(C([H])([H])[H])C([H])([H])[H])C([H])([H])c2c([H])c(OC([H])([H])C([H])(F)C([H])([H])[N+]([H])([H])C([H])([H])C([H])([H])C([H])([H])c3c([H])c([H])c(C(=O)N4C([H])([H])C([H])([H])C([H])([H])C([H])(n5nc(-c6c([H])c([H])c(Oc7c([H])c([H])c(F)c([H])c7F)c([H])c6[H])c(C(=O)N([H])[H])c5N([H])[H])C4([H])[H])c(F)c3[H])c([H])c([H])c2C1([H])[H]

$$$$
63:0:0
     RDKit          3D

 97105  0  0  1  0  0  0  0  0999 V2000
  -31.5030  -22.4570   21.2150 C   0  0  0  0  0  2  0  0  0  0  0  0
  -29.6260  -21.0580   22.1190 C   0  0  0  0  0  2  0  0  0  0  0  0
  -30.5570  -23.6730   21.1870 C   0  0  0  0  0  2  0  0  0  0  0  0
  -28.7100  -22.2990   22.0850 C   0  0  0  0  0  2  0  0  0  0  0  0
  -30.7660  -21.1180   21.0790 C   0  0  0  0  0  3  0  0  0  0  0  0
  -29.4650  -23.5790   22.1980 N   0  0  2  0  0  4  0  0  0  0  0  0
  -29.9030  -23.5730   23.1070 H   0  0  0  0  0  0  0  0  0  0  0  0
  -30.3130  -20.8480   19.6370 C   0  0  0  0  0  0  0  0  0  0  0  0
  -31.1660  -20.1590   18.8740 N   0  0  0  0  0  0  0  0  0  0  0  0
  -29.2050  -21.2090   19.2370 O   0  0  0  0  0  0  0  0  0  0  0  0
  -32.0610  -19.9190   19.2830 H   0  0  0  0  0  0  0  0  0  0  0  0
  -30.8290  -19.5080   17.6110 C   0  0  0  0  0  2  0  0  0  0  0  0
  -29.9320  -18.2760   17.8540 C   0  0  0  0  0  2  0  0  0  0  0  0
  -30.4900  -17.3130   18.9250 C   0  0  0  0  0  2  0  0  0  0  0  0
  -29.4420  -16.3230   19.4510 C   0  0  0  0  0  2  0  0  0  0  0  0
  -30.6910  -14.5000   20.4310 C   0  0  0  0  0  0  0  0  0  0  0  0
  -30.3580  -12.3320   19.3380 C   0  0  0  0  0  2  0  0  0  0  0  0
  -29.4320  -12.5540   18.1270 C   0  0  0  0  0  2  0  0  0  0  0  0
  -27.9520  -12.4530   18.5500 C   0  0  0  0  0  2  0  0  0  0  0  0
  -27.6150  -13.2880   19.8150 C   0  0  0  0  0  3  0  0  0  0  0  0
  -28.6750  -13.0890   20.9240 C   0  0  0  0  0  2  0  0  0  0  0  0
  -29.9990  -13.3400   20.3390 N   0  0  0  0  0  0  0  0  0  0  0  0
  -31.8680  -14.6330   20.0980 O   0  0  0  0  0  0  0  0  0  0  0  0
  -29.9340  -15.5850   20.6190 N   0  0  0  0  0  0  0  0  0  0  0  0
  -30.3790  -16.2250   21.2600 H   0  0  0  0  0  0  0  0  0  0  0  0
  -25.2200  -13.9200   20.5040 C   0  0  0  0  0  0  0  0  0  0  0  0
  -24.1440  -13.1570   20.8740 C   0  0  0  0  0  0  0  0  0  0  0  0
  -24.5990  -11.8040   20.8590 C   0  0  0  0  0  0  0  0  0  0  0  0
  -26.2610  -13.0280   20.2930 N   0  0  0  0  0  0  0  0  0  0  0  0
  -25.8900  -11.7510   20.5600 N   0  0  0  0  0  0  0  0  0  0  0  0
  -23.8650  -10.5490   21.0570 C   0  0  0  0  0  0  0  0  0  0  0  0
  -24.3040   -9.5760   21.9820 C   0  0  0  0  0  3  0  0  0  0  0  0
  -23.5730   -8.3830   22.1670 C   0  0  0  0  0  3  0  0  0  0  0  0
  -22.3880   -8.1550   21.4270 C   0  0  0  0  0  0  0  0  0  0  0  0
  -21.9670   -9.1150   20.4910 C   0  0  0  0  0  3  0  0  0  0  0  0
  -22.7000  -10.3000   20.3050 C   0  0  0  0  0  3  0  0  0  0  0  0
  -21.6280   -7.0140   21.5230 O   0  0  0  0  0  0  0  0  0  0  0  0
  -21.6120   -6.2550   22.6660 C   0  0  0  0  0  0  0  0  0  0  0  0
  -21.2510   -6.8020   23.9170 C   0  0  0  0  0  3  0  0  0  0  0  0
  -21.1810   -5.9720   25.0520 C   0  0  0  0  0  3  0  0  0  0  0  0
  -21.4580   -4.5970   24.9390 C   0  0  0  0  0  0  0  0  0  0  0  0
  -21.8080   -4.0490   23.6920 C   0  0  0  0  0  3  0  0  0  0  0  0
  -21.8800   -4.8760   22.5570 C   0  0  0  0  0  0  0  0  0  0  0  0
  -22.2010   -4.3420   21.3550 F   0  0  0  0  0  0  0  0  0  0  0  0
  -21.3800   -3.7960   26.0280 F   0  0  0  0  0  0  0  0  0  0  0  0
  -22.7500  -13.6440   21.1320 C   0  0  0  0  0  0  0  0  0  0  0  0
  -22.0140  -12.9620   22.0050 N   0  0  0  0  0  0  0  0  0  0  0  0
  -22.3180  -14.6630   20.5960 O   0  0  0  0  0  0  0  0  0  0  0  0
  -22.3730  -12.1370   22.4610 H   0  0  0  0  0  0  0  0  0  0  0  0
  -21.0790  -13.2750   22.2200 H   0  0  0  0  0  0  0  0  0  0  0  0
  -25.3920  -15.2880   20.3110 N   0  0  0  0  0  0  0  0  0  0  0  0
  -24.6340  -15.9520   20.4130 H   0  0  0  0  0  0  0  0  0  0  0  0
  -26.2580  -15.7200   20.0120 H   0  0  0  0  0  0  0  0  0  0  0  0
  -28.5160  -24.7330   22.1950 C   0  0  0  0  0  2  0  0  0  0  0  0
  -29.1310  -26.1510   22.3270 C   0  0  0  0  0  2  0  0  0  0  0  0
  -29.4790  -26.8510   20.9930 C   0  0  0  0  0  2  0  0  0  0  0  0
  -28.4270  -26.7250   20.0400 O   0  0  0  0  0  0  0  0  0  0  0  0
  -24.6270  -31.9070   23.2390 C   0  0  0  0  0  0  0  0  0  0  0  0
  -27.2890  -27.4940   20.1480 C   0  0  0  0  0  0  0  0  0  0  0  0
  -23.4160  -30.4900   21.6090 C   0  0  0  0  0  3  0  0  0  0  0  0
  -24.8720  -28.9570   20.1810 C   0  0  0  0  0  0  0  0  0  0  0  0
  -25.9360  -30.8680   21.3960 C   0  0  0  0  0  2  0  0  0  0  0  0
  -26.0240  -29.4940   20.7690 C   0  0  0  0  0  0  0  0  0  0  0  0
  -27.2330  -28.7640   20.7680 C   0  0  0  0  0  3  0  0  0  0  0  0
  -26.1200  -26.9660   19.5630 C   0  0  0  0  0  3  0  0  0  0  0  0
  -24.9100  -27.6840   19.5860 C   0  0  0  0  0  3  0  0  0  0  0  0
  -23.6210  -29.8050   20.2310 C   0  0  0  0  0  2  0  0  0  0  0  0
  -24.6760  -31.1050   22.1400 N   0  0  0  0  0  0  0  0  0  0  0  0
  -23.5500  -32.1790   23.7850 O   0  0  0  0  0  0  0  0  0  0  0  0
  -22.7790  -29.4690   22.5770 C   0  0  0  0  0  0  0  0  0  0  0  0
  -21.4560  -29.2790   22.4590 N   0  0  0  0  0  0  0  0  0  0  0  0
  -23.4720  -28.8500   23.3880 O   0  0  0  0  0  0  0  0  0  0  0  0
  -20.9620  -29.8290   21.7700 H   0  0  0  0  0  0  0  0  0  0  0  0
  -18.0910  -28.0700   22.9670 C   0  0  0  0  0  0  0  0  0  0  0  0
  -20.6490  -28.3420   23.2370 C   0  0  0  0  0  3  0  0  0  0  0  0
  -20.7580  -26.9080   22.6660 C   0  0  0  0  0  2  0  0  0  0  0  0
  -19.6550  -26.5750   21.6560 C   0  0  0  0  0  2  0  0  0  0  0  0
  -18.2730  -26.7160   22.3010 C   0  0  0  0  0  2  0  0  0  0  0  0
  -19.2060  -28.8400   23.3920 C   0  0  0  0  0  0  0  0  0  0  0  0
  -18.9810  -30.1070   23.9720 C   0  0  0  0  0  3  0  0  0  0  0  0
  -17.6740  -30.6020   24.1360 C   0  0  0  0  0  3  0  0  0  0  0  0
  -16.5740  -29.8270   23.7300 C   0  0  0  0  0  3  0  0  0  0  0  0
  -16.7830  -28.5640   23.1500 C   0  0  0  0  0  3  0  0  0  0  0  0
  -25.9170  -32.5390   23.8480 C   0  0  0  0  0  3  0  0  0  0  0  0
  -25.6080  -33.9330   24.1920 N   0  0  0  0  0  0  0  0  0  0  0  0
  -25.9260  -34.9910   23.4330 C   0  0  0  0  0  0  0  0  0  0  0  0
  -26.5840  -34.8960   22.3920 O   0  0  0  0  0  0  0  0  0  0  0  0
  -25.0230  -34.0810   25.0020 H   0  0  0  0  0  0  0  0  0  0  0  0
  -24.1800  -36.7670   23.1050 C   0  0  0  0  0  1  0  0  0  0  0  0
  -25.4340  -36.3720   23.9010 C   0  0  0  0  0  3  0  0  0  0  0  0
  -27.5730  -37.2640   24.7020 C   0  0  0  0  0  1  0  0  0  0  0  0
  -26.4570  -37.4320   23.7770 N   0  0  0  0  0  0  0  0  0  0  0  0
  -26.0500  -38.3490   23.9340 H   0  0  0  0  0  0  0  0  0  0  0  0
  -26.4610  -31.7580   25.1080 C   0  0  1  0  0  0  0  0  0  0  0  0
  -25.3850  -31.5090   26.1900 C   0  0  0  0  0  1  0  0  0  0  0  0
  -27.0510  -30.3900   24.6940 C   0  0  0  0  0  1  0  0  0  0  0  0
  -27.6210  -32.5540   25.7550 C   0  0  0  0  0  1  0  0  0  0  0  0
  3  1  1  0
  3  6  1  0
  4  2  1  0
  4  6  1  0
  5  8  1  0
  5  1  1  0
  5  2  1  0
  6  7  1  1
  9 11  1  0
  9  8  1  0
 10  8  2  0
 12 13  1  0
 12  9  1  0
 13 14  1  0
 14 15  1  0
 15 24  1  0
 16 24  1  0
 17 22  1  0
 18 19  1  0
 18 17  1  0
 20 19  1  0
 20 29  1  0
 20 21  1  0
 22 16  1  0
 22 21  1  0
 23 16  2  0
 24 25  1  0
 26 27  2  0
 27 46  1  0
 28 27  1  0
 28 31  1  0
 29 26  1  0
 29 30  1  0
 30 28  2  0
 31 32  1  0
 32 33  2  0
 34 37  1  0
 34 33  1  0
 35 34  2  0
 36 35  1  0
 36 31  2  0
 37 38  1  0
 38 39  1  0
 39 40  2  0
 41 40  1  0
 41 45  1  0
 42 41  2  0
 43 38  2  0
 43 42  1  0
 44 43  1  0
 46 47  1  0
 47 50  1  0
 47 49  1  0
 48 46  2  0
 51 52  1  0
 51 26  1  0
 53 51  1  0
 54  6  1  0
 54 55  1  0
 56 55  1  0
 57 59  1  0
 57 56  1  0
 58 69  2  0
 59 64  1  0
 60 68  1  0
 60 70  1  0
 61 67  1  0
 61 63  1  0
 62 68  1  0
 63 62  1  0
 64 63  2  0
 65 66  1  0
 65 59  2  0
 66 61  2  0
 67 60  1  0
 68 58  1  0
 70 72  2  0
 71 70  1  0
 73 71  1  0
 74 83  2  0
 74 79  1  0
 75 71  1  0
 75 79  1  0
 76 75  1  0
 77 78  1  0
 77 76  1  0
 78 74  1  0
 79 80  2  0
 80 81  1  0
 82 81  2  0
 83 82  1  0
 84 58  1  0
 84 85  1  0
 84 94  1  0
 85 88  1  0
 86 90  1  0
 86 85  1  0
 87 86  2  0
 90 89  1  0
 92 90  1  0
 92 93  1  0
 92 91  1  0
 94 97  1  1
 94 95  1  0
 96 94  1  0
M  ISO  4  16 100  24 100  56 101  57 101
M  END
>  <TORSDO>  (64) 
F 24

>  <SCORE>  (64) 
-12.679

>  <name>  (64) 
63

>  <ligand_id>  (64) 
63

>  <original_smiles>  (64) 
[H]c1c([H])c([H])c2c(c1[H])C([H])([H])C([H])([H])C([H])([H])C2([H])N([H])C(=O)C1([H])N(C(=O)C([H])(N([H])C(=O)C([H])(N([H])C([H])([H])[H])C([H])([H])[H])C(C([H])([H])[H])(C([H])([H])[H])C([H])([H])[H])C([H])([H])c2c([H])c(OC([H])([H])C([H])([H])C([H])([H])[N+]3([H])C([H])([H])C([H])([H])C([H])(C(=O)N([H])C([H])([H])C([H])([H])C([H])([H])C([H])([H])N([H])C(=O)N4C([H])([H])C([H])([H])C([H])([H])C([H])(n5nc(-c6c([H])c([H])c(Oc7c([H])c([H])c(F)c([H])c7F)c([H])c6[H])c(C(=O)N([H])[H])c5N([H])[H])C4([H])[H])C([H])([H])C3([H])[H])c([H])c([H])c2C1([H])[H]

>  <smiles>  (64) 
[H]c1c([H])c([H])c2c(c1[H])C([H])([H])C([H])([H])C([H])([H])C2([H])N([H])C(=O)C1([H])N(C(=O)C([H])(N([H])C(=O)C([H])(N([H])C([H])([H])[H])C([H])([H])[H])C(C([H])([H])[H])(C([H])([H])[H])C([H])([H])[H])C([H])([H])c2c([H])c(OC([H])([H])C([H])([H])C([H])([H])[N+]3([H])C([H])([H])C([H])([H])C([H])(C(=O)N([H])C([H])([H])C([H])([H])C([H])([H])C([H])([H])N([H])C(=O)N4C([H])([H])C([H])([H])C([H])([H])C([H])(n5nc(-c6c([H])c([H])c(Oc7c([H])c([H])c(F)c([H])c7F)c([H])c6[H])c(C(=O)N([H])[H])c5N([H])[H])C4([H])[H])C([H])([H])C3([H])[H])c([H])c([H])c2C1([H])[H]

$$$$
64:0:0
     RDKit          3D

 93101  0  0  1  0  0  0  0  0999 V2000
  -28.7320  -22.2060   20.4530 C   0  0  0  0  0  0  0  0  0  0  0  0
  -28.6910  -23.4540   20.9190 N   0  0  0  0  0  0  0  0  0  0  0  0
  -28.8290  -21.9540   19.2520 O   0  0  0  0  0  0  0  0  0  0  0  0
  -28.6050  -23.5900   21.9190 H   0  0  0  0  0  0  0  0  0  0  0  0
  -28.6510  -21.0890   21.4950 C   0  0  0  0  0  2  0  0  0  0  0  0
  -28.2510  -19.7070   20.9410 C   0  0  0  0  0  2  0  0  0  0  0  0
  -30.1980  -17.2140   18.9110 C   0  0  0  0  0  2  0  0  0  0  0  0
  -29.3470  -18.4870   19.0340 C   0  0  0  0  0  2  0  0  0  0  0  0
  -29.6320  -17.6590   21.2180 C   0  0  0  0  0  2  0  0  0  0  0  0
  -30.5750  -16.8230   20.3510 C   0  0  0  0  0  3  0  0  0  0  0  0
  -29.4080  -18.9010   20.4560 N   0  0  2  0  0  4  0  0  0  0  0  0
  -30.2460  -19.4560   20.5570 H   0  0  0  0  0  0  0  0  0  0  0  0
  -31.1050  -14.4170   20.0320 C   0  0  0  0  0  0  0  0  0  0  0  0
  -30.7350  -12.2490   18.9370 C   0  0  0  0  0  2  0  0  0  0  0  0
  -29.7570  -12.4740   17.7650 C   0  0  0  0  0  2  0  0  0  0  0  0
  -28.2930  -12.3760   18.2450 C   0  0  0  0  0  2  0  0  0  0  0  0
  -28.0190  -13.2440   19.5030 C   0  0  0  0  0  3  0  0  0  0  0  0
  -29.1030  -12.9930   20.5770 C   0  0  0  0  0  2  0  0  0  0  0  0
  -30.4250  -13.2460   19.9700 N   0  0  0  0  0  0  0  0  0  0  0  0
  -32.1750  -14.6320   19.4560 O   0  0  0  0  0  0  0  0  0  0  0  0
  -30.4180  -15.3990   20.6220 N   0  0  0  0  0  0  0  0  0  0  0  0
  -29.5770  -15.1060   21.0950 H   0  0  0  0  0  0  0  0  0  0  0  0
  -25.6740  -13.9330   20.3270 C   0  0  0  0  0  0  0  0  0  0  0  0
  -24.5950  -13.1940   20.7290 C   0  0  0  0  0  0  0  0  0  0  0  0
  -25.0010  -11.8270   20.6470 C   0  0  0  0  0  0  0  0  0  0  0  0
  -26.6730  -13.0180   20.0290 N   0  0  0  0  0  0  0  0  0  0  0  0
  -26.2720  -11.7450   20.2760 N   0  0  0  0  0  0  0  0  0  0  0  0
  -24.2370  -10.5890   20.8440 C   0  0  0  0  0  0  0  0  0  0  0  0
  -24.6080   -9.6410   21.8240 C   0  0  0  0  0  3  0  0  0  0  0  0
  -23.8470   -8.4670   22.0090 C   0  0  0  0  0  3  0  0  0  0  0  0
  -22.7010   -8.2310   21.2110 C   0  0  0  0  0  0  0  0  0  0  0  0
  -22.3500   -9.1660   20.2230 C   0  0  0  0  0  3  0  0  0  0  0  0
  -23.1110  -10.3330   20.0370 C   0  0  0  0  0  3  0  0  0  0  0  0
  -21.9200   -7.1050   21.3000 O   0  0  0  0  0  0  0  0  0  0  0  0
  -21.7130   -6.4660   22.4960 C   0  0  0  0  0  0  0  0  0  0  0  0
  -21.1230   -7.1220   23.5980 C   0  0  0  0  0  3  0  0  0  0  0  0
  -20.8620   -6.4080   24.7850 C   0  0  0  0  0  3  0  0  0  0  0  0
  -21.1820   -5.0390   24.8690 C   0  0  0  0  0  0  0  0  0  0  0  0
  -21.7650   -4.3830   23.7710 C   0  0  0  0  0  3  0  0  0  0  0  0
  -22.0270   -5.0950   22.5860 C   0  0  0  0  0  0  0  0  0  0  0  0
  -22.5680   -4.4530   21.5230 F   0  0  0  0  0  0  0  0  0  0  0  0
  -20.9250   -4.3520   26.0060 F   0  0  0  0  0  0  0  0  0  0  0  0
  -23.2300  -13.7170   21.0750 C   0  0  0  0  0  0  0  0  0  0  0  0
  -22.5210  -13.0360   21.9680 N   0  0  0  0  0  0  0  0  0  0  0  0
  -22.8020  -14.7620   20.5870 O   0  0  0  0  0  0  0  0  0  0  0  0
  -22.8800  -12.1890   22.3850 H   0  0  0  0  0  0  0  0  0  0  0  0
  -21.6070  -13.3680   22.2430 H   0  0  0  0  0  0  0  0  0  0  0  0
  -25.8830  -15.3000   20.1710 N   0  0  0  0  0  0  0  0  0  0  0  0
  -25.1300  -15.9690   20.2850 H   0  0  0  0  0  0  0  0  0  0  0  0
  -26.7070  -15.7000   19.7410 H   0  0  0  0  0  0  0  0  0  0  0  0
  -28.7190  -24.6450   20.0870 C   0  0  0  0  0  2  0  0  0  0  0  0
  -28.6970  -25.8980   20.9670 C   0  0  0  0  0  2  0  0  0  0  0  0
  -28.6810  -27.0580   20.1500 O   0  0  0  0  0  0  0  0  0  0  0  0
  -24.6750  -31.9810   23.3210 C   0  0  0  0  0  0  0  0  0  0  0  0
  -27.4850  -27.7250   20.1670 C   0  0  0  0  0  0  0  0  0  0  0  0
  -23.5310  -30.6020   21.6130 C   0  0  0  0  0  3  0  0  0  0  0  0
  -25.0460  -29.1330   20.1820 C   0  0  0  0  0  0  0  0  0  0  0  0
  -26.0470  -31.0280   21.4770 C   0  0  0  0  0  2  0  0  0  0  0  0
  -26.1760  -29.6790   20.8040 C   0  0  0  0  0  0  0  0  0  0  0  0
  -27.4000  -28.9820   20.7950 C   0  0  0  0  0  3  0  0  0  0  0  0
  -26.3440  -27.1730   19.5520 C   0  0  0  0  0  3  0  0  0  0  0  0
  -25.1210  -27.8740   19.5590 C   0  0  0  0  0  3  0  0  0  0  0  0
  -23.7810  -29.9600   20.2220 C   0  0  0  0  0  2  0  0  0  0  0  0
  -24.7680  -31.2150   22.1970 N   0  0  0  0  0  0  0  0  0  0  0  0
  -23.5790  -32.2160   23.8460 O   0  0  0  0  0  0  0  0  0  0  0  0
  -22.8810  -29.5430   22.5310 C   0  0  0  0  0  0  0  0  0  0  0  0
  -21.5690  -29.3260   22.3530 N   0  0  0  0  0  0  0  0  0  0  0  0
  -23.5550  -28.9190   23.3560 O   0  0  0  0  0  0  0  0  0  0  0  0
  -21.0850  -29.8860   21.6650 H   0  0  0  0  0  0  0  0  0  0  0  0
  -18.2200  -28.0140   22.6820 C   0  0  0  0  0  0  0  0  0  0  0  0
  -20.7530  -28.3490   23.0730 C   0  0  0  0  0  3  0  0  0  0  0  0
  -20.9290  -26.9330   22.4790 C   0  0  0  0  0  2  0  0  0  0  0  0
  -19.8830  -26.5870   21.4150 C   0  0  0  0  0  2  0  0  0  0  0  0
  -18.4710  -26.6790   22.0000 C   0  0  0  0  0  2  0  0  0  0  0  0
  -19.2940  -28.8060   23.1710 C   0  0  0  0  0  0  0  0  0  0  0  0
  -19.0090  -30.0550   23.7640 C   0  0  0  0  0  3  0  0  0  0  0  0
  -17.6820  -30.5130   23.8750 C   0  0  0  0  0  3  0  0  0  0  0  0
  -16.6220  -29.7160   23.4090 C   0  0  0  0  0  3  0  0  0  0  0  0
  -16.8920  -28.4690   22.8160 C   0  0  0  0  0  3  0  0  0  0  0  0
  -25.9380  -32.6140   23.9870 C   0  0  0  0  0  3  0  0  0  0  0  0
  -25.6200  -34.0160   24.2900 N   0  0  0  0  0  0  0  0  0  0  0  0
  -25.9790  -35.0570   23.5280 C   0  0  0  0  0  0  0  0  0  0  0  0
  -26.6820  -34.9400   22.5210 O   0  0  0  0  0  0  0  0  0  0  0  0
  -24.9970  -34.1790   25.0670 H   0  0  0  0  0  0  0  0  0  0  0  0
  -24.2570  -36.8380   23.0950 C   0  0  0  0  0  1  0  0  0  0  0  0
  -25.4760  -36.4500   23.9500 C   0  0  0  0  0  3  0  0  0  0  0  0
  -27.5800  -37.3570   24.8300 C   0  0  0  0  0  1  0  0  0  0  0  0
  -26.5100  -37.5040   23.8490 N   0  0  0  0  0  0  0  0  0  0  0  0
  -26.0980  -38.4260   23.9600 H   0  0  0  0  0  0  0  0  0  0  0  0
  -26.4030  -31.8510   25.2880 C   0  0  1  0  0  0  0  0  0  0  0  0
  -25.2680  -31.6070   26.3070 C   0  0  0  0  0  1  0  0  0  0  0  0
  -27.0160  -30.4770   24.9250 C   0  0  0  0  0  1  0  0  0  0  0  0
  -27.5170  -32.6560   25.9970 C   0  0  0  0  0  1  0  0  0  0  0  0
  1  2  1  0
  1  5  1  0
  2  4  1  0
  3  1  2  0
  6  5  1  0
  7  8  1  0
  7 10  1  0
  8 11  1  0
 10 21  1  0
 10  9  1  0
 11 12  1  6
 11  6  1  0
 11  9  1  0
 13 21  1  0
 14 19  1  0
 15 16  1  0
 15 14  1  0
 17 16  1  0
 17 26  1  0
 17 18  1  0
 19 13  1  0
 19 18  1  0
 20 13  2  0
 21 22  1  0
 23 24  2  0
 24 43  1  0
 25 24  1  0
 25 28  1  0
 26 27  1  0
 26 23  1  0
 27 25  2  0
 28 29  1  0
 29 30  2  0
 31 34  1  0
 31 30  1  0
 32 31  2  0
 33 32  1  0
 33 28  2  0
 34 35  1  0
 35 40  2  0
 35 36  1  0
 36 37  2  0
 37 38  1  0
 38 42  1  0
 39 38  2  0
 40 39  1  0
 41 40  1  0
 43 44  1  0
 44 47  1  0
 44 46  1  0
 45 43  2  0
 48 49  1  0
 48 23  1  0
 50 48  1  0
 51  2  1  0
 51 52  1  0
 53 55  1  0
 53 52  1  0
 54 65  2  0
 55 60  1  0
 56 64  1  0
 56 66  1  0
 57 63  1  0
 57 59  1  0
 58 64  1  0
 59 58  1  0
 60 59  2  0
 61 62  1  0
 61 55  2  0
 62 57  2  0
 63 56  1  0
 64 54  1  0
 66 68  2  0
 67 66  1  0
 69 67  1  0
 70 79  2  0
 70 75  1  0
 71 67  1  0
 71 75  1  0
 72 71  1  0
 73 74  1  0
 73 72  1  0
 74 70  1  0
 75 76  2  0
 76 77  1  0
 78 77  2  0
 79 78  1  0
 80 54  1  0
 80 81  1  0
 80 90  1  0
 81 84  1  0
 82 86  1  0
 82 81  1  0
 83 82  2  0
 86 85  1  0
 88 86  1  0
 88 89  1  0
 88 87  1  0
 90 93  1  1
 90 91  1  0
 92 90  1  0
M  ISO  4  13 100  21 100  52 101  53 101
M  END
>  <TORSDO>  (65) 
F 21

>  <SCORE>  (65) 
-12.565

>  <name>  (65) 
64

>  <ligand_id>  (65) 
64

>  <original_smiles>  (65) 
[H]c1c([H])c([H])c2c(c1[H])C([H])([H])C([H])([H])C([H])([H])C2([H])N([H])C(=O)C1([H])N(C(=O)C([H])(N([H])C(=O)C([H])(N([H])C([H])([H])[H])C([H])([H])[H])C(C([H])([H])[H])(C([H])([H])[H])C([H])([H])[H])C([H])([H])c2c([H])c(OC([H])([H])C([H])([H])N([H])C(=O)C([H])([H])C([H])([H])[N+]3([H])C([H])([H])C([H])([H])C([H])(N([H])C(=O)N4C([H])([H])C([H])([H])C([H])([H])C([H])(n5nc(-c6c([H])c([H])c(Oc7c([H])c([H])c(F)c([H])c7F)c([H])c6[H])c(C(=O)N([H])[H])c5N([H])[H])C4([H])[H])C3([H])[H])c([H])c([H])c2C1([H])[H]

>  <smiles>  (65) 
[H]c1c([H])c([H])c2c(c1[H])C([H])([H])C([H])([H])C([H])([H])C2([H])N([H])C(=O)C1([H])N(C(=O)C([H])(N([H])C(=O)C([H])(N([H])C([H])([H])[H])C([H])([H])[H])C(C([H])([H])[H])(C([H])([H])[H])C([H])([H])[H])C([H])([H])c2c([H])c(OC([H])([H])C([H])([H])N([H])C(=O)C([H])([H])C([H])([H])[N+]3([H])C([H])([H])C([H])([H])C([H])(N([H])C(=O)N4C([H])([H])C([H])([H])C([H])([H])C([H])(n5nc(-c6c([H])c([H])c(Oc7c([H])c([H])c(F)c([H])c7F)c([H])c6[H])c(C(=O)N([H])[H])c5N([H])[H])C4([H])[H])C3([H])[H])c([H])c([H])c2C1([H])[H]

$$$$
65:0:0
     RDKit          3D

 97105  0  0  1  0  0  0  0  0999 V2000
  -26.7480  -21.8960   20.7960 C   0  0  0  0  0  2  0  0  0  0  0  0
  -27.8780  -22.8260   21.0320 N   0  0  0  0  0  4  0  0  0  0  0  0
  -28.1770  -23.1970   20.1440 H   0  0  0  0  0  0  0  0  0  0  0  0
  -28.6410  -22.2980   21.4270 H   0  0  0  0  0  0  0  0  0  0  0  0
  -27.5490  -23.9520   21.9390 C   0  0  0  0  0  2  0  0  0  0  0  0
  -28.7250  -24.9270   22.1730 C   0  0  0  0  0  3  0  0  0  0  0  0
  -28.3210  -25.8640   23.0340 F   0  0  0  0  0  0  0  0  0  0  0  0
  -29.3090  -25.5920   20.8980 C   0  0  0  0  0  2  0  0  0  0  0  0
  -29.1910  -27.0200   20.8940 O   0  0  0  0  0  0  0  0  0  0  0  0
  -24.7920  -31.9970   23.3660 C   0  0  0  0  0  0  0  0  0  0  0  0
  -27.9450  -27.5960   20.7750 C   0  0  0  0  0  0  0  0  0  0  0  0
  -23.8040  -30.4260   21.7260 C   0  0  0  0  0  3  0  0  0  0  0  0
  -25.4570  -28.9100   20.5150 C   0  0  0  0  0  0  0  0  0  0  0  0
  -26.3050  -30.9520   21.6850 C   0  0  0  0  0  2  0  0  0  0  0  0
  -26.5260  -29.5540   21.1470 C   0  0  0  0  0  0  0  0  0  0  0  0
  -27.7710  -28.9050   21.2710 C   0  0  0  0  0  3  0  0  0  0  0  0
  -26.8580  -26.9540   20.1400 C   0  0  0  0  0  3  0  0  0  0  0  0
  -25.6160  -27.6080   20.0080 C   0  0  0  0  0  3  0  0  0  0  0  0
  -24.1600  -29.6800   20.4120 C   0  0  0  0  0  2  0  0  0  0  0  0
  -24.9800  -31.1450   22.3180 N   0  0  0  0  0  0  0  0  0  0  0  0
  -23.6580  -32.2230   23.8100 O   0  0  0  0  0  0  0  0  0  0  0  0
  -23.1480  -29.4200   22.6980 C   0  0  0  0  0  0  0  0  0  0  0  0
  -21.8390  -29.1820   22.5180 N   0  0  0  0  0  0  0  0  0  0  0  0
  -23.8170  -28.8540   23.5690 O   0  0  0  0  0  0  0  0  0  0  0  0
  -21.3620  -29.6880   21.7840 H   0  0  0  0  0  0  0  0  0  0  0  0
  -18.4690  -27.9740   22.9890 C   0  0  0  0  0  0  0  0  0  0  0  0
  -21.0220  -28.2450   23.2850 C   0  0  0  0  0  3  0  0  0  0  0  0
  -21.1380  -26.8110   22.7180 C   0  0  0  0  0  2  0  0  0  0  0  0
  -20.0480  -26.4780   21.6950 C   0  0  0  0  0  2  0  0  0  0  0  0
  -18.6580  -26.6220   22.3210 C   0  0  0  0  0  2  0  0  0  0  0  0
  -19.5800  -28.7430   23.4260 C   0  0  0  0  0  0  0  0  0  0  0  0
  -19.3500  -30.0090   24.0070 C   0  0  0  0  0  3  0  0  0  0  0  0
  -18.0420  -30.5070   24.1570 C   0  0  0  0  0  3  0  0  0  0  0  0
  -16.9460  -29.7340   23.7370 C   0  0  0  0  0  3  0  0  0  0  0  0
  -17.1590  -28.4700   23.1590 C   0  0  0  0  0  3  0  0  0  0  0  0
  -25.9840  -32.7440   24.0400 C   0  0  0  0  0  3  0  0  0  0  0  0
  -25.5890  -34.1490   24.2070 N   0  0  0  0  0  0  0  0  0  0  0  0
  -25.9430  -35.1400   23.3790 C   0  0  0  0  0  0  0  0  0  0  0  0
  -26.7080  -34.9760   22.4250 O   0  0  0  0  0  0  0  0  0  0  0  0
  -24.9180  -34.3470   24.9340 H   0  0  0  0  0  0  0  0  0  0  0  0
  -24.1760  -36.7980   22.7070 C   0  0  0  0  0  1  0  0  0  0  0  0
  -25.3570  -36.5380   23.6550 C   0  0  0  0  0  3  0  0  0  0  0  0
  -27.3720  -37.6050   24.5670 C   0  0  0  0  0  1  0  0  0  0  0  0
  -26.3500  -37.6280   23.5240 N   0  0  0  0  0  0  0  0  0  0  0  0
  -25.8930  -38.5350   23.5490 H   0  0  0  0  0  0  0  0  0  0  0  0
  -26.4110  -32.1150   25.4220 C   0  0  1  0  0  0  0  0  0  0  0  0
  -25.2290  -31.8750   26.3900 C   0  0  0  0  0  1  0  0  0  0  0  0
  -27.1260  -30.7600   25.2050 C   0  0  0  0  0  1  0  0  0  0  0  0
  -27.4280  -33.0430   26.1300 C   0  0  0  0  0  1  0  0  0  0  0  0
  -26.8590  -21.1100   19.4710 C   0  0  0  0  0  2  0  0  0  0  0  0
  -29.1820  -20.4860   18.6210 C   0  0  0  0  0  3  0  0  0  0  0  0
  -29.0600  -17.9760   19.8840 C   0  0  0  0  0  3  0  0  0  0  0  0
  -28.0410  -20.1470   19.3810 C   0  0  0  0  0  0  0  0  0  0  0  0
  -30.2040  -18.3150   19.1260 C   0  0  0  0  0  0  0  0  0  0  0  0
  -27.9900  -18.8860   20.0160 C   0  0  0  0  0  0  0  0  0  0  0  0
  -30.2570  -19.5830   18.5010 C   0  0  0  0  0  0  0  0  0  0  0  0
  -26.9090  -18.5480   20.7590 F   0  0  0  0  0  0  0  0  0  0  0  0
  -31.3450  -19.9510   17.7820 F   0  0  0  0  0  0  0  0  0  0  0  0
  -31.3710  -17.3390   19.0150 C   0  0  0  0  0  2  0  0  0  0  0  0
  -31.7310  -14.8680   19.1260 C   0  0  0  0  0  0  0  0  0  0  0  0
  -31.4990  -12.4330   18.8260 C   0  0  0  0  0  2  0  0  0  0  0  0
  -30.5120  -12.1660   17.6700 C   0  0  0  0  0  2  0  0  0  0  0  0
  -29.0580  -12.1530   18.1840 C   0  0  0  0  0  2  0  0  0  0  0  0
  -28.7260  -13.3820   19.0730 C   0  0  0  0  0  3  0  0  0  0  0  0
  -29.8180  -13.5870   20.1440 C   0  0  0  0  0  2  0  0  0  0  0  0
  -31.1140  -13.7040   19.4540 N   0  0  0  0  0  0  0  0  0  0  0  0
  -32.7970  -14.9180   18.5050 O   0  0  0  0  0  0  0  0  0  0  0  0
  -31.0370  -15.9750   19.4320 N   0  0  0  0  0  0  0  0  0  0  0  0
  -30.1710  -15.8420   19.9300 H   0  0  0  0  0  0  0  0  0  0  0  0
  -26.5120  -14.2630   20.0490 C   0  0  0  0  0  0  0  0  0  0  0  0
  -25.3940  -13.6160   20.5000 C   0  0  0  0  0  0  0  0  0  0  0  0
  -25.6660  -12.2190   20.3760 C   0  0  0  0  0  0  0  0  0  0  0  0
  -27.4010  -13.2650   19.6760 N   0  0  0  0  0  0  0  0  0  0  0  0
  -26.9010  -12.0280   19.9290 N   0  0  0  0  0  0  0  0  0  0  0  0
  -24.8020  -11.0520   20.6000 C   0  0  0  0  0  0  0  0  0  0  0  0
  -25.1330  -10.0630   21.5520 C   0  0  0  0  0  3  0  0  0  0  0  0
  -24.2790   -8.9590   21.7620 C   0  0  0  0  0  3  0  0  0  0  0  0
  -23.0800   -8.8380   21.0190 C   0  0  0  0  0  0  0  0  0  0  0  0
  -22.7680   -9.8140   20.0570 C   0  0  0  0  0  3  0  0  0  0  0  0
  -23.6220  -10.9100   19.8450 C   0  0  0  0  0  3  0  0  0  0  0  0
  -22.2030   -7.7870   21.1360 O   0  0  0  0  0  0  0  0  0  0  0  0
  -21.9930   -7.1540   22.3360 C   0  0  0  0  0  0  0  0  0  0  0  0
  -21.5470   -7.8520   23.4790 C   0  0  0  0  0  3  0  0  0  0  0  0
  -21.2790   -7.1500   24.6720 C   0  0  0  0  0  3  0  0  0  0  0  0
  -21.4480   -5.7530   24.7210 C   0  0  0  0  0  0  0  0  0  0  0  0
  -21.8860   -5.0560   23.5810 C   0  0  0  0  0  3  0  0  0  0  0  0
  -22.1550   -5.7550   22.3910 C   0  0  0  0  0  0  0  0  0  0  0  0
  -22.5580   -5.0760   21.2900 F   0  0  0  0  0  0  0  0  0  0  0  0
  -21.1840   -5.0780   25.8640 F   0  0  0  0  0  0  0  0  0  0  0  0
  -24.1060  -14.2540   20.9380 C   0  0  0  0  0  0  0  0  0  0  0  0
  -23.4070  -13.6320   21.8820 N   0  0  0  0  0  0  0  0  0  0  0  0
  -23.7380  -15.3340   20.4800 O   0  0  0  0  0  0  0  0  0  0  0  0
  -23.7200  -12.7560   22.2720 H   0  0  0  0  0  0  0  0  0  0  0  0
  -22.5450  -14.0360   22.2200 H   0  0  0  0  0  0  0  0  0  0  0  0
  -26.8430  -15.6070   19.9090 N   0  0  0  0  0  0  0  0  0  0  0  0
  -26.1910  -16.3510   20.1320 H   0  0  0  0  0  0  0  0  0  0  0  0
  -27.7210  -15.9490   19.5400 H   0  0  0  0  0  0  0  0  0  0  0  0
  1  2  1  0
  2  4  1  0
  2  5  1  0
  3  2  1  0
  5  6  1  0
  6  7  1  0
  8  6  1  0
  9  8  1  0
 10 21  2  0
 11  9  1  0
 11 16  1  0
 12 20  1  0
 12 22  1  0
 13 15  1  0
 14 20  1  0
 15 16  2  0
 15 14  1  0
 17 11  2  0
 18 17  1  0
 18 13  2  0
 19 13  1  0
 19 12  1  0
 20 10  1  0
 22 24  2  0
 23 22  1  0
 25 23  1  0
 26 35  2  0
 26 31  1  0
 27 23  1  0
 27 31  1  0
 28 27  1  0
 29 30  1  0
 29 28  1  0
 30 26  1  0
 31 32  2  0
 32 33  1  0
 34 33  2  0
 35 34  1  0
 36 10  1  0
 36 37  1  0
 36 46  1  0
 37 40  1  0
 38 42  1  0
 38 37  1  0
 39 38  2  0
 42 41  1  0
 44 45  1  0
 44 42  1  0
 44 43  1  0
 46 49  1  1
 46 47  1  0
 48 46  1  0
 50  1  1  0
 51 53  1  0
 52 55  1  0
 53 50  1  0
 53 55  2  0
 54 52  2  0
 55 57  1  0
 56 51  2  0
 56 54  1  0
 58 56  1  0
 59 54  1  0
 59 68  1  0
 60 68  1  0
 60 66  1  0
 61 66  1  0
 62 63  1  0
 62 61  1  0
 64 63  1  0
 64 73  1  0
 64 65  1  0
 66 65  1  0
 67 60  2  0
 68 69  1  0
 70 71  2  0
 71 90  1  0
 72 71  1  0
 72 75  1  0
 73 74  1  0
 73 70  1  0
 74 72  2  0
 75 76  1  0
 76 77  2  0
 78 81  1  0
 78 77  1  0
 79 78  2  0
 80 79  1  0
 80 75  2  0
 81 82  1  0
 82 87  2  0
 82 83  1  0
 83 84  2  0
 84 85  1  0
 85 89  1  0
 86 85  2  0
 87 86  1  0
 88 87  1  0
 90 91  1  0
 91 94  1  0
 91 93  1  0
 92 90  2  0
 95 70  1  0
 95 96  1  0
 97 95  1  0
M  ISO  4   8 101   9 101  60 100  68 100
M  END
>  <TORSDO>  (66) 
F 23

>  <SCORE>  (66) 
-10.238

>  <name>  (66) 
65

>  <ligand_id>  (66) 
65

>  <original_smiles>  (66) 
[H]c1c([H])c([H])c2c(c1[H])C([H])([H])C([H])([H])C([H])([H])C2([H])N([H])C(=O)C1([H])N(C(=O)C([H])(N([H])C(=O)C([H])(N([H])C([H])([H])[H])C([H])([H])[H])C(C([H])([H])[H])(C([H])([H])[H])C([H])([H])[H])C([H])([H])c2c([H])c(OC([H])([H])C([H])(F)C([H])([H])[N+]([H])([H])C([H])([H])C([H])([H])c3c([H])c(F)c(C([H])([H])N([H])C(=O)N4C([H])([H])C([H])([H])C([H])([H])C([H])(n5nc(-c6c([H])c([H])c(Oc7c([H])c([H])c(F)c([H])c7F)c([H])c6[H])c(C(=O)N([H])[H])c5N([H])[H])C4([H])[H])c([H])c3F)c([H])c([H])c2C1([H])[H]

>  <smiles>  (66) 
[H]c1c([H])c([H])c2c(c1[H])C([H])([H])C([H])([H])C([H])([H])C2([H])N([H])C(=O)C1([H])N(C(=O)C([H])(N([H])C(=O)C([H])(N([H])C([H])([H])[H])C([H])([H])[H])C(C([H])([H])[H])(C([H])([H])[H])C([H])([H])[H])C([H])([H])c2c([H])c(OC([H])([H])C([H])(F)C([H])([H])[N+]([H])([H])C([H])([H])C([H])([H])c3c([H])c(F)c(C([H])([H])N([H])C(=O)N4C([H])([H])C([H])([H])C([H])([H])C([H])(n5nc(-c6c([H])c([H])c(Oc7c([H])c([H])c(F)c([H])c7F)c([H])c6[H])c(C(=O)N([H])[H])c5N([H])[H])C4([H])[H])c([H])c3F)c([H])c([H])c2C1([H])[H]

$$$$
66:0:0
     RDKit          3D

 94102  0  0  1  0  0  0  0  0999 V2000
  -30.5140  -22.2020   21.7090 C   0  0  0  0  0  2  0  0  0  0  0  0
  -30.5490  -19.6690   22.1000 C   0  0  0  0  0  3  0  0  0  0  0  0
  -30.4060  -18.3420   21.6330 C   0  0  0  0  0  3  0  0  0  0  0  0
  -29.9460  -20.5180   19.8980 C   0  0  0  0  0  3  0  0  0  0  0  0
  -30.3230  -20.7640   21.2340 C   0  0  0  0  0  0  0  0  0  0  0  0
  -30.0370  -18.1030   20.2910 C   0  0  0  0  0  0  0  0  0  0  0  0
  -29.8010  -19.2000   19.4320 C   0  0  0  0  0  0  0  0  0  0  0  0
  -29.4450  -18.9890   18.1420 F   0  0  0  0  0  0  0  0  0  0  0  0
  -29.9020  -16.7090   19.6920 C   0  0  0  0  0  2  0  0  0  0  0  0
  -30.7410  -14.4880   20.2460 C   0  0  0  0  0  0  0  0  0  0  0  0
  -30.3950  -12.3460   19.1030 C   0  0  0  0  0  2  0  0  0  0  0  0
  -29.4390  -12.6170   17.9200 C   0  0  0  0  0  2  0  0  0  0  0  0
  -27.9670  -12.5020   18.3680 C   0  0  0  0  0  2  0  0  0  0  0  0
  -27.6680  -13.3010   19.6660 C   0  0  0  0  0  3  0  0  0  0  0  0
  -28.7450  -13.0330   20.7480 C   0  0  0  0  0  2  0  0  0  0  0  0
  -30.0690  -13.3110   20.1650 N   0  0  0  0  0  0  0  0  0  0  0  0
  -31.8720  -14.6580   19.7810 O   0  0  0  0  0  0  0  0  0  0  0  0
  -29.9730  -15.5360   20.5770 N   0  0  0  0  0  0  0  0  0  0  0  0
  -29.1120  -15.2990   21.0430 H   0  0  0  0  0  0  0  0  0  0  0  0
  -25.2810  -13.9130   20.4120 C   0  0  0  0  0  0  0  0  0  0  0  0
  -24.2190  -13.1420   20.8020 C   0  0  0  0  0  0  0  0  0  0  0  0
  -24.6780  -11.7900   20.7650 C   0  0  0  0  0  0  0  0  0  0  0  0
  -26.3220  -13.0310   20.1640 N   0  0  0  0  0  0  0  0  0  0  0  0
  -25.9620  -11.7480   20.4330 N   0  0  0  0  0  0  0  0  0  0  0  0
  -23.9570  -10.5290   20.9690 C   0  0  0  0  0  0  0  0  0  0  0  0
  -24.4020   -9.5670   21.9030 C   0  0  0  0  0  3  0  0  0  0  0  0
  -23.6810   -8.3680   22.0950 C   0  0  0  0  0  3  0  0  0  0  0  0
  -22.4990   -8.1240   21.3550 C   0  0  0  0  0  0  0  0  0  0  0  0
  -22.0730   -9.0760   20.4120 C   0  0  0  0  0  3  0  0  0  0  0  0
  -22.7960  -10.2660   20.2170 C   0  0  0  0  0  3  0  0  0  0  0  0
  -21.7480   -6.9790   21.4560 O   0  0  0  0  0  0  0  0  0  0  0  0
  -21.7070   -6.2450   22.6140 C   0  0  0  0  0  0  0  0  0  0  0  0
  -21.2850   -6.8080   23.8380 C   0  0  0  0  0  3  0  0  0  0  0  0
  -21.1910   -6.0000   24.9890 C   0  0  0  0  0  3  0  0  0  0  0  0
  -21.5090   -4.6310   24.9170 C   0  0  0  0  0  0  0  0  0  0  0  0
  -21.9250   -4.0680   23.6990 C   0  0  0  0  0  3  0  0  0  0  0  0
  -22.0210   -4.8730   22.5490 C   0  0  0  0  0  0  0  0  0  0  0  0
  -22.4010   -4.3200   21.3720 F   0  0  0  0  0  0  0  0  0  0  0  0
  -21.4120   -3.8530   26.0210 F   0  0  0  0  0  0  0  0  0  0  0  0
  -22.8280  -13.6200   21.1010 C   0  0  0  0  0  0  0  0  0  0  0  0
  -22.1150  -12.9260   21.9810 N   0  0  0  0  0  0  0  0  0  0  0  0
  -22.3810  -14.6460   20.5900 O   0  0  0  0  0  0  0  0  0  0  0  0
  -22.4880  -12.0960   22.4160 H   0  0  0  0  0  0  0  0  0  0  0  0
  -21.1830  -13.2300   22.2230 H   0  0  0  0  0  0  0  0  0  0  0  0
  -25.4400  -15.2840   20.2330 N   0  0  0  0  0  0  0  0  0  0  0  0
  -24.6700  -15.9320   20.3530 H   0  0  0  0  0  0  0  0  0  0  0  0
  -26.2790  -15.7290   19.8820 H   0  0  0  0  0  0  0  0  0  0  0  0
  -29.2860  -22.7840   22.2900 N   0  0  0  0  0  4  0  0  0  0  0  0
  -29.5390  -23.6150   22.8020 H   0  0  0  0  0  0  0  0  0  0  0  0
  -28.9450  -22.1230   22.9700 H   0  0  0  0  0  0  0  0  0  0  0  0
  -28.1750  -23.0910   21.3530 C   0  0  0  0  0  2  0  0  0  0  0  0
  -28.4190  -24.3040   20.4210 C   0  0  0  0  0  2  0  0  0  0  0  0
  -28.3500  -25.6650   21.1370 C   0  0  0  0  0  2  0  0  0  0  0  0
  -28.3840  -26.7400   20.1990 O   0  0  0  0  0  0  0  0  0  0  0  0
  -24.5680  -31.8860   23.2520 C   0  0  0  0  0  0  0  0  0  0  0  0
  -27.2240  -27.4710   20.1810 C   0  0  0  0  0  0  0  0  0  0  0  0
  -23.3640  -30.4800   21.6080 C   0  0  0  0  0  3  0  0  0  0  0  0
  -24.8230  -28.9430   20.1870 C   0  0  0  0  0  0  0  0  0  0  0  0
  -25.8850  -30.8510   21.4100 C   0  0  0  0  0  2  0  0  0  0  0  0
  -25.9760  -29.4810   20.7750 C   0  0  0  0  0  0  0  0  0  0  0  0
  -27.1830  -28.7500   20.7690 C   0  0  0  0  0  3  0  0  0  0  0  0
  -26.0600  -26.9360   19.5890 C   0  0  0  0  0  3  0  0  0  0  0  0
  -24.8580  -27.6690   19.5910 C   0  0  0  0  0  3  0  0  0  0  0  0
  -23.5760  -29.7940   20.2310 C   0  0  0  0  0  2  0  0  0  0  0  0
  -24.6240  -31.0850   22.1500 N   0  0  0  0  0  0  0  0  0  0  0  0
  -23.4870  -32.1560   23.7910 O   0  0  0  0  0  0  0  0  0  0  0  0
  -22.7130  -29.4600   22.5690 C   0  0  0  0  0  0  0  0  0  0  0  0
  -21.3900  -29.2760   22.4350 N   0  0  0  0  0  0  0  0  0  0  0  0
  -23.3950  -28.8380   23.3870 O   0  0  0  0  0  0  0  0  0  0  0  0
  -20.9000  -29.8290   21.7450 H   0  0  0  0  0  0  0  0  0  0  0  0
  -18.0160  -28.0800   22.9160 C   0  0  0  0  0  0  0  0  0  0  0  0
  -20.5720  -28.3400   23.2040 C   0  0  0  0  0  3  0  0  0  0  0  0
  -20.6800  -26.9070   22.6320 C   0  0  0  0  0  2  0  0  0  0  0  0
  -19.5840  -26.5800   21.6120 C   0  0  0  0  0  2  0  0  0  0  0  0
  -18.1980  -26.7290   22.2470 C   0  0  0  0  0  2  0  0  0  0  0  0
  -19.1320  -28.8440   23.3510 C   0  0  0  0  0  0  0  0  0  0  0  0
  -18.9100  -30.1100   23.9350 C   0  0  0  0  0  3  0  0  0  0  0  0
  -17.6050  -30.6130   24.0900 C   0  0  0  0  0  3  0  0  0  0  0  0
  -16.5030  -29.8470   23.6700 C   0  0  0  0  0  3  0  0  0  0  0  0
  -16.7090  -28.5830   23.0890 C   0  0  0  0  0  3  0  0  0  0  0  0
  -25.8540  -32.5160   23.8740 C   0  0  0  0  0  3  0  0  0  0  0  0
  -25.5490  -33.9160   24.1920 N   0  0  0  0  0  0  0  0  0  0  0  0
  -25.8940  -34.9610   23.4290 C   0  0  0  0  0  0  0  0  0  0  0  0
  -26.5760  -34.8470   22.4050 O   0  0  0  0  0  0  0  0  0  0  0  0
  -24.9510  -34.0800   24.9890 H   0  0  0  0  0  0  0  0  0  0  0  0
  -24.1830  -36.7600   23.0360 C   0  0  0  0  0  1  0  0  0  0  0  0
  -25.4070  -36.3530   23.8710 C   0  0  0  0  0  3  0  0  0  0  0  0
  -27.5310  -37.2300   24.7360 C   0  0  0  0  0  1  0  0  0  0  0  0
  -26.4470  -37.4010   23.7720 N   0  0  0  0  0  0  0  0  0  0  0  0
  -26.0440  -38.3250   23.9070 H   0  0  0  0  0  0  0  0  0  0  0  0
  -26.3650  -31.7500   25.1550 C   0  0  1  0  0  0  0  0  0  0  0  0
  -25.2680  -31.5240   26.2220 C   0  0  0  0  0  1  0  0  0  0  0  0
  -26.9450  -30.3690   24.7680 C   0  0  0  0  0  1  0  0  0  0  0  0
  -27.5150  -32.5440   25.8180 C   0  0  0  0  0  1  0  0  0  0  0  0
  1 48  1  0
  3  2  1  0
  4  5  1  0
  5  1  1  0
  5  2  2  0
  6  3  2  0
  7  4  2  0
  7  6  1  0
  8  7  1  0
  9  6  1  0
  9 18  1  0
 10 18  1  0
 11 16  1  0
 12 13  1  0
 12 11  1  0
 14 13  1  0
 14 23  1  0
 14 15  1  0
 16 10  1  0
 16 15  1  0
 17 10  2  0
 18 19  1  0
 20 21  2  0
 21 40  1  0
 22 21  1  0
 22 25  1  0
 23 20  1  0
 23 24  1  0
 24 22  2  0
 25 26  1  0
 26 27  2  0
 28 31  1  0
 28 27  1  0
 29 28  2  0
 30 29  1  0
 30 25  2  0
 31 32  1  0
 32 33  1  0
 33 34  2  0
 35 34  1  0
 35 39  1  0
 36 35  2  0
 37 32  2  0
 37 36  1  0
 38 37  1  0
 40 41  1  0
 41 44  1  0
 41 43  1  0
 42 40  2  0
 45 46  1  0
 45 20  1  0
 47 45  1  0
 48 49  1  0
 48 50  1  0
 51 48  1  0
 52 53  1  0
 52 51  1  0
 54 53  1  0
 55 66  2  0
 56 54  1  0
 56 61  1  0
 57 65  1  0
 57 67  1  0
 58 64  1  0
 58 60  1  0
 59 65  1  0
 60 59  1  0
 61 60  2  0
 62 63  1  0
 62 56  2  0
 63 58  2  0
 64 57  1  0
 65 55  1  0
 67 69  2  0
 68 67  1  0
 70 68  1  0
 71 80  2  0
 71 76  1  0
 72 68  1  0
 72 76  1  0
 73 72  1  0
 74 75  1  0
 74 73  1  0
 75 71  1  0
 76 77  2  0
 77 78  1  0
 79 78  2  0
 80 79  1  0
 81 55  1  0
 81 82  1  0
 81 91  1  0
 82 85  1  0
 83 87  1  0
 83 82  1  0
 84 83  2  0
 87 86  1  0
 89 87  1  0
 89 90  1  0
 89 88  1  0
 91 94  1  1
 91 92  1  0
 93 91  1  0
M  ISO  4  10 100  18 100  53 101  54 101
M  END
>  <TORSDO>  (67) 
F 22

>  <SCORE>  (67) 
-13.223

>  <name>  (67) 
66

>  <ligand_id>  (67) 
66

>  <original_smiles>  (67) 
[H]c1c([H])c([H])c2c(c1[H])C([H])([H])C([H])([H])C([H])([H])C2([H])N([H])C(=O)C1([H])N(C(=O)C([H])(N([H])C(=O)C([H])(N([H])C([H])([H])[H])C([H])([H])[H])C(C([H])([H])[H])(C([H])([H])[H])C([H])([H])[H])C([H])([H])c2c([H])c(OC([H])([H])C([H])([H])C([H])([H])[N+]([H])([H])C([H])([H])c3c([H])c([H])c(C([H])([H])N([H])C(=O)N4C([H])([H])C([H])([H])C([H])([H])C([H])(n5nc(-c6c([H])c([H])c(Oc7c([H])c([H])c(F)c([H])c7F)c([H])c6[H])c(C(=O)N([H])[H])c5N([H])[H])C4([H])[H])c(F)c3[H])c([H])c([H])c2C1([H])[H]

>  <smiles>  (67) 
[H]c1c([H])c([H])c2c(c1[H])C([H])([H])C([H])([H])C([H])([H])C2([H])N([H])C(=O)C1([H])N(C(=O)C([H])(N([H])C(=O)C([H])(N([H])C([H])([H])[H])C([H])([H])[H])C(C([H])([H])[H])(C([H])([H])[H])C([H])([H])[H])C([H])([H])c2c([H])c(OC([H])([H])C([H])([H])C([H])([H])[N+]([H])([H])C([H])([H])c3c([H])c([H])c(C([H])([H])N([H])C(=O)N4C([H])([H])C([H])([H])C([H])([H])C([H])(n5nc(-c6c([H])c([H])c(Oc7c([H])c([H])c(F)c([H])c7F)c([H])c6[H])c(C(=O)N([H])[H])c5N([H])[H])C4([H])[H])c(F)c3[H])c([H])c([H])c2C1([H])[H]

$$$$
67:0:0
     RDKit          3D

 98 98  0  0  1  0  0  0  0  0999 V2000
  -22.9280  -26.3910   15.2590 C   0  0  0  0  0  2  0  0  0  0  0  0
  -21.5890  -27.0490   15.5390 C   0  0  0  0  0  2  0  0  0  0  0  0
  -22.8570  -25.1320   16.1030 C   0  0  0  0  0  2  0  0  0  0  0  0
  -21.2770  -26.8150   17.0320 C   0  0  0  0  0  3  0  0  0  0  0  0
  -22.3150  -25.6680   17.3380 N   0  0  0  0  0  0  0  0  0  0  0  0
  -19.5980  -26.8910   17.1520 C   0  0  0  0  0  2  0  0  0  0  0  0
  -18.8710  -27.4550   18.4190 N   0  0  0  0  0  4  0  0  0  0  0  0
  -18.8560  -28.4560   18.2910 H   0  0  0  0  0  0  0  0  0  0  0  0
  -19.5220  -27.2090   19.1560 H   0  0  0  0  0  0  0  0  0  0  0  0
  -17.4870  -27.0770   19.0800 C   0  0  0  0  0  1  0  0  0  0  0  0
  -17.3080  -26.6820   20.8160 C   0  0  0  0  0  2  0  0  0  0  0  0
  -19.1740  -24.1470   22.1850 C   0  0  0  0  0  1  0  0  0  0  0  0
  -17.2450  -25.8680   21.2390 C   0  0  0  0  0  0  0  0  0  0  0  0
  -21.1720  -24.4950   22.1770 C   0  0  0  0  0 15  0  0  0  0  0  0
  -18.6760  -25.0700   22.3350 N   0  0  0  0  0  2  0  0  0  0  0  0
  -24.4200  -23.3070   22.5480 C   0  0  0  0  0 15  0  0  0  0  0  0
  -29.6250  -22.1240   22.7970 C   0  0  0  0  0  2  0  0  0  0  0  0
  -33.0280  -21.3670   22.3700 C   0  0  0  0  0  2  0  0  0  0  0  0
  -34.2590  -20.7510   21.3270 C   0  0  0  0  0  2  0  0  0  0  0  0
  -34.0620  -19.3220   20.8440 C   0  0  0  0  0  2  0  0  0  0  0  0
  -32.5730  -19.2720   21.0920 C   0  0  0  0  0  3  0  0  0  0  0  0
  -31.8760  -19.7060   22.4850 C   0  0  0  0  0  2  0  0  0  0  0  0
  -31.2200  -21.1740   22.4160 N   0  0  0  0  0  0  0  0  0  0  0  0
  -30.7350  -22.6650   23.4170 O   0  0  0  0  0  1  0  0  0  0  0  0
  -27.3120  -22.6340   22.6050 N   0  0  0  0  0  1  0  0  0  0  0  0
  -27.5000  -23.4260   23.2110 H   0  0  0  0  0  0  0  0  0  0  0  0
  -30.8170  -18.4820   19.7210 C   0  0  0  0  0  0  0  0  0  0  0  0
  -30.2760  -17.2810   19.4900 C   0  0  0  0  0  0  0  0  0  0  0  0
  -31.0940  -16.3280   20.1760 C   0  0  0  0  0  0  0  0  0  0  0  0
  -31.8530  -18.2190   20.5700 N   0  0  0  0  0  0  0  0  0  0  0  0
  -32.0380  -16.9260   20.8970 N   0  0  0  0  0  0  0  0  0  0  0  0
  -31.0510  -14.8770   20.1100 C   0  0  0  0  0  0  0  0  0  0  0  0
  -31.0210  -14.0770   21.2710 C   0  0  0  0  0  3  0  0  0  0  0  0
  -30.9290  -12.6760   21.1550 C   0  0  0  0  0  3  0  0  0  0  0  0
  -30.8640  -12.0760   19.8740 C   0  0  0  0  0  0  0  0  0  0  0  0
  -30.9220  -12.8820   18.7250 C   0  0  0  0  0  3  0  0  0  0  0  0
  -31.0200  -14.2730   18.8400 C   0  0  0  0  0  3  0  0  0  0  0  0
  -30.7900  -10.7240   19.6610 O   0  0  0  0  0  0  0  0  0  0  0  0
  -30.2550   -9.8820   20.5980 C   0  0  0  0  0  0  0  0  0  0  0  0
  -28.9510  -10.0640   21.1090 C   0  0  0  0  0  3  0  0  0  0  0  0
  -28.4170   -9.1320   22.0200 C   0  0  0  0  0  3  0  0  0  0  0  0
  -29.1800   -8.0160   22.4120 C   0  0  0  0  0  0  0  0  0  0  0  0
  -30.4770   -7.8310   21.9020 C   0  0  0  0  0  3  0  0  0  0  0  0
  -31.0120   -8.7620   20.9950 C   0  0  0  0  0  0  0  0  0  0  0  0
  -32.2540   -8.5710   20.4870 F   0  0  0  0  0  0  0  0  0  0  0  0
  -28.6630   -7.1140   23.2790 F   0  0  0  0  0  0  0  0  0  0  0  0
  -29.1220  -17.0800   18.5810 C   0  0  0  0  0  0  0  0  0  0  0  0
  -28.3330  -16.0510   18.8380 N   0  0  0  0  0  0  0  0  0  0  0  0
  -28.8710  -17.8930   17.6900 O   0  0  0  0  0  0  0  0  0  0  0  0
  -28.5390  -15.4130   19.5920 H   0  0  0  0  0  0  0  0  0  0  0  0
  -27.5130  -15.8910   18.2700 H   0  0  0  0  0  0  0  0  0  0  0  0
  -30.5090  -19.7710   19.2800 N   0  0  0  0  0  0  0  0  0  0  0  0
  -29.8150  -19.9680   18.5660 H   0  0  0  0  0  0  0  0  0  0  0  0
  -31.0900  -20.5610   19.5300 H   0  0  0  0  0  0  0  0  0  0  0  0
  -23.0800  -25.1850   18.5990 C   0  0  0  0  0  2  0  0  0  0  0  0
  -24.5220  -24.4290   18.7110 C   0  0  0  0  0  2  0  0  0  0  0  0
  -25.5390  -24.6130   20.0190 C   0  0  0  0  0  2  0  0  0  0  0  0
  -26.7710  -25.5060   20.1900 O   0  0  0  0  0  0  0  0  0  0  0  0
  -24.4390  -31.7510   22.9000 C   0  0  0  0  0  0  0  0  0  0  0  0
  -26.4110  -26.8060   20.0110 C   0  0  0  0  0  0  0  0  0  0  0  0
  -23.2700  -30.5940   21.1370 C   0  0  0  0  0  3  0  0  0  0  0  0
  -24.5680  -28.8670   19.8020 C   0  0  0  0  0  0  0  0  0  0  0  0
  -25.7900  -30.3600   21.3300 C   0  0  0  0  0  2  0  0  0  0  0  0
  -25.6470  -29.0050   20.6790 C   0  0  0  0  0  0  0  0  0  0  0  0
  -26.5620  -27.9280   20.8640 C   0  0  0  0  0  3  0  0  0  0  0  0
  -25.6470  -26.9550   18.8800 C   0  0  0  0  0  3  0  0  0  0  0  0
  -24.6260  -27.8770   18.8420 C   0  0  0  0  0  3  0  0  0  0  0  0
  -23.5330  -29.9550   19.7470 C   0  0  0  0  0  2  0  0  0  0  0  0
  -24.5220  -30.9450   21.8170 N   0  0  0  0  0  0  0  0  0  0  0  0
  -23.3530  -32.2070   23.2950 O   0  0  0  0  0  0  0  0  0  0  0  0
  -22.5280  -29.6120   22.0180 C   0  0  0  0  0  0  0  0  0  0  0  0
  -21.7700  -28.8340   21.3150 N   0  0  0  0  0  0  0  0  0  0  0  0
  -22.7550  -29.4300   23.2180 O   0  0  0  0  0  0  0  0  0  0  0  0
  -21.6430  -29.1090   20.3590 H   0  0  0  0  0  0  0  0  0  0  0  0
  -19.5180  -25.5670   20.6820 C   0  0  0  0  0  1  0  0  0  0  0  0
  -21.8410  -27.4720   21.7540 C   0  0  0  0  0  3  0  0  0  0  0  0
  -22.0510  -26.3060   20.9030 C   0  0  0  0  0  2  0  0  0  0  0  0
  -21.2480  -25.0970   20.1570 C   0  0  0  0  0  2  0  0  0  0  0  0
  -19.8610  -24.9610   19.6080 C   0  0  0  0  0  2  0  0  0  0  0  0
  -20.7250  -27.1030   21.8410 C   0  0  0  0  0  1  0  0  0  0  0  0
  -19.6160  -28.2740   23.1620 C   0  0  0  0  0  1  0  0  0  0  0  0
  -17.7460  -27.8820   23.5240 C   0  0  0  0  0  1  0  0  0  0  0  0
  -16.7610  -26.3550   22.7190 C   0  0  0  0  0  1  0  0  0  0  0  0
  -17.5290  -25.2280   21.2390 C   0  0  0  0  0  2  0  0  0  0  0  0
  -25.7190  -32.1430   23.6640 C   0  0  0  0  0  3  0  0  0  0  0  0
  -26.0010  -31.2300   24.9160 C   0  0  1  0  0  0  0  0  0  0  0  0
  -24.7840  -31.0510   25.8510 C   0  0  0  0  0  1  0  0  0  0  0  0
  -26.4690  -29.8160   24.4950 C   0  0  0  0  0  1  0  0  0  0  0  0
  -27.1550  -31.8510   25.7340 C   0  0  0  0  0  1  0  0  0  0  0  0
  -25.5400  -33.5420   24.0480 N   0  0  0  0  0  0  0  0  0  0  0  0
  -26.0080  -34.5730   23.3350 C   0  0  0  0  0  0  0  0  0  0  0  0
  -26.7230  -34.4300   22.3390 O   0  0  0  0  0  0  0  0  0  0  0  0
  -24.9220  -33.7330   24.8230 H   0  0  0  0  0  0  0  0  0  0  0  0
  -24.5100  -36.5510   22.9380 C   0  0  0  0  0  1  0  0  0  0  0  0
  -25.6350  -35.9840   23.8180 C   0  0  0  0  0  3  0  0  0  0  0  0
  -27.7870  -36.5750   24.8380 C   0  0  0  0  0  1  0  0  0  0  0  0
  -26.7820  -36.9150   23.8310 N   0  0  0  0  0  0  0  0  0  0  0  0
  -26.4710  -37.8670   24.0050 H   0  0  0  0  0  0  0  0  0  0  0  0
  1  2  1  0
  1  3  1  0
  2  4  1  0
  3  5  1  0
  4  6  1  0
  4  5  1  0
  5 55  1  0
  6  7  1  0
  7 10  1  0
  7  9  1  0
  8  7  1  0
 11 13  2  0
 12 15  1  0
 13 83  1  0
 17 24  1  0
 18 23  1  0
 19 18  1  0
 20 21  1  0
 20 19  1  0
 21 30  1  0
 21 22  1  0
 23 22  1  0
 23 17  1  0
 25 26  1  0
 27 30  1  0
 28 27  2  0
 28 29  1  0
 29 31  2  0
 30 31  1  0
 32 29  1  0
 32 33  1  0
 34 33  2  0
 35 34  1  0
 36 37  1  0
 36 35  2  0
 37 32  2  0
 38 35  1  0
 38 39  1  0
 39 44  2  0
 39 40  1  0
 40 41  2  0
 41 42  1  0
 42 46  1  0
 43 42  2  0
 44 43  1  0
 45 44  1  0
 47 48  1  0
 47 28  1  0
 48 50  1  0
 49 47  2  0
 51 48  1  0
 52 54  1  0
 52 27  1  0
 53 52  1  0
 55 56  1  0
 56 57  1  0
 57 58  1  0
 59 70  2  0
 60 58  1  0
 60 65  1  0
 61 69  1  0
 61 71  1  0
 62 64  1  0
 63 69  1  0
 64 65  2  0
 64 63  1  0
 66 60  2  0
 67 66  1  0
 67 62  2  0
 68 62  1  0
 68 61  1  0
 69 59  1  0
 71 73  2  0
 72 76  1  0
 72 71  1  0
 74 72  1  0
 76 80  1  0
 77 76  1  0
 78 77  1  0
 79 78  1  0
 79 75  1  0
 81 82  1  0
 84 13  1  0
 84 15  1  0
 85 59  1  0
 85 90  1  0
 85 86  1  0
 86 89  1  1
 86 87  1  0
 88 86  1  0
 90 93  1  0
 91 95  1  0
 91 90  1  0
 92 91  2  0
 95 94  1  0
 95 97  1  0
 97 98  1  0
 97 96  1  0
M  ISO  4  17 100  25 100  57 101  58 101
M  END
>  <TORSDO>  (68) 
F 25

>  <SCORE>  (68) 
-7.152

>  <name>  (68) 
67

>  <ligand_id>  (68) 
67

>  <original_smiles>  (68) 
[H]c1c([H])c([H])c2c(c1[H])C([H])([H])C([H])([H])C([H])([H])C2([H])N([H])C(=O)C1([H])N(C(=O)C([H])(N([H])C(=O)C([H])(N([H])C([H])([H])[H])C([H])([H])[H])C(C([H])([H])[H])(C([H])([H])[H])C([H])([H])[H])C([H])([H])c2c([H])c(OC([H])([H])C([H])([H])C([H])([H])N3C([H])([H])C([H])([H])C([H])([H])C3([H])C([H])([H])[N+]([H])([H])C([H])([H])C([H])([H])N3C([H])([H])C([H])([H])C3([H])C([H])([H])N([H])C(=O)N3C([H])([H])C([H])([H])C([H])([H])C([H])(n4nc(-c5c([H])c([H])c(Oc6c([H])c([H])c(F)c([H])c6F)c([H])c5[H])c(C(=O)N([H])[H])c4N([H])[H])C3([H])[H])c([H])c([H])c2C1([H])[H]

>  <smiles>  (68) 
[H]c1c([H])c([H])c2c(c1[H])C([H])([H])C([H])([H])C([H])([H])C2([H])N([H])C(=O)C1([H])N(C(=O)C([H])(N([H])C(=O)C([H])(N([H])C([H])([H])[H])C([H])([H])[H])C(C([H])([H])[H])(C([H])([H])[H])C([H])([H])[H])C([H])([H])c2c([H])c(OC([H])([H])C([H])([H])C([H])([H])N3C([H])([H])C([H])([H])C([H])([H])C3([H])C([H])([H])[N+]([H])([H])C([H])([H])C([H])([H])N3C([H])([H])C([H])([H])C3([H])C([H])([H])N([H])C(=O)N3C([H])([H])C([H])([H])C([H])([H])C([H])(n4nc(-c5c([H])c([H])c(Oc6c([H])c([H])c(F)c([H])c6F)c([H])c5[H])c(C(=O)N([H])[H])c4N([H])[H])C3([H])[H])c([H])c([H])c2C1([H])[H]

$$$$
68:0:0
     RDKit          3D

100108  0  0  1  0  0  0  0  0999 V2000
  -28.6040  -22.4820   20.2570 C   0  0  0  0  0  3  0  0  0  0  0  0
  -29.7560  -21.4380   20.3510 C   0  0  0  0  0  0  0  0  0  0  0  0
  -29.4750  -20.1120   20.4100 N   0  0  0  0  0  0  0  0  0  0  0  0
  -30.9210  -21.8470   20.3490 O   0  0  0  0  0  0  0  0  0  0  0  0
  -28.5000  -19.8470   20.4300 H   0  0  0  0  0  0  0  0  0  0  0  0
  -31.3180  -15.5080   20.6540 C   0  0  0  0  0  0  0  0  0  0  0  0
  -31.1570  -13.2160   19.7920 C   0  0  0  0  0  2  0  0  0  0  0  0
  -30.2980  -13.2290   18.5090 C   0  0  0  0  0  2  0  0  0  0  0  0
  -28.8020  -13.1050   18.8490 C   0  0  0  0  0  2  0  0  0  0  0  0
  -28.3470  -14.0590   19.9900 C   0  0  0  0  0  3  0  0  0  0  0  0
  -29.3330  -14.0460   21.1810 C   0  0  0  0  0  2  0  0  0  0  0  0
  -30.6730  -14.3090   20.6480 N   0  0  0  0  0  0  0  0  0  0  0  0
  -32.5480  -15.5760   20.6330 O   0  0  0  0  0  0  0  0  0  0  0  0
  -31.9400  -17.9800   18.4610 C   0  0  0  0  0  2  0  0  0  0  0  0
  -31.0900  -19.1740   18.8630 C   0  0  0  0  0  2  0  0  0  0  0  0
  -31.0980  -16.7090   18.5570 C   0  0  0  0  0  2  0  0  0  0  0  0
  -29.8420  -17.5850   20.4900 C   0  0  0  0  0  2  0  0  0  0  0  0
  -30.4640  -19.0200   20.2680 C   0  0  0  0  0  3  0  0  0  0  0  0
  -30.6540  -16.4660   19.9420 N   0  0  0  0  0  0  0  0  0  0  0  0
  -25.9360  -14.6590   20.6460 C   0  0  0  0  0  0  0  0  0  0  0  0
  -24.8410  -13.8810   20.9120 C   0  0  0  0  0  0  0  0  0  0  0  0
  -25.2840  -12.5270   20.8170 C   0  0  0  0  0  0  0  0  0  0  0  0
  -26.9770  -13.7760   20.4050 N   0  0  0  0  0  0  0  0  0  0  0  0
  -26.5880  -12.4870   20.5750 N   0  0  0  0  0  0  0  0  0  0  0  0
  -24.5320  -11.2660   20.8850 C   0  0  0  0  0  0  0  0  0  0  0  0
  -24.9150  -10.2240   21.7580 C   0  0  0  0  0  3  0  0  0  0  0  0
  -24.1650   -9.0300   21.8210 C   0  0  0  0  0  3  0  0  0  0  0  0
  -23.0170   -8.8700   21.0090 C   0  0  0  0  0  0  0  0  0  0  0  0
  -22.6530   -9.9010   20.1240 C   0  0  0  0  0  3  0  0  0  0  0  0
  -23.4050  -11.0860   20.0590 C   0  0  0  0  0  3  0  0  0  0  0  0
  -22.2420   -7.7350   20.9840 O   0  0  0  0  0  0  0  0  0  0  0  0
  -22.1110   -6.9300   22.0870 C   0  0  0  0  0  0  0  0  0  0  0  0
  -21.5760   -7.4110   23.3010 C   0  0  0  0  0  3  0  0  0  0  0  0
  -21.3930   -6.5310   24.3880 C   0  0  0  0  0  3  0  0  0  0  0  0
  -21.7360   -5.1730   24.2580 C   0  0  0  0  0  0  0  0  0  0  0  0
  -22.2650   -4.6900   23.0480 C   0  0  0  0  0  3  0  0  0  0  0  0
  -22.4480   -5.5660   21.9640 C   0  0  0  0  0  0  0  0  0  0  0  0
  -22.9400   -5.0930   20.7950 F   0  0  0  0  0  0  0  0  0  0  0  0
  -21.5540   -4.3260   25.2980 F   0  0  0  0  0  0  0  0  0  0  0  0
  -23.4380  -14.3620   21.1430 C   0  0  0  0  0  0  0  0  0  0  0  0
  -22.6560  -13.6240   21.9230 N   0  0  0  0  0  0  0  0  0  0  0  0
  -23.0440  -15.4290   20.6720 O   0  0  0  0  0  0  0  0  0  0  0  0
  -22.9890  -12.7600   22.3240 H   0  0  0  0  0  0  0  0  0  0  0  0
  -21.7160  -13.9320   22.1270 H   0  0  0  0  0  0  0  0  0  0  0  0
  -26.1320  -16.0340   20.5660 N   0  0  0  0  0  0  0  0  0  0  0  0
  -25.3640  -16.6900   20.6500 H   0  0  0  0  0  0  0  0  0  0  0  0
  -27.0010  -16.4670   20.2810 H   0  0  0  0  0  0  0  0  0  0  0  0
  -29.0190  -23.5920   19.3350 N   0  0  0  0  0  4  0  0  0  0  0  0
  -30.0210  -23.6850   19.4300 H   0  0  0  0  0  0  0  0  0  0  0  0
  -28.8770  -23.2290   18.4050 H   0  0  0  0  0  0  0  0  0  0  0  0
  -28.3580  -24.9400   19.4380 C   0  0  0  0  0  2  0  0  0  0  0  0
  -28.9070  -25.9800   18.4060 C   0  0  0  0  0  2  0  0  0  0  0  0
  -28.7260  -27.3750   18.7380 O   0  0  0  0  0  0  0  0  0  0  0  0
  -24.6360  -31.3540   22.9870 C   0  0  0  0  0  0  0  0  0  0  0  0
  -27.4730  -27.9440   18.8970 C   0  0  0  0  0  0  0  0  0  0  0  0
  -23.4610  -30.2150   21.1340 C   0  0  0  0  0  3  0  0  0  0  0  0
  -24.9520  -29.1720   19.3400 C   0  0  0  0  0  0  0  0  0  0  0  0
  -25.9230  -30.8630   20.9050 C   0  0  0  0  0  2  0  0  0  0  0  0
  -26.0910  -29.6710   19.9810 C   0  0  0  0  0  0  0  0  0  0  0  0
  -27.3500  -29.0620   19.7590 C   0  0  0  0  0  3  0  0  0  0  0  0
  -26.3100  -27.4650   18.2480 C   0  0  0  0  0  3  0  0  0  0  0  0
  -25.0580  -28.0720   18.4700 C   0  0  0  0  0  3  0  0  0  0  0  0
  -23.6400  -29.8680   19.6310 C   0  0  0  0  0  2  0  0  0  0  0  0
  -24.6950  -30.8140   21.7350 N   0  0  0  0  0  0  0  0  0  0  0  0
  -23.5710  -31.3950   23.6180 O   0  0  0  0  0  0  0  0  0  0  0  0
  -22.9670  -28.9550   21.8770 C   0  0  0  0  0  0  0  0  0  0  0  0
  -21.6880  -28.5970   21.6660 N   0  0  0  0  0  0  0  0  0  0  0  0
  -23.7300  -28.3060   22.5970 O   0  0  0  0  0  0  0  0  0  0  0  0
  -21.1230  -29.1900   21.0740 H   0  0  0  0  0  0  0  0  0  0  0  0
  -18.5670  -26.7770   21.7340 C   0  0  0  0  0  0  0  0  0  0  0  0
  -21.0210  -27.4220   22.2270 C   0  0  0  0  0  3  0  0  0  0  0  0
  -21.4050  -26.1410   21.4530 C   0  0  0  0  0  2  0  0  0  0  0  0
  -20.4270  -25.8000   20.3250 C   0  0  0  0  0  2  0  0  0  0  0  0
  -19.0150  -25.6030   20.8820 C   0  0  0  0  0  2  0  0  0  0  0  0
  -19.5100  -27.6420   22.3530 C   0  0  0  0  0  0  0  0  0  0  0  0
  -19.0410  -28.7380   23.1070 C   0  0  0  0  0  3  0  0  0  0  0  0
  -17.6610  -28.9760   23.2510 C   0  0  0  0  0  3  0  0  0  0  0  0
  -16.7320  -28.1090   22.6500 C   0  0  0  0  0  3  0  0  0  0  0  0
  -17.1860  -27.0110   21.8980 C   0  0  0  0  0  3  0  0  0  0  0  0
  -25.8970  -31.9660   23.6740 C   0  0  0  0  0  3  0  0  0  0  0  0
  -25.5580  -33.3350   24.0800 N   0  0  0  0  0  0  0  0  0  0  0  0
  -25.9420  -34.4400   23.4250 C   0  0  0  0  0  0  0  0  0  0  0  0
  -26.6880  -34.4110   22.4410 O   0  0  0  0  0  0  0  0  0  0  0  0
  -24.8970  -33.4300   24.8380 H   0  0  0  0  0  0  0  0  0  0  0  0
  -24.2710  -36.2830   23.0370 C   0  0  0  0  0  1  0  0  0  0  0  0
  -25.4140  -35.7930   23.9400 C   0  0  0  0  0  3  0  0  0  0  0  0
  -27.4450  -36.5820   25.0750 C   0  0  0  0  0  1  0  0  0  0  0  0
  -26.4590  -36.8370   24.0280 N   0  0  0  0  0  0  0  0  0  0  0  0
  -26.0430  -37.7490   24.1990 H   0  0  0  0  0  0  0  0  0  0  0  0
  -26.4010  -31.1270   24.9110 C   0  0  1  0  0  0  0  0  0  0  0  0
  -25.2930  -30.8070   25.9420 C   0  0  0  0  0  1  0  0  0  0  0  0
  -27.0110  -29.7830   24.4440 C   0  0  0  0  0  1  0  0  0  0  0  0
  -27.5280  -31.8950   25.6420 C   0  0  0  0  0  1  0  0  0  0  0  0
  -28.1820  -22.9730   21.6710 C   0  0  0  0  0  2  0  0  0  0  0  0
  -26.6670  -22.8530   21.9520 C   0  0  0  0  0  2  0  0  0  0  0  0
  -26.1640  -23.8840   22.9820 C   0  0  0  0  0  2  0  0  0  0  0  0
  -24.7130  -23.7770   23.2180 N   0  0  0  0  0  4  0  0  0  0  0  0
  -24.1960  -23.9580   22.3760 H   0  0  0  0  0  0  0  0  0  0  0  0
  -24.4310  -24.4590   23.9010 H   0  0  0  0  0  0  0  0  0  0  0  0
  -24.4640  -22.8690   23.5650 H   0  0  0  0  0  0  0  0  0  0  0  0
  1  2  1  0
  1 94  1  0
  2  3  1  0
  3  5  1  0
  4  2  2  0
  7 12  1  0
  8  9  1  0
  8  7  1  0
 10  9  1  0
 10 23  1  0
 10 11  1  0
 12  6  1  0
 12 11  1  0
 13  6  2  0
 14 16  1  0
 14 15  1  0
 15 18  1  0
 16 19  1  0
 18  3  1  0
 18 17  1  0
 19 17  1  0
 19  6  1  0
 20 21  2  0
 21 40  1  0
 22 25  1  0
 22 21  1  0
 23 24  1  0
 23 20  1  0
 24 22  2  0
 25 26  1  0
 26 27  2  0
 28 27  1  0
 29 28  2  0
 30 29  1  0
 30 25  2  0
 31 28  1  0
 31 32  1  0
 32 33  1  0
 33 34  2  0
 35 34  1  0
 35 39  1  0
 36 35  2  0
 37 32  2  0
 37 36  1  0
 38 37  1  0
 40 41  1  0
 41 44  1  0
 41 43  1  0
 42 40  2  0
 45 20  1  0
 45 46  1  0
 47 45  1  0
 48 49  1  0
 48 51  1  0
 48  1  1  0
 50 48  1  0
 52 53  1  0
 52 51  1  0
 53 55  1  0
 54 65  2  0
 55 60  1  0
 56 64  1  0
 56 66  1  0
 57 63  1  0
 57 59  1  0
 58 64  1  0
 59 58  1  0
 60 59  2  0
 61 62  1  0
 61 55  2  0
 62 57  2  0
 63 56  1  0
 64 54  1  0
 66 68  2  0
 67 66  1  0
 69 67  1  0
 70 79  2  0
 70 75  1  0
 71 67  1  0
 71 75  1  0
 72 71  1  0
 73 74  1  0
 73 72  1  0
 74 70  1  0
 75 76  2  0
 76 77  1  0
 78 77  2  0
 79 78  1  0
 80 54  1  0
 80 81  1  0
 80 90  1  0
 81 84  1  0
 82 86  1  0
 82 81  1  0
 83 82  2  0
 86 85  1  0
 86 88  1  0
 88 89  1  0
 88 87  1  0
 90 93  1  1
 90 91  1  0
 92 90  1  0
 94 95  1  0
 95 96  1  0
 96 97  1  0
 97100  1  0
 97 99  1  0
 98 97  1  0
M  ISO  4   6 100  19 100  52 101  53 101
M  END
>  <TORSDO>  (69) 
F 24

>  <SCORE>  (69) 
-7.844

>  <name>  (69) 
68

>  <ligand_id>  (69) 
68

>  <original_smiles>  (69) 
[H]c1c([H])c([H])c2c(c1[H])C([H])([H])C([H])([H])C([H])([H])C2([H])N([H])C(=O)C1([H])N(C(=O)C([H])(N([H])C(=O)C([H])(N([H])C([H])([H])[H])C([H])([H])[H])C(C([H])([H])[H])(C([H])([H])[H])C([H])([H])[H])C([H])([H])c2c([H])c(OC([H])([H])C([H])([H])[N+]([H])([H])C([H])(C(=O)N([H])C3([H])C([H])([H])N(C(=O)N4C([H])([H])C([H])([H])C([H])([H])C([H])(n5nc(-c6c([H])c([H])c(Oc7c([H])c([H])c(F)c([H])c7F)c([H])c6[H])c(C(=O)N([H])[H])c5N([H])[H])C4([H])[H])C([H])([H])C([H])([H])C3([H])[H])C([H])([H])C([H])([H])C([H])([H])[N+]([H])([H])[H])c([H])c([H])c2C1([H])[H]

>  <smiles>  (69) 
[H]c1c([H])c([H])c2c(c1[H])C([H])([H])C([H])([H])C([H])([H])C2([H])N([H])C(=O)C1([H])N(C(=O)C([H])(N([H])C(=O)C([H])(N([H])C([H])([H])[H])C([H])([H])[H])C(C([H])([H])[H])(C([H])([H])[H])C([H])([H])[H])C([H])([H])c2c([H])c(OC([H])([H])C([H])([H])[N+]([H])([H])C([H])(C(=O)N([H])C3([H])C([H])([H])N(C(=O)N4C([H])([H])C([H])([H])C([H])([H])C([H])(n5nc(-c6c([H])c([H])c(Oc7c([H])c([H])c(F)c([H])c7F)c([H])c6[H])c(C(=O)N([H])[H])c5N([H])[H])C4([H])[H])C([H])([H])C([H])([H])C3([H])[H])C([H])([H])C([H])([H])C([H])([H])[N+]([H])([H])[H])c([H])c([H])c2C1([H])[H]

$$$$
69:0:0
     RDKit          3D

 96104  0  0  1  0  0  0  0  0999 V2000
  -31.7480  -22.1490   19.4360 C   0  0  0  0  0  2  0  0  0  0  0  0
  -31.3050  -21.4050   20.7250 C   0  0  0  0  0  2  0  0  0  0  0  0
  -30.6480  -18.7750   22.6160 C   0  0  0  0  0  2  0  0  0  0  0  0
  -30.4000  -17.2920   22.2810 C   0  0  0  0  0  2  0  0  0  0  0  0
  -30.4250  -17.7290   19.7490 C   0  0  0  0  0  2  0  0  0  0  0  0
  -29.7930  -19.7480   21.7750 C   0  0  0  0  0  2  0  0  0  0  0  0
  -31.0970  -19.1270   19.7110 C   0  0  0  0  0  2  0  0  0  0  0  0
  -30.9260  -16.8260   20.9070 C   0  0  0  0  0  3  0  0  0  0  0  0
  -30.4340  -20.2040   20.5110 N   0  0  2  0  0  4  0  0  0  0  0  0
  -29.6530  -20.5230   19.9570 H   0  0  0  0  0  0  0  0  0  0  0  0
  -31.1800  -14.4420   20.0970 C   0  0  0  0  0  0  0  0  0  0  0  0
  -30.7720  -12.3390   18.8760 C   0  0  0  0  0  2  0  0  0  0  0  0
  -29.7940  -12.6220   17.7170 C   0  0  0  0  0  2  0  0  0  0  0  0
  -28.3310  -12.5250   18.1930 C   0  0  0  0  0  2  0  0  0  0  0  0
  -28.0700  -13.3370   19.4920 C   0  0  0  0  0  3  0  0  0  0  0  0
  -29.1490  -13.0220   20.5520 C   0  0  0  0  0  2  0  0  0  0  0  0
  -30.4680  -13.2930   19.9520 N   0  0  0  0  0  0  0  0  0  0  0  0
  -32.2850  -14.6280   19.5800 O   0  0  0  0  0  0  0  0  0  0  0  0
  -30.5170  -15.4270   20.7260 N   0  0  0  0  0  0  0  0  0  0  0  0
  -29.6160  -15.1670   21.0950 H   0  0  0  0  0  0  0  0  0  0  0  0
  -25.7050  -14.0220   20.2440 C   0  0  0  0  0  0  0  0  0  0  0  0
  -24.6270  -13.2850   20.6570 C   0  0  0  0  0  0  0  0  0  0  0  0
  -25.0510  -11.9210   20.6360 C   0  0  0  0  0  0  0  0  0  0  0  0
  -26.7210  -13.1090   20.0070 N   0  0  0  0  0  0  0  0  0  0  0  0
  -26.3310  -11.8410   20.2960 N   0  0  0  0  0  0  0  0  0  0  0  0
  -24.2980  -10.6810   20.8660 C   0  0  0  0  0  0  0  0  0  0  0  0
  -24.6870   -9.7560   21.8610 C   0  0  0  0  0  3  0  0  0  0  0  0
  -23.9370   -8.5790   22.0760 C   0  0  0  0  0  3  0  0  0  0  0  0
  -22.7850   -8.3190   21.2960 C   0  0  0  0  0  0  0  0  0  0  0  0
  -22.4160   -9.2330   20.2920 C   0  0  0  0  0  3  0  0  0  0  0  0
  -23.1670  -10.4010   20.0740 C   0  0  0  0  0  3  0  0  0  0  0  0
  -22.0110   -7.1910   21.4150 O   0  0  0  0  0  0  0  0  0  0  0  0
  -21.8530   -6.5510   22.6180 C   0  0  0  0  0  0  0  0  0  0  0  0
  -21.3200   -7.2100   23.7480 C   0  0  0  0  0  3  0  0  0  0  0  0
  -21.1090   -6.4960   24.9440 C   0  0  0  0  0  3  0  0  0  0  0  0
  -21.4210   -5.1250   25.0110 C   0  0  0  0  0  0  0  0  0  0  0  0
  -21.9460   -4.4650   23.8860 C   0  0  0  0  0  3  0  0  0  0  0  0
  -22.1570   -5.1770   22.6920 C   0  0  0  0  0  0  0  0  0  0  0  0
  -22.6450   -4.5320   21.6040 F   0  0  0  0  0  0  0  0  0  0  0  0
  -21.2100   -4.4370   26.1580 F   0  0  0  0  0  0  0  0  0  0  0  0
  -23.2490  -13.8020   20.9550 C   0  0  0  0  0  0  0  0  0  0  0  0
  -22.5390  -13.1590   21.8740 N   0  0  0  0  0  0  0  0  0  0  0  0
  -22.8120  -14.8140   20.4070 O   0  0  0  0  0  0  0  0  0  0  0  0
  -22.9070  -12.3460   22.3460 H   0  0  0  0  0  0  0  0  0  0  0  0
  -21.6150  -13.4890   22.1120 H   0  0  0  0  0  0  0  0  0  0  0  0
  -25.8960  -15.3830   20.0340 N   0  0  0  0  0  0  0  0  0  0  0  0
  -25.1360  -16.0480   20.1290 H   0  0  0  0  0  0  0  0  0  0  0  0
  -26.7340  -15.7930   19.6430 H   0  0  0  0  0  0  0  0  0  0  0  0
  -30.6940  -23.0960   18.8070 C   0  0  0  0  0  2  0  0  0  0  0  0
  -30.9270  -24.5280   19.1230 N   0  0  0  0  0  4  0  0  0  0  0  0
  -31.9040  -24.7360   18.9860 H   0  0  0  0  0  0  0  0  0  0  0  0
  -30.7040  -24.6900   20.0930 H   0  0  0  0  0  0  0  0  0  0  0  0
  -30.1370  -25.4630   18.2880 C   0  0  0  0  0  2  0  0  0  0  0  0
  -30.3040  -26.9480   18.6850 C   0  0  0  0  0  2  0  0  0  0  0  0
  -29.7560  -27.3250   20.0720 C   0  0  0  0  0  2  0  0  0  0  0  0
  -28.4780  -26.7180   20.2400 O   0  0  0  0  0  0  0  0  0  0  0  0
  -24.6350  -31.9120   23.3020 C   0  0  0  0  0  0  0  0  0  0  0  0
  -27.3490  -27.5020   20.2650 C   0  0  0  0  0  0  0  0  0  0  0  0
  -23.4520  -30.5020   21.6470 C   0  0  0  0  0  3  0  0  0  0  0  0
  -24.9320  -28.9610   20.2540 C   0  0  0  0  0  0  0  0  0  0  0  0
  -25.9750  -30.8750   21.4810 C   0  0  0  0  0  2  0  0  0  0  0  0
  -26.0760  -29.5030   20.8510 C   0  0  0  0  0  0  0  0  0  0  0  0
  -27.2840  -28.7790   20.8680 C   0  0  0  0  0  3  0  0  0  0  0  0
  -26.1840  -26.9550   19.6900 C   0  0  0  0  0  3  0  0  0  0  0  0
  -24.9770  -27.6810   19.6760 C   0  0  0  0  0  3  0  0  0  0  0  0
  -23.6820  -29.8140   20.2750 C   0  0  0  0  0  2  0  0  0  0  0  0
  -24.7050  -31.1120   22.2020 N   0  0  0  0  0  0  0  0  0  0  0  0
  -23.5470  -32.1860   23.8270 O   0  0  0  0  0  0  0  0  0  0  0  0
  -22.7920  -29.4830   22.6030 C   0  0  0  0  0  0  0  0  0  0  0  0
  -21.4770  -29.2760   22.4380 N   0  0  0  0  0  0  0  0  0  0  0  0
  -23.4620  -28.8820   23.4480 O   0  0  0  0  0  0  0  0  0  0  0  0
  -20.9990  -29.8140   21.7290 H   0  0  0  0  0  0  0  0  0  0  0  0
  -18.1120  -28.0210   22.8310 C   0  0  0  0  0  0  0  0  0  0  0  0
  -20.6520  -28.3360   23.1960 C   0  0  0  0  0  3  0  0  0  0  0  0
  -20.8040  -26.8960   22.6530 C   0  0  0  0  0  2  0  0  0  0  0  0
  -19.7500  -26.5310   21.6050 C   0  0  0  0  0  2  0  0  0  0  0  0
  -18.3410  -26.6610   22.1930 C   0  0  0  0  0  2  0  0  0  0  0  0
  -19.1980  -28.8140   23.2880 C   0  0  0  0  0  0  0  0  0  0  0  0
  -18.9330  -30.0860   23.8410 C   0  0  0  0  0  3  0  0  0  0  0  0
  -17.6140  -30.5650   23.9440 C   0  0  0  0  0  3  0  0  0  0  0  0
  -16.5420  -29.7690   23.5050 C   0  0  0  0  0  3  0  0  0  0  0  0
  -16.7920  -28.4990   22.9550 C   0  0  0  0  0  3  0  0  0  0  0  0
  -25.9150  -32.5470   23.9350 C   0  0  0  0  0  3  0  0  0  0  0  0
  -25.6090  -33.9510   24.2380 N   0  0  0  0  0  0  0  0  0  0  0  0
  -25.9790  -34.9900   23.4770 C   0  0  0  0  0  0  0  0  0  0  0  0
  -26.6860  -34.8670   22.4730 O   0  0  0  0  0  0  0  0  0  0  0  0
  -24.9850  -34.1190   25.0130 H   0  0  0  0  0  0  0  0  0  0  0  0
  -24.2950  -36.7980   23.0200 C   0  0  0  0  0  1  0  0  0  0  0  0
  -25.4870  -36.3880   23.8980 C   0  0  0  0  0  3  0  0  0  0  0  0
  -27.5870  -37.2500   24.8340 C   0  0  0  0  0  1  0  0  0  0  0  0
  -26.5370  -37.4260   23.8330 N   0  0  0  0  0  0  0  0  0  0  0  0
  -26.1370  -38.3520   23.9530 H   0  0  0  0  0  0  0  0  0  0  0  0
  -26.4080  -31.7890   25.2280 C   0  0  1  0  0  0  0  0  0  0  0  0
  -25.2970  -31.5660   26.2780 C   0  0  0  0  0  1  0  0  0  0  0  0
  -26.9970  -30.4070   24.8590 C   0  0  0  0  0  1  0  0  0  0  0  0
  -27.5500  -32.5890   25.9000 C   0  0  0  0  0  1  0  0  0  0  0  0
  1  2  1  0
  4  3  1  0
  5  8  1  0
  6  3  1  0
  7  5  1  0
  7  9  1  0
  8 19  1  0
  8  4  1  0
  9  2  1  0
  9  6  1  0
  9 10  1  6
 11 19  1  0
 12 17  1  0
 13 14  1  0
 13 12  1  0
 15 14  1  0
 15 24  1  0
 15 16  1  0
 17 11  1  0
 17 16  1  0
 18 11  2  0
 19 20  1  0
 21 22  2  0
 22 41  1  0
 23 22  1  0
 23 26  1  0
 24 21  1  0
 24 25  1  0
 25 23  2  0
 26 27  1  0
 27 28  2  0
 29 32  1  0
 29 28  1  0
 30 29  2  0
 31 30  1  0
 31 26  2  0
 32 33  1  0
 33 38  2  0
 33 34  1  0
 34 35  2  0
 35 36  1  0
 36 40  1  0
 37 36  2  0
 38 37  1  0
 39 38  1  0
 41 42  1  0
 42 45  1  0
 42 44  1  0
 43 41  2  0
 46 47  1  0
 46 21  1  0
 48 46  1  0
 49 50  1  0
 49  1  1  0
 50 52  1  0
 51 50  1  0
 53 54  1  0
 53 50  1  0
 54 55  1  0
 55 56  1  0
 56 58  1  0
 57 68  2  0
 58 63  1  0
 59 67  1  0
 59 69  1  0
 60 66  1  0
 60 62  1  0
 61 67  1  0
 62 63  2  0
 62 61  1  0
 64 58  2  0
 65 64  1  0
 65 60  2  0
 66 59  1  0
 67 57  1  0
 69 71  2  0
 70 69  1  0
 72 70  1  0
 73 82  2  0
 73 78  1  0
 74 70  1  0
 74 78  1  0
 75 74  1  0
 76 77  1  0
 76 75  1  0
 77 73  1  0
 78 79  2  0
 79 80  1  0
 81 80  2  0
 82 81  1  0
 83 57  1  0
 83 84  1  0
 83 93  1  0
 84 87  1  0
 85 89  1  0
 85 84  1  0
 86 85  2  0
 89 88  1  0
 91 89  1  0
 91 92  1  0
 91 90  1  0
 93 96  1  1
 93 94  1  0
 95 93  1  0
M  ISO  4  11 100  19 100  55 101  56 101
M  END
>  <TORSDO>  (70) 
F 23

>  <SCORE>  (70) 
-11.779

>  <name>  (70) 
69

>  <ligand_id>  (70) 
69

>  <original_smiles>  (70) 
[H]c1c([H])c([H])c2c(c1[H])C([H])([H])C([H])([H])C([H])([H])C2([H])N([H])C(=O)C1([H])N(C(=O)C([H])(N([H])C(=O)C([H])(N([H])C([H])([H])[H])C([H])([H])[H])C(C([H])([H])[H])(C([H])([H])[H])C([H])([H])[H])C([H])([H])c2c([H])c(OC([H])([H])C([H])([H])C([H])([H])[N+]([H])([H])C([H])([H])C([H])([H])C([H])([H])[N+]3([H])C([H])([H])C([H])([H])C([H])([H])C([H])(N([H])C(=O)N4C([H])([H])C([H])([H])C([H])([H])C([H])(n5nc(-c6c([H])c([H])c(Oc7c([H])c([H])c(F)c([H])c7F)c([H])c6[H])c(C(=O)N([H])[H])c5N([H])[H])C4([H])[H])C([H])([H])C3([H])[H])c([H])c([H])c2C1([H])[H]

>  <smiles>  (70) 
[H]c1c([H])c([H])c2c(c1[H])C([H])([H])C([H])([H])C([H])([H])C2([H])N([H])C(=O)C1([H])N(C(=O)C([H])(N([H])C(=O)C([H])(N([H])C([H])([H])[H])C([H])([H])[H])C(C([H])([H])[H])(C([H])([H])[H])C([H])([H])[H])C([H])([H])c2c([H])c(OC([H])([H])C([H])([H])C([H])([H])[N+]([H])([H])C([H])([H])C([H])([H])C([H])([H])[N+]3([H])C([H])([H])C([H])([H])C([H])([H])C([H])(N([H])C(=O)N4C([H])([H])C([H])([H])C([H])([H])C([H])(n5nc(-c6c([H])c([H])c(Oc7c([H])c([H])c(F)c([H])c7F)c([H])c6[H])c(C(=O)N([H])[H])c5N([H])[H])C4([H])[H])C([H])([H])C3([H])[H])c([H])c([H])c2C1([H])[H]

$$$$
70:0:0
     RDKit          3D

 96105  0  0  1  0  0  0  0  0999 V2000
  -30.4790  -23.4670   25.2640 C   0  0  0  0  0  2  0  0  0  0  0  0
  -30.9390  -22.0880   24.7880 C   0  0  0  0  0  2  0  0  0  0  0  0
  -30.0250  -24.2120   24.0000 C   0  0  0  0  0  2  0  0  0  0  0  0
  -30.3640  -21.9450   23.3710 C   0  0  0  0  0  3  0  0  0  0  0  0
  -30.3110  -23.3310   22.8410 N   0  0  1  0  0  4  0  0  0  0  0  0
  -31.2460  -23.5610   22.5330 H   0  0  0  0  0  0  0  0  0  0  0  0
  -31.1670  -20.9750   22.4700 C   0  0  0  0  0  2  0  0  0  0  0  0
  -31.0660  -19.4920   22.8690 C   0  0  0  0  0  0  0  0  0  0  0  0
  -30.6930  -17.5390   19.7550 C   0  0  0  0  0  2  0  0  0  0  0  0
  -30.9280  -18.8750   20.4520 C   0  0  0  0  0  2  0  0  0  0  0  0
  -30.9410  -17.1330   22.1150 C   0  0  0  0  0  2  0  0  0  0  0  0
  -31.2090  -16.4940   20.7490 C   0  0  0  0  0  3  0  0  0  0  0  0
  -30.9670  -18.5770   21.8830 N   0  0  0  0  0  0  0  0  0  0  0  0
  -31.0800  -19.1670   24.0600 O   0  0  0  0  0  0  0  0  0  0  0  0
  -31.0100  -14.2110   19.8160 C   0  0  0  0  0  0  0  0  0  0  0  0
  -30.5740  -11.9790   18.8750 C   0  0  0  0  0  2  0  0  0  0  0  0
  -29.5430  -12.0640   17.7350 C   0  0  0  0  0  2  0  0  0  0  0  0
  -28.1110  -11.9760   18.2930 C   0  0  0  0  0  2  0  0  0  0  0  0
  -27.8670  -12.9510   19.4750 C   0  0  0  0  0  3  0  0  0  0  0  0
  -29.0020  -12.8490   20.5190 C   0  0  0  0  0  2  0  0  0  0  0  0
  -30.2870  -13.0620   19.8280 N   0  0  0  0  0  0  0  0  0  0  0  0
  -32.0130  -14.3710   19.1160 O   0  0  0  0  0  0  0  0  0  0  0  0
  -30.5580  -15.1940   20.6040 N   0  0  0  0  0  0  0  0  0  0  0  0
  -29.7300  -15.0050   21.1510 H   0  0  0  0  0  0  0  0  0  0  0  0
  -25.5810  -13.6550   20.4310 C   0  0  0  0  0  0  0  0  0  0  0  0
  -24.5180  -12.9240   20.8910 C   0  0  0  0  0  0  0  0  0  0  0  0
  -24.9080  -11.5530   20.7890 C   0  0  0  0  0  0  0  0  0  0  0  0
  -26.5550  -12.7320   20.0810 N   0  0  0  0  0  0  0  0  0  0  0  0
  -26.1560  -11.4620   20.3500 N   0  0  0  0  0  0  0  0  0  0  0  0
  -24.1450  -10.3220   21.0290 C   0  0  0  0  0  0  0  0  0  0  0  0
  -24.5550   -9.3740   21.9920 C   0  0  0  0  0  3  0  0  0  0  0  0
  -23.7950   -8.2060   22.2160 C   0  0  0  0  0  3  0  0  0  0  0  0
  -22.6090   -7.9780   21.4780 C   0  0  0  0  0  0  0  0  0  0  0  0
  -22.2180   -8.9130   20.5040 C   0  0  0  0  0  3  0  0  0  0  0  0
  -22.9790  -10.0720   20.2780 C   0  0  0  0  0  3  0  0  0  0  0  0
  -21.8210   -6.8600   21.6100 O   0  0  0  0  0  0  0  0  0  0  0  0
  -21.6470   -6.2410   22.8220 C   0  0  0  0  0  0  0  0  0  0  0  0
  -21.1000   -6.9180   23.9330 C   0  0  0  0  0  3  0  0  0  0  0  0
  -20.8750   -6.2240   25.1400 C   0  0  0  0  0  3  0  0  0  0  0  0
  -21.1870   -4.8550   25.2340 C   0  0  0  0  0  0  0  0  0  0  0  0
  -21.7270   -4.1780   24.1270 C   0  0  0  0  0  3  0  0  0  0  0  0
  -21.9540   -4.8690   22.9230 C   0  0  0  0  0  0  0  0  0  0  0  0
  -22.4540   -4.2060   21.8520 F   0  0  0  0  0  0  0  0  0  0  0  0
  -20.9640   -4.1860   26.3890 F   0  0  0  0  0  0  0  0  0  0  0  0
  -23.1800  -13.4580   21.3140 C   0  0  0  0  0  0  0  0  0  0  0  0
  -22.5220  -12.7910   22.2560 N   0  0  0  0  0  0  0  0  0  0  0  0
  -22.7300  -14.5020   20.8420 O   0  0  0  0  0  0  0  0  0  0  0  0
  -22.9010  -11.9470   22.6590 H   0  0  0  0  0  0  0  0  0  0  0  0
  -21.6280  -13.1310   22.5810 H   0  0  0  0  0  0  0  0  0  0  0  0
  -25.7940  -15.0190   20.2620 N   0  0  0  0  0  0  0  0  0  0  0  0
  -25.0780  -15.7100   20.4580 H   0  0  0  0  0  0  0  0  0  0  0  0
  -26.6340  -15.4230   19.8650 H   0  0  0  0  0  0  0  0  0  0  0  0
  -29.3910  -23.5150   21.6860 C   0  0  0  0  0  2  0  0  0  0  0  0
  -29.4360  -24.9310   21.0830 C   0  0  0  0  0  2  0  0  0  0  0  0
  -28.4120  -25.0960   19.9530 C   0  0  0  0  0  2  0  0  0  0  0  0
  -28.4770  -26.4380   19.4840 O   0  0  0  0  0  0  0  0  0  0  0  0
  -24.9040  -31.5080   22.9330 C   0  0  0  0  0  0  0  0  0  0  0  0
  -27.3110  -27.1580   19.5720 C   0  0  0  0  0  0  0  0  0  0  0  0
  -23.5950  -30.1980   21.2910 C   0  0  0  0  0  3  0  0  0  0  0  0
  -24.9500  -28.6870   19.7500 C   0  0  0  0  0  0  0  0  0  0  0  0
  -26.1140  -30.5170   20.9960 C   0  0  0  0  0  2  0  0  0  0  0  0
  -26.1420  -29.1710   20.3020 C   0  0  0  0  0  0  0  0  0  0  0  0
  -27.3270  -28.4140   20.2080 C   0  0  0  0  0  3  0  0  0  0  0  0
  -26.1050  -26.6770   19.0160 C   0  0  0  0  0  3  0  0  0  0  0  0
  -24.9240  -27.4360   19.1040 C   0  0  0  0  0  3  0  0  0  0  0  0
  -23.7280  -29.5650   19.8790 C   0  0  0  0  0  2  0  0  0  0  0  0
  -24.8920  -30.7510   21.7990 N   0  0  0  0  0  0  0  0  0  0  0  0
  -23.8550  -31.7840   23.5300 O   0  0  0  0  0  0  0  0  0  0  0  0
  -22.9620  -29.1540   22.2390 C   0  0  0  0  0  0  0  0  0  0  0  0
  -21.6280  -29.0170   22.1710 N   0  0  0  0  0  0  0  0  0  0  0  0
  -23.6650  -28.4730   22.9890 O   0  0  0  0  0  0  0  0  0  0  0  0
  -21.1260  -29.6200   21.5340 H   0  0  0  0  0  0  0  0  0  0  0  0
  -18.2450  -27.9010   22.7680 C   0  0  0  0  0  0  0  0  0  0  0  0
  -20.8190  -28.0730   22.9390 C   0  0  0  0  0  3  0  0  0  0  0  0
  -20.8530  -26.6640   22.3020 C   0  0  0  0  0  2  0  0  0  0  0  0
  -19.7000  -26.4150   21.3250 C   0  0  0  0  0  2  0  0  0  0  0  0
  -18.3520  -26.5750   22.0350 C   0  0  0  0  0  2  0  0  0  0  0  0
  -19.4030  -28.6110   23.1790 C   0  0  0  0  0  0  0  0  0  0  0  0
  -19.2510  -29.8570   23.8260 C   0  0  0  0  0  3  0  0  0  0  0  0
  -17.9700  -30.3910   24.0660 C   0  0  0  0  0  3  0  0  0  0  0  0
  -16.8260  -29.6760   23.6720 C   0  0  0  0  0  3  0  0  0  0  0  0
  -16.9650  -28.4320   23.0300 C   0  0  0  0  0  3  0  0  0  0  0  0
  -26.2320  -32.0810   23.5190 C   0  0  0  0  0  3  0  0  0  0  0  0
  -25.9750  -33.4690   23.9230 N   0  0  0  0  0  0  0  0  0  0  0  0
  -26.3180  -34.5450   23.2020 C   0  0  0  0  0  0  0  0  0  0  0  0
  -26.9550  -34.4710   22.1490 O   0  0  0  0  0  0  0  0  0  0  0  0
  -25.4050  -33.6030   24.7460 H   0  0  0  0  0  0  0  0  0  0  0  0
  -24.6300  -36.3960   22.9760 C   0  0  0  0  0  1  0  0  0  0  0  0
  -25.8820  -35.9230   23.7340 C   0  0  0  0  0  3  0  0  0  0  0  0
  -28.0540  -36.7190   24.5540 C   0  0  0  0  0  1  0  0  0  0  0  0
  -26.9390  -36.9520   23.6400 N   0  0  0  0  0  0  0  0  0  0  0  0
  -26.5610  -37.8760   23.8320 H   0  0  0  0  0  0  0  0  0  0  0  0
  -26.7920  -31.2410   24.7320 C   0  0  1  0  0  0  0  0  0  0  0  0
  -25.7480  -30.9850   25.8430 C   0  0  0  0  0  1  0  0  0  0  0  0
  -27.3140  -29.8680   24.2480 C   0  0  0  0  0  1  0  0  0  0  0  0
  -27.9960  -31.9750   25.3690 C   0  0  0  0  0  1  0  0  0  0  0  0
  2  1  1  0
  3  1  1  0
  4  7  1  0
  4  2  1  0
  5  4  1  0
  5  3  1  0
  5  6  1  6
  7  8  1  0
  8 14  2  0
  9 10  1  0
  9 12  1  0
 10 13  1  0
 12 23  1  0
 12 11  1  0
 13 11  1  0
 13  8  1  0
 15 21  1  0
 15 23  1  0
 16 21  1  0
 17 18  1  0
 17 16  1  0
 19 18  1  0
 19 28  1  0
 19 20  1  0
 21 20  1  0
 22 15  2  0
 23 24  1  0
 25 26  2  0
 26 45  1  0
 27 26  1  0
 27 30  1  0
 28 29  1  0
 28 25  1  0
 29 27  2  0
 30 31  1  0
 31 32  2  0
 33 36  1  0
 33 32  1  0
 34 33  2  0
 35 34  1  0
 35 30  2  0
 36 37  1  0
 37 42  2  0
 37 38  1  0
 38 39  2  0
 39 40  1  0
 40 44  1  0
 41 40  2  0
 42 41  1  0
 43 42  1  0
 45 46  1  0
 46 49  1  0
 46 48  1  0
 47 45  2  0
 50 25  1  0
 50 51  1  0
 52 50  1  0
 53  5  1  0
 54 53  1  0
 55 54  1  0
 56 58  1  0
 56 55  1  0
 57 68  2  0
 58 63  1  0
 59 67  1  0
 59 69  1  0
 60 66  1  0
 60 62  1  0
 61 67  1  0
 62 61  1  0
 63 62  2  0
 64 65  1  0
 64 58  2  0
 65 60  2  0
 66 59  1  0
 67 57  1  0
 69 71  2  0
 70 69  1  0
 72 70  1  0
 73 82  2  0
 73 78  1  0
 74 70  1  0
 74 78  1  0
 75 74  1  0
 76 77  1  0
 76 75  1  0
 77 73  1  0
 78 79  2  0
 79 80  1  0
 81 80  2  0
 82 81  1  0
 83 57  1  0
 83 84  1  0
 83 93  1  0
 84 87  1  0
 85 89  1  0
 85 84  1  0
 86 85  2  0
 89 88  1  0
 91 89  1  0
 91 92  1  0
 91 90  1  0
 93 96  1  1
 93 94  1  0
 95 93  1  0
M  ISO  4  15 100  23 100  55 101  56 101
M  END
>  <TORSDO>  (71) 
F 21

>  <SCORE>  (71) 
-9.770

>  <name>  (71) 
70

>  <ligand_id>  (71) 
70

>  <original_smiles>  (71) 
[H]c1c([H])c([H])c2c(c1[H])C([H])([H])C([H])([H])C([H])([H])C2([H])N([H])C(=O)C1([H])N(C(=O)C([H])(N([H])C(=O)C([H])(N([H])C([H])([H])[H])C([H])([H])[H])C(C([H])([H])[H])(C([H])([H])[H])C([H])([H])[H])C([H])([H])c2c([H])c(OC([H])([H])C([H])([H])C([H])([H])[N+]3([H])C([H])([H])C([H])([H])C([H])([H])C3([H])C([H])([H])C(=O)N3C([H])([H])C([H])([H])C([H])(N([H])C(=O)N4C([H])([H])C([H])([H])C([H])([H])C([H])(n5nc(-c6c([H])c([H])c(Oc7c([H])c([H])c(F)c([H])c7F)c([H])c6[H])c(C(=O)N([H])[H])c5N([H])[H])C4([H])[H])C3([H])[H])c([H])c([H])c2C1([H])[H]

>  <smiles>  (71) 
[H]c1c([H])c([H])c2c(c1[H])C([H])([H])C([H])([H])C([H])([H])C2([H])N([H])C(=O)C1([H])N(C(=O)C([H])(N([H])C(=O)C([H])(N([H])C([H])([H])[H])C([H])([H])[H])C(C([H])([H])[H])(C([H])([H])[H])C([H])([H])[H])C([H])([H])c2c([H])c(OC([H])([H])C([H])([H])C([H])([H])[N+]3([H])C([H])([H])C([H])([H])C([H])([H])C3([H])C([H])([H])C(=O)N3C([H])([H])C([H])([H])C([H])(N([H])C(=O)N4C([H])([H])C([H])([H])C([H])([H])C([H])(n5nc(-c6c([H])c([H])c(Oc7c([H])c([H])c(F)c([H])c7F)c([H])c6[H])c(C(=O)N([H])[H])c5N([H])[H])C4([H])[H])C3([H])[H])c([H])c([H])c2C1([H])[H]

$$$$
71:0:0
     RDKit          3D

 96104  0  0  1  0  0  0  0  0999 V2000
  -29.4310  -21.3060   23.3030 C   0  0  0  0  0  2  0  0  0  0  0  0
  -30.9370  -20.9680   23.2860 C   0  0  0  0  0  2  0  0  0  0  0  0
  -31.5180  -20.3920   21.9750 C   0  0  0  0  0  2  0  0  0  0  0  0
  -32.0540  -18.1640   19.7190 C   0  0  0  0  0  2  0  0  0  0  0  0
  -32.4260  -18.2210   21.1950 C   0  0  0  0  0  2  0  0  0  0  0  0
  -30.0780  -18.5570   21.1000 C   0  0  0  0  0  2  0  0  0  0  0  0
  -30.5320  -18.0240   19.7270 C   0  0  0  0  0  3  0  0  0  0  0  0
  -31.3040  -18.9260   21.8480 N   0  0  2  0  0  4  0  0  0  0  0  0
  -31.2250  -18.5580   22.7840 H   0  0  0  0  0  0  0  0  0  0  0  0
  -30.0380  -16.6080   19.3950 C   0  0  0  0  0  2  0  0  0  0  0  0
  -31.0470  -14.6110   20.3970 C   0  0  0  0  0  0  0  0  0  0  0  0
  -30.8280  -12.3860   19.4280 C   0  0  0  0  0  2  0  0  0  0  0  0
  -29.9310  -12.5590   18.1830 C   0  0  0  0  0  2  0  0  0  0  0  0
  -28.4410  -12.4440   18.5610 C   0  0  0  0  0  2  0  0  0  0  0  0
  -28.0590  -13.3360   19.7710 C   0  0  0  0  0  3  0  0  0  0  0  0
  -29.0720  -13.1630   20.9300 C   0  0  0  0  0  2  0  0  0  0  0  0
  -30.4280  -13.4080   20.4000 N   0  0  0  0  0  0  0  0  0  0  0  0
  -32.2090  -14.7970   20.0260 O   0  0  0  0  0  0  0  0  0  0  0  0
  -30.1800  -15.6270   20.4750 N   0  0  0  0  0  0  0  0  0  0  0  0
  -29.3100  -15.3590   20.9150 H   0  0  0  0  0  0  0  0  0  0  0  0
  -25.6580  -14.0050   20.4200 C   0  0  0  0  0  0  0  0  0  0  0  0
  -24.5610  -13.2540   20.7550 C   0  0  0  0  0  0  0  0  0  0  0  0
  -24.9920  -11.8930   20.7260 C   0  0  0  0  0  0  0  0  0  0  0  0
  -26.6870  -13.0980   20.2100 N   0  0  0  0  0  0  0  0  0  0  0  0
  -26.2860  -11.8250   20.4460 N   0  0  0  0  0  0  0  0  0  0  0  0
  -24.2320  -10.6470   20.8820 C   0  0  0  0  0  0  0  0  0  0  0  0
  -24.5530   -9.7130   21.8920 C   0  0  0  0  0  3  0  0  0  0  0  0
  -23.7990   -8.5280   22.0350 C   0  0  0  0  0  3  0  0  0  0  0  0
  -22.7120   -8.2710   21.1670 C   0  0  0  0  0  0  0  0  0  0  0  0
  -22.4130   -9.1900   20.1450 C   0  0  0  0  0  3  0  0  0  0  0  0
  -23.1680  -10.3680   20.0010 C   0  0  0  0  0  3  0  0  0  0  0  0
  -21.9410   -7.1340   21.2150 O   0  0  0  0  0  0  0  0  0  0  0  0
  -21.6840   -6.4870   22.3980 C   0  0  0  0  0  0  0  0  0  0  0  0
  -21.0140   -7.1230   23.4660 C   0  0  0  0  0  3  0  0  0  0  0  0
  -20.7120   -6.4020   24.6370 C   0  0  0  0  0  3  0  0  0  0  0  0
  -21.0660   -5.0430   24.7400 C   0  0  0  0  0  0  0  0  0  0  0  0
  -21.7300   -4.4050   23.6760 C   0  0  0  0  0  3  0  0  0  0  0  0
  -22.0340   -5.1250   22.5070 C   0  0  0  0  0  0  0  0  0  0  0  0
  -22.6550   -4.5020   21.4750 F   0  0  0  0  0  0  0  0  0  0  0  0
  -20.7690   -4.3460   25.8610 F   0  0  0  0  0  0  0  0  0  0  0  0
  -23.1690  -13.7620   20.9940 C   0  0  0  0  0  0  0  0  0  0  0  0
  -22.4020  -13.0760   21.8360 N   0  0  0  0  0  0  0  0  0  0  0  0
  -22.7660  -14.7990   20.4690 O   0  0  0  0  0  0  0  0  0  0  0  0
  -22.7370  -12.2340   22.2820 H   0  0  0  0  0  0  0  0  0  0  0  0
  -21.4650  -13.3960   22.0360 H   0  0  0  0  0  0  0  0  0  0  0  0
  -25.8580  -15.3730   20.2620 N   0  0  0  0  0  0  0  0  0  0  0  0
  -25.0980  -16.0410   20.3410 H   0  0  0  0  0  0  0  0  0  0  0  0
  -26.7160  -15.7910   19.9260 H   0  0  0  0  0  0  0  0  0  0  0  0
  -29.0410  -22.7310   22.8450 C   0  0  0  0  0  2  0  0  0  0  0  0
  -29.0280  -22.9200   21.3740 N   0  0  0  0  0  4  0  0  0  0  0  0
  -28.8760  -22.0240   20.9410 H   0  0  0  0  0  0  0  0  0  0  0  0
  -28.2280  -23.4840   21.1380 H   0  0  0  0  0  0  0  0  0  0  0  0
  -30.2230  -23.5610   20.7640 C   0  0  0  0  0  2  0  0  0  0  0  0
  -30.1370  -25.0980   20.6560 C   0  0  0  0  0  2  0  0  0  0  0  0
  -28.9190  -25.6350   19.8790 C   0  0  0  0  0  2  0  0  0  0  0  0
  -28.8980  -27.0620   19.9480 O   0  0  0  0  0  0  0  0  0  0  0  0
  -24.7140  -31.7720   23.1820 C   0  0  0  0  0  0  0  0  0  0  0  0
  -27.6680  -27.6860   19.9280 C   0  0  0  0  0  0  0  0  0  0  0  0
  -23.6140  -30.3990   21.4400 C   0  0  0  0  0  3  0  0  0  0  0  0
  -25.1790  -29.0250   19.9620 C   0  0  0  0  0  0  0  0  0  0  0  0
  -26.1140  -30.9220   21.3050 C   0  0  0  0  0  2  0  0  0  0  0  0
  -26.2890  -29.5940   20.5980 C   0  0  0  0  0  0  0  0  0  0  0  0
  -27.5350  -28.9310   20.5760 C   0  0  0  0  0  3  0  0  0  0  0  0
  -26.5440  -27.1280   19.2780 C   0  0  0  0  0  3  0  0  0  0  0  0
  -25.3000  -27.7920   19.2950 C   0  0  0  0  0  3  0  0  0  0  0  0
  -23.8790  -29.7960   20.0320 C   0  0  0  0  0  2  0  0  0  0  0  0
  -24.8300  -31.0450   22.0340 N   0  0  0  0  0  0  0  0  0  0  0  0
  -23.6130  -31.9500   23.7210 O   0  0  0  0  0  0  0  0  0  0  0  0
  -23.0070  -29.2940   22.3360 C   0  0  0  0  0  0  0  0  0  0  0  0
  -21.6940  -29.0620   22.1900 N   0  0  0  0  0  0  0  0  0  0  0  0
  -23.7150  -28.6500   23.1130 O   0  0  0  0  0  0  0  0  0  0  0  0
  -21.1860  -29.6320   21.5290 H   0  0  0  0  0  0  0  0  0  0  0  0
  -18.3610  -27.7280   22.6240 C   0  0  0  0  0  0  0  0  0  0  0  0
  -20.9130  -28.0410   22.8900 C   0  0  0  0  0  3  0  0  0  0  0  0
  -21.0530  -26.6630   22.2030 C   0  0  0  0  0  2  0  0  0  0  0  0
  -19.9480  -26.3900   21.1770 C   0  0  0  0  0  2  0  0  0  0  0  0
  -18.5700  -26.4400   21.8420 C   0  0  0  0  0  2  0  0  0  0  0  0
  -19.4620  -28.4870   23.1010 C   0  0  0  0  0  0  0  0  0  0  0  0
  -19.2120  -29.6950   23.7920 C   0  0  0  0  0  3  0  0  0  0  0  0
  -17.8940  -30.1450   24.0000 C   0  0  0  0  0  3  0  0  0  0  0  0
  -16.8090  -29.3820   23.5360 C   0  0  0  0  0  3  0  0  0  0  0  0
  -17.0430  -28.1720   22.8590 C   0  0  0  0  0  3  0  0  0  0  0  0
  -25.9550  -32.4320   23.8590 C   0  0  0  0  0  3  0  0  0  0  0  0
  -26.4310  -31.6700   25.1560 C   0  0  1  0  0  0  0  0  0  0  0  0
  -25.2930  -31.3990   26.1670 C   0  0  0  0  0  1  0  0  0  0  0  0
  -27.0700  -30.3120   24.7870 C   0  0  0  0  0  1  0  0  0  0  0  0
  -27.5270  -32.4950   25.8700 C   0  0  0  0  0  1  0  0  0  0  0  0
  -25.5960  -33.8210   24.1730 N   0  0  0  0  0  0  0  0  0  0  0  0
  -25.9530  -34.8820   23.4360 C   0  0  0  0  0  0  0  0  0  0  0  0
  -26.6830  -34.7940   22.4450 O   0  0  0  0  0  0  0  0  0  0  0  0
  -24.9430  -33.9560   24.9300 H   0  0  0  0  0  0  0  0  0  0  0  0
  -24.2200  -36.6410   22.9690 C   0  0  0  0  0  1  0  0  0  0  0  0
  -25.4090  -36.2580   23.8640 C   0  0  0  0  0  3  0  0  0  0  0  0
  -27.4570  -37.1810   24.8520 C   0  0  0  0  0  1  0  0  0  0  0  0
  -26.4280  -37.3300   23.8270 N   0  0  0  0  0  0  0  0  0  0  0  0
  -25.9970  -38.2450   23.9340 H   0  0  0  0  0  0  0  0  0  0  0  0
  2  1  1  0
  3  2  1  0
  4  7  1  0
  4  5  1  0
  5  8  1  0
  6  8  1  0
  7 10  1  0
  7  6  1  0
  8  3  1  0
  8  9  1  1
 10 19  1  0
 11 17  1  0
 11 19  1  0
 12 17  1  0
 13 14  1  0
 13 12  1  0
 15 14  1  0
 15 24  1  0
 15 16  1  0
 17 16  1  0
 18 11  2  0
 19 20  1  0
 21 22  2  0
 22 41  1  0
 23 22  1  0
 23 26  1  0
 24 21  1  0
 24 25  1  0
 25 23  2  0
 26 27  1  0
 27 28  2  0
 29 32  1  0
 29 28  1  0
 30 29  2  0
 31 30  1  0
 31 26  2  0
 32 33  1  0
 33 38  2  0
 33 34  1  0
 34 35  2  0
 35 36  1  0
 36 40  1  0
 37 36  2  0
 38 37  1  0
 39 38  1  0
 41 42  1  0
 42 45  1  0
 42 44  1  0
 43 41  2  0
 46 47  1  0
 46 21  1  0
 48 46  1  0
 49  1  1  0
 50 49  1  0
 51 50  1  0
 52 50  1  0
 53 50  1  0
 54 53  1  0
 55 56  1  0
 55 54  1  0
 57 68  2  0
 58 56  1  0
 58 63  1  0
 59 67  1  0
 59 69  1  0
 60 66  1  0
 60 62  1  0
 61 67  1  0
 62 61  1  0
 63 62  2  0
 64 65  1  0
 64 58  2  0
 65 60  2  0
 66 59  1  0
 67 57  1  0
 69 71  2  0
 70 69  1  0
 72 70  1  0
 73 82  2  0
 73 78  1  0
 74 70  1  0
 74 78  1  0
 75 74  1  0
 76 77  1  0
 76 75  1  0
 77 73  1  0
 78 79  2  0
 79 80  1  0
 81 80  2  0
 82 81  1  0
 83 57  1  0
 83 88  1  0
 83 84  1  0
 84 87  1  1
 84 85  1  0
 86 84  1  0
 88 91  1  0
 89 93  1  0
 89 88  1  0
 90 89  2  0
 93 92  1  0
 95 93  1  0
 95 96  1  0
 95 94  1  0
M  ISO  4  11 100  19 100  55 101  56 101
M  END
>  <TORSDO>  (72) 
F 25

>  <SCORE>  (72) 
-10.980

>  <name>  (72) 
71

>  <ligand_id>  (72) 
71

>  <original_smiles>  (72) 
[H]c1c([H])c([H])c2c(c1[H])C([H])([H])C([H])([H])C([H])([H])C2([H])N([H])C(=O)C1([H])N(C(=O)C([H])(N([H])C(=O)C([H])(N([H])C([H])([H])[H])C([H])([H])[H])C(C([H])([H])[H])(C([H])([H])[H])C([H])([H])[H])C([H])([H])c2c([H])c(OC([H])([H])C([H])([H])C([H])([H])[N+]([H])([H])C([H])([H])C([H])([H])C([H])([H])C([H])([H])[N+]3([H])C([H])([H])C([H])([H])C([H])(C([H])([H])N([H])C(=O)N4C([H])([H])C([H])([H])C([H])([H])C([H])(n5nc(-c6c([H])c([H])c(Oc7c([H])c([H])c(F)c([H])c7F)c([H])c6[H])c(C(=O)N([H])[H])c5N([H])[H])C4([H])[H])C3([H])[H])c([H])c([H])c2C1([H])[H]

>  <smiles>  (72) 
[H]c1c([H])c([H])c2c(c1[H])C([H])([H])C([H])([H])C([H])([H])C2([H])N([H])C(=O)C1([H])N(C(=O)C([H])(N([H])C(=O)C([H])(N([H])C([H])([H])[H])C([H])([H])[H])C(C([H])([H])[H])(C([H])([H])[H])C([H])([H])[H])C([H])([H])c2c([H])c(OC([H])([H])C([H])([H])C([H])([H])[N+]([H])([H])C([H])([H])C([H])([H])C([H])([H])C([H])([H])[N+]3([H])C([H])([H])C([H])([H])C([H])(C([H])([H])N([H])C(=O)N4C([H])([H])C([H])([H])C([H])([H])C([H])(n5nc(-c6c([H])c([H])c(Oc7c([H])c([H])c(F)c([H])c7F)c([H])c6[H])c(C(=O)N([H])[H])c5N([H])[H])C4([H])[H])C3([H])[H])c([H])c([H])c2C1([H])[H]

$$$$
72:0:0
     RDKit          3D

 92100  0  0  1  0  0  0  0  0999 V2000
  -30.5340  -21.1720   19.1600 C   0  0  0  0  0  2  0  0  0  0  0  0
  -31.9410  -19.6210   16.1040 C   0  0  0  0  0  2  0  0  0  0  0  0
  -31.5500  -18.3790   16.9040 C   0  0  0  0  0  2  0  0  0  0  0  0
  -31.2650  -20.7930   16.8200 C   0  0  0  0  0  2  0  0  0  0  0  0
  -31.1370  -18.9140   18.2850 C   0  0  0  0  0  3  0  0  0  0  0  0
  -30.5520  -20.2450   18.0030 N   0  0  1  0  0  4  0  0  0  0  0  0
  -29.5950  -20.0970   17.7160 H   0  0  0  0  0  0  0  0  0  0  0  0
  -30.1970  -17.9490   19.0670 C   0  0  0  0  0  2  0  0  0  0  0  0
  -30.9650  -16.6960   19.5330 C   0  0  0  0  0  2  0  0  0  0  0  0
  -30.7740  -14.4190   20.3390 C   0  0  0  0  0  0  0  0  0  0  0  0
  -30.3070  -12.2670   19.3030 C   0  0  0  0  0  2  0  0  0  0  0  0
  -29.3900  -12.5180   18.0950 C   0  0  0  0  0  2  0  0  0  0  0  0
  -27.9130  -12.4360   18.5230 C   0  0  0  0  0  2  0  0  0  0  0  0
  -27.5980  -13.2750   19.7970 C   0  0  0  0  0  3  0  0  0  0  0  0
  -28.6720  -13.1050   20.8930 C   0  0  0  0  0  2  0  0  0  0  0  0
  -29.9890  -13.3140   20.2820 N   0  0  0  0  0  0  0  0  0  0  0  0
  -31.9870  -14.3760   20.1610 O   0  0  0  0  0  0  0  0  0  0  0  0
  -30.1730  -15.6060   20.1500 N   0  0  0  0  0  0  0  0  0  0  0  0
  -29.1690  -15.6760   20.2070 H   0  0  0  0  0  0  0  0  0  0  0  0
  -25.2110  -13.8770   20.5360 C   0  0  0  0  0  0  0  0  0  0  0  0
  -24.1380  -13.1040   20.8970 C   0  0  0  0  0  0  0  0  0  0  0  0
  -24.5920  -11.7520   20.8540 C   0  0  0  0  0  0  0  0  0  0  0  0
  -26.2520  -12.9940   20.2930 N   0  0  0  0  0  0  0  0  0  0  0  0
  -25.8840  -11.7100   20.5450 N   0  0  0  0  0  0  0  0  0  0  0  0
  -23.8580  -10.4930   21.0370 C   0  0  0  0  0  0  0  0  0  0  0  0
  -24.2960   -9.5090   21.9520 C   0  0  0  0  0  3  0  0  0  0  0  0
  -23.5630   -8.3150   22.1280 C   0  0  0  0  0  3  0  0  0  0  0  0
  -22.3750   -8.0980   21.3890 C   0  0  0  0  0  0  0  0  0  0  0  0
  -21.9560   -9.0710   20.4640 C   0  0  0  0  0  3  0  0  0  0  0  0
  -22.6900  -10.2550   20.2860 C   0  0  0  0  0  3  0  0  0  0  0  0
  -21.6120   -6.9580   21.4710 O   0  0  0  0  0  0  0  0  0  0  0  0
  -21.5870   -6.1910   22.6080 C   0  0  0  0  0  0  0  0  0  0  0  0
  -21.2100   -6.7260   23.8600 C   0  0  0  0  0  3  0  0  0  0  0  0
  -21.1320   -5.8870   24.9900 C   0  0  0  0  0  3  0  0  0  0  0  0
  -21.4190   -4.5140   24.8680 C   0  0  0  0  0  0  0  0  0  0  0  0
  -21.7860   -3.9780   23.6220 C   0  0  0  0  0  3  0  0  0  0  0  0
  -21.8670   -4.8150   22.4940 C   0  0  0  0  0  0  0  0  0  0  0  0
  -22.2020   -4.2900   21.2910 F   0  0  0  0  0  0  0  0  0  0  0  0
  -21.3360   -3.7050   25.9510 F   0  0  0  0  0  0  0  0  0  0  0  0
  -22.7440  -13.5890   21.1740 C   0  0  0  0  0  0  0  0  0  0  0  0
  -22.0140  -12.8880   22.0360 N   0  0  0  0  0  0  0  0  0  0  0  0
  -22.3090  -14.6180   20.6600 O   0  0  0  0  0  0  0  0  0  0  0  0
  -22.3790  -12.0560   22.4730 H   0  0  0  0  0  0  0  0  0  0  0  0
  -21.0750  -13.1860   22.2620 H   0  0  0  0  0  0  0  0  0  0  0  0
  -25.3770  -15.2490   20.3700 N   0  0  0  0  0  0  0  0  0  0  0  0
  -24.6070  -15.9010   20.4870 H   0  0  0  0  0  0  0  0  0  0  0  0
  -26.2320  -15.7000   20.0630 H   0  0  0  0  0  0  0  0  0  0  0  0
  -29.7960  -22.4750   18.8260 C   0  0  0  0  0  2  0  0  0  0  0  0
  -29.5660  -23.3780   20.0380 C   0  0  0  0  0  2  0  0  0  0  0  0
  -28.9080  -24.6780   19.5830 C   0  0  0  0  0  2  0  0  0  0  0  0
  -28.5970  -25.6280   20.7300 C   0  0  0  0  0  2  0  0  0  0  0  0
  -28.4640  -26.8990   20.1360 O   0  0  0  0  0  0  0  0  0  0  0  0
  -24.5620  -31.8780   23.2320 C   0  0  0  0  0  0  0  0  0  0  0  0
  -27.2360  -27.4960   20.1850 C   0  0  0  0  0  0  0  0  0  0  0  0
  -23.3500  -30.4610   21.5980 C   0  0  0  0  0  3  0  0  0  0  0  0
  -24.8110  -28.9200   20.1830 C   0  0  0  0  0  0  0  0  0  0  0  0
  -25.8610  -30.8590   21.3750 C   0  0  0  0  0  2  0  0  0  0  0  0
  -25.9570  -29.4850   20.7560 C   0  0  0  0  0  0  0  0  0  0  0  0
  -27.1720  -28.7810   20.7470 C   0  0  0  0  0  3  0  0  0  0  0  0
  -26.0780  -26.9120   19.6280 C   0  0  0  0  0  3  0  0  0  0  0  0
  -24.8640  -27.6320   19.6160 C   0  0  0  0  0  3  0  0  0  0  0  0
  -23.5540  -29.7620   20.2250 C   0  0  0  0  0  2  0  0  0  0  0  0
  -24.6090  -31.0790   22.1300 N   0  0  0  0  0  0  0  0  0  0  0  0
  -23.4830  -32.1460   23.7800 O   0  0  0  0  0  0  0  0  0  0  0  0
  -22.7120  -29.4430   22.5680 C   0  0  0  0  0  0  0  0  0  0  0  0
  -21.3870  -29.2600   22.4500 N   0  0  0  0  0  0  0  0  0  0  0  0
  -23.4020  -28.8220   23.3800 O   0  0  0  0  0  0  0  0  0  0  0  0
  -20.8940  -29.8110   21.7610 H   0  0  0  0  0  0  0  0  0  0  0  0
  -18.0160  -28.0780   22.9630 C   0  0  0  0  0  0  0  0  0  0  0  0
  -20.5750  -28.3270   23.2270 C   0  0  0  0  0  3  0  0  0  0  0  0
  -20.6710  -26.8950   22.6520 C   0  0  0  0  0  2  0  0  0  0  0  0
  -19.5640  -26.5740   21.6420 C   0  0  0  0  0  2  0  0  0  0  0  0
  -18.1860  -26.7270   22.2890 C   0  0  0  0  0  2  0  0  0  0  0  0
  -19.1390  -28.8370   23.3880 C   0  0  0  0  0  0  0  0  0  0  0  0
  -18.9260  -30.1030   23.9750 C   0  0  0  0  0  3  0  0  0  0  0  0
  -17.6240  -30.6100   24.1440 C   0  0  0  0  0  3  0  0  0  0  0  0
  -16.5170  -29.8470   23.7370 C   0  0  0  0  0  3  0  0  0  0  0  0
  -16.7140  -28.5820   23.1540 C   0  0  0  0  0  3  0  0  0  0  0  0
  -25.8520  -32.5130   23.8430 C   0  0  0  0  0  3  0  0  0  0  0  0
  -25.5460  -33.9120   24.1650 N   0  0  0  0  0  0  0  0  0  0  0  0
  -25.8820  -34.9570   23.3940 C   0  0  0  0  0  0  0  0  0  0  0  0
  -26.5530  -34.8430   22.3650 O   0  0  0  0  0  0  0  0  0  0  0  0
  -24.9530  -34.0780   24.9650 H   0  0  0  0  0  0  0  0  0  0  0  0
  -24.1570  -36.7470   23.0180 C   0  0  0  0  0  1  0  0  0  0  0  0
  -25.3950  -36.3510   23.8370 C   0  0  0  0  0  3  0  0  0  0  0  0
  -27.5320  -37.2350   24.6640 C   0  0  0  0  0  1  0  0  0  0  0  0
  -26.4300  -37.4020   23.7190 N   0  0  0  0  0  0  0  0  0  0  0  0
  -26.0260  -38.3230   23.8620 H   0  0  0  0  0  0  0  0  0  0  0  0
  -26.3800  -31.7480   25.1190 C   0  0  1  0  0  0  0  0  0  0  0  0
  -25.2940  -31.5110   26.1940 C   0  0  0  0  0  1  0  0  0  0  0  0
  -26.9620  -30.3720   24.7230 C   0  0  0  0  0  1  0  0  0  0  0  0
  -27.5370  -32.5450   25.7670 C   0  0  0  0  0  1  0  0  0  0  0  0
  2  4  1  0
  2  3  1  0
  3  5  1  0
  4  6  1  0
  5  8  1  0
  6  5  1  0
  6  1  1  0
  6  7  1  6
  8  9  1  0
  9 18  1  0
 11 16  1  0
 12 13  1  0
 12 11  1  0
 14 13  1  0
 14 23  1  0
 14 15  1  0
 16 10  1  0
 16 15  1  0
 17 10  2  0
 18 19  1  0
 18 10  1  0
 20 21  2  0
 21 40  1  0
 22 21  1  0
 22 25  1  0
 23 20  1  0
 23 24  1  0
 24 22  2  0
 25 26  1  0
 26 27  2  0
 28 31  1  0
 28 27  1  0
 29 28  2  0
 30 29  1  0
 30 25  2  0
 31 32  1  0
 32 33  1  0
 33 34  2  0
 35 34  1  0
 35 39  1  0
 36 35  2  0
 37 32  2  0
 37 36  1  0
 38 37  1  0
 40 41  1  0
 41 44  1  0
 41 43  1  0
 42 40  2  0
 45 46  1  0
 45 20  1  0
 47 45  1  0
 48  1  1  0
 48 49  1  0
 50 49  1  0
 50 51  1  0
 52 54  1  0
 52 51  1  0
 53 64  2  0
 54 59  1  0
 55 63  1  0
 55 65  1  0
 56 62  1  0
 56 58  1  0
 57 63  1  0
 58 57  1  0
 59 58  2  0
 60 54  2  0
 61 60  1  0
 61 56  2  0
 62 55  1  0
 63 53  1  0
 65 67  2  0
 66 65  1  0
 68 66  1  0
 69 78  2  0
 69 74  1  0
 70 66  1  0
 70 74  1  0
 71 70  1  0
 72 73  1  0
 72 71  1  0
 73 69  1  0
 74 75  2  0
 75 76  1  0
 77 76  2  0
 78 77  1  0
 79 53  1  0
 79 80  1  0
 79 89  1  0
 80 83  1  0
 81 85  1  0
 81 80  1  0
 82 81  2  0
 85 84  1  0
 87 85  1  0
 87 88  1  0
 87 86  1  0
 89 92  1  1
 89 90  1  0
 91 89  1  0
M  ISO  4  10 100  18 100  51 101  52 101
M  END
>  <TORSDO>  (73) 
F 23

>  <SCORE>  (73) 
-12.587

>  <name>  (73) 
72

>  <ligand_id>  (73) 
72

>  <original_smiles>  (73) 
[H]c1c([H])c([H])c2c(c1[H])C([H])([H])C([H])([H])C([H])([H])C2([H])N([H])C(=O)C1([H])N(C(=O)C([H])(N([H])C(=O)C([H])(N([H])C([H])([H])[H])C([H])([H])[H])C(C([H])([H])[H])(C([H])([H])[H])C([H])([H])[H])C([H])([H])c2c([H])c(OC([H])([H])C([H])([H])C([H])([H])C([H])([H])C([H])([H])[N+]3([H])C([H])([H])C([H])([H])C([H])([H])C3([H])C([H])([H])C([H])([H])N([H])C(=O)N3C([H])([H])C([H])([H])C([H])([H])C([H])(n4nc(-c5c([H])c([H])c(Oc6c([H])c([H])c(F)c([H])c6F)c([H])c5[H])c(C(=O)N([H])[H])c4N([H])[H])C3([H])[H])c([H])c([H])c2C1([H])[H]

>  <smiles>  (73) 
[H]c1c([H])c([H])c2c(c1[H])C([H])([H])C([H])([H])C([H])([H])C2([H])N([H])C(=O)C1([H])N(C(=O)C([H])(N([H])C(=O)C([H])(N([H])C([H])([H])[H])C([H])([H])[H])C(C([H])([H])[H])(C([H])([H])[H])C([H])([H])[H])C([H])([H])c2c([H])c(OC([H])([H])C([H])([H])C([H])([H])C([H])([H])C([H])([H])[N+]3([H])C([H])([H])C([H])([H])C([H])([H])C3([H])C([H])([H])C([H])([H])N([H])C(=O)N3C([H])([H])C([H])([H])C([H])([H])C([H])(n4nc(-c5c([H])c([H])c(Oc6c([H])c([H])c(F)c([H])c6F)c([H])c5[H])c(C(=O)N([H])[H])c4N([H])[H])C3([H])[H])c([H])c([H])c2C1([H])[H]

$$$$
73:0:0
     RDKit          3D

 96104  0  0  1  0  0  0  0  0999 V2000
  -28.5270  -22.6620   21.1930 C   0  0  0  0  0  2  0  0  0  0  0  0
  -28.2070  -20.1440   20.6400 C   0  0  0  0  0  3  0  0  0  0  0  0
  -28.6850  -18.8200   20.4190 C   0  0  0  0  0  3  0  0  0  0  0  0
  -30.4680  -20.9510   20.8580 C   0  0  0  0  0  3  0  0  0  0  0  0
  -29.0850  -21.2430   20.8500 C   0  0  0  0  0  0  0  0  0  0  0  0
  -30.0710  -18.5350   20.4020 C   0  0  0  0  0  0  0  0  0  0  0  0
  -30.9490  -19.6340   20.6320 C   0  0  0  0  0  0  0  0  0  0  0  0
  -32.2900  -19.4410   20.6090 F   0  0  0  0  0  0  0  0  0  0  0  0
  -30.6210  -17.1270   18.4090 C   0  0  0  0  0  1  0  0  0  0  0  0
  -30.6610  -17.1570   19.9500 C   0  0  0  0  0  3  0  0  0  0  0  0
  -30.8420  -14.6740   20.3190 C   0  0  0  0  0  0  0  0  0  0  0  0
  -30.5110  -12.4920   19.2150 C   0  0  0  0  0  2  0  0  0  0  0  0
  -29.5780  -12.6920   18.0030 C   0  0  0  0  0  2  0  0  0  0  0  0
  -28.1070  -12.5410   18.4340 C   0  0  0  0  0  2  0  0  0  0  0  0
  -27.7650  -13.3740   19.7000 C   0  0  0  0  0  3  0  0  0  0  0  0
  -28.8280  -13.2070   20.8090 C   0  0  0  0  0  2  0  0  0  0  0  0
  -30.1380  -13.5070   20.2210 N   0  0  0  0  0  0  0  0  0  0  0  0
  -32.0290  -14.7200   19.9970 O   0  0  0  0  0  0  0  0  0  0  0  0
  -30.1430  -15.8430   20.4710 N   0  0  0  0  0  0  0  0  0  0  0  0
  -29.1670  -15.7810   20.7090 H   0  0  0  0  0  0  0  0  0  0  0  0
  -25.3660  -13.9520   20.4110 C   0  0  0  0  0  0  0  0  0  0  0  0
  -24.3050  -13.1710   20.7850 C   0  0  0  0  0  0  0  0  0  0  0  0
  -24.7810  -11.8250   20.7680 C   0  0  0  0  0  0  0  0  0  0  0  0
  -26.4190  -13.0810   20.1870 N   0  0  0  0  0  0  0  0  0  0  0  0
  -26.0730  -11.7960   20.4630 N   0  0  0  0  0  0  0  0  0  0  0  0
  -24.0650  -10.5570   20.9640 C   0  0  0  0  0  0  0  0  0  0  0  0
  -24.4920   -9.6080   21.9190 C   0  0  0  0  0  3  0  0  0  0  0  0
  -23.7760   -8.4050   22.1040 C   0  0  0  0  0  3  0  0  0  0  0  0
  -22.6170   -8.1440   21.3340 C   0  0  0  0  0  0  0  0  0  0  0  0
  -22.2090   -9.0820   20.3700 C   0  0  0  0  0  3  0  0  0  0  0  0
  -22.9260  -10.2750   20.1820 C   0  0  0  0  0  3  0  0  0  0  0  0
  -21.8730   -6.9920   21.4270 O   0  0  0  0  0  0  0  0  0  0  0  0
  -21.8030   -6.2730   22.5930 C   0  0  0  0  0  0  0  0  0  0  0  0
  -21.3230   -6.8420   23.7920 C   0  0  0  0  0  3  0  0  0  0  0  0
  -21.2020   -6.0480   24.9510 C   0  0  0  0  0  3  0  0  0  0  0  0
  -21.5500   -4.6850   24.9090 C   0  0  0  0  0  0  0  0  0  0  0  0
  -22.0230   -4.1150   23.7150 C   0  0  0  0  0  3  0  0  0  0  0  0
  -22.1460   -4.9060   22.5590 C   0  0  0  0  0  0  0  0  0  0  0  0
  -22.5820   -4.3460   21.4050 F   0  0  0  0  0  0  0  0  0  0  0  0
  -21.4260   -3.9190   26.0180 F   0  0  0  0  0  0  0  0  0  0  0  0
  -22.9020  -13.6380   21.0450 C   0  0  0  0  0  0  0  0  0  0  0  0
  -22.1760  -12.9430   21.9140 N   0  0  0  0  0  0  0  0  0  0  0  0
  -22.4570  -14.6540   20.5120 O   0  0  0  0  0  0  0  0  0  0  0  0
  -22.5490  -12.1220   22.3680 H   0  0  0  0  0  0  0  0  0  0  0  0
  -21.2350  -13.2380   22.1300 H   0  0  0  0  0  0  0  0  0  0  0  0
  -25.5170  -15.3230   20.2200 N   0  0  0  0  0  0  0  0  0  0  0  0
  -24.7390  -15.9660   20.3120 H   0  0  0  0  0  0  0  0  0  0  0  0
  -26.3530  -15.7610   19.8600 H   0  0  0  0  0  0  0  0  0  0  0  0
  -28.9700  -23.9720   20.4090 C   0  0  0  0  0  3  0  0  0  0  0  0
  -29.1130  -23.7630   18.8830 C   0  0  0  0  0  2  0  0  0  0  0  0
  -27.8920  -23.2690   18.2160 N   0  0  0  0  0  4  0  0  0  0  0  0
  -27.6060  -22.3820   18.5900 H   0  0  0  0  0  0  0  0  0  0  0  0
  -28.0840  -23.1380   17.2380 H   0  0  0  0  0  0  0  0  0  0  0  0
  -27.1350  -23.9230   18.2910 H   0  0  0  0  0  0  0  0  0  0  0  0
  -28.0830  -25.2300   20.7920 C   0  0  0  0  0  2  0  0  0  0  0  0
  -28.3550  -26.5620   20.2240 O   0  0  0  0  0  0  0  0  0  0  0  0
  -24.6180  -31.9060   23.2570 C   0  0  0  0  0  0  0  0  0  0  0  0
  -27.2490  -27.4130   20.1750 C   0  0  0  0  0  0  0  0  0  0  0  0
  -23.4210  -30.5180   21.6010 C   0  0  0  0  0  3  0  0  0  0  0  0
  -24.8800  -28.9930   20.1640 C   0  0  0  0  0  0  0  0  0  0  0  0
  -25.9570  -30.8580   21.4250 C   0  0  0  0  0  2  0  0  0  0  0  0
  -26.0430  -29.4870   20.7690 C   0  0  0  0  0  0  0  0  0  0  0  0
  -27.2350  -28.7090   20.7670 C   0  0  0  0  0  3  0  0  0  0  0  0
  -26.0730  -26.9730   19.5290 C   0  0  0  0  0  3  0  0  0  0  0  0
  -24.8950  -27.7390   19.5330 C   0  0  0  0  0  3  0  0  0  0  0  0
  -23.6380  -29.8560   20.2160 C   0  0  0  0  0  2  0  0  0  0  0  0
  -24.6830  -31.1100   22.1510 N   0  0  0  0  0  0  0  0  0  0  0  0
  -23.5340  -32.1750   23.7930 O   0  0  0  0  0  0  0  0  0  0  0  0
  -22.7610  -29.4900   22.5500 C   0  0  0  0  0  0  0  0  0  0  0  0
  -21.4390  -29.2990   22.4090 N   0  0  0  0  0  0  0  0  0  0  0  0
  -23.4390  -28.8660   23.3720 O   0  0  0  0  0  0  0  0  0  0  0  0
  -20.9520  -29.8550   21.7190 H   0  0  0  0  0  0  0  0  0  0  0  0
  -18.0680  -28.0700   22.8620 C   0  0  0  0  0  0  0  0  0  0  0  0
  -20.6200  -28.3530   23.1680 C   0  0  0  0  0  3  0  0  0  0  0  0
  -20.7430  -26.9230   22.5920 C   0  0  0  0  0  2  0  0  0  0  0  0
  -19.6590  -26.5900   21.5630 C   0  0  0  0  0  2  0  0  0  0  0  0
  -18.2670  -26.7220   22.1880 C   0  0  0  0  0  2  0  0  0  0  0  0
  -19.1740  -28.8420   23.3070 C   0  0  0  0  0  0  0  0  0  0  0  0
  -18.9350  -30.1030   23.8960 C   0  0  0  0  0  3  0  0  0  0  0  0
  -17.6230  -30.5920   24.0430 C   0  0  0  0  0  3  0  0  0  0  0  0
  -16.5320  -29.8160   23.6150 C   0  0  0  0  0  3  0  0  0  0  0  0
  -16.7550  -28.5570   23.0290 C   0  0  0  0  0  3  0  0  0  0  0  0
  -25.9010  -32.5340   23.8860 C   0  0  0  0  0  3  0  0  0  0  0  0
  -25.5940  -33.9330   24.2120 N   0  0  0  0  0  0  0  0  0  0  0  0
  -25.9390  -34.9840   23.4550 C   0  0  0  0  0  0  0  0  0  0  0  0
  -26.6210  -34.8760   22.4320 O   0  0  0  0  0  0  0  0  0  0  0  0
  -24.9920  -34.0910   25.0070 H   0  0  0  0  0  0  0  0  0  0  0  0
  -24.2320  -36.7900   23.0680 C   0  0  0  0  0  1  0  0  0  0  0  0
  -25.4530  -36.3750   23.9050 C   0  0  0  0  0  3  0  0  0  0  0  0
  -27.5750  -37.2420   24.7850 C   0  0  0  0  0  1  0  0  0  0  0  0
  -26.4950  -37.4210   23.8170 N   0  0  0  0  0  0  0  0  0  0  0  0
  -26.0920  -38.3420   23.9590 H   0  0  0  0  0  0  0  0  0  0  0  0
  -26.4050  -31.7630   25.1680 C   0  0  1  0  0  0  0  0  0  0  0  0
  -25.3030  -31.5300   26.2280 C   0  0  0  0  0  1  0  0  0  0  0  0
  -26.9860  -30.3820   24.7830 C   0  0  0  0  0  1  0  0  0  0  0  0
  -27.5520  -32.5540   25.8370 C   0  0  0  0  0  1  0  0  0  0  0  0
  2  5  1  0
  3  2  2  0
  5  4  2  0
  5  1  1  0
  6  3  1  0
  6  7  2  0
  7  4  1  0
  8  7  1  0
 10  9  1  0
 10  6  1  0
 10 19  1  0
 11 19  1  0
 12 17  1  0
 13 14  1  0
 13 12  1  0
 15 14  1  0
 15 24  1  0
 15 16  1  0
 17 11  1  0
 17 16  1  0
 18 11  2  0
 19 20  1  0
 21 22  2  0
 22 41  1  0
 23 22  1  0
 23 26  1  0
 24 21  1  0
 24 25  1  0
 25 23  2  0
 26 27  1  0
 27 28  2  0
 29 32  1  0
 29 28  1  0
 30 29  2  0
 31 30  1  0
 31 26  2  0
 32 33  1  0
 33 34  1  0
 34 35  2  0
 36 35  1  0
 36 40  1  0
 37 36  2  0
 38 33  2  0
 38 37  1  0
 39 38  1  0
 41 42  1  0
 42 45  1  0
 42 44  1  0
 43 41  2  0
 46 47  1  0
 46 21  1  0
 48 46  1  0
 49 50  1  0
 49 55  1  0
 49  1  1  0
 51 54  1  0
 51 52  1  0
 51 50  1  0
 53 51  1  0
 56 55  1  0
 57 68  2  0
 58 56  1  0
 58 63  1  0
 59 67  1  0
 59 69  1  0
 60 66  1  0
 60 62  1  0
 61 67  1  0
 62 61  1  0
 63 62  2  0
 64 65  1  0
 64 58  2  0
 65 60  2  0
 66 59  1  0
 67 57  1  0
 69 71  2  0
 70 69  1  0
 72 70  1  0
 73 82  2  0
 73 78  1  0
 74 70  1  0
 74 78  1  0
 75 74  1  0
 76 77  1  0
 76 75  1  0
 77 73  1  0
 78 79  2  0
 79 80  1  0
 81 80  2  0
 82 81  1  0
 83 57  1  0
 83 84  1  0
 83 93  1  0
 84 87  1  0
 85 89  1  0
 85 84  1  0
 86 85  2  0
 89 88  1  0
 91 89  1  0
 91 92  1  0
 91 90  1  0
 93 96  1  1
 93 94  1  0
 95 93  1  0
M  ISO  4  11 100  19 100  55 101  56 101
M  END
>  <TORSDO>  (74) 
F 22

>  <SCORE>  (74) 
-13.463

>  <name>  (74) 
73

>  <ligand_id>  (74) 
73

>  <original_smiles>  (74) 
[H]c1c([H])c([H])c2c(c1[H])C([H])([H])C([H])([H])C([H])([H])C2([H])N([H])C(=O)C1([H])N(C(=O)C([H])(N([H])C(=O)C([H])(N([H])C([H])([H])[H])C([H])([H])[H])C(C([H])([H])[H])(C([H])([H])[H])C([H])([H])[H])C([H])([H])c2c([H])c(OC([H])([H])C([H])(C([H])([H])c3c([H])c([H])c(C([H])(N([H])C(=O)N4C([H])([H])C([H])([H])C([H])([H])C([H])(n5nc(-c6c([H])c([H])c(Oc7c([H])c([H])c(F)c([H])c7F)c([H])c6[H])c(C(=O)N([H])[H])c5N([H])[H])C4([H])[H])C([H])([H])[H])c(F)c3[H])C([H])([H])[N+]([H])([H])[H])c([H])c([H])c2C1([H])[H]

>  <smiles>  (74) 
[H]c1c([H])c([H])c2c(c1[H])C([H])([H])C([H])([H])C([H])([H])C2([H])N([H])C(=O)C1([H])N(C(=O)C([H])(N([H])C(=O)C([H])(N([H])C([H])([H])[H])C([H])([H])[H])C(C([H])([H])[H])(C([H])([H])[H])C([H])([H])[H])C([H])([H])c2c([H])c(OC([H])([H])C([H])(C([H])([H])c3c([H])c([H])c(C([H])(N([H])C(=O)N4C([H])([H])C([H])([H])C([H])([H])C([H])(n5nc(-c6c([H])c([H])c(Oc7c([H])c([H])c(F)c([H])c7F)c([H])c6[H])c(C(=O)N([H])[H])c5N([H])[H])C4([H])[H])C([H])([H])[H])c(F)c3[H])C([H])([H])[N+]([H])([H])[H])c([H])c([H])c2C1([H])[H]

$$$$
74:0:0
     RDKit          3D

102111  0  0  1  0  0  0  0  0999 V2000
  -27.7540  -20.4890   18.7080 C   0  0  0  0  0  2  0  0  0  0  0  0
  -26.9800  -20.9770   19.8740 N   0  0  0  0  0  4  0  0  0  0  0  0
  -26.0250  -20.6950   19.7430 H   0  0  0  0  0  0  0  0  0  0  0  0
  -27.3270  -20.5330   20.7100 H   0  0  0  0  0  0  0  0  0  0  0  0
  -26.9550  -22.4390   20.1220 C   0  0  0  0  0  2  0  0  0  0  0  0
  -28.3440  -23.0440   20.4110 C   0  0  0  0  0  2  0  0  0  0  0  0
  -29.1350  -22.2010   21.3090 N   0  0  0  0  0  0  0  0  0  0  0  0
  -28.8440  -22.3370   22.2760 H   0  0  0  0  0  0  0  0  0  0  0  0
  -30.5610  -22.5010   21.1720 C   0  0  0  0  0  2  0  0  0  0  0  0
  -30.9340  -23.9750   21.4490 C   0  0  0  0  0  2  0  0  0  0  0  0
  -31.4030  -24.7020   20.1760 C   0  0  0  0  0  2  0  0  0  0  0  0
  -31.1930  -26.0950   20.3300 O   0  0  0  0  0  0  0  0  0  0  0  0
  -26.4680  -29.9970   23.8800 C   0  0  0  0  0  0  0  0  0  0  0  0
  -29.9200  -26.6130   20.3130 C   0  0  0  0  0  0  0  0  0  0  0  0
  -25.6330  -28.9780   21.7820 C   0  0  0  0  0  3  0  0  0  0  0  0
  -27.4050  -27.9020   20.2990 C   0  0  0  0  0  0  0  0  0  0  0  0
  -28.1170  -29.5090   22.0820 C   0  0  0  0  0  2  0  0  0  0  0  0
  -28.4180  -28.3490   21.1600 C   0  0  0  0  0  0  0  0  0  0  0  0
  -29.6720  -27.7110   21.1600 C   0  0  0  0  0  3  0  0  0  0  0  0
  -28.8790  -26.1450   19.4730 C   0  0  0  0  0  3  0  0  0  0  0  0
  -27.6270  -26.7890   19.4670 C   0  0  0  0  0  3  0  0  0  0  0  0
  -26.0980  -28.6610   20.3370 C   0  0  0  0  0  2  0  0  0  0  0  0
  -26.7460  -29.4950   22.6420 N   0  0  0  0  0  0  0  0  0  0  0  0
  -25.3020  -30.0830   24.2910 O   0  0  0  0  0  0  0  0  0  0  0  0
  -24.9420  -27.7240   22.3580 C   0  0  0  0  0  0  0  0  0  0  0  0
  -23.7560  -27.3990   21.8130 N   0  0  0  0  0  0  0  0  0  0  0  0
  -25.4720  -27.0540   23.2500 O   0  0  0  0  0  0  0  0  0  0  0  0
  -23.3970  -27.9900   21.0750 H   0  0  0  0  0  0  0  0  0  0  0  0
  -20.7070  -25.6280   21.0120 C   0  0  0  0  0  0  0  0  0  0  0  0
  -22.9410  -26.2370   22.1560 C   0  0  0  0  0  3  0  0  0  0  0  0
  -23.5230  -24.9600   21.5040 C   0  0  0  0  0  2  0  0  0  0  0  0
  -22.8620  -24.5980   20.1750 C   0  0  0  0  0  2  0  0  0  0  0  0
  -21.3510  -24.4230   20.3470 C   0  0  0  0  0  2  0  0  0  0  0  0
  -21.4550  -26.4850   21.8590 C   0  0  0  0  0  0  0  0  0  0  0  0
  -20.8170  -27.6040   22.4420 C   0  0  0  0  0  3  0  0  0  0  0  0
  -19.4530  -27.8580   22.2010 C   0  0  0  0  0  3  0  0  0  0  0  0
  -18.7150  -27.0000   21.3690 C   0  0  0  0  0  3  0  0  0  0  0  0
  -19.3410  -25.8890   20.7720 C   0  0  0  0  0  3  0  0  0  0  0  0
  -27.5980  -30.5100   24.8260 C   0  0  0  0  0  3  0  0  0  0  0  0
  -27.8310  -29.5830   26.0800 C   0  0  1  0  0  0  0  0  0  0  0  0
  -26.5280  -29.2410   26.8400 C   0  0  0  0  0  1  0  0  0  0  0  0
  -28.4980  -28.2490   25.6640 C   0  0  0  0  0  1  0  0  0  0  0  0
  -28.7970  -30.2750   27.0720 C   0  0  0  0  0  1  0  0  0  0  0  0
  -27.2350  -31.8660   25.2420 N   0  0  0  0  0  0  0  0  0  0  0  0
  -27.7340  -32.9900   24.7060 C   0  0  0  0  0  0  0  0  0  0  0  0
  -28.6180  -32.9890   23.8460 O   0  0  0  0  0  0  0  0  0  0  0  0
  -26.4880  -31.9490   25.9140 H   0  0  0  0  0  0  0  0  0  0  0  0
  -26.1500  -34.8670   24.1780 C   0  0  0  0  0  1  0  0  0  0  0  0
  -27.1570  -34.3270   25.2050 C   0  0  0  0  0  3  0  0  0  0  0  0
  -29.0280  -35.0340   26.6270 C   0  0  0  0  0  1  0  0  0  0  0  0
  -28.1910  -35.3490   25.4730 N   0  0  0  0  0  0  0  0  0  0  0  0
  -27.7670  -36.2560   25.6350 H   0  0  0  0  0  0  0  0  0  0  0  0
  -28.2640  -19.0330   18.9240 C   0  0  0  0  0  2  0  0  0  0  0  0
  -30.1340  -18.6740   17.4740 C   0  0  0  0  0  1  0  0  0  0  0  0
  -29.7300  -18.9690   18.8510 N   0  0  0  0  0  0  0  0  0  0  0  0
  -31.2640  -15.0490   21.5840 C   0  0  0  0  0  0  0  0  0  0  0  0
  -31.2560  -12.6550   20.9940 C   0  0  0  0  0  2  0  0  0  0  0  0
  -30.6590  -12.4420   19.5970 C   0  0  0  0  0  2  0  0  0  0  0  0
  -29.1170  -12.3910   19.6340 C   0  0  0  0  0  2  0  0  0  0  0  0
  -28.4620  -13.4900   20.5120 C   0  0  0  0  0  3  0  0  0  0  0  0
  -29.1960  -13.6380   21.8570 C   0  0  0  0  0  2  0  0  0  0  0  0
  -30.6200  -13.8510   21.5640 N   0  0  0  0  0  0  0  0  0  0  0  0
  -32.4920  -15.1330   21.6860 O   0  0  0  0  0  0  0  0  0  0  0  0
  -30.2480  -18.5920   21.2870 C   0  0  0  0  0  2  0  0  0  0  0  0
  -30.5440  -17.3450   22.1400 C   0  0  0  0  0  2  0  0  0  0  0  0
  -30.2280  -16.6160   19.8790 C   0  0  0  0  0  3  0  0  0  0  0  0
  -30.4520  -18.1470   19.8490 C   0  0  0  0  0  3  0  0  0  0  0  0
  -30.5210  -16.1520   21.2680 N   0  0  0  0  0  0  0  0  0  0  0  0
  -32.2520  -14.5380   16.6060 C   0  0  0  0  0  3  0  0  0  0  0  0
  -30.9400  -14.1810   16.9770 C   0  0  0  0  0  3  0  0  0  0  0  0
  -32.9010  -15.6000   17.2660 C   0  0  0  0  0  3  0  0  0  0  0  0
  -30.2950  -14.8650   18.0250 C   0  0  0  0  0  3  0  0  0  0  0  0
  -32.2530  -16.2850   18.3110 C   0  0  0  0  0  3  0  0  0  0  0  0
  -30.9510  -15.9060   18.7220 C   0  0  0  0  0  0  0  0  0  0  0  0
  -25.9900  -14.1970   20.6230 C   0  0  0  0  0  0  0  0  0  0  0  0
  -24.8380  -13.4710   20.7790 C   0  0  0  0  0  0  0  0  0  0  0  0
  -25.2490  -12.1110   20.9310 C   0  0  0  0  0  0  0  0  0  0  0  0
  -27.0270  -13.2790   20.6870 N   0  0  0  0  0  0  0  0  0  0  0  0
  -26.5730  -12.0260   20.9320 N   0  0  0  0  0  0  0  0  0  0  0  0
  -24.4620  -10.8740   21.0110 C   0  0  0  0  0  0  0  0  0  0  0  0
  -24.6990   -9.9060   22.0110 C   0  0  0  0  0  3  0  0  0  0  0  0
  -23.9160   -8.7340   22.0750 C   0  0  0  0  0  3  0  0  0  0  0  0
  -22.8820   -8.5180   21.1370 C   0  0  0  0  0  0  0  0  0  0  0  0
  -22.6630   -9.4740   20.1320 C   0  0  0  0  0  3  0  0  0  0  0  0
  -23.4470  -10.6390   20.0640 C   0  0  0  0  0  3  0  0  0  0  0  0
  -22.0850   -7.3990   21.1110 O   0  0  0  0  0  0  0  0  0  0  0  0
  -21.7410   -6.7360   22.2620 C   0  0  0  0  0  0  0  0  0  0  0  0
  -21.0770   -7.3840   23.3270 C   0  0  0  0  0  3  0  0  0  0  0  0
  -20.6860   -6.6480   24.4640 C   0  0  0  0  0  3  0  0  0  0  0  0
  -20.9420   -5.2640   24.5280 C   0  0  0  0  0  0  0  0  0  0  0  0
  -21.5980   -4.6180   23.4650 C   0  0  0  0  0  3  0  0  0  0  0  0
  -21.9940   -5.3530   22.3340 C   0  0  0  0  0  0  0  0  0  0  0  0
  -22.6080   -4.7240   21.3030 F   0  0  0  0  0  0  0  0  0  0  0  0
  -20.5620   -4.5520   25.6130 F   0  0  0  0  0  0  0  0  0  0  0  0
  -23.4330  -13.9920   20.6910 C   0  0  0  0  0  0  0  0  0  0  0  0
  -22.5070  -13.3980   21.4380 N   0  0  0  0  0  0  0  0  0  0  0  0
  -23.1560  -14.9680   19.9980 O   0  0  0  0  0  0  0  0  0  0  0  0
  -22.7390  -12.6220   22.0420 H   0  0  0  0  0  0  0  0  0  0  0  0
  -21.5590  -13.7480   21.4210 H   0  0  0  0  0  0  0  0  0  0  0  0
  -26.2380  -15.5490   20.4100 N   0  0  0  0  0  0  0  0  0  0  0  0
  -25.4870  -16.2210   20.2920 H   0  0  0  0  0  0  0  0  0  0  0  0
  -27.1550  -15.9380   20.2380 H   0  0  0  0  0  0  0  0  0  0  0  0
  1 53  1  0
  1  2  1  0
  2  5  1  0
  2  4  1  0
  3  2  1  0
  5  6  1  0
  6  7  1  0
  7  8  1  0
  9  7  1  0
  9 10  1  0
 11 12  1  0
 11 10  1  0
 13 24  2  0
 14 12  1  0
 14 19  1  0
 15 25  1  0
 15 23  1  0
 16 22  1  0
 16 18  1  0
 17 23  1  0
 18 19  2  0
 18 17  1  0
 20 14  2  0
 21 20  1  0
 21 16  2  0
 22 15  1  0
 23 13  1  0
 25 27  2  0
 26 25  1  0
 28 26  1  0
 29 34  1  0
 30 26  1  0
 31 30  1  0
 32 33  1  0
 32 31  1  0
 33 29  1  0
 34 30  1  0
 34 35  2  0
 36 35  1  0
 37 36  2  0
 38 29  2  0
 38 37  1  0
 39 13  1  0
 39 44  1  0
 39 40  1  0
 40 41  1  1
 40 43  1  0
 42 40  1  0
 44 47  1  0
 45 49  1  0
 45 44  1  0
 46 45  2  0
 49 48  1  0
 49 51  1  0
 51 52  1  0
 51 50  1  0
 54 55  1  0
 55 53  1  0
 56 63  2  0
 57 62  1  0
 58 59  1  0
 58 57  1  0
 60 59  1  0
 60 78  1  0
 60 61  1  0
 62 56  1  0
 62 61  1  0
 64 65  1  0
 66 74  1  0
 66 68  1  0
 67 55  1  0
 67 66  1  0
 67 64  1  0
 68 56  1  0
 68 65  1  0
 69 70  2  0
 69 71  1  0
 70 72  1  0
 71 73  2  0
 72 74  2  0
 73 74  1  0
 75 78  1  0
 75 76  2  0
 76 77  1  0
 77 79  2  0
 77 80  1  0
 78 79  1  0
 80 81  1  0
 81 82  2  0
 83 82  1  0
 84 83  2  0
 85 84  1  0
 85 80  2  0
 86 83  1  0
 86 87  1  0
 87 92  2  0
 87 88  1  0
 88 89  2  0
 89 90  1  0
 90 94  1  0
 91 90  2  0
 92 91  1  0
 93 92  1  0
 95 76  1  0
 95 96  1  0
 96 98  1  0
 97 95  2  0
 99 96  1  0
100 75  1  0
101100  1  0
102100  1  0
M  ISO  4  11 101  12 101  56 100  68 100
M  END
>  <TORSDO>  (75) 
F 26

>  <SCORE>  (75) 
-6.117

>  <name>  (75) 
74

>  <ligand_id>  (75) 
74

>  <original_smiles>  (75) 
[H]c1c([H])c([H])c(C2([H])N(C(=O)N3C([H])([H])C([H])([H])C([H])([H])C([H])(n4nc(-c5c([H])c([H])c(Oc6c([H])c([H])c(F)c([H])c6F)c([H])c5[H])c(C(=O)N([H])[H])c4N([H])[H])C3([H])[H])C([H])([H])C([H])([H])C2([H])N(C([H])([H])[H])C([H])([H])C([H])([H])[N+]([H])([H])C([H])([H])C([H])([H])N([H])C([H])([H])C([H])([H])C([H])([H])Oc2c([H])c([H])c3c(c2[H])C([H])([H])N(C(=O)C([H])(N([H])C(=O)C([H])(N([H])C([H])([H])[H])C([H])([H])[H])C(C([H])([H])[H])(C([H])([H])[H])C([H])([H])[H])C([H])(C(=O)N([H])C2([H])c4c([H])c([H])c([H])c([H])c4C([H])([H])C([H])([H])C2([H])[H])C3([H])[H])c([H])c1[H]

>  <smiles>  (75) 
[H]c1c([H])c([H])c(C2([H])N(C(=O)N3C([H])([H])C([H])([H])C([H])([H])C([H])(n4nc(-c5c([H])c([H])c(Oc6c([H])c([H])c(F)c([H])c6F)c([H])c5[H])c(C(=O)N([H])[H])c4N([H])[H])C3([H])[H])C([H])([H])C([H])([H])C2([H])N(C([H])([H])[H])C([H])([H])C([H])([H])[N+]([H])([H])C([H])([H])C([H])([H])N([H])C([H])([H])C([H])([H])C([H])([H])Oc2c([H])c([H])c3c(c2[H])C([H])([H])N(C(=O)C([H])(N([H])C(=O)C([H])(N([H])C([H])([H])[H])C([H])([H])[H])C(C([H])([H])[H])(C([H])([H])[H])C([H])([H])[H])C([H])(C(=O)N([H])C2([H])c4c([H])c([H])c([H])c([H])c4C([H])([H])C([H])([H])C2([H])[H])C3([H])[H])c([H])c1[H]

$$$$
75:0:0
     RDKit          3D

 97105  0  0  1  0  0  0  0  0999 V2000
  -29.1620  -20.6540   17.4950 C   0  0  0  0  0  2  0  0  0  0  0  0
  -29.2210  -20.1020   18.9390 C   0  0  0  0  0  2  0  0  0  0  0  0
  -32.3120  -19.2580   21.5370 C   0  0  0  0  0  2  0  0  0  0  0  0
  -31.3530  -18.1990   22.0940 C   0  0  0  0  0  2  0  0  0  0  0  0
  -32.6790  -19.0340   20.0650 C   0  0  0  0  0  2  0  0  0  0  0  0
  -29.9440  -18.2570   21.4890 C   0  0  0  0  0  2  0  0  0  0  0  0
  -31.6410  -19.5310   19.0320 C   0  0  0  0  0  2  0  0  0  0  0  0
  -29.8330  -17.9080   19.9860 C   0  0  0  0  0  3  0  0  0  0  0  0
  -30.2300  -19.0120   19.0560 N   0  0  1  0  0  4  0  0  0  0  0  0
  -30.1510  -18.5480   18.1640 H   0  0  0  0  0  0  0  0  0  0  0  0
  -30.4430  -16.5680   19.5310 C   0  0  0  0  0  2  0  0  0  0  0  0
  -30.7810  -14.2600   20.1600 C   0  0  0  0  0  0  0  0  0  0  0  0
  -30.3190  -12.1580   19.0180 C   0  0  0  0  0  2  0  0  0  0  0  0
  -29.3620  -12.4830   17.8540 C   0  0  0  0  0  2  0  0  0  0  0  0
  -27.8950  -12.4120   18.3250 C   0  0  0  0  0  2  0  0  0  0  0  0
  -27.6400  -13.1900   19.6450 C   0  0  0  0  0  3  0  0  0  0  0  0
  -28.7300  -12.9000   20.7030 C   0  0  0  0  0  2  0  0  0  0  0  0
  -30.0440  -13.1280   20.0860 N   0  0  0  0  0  0  0  0  0  0  0  0
  -31.9440  -14.3340   19.7580 O   0  0  0  0  0  0  0  0  0  0  0  0
  -30.0690  -15.3850   20.3150 N   0  0  0  0  0  0  0  0  0  0  0  0
  -29.1170  -15.2950   20.6330 H   0  0  0  0  0  0  0  0  0  0  0  0
  -25.2740  -13.8260   20.4170 C   0  0  0  0  0  0  0  0  0  0  0  0
  -24.2060  -13.0690   20.8160 C   0  0  0  0  0  0  0  0  0  0  0  0
  -24.6440  -11.7110   20.7690 C   0  0  0  0  0  0  0  0  0  0  0  0
  -26.2990  -12.9300   20.1610 N   0  0  0  0  0  0  0  0  0  0  0  0
  -25.9260  -11.6520   20.4310 N   0  0  0  0  0  0  0  0  0  0  0  0
  -23.9030  -10.4600   20.9780 C   0  0  0  0  0  0  0  0  0  0  0  0
  -24.3490   -9.4830   21.8970 C   0  0  0  0  0  3  0  0  0  0  0  0
  -23.6120   -8.2950   22.0940 C   0  0  0  0  0  3  0  0  0  0  0  0
  -22.4140   -8.0800   21.3740 C   0  0  0  0  0  0  0  0  0  0  0  0
  -21.9870   -9.0430   20.4430 C   0  0  0  0  0  3  0  0  0  0  0  0
  -22.7250  -10.2220   20.2450 C   0  0  0  0  0  3  0  0  0  0  0  0
  -21.6430   -6.9470   21.4850 O   0  0  0  0  0  0  0  0  0  0  0  0
  -21.6210   -6.2010   22.6350 C   0  0  0  0  0  0  0  0  0  0  0  0
  -21.2490   -6.7580   23.8790 C   0  0  0  0  0  3  0  0  0  0  0  0
  -21.1700   -5.9390   25.0230 C   0  0  0  0  0  3  0  0  0  0  0  0
  -21.4550   -4.5630   24.9250 C   0  0  0  0  0  0  0  0  0  0  0  0
  -21.8220   -4.0060   23.6870 C   0  0  0  0  0  3  0  0  0  0  0  0
  -21.8990   -4.8220   22.5450 C   0  0  0  0  0  0  0  0  0  0  0  0
  -22.2310   -4.2760   21.3510 F   0  0  0  0  0  0  0  0  0  0  0  0
  -21.3720   -3.7730   26.0200 F   0  0  0  0  0  0  0  0  0  0  0  0
  -22.8250  -13.5690   21.1320 C   0  0  0  0  0  0  0  0  0  0  0  0
  -22.1150  -12.8840   22.0210 N   0  0  0  0  0  0  0  0  0  0  0  0
  -22.3910  -14.6030   20.6270 O   0  0  0  0  0  0  0  0  0  0  0  0
  -22.4790  -12.0480   22.4530 H   0  0  0  0  0  0  0  0  0  0  0  0
  -21.1910  -13.1990   22.2770 H   0  0  0  0  0  0  0  0  0  0  0  0
  -25.4530  -15.1930   20.2330 N   0  0  0  0  0  0  0  0  0  0  0  0
  -24.6990  -15.8570   20.3730 H   0  0  0  0  0  0  0  0  0  0  0  0
  -26.2960  -15.6190   19.8710 H   0  0  0  0  0  0  0  0  0  0  0  0
  -28.1960  -21.8380   17.3030 C   0  0  0  0  0  2  0  0  0  0  0  0
  -28.8270  -23.1450   17.5960 N   0  0  0  0  0  4  0  0  0  0  0  0
  -29.6450  -23.2660   17.0180 H   0  0  0  0  0  0  0  0  0  0  0  0
  -29.1260  -23.1590   18.5570 H   0  0  0  0  0  0  0  0  0  0  0  0
  -27.9240  -24.2960   17.3770 C   0  0  0  0  0  2  0  0  0  0  0  0
  -28.4550  -25.5860   18.0310 C   0  0  0  0  0  2  0  0  0  0  0  0
  -28.5240  -25.4900   19.5760 C   0  0  0  0  0  2  0  0  0  0  0  0
  -28.4650  -26.7620   20.2190 O   0  0  0  0  0  0  0  0  0  0  0  0
  -24.6050  -31.9140   23.2490 C   0  0  0  0  0  0  0  0  0  0  0  0
  -27.2580  -27.4300   20.2510 C   0  0  0  0  0  0  0  0  0  0  0  0
  -23.4050  -30.4880   21.6270 C   0  0  0  0  0  3  0  0  0  0  0  0
  -24.8570  -28.9180   20.2550 C   0  0  0  0  0  0  0  0  0  0  0  0
  -25.9310  -30.8450   21.4270 C   0  0  0  0  0  2  0  0  0  0  0  0
  -26.0160  -29.4600   20.8240 C   0  0  0  0  0  0  0  0  0  0  0  0
  -27.2180  -28.7210   20.8220 C   0  0  0  0  0  3  0  0  0  0  0  0
  -26.0600  -26.8850   19.7250 C   0  0  0  0  0  3  0  0  0  0  0  0
  -24.8680  -27.6260   19.7150 C   0  0  0  0  0  3  0  0  0  0  0  0
  -23.6190  -29.7810   20.2640 C   0  0  0  0  0  2  0  0  0  0  0  0
  -24.6660  -31.0990   22.1600 N   0  0  0  0  0  0  0  0  0  0  0  0
  -23.5200  -32.1940   23.7780 O   0  0  0  0  0  0  0  0  0  0  0  0
  -22.7470  -29.4810   22.5990 C   0  0  0  0  0  0  0  0  0  0  0  0
  -21.4260  -29.2890   22.4550 N   0  0  0  0  0  0  0  0  0  0  0  0
  -23.4230  -28.8750   23.4340 O   0  0  0  0  0  0  0  0  0  0  0  0
  -20.9450  -29.8310   21.7500 H   0  0  0  0  0  0  0  0  0  0  0  0
  -18.0520  -28.0800   22.9100 C   0  0  0  0  0  0  0  0  0  0  0  0
  -20.6010  -28.3630   23.2300 C   0  0  0  0  0  3  0  0  0  0  0  0
  -20.7270  -26.9190   22.6920 C   0  0  0  0  0  2  0  0  0  0  0  0
  -19.6490  -26.5620   21.6630 C   0  0  0  0  0  2  0  0  0  0  0  0
  -18.2520  -26.7150   22.2720 C   0  0  0  0  0  2  0  0  0  0  0  0
  -19.1560  -28.8610   23.3450 C   0  0  0  0  0  0  0  0  0  0  0  0
  -18.9160  -30.1370   23.8980 C   0  0  0  0  0  3  0  0  0  0  0  0
  -17.6050  -30.6320   24.0240 C   0  0  0  0  0  3  0  0  0  0  0  0
  -16.5150  -29.8490   23.6060 C   0  0  0  0  0  3  0  0  0  0  0  0
  -16.7390  -28.5750   23.0540 C   0  0  0  0  0  3  0  0  0  0  0  0
  -25.8860  -32.5520   23.8690 C   0  0  0  0  0  3  0  0  0  0  0  0
  -25.5730  -33.9510   24.1900 N   0  0  0  0  0  0  0  0  0  0  0  0
  -25.8990  -34.9990   23.4230 C   0  0  0  0  0  0  0  0  0  0  0  0
  -26.5710  -34.8920   22.3930 O   0  0  0  0  0  0  0  0  0  0  0  0
  -24.9860  -34.1100   24.9950 H   0  0  0  0  0  0  0  0  0  0  0  0
  -24.1630  -36.7790   23.0510 C   0  0  0  0  0  1  0  0  0  0  0  0
  -25.4030  -36.3870   23.8700 C   0  0  0  0  0  3  0  0  0  0  0  0
  -27.5320  -37.2850   24.7010 C   0  0  0  0  0  1  0  0  0  0  0  0
  -26.4310  -37.4440   23.7560 N   0  0  0  0  0  0  0  0  0  0  0  0
  -26.0210  -38.3630   23.8960 H   0  0  0  0  0  0  0  0  0  0  0  0
  -26.4060  -31.7870   25.1470 C   0  0  1  0  0  0  0  0  0  0  0  0
  -25.3160  -31.5490   26.2170 C   0  0  0  0  0  1  0  0  0  0  0  0
  -26.9920  -30.4100   24.7540 C   0  0  0  0  0  1  0  0  0  0  0  0
  -27.5530  -32.5890   25.8060 C   0  0  0  0  0  1  0  0  0  0  0  0
  1  2  1  0
  2  9  1  0
  3  4  1  0
  5  3  1  0
  6  4  1  0
  7  9  1  0
  7  5  1  0
  8 11  1  0
  8  6  1  0
  9  8  1  0
  9 10  1  6
 11 20  1  0
 12 20  1  0
 13 18  1  0
 14 15  1  0
 14 13  1  0
 16 15  1  0
 16 25  1  0
 16 17  1  0
 18 12  1  0
 18 17  1  0
 19 12  2  0
 20 21  1  0
 22 23  2  0
 23 42  1  0
 24 23  1  0
 24 27  1  0
 25 22  1  0
 25 26  1  0
 26 24  2  0
 27 28  1  0
 28 29  2  0
 30 33  1  0
 30 29  1  0
 31 30  2  0
 32 31  1  0
 32 27  2  0
 33 34  1  0
 34 35  1  0
 35 36  2  0
 37 36  1  0
 37 41  1  0
 38 37  2  0
 39 34  2  0
 39 38  1  0
 40 39  1  0
 42 43  1  0
 43 46  1  0
 43 45  1  0
 44 42  2  0
 47 48  1  0
 47 22  1  0
 49 47  1  0
 50  1  1  0
 50 51  1  0
 51 53  1  0
 52 51  1  0
 54 51  1  0
 54 55  1  0
 55 56  1  0
 56 57  1  0
 57 59  1  0
 58 69  2  0
 59 64  1  0
 60 68  1  0
 60 70  1  0
 61 67  1  0
 61 63  1  0
 62 68  1  0
 63 62  1  0
 64 63  2  0
 65 59  2  0
 66 65  1  0
 66 61  2  0
 67 60  1  0
 68 58  1  0
 70 72  2  0
 71 70  1  0
 73 71  1  0
 74 83  2  0
 74 79  1  0
 75 71  1  0
 75 79  1  0
 76 75  1  0
 77 78  1  0
 77 76  1  0
 78 74  1  0
 79 80  2  0
 80 81  1  0
 82 81  2  0
 83 82  1  0
 84 58  1  0
 84 85  1  0
 84 94  1  0
 85 88  1  0
 86 90  1  0
 86 85  1  0
 87 86  2  0
 90 89  1  0
 92 90  1  0
 92 93  1  0
 92 91  1  0
 94 97  1  1
 94 95  1  0
 96 94  1  0
M  ISO  4  12 100  20 100  56 101  57 101
M  END
>  <TORSDO>  (76) 
F 24

>  <SCORE>  (76) 
-12.236

>  <name>  (76) 
75

>  <ligand_id>  (76) 
75

>  <original_smiles>  (76) 
[H]c1c([H])c([H])c2c(c1[H])C([H])([H])C([H])([H])C([H])([H])C2([H])N([H])C(=O)C1([H])N(C(=O)C([H])(N([H])C(=O)C([H])(N([H])C([H])([H])[H])C([H])([H])[H])C(C([H])([H])[H])(C([H])([H])[H])C([H])([H])[H])C([H])([H])c2c([H])c(OC([H])([H])C([H])([H])C([H])([H])[N+]([H])([H])C([H])([H])C([H])([H])C([H])([H])[N+]3([H])C([H])([H])C([H])([H])C([H])([H])C([H])([H])C([H])([H])C3([H])C([H])([H])N([H])C(=O)N3C([H])([H])C([H])([H])C([H])([H])C([H])(n4nc(-c5c([H])c([H])c(Oc6c([H])c([H])c(F)c([H])c6F)c([H])c5[H])c(C(=O)N([H])[H])c4N([H])[H])C3([H])[H])c([H])c([H])c2C1([H])[H]

>  <smiles>  (76) 
[H]c1c([H])c([H])c2c(c1[H])C([H])([H])C([H])([H])C([H])([H])C2([H])N([H])C(=O)C1([H])N(C(=O)C([H])(N([H])C(=O)C([H])(N([H])C([H])([H])[H])C([H])([H])[H])C(C([H])([H])[H])(C([H])([H])[H])C([H])([H])[H])C([H])([H])c2c([H])c(OC([H])([H])C([H])([H])C([H])([H])[N+]([H])([H])C([H])([H])C([H])([H])C([H])([H])[N+]3([H])C([H])([H])C([H])([H])C([H])([H])C([H])([H])C([H])([H])C3([H])C([H])([H])N([H])C(=O)N3C([H])([H])C([H])([H])C([H])([H])C([H])(n4nc(-c5c([H])c([H])c(Oc6c([H])c([H])c(F)c([H])c6F)c([H])c5[H])c(C(=O)N([H])[H])c4N([H])[H])C3([H])[H])c([H])c([H])c2C1([H])[H]

$$$$
76:0:0
     RDKit          3D

 96104  0  0  1  0  0  0  0  0999 V2000
  -29.5070  -20.6650   19.7890 C   0  0  0  0  0  2  0  0  0  0  0  0
  -29.8500  -20.0260   18.4210 C   0  0  0  0  0  2  0  0  0  0  0  0
  -28.5510  -17.3850   20.7350 C   0  0  0  0  0  2  0  0  0  0  0  0
  -27.7270  -18.0870   19.6460 C   0  0  0  0  0  2  0  0  0  0  0  0
  -30.0080  -17.8840   20.7240 C   0  0  0  0  0  2  0  0  0  0  0  0
  -28.4260  -18.0330   18.2670 C   0  0  0  0  0  2  0  0  0  0  0  0
  -30.6530  -17.7830   19.3200 C   0  0  0  0  0  3  0  0  0  0  0  0
  -29.8330  -18.5320   18.3170 N   0  0  2  0  0  4  0  0  0  0  0  0
  -30.2400  -18.3240   17.4170 H   0  0  0  0  0  0  0  0  0  0  0  0
  -30.9160  -16.3010   18.9230 C   0  0  0  0  0  2  0  0  0  0  0  0
  -32.3430  -14.9130   17.4200 C   0  0  0  0  0  0  0  0  0  0  0  0
  -33.3190  -13.8270   15.4320 C   0  0  0  0  0  2  0  0  0  0  0  0
  -34.7660  -13.3540   15.6530 C   0  0  0  0  0  2  0  0  0  0  0  0
  -35.7540  -14.4930   15.3500 C   0  0  0  0  0  2  0  0  0  0  0  0
  -35.3850  -15.8030   16.0920 C   0  0  0  0  0  3  0  0  0  0  0  0
  -33.8970  -16.1560   15.8730 C   0  0  0  0  0  2  0  0  0  0  0  0
  -33.0710  -15.0020   16.2800 N   0  0  0  0  0  0  0  0  0  0  0  0
  -31.9090  -13.8460   17.8670 O   0  0  0  0  0  0  0  0  0  0  0  0
  -32.0060  -16.0950   17.9600 N   0  0  0  0  0  0  0  0  0  0  0  0
  -32.3450  -16.8980   17.4510 H   0  0  0  0  0  0  0  0  0  0  0  0
  -37.4070  -17.3800   16.3240 C   0  0  0  0  0  0  0  0  0  0  0  0
  -37.8900  -18.3740   15.5150 C   0  0  0  0  0  0  0  0  0  0  0  0
  -36.9910  -18.4490   14.4070 C   0  0  0  0  0  0  0  0  0  0  0  0
  -36.2630  -16.9030   15.7010 N   0  0  0  0  0  0  0  0  0  0  0  0
  -35.9900  -17.5920   14.5650 N   0  0  0  0  0  0  0  0  0  0  0  0
  -37.0590  -19.2460   13.1750 C   0  0  0  0  0  0  0  0  0  0  0  0
  -36.3090  -20.4330   13.0240 C   0  0  0  0  0  3  0  0  0  0  0  0
  -36.4020  -21.1920   11.8370 C   0  0  0  0  0  3  0  0  0  0  0  0
  -37.2530  -20.7690   10.7890 C   0  0  0  0  0  0  0  0  0  0  0  0
  -37.9790  -19.5730   10.9350 C   0  0  0  0  0  3  0  0  0  0  0  0
  -37.8820  -18.8160   12.1150 C   0  0  0  0  0  3  0  0  0  0  0  0
  -37.3870  -21.4270    9.5910 O   0  0  0  0  0  0  0  0  0  0  0  0
  -37.7130  -22.7580    9.5350 C   0  0  0  0  0  0  0  0  0  0  0  0
  -39.0070  -23.2250    9.8560 C   0  0  0  0  0  3  0  0  0  0  0  0
  -39.3170  -24.5920    9.7180 C   0  0  0  0  0  3  0  0  0  0  0  0
  -38.3410  -25.4920    9.2520 C   0  0  0  0  0  0  0  0  0  0  0  0
  -37.0530  -25.0300    8.9250 C   0  0  0  0  0  3  0  0  0  0  0  0
  -36.7420  -23.6670    9.0660 C   0  0  0  0  0  0  0  0  0  0  0  0
  -35.5060  -23.2210    8.7300 F   0  0  0  0  0  0  0  0  0  0  0  0
  -38.6400  -26.8040    9.1110 F   0  0  0  0  0  0  0  0  0  0  0  0
  -39.1620  -19.1460   15.7080 C   0  0  0  0  0  0  0  0  0  0  0  0
  -39.0810  -20.4720   15.6970 N   0  0  0  0  0  0  0  0  0  0  0  0
  -40.2330  -18.5750   15.9180 O   0  0  0  0  0  0  0  0  0  0  0  0
  -38.2000  -20.9400   15.5480 H   0  0  0  0  0  0  0  0  0  0  0  0
  -39.9140  -21.0260   15.8400 H   0  0  0  0  0  0  0  0  0  0  0  0
  -37.8500  -16.8300   17.5230 N   0  0  0  0  0  0  0  0  0  0  0  0
  -38.7240  -17.1080   17.9540 H   0  0  0  0  0  0  0  0  0  0  0  0
  -37.4260  -16.0270   17.9710 H   0  0  0  0  0  0  0  0  0  0  0  0
  -30.6160  -21.6700   20.1840 C   0  0  0  0  0  2  0  0  0  0  0  0
  -30.1520  -22.8570   20.9470 N   0  0  0  0  0  4  0  0  0  0  0  0
  -30.2080  -22.6710   21.9350 H   0  0  0  0  0  0  0  0  0  0  0  0
  -29.1870  -23.0390   20.7210 H   0  0  0  0  0  0  0  0  0  0  0  0
  -30.9450  -24.0630   20.6070 C   0  0  0  0  0  2  0  0  0  0  0  0
  -30.4120  -25.3960   21.1810 C   0  0  0  0  0  2  0  0  0  0  0  0
  -30.4370  -26.4860   20.0890 C   0  0  0  0  0  2  0  0  0  0  0  0
  -30.9970  -27.7310   20.5110 O   0  0  0  0  0  0  0  0  0  0  0  0
  -34.2370  -32.9620   16.9410 C   0  0  0  0  0  0  0  0  0  0  0  0
  -32.0850  -28.1170   19.7690 C   0  0  0  0  0  0  0  0  0  0  0  0
  -35.1480  -30.6880   16.5970 C   0  0  0  0  0  3  0  0  0  0  0  0
  -34.2960  -28.9010   18.2010 C   0  0  0  0  0  0  0  0  0  0  0  0
  -33.9850  -31.3110   18.7890 C   0  0  0  0  0  2  0  0  0  0  0  0
  -33.5630  -29.8630   18.9080 C   0  0  0  0  0  0  0  0  0  0  0  0
  -32.4580  -29.4760   19.7000 C   0  0  0  0  0  3  0  0  0  0  0  0
  -32.8280  -27.1590   19.0500 C   0  0  0  0  0  3  0  0  0  0  0  0
  -33.9300  -27.5450   18.2640 C   0  0  0  0  0  3  0  0  0  0  0  0
  -35.4700  -29.3920   17.3860 C   0  0  0  0  0  2  0  0  0  0  0  0
  -34.4180  -31.7020   17.4260 N   0  0  0  0  0  0  0  0  0  0  0  0
  -34.7010  -33.2970   15.8440 O   0  0  0  0  0  0  0  0  0  0  0  0
  -34.3980  -30.3020   15.3020 C   0  0  0  0  0  0  0  0  0  0  0  0
  -35.1550  -30.1110   14.2090 N   0  0  0  0  0  0  0  0  0  0  0  0
  -33.1740  -30.1520   15.3020 O   0  0  0  0  0  0  0  0  0  0  0  0
  -36.1490  -30.2650   14.2900 H   0  0  0  0  0  0  0  0  0  0  0  0
  -36.1410  -29.6750   10.7610 C   0  0  0  0  0  0  0  0  0  0  0  0
  -34.6730  -29.7070   12.8890 C   0  0  0  0  0  3  0  0  0  0  0  0
  -34.6300  -28.1670   12.7620 C   0  0  0  0  0  2  0  0  0  0  0  0
  -35.9090  -27.5770   12.1580 C   0  0  0  0  0  2  0  0  0  0  0  0
  -36.1640  -28.1550   10.7630 C   0  0  0  0  0  2  0  0  0  0  0  0
  -35.4540  -30.4030   11.7680 C   0  0  0  0  0  0  0  0  0  0  0  0
  -35.4950  -31.8130   11.7400 C   0  0  0  0  0  3  0  0  0  0  0  0
  -36.1990  -32.4950   10.7310 C   0  0  0  0  0  3  0  0  0  0  0  0
  -36.8620  -31.7700    9.7260 C   0  0  0  0  0  3  0  0  0  0  0  0
  -36.8290  -30.3630    9.7410 C   0  0  0  0  0  3  0  0  0  0  0  0
  -33.4600  -34.0480   17.7510 C   0  0  0  0  0  3  0  0  0  0  0  0
  -34.2880  -35.2590   17.7740 N   0  0  0  0  0  0  0  0  0  0  0  0
  -35.1790  -35.5530   18.7300 C   0  0  0  0  0  0  0  0  0  0  0  0
  -35.3390  -34.8550   19.7350 O   0  0  0  0  0  0  0  0  0  0  0  0
  -34.2490  -35.8480   16.9550 H   0  0  0  0  0  0  0  0  0  0  0  0
  -37.4580  -36.4310   18.1310 C   0  0  0  0  0  1  0  0  0  0  0  0
  -36.0310  -36.8230   18.5410 C   0  0  0  0  0  3  0  0  0  0  0  0
  -34.8310  -38.4110   19.9800 C   0  0  0  0  0  1  0  0  0  0  0  0
  -36.0750  -37.6840   19.7420 N   0  0  0  0  0  0  0  0  0  0  0  0
  -36.8280  -38.3630   19.6710 H   0  0  0  0  0  0  0  0  0  0  0  0
  -32.0310  -34.3590   17.1600 C   0  0  1  0  0  0  0  0  0  0  0  0
  -32.0540  -35.3320   15.9580 C   0  0  0  0  0  1  0  0  0  0  0  0
  -31.3330  -33.0570   16.7010 C   0  0  0  0  0  1  0  0  0  0  0  0
  -31.1320  -34.9760   18.2590 C   0  0  0  0  0  1  0  0  0  0  0  0
  1 49  1  0
  2  1  1  0
  4  3  1  0
  5  3  1  0
  6  8  1  0
  6  4  1  0
  7 10  1  0
  7  5  1  0
  8  2  1  0
  8  7  1  0
  8  9  1  6
 11 18  2  0
 11 19  1  0
 12 13  1  0
 12 17  1  0
 14 13  1  0
 15 14  1  0
 16 15  1  0
 16 17  1  0
 17 11  1  0
 19 10  1  0
 20 19  1  0
 21 46  1  0
 22 41  1  0
 22 21  2  0
 23 25  2  0
 23 22  1  0
 24 15  1  0
 24 21  1  0
 25 24  1  0
 26 23  1  0
 27 26  1  0
 28 27  2  0
 29 30  2  0
 29 28  1  0
 30 31  1  0
 31 26  2  0
 32 29  1  0
 33 32  1  0
 33 34  1  0
 35 34  2  0
 36 35  1  0
 37 38  1  0
 37 36  2  0
 38 33  2  0
 39 38  1  0
 40 36  1  0
 41 43  2  0
 42 41  1  0
 42 45  1  0
 44 42  1  0
 46 47  1  0
 46 48  1  0
 49 50  1  0
 50 51  1  0
 52 50  1  0
 53 50  1  0
 53 54  1  0
 55 56  1  0
 55 54  1  0
 57 67  1  0
 58 56  1  0
 59 69  1  0
 59 66  1  0
 59 67  1  0
 60 65  2  0
 60 62  1  0
 61 62  1  0
 62 63  2  0
 63 58  1  0
 64 58  2  0
 65 64  1  0
 66 60  1  0
 67 61  1  0
 68 57  2  0
 69 71  2  0
 70 72  1  0
 70 69  1  0
 73 77  1  0
 73 78  1  0
 74 70  1  0
 75 74  1  0
 76 75  1  0
 77 76  1  0
 78 74  1  0
 79 78  2  0
 80 79  1  0
 81 82  1  0
 81 80  2  0
 82 73  2  0
 83 57  1  0
 83 84  1  0
 84 85  1  0
 85 86  2  0
 87 84  1  0
 89 88  1  0
 89 85  1  0
 89 91  1  0
 91 90  1  0
 92 91  1  0
 93 83  1  0
 93 96  1  1
 94 93  1  0
 95 93  1  0
M  ISO  4  11 100  19 100  55 101  56 101
M  END
>  <TORSDO>  (77) 
F 24

>  <SCORE>  (77) 
-3.626

>  <name>  (77) 
76

>  <ligand_id>  (77) 
76

>  <original_smiles>  (77) 
[H]c1c([H])c([H])c2c(c1[H])C([H])([H])C([H])([H])C([H])([H])C2([H])N([H])C(=O)C1([H])N(C(=O)C([H])(N([H])C(=O)C([H])(N([H])C([H])([H])[H])C([H])([H])[H])C(C([H])([H])[H])(C([H])([H])[H])C([H])([H])[H])C([H])([H])c2c([H])c(OC([H])([H])C([H])([H])C([H])([H])[N+]([H])([H])C([H])([H])C([H])([H])C([H])([H])[N+]3([H])C([H])([H])C([H])([H])C([H])([H])C([H])([H])C3([H])C([H])([H])N([H])C(=O)N3C([H])([H])C([H])([H])C([H])([H])C([H])(n4nc(-c5c([H])c([H])c(Oc6c([H])c([H])c(F)c([H])c6F)c([H])c5[H])c(C(=O)N([H])[H])c4N([H])[H])C3([H])[H])c([H])c([H])c2C1([H])[H]

>  <smiles>  (77) 
[H]c1c([H])c([H])c2c(c1[H])C([H])([H])C([H])([H])C([H])([H])C2([H])N([H])C(=O)C1([H])N(C(=O)C([H])(N([H])C(=O)C([H])(N([H])C([H])([H])[H])C([H])([H])[H])C(C([H])([H])[H])(C([H])([H])[H])C([H])([H])[H])C([H])([H])c2c([H])c(OC([H])([H])C([H])([H])C([H])([H])[N+]([H])([H])C([H])([H])C([H])([H])C([H])([H])[N+]3([H])C([H])([H])C([H])([H])C([H])([H])C([H])([H])C3([H])C([H])([H])N([H])C(=O)N3C([H])([H])C([H])([H])C([H])([H])C([H])(n4nc(-c5c([H])c([H])c(Oc6c([H])c([H])c(F)c([H])c6F)c([H])c5[H])c(C(=O)N([H])[H])c4N([H])[H])C3([H])[H])c([H])c([H])c2C1([H])[H]

$$$$
77:0:0
     RDKit          3D

 95103  0  0  1  0  0  0  0  0999 V2000
  -29.3650  -20.3160   21.3040 C   0  0  0  0  0  2  0  0  0  0  0  0
  -26.9210  -20.6230   20.7960 C   0  0  0  0  0  2  0  0  0  0  0  0
  -29.6610  -21.5500   20.4290 C   0  0  0  0  0  2  0  0  0  0  0  0
  -27.2690  -21.8930   19.9790 C   0  0  0  0  0  2  0  0  0  0  0  0
  -28.0710  -19.5870   20.8860 C   0  0  0  0  0  3  0  0  0  0  0  0
  -28.5310  -22.5190   20.4480 N   0  0  2  0  0  4  0  0  0  0  0  0
  -28.3670  -22.7680   21.4110 H   0  0  0  0  0  0  0  0  0  0  0  0
  -28.2390  -18.7490   19.5970 C   0  0  0  0  0  0  0  0  0  0  0  0
  -28.9640  -17.6200   19.5950 N   0  0  0  0  0  0  0  0  0  0  0  0
  -27.6620  -19.0960   18.5690 O   0  0  0  0  0  0  0  0  0  0  0  0
  -28.9140  -17.0750   18.7380 H   0  0  0  0  0  0  0  0  0  0  0  0
  -29.8970  -17.1050   20.5940 C   0  0  0  0  0  2  0  0  0  0  0  0
  -31.2610  -16.8140   19.9430 C   0  0  0  0  0  2  0  0  0  0  0  0
  -32.5440  -14.7830   20.3100 C   0  0  0  0  0  0  0  0  0  0  0  0
  -32.1120  -12.3750   19.9800 C   0  0  0  0  0  2  0  0  0  0  0  0
  -31.3120  -12.1150   18.6900 C   0  0  0  0  0  2  0  0  0  0  0  0
  -29.7990  -12.2240   18.9580 C   0  0  0  0  0  2  0  0  0  0  0  0
  -29.4240  -13.5240   19.7120 C   0  0  0  0  0  3  0  0  0  0  0  0
  -30.3350  -13.7290   20.9430 C   0  0  0  0  0  2  0  0  0  0  0  0
  -31.7390  -13.7020   20.4920 N   0  0  0  0  0  0  0  0  0  0  0  0
  -33.6680  -14.7180   19.8080 O   0  0  0  0  0  0  0  0  0  0  0  0
  -32.0950  -15.9530   20.7790 N   0  0  0  0  0  0  0  0  0  0  0  0
  -32.8580  -16.4890   21.1700 H   0  0  0  0  0  0  0  0  0  0  0  0
  -27.1510  -14.6210   20.2140 C   0  0  0  0  0  0  0  0  0  0  0  0
  -25.9240  -14.0870   20.5070 C   0  0  0  0  0  0  0  0  0  0  0  0
  -26.1050  -12.6700   20.5280 C   0  0  0  0  0  0  0  0  0  0  0  0
  -28.0110  -13.5420   20.0790 N   0  0  0  0  0  0  0  0  0  0  0  0
  -27.3800  -12.3660   20.3240 N   0  0  0  0  0  0  0  0  0  0  0  0
  -25.1300  -11.5810   20.6700 C   0  0  0  0  0  0  0  0  0  0  0  0
  -25.3380  -10.5190   21.5770 C   0  0  0  0  0  3  0  0  0  0  0  0
  -24.3790   -9.4920   21.7090 C   0  0  0  0  0  3  0  0  0  0  0  0
  -23.1970   -9.5220   20.9330 C   0  0  0  0  0  0  0  0  0  0  0  0
  -23.0070  -10.5680   20.0120 C   0  0  0  0  0  3  0  0  0  0  0  0
  -23.9640  -11.5870   19.8780 C   0  0  0  0  0  3  0  0  0  0  0  0
  -22.2220   -8.5540   20.9750 O   0  0  0  0  0  0  0  0  0  0  0  0
  -22.0120   -7.7940   22.0980 C   0  0  0  0  0  0  0  0  0  0  0  0
  -21.7240   -8.3790   23.3510 C   0  0  0  0  0  3  0  0  0  0  0  0
  -21.4440   -7.5580   24.4630 C   0  0  0  0  0  3  0  0  0  0  0  0
  -21.4440   -6.1570   24.3230 C   0  0  0  0  0  0  0  0  0  0  0  0
  -21.7260   -5.5740   23.0760 C   0  0  0  0  0  3  0  0  0  0  0  0
  -22.0060   -6.3910   21.9660 C   0  0  0  0  0  0  0  0  0  0  0  0
  -22.2560   -5.8240   20.7610 F   0  0  0  0  0  0  0  0  0  0  0  0
  -21.1690   -5.3700   25.3890 F   0  0  0  0  0  0  0  0  0  0  0  0
  -24.6320  -14.8380   20.6530 C   0  0  0  0  0  0  0  0  0  0  0  0
  -23.7080  -14.3220   21.4560 N   0  0  0  0  0  0  0  0  0  0  0  0
  -24.4540  -15.9160   20.0870 O   0  0  0  0  0  0  0  0  0  0  0  0
  -23.8610  -13.4460   21.9350 H   0  0  0  0  0  0  0  0  0  0  0  0
  -22.8330  -14.8090   21.5900 H   0  0  0  0  0  0  0  0  0  0  0  0
  -27.6030  -15.9240   20.0180 N   0  0  0  0  0  0  0  0  0  0  0  0
  -26.8820  -16.6270   19.8870 H   0  0  0  0  0  0  0  0  0  0  0  0
  -28.3670  -16.0450   19.3650 H   0  0  0  0  0  0  0  0  0  0  0  0
  -28.8640  -23.7920   19.7490 C   0  0  0  0  0  2  0  0  0  0  0  0
  -29.5610  -24.7970   20.6910 C   0  0  0  0  0  2  0  0  0  0  0  0
  -30.1960  -26.0120   19.9830 C   0  0  0  0  0  2  0  0  0  0  0  0
  -29.8270  -27.2370   20.6210 O   0  0  0  0  0  0  0  0  0  0  0  0
  -25.0250  -31.7090   23.3260 C   0  0  0  0  0  0  0  0  0  0  0  0
  -28.5470  -27.7370   20.4980 C   0  0  0  0  0  0  0  0  0  0  0  0
  -24.2020  -30.2260   21.5250 C   0  0  0  0  0  3  0  0  0  0  0  0
  -25.9900  -28.9270   20.2590 C   0  0  0  0  0  0  0  0  0  0  0  0
  -26.6670  -30.9010   21.6340 C   0  0  0  0  0  2  0  0  0  0  0  0
  -26.9960  -29.5720   20.9880 C   0  0  0  0  0  0  0  0  0  0  0  0
  -28.2730  -28.9830   21.1040 C   0  0  0  0  0  3  0  0  0  0  0  0
  -27.5140  -27.0940   19.7750 C   0  0  0  0  0  3  0  0  0  0  0  0
  -26.2440  -27.6870   19.6510 C   0  0  0  0  0  3  0  0  0  0  0  0
  -24.6540  -29.6250   20.1670 C   0  0  0  0  0  2  0  0  0  0  0  0
  -25.3080  -30.9610   22.2230 N   0  0  0  0  0  0  0  0  0  0  0  0
  -23.8630  -31.8290   23.7380 O   0  0  0  0  0  0  0  0  0  0  0  0
  -23.5790  -29.1000   22.3810 C   0  0  0  0  0  0  0  0  0  0  0  0
  -22.2880  -28.8170   22.1440 N   0  0  0  0  0  0  0  0  0  0  0  0
  -24.2550  -28.4870   23.2110 O   0  0  0  0  0  0  0  0  0  0  0  0
  -21.8000  -29.3710   21.4530 H   0  0  0  0  0  0  0  0  0  0  0  0
  -18.9770  -27.3950   22.3990 C   0  0  0  0  0  0  0  0  0  0  0  0
  -21.5020  -27.7720   22.8000 C   0  0  0  0  0  3  0  0  0  0  0  0
  -21.7130  -26.4040   22.1130 C   0  0  0  0  0  2  0  0  0  0  0  0
  -20.6710  -26.1040   21.0300 C   0  0  0  0  0  2  0  0  0  0  0  0
  -19.2600  -26.1170   21.6250 C   0  0  0  0  0  2  0  0  0  0  0  0
  -20.0310  -28.1790   22.9370 C   0  0  0  0  0  0  0  0  0  0  0  0
  -19.7150  -29.3760   23.6170 C   0  0  0  0  0  3  0  0  0  0  0  0
  -18.3780  -29.7880   23.7670 C   0  0  0  0  0  3  0  0  0  0  0  0
  -17.3380  -28.9990   23.2460 C   0  0  0  0  0  3  0  0  0  0  0  0
  -17.6380  -27.8030   22.5680 C   0  0  0  0  0  3  0  0  0  0  0  0
  -26.1410  -32.4700   24.1080 C   0  0  0  0  0  3  0  0  0  0  0  0
  -25.6750  -33.8460   24.3170 N   0  0  0  0  0  0  0  0  0  0  0  0
  -26.0340  -34.8930   23.5610 C   0  0  0  0  0  0  0  0  0  0  0  0
  -26.8590  -34.8070   22.6470 O   0  0  0  0  0  0  0  0  0  0  0  0
  -24.9550  -33.9800   25.0100 H   0  0  0  0  0  0  0  0  0  0  0  0
  -24.2350  -36.5060   22.8620 C   0  0  0  0  0  1  0  0  0  0  0  0
  -25.3710  -36.2500   23.8660 C   0  0  0  0  0  3  0  0  0  0  0  0
  -27.2850  -37.3470   24.9390 C   0  0  0  0  0  1  0  0  0  0  0  0
  -26.3180  -37.3850   23.8460 N   0  0  0  0  0  0  0  0  0  0  0  0
  -25.8210  -38.2700   23.8920 H   0  0  0  0  0  0  0  0  0  0  0  0
  -26.5100  -31.7900   25.4830 C   0  0  1  0  0  0  0  0  0  0  0  0
  -25.2820  -31.4750   26.3690 C   0  0  0  0  0  1  0  0  0  0  0  0
  -27.2740  -30.4670   25.2460 C   0  0  0  0  0  1  0  0  0  0  0  0
  -27.4580  -32.7120   26.2870 C   0  0  0  0  0  1  0  0  0  0  0  0
  2  5  1  0
  3  6  1  0
  3  1  1  0
  4  6  1  0
  4  2  1  0
  5  8  1  0
  5  1  1  0
  6  7  1  1
  9  8  1  0
  9 12  1  0
 10  8  2  0
 11  9  1  0
 13 12  1  0
 13 22  1  0
 14 20  1  0
 14 22  1  0
 15 20  1  0
 16 17  1  0
 16 15  1  0
 18 17  1  0
 18 27  1  0
 18 19  1  0
 20 19  1  0
 21 14  2  0
 22 23  1  0
 24 25  2  0
 25 26  1  0
 25 44  1  0
 26 29  1  0
 27 24  1  0
 27 28  1  0
 28 26  2  0
 29 30  1  0
 30 31  2  0
 32 35  1  0
 32 31  1  0
 33 32  2  0
 34 33  1  0
 34 29  2  0
 35 36  1  0
 36 37  1  0
 37 38  2  0
 39 38  1  0
 39 43  1  0
 40 39  2  0
 41 36  2  0
 41 40  1  0
 42 41  1  0
 44 45  1  0
 45 48  1  0
 45 47  1  0
 46 44  2  0
 49 24  1  0
 50 49  1  0
 51 49  1  0
 52  6  1  0
 52 53  1  0
 54 55  1  0
 54 53  1  0
 56 67  2  0
 57 55  1  0
 57 62  1  0
 58 66  1  0
 58 68  1  0
 59 61  1  0
 60 66  1  0
 61 62  2  0
 61 60  1  0
 63 57  2  0
 64 63  1  0
 64 59  2  0
 65 59  1  0
 65 58  1  0
 66 56  1  0
 68 70  2  0
 69 68  1  0
 71 69  1  0
 72 81  2  0
 72 77  1  0
 73 69  1  0
 73 77  1  0
 74 73  1  0
 75 76  1  0
 75 74  1  0
 76 72  1  0
 77 78  2  0
 78 79  1  0
 80 79  2  0
 81 80  1  0
 82 56  1  0
 82 83  1  0
 82 92  1  0
 83 86  1  0
 84 88  1  0
 84 83  1  0
 85 84  2  0
 88 87  1  0
 90 88  1  0
 90 91  1  0
 90 89  1  0
 92 95  1  1
 92 93  1  0
 94 92  1  0
M  ISO  4  14 100  22 100  54 101  55 101
M  END
>  <TORSDO>  (78) 
F 22

>  <SCORE>  (78) 
-8.146

>  <name>  (78) 
77

>  <ligand_id>  (78) 
77

>  <original_smiles>  (78) 
[H]c1c([H])c([H])c2c(c1[H])C([H])([H])C([H])([H])C([H])([H])C2([H])N([H])C(=O)C1([H])N(C(=O)C([H])(N([H])C(=O)C([H])(N([H])C([H])([H])[H])C([H])([H])[H])C(C([H])([H])[H])(C([H])([H])[H])C([H])([H])[H])C([H])([H])c2c([H])c(OC([H])([H])C([H])([H])C([H])([H])[N+]3([H])C([H])([H])C([H])([H])C([H])(C(=O)N([H])C([H])([H])C([H])([H])N([H])C(=O)N4C([H])([H])C([H])([H])C([H])([H])C([H])(n5nc(-c6c([H])c([H])c(Oc7c([H])c([H])c(F)c([H])c7F)c([H])c6[H])c(C(=O)N([H])[H])c5N([H])[H])C4([H])[H])C([H])([H])C3([H])[H])c([H])c([H])c2C1([H])[H]

>  <smiles>  (78) 
[H]c1c([H])c([H])c2c(c1[H])C([H])([H])C([H])([H])C([H])([H])C2([H])N([H])C(=O)C1([H])N(C(=O)C([H])(N([H])C(=O)C([H])(N([H])C([H])([H])[H])C([H])([H])[H])C(C([H])([H])[H])(C([H])([H])[H])C([H])([H])[H])C([H])([H])c2c([H])c(OC([H])([H])C([H])([H])C([H])([H])[N+]3([H])C([H])([H])C([H])([H])C([H])(C(=O)N([H])C([H])([H])C([H])([H])N([H])C(=O)N4C([H])([H])C([H])([H])C([H])([H])C([H])(n5nc(-c6c([H])c([H])c(Oc7c([H])c([H])c(F)c([H])c7F)c([H])c6[H])c(C(=O)N([H])[H])c5N([H])[H])C4([H])[H])C([H])([H])C3([H])[H])c([H])c([H])c2C1([H])[H]

$$$$
78:0:0
     RDKit          3D

 94102  0  0  1  0  0  0  0  0999 V2000
  -27.0090  -21.5890   21.3350 C   0  0  0  0  0  2  0  0  0  0  0  0
  -28.2440  -23.7530   21.3970 C   0  0  0  0  0  0  0  0  0  0  0  0
  -27.2600  -22.9720   20.9320 N   0  0  0  0  0  0  0  0  0  0  0  0
  -29.2030  -23.3030   22.0310 O   0  0  0  0  0  0  0  0  0  0  0  0
  -26.5390  -23.4140   20.3740 H   0  0  0  0  0  0  0  0  0  0  0  0
  -28.0980  -25.2640   21.1960 C   0  0  0  0  0  2  0  0  0  0  0  0
  -28.5970  -25.7660   19.8210 C   0  0  0  0  0  2  0  0  0  0  0  0
  -28.5960  -27.2020   19.7390 O   0  0  0  0  0  0  0  0  0  0  0  0
  -24.5190  -31.8540   23.1970 C   0  0  0  0  0  0  0  0  0  0  0  0
  -27.3770  -27.8400   19.7800 C   0  0  0  0  0  0  0  0  0  0  0  0
  -23.3710  -30.5070   21.4720 C   0  0  0  0  0  3  0  0  0  0  0  0
  -24.8900  -29.1680   19.9280 C   0  0  0  0  0  0  0  0  0  0  0  0
  -25.8670  -31.0430   21.2730 C   0  0  0  0  0  2  0  0  0  0  0  0
  -26.0250  -29.7330   20.5300 C   0  0  0  0  0  0  0  0  0  0  0  0
  -27.2690  -29.0750   20.4530 C   0  0  0  0  0  3  0  0  0  0  0  0
  -26.2250  -27.2870   19.1800 C   0  0  0  0  0  3  0  0  0  0  0  0
  -24.9790  -27.9340   19.2640 C   0  0  0  0  0  3  0  0  0  0  0  0
  -23.6080  -29.9530   20.0410 C   0  0  0  0  0  2  0  0  0  0  0  0
  -24.6030  -31.1440   22.0410 N   0  0  0  0  0  0  0  0  0  0  0  0
  -23.4350  -32.0170   23.7700 O   0  0  0  0  0  0  0  0  0  0  0  0
  -22.7970  -29.3770   22.3590 C   0  0  0  0  0  0  0  0  0  0  0  0
  -21.4910  -29.0970   22.2070 N   0  0  0  0  0  0  0  0  0  0  0  0
  -23.5220  -28.7630   23.1440 O   0  0  0  0  0  0  0  0  0  0  0  0
  -20.9740  -29.6500   21.5390 H   0  0  0  0  0  0  0  0  0  0  0  0
  -18.2340  -27.5700   22.5670 C   0  0  0  0  0  0  0  0  0  0  0  0
  -20.7460  -28.0590   22.9260 C   0  0  0  0  0  3  0  0  0  0  0  0
  -20.9970  -26.6590   22.3210 C   0  0  0  0  0  2  0  0  0  0  0  0
  -19.9700  -26.2750   21.2540 C   0  0  0  0  0  2  0  0  0  0  0  0
  -18.5520  -26.2800   21.8300 C   0  0  0  0  0  2  0  0  0  0  0  0
  -19.2620  -28.4120   23.0690 C   0  0  0  0  0  0  0  0  0  0  0  0
  -18.9030  -29.6140   23.7170 C   0  0  0  0  0  3  0  0  0  0  0  0
  -17.5490  -29.9780   23.8620 C   0  0  0  0  0  3  0  0  0  0  0  0
  -16.5360  -29.1360   23.3730 C   0  0  0  0  0  3  0  0  0  0  0  0
  -16.8790  -27.9340   22.7310 C   0  0  0  0  0  3  0  0  0  0  0  0
  -25.7740  -32.5220   23.8410 C   0  0  0  0  0  3  0  0  0  0  0  0
  -25.4150  -33.9040   24.1820 N   0  0  0  0  0  0  0  0  0  0  0  0
  -25.7240  -34.9760   23.4400 C   0  0  0  0  0  0  0  0  0  0  0  0
  -26.4160  -34.9050   22.4220 O   0  0  0  0  0  0  0  0  0  0  0  0
  -24.7960  -34.0270   24.9710 H   0  0  0  0  0  0  0  0  0  0  0  0
  -23.9460  -36.7100   23.0730 C   0  0  0  0  0  1  0  0  0  0  0  0
  -25.1870  -36.3440   23.9010 C   0  0  0  0  0  3  0  0  0  0  0  0
  -27.2790  -37.2920   24.7700 C   0  0  0  0  0  1  0  0  0  0  0  0
  -26.1870  -37.4310   23.8100 N   0  0  0  0  0  0  0  0  0  0  0  0
  -25.7490  -38.3370   23.9500 H   0  0  0  0  0  0  0  0  0  0  0  0
  -26.3000  -31.7520   25.1160 C   0  0  1  0  0  0  0  0  0  0  0  0
  -25.1970  -31.4630   26.1620 C   0  0  0  0  0  1  0  0  0  0  0  0
  -26.9400  -30.4020   24.7160 C   0  0  0  0  0  1  0  0  0  0  0  0
  -27.4150  -32.5760   25.8010 C   0  0  0  0  0  1  0  0  0  0  0  0
  -27.5970  -20.5360   20.3720 C   0  0  0  0  0  2  0  0  0  0  0  0
  -29.1010  -20.2870   20.6110 C   0  0  0  0  0  2  0  0  0  0  0  0
  -31.1470  -14.7070   19.7270 C   0  0  0  0  0  0  0  0  0  0  0  0
  -30.7360  -12.4490   18.8150 C   0  0  0  0  0  2  0  0  0  0  0  0
  -29.7100  -12.5110   17.6670 C   0  0  0  0  0  2  0  0  0  0  0  0
  -28.2810  -12.4030   18.2200 C   0  0  0  0  0  2  0  0  0  0  0  0
  -28.0210  -13.3920   19.3830 C   0  0  0  0  0  3  0  0  0  0  0  0
  -29.1520  -13.3260   20.4360 C   0  0  0  0  0  2  0  0  0  0  0  0
  -30.4360  -13.5450   19.7520 N   0  0  0  0  0  0  0  0  0  0  0  0
  -32.2240  -14.8070   19.1280 O   0  0  0  0  0  0  0  0  0  0  0  0
  -30.8700  -17.3620   22.3310 C   0  0  0  0  0  2  0  0  0  0  0  0
  -31.5750  -16.5130   21.2580 C   0  0  0  0  0  2  0  0  0  0  0  0
  -29.5450  -16.5570   19.7700 C   0  0  0  0  0  2  0  0  0  0  0  0
  -30.5400  -18.7870   21.8710 C   0  0  0  0  0  2  0  0  0  0  0  0
  -29.7490  -18.0920   19.6190 C   0  0  0  0  0  2  0  0  0  0  0  0
  -30.6390  -15.7740   20.3940 N   0  0  0  0  0  0  0  0  0  0  0  0
  -29.4560  -18.8600   20.8620 N   0  0  2  0  0  4  0  0  0  0  0  0
  -28.6390  -18.4460   21.2880 H   0  0  0  0  0  0  0  0  0  0  0  0
  -25.7620  -14.1250   20.3720 C   0  0  0  0  0  0  0  0  0  0  0  0
  -24.6790  -13.4140   20.8080 C   0  0  0  0  0  0  0  0  0  0  0  0
  -25.0300  -12.0350   20.6550 C   0  0  0  0  0  0  0  0  0  0  0  0
  -26.7070  -13.1850   19.9870 N   0  0  0  0  0  0  0  0  0  0  0  0
  -26.2760  -11.9200   20.2140 N   0  0  0  0  0  0  0  0  0  0  0  0
  -24.2290  -10.8200   20.8420 C   0  0  0  0  0  0  0  0  0  0  0  0
  -24.5900   -9.8390   21.7920 C   0  0  0  0  0  3  0  0  0  0  0  0
  -23.7950   -8.6860   21.9670 C   0  0  0  0  0  3  0  0  0  0  0  0
  -22.6250   -8.5060   21.1900 C   0  0  0  0  0  0  0  0  0  0  0  0
  -22.2860   -9.4730   20.2270 C   0  0  0  0  0  3  0  0  0  0  0  0
  -23.0810  -10.6160   20.0510 C   0  0  0  0  0  3  0  0  0  0  0  0
  -21.8050   -7.4070   21.2710 O   0  0  0  0  0  0  0  0  0  0  0  0
  -21.5800   -6.7620   22.4630 C   0  0  0  0  0  0  0  0  0  0  0  0
  -21.0380   -7.4320   23.5810 C   0  0  0  0  0  3  0  0  0  0  0  0
  -20.7580   -6.7170   24.7630 C   0  0  0  0  0  3  0  0  0  0  0  0
  -21.0110   -5.3350   24.8270 C   0  0  0  0  0  0  0  0  0  0  0  0
  -21.5470   -4.6640   23.7140 C   0  0  0  0  0  3  0  0  0  0  0  0
  -21.8280   -5.3760   22.5340 C   0  0  0  0  0  0  0  0  0  0  0  0
  -22.3230   -4.7200   21.4570 F   0  0  0  0  0  0  0  0  0  0  0  0
  -20.7360   -4.6500   25.9600 F   0  0  0  0  0  0  0  0  0  0  0  0
  -23.3570  -13.9710   21.2430 C   0  0  0  0  0  0  0  0  0  0  0  0
  -22.6750  -13.2930   22.1550 N   0  0  0  0  0  0  0  0  0  0  0  0
  -22.9420  -15.0440   20.8030 O   0  0  0  0  0  0  0  0  0  0  0  0
  -23.0320  -12.4250   22.5290 H   0  0  0  0  0  0  0  0  0  0  0  0
  -21.7840  -13.6430   22.4800 H   0  0  0  0  0  0  0  0  0  0  0  0
  -26.0150  -15.4880   20.2360 N   0  0  0  0  0  0  0  0  0  0  0  0
  -25.2570  -16.1530   20.3320 H   0  0  0  0  0  0  0  0  0  0  0  0
  -26.7740  -15.8310   19.6640 H   0  0  0  0  0  0  0  0  0  0  0  0
  2  4  2  0
  3  1  1  0
  3  2  1  0
  5  3  1  0
  6  2  1  0
  7  6  1  0
  8 10  1  0
  8  7  1  0
  9 20  2  0
 10 15  1  0
 11 19  1  0
 11 21  1  0
 12 18  1  0
 12 14  1  0
 13 19  1  0
 14 13  1  0
 15 14  2  0
 16 17  1  0
 16 10  2  0
 17 12  2  0
 18 11  1  0
 19  9  1  0
 21 23  2  0
 22 21  1  0
 24 22  1  0
 25 34  2  0
 25 30  1  0
 26 22  1  0
 26 30  1  0
 27 26  1  0
 28 29  1  0
 28 27  1  0
 29 25  1  0
 30 31  2  0
 31 32  1  0
 33 32  2  0
 34 33  1  0
 35  9  1  0
 35 36  1  0
 35 45  1  0
 36 39  1  0
 37 41  1  0
 37 36  1  0
 38 37  2  0
 41 40  1  0
 43 41  1  0
 43 44  1  0
 43 42  1  0
 45 48  1  1
 45 46  1  0
 47 45  1  0
 49 50  1  0
 49  1  1  0
 50 65  1  0
 51 57  1  0
 51 64  1  0
 52 57  1  0
 53 54  1  0
 53 52  1  0
 55 54  1  0
 55 70  1  0
 55 56  1  0
 57 56  1  0
 58 51  2  0
 60 59  1  0
 61 64  1  0
 62 59  1  0
 63 61  1  0
 63 65  1  0
 64 60  1  0
 65 66  1  1
 65 62  1  0
 67 68  2  0
 68 87  1  0
 69 68  1  0
 69 72  1  0
 70 71  1  0
 70 67  1  0
 71 69  2  0
 72 73  1  0
 73 74  2  0
 75 78  1  0
 75 74  1  0
 76 75  2  0
 77 76  1  0
 77 72  2  0
 78 79  1  0
 79 84  2  0
 79 80  1  0
 80 81  2  0
 81 82  1  0
 82 86  1  0
 83 82  2  0
 84 83  1  0
 85 84  1  0
 87 88  1  0
 88 91  1  0
 88 90  1  0
 89 87  2  0
 92 93  1  0
 92 67  1  0
 94 92  1  0
M  ISO  4   7 101   8 101  51 100  64 100
M  END
>  <TORSDO>  (79) 
F 21

>  <SCORE>  (79) 
-11.196

>  <name>  (79) 
78

>  <ligand_id>  (79) 
78

>  <original_smiles>  (79) 
[H]c1c([H])c([H])c2c(c1[H])C([H])([H])C([H])([H])C([H])([H])C2([H])N([H])C(=O)C1([H])N(C(=O)C([H])(N([H])C(=O)C([H])(N([H])C([H])([H])[H])C([H])([H])[H])C(C([H])([H])[H])(C([H])([H])[H])C([H])([H])[H])C([H])([H])c2c([H])c(OC([H])([H])C([H])([H])C(=O)N([H])C([H])([H])C([H])([H])C([H])([H])[N+]3([H])C([H])([H])C([H])([H])N(C(=O)N4C([H])([H])C([H])([H])C([H])([H])C([H])(n5nc(-c6c([H])c([H])c(Oc7c([H])c([H])c(F)c([H])c7F)c([H])c6[H])c(C(=O)N([H])[H])c5N([H])[H])C4([H])[H])C([H])([H])C([H])([H])C3([H])[H])c([H])c([H])c2C1([H])[H]

>  <smiles>  (79) 
[H]c1c([H])c([H])c2c(c1[H])C([H])([H])C([H])([H])C([H])([H])C2([H])N([H])C(=O)C1([H])N(C(=O)C([H])(N([H])C(=O)C([H])(N([H])C([H])([H])[H])C([H])([H])[H])C(C([H])([H])[H])(C([H])([H])[H])C([H])([H])[H])C([H])([H])c2c([H])c(OC([H])([H])C([H])([H])C(=O)N([H])C([H])([H])C([H])([H])C([H])([H])[N+]3([H])C([H])([H])C([H])([H])N(C(=O)N4C([H])([H])C([H])([H])C([H])([H])C([H])(n5nc(-c6c([H])c([H])c(Oc7c([H])c([H])c(F)c([H])c7F)c([H])c6[H])c(C(=O)N([H])[H])c5N([H])[H])C4([H])[H])C([H])([H])C([H])([H])C3([H])[H])c([H])c([H])c2C1([H])[H]

$$$$
79:0:0
     RDKit          3D

 89 96  0  0  1  0  0  0  0  0999 V2000
  -28.7070  -22.3820   20.3730 C   0  0  0  0  0  3  0  0  0  0  0  0
  -28.0080  -22.2610   21.5030 F   0  0  0  0  0  0  0  0  0  0  0  0
  -29.1970  -23.9070   20.2970 C   0  0  0  0  0  3  0  0  0  0  0  0
  -29.9520  -24.1540   21.3690 F   0  0  0  0  0  0  0  0  0  0  0  0
  -28.0560  -25.0160   20.1810 C   0  0  0  0  0  2  0  0  0  0  0  0
  -28.3340  -26.4790   20.2010 O   0  0  0  0  0  0  0  0  0  0  0  0
  -24.6240  -31.8880   23.2510 C   0  0  0  0  0  0  0  0  0  0  0  0
  -27.2200  -27.3390   20.1630 C   0  0  0  0  0  0  0  0  0  0  0  0
  -23.4120  -30.4950   21.6150 C   0  0  0  0  0  3  0  0  0  0  0  0
  -24.8550  -28.9550   20.1770 C   0  0  0  0  0  0  0  0  0  0  0  0
  -25.9520  -30.8150   21.4190 C   0  0  0  0  0  2  0  0  0  0  0  0
  -26.0300  -29.4400   20.7650 C   0  0  0  0  0  0  0  0  0  0  0  0
  -27.2160  -28.6450   20.7490 C   0  0  0  0  0  3  0  0  0  0  0  0
  -26.0160  -26.9140   19.5500 C   0  0  0  0  0  3  0  0  0  0  0  0
  -24.8510  -27.6980   19.5600 C   0  0  0  0  0  3  0  0  0  0  0  0
  -23.6190  -29.8280   20.2320 C   0  0  0  0  0  2  0  0  0  0  0  0
  -24.6820  -31.0820   22.1510 N   0  0  0  0  0  0  0  0  0  0  0  0
  -23.5420  -32.1630   23.7910 O   0  0  0  0  0  0  0  0  0  0  0  0
  -22.7560  -29.4720   22.5750 C   0  0  0  0  0  0  0  0  0  0  0  0
  -21.4300  -29.2910   22.4520 N   0  0  0  0  0  0  0  0  0  0  0  0
  -23.4390  -28.8450   23.3890 O   0  0  0  0  0  0  0  0  0  0  0  0
  -20.9380  -29.8480   21.7680 H   0  0  0  0  0  0  0  0  0  0  0  0
  -18.0580  -28.0800   22.9540 C   0  0  0  0  0  0  0  0  0  0  0  0
  -20.6150  -28.3520   23.2240 C   0  0  0  0  0  3  0  0  0  0  0  0
  -20.7240  -26.9190   22.6520 C   0  0  0  0  0  2  0  0  0  0  0  0
  -19.6230  -26.5890   21.6380 C   0  0  0  0  0  2  0  0  0  0  0  0
  -18.2400  -26.7310   22.2820 C   0  0  0  0  0  2  0  0  0  0  0  0
  -19.1730  -28.8480   23.3820 C   0  0  0  0  0  0  0  0  0  0  0  0
  -18.9480  -30.1120   23.9710 C   0  0  0  0  0  3  0  0  0  0  0  0
  -17.6410  -30.6090   24.1340 C   0  0  0  0  0  3  0  0  0  0  0  0
  -16.5400  -29.8370   23.7220 C   0  0  0  0  0  3  0  0  0  0  0  0
  -16.7500  -28.5750   23.1370 C   0  0  0  0  0  3  0  0  0  0  0  0
  -25.9080  -32.5200   23.8670 C   0  0  0  0  0  3  0  0  0  0  0  0
  -26.4320  -31.7470   25.1390 C   0  0  1  0  0  0  0  0  0  0  0  0
  -25.3440  -31.5070   26.2130 C   0  0  0  0  0  1  0  0  0  0  0  0
  -27.0130  -30.3700   24.7430 C   0  0  0  0  0  1  0  0  0  0  0  0
  -27.5850  -32.5400   25.7970 C   0  0  0  0  0  1  0  0  0  0  0  0
  -25.5990  -33.9170   24.2030 N   0  0  0  0  0  0  0  0  0  0  0  0
  -25.9290  -34.9730   23.4480 C   0  0  0  0  0  0  0  0  0  0  0  0
  -26.5980  -34.8740   22.4150 O   0  0  0  0  0  0  0  0  0  0  0  0
  -25.0060  -34.0690   25.0060 H   0  0  0  0  0  0  0  0  0  0  0  0
  -24.2040  -36.7710   23.1000 C   0  0  0  0  0  1  0  0  0  0  0  0
  -25.4420  -36.3610   23.9110 C   0  0  0  0  0  3  0  0  0  0  0  0
  -27.5780  -37.2370   24.7490 C   0  0  0  0  0  1  0  0  0  0  0  0
  -26.4770  -37.4130   23.8060 N   0  0  0  0  0  0  0  0  0  0  0  0
  -26.0710  -38.3320   23.9580 H   0  0  0  0  0  0  0  0  0  0  0  0
  -29.7620  -21.1810   20.2290 C   0  0  0  0  0  2  0  0  0  0  0  0
  -29.3850  -19.7180   20.7080 C   0  0  0  0  0  0  0  0  0  0  0  0
  -28.7490  -19.5650   21.7540 O   0  0  0  0  0  0  0  0  0  0  0  0
  -29.8200  -18.4240   19.9050 C   0  0  0  0  0  2  0  0  0  0  0  0
  -30.4550  -17.1970   20.7130 C   0  0  0  0  0  2  0  0  0  0  0  0
  -30.7240  -14.6850   20.0610 C   0  0  0  0  0  0  0  0  0  0  0  0
  -30.4250  -12.4670   18.9750 C   0  0  0  0  0  2  0  0  0  0  0  0
  -29.4330  -12.6060   17.8010 C   0  0  0  0  0  2  0  0  0  0  0  0
  -27.9790  -12.4520   18.2920 C   0  0  0  0  0  2  0  0  0  0  0  0
  -27.6780  -13.3110   19.5490 C   0  0  0  0  0  3  0  0  0  0  0  0
  -28.7830  -13.1560   20.6170 C   0  0  0  0  0  2  0  0  0  0  0  0
  -30.0640  -13.4870   19.9780 N   0  0  0  0  0  0  0  0  0  0  0  0
  -31.8840  -14.8060   19.6600 O   0  0  0  0  0  0  0  0  0  0  0  0
  -29.9930  -15.7830   20.4360 N   0  0  0  0  0  0  0  0  0  0  0  0
  -29.0320  -15.5830   20.6740 H   0  0  0  0  0  0  0  0  0  0  0  0
  -25.3210  -13.9160   20.3700 C   0  0  0  0  0  0  0  0  0  0  0  0
  -24.2660  -13.1460   20.7790 C   0  0  0  0  0  0  0  0  0  0  0  0
  -24.7210  -11.7930   20.7240 C   0  0  0  0  0  0  0  0  0  0  0  0
  -26.3510  -13.0320   20.0900 N   0  0  0  0  0  0  0  0  0  0  0  0
  -25.9980  -11.7500   20.3640 N   0  0  0  0  0  0  0  0  0  0  0  0
  -23.9970  -10.5330   20.9380 C   0  0  0  0  0  0  0  0  0  0  0  0
  -24.4520   -9.5660   21.8620 C   0  0  0  0  0  3  0  0  0  0  0  0
  -23.7270   -8.3710   22.0620 C   0  0  0  0  0  3  0  0  0  0  0  0
  -22.5330   -8.1350   21.3400 C   0  0  0  0  0  0  0  0  0  0  0  0
  -22.0980   -9.0910   20.4040 C   0  0  0  0  0  3  0  0  0  0  0  0
  -22.8230  -10.2760   20.2020 C   0  0  0  0  0  3  0  0  0  0  0  0
  -21.7790   -6.9920   21.4500 O   0  0  0  0  0  0  0  0  0  0  0  0
  -21.7490   -6.2590   22.6090 C   0  0  0  0  0  0  0  0  0  0  0  0
  -21.3510   -6.8250   23.8390 C   0  0  0  0  0  3  0  0  0  0  0  0
  -21.2680   -6.0180   24.9910 C   0  0  0  0  0  3  0  0  0  0  0  0
  -21.5720   -4.6470   24.9150 C   0  0  0  0  0  0  0  0  0  0  0  0
  -21.9640   -4.0800   23.6900 C   0  0  0  0  0  3  0  0  0  0  0  0
  -22.0490   -4.8830   22.5390 C   0  0  0  0  0  0  0  0  0  0  0  0
  -22.4060   -4.3270   21.3560 F   0  0  0  0  0  0  0  0  0  0  0  0
  -21.4850   -3.8690   26.0200 F   0  0  0  0  0  0  0  0  0  0  0  0
  -22.8830  -13.6290   21.1080 C   0  0  0  0  0  0  0  0  0  0  0  0
  -22.1870  -12.9330   22.0010 N   0  0  0  0  0  0  0  0  0  0  0  0
  -22.4290  -14.6560   20.6070 O   0  0  0  0  0  0  0  0  0  0  0  0
  -22.5680  -12.1020   22.4280 H   0  0  0  0  0  0  0  0  0  0  0  0
  -21.2610  -13.2390   22.2630 H   0  0  0  0  0  0  0  0  0  0  0  0
  -25.4820  -15.2870   20.1900 N   0  0  0  0  0  0  0  0  0  0  0  0
  -24.7200  -15.9410   20.3310 H   0  0  0  0  0  0  0  0  0  0  0  0
  -26.3110  -15.7240   19.8070 H   0  0  0  0  0  0  0  0  0  0  0  0
  1  2  1  0
  3  1  1  0
  3  4  1  0
  5  6  1  0
  5  3  1  0
  7 18  2  0
  8  6  1  0
  8 13  1  0
  9 17  1  0
  9 19  1  0
 10 16  1  0
 10 12  1  0
 11 17  1  0
 12 11  1  0
 13 12  2  0
 14 15  1  0
 14  8  2  0
 15 10  2  0
 16  9  1  0
 17  7  1  0
 19 21  2  0
 20 19  1  0
 22 20  1  0
 23 32  2  0
 23 28  1  0
 24 20  1  0
 24 28  1  0
 25 24  1  0
 26 27  1  0
 26 25  1  0
 27 23  1  0
 28 29  2  0
 29 30  1  0
 31 30  2  0
 32 31  1  0
 33  7  1  0
 33 38  1  0
 33 34  1  0
 34 37  1  1
 34 35  1  0
 36 34  1  0
 38 41  1  0
 39 43  1  0
 39 38  1  0
 40 39  2  0
 43 42  1  0
 45 43  1  0
 45 46  1  0
 45 44  1  0
 47  1  1  0
 47 48  1  0
 48 49  2  0
 50 48  1  0
 50 51  1  0
 52 60  1  0
 53 58  1  0
 54 55  1  0
 54 53  1  0
 56 55  1  0
 56 65  1  0
 56 57  1  0
 58 52  1  0
 58 57  1  0
 59 52  2  0
 60 61  1  0
 60 51  1  0
 62 63  2  0
 63 82  1  0
 64 63  1  0
 64 67  1  0
 65 66  1  0
 65 62  1  0
 66 64  2  0
 67 68  1  0
 68 69  2  0
 70 73  1  0
 70 69  1  0
 71 70  2  0
 72 71  1  0
 72 67  2  0
 73 74  1  0
 74 75  1  0
 75 76  2  0
 77 76  1  0
 77 81  1  0
 78 77  2  0
 79 74  2  0
 79 78  1  0
 80 79  1  0
 82 83  1  0
 83 86  1  0
 83 85  1  0
 84 82  2  0
 87 88  1  0
 87 62  1  0
 89 87  1  0
M  ISO  4   5 101   6 101  52 100  60 100
M  END
>  <TORSDO>  (80) 
F 22

>  <SCORE>  (80) 
-12.130

>  <name>  (80) 
79

>  <ligand_id>  (80) 
79

>  <original_smiles>  (80) 
[H]c1c([H])c([H])c2c(c1[H])C([H])([H])C([H])([H])C([H])([H])C2([H])N([H])C(=O)C1([H])N(C(=O)C([H])(N([H])C(=O)C([H])(N([H])C([H])([H])[H])C([H])([H])[H])C(C([H])([H])[H])(C([H])([H])[H])C([H])([H])[H])C([H])([H])c2c([H])c(OC([H])([H])C([H])(F)C([H])(F)C([H])([H])C(=O)C([H])([H])C([H])([H])N([H])C(=O)N3C([H])([H])C([H])([H])C([H])([H])C([H])(n4nc(-c5c([H])c([H])c(Oc6c([H])c([H])c(F)c([H])c6F)c([H])c5[H])c(C(=O)N([H])[H])c4N([H])[H])C3([H])[H])c([H])c([H])c2C1([H])[H]

>  <smiles>  (80) 
[H]c1c([H])c([H])c2c(c1[H])C([H])([H])C([H])([H])C([H])([H])C2([H])N([H])C(=O)C1([H])N(C(=O)C([H])(N([H])C(=O)C([H])(N([H])C([H])([H])[H])C([H])([H])[H])C(C([H])([H])[H])(C([H])([H])[H])C([H])([H])[H])C([H])([H])c2c([H])c(OC([H])([H])C([H])(F)C([H])(F)C([H])([H])C(=O)C([H])([H])C([H])([H])N([H])C(=O)N3C([H])([H])C([H])([H])C([H])([H])C([H])(n4nc(-c5c([H])c([H])c(Oc6c([H])c([H])c(F)c([H])c6F)c([H])c5[H])c(C(=O)N([H])[H])c4N([H])[H])C3([H])[H])c([H])c([H])c2C1([H])[H]

$$$$
80:0:0
     RDKit          3D

 94102  0  0  1  0  0  0  0  0999 V2000
  -30.2600  -21.5780   20.7390 C   0  0  0  0  0  2  0  0  0  0  0  0
  -29.8090  -22.7330   19.9670 N   0  0  0  0  0  0  0  0  0  0  0  0
  -28.8500  -22.9460   20.2230 H   0  0  0  0  0  0  0  0  0  0  0  0
  -30.6430  -23.8830   20.3340 C   0  0  0  0  0  2  0  0  0  0  0  0
  -30.1710  -25.2100   19.7070 C   0  0  0  0  0  3  0  0  0  0  0  0
  -30.4720  -25.2280   18.4070 F   0  0  0  0  0  0  0  0  0  0  0  0
  -28.6750  -25.5330   19.8940 C   0  0  0  0  0  2  0  0  0  0  0  0
  -28.5640  -26.9230   20.1480 O   0  0  0  0  0  0  0  0  0  0  0  0
  -24.6220  -31.9070   23.2480 C   0  0  0  0  0  0  0  0  0  0  0  0
  -27.3260  -27.5180   20.1720 C   0  0  0  0  0  0  0  0  0  0  0  0
  -23.4250  -30.4950   21.6000 C   0  0  0  0  0  3  0  0  0  0  0  0
  -24.8950  -28.9550   20.1970 C   0  0  0  0  0  0  0  0  0  0  0  0
  -25.9430  -30.8800   21.4070 C   0  0  0  0  0  2  0  0  0  0  0  0
  -26.0440  -29.5100   20.7780 C   0  0  0  0  0  0  0  0  0  0  0  0
  -27.2560  -28.7980   20.7630 C   0  0  0  0  0  3  0  0  0  0  0  0
  -26.1540  -26.9580   19.6120 C   0  0  0  0  0  3  0  0  0  0  0  0
  -24.9410  -27.6740   19.6240 C   0  0  0  0  0  3  0  0  0  0  0  0
  -23.6430  -29.8020   20.2270 C   0  0  0  0  0  2  0  0  0  0  0  0
  -24.6800  -31.1080   22.1430 N   0  0  0  0  0  0  0  0  0  0  0  0
  -23.5390  -32.1770   23.7850 O   0  0  0  0  0  0  0  0  0  0  0  0
  -22.7800  -29.4740   22.5640 C   0  0  0  0  0  0  0  0  0  0  0  0
  -21.4600  -29.2800   22.4280 N   0  0  0  0  0  0  0  0  0  0  0  0
  -23.4650  -28.8550   23.3830 O   0  0  0  0  0  0  0  0  0  0  0  0
  -20.9690  -29.8300   21.7370 H   0  0  0  0  0  0  0  0  0  0  0  0
  -18.0880  -28.0770   22.9020 C   0  0  0  0  0  0  0  0  0  0  0  0
  -20.6440  -28.3410   23.1950 C   0  0  0  0  0  3  0  0  0  0  0  0
  -20.7560  -26.9090   22.6230 C   0  0  0  0  0  2  0  0  0  0  0  0
  -19.6670  -26.5800   21.6000 C   0  0  0  0  0  2  0  0  0  0  0  0
  -18.2760  -26.7290   22.2240 C   0  0  0  0  0  2  0  0  0  0  0  0
  -19.2020  -28.8420   23.3420 C   0  0  0  0  0  0  0  0  0  0  0  0
  -18.9760  -30.1040   23.9300 C   0  0  0  0  0  3  0  0  0  0  0  0
  -17.6690  -30.6040   24.0840 C   0  0  0  0  0  3  0  0  0  0  0  0
  -16.5710  -29.8340   23.6670 C   0  0  0  0  0  3  0  0  0  0  0  0
  -16.7800  -28.5730   23.0780 C   0  0  0  0  0  3  0  0  0  0  0  0
  -25.9080  -32.5400   23.8730 C   0  0  0  0  0  3  0  0  0  0  0  0
  -26.4240  -31.7740   25.1480 C   0  0  1  0  0  0  0  0  0  0  0  0
  -25.3270  -31.5380   26.2110 C   0  0  0  0  0  1  0  0  0  0  0  0
  -27.0140  -30.3970   24.7640 C   0  0  0  0  0  1  0  0  0  0  0  0
  -27.5720  -32.5730   25.8150 C   0  0  0  0  0  1  0  0  0  0  0  0
  -25.5980  -33.9380   24.1950 N   0  0  0  0  0  0  0  0  0  0  0  0
  -25.9320  -34.9890   23.4320 C   0  0  0  0  0  0  0  0  0  0  0  0
  -26.6080  -34.8830   22.4050 O   0  0  0  0  0  0  0  0  0  0  0  0
  -25.0080  -34.0960   24.9970 H   0  0  0  0  0  0  0  0  0  0  0  0
  -24.1950  -36.7660   23.0610 C   0  0  0  0  0  1  0  0  0  0  0  0
  -25.4350  -36.3750   23.8820 C   0  0  0  0  0  3  0  0  0  0  0  0
  -27.5610  -37.2700   24.7190 C   0  0  0  0  0  1  0  0  0  0  0  0
  -26.4640  -37.4310   23.7700 N   0  0  0  0  0  0  0  0  0  0  0  0
  -26.0550  -38.3520   23.9090 H   0  0  0  0  0  0  0  0  0  0  0  0
  -29.2870  -20.3750   20.6740 C   0  0  0  0  0  2  0  0  0  0  0  0
  -30.0110  -19.1690   20.2250 N   0  0  0  0  0  4  0  0  0  0  0  0
  -30.1630  -19.2330   19.2320 H   0  0  0  0  0  0  0  0  0  0  0  0
  -30.9060  -19.1620   20.6920 H   0  0  0  0  0  0  0  0  0  0  0  0
  -30.6880  -14.4530   20.1580 C   0  0  0  0  0  0  0  0  0  0  0  0
  -30.3050  -12.3650   18.9030 C   0  0  0  0  0  2  0  0  0  0  0  0
  -29.3120  -12.6890   17.7660 C   0  0  0  0  0  2  0  0  0  0  0  0
  -27.8530  -12.5560   18.2580 C   0  0  0  0  0  2  0  0  0  0  0  0
  -27.6040  -13.2960   19.6010 C   0  0  0  0  0  3  0  0  0  0  0  0
  -28.7090  -12.9560   20.6250 C   0  0  0  0  0  2  0  0  0  0  0  0
  -30.0050  -13.2840   20.0120 N   0  0  0  0  0  0  0  0  0  0  0  0
  -31.8000  -14.6320   19.6510 O   0  0  0  0  0  0  0  0  0  0  0  0
  -29.9750  -16.7390   19.6940 C   0  0  0  0  0  2  0  0  0  0  0  0
  -29.6180  -15.8750   21.8930 C   0  0  0  0  0  2  0  0  0  0  0  0
  -29.4100  -17.8650   20.5640 C   0  0  0  0  0  3  0  0  0  0  0  0
  -29.7520  -17.3990   21.9770 C   0  0  0  0  0  3  0  0  0  0  0  0
  -29.9170  -15.5130   20.4990 N   0  0  0  0  0  0  0  0  0  0  0  0
  -31.0230  -17.7170   22.2420 F   0  0  0  0  0  0  0  0  0  0  0  0
  -25.2420  -13.8890   20.4180 C   0  0  0  0  0  0  0  0  0  0  0  0
  -24.1910  -13.1120   20.8270 C   0  0  0  0  0  0  0  0  0  0  0  0
  -24.6520  -11.7600   20.7600 C   0  0  0  0  0  0  0  0  0  0  0  0
  -26.2760  -13.0110   20.1310 N   0  0  0  0  0  0  0  0  0  0  0  0
  -25.9250  -11.7240   20.3860 N   0  0  0  0  0  0  0  0  0  0  0  0
  -23.9370  -10.4960   20.9710 C   0  0  0  0  0  0  0  0  0  0  0  0
  -24.3970   -9.5400   21.9040 C   0  0  0  0  0  3  0  0  0  0  0  0
  -23.6860   -8.3380   22.1040 C   0  0  0  0  0  3  0  0  0  0  0  0
  -22.4980   -8.0850   21.3770 C   0  0  0  0  0  0  0  0  0  0  0  0
  -22.0580   -9.0300   20.4350 C   0  0  0  0  0  3  0  0  0  0  0  0
  -22.7690  -10.2250   20.2290 C   0  0  0  0  0  3  0  0  0  0  0  0
  -21.7550   -6.9340   21.4850 O   0  0  0  0  0  0  0  0  0  0  0  0
  -21.7110   -6.2150   22.6520 C   0  0  0  0  0  0  0  0  0  0  0  0
  -21.2890   -6.7950   23.8680 C   0  0  0  0  0  3  0  0  0  0  0  0
  -21.1980   -6.0000   25.0290 C   0  0  0  0  0  3  0  0  0  0  0  0
  -21.5100   -4.6300   24.9720 C   0  0  0  0  0  0  0  0  0  0  0  0
  -21.9220   -4.0500   23.7580 C   0  0  0  0  0  3  0  0  0  0  0  0
  -22.0210   -4.8410   22.6030 C   0  0  0  0  0  0  0  0  0  0  0  0
  -22.3960   -4.2770   21.4310 F   0  0  0  0  0  0  0  0  0  0  0  0
  -21.4160   -3.8630   26.0820 F   0  0  0  0  0  0  0  0  0  0  0  0
  -22.8080  -13.5870   21.1680 C   0  0  0  0  0  0  0  0  0  0  0  0
  -22.1330  -12.8930   22.0750 N   0  0  0  0  0  0  0  0  0  0  0  0
  -22.3380  -14.6060   20.6640 O   0  0  0  0  0  0  0  0  0  0  0  0
  -22.5270  -12.0650   22.4970 H   0  0  0  0  0  0  0  0  0  0  0  0
  -21.2050  -13.1850   22.3440 H   0  0  0  0  0  0  0  0  0  0  0  0
  -25.3990  -15.2590   20.2450 N   0  0  0  0  0  0  0  0  0  0  0  0
  -24.6310  -15.9080   20.3850 H   0  0  0  0  0  0  0  0  0  0  0  0
  -26.2340  -15.6970   19.8770 H   0  0  0  0  0  0  0  0  0  0  0  0
  2  3  1  0
  2  4  1  0
  2  1  1  0
  5  6  1  0
  5  7  1  0
  5  4  1  0
  7  8  1  0
  8 10  1  0
  9 20  2  0
 10 15  1  0
 11 19  1  0
 11 21  1  0
 12 18  1  0
 12 14  1  0
 13 19  1  0
 14 13  1  0
 15 14  2  0
 16 17  1  0
 16 10  2  0
 17 12  2  0
 18 11  1  0
 19  9  1  0
 21 23  2  0
 22 21  1  0
 24 22  1  0
 25 34  2  0
 25 30  1  0
 26 22  1  0
 26 30  1  0
 27 26  1  0
 28 29  1  0
 28 27  1  0
 29 25  1  0
 30 31  2  0
 31 32  1  0
 33 32  2  0
 34 33  1  0
 35  9  1  0
 35 40  1  0
 35 36  1  0
 36 39  1  1
 36 37  1  0
 38 36  1  0
 40 43  1  0
 41 45  1  0
 41 40  1  0
 42 41  2  0
 45 44  1  0
 47 45  1  0
 47 48  1  0
 47 46  1  0
 49  1  1  0
 50 49  1  0
 50 52  1  0
 51 50  1  0
 53 65  1  0
 54 59  1  0
 55 56  1  0
 55 54  1  0
 57 56  1  0
 57 70  1  0
 57 58  1  0
 59 53  1  0
 59 58  1  0
 60 53  2  0
 61 65  1  0
 61 63  1  0
 62 64  1  0
 63 50  1  0
 63 64  1  0
 64 66  1  0
 65 62  1  0
 67 68  2  0
 68 87  1  0
 69 68  1  0
 69 72  1  0
 70 71  1  0
 70 67  1  0
 71 69  2  0
 72 73  1  0
 73 74  2  0
 75 78  1  0
 75 74  1  0
 76 75  2  0
 77 76  1  0
 77 72  2  0
 78 79  1  0
 79 80  1  0
 80 81  2  0
 82 81  1  0
 82 86  1  0
 83 82  2  0
 84 79  2  0
 84 83  1  0
 85 84  1  0
 87 88  1  0
 88 91  1  0
 88 90  1  0
 89 87  2  0
 92 93  1  0
 92 67  1  0
 94 92  1  0
M  ISO  4   7 101   8 101  53 100  65 100
M  END
>  <TORSDO>  (81) 
F 22

>  <SCORE>  (81) 
-12.495

>  <name>  (81) 
80

>  <ligand_id>  (81) 
80

>  <original_smiles>  (81) 
[H]c1c([H])c([H])c2c(c1[H])C([H])([H])C([H])([H])C([H])([H])C2([H])N([H])C(=O)C1([H])N(C(=O)C([H])(N([H])C(=O)C([H])(N([H])C([H])([H])[H])C([H])([H])[H])C(C([H])([H])[H])(C([H])([H])[H])C([H])([H])[H])C([H])([H])c2c([H])c(OC([H])([H])C([H])(F)C([H])([H])N([H])C([H])([H])C([H])([H])[N+]([H])([H])C3([H])C([H])([H])N(C(=O)N4C([H])([H])C([H])([H])C([H])([H])C([H])(n5nc(-c6c([H])c([H])c(Oc7c([H])c([H])c(F)c([H])c7F)c([H])c6[H])c(C(=O)N([H])[H])c5N([H])[H])C4([H])[H])C([H])([H])C3([H])F)c([H])c([H])c2C1([H])[H]

>  <smiles>  (81) 
[H]c1c([H])c([H])c2c(c1[H])C([H])([H])C([H])([H])C([H])([H])C2([H])N([H])C(=O)C1([H])N(C(=O)C([H])(N([H])C(=O)C([H])(N([H])C([H])([H])[H])C([H])([H])[H])C(C([H])([H])[H])(C([H])([H])[H])C([H])([H])[H])C([H])([H])c2c([H])c(OC([H])([H])C([H])(F)C([H])([H])N([H])C([H])([H])C([H])([H])[N+]([H])([H])C3([H])C([H])([H])N(C(=O)N4C([H])([H])C([H])([H])C([H])([H])C([H])(n5nc(-c6c([H])c([H])c(Oc7c([H])c([H])c(F)c([H])c7F)c([H])c6[H])c(C(=O)N([H])[H])c5N([H])[H])C4([H])[H])C([H])([H])C3([H])F)c([H])c([H])c2C1([H])[H]

$$$$
81:0:0
     RDKit          3D

 95103  0  0  1  0  0  0  0  0999 V2000
  -30.2480  -24.4680   20.1730 N   0  0  0  0  0  4  0  0  0  0  0  0
  -30.6330  -24.6390   21.0900 H   0  0  0  0  0  0  0  0  0  0  0  0
  -29.2800  -24.7520   20.1900 H   0  0  0  0  0  0  0  0  0  0  0  0
  -30.3530  -23.0360   19.8380 C   0  0  0  0  0  2  0  0  0  0  0  0
  -29.8520  -22.1170   20.9670 C   0  0  0  0  0  2  0  0  0  0  0  0
  -30.1030  -20.6460   20.6060 C   0  0  0  0  0  2  0  0  0  0  0  0
  -29.7210  -19.6250   21.6990 C   0  0  0  0  0  2  0  0  0  0  0  0
  -31.1050  -14.4180   20.0860 C   0  0  0  0  0  0  0  0  0  0  0  0
  -30.6200  -12.3670   18.8300 C   0  0  0  0  0  2  0  0  0  0  0  0
  -29.6050  -12.6920   17.7150 C   0  0  0  0  0  2  0  0  0  0  0  0
  -28.1620  -12.5820   18.2460 C   0  0  0  0  0  2  0  0  0  0  0  0
  -27.9490  -13.3480   19.5790 C   0  0  0  0  0  3  0  0  0  0  0  0
  -29.0710  -13.0250   20.5910 C   0  0  0  0  0  2  0  0  0  0  0  0
  -30.3630  -13.2930   19.9390 N   0  0  0  0  0  0  0  0  0  0  0  0
  -32.2130  -14.5800   19.5620 O   0  0  0  0  0  0  0  0  0  0  0  0
  -30.0900  -16.4940   19.5820 C   0  0  0  0  0  2  0  0  0  0  0  0
  -30.8960  -15.9770   21.9070 C   0  0  0  0  0  2  0  0  0  0  0  0
  -29.3510  -17.7050   20.1550 C   0  0  0  0  0  2  0  0  0  0  0  0
  -30.1840  -17.2630   22.3840 C   0  0  0  0  0  2  0  0  0  0  0  0
  -30.4460  -15.4780   20.5920 N   0  0  0  0  0  0  0  0  0  0  0  0
  -30.1190  -18.2550   21.2890 N   0  0  2  0  0  4  0  0  0  0  0  0
  -31.0710  -18.3520   20.9690 H   0  0  0  0  0  0  0  0  0  0  0  0
  -25.6250  -13.9940   20.4770 C   0  0  0  0  0  0  0  0  0  0  0  0
  -24.5600  -13.2370   20.8860 C   0  0  0  0  0  0  0  0  0  0  0  0
  -24.9760  -11.8750   20.7620 C   0  0  0  0  0  0  0  0  0  0  0  0
  -26.6230  -13.0940   20.1370 N   0  0  0  0  0  0  0  0  0  0  0  0
  -26.2390  -11.8130   20.3630 N   0  0  0  0  0  0  0  0  0  0  0  0
  -24.2260  -10.6260   20.9430 C   0  0  0  0  0  0  0  0  0  0  0  0
  -24.6470   -9.6400   21.8630 C   0  0  0  0  0  3  0  0  0  0  0  0
  -23.8990   -8.4560   22.0330 C   0  0  0  0  0  3  0  0  0  0  0  0
  -22.7180   -8.2480   21.2820 C   0  0  0  0  0  0  0  0  0  0  0  0
  -22.3160   -9.2220   20.3510 C   0  0  0  0  0  3  0  0  0  0  0  0
  -23.0640  -10.3990   20.1790 C   0  0  0  0  0  3  0  0  0  0  0  0
  -21.9430   -7.1160   21.3630 O   0  0  0  0  0  0  0  0  0  0  0  0
  -21.8360   -6.3990   22.5270 C   0  0  0  0  0  0  0  0  0  0  0  0
  -21.3590   -6.9840   23.7210 C   0  0  0  0  0  3  0  0  0  0  0  0
  -21.1990   -6.1920   24.8760 C   0  0  0  0  0  3  0  0  0  0  0  0
  -21.5050   -4.8190   24.8390 C   0  0  0  0  0  0  0  0  0  0  0  0
  -21.9740   -4.2340   23.6490 C   0  0  0  0  0  3  0  0  0  0  0  0
  -22.1360   -5.0220   22.4960 C   0  0  0  0  0  0  0  0  0  0  0  0
  -22.5690   -4.4500   21.3460 F   0  0  0  0  0  0  0  0  0  0  0  0
  -21.3440   -4.0560   25.9450 F   0  0  0  0  0  0  0  0  0  0  0  0
  -23.2010  -13.7390   21.2750 C   0  0  0  0  0  0  0  0  0  0  0  0
  -22.5310  -13.0490   22.1910 N   0  0  0  0  0  0  0  0  0  0  0  0
  -22.7440  -14.7800   20.8030 O   0  0  0  0  0  0  0  0  0  0  0  0
  -22.9140  -12.2060   22.5930 H   0  0  0  0  0  0  0  0  0  0  0  0
  -21.6220  -13.3670   22.4930 H   0  0  0  0  0  0  0  0  0  0  0  0
  -25.8200  -15.3660   20.3460 N   0  0  0  0  0  0  0  0  0  0  0  0
  -25.0740  -16.0340   20.5130 H   0  0  0  0  0  0  0  0  0  0  0  0
  -26.6390  -15.7810   19.9230 H   0  0  0  0  0  0  0  0  0  0  0  0
  -30.9740  -25.3510   19.2360 C   0  0  0  0  0  2  0  0  0  0  0  0
  -30.9360  -26.8080   19.7100 C   0  0  0  0  0  3  0  0  0  0  0  0
  -31.2040  -26.8650   21.0180 F   0  0  0  0  0  0  0  0  0  0  0  0
  -29.6170  -27.5320   19.4060 C   0  0  0  0  0  2  0  0  0  0  0  0
  -28.5140  -26.8080   19.9610 O   0  0  0  0  0  0  0  0  0  0  0  0
  -24.6590  -31.8310   23.2290 C   0  0  0  0  0  0  0  0  0  0  0  0
  -27.3430  -27.5170   20.0410 C   0  0  0  0  0  0  0  0  0  0  0  0
  -23.4500  -30.4480   21.5660 C   0  0  0  0  0  3  0  0  0  0  0  0
  -24.9120  -28.9450   20.1110 C   0  0  0  0  0  0  0  0  0  0  0  0
  -25.9640  -30.8460   21.3560 C   0  0  0  0  0  2  0  0  0  0  0  0
  -26.0600  -29.4870   20.7010 C   0  0  0  0  0  0  0  0  0  0  0  0
  -27.2730  -28.7760   20.6790 C   0  0  0  0  0  3  0  0  0  0  0  0
  -26.1760  -26.9650   19.4760 C   0  0  0  0  0  3  0  0  0  0  0  0
  -24.9600  -27.6780   19.5030 C   0  0  0  0  0  3  0  0  0  0  0  0
  -23.6570  -29.7860   20.1750 C   0  0  0  0  0  2  0  0  0  0  0  0
  -24.7090  -31.0540   22.1110 N   0  0  0  0  0  0  0  0  0  0  0  0
  -23.5800  -32.0850   23.7820 O   0  0  0  0  0  0  0  0  0  0  0  0
  -22.8170  -29.4060   22.5140 C   0  0  0  0  0  0  0  0  0  0  0  0
  -21.4960  -29.2080   22.3820 N   0  0  0  0  0  0  0  0  0  0  0  0
  -23.5090  -28.7780   23.3190 O   0  0  0  0  0  0  0  0  0  0  0  0
  -20.9990  -29.7680   21.7040 H   0  0  0  0  0  0  0  0  0  0  0  0
  -18.1370  -27.9710   22.8550 C   0  0  0  0  0  0  0  0  0  0  0  0
  -20.6900  -28.2490   23.1370 C   0  0  0  0  0  3  0  0  0  0  0  0
  -20.8100  -26.8280   22.5390 C   0  0  0  0  0  2  0  0  0  0  0  0
  -19.7140  -26.5110   21.5180 C   0  0  0  0  0  2  0  0  0  0  0  0
  -18.3290  -26.6330   22.1590 C   0  0  0  0  0  2  0  0  0  0  0  0
  -19.2470  -28.7370   23.2990 C   0  0  0  0  0  0  0  0  0  0  0  0
  -19.0150  -29.9900   23.9070 C   0  0  0  0  0  3  0  0  0  0  0  0
  -17.7050  -30.4770   24.0750 C   0  0  0  0  0  3  0  0  0  0  0  0
  -16.6100  -29.7060   23.6480 C   0  0  0  0  0  3  0  0  0  0  0  0
  -16.8260  -28.4560   23.0450 C   0  0  0  0  0  3  0  0  0  0  0  0
  -25.9460  -32.4570   23.8520 C   0  0  0  0  0  3  0  0  0  0  0  0
  -26.4680  -31.6770   25.1200 C   0  0  1  0  0  0  0  0  0  0  0  0
  -25.3760  -31.4240   26.1860 C   0  0  0  0  0  1  0  0  0  0  0  0
  -27.0580  -30.3070   24.7120 C   0  0  0  0  0  1  0  0  0  0  0  0
  -27.6170  -32.4690   25.7880 C   0  0  0  0  0  1  0  0  0  0  0  0
  -25.6400  -33.8530   24.1870 N   0  0  0  0  0  0  0  0  0  0  0  0
  -25.9960  -34.9090   23.4430 C   0  0  0  0  0  0  0  0  0  0  0  0
  -26.6870  -34.8090   22.4250 O   0  0  0  0  0  0  0  0  0  0  0  0
  -25.0290  -34.0060   24.9760 H   0  0  0  0  0  0  0  0  0  0  0  0
  -24.3030  -36.7230   23.0440 C   0  0  0  0  0  1  0  0  0  0  0  0
  -25.5060  -36.2960   23.9000 C   0  0  0  0  0  3  0  0  0  0  0  0
  -27.6160  -37.1440   24.8240 C   0  0  0  0  0  1  0  0  0  0  0  0
  -26.5540  -37.3380   23.8410 N   0  0  0  0  0  0  0  0  0  0  0  0
  -26.1540  -38.2610   23.9850 H   0  0  0  0  0  0  0  0  0  0  0  0
  1  3  1  0
  1  2  1  0
  4  1  1  0
  4  5  1  0
  6  5  1  0
  6  7  1  0
  8 20  1  0
  9 14  1  0
 10 11  1  0
 10  9  1  0
 12 11  1  0
 12 26  1  0
 12 13  1  0
 14  8  1  0
 14 13  1  0
 15  8  2  0
 16 18  1  0
 16 20  1  0
 17 19  1  0
 18 21  1  0
 20 17  1  0
 21  7  1  0
 21 19  1  0
 21 22  1  6
 23 24  2  0
 24 43  1  0
 25 24  1  0
 25 28  1  0
 26 27  1  0
 26 23  1  0
 27 25  2  0
 28 29  1  0
 29 30  2  0
 31 34  1  0
 31 30  1  0
 32 31  2  0
 33 32  1  0
 33 28  2  0
 34 35  1  0
 35 36  1  0
 36 37  2  0
 38 37  1  0
 38 42  1  0
 39 38  2  0
 40 35  2  0
 40 39  1  0
 41 40  1  0
 43 44  1  0
 44 47  1  0
 44 46  1  0
 45 43  2  0
 48 23  1  0
 48 49  1  0
 50 48  1  0
 51 52  1  0
 51  1  1  0
 52 53  1  0
 54 52  1  0
 54 55  1  0
 55 57  1  0
 56 67  2  0
 57 62  1  0
 58 66  1  0
 58 68  1  0
 59 65  1  0
 59 61  1  0
 60 66  1  0
 61 60  1  0
 62 61  2  0
 63 64  1  0
 63 57  2  0
 64 59  2  0
 65 58  1  0
 66 56  1  0
 68 70  2  0
 69 68  1  0
 71 69  1  0
 72 81  2  0
 72 77  1  0
 73 69  1  0
 73 77  1  0
 74 73  1  0
 75 76  1  0
 75 74  1  0
 76 72  1  0
 77 78  2  0
 78 79  1  0
 80 79  2  0
 81 80  1  0
 82 56  1  0
 82 87  1  0
 82 83  1  0
 83 86  1  1
 83 84  1  0
 85 83  1  0
 87 90  1  0
 88 92  1  0
 88 87  1  0
 89 88  2  0
 92 91  1  0
 94 92  1  0
 94 95  1  0
 94 93  1  0
M  ISO  4   8 100  20 100  54 101  55 101
M  END
>  <TORSDO>  (82) 
F 23

>  <SCORE>  (82) 
-12.039

>  <name>  (82) 
81

>  <ligand_id>  (82) 
81

>  <original_smiles>  (82) 
[H]c1c([H])c([H])c2c(c1[H])C([H])([H])C([H])([H])C([H])([H])C2([H])N([H])C(=O)C1([H])N(C(=O)C([H])(N([H])C(=O)C([H])(N([H])C([H])([H])[H])C([H])([H])[H])C(C([H])([H])[H])(C([H])([H])[H])C([H])([H])[H])C([H])([H])c2c([H])c(OC([H])([H])C([H])(F)C([H])([H])[N+]([H])([H])C([H])([H])C([H])([H])C([H])([H])C([H])([H])[N+]3([H])C([H])([H])C([H])([H])N(C(=O)N4C([H])([H])C([H])([H])C([H])([H])C([H])(n5nc(-c6c([H])c([H])c(Oc7c([H])c([H])c(F)c([H])c7F)c([H])c6[H])c(C(=O)N([H])[H])c5N([H])[H])C4([H])[H])C([H])([H])C3([H])[H])c([H])c([H])c2C1([H])[H]

>  <smiles>  (82) 
[H]c1c([H])c([H])c2c(c1[H])C([H])([H])C([H])([H])C([H])([H])C2([H])N([H])C(=O)C1([H])N(C(=O)C([H])(N([H])C(=O)C([H])(N([H])C([H])([H])[H])C([H])([H])[H])C(C([H])([H])[H])(C([H])([H])[H])C([H])([H])[H])C([H])([H])c2c([H])c(OC([H])([H])C([H])(F)C([H])([H])[N+]([H])([H])C([H])([H])C([H])([H])C([H])([H])C([H])([H])[N+]3([H])C([H])([H])C([H])([H])N(C(=O)N4C([H])([H])C([H])([H])C([H])([H])C([H])(n5nc(-c6c([H])c([H])c(Oc7c([H])c([H])c(F)c([H])c7F)c([H])c6[H])c(C(=O)N([H])[H])c5N([H])[H])C4([H])[H])C([H])([H])C3([H])[H])c([H])c([H])c2C1([H])[H]

$$$$
82:0:0
     RDKit          3D

102110  0  0  1  0  0  0  0  0999 V2000
  -32.3640  -19.8640   18.4370 N   0  0  0  0  0  4  0  0  0  0  0  0
  -31.3830  -20.1240   18.4210 H   0  0  0  0  0  0  0  0  0  0  0  0
  -32.6400  -19.6310   17.4970 H   0  0  0  0  0  0  0  0  0  0  0  0
  -31.4780  -17.4680   21.3120 C   0  0  0  0  0  2  0  0  0  0  0  0
  -32.0180  -18.7750   20.7020 C   0  0  0  0  0  2  0  0  0  0  0  0
  -31.6770  -17.4800   18.4980 C   0  0  0  0  0  2  0  0  0  0  0  0
  -30.2390  -17.2340   19.0190 C   0  0  0  0  0  3  0  0  0  0  0  0
  -30.2250  -16.9350   20.5600 C   0  0  0  0  0  3  0  0  0  0  0  0
  -32.4590  -18.6070   19.2210 C   0  0  0  0  0  3  0  0  0  0  0  0
  -30.6580  -14.4450   20.4770 C   0  0  0  0  0  0  0  0  0  0  0  0
  -30.3200  -12.2960   19.3520 C   0  0  0  0  0  2  0  0  0  0  0  0
  -29.3960  -12.5420   18.1420 C   0  0  0  0  0  2  0  0  0  0  0  0
  -27.9150  -12.4340   18.5560 C   0  0  0  0  0  2  0  0  0  0  0  0
  -27.5800  -13.2570   19.8270 C   0  0  0  0  0  3  0  0  0  0  0  0
  -28.6270  -13.0240   20.9440 C   0  0  0  0  0  2  0  0  0  0  0  0
  -29.9620  -13.2830   20.3790 N   0  0  0  0  0  0  0  0  0  0  0  0
  -31.8010  -14.5780   20.0420 O   0  0  0  0  0  0  0  0  0  0  0  0
  -29.9370  -15.5150   20.8510 N   0  0  0  0  0  0  0  0  0  0  0  0
  -29.0090  -15.3090   21.1930 H   0  0  0  0  0  0  0  0  0  0  0  0
  -25.1730  -13.8790   20.5020 C   0  0  0  0  0  0  0  0  0  0  0  0
  -24.0980  -13.1130   20.8670 C   0  0  0  0  0  0  0  0  0  0  0  0
  -24.5570  -11.7580   20.8510 C   0  0  0  0  0  0  0  0  0  0  0  0
  -26.2200  -12.9920   20.2930 N   0  0  0  0  0  0  0  0  0  0  0  0
  -25.8490  -11.7130   20.5580 N   0  0  0  0  0  0  0  0  0  0  0  0
  -23.8240  -10.5010   21.0420 C   0  0  0  0  0  0  0  0  0  0  0  0
  -24.2470   -9.5340   21.9810 C   0  0  0  0  0  3  0  0  0  0  0  0
  -23.5150   -8.3400   22.1600 C   0  0  0  0  0  3  0  0  0  0  0  0
  -22.3440   -8.1060   21.4020 C   0  0  0  0  0  0  0  0  0  0  0  0
  -21.9380   -9.0610   20.4530 C   0  0  0  0  0  3  0  0  0  0  0  0
  -22.6720  -10.2450   20.2720 C   0  0  0  0  0  3  0  0  0  0  0  0
  -21.5830   -6.9650   21.4920 O   0  0  0  0  0  0  0  0  0  0  0  0
  -21.5330   -6.2200   22.6430 C   0  0  0  0  0  0  0  0  0  0  0  0
  -21.1260   -6.7770   23.8740 C   0  0  0  0  0  3  0  0  0  0  0  0
  -21.0210   -5.9580   25.0170 C   0  0  0  0  0  3  0  0  0  0  0  0
  -21.3200   -4.5850   24.9280 C   0  0  0  0  0  0  0  0  0  0  0  0
  -21.7210   -4.0290   23.7020 C   0  0  0  0  0  3  0  0  0  0  0  0
  -21.8250   -4.8440   22.5620 C   0  0  0  0  0  0  0  0  0  0  0  0
  -22.1920   -4.2990   21.3770 F   0  0  0  0  0  0  0  0  0  0  0  0
  -21.2120   -3.7960   26.0240 F   0  0  0  0  0  0  0  0  0  0  0  0
  -22.7000  -13.5960   21.1230 C   0  0  0  0  0  0  0  0  0  0  0  0
  -21.9590  -12.9070   21.9850 N   0  0  0  0  0  0  0  0  0  0  0  0
  -22.2740  -14.6200   20.5930 O   0  0  0  0  0  0  0  0  0  0  0  0
  -22.3140  -12.0800   22.4410 H   0  0  0  0  0  0  0  0  0  0  0  0
  -21.0210  -13.2170   22.1950 H   0  0  0  0  0  0  0  0  0  0  0  0
  -25.3400  -15.2460   20.3130 N   0  0  0  0  0  0  0  0  0  0  0  0
  -24.5650  -15.8920   20.4090 H   0  0  0  0  0  0  0  0  0  0  0  0
  -26.1910  -15.6920   19.9960 H   0  0  0  0  0  0  0  0  0  0  0  0
  -29.2910  -18.3860   18.6010 C   0  0  0  0  0  0  0  0  0  0  0  0
  -28.1650  -18.0750   17.9700 N   0  0  0  0  0  0  0  0  0  0  0  0
  -29.5910  -19.5640   18.7940 O   0  0  0  0  0  0  0  0  0  0  0  0
  -27.9260  -17.1150   17.7630 H   0  0  0  0  0  0  0  0  0  0  0  0
  -27.5400  -18.8100   17.6710 H   0  0  0  0  0  0  0  0  0  0  0  0
  -33.2080  -21.0020   18.8760 C   0  0  0  0  0  2  0  0  0  0  0  0
  -33.4480  -22.0320   17.7410 C   0  0  0  0  0  2  0  0  0  0  0  0
  -32.2050  -22.8150   17.2600 C   0  0  0  0  0  2  0  0  0  0  0  0
  -31.8380  -23.9280   18.1660 N   0  0  0  0  0  4  0  0  0  0  0  0
  -32.4110  -24.7270   17.9410 H   0  0  0  0  0  0  0  0  0  0  0  0
  -32.0430  -23.6730   19.1170 H   0  0  0  0  0  0  0  0  0  0  0  0
  -30.4160  -24.3270   18.0930 C   0  0  0  0  0  2  0  0  0  0  0  0
  -30.0730  -25.3880   19.1510 C   0  0  0  0  0  2  0  0  0  0  0  0
  -28.5880  -25.7540   19.1590 C   0  0  0  0  0  2  0  0  0  0  0  0
  -28.4040  -26.7670   20.1370 O   0  0  0  0  0  0  0  0  0  0  0  0
  -24.5860  -31.8720   23.2370 C   0  0  0  0  0  0  0  0  0  0  0  0
  -27.2000  -27.4310   20.1550 C   0  0  0  0  0  0  0  0  0  0  0  0
  -23.3630  -30.4660   21.6100 C   0  0  0  0  0  3  0  0  0  0  0  0
  -24.7980  -28.9140   20.1880 C   0  0  0  0  0  0  0  0  0  0  0  0
  -25.8820  -30.8240   21.3830 C   0  0  0  0  0  2  0  0  0  0  0  0
  -25.9580  -29.4450   20.7670 C   0  0  0  0  0  0  0  0  0  0  0  0
  -27.1550  -28.7030   20.7620 C   0  0  0  0  0  3  0  0  0  0  0  0
  -26.0160  -26.8980   19.5900 C   0  0  0  0  0  3  0  0  0  0  0  0
  -24.8190  -27.6360   19.6050 C   0  0  0  0  0  3  0  0  0  0  0  0
  -23.5580  -29.7750   20.2340 C   0  0  0  0  0  2  0  0  0  0  0  0
  -24.6310  -31.0680   22.1380 N   0  0  0  0  0  0  0  0  0  0  0  0
  -23.5090  -32.1490   23.7820 O   0  0  0  0  0  0  0  0  0  0  0  0
  -22.7170  -29.4520   22.5790 C   0  0  0  0  0  0  0  0  0  0  0  0
  -21.3930  -29.2700   22.4570 N   0  0  0  0  0  0  0  0  0  0  0  0
  -23.4030  -28.8300   23.3950 O   0  0  0  0  0  0  0  0  0  0  0  0
  -20.8990  -29.8270   21.7740 H   0  0  0  0  0  0  0  0  0  0  0  0
  -18.0180  -28.0870   22.9640 C   0  0  0  0  0  0  0  0  0  0  0  0
  -20.5760  -28.3400   23.2350 C   0  0  0  0  0  3  0  0  0  0  0  0
  -20.6750  -26.9040   22.6680 C   0  0  0  0  0  2  0  0  0  0  0  0
  -19.5730  -26.5770   21.6560 C   0  0  0  0  0  2  0  0  0  0  0  0
  -18.1920  -26.7310   22.3000 C   0  0  0  0  0  2  0  0  0  0  0  0
  -19.1380  -28.8490   23.3900 C   0  0  0  0  0  0  0  0  0  0  0  0
  -18.9240  -30.1180   23.9690 C   0  0  0  0  0  3  0  0  0  0  0  0
  -17.6220  -30.6270   24.1290 C   0  0  0  0  0  3  0  0  0  0  0  0
  -16.5150  -29.8620   23.7200 C   0  0  0  0  0  3  0  0  0  0  0  0
  -16.7140  -28.5940   23.1450 C   0  0  0  0  0  3  0  0  0  0  0  0
  -25.8780  -32.5000   23.8450 C   0  0  0  0  0  3  0  0  0  0  0  0
  -26.4110  -31.7210   25.1080 C   0  0  1  0  0  0  0  0  0  0  0  0
  -25.3320  -31.4720   26.1880 C   0  0  0  0  0  1  0  0  0  0  0  0
  -26.9900  -30.3490   24.6900 C   0  0  0  0  0  1  0  0  0  0  0  0
  -27.5710  -32.5100   25.7630 C   0  0  0  0  0  1  0  0  0  0  0  0
  -25.5750  -33.8960   24.1820 N   0  0  0  0  0  0  0  0  0  0  0  0
  -25.9040  -34.9500   23.4220 C   0  0  0  0  0  0  0  0  0  0  0  0
  -26.5660  -34.8490   22.3860 O   0  0  0  0  0  0  0  0  0  0  0  0
  -24.9890  -34.0510   24.9900 H   0  0  0  0  0  0  0  0  0  0  0  0
  -24.1750  -36.7430   23.0790 C   0  0  0  0  0  1  0  0  0  0  0  0
  -25.4190  -36.3370   23.8850 C   0  0  0  0  0  3  0  0  0  0  0  0
  -27.5600  -37.2150   24.7050 C   0  0  0  0  0  1  0  0  0  0  0  0
  -26.4520  -37.3890   23.7700 N   0  0  0  0  0  0  0  0  0  0  0  0
  -26.0460  -38.3080   23.9260 H   0  0  0  0  0  0  0  0  0  0  0  0
  1 53  1  0
  2  1  1  0
  3  1  1  0
  5  4  1  0
  6  7  1  0
  6  9  1  0
  7 48  1  0
  7  8  1  0
  8 18  1  0
  8  4  1  0
  9  1  1  0
  9  5  1  0
 10 18  1  0
 11 16  1  0
 12 13  1  0
 12 11  1  0
 14 13  1  0
 14 23  1  0
 14 15  1  0
 16 10  1  0
 16 15  1  0
 17 10  2  0
 18 19  1  0
 20 21  2  0
 21 40  1  0
 22 21  1  0
 22 25  1  0
 23 20  1  0
 23 24  1  0
 24 22  2  0
 25 26  1  0
 26 27  2  0
 28 31  1  0
 28 27  1  0
 29 28  2  0
 30 29  1  0
 30 25  2  0
 31 32  1  0
 32 33  1  0
 33 34  2  0
 35 34  1  0
 35 39  1  0
 36 35  2  0
 37 32  2  0
 37 36  1  0
 38 37  1  0
 40 41  1  0
 41 44  1  0
 41 43  1  0
 42 40  2  0
 45 46  1  0
 45 20  1  0
 47 45  1  0
 48 50  2  0
 49 48  1  0
 51 49  1  0
 52 49  1  0
 54 53  1  0
 55 54  1  0
 55 56  1  0
 56 58  1  0
 57 56  1  0
 59 56  1  0
 59 60  1  0
 60 61  1  0
 61 62  1  0
 62 64  1  0
 63 74  2  0
 64 69  1  0
 65 73  1  0
 65 75  1  0
 66 72  1  0
 66 68  1  0
 67 73  1  0
 68 67  1  0
 69 68  2  0
 70 71  1  0
 70 64  2  0
 71 66  2  0
 72 65  1  0
 73 63  1  0
 75 77  2  0
 76 75  1  0
 78 76  1  0
 79 88  2  0
 79 84  1  0
 80 76  1  0
 80 84  1  0
 81 80  1  0
 82 83  1  0
 82 81  1  0
 83 79  1  0
 84 85  2  0
 85 86  1  0
 87 86  2  0
 88 87  1  0
 89 63  1  0
 89 94  1  0
 89 90  1  0
 90 93  1  1
 90 91  1  0
 92 90  1  0
 94 97  1  0
 95 99  1  0
 95 94  1  0
 96 95  2  0
 99 98  1  0
101 99  1  0
101102  1  0
101100  1  0
M  ISO  4  10 100  18 100  61 101  62 101
M  END
>  <TORSDO>  (83) 
F 25

>  <SCORE>  (83) 
-12.360

>  <name>  (83) 
82

>  <ligand_id>  (83) 
82

>  <original_smiles>  (83) 
[H]c1c([H])c([H])c2c(c1[H])C([H])([H])C([H])([H])C([H])([H])C2([H])N([H])C(=O)C1([H])N(C(=O)C([H])(N([H])C(=O)C([H])(N([H])C([H])([H])[H])C([H])([H])[H])C(C([H])([H])[H])(C([H])([H])[H])C([H])([H])[H])C([H])([H])c2c([H])c(OC([H])([H])C([H])([H])C([H])([H])[N+]([H])([H])C([H])([H])C([H])([H])C([H])([H])[N+]([H])([H])C3([H])C([H])([H])C([H])([H])C([H])(N([H])C(=O)N4C([H])([H])C([H])([H])C([H])([H])C([H])(n5nc(-c6c([H])c([H])c(Oc7c([H])c([H])c(F)c([H])c7F)c([H])c6[H])c(C(=O)N([H])[H])c5N([H])[H])C4([H])[H])C([H])(C(=O)N([H])[H])C3([H])[H])c([H])c([H])c2C1([H])[H]

>  <smiles>  (83) 
[H]c1c([H])c([H])c2c(c1[H])C([H])([H])C([H])([H])C([H])([H])C2([H])N([H])C(=O)C1([H])N(C(=O)C([H])(N([H])C(=O)C([H])(N([H])C([H])([H])[H])C([H])([H])[H])C(C([H])([H])[H])(C([H])([H])[H])C([H])([H])[H])C([H])([H])c2c([H])c(OC([H])([H])C([H])([H])C([H])([H])[N+]([H])([H])C([H])([H])C([H])([H])C([H])([H])[N+]([H])([H])C3([H])C([H])([H])C([H])([H])C([H])(N([H])C(=O)N4C([H])([H])C([H])([H])C([H])([H])C([H])(n5nc(-c6c([H])c([H])c(Oc7c([H])c([H])c(F)c([H])c7F)c([H])c6[H])c(C(=O)N([H])[H])c5N([H])[H])C4([H])[H])C([H])(C(=O)N([H])[H])C3([H])[H])c([H])c([H])c2C1([H])[H]

$$$$
83:0:0
     RDKit          3D

 96104  0  0  1  0  0  0  0  0999 V2000
  -29.2890  -21.4220   21.1050 C   0  0  0  0  0  2  0  0  0  0  0  0
  -30.6380  -19.2700   21.4120 C   0  0  0  0  0  0  0  0  0  0  0  0
  -30.1810  -18.0540   20.6750 C   0  0  0  0  0  0  0  0  0  0  0  0
  -28.2790  -19.0250   21.2760 C   0  0  0  0  0  2  0  0  0  0  0  0
  -29.3670  -20.0190   21.7790 C   0  0  0  0  0  3  0  0  0  0  0  0
  -28.9250  -17.8940   20.6210 N   0  0  0  0  0  0  0  0  0  0  0  0
  -31.7880  -19.6500   21.6540 O   0  0  0  0  0  0  0  0  0  0  0  0
  -31.1570  -17.1300   19.9450 C   0  0  0  0  0  3  0  0  0  0  0  0
  -31.4990  -14.6360   19.9370 C   0  0  0  0  0  0  0  0  0  0  0  0
  -31.1670  -12.4070   18.9690 C   0  0  0  0  0  2  0  0  0  0  0  0
  -30.2080  -12.5420   17.7700 C   0  0  0  0  0  2  0  0  0  0  0  0
  -28.7420  -12.4270   18.2330 C   0  0  0  0  0  2  0  0  0  0  0  0
  -28.4220  -13.3510   19.4400 C   0  0  0  0  0  3  0  0  0  0  0  0
  -29.4980  -13.2300   20.5440 C   0  0  0  0  0  2  0  0  0  0  0  0
  -30.8110  -13.4640   19.9250 N   0  0  0  0  0  0  0  0  0  0  0  0
  -32.6590  -14.7400   19.5370 O   0  0  0  0  0  0  0  0  0  0  0  0
  -30.7650  -15.7280   20.1830 N   0  0  0  0  0  0  0  0  0  0  0  0
  -29.8150  -15.6000   20.4990 H   0  0  0  0  0  0  0  0  0  0  0  0
  -26.0580  -14.0100   20.2120 C   0  0  0  0  0  0  0  0  0  0  0  0
  -24.9850  -13.2630   20.6110 C   0  0  0  0  0  0  0  0  0  0  0  0
  -25.4160  -11.9010   20.5770 C   0  0  0  0  0  0  0  0  0  0  0  0
  -27.0800  -13.1070   19.9580 N   0  0  0  0  0  0  0  0  0  0  0  0
  -26.6970  -11.8340   20.2360 N   0  0  0  0  0  0  0  0  0  0  0  0
  -24.6680  -10.6550   20.7940 C   0  0  0  0  0  0  0  0  0  0  0  0
  -24.9760   -9.7860   21.8630 C   0  0  0  0  0  3  0  0  0  0  0  0
  -24.2300   -8.6050   22.0630 C   0  0  0  0  0  3  0  0  0  0  0  0
  -23.1640   -8.2830   21.1910 C   0  0  0  0  0  0  0  0  0  0  0  0
  -22.8780   -9.1390   20.1130 C   0  0  0  0  0  3  0  0  0  0  0  0
  -23.6240  -10.3130   19.9130 C   0  0  0  0  0  3  0  0  0  0  0  0
  -22.4030   -7.1430   21.2910 O   0  0  0  0  0  0  0  0  0  0  0  0
  -22.0280   -6.6310   22.5080 C   0  0  0  0  0  0  0  0  0  0  0  0
  -21.2980   -7.3960   23.4430 C   0  0  0  0  0  3  0  0  0  0  0  0
  -20.8730   -6.8090   24.6520 C   0  0  0  0  0  3  0  0  0  0  0  0
  -21.1690   -5.4600   24.9230 C   0  0  0  0  0  0  0  0  0  0  0  0
  -21.8930   -4.6960   23.9900 C   0  0  0  0  0  3  0  0  0  0  0  0
  -22.3190   -5.2800   22.7840 C   0  0  0  0  0  0  0  0  0  0  0  0
  -22.9970   -4.5340   21.8780 F   0  0  0  0  0  0  0  0  0  0  0  0
  -20.7550   -4.8940   26.0810 F   0  0  0  0  0  0  0  0  0  0  0  0
  -23.6060  -13.7700   20.9220 C   0  0  0  0  0  0  0  0  0  0  0  0
  -22.9170  -13.1370   21.8640 N   0  0  0  0  0  0  0  0  0  0  0  0
  -23.1500  -14.7660   20.3600 O   0  0  0  0  0  0  0  0  0  0  0  0
  -23.3000  -12.3320   22.3390 H   0  0  0  0  0  0  0  0  0  0  0  0
  -21.9940  -13.4600   22.1160 H   0  0  0  0  0  0  0  0  0  0  0  0
  -26.2510  -15.3770   20.0250 N   0  0  0  0  0  0  0  0  0  0  0  0
  -25.5160  -16.0580   20.1750 H   0  0  0  0  0  0  0  0  0  0  0  0
  -27.1270  -15.8010   19.7440 H   0  0  0  0  0  0  0  0  0  0  0  0
  -32.1020  -16.7910   17.4930 C   0  0  0  0  0  1  0  0  0  0  0  0
  -31.1220  -17.5080   18.4320 C   0  0  0  0  0  2  0  0  0  0  0  0
  -29.9110  -22.5160   21.8990 N   0  0  0  0  0  4  0  0  0  0  0  0
  -30.8650  -22.2950   22.1390 H   0  0  0  0  0  0  0  0  0  0  0  0
  -29.3960  -22.6040   22.7610 H   0  0  0  0  0  0  0  0  0  0  0  0
  -29.8950  -23.8360   21.2200 C   0  0  0  0  0  2  0  0  0  0  0  0
  -29.7500  -25.0170   22.2240 C   0  0  0  0  0  2  0  0  0  0  0  0
  -29.5310  -26.4500   21.6200 C   0  0  0  0  0  2  0  0  0  0  0  0
  -29.9880  -27.0220   20.2330 C   0  0  0  0  0  2  0  0  0  0  0  0
  -29.0160  -26.9420   19.1870 O   0  0  0  0  0  0  0  0  0  0  0  0
  -24.7210  -31.3680   22.8340 C   0  0  0  0  0  0  0  0  0  0  0  0
  -27.8110  -27.5880   19.3390 C   0  0  0  0  0  0  0  0  0  0  0  0
  -23.6620  -30.0210   21.0490 C   0  0  0  0  0  3  0  0  0  0  0  0
  -25.2650  -28.7960   19.4900 C   0  0  0  0  0  0  0  0  0  0  0  0
  -26.1340  -30.6630   20.9090 C   0  0  0  0  0  2  0  0  0  0  0  0
  -26.3590  -29.3820   20.1410 C   0  0  0  0  0  0  0  0  0  0  0  0
  -27.6340  -28.7810   20.0780 C   0  0  0  0  0  3  0  0  0  0  0  0
  -26.7040  -27.0140   18.6840 C   0  0  0  0  0  3  0  0  0  0  0  0
  -25.4280  -27.6050   18.7650 C   0  0  0  0  0  3  0  0  0  0  0  0
  -23.9350  -29.5050   19.6110 C   0  0  0  0  0  2  0  0  0  0  0  0
  -24.8560  -30.6930   21.6570 N   0  0  0  0  0  0  0  0  0  0  0  0
  -23.6200  -31.4700   23.3910 O   0  0  0  0  0  0  0  0  0  0  0  0
  -23.1230  -28.8460   21.8940 C   0  0  0  0  0  0  0  0  0  0  0  0
  -21.8200  -28.5560   21.7510 N   0  0  0  0  0  0  0  0  0  0  0  0
  -23.8720  -28.1990   22.6320 O   0  0  0  0  0  0  0  0  0  0  0  0
  -21.2700  -29.1360   21.1330 H   0  0  0  0  0  0  0  0  0  0  0  0
  -18.5690  -27.0350   22.1450 C   0  0  0  0  0  0  0  0  0  0  0  0
  -21.1020  -27.4680   22.4150 C   0  0  0  0  0  3  0  0  0  0  0  0
  -21.3080  -26.1270   21.6700 C   0  0  0  0  0  2  0  0  0  0  0  0
  -20.2150  -25.8360   20.6390 C   0  0  0  0  0  2  0  0  0  0  0  0
  -18.8400  -25.7910   21.3140 C   0  0  0  0  0  2  0  0  0  0  0  0
  -19.6310  -27.8300   22.6490 C   0  0  0  0  0  0  0  0  0  0  0  0
  -19.3240  -28.9940   23.3860 C   0  0  0  0  0  3  0  0  0  0  0  0
  -17.9880  -29.3670   23.6210 C   0  0  0  0  0  3  0  0  0  0  0  0
  -16.9400  -28.5660   23.1350 C   0  0  0  0  0  3  0  0  0  0  0  0
  -17.2310  -27.3990   22.4060 C   0  0  0  0  0  3  0  0  0  0  0  0
  -25.9380  -32.0600   23.5220 C   0  0  0  0  0  3  0  0  0  0  0  0
  -25.4970  -33.3830   23.9810 N   0  0  0  0  0  0  0  0  0  0  0  0
  -25.7390  -34.5310   23.3310 C   0  0  0  0  0  0  0  0  0  0  0  0
  -26.4270  -34.5890   22.3080 O   0  0  0  0  0  0  0  0  0  0  0  0
  -24.8920  -33.4040   24.7880 H   0  0  0  0  0  0  0  0  0  0  0  0
  -23.8650  -36.1850   23.0910 C   0  0  0  0  0  1  0  0  0  0  0  0
  -25.1160  -35.8170   23.9050 C   0  0  0  0  0  3  0  0  0  0  0  0
  -27.1340  -36.7950   24.9020 C   0  0  0  0  0  1  0  0  0  0  0  0
  -26.0520  -36.9610   23.9340 N   0  0  0  0  0  0  0  0  0  0  0  0
  -25.5620  -37.8240   24.1560 H   0  0  0  0  0  0  0  0  0  0  0  0
  -26.5320  -31.2230   24.7200 C   0  0  1  0  0  0  0  0  0  0  0  0
  -25.4690  -30.7750   25.7490 C   0  0  0  0  0  1  0  0  0  0  0  0
  -27.2540  -29.9600   24.1980 C   0  0  0  0  0  1  0  0  0  0  0  0
  -27.5900  -32.0650   25.4720 C   0  0  0  0  0  1  0  0  0  0  0  0
  1 49  1  0
  2  7  2  0
  2  5  1  0
  3  2  1  0
  4  5  1  0
  5  1  1  0
  6  3  2  0
  6  4  1  0
  8 48  1  0
  8 17  1  0
  8  3  1  0
  9 17  1  0
 10 15  1  0
 11 12  1  0
 11 10  1  0
 13 12  1  0
 13 22  1  0
 13 14  1  0
 15  9  1  0
 15 14  1  0
 16  9  2  0
 17 18  1  0
 19 20  2  0
 20 39  1  0
 21 20  1  0
 21 24  1  0
 22 19  1  0
 22 23  1  0
 23 21  2  0
 24 25  1  0
 25 26  2  0
 27 30  1  0
 27 26  1  0
 28 27  2  0
 29 28  1  0
 29 24  2  0
 30 31  1  0
 31 36  2  0
 31 32  1  0
 32 33  2  0
 33 34  1  0
 34 38  1  0
 35 34  2  0
 36 35  1  0
 37 36  1  0
 39 40  1  0
 40 43  1  0
 40 42  1  0
 41 39  2  0
 44 45  1  0
 44 19  1  0
 46 44  1  0
 47 48  1  0
 49 50  1  0
 49 51  1  0
 52 49  1  0
 52 53  1  0
 54 53  1  0
 55 54  1  0
 56 58  1  0
 56 55  1  0
 57 68  2  0
 58 63  1  0
 59 67  1  0
 59 69  1  0
 60 66  1  0
 60 62  1  0
 61 67  1  0
 62 61  1  0
 63 62  2  0
 64 65  1  0
 64 58  2  0
 65 60  2  0
 66 59  1  0
 67 57  1  0
 69 71  2  0
 70 69  1  0
 72 70  1  0
 73 82  2  0
 73 78  1  0
 74 70  1  0
 74 78  1  0
 75 74  1  0
 76 77  1  0
 76 75  1  0
 77 73  1  0
 78 79  2  0
 79 80  1  0
 81 80  2  0
 82 81  1  0
 83 57  1  0
 83 84  1  0
 83 93  1  0
 84 87  1  0
 85 89  1  0
 85 84  1  0
 86 85  2  0
 89 88  1  0
 89 91  1  0
 91 92  1  0
 91 90  1  0
 93 96  1  1
 93 94  1  0
 95 93  1  0
M  ISO  4   9 100  17 100  55 101  56 101
M  END
>  <TORSDO>  (84) 
F 24

>  <SCORE>  (84) 
-8.407

>  <name>  (84) 
83

>  <ligand_id>  (84) 
83

>  <original_smiles>  (84) 
[H]c1c([H])c([H])c2c(c1[H])C([H])([H])C([H])([H])C([H])([H])C2([H])N([H])C(=O)C1([H])N(C(=O)C([H])(N([H])C(=O)C([H])(N([H])C([H])([H])[H])C([H])([H])[H])C(C([H])([H])[H])(C([H])([H])[H])C([H])([H])[H])C([H])([H])c2c([H])c(OC([H])([H])C([H])([H])C([H])([H])C([H])([H])[N+]([H])([H])C([H])([H])C3([H])C(=O)C(C([H])(N([H])C(=O)N4C([H])([H])C([H])([H])C([H])([H])C([H])(n5nc(-c6c([H])c([H])c(Oc7c([H])c([H])c(F)c([H])c7F)c([H])c6[H])c(C(=O)N([H])[H])c5N([H])[H])C4([H])[H])C([H])([H])C([H])([H])[H])=NC3([H])[H])c([H])c([H])c2C1([H])[H]

>  <smiles>  (84) 
[H]c1c([H])c([H])c2c(c1[H])C([H])([H])C([H])([H])C([H])([H])C2([H])N([H])C(=O)C1([H])N(C(=O)C([H])(N([H])C(=O)C([H])(N([H])C([H])([H])[H])C([H])([H])[H])C(C([H])([H])[H])(C([H])([H])[H])C([H])([H])[H])C([H])([H])c2c([H])c(OC([H])([H])C([H])([H])C([H])([H])C([H])([H])[N+]([H])([H])C([H])([H])C3([H])C(=O)C(C([H])(N([H])C(=O)N4C([H])([H])C([H])([H])C([H])([H])C([H])(n5nc(-c6c([H])c([H])c(Oc7c([H])c([H])c(F)c([H])c7F)c([H])c6[H])c(C(=O)N([H])[H])c5N([H])[H])C4([H])[H])C([H])([H])C([H])([H])[H])=NC3([H])[H])c([H])c([H])c2C1([H])[H]

$$$$
84:0:0
     RDKit          3D

 92100  0  0  1  0  0  0  0  0999 V2000
  -30.0920  -21.7060   20.6640 C   0  0  0  0  0  2  0  0  0  0  0  0
  -31.2000  -18.8470   22.3120 C   0  0  0  0  0  2  0  0  0  0  0  0
  -30.8410  -17.3590   22.1130 C   0  0  0  0  0  2  0  0  0  0  0  0
  -29.3290  -17.8800   20.1080 C   0  0  0  0  0  2  0  0  0  0  0  0
  -29.9810  -19.8020   22.3000 C   0  0  0  0  0  2  0  0  0  0  0  0
  -29.7600  -19.3540   19.8260 C   0  0  0  0  0  2  0  0  0  0  0  0
  -30.4550  -16.9730   20.6730 C   0  0  0  0  0  3  0  0  0  0  0  0
  -29.5850  -20.3190   20.9570 N   0  0  2  0  0  4  0  0  0  0  0  0
  -28.5850  -20.4420   21.0340 H   0  0  0  0  0  0  0  0  0  0  0  0
  -30.7600  -14.5220   20.1010 C   0  0  0  0  0  0  0  0  0  0  0  0
  -30.3960  -12.3660   18.9590 C   0  0  0  0  0  2  0  0  0  0  0  0
  -29.3920  -12.5750   17.8060 C   0  0  0  0  0  2  0  0  0  0  0  0
  -27.9400  -12.4550   18.3100 C   0  0  0  0  0  2  0  0  0  0  0  0
  -27.6760  -13.2950   19.5880 C   0  0  0  0  0  3  0  0  0  0  0  0
  -28.7830  -13.0560   20.6400 C   0  0  0  0  0  2  0  0  0  0  0  0
  -30.0800  -13.3490   20.0070 N   0  0  0  0  0  0  0  0  0  0  0  0
  -31.8720  -14.6930   19.5920 O   0  0  0  0  0  0  0  0  0  0  0  0
  -30.0680  -15.5470   20.6380 N   0  0  0  0  0  0  0  0  0  0  0  0
  -29.1520  -15.3100   20.9900 H   0  0  0  0  0  0  0  0  0  0  0  0
  -25.3320  -13.9320   20.4350 C   0  0  0  0  0  0  0  0  0  0  0  0
  -24.2690  -13.1700   20.8430 C   0  0  0  0  0  0  0  0  0  0  0  0
  -24.7010  -11.8110   20.7590 C   0  0  0  0  0  0  0  0  0  0  0  0
  -26.3460  -13.0360   20.1320 N   0  0  0  0  0  0  0  0  0  0  0  0
  -25.9730  -11.7550   20.3820 N   0  0  0  0  0  0  0  0  0  0  0  0
  -23.9610  -10.5590   20.9570 C   0  0  0  0  0  0  0  0  0  0  0  0
  -24.3790   -9.5950   21.9020 C   0  0  0  0  0  3  0  0  0  0  0  0
  -23.6410   -8.4070   22.0850 C   0  0  0  0  0  3  0  0  0  0  0  0
  -22.4710   -8.1730   21.3240 C   0  0  0  0  0  0  0  0  0  0  0  0
  -22.0710   -9.1250   20.3680 C   0  0  0  0  0  3  0  0  0  0  0  0
  -22.8120  -10.3050   20.1830 C   0  0  0  0  0  3  0  0  0  0  0  0
  -21.7040   -7.0370   21.4170 O   0  0  0  0  0  0  0  0  0  0  0  0
  -21.5810   -6.3460   22.5960 C   0  0  0  0  0  0  0  0  0  0  0  0
  -21.0640   -6.9500   23.7630 C   0  0  0  0  0  3  0  0  0  0  0  0
  -20.8900   -6.1860   24.9330 C   0  0  0  0  0  3  0  0  0  0  0  0
  -21.2210   -4.8190   24.9380 C   0  0  0  0  0  0  0  0  0  0  0  0
  -21.7310   -4.2130   23.7760 C   0  0  0  0  0  3  0  0  0  0  0  0
  -21.9070   -4.9740   22.6070 C   0  0  0  0  0  0  0  0  0  0  0  0
  -22.3790   -4.3820   21.4830 F   0  0  0  0  0  0  0  0  0  0  0  0
  -21.0470   -4.0810   26.0600 F   0  0  0  0  0  0  0  0  0  0  0  0
  -22.8980  -13.6660   21.2010 C   0  0  0  0  0  0  0  0  0  0  0  0
  -22.2050  -12.9620   22.0890 N   0  0  0  0  0  0  0  0  0  0  0  0
  -22.4530  -14.7140   20.7310 O   0  0  0  0  0  0  0  0  0  0  0  0
  -22.5790  -12.1130   22.4880 H   0  0  0  0  0  0  0  0  0  0  0  0
  -21.2880  -13.2750   22.3770 H   0  0  0  0  0  0  0  0  0  0  0  0
  -25.5140  -15.3020   20.2770 N   0  0  0  0  0  0  0  0  0  0  0  0
  -24.7570  -15.9630   20.4090 H   0  0  0  0  0  0  0  0  0  0  0  0
  -26.3440  -15.7260   19.8800 H   0  0  0  0  0  0  0  0  0  0  0  0
  -28.9560  -22.7730   20.6320 C   0  0  0  0  0  2  0  0  0  0  0  0
  -29.3820  -24.2780   20.5770 C   0  0  0  0  0  3  0  0  0  0  0  0
  -29.8910  -24.6050   21.7670 F   0  0  0  0  0  0  0  0  0  0  0  0
  -28.1740  -25.2050   20.2550 C   0  0  0  0  0  2  0  0  0  0  0  0
  -28.3840  -26.6430   20.2660 O   0  0  0  0  0  0  0  0  0  0  0  0
  -24.5580  -31.8910   23.2430 C   0  0  0  0  0  0  0  0  0  0  0  0
  -27.2260  -27.4110   20.2070 C   0  0  0  0  0  0  0  0  0  0  0  0
  -23.3580  -30.4560   21.6270 C   0  0  0  0  0  3  0  0  0  0  0  0
  -24.8190  -28.9230   20.2090 C   0  0  0  0  0  0  0  0  0  0  0  0
  -25.8840  -30.8350   21.4110 C   0  0  0  0  0  2  0  0  0  0  0  0
  -25.9800  -29.4580   20.7800 C   0  0  0  0  0  0  0  0  0  0  0  0
  -27.1890  -28.7140   20.7680 C   0  0  0  0  0  3  0  0  0  0  0  0
  -26.0380  -26.9110   19.6170 C   0  0  0  0  0  3  0  0  0  0  0  0
  -24.8450  -27.6510   19.6220 C   0  0  0  0  0  3  0  0  0  0  0  0
  -23.5630  -29.7630   20.2560 C   0  0  0  0  0  2  0  0  0  0  0  0
  -24.6190  -31.0770   22.1510 N   0  0  0  0  0  0  0  0  0  0  0  0
  -23.4770  -32.1570   23.7860 O   0  0  0  0  0  0  0  0  0  0  0  0
  -22.7240  -29.4390   22.6060 C   0  0  0  0  0  0  0  0  0  0  0  0
  -21.4070  -29.2190   22.4740 N   0  0  0  0  0  0  0  0  0  0  0  0
  -23.4190  -28.8490   23.4380 O   0  0  0  0  0  0  0  0  0  0  0  0
  -20.9080  -29.7480   21.7730 H   0  0  0  0  0  0  0  0  0  0  0  0
  -18.0630  -27.9310   22.9500 C   0  0  0  0  0  0  0  0  0  0  0  0
  -20.6070  -28.2780   23.2570 C   0  0  0  0  0  3  0  0  0  0  0  0
  -20.7660  -26.8340   22.7250 C   0  0  0  0  0  2  0  0  0  0  0  0
  -19.6920  -26.4460   21.7040 C   0  0  0  0  0  2  0  0  0  0  0  0
  -18.2940  -26.5680   22.3190 C   0  0  0  0  0  2  0  0  0  0  0  0
  -19.1510  -28.7410   23.3760 C   0  0  0  0  0  0  0  0  0  0  0  0
  -18.8820  -30.0150   23.9220 C   0  0  0  0  0  3  0  0  0  0  0  0
  -17.5600  -30.4780   24.0530 C   0  0  0  0  0  3  0  0  0  0  0  0
  -16.4880  -29.6650   23.6470 C   0  0  0  0  0  3  0  0  0  0  0  0
  -16.7390  -28.3950   23.1000 C   0  0  0  0  0  3  0  0  0  0  0  0
  -25.8400  -32.5440   23.8450 C   0  0  0  0  0  3  0  0  0  0  0  0
  -26.3780  -31.7960   25.1260 C   0  0  1  0  0  0  0  0  0  0  0  0
  -25.2940  -31.5560   26.2030 C   0  0  0  0  0  1  0  0  0  0  0  0
  -26.9820  -30.4250   24.7440 C   0  0  0  0  0  1  0  0  0  0  0  0
  -27.5190  -32.6190   25.7730 C   0  0  0  0  0  1  0  0  0  0  0  0
  -25.5160  -33.9420   24.1600 N   0  0  0  0  0  0  0  0  0  0  0  0
  -25.8280  -34.9870   23.3830 C   0  0  0  0  0  0  0  0  0  0  0  0
  -26.4890  -34.8810   22.3470 O   0  0  0  0  0  0  0  0  0  0  0  0
  -24.9300  -34.1010   24.9650 H   0  0  0  0  0  0  0  0  0  0  0  0
  -24.0730  -36.7510   23.0250 C   0  0  0  0  0  1  0  0  0  0  0  0
  -25.3270  -36.3740   23.8300 C   0  0  0  0  0  3  0  0  0  0  0  0
  -27.4530  -37.2960   24.6390 C   0  0  0  0  0  1  0  0  0  0  0  0
  -26.3440  -37.4390   23.6980 N   0  0  0  0  0  0  0  0  0  0  0  0
  -25.9270  -38.3550   23.8390 H   0  0  0  0  0  0  0  0  0  0  0  0
  1  8  1  0
  3  2  1  0
  4  7  1  0
  5  2  1  0
  6  4  1  0
  6  8  1  0
  7 18  1  0
  7  3  1  0
  8  9  1  1
  8  5  1  0
 10 18  1  0
 11 16  1  0
 12 13  1  0
 12 11  1  0
 14 13  1  0
 14 23  1  0
 14 15  1  0
 16 10  1  0
 16 15  1  0
 17 10  2  0
 18 19  1  0
 20 21  2  0
 21 40  1  0
 22 21  1  0
 22 25  1  0
 23 24  1  0
 23 20  1  0
 24 22  2  0
 25 26  1  0
 26 27  2  0
 28 31  1  0
 28 27  1  0
 29 28  2  0
 30 29  1  0
 30 25  2  0
 31 32  1  0
 32 37  2  0
 32 33  1  0
 33 34  2  0
 34 35  1  0
 35 39  1  0
 36 35  2  0
 37 36  1  0
 38 37  1  0
 40 41  1  0
 41 44  1  0
 41 43  1  0
 42 40  2  0
 45 46  1  0
 45 20  1  0
 47 45  1  0
 48  1  1  0
 49 48  1  0
 49 50  1  0
 51 52  1  0
 51 49  1  0
 53 64  2  0
 54 52  1  0
 54 59  1  0
 55 63  1  0
 55 65  1  0
 56 62  1  0
 56 58  1  0
 57 63  1  0
 58 57  1  0
 59 58  2  0
 60 61  1  0
 60 54  2  0
 61 56  2  0
 62 55  1  0
 63 53  1  0
 65 67  2  0
 66 65  1  0
 68 66  1  0
 69 78  2  0
 69 74  1  0
 70 66  1  0
 70 74  1  0
 71 70  1  0
 72 73  1  0
 72 71  1  0
 73 69  1  0
 74 75  2  0
 75 76  1  0
 77 76  2  0
 78 77  1  0
 79 53  1  0
 79 84  1  0
 79 80  1  0
 80 83  1  1
 80 81  1  0
 82 80  1  0
 84 87  1  0
 85 89  1  0
 85 84  1  0
 86 85  2  0
 89 88  1  0
 91 89  1  0
 91 92  1  0
 91 90  1  0
M  ISO  4  10 100  18 100  51 101  52 101
M  END
>  <TORSDO>  (85) 
F 20

>  <SCORE>  (85) 
-13.216

>  <name>  (85) 
84

>  <ligand_id>  (85) 
84

>  <original_smiles>  (85) 
[H]c1c([H])c([H])c2c(c1[H])C([H])([H])C([H])([H])C([H])([H])C2([H])N([H])C(=O)C1([H])N(C(=O)C([H])(N([H])C(=O)C([H])(N([H])C([H])([H])[H])C([H])([H])[H])C(C([H])([H])[H])(C([H])([H])[H])C([H])([H])[H])C([H])([H])c2c([H])c(OC([H])([H])C([H])(F)C([H])([H])C([H])([H])[N+]3([H])C([H])([H])C([H])([H])C([H])([H])C([H])(N([H])C(=O)N4C([H])([H])C([H])([H])C([H])([H])C([H])(n5nc(-c6c([H])c([H])c(Oc7c([H])c([H])c(F)c([H])c7F)c([H])c6[H])c(C(=O)N([H])[H])c5N([H])[H])C4([H])[H])C([H])([H])C3([H])[H])c([H])c([H])c2C1([H])[H]

>  <smiles>  (85) 
[H]c1c([H])c([H])c2c(c1[H])C([H])([H])C([H])([H])C([H])([H])C2([H])N([H])C(=O)C1([H])N(C(=O)C([H])(N([H])C(=O)C([H])(N([H])C([H])([H])[H])C([H])([H])[H])C(C([H])([H])[H])(C([H])([H])[H])C([H])([H])[H])C([H])([H])c2c([H])c(OC([H])([H])C([H])(F)C([H])([H])C([H])([H])[N+]3([H])C([H])([H])C([H])([H])C([H])([H])C([H])(N([H])C(=O)N4C([H])([H])C([H])([H])C([H])([H])C([H])(n5nc(-c6c([H])c([H])c(Oc7c([H])c([H])c(F)c([H])c7F)c([H])c6[H])c(C(=O)N([H])[H])c5N([H])[H])C4([H])[H])C([H])([H])C3([H])[H])c([H])c([H])c2C1([H])[H]

$$$$
85:0:0
     RDKit          3D

 98106  0  0  1  0  0  0  0  0999 V2000
  -32.4970  -21.2410   19.0880 C   0  0  0  0  0  2  0  0  0  0  0  0
  -32.4270  -19.9800   19.9990 C   0  0  0  0  0  2  0  0  0  0  0  0
  -31.0260  -19.6850   20.3820 N   0  0  0  0  0  4  0  0  0  0  0  0
  -30.8440  -19.9490   21.3350 H   0  0  0  0  0  0  0  0  0  0  0  0
  -30.4690  -20.2820   19.7910 H   0  0  0  0  0  0  0  0  0  0  0  0
  -30.6550  -14.6430   20.2990 C   0  0  0  0  0  0  0  0  0  0  0  0
  -30.3160  -12.4600   19.1780 C   0  0  0  0  0  2  0  0  0  0  0  0
  -29.3450  -12.6010   17.9880 C   0  0  0  0  0  2  0  0  0  0  0  0
  -27.8890  -12.3940   18.4580 C   0  0  0  0  0  2  0  0  0  0  0  0
  -27.5580  -13.2240   19.7200 C   0  0  0  0  0  3  0  0  0  0  0  0
  -28.6610  -13.0790   20.8030 C   0  0  0  0  0  2  0  0  0  0  0  0
  -29.9320  -13.4790   20.1770 N   0  0  0  0  0  0  0  0  0  0  0  0
  -31.8390  -14.6590   19.9590 O   0  0  0  0  0  0  0  0  0  0  0  0
  -30.2260  -18.0670   18.6000 C   0  0  0  0  0  0  0  0  0  0  0  0
  -28.1660  -16.7820   19.1620 C   0  0  0  0  0  2  0  0  0  0  0  0
  -28.6310  -16.2150   20.5510 C   0  0  0  0  0  2  0  0  0  0  0  0
  -30.8730  -17.0910   20.9120 C   0  0  0  0  0  2  0  0  0  0  0  0
  -30.4070  -18.3610   20.0970 C   0  0  0  0  0  3  0  0  0  0  0  0
  -29.2210  -17.2600   18.2630 N   0  0  0  0  0  0  0  0  0  0  0  0
  -30.0630  -15.8470   20.6390 N   0  0  0  0  0  0  0  0  0  0  0  0
  -30.9830  -18.5360   17.7510 O   0  0  0  0  0  0  0  0  0  0  0  0
  -29.1040  -17.0770   17.2740 H   0  0  0  0  0  0  0  0  0  0  0  0
  -25.1810  -13.8700   20.4730 C   0  0  0  0  0  0  0  0  0  0  0  0
  -24.1180  -13.1100   20.8610 C   0  0  0  0  0  0  0  0  0  0  0  0
  -24.5770  -11.7550   20.8300 C   0  0  0  0  0  0  0  0  0  0  0  0
  -26.2200  -12.9810   20.2320 N   0  0  0  0  0  0  0  0  0  0  0  0
  -25.8610  -11.7070   20.5070 N   0  0  0  0  0  0  0  0  0  0  0  0
  -23.8570  -10.4990   21.0310 C   0  0  0  0  0  0  0  0  0  0  0  0
  -24.3060   -9.5330   21.9560 C   0  0  0  0  0  3  0  0  0  0  0  0
  -23.5910   -8.3300   22.1380 C   0  0  0  0  0  3  0  0  0  0  0  0
  -22.4140   -8.0890   21.3920 C   0  0  0  0  0  0  0  0  0  0  0  0
  -21.9850   -9.0430   20.4530 C   0  0  0  0  0  3  0  0  0  0  0  0
  -22.7010  -10.2350   20.2690 C   0  0  0  0  0  3  0  0  0  0  0  0
  -21.6690   -6.9380   21.4840 O   0  0  0  0  0  0  0  0  0  0  0  0
  -21.6380   -6.1970   22.6350 C   0  0  0  0  0  0  0  0  0  0  0  0
  -21.2240   -6.7480   23.8670 C   0  0  0  0  0  3  0  0  0  0  0  0
  -21.1470   -5.9310   25.0130 C   0  0  0  0  0  3  0  0  0  0  0  0
  -21.4690   -4.5650   24.9280 C   0  0  0  0  0  0  0  0  0  0  0  0
  -21.8750   -4.0110   23.7000 C   0  0  0  0  0  3  0  0  0  0  0  0
  -21.9600   -4.8260   22.5570 C   0  0  0  0  0  0  0  0  0  0  0  0
  -22.3340   -4.2860   21.3710 F   0  0  0  0  0  0  0  0  0  0  0  0
  -21.3840   -3.7760   26.0250 F   0  0  0  0  0  0  0  0  0  0  0  0
  -22.7230  -13.5900   21.1440 C   0  0  0  0  0  0  0  0  0  0  0  0
  -22.0000  -12.8970   22.0170 N   0  0  0  0  0  0  0  0  0  0  0  0
  -22.2830  -14.6170   20.6290 O   0  0  0  0  0  0  0  0  0  0  0  0
  -22.3690  -12.0650   22.4550 H   0  0  0  0  0  0  0  0  0  0  0  0
  -21.0650  -13.2010   22.2490 H   0  0  0  0  0  0  0  0  0  0  0  0
  -25.3360  -15.2400   20.2850 N   0  0  0  0  0  0  0  0  0  0  0  0
  -24.5560  -15.8810   20.3750 H   0  0  0  0  0  0  0  0  0  0  0  0
  -26.1860  -15.6800   19.9690 H   0  0  0  0  0  0  0  0  0  0  0  0
  -32.8920  -22.6010   19.7350 C   0  0  0  0  0  2  0  0  0  0  0  0
  -31.8180  -23.3150   20.4860 N   0  0  0  0  0  4  0  0  0  0  0  0
  -32.2760  -24.0860   20.9520 H   0  0  0  0  0  0  0  0  0  0  0  0
  -31.4570  -22.7290   21.2230 H   0  0  0  0  0  0  0  0  0  0  0  0
  -30.7180  -23.8960   19.6620 C   0  0  0  0  0  2  0  0  0  0  0  0
  -29.9150  -24.9720   20.4340 C   0  0  0  0  0  2  0  0  0  0  0  0
  -28.6000  -25.4570   19.7720 C   0  0  0  0  0  2  0  0  0  0  0  0
  -28.4380  -26.8000   20.2140 O   0  0  0  0  0  0  0  0  0  0  0  0
  -24.5600  -31.8760   23.2370 C   0  0  0  0  0  0  0  0  0  0  0  0
  -27.2160  -27.4440   20.1850 C   0  0  0  0  0  0  0  0  0  0  0  0
  -23.3420  -30.4680   21.5990 C   0  0  0  0  0  3  0  0  0  0  0  0
  -24.8000  -28.9180   20.1860 C   0  0  0  0  0  0  0  0  0  0  0  0
  -25.8610  -30.8450   21.3850 C   0  0  0  0  0  2  0  0  0  0  0  0
  -25.9540  -29.4640   20.7660 C   0  0  0  0  0  0  0  0  0  0  0  0
  -27.1560  -28.7290   20.7660 C   0  0  0  0  0  3  0  0  0  0  0  0
  -26.0420  -26.8930   19.6220 C   0  0  0  0  0  3  0  0  0  0  0  0
  -24.8370  -27.6280   19.6150 C   0  0  0  0  0  3  0  0  0  0  0  0
  -23.5460  -29.7660   20.2260 C   0  0  0  0  0  2  0  0  0  0  0  0
  -24.6040  -31.0770   22.1350 N   0  0  0  0  0  0  0  0  0  0  0  0
  -23.4810  -32.1530   23.7790 O   0  0  0  0  0  0  0  0  0  0  0  0
  -22.6960  -29.4560   22.5720 C   0  0  0  0  0  0  0  0  0  0  0  0
  -21.3720  -29.2710   22.4450 N   0  0  0  0  0  0  0  0  0  0  0  0
  -23.3820  -28.8370   23.3910 O   0  0  0  0  0  0  0  0  0  0  0  0
  -20.8790  -29.8260   21.7600 H   0  0  0  0  0  0  0  0  0  0  0  0
  -17.9960  -28.1020   22.9540 C   0  0  0  0  0  0  0  0  0  0  0  0
  -20.5560  -28.3400   23.2200 C   0  0  0  0  0  3  0  0  0  0  0  0
  -20.6460  -26.9070   22.6450 C   0  0  0  0  0  2  0  0  0  0  0  0
  -19.5380  -26.5920   21.6330 C   0  0  0  0  0  2  0  0  0  0  0  0
  -18.1610  -26.7510   22.2820 C   0  0  0  0  0  2  0  0  0  0  0  0
  -19.1210  -28.8550   23.3810 C   0  0  0  0  0  0  0  0  0  0  0  0
  -18.9150  -30.1240   23.9670 C   0  0  0  0  0  3  0  0  0  0  0  0
  -17.6140  -30.6370   24.1320 C   0  0  0  0  0  3  0  0  0  0  0  0
  -16.5030  -29.8790   23.7220 C   0  0  0  0  0  3  0  0  0  0  0  0
  -16.6950  -28.6130   23.1410 C   0  0  0  0  0  3  0  0  0  0  0  0
  -25.8550  -32.5030   23.8500 C   0  0  0  0  0  3  0  0  0  0  0  0
  -25.5500  -33.9000   24.1780 N   0  0  0  0  0  0  0  0  0  0  0  0
  -25.8880  -34.9490   23.4150 C   0  0  0  0  0  0  0  0  0  0  0  0
  -26.5610  -34.8400   22.3870 O   0  0  0  0  0  0  0  0  0  0  0  0
  -24.9470  -34.0620   24.9710 H   0  0  0  0  0  0  0  0  0  0  0  0
  -24.1690  -36.7440   23.0470 C   0  0  0  0  0  1  0  0  0  0  0  0
  -25.4030  -36.3380   23.8670 C   0  0  0  0  0  3  0  0  0  0  0  0
  -27.5350  -37.2160   24.7100 C   0  0  0  0  0  1  0  0  0  0  0  0
  -26.4400  -37.3870   23.7600 N   0  0  0  0  0  0  0  0  0  0  0  0
  -26.0330  -38.3070   23.9040 H   0  0  0  0  0  0  0  0  0  0  0  0
  -26.3770  -31.7310   25.1240 C   0  0  1  0  0  0  0  0  0  0  0  0
  -25.2840  -31.5000   26.1950 C   0  0  0  0  0  1  0  0  0  0  0  0
  -26.9510  -30.3480   24.7290 C   0  0  0  0  0  1  0  0  0  0  0  0
  -27.5280  -32.5210   25.7840 C   0  0  0  0  0  1  0  0  0  0  0  0
  1 51  1  0
  1  2  1  0
  2  3  1  0
  3  4  1  0
  5  3  1  0
  6 20  1  0
  7 12  1  0
  8  9  1  0
  8  7  1  0
 10  9  1  0
 10 26  1  0
 10 11  1  0
 12  6  1  0
 12 11  1  0
 13  6  2  0
 14 18  1  0
 15 16  1  0
 16 20  1  0
 18  3  1  0
 18 17  1  0
 19 14  1  0
 19 15  1  0
 20 17  1  0
 21 14  2  0
 22 19  1  0
 23 24  2  0
 24 43  1  0
 25 24  1  0
 25 28  1  0
 26 23  1  0
 26 27  1  0
 27 25  2  0
 28 29  1  0
 29 30  2  0
 31 34  1  0
 31 30  1  0
 32 31  2  0
 33 32  1  0
 33 28  2  0
 34 35  1  0
 35 36  1  0
 36 37  2  0
 38 37  1  0
 38 42  1  0
 39 38  2  0
 40 35  2  0
 40 39  1  0
 41 40  1  0
 43 44  1  0
 44 47  1  0
 44 46  1  0
 45 43  2  0
 48 49  1  0
 48 23  1  0
 50 48  1  0
 51 52  1  0
 52 53  1  0
 52 54  1  0
 55 56  1  0
 55 52  1  0
 57 58  1  0
 57 56  1  0
 59 70  2  0
 60 58  1  0
 60 65  1  0
 61 69  1  0
 61 71  1  0
 62 68  1  0
 62 64  1  0
 63 69  1  0
 64 65  2  0
 64 63  1  0
 66 60  2  0
 67 66  1  0
 67 62  2  0
 68 61  1  0
 69 59  1  0
 71 73  2  0
 72 71  1  0
 74 72  1  0
 75 84  2  0
 75 80  1  0
 76 72  1  0
 76 80  1  0
 77 76  1  0
 78 79  1  0
 78 77  1  0
 79 75  1  0
 80 81  2  0
 81 82  1  0
 83 82  2  0
 84 83  1  0
 85 59  1  0
 85 86  1  0
 85 95  1  0
 86 89  1  0
 87 91  1  0
 87 86  1  0
 88 87  2  0
 91 90  1  0
 93 91  1  0
 93 94  1  0
 93 92  1  0
 95 98  1  1
 95 96  1  0
 97 95  1  0
M  ISO  4   6 100  20 100  57 101  58 101
M  END
>  <TORSDO>  (86) 
F 23

>  <SCORE>  (86) 
-13.197

>  <name>  (86) 
85

>  <ligand_id>  (86) 
85

>  <original_smiles>  (86) 
[H]c1c([H])c([H])c2c(c1[H])C([H])([H])C([H])([H])C([H])([H])C2([H])N([H])C(=O)C1([H])N(C(=O)C([H])(N([H])C(=O)C([H])(N([H])C([H])([H])[H])C([H])([H])[H])C(C([H])([H])[H])(C([H])([H])[H])C([H])([H])[H])C([H])([H])c2c([H])c(OC([H])([H])C([H])([H])C([H])([H])[N+]([H])([H])C([H])([H])C([H])([H])C([H])([H])[N+]([H])([H])C3([H])C(=O)N([H])C([H])([H])C([H])([H])N(C(=O)N4C([H])([H])C([H])([H])C([H])([H])C([H])(n5nc(-c6c([H])c([H])c(Oc7c([H])c([H])c(F)c([H])c7F)c([H])c6[H])c(C(=O)N([H])[H])c5N([H])[H])C4([H])[H])C3([H])[H])c([H])c([H])c2C1([H])[H]

>  <smiles>  (86) 
[H]c1c([H])c([H])c2c(c1[H])C([H])([H])C([H])([H])C([H])([H])C2([H])N([H])C(=O)C1([H])N(C(=O)C([H])(N([H])C(=O)C([H])(N([H])C([H])([H])[H])C([H])([H])[H])C(C([H])([H])[H])(C([H])([H])[H])C([H])([H])[H])C([H])([H])c2c([H])c(OC([H])([H])C([H])([H])C([H])([H])[N+]([H])([H])C([H])([H])C([H])([H])C([H])([H])[N+]([H])([H])C3([H])C(=O)N([H])C([H])([H])C([H])([H])N(C(=O)N4C([H])([H])C([H])([H])C([H])([H])C([H])(n5nc(-c6c([H])c([H])c(Oc7c([H])c([H])c(F)c([H])c7F)c([H])c6[H])c(C(=O)N([H])[H])c5N([H])[H])C4([H])[H])C3([H])[H])c([H])c([H])c2C1([H])[H]

$$$$
86:0:0
     RDKit          3D

 96105  0  0  1  0  0  0  0  0999 V2000
  -31.7760  -22.8020   22.3690 C   0  0  0  0  0  2  0  0  0  0  0  0
  -31.4100  -21.3540   22.6610 C   0  0  0  0  0  2  0  0  0  0  0  0
  -31.4270  -22.9380   20.8900 C   0  0  0  0  0  2  0  0  0  0  0  0
  -30.2180  -21.0600   21.7270 C   0  0  0  0  0  3  0  0  0  0  0  0
  -30.1920  -22.1380   20.6790 N   0  0  1  0  0  4  0  0  0  0  0  0
  -30.2500  -21.7180   19.7630 H   0  0  0  0  0  0  0  0  0  0  0  0
  -29.0570  -18.8000   21.5310 C   0  0  0  0  0  3  0  0  0  0  0  0
  -29.0620  -17.4090   21.2940 C   0  0  0  0  0  3  0  0  0  0  0  0
  -31.3230  -17.5540   20.4290 C   0  0  0  0  0  3  0  0  0  0  0  0
  -30.1930  -19.5910   21.2500 C   0  0  0  0  0  0  0  0  0  0  0  0
  -30.1990  -16.7590   20.7700 C   0  0  0  0  0  0  0  0  0  0  0  0
  -31.3170  -18.9540   20.6640 C   0  0  0  0  0  0  0  0  0  0  0  0
  -32.4150  -19.6810   20.3490 F   0  0  0  0  0  0  0  0  0  0  0  0
  -30.7710  -14.4400   19.8680 C   0  0  0  0  0  0  0  0  0  0  0  0
  -30.4090  -12.3210   18.6420 C   0  0  0  0  0  2  0  0  0  0  0  0
  -29.3430  -12.5560   17.5490 C   0  0  0  0  0  2  0  0  0  0  0  0
  -27.9170  -12.3940   18.1160 C   0  0  0  0  0  2  0  0  0  0  0  0
  -27.7060  -13.1790   19.4370 C   0  0  0  0  0  3  0  0  0  0  0  0
  -28.8610  -12.8890   20.4220 C   0  0  0  0  0  2  0  0  0  0  0  0
  -30.1280  -13.2450   19.7510 N   0  0  0  0  0  0  0  0  0  0  0  0
  -31.8200  -14.6970   19.2680 O   0  0  0  0  0  0  0  0  0  0  0  0
  -30.1050  -15.3360   20.6270 N   0  0  0  0  0  0  0  0  0  0  0  0
  -29.3130  -14.9200   21.0930 H   0  0  0  0  0  0  0  0  0  0  0  0
  -25.3860  -13.7680   20.3870 C   0  0  0  0  0  0  0  0  0  0  0  0
  -24.3550  -12.9850   20.8330 C   0  0  0  0  0  0  0  0  0  0  0  0
  -24.8070  -11.6360   20.7170 C   0  0  0  0  0  0  0  0  0  0  0  0
  -26.4010  -12.8940   20.0320 N   0  0  0  0  0  0  0  0  0  0  0  0
  -26.0610  -11.6050   20.2840 N   0  0  0  0  0  0  0  0  0  0  0  0
  -24.1000  -10.3670   20.9370 C   0  0  0  0  0  0  0  0  0  0  0  0
  -24.5680   -9.4130   21.8670 C   0  0  0  0  0  3  0  0  0  0  0  0
  -23.8610   -8.2090   22.0730 C   0  0  0  0  0  3  0  0  0  0  0  0
  -22.6730   -7.9500   21.3490 C   0  0  0  0  0  0  0  0  0  0  0  0
  -22.2240   -8.8930   20.4090 C   0  0  0  0  0  3  0  0  0  0  0  0
  -22.9310  -10.0890   20.2000 C   0  0  0  0  0  3  0  0  0  0  0  0
  -21.9350   -6.7980   21.4660 O   0  0  0  0  0  0  0  0  0  0  0  0
  -21.8420   -6.1180   22.6540 C   0  0  0  0  0  0  0  0  0  0  0  0
  -21.3490   -6.7320   23.8260 C   0  0  0  0  0  3  0  0  0  0  0  0
  -21.2060   -5.9780   25.0080 C   0  0  0  0  0  3  0  0  0  0  0  0
  -21.5460   -4.6120   25.0190 C   0  0  0  0  0  0  0  0  0  0  0  0
  -22.0320   -3.9980   23.8510 C   0  0  0  0  0  3  0  0  0  0  0  0
  -22.1770   -4.7490   22.6710 C   0  0  0  0  0  0  0  0  0  0  0  0
  -22.6260   -4.1480   21.5430 F   0  0  0  0  0  0  0  0  0  0  0  0
  -21.4010   -3.8860   26.1520 F   0  0  0  0  0  0  0  0  0  0  0  0
  -22.9920  -13.4540   21.2560 C   0  0  0  0  0  0  0  0  0  0  0  0
  -22.3630  -12.7460   22.1890 N   0  0  0  0  0  0  0  0  0  0  0  0
  -22.4960  -14.4800   20.7940 O   0  0  0  0  0  0  0  0  0  0  0  0
  -22.7780  -11.9150   22.5840 H   0  0  0  0  0  0  0  0  0  0  0  0
  -21.4530  -13.0410   22.5140 H   0  0  0  0  0  0  0  0  0  0  0  0
  -25.5390  -15.1430   20.2380 N   0  0  0  0  0  0  0  0  0  0  0  0
  -24.7880  -15.7960   20.4370 H   0  0  0  0  0  0  0  0  0  0  0  0
  -26.3530  -15.5900   19.8360 H   0  0  0  0  0  0  0  0  0  0  0  0
  -28.9310  -22.9560   20.7090 C   0  0  0  0  0  2  0  0  0  0  0  0
  -28.8480  -24.1870   19.7440 C   0  0  0  0  0  3  0  0  0  0  0  0
  -29.8160  -24.1380   18.8240 F   0  0  0  0  0  0  0  0  0  0  0  0
  -28.8400  -25.5630   20.4740 C   0  0  0  0  0  2  0  0  0  0  0  0
  -28.6910  -26.7000   19.6080 O   0  0  0  0  0  0  0  0  0  0  0  0
  -24.7000  -31.5370   23.0280 C   0  0  0  0  0  0  0  0  0  0  0  0
  -27.4980  -27.3820   19.6970 C   0  0  0  0  0  0  0  0  0  0  0  0
  -23.5460  -30.2090   21.2890 C   0  0  0  0  0  3  0  0  0  0  0  0
  -25.0550  -28.8040   19.7850 C   0  0  0  0  0  0  0  0  0  0  0  0
  -26.0600  -30.6550   21.1330 C   0  0  0  0  0  2  0  0  0  0  0  0
  -26.1930  -29.3280   20.4130 C   0  0  0  0  0  0  0  0  0  0  0  0
  -27.4190  -28.6250   20.3660 C   0  0  0  0  0  3  0  0  0  0  0  0
  -26.3470  -26.8660   19.0680 C   0  0  0  0  0  3  0  0  0  0  0  0
  -25.1270  -27.5720   19.1100 C   0  0  0  0  0  3  0  0  0  0  0  0
  -23.7860  -29.6220   19.8720 C   0  0  0  0  0  2  0  0  0  0  0  0
  -24.7870  -30.8120   21.8770 N   0  0  0  0  0  0  0  0  0  0  0  0
  -23.6090  -31.7420   23.5770 O   0  0  0  0  0  0  0  0  0  0  0  0
  -22.9200  -29.1100   22.1790 C   0  0  0  0  0  0  0  0  0  0  0  0
  -21.5940  -28.9320   22.0650 N   0  0  0  0  0  0  0  0  0  0  0  0
  -23.6240  -28.4250   22.9250 O   0  0  0  0  0  0  0  0  0  0  0  0
  -21.0870  -29.5390   21.4360 H   0  0  0  0  0  0  0  0  0  0  0  0
  -18.2270  -27.7320   22.5920 C   0  0  0  0  0  0  0  0  0  0  0  0
  -20.7980  -27.9290   22.7720 C   0  0  0  0  0  3  0  0  0  0  0  0
  -20.8510  -26.5640   22.0490 C   0  0  0  0  0  2  0  0  0  0  0  0
  -19.7010  -26.3610   21.0580 C   0  0  0  0  0  2  0  0  0  0  0  0
  -18.3510  -26.4560   21.7760 C   0  0  0  0  0  2  0  0  0  0  0  0
  -19.3760  -28.4330   23.0460 C   0  0  0  0  0  0  0  0  0  0  0  0
  -19.2050  -29.6320   23.7710 C   0  0  0  0  0  3  0  0  0  0  0  0
  -17.9180  -30.1300   24.0460 C   0  0  0  0  0  3  0  0  0  0  0  0
  -16.7830  -29.4260   23.6070 C   0  0  0  0  0  3  0  0  0  0  0  0
  -16.9390  -28.2280   22.8870 C   0  0  0  0  0  3  0  0  0  0  0  0
  -25.9650  -32.1640   23.6970 C   0  0  0  0  0  3  0  0  0  0  0  0
  -26.4850  -31.3390   24.9370 C   0  0  1  0  0  0  0  0  0  0  0  0
  -25.3880  -31.0230   25.9790 C   0  0  0  0  0  1  0  0  0  0  0  0
  -27.1020  -29.9970   24.4790 C   0  0  0  0  0  1  0  0  0  0  0  0
  -27.6120  -32.1220   25.6520 C   0  0  0  0  0  1  0  0  0  0  0  0
  -25.6220  -33.5370   24.0930 N   0  0  0  0  0  0  0  0  0  0  0  0
  -25.9480  -34.6320   23.3940 C   0  0  0  0  0  0  0  0  0  0  0  0
  -26.6420  -34.5950   22.3740 O   0  0  0  0  0  0  0  0  0  0  0  0
  -25.0080  -33.6390   24.8870 H   0  0  0  0  0  0  0  0  0  0  0  0
  -24.2000  -36.4120   23.0840 C   0  0  0  0  0  1  0  0  0  0  0  0
  -25.4230  -35.9860   23.9100 C   0  0  0  0  0  3  0  0  0  0  0  0
  -27.5140  -36.8620   24.8540 C   0  0  0  0  0  1  0  0  0  0  0  0
  -26.4390  -37.0610   23.8850 N   0  0  0  0  0  0  0  0  0  0  0  0
  -26.0120  -37.9640   24.0670 H   0  0  0  0  0  0  0  0  0  0  0  0
  1  2  1  0
  3  1  1  0
  4 10  1  0
  4  2  1  0
  5 52  1  0
  5  3  1  0
  5  4  1  0
  5  6  1  6
  8  7  1  0
  9 12  2  0
  9 11  1  0
 10  7  2  0
 11  8  2  0
 12 10  1  0
 13 12  1  0
 14 22  1  0
 15 20  1  0
 16 17  1  0
 16 15  1  0
 18 17  1  0
 18 27  1  0
 18 19  1  0
 20 14  1  0
 20 19  1  0
 21 14  2  0
 22 11  1  0
 22 23  1  0
 24 25  2  0
 25 44  1  0
 26 25  1  0
 26 29  1  0
 27 28  1  0
 27 24  1  0
 28 26  2  0
 29 30  1  0
 30 31  2  0
 32 35  1  0
 32 31  1  0
 33 32  2  0
 34 33  1  0
 34 29  2  0
 35 36  1  0
 36 41  2  0
 36 37  1  0
 37 38  2  0
 38 39  1  0
 39 43  1  0
 40 39  2  0
 41 40  1  0
 42 41  1  0
 44 45  1  0
 45 48  1  0
 45 47  1  0
 46 44  2  0
 49 24  1  0
 49 50  1  0
 51 49  1  0
 53 54  1  0
 53 55  1  0
 53 52  1  0
 56 58  1  0
 56 55  1  0
 57 68  2  0
 58 63  1  0
 59 67  1  0
 59 69  1  0
 60 66  1  0
 60 62  1  0
 61 67  1  0
 62 61  1  0
 63 62  2  0
 64 65  1  0
 64 58  2  0
 65 60  2  0
 66 59  1  0
 67 57  1  0
 69 71  2  0
 70 69  1  0
 72 70  1  0
 73 82  2  0
 73 78  1  0
 74 70  1  0
 74 78  1  0
 75 74  1  0
 76 77  1  0
 76 75  1  0
 77 73  1  0
 78 79  2  0
 79 80  1  0
 81 80  2  0
 82 81  1  0
 83 57  1  0
 83 88  1  0
 83 84  1  0
 84 87  1  1
 84 85  1  0
 86 84  1  0
 88 91  1  0
 89 93  1  0
 89 88  1  0
 90 89  2  0
 93 92  1  0
 95 93  1  0
 95 96  1  0
 95 94  1  0
M  ISO  4  14 100  22 100  55 101  56 101
M  END
>  <TORSDO>  (87) 
F 20

>  <SCORE>  (87) 
-10.596

>  <name>  (87) 
86

>  <ligand_id>  (87) 
86

>  <original_smiles>  (87) 
[H]c1c([H])c([H])c2c(c1[H])C([H])([H])C([H])([H])C([H])([H])C2([H])N([H])C(=O)C1([H])N(C(=O)C([H])(N([H])C(=O)C([H])(N([H])C([H])([H])[H])C([H])([H])[H])C(C([H])([H])[H])(C([H])([H])[H])C([H])([H])[H])C([H])([H])c2c([H])c(OC([H])([H])C([H])(F)C([H])([H])[N+]3([H])C([H])([H])C([H])([H])C([H])([H])C3([H])c3c([H])c([H])c(N([H])C(=O)N4C([H])([H])C([H])([H])C([H])([H])C([H])(n5nc(-c6c([H])c([H])c(Oc7c([H])c([H])c(F)c([H])c7F)c([H])c6[H])c(C(=O)N([H])[H])c5N([H])[H])C4([H])[H])c([H])c3F)c([H])c([H])c2C1([H])[H]

>  <smiles>  (87) 
[H]c1c([H])c([H])c2c(c1[H])C([H])([H])C([H])([H])C([H])([H])C2([H])N([H])C(=O)C1([H])N(C(=O)C([H])(N([H])C(=O)C([H])(N([H])C([H])([H])[H])C([H])([H])[H])C(C([H])([H])[H])(C([H])([H])[H])C([H])([H])[H])C([H])([H])c2c([H])c(OC([H])([H])C([H])(F)C([H])([H])[N+]3([H])C([H])([H])C([H])([H])C([H])([H])C3([H])c3c([H])c([H])c(N([H])C(=O)N4C([H])([H])C([H])([H])C([H])([H])C([H])(n5nc(-c6c([H])c([H])c(Oc7c([H])c([H])c(F)c([H])c7F)c([H])c6[H])c(C(=O)N([H])[H])c5N([H])[H])C4([H])[H])c([H])c3F)c([H])c([H])c2C1([H])[H]

$$$$
87:0:0
     RDKit          3D

 95103  0  0  1  0  0  0  0  0999 V2000
  -30.2110  -22.7100   19.9990 C   0  0  0  0  0  2  0  0  0  0  0  0
  -31.1480  -23.7080   19.4220 N   0  0  0  0  0  4  0  0  0  0  0  0
  -31.3000  -23.5280   18.4410 H   0  0  0  0  0  0  0  0  0  0  0  0
  -32.0400  -23.5670   19.8700 H   0  0  0  0  0  0  0  0  0  0  0  0
  -30.8310  -25.1380   19.6400 C   0  0  0  0  0  2  0  0  0  0  0  0
  -29.9140  -25.7540   18.5660 C   0  0  0  0  0  2  0  0  0  0  0  0
  -28.4320  -25.8350   18.9540 C   0  0  0  0  0  2  0  0  0  0  0  0
  -28.2700  -26.7620   20.0340 O   0  0  0  0  0  0  0  0  0  0  0  0
  -24.5290  -31.9230   23.2310 C   0  0  0  0  0  0  0  0  0  0  0  0
  -27.0770  -27.4500   20.1020 C   0  0  0  0  0  0  0  0  0  0  0  0
  -23.2810  -30.5330   21.6090 C   0  0  0  0  0  3  0  0  0  0  0  0
  -24.6930  -28.9660   20.1800 C   0  0  0  0  0  0  0  0  0  0  0  0
  -25.8070  -30.8550   21.3760 C   0  0  0  0  0  2  0  0  0  0  0  0
  -25.8650  -29.4790   20.7470 C   0  0  0  0  0  0  0  0  0  0  0  0
  -27.0570  -28.7200   20.7180 C   0  0  0  0  0  3  0  0  0  0  0  0
  -25.8770  -26.9330   19.5630 C   0  0  0  0  0  3  0  0  0  0  0  0
  -24.6880  -27.6850   19.6000 C   0  0  0  0  0  3  0  0  0  0  0  0
  -23.4670  -29.8450   20.2300 C   0  0  0  0  0  2  0  0  0  0  0  0
  -24.5600  -31.1160   22.1310 N   0  0  0  0  0  0  0  0  0  0  0  0
  -23.4590  -32.2090   23.7850 O   0  0  0  0  0  0  0  0  0  0  0  0
  -22.6280  -29.5230   22.5800 C   0  0  0  0  0  0  0  0  0  0  0  0
  -21.3020  -29.3490   22.4640 N   0  0  0  0  0  0  0  0  0  0  0  0
  -23.3130  -28.8980   23.3960 O   0  0  0  0  0  0  0  0  0  0  0  0
  -20.8100  -29.9040   21.7750 H   0  0  0  0  0  0  0  0  0  0  0  0
  -17.9270  -28.1670   22.9730 C   0  0  0  0  0  0  0  0  0  0  0  0
  -20.4840  -28.4250   23.2500 C   0  0  0  0  0  3  0  0  0  0  0  0
  -20.5870  -26.9840   22.6970 C   0  0  0  0  0  2  0  0  0  0  0  0
  -19.4880  -26.6470   21.6850 C   0  0  0  0  0  2  0  0  0  0  0  0
  -18.1050  -26.8060   22.3210 C   0  0  0  0  0  2  0  0  0  0  0  0
  -19.0460  -28.9330   23.3940 C   0  0  0  0  0  0  0  0  0  0  0  0
  -18.8290  -30.2070   23.9650 C   0  0  0  0  0  3  0  0  0  0  0  0
  -17.5250  -30.7140   24.1150 C   0  0  0  0  0  3  0  0  0  0  0  0
  -16.4210  -29.9460   23.7080 C   0  0  0  0  0  3  0  0  0  0  0  0
  -16.6230  -28.6730   23.1440 C   0  0  0  0  0  3  0  0  0  0  0  0
  -25.8320  -32.5380   23.8270 C   0  0  0  0  0  3  0  0  0  0  0  0
  -25.5430  -33.9360   24.1750 N   0  0  0  0  0  0  0  0  0  0  0  0
  -25.8770  -34.9900   23.4190 C   0  0  0  0  0  0  0  0  0  0  0  0
  -26.5320  -34.8890   22.3780 O   0  0  0  0  0  0  0  0  0  0  0  0
  -24.9580  -34.0880   24.9830 H   0  0  0  0  0  0  0  0  0  0  0  0
  -24.1580  -36.7970   23.1040 C   0  0  0  0  0  1  0  0  0  0  0  0
  -25.4090  -36.3790   23.8920 C   0  0  0  0  0  3  0  0  0  0  0  0
  -27.5660  -37.2330   24.6930 C   0  0  0  0  0  1  0  0  0  0  0  0
  -26.4490  -37.4240   23.7730 N   0  0  0  0  0  0  0  0  0  0  0  0
  -26.0540  -38.3450   23.9420 H   0  0  0  0  0  0  0  0  0  0  0  0
  -26.3710  -31.7530   25.0850 C   0  0  1  0  0  0  0  0  0  0  0  0
  -25.3000  -31.5200   26.1770 C   0  0  0  0  0  1  0  0  0  0  0  0
  -26.9300  -30.3740   24.6650 C   0  0  0  0  0  1  0  0  0  0  0  0
  -27.5430  -32.5320   25.7280 C   0  0  0  0  0  1  0  0  0  0  0  0
  -30.9860  -21.4480   20.4450 C   0  0  0  0  0  2  0  0  0  0  0  0
  -30.1650  -20.3580   21.1790 C   0  0  0  0  0  2  0  0  0  0  0  0
  -31.3120  -18.4660   23.7770 C   0  0  0  0  0  2  0  0  0  0  0  0
  -30.1970  -17.6290   23.1390 C   0  0  0  0  0  2  0  0  0  0  0  0
  -31.9080  -19.3110   22.6430 C   0  0  0  0  0  2  0  0  0  0  0  0
  -30.3000  -17.8710   21.6260 C   0  0  0  0  0  3  0  0  0  0  0  0
  -31.0130  -19.1650   21.4680 N   0  0  1  0  0  4  0  0  0  0  0  0
  -31.5960  -19.0540   20.6550 H   0  0  0  0  0  0  0  0  0  0  0  0
  -31.1110  -16.7790   20.8950 C   0  0  0  0  0  2  0  0  0  0  0  0
  -31.0850  -14.4060   20.2920 C   0  0  0  0  0  0  0  0  0  0  0  0
  -30.6740  -12.2690   19.1570 C   0  0  0  0  0  2  0  0  0  0  0  0
  -29.7500  -12.5160   17.9480 C   0  0  0  0  0  2  0  0  0  0  0  0
  -28.2760  -12.4190   18.3870 C   0  0  0  0  0  2  0  0  0  0  0  0
  -27.9620  -13.2740   19.6430 C   0  0  0  0  0  3  0  0  0  0  0  0
  -29.0120  -13.0420   20.7540 C   0  0  0  0  0  2  0  0  0  0  0  0
  -30.3450  -13.2740   20.1770 N   0  0  0  0  0  0  0  0  0  0  0  0
  -32.2010  -14.5380   19.7850 O   0  0  0  0  0  0  0  0  0  0  0  0
  -30.4810  -15.4550   20.8690 N   0  0  0  0  0  0  0  0  0  0  0  0
  -29.5420  -15.3450   21.2220 H   0  0  0  0  0  0  0  0  0  0  0  0
  -25.5780  -13.9430   20.3480 C   0  0  0  0  0  0  0  0  0  0  0  0
  -24.4950  -13.1980   20.7280 C   0  0  0  0  0  0  0  0  0  0  0  0
  -24.9250  -11.8360   20.7130 C   0  0  0  0  0  0  0  0  0  0  0  0
  -26.6040  -13.0370   20.1250 N   0  0  0  0  0  0  0  0  0  0  0  0
  -26.2130  -11.7650   20.3990 N   0  0  0  0  0  0  0  0  0  0  0  0
  -24.1730  -10.5920   20.9190 C   0  0  0  0  0  0  0  0  0  0  0  0
  -24.5780   -9.6320   21.8720 C   0  0  0  0  0  3  0  0  0  0  0  0
  -23.8240   -8.4530   22.0650 C   0  0  0  0  0  3  0  0  0  0  0  0
  -22.6510   -8.2300   21.3050 C   0  0  0  0  0  0  0  0  0  0  0  0
  -22.2660   -9.1790   20.3420 C   0  0  0  0  0  3  0  0  0  0  0  0
  -23.0210  -10.3480   20.1450 C   0  0  0  0  0  3  0  0  0  0  0  0
  -21.8720   -7.1020   21.4030 O   0  0  0  0  0  0  0  0  0  0  0  0
  -21.7850   -6.3890   22.5730 C   0  0  0  0  0  0  0  0  0  0  0  0
  -21.3720   -6.9900   23.7820 C   0  0  0  0  0  3  0  0  0  0  0  0
  -21.2270   -6.2050   24.9430 C   0  0  0  0  0  3  0  0  0  0  0  0
  -21.4850   -4.8230   24.8980 C   0  0  0  0  0  0  0  0  0  0  0  0
  -21.8940   -4.2220   23.6940 C   0  0  0  0  0  3  0  0  0  0  0  0
  -22.0400   -5.0040   22.5340 C   0  0  0  0  0  0  0  0  0  0  0  0
  -22.4130   -4.4170   21.3720 F   0  0  0  0  0  0  0  0  0  0  0  0
  -21.3420   -4.0680   26.0130 F   0  0  0  0  0  0  0  0  0  0  0  0
  -23.1090  -13.7110   20.9980 C   0  0  0  0  0  0  0  0  0  0  0  0
  -22.3700  -13.0540   21.8860 N   0  0  0  0  0  0  0  0  0  0  0  0
  -22.6910  -14.7330   20.4590 O   0  0  0  0  0  0  0  0  0  0  0  0
  -22.7230  -12.2310   22.3520 H   0  0  0  0  0  0  0  0  0  0  0  0
  -21.4420  -13.3880   22.1080 H   0  0  0  0  0  0  0  0  0  0  0  0
  -25.7710  -15.3070   20.1590 N   0  0  0  0  0  0  0  0  0  0  0  0
  -25.0070  -15.9690   20.2560 H   0  0  0  0  0  0  0  0  0  0  0  0
  -26.6170  -15.7300   19.8010 H   0  0  0  0  0  0  0  0  0  0  0  0
  1 49  1  0
  2  5  1  0
  2  4  1  0
  2  1  1  0
  3  2  1  0
  6  7  1  0
  6  5  1  0
  7  8  1  0
  8 10  1  0
  9 20  2  0
 10 15  1  0
 11 19  1  0
 11 21  1  0
 12 18  1  0
 12 14  1  0
 13 19  1  0
 14 13  1  0
 15 14  2  0
 16 17  1  0
 16 10  2  0
 17 12  2  0
 18 11  1  0
 19  9  1  0
 21 23  2  0
 22 21  1  0
 24 22  1  0
 25 34  2  0
 25 30  1  0
 26 22  1  0
 26 30  1  0
 27 26  1  0
 28 29  1  0
 28 27  1  0
 29 25  1  0
 30 31  2  0
 31 32  1  0
 33 32  2  0
 34 33  1  0
 35  9  1  0
 35 36  1  0
 35 45  1  0
 36 39  1  0
 37 41  1  0
 37 36  1  0
 38 37  2  0
 41 40  1  0
 43 41  1  0
 43 44  1  0
 43 42  1  0
 45 48  1  1
 45 46  1  0
 47 45  1  0
 49 50  1  0
 50 55  1  0
 52 51  1  0
 53 51  1  0
 54 57  1  0
 54 52  1  0
 55 54  1  0
 55 53  1  0
 55 56  1  6
 58 66  1  0
 59 64  1  0
 60 61  1  0
 60 59  1  0
 62 61  1  0
 62 71  1  0
 62 63  1  0
 64 58  1  0
 64 63  1  0
 65 58  2  0
 66 57  1  0
 66 67  1  0
 68 69  2  0
 69 88  1  0
 70 69  1  0
 70 73  1  0
 71 68  1  0
 71 72  1  0
 72 70  2  0
 73 74  1  0
 74 75  2  0
 76 79  1  0
 76 75  1  0
 77 76  2  0
 78 77  1  0
 78 73  2  0
 79 80  1  0
 80 81  1  0
 81 82  2  0
 83 82  1  0
 83 87  1  0
 84 83  2  0
 85 80  2  0
 85 84  1  0
 86 85  1  0
 88 89  1  0
 89 92  1  0
 89 91  1  0
 90 88  2  0
 93 94  1  0
 93 68  1  0
 95 93  1  0
M  ISO  4   7 101   8 101  58 100  66 100
M  END
>  <TORSDO>  (88) 
F 24

>  <SCORE>  (88) 
-11.094

>  <name>  (88) 
87

>  <ligand_id>  (88) 
87

>  <original_smiles>  (88) 
[H]c1c([H])c([H])c2c(c1[H])C([H])([H])C([H])([H])C([H])([H])C2([H])N([H])C(=O)C1([H])N(C(=O)C([H])(N([H])C(=O)C([H])(N([H])C([H])([H])[H])C([H])([H])[H])C(C([H])([H])[H])(C([H])([H])[H])C([H])([H])[H])C([H])([H])c2c([H])c(OC([H])([H])C([H])([H])C([H])([H])[N+]([H])([H])C([H])([H])C([H])([H])C([H])([H])[N+]3([H])C([H])([H])C([H])([H])C([H])([H])C3([H])C([H])([H])N([H])C(=O)N3C([H])([H])C([H])([H])C([H])([H])C([H])(n4nc(-c5c([H])c([H])c(Oc6c([H])c([H])c(F)c([H])c6F)c([H])c5[H])c(C(=O)N([H])[H])c4N([H])[H])C3([H])[H])c([H])c([H])c2C1([H])[H]

>  <smiles>  (88) 
[H]c1c([H])c([H])c2c(c1[H])C([H])([H])C([H])([H])C([H])([H])C2([H])N([H])C(=O)C1([H])N(C(=O)C([H])(N([H])C(=O)C([H])(N([H])C([H])([H])[H])C([H])([H])[H])C(C([H])([H])[H])(C([H])([H])[H])C([H])([H])[H])C([H])([H])c2c([H])c(OC([H])([H])C([H])([H])C([H])([H])[N+]([H])([H])C([H])([H])C([H])([H])C([H])([H])[N+]3([H])C([H])([H])C([H])([H])C([H])([H])C3([H])C([H])([H])N([H])C(=O)N3C([H])([H])C([H])([H])C([H])([H])C([H])(n4nc(-c5c([H])c([H])c(Oc6c([H])c([H])c(F)c([H])c6F)c([H])c5[H])c(C(=O)N([H])[H])c4N([H])[H])C3([H])[H])c([H])c([H])c2C1([H])[H]

$$$$
88:0:0
     RDKit          3D

 96104  0  0  1  0  0  0  0  0999 V2000
  -30.8440  -21.5730   18.5360 C   0  0  0  0  0  2  0  0  0  0  0  0
  -31.6110  -25.0430   16.8190 C   0  0  0  0  0  3  0  0  0  0  0  0
  -29.2830  -24.4300   16.4680 C   0  0  0  0  0  3  0  0  0  0  0  0
  -30.3220  -25.3560   16.3180 C   0  0  0  0  0  0  0  0  0  0  0  0
  -30.6810  -22.8540   17.6730 C   0  0  0  0  0  0  0  0  0  0  0  0
  -31.7770  -23.7980   17.4950 C   0  0  0  0  0  0  0  0  0  0  0  0
  -29.4160  -23.1870   17.1260 C   0  0  0  0  0  0  0  0  0  0  0  0
  -32.9720  -23.5280   18.1000 F   0  0  0  0  0  0  0  0  0  0  0  0
  -28.3050  -22.4100   17.2690 F   0  0  0  0  0  0  0  0  0  0  0  0
  -29.9630  -26.6860   15.6610 C   0  0  0  0  0  2  0  0  0  0  0  0
  -32.3540  -27.7920   15.4870 C   0  0  0  0  0  0  0  0  0  0  0  0
  -33.4370  -29.7430   16.5310 C   0  0  0  0  0  2  0  0  0  0  0  0
  -34.3630  -29.4700   17.6940 C   0  0  0  0  0  2  0  0  0  0  0  0
  -33.5490  -29.7920   18.9230 C   0  0  0  0  0  2  0  0  0  0  0  0
  -32.5500  -28.5960   19.0380 C   0  0  0  0  0  3  0  0  0  0  0  0
  -31.7010  -28.2950   17.7820 C   0  0  0  0  0  2  0  0  0  0  0  0
  -32.3580  -28.6910   16.5010 N   0  0  0  0  0  0  0  0  0  0  0  0
  -33.3470  -27.6500   14.7360 O   0  0  0  0  0  0  0  0  0  0  0  0
  -31.1290  -27.3930   15.0050 N   0  0  0  0  0  0  0  0  0  0  0  0
  -31.1560  -27.2740   14.0030 H   0  0  0  0  0  0  0  0  0  0  0  0
  -30.6440  -27.7810   20.4850 C   0  0  0  0  0  0  0  0  0  0  0  0
  -30.1730  -28.1690   21.7290 C   0  0  0  0  0  0  0  0  0  0  0  0
  -30.9860  -29.2710   22.1070 C   0  0  0  0  0  0  0  0  0  0  0  0
  -31.6890  -28.6240   20.2150 N   0  0  0  0  0  0  0  0  0  0  0  0
  -31.8740  -29.5590   21.1530 N   0  0  0  0  0  0  0  0  0  0  0  0
  -31.0110  -30.0120   23.3680 C   0  0  0  0  0  0  0  0  0  0  0  0
  -30.6630  -31.3780   23.4780 C   0  0  0  0  0  3  0  0  0  0  0  0
  -30.7570  -32.0400   24.7300 C   0  0  0  0  0  3  0  0  0  0  0  0
  -31.1650  -31.3390   25.8860 C   0  0  0  0  0  0  0  0  0  0  0  0
  -31.5420  -29.9910   25.7570 C   0  0  0  0  0  3  0  0  0  0  0  0
  -31.4680  -29.3390   24.5170 C   0  0  0  0  0  3  0  0  0  0  0  0
  -31.2800  -31.9130   27.1310 O   0  0  0  0  0  0  0  0  0  0  0  0
  -30.2580  -32.6640   27.6520 C   0  0  0  0  0  0  0  0  0  0  0  0
  -28.9860  -32.1160   27.9390 C   0  0  0  0  0  3  0  0  0  0  0  0
  -27.9910  -32.9190   28.5270 C   0  0  0  0  0  3  0  0  0  0  0  0
  -28.2590  -34.2580   28.8500 C   0  0  0  0  0  0  0  0  0  0  0  0
  -29.5180  -34.8130   28.5530 C   0  0  0  0  0  3  0  0  0  0  0  0
  -30.5150  -34.0150   27.9510 C   0  0  0  0  0  0  0  0  0  0  0  0
  -31.7370  -34.5400   27.6930 F   0  0  0  0  0  0  0  0  0  0  0  0
  -27.3050  -35.0380   29.4130 F   0  0  0  0  0  0  0  0  0  0  0  0
  -29.1350  -27.4370   22.5580 C   0  0  0  0  0  0  0  0  0  0  0  0
  -28.3460  -28.1580   23.3330 N   0  0  0  0  0  0  0  0  0  0  0  0
  -28.9380  -26.2330   22.4540 O   0  0  0  0  0  0  0  0  0  0  0  0
  -28.3790  -29.1640   23.4450 H   0  0  0  0  0  0  0  0  0  0  0  0
  -27.6460  -27.6480   23.8510 H   0  0  0  0  0  0  0  0  0  0  0  0
  -30.3180  -26.7290   19.6340 N   0  0  0  0  0  0  0  0  0  0  0  0
  -29.7670  -25.9440   19.9720 H   0  0  0  0  0  0  0  0  0  0  0  0
  -30.8980  -26.4550   18.8580 H   0  0  0  0  0  0  0  0  0  0  0  0
  -29.6820  -20.6430   18.7110 N   0  0  0  0  0  4  0  0  0  0  0  0
  -29.0750  -20.7360   17.9060 H   0  0  0  0  0  0  0  0  0  0  0  0
  -29.1450  -20.8830   19.5270 H   0  0  0  0  0  0  0  0  0  0  0  0
  -30.0340  -19.1860   18.8280 C   0  0  0  0  0  2  0  0  0  0  0  0
  -31.5050  -18.9020   19.3010 C   0  0  0  0  0  3  0  0  0  0  0  0
  -31.9910  -20.0490   19.7770 F   0  0  0  0  0  0  0  0  0  0  0  0
  -32.4940  -18.3540   18.1990 C   0  0  0  0  0  2  0  0  0  0  0  0
  -32.7020  -19.0740   16.9280 O   0  0  0  0  0  0  0  0  0  0  0  0
  -38.4530  -14.8920   17.2770 C   0  0  0  0  0  0  0  0  0  0  0  0
  -33.7830  -18.5500   16.2410 C   0  0  0  0  0  0  0  0  0  0  0  0
  -38.5100  -16.7400   15.6460 C   0  0  0  0  0  3  0  0  0  0  0  0
  -36.2580  -17.8080   15.0880 C   0  0  0  0  0  0  0  0  0  0  0  0
  -36.2950  -15.5880   16.2160 C   0  0  0  0  0  2  0  0  0  0  0  0
  -35.5920  -16.9050   15.9300 C   0  0  0  0  0  0  0  0  0  0  0  0
  -34.3420  -17.2730   16.5110 C   0  0  0  0  0  3  0  0  0  0  0  0
  -34.4290  -19.3910   15.3200 C   0  0  0  0  0  3  0  0  0  0  0  0
  -35.6740  -19.0400   14.7610 C   0  0  0  0  0  3  0  0  0  0  0  0
  -37.6190  -17.4030   14.5640 C   0  0  0  0  0  2  0  0  0  0  0  0
  -37.7610  -15.7160   16.4420 N   0  0  0  0  0  0  0  0  0  0  0  0
  -39.6880  -14.9630   17.3600 O   0  0  0  0  0  0  0  0  0  0  0  0
  -39.1520  -17.8470   16.5160 C   0  0  0  0  0  0  0  0  0  0  0  0
  -38.3480  -18.4550   17.4070 N   0  0  0  0  0  0  0  0  0  0  0  0
  -40.3460  -18.1370   16.3990 O   0  0  0  0  0  0  0  0  0  0  0  0
  -37.3760  -18.1720   17.4300 H   0  0  0  0  0  0  0  0  0  0  0  0
  -39.9900  -19.0700   20.5680 C   0  0  0  0  0  0  0  0  0  0  0  0
  -38.7370  -19.5030   18.3560 C   0  0  0  0  0  3  0  0  0  0  0  0
  -40.0180  -20.2270   17.8830 C   0  0  0  0  0  2  0  0  0  0  0  0
  -41.2980  -19.6310   18.4750 C   0  0  0  0  0  2  0  0  0  0  0  0
  -41.2610  -19.6850   20.0060 C   0  0  0  0  0  2  0  0  0  0  0  0
  -38.8110  -18.9660   19.7880 C   0  0  0  0  0  0  0  0  0  0  0  0
  -37.6700  -18.3560   20.3490 C   0  0  0  0  0  3  0  0  0  0  0  0
  -37.6980  -17.8550   21.6640 C   0  0  0  0  0  3  0  0  0  0  0  0
  -38.8670  -17.9740   22.4380 C   0  0  0  0  0  3  0  0  0  0  0  0
  -40.0090  -18.5820   21.8900 C   0  0  0  0  0  3  0  0  0  0  0  0
  -37.7400  -13.8150   18.1510 C   0  0  0  0  0  3  0  0  0  0  0  0
  -38.7270  -12.7740   18.4660 N   0  0  0  0  0  0  0  0  0  0  0  0
  -38.7480  -11.5570   17.9070 C   0  0  0  0  0  0  0  0  0  0  0  0
  -37.8870  -11.1710   17.1110 O   0  0  0  0  0  0  0  0  0  0  0  0
  -39.4880  -13.0370   19.0760 H   0  0  0  0  0  0  0  0  0  0  0  0
  -40.9610  -10.6090   17.1700 C   0  0  0  0  0  1  0  0  0  0  0  0
  -39.9090  -10.6190   18.2900 C   0  0  0  0  0  3  0  0  0  0  0  0
  -38.7320   -9.1040   19.8230 C   0  0  0  0  0  1  0  0  0  0  0  0
  -39.4770   -9.2330   18.5740 N   0  0  0  0  0  0  0  0  0  0  0  0
  -40.2780   -8.6090   18.6190 H   0  0  0  0  0  0  0  0  0  0  0  0
  -37.1110  -14.4110   19.4690 C   0  0  1  0  0  0  0  0  0  0  0  0
  -38.0220  -15.4330   20.1910 C   0  0  0  0  0  1  0  0  0  0  0  0
  -35.7740  -15.1120   19.1400 C   0  0  0  0  0  1  0  0  0  0  0  0
  -36.7960  -13.2680   20.4620 C   0  0  0  0  0  1  0  0  0  0  0  0
  1 49  1  0
  2  6  1  0
  3  7  2  0
  4  3  1  0
  4  2  2  0
  5  1  1  0
  6  5  2  0
  6  8  1  0
  7  9  1  0
  7  5  1  0
 10  4  1  0
 11 17  1  0
 12 13  1  0
 13 14  1  0
 14 15  1  0
 15 16  1  0
 15 24  1  0
 17 12  1  0
 17 16  1  0
 18 11  2  0
 19 11  1  0
 19 10  1  0
 20 19  1  0
 21 22  2  0
 22 23  1  0
 22 41  1  0
 23 26  1  0
 24 21  1  0
 24 25  1  0
 25 23  2  0
 26 27  2  0
 26 31  1  0
 27 28  1  0
 28 29  2  0
 29 32  1  0
 30 29  1  0
 31 30  2  0
 32 33  1  0
 33 34  2  0
 33 38  1  0
 34 35  1  0
 35 36  2  0
 36 40  1  0
 37 36  1  0
 38 37  2  0
 39 38  1  0
 41 42  1  0
 42 44  1  0
 42 45  1  0
 43 41  2  0
 46 47  1  0
 46 21  1  0
 48 46  1  0
 49 52  1  0
 49 51  1  0
 50 49  1  0
 52 53  1  0
 53 54  1  0
 55 53  1  0
 56 55  1  0
 57 68  2  0
 58 63  1  0
 58 56  1  0
 59 67  1  0
 59 69  1  0
 60 62  1  0
 61 67  1  0
 62 61  1  0
 62 63  2  0
 64 58  2  0
 65 60  2  0
 65 64  1  0
 66 60  1  0
 66 59  1  0
 67 57  1  0
 69 70  1  0
 70 72  1  0
 71 69  2  0
 73 82  1  0
 74 70  1  0
 74 78  1  0
 75 74  1  0
 75 76  1  0
 76 77  1  0
 77 73  1  0
 78 79  1  0
 78 73  2  0
 79 80  2  0
 80 81  1  0
 82 81  2  0
 83 57  1  0
 83 84  1  0
 83 93  1  0
 84 87  1  0
 85 89  1  0
 85 84  1  0
 86 85  2  0
 89 88  1  0
 89 91  1  0
 91 92  1  0
 91 90  1  0
 93 94  1  1
 93 96  1  0
 95 93  1  0
M  ISO  4  11 100  19 100  55 101  56 101
M  END
>  <TORSDO>  (89) 
F 22

>  <SCORE>  (89) 
-2.926

>  <name>  (89) 
88

>  <ligand_id>  (89) 
88

>  <original_smiles>  (89) 
[H]c1c([H])c([H])c2c(c1[H])C([H])([H])C([H])([H])C([H])([H])C2([H])N([H])C(=O)C1([H])N(C(=O)C([H])(N([H])C(=O)C([H])(N([H])C([H])([H])[H])C([H])([H])[H])C(C([H])([H])[H])(C([H])([H])[H])C([H])([H])[H])C([H])([H])c2c([H])c(OC([H])([H])C([H])(F)C([H])([H])[N+]([H])([H])C([H])([H])c3c(F)c([H])c(C([H])([H])N([H])C(=O)N4C([H])([H])C([H])([H])C([H])([H])C([H])(n5nc(-c6c([H])c([H])c(Oc7c([H])c([H])c(F)c([H])c7F)c([H])c6[H])c(C(=O)N([H])[H])c5N([H])[H])C4([H])[H])c([H])c3F)c([H])c([H])c2C1([H])[H]

>  <smiles>  (89) 
[H]c1c([H])c([H])c2c(c1[H])C([H])([H])C([H])([H])C([H])([H])C2([H])N([H])C(=O)C1([H])N(C(=O)C([H])(N([H])C(=O)C([H])(N([H])C([H])([H])[H])C([H])([H])[H])C(C([H])([H])[H])(C([H])([H])[H])C([H])([H])[H])C([H])([H])c2c([H])c(OC([H])([H])C([H])(F)C([H])([H])[N+]([H])([H])C([H])([H])c3c(F)c([H])c(C([H])([H])N([H])C(=O)N4C([H])([H])C([H])([H])C([H])([H])C([H])(n5nc(-c6c([H])c([H])c(Oc7c([H])c([H])c(F)c([H])c7F)c([H])c6[H])c(C(=O)N([H])[H])c5N([H])[H])C4([H])[H])c([H])c3F)c([H])c([H])c2C1([H])[H]

$$$$
89:0:0
     RDKit          3D

 96104  0  0  1  0  0  0  0  0999 V2000
  -29.7770  -22.5540   18.3320 C   0  0  0  0  0  2  0  0  0  0  0  0
  -28.6730  -23.5300   20.3490 C   0  0  0  0  0  0  0  0  0  0  0  0
  -29.7460  -23.0430   19.7120 N   0  0  0  0  0  0  0  0  0  0  0  0
  -27.5590  -23.5760   19.8290 O   0  0  0  0  0  0  0  0  0  0  0  0
  -30.6310  -23.0940   20.2000 H   0  0  0  0  0  0  0  0  0  0  0  0
  -28.8820  -23.9750   21.7980 C   0  0  0  0  0  2  0  0  0  0  0  0
  -28.4240  -25.4150   22.1180 C   0  0  0  0  0  2  0  0  0  0  0  0
  -29.1240  -26.5170   21.2980 C   0  0  0  0  0  2  0  0  0  0  0  0
  -28.4450  -26.7330   20.0660 O   0  0  0  0  0  0  0  0  0  0  0  0
  -24.6190  -31.8700   23.2210 C   0  0  0  0  0  0  0  0  0  0  0  0
  -27.2880  -27.4740   20.1320 C   0  0  0  0  0  0  0  0  0  0  0  0
  -23.4110  -30.4640   21.5800 C   0  0  0  0  0  3  0  0  0  0  0  0
  -24.8690  -28.9280   20.1570 C   0  0  0  0  0  0  0  0  0  0  0  0
  -25.9300  -30.8420   21.3730 C   0  0  0  0  0  2  0  0  0  0  0  0
  -26.0200  -29.4710   20.7410 C   0  0  0  0  0  0  0  0  0  0  0  0
  -27.2310  -28.7510   20.7330 C   0  0  0  0  0  3  0  0  0  0  0  0
  -26.1270  -26.9410   19.5400 C   0  0  0  0  0  3  0  0  0  0  0  0
  -24.9130  -27.6570   19.5590 C   0  0  0  0  0  3  0  0  0  0  0  0
  -23.6190  -29.7780   20.2030 C   0  0  0  0  0  2  0  0  0  0  0  0
  -24.6710  -31.0720   22.1160 N   0  0  0  0  0  0  0  0  0  0  0  0
  -23.5390  -32.1390   23.7650 O   0  0  0  0  0  0  0  0  0  0  0  0
  -22.7660  -29.4420   22.5430 C   0  0  0  0  0  0  0  0  0  0  0  0
  -21.4410  -29.2640   22.4240 N   0  0  0  0  0  0  0  0  0  0  0  0
  -23.4560  -28.8130   23.3500 O   0  0  0  0  0  0  0  0  0  0  0  0
  -20.9470  -29.8230   21.7440 H   0  0  0  0  0  0  0  0  0  0  0  0
  -18.0670  -28.0860   22.9380 C   0  0  0  0  0  0  0  0  0  0  0  0
  -20.6280  -28.3260   23.1960 C   0  0  0  0  0  3  0  0  0  0  0  0
  -20.7180  -26.8970   22.6120 C   0  0  0  0  0  2  0  0  0  0  0  0
  -19.6080  -26.5860   21.6030 C   0  0  0  0  0  2  0  0  0  0  0  0
  -18.2300  -26.7380   22.2560 C   0  0  0  0  0  2  0  0  0  0  0  0
  -19.1920  -28.8390   23.3640 C   0  0  0  0  0  0  0  0  0  0  0  0
  -18.9860  -30.1020   23.9610 C   0  0  0  0  0  3  0  0  0  0  0  0
  -17.6870  -30.6120   24.1360 C   0  0  0  0  0  3  0  0  0  0  0  0
  -16.5750  -29.8560   23.7270 C   0  0  0  0  0  3  0  0  0  0  0  0
  -16.7650  -28.5950   23.1340 C   0  0  0  0  0  3  0  0  0  0  0  0
  -25.9060  -32.5030   23.8350 C   0  0  0  0  0  3  0  0  0  0  0  0
  -25.5960  -33.8980   24.1750 N   0  0  0  0  0  0  0  0  0  0  0  0
  -25.9210  -34.9560   23.4200 C   0  0  0  0  0  0  0  0  0  0  0  0
  -26.5880  -34.8610   22.3870 O   0  0  0  0  0  0  0  0  0  0  0  0
  -25.0070  -34.0460   24.9820 H   0  0  0  0  0  0  0  0  0  0  0  0
  -24.1830  -36.7380   23.0780 C   0  0  0  0  0  1  0  0  0  0  0  0
  -25.4280  -36.3390   23.8850 C   0  0  0  0  0  3  0  0  0  0  0  0
  -27.5650  -37.2250   24.7100 C   0  0  0  0  0  1  0  0  0  0  0  0
  -26.4560  -37.3980   23.7740 N   0  0  0  0  0  0  0  0  0  0  0  0
  -26.0470  -38.3150   23.9310 H   0  0  0  0  0  0  0  0  0  0  0  0
  -26.4390  -31.7240   25.1000 C   0  0  1  0  0  0  0  0  0  0  0  0
  -25.3550  -31.4780   26.1760 C   0  0  0  0  0  1  0  0  0  0  0  0
  -27.0210  -30.3510   24.6920 C   0  0  0  0  0  1  0  0  0  0  0  0
  -27.5940  -32.5150   25.7550 C   0  0  0  0  0  1  0  0  0  0  0  0
  -29.1370  -21.1560   18.1430 C   0  0  0  0  0  2  0  0  0  0  0  0
  -31.1550  -18.9540   20.5760 C   0  0  0  0  0  2  0  0  0  0  0  0
  -28.8990  -17.9370   20.2390 C   0  0  0  0  0  2  0  0  0  0  0  0
  -30.8920  -19.8910   19.3820 C   0  0  0  0  0  2  0  0  0  0  0  0
  -28.6450  -18.9300   19.0850 C   0  0  0  0  0  2  0  0  0  0  0  0
  -30.3980  -17.6270   20.4110 C   0  0  0  0  0  3  0  0  0  0  0  0
  -29.4410  -20.1810   19.2270 N   0  0  2  0  0  4  0  0  0  0  0  0
  -29.1360  -20.6270   20.0790 H   0  0  0  0  0  0  0  0  0  0  0  0
  -30.6780  -16.6550   21.5810 C   0  0  0  0  0  2  0  0  0  0  0  0
  -30.7080  -14.3900   20.5620 C   0  0  0  0  0  0  0  0  0  0  0  0
  -30.3540  -12.2860   19.3350 C   0  0  0  0  0  2  0  0  0  0  0  0
  -29.4170  -12.5330   18.1350 C   0  0  0  0  0  2  0  0  0  0  0  0
  -27.9420  -12.4020   18.5610 C   0  0  0  0  0  2  0  0  0  0  0  0
  -27.6120  -13.2220   19.8370 C   0  0  0  0  0  3  0  0  0  0  0  0
  -28.6600  -12.9650   20.9440 C   0  0  0  0  0  2  0  0  0  0  0  0
  -29.9970  -13.2470   20.3880 N   0  0  0  0  0  0  0  0  0  0  0  0
  -31.7850  -14.6110   20.0000 O   0  0  0  0  0  0  0  0  0  0  0  0
  -30.1350  -15.3190   21.3370 N   0  0  0  0  0  0  0  0  0  0  0  0
  -29.2510  -15.0810   21.7660 H   0  0  0  0  0  0  0  0  0  0  0  0
  -25.2070  -13.8390   20.5180 C   0  0  0  0  0  0  0  0  0  0  0  0
  -24.1340  -13.0710   20.8850 C   0  0  0  0  0  0  0  0  0  0  0  0
  -24.5950  -11.7180   20.8670 C   0  0  0  0  0  0  0  0  0  0  0  0
  -26.2530  -12.9550   20.3050 N   0  0  0  0  0  0  0  0  0  0  0  0
  -25.8870  -11.6750   20.5680 N   0  0  0  0  0  0  0  0  0  0  0  0
  -23.8650  -10.4590   21.0610 C   0  0  0  0  0  0  0  0  0  0  0  0
  -24.3020   -9.4870   21.9870 C   0  0  0  0  0  3  0  0  0  0  0  0
  -23.5760   -8.2910   22.1690 C   0  0  0  0  0  3  0  0  0  0  0  0
  -22.3960   -8.0590   21.4240 C   0  0  0  0  0  0  0  0  0  0  0  0
  -21.9770   -9.0180   20.4850 C   0  0  0  0  0  3  0  0  0  0  0  0
  -22.7040  -10.2050   20.3010 C   0  0  0  0  0  3  0  0  0  0  0  0
  -21.6380   -6.9150   21.5140 O   0  0  0  0  0  0  0  0  0  0  0  0
  -21.6110   -6.1590   22.6580 C   0  0  0  0  0  0  0  0  0  0  0  0
  -21.2260   -6.7020   23.9040 C   0  0  0  0  0  3  0  0  0  0  0  0
  -21.1460   -5.8730   25.0400 C   0  0  0  0  0  3  0  0  0  0  0  0
  -21.4410   -4.5010   24.9330 C   0  0  0  0  0  0  0  0  0  0  0  0
  -21.8200   -3.9560   23.6940 C   0  0  0  0  0  3  0  0  0  0  0  0
  -21.9010   -4.7830   22.5600 C   0  0  0  0  0  0  0  0  0  0  0  0
  -22.2460   -4.2480   21.3620 F   0  0  0  0  0  0  0  0  0  0  0  0
  -21.3580   -3.7020   26.0230 F   0  0  0  0  0  0  0  0  0  0  0  0
  -22.7350  -13.5520   21.1450 C   0  0  0  0  0  0  0  0  0  0  0  0
  -22.0020  -12.8610   22.0120 N   0  0  0  0  0  0  0  0  0  0  0  0
  -22.3010  -14.5730   20.6150 O   0  0  0  0  0  0  0  0  0  0  0  0
  -22.3640  -12.0350   22.4630 H   0  0  0  0  0  0  0  0  0  0  0  0
  -21.0630  -13.1660   22.2290 H   0  0  0  0  0  0  0  0  0  0  0  0
  -25.3750  -15.2080   20.3330 N   0  0  0  0  0  0  0  0  0  0  0  0
  -24.6110  -15.8670   20.4320 H   0  0  0  0  0  0  0  0  0  0  0  0
  -26.2340  -15.6400   20.0150 H   0  0  0  0  0  0  0  0  0  0  0  0
  1  3  1  0
  2  6  1  0
  3  5  1  0
  3  2  1  0
  4  2  2  0
  6  7  1  0
  8  7  1  0
  9 11  1  0
  9  8  1  0
 10 21  2  0
 11 16  1  0
 12 20  1  0
 12 22  1  0
 13 19  1  0
 13 15  1  0
 14 20  1  0
 15 14  1  0
 16 15  2  0
 17 18  1  0
 17 11  2  0
 18 13  2  0
 19 12  1  0
 20 10  1  0
 22 24  2  0
 23 22  1  0
 25 23  1  0
 26 35  2  0
 26 31  1  0
 27 23  1  0
 27 31  1  0
 28 27  1  0
 29 30  1  0
 29 28  1  0
 30 26  1  0
 31 32  2  0
 32 33  1  0
 34 33  2  0
 35 34  1  0
 36 10  1  0
 36 37  1  0
 36 46  1  0
 37 40  1  0
 38 42  1  0
 38 37  1  0
 39 38  2  0
 42 41  1  0
 44 42  1  0
 44 45  1  0
 44 43  1  0
 46 49  1  1
 46 47  1  0
 48 46  1  0
 50  1  1  0
 50 56  1  0
 52 55  1  0
 53 51  1  0
 54 56  1  0
 54 52  1  0
 55 51  1  0
 55 58  1  0
 56 53  1  0
 56 57  1  1
 59 67  1  0
 60 65  1  0
 61 62  1  0
 61 60  1  0
 63 62  1  0
 63 72  1  0
 63 64  1  0
 65 59  1  0
 65 64  1  0
 66 59  2  0
 67 58  1  0
 67 68  1  0
 69 70  2  0
 70 89  1  0
 71 70  1  0
 71 74  1  0
 72 69  1  0
 72 73  1  0
 73 71  2  0
 74 75  1  0
 75 76  2  0
 77 80  1  0
 77 76  1  0
 78 77  2  0
 79 78  1  0
 79 74  2  0
 80 81  1  0
 81 82  1  0
 82 83  2  0
 84 83  1  0
 84 88  1  0
 85 84  2  0
 86 81  2  0
 86 85  1  0
 87 86  1  0
 89 90  1  0
 90 93  1  0
 90 92  1  0
 91 89  2  0
 94 95  1  0
 94 69  1  0
 96 94  1  0
M  ISO  4   8 101   9 101  59 100  67 100
M  END
>  <TORSDO>  (90) 
F 23

>  <SCORE>  (90) 
-13.084

>  <name>  (90) 
89

>  <ligand_id>  (90) 
89

>  <original_smiles>  (90) 
[H]c1c([H])c([H])c2c(c1[H])C([H])([H])C([H])([H])C([H])([H])C2([H])N([H])C(=O)C1([H])N(C(=O)C([H])(N([H])C(=O)C([H])(N([H])C([H])([H])[H])C([H])([H])[H])C(C([H])([H])[H])(C([H])([H])[H])C([H])([H])[H])C([H])([H])c2c([H])c(OC([H])([H])C([H])([H])C([H])([H])C(=O)N([H])C([H])([H])C([H])([H])[N+]3([H])C([H])([H])C([H])([H])C([H])(C([H])([H])N([H])C(=O)N4C([H])([H])C([H])([H])C([H])([H])C([H])(n5nc(-c6c([H])c([H])c(Oc7c([H])c([H])c(F)c([H])c7F)c([H])c6[H])c(C(=O)N([H])[H])c5N([H])[H])C4([H])[H])C([H])([H])C3([H])[H])c([H])c([H])c2C1([H])[H]

>  <smiles>  (90) 
[H]c1c([H])c([H])c2c(c1[H])C([H])([H])C([H])([H])C([H])([H])C2([H])N([H])C(=O)C1([H])N(C(=O)C([H])(N([H])C(=O)C([H])(N([H])C([H])([H])[H])C([H])([H])[H])C(C([H])([H])[H])(C([H])([H])[H])C([H])([H])[H])C([H])([H])c2c([H])c(OC([H])([H])C([H])([H])C([H])([H])C(=O)N([H])C([H])([H])C([H])([H])[N+]3([H])C([H])([H])C([H])([H])C([H])(C([H])([H])N([H])C(=O)N4C([H])([H])C([H])([H])C([H])([H])C([H])(n5nc(-c6c([H])c([H])c(Oc7c([H])c([H])c(F)c([H])c7F)c([H])c6[H])c(C(=O)N([H])[H])c5N([H])[H])C4([H])[H])C([H])([H])C3([H])[H])c([H])c([H])c2C1([H])[H]

$$$$
90:0:0
     RDKit          3D

 96104  0  0  1  0  0  0  0  0999 V2000
  -32.2290  -22.3550   19.3800 C   0  0  0  0  0  2  0  0  0  0  0  0
  -30.9750  -22.9340   19.8850 N   0  0  0  0  0  4  0  0  0  0  0  0
  -31.1600  -23.5010   20.7000 H   0  0  0  0  0  0  0  0  0  0  0  0
  -30.4160  -22.1490   20.1880 H   0  0  0  0  0  0  0  0  0  0  0  0
  -30.2060  -23.7830   18.9590 C   0  0  0  0  0  2  0  0  0  0  0  0
  -29.9330  -25.1540   19.6070 C   0  0  0  0  0  3  0  0  0  0  0  0
  -30.2570  -25.1140   20.9070 F   0  0  0  0  0  0  0  0  0  0  0  0
  -28.4720  -25.6060   19.4880 C   0  0  0  0  0  2  0  0  0  0  0  0
  -28.3750  -26.8740   20.1190 O   0  0  0  0  0  0  0  0  0  0  0  0
  -24.5380  -31.9350   23.2620 C   0  0  0  0  0  0  0  0  0  0  0  0
  -27.1620  -27.5200   20.1420 C   0  0  0  0  0  0  0  0  0  0  0  0
  -23.3160  -30.5350   21.6270 C   0  0  0  0  0  3  0  0  0  0  0  0
  -24.7560  -28.9960   20.1960 C   0  0  0  0  0  0  0  0  0  0  0  0
  -25.8390  -30.8960   21.4100 C   0  0  0  0  0  2  0  0  0  0  0  0
  -25.9150  -29.5270   20.7740 C   0  0  0  0  0  0  0  0  0  0  0  0
  -27.1170  -28.7920   20.7510 C   0  0  0  0  0  3  0  0  0  0  0  0
  -25.9800  -26.9880   19.5760 C   0  0  0  0  0  3  0  0  0  0  0  0
  -24.7800  -27.7230   19.6010 C   0  0  0  0  0  3  0  0  0  0  0  0
  -23.5140  -29.8540   20.2460 C   0  0  0  0  0  2  0  0  0  0  0  0
  -24.5830  -31.1360   22.1590 N   0  0  0  0  0  0  0  0  0  0  0  0
  -23.4600  -32.2090   23.8100 O   0  0  0  0  0  0  0  0  0  0  0  0
  -22.6730  -29.5130   22.5910 C   0  0  0  0  0  0  0  0  0  0  0  0
  -21.3490  -29.3270   22.4650 N   0  0  0  0  0  0  0  0  0  0  0  0
  -23.3610  -28.8910   23.4040 O   0  0  0  0  0  0  0  0  0  0  0  0
  -20.8570  -29.8830   21.7800 H   0  0  0  0  0  0  0  0  0  0  0  0
  -17.9780  -28.1340   22.9680 C   0  0  0  0  0  0  0  0  0  0  0  0
  -20.5350  -28.3900   23.2380 C   0  0  0  0  0  3  0  0  0  0  0  0
  -20.6370  -26.9580   22.6610 C   0  0  0  0  0  2  0  0  0  0  0  0
  -19.5330  -26.6350   21.6480 C   0  0  0  0  0  2  0  0  0  0  0  0
  -18.1530  -26.7830   22.2940 C   0  0  0  0  0  2  0  0  0  0  0  0
  -19.0980  -28.8950   23.3960 C   0  0  0  0  0  0  0  0  0  0  0  0
  -18.8810  -30.1600   23.9850 C   0  0  0  0  0  3  0  0  0  0  0  0
  -17.5780  -30.6640   24.1500 C   0  0  0  0  0  3  0  0  0  0  0  0
  -16.4720  -29.9000   23.7390 C   0  0  0  0  0  3  0  0  0  0  0  0
  -16.6740  -28.6360   23.1540 C   0  0  0  0  0  3  0  0  0  0  0  0
  -25.8300  -32.5620   23.8730 C   0  0  0  0  0  3  0  0  0  0  0  0
  -25.5310  -33.9620   24.1960 N   0  0  0  0  0  0  0  0  0  0  0  0
  -25.8700  -35.0080   23.4300 C   0  0  0  0  0  0  0  0  0  0  0  0
  -26.5400  -34.8960   22.4010 O   0  0  0  0  0  0  0  0  0  0  0  0
  -24.9390  -34.1250   24.9980 H   0  0  0  0  0  0  0  0  0  0  0  0
  -24.1590  -36.8110   23.0550 C   0  0  0  0  0  1  0  0  0  0  0  0
  -25.3890  -36.4020   23.8790 C   0  0  0  0  0  3  0  0  0  0  0  0
  -27.5220  -37.2720   24.7260 C   0  0  0  0  0  1  0  0  0  0  0  0
  -26.4300  -37.4460   23.7720 N   0  0  0  0  0  0  0  0  0  0  0  0
  -26.0290  -38.3700   23.9140 H   0  0  0  0  0  0  0  0  0  0  0  0
  -26.3530  -31.7930   25.1490 C   0  0  1  0  0  0  0  0  0  0  0  0
  -25.2650  -31.5590   26.2230 C   0  0  0  0  0  1  0  0  0  0  0  0
  -26.9300  -30.4130   24.7530 C   0  0  0  0  0  1  0  0  0  0  0  0
  -27.5080  -32.5850   25.8040 C   0  0  0  0  0  1  0  0  0  0  0  0
  -32.7240  -21.3320   20.4130 C   0  0  0  0  0  2  0  0  0  0  0  0
  -30.7930  -18.1370   19.9630 C   0  0  0  0  0  2  0  0  0  0  0  0
  -32.4680  -18.2930   21.8670 C   0  0  0  0  0  2  0  0  0  0  0  0
  -31.5450  -19.4000   19.5310 C   0  0  0  0  0  2  0  0  0  0  0  0
  -31.8190  -19.6830   21.9780 C   0  0  0  0  0  2  0  0  0  0  0  0
  -31.6340  -17.3300   20.9800 C   0  0  0  0  0  3  0  0  0  0  0  0
  -31.6720  -20.3360   20.6630 N   0  0  0  0  0  0  0  0  0  0  0  0
  -30.7230  -14.4620   20.2730 C   0  0  0  0  0  0  0  0  0  0  0  0
  -30.3020  -12.4240   18.9450 C   0  0  0  0  0  2  0  0  0  0  0  0
  -29.3150  -12.7200   17.8000 C   0  0  0  0  0  2  0  0  0  0  0  0
  -27.8640  -12.5450   18.2850 C   0  0  0  0  0  2  0  0  0  0  0  0
  -27.5860  -13.3200   19.6010 C   0  0  0  0  0  3  0  0  0  0  0  0
  -28.6800  -13.0240   20.6510 C   0  0  0  0  0  2  0  0  0  0  0  0
  -30.0000  -13.3280   20.0650 N   0  0  0  0  0  0  0  0  0  0  0  0
  -31.6740  -14.7640   19.5500 O   0  0  0  0  0  0  0  0  0  0  0  0
  -30.7070  -16.3880   21.7890 C   0  0  0  0  0  0  0  0  0  0  0  0
  -30.3420  -15.1670   21.3540 N   0  0  0  0  0  0  0  0  0  0  0  0
  -30.2470  -16.7920   22.8600 O   0  0  0  0  0  0  0  0  0  0  0  0
  -29.6490  -14.7140   21.9230 H   0  0  0  0  0  0  0  0  0  0  0  0
  -25.2040  -13.8930   20.4000 C   0  0  0  0  0  0  0  0  0  0  0  0
  -24.1590  -13.1040   20.7990 C   0  0  0  0  0  0  0  0  0  0  0  0
  -24.6330  -11.7580   20.7350 C   0  0  0  0  0  0  0  0  0  0  0  0
  -26.2510  -13.0280   20.1210 N   0  0  0  0  0  0  0  0  0  0  0  0
  -25.9100  -11.7370   20.3770 N   0  0  0  0  0  0  0  0  0  0  0  0
  -23.9280  -10.4870   20.9370 C   0  0  0  0  0  0  0  0  0  0  0  0
  -24.3760   -9.5350   21.8800 C   0  0  0  0  0  3  0  0  0  0  0  0
  -23.6700   -8.3270   22.0680 C   0  0  0  0  0  3  0  0  0  0  0  0
  -22.5020   -8.0640   21.3140 C   0  0  0  0  0  0  0  0  0  0  0  0
  -22.0740   -9.0050   20.3590 C   0  0  0  0  0  3  0  0  0  0  0  0
  -22.7820  -10.2030   20.1700 C   0  0  0  0  0  3  0  0  0  0  0  0
  -21.7670   -6.9080   21.4110 O   0  0  0  0  0  0  0  0  0  0  0  0
  -21.6960   -6.1950   22.5820 C   0  0  0  0  0  0  0  0  0  0  0  0
  -21.2280   -6.7750   23.7810 C   0  0  0  0  0  3  0  0  0  0  0  0
  -21.1070   -5.9880   24.9440 C   0  0  0  0  0  3  0  0  0  0  0  0
  -21.4450   -4.6210   24.9080 C   0  0  0  0  0  0  0  0  0  0  0  0
  -21.9080   -4.0410   23.7120 C   0  0  0  0  0  3  0  0  0  0  0  0
  -22.0300   -4.8270   22.5520 C   0  0  0  0  0  0  0  0  0  0  0  0
  -22.4560   -4.2580   21.3980 F   0  0  0  0  0  0  0  0  0  0  0  0
  -21.3220   -3.8610   26.0210 F   0  0  0  0  0  0  0  0  0  0  0  0
  -22.7680  -13.5640   21.1320 C   0  0  0  0  0  0  0  0  0  0  0  0
  -22.0760  -12.8450   22.0100 N   0  0  0  0  0  0  0  0  0  0  0  0
  -22.3010  -14.5940   20.6480 O   0  0  0  0  0  0  0  0  0  0  0  0
  -22.4630  -12.0110   22.4250 H   0  0  0  0  0  0  0  0  0  0  0  0
  -21.1440  -13.1350   22.2730 H   0  0  0  0  0  0  0  0  0  0  0  0
  -25.3450  -15.2680   20.2350 N   0  0  0  0  0  0  0  0  0  0  0  0
  -24.5700  -15.9080   20.3730 H   0  0  0  0  0  0  0  0  0  0  0  0
  -26.1770  -15.7250   19.8830 H   0  0  0  0  0  0  0  0  0  0  0  0
  1  2  1  0
  1 50  1  0
  2  4  1  0
  2  3  1  0
  5  6  1  0
  5  2  1  0
  6  7  1  0
  8  6  1  0
  8  9  1  0
  9 11  1  0
 10 21  2  0
 11 16  1  0
 12 20  1  0
 12 22  1  0
 13 19  1  0
 13 15  1  0
 14 20  1  0
 15 14  1  0
 16 15  2  0
 17 18  1  0
 17 11  2  0
 18 13  2  0
 19 12  1  0
 20 10  1  0
 22 24  2  0
 23 22  1  0
 25 23  1  0
 26 35  2  0
 26 31  1  0
 27 23  1  0
 27 31  1  0
 28 27  1  0
 29 30  1  0
 29 28  1  0
 30 26  1  0
 31 32  2  0
 32 33  1  0
 34 33  2  0
 35 34  1  0
 36 10  1  0
 36 37  1  0
 36 46  1  0
 37 40  1  0
 38 42  1  0
 38 37  1  0
 39 38  2  0
 42 41  1  0
 44 42  1  0
 44 45  1  0
 44 43  1  0
 46 49  1  1
 46 47  1  0
 48 46  1  0
 50 56  1  0
 51 55  1  0
 52 54  1  0
 53 51  1  0
 53 56  1  0
 55 65  1  0
 55 52  1  0
 56 54  1  0
 57 66  1  0
 58 63  1  0
 59 60  1  0
 59 58  1  0
 61 60  1  0
 61 72  1  0
 61 62  1  0
 63 57  1  0
 63 62  1  0
 64 57  2  0
 65 67  2  0
 66 65  1  0
 66 68  1  0
 69 70  2  0
 70 89  1  0
 71 70  1  0
 71 74  1  0
 72 73  1  0
 72 69  1  0
 73 71  2  0
 74 75  1  0
 75 76  2  0
 77 80  1  0
 77 76  1  0
 78 77  2  0
 79 78  1  0
 79 74  2  0
 80 81  1  0
 81 82  1  0
 82 83  2  0
 84 83  1  0
 84 88  1  0
 85 84  2  0
 86 81  2  0
 86 85  1  0
 87 86  1  0
 89 90  1  0
 90 93  1  0
 90 92  1  0
 91 89  2  0
 94 95  1  0
 94 69  1  0
 96 94  1  0
M  ISO  4   8 101   9 101  57 100  66 100
M  END
>  <TORSDO>  (91) 
F 22

>  <SCORE>  (91) 
-12.894

>  <name>  (91) 
90

>  <ligand_id>  (91) 
90

>  <original_smiles>  (91) 
[H]c1c([H])c([H])c2c(c1[H])C([H])([H])C([H])([H])C([H])([H])C2([H])N([H])C(=O)C1([H])N(C(=O)C([H])(N([H])C(=O)C([H])(N([H])C([H])([H])[H])C([H])([H])[H])C(C([H])([H])[H])(C([H])([H])[H])C([H])([H])[H])C([H])([H])c2c([H])c(OC([H])([H])C([H])(F)C([H])([H])[N+]([H])([H])C([H])([H])C([H])([H])N3C([H])([H])C([H])([H])C([H])(C(=O)N([H])C(=O)N4C([H])([H])C([H])([H])C([H])([H])C([H])(n5nc(-c6c([H])c([H])c(Oc7c([H])c([H])c(F)c([H])c7F)c([H])c6[H])c(C(=O)N([H])[H])c5N([H])[H])C4([H])[H])C([H])([H])C3([H])[H])c([H])c([H])c2C1([H])[H]

>  <smiles>  (91) 
[H]c1c([H])c([H])c2c(c1[H])C([H])([H])C([H])([H])C([H])([H])C2([H])N([H])C(=O)C1([H])N(C(=O)C([H])(N([H])C(=O)C([H])(N([H])C([H])([H])[H])C([H])([H])[H])C(C([H])([H])[H])(C([H])([H])[H])C([H])([H])[H])C([H])([H])c2c([H])c(OC([H])([H])C([H])(F)C([H])([H])[N+]([H])([H])C([H])([H])C([H])([H])N3C([H])([H])C([H])([H])C([H])(C(=O)N([H])C(=O)N4C([H])([H])C([H])([H])C([H])([H])C([H])(n5nc(-c6c([H])c([H])c(Oc7c([H])c([H])c(F)c([H])c7F)c([H])c6[H])c(C(=O)N([H])[H])c5N([H])[H])C4([H])[H])C([H])([H])C3([H])[H])c([H])c([H])c2C1([H])[H]

$$$$
91:0:0
     RDKit          3D

 94102  0  0  1  0  0  0  0  0999 V2000
  -27.9450  -21.9320   20.1430 N   0  0  0  0  0  4  0  0  0  0  0  0
  -27.9110  -22.0710   21.1410 H   0  0  0  0  0  0  0  0  0  0  0  0
  -26.9990  -21.9760   19.8000 H   0  0  0  0  0  0  0  0  0  0  0  0
  -28.5370  -20.6160   19.8610 C   0  0  0  0  0  2  0  0  0  0  0  0
  -27.5350  -19.4580   19.9840 C   0  0  0  0  0  2  0  0  0  0  0  0
  -28.7000  -17.4520   18.9850 C   0  0  0  0  0  3  0  0  0  0  0  0
  -28.7680  -17.7700   21.4040 C   0  0  0  0  0  3  0  0  0  0  0  0
  -29.6060  -16.3860   19.1040 C   0  0  0  0  0  3  0  0  0  0  0  0
  -29.6640  -16.6940   21.5240 C   0  0  0  0  0  3  0  0  0  0  0  0
  -28.3110  -18.1690   20.1330 C   0  0  0  0  0  0  0  0  0  0  0  0
  -30.1080  -16.0120   20.3740 C   0  0  0  0  0  0  0  0  0  0  0  0
  -31.4220  -14.1050   19.6250 C   0  0  0  0  0  0  0  0  0  0  0  0
  -30.9420  -11.8680   18.7040 C   0  0  0  0  0  2  0  0  0  0  0  0
  -29.8880  -11.9000   17.5820 C   0  0  0  0  0  2  0  0  0  0  0  0
  -28.4650  -11.8180   18.1690 C   0  0  0  0  0  2  0  0  0  0  0  0
  -28.2350  -12.8390   19.3110 C   0  0  0  0  0  3  0  0  0  0  0  0
  -29.3870  -12.7830   20.3390 C   0  0  0  0  0  2  0  0  0  0  0  0
  -30.6620  -12.9790   19.6240 N   0  0  0  0  0  0  0  0  0  0  0  0
  -32.3870  -14.2820   18.8760 O   0  0  0  0  0  0  0  0  0  0  0  0
  -31.1070  -15.0230   20.5410 N   0  0  0  0  0  0  0  0  0  0  0  0
  -31.9130  -15.3710   21.0400 H   0  0  0  0  0  0  0  0  0  0  0  0
  -26.0220  -13.6090   20.3780 C   0  0  0  0  0  0  0  0  0  0  0  0
  -24.9300  -12.9090   20.8150 C   0  0  0  0  0  0  0  0  0  0  0  0
  -25.2390  -11.5300   20.6130 C   0  0  0  0  0  0  0  0  0  0  0  0
  -26.9320  -12.6570   19.9430 N   0  0  0  0  0  0  0  0  0  0  0  0
  -26.4690  -11.3970   20.1370 N   0  0  0  0  0  0  0  0  0  0  0  0
  -24.4150  -10.3280   20.7920 C   0  0  0  0  0  0  0  0  0  0  0  0
  -24.7430   -9.3450   21.7500 C   0  0  0  0  0  3  0  0  0  0  0  0
  -23.9250   -8.2060   21.9140 C   0  0  0  0  0  3  0  0  0  0  0  0
  -22.7660   -8.0440   21.1180 C   0  0  0  0  0  0  0  0  0  0  0  0
  -22.4570   -9.0160   20.1510 C   0  0  0  0  0  3  0  0  0  0  0  0
  -23.2740  -10.1470   19.9850 C   0  0  0  0  0  3  0  0  0  0  0  0
  -21.9260   -6.9580   21.1900 O   0  0  0  0  0  0  0  0  0  0  0  0
  -21.6500   -6.3410   22.3840 C   0  0  0  0  0  0  0  0  0  0  0  0
  -21.0800   -7.0390   23.4710 C   0  0  0  0  0  3  0  0  0  0  0  0
  -20.7460   -6.3500   24.6540 C   0  0  0  0  0  3  0  0  0  0  0  0
  -20.9760   -4.9650   24.7490 C   0  0  0  0  0  0  0  0  0  0  0  0
  -21.5390   -4.2660   23.6670 C   0  0  0  0  0  3  0  0  0  0  0  0
  -21.8730   -4.9530   22.4860 C   0  0  0  0  0  0  0  0  0  0  0  0
  -22.3950   -4.2720   21.4390 F   0  0  0  0  0  0  0  0  0  0  0  0
  -20.6500   -4.3020   25.8840 F   0  0  0  0  0  0  0  0  0  0  0  0
  -23.6360  -13.4880   21.3100 C   0  0  0  0  0  0  0  0  0  0  0  0
  -22.9640  -12.7960   22.2240 N   0  0  0  0  0  0  0  0  0  0  0  0
  -23.2330  -14.5830   20.9210 O   0  0  0  0  0  0  0  0  0  0  0  0
  -23.3010  -11.9070   22.5630 H   0  0  0  0  0  0  0  0  0  0  0  0
  -22.1000  -13.1660   22.5970 H   0  0  0  0  0  0  0  0  0  0  0  0
  -26.3090  -14.9680   20.3000 N   0  0  0  0  0  0  0  0  0  0  0  0
  -25.6540  -15.6780   20.6040 H   0  0  0  0  0  0  0  0  0  0  0  0
  -27.2090  -15.3460   20.0300 H   0  0  0  0  0  0  0  0  0  0  0  0
  -28.7050  -23.0490   19.5470 C   0  0  0  0  0  2  0  0  0  0  0  0
  -28.3900  -24.3700   20.2550 C   0  0  0  0  0  3  0  0  0  0  0  0
  -27.0700  -24.4070   20.4560 F   0  0  0  0  0  0  0  0  0  0  0  0
  -28.8890  -25.5880   19.4460 C   0  0  0  0  0  2  0  0  0  0  0  0
  -28.7430  -26.8120   20.1610 O   0  0  0  0  0  0  0  0  0  0  0  0
  -24.7530  -31.7270   23.3550 C   0  0  0  0  0  0  0  0  0  0  0  0
  -27.5310  -27.4690   20.1440 C   0  0  0  0  0  0  0  0  0  0  0  0
  -23.6030  -30.3750   21.6320 C   0  0  0  0  0  3  0  0  0  0  0  0
  -25.1080  -28.9220   20.1780 C   0  0  0  0  0  0  0  0  0  0  0  0
  -26.1250  -30.7790   21.5070 C   0  0  0  0  0  2  0  0  0  0  0  0
  -26.2410  -29.4370   20.8170 C   0  0  0  0  0  0  0  0  0  0  0  0
  -27.4500  -28.7120   20.8080 C   0  0  0  0  0  3  0  0  0  0  0  0
  -26.3770  -26.9740   19.4890 C   0  0  0  0  0  3  0  0  0  0  0  0
  -25.1670  -27.6870   19.5160 C   0  0  0  0  0  3  0  0  0  0  0  0
  -23.8500  -29.7560   20.2300 C   0  0  0  0  0  2  0  0  0  0  0  0
  -24.8440  -30.9710   22.2240 N   0  0  0  0  0  0  0  0  0  0  0  0
  -23.6570  -31.9650   23.8780 O   0  0  0  0  0  0  0  0  0  0  0  0
  -22.9500  -29.3050   22.5360 C   0  0  0  0  0  0  0  0  0  0  0  0
  -21.6370  -29.0890   22.3490 N   0  0  0  0  0  0  0  0  0  0  0  0
  -23.6200  -28.6760   23.3590 O   0  0  0  0  0  0  0  0  0  0  0  0
  -21.1610  -29.6530   21.6600 H   0  0  0  0  0  0  0  0  0  0  0  0
  -18.2860  -27.7800   22.6530 C   0  0  0  0  0  0  0  0  0  0  0  0
  -20.8170  -28.1070   23.0560 C   0  0  0  0  0  3  0  0  0  0  0  0
  -20.9910  -26.6950   22.4510 C   0  0  0  0  0  2  0  0  0  0  0  0
  -19.9530  -26.3710   21.3730 C   0  0  0  0  0  2  0  0  0  0  0  0
  -18.5350  -26.4590   21.9460 C   0  0  0  0  0  2  0  0  0  0  0  0
  -19.3580  -28.5630   23.1570 C   0  0  0  0  0  0  0  0  0  0  0  0
  -19.0720  -29.8040   23.7680 C   0  0  0  0  0  3  0  0  0  0  0  0
  -17.7470  -30.2630   23.8800 C   0  0  0  0  0  3  0  0  0  0  0  0
  -16.6890  -29.4760   23.3960 C   0  0  0  0  0  3  0  0  0  0  0  0
  -16.9580  -28.2350   22.7890 C   0  0  0  0  0  3  0  0  0  0  0  0
  -26.0190  -32.3460   24.0260 C   0  0  0  0  0  3  0  0  0  0  0  0
  -25.7010  -33.7400   24.3630 N   0  0  0  0  0  0  0  0  0  0  0  0
  -26.0430  -34.7970   23.6160 C   0  0  0  0  0  0  0  0  0  0  0  0
  -26.7310  -34.7030   22.5950 O   0  0  0  0  0  0  0  0  0  0  0  0
  -25.0920  -33.8860   25.1550 H   0  0  0  0  0  0  0  0  0  0  0  0
  -24.3020  -36.5750   23.2510 C   0  0  0  0  0  1  0  0  0  0  0  0
  -25.5410  -36.1790   24.0730 C   0  0  0  0  0  3  0  0  0  0  0  0
  -27.6590  -37.0810   24.9250 C   0  0  0  0  0  1  0  0  0  0  0  0
  -26.5660  -37.2410   23.9700 N   0  0  0  0  0  0  0  0  0  0  0  0
  -26.1500  -38.1570   24.1120 H   0  0  0  0  0  0  0  0  0  0  0  0
  -26.4930  -31.5540   25.3070 C   0  0  1  0  0  0  0  0  0  0  0  0
  -25.3580  -31.2760   26.3190 C   0  0  0  0  0  1  0  0  0  0  0  0
  -27.1150  -30.1960   24.9090 C   0  0  0  0  0  1  0  0  0  0  0  0
  -27.6020  -32.3510   26.0330 C   0  0  0  0  0  1  0  0  0  0  0  0
  1  2  1  0
  3  1  1  0
  4  5  1  0
  4  1  1  0
  5 10  1  0
  6  8  2  0
  6 10  1  0
  7  9  1  0
  8 11  1  0
 10  7  2  0
 11 20  1  0
 11  9  2  0
 12 20  1  0
 13 18  1  0
 14 15  1  0
 14 13  1  0
 16 15  1  0
 16 25  1  0
 16 17  1  0
 18 12  1  0
 18 17  1  0
 19 12  2  0
 20 21  1  0
 22 23  2  0
 23 42  1  0
 24 27  1  0
 24 23  1  0
 25 26  1  0
 25 22  1  0
 26 24  2  0
 27 28  1  0
 28 29  2  0
 30 33  1  0
 30 29  1  0
 31 30  2  0
 32 31  1  0
 32 27  2  0
 33 34  1  0
 34 39  2  0
 34 35  1  0
 35 36  2  0
 36 37  1  0
 37 41  1  0
 38 37  2  0
 39 38  1  0
 40 39  1  0
 42 43  1  0
 43 45  1  0
 43 46  1  0
 44 42  2  0
 47 22  1  0
 47 48  1  0
 49 47  1  0
 50  1  1  0
 50 51  1  0
 51 52  1  0
 53 54  1  0
 53 51  1  0
 55 66  2  0
 56 54  1  0
 56 61  1  0
 57 65  1  0
 57 67  1  0
 58 64  1  0
 58 60  1  0
 59 65  1  0
 60 59  1  0
 61 60  2  0
 62 63  1  0
 62 56  2  0
 63 58  2  0
 64 57  1  0
 65 55  1  0
 67 69  2  0
 68 67  1  0
 70 68  1  0
 71 80  2  0
 71 76  1  0
 72 68  1  0
 72 76  1  0
 73 72  1  0
 74 75  1  0
 74 73  1  0
 75 71  1  0
 76 77  2  0
 77 78  1  0
 79 78  2  0
 80 79  1  0
 81 55  1  0
 81 82  1  0
 81 91  1  0
 82 85  1  0
 83 87  1  0
 83 82  1  0
 84 83  2  0
 87 86  1  0
 89 87  1  0
 89 90  1  0
 89 88  1  0
 91 94  1  1
 91 92  1  0
 93 91  1  0
M  ISO  4  12 100  20 100  53 101  54 101
M  END
>  <TORSDO>  (92) 
F 22

>  <SCORE>  (92) 
-10.976

>  <name>  (92) 
91

>  <ligand_id>  (92) 
91

>  <original_smiles>  (92) 
[H]c1c([H])c([H])c2c(c1[H])C([H])([H])C([H])([H])C([H])([H])C2([H])N([H])C(=O)C1([H])N(C(=O)C([H])(N([H])C(=O)C([H])(N([H])C([H])([H])[H])C([H])([H])[H])C(C([H])([H])[H])(C([H])([H])[H])C([H])([H])[H])C([H])([H])c2c([H])c(OC([H])([H])C([H])(F)C([H])([H])[N+]([H])([H])C([H])([H])C([H])([H])c3c([H])c([H])c(N([H])C(=O)N4C([H])([H])C([H])([H])C([H])([H])C([H])(n5nc(-c6c([H])c([H])c(Oc7c([H])c([H])c(F)c([H])c7F)c([H])c6[H])c(C(=O)N([H])[H])c5N([H])[H])C4([H])[H])c([H])c3[H])c([H])c([H])c2C1([H])[H]

>  <smiles>  (92) 
[H]c1c([H])c([H])c2c(c1[H])C([H])([H])C([H])([H])C([H])([H])C2([H])N([H])C(=O)C1([H])N(C(=O)C([H])(N([H])C(=O)C([H])(N([H])C([H])([H])[H])C([H])([H])[H])C(C([H])([H])[H])(C([H])([H])[H])C([H])([H])[H])C([H])([H])c2c([H])c(OC([H])([H])C([H])(F)C([H])([H])[N+]([H])([H])C([H])([H])C([H])([H])c3c([H])c([H])c(N([H])C(=O)N4C([H])([H])C([H])([H])C([H])([H])C([H])(n5nc(-c6c([H])c([H])c(Oc7c([H])c([H])c(F)c([H])c7F)c([H])c6[H])c(C(=O)N([H])[H])c5N([H])[H])C4([H])[H])c([H])c3[H])c([H])c([H])c2C1([H])[H]

$$$$
92:0:0
     RDKit          3D

100109  0  0  1  0  0  0  0  0999 V2000
  -31.8310  -20.6860   23.1800 C   0  0  0  0  0  2  0  0  0  0  0  0
  -32.3090  -22.0010   22.6990 N   0  0  0  0  0  4  0  0  0  0  0  0
  -32.8410  -21.9050   21.8500 H   0  0  0  0  0  0  0  0  0  0  0  0
  -32.9610  -22.3210   23.3990 H   0  0  0  0  0  0  0  0  0  0  0  0
  -31.3080  -23.0820   22.5650 C   0  0  0  0  0  2  0  0  0  0  0  0
  -30.7240  -23.2310   21.1350 C   0  0  0  0  0  2  0  0  0  0  0  0
  -29.2710  -23.4380   21.1440 N   0  0  0  0  0  0  0  0  0  0  0  0
  -29.0050  -23.8700   22.0250 H   0  0  0  0  0  0  0  0  0  0  0  0
  -28.8810  -24.3490   20.0620 C   0  0  0  0  0  2  0  0  0  0  0  0
  -27.6090  -25.1560   20.3980 C   0  0  0  0  0  2  0  0  0  0  0  0
  -27.4670  -26.1880   19.4210 O   0  0  0  0  0  0  0  0  0  0  0  0
  -24.3700  -31.4010   23.1640 C   0  0  0  0  0  0  0  0  0  0  0  0
  -26.3860  -27.0140   19.5970 C   0  0  0  0  0  0  0  0  0  0  0  0
  -22.9460  -30.2890   21.4720 C   0  0  0  0  0  3  0  0  0  0  0  0
  -24.1630  -28.7350   19.8540 C   0  0  0  0  0  0  0  0  0  0  0  0
  -25.4820  -30.4030   21.1700 C   0  0  0  0  0  2  0  0  0  0  0  0
  -25.3930  -29.0880   20.4240 C   0  0  0  0  0  0  0  0  0  0  0  0
  -26.5100  -28.2350   20.2930 C   0  0  0  0  0  3  0  0  0  0  0  0
  -25.1450  -26.6680   19.0230 C   0  0  0  0  0  3  0  0  0  0  0  0
  -24.0310  -27.5200   19.1520 C   0  0  0  0  0  3  0  0  0  0  0  0
  -23.0220  -29.7100   20.0330 C   0  0  0  0  0  2  0  0  0  0  0  0
  -24.2870  -30.7090   21.9920 N   0  0  0  0  0  0  0  0  0  0  0  0
  -23.3510  -31.7350   23.7850 O   0  0  0  0  0  0  0  0  0  0  0  0
  -22.2260  -29.2640   22.3770 C   0  0  0  0  0  0  0  0  0  0  0  0
  -20.8860  -29.2320   22.2930 N   0  0  0  0  0  0  0  0  0  0  0  0
  -22.8680  -28.4990   23.1020 O   0  0  0  0  0  0  0  0  0  0  0  0
  -20.4360  -29.8960   21.6800 H   0  0  0  0  0  0  0  0  0  0  0  0
  -17.4220  -28.3510   22.8290 C   0  0  0  0  0  0  0  0  0  0  0  0
  -20.0000  -28.3230   23.0200 C   0  0  0  0  0  3  0  0  0  0  0  0
  -19.9320  -26.9390   22.3280 C   0  0  0  0  0  2  0  0  0  0  0  0
  -18.7720  -26.8190   21.3350 C   0  0  0  0  0  2  0  0  0  0  0  0
  -17.4340  -27.0500   22.0440 C   0  0  0  0  0  2  0  0  0  0  0  0
  -18.6280  -28.9570   23.2740 C   0  0  0  0  0  0  0  0  0  0  0  0
  -18.5620  -30.1840   23.9680 C   0  0  0  0  0  3  0  0  0  0  0  0
  -17.3240  -30.8030   24.2210 C   0  0  0  0  0  3  0  0  0  0  0  0
  -16.1320  -30.1910   23.7940 C   0  0  0  0  0  3  0  0  0  0  0  0
  -16.1830  -28.9650   23.1050 C   0  0  0  0  0  3  0  0  0  0  0  0
  -25.7420  -31.8300   23.7660 C   0  0  0  0  0  3  0  0  0  0  0  0
  -26.2200  -30.9000   24.9470 C   0  0  1  0  0  0  0  0  0  0  0  0
  -25.1600  -30.7160   26.0550 C   0  0  0  0  0  1  0  0  0  0  0  0
  -26.5960  -29.4940   24.4230 C   0  0  0  0  0  1  0  0  0  0  0  0
  -27.4930  -31.4970   25.5890 C   0  0  0  0  0  1  0  0  0  0  0  0
  -25.6100  -33.2220   24.2200 N   0  0  0  0  0  0  0  0  0  0  0  0
  -26.0750  -34.2860   23.5530 C   0  0  0  0  0  0  0  0  0  0  0  0
  -26.7260  -34.1920   22.5090 O   0  0  0  0  0  0  0  0  0  0  0  0
  -25.0360  -33.3770   25.0350 H   0  0  0  0  0  0  0  0  0  0  0  0
  -24.5910  -36.3060   23.3690 C   0  0  0  0  0  1  0  0  0  0  0  0
  -25.7610  -35.6760   24.1380 C   0  0  0  0  0  3  0  0  0  0  0  0
  -27.9780  -36.2050   25.0510 C   0  0  0  0  0  1  0  0  0  0  0  0
  -26.9210  -36.5950   24.1220 N   0  0  0  0  0  0  0  0  0  0  0  0
  -26.6340  -37.5430   24.3520 H   0  0  0  0  0  0  0  0  0  0  0  0
  -30.8060  -19.9980   22.2480 C   0  0  0  0  0  2  0  0  0  0  0  0
  -31.2070  -18.5330   21.9460 C   0  0  0  0  0  2  0  0  0  0  0  0
  -28.1820  -17.3830   20.1200 C   0  0  0  0  0  2  0  0  0  0  0  0
  -28.7510  -16.1300   20.7760 C   0  0  0  0  0  2  0  0  0  0  0  0
  -29.0410  -18.4850   20.7210 C   0  0  0  0  0  2  0  0  0  0  0  0
  -30.2570  -16.4240   20.9770 C   0  0  0  0  0  3  0  0  0  0  0  0
  -30.3960  -17.9040   20.8710 N   0  0  2  0  0  4  0  0  0  0  0  0
  -30.8730  -18.0450   19.9910 H   0  0  0  0  0  0  0  0  0  0  0  0
  -32.6090  -16.0860   19.7140 C   0  0  0  0  0  2  0  0  0  0  0  0
  -31.5420  -16.3030   18.6680 C   0  0  0  0  0  2  0  0  0  0  0  0
  -31.1750  -15.6660   19.9990 C   0  0  2  0  0  0  0  0  0  0  0  0
  -31.4360  -13.1690   19.5840 C   0  0  0  0  0  0  0  0  0  0  0  0
  -30.8110  -10.9540   18.7060 C   0  0  0  0  0  2  0  0  0  0  0  0
  -29.7970  -11.1540   17.5580 C   0  0  0  0  0  2  0  0  0  0  0  0
  -28.3580  -11.2640   18.1020 C   0  0  0  0  0  2  0  0  0  0  0  0
  -28.2360  -12.2840   19.2650 C   0  0  0  0  0  3  0  0  0  0  0  0
  -29.3330  -12.0080   20.3190 C   0  0  0  0  0  2  0  0  0  0  0  0
  -30.6420  -12.0720   19.6390 N   0  0  0  0  0  0  0  0  0  0  0  0
  -32.5610  -13.1770   19.0740 O   0  0  0  0  0  0  0  0  0  0  0  0
  -30.7940  -14.2790   19.9740 N   0  0  0  0  0  0  0  0  0  0  0  0
  -29.8580  -14.0900   20.3020 H   0  0  0  0  0  0  0  0  0  0  0  0
  -26.0470  -13.3340   20.1290 C   0  0  0  0  0  0  0  0  0  0  0  0
  -24.8930  -12.7710   20.6080 C   0  0  0  0  0  0  0  0  0  0  0  0
  -25.1040  -11.3590   20.5860 C   0  0  0  0  0  0  0  0  0  0  0  0
  -26.8990  -12.2740   19.8530 N   0  0  0  0  0  0  0  0  0  0  0  0
  -26.3380  -11.0850   20.1830 N   0  0  0  0  0  0  0  0  0  0  0  0
  -24.1880  -10.2470   20.8710 C   0  0  0  0  0  0  0  0  0  0  0  0
  -24.5590   -9.1930   21.7330 C   0  0  0  0  0  3  0  0  0  0  0  0
  -23.6560   -8.1430   22.0060 C   0  0  0  0  0  3  0  0  0  0  0  0
  -22.3700   -8.1420   21.4170 C   0  0  0  0  0  0  0  0  0  0  0  0
  -22.0150   -9.1820   20.5410 C   0  0  0  0  0  3  0  0  0  0  0  0
  -22.9150  -10.2230   20.2660 C   0  0  0  0  0  3  0  0  0  0  0  0
  -21.4370   -7.1500   21.6040 O   0  0  0  0  0  0  0  0  0  0  0  0
  -21.3850   -6.4210   22.7650 C   0  0  0  0  0  0  0  0  0  0  0  0
  -21.1980   -7.0360   24.0230 C   0  0  0  0  0  3  0  0  0  0  0  0
  -21.0840   -6.2430   25.1830 C   0  0  0  0  0  3  0  0  0  0  0  0
  -21.1460   -4.8410   25.0850 C   0  0  0  0  0  0  0  0  0  0  0  0
  -21.3240   -4.2260   23.8330 C   0  0  0  0  0  3  0  0  0  0  0  0
  -21.4430   -5.0160   22.6760 C   0  0  0  0  0  0  0  0  0  0  0  0
  -21.5950   -4.4190   21.4690 F   0  0  0  0  0  0  0  0  0  0  0  0
  -21.0250   -4.0800   26.1980 F   0  0  0  0  0  0  0  0  0  0  0  0
  -23.6260  -13.4920   20.9700 C   0  0  0  0  0  0  0  0  0  0  0  0
  -22.8930  -12.9800   21.9560 N   0  0  0  0  0  0  0  0  0  0  0  0
  -23.3020  -14.5370   20.4130 O   0  0  0  0  0  0  0  0  0  0  0  0
  -23.1680  -12.1290   22.4230 H   0  0  0  0  0  0  0  0  0  0  0  0
  -22.0470  -13.4470   22.2520 H   0  0  0  0  0  0  0  0  0  0  0  0
  -26.4390  -14.6480   19.8910 N   0  0  0  0  0  0  0  0  0  0  0  0
  -25.7960  -15.4240   20.0010 H   0  0  0  0  0  0  0  0  0  0  0  0
  -27.2910  -14.9060   19.4140 H   0  0  0  0  0  0  0  0  0  0  0  0
  2  1  1  0
  2  4  1  0
  3  2  1  0
  5  2  1  0
  6  7  1  0
  6  5  1  0
  7  8  1  0
  9 10  1  0
  9  7  1  0
 11 13  1  0
 11 10  1  0
 12 23  2  0
 13 18  1  0
 14 22  1  0
 14 24  1  0
 15 21  1  0
 15 17  1  0
 16 22  1  0
 17 16  1  0
 18 17  2  0
 19 20  1  0
 19 13  2  0
 20 15  2  0
 21 14  1  0
 22 12  1  0
 24 26  2  0
 25 24  1  0
 27 25  1  0
 28 37  2  0
 28 33  1  0
 29 25  1  0
 29 33  1  0
 30 29  1  0
 31 32  1  0
 31 30  1  0
 32 28  1  0
 33 34  2  0
 34 35  1  0
 36 35  2  0
 37 36  1  0
 38 12  1  0
 38 43  1  0
 38 39  1  0
 39 42  1  1
 39 40  1  0
 41 39  1  0
 43 46  1  0
 44 48  1  0
 44 43  1  0
 45 44  2  0
 48 47  1  0
 50 48  1  0
 50 51  1  0
 50 49  1  0
 52  1  1  0
 53 52  1  0
 54 56  1  0
 54 55  1  0
 55 57  1  0
 56 58  1  0
 57 62  1  0
 58 57  1  0
 58 53  1  0
 58 59  1  6
 60 62  1  0
 61 60  1  0
 61 62  1  0
 63 69  1  0
 63 71  1  0
 64 69  1  0
 65 66  1  0
 65 64  1  0
 67 66  1  0
 67 76  1  0
 67 68  1  0
 69 68  1  0
 70 63  2  0
 62 71  1  6
 71 72  1  0
 73 74  2  0
 74 93  1  0
 75 74  1  0
 75 78  1  0
 76 73  1  0
 76 77  1  0
 77 75  2  0
 78 79  1  0
 79 80  2  0
 81 84  1  0
 81 80  1  0
 82 81  2  0
 83 82  1  0
 83 78  2  0
 84 85  1  0
 85 86  1  0
 86 87  2  0
 88 87  1  0
 88 92  1  0
 89 88  2  0
 90 85  2  0
 90 89  1  0
 91 90  1  0
 93 94  1  0
 94 97  1  0
 94 96  1  0
 95 93  2  0
 98 99  1  0
 98 73  1  0
100 98  1  0
M  ISO  4  10 101  11 101  63 100  71 100
M  END
>  <TORSDO>  (93) 
F 26

>  <SCORE>  (93) 
-8.725

>  <name>  (93) 
92

>  <ligand_id>  (93) 
92

>  <original_smiles>  (93) 
[H]c1c([H])c([H])c2c(c1[H])C([H])([H])C([H])([H])C([H])([H])C2([H])N([H])C(=O)C1([H])N(C(=O)C([H])(N([H])C(=O)C([H])(N([H])C([H])([H])[H])C([H])([H])[H])C(C([H])([H])[H])(C([H])([H])[H])C([H])([H])[H])C([H])([H])c2c([H])c(OC([H])([H])C([H])([H])N([H])C([H])([H])C([H])([H])[N+]([H])([H])C([H])([H])C([H])([H])C([H])([H])[N+]3([H])C([H])([H])C([H])([H])C([H])([H])C3([H])C3(N([H])C(=O)N4C([H])([H])C([H])([H])C([H])([H])C([H])(n5nc(-c6c([H])c([H])c(Oc7c([H])c([H])c(F)c([H])c7F)c([H])c6[H])c(C(=O)N([H])[H])c5N([H])[H])C4([H])[H])C([H])([H])C3([H])[H])c([H])c([H])c2C1([H])[H]

>  <smiles>  (93) 
[H]c1c([H])c([H])c2c(c1[H])C([H])([H])C([H])([H])C([H])([H])C2([H])N([H])C(=O)C1([H])N(C(=O)C([H])(N([H])C(=O)C([H])(N([H])C([H])([H])[H])C([H])([H])[H])C(C([H])([H])[H])(C([H])([H])[H])C([H])([H])[H])C([H])([H])c2c([H])c(OC([H])([H])C([H])([H])N([H])C([H])([H])C([H])([H])[N+]([H])([H])C([H])([H])C([H])([H])C([H])([H])[N+]3([H])C([H])([H])C([H])([H])C([H])([H])C3([H])C3(N([H])C(=O)N4C([H])([H])C([H])([H])C([H])([H])C([H])(n5nc(-c6c([H])c([H])c(Oc7c([H])c([H])c(F)c([H])c7F)c([H])c6[H])c(C(=O)N([H])[H])c5N([H])[H])C4([H])[H])C([H])([H])C3([H])[H])c([H])c([H])c2C1([H])[H]

$$$$
93:0:0
     RDKit          3D

 94102  0  0  1  0  0  0  0  0999 V2000
  -30.3220  -21.7930   19.6680 N   0  0  0  0  0  4  0  0  0  0  0  0
  -30.3660  -21.8530   20.6720 H   0  0  0  0  0  0  0  0  0  0  0  0
  -29.3840  -21.5310   19.4050 H   0  0  0  0  0  0  0  0  0  0  0  0
  -31.2160  -20.7080   19.2230 C   0  0  0  0  0  2  0  0  0  0  0  0
  -31.8020  -18.6830   20.6400 C   0  0  0  0  0  3  0  0  0  0  0  0
  -31.5160  -17.3860   21.1110 C   0  0  0  0  0  3  0  0  0  0  0  0
  -29.2970  -17.5050   20.0970 C   0  0  0  0  0  3  0  0  0  0  0  0
  -30.8560  -19.3740   19.8560 C   0  0  0  0  0  0  0  0  0  0  0  0
  -30.2820  -16.7740   20.7970 C   0  0  0  0  0  0  0  0  0  0  0  0
  -29.5900  -18.7960   19.6170 C   0  0  0  0  0  0  0  0  0  0  0  0
  -28.6610  -19.4840   18.9090 F   0  0  0  0  0  0  0  0  0  0  0  0
  -30.6970  -14.4080   20.5410 C   0  0  0  0  0  0  0  0  0  0  0  0
  -30.3470  -12.2800   19.3640 C   0  0  0  0  0  2  0  0  0  0  0  0
  -29.4320  -12.5320   18.1510 C   0  0  0  0  0  2  0  0  0  0  0  0
  -27.9490  -12.4240   18.5610 C   0  0  0  0  0  2  0  0  0  0  0  0
  -27.6140  -13.2360   19.8420 C   0  0  0  0  0  3  0  0  0  0  0  0
  -28.6540  -12.9880   20.9580 C   0  0  0  0  0  2  0  0  0  0  0  0
  -29.9920  -13.2550   20.4040 N   0  0  0  0  0  0  0  0  0  0  0  0
  -31.8150  -14.5730   20.0500 O   0  0  0  0  0  0  0  0  0  0  0  0
  -30.0350  -15.4180   21.1280 N   0  0  0  0  0  0  0  0  0  0  0  0
  -29.1080  -15.1840   21.4500 H   0  0  0  0  0  0  0  0  0  0  0  0
  -25.2080  -13.8450   20.5190 C   0  0  0  0  0  0  0  0  0  0  0  0
  -24.1380  -13.0750   20.8870 C   0  0  0  0  0  0  0  0  0  0  0  0
  -24.5990  -11.7230   20.8690 C   0  0  0  0  0  0  0  0  0  0  0  0
  -26.2550  -12.9640   20.3040 N   0  0  0  0  0  0  0  0  0  0  0  0
  -25.8920  -11.6830   20.5710 N   0  0  0  0  0  0  0  0  0  0  0  0
  -23.8730  -10.4620   21.0640 C   0  0  0  0  0  0  0  0  0  0  0  0
  -24.3120   -9.4900   21.9900 C   0  0  0  0  0  3  0  0  0  0  0  0
  -23.5860   -8.2930   22.1700 C   0  0  0  0  0  3  0  0  0  0  0  0
  -22.4060   -8.0600   21.4240 C   0  0  0  0  0  0  0  0  0  0  0  0
  -21.9860   -9.0200   20.4870 C   0  0  0  0  0  3  0  0  0  0  0  0
  -22.7120  -10.2080   20.3050 C   0  0  0  0  0  3  0  0  0  0  0  0
  -21.6480   -6.9180   21.5150 O   0  0  0  0  0  0  0  0  0  0  0  0
  -21.6270   -6.1580   22.6550 C   0  0  0  0  0  0  0  0  0  0  0  0
  -21.2500   -6.6960   23.9040 C   0  0  0  0  0  3  0  0  0  0  0  0
  -21.1740   -5.8620   25.0380 C   0  0  0  0  0  3  0  0  0  0  0  0
  -21.4670   -4.4910   24.9230 C   0  0  0  0  0  0  0  0  0  0  0  0
  -21.8420   -3.9510   23.6800 C   0  0  0  0  0  3  0  0  0  0  0  0
  -21.9180   -4.7820   22.5490 C   0  0  0  0  0  0  0  0  0  0  0  0
  -22.2560   -4.2530   21.3480 F   0  0  0  0  0  0  0  0  0  0  0  0
  -21.3890   -3.6870   26.0100 F   0  0  0  0  0  0  0  0  0  0  0  0
  -22.7400  -13.5520   21.1480 C   0  0  0  0  0  0  0  0  0  0  0  0
  -22.0070  -12.8580   22.0110 N   0  0  0  0  0  0  0  0  0  0  0  0
  -22.3080  -14.5760   20.6220 O   0  0  0  0  0  0  0  0  0  0  0  0
  -22.3710  -12.0260   22.4530 H   0  0  0  0  0  0  0  0  0  0  0  0
  -21.0680  -13.1630   22.2300 H   0  0  0  0  0  0  0  0  0  0  0  0
  -25.3730  -15.2140   20.3330 N   0  0  0  0  0  0  0  0  0  0  0  0
  -24.6010  -15.8670   20.3990 H   0  0  0  0  0  0  0  0  0  0  0  0
  -26.2250  -15.6460   19.9990 H   0  0  0  0  0  0  0  0  0  0  0  0
  -30.6690  -23.0990   19.0750 C   0  0  0  0  0  2  0  0  0  0  0  0
  -29.6420  -24.1930   19.4060 C   0  0  0  0  0  2  0  0  0  0  0  0
  -30.0460  -25.5460   18.7980 C   0  0  0  0  0  2  0  0  0  0  0  0
  -28.8830  -26.5360   18.7390 C   0  0  0  0  0  2  0  0  0  0  0  0
  -28.4330  -26.8110   20.0610 O   0  0  0  0  0  0  0  0  0  0  0  0
  -24.5860  -31.8840   23.2280 C   0  0  0  0  0  0  0  0  0  0  0  0
  -27.2440  -27.4930   20.1160 C   0  0  0  0  0  0  0  0  0  0  0  0
  -23.3820  -30.4830   21.5830 C   0  0  0  0  0  3  0  0  0  0  0  0
  -24.8370  -28.9510   20.1620 C   0  0  0  0  0  0  0  0  0  0  0  0
  -25.9010  -30.8580   21.3800 C   0  0  0  0  0  2  0  0  0  0  0  0
  -25.9900  -29.4860   20.7500 C   0  0  0  0  0  0  0  0  0  0  0  0
  -27.1990  -28.7560   20.7390 C   0  0  0  0  0  3  0  0  0  0  0  0
  -26.0710  -26.9490   19.5490 C   0  0  0  0  0  3  0  0  0  0  0  0
  -24.8680  -27.6780   19.5670 C   0  0  0  0  0  3  0  0  0  0  0  0
  -23.5900  -29.8040   20.2050 C   0  0  0  0  0  2  0  0  0  0  0  0
  -24.6420  -31.0870   22.1240 N   0  0  0  0  0  0  0  0  0  0  0  0
  -23.5030  -32.1530   23.7700 O   0  0  0  0  0  0  0  0  0  0  0  0
  -22.7360  -29.4560   22.5410 C   0  0  0  0  0  0  0  0  0  0  0  0
  -21.4100  -29.2810   22.4230 N   0  0  0  0  0  0  0  0  0  0  0  0
  -23.4230  -28.8210   23.3440 O   0  0  0  0  0  0  0  0  0  0  0  0
  -20.9130  -29.8490   21.7500 H   0  0  0  0  0  0  0  0  0  0  0  0
  -18.0380  -28.1020   22.9410 C   0  0  0  0  0  0  0  0  0  0  0  0
  -20.5980  -28.3430   23.1960 C   0  0  0  0  0  3  0  0  0  0  0  0
  -20.6870  -26.9160   22.6090 C   0  0  0  0  0  2  0  0  0  0  0  0
  -19.5750  -26.6040   21.6020 C   0  0  0  0  0  2  0  0  0  0  0  0
  -18.1990  -26.7560   22.2560 C   0  0  0  0  0  2  0  0  0  0  0  0
  -19.1650  -28.8530   23.3690 C   0  0  0  0  0  0  0  0  0  0  0  0
  -18.9570  -30.1130   23.9710 C   0  0  0  0  0  3  0  0  0  0  0  0
  -17.6570  -30.6270   24.1450 C   0  0  0  0  0  3  0  0  0  0  0  0
  -16.5450  -29.8730   23.7310 C   0  0  0  0  0  3  0  0  0  0  0  0
  -16.7380  -28.6110   23.1400 C   0  0  0  0  0  3  0  0  0  0  0  0
  -25.8700  -32.5160   23.8490 C   0  0  0  0  0  3  0  0  0  0  0  0
  -25.5600  -33.9150   24.1740 N   0  0  0  0  0  0  0  0  0  0  0  0
  -25.9040  -34.9640   23.4160 C   0  0  0  0  0  0  0  0  0  0  0  0
  -26.5840  -34.8580   22.3920 O   0  0  0  0  0  0  0  0  0  0  0  0
  -24.9480  -34.0740   24.9620 H   0  0  0  0  0  0  0  0  0  0  0  0
  -24.1820  -36.7560   23.0430 C   0  0  0  0  0  1  0  0  0  0  0  0
  -25.4160  -36.3520   23.8660 C   0  0  0  0  0  3  0  0  0  0  0  0
  -27.5450  -37.2300   24.7150 C   0  0  0  0  0  1  0  0  0  0  0  0
  -26.4510  -37.4030   23.7630 N   0  0  0  0  0  0  0  0  0  0  0  0
  -26.0450  -38.3220   23.9130 H   0  0  0  0  0  0  0  0  0  0  0  0
  -26.3930  -31.7420   25.1220 C   0  0  1  0  0  0  0  0  0  0  0  0
  -25.2990  -31.4900   26.1860 C   0  0  0  0  0  1  0  0  0  0  0  0
  -26.9810  -30.3690   24.7170 C   0  0  0  0  0  1  0  0  0  0  0  0
  -27.5440  -32.5360   25.7830 C   0  0  0  0  0  1  0  0  0  0  0  0
  1  2  1  0
  3  1  1  0
  4  1  1  0
  4  8  1  0
  5  6  1  0
  7  9  1  0
  8  5  2  0
  9  6  2  0
  9 20  1  0
 10  8  1  0
 10  7  2  0
 11 10  1  0
 12 20  1  0
 13 18  1  0
 14 15  1  0
 14 13  1  0
 16 15  1  0
 16 25  1  0
 16 17  1  0
 18 12  1  0
 18 17  1  0
 19 12  2  0
 20 21  1  0
 22 23  2  0
 23 42  1  0
 24 23  1  0
 24 27  1  0
 25 22  1  0
 25 26  1  0
 26 24  2  0
 27 28  1  0
 28 29  2  0
 30 33  1  0
 30 29  1  0
 31 30  2  0
 32 31  1  0
 32 27  2  0
 33 34  1  0
 34 35  1  0
 35 36  2  0
 37 36  1  0
 37 41  1  0
 38 37  2  0
 39 34  2  0
 39 38  1  0
 40 39  1  0
 42 43  1  0
 43 46  1  0
 43 45  1  0
 44 42  2  0
 47 48  1  0
 47 22  1  0
 49 47  1  0
 50 51  1  0
 50  1  1  0
 52 51  1  0
 53 52  1  0
 53 54  1  0
 54 56  1  0
 55 66  2  0
 56 61  1  0
 57 65  1  0
 57 67  1  0
 58 64  1  0
 58 60  1  0
 59 65  1  0
 60 59  1  0
 61 60  2  0
 62 63  1  0
 62 56  2  0
 63 58  2  0
 64 57  1  0
 65 55  1  0
 67 69  2  0
 68 67  1  0
 70 68  1  0
 71 80  2  0
 71 76  1  0
 72 68  1  0
 72 76  1  0
 73 72  1  0
 74 75  1  0
 74 73  1  0
 75 71  1  0
 76 77  2  0
 77 78  1  0
 79 78  2  0
 80 79  1  0
 81 55  1  0
 81 82  1  0
 81 91  1  0
 82 85  1  0
 83 87  1  0
 83 82  1  0
 84 83  2  0
 87 86  1  0
 89 87  1  0
 89 90  1  0
 89 88  1  0
 91 94  1  1
 91 92  1  0
 93 91  1  0
M  ISO  4  12 100  20 100  53 101  54 101
M  END
>  <TORSDO>  (94) 
F 22

>  <SCORE>  (94) 
-13.245

>  <name>  (94) 
93

>  <ligand_id>  (94) 
93

>  <original_smiles>  (94) 
[H]c1c([H])c([H])c2c(c1[H])C([H])([H])C([H])([H])C([H])([H])C2([H])N([H])C(=O)C1([H])N(C(=O)C([H])(N([H])C(=O)C([H])(N([H])C([H])([H])[H])C([H])([H])[H])C(C([H])([H])[H])(C([H])([H])[H])C([H])([H])[H])C([H])([H])c2c([H])c(OC([H])([H])C([H])([H])C([H])([H])C([H])([H])[N+]([H])([H])C([H])([H])c3c([H])c([H])c(N([H])C(=O)N4C([H])([H])C([H])([H])C([H])([H])C([H])(n5nc(-c6c([H])c([H])c(Oc7c([H])c([H])c(F)c([H])c7F)c([H])c6[H])c(C(=O)N([H])[H])c5N([H])[H])C4([H])[H])c([H])c3F)c([H])c([H])c2C1([H])[H]

>  <smiles>  (94) 
[H]c1c([H])c([H])c2c(c1[H])C([H])([H])C([H])([H])C([H])([H])C2([H])N([H])C(=O)C1([H])N(C(=O)C([H])(N([H])C(=O)C([H])(N([H])C([H])([H])[H])C([H])([H])[H])C(C([H])([H])[H])(C([H])([H])[H])C([H])([H])[H])C([H])([H])c2c([H])c(OC([H])([H])C([H])([H])C([H])([H])C([H])([H])[N+]([H])([H])C([H])([H])c3c([H])c([H])c(N([H])C(=O)N4C([H])([H])C([H])([H])C([H])([H])C([H])(n5nc(-c6c([H])c([H])c(Oc7c([H])c([H])c(F)c([H])c7F)c([H])c6[H])c(C(=O)N([H])[H])c5N([H])[H])C4([H])[H])c([H])c3F)c([H])c([H])c2C1([H])[H]

$$$$
94:0:0
     RDKit          3D

 94102  0  0  1  0  0  0  0  0999 V2000
  -28.6090  -19.3660   20.0780 C   0  0  0  0  0  2  0  0  0  0  0  0
  -28.9350  -18.0380   20.7960 C   0  0  0  0  0  2  0  0  0  0  0  0
  -30.8070  -20.2890   20.8850 C   0  0  0  0  0  2  0  0  0  0  0  0
  -29.2850  -20.5560   20.7870 C   0  0  0  0  0  3  0  0  0  0  0  0
  -30.4590  -17.8100   20.9330 C   0  0  0  0  0  3  0  0  0  0  0  0
  -31.0930  -18.9990   21.5580 N   0  0  0  0  0  4  0  0  0  0  0  0
  -30.7930  -19.0720   22.5170 H   0  0  0  0  0  0  0  0  0  0  0  0
  -32.0920  -18.8700   21.5670 H   0  0  0  0  0  0  0  0  0  0  0  0
  -29.0110  -21.7840   20.0330 N   0  0  0  0  0  0  0  0  0  0  0  0
  -28.1000  -21.7150   19.5870 H   0  0  0  0  0  0  0  0  0  0  0  0
  -28.9640  -22.9750   20.8910 C   0  0  0  0  0  2  0  0  0  0  0  0
  -28.6530  -24.2580   20.0760 C   0  0  0  0  0  3  0  0  0  0  0  0
  -27.5650  -24.0270   19.3380 F   0  0  0  0  0  0  0  0  0  0  0  0
  -28.4150  -25.4990   20.9730 C   0  0  0  0  0  2  0  0  0  0  0  0
  -28.4550  -26.7470   20.2630 O   0  0  0  0  0  0  0  0  0  0  0  0
  -24.5670  -31.9050   23.2710 C   0  0  0  0  0  0  0  0  0  0  0  0
  -27.2810  -27.4650   20.2620 C   0  0  0  0  0  0  0  0  0  0  0  0
  -23.3930  -30.4890   21.6170 C   0  0  0  0  0  3  0  0  0  0  0  0
  -24.8770  -28.9480   20.2270 C   0  0  0  0  0  0  0  0  0  0  0  0
  -25.9180  -30.8620   21.4540 C   0  0  0  0  0  2  0  0  0  0  0  0
  -26.0220  -29.4870   20.8260 C   0  0  0  0  0  0  0  0  0  0  0  0
  -27.2310  -28.7540   20.8370 C   0  0  0  0  0  3  0  0  0  0  0  0
  -26.1200  -26.9320   19.6640 C   0  0  0  0  0  3  0  0  0  0  0  0
  -24.9200  -27.6690   19.6440 C   0  0  0  0  0  3  0  0  0  0  0  0
  -23.6270  -29.8000   20.2460 C   0  0  0  0  0  2  0  0  0  0  0  0
  -24.6430  -31.1000   22.1730 N   0  0  0  0  0  0  0  0  0  0  0  0
  -23.4750  -32.1740   23.7930 O   0  0  0  0  0  0  0  0  0  0  0  0
  -22.7300  -29.4710   22.5730 C   0  0  0  0  0  0  0  0  0  0  0  0
  -21.4090  -29.2830   22.4220 N   0  0  0  0  0  0  0  0  0  0  0  0
  -23.4010  -28.8530   23.4020 O   0  0  0  0  0  0  0  0  0  0  0  0
  -20.9290  -29.8330   21.7230 H   0  0  0  0  0  0  0  0  0  0  0  0
  -18.0280  -28.0930   22.8760 C   0  0  0  0  0  0  0  0  0  0  0  0
  -20.5820  -28.3460   23.1820 C   0  0  0  0  0  3  0  0  0  0  0  0
  -20.6900  -26.9150   22.6060 C   0  0  0  0  0  2  0  0  0  0  0  0
  -19.6000  -26.5950   21.5780 C   0  0  0  0  0  2  0  0  0  0  0  0
  -18.2110  -26.7430   22.2040 C   0  0  0  0  0  2  0  0  0  0  0  0
  -19.1420  -28.8530   23.3210 C   0  0  0  0  0  0  0  0  0  0  0  0
  -18.9180  -30.1180   23.9080 C   0  0  0  0  0  3  0  0  0  0  0  0
  -17.6130  -30.6220   24.0550 C   0  0  0  0  0  3  0  0  0  0  0  0
  -16.5130  -29.8580   23.6280 C   0  0  0  0  0  3  0  0  0  0  0  0
  -16.7210  -28.5950   23.0450 C   0  0  0  0  0  3  0  0  0  0  0  0
  -25.8400  -32.5430   23.9100 C   0  0  0  0  0  3  0  0  0  0  0  0
  -25.5250  -33.9430   24.2200 N   0  0  0  0  0  0  0  0  0  0  0  0
  -25.8760  -34.9890   23.4580 C   0  0  0  0  0  0  0  0  0  0  0  0
  -26.5720  -34.8740   22.4450 O   0  0  0  0  0  0  0  0  0  0  0  0
  -24.9080  -34.1050   25.0030 H   0  0  0  0  0  0  0  0  0  0  0  0
  -24.1650  -36.7820   23.0350 C   0  0  0  0  0  1  0  0  0  0  0  0
  -25.3770  -36.3800   23.8900 C   0  0  0  0  0  3  0  0  0  0  0  0
  -27.4840  -37.2670   24.7880 C   0  0  0  0  0  1  0  0  0  0  0  0
  -26.4160  -37.4310   23.8050 N   0  0  0  0  0  0  0  0  0  0  0  0
  -26.0070  -38.3520   23.9310 H   0  0  0  0  0  0  0  0  0  0  0  0
  -26.3380  -31.7830   25.2000 C   0  0  1  0  0  0  0  0  0  0  0  0
  -25.2260  -31.5460   26.2500 C   0  0  0  0  0  1  0  0  0  0  0  0
  -26.9330  -30.4060   24.8250 C   0  0  0  0  0  1  0  0  0  0  0  0
  -27.4720  -32.5870   25.8770 C   0  0  0  0  0  1  0  0  0  0  0  0
  -30.8160  -16.5330   21.7450 C   0  0  0  0  0  2  0  0  0  0  0  0
  -30.7290  -14.4380   20.3700 C   0  0  0  0  0  0  0  0  0  0  0  0
  -30.3500  -12.3660   19.0770 C   0  0  0  0  0  2  0  0  0  0  0  0
  -29.3750  -12.6250   17.9130 C   0  0  0  0  0  2  0  0  0  0  0  0
  -27.9130  -12.4810   18.3790 C   0  0  0  0  0  2  0  0  0  0  0  0
  -27.6210  -13.2760   19.6790 C   0  0  0  0  0  3  0  0  0  0  0  0
  -28.6990  -12.9860   20.7470 C   0  0  0  0  0  2  0  0  0  0  0  0
  -30.0170  -13.2990   20.1640 N   0  0  0  0  0  0  0  0  0  0  0  0
  -31.7800  -14.6970   19.7790 O   0  0  0  0  0  0  0  0  0  0  0  0
  -30.1990  -15.2950   21.2540 N   0  0  0  0  0  0  0  0  0  0  0  0
  -29.3280  -15.0140   21.6820 H   0  0  0  0  0  0  0  0  0  0  0  0
  -25.2370  -13.8890   20.4350 C   0  0  0  0  0  0  0  0  0  0  0  0
  -24.1740  -13.1180   20.8200 C   0  0  0  0  0  0  0  0  0  0  0  0
  -24.6300  -11.7650   20.7720 C   0  0  0  0  0  0  0  0  0  0  0  0
  -26.2760  -13.0060   20.1800 N   0  0  0  0  0  0  0  0  0  0  0  0
  -25.9140  -11.7230   20.4390 N   0  0  0  0  0  0  0  0  0  0  0  0
  -23.9050  -10.5040   20.9690 C   0  0  0  0  0  0  0  0  0  0  0  0
  -24.3430   -9.5370   21.9010 C   0  0  0  0  0  3  0  0  0  0  0  0
  -23.6180   -8.3410   22.0870 C   0  0  0  0  0  3  0  0  0  0  0  0
  -22.4400   -8.1020   21.3390 C   0  0  0  0  0  0  0  0  0  0  0  0
  -22.0210   -9.0570   20.3950 C   0  0  0  0  0  3  0  0  0  0  0  0
  -22.7470  -10.2460   20.2090 C   0  0  0  0  0  3  0  0  0  0  0  0
  -21.6850   -6.9580   21.4320 O   0  0  0  0  0  0  0  0  0  0  0  0
  -21.6310   -6.2250   22.5900 C   0  0  0  0  0  0  0  0  0  0  0  0
  -21.1850   -6.7840   23.8070 C   0  0  0  0  0  3  0  0  0  0  0  0
  -21.0790   -5.9770   24.9570 C   0  0  0  0  0  3  0  0  0  0  0  0
  -21.4090   -4.6100   24.8910 C   0  0  0  0  0  0  0  0  0  0  0  0
  -21.8490   -4.0500   23.6790 C   0  0  0  0  0  3  0  0  0  0  0  0
  -21.9560   -4.8540   22.5310 C   0  0  0  0  0  0  0  0  0  0  0  0
  -22.3600   -4.3040   21.3600 F   0  0  0  0  0  0  0  0  0  0  0  0
  -21.3010   -3.8320   25.9930 F   0  0  0  0  0  0  0  0  0  0  0  0
  -22.7840  -13.5990   21.1240 C   0  0  0  0  0  0  0  0  0  0  0  0
  -22.0720  -12.8960   21.9980 N   0  0  0  0  0  0  0  0  0  0  0  0
  -22.3400  -14.6300   20.6230 O   0  0  0  0  0  0  0  0  0  0  0  0
  -22.4450  -12.0600   22.4230 H   0  0  0  0  0  0  0  0  0  0  0  0
  -21.1400  -13.1990   22.2450 H   0  0  0  0  0  0  0  0  0  0  0  0
  -25.4040  -15.2600   20.2630 N   0  0  0  0  0  0  0  0  0  0  0  0
  -24.6410  -15.9180   20.3830 H   0  0  0  0  0  0  0  0  0  0  0  0
  -26.2490  -15.6950   19.9150 H   0  0  0  0  0  0  0  0  0  0  0  0
  1  4  1  0
  1  2  1  0
  2  5  1  0
  3  6  1  0
  4  9  1  0
  4  3  1  0
  5  6  1  0
  5 56  1  0
  6  8  1  0
  6  7  1  0
  9 11  1  0
 10  9  1  0
 12 13  1  0
 12 11  1  0
 12 14  1  0
 15 14  1  0
 16 27  2  0
 17 15  1  0
 17 22  1  0
 18 26  1  0
 18 28  1  0
 19 25  1  0
 19 21  1  0
 20 26  1  0
 21 22  2  0
 21 20  1  0
 23 17  2  0
 24 23  1  0
 24 19  2  0
 25 18  1  0
 26 16  1  0
 28 30  2  0
 29 28  1  0
 31 29  1  0
 32 41  2  0
 32 37  1  0
 33 29  1  0
 33 37  1  0
 34 33  1  0
 35 36  1  0
 35 34  1  0
 36 32  1  0
 37 38  2  0
 38 39  1  0
 40 39  2  0
 41 40  1  0
 42 16  1  0
 42 43  1  0
 42 52  1  0
 43 46  1  0
 44 48  1  0
 44 43  1  0
 45 44  2  0
 48 47  1  0
 50 48  1  0
 50 51  1  0
 50 49  1  0
 52 55  1  1
 52 53  1  0
 54 52  1  0
 57 65  1  0
 58 63  1  0
 59 60  1  0
 59 58  1  0
 61 60  1  0
 61 70  1  0
 61 62  1  0
 63 57  1  0
 63 62  1  0
 64 57  2  0
 65 66  1  0
 65 56  1  0
 67 68  2  0
 68 87  1  0
 69 68  1  0
 69 72  1  0
 70 67  1  0
 70 71  1  0
 71 69  2  0
 72 73  1  0
 73 74  2  0
 75 78  1  0
 75 74  1  0
 76 75  2  0
 77 76  1  0
 77 72  2  0
 78 79  1  0
 79 80  1  0
 80 81  2  0
 82 81  1  0
 82 86  1  0
 83 82  2  0
 84 79  2  0
 84 83  1  0
 85 84  1  0
 87 88  1  0
 88 91  1  0
 88 90  1  0
 89 87  2  0
 92 93  1  0
 92 67  1  0
 94 92  1  0
M  ISO  4  14 101  15 101  57 100  65 100
M  END
>  <TORSDO>  (95) 
F 21

>  <SCORE>  (95) 
-13.778

>  <name>  (95) 
94

>  <ligand_id>  (95) 
94

>  <original_smiles>  (95) 
[H]c1c([H])c([H])c2c(c1[H])C([H])([H])C([H])([H])C([H])([H])C2([H])N([H])C(=O)C1([H])N(C(=O)C([H])(N([H])C(=O)C([H])(N([H])C([H])([H])[H])C([H])([H])[H])C(C([H])([H])[H])(C([H])([H])[H])C([H])([H])[H])C([H])([H])c2c([H])c(OC([H])([H])C([H])(F)C([H])([H])N([H])C3([H])C([H])([H])C([H])([H])C([H])(C([H])([H])N([H])C(=O)N4C([H])([H])C([H])([H])C([H])([H])C([H])(n5nc(-c6c([H])c([H])c(Oc7c([H])c([H])c(F)c([H])c7F)c([H])c6[H])c(C(=O)N([H])[H])c5N([H])[H])C4([H])[H])[N+]([H])([H])C3([H])[H])c([H])c([H])c2C1([H])[H]

>  <smiles>  (95) 
[H]c1c([H])c([H])c2c(c1[H])C([H])([H])C([H])([H])C([H])([H])C2([H])N([H])C(=O)C1([H])N(C(=O)C([H])(N([H])C(=O)C([H])(N([H])C([H])([H])[H])C([H])([H])[H])C(C([H])([H])[H])(C([H])([H])[H])C([H])([H])[H])C([H])([H])c2c([H])c(OC([H])([H])C([H])(F)C([H])([H])N([H])C3([H])C([H])([H])C([H])([H])C([H])(C([H])([H])N([H])C(=O)N4C([H])([H])C([H])([H])C([H])([H])C([H])(n5nc(-c6c([H])c([H])c(Oc7c([H])c([H])c(F)c([H])c7F)c([H])c6[H])c(C(=O)N([H])[H])c5N([H])[H])C4([H])[H])[N+]([H])([H])C3([H])[H])c([H])c([H])c2C1([H])[H]

$$$$
95:0:0
     RDKit          3D

 90 97  0  0  1  0  0  0  0  0999 V2000
  -29.0690  -22.8370   20.2090 N   0  0  0  0  0  4  0  0  0  0  0  0
  -28.1340  -22.5850   20.4960 H   0  0  0  0  0  0  0  0  0  0  0  0
  -29.1160  -22.7230   19.2080 H   0  0  0  0  0  0  0  0  0  0  0  0
  -30.0030  -21.8490   20.8200 C   0  0  0  0  0  2  0  0  0  0  0  0
  -29.7630  -20.3770   20.3290 C   0  0  0  0  0  2  0  0  0  0  0  0
  -31.9220  -19.4850   20.9610 C   0  0  0  0  0  1  0  0  0  0  0  0
  -30.4710  -19.3160   21.0850 N   0  0  0  0  0  0  0  0  0  0  0  0
  -30.0740  -17.9680   20.6140 C   0  0  0  0  0  2  0  0  0  0  0  0
  -30.6060  -16.7980   21.5000 C   0  0  0  0  0  2  0  0  0  0  0  0
  -30.6860  -14.4900   20.4730 C   0  0  0  0  0  0  0  0  0  0  0  0
  -30.3520  -12.3460   19.2870 C   0  0  0  0  0  2  0  0  0  0  0  0
  -29.4090  -12.5610   18.0870 C   0  0  0  0  0  2  0  0  0  0  0  0
  -27.9360  -12.4290   18.5210 C   0  0  0  0  0  2  0  0  0  0  0  0
  -27.6090  -13.2620   19.7900 C   0  0  0  0  0  3  0  0  0  0  0  0
  -28.6670  -13.0280   20.8920 C   0  0  0  0  0  2  0  0  0  0  0  0
  -29.9900  -13.3290   20.3200 N   0  0  0  0  0  0  0  0  0  0  0  0
  -31.7900  -14.6780   19.9580 O   0  0  0  0  0  0  0  0  0  0  0  0
  -30.0580  -15.4720   21.1520 N   0  0  0  0  0  0  0  0  0  0  0  0
  -29.1410  -15.2510   21.5070 H   0  0  0  0  0  0  0  0  0  0  0  0
  -25.2150  -13.8850   20.4990 C   0  0  0  0  0  0  0  0  0  0  0  0
  -24.1430  -13.1200   20.8760 C   0  0  0  0  0  0  0  0  0  0  0  0
  -24.5960  -11.7660   20.8510 C   0  0  0  0  0  0  0  0  0  0  0  0
  -26.2550  -12.9960   20.2720 N   0  0  0  0  0  0  0  0  0  0  0  0
  -25.8860  -11.7170   20.5400 N   0  0  0  0  0  0  0  0  0  0  0  0
  -23.8630  -10.5080   21.0500 C   0  0  0  0  0  0  0  0  0  0  0  0
  -24.3080   -9.5320   21.9680 C   0  0  0  0  0  3  0  0  0  0  0  0
  -23.5760   -8.3390   22.1550 C   0  0  0  0  0  3  0  0  0  0  0  0
  -22.3870   -8.1140   21.4220 C   0  0  0  0  0  0  0  0  0  0  0  0
  -21.9610   -9.0790   20.4920 C   0  0  0  0  0  3  0  0  0  0  0  0
  -22.6930  -10.2640   20.3040 C   0  0  0  0  0  3  0  0  0  0  0  0
  -21.6240   -6.9760   21.5190 O   0  0  0  0  0  0  0  0  0  0  0  0
  -21.6050   -6.2160   22.6620 C   0  0  0  0  0  0  0  0  0  0  0  0
  -21.2390   -6.7600   23.9130 C   0  0  0  0  0  3  0  0  0  0  0  0
  -21.1660   -5.9290   25.0480 C   0  0  0  0  0  3  0  0  0  0  0  0
  -21.4490   -4.5540   24.9340 C   0  0  0  0  0  0  0  0  0  0  0  0
  -21.8100   -4.0100   23.6890 C   0  0  0  0  0  3  0  0  0  0  0  0
  -21.8840   -4.8390   22.5560 C   0  0  0  0  0  0  0  0  0  0  0  0
  -22.2110   -4.3060   21.3540 F   0  0  0  0  0  0  0  0  0  0  0  0
  -21.3730   -3.7540   26.0230 F   0  0  0  0  0  0  0  0  0  0  0  0
  -22.7490  -13.6050   21.1500 C   0  0  0  0  0  0  0  0  0  0  0  0
  -22.0210  -12.9220   22.0250 N   0  0  0  0  0  0  0  0  0  0  0  0
  -22.3130  -14.6270   20.6210 O   0  0  0  0  0  0  0  0  0  0  0  0
  -22.3840  -12.0960   22.4780 H   0  0  0  0  0  0  0  0  0  0  0  0
  -21.0840  -13.2300   22.2470 H   0  0  0  0  0  0  0  0  0  0  0  0
  -25.3870  -15.2530   20.3160 N   0  0  0  0  0  0  0  0  0  0  0  0
  -24.6250  -15.9150   20.4260 H   0  0  0  0  0  0  0  0  0  0  0  0
  -26.2400  -15.6880   19.9850 H   0  0  0  0  0  0  0  0  0  0  0  0
  -29.3050  -24.2820   20.5380 C   0  0  0  0  0  2  0  0  0  0  0  0
  -28.1930  -25.2080   19.9680 C   0  0  0  0  0  2  0  0  0  0  0  0
  -28.3490  -26.6300   20.2170 O   0  0  0  0  0  0  0  0  0  0  0  0
  -24.5940  -31.8930   23.2500 C   0  0  0  0  0  0  0  0  0  0  0  0
  -27.1960  -27.4070   20.1650 C   0  0  0  0  0  0  0  0  0  0  0  0
  -23.3750  -30.4980   21.6150 C   0  0  0  0  0  3  0  0  0  0  0  0
  -24.8140  -28.9580   20.1800 C   0  0  0  0  0  0  0  0  0  0  0  0
  -25.9050  -30.8360   21.4080 C   0  0  0  0  0  2  0  0  0  0  0  0
  -25.9820  -29.4640   20.7650 C   0  0  0  0  0  0  0  0  0  0  0  0
  -27.1750  -28.6990   20.7530 C   0  0  0  0  0  3  0  0  0  0  0  0
  -26.0080  -26.9380   19.5510 C   0  0  0  0  0  3  0  0  0  0  0  0
  -24.8250  -27.6960   19.5680 C   0  0  0  0  0  3  0  0  0  0  0  0
  -23.5750  -29.8210   20.2350 C   0  0  0  0  0  2  0  0  0  0  0  0
  -24.6440  -31.0910   22.1490 N   0  0  0  0  0  0  0  0  0  0  0  0
  -23.5160  -32.1710   23.7940 O   0  0  0  0  0  0  0  0  0  0  0  0
  -22.7240  -29.4780   22.5790 C   0  0  0  0  0  0  0  0  0  0  0  0
  -21.3970  -29.3010   22.4580 N   0  0  0  0  0  0  0  0  0  0  0  0
  -23.4070  -28.8500   23.3910 O   0  0  0  0  0  0  0  0  0  0  0  0
  -20.9060  -29.8620   21.7760 H   0  0  0  0  0  0  0  0  0  0  0  0
  -18.0200  -28.1160   22.9650 C   0  0  0  0  0  0  0  0  0  0  0  0
  -20.5790  -28.3670   23.2320 C   0  0  0  0  0  3  0  0  0  0  0  0
  -20.6760  -26.9340   22.6570 C   0  0  0  0  0  2  0  0  0  0  0  0
  -19.5710  -26.6130   21.6460 C   0  0  0  0  0  2  0  0  0  0  0  0
  -18.1910  -26.7650   22.2930 C   0  0  0  0  0  2  0  0  0  0  0  0
  -19.1420  -28.8760   23.3910 C   0  0  0  0  0  0  0  0  0  0  0  0
  -18.9290  -30.1420   23.9790 C   0  0  0  0  0  3  0  0  0  0  0  0
  -17.6260  -30.6480   24.1460 C   0  0  0  0  0  3  0  0  0  0  0  0
  -16.5180  -29.8850   23.7360 C   0  0  0  0  0  3  0  0  0  0  0  0
  -16.7160  -28.6220   23.1510 C   0  0  0  0  0  3  0  0  0  0  0  0
  -25.8850  -32.5200   23.8630 C   0  0  0  0  0  3  0  0  0  0  0  0
  -26.4090  -31.7430   25.1340 C   0  0  1  0  0  0  0  0  0  0  0  0
  -25.3240  -31.5060   26.2090 C   0  0  0  0  0  1  0  0  0  0  0  0
  -26.9840  -30.3640   24.7310 C   0  0  0  0  0  1  0  0  0  0  0  0
  -27.5660  -32.5330   25.7890 C   0  0  0  0  0  1  0  0  0  0  0  0
  -25.5810  -33.9170   24.1980 N   0  0  0  0  0  0  0  0  0  0  0  0
  -25.9040  -34.9700   23.4340 C   0  0  0  0  0  0  0  0  0  0  0  0
  -26.5590  -34.8670   22.3940 O   0  0  0  0  0  0  0  0  0  0  0  0
  -24.9960  -34.0710   25.0050 H   0  0  0  0  0  0  0  0  0  0  0  0
  -24.1660  -36.7590   23.1080 C   0  0  0  0  0  1  0  0  0  0  0  0
  -25.4220  -36.3580   23.8980 C   0  0  0  0  0  3  0  0  0  0  0  0
  -27.5720  -37.2460   24.6860 C   0  0  0  0  0  1  0  0  0  0  0  0
  -26.4510  -37.4120   23.7640 N   0  0  0  0  0  0  0  0  0  0  0  0
  -26.0470  -38.3320   23.9200 H   0  0  0  0  0  0  0  0  0  0  0  0
  1  2  1  0
  1 48  1  0
  1  4  1  0
  3  1  1  0
  5  4  1  0
  5  7  1  0
  6  7  1  0
  8  7  1  0
  8  9  1  0
 10 18  1  0
 11 16  1  0
 12 13  1  0
 12 11  1  0
 14 13  1  0
 14 23  1  0
 14 15  1  0
 16 10  1  0
 16 15  1  0
 17 10  2  0
 18  9  1  0
 18 19  1  0
 20 21  2  0
 21 40  1  0
 22 21  1  0
 22 25  1  0
 23 20  1  0
 23 24  1  0
 24 22  2  0
 25 26  1  0
 26 27  2  0
 28 31  1  0
 28 27  1  0
 29 28  2  0
 30 29  1  0
 30 25  2  0
 31 32  1  0
 32 33  1  0
 33 34  2  0
 35 34  1  0
 35 39  1  0
 36 35  2  0
 37 32  2  0
 37 36  1  0
 38 37  1  0
 40 41  1  0
 41 44  1  0
 41 43  1  0
 42 40  2  0
 45 46  1  0
 45 20  1  0
 47 45  1  0
 49 50  1  0
 49 48  1  0
 51 62  2  0
 52 50  1  0
 52 57  1  0
 53 61  1  0
 53 63  1  0
 54 60  1  0
 54 56  1  0
 55 61  1  0
 56 55  1  0
 57 56  2  0
 58 59  1  0
 58 52  2  0
 59 54  2  0
 60 53  1  0
 61 51  1  0
 63 65  2  0
 64 63  1  0
 66 64  1  0
 67 76  2  0
 67 72  1  0
 68 64  1  0
 68 72  1  0
 69 68  1  0
 70 71  1  0
 70 69  1  0
 71 67  1  0
 72 73  2  0
 73 74  1  0
 75 74  2  0
 76 75  1  0
 77 51  1  0
 77 82  1  0
 77 78  1  0
 78 81  1  1
 78 79  1  0
 80 78  1  0
 82 85  1  0
 83 87  1  0
 83 82  1  0
 84 83  2  0
 87 86  1  0
 89 87  1  0
 89 90  1  0
 89 88  1  0
M  ISO  4  10 100  18 100  49 101  50 101
M  END
>  <TORSDO>  (96) 
F 23

>  <SCORE>  (96) 
-12.787

>  <name>  (96) 
95

>  <ligand_id>  (96) 
95

>  <original_smiles>  (96) 
[H]c1c([H])c([H])c2c(c1[H])C([H])([H])C([H])([H])C([H])([H])C2([H])N([H])C(=O)C1([H])N(C(=O)C([H])(N([H])C(=O)C([H])(N([H])C([H])([H])[H])C([H])([H])[H])C(C([H])([H])[H])(C([H])([H])[H])C([H])([H])[H])C([H])([H])c2c([H])c(OC([H])([H])C([H])([H])[N+]([H])([H])C([H])([H])C([H])([H])N(C([H])([H])[H])C([H])([H])C([H])([H])N([H])C(=O)N3C([H])([H])C([H])([H])C([H])([H])C([H])(n4nc(-c5c([H])c([H])c(Oc6c([H])c([H])c(F)c([H])c6F)c([H])c5[H])c(C(=O)N([H])[H])c4N([H])[H])C3([H])[H])c([H])c([H])c2C1([H])[H]

>  <smiles>  (96) 
[H]c1c([H])c([H])c2c(c1[H])C([H])([H])C([H])([H])C([H])([H])C2([H])N([H])C(=O)C1([H])N(C(=O)C([H])(N([H])C(=O)C([H])(N([H])C([H])([H])[H])C([H])([H])[H])C(C([H])([H])[H])(C([H])([H])[H])C([H])([H])[H])C([H])([H])c2c([H])c(OC([H])([H])C([H])([H])[N+]([H])([H])C([H])([H])C([H])([H])N(C([H])([H])[H])C([H])([H])C([H])([H])N([H])C(=O)N3C([H])([H])C([H])([H])C([H])([H])C([H])(n4nc(-c5c([H])c([H])c(Oc6c([H])c([H])c(F)c([H])c6F)c([H])c5[H])c(C(=O)N([H])[H])c4N([H])[H])C3([H])[H])c([H])c([H])c2C1([H])[H]

$$$$
96:0:0
     RDKit          3D

 94102  0  0  1  0  0  0  0  0999 V2000
  -29.3090  -21.0010   21.3020 C   0  0  0  0  0  0  0  0  0  0  0  0
  -29.9310  -22.0590   20.7580 N   0  0  0  0  0  0  0  0  0  0  0  0
  -28.1090  -20.7790   21.1360 O   0  0  0  0  0  0  0  0  0  0  0  0
  -30.9200  -22.1730   20.9440 H   0  0  0  0  0  0  0  0  0  0  0  0
  -30.1650  -20.0450   22.1460 C   0  0  0  0  0  2  0  0  0  0  0  0
  -30.7790  -14.4060   20.6470 C   0  0  0  0  0  0  0  0  0  0  0  0
  -30.4060  -12.2950   19.4240 C   0  0  0  0  0  2  0  0  0  0  0  0
  -29.4880  -12.5150   18.2060 C   0  0  0  0  0  2  0  0  0  0  0  0
  -28.0080  -12.3800   18.6110 C   0  0  0  0  0  2  0  0  0  0  0  0
  -27.6580  -13.2110   19.8710 C   0  0  0  0  0  3  0  0  0  0  0  0
  -28.6930  -12.9770   20.9900 C   0  0  0  0  0  2  0  0  0  0  0  0
  -30.0330  -13.2780   20.4590 N   0  0  0  0  0  0  0  0  0  0  0  0
  -31.8600  -14.5580   20.0640 O   0  0  0  0  0  0  0  0  0  0  0  0
  -28.5720  -15.8230   23.1980 C   0  0  0  0  0  2  0  0  0  0  0  0
  -28.5170  -17.1740   23.9520 C   0  0  0  0  0  2  0  0  0  0  0  0
  -29.9920  -15.3610   22.7760 C   0  0  0  0  0  2  0  0  0  0  0  0
  -30.6960  -16.8070   20.9260 C   0  0  0  0  0  2  0  0  0  0  0  0
  -28.4490  -18.4550   23.0900 C   0  0  0  0  0  2  0  0  0  0  0  0
  -29.6110  -17.8920   20.9680 C   0  0  0  0  0  2  0  0  0  0  0  0
  -30.2280  -15.4570   21.3210 N   0  0  0  0  0  0  0  0  0  0  0  0
  -29.6600  -18.6420   22.2520 N   0  0  1  0  0  4  0  0  0  0  0  0
  -30.3860  -18.1890   22.7820 H   0  0  0  0  0  0  0  0  0  0  0  0
  -25.2560  -13.8180   20.5690 C   0  0  0  0  0  0  0  0  0  0  0  0
  -24.1820  -13.0450   20.9200 C   0  0  0  0  0  0  0  0  0  0  0  0
  -24.6380  -11.6920   20.8740 C   0  0  0  0  0  0  0  0  0  0  0  0
  -26.2990  -12.9360   20.3330 N   0  0  0  0  0  0  0  0  0  0  0  0
  -25.9300  -11.6520   20.5740 N   0  0  0  0  0  0  0  0  0  0  0  0
  -23.9050  -10.4300   21.0410 C   0  0  0  0  0  0  0  0  0  0  0  0
  -24.3600   -9.4220   21.9190 C   0  0  0  0  0  3  0  0  0  0  0  0
  -23.6280   -8.2250   22.0760 C   0  0  0  0  0  3  0  0  0  0  0  0
  -22.4270   -8.0290   21.3550 C   0  0  0  0  0  0  0  0  0  0  0  0
  -21.9900   -9.0260   20.4650 C   0  0  0  0  0  3  0  0  0  0  0  0
  -22.7220  -10.2140   20.3060 C   0  0  0  0  0  3  0  0  0  0  0  0
  -21.6630   -6.8880   21.4250 O   0  0  0  0  0  0  0  0  0  0  0  0
  -21.6850   -6.0740   22.5290 C   0  0  0  0  0  0  0  0  0  0  0  0
  -21.4010   -6.5640   23.8220 C   0  0  0  0  0  3  0  0  0  0  0  0
  -21.3660   -5.6790   24.9180 C   0  0  0  0  0  3  0  0  0  0  0  0
  -21.6050   -4.3050   24.7230 C   0  0  0  0  0  0  0  0  0  0  0  0
  -21.8810   -3.8150   23.4350 C   0  0  0  0  0  3  0  0  0  0  0  0
  -21.9190   -4.6960   22.3410 C   0  0  0  0  0  0  0  0  0  0  0  0
  -22.1650   -4.2150   21.0980 F   0  0  0  0  0  0  0  0  0  0  0  0
  -21.5640   -3.4540   25.7740 F   0  0  0  0  0  0  0  0  0  0  0  0
  -22.7840  -13.5250   21.1860 C   0  0  0  0  0  0  0  0  0  0  0  0
  -22.0450  -12.8270   22.0410 N   0  0  0  0  0  0  0  0  0  0  0  0
  -22.3540  -14.5550   20.6690 O   0  0  0  0  0  0  0  0  0  0  0  0
  -22.4030  -11.9930   22.4840 H   0  0  0  0  0  0  0  0  0  0  0  0
  -21.1070  -13.1320   22.2560 H   0  0  0  0  0  0  0  0  0  0  0  0
  -25.4280  -15.1900   20.4090 N   0  0  0  0  0  0  0  0  0  0  0  0
  -24.6570  -15.8410   20.5060 H   0  0  0  0  0  0  0  0  0  0  0  0
  -26.2710  -15.6230   20.0560 H   0  0  0  0  0  0  0  0  0  0  0  0
  -29.3110  -23.0250   19.8500 C   0  0  0  0  0  2  0  0  0  0  0  0
  -29.3900  -24.4730   20.3740 C   0  0  0  0  0  2  0  0  0  0  0  0
  -28.3400  -25.3500   19.6800 C   0  0  0  0  0  2  0  0  0  0  0  0
  -28.3970  -26.7160   20.1030 O   0  0  0  0  0  0  0  0  0  0  0  0
  -24.6140  -31.8710   23.2140 C   0  0  0  0  0  0  0  0  0  0  0  0
  -27.2230  -27.4450   20.0760 C   0  0  0  0  0  0  0  0  0  0  0  0
  -23.3990  -30.5000   21.5550 C   0  0  0  0  0  3  0  0  0  0  0  0
  -24.8400  -28.9750   20.1120 C   0  0  0  0  0  0  0  0  0  0  0  0
  -25.9300  -30.8370   21.3690 C   0  0  0  0  0  2  0  0  0  0  0  0
  -26.0010  -29.4740   20.7140 C   0  0  0  0  0  0  0  0  0  0  0  0
  -27.1920  -28.7130   20.7010 C   0  0  0  0  0  3  0  0  0  0  0  0
  -26.0410  -26.9750   19.4500 C   0  0  0  0  0  3  0  0  0  0  0  0
  -24.8530  -27.7230   19.4820 C   0  0  0  0  0  3  0  0  0  0  0  0
  -23.6040  -29.8410   20.1670 C   0  0  0  0  0  2  0  0  0  0  0  0
  -24.6660  -31.0830   22.1040 N   0  0  0  0  0  0  0  0  0  0  0  0
  -23.5340  -32.1460   23.7550 O   0  0  0  0  0  0  0  0  0  0  0  0
  -22.7400  -29.4690   22.4990 C   0  0  0  0  0  0  0  0  0  0  0  0
  -21.4130  -29.3050   22.3730 N   0  0  0  0  0  0  0  0  0  0  0  0
  -23.4180  -28.8210   23.3010 O   0  0  0  0  0  0  0  0  0  0  0  0
  -20.9270  -29.8790   21.6980 H   0  0  0  0  0  0  0  0  0  0  0  0
  -18.0270  -28.1380   22.8490 C   0  0  0  0  0  0  0  0  0  0  0  0
  -20.5860  -28.3660   23.1310 C   0  0  0  0  0  3  0  0  0  0  0  0
  -20.6760  -26.9400   22.5410 C   0  0  0  0  0  2  0  0  0  0  0  0
  -19.5740  -26.6390   21.5210 C   0  0  0  0  0  2  0  0  0  0  0  0
  -18.1920  -26.7920   22.1620 C   0  0  0  0  0  2  0  0  0  0  0  0
  -19.1520  -28.8830   23.2910 C   0  0  0  0  0  0  0  0  0  0  0  0
  -18.9450  -30.1440   23.8920 C   0  0  0  0  0  3  0  0  0  0  0  0
  -17.6460  -30.6580   24.0570 C   0  0  0  0  0  3  0  0  0  0  0  0
  -16.5350  -29.9090   23.6330 C   0  0  0  0  0  3  0  0  0  0  0  0
  -16.7260  -28.6500   23.0350 C   0  0  0  0  0  3  0  0  0  0  0  0
  -25.9050  -32.4840   23.8420 C   0  0  0  0  0  3  0  0  0  0  0  0
  -26.4480  -31.6610   25.0740 C   0  0  1  0  0  0  0  0  0  0  0  0
  -25.3760  -31.3700   26.1490 C   0  0  0  0  0  1  0  0  0  0  0  0
  -27.0310  -30.3050   24.6100 C   0  0  0  0  0  1  0  0  0  0  0  0
  -27.6060  -32.4320   25.7490 C   0  0  0  0  0  1  0  0  0  0  0  0
  -25.5920  -33.8630   24.2360 N   0  0  0  0  0  0  0  0  0  0  0  0
  -25.9040  -34.9480   23.5140 C   0  0  0  0  0  0  0  0  0  0  0  0
  -26.5580  -34.8920   22.4690 O   0  0  0  0  0  0  0  0  0  0  0  0
  -25.0120  -33.9810   25.0530 H   0  0  0  0  0  0  0  0  0  0  0  0
  -24.1490  -36.7320   23.2640 C   0  0  0  0  0  1  0  0  0  0  0  0
  -25.4110  -36.3120   24.0340 C   0  0  0  0  0  3  0  0  0  0  0  0
  -27.5580  -37.1810   24.8470 C   0  0  0  0  0  1  0  0  0  0  0  0
  -26.4300  -37.3800   23.9410 N   0  0  0  0  0  0  0  0  0  0  0  0
  -26.0190  -38.2880   24.1400 H   0  0  0  0  0  0  0  0  0  0  0  0
  1  5  1  0
  2  4  1  0
  2  1  1  0
  3  1  2  0
  5 21  1  0
  6 20  1  0
  7 12  1  0
  8  9  1  0
  8  7  1  0
 10  9  1  0
 10 26  1  0
 10 11  1  0
 12  6  1  0
 12 11  1  0
 13  6  2  0
 14 15  1  0
 16 14  1  0
 17 19  1  0
 17 20  1  0
 18 15  1  0
 19 21  1  0
 20 16  1  0
 21 22  1  1
 21 18  1  0
 23 24  2  0
 24 43  1  0
 25 24  1  0
 25 28  1  0
 26 23  1  0
 26 27  1  0
 27 25  2  0
 28 29  1  0
 29 30  2  0
 31 34  1  0
 31 30  1  0
 32 31  2  0
 33 32  1  0
 33 28  2  0
 34 35  1  0
 35 36  1  0
 36 37  2  0
 38 37  1  0
 38 42  1  0
 39 38  2  0
 40 35  2  0
 40 39  1  0
 41 40  1  0
 43 44  1  0
 44 47  1  0
 44 46  1  0
 45 43  2  0
 48 49  1  0
 48 23  1  0
 50 48  1  0
 51 52  1  0
 51  2  1  0
 53 54  1  0
 53 52  1  0
 55 66  2  0
 56 54  1  0
 56 61  1  0
 57 65  1  0
 57 67  1  0
 58 64  1  0
 58 60  1  0
 59 65  1  0
 60 59  1  0
 61 60  2  0
 62 63  1  0
 62 56  2  0
 63 58  2  0
 64 57  1  0
 65 55  1  0
 67 69  2  0
 68 67  1  0
 70 68  1  0
 71 80  2  0
 71 76  1  0
 72 68  1  0
 72 76  1  0
 73 72  1  0
 74 75  1  0
 74 73  1  0
 75 71  1  0
 76 77  2  0
 77 78  1  0
 79 78  2  0
 80 79  1  0
 81 55  1  0
 81 86  1  0
 81 82  1  0
 82 85  1  1
 82 83  1  0
 84 82  1  0
 86 89  1  0
 87 91  1  0
 87 86  1  0
 88 87  2  0
 91 90  1  0
 93 91  1  0
 93 94  1  0
 93 92  1  0
M  ISO  4   6 100  20 100  53 101  54 101
M  END
>  <TORSDO>  (97) 
F 20

>  <SCORE>  (97) 
9.819

>  <name>  (97) 
96

>  <ligand_id>  (97) 
96

>  <original_smiles>  (97) 
[H]c1c([H])c([H])c2c(c1[H])C([H])([H])C([H])([H])C([H])([H])C2([H])N([H])C(=O)C1([H])N(C(=O)C([H])(N([H])C(=O)C([H])(N([H])C([H])([H])[H])C([H])([H])[H])C(C([H])([H])[H])(C([H])([H])[H])C([H])([H])[H])C([H])([H])c2c([H])c(OC([H])([H])C([H])([H])C([H])([H])N([H])C(=O)C([H])([H])[N+]3([H])C([H])([H])C([H])([H])N(C(=O)N4C([H])([H])C([H])([H])C([H])([H])C([H])(n5nc(-c6c([H])c([H])c(Oc7c([H])c([H])c(F)c([H])c7F)c([H])c6[H])c(C(=O)N([H])[H])c5N([H])[H])C4([H])[H])C([H])([H])C([H])([H])C([H])([H])C3([H])[H])c([H])c([H])c2C1([H])[H]

>  <smiles>  (97) 
[H]c1c([H])c([H])c2c(c1[H])C([H])([H])C([H])([H])C([H])([H])C2([H])N([H])C(=O)C1([H])N(C(=O)C([H])(N([H])C(=O)C([H])(N([H])C([H])([H])[H])C([H])([H])[H])C(C([H])([H])[H])(C([H])([H])[H])C([H])([H])[H])C([H])([H])c2c([H])c(OC([H])([H])C([H])([H])C([H])([H])N([H])C(=O)C([H])([H])[N+]3([H])C([H])([H])C([H])([H])N(C(=O)N4C([H])([H])C([H])([H])C([H])([H])C([H])(n5nc(-c6c([H])c([H])c(Oc7c([H])c([H])c(F)c([H])c7F)c([H])c6[H])c(C(=O)N([H])[H])c5N([H])[H])C4([H])[H])C([H])([H])C([H])([H])C([H])([H])C3([H])[H])c([H])c([H])c2C1([H])[H]

$$$$
97:0:0
     RDKit          3D

 97106  0  0  1  0  0  0  0  0999 V2000
  -33.4250  -21.4430   25.4530 C   0  0  0  0  0  2  0  0  0  0  0  0
  -33.1940  -19.9700   25.1180 C   0  0  0  0  0  2  0  0  0  0  0  0
  -32.1960  -22.1700   24.9060 C   0  0  0  0  0  2  0  0  0  0  0  0
  -31.9580  -19.9800   24.2070 C   0  0  0  0  0  3  0  0  0  0  0  0
  -31.8460  -21.3780   23.7290 N   0  0  0  0  0  0  0  0  0  0  0  0
  -32.0550  -18.9300   23.0850 C   0  0  0  0  0  0  0  0  0  0  0  0
  -31.6270  -17.6950   23.3680 N   0  0  0  0  0  0  0  0  0  0  0  0
  -32.5070  -19.2370   21.9770 O   0  0  0  0  0  0  0  0  0  0  0  0
  -31.2770  -17.5070   24.2980 H   0  0  0  0  0  0  0  0  0  0  0  0
  -30.7940  -14.3320   20.6830 C   0  0  0  0  0  0  0  0  0  0  0  0
  -30.4100  -12.2710   19.3920 C   0  0  0  0  0  2  0  0  0  0  0  0
  -29.4810  -12.5270   18.1920 C   0  0  0  0  0  2  0  0  0  0  0  0
  -28.0060  -12.3890   18.6120 C   0  0  0  0  0  2  0  0  0  0  0  0
  -27.6700  -13.2070   19.8870 C   0  0  0  0  0  3  0  0  0  0  0  0
  -28.7090  -12.9490   21.0010 C   0  0  0  0  0  2  0  0  0  0  0  0
  -30.0550  -13.2160   20.4600 N   0  0  0  0  0  0  0  0  0  0  0  0
  -31.7980  -14.6230   20.0260 O   0  0  0  0  0  0  0  0  0  0  0  0
  -31.1620  -15.2690   22.9310 C   0  0  0  0  0  2  0  0  0  0  0  0
  -30.3600  -16.5820   21.5510 C   0  0  0  0  0  2  0  0  0  0  0  0
  -31.6300  -16.6140   22.3910 C   0  0  0  0  0  3  0  0  0  0  0  0
  -30.3720  -15.1170   21.6940 N   0  0  0  0  0  0  0  0  0  0  0  0
  -25.2620  -13.8170   20.5700 C   0  0  0  0  0  0  0  0  0  0  0  0
  -24.1860  -13.0450   20.9170 C   0  0  0  0  0  0  0  0  0  0  0  0
  -24.6420  -11.6910   20.8740 C   0  0  0  0  0  0  0  0  0  0  0  0
  -26.3070  -12.9340   20.3430 N   0  0  0  0  0  0  0  0  0  0  0  0
  -25.9340  -11.6500   20.5800 N   0  0  0  0  0  0  0  0  0  0  0  0
  -23.9080  -10.4300   21.0410 C   0  0  0  0  0  0  0  0  0  0  0  0
  -24.3630   -9.4210   21.9180 C   0  0  0  0  0  3  0  0  0  0  0  0
  -23.6310   -8.2240   22.0750 C   0  0  0  0  0  3  0  0  0  0  0  0
  -22.4290   -8.0280   21.3540 C   0  0  0  0  0  0  0  0  0  0  0  0
  -21.9920   -9.0260   20.4650 C   0  0  0  0  0  3  0  0  0  0  0  0
  -22.7250  -10.2130   20.3060 C   0  0  0  0  0  3  0  0  0  0  0  0
  -21.6650   -6.8880   21.4240 O   0  0  0  0  0  0  0  0  0  0  0  0
  -21.6850   -6.0740   22.5280 C   0  0  0  0  0  0  0  0  0  0  0  0
  -21.4010   -6.5640   23.8210 C   0  0  0  0  0  3  0  0  0  0  0  0
  -21.3670   -5.6790   24.9180 C   0  0  0  0  0  3  0  0  0  0  0  0
  -21.6050   -4.3060   24.7230 C   0  0  0  0  0  0  0  0  0  0  0  0
  -21.8820   -3.8150   23.4350 C   0  0  0  0  0  3  0  0  0  0  0  0
  -21.9190   -4.6970   22.3410 C   0  0  0  0  0  0  0  0  0  0  0  0
  -22.1660   -4.2150   21.0980 F   0  0  0  0  0  0  0  0  0  0  0  0
  -21.5640   -3.4540   25.7740 F   0  0  0  0  0  0  0  0  0  0  0  0
  -22.7880  -13.5240   21.1840 C   0  0  0  0  0  0  0  0  0  0  0  0
  -22.0520  -12.8230   22.0400 N   0  0  0  0  0  0  0  0  0  0  0  0
  -22.3550  -14.5540   20.6690 O   0  0  0  0  0  0  0  0  0  0  0  0
  -22.4120  -11.9890   22.4790 H   0  0  0  0  0  0  0  0  0  0  0  0
  -21.1140  -13.1260   22.2620 H   0  0  0  0  0  0  0  0  0  0  0  0
  -25.4350  -15.1890   20.4100 N   0  0  0  0  0  0  0  0  0  0  0  0
  -24.6760  -15.8520   20.5220 H   0  0  0  0  0  0  0  0  0  0  0  0
  -26.3030  -15.6240   20.1220 H   0  0  0  0  0  0  0  0  0  0  0  0
  -30.5600  -21.7380   23.1090 C   0  0  0  0  0  2  0  0  0  0  0  0
  -30.6860  -23.0880   22.3630 C   0  0  0  0  0  2  0  0  0  0  0  0
  -29.4790  -23.4740   21.5940 N   0  0  0  0  0  4  0  0  0  0  0  0
  -28.6780  -23.4090   22.2040 H   0  0  0  0  0  0  0  0  0  0  0  0
  -29.3450  -22.8150   20.8430 H   0  0  0  0  0  0  0  0  0  0  0  0
  -29.5700  -24.8560   21.0470 C   0  0  0  0  0  2  0  0  0  0  0  0
  -28.2970  -25.3280   20.3190 C   0  0  0  0  0  2  0  0  0  0  0  0
  -28.4080  -26.7390   20.1020 O   0  0  0  0  0  0  0  0  0  0  0  0
  -24.6130  -31.8680   23.2120 C   0  0  0  0  0  0  0  0  0  0  0  0
  -27.2310  -27.4520   20.0920 C   0  0  0  0  0  0  0  0  0  0  0  0
  -23.4000  -30.4930   21.5510 C   0  0  0  0  0  3  0  0  0  0  0  0
  -24.8440  -28.9610   20.1160 C   0  0  0  0  0  0  0  0  0  0  0  0
  -25.9270  -30.8390   21.3640 C   0  0  0  0  0  2  0  0  0  0  0  0
  -26.0030  -29.4770   20.7080 C   0  0  0  0  0  0  0  0  0  0  0  0
  -27.2000  -28.7310   20.6890 C   0  0  0  0  0  3  0  0  0  0  0  0
  -26.0550  -26.9440   19.4960 C   0  0  0  0  0  3  0  0  0  0  0  0
  -24.8620  -27.6930   19.5110 C   0  0  0  0  0  3  0  0  0  0  0  0
  -23.6080  -29.8260   20.1650 C   0  0  0  0  0  2  0  0  0  0  0  0
  -24.6640  -31.0810   22.1010 N   0  0  0  0  0  0  0  0  0  0  0  0
  -23.5340  -32.1400   23.7550 O   0  0  0  0  0  0  0  0  0  0  0  0
  -22.7400  -29.4660   22.4980 C   0  0  0  0  0  0  0  0  0  0  0  0
  -21.4120  -29.3030   22.3730 N   0  0  0  0  0  0  0  0  0  0  0  0
  -23.4190  -28.8180   23.2990 O   0  0  0  0  0  0  0  0  0  0  0  0
  -20.9270  -29.8740   21.6940 H   0  0  0  0  0  0  0  0  0  0  0  0
  -18.0270  -28.1400   22.8480 C   0  0  0  0  0  0  0  0  0  0  0  0
  -20.5860  -28.3660   23.1330 C   0  0  0  0  0  3  0  0  0  0  0  0
  -20.6760  -26.9390   22.5440 C   0  0  0  0  0  2  0  0  0  0  0  0
  -19.5770  -26.6380   21.5220 C   0  0  0  0  0  2  0  0  0  0  0  0
  -18.1920  -26.7950   22.1590 C   0  0  0  0  0  2  0  0  0  0  0  0
  -19.1520  -28.8840   23.2910 C   0  0  0  0  0  0  0  0  0  0  0  0
  -18.9460  -30.1450   23.8920 C   0  0  0  0  0  3  0  0  0  0  0  0
  -17.6460  -30.6590   24.0570 C   0  0  0  0  0  3  0  0  0  0  0  0
  -16.5350  -29.9110   23.6330 C   0  0  0  0  0  3  0  0  0  0  0  0
  -16.7260  -28.6530   23.0320 C   0  0  0  0  0  3  0  0  0  0  0  0
  -25.9030  -32.4830   23.8400 C   0  0  0  0  0  3  0  0  0  0  0  0
  -25.5870  -33.8620   24.2330 N   0  0  0  0  0  0  0  0  0  0  0  0
  -25.9020  -34.9470   23.5140 C   0  0  0  0  0  0  0  0  0  0  0  0
  -26.5590  -34.8910   22.4710 O   0  0  0  0  0  0  0  0  0  0  0  0
  -25.0000  -33.9770   25.0480 H   0  0  0  0  0  0  0  0  0  0  0  0
  -24.1490  -36.7310   23.2650 C   0  0  0  0  0  1  0  0  0  0  0  0
  -25.4120  -36.3110   24.0350 C   0  0  0  0  0  3  0  0  0  0  0  0
  -27.5600  -37.1800   24.8460 C   0  0  0  0  0  1  0  0  0  0  0  0
  -26.4300  -37.3790   23.9410 N   0  0  0  0  0  0  0  0  0  0  0  0
  -26.0210  -38.2870   24.1420 H   0  0  0  0  0  0  0  0  0  0  0  0
  -26.4450  -31.6610   25.0720 C   0  0  1  0  0  0  0  0  0  0  0  0
  -25.3720  -31.3780   26.1480 C   0  0  0  0  0  1  0  0  0  0  0  0
  -27.0260  -30.3050   24.6090 C   0  0  0  0  0  1  0  0  0  0  0  0
  -27.6050  -32.4330   25.7420 C   0  0  0  0  0  1  0  0  0  0  0  0
  2  1  1  0
  3  1  1  0
  4  6  1  0
  4  2  1  0
  5  4  1  0
  5  3  1  0
  6  7  1  0
  7  9  1  0
  8  6  2  0
 10 21  1  0
 11 16  1  0
 12 13  1  0
 12 11  1  0
 14 13  1  0
 14 25  1  0
 14 15  1  0
 16 10  1  0
 16 15  1  0
 17 10  2  0
 19 21  1  0
 19 20  1  0
 20 18  1  0
 20  7  1  0
 21 18  1  0
 22 23  2  0
 23 42  1  0
 24 23  1  0
 24 27  1  0
 25 22  1  0
 25 26  1  0
 26 24  2  0
 27 28  1  0
 28 29  2  0
 30 33  1  0
 30 29  1  0
 31 30  2  0
 32 31  1  0
 32 27  2  0
 33 34  1  0
 34 35  1  0
 35 36  2  0
 37 36  1  0
 37 41  1  0
 38 37  2  0
 39 34  2  0
 39 38  1  0
 40 39  1  0
 42 43  1  0
 43 46  1  0
 43 45  1  0
 44 42  2  0
 47 48  1  0
 47 22  1  0
 49 47  1  0
 50  5  1  0
 51 50  1  0
 52 53  1  0
 52 51  1  0
 54 52  1  0
 55 52  1  0
 56 55  1  0
 57 56  1  0
 58 69  2  0
 59 57  1  0
 59 64  1  0
 60 68  1  0
 60 70  1  0
 61 67  1  0
 61 63  1  0
 62 68  1  0
 63 62  1  0
 64 63  2  0
 65 66  1  0
 65 59  2  0
 66 61  2  0
 67 60  1  0
 68 58  1  0
 70 72  2  0
 71 70  1  0
 73 71  1  0
 74 83  2  0
 74 79  1  0
 75 71  1  0
 75 79  1  0
 76 75  1  0
 77 78  1  0
 77 76  1  0
 78 74  1  0
 79 80  2  0
 80 81  1  0
 82 81  2  0
 83 82  1  0
 84 58  1  0
 84 85  1  0
 84 94  1  0
 85 88  1  0
 86 90  1  0
 86 85  1  0
 87 86  2  0
 90 89  1  0
 92 90  1  0
 92 93  1  0
 92 91  1  0
 94 97  1  1
 94 95  1  0
 96 94  1  0
M  ISO  4  10 100  21 100  56 101  57 101
M  END
>  <TORSDO>  (98) 
F 22

>  <SCORE>  (98) 
-0.227

>  <name>  (98) 
97

>  <ligand_id>  (98) 
97

>  <original_smiles>  (98) 
[H]c1c([H])c([H])c2c(c1[H])C([H])([H])C([H])([H])C([H])([H])C2([H])N([H])C(=O)C1([H])N(C(=O)C([H])(N([H])C(=O)C([H])(N([H])C([H])([H])[H])C([H])([H])[H])C(C([H])([H])[H])(C([H])([H])[H])C([H])([H])[H])C([H])([H])c2c([H])c(OC([H])([H])C([H])([H])[N+]([H])([H])C([H])([H])C([H])([H])N3C([H])([H])C([H])([H])C([H])([H])C3([H])C(=O)N([H])C3([H])C([H])([H])N(C(=O)N4C([H])([H])C([H])([H])C([H])([H])C([H])(n5nc(-c6c([H])c([H])c(Oc7c([H])c([H])c(F)c([H])c7F)c([H])c6[H])c(C(=O)N([H])[H])c5N([H])[H])C4([H])[H])C3([H])[H])c([H])c([H])c2C1([H])[H]

>  <smiles>  (98) 
[H]c1c([H])c([H])c2c(c1[H])C([H])([H])C([H])([H])C([H])([H])C2([H])N([H])C(=O)C1([H])N(C(=O)C([H])(N([H])C(=O)C([H])(N([H])C([H])([H])[H])C([H])([H])[H])C(C([H])([H])[H])(C([H])([H])[H])C([H])([H])[H])C([H])([H])c2c([H])c(OC([H])([H])C([H])([H])[N+]([H])([H])C([H])([H])C([H])([H])N3C([H])([H])C([H])([H])C([H])([H])C3([H])C(=O)N([H])C3([H])C([H])([H])N(C(=O)N4C([H])([H])C([H])([H])C([H])([H])C([H])(n5nc(-c6c([H])c([H])c(Oc7c([H])c([H])c(F)c([H])c7F)c([H])c6[H])c(C(=O)N([H])[H])c5N([H])[H])C4([H])[H])C3([H])[H])c([H])c([H])c2C1([H])[H]

$$$$
