0:0:0
     RDKit          3D

 95 99  0  0  1  0  0  0  0  0999 V2000
  -22.4960  -28.3050   24.9820 C   0  0  0  0  0 15  0  0  0  0  0  0
  -23.5980  -26.6650   24.8470 C   0  0  0  0  0  1  0  0  0  0  0  0
  -23.9770  -25.0650   23.8630 C   0  0  0  0  0  2  0  0  0  0  0  0
  -25.3340  -23.7100   23.7080 C   0  0  0  0  0  3  0  0  0  0  0  0
  -25.5970  -21.9330   23.0300 C   0  0  0  0  0  3  0  0  0  0  0  0
  -26.9600  -20.9120   22.6230 N   0  0  0  0  0  4  0  0  0  0  0  0
  -27.3750  -21.3780   21.8320 H   0  0  0  0  0  0  0  0  0  0  0  0
  -27.5960  -21.0750   23.3840 H   0  0  0  0  0  0  0  0  0  0  0  0
  -27.2000  -19.2150   22.2640 C   0  0  0  0  0  3  0  0  0  0  0  0
  -28.6490  -18.1170   21.6410 C   0  0  0  0  0  3  0  0  0  0  0  0
  -29.9790  -15.3760   20.7830 C   0  0  0  0  0  0  0  0  0  0  0  0
  -30.3850  -12.9770   19.6400 C   0  0  0  0  0  2  0  0  0  0  0  0
  -29.5450  -12.6810   18.3550 C   0  0  0  0  0  2  0  0  0  0  0  0
  -28.0900  -12.3290   18.7100 C   0  0  0  0  0  2  0  0  0  0  0  0
  -27.5690  -13.2510   19.8370 C   0  0  0  0  0  3  0  0  0  0  0  0
  -28.5090  -13.3170   21.0430 C   0  0  0  0  0  2  0  0  0  0  0  0
  -29.6880  -13.9930   20.5580 N   0  0  0  0  0  0  0  0  0  0  0  0
  -31.1640  -15.5920   20.4220 O   0  0  0  0  0  0  0  0  0  0  0  0
  -28.9530  -16.4190   21.2900 N   0  0  0  0  0  0  0  0  0  0  0  0
  -28.1130  -15.9110   21.5330 H   0  0  0  0  0  0  0  0  0  0  0  0
  -25.2150  -13.8190   20.5600 C   0  0  0  0  0  0  0  0  0  0  0  0
  -24.1550  -13.0380   20.9230 C   0  0  0  0  0  0  0  0  0  0  0  0
  -24.6190  -11.6860   20.8700 C   0  0  0  0  0  0  0  0  0  0  0  0
  -26.2380  -12.9340   20.2860 N   0  0  0  0  0  0  0  0  0  0  0  0
  -25.9030  -11.6480   20.5440 N   0  0  0  0  0  0  0  0  0  0  0  0
  -23.8960  -10.4240   21.0400 C   0  0  0  0  0  0  0  0  0  0  0  0
  -24.3570   -9.4180   21.9180 C   0  0  0  0  0  3  0  0  0  0  0  0
  -23.6270   -8.2220   22.0760 C   0  0  0  0  0  3  0  0  0  0  0  0
  -22.4250   -8.0240   21.3550 C   0  0  0  0  0  0  0  0  0  0  0  0
  -21.9850   -9.0200   20.4650 C   0  0  0  0  0  3  0  0  0  0  0  0
  -22.7150  -10.2080   20.3060 C   0  0  0  0  0  3  0  0  0  0  0  0
  -21.6630   -6.8830   21.4240 O   0  0  0  0  0  0  0  0  0  0  0  0
  -21.6840   -6.0710   22.5290 C   0  0  0  0  0  0  0  0  0  0  0  0
  -21.4000   -6.5630   23.8220 C   0  0  0  0  0  3  0  0  0  0  0  0
  -21.3660   -5.6780   24.9180 C   0  0  0  0  0  3  0  0  0  0  0  0
  -21.6030   -4.3050   24.7230 C   0  0  0  0  0  0  0  0  0  0  0  0
  -21.8830   -3.8130   23.4360 C   0  0  0  0  0  3  0  0  0  0  0  0
  -21.9190   -4.6940   22.3410 C   0  0  0  0  0  0  0  0  0  0  0  0
  -22.1660   -4.2130   21.0990 F   0  0  0  0  0  0  0  0  0  0  0  0
  -21.5630   -3.4530   25.7750 F   0  0  0  0  0  0  0  0  0  0  0  0
  -22.7630  -13.5170   21.1960 C   0  0  0  0  0  0  0  0  0  0  0  0
  -22.0300  -12.8150   22.0520 N   0  0  0  0  0  0  0  0  0  0  0  0
  -22.3360  -14.5500   20.6820 O   0  0  0  0  0  0  0  0  0  0  0  0
  -22.3900  -11.9780   22.4860 H   0  0  0  0  0  0  0  0  0  0  0  0
  -21.0940  -13.1190   22.2750 H   0  0  0  0  0  0  0  0  0  0  0  0
  -25.3870  -15.1940   20.4110 N   0  0  0  0  0  0  0  0  0  0  0  0
  -24.6010  -15.8230   20.5260 H   0  0  0  0  0  0  0  0  0  0  0  0
  -26.1560  -15.6180   19.9080 H   0  0  0  0  0  0  0  0  0  0  0  0
  -21.7970  -29.7680   23.8000 C   0  0  0  0  0  1  0  0  0  0  0  0
  -21.3200  -29.7780   22.0050 N   0  0  0  0  0  4  0  0  0  0  0  0
  -21.4710  -30.7360   21.7210 H   0  0  0  0  0  0  0  0  0  0  0  0
  -20.3120  -29.6820   22.0290 H   0  0  0  0  0  0  0  0  0  0  0  0
  -21.8570  -28.7830   20.5550 C   0  0  0  0  0  1  0  0  0  0  0  0
  -23.3690  -27.4930   20.1880 C   0  0  0  0  0  1  0  0  0  0  0  0
  -25.0540  -27.0840   20.6850 O   0  0  0  0  0  0  0  0  0  0  0  0
  -24.7790  -31.9030   23.2190 C   0  0  0  0  0  0  0  0  0  0  0  0
  -26.3820  -27.3010   20.2000 C   0  0  0  0  0  3  0  0  0  0  0  0
  -23.8290  -30.2270   21.6470 C   0  0  0  0  0  3  0  0  0  0  0  0
  -25.2100  -29.5100   19.6800 C   0  0  0  0  0  3  0  0  0  0  0  0
  -26.2340  -30.7890   21.5420 C   0  0  0  0  0  2  0  0  0  0  0  0
  -26.2190  -29.5870   20.6280 C   0  0  0  0  0  3  0  0  0  0  0  0
  -26.9990  -28.4420   20.7920 C   0  0  0  0  0  2  0  0  0  0  0  0
  -26.1050  -27.4020   18.8730 C   0  0  0  0  0  2  0  0  0  0  0  0
  -25.2750  -28.5180   18.6600 C   0  0  0  0  0  2  0  0  0  0  0  0
  -24.0330  -30.3240   20.0610 C   0  0  0  0  0  2  0  0  0  0  0  0
  -24.9410  -30.9960   22.2180 N   0  0  0  0  0  0  0  0  0  0  0  0
  -23.6740  -32.2790   23.6430 O   0  0  0  0  0  0  0  0  0  0  0  0
  -23.6690  -28.7230   22.4710 C   0  0  0  0  0  0  0  0  0  0  0  0
  -22.4980  -27.7260   22.6340 N   0  0  0  0  0  0  0  0  0  0  0  0
  -24.5720  -28.5340   23.2200 O   0  0  0  0  0  0  0  0  0  0  0  0
  -22.9480  -26.9460   23.1000 H   0  0  0  0  0  0  0  0  0  0  0  0
  -18.0970  -27.9780   22.7480 C   0  0  0  0  0  0  0  0  0  0  0  0
  -20.8050  -27.5230   23.0120 C   0  0  0  0  0  3  0  0  0  0  0  0
  -20.4900  -26.2840   22.2540 C   0  0  0  0  0  2  0  0  0  0  0  0
  -19.3170  -26.3820   21.3040 C   0  0  0  0  0  2  0  0  0  0  0  0
  -18.0500  -26.6460   22.0690 C   0  0  0  0  0  2  0  0  0  0  0  0
  -19.3500  -28.4730   23.2450 C   0  0  0  0  0  0  0  0  0  0  0  0
  -19.0580  -29.6590   24.0500 C   0  0  0  0  0  3  0  0  0  0  0  0
  -17.8410  -30.3920   24.1050 C   0  0  0  0  0  3  0  0  0  0  0  0
  -16.6940  -29.8540   23.5300 C   0  0  0  0  0  3  0  0  0  0  0  0
  -16.8310  -28.6160   22.8950 C   0  0  0  0  0  3  0  0  0  0  0  0
  -26.0210  -32.5200   23.8840 C   0  0  0  0  0  3  0  0  0  0  0  0
  -25.6620  -33.8910   24.2630 N   0  0  0  0  0  0  0  0  0  0  0  0
  -25.9190  -34.9680   23.5140 C   0  0  0  0  0  0  0  0  0  0  0  0
  -26.5590  -34.9060   22.4610 O   0  0  0  0  0  0  0  0  0  0  0  0
  -25.0580  -33.9960   25.0660 H   0  0  0  0  0  0  0  0  0  0  0  0
  -24.1500  -36.7360   23.2570 C   0  0  0  0  0  1  0  0  0  0  0  0
  -25.4120  -36.3250   24.0300 C   0  0  0  0  0  3  0  0  0  0  0  0
  -27.5580  -37.1940   24.8470 C   0  0  0  0  0  1  0  0  0  0  0  0
  -26.4250  -37.3970   23.9460 N   0  0  0  0  0  0  0  0  0  0  0  0
  -26.0100  -38.3020   24.1530 H   0  0  0  0  0  0  0  0  0  0  0  0
  -26.5000  -31.6880   25.1320 C   0  0  1  0  0  0  0  0  0  0  0  0
  -25.3800  -31.3980   26.1600 C   0  0  0  0  0  1  0  0  0  0  0  0
  -27.1250  -30.3340   24.7210 C   0  0  0  0  0  1  0  0  0  0  0  0
  -27.6270  -32.4700   25.8400 C   0  0  0  0  0  1  0  0  0  0  0  0
  3  2  1  0
  4  3  1  0
  5  4  2  0
  6  5  1  0
  6  8  1  0
  7  6  1  0
  9  6  1  0
 10  9  2  0
 11 19  1  0
 12 17  1  0
 13 14  1  0
 13 12  1  0
 15 14  1  0
 15 24  1  0
 15 16  1  0
 17 11  1  0
 17 16  1  0
 18 11  2  0
 19 20  1  0
 19 10  1  0
 21 22  2  0
 22 41  1  0
 23 22  1  0
 23 26  1  0
 24 25  1  0
 24 21  1  0
 25 23  2  0
 26 27  1  0
 27 28  2  0
 29 32  1  0
 29 28  1  0
 30 29  2  0
 31 30  1  0
 31 26  2  0
 32 33  1  0
 33 34  1  0
 34 35  2  0
 36 35  1  0
 36 40  1  0
 37 36  2  0
 38 33  2  0
 38 37  1  0
 39 38  1  0
 41 42  1  0
 42 45  1  0
 42 44  1  0
 43 41  2  0
 46 47  1  0
 46 21  1  0
 48 46  1  0
 50 52  1  0
 50 49  1  0
 51 50  1  0
 53 50  1  0
 54 55  1  0
 56 67  2  0
 57 55  1  0
 57 62  1  0
 58 66  1  0
 58 68  1  0
 59 64  1  0
 59 65  1  0
 59 61  1  0
 60 66  1  0
 61 62  1  0
 61 60  1  0
 63 57  1  0
 64 63  1  0
 65 58  1  0
 66 56  1  0
 68 69  1  0
 68 70  2  0
 69 71  1  0
 72 81  2  0
 72 77  1  0
 73 69  1  0
 73 77  1  0
 74 73  1  0
 75 76  1  0
 75 74  1  0
 76 72  1  0
 77 78  2  0
 78 79  1  0
 80 79  2  0
 81 80  1  0
 82 56  1  0
 82 83  1  0
 82 92  1  0
 83 86  1  0
 84 88  1  0
 84 83  1  0
 85 84  2  0
 88 87  1  0
 90 88  1  0
 90 91  1  0
 90 89  1  0
 92 95  1  1
 92 93  1  0
 94 92  1  0
M  ISO  4  11 100  19 100  54 101  55 101
M  END
>  <TORSDO>  (1) 
F 27

>  <SCORE>  (1) 
7.880

>  <name>  (1) 
0

>  <ligand_id>  (1) 
0

>  <original_smiles>  (1) 
[H]c1c([H])c([H])c2c(c1[H])C([H])([H])C([H])([H])C([H])([H])C2([H])N([H])C(=O)C1([H])N(C(=O)C([H])(N([H])C(=O)C([H])(N([H])C([H])([H])[H])C([H])([H])[H])C(C([H])([H])[H])(C([H])([H])[H])C([H])([H])[H])C([H])([H])c2c([H])c(OC([H])([H])C([H])([H])[N+]([H])([H])C([H])([H])C([H])([H])C([H])([H])C([H])([H])C([H])([H])C([H])([H])[N+]([H])([H])C([H])([H])C([H])([H])N([H])C(=O)N3C([H])([H])C([H])([H])C([H])([H])C([H])(n4nc(-c5c([H])c([H])c(Oc6c([H])c([H])c(F)c([H])c6F)c([H])c5[H])c(C(=O)N([H])[H])c4N([H])[H])C3([H])[H])c([H])c([H])c2C1([H])[H]

>  <smiles>  (1) 
[H]c1c([H])c([H])c2c(c1[H])C([H])([H])C([H])([H])C([H])([H])C2([H])N([H])C(=O)C1([H])N(C(=O)C([H])(N([H])C(=O)C([H])(N([H])C([H])([H])[H])C([H])([H])[H])C(C([H])([H])[H])(C([H])([H])[H])C([H])([H])[H])C([H])([H])c2c([H])c(OC([H])([H])C([H])([H])[N+]([H])([H])C([H])([H])C([H])([H])C([H])([H])C([H])([H])C([H])([H])C([H])([H])[N+]([H])([H])C([H])([H])C([H])([H])N([H])C(=O)N3C([H])([H])C([H])([H])C([H])([H])C([H])(n4nc(-c5c([H])c([H])c(Oc6c([H])c([H])c(F)c([H])c6F)c([H])c5[H])c(C(=O)N([H])[H])c4N([H])[H])C3([H])[H])c([H])c([H])c2C1([H])[H]

$$$$
1:0:0
     RDKit          3D

 96104  0  0  1  0  0  0  0  0999 V2000
  -29.2580  -22.7440   17.3210 C   0  0  0  0  0  2  0  0  0  0  0  0
  -28.5880  -21.6900   18.2190 C   0  0  0  0  0  2  0  0  0  0  0  0
  -30.2680  -21.7230   20.1290 C   0  0  0  0  0  2  0  0  0  0  0  0
  -29.5380  -24.1170   17.9650 C   0  0  0  0  0  2  0  0  0  0  0  0
  -31.0750  -22.9290   19.6010 C   0  0  0  0  0  2  0  0  0  0  0  0
  -29.5990  -20.8640   19.0360 C   0  0  0  0  0  3  0  0  0  0  0  0
  -30.2300  -24.1150   19.2860 N   0  0  1  0  0  4  0  0  0  0  0  0
  -29.4800  -24.0990   19.9620 H   0  0  0  0  0  0  0  0  0  0  0  0
  -28.9180  -19.5990   19.6100 C   0  0  0  0  0  2  0  0  0  0  0  0
  -29.5030  -17.5020   20.7830 C   0  0  0  0  0  0  0  0  0  0  0  0
  -29.8590  -18.6820   20.2560 N   0  0  0  0  0  0  0  0  0  0  0  0
  -28.3420  -17.0860   20.7390 O   0  0  0  0  0  0  0  0  0  0  0  0
  -30.8340  -18.9480   20.2940 H   0  0  0  0  0  0  0  0  0  0  0  0
  -30.5820  -16.6610   21.4710 C   0  0  0  0  0  2  0  0  0  0  0  0
  -30.7480  -14.3640   20.5430 C   0  0  0  0  0  0  0  0  0  0  0  0
  -30.3790  -12.2610   19.3090 C   0  0  0  0  0  2  0  0  0  0  0  0
  -29.4300  -12.5040   18.1190 C   0  0  0  0  0  2  0  0  0  0  0  0
  -27.9600  -12.3810   18.5570 C   0  0  0  0  0  2  0  0  0  0  0  0
  -27.6470  -13.2020   19.8370 C   0  0  0  0  0  3  0  0  0  0  0  0
  -28.7020  -12.9340   20.9330 C   0  0  0  0  0  2  0  0  0  0  0  0
  -30.0360  -13.2180   20.3700 N   0  0  0  0  0  0  0  0  0  0  0  0
  -31.7880  -14.6150   19.9300 O   0  0  0  0  0  0  0  0  0  0  0  0
  -30.2210  -15.2440   21.3980 N   0  0  0  0  0  0  0  0  0  0  0  0
  -29.3560  -14.9800   21.8440 H   0  0  0  0  0  0  0  0  0  0  0  0
  -25.2500  -13.8290   20.5420 C   0  0  0  0  0  0  0  0  0  0  0  0
  -24.1740  -13.0640   20.9060 C   0  0  0  0  0  0  0  0  0  0  0  0
  -24.6260  -11.7090   20.8750 C   0  0  0  0  0  0  0  0  0  0  0  0
  -26.2900  -12.9400   20.3130 N   0  0  0  0  0  0  0  0  0  0  0  0
  -25.9150  -11.6600   20.5670 N   0  0  0  0  0  0  0  0  0  0  0  0
  -23.8910  -10.4520   21.0690 C   0  0  0  0  0  0  0  0  0  0  0  0
  -24.3250   -9.4780   21.9950 C   0  0  0  0  0  3  0  0  0  0  0  0
  -23.5920   -8.2860   22.1750 C   0  0  0  0  0  3  0  0  0  0  0  0
  -22.4130   -8.0560   21.4290 C   0  0  0  0  0  0  0  0  0  0  0  0
  -21.9970   -9.0180   20.4900 C   0  0  0  0  0  3  0  0  0  0  0  0
  -22.7310  -10.2030   20.3080 C   0  0  0  0  0  3  0  0  0  0  0  0
  -21.6520   -6.9160   21.5190 O   0  0  0  0  0  0  0  0  0  0  0  0
  -21.6130   -6.1640   22.6660 C   0  0  0  0  0  0  0  0  0  0  0  0
  -21.2080   -6.7110   23.9020 C   0  0  0  0  0  3  0  0  0  0  0  0
  -21.1180   -5.8870   25.0420 C   0  0  0  0  0  3  0  0  0  0  0  0
  -21.4230   -4.5160   24.9450 C   0  0  0  0  0  0  0  0  0  0  0  0
  -21.8210   -3.9680   23.7120 C   0  0  0  0  0  3  0  0  0  0  0  0
  -21.9140   -4.7900   22.5760 C   0  0  0  0  0  0  0  0  0  0  0  0
  -22.2780   -4.2540   21.3870 F   0  0  0  0  0  0  0  0  0  0  0  0
  -21.3290   -3.7210   26.0360 F   0  0  0  0  0  0  0  0  0  0  0  0
  -22.7800  -13.5500   21.1810 C   0  0  0  0  0  0  0  0  0  0  0  0
  -22.0530  -12.8580   22.0520 N   0  0  0  0  0  0  0  0  0  0  0  0
  -22.3470  -14.5780   20.6630 O   0  0  0  0  0  0  0  0  0  0  0  0
  -22.4160  -12.0280   22.4950 H   0  0  0  0  0  0  0  0  0  0  0  0
  -21.1180  -13.1660   22.2800 H   0  0  0  0  0  0  0  0  0  0  0  0
  -25.4330  -15.2000   20.3770 N   0  0  0  0  0  0  0  0  0  0  0  0
  -24.6940  -15.8740   20.5440 H   0  0  0  0  0  0  0  0  0  0  0  0
  -26.3280  -15.6380   20.1840 H   0  0  0  0  0  0  0  0  0  0  0  0
  -30.9400  -25.4010   19.5460 C   0  0  0  0  0  2  0  0  0  0  0  0
  -30.5610  -25.9880   20.9160 C   0  0  0  0  0  2  0  0  0  0  0  0
  -29.5320  -27.1220   20.8180 C   0  0  0  0  0  2  0  0  0  0  0  0
  -28.3680  -26.6500   20.1440 O   0  0  0  0  0  0  0  0  0  0  0  0
  -24.5710  -31.8560   23.2200 C   0  0  0  0  0  0  0  0  0  0  0  0
  -27.2340  -27.4330   20.1730 C   0  0  0  0  0  0  0  0  0  0  0  0
  -23.3580  -30.4420   21.5870 C   0  0  0  0  0  3  0  0  0  0  0  0
  -24.8130  -28.8980   20.1690 C   0  0  0  0  0  0  0  0  0  0  0  0
  -25.8740  -30.8200   21.3710 C   0  0  0  0  0  2  0  0  0  0  0  0
  -25.9640  -29.4450   20.7480 C   0  0  0  0  0  0  0  0  0  0  0  0
  -27.1730  -28.7240   20.7490 C   0  0  0  0  0  3  0  0  0  0  0  0
  -26.0660  -26.8950   19.5910 C   0  0  0  0  0  3  0  0  0  0  0  0
  -24.8570  -27.6190   19.5860 C   0  0  0  0  0  3  0  0  0  0  0  0
  -23.5630  -29.7480   20.2130 C   0  0  0  0  0  2  0  0  0  0  0  0
  -24.6180  -31.0540   22.1190 N   0  0  0  0  0  0  0  0  0  0  0  0
  -23.4920  -32.1300   23.7650 O   0  0  0  0  0  0  0  0  0  0  0  0
  -22.7110  -29.4280   22.5570 C   0  0  0  0  0  0  0  0  0  0  0  0
  -21.3860  -29.2520   22.4380 N   0  0  0  0  0  0  0  0  0  0  0  0
  -23.3990  -28.8010   23.3670 O   0  0  0  0  0  0  0  0  0  0  0  0
  -20.8950  -29.8120   21.7540 H   0  0  0  0  0  0  0  0  0  0  0  0
  -18.0050  -28.0920   22.9620 C   0  0  0  0  0  0  0  0  0  0  0  0
  -20.5690  -28.3210   23.2140 C   0  0  0  0  0  3  0  0  0  0  0  0
  -20.6500  -26.8910   22.6310 C   0  0  0  0  0  2  0  0  0  0  0  0
  -19.5360  -26.5830   21.6270 C   0  0  0  0  0  2  0  0  0  0  0  0
  -18.1620  -26.7410   22.2840 C   0  0  0  0  0  2  0  0  0  0  0  0
  -19.1370  -28.8400   23.3850 C   0  0  0  0  0  0  0  0  0  0  0  0
  -18.9380  -30.1060   23.9780 C   0  0  0  0  0  3  0  0  0  0  0  0
  -17.6410  -30.6230   24.1540 C   0  0  0  0  0  3  0  0  0  0  0  0
  -16.5240  -29.8710   23.7500 C   0  0  0  0  0  3  0  0  0  0  0  0
  -16.7080  -28.6080   23.1590 C   0  0  0  0  0  3  0  0  0  0  0  0
  -25.8610  -32.4860   23.8330 C   0  0  0  0  0  3  0  0  0  0  0  0
  -25.5560  -33.8840   24.1650 N   0  0  0  0  0  0  0  0  0  0  0  0
  -25.8880  -34.9350   23.4030 C   0  0  0  0  0  0  0  0  0  0  0  0
  -26.5580  -34.8300   22.3720 O   0  0  0  0  0  0  0  0  0  0  0  0
  -24.9640  -34.0400   24.9670 H   0  0  0  0  0  0  0  0  0  0  0  0
  -24.1670  -36.7300   23.0390 C   0  0  0  0  0  1  0  0  0  0  0  0
  -25.4020  -36.3240   23.8590 C   0  0  0  0  0  3  0  0  0  0  0  0
  -27.5330  -37.2020   24.7020 C   0  0  0  0  0  1  0  0  0  0  0  0
  -26.4380  -37.3750   23.7520 N   0  0  0  0  0  0  0  0  0  0  0  0
  -26.0340  -38.2950   23.8970 H   0  0  0  0  0  0  0  0  0  0  0  0
  -26.3900  -31.7140   25.1030 C   0  0  1  0  0  0  0  0  0  0  0  0
  -25.3070  -31.4700   26.1790 C   0  0  0  0  0  1  0  0  0  0  0  0
  -26.9720  -30.3380   24.6970 C   0  0  0  0  0  1  0  0  0  0  0  0
  -27.5450  -32.5070   25.7570 C   0  0  0  0  0  1  0  0  0  0  0  0
  1  4  1  0
  1  2  1  0
  2  6  1  0
  4  7  1  0
  5  3  1  0
  6  9  1  0
  6  3  1  0
  7 53  1  0
  7  5  1  0
  7  8  1  1
  9 11  1  0
 10 14  1  0
 11 13  1  0
 11 10  1  0
 12 10  2  0
 15 23  1  0
 16 21  1  0
 17 18  1  0
 17 16  1  0
 19 18  1  0
 19 28  1  0
 19 20  1  0
 21 15  1  0
 21 20  1  0
 22 15  2  0
 23 14  1  0
 23 24  1  0
 25 26  2  0
 26 45  1  0
 27 26  1  0
 27 30  1  0
 28 25  1  0
 28 29  1  0
 29 27  2  0
 30 31  1  0
 31 32  2  0
 33 36  1  0
 33 32  1  0
 34 33  2  0
 35 34  1  0
 35 30  2  0
 36 37  1  0
 37 38  1  0
 38 39  2  0
 40 39  1  0
 40 44  1  0
 41 40  2  0
 42 37  2  0
 42 41  1  0
 43 42  1  0
 45 46  1  0
 46 49  1  0
 46 48  1  0
 47 45  2  0
 50 25  1  0
 50 51  1  0
 52 50  1  0
 53 54  1  0
 55 54  1  0
 56 58  1  0
 56 55  1  0
 57 68  2  0
 58 63  1  0
 59 67  1  0
 59 69  1  0
 60 66  1  0
 60 62  1  0
 61 67  1  0
 62 63  2  0
 62 61  1  0
 64 58  2  0
 65 64  1  0
 65 60  2  0
 66 59  1  0
 67 57  1  0
 69 71  2  0
 70 69  1  0
 72 70  1  0
 73 82  2  0
 73 78  1  0
 74 70  1  0
 74 78  1  0
 75 74  1  0
 76 77  1  0
 76 75  1  0
 77 73  1  0
 78 79  2  0
 79 80  1  0
 81 80  2  0
 82 81  1  0
 83 57  1  0
 83 84  1  0
 83 93  1  0
 84 87  1  0
 85 89  1  0
 85 84  1  0
 86 85  2  0
 89 88  1  0
 91 89  1  0
 91 92  1  0
 91 90  1  0
 93 96  1  1
 93 94  1  0
 95 93  1  0
M  ISO  4  15 100  23 100  55 101  56 101
M  END
>  <TORSDO>  (2) 
F 22

>  <SCORE>  (2) 
-13.330

>  <name>  (2) 
1

>  <ligand_id>  (2) 
1

>  <original_smiles>  (2) 
[H]c1c([H])c([H])c2c(c1[H])C([H])([H])C([H])([H])C([H])([H])C2([H])N([H])C(=O)C1([H])N(C(=O)C([H])(N([H])C(=O)C([H])(N([H])C([H])([H])[H])C([H])([H])[H])C(C([H])([H])[H])(C([H])([H])[H])C([H])([H])[H])C([H])([H])c2c([H])c(OC([H])([H])C([H])([H])C([H])([H])[N+]3([H])C([H])([H])C([H])([H])C([H])([H])C([H])(C([H])([H])N([H])C(=O)C([H])([H])N([H])C(=O)N4C([H])([H])C([H])([H])C([H])([H])C([H])(n5nc(-c6c([H])c([H])c(Oc7c([H])c([H])c(F)c([H])c7F)c([H])c6[H])c(C(=O)N([H])[H])c5N([H])[H])C4([H])[H])C([H])([H])C3([H])[H])c([H])c([H])c2C1([H])[H]

>  <smiles>  (2) 
[H]c1c([H])c([H])c2c(c1[H])C([H])([H])C([H])([H])C([H])([H])C2([H])N([H])C(=O)C1([H])N(C(=O)C([H])(N([H])C(=O)C([H])(N([H])C([H])([H])[H])C([H])([H])[H])C(C([H])([H])[H])(C([H])([H])[H])C([H])([H])[H])C([H])([H])c2c([H])c(OC([H])([H])C([H])([H])C([H])([H])[N+]3([H])C([H])([H])C([H])([H])C([H])([H])C([H])(C([H])([H])N([H])C(=O)C([H])([H])N([H])C(=O)N4C([H])([H])C([H])([H])C([H])([H])C([H])(n5nc(-c6c([H])c([H])c(Oc7c([H])c([H])c(F)c([H])c7F)c([H])c6[H])c(C(=O)N([H])[H])c5N([H])[H])C4([H])[H])C([H])([H])C3([H])[H])c([H])c([H])c2C1([H])[H]

$$$$
2:0:0
     RDKit          3D

 90 91  0  0  1  0  0  0  0  0999 V2000
  -21.6620  -24.6450   22.3660 C   0  0  0  0  0  1  0  0  0  0  0  0
  -23.1560  -23.8910   21.6960 N   0  0  0  0  0  4  0  0  0  0  0  0
  -23.1740  -24.2120   20.7410 H   0  0  0  0  0  0  0  0  0  0  0  0
  -23.8820  -24.4120   22.1610 H   0  0  0  0  0  0  0  0  0  0  0  0
  -23.9080  -22.2660   21.5770 C   0  0  0  0  0  1  0  0  0  0  0  0
  -25.4220  -21.3730   20.6650 C   0  0  0  0  0 15  0  0  0  0  0  0
  -26.3260  -19.6240   20.4340 C   0  0  0  0  0 15  0  0  0  0  0  0
  -27.9400  -18.7740   19.6710 C   0  0  0  0  0  1  0  0  0  0  0  0
  -30.1290  -16.3800   19.2340 C   0  0  0  0  0  0  0  0  0  0  0  0
  -31.0140  -13.9240   18.5400 C   0  0  0  0  0  2  0  0  0  0  0  0
  -30.0990  -13.2360   17.4720 C   0  0  0  0  0  2  0  0  0  0  0  0
  -28.7670  -12.7740   18.0920 C   0  0  0  0  0  2  0  0  0  0  0  0
  -28.2570  -13.8390   19.0850 C   0  0  0  0  0  3  0  0  0  0  0  0
  -29.3030  -14.2010   20.1370 C   0  0  0  0  0  2  0  0  0  0  0  0
  -30.2320  -14.9580   19.3610 N   0  0  0  0  0  0  0  0  0  0  0  0
  -31.1880  -16.7450   18.6490 O   0  0  0  0  0  0  0  0  0  0  0  0
  -28.8540  -17.2180   19.6710 N   0  0  0  0  0  0  0  0  0  0  0  0
  -28.2720  -16.5580   20.1720 H   0  0  0  0  0  0  0  0  0  0  0  0
  -26.1990  -14.3730   20.4200 C   0  0  0  0  0  0  0  0  0  0  0  0
  -25.2080  -13.5810   20.9100 C   0  0  0  0  0  0  0  0  0  0  0  0
  -25.5520  -12.2410   20.5420 C   0  0  0  0  0  0  0  0  0  0  0  0
  -27.0500  -13.5080   19.7640 N   0  0  0  0  0  0  0  0  0  0  0  0
  -26.7110  -12.2120   19.9100 N   0  0  0  0  0  0  0  0  0  0  0  0
  -24.8150  -10.9870   20.6850 C   0  0  0  0  0  0  0  0  0  0  0  0
  -25.2580   -9.9680   21.5560 C   0  0  0  0  0  3  0  0  0  0  0  0
  -24.5200   -8.7740   21.6880 C   0  0  0  0  0  3  0  0  0  0  0  0
  -23.3290   -8.5930   20.9450 C   0  0  0  0  0  0  0  0  0  0  0  0
  -22.9100   -9.6010   20.0590 C   0  0  0  0  0  3  0  0  0  0  0  0
  -23.6470  -10.7870   19.9250 C   0  0  0  0  0  3  0  0  0  0  0  0
  -22.5550   -7.4610   20.9910 O   0  0  0  0  0  0  0  0  0  0  0  0
  -22.2670   -6.8330   22.1750 C   0  0  0  0  0  0  0  0  0  0  0  0
  -21.6430   -7.5100   23.2450 C   0  0  0  0  0  3  0  0  0  0  0  0
  -21.3050   -6.8090   24.4190 C   0  0  0  0  0  3  0  0  0  0  0  0
  -21.5790   -5.4320   24.5210 C   0  0  0  0  0  0  0  0  0  0  0  0
  -22.1930   -4.7550   23.4540 C   0  0  0  0  0  3  0  0  0  0  0  0
  -22.5360   -5.4530   22.2840 C   0  0  0  0  0  0  0  0  0  0  0  0
  -23.1110   -4.7930   21.2490 F   0  0  0  0  0  0  0  0  0  0  0  0
  -21.2450   -4.7560   25.6450 F   0  0  0  0  0  0  0  0  0  0  0  0
  -23.9540  -14.0470   21.5810 C   0  0  0  0  0  0  0  0  0  0  0  0
  -23.4150  -13.2380   22.4820 N   0  0  0  0  0  0  0  0  0  0  0  0
  -23.4710  -15.1530   21.3360 O   0  0  0  0  0  0  0  0  0  0  0  0
  -23.8200  -12.3360   22.6920 H   0  0  0  0  0  0  0  0  0  0  0  0
  -22.5690  -13.5170   22.9570 H   0  0  0  0  0  0  0  0  0  0  0  0
  -26.4520  -15.7440   20.4460 N   0  0  0  0  0  0  0  0  0  0  0  0
  -25.9050  -16.4020   20.9860 H   0  0  0  0  0  0  0  0  0  0  0  0
  -27.0920  -16.2000   19.8060 H   0  0  0  0  0  0  0  0  0  0  0  0
  -20.5040  -26.3340   22.0910 C   0  0  0  0  0  1  0  0  0  0  0  0
  -21.1480  -27.8990   19.7410 C   0  0  0  0  0  2  0  0  0  0  0  0
  -23.1090  -27.9210   19.1340 C   0  0  0  0  0  1  0  0  0  0  0  0
  -24.8660  -27.8690   19.6680 O   0  0  0  0  0  0  0  0  0  0  0  0
  -24.6970  -32.0800   23.1770 C   0  0  0  0  0  0  0  0  0  0  0  0
  -26.1720  -28.2900   19.1790 C   0  0  0  0  0  3  0  0  0  0  0  0
  -23.4820  -31.1980   21.2570 C   0  0  0  0  0  3  0  0  0  0  0  0
  -24.8750  -30.4910   19.1800 C   0  0  0  0  0  3  0  0  0  0  0  0
  -26.0110  -31.4960   21.1450 C   0  0  0  0  0  2  0  0  0  0  0  0
  -25.9460  -30.4400   20.0720 C   0  0  0  0  0  3  0  0  0  0  0  0
  -26.7860  -29.3190   19.9630 C   0  0  0  0  0  2  0  0  0  0  0  0
  -25.8980  -28.6780   17.9000 C   0  0  0  0  0  2  0  0  0  0  0  0
  -24.9910  -29.7500   17.9650 C   0  0  0  0  0  2  0  0  0  0  0  0
  -23.6220  -31.1810   19.6860 C   0  0  0  0  0  2  0  0  0  0  0  0
  -24.7430  -31.6480   21.8920 N   0  0  0  0  0  0  0  0  0  0  0  0
  -23.6190  -32.1960   23.7830 O   0  0  0  0  0  0  0  0  0  0  0  0
  -23.1100  -29.8610   21.9600 C   0  0  0  0  0  0  0  0  0  0  0  0
  -21.9220  -29.6790   22.4710 N   0  0  0  0  0  0  0  0  0  0  0  0
  -23.9230  -28.9680   22.1510 O   0  0  0  0  0  0  0  0  0  0  0  0
  -21.2520  -30.4350   22.4330 H   0  0  0  0  0  0  0  0  0  0  0  0
  -18.4810  -28.6130   22.2150 C   0  0  0  0  0  0  0  0  0  0  0  0
  -21.3630  -28.3130   22.6690 C   0  0  0  0  0  2  0  0  0  0  0  0
  -21.8670  -26.9110   21.2060 C   0  0  0  0  0  2  0  0  0  0  0  0
  -19.9400  -26.6140   19.8670 C   0  0  0  0  0  1  0  0  0  0  0  0
  -18.4060  -27.6400   20.7230 C   0  0  0  0  0  1  0  0  0  0  0  0
  -19.7430  -28.9180   22.9850 C   0  0  0  0  0  0  0  0  0  0  0  0
  -19.6160  -29.9290   24.0400 C   0  0  0  0  0  3  0  0  0  0  0  0
  -18.4150  -30.5390   24.4940 C   0  0  0  0  0  3  0  0  0  0  0  0
  -17.2140  -30.1170   23.9170 C   0  0  0  0  0  3  0  0  0  0  0  0
  -17.2650  -29.1920   22.8210 C   0  0  0  0  0  3  0  0  0  0  0  0
  -25.9960  -32.4650   23.9270 C   0  0  0  0  0  3  0  0  0  0  0  0
  -26.4520  -31.3830   24.9780 C   0  0  1  0  0  0  0  0  0  0  0  0
  -25.3290  -30.9280   25.9380 C   0  0  0  0  0  1  0  0  0  0  0  0
  -27.0040  -30.1200   24.2780 C   0  0  0  0  0  1  0  0  0  0  0  0
  -27.6090  -31.9560   25.8270 C   0  0  0  0  0  1  0  0  0  0  0  0
  -25.7260  -33.7490   24.5770 N   0  0  0  0  0  0  0  0  0  0  0  0
  -26.0920  -34.9370   24.0800 C   0  0  0  0  0  0  0  0  0  0  0  0
  -26.7820  -35.0530   23.0630 O   0  0  0  0  0  0  0  0  0  0  0  0
  -25.1200  -33.7320   25.3840 H   0  0  0  0  0  0  0  0  0  0  0  0
  -24.4320  -36.8260   24.1090 C   0  0  0  0  0  1  0  0  0  0  0  0
  -25.6270  -36.1920   24.8400 C   0  0  0  0  0  3  0  0  0  0  0  0
  -27.7580  -36.7540   25.9190 C   0  0  0  0  0  1  0  0  0  0  0  0
  -26.6950  -37.1960   25.0190 N   0  0  0  0  0  0  0  0  0  0  0  0
  -26.3130  -38.0640   25.3840 H   0  0  0  0  0  0  0  0  0  0  0  0
  2  4  1  0
  2  1  1  0
  3  2  1  0
  5  2  1  0
  8 17  1  0
  9 15  1  0
  9 17  1  0
 10 15  1  0
 11 12  1  0
 11 10  1  0
 13 12  1  0
 13 22  1  0
 13 14  1  0
 15 14  1  0
 16  9  2  0
 17 18  1  0
 19 44  1  0
 19 20  2  0
 20 39  1  0
 21 24  1  0
 21 20  1  0
 22 23  1  0
 22 19  1  0
 23 21  2  0
 24 25  1  0
 25 26  2  0
 27 30  1  0
 27 26  1  0
 28 27  2  0
 29 28  1  0
 29 24  2  0
 30 31  1  0
 31 36  2  0
 31 32  1  0
 32 33  2  0
 33 34  1  0
 34 38  1  0
 35 34  2  0
 36 35  1  0
 37 36  1  0
 39 40  1  0
 40 42  1  0
 40 43  1  0
 41 39  2  0
 44 45  1  0
 46 44  1  0
 48 70  1  0
 48 69  1  0
 49 50  1  0
 51 62  2  0
 52 50  1  0
 52 57  1  0
 53 61  1  0
 53 63  1  0
 54 59  1  0
 54 60  1  0
 54 56  1  0
 55 61  1  0
 56 57  1  0
 56 55  1  0
 58 59  1  0
 58 52  1  0
 60 53  1  0
 61 51  1  0
 63 65  2  0
 63 64  1  0
 64 68  1  0
 66 64  1  0
 67 76  2  0
 67 72  1  0
 68 72  1  0
 69 47  1  0
 71 67  1  0
 72 73  2  0
 73 74  1  0
 75 74  2  0
 76 75  1  0
 77 51  1  0
 77 82  1  0
 77 78  1  0
 78 81  1  1
 78 79  1  0
 80 78  1  0
 82 85  1  0
 83 82  1  0
 83 87  1  0
 84 83  2  0
 87 86  1  0
 87 89  1  0
 89 90  1  0
 89 88  1  0
M  ISO  4   9 100  17 100  49 101  50 101
M  END
>  <TORSDO>  (3) 
F 24

>  <SCORE>  (3) 
1.555

>  <name>  (3) 
2

>  <ligand_id>  (3) 
2

>  <original_smiles>  (3) 
[H]c1c([H])c([H])c2c(c1[H])C([H])([H])C([H])([H])C([H])([H])C2([H])N([H])C(=O)C1([H])N(C(=O)C([H])(N([H])C(=O)C([H])(N([H])C([H])([H])[H])C([H])([H])[H])C(C([H])([H])[H])(C([H])([H])[H])C([H])([H])[H])C([H])([H])c2c([H])c(OC([H])([H])C([H])([H])C([H])([H])C([H])([H])[N+]([H])([H])C([H])([H])C([H])([H])C([H])([H])C([H])([H])N([H])C(=O)N3C([H])([H])C([H])([H])C([H])([H])C([H])(n4nc(-c5c([H])c([H])c(Oc6c([H])c([H])c(F)c([H])c6F)c([H])c5[H])c(C(=O)N([H])[H])c4N([H])[H])C3([H])[H])c([H])c([H])c2C1([H])[H]

>  <smiles>  (3) 
[H]c1c([H])c([H])c2c(c1[H])C([H])([H])C([H])([H])C([H])([H])C2([H])N([H])C(=O)C1([H])N(C(=O)C([H])(N([H])C(=O)C([H])(N([H])C([H])([H])[H])C([H])([H])[H])C(C([H])([H])[H])(C([H])([H])[H])C([H])([H])[H])C([H])([H])c2c([H])c(OC([H])([H])C([H])([H])C([H])([H])C([H])([H])[N+]([H])([H])C([H])([H])C([H])([H])C([H])([H])C([H])([H])N([H])C(=O)N3C([H])([H])C([H])([H])C([H])([H])C([H])(n4nc(-c5c([H])c([H])c(Oc6c([H])c([H])c(F)c([H])c6F)c([H])c5[H])c(C(=O)N([H])[H])c4N([H])[H])C3([H])[H])c([H])c([H])c2C1([H])[H]

$$$$
3:0:0
     RDKit          3D

 92100  0  0  1  0  0  0  0  0999 V2000
  -28.7240  -21.6950   19.7900 C   0  0  0  0  0  2  0  0  0  0  0  0
  -31.0080  -19.0640   21.4340 C   0  0  0  0  0  2  0  0  0  0  0  0
  -28.9010  -17.9420   20.6850 C   0  0  0  0  0  2  0  0  0  0  0  0
  -30.6100  -20.3130   20.6230 C   0  0  0  0  0  2  0  0  0  0  0  0
  -28.5410  -19.2190   19.8890 C   0  0  0  0  0  2  0  0  0  0  0  0
  -30.4260  -17.7670   20.8380 C   0  0  0  0  0  3  0  0  0  0  0  0
  -29.1330  -20.4450   20.4940 N   0  0  2  0  0  4  0  0  0  0  0  0
  -28.7520  -20.5060   21.4250 H   0  0  0  0  0  0  0  0  0  0  0  0
  -30.8250  -16.5450   21.7030 C   0  0  0  0  0  2  0  0  0  0  0  0
  -30.7780  -14.4200   20.3760 C   0  0  0  0  0  0  0  0  0  0  0  0
  -30.3950  -12.3430   19.0950 C   0  0  0  0  0  2  0  0  0  0  0  0
  -29.4170  -12.6030   17.9320 C   0  0  0  0  0  2  0  0  0  0  0  0
  -27.9550  -12.4670   18.4010 C   0  0  0  0  0  2  0  0  0  0  0  0
  -27.6690  -13.2660   19.7000 C   0  0  0  0  0  3  0  0  0  0  0  0
  -28.7470  -12.9740   20.7670 C   0  0  0  0  0  2  0  0  0  0  0  0
  -30.0660  -13.2800   20.1800 N   0  0  0  0  0  0  0  0  0  0  0  0
  -31.8290  -14.6750   19.7810 O   0  0  0  0  0  0  0  0  0  0  0  0
  -30.2410  -15.2820   21.2520 N   0  0  0  0  0  0  0  0  0  0  0  0
  -29.3780  -14.9930   21.6880 H   0  0  0  0  0  0  0  0  0  0  0  0
  -25.2920  -13.8890   20.4680 C   0  0  0  0  0  0  0  0  0  0  0  0
  -24.2250  -13.1220   20.8560 C   0  0  0  0  0  0  0  0  0  0  0  0
  -24.6740  -11.7670   20.8000 C   0  0  0  0  0  0  0  0  0  0  0  0
  -26.3230  -13.0010   20.2050 N   0  0  0  0  0  0  0  0  0  0  0  0
  -25.9550  -11.7200   20.4580 N   0  0  0  0  0  0  0  0  0  0  0  0
  -23.9420  -10.5090   20.9940 C   0  0  0  0  0  0  0  0  0  0  0  0
  -24.3770   -9.5380   21.9230 C   0  0  0  0  0  3  0  0  0  0  0  0
  -23.6470   -8.3440   22.1050 C   0  0  0  0  0  3  0  0  0  0  0  0
  -22.4680   -8.1130   21.3580 C   0  0  0  0  0  0  0  0  0  0  0  0
  -22.0520   -9.0720   20.4190 C   0  0  0  0  0  3  0  0  0  0  0  0
  -22.7830  -10.2570   20.2340 C   0  0  0  0  0  3  0  0  0  0  0  0
  -21.7090   -6.9710   21.4500 O   0  0  0  0  0  0  0  0  0  0  0  0
  -21.6480   -6.2380   22.6080 C   0  0  0  0  0  0  0  0  0  0  0  0
  -21.1920   -6.7990   23.8220 C   0  0  0  0  0  3  0  0  0  0  0  0
  -21.0800   -5.9910   24.9720 C   0  0  0  0  0  3  0  0  0  0  0  0
  -21.4130   -4.6240   24.9090 C   0  0  0  0  0  0  0  0  0  0  0  0
  -21.8610   -4.0640   23.7000 C   0  0  0  0  0  3  0  0  0  0  0  0
  -21.9750   -4.8680   22.5520 C   0  0  0  0  0  0  0  0  0  0  0  0
  -22.3870   -4.3180   21.3850 F   0  0  0  0  0  0  0  0  0  0  0  0
  -21.2970   -3.8470   26.0100 F   0  0  0  0  0  0  0  0  0  0  0  0
  -22.8400  -13.6080   21.1690 C   0  0  0  0  0  0  0  0  0  0  0  0
  -22.1250  -12.9050   22.0410 N   0  0  0  0  0  0  0  0  0  0  0  0
  -22.3990  -14.6450   20.6750 O   0  0  0  0  0  0  0  0  0  0  0  0
  -22.4940  -12.0640   22.4610 H   0  0  0  0  0  0  0  0  0  0  0  0
  -21.1970  -13.2110   22.2920 H   0  0  0  0  0  0  0  0  0  0  0  0
  -25.4650  -15.2600   20.3000 N   0  0  0  0  0  0  0  0  0  0  0  0
  -24.7060  -15.9210   20.4300 H   0  0  0  0  0  0  0  0  0  0  0  0
  -26.3120  -15.6910   19.9530 H   0  0  0  0  0  0  0  0  0  0  0  0
  -28.7520  -22.9490   20.6990 C   0  0  0  0  0  2  0  0  0  0  0  0
  -28.5320  -24.2810   19.9430 C   0  0  0  0  0  3  0  0  0  0  0  0
  -29.5620  -24.4530   19.1130 F   0  0  0  0  0  0  0  0  0  0  0  0
  -28.4450  -25.4970   20.8920 C   0  0  0  0  0  2  0  0  0  0  0  0
  -28.4470  -26.7490   20.1970 O   0  0  0  0  0  0  0  0  0  0  0  0
  -24.5830  -31.8960   23.2310 C   0  0  0  0  0  0  0  0  0  0  0  0
  -27.2640  -27.4480   20.2140 C   0  0  0  0  0  0  0  0  0  0  0  0
  -23.3900  -30.4750   21.5940 C   0  0  0  0  0  3  0  0  0  0  0  0
  -24.8590  -28.9250   20.1980 C   0  0  0  0  0  0  0  0  0  0  0  0
  -25.9130  -30.8460   21.4060 C   0  0  0  0  0  2  0  0  0  0  0  0
  -26.0090  -29.4680   20.7830 C   0  0  0  0  0  0  0  0  0  0  0  0
  -27.2180  -28.7380   20.7840 C   0  0  0  0  0  3  0  0  0  0  0  0
  -26.0990  -26.9070   19.6310 C   0  0  0  0  0  3  0  0  0  0  0  0
  -24.8970  -27.6420   19.6200 C   0  0  0  0  0  3  0  0  0  0  0  0
  -23.6110  -29.7780   20.2240 C   0  0  0  0  0  2  0  0  0  0  0  0
  -24.6470  -31.0870   22.1360 N   0  0  0  0  0  0  0  0  0  0  0  0
  -23.4980  -32.1700   23.7620 O   0  0  0  0  0  0  0  0  0  0  0  0
  -22.7360  -29.4620   22.5600 C   0  0  0  0  0  0  0  0  0  0  0  0
  -21.4120  -29.2850   22.4330 N   0  0  0  0  0  0  0  0  0  0  0  0
  -23.4180  -28.8370   23.3770 O   0  0  0  0  0  0  0  0  0  0  0  0
  -20.9240  -29.8410   21.7440 H   0  0  0  0  0  0  0  0  0  0  0  0
  -18.0260  -28.1430   22.9640 C   0  0  0  0  0  0  0  0  0  0  0  0
  -20.5910  -28.3550   23.2070 C   0  0  0  0  0  3  0  0  0  0  0  0
  -20.6610  -26.9280   22.6170 C   0  0  0  0  0  2  0  0  0  0  0  0
  -19.5410  -26.6320   21.6140 C   0  0  0  0  0  2  0  0  0  0  0  0
  -18.1710  -26.7960   22.2760 C   0  0  0  0  0  2  0  0  0  0  0  0
  -19.1630  -28.8820   23.3860 C   0  0  0  0  0  0  0  0  0  0  0  0
  -18.9740  -30.1460   23.9880 C   0  0  0  0  0  3  0  0  0  0  0  0
  -17.6800  -30.6690   24.1730 C   0  0  0  0  0  3  0  0  0  0  0  0
  -16.5580  -29.9270   23.7670 C   0  0  0  0  0  3  0  0  0  0  0  0
  -16.7310  -28.6660   23.1690 C   0  0  0  0  0  3  0  0  0  0  0  0
  -25.8640  -32.5340   23.8550 C   0  0  0  0  0  3  0  0  0  0  0  0
  -25.5510  -33.9320   24.1750 N   0  0  0  0  0  0  0  0  0  0  0  0
  -25.8940  -34.9820   23.4160 C   0  0  0  0  0  0  0  0  0  0  0  0
  -26.5800  -34.8750   22.3970 O   0  0  0  0  0  0  0  0  0  0  0  0
  -24.9430  -34.0900   24.9660 H   0  0  0  0  0  0  0  0  0  0  0  0
  -24.1840  -36.7790   23.0110 C   0  0  0  0  0  1  0  0  0  0  0  0
  -25.3970  -36.3710   23.8600 C   0  0  0  0  0  3  0  0  0  0  0  0
  -27.5060  -37.2500   24.7590 C   0  0  0  0  0  1  0  0  0  0  0  0
  -26.4360  -37.4210   23.7790 N   0  0  0  0  0  0  0  0  0  0  0  0
  -26.0280  -38.3420   23.9120 H   0  0  0  0  0  0  0  0  0  0  0  0
  -26.3810  -31.7690   25.1340 C   0  0  1  0  0  0  0  0  0  0  0  0
  -25.2860  -31.5260   26.1980 C   0  0  0  0  0  1  0  0  0  0  0  0
  -26.9770  -30.3960   24.7450 C   0  0  0  0  0  1  0  0  0  0  0  0
  -27.5240  -32.5730   25.8000 C   0  0  0  0  0  1  0  0  0  0  0  0
  1  7  1  0
  1 48  1  0
  3  6  1  0
  4  2  1  0
  5  7  1  0
  5  3  1  0
  6  2  1  0
  6  9  1  0
  7  4  1  0
  7  8  1  1
 10 18  1  0
 11 16  1  0
 12 13  1  0
 12 11  1  0
 14 13  1  0
 14 23  1  0
 14 15  1  0
 16 10  1  0
 16 15  1  0
 17 10  2  0
 18 19  1  0
 18  9  1  0
 20 21  2  0
 21 40  1  0
 22 21  1  0
 22 25  1  0
 23 24  1  0
 23 20  1  0
 24 22  2  0
 25 26  1  0
 26 27  2  0
 28 31  1  0
 28 27  1  0
 29 28  2  0
 30 29  1  0
 30 25  2  0
 31 32  1  0
 32 33  1  0
 33 34  2  0
 35 34  1  0
 35 39  1  0
 36 35  2  0
 37 32  2  0
 37 36  1  0
 38 37  1  0
 40 41  1  0
 41 44  1  0
 41 43  1  0
 42 40  2  0
 45 46  1  0
 45 20  1  0
 47 45  1  0
 49 50  1  0
 49 48  1  0
 49 51  1  0
 52 54  1  0
 52 51  1  0
 53 64  2  0
 54 59  1  0
 55 63  1  0
 55 65  1  0
 56 62  1  0
 56 58  1  0
 57 63  1  0
 58 59  2  0
 58 57  1  0
 60 54  2  0
 61 60  1  0
 61 56  2  0
 62 55  1  0
 63 53  1  0
 65 67  2  0
 66 65  1  0
 68 66  1  0
 69 78  2  0
 69 74  1  0
 70 66  1  0
 70 74  1  0
 71 70  1  0
 72 73  1  0
 72 71  1  0
 73 69  1  0
 74 75  2  0
 75 76  1  0
 77 76  2  0
 78 77  1  0
 79 53  1  0
 79 80  1  0
 79 89  1  0
 80 83  1  0
 81 85  1  0
 81 80  1  0
 82 81  2  0
 85 84  1  0
 87 85  1  0
 87 88  1  0
 87 86  1  0
 89 92  1  1
 89 90  1  0
 91 89  1  0
M  ISO  4  10 100  18 100  51 101  52 101
M  END
>  <TORSDO>  (4) 
F 21

>  <SCORE>  (4) 
-13.804

>  <name>  (4) 
3

>  <ligand_id>  (4) 
3

>  <original_smiles>  (4) 
[H]c1c([H])c([H])c2c(c1[H])C([H])([H])C([H])([H])C([H])([H])C2([H])N([H])C(=O)C1([H])N(C(=O)C([H])(N([H])C(=O)C([H])(N([H])C([H])([H])[H])C([H])([H])[H])C(C([H])([H])[H])(C([H])([H])[H])C([H])([H])[H])C([H])([H])c2c([H])c(OC([H])([H])C([H])(F)C([H])([H])C([H])([H])[N+]3([H])C([H])([H])C([H])([H])C([H])(C([H])([H])N([H])C(=O)N4C([H])([H])C([H])([H])C([H])([H])C([H])(n5nc(-c6c([H])c([H])c(Oc7c([H])c([H])c(F)c([H])c7F)c([H])c6[H])c(C(=O)N([H])[H])c5N([H])[H])C4([H])[H])C([H])([H])C3([H])[H])c([H])c([H])c2C1([H])[H]

>  <smiles>  (4) 
[H]c1c([H])c([H])c2c(c1[H])C([H])([H])C([H])([H])C([H])([H])C2([H])N([H])C(=O)C1([H])N(C(=O)C([H])(N([H])C(=O)C([H])(N([H])C([H])([H])[H])C([H])([H])[H])C(C([H])([H])[H])(C([H])([H])[H])C([H])([H])[H])C([H])([H])c2c([H])c(OC([H])([H])C([H])(F)C([H])([H])C([H])([H])[N+]3([H])C([H])([H])C([H])([H])C([H])(C([H])([H])N([H])C(=O)N4C([H])([H])C([H])([H])C([H])([H])C([H])(n5nc(-c6c([H])c([H])c(Oc7c([H])c([H])c(F)c([H])c7F)c([H])c6[H])c(C(=O)N([H])[H])c5N([H])[H])C4([H])[H])C([H])([H])C3([H])[H])c([H])c([H])c2C1([H])[H]

$$$$
4:0:0
     RDKit          3D

 96104  0  0  1  0  0  0  0  0999 V2000
  -29.6600  -22.3010   16.5580 C   0  0  0  0  0  0  0  0  0  0  0  0
  -29.8570  -23.5450   16.1080 N   0  0  0  0  0  0  0  0  0  0  0  0
  -28.5620  -21.9080   16.9600 O   0  0  0  0  0  0  0  0  0  0  0  0
  -30.7770  -23.7640   15.7480 H   0  0  0  0  0  0  0  0  0  0  0  0
  -30.8840  -21.3760   16.6270 C   0  0  0  0  0  2  0  0  0  0  0  0
  -30.5270  -19.8860   16.8250 C   0  0  0  0  0  2  0  0  0  0  0  0
  -29.6540  -18.8600   20.3070 C   0  0  0  0  0  2  0  0  0  0  0  0
  -30.4520  -19.7360   19.3350 C   0  0  0  0  0  2  0  0  0  0  0  0
  -28.9260  -18.4000   18.0620 C   0  0  0  0  0  2  0  0  0  0  0  0
  -29.1420  -17.7160   19.4270 C   0  0  0  0  0  3  0  0  0  0  0  0
  -29.7240  -19.6450   18.0540 N   0  0  2  0  0  4  0  0  0  0  0  0
  -29.0300  -20.3870   18.0430 H   0  0  0  0  0  0  0  0  0  0  0  0
  -30.1560  -16.5510   19.3660 C   0  0  0  0  0  2  0  0  0  0  0  0
  -30.6760  -14.4320   20.4380 C   0  0  0  0  0  0  0  0  0  0  0  0
  -30.3620  -12.2690   19.3770 C   0  0  0  0  0  2  0  0  0  0  0  0
  -29.4520  -12.5250   18.1570 C   0  0  0  0  0  2  0  0  0  0  0  0
  -27.9650  -12.4220   18.5540 C   0  0  0  0  0  2  0  0  0  0  0  0
  -27.6170  -13.2460   19.8220 C   0  0  0  0  0  3  0  0  0  0  0  0
  -28.6560  -13.0150   20.9460 C   0  0  0  0  0  2  0  0  0  0  0  0
  -29.9990  -13.2620   20.3960 N   0  0  0  0  0  0  0  0  0  0  0  0
  -31.8700  -14.5500   20.1550 O   0  0  0  0  0  0  0  0  0  0  0  0
  -29.8740  -15.5010   20.3490 N   0  0  0  0  0  0  0  0  0  0  0  0
  -28.9060  -15.3360   20.5790 H   0  0  0  0  0  0  0  0  0  0  0  0
  -25.2080  -13.8680   20.4910 C   0  0  0  0  0  0  0  0  0  0  0  0
  -24.1360  -13.1020   20.8550 C   0  0  0  0  0  0  0  0  0  0  0  0
  -24.5940  -11.7490   20.8450 C   0  0  0  0  0  0  0  0  0  0  0  0
  -26.2560  -12.9820   20.2830 N   0  0  0  0  0  0  0  0  0  0  0  0
  -25.8880  -11.7030   20.5540 N   0  0  0  0  0  0  0  0  0  0  0  0
  -23.8620  -10.4910   21.0380 C   0  0  0  0  0  0  0  0  0  0  0  0
  -24.2790   -9.5350   21.9890 C   0  0  0  0  0  3  0  0  0  0  0  0
  -23.5510   -8.3400   22.1670 C   0  0  0  0  0  3  0  0  0  0  0  0
  -22.3910   -8.0920   21.3950 C   0  0  0  0  0  0  0  0  0  0  0  0
  -21.9960   -9.0370   20.4310 C   0  0  0  0  0  3  0  0  0  0  0  0
  -22.7240  -10.2250   20.2520 C   0  0  0  0  0  3  0  0  0  0  0  0
  -21.6360   -6.9480   21.4790 O   0  0  0  0  0  0  0  0  0  0  0  0
  -21.5720   -6.2140   22.6360 C   0  0  0  0  0  0  0  0  0  0  0  0
  -21.1190   -6.7760   23.8510 C   0  0  0  0  0  3  0  0  0  0  0  0
  -21.0010   -5.9670   24.9990 C   0  0  0  0  0  3  0  0  0  0  0  0
  -21.3250   -4.5990   24.9350 C   0  0  0  0  0  0  0  0  0  0  0  0
  -21.7700   -4.0380   23.7250 C   0  0  0  0  0  3  0  0  0  0  0  0
  -21.8920   -4.8430   22.5800 C   0  0  0  0  0  0  0  0  0  0  0  0
  -22.3000   -4.2910   21.4120 F   0  0  0  0  0  0  0  0  0  0  0  0
  -21.2060   -3.8220   26.0370 F   0  0  0  0  0  0  0  0  0  0  0  0
  -22.7340  -13.5830   21.1040 C   0  0  0  0  0  0  0  0  0  0  0  0
  -21.9940  -12.8930   21.9640 N   0  0  0  0  0  0  0  0  0  0  0  0
  -22.3040  -14.6060   20.5720 O   0  0  0  0  0  0  0  0  0  0  0  0
  -22.3570  -12.0700   22.4200 H   0  0  0  0  0  0  0  0  0  0  0  0
  -21.0500  -13.1880   22.1680 H   0  0  0  0  0  0  0  0  0  0  0  0
  -25.3760  -15.2360   20.2940 N   0  0  0  0  0  0  0  0  0  0  0  0
  -24.6010  -15.8870   20.3650 H   0  0  0  0  0  0  0  0  0  0  0  0
  -26.2140  -15.6640   19.9260 H   0  0  0  0  0  0  0  0  0  0  0  0
  -28.8720  -24.6300   16.0840 C   0  0  0  0  0  2  0  0  0  0  0  0
  -28.2200  -24.9460   17.4550 C   0  0  0  0  0  2  0  0  0  0  0  0
  -29.2000  -25.0100   18.6450 C   0  0  0  0  0  2  0  0  0  0  0  0
  -28.5610  -25.3940   19.9930 C   0  0  0  0  0  2  0  0  0  0  0  0
  -28.4900  -26.8080   20.1730 O   0  0  0  0  0  0  0  0  0  0  0  0
  -24.5550  -31.8770   23.2450 C   0  0  0  0  0  0  0  0  0  0  0  0
  -27.2710  -27.4550   20.1830 C   0  0  0  0  0  0  0  0  0  0  0  0
  -23.3750  -30.4670   21.5900 C   0  0  0  0  0  3  0  0  0  0  0  0
  -24.8530  -28.9260   20.1940 C   0  0  0  0  0  0  0  0  0  0  0  0
  -25.9030  -30.8340   21.4290 C   0  0  0  0  0  2  0  0  0  0  0  0
  -25.9990  -29.4650   20.7860 C   0  0  0  0  0  0  0  0  0  0  0  0
  -27.2100  -28.7350   20.7760 C   0  0  0  0  0  3  0  0  0  0  0  0
  -26.0990  -26.9190   19.6010 C   0  0  0  0  0  3  0  0  0  0  0  0
  -24.8940  -27.6490   19.6070 C   0  0  0  0  0  3  0  0  0  0  0  0
  -23.6050  -29.7790   20.2190 C   0  0  0  0  0  2  0  0  0  0  0  0
  -24.6280  -31.0750   22.1440 N   0  0  0  0  0  0  0  0  0  0  0  0
  -23.4680  -32.1490   23.7700 O   0  0  0  0  0  0  0  0  0  0  0  0
  -22.7170  -29.4470   22.5440 C   0  0  0  0  0  0  0  0  0  0  0  0
  -21.3940  -29.2660   22.4030 N   0  0  0  0  0  0  0  0  0  0  0  0
  -23.3910  -28.8220   23.3660 O   0  0  0  0  0  0  0  0  0  0  0  0
  -20.9120  -29.8230   21.7100 H   0  0  0  0  0  0  0  0  0  0  0  0
  -18.0130  -28.0830   22.8610 C   0  0  0  0  0  0  0  0  0  0  0  0
  -20.5680  -28.3290   23.1630 C   0  0  0  0  0  3  0  0  0  0  0  0
  -20.6720  -26.9000   22.5830 C   0  0  0  0  0  2  0  0  0  0  0  0
  -19.5790  -26.5850   21.5570 C   0  0  0  0  0  2  0  0  0  0  0  0
  -18.1910  -26.7340   22.1860 C   0  0  0  0  0  2  0  0  0  0  0  0
  -19.1300  -28.8400   23.3050 C   0  0  0  0  0  0  0  0  0  0  0  0
  -18.9100  -30.1050   23.8920 C   0  0  0  0  0  3  0  0  0  0  0  0
  -17.6060  -30.6110   24.0450 C   0  0  0  0  0  3  0  0  0  0  0  0
  -16.5030  -29.8510   23.6170 C   0  0  0  0  0  3  0  0  0  0  0  0
  -16.7080  -28.5890   23.0300 C   0  0  0  0  0  3  0  0  0  0  0  0
  -25.8330  -32.5100   23.8800 C   0  0  0  0  0  3  0  0  0  0  0  0
  -25.5200  -33.9120   24.1910 N   0  0  0  0  0  0  0  0  0  0  0  0
  -25.8650  -34.9580   23.4260 C   0  0  0  0  0  0  0  0  0  0  0  0
  -26.5510  -34.8440   22.4050 O   0  0  0  0  0  0  0  0  0  0  0  0
  -24.9090  -34.0750   24.9760 H   0  0  0  0  0  0  0  0  0  0  0  0
  -24.1410  -36.7430   23.0280 C   0  0  0  0  0  1  0  0  0  0  0  0
  -25.3710  -36.3500   23.8620 C   0  0  0  0  0  3  0  0  0  0  0  0
  -27.4920  -37.2420   24.7180 C   0  0  0  0  0  1  0  0  0  0  0  0
  -26.4050  -37.4010   23.7550 N   0  0  0  0  0  0  0  0  0  0  0  0
  -25.9970  -38.3230   23.8900 H   0  0  0  0  0  0  0  0  0  0  0  0
  -26.3310  -31.7490   25.1710 C   0  0  1  0  0  0  0  0  0  0  0  0
  -25.2200  -31.5220   26.2230 C   0  0  0  0  0  1  0  0  0  0  0  0
  -26.9180  -30.3680   24.7980 C   0  0  0  0  0  1  0  0  0  0  0  0
  -27.4690  -32.5490   25.8450 C   0  0  0  0  0  1  0  0  0  0  0  0
  1  5  1  0
  1  3  2  0
  2  1  1  0
  4  2  1  0
  5  6  1  0
  6 11  1  0
  8  7  1  0
  9 10  1  0
 10 13  1  0
 10  7  1  0
 11  9  1  0
 11  8  1  0
 11 12  1  1
 13 22  1  0
 15 20  1  0
 16 17  1  0
 16 15  1  0
 18 17  1  0
 18 27  1  0
 18 19  1  0
 20 14  1  0
 20 19  1  0
 21 14  2  0
 22 14  1  0
 22 23  1  0
 24 25  2  0
 25 44  1  0
 26 25  1  0
 26 29  1  0
 27 24  1  0
 27 28  1  0
 28 26  2  0
 29 30  1  0
 30 31  2  0
 32 35  1  0
 32 31  1  0
 33 32  2  0
 34 33  1  0
 34 29  2  0
 35 36  1  0
 36 37  1  0
 37 38  2  0
 39 38  1  0
 39 43  1  0
 40 39  2  0
 41 36  2  0
 41 40  1  0
 42 41  1  0
 44 45  1  0
 45 48  1  0
 45 47  1  0
 46 44  2  0
 49 50  1  0
 49 24  1  0
 51 49  1  0
 52  2  1  0
 52 53  1  0
 53 54  1  0
 54 55  1  0
 55 56  1  0
 56 58  1  0
 57 68  2  0
 58 63  1  0
 59 67  1  0
 59 69  1  0
 60 66  1  0
 60 62  1  0
 61 67  1  0
 62 61  1  0
 63 62  2  0
 64 65  1  0
 64 58  2  0
 65 60  2  0
 66 59  1  0
 67 57  1  0
 69 71  2  0
 70 69  1  0
 72 70  1  0
 73 82  2  0
 73 78  1  0
 74 70  1  0
 74 78  1  0
 75 74  1  0
 76 77  1  0
 76 75  1  0
 77 73  1  0
 78 79  2  0
 79 80  1  0
 81 80  2  0
 82 81  1  0
 83 57  1  0
 83 84  1  0
 83 93  1  0
 84 87  1  0
 85 89  1  0
 85 84  1  0
 86 85  2  0
 89 88  1  0
 91 89  1  0
 91 92  1  0
 91 90  1  0
 93 96  1  1
 93 94  1  0
 95 93  1  0
M  ISO  4  14 100  22 100  55 101  56 101
M  END
>  <TORSDO>  (5) 
F 24

>  <SCORE>  (5) 
-12.538

>  <name>  (5) 
4

>  <ligand_id>  (5) 
4

>  <original_smiles>  (5) 
[H]c1c([H])c([H])c2c(c1[H])C([H])([H])C([H])([H])C([H])([H])C2([H])N([H])C(=O)C1([H])N(C(=O)C([H])(N([H])C(=O)C([H])(N([H])C([H])([H])[H])C([H])([H])[H])C(C([H])([H])[H])(C([H])([H])[H])C([H])([H])[H])C([H])([H])c2c([H])c(OC([H])([H])C([H])([H])C([H])([H])C([H])([H])N([H])C(=O)C([H])([H])C([H])([H])[N+]3([H])C([H])([H])C([H])([H])C([H])(C([H])([H])N([H])C(=O)N4C([H])([H])C([H])([H])C([H])([H])C([H])(n5nc(-c6c([H])c([H])c(Oc7c([H])c([H])c(F)c([H])c7F)c([H])c6[H])c(C(=O)N([H])[H])c5N([H])[H])C4([H])[H])C3([H])[H])c([H])c([H])c2C1([H])[H]

>  <smiles>  (5) 
[H]c1c([H])c([H])c2c(c1[H])C([H])([H])C([H])([H])C([H])([H])C2([H])N([H])C(=O)C1([H])N(C(=O)C([H])(N([H])C(=O)C([H])(N([H])C([H])([H])[H])C([H])([H])[H])C(C([H])([H])[H])(C([H])([H])[H])C([H])([H])[H])C([H])([H])c2c([H])c(OC([H])([H])C([H])([H])C([H])([H])C([H])([H])N([H])C(=O)C([H])([H])C([H])([H])[N+]3([H])C([H])([H])C([H])([H])C([H])(C([H])([H])N([H])C(=O)N4C([H])([H])C([H])([H])C([H])([H])C([H])(n5nc(-c6c([H])c([H])c(Oc7c([H])c([H])c(F)c([H])c7F)c([H])c6[H])c(C(=O)N([H])[H])c5N([H])[H])C4([H])[H])C3([H])[H])c([H])c([H])c2C1([H])[H]

$$$$
5:0:0
     RDKit          3D

 91 99  0  0  1  0  0  0  0  0999 V2000
  -29.5360  -19.2240   20.2750 C   0  0  0  0  0  0  0  0  0  0  0  0
  -29.5290  -20.3900   20.9610 N   0  0  0  0  0  0  0  0  0  0  0  0
  -29.6890  -19.2190   19.0510 O   0  0  0  0  0  0  0  0  0  0  0  0
  -29.3980  -20.3170   21.9610 H   0  0  0  0  0  0  0  0  0  0  0  0
  -30.7530  -14.4750   19.9760 C   0  0  0  0  0  0  0  0  0  0  0  0
  -30.1720  -12.3990   18.7530 C   0  0  0  0  0  2  0  0  0  0  0  0
  -29.1300  -12.6170   17.6370 C   0  0  0  0  0  2  0  0  0  0  0  0
  -27.7100  -12.4750   18.1950 C   0  0  0  0  0  2  0  0  0  0  0  0
  -27.5000  -13.2870   19.4960 C   0  0  0  0  0  3  0  0  0  0  0  0
  -28.6570  -13.1150   20.5150 C   0  0  0  0  0  2  0  0  0  0  0  0
  -29.9350  -13.3840   19.8330 N   0  0  0  0  0  0  0  0  0  0  0  0
  -31.8190  -14.5400   19.3530 O   0  0  0  0  0  0  0  0  0  0  0  0
  -31.2940  -17.3790   22.3960 C   0  0  0  0  0  2  0  0  0  0  0  0
  -29.8250  -17.7910   22.4500 C   0  0  0  0  0  2  0  0  0  0  0  0
  -31.5360  -16.0530   21.6400 C   0  0  0  0  0  2  0  0  0  0  0  0
  -29.4470  -16.5240   20.2600 C   0  0  0  0  0  2  0  0  0  0  0  0
  -29.2290  -17.8850   21.0370 C   0  0  0  0  0  3  0  0  0  0  0  0
  -30.4190  -15.5190   20.8020 N   0  0  0  0  0  0  0  0  0  0  0  0
  -25.1820  -13.8790   20.4260 C   0  0  0  0  0  0  0  0  0  0  0  0
  -24.1430  -13.0970   20.8600 C   0  0  0  0  0  0  0  0  0  0  0  0
  -24.5940  -11.7470   20.7650 C   0  0  0  0  0  0  0  0  0  0  0  0
  -26.1970  -12.9980   20.0930 N   0  0  0  0  0  0  0  0  0  0  0  0
  -25.8580  -11.7140   20.3630 N   0  0  0  0  0  0  0  0  0  0  0  0
  -23.8760  -10.4820   20.9770 C   0  0  0  0  0  0  0  0  0  0  0  0
  -24.3500   -9.5130   21.8880 C   0  0  0  0  0  3  0  0  0  0  0  0
  -23.6310   -8.3160   22.0940 C   0  0  0  0  0  3  0  0  0  0  0  0
  -22.4280   -8.0800   21.3870 C   0  0  0  0  0  0  0  0  0  0  0  0
  -21.9750   -9.0370   20.4600 C   0  0  0  0  0  3  0  0  0  0  0  0
  -22.6930  -10.2270   20.2540 C   0  0  0  0  0  3  0  0  0  0  0  0
  -21.6780   -6.9340   21.5010 O   0  0  0  0  0  0  0  0  0  0  0  0
  -21.6440   -6.2060   22.6640 C   0  0  0  0  0  0  0  0  0  0  0  0
  -21.2390   -6.7780   23.8910 C   0  0  0  0  0  3  0  0  0  0  0  0
  -21.1660   -5.9790   25.0480 C   0  0  0  0  0  3  0  0  0  0  0  0
  -21.4790   -4.6090   24.9810 C   0  0  0  0  0  0  0  0  0  0  0  0
  -21.8760   -4.0360   23.7600 C   0  0  0  0  0  3  0  0  0  0  0  0
  -21.9570   -4.8310   22.6030 C   0  0  0  0  0  0  0  0  0  0  0  0
  -22.3220   -4.2720   21.4250 F   0  0  0  0  0  0  0  0  0  0  0  0
  -21.3960   -3.8400   26.0910 F   0  0  0  0  0  0  0  0  0  0  0  0
  -22.7740  -13.5720   21.2460 C   0  0  0  0  0  0  0  0  0  0  0  0
  -22.1130  -12.8500   22.1490 N   0  0  0  0  0  0  0  0  0  0  0  0
  -22.3020  -14.6120   20.7900 O   0  0  0  0  0  0  0  0  0  0  0  0
  -22.5090  -12.0100   22.5440 H   0  0  0  0  0  0  0  0  0  0  0  0
  -21.1960  -13.1480   22.4510 H   0  0  0  0  0  0  0  0  0  0  0  0
  -25.3450  -15.2510   20.2650 N   0  0  0  0  0  0  0  0  0  0  0  0
  -24.5880  -15.9070   20.4170 H   0  0  0  0  0  0  0  0  0  0  0  0
  -26.1760  -15.6870   19.8860 H   0  0  0  0  0  0  0  0  0  0  0  0
  -29.6490  -21.7530   20.3830 C   0  0  0  0  0  2  0  0  0  0  0  0
  -29.3520  -22.9030   21.3870 C   0  0  0  0  0  2  0  0  0  0  0  0
  -29.5230  -24.3610   20.8470 C   0  0  0  0  0  2  0  0  0  0  0  0
  -28.2130  -25.1800   20.6680 C   0  0  0  0  0  2  0  0  0  0  0  0
  -28.4230  -26.5680   20.3000 O   0  0  0  0  0  0  0  0  0  0  0  0
  -24.6040  -31.8730   23.2290 C   0  0  0  0  0  0  0  0  0  0  0  0
  -27.2790  -27.3480   20.2460 C   0  0  0  0  0  0  0  0  0  0  0  0
  -23.4260  -30.4510   21.5920 C   0  0  0  0  0  3  0  0  0  0  0  0
  -24.8990  -28.8900   20.2130 C   0  0  0  0  0  0  0  0  0  0  0  0
  -25.9610  -30.7870   21.4390 C   0  0  0  0  0  2  0  0  0  0  0  0
  -26.0550  -29.4120   20.8010 C   0  0  0  0  0  0  0  0  0  0  0  0
  -27.2540  -28.6530   20.8060 C   0  0  0  0  0  3  0  0  0  0  0  0
  -26.1000  -26.8520   19.6450 C   0  0  0  0  0  3  0  0  0  0  0  0
  -24.9150  -27.6100   19.6370 C   0  0  0  0  0  3  0  0  0  0  0  0
  -23.6630  -29.7590   20.2270 C   0  0  0  0  0  2  0  0  0  0  0  0
  -24.6820  -31.0490   22.1440 N   0  0  0  0  0  0  0  0  0  0  0  0
  -23.5130  -32.1590   23.7440 O   0  0  0  0  0  0  0  0  0  0  0  0
  -22.7490  -29.4440   22.5530 C   0  0  0  0  0  0  0  0  0  0  0  0
  -21.4250  -29.2650   22.4160 N   0  0  0  0  0  0  0  0  0  0  0  0
  -23.4170  -28.8240   23.3830 O   0  0  0  0  0  0  0  0  0  0  0  0
  -20.9420  -29.8280   21.7270 H   0  0  0  0  0  0  0  0  0  0  0  0
  -18.0470  -28.0960   22.8800 C   0  0  0  0  0  0  0  0  0  0  0  0
  -20.5990  -28.3400   23.1940 C   0  0  0  0  0  3  0  0  0  0  0  0
  -20.6990  -26.9000   22.6330 C   0  0  0  0  0  2  0  0  0  0  0  0
  -19.6110  -26.5860   21.6040 C   0  0  0  0  0  2  0  0  0  0  0  0
  -18.2230  -26.7380   22.2260 C   0  0  0  0  0  2  0  0  0  0  0  0
  -19.1620  -28.8570   23.3190 C   0  0  0  0  0  0  0  0  0  0  0  0
  -18.9440  -30.1340   23.8840 C   0  0  0  0  0  3  0  0  0  0  0  0
  -17.6380  -30.6440   24.0220 C   0  0  0  0  0  3  0  0  0  0  0  0
  -16.5350  -29.8750   23.6050 C   0  0  0  0  0  3  0  0  0  0  0  0
  -16.7400  -28.6060   23.0410 C   0  0  0  0  0  3  0  0  0  0  0  0
  -25.8750  -32.5160   23.8630 C   0  0  0  0  0  3  0  0  0  0  0  0
  -26.3870  -31.7570   25.1490 C   0  0  1  0  0  0  0  0  0  0  0  0
  -25.2950  -31.5080   26.2160 C   0  0  0  0  0  1  0  0  0  0  0  0
  -26.9780  -30.3840   24.7570 C   0  0  0  0  0  1  0  0  0  0  0  0
  -27.5230  -32.5640   25.8160 C   0  0  0  0  0  1  0  0  0  0  0  0
  -25.5590  -33.9170   24.1770 N   0  0  0  0  0  0  0  0  0  0  0  0
  -25.9060  -34.9630   23.4160 C   0  0  0  0  0  0  0  0  0  0  0  0
  -26.5880  -34.8530   22.3970 O   0  0  0  0  0  0  0  0  0  0  0  0
  -24.9470  -34.0780   24.9620 H   0  0  0  0  0  0  0  0  0  0  0  0
  -24.1840  -36.7540   23.0220 C   0  0  0  0  0  1  0  0  0  0  0  0
  -25.4090  -36.3530   23.8570 C   0  0  0  0  0  3  0  0  0  0  0  0
  -27.5270  -37.2450   24.7210 C   0  0  0  0  0  1  0  0  0  0  0  0
  -26.4410  -37.4050   23.7590 N   0  0  0  0  0  0  0  0  0  0  0  0
  -26.0340  -38.3250   23.8950 H   0  0  0  0  0  0  0  0  0  0  0  0
  1  2  1  0
  2  4  1  0
  3  1  2  0
  5 18  1  0
  6 11  1  0
  7  8  1  0
  7  6  1  0
  9  8  1  0
  9 22  1  0
  9 10  1  0
 11  5  1  0
 11 10  1  0
 12  5  2  0
 13 14  1  0
 15 13  1  0
 16 18  1  0
 16 17  1  0
 17  1  1  0
 17 14  1  0
 18 15  1  0
 19 20  2  0
 20 39  1  0
 21 20  1  0
 21 24  1  0
 22 23  1  0
 22 19  1  0
 23 21  2  0
 24 25  1  0
 25 26  2  0
 27 30  1  0
 27 26  1  0
 28 27  2  0
 29 28  1  0
 29 24  2  0
 30 31  1  0
 31 32  1  0
 32 33  2  0
 34 33  1  0
 34 38  1  0
 35 34  2  0
 36 31  2  0
 36 35  1  0
 37 36  1  0
 39 40  1  0
 40 43  1  0
 40 42  1  0
 41 39  2  0
 44 45  1  0
 44 19  1  0
 46 44  1  0
 47  2  1  0
 47 48  1  0
 49 48  1  0
 50 49  1  0
 51 50  1  0
 52 63  2  0
 53 51  1  0
 53 58  1  0
 54 62  1  0
 54 64  1  0
 55 61  1  0
 55 57  1  0
 56 62  1  0
 57 58  2  0
 57 56  1  0
 59 53  2  0
 60 59  1  0
 60 55  2  0
 61 54  1  0
 62 52  1  0
 64 66  2  0
 65 64  1  0
 67 65  1  0
 68 77  2  0
 68 73  1  0
 69 65  1  0
 69 73  1  0
 70 69  1  0
 71 72  1  0
 71 70  1  0
 72 68  1  0
 73 74  2  0
 74 75  1  0
 76 75  2  0
 77 76  1  0
 78 52  1  0
 78 83  1  0
 78 79  1  0
 79 82  1  1
 79 80  1  0
 81 79  1  0
 83 86  1  0
 84 88  1  0
 84 83  1  0
 85 84  2  0
 88 87  1  0
 90 88  1  0
 90 91  1  0
 90 89  1  0
M  ISO  4   5 100  18 100  50 101  51 101
M  END
>  <TORSDO>  (6) 
F 20

>  <SCORE>  (6) 
-12.476

>  <name>  (6) 
5

>  <ligand_id>  (6) 
5

>  <original_smiles>  (6) 
[H]c1c([H])c([H])c2c(c1[H])C([H])([H])C([H])([H])C([H])([H])C2([H])N([H])C(=O)C1([H])N(C(=O)C([H])(N([H])C(=O)C([H])(N([H])C([H])([H])[H])C([H])([H])[H])C(C([H])([H])[H])(C([H])([H])[H])C([H])([H])[H])C([H])([H])c2c([H])c(OC([H])([H])C([H])([H])C([H])([H])C([H])([H])N([H])C(=O)C3([H])C([H])([H])N(C(=O)N4C([H])([H])C([H])([H])C([H])([H])C([H])(n5nc(-c6c([H])c([H])c(Oc7c([H])c([H])c(F)c([H])c7F)c([H])c6[H])c(C(=O)N([H])[H])c5N([H])[H])C4([H])[H])C([H])([H])C([H])([H])C3([H])[H])c([H])c([H])c2C1([H])[H]

>  <smiles>  (6) 
[H]c1c([H])c([H])c2c(c1[H])C([H])([H])C([H])([H])C([H])([H])C2([H])N([H])C(=O)C1([H])N(C(=O)C([H])(N([H])C(=O)C([H])(N([H])C([H])([H])[H])C([H])([H])[H])C(C([H])([H])[H])(C([H])([H])[H])C([H])([H])[H])C([H])([H])c2c([H])c(OC([H])([H])C([H])([H])C([H])([H])C([H])([H])N([H])C(=O)C3([H])C([H])([H])N(C(=O)N4C([H])([H])C([H])([H])C([H])([H])C([H])(n5nc(-c6c([H])c([H])c(Oc7c([H])c([H])c(F)c([H])c7F)c([H])c6[H])c(C(=O)N([H])[H])c5N([H])[H])C4([H])[H])C([H])([H])C([H])([H])C3([H])[H])c([H])c([H])c2C1([H])[H]

$$$$
6:0:0
     RDKit          3D

 96104  0  0  1  0  0  0  0  0999 V2000
  -32.6790  -21.4910   21.6410 C   0  0  0  0  0  2  0  0  0  0  0  0
  -32.4690  -20.0130   22.0570 C   0  0  0  0  0  2  0  0  0  0  0  0
  -29.9730  -17.4990   22.8470 C   0  0  0  0  0  2  0  0  0  0  0  0
  -29.6690  -19.1430   20.9250 C   0  0  0  0  0  2  0  0  0  0  0  0
  -31.1570  -18.3520   23.3700 C   0  0  0  0  0  2  0  0  0  0  0  0
  -29.9540  -20.1090   22.0920 C   0  0  0  0  0  2  0  0  0  0  0  0
  -29.7550  -17.6510   21.3260 C   0  0  0  0  0  3  0  0  0  0  0  0
  -31.2060  -19.7380   22.8080 N   0  0  2  0  0  4  0  0  0  0  0  0
  -31.2450  -20.3380   23.6210 H   0  0  0  0  0  0  0  0  0  0  0  0
  -30.8210  -16.8880   20.5150 C   0  0  0  0  0  2  0  0  0  0  0  0
  -31.2720  -14.5180   19.9390 C   0  0  0  0  0  0  0  0  0  0  0  0
  -30.9150  -12.3520   18.8250 C   0  0  0  0  0  2  0  0  0  0  0  0
  -29.9150  -12.5500   17.6670 C   0  0  0  0  0  2  0  0  0  0  0  0
  -28.4600  -12.4400   18.1640 C   0  0  0  0  0  2  0  0  0  0  0  0
  -28.1940  -13.3130   19.4170 C   0  0  0  0  0  3  0  0  0  0  0  0
  -29.2880  -13.0690   20.4820 C   0  0  0  0  0  2  0  0  0  0  0  0
  -30.6010  -13.3420   19.8640 N   0  0  0  0  0  0  0  0  0  0  0  0
  -32.3110  -14.7640   19.3180 O   0  0  0  0  0  0  0  0  0  0  0  0
  -30.6400  -15.4520   20.6560 N   0  0  0  0  0  0  0  0  0  0  0  0
  -29.8200  -15.1410   21.1550 H   0  0  0  0  0  0  0  0  0  0  0  0
  -25.8530  -13.9910   20.2540 C   0  0  0  0  0  0  0  0  0  0  0  0
  -24.7800  -13.2470   20.6690 C   0  0  0  0  0  0  0  0  0  0  0  0
  -25.1930  -11.8830   20.5900 C   0  0  0  0  0  0  0  0  0  0  0  0
  -26.8550  -13.0800   19.9560 N   0  0  0  0  0  0  0  0  0  0  0  0
  -26.4630  -11.8050   20.2100 N   0  0  0  0  0  0  0  0  0  0  0  0
  -24.4380  -10.6410   20.7980 C   0  0  0  0  0  0  0  0  0  0  0  0
  -24.8250   -9.6980   21.7760 C   0  0  0  0  0  3  0  0  0  0  0  0
  -24.0730   -8.5200   21.9690 C   0  0  0  0  0  3  0  0  0  0  0  0
  -22.9210   -8.2760   21.1850 C   0  0  0  0  0  0  0  0  0  0  0  0
  -22.5550   -9.2050   20.1980 C   0  0  0  0  0  3  0  0  0  0  0  0
  -23.3070  -10.3760   20.0020 C   0  0  0  0  0  3  0  0  0  0  0  0
  -22.1440   -7.1470   21.2860 O   0  0  0  0  0  0  0  0  0  0  0  0
  -21.9490   -6.5130   22.4870 C   0  0  0  0  0  0  0  0  0  0  0  0
  -21.3890   -7.1780   23.5990 C   0  0  0  0  0  3  0  0  0  0  0  0
  -21.1420   -6.4700   24.7920 C   0  0  0  0  0  3  0  0  0  0  0  0
  -21.4430   -5.0970   24.8710 C   0  0  0  0  0  0  0  0  0  0  0  0
  -21.9950   -4.4320   23.7620 C   0  0  0  0  0  3  0  0  0  0  0  0
  -22.2450   -5.1370   22.5730 C   0  0  0  0  0  0  0  0  0  0  0  0
  -22.7580   -4.4870   21.5010 F   0  0  0  0  0  0  0  0  0  0  0  0
  -21.1990   -4.4130   26.0140 F   0  0  0  0  0  0  0  0  0  0  0  0
  -23.4160  -13.7640   21.0260 C   0  0  0  0  0  0  0  0  0  0  0  0
  -22.7210  -13.0840   21.9320 N   0  0  0  0  0  0  0  0  0  0  0  0
  -22.9780  -14.8040   20.5370 O   0  0  0  0  0  0  0  0  0  0  0  0
  -23.0860  -12.2410   22.3490 H   0  0  0  0  0  0  0  0  0  0  0  0
  -21.8080  -13.4130   22.2140 H   0  0  0  0  0  0  0  0  0  0  0  0
  -26.0530  -15.3580   20.0890 N   0  0  0  0  0  0  0  0  0  0  0  0
  -25.3080  -16.0310   20.2360 H   0  0  0  0  0  0  0  0  0  0  0  0
  -26.8990  -15.7760   19.7220 H   0  0  0  0  0  0  0  0  0  0  0  0
  -32.1110  -21.8450   20.2460 C   0  0  0  0  0  2  0  0  0  0  0  0
  -31.9920  -23.3060   20.0430 N   0  0  0  0  0  4  0  0  0  0  0  0
  -31.9540  -23.7460   20.9470 H   0  0  0  0  0  0  0  0  0  0  0  0
  -32.8200  -23.6440   19.5760 H   0  0  0  0  0  0  0  0  0  0  0  0
  -30.7840  -23.7280   19.2940 C   0  0  0  0  0  2  0  0  0  0  0  0
  -30.4880  -25.2180   19.5120 C   0  0  0  0  0  2  0  0  0  0  0  0
  -29.0570  -25.6280   19.1410 C   0  0  0  0  0  2  0  0  0  0  0  0
  -28.8920  -26.9350   19.6680 O   0  0  0  0  0  0  0  0  0  0  0  0
  -24.7130  -31.5300   23.0700 C   0  0  0  0  0  0  0  0  0  0  0  0
  -27.6390  -27.5000   19.7080 C   0  0  0  0  0  0  0  0  0  0  0  0
  -23.5970  -30.1680   21.3330 C   0  0  0  0  0  3  0  0  0  0  0  0
  -25.1410  -28.8160   19.8210 C   0  0  0  0  0  0  0  0  0  0  0  0
  -26.0920  -30.6970   21.1730 C   0  0  0  0  0  2  0  0  0  0  0  0
  -26.2600  -29.3810   20.4450 C   0  0  0  0  0  0  0  0  0  0  0  0
  -27.5070  -28.7270   20.3890 C   0  0  0  0  0  3  0  0  0  0  0  0
  -26.5000  -26.9320   19.0900 C   0  0  0  0  0  3  0  0  0  0  0  0
  -25.2540  -27.5870   19.1460 C   0  0  0  0  0  3  0  0  0  0  0  0
  -23.8480  -29.5910   19.9150 C   0  0  0  0  0  2  0  0  0  0  0  0
  -24.8180  -30.8100   21.9180 N   0  0  0  0  0  0  0  0  0  0  0  0
  -23.6170  -31.7020   23.6210 O   0  0  0  0  0  0  0  0  0  0  0  0
  -23.0090  -29.0480   22.2200 C   0  0  0  0  0  0  0  0  0  0  0  0
  -21.6980  -28.7960   22.0690 N   0  0  0  0  0  0  0  0  0  0  0  0
  -23.7260  -28.4130   22.9960 O   0  0  0  0  0  0  0  0  0  0  0  0
  -21.1790  -29.3650   21.4140 H   0  0  0  0  0  0  0  0  0  0  0  0
  -18.3940  -27.3970   22.4800 C   0  0  0  0  0  0  0  0  0  0  0  0
  -20.9360  -27.7640   22.7710 C   0  0  0  0  0  3  0  0  0  0  0  0
  -21.1110  -26.3870   22.0910 C   0  0  0  0  0  2  0  0  0  0  0  0
  -20.0230  -26.0830   21.0560 C   0  0  0  0  0  2  0  0  0  0  0  0
  -18.6380  -26.1110   21.7090 C   0  0  0  0  0  2  0  0  0  0  0  0
  -19.4740  -28.1830   22.9640 C   0  0  0  0  0  0  0  0  0  0  0  0
  -19.1940  -29.3880   23.6430 C   0  0  0  0  0  3  0  0  0  0  0  0
  -17.8660  -29.8090   23.8440 C   0  0  0  0  0  3  0  0  0  0  0  0
  -16.8000  -29.0210   23.3770 C   0  0  0  0  0  3  0  0  0  0  0  0
  -17.0660  -27.8160   22.7000 C   0  0  0  0  0  3  0  0  0  0  0  0
  -25.9600  -32.1920   23.7380 C   0  0  0  0  0  3  0  0  0  0  0  0
  -25.5880  -33.5660   24.0990 N   0  0  0  0  0  0  0  0  0  0  0  0
  -25.9040  -34.6530   23.3830 C   0  0  0  0  0  0  0  0  0  0  0  0
  -26.6110  -34.6070   22.3720 O   0  0  0  0  0  0  0  0  0  0  0  0
  -24.9610  -33.6740   24.8830 H   0  0  0  0  0  0  0  0  0  0  0  0
  -24.1290  -36.3950   23.0090 C   0  0  0  0  0  1  0  0  0  0  0  0
  -25.3480  -36.0060   23.8630 C   0  0  0  0  0  3  0  0  0  0  0  0
  -27.4050  -36.9380   24.8250 C   0  0  0  0  0  1  0  0  0  0  0  0
  -26.3460  -37.0970   23.8310 N   0  0  0  0  0  0  0  0  0  0  0  0
  -25.9000  -37.9980   23.9830 H   0  0  0  0  0  0  0  0  0  0  0  0
  -26.4830  -31.4030   25.0000 C   0  0  1  0  0  0  0  0  0  0  0  0
  -25.3780  -31.0850   26.0350 C   0  0  0  0  0  1  0  0  0  0  0  0
  -27.1340  -30.0650   24.5780 C   0  0  0  0  0  1  0  0  0  0  0  0
  -27.5850  -32.2240   25.7130 C   0  0  0  0  0  1  0  0  0  0  0  0
  1  2  1  0
  2  8  1  0
  3  5  1  0
  4  7  1  0
  4  6  1  0
  6  8  1  0
  7 10  1  0
  7  3  1  0
  8  5  1  0
  8  9  1  1
 10 19  1  0
 11 19  1  0
 12 17  1  0
 13 14  1  0
 13 12  1  0
 15 14  1  0
 15 24  1  0
 15 16  1  0
 17 11  1  0
 17 16  1  0
 18 11  2  0
 19 20  1  0
 21 22  2  0
 22 41  1  0
 23 22  1  0
 23 26  1  0
 24 25  1  0
 24 21  1  0
 25 23  2  0
 26 27  1  0
 27 28  2  0
 29 32  1  0
 29 28  1  0
 30 29  2  0
 31 30  1  0
 31 26  2  0
 32 33  1  0
 33 38  2  0
 33 34  1  0
 34 35  2  0
 35 36  1  0
 36 40  1  0
 37 36  2  0
 38 37  1  0
 39 38  1  0
 41 42  1  0
 42 45  1  0
 42 44  1  0
 43 41  2  0
 46 47  1  0
 46 21  1  0
 48 46  1  0
 49  1  1  0
 50 49  1  0
 50 51  1  0
 52 50  1  0
 53 54  1  0
 53 50  1  0
 55 54  1  0
 55 56  1  0
 56 58  1  0
 57 68  2  0
 58 63  1  0
 59 67  1  0
 59 69  1  0
 60 66  1  0
 60 62  1  0
 61 67  1  0
 62 61  1  0
 63 62  2  0
 64 65  1  0
 64 58  2  0
 65 60  2  0
 66 59  1  0
 67 57  1  0
 69 71  2  0
 70 69  1  0
 72 70  1  0
 73 82  2  0
 73 78  1  0
 74 70  1  0
 74 78  1  0
 75 74  1  0
 76 77  1  0
 76 75  1  0
 77 73  1  0
 78 79  2  0
 79 80  1  0
 81 80  2  0
 82 81  1  0
 83 57  1  0
 83 84  1  0
 83 93  1  0
 84 87  1  0
 85 89  1  0
 85 84  1  0
 86 85  2  0
 89 88  1  0
 91 89  1  0
 91 92  1  0
 91 90  1  0
 93 96  1  1
 93 94  1  0
 95 93  1  0
M  ISO  4  11 100  19 100  55 101  56 101
M  END
>  <TORSDO>  (7) 
F 24

>  <SCORE>  (7) 
-9.690

>  <name>  (7) 
6

>  <ligand_id>  (7) 
6

>  <original_smiles>  (7) 
[H]c1c([H])c([H])c2c(c1[H])C([H])([H])C([H])([H])C([H])([H])C2([H])N([H])C(=O)C1([H])N(C(=O)C([H])(N([H])C(=O)C([H])(N([H])C([H])([H])[H])C([H])([H])[H])C(C([H])([H])[H])(C([H])([H])[H])C([H])([H])[H])C([H])([H])c2c([H])c(OC([H])([H])C([H])([H])C([H])([H])[N+]([H])([H])C([H])([H])C([H])([H])C([H])([H])[N+]3([H])C([H])([H])C([H])([H])C([H])(C([H])([H])N([H])C(=O)N4C([H])([H])C([H])([H])C([H])([H])C([H])(n5nc(-c6c([H])c([H])c(Oc7c([H])c([H])c(F)c([H])c7F)c([H])c6[H])c(C(=O)N([H])[H])c5N([H])[H])C4([H])[H])C([H])([H])C3([H])[H])c([H])c([H])c2C1([H])[H]

>  <smiles>  (7) 
[H]c1c([H])c([H])c2c(c1[H])C([H])([H])C([H])([H])C([H])([H])C2([H])N([H])C(=O)C1([H])N(C(=O)C([H])(N([H])C(=O)C([H])(N([H])C([H])([H])[H])C([H])([H])[H])C(C([H])([H])[H])(C([H])([H])[H])C([H])([H])[H])C([H])([H])c2c([H])c(OC([H])([H])C([H])([H])C([H])([H])[N+]([H])([H])C([H])([H])C([H])([H])C([H])([H])[N+]3([H])C([H])([H])C([H])([H])C([H])(C([H])([H])N([H])C(=O)N4C([H])([H])C([H])([H])C([H])([H])C([H])(n5nc(-c6c([H])c([H])c(Oc7c([H])c([H])c(F)c([H])c7F)c([H])c6[H])c(C(=O)N([H])[H])c5N([H])[H])C4([H])[H])C([H])([H])C3([H])[H])c([H])c([H])c2C1([H])[H]

$$$$
7:0:0
     RDKit          3D

 89 97  0  0  1  0  0  0  0  0999 V2000
  -29.1340  -21.0950   20.6620 C   0  0  0  0  0  3  0  0  0  0  0  0
  -29.9420  -19.9070   20.1380 N   0  0  0  0  0  4  0  0  0  0  0  0
  -29.9180  -19.9230   19.1320 H   0  0  0  0  0  0  0  0  0  0  0  0
  -30.9000  -20.0720   20.4010 H   0  0  0  0  0  0  0  0  0  0  0  0
  -30.6420  -14.7580   20.3390 C   0  0  0  0  0  0  0  0  0  0  0  0
  -30.3690  -12.4830   19.3500 C   0  0  0  0  0  2  0  0  0  0  0  0
  -29.4210  -12.5200   18.1330 C   0  0  0  0  0  2  0  0  0  0  0  0
  -27.9620  -12.3070   18.5810 C   0  0  0  0  0  2  0  0  0  0  0  0
  -27.5760  -13.2100   19.7780 C   0  0  0  0  0  3  0  0  0  0  0  0
  -28.6570  -13.2200   20.8880 C   0  0  0  0  0  2  0  0  0  0  0  0
  -29.9430  -13.5680   20.2630 N   0  0  0  0  0  0  0  0  0  0  0  0
  -31.8580  -14.7510   20.1330 O   0  0  0  0  0  0  0  0  0  0  0  0
  -28.4570  -17.8420   19.8000 C   0  0  0  0  0  2  0  0  0  0  0  0
  -28.6400  -16.3150   19.9720 C   0  0  0  0  0  2  0  0  0  0  0  0
  -30.6700  -17.3410   20.5020 C   0  0  0  0  0  2  0  0  0  0  0  0
  -29.5830  -18.4910   20.5920 C   0  0  0  0  0  3  0  0  0  0  0  0
  -29.9950  -15.9950   20.4400 N   0  0  0  0  0  0  0  0  0  0  0  0
  -25.2040  -13.8360   20.5150 C   0  0  0  0  0  0  0  0  0  0  0  0
  -24.1370  -13.0710   20.8930 C   0  0  0  0  0  0  0  0  0  0  0  0
  -24.5980  -11.7200   20.8730 C   0  0  0  0  0  0  0  0  0  0  0  0
  -26.2420  -12.9470   20.2890 N   0  0  0  0  0  0  0  0  0  0  0  0
  -25.8870  -11.6710   20.5690 N   0  0  0  0  0  0  0  0  0  0  0  0
  -23.8740  -10.4630   21.0640 C   0  0  0  0  0  0  0  0  0  0  0  0
  -24.3200   -9.4920   21.9870 C   0  0  0  0  0  3  0  0  0  0  0  0
  -23.6000   -8.2930   22.1670 C   0  0  0  0  0  3  0  0  0  0  0  0
  -22.4180   -8.0600   21.4240 C   0  0  0  0  0  0  0  0  0  0  0  0
  -21.9920   -9.0180   20.4880 C   0  0  0  0  0  3  0  0  0  0  0  0
  -22.7140  -10.2090   20.3070 C   0  0  0  0  0  3  0  0  0  0  0  0
  -21.6650   -6.9150   21.5170 O   0  0  0  0  0  0  0  0  0  0  0  0
  -21.6430   -6.1600   22.6610 C   0  0  0  0  0  0  0  0  0  0  0  0
  -21.2570   -6.7050   23.9060 C   0  0  0  0  0  3  0  0  0  0  0  0
  -21.1830   -5.8750   25.0430 C   0  0  0  0  0  3  0  0  0  0  0  0
  -21.4820   -4.5030   24.9350 C   0  0  0  0  0  0  0  0  0  0  0  0
  -21.8600   -3.9600   23.6940 C   0  0  0  0  0  3  0  0  0  0  0  0
  -21.9360   -4.7870   22.5600 C   0  0  0  0  0  0  0  0  0  0  0  0
  -22.2810   -4.2540   21.3630 F   0  0  0  0  0  0  0  0  0  0  0  0
  -21.4010   -3.7040   26.0240 F   0  0  0  0  0  0  0  0  0  0  0  0
  -22.7400  -13.5540   21.1570 C   0  0  0  0  0  0  0  0  0  0  0  0
  -22.0090  -12.8650   22.0260 N   0  0  0  0  0  0  0  0  0  0  0  0
  -22.3070  -14.5770   20.6300 O   0  0  0  0  0  0  0  0  0  0  0  0
  -22.3720  -12.0390   22.4740 H   0  0  0  0  0  0  0  0  0  0  0  0
  -21.0690  -13.1680   22.2450 H   0  0  0  0  0  0  0  0  0  0  0  0
  -25.3600  -15.2050   20.3140 N   0  0  0  0  0  0  0  0  0  0  0  0
  -24.5780  -15.8470   20.3870 H   0  0  0  0  0  0  0  0  0  0  0  0
  -26.1930  -15.6350   19.9380 H   0  0  0  0  0  0  0  0  0  0  0  0
  -29.2860  -22.5100   19.9060 C   0  0  0  0  0  3  0  0  0  0  0  0
  -28.6560  -23.8490   20.5440 C   0  0  0  0  0  3  0  0  0  0  0  0
  -28.5250  -25.1600   19.6290 C   0  0  0  0  0  3  0  0  0  0  0  0
  -28.3760  -26.5110   20.2340 O   0  0  0  0  0  0  0  0  0  0  0  0
  -24.6030  -31.8760   23.2300 C   0  0  0  0  0  0  0  0  0  0  0  0
  -27.2160  -27.3070   20.1660 C   0  0  0  0  0  0  0  0  0  0  0  0
  -23.3920  -30.4700   21.5980 C   0  0  0  0  0  3  0  0  0  0  0  0
  -24.8360  -28.9130   20.1690 C   0  0  0  0  0  0  0  0  0  0  0  0
  -25.9280  -30.7910   21.4010 C   0  0  0  0  0  2  0  0  0  0  0  0
  -26.0050  -29.4080   20.7580 C   0  0  0  0  0  0  0  0  0  0  0  0
  -27.1900  -28.6150   20.7500 C   0  0  0  0  0  3  0  0  0  0  0  0
  -26.0160  -26.8580   19.5660 C   0  0  0  0  0  3  0  0  0  0  0  0
  -24.8440  -27.6440   19.5680 C   0  0  0  0  0  3  0  0  0  0  0  0
  -23.5990  -29.7870   20.2200 C   0  0  0  0  0  2  0  0  0  0  0  0
  -24.6600  -31.0630   22.1340 N   0  0  0  0  0  0  0  0  0  0  0  0
  -23.5220  -32.1550   23.7710 O   0  0  0  0  0  0  0  0  0  0  0  0
  -22.7340  -29.4590   22.5670 C   0  0  0  0  0  0  0  0  0  0  0  0
  -21.4070  -29.2810   22.4470 N   0  0  0  0  0  0  0  0  0  0  0  0
  -23.4150  -28.8360   23.3860 O   0  0  0  0  0  0  0  0  0  0  0  0
  -20.9160  -29.8330   21.7580 H   0  0  0  0  0  0  0  0  0  0  0  0
  -18.0360  -28.0720   22.9540 C   0  0  0  0  0  0  0  0  0  0  0  0
  -20.5920  -28.3440   23.2240 C   0  0  0  0  0  3  0  0  0  0  0  0
  -20.7010  -26.9090   22.6580 C   0  0  0  0  0  2  0  0  0  0  0  0
  -19.6010  -26.5760   21.6450 C   0  0  0  0  0  2  0  0  0  0  0  0
  -18.2180  -26.7200   22.2870 C   0  0  0  0  0  2  0  0  0  0  0  0
  -19.1510  -28.8420   23.3800 C   0  0  0  0  0  0  0  0  0  0  0  0
  -18.9260  -30.1080   23.9640 C   0  0  0  0  0  3  0  0  0  0  0  0
  -17.6180  -30.6040   24.1260 C   0  0  0  0  0  3  0  0  0  0  0  0
  -16.5180  -29.8310   23.7160 C   0  0  0  0  0  3  0  0  0  0  0  0
  -16.7270  -28.5670   23.1370 C   0  0  0  0  0  3  0  0  0  0  0  0
  -25.8880  -32.5110   23.8450 C   0  0  0  0  0  3  0  0  0  0  0  0
  -26.4170  -31.7390   25.1160 C   0  0  1  0  0  0  0  0  0  0  0  0
  -25.3330  -31.4990   26.1940 C   0  0  0  0  0  1  0  0  0  0  0  0
  -26.9960  -30.3610   24.7190 C   0  0  0  0  0  1  0  0  0  0  0  0
  -27.5740  -32.5310   25.7690 C   0  0  0  0  0  1  0  0  0  0  0  0
  -25.5770  -33.9070   24.1820 N   0  0  0  0  0  0  0  0  0  0  0  0
  -25.9000  -34.9640   23.4250 C   0  0  0  0  0  0  0  0  0  0  0  0
  -26.5610  -34.8670   22.3880 O   0  0  0  0  0  0  0  0  0  0  0  0
  -24.9870  -34.0580   24.9870 H   0  0  0  0  0  0  0  0  0  0  0  0
  -24.1600  -36.7540   23.0960 C   0  0  0  0  0  1  0  0  0  0  0  0
  -25.4120  -36.3500   23.8920 C   0  0  0  0  0  3  0  0  0  0  0  0
  -27.5550  -37.2380   24.6990 C   0  0  0  0  0  1  0  0  0  0  0  0
  -26.4390  -37.4070   23.7720 N   0  0  0  0  0  0  0  0  0  0  0  0
  -26.0310  -38.3240   23.9320 H   0  0  0  0  0  0  0  0  0  0  0  0
  2  4  1  0
  2  1  1  0
  3  2  1  0
  5 17  1  0
  6 11  1  0
  7  8  1  0
  7  6  1  0
  9  8  1  0
  9 21  1  0
  9 10  1  0
 11  5  1  0
 11 10  1  0
 12  5  2  0
 13 14  1  0
 13 16  1  0
 14 17  1  0
 15 16  1  0
 16  2  1  0
 17 15  1  0
 18 19  2  0
 19 38  1  0
 20 19  1  0
 20 23  1  0
 21 18  1  0
 21 22  1  0
 22 20  2  0
 23 24  1  0
 24 25  2  0
 26 29  1  0
 26 25  1  0
 27 26  2  0
 28 27  1  0
 28 23  2  0
 29 30  1  0
 30 31  1  0
 31 32  2  0
 33 32  1  0
 33 37  1  0
 34 33  2  0
 35 30  2  0
 35 34  1  0
 36 35  1  0
 38 39  1  0
 39 42  1  0
 39 41  1  0
 40 38  2  0
 43 44  1  0
 43 18  1  0
 45 43  1  0
 46 47  1  0
 46  1  2  0
 48 49  1  0
 48 47  2  0
 50 61  2  0
 51 49  1  0
 51 56  1  0
 52 60  1  0
 52 62  1  0
 53 59  1  0
 53 55  1  0
 54 60  1  0
 55 54  1  0
 56 55  2  0
 57 58  1  0
 57 51  2  0
 58 53  2  0
 59 52  1  0
 60 50  1  0
 62 64  2  0
 63 62  1  0
 65 63  1  0
 66 75  2  0
 66 71  1  0
 67 63  1  0
 67 71  1  0
 68 67  1  0
 69 70  1  0
 69 68  1  0
 70 66  1  0
 71 72  2  0
 72 73  1  0
 74 73  2  0
 75 74  1  0
 76 50  1  0
 76 81  1  0
 76 77  1  0
 77 80  1  1
 77 78  1  0
 79 77  1  0
 81 84  1  0
 82 86  1  0
 82 81  1  0
 83 82  2  0
 86 85  1  0
 88 86  1  0
 88 89  1  0
 88 87  1  0
M  ISO  4   5 100  17 100  48 101  49 101
M  END
>  <TORSDO>  (8) 
F 20

>  <SCORE>  (8) 
-13.760

>  <name>  (8) 
7

>  <ligand_id>  (8) 
7

>  <original_smiles>  (8) 
[H]c1c([H])c([H])c2c(c1[H])C([H])([H])C([H])([H])C([H])([H])C2([H])N([H])C(=O)C1([H])N(C(=O)C([H])(N([H])C(=O)C([H])(N([H])C([H])([H])[H])C([H])([H])[H])C(C([H])([H])[H])(C([H])([H])[H])C([H])([H])[H])C([H])([H])c2c([H])c(OC([H])([H])C([H])([H])C([H])([H])C([H])([H])[N+]([H])([H])C3([H])C([H])([H])N(C(=O)N4C([H])([H])C([H])([H])C([H])([H])C([H])(n5nc(-c6c([H])c([H])c(Oc7c([H])c([H])c(F)c([H])c7F)c([H])c6[H])c(C(=O)N([H])[H])c5N([H])[H])C4([H])[H])C([H])([H])C3([H])[H])c([H])c([H])c2C1([H])[H]

>  <smiles>  (8) 
[H]c1c([H])c([H])c2c(c1[H])C([H])([H])C([H])([H])C([H])([H])C2([H])N([H])C(=O)C1([H])N(C(=O)C([H])(N([H])C(=O)C([H])(N([H])C([H])([H])[H])C([H])([H])[H])C(C([H])([H])[H])(C([H])([H])[H])C([H])([H])[H])C([H])([H])c2c([H])c(OC([H])([H])C([H])([H])C([H])([H])C([H])([H])[N+]([H])([H])C3([H])C([H])([H])N(C(=O)N4C([H])([H])C([H])([H])C([H])([H])C([H])(n5nc(-c6c([H])c([H])c(Oc7c([H])c([H])c(F)c([H])c7F)c([H])c6[H])c(C(=O)N([H])[H])c5N([H])[H])C4([H])[H])C([H])([H])C3([H])[H])c([H])c([H])c2C1([H])[H]

$$$$
8:0:0
     RDKit          3D

 93101  0  0  1  0  0  0  0  0999 V2000
  -28.9190  -22.1750   21.0720 C   0  0  0  0  0  0  0  0  0  0  0  0
  -29.2590  -23.4260   20.7580 N   0  0  0  0  0  0  0  0  0  0  0  0
  -27.8040  -21.8680   21.4950 O   0  0  0  0  0  0  0  0  0  0  0  0
  -30.2000  -23.5820   20.4230 H   0  0  0  0  0  0  0  0  0  0  0  0
  -29.9970  -21.1040   20.9030 C   0  0  0  0  0  2  0  0  0  0  0  0
  -29.6190  -20.0620   19.8300 C   0  0  0  0  0  2  0  0  0  0  0  0
  -30.4820  -18.7800   19.8770 C   0  0  0  0  0  2  0  0  0  0  0  0
  -30.5790  -14.3800   19.9410 C   0  0  0  0  0  0  0  0  0  0  0  0
  -30.1230  -12.3210   18.6600 C   0  0  0  0  0  2  0  0  0  0  0  0
  -29.0520  -12.5730   17.5830 C   0  0  0  0  0  2  0  0  0  0  0  0
  -27.6370  -12.3960   18.1720 C   0  0  0  0  0  2  0  0  0  0  0  0
  -27.4370  -13.1790   19.4950 C   0  0  0  0  0  3  0  0  0  0  0  0
  -28.6040  -12.8870   20.4680 C   0  0  0  0  0  2  0  0  0  0  0  0
  -29.8630  -13.2340   19.7840 N   0  0  0  0  0  0  0  0  0  0  0  0
  -31.5740  -14.6490   19.2590 O   0  0  0  0  0  0  0  0  0  0  0  0
  -31.2630  -15.7480   21.8300 C   0  0  0  0  0  2  0  0  0  0  0  0
  -29.0150  -16.0350   20.8170 C   0  0  0  0  0  2  0  0  0  0  0  0
  -31.6310  -17.1880   21.4020 C   0  0  0  0  0  2  0  0  0  0  0  0
  -29.1530  -17.4120   21.5000 C   0  0  0  0  0  2  0  0  0  0  0  0
  -30.2160  -15.1820   20.9660 N   0  0  0  0  0  0  0  0  0  0  0  0
  -30.4490  -18.0730   21.1880 N   0  0  2  0  0  4  0  0  0  0  0  0
  -30.5500  -18.8020   21.8780 H   0  0  0  0  0  0  0  0  0  0  0  0
  -25.1180  -13.7540   20.4630 C   0  0  0  0  0  0  0  0  0  0  0  0
  -24.0980  -12.9620   20.9170 C   0  0  0  0  0  0  0  0  0  0  0  0
  -24.5570  -11.6150   20.7910 C   0  0  0  0  0  0  0  0  0  0  0  0
  -26.1390  -12.8880   20.1000 N   0  0  0  0  0  0  0  0  0  0  0  0
  -25.8090  -11.5970   20.3490 N   0  0  0  0  0  0  0  0  0  0  0  0
  -23.8610  -10.3420   21.0100 C   0  0  0  0  0  0  0  0  0  0  0  0
  -24.3520   -9.3810   21.9210 C   0  0  0  0  0  3  0  0  0  0  0  0
  -23.6580   -8.1690   22.1290 C   0  0  0  0  0  3  0  0  0  0  0  0
  -22.4580   -7.9100   21.4250 C   0  0  0  0  0  0  0  0  0  0  0  0
  -21.9850   -8.8610   20.5010 C   0  0  0  0  0  3  0  0  0  0  0  0
  -22.6800  -10.0630   20.2930 C   0  0  0  0  0  3  0  0  0  0  0  0
  -21.7310   -6.7520   21.5420 O   0  0  0  0  0  0  0  0  0  0  0  0
  -21.6990   -6.0380   22.7120 C   0  0  0  0  0  0  0  0  0  0  0  0
  -21.2680   -6.6140   23.9260 C   0  0  0  0  0  3  0  0  0  0  0  0
  -21.1860   -5.8260   25.0910 C   0  0  0  0  0  3  0  0  0  0  0  0
  -21.5250   -4.4600   25.0420 C   0  0  0  0  0  0  0  0  0  0  0  0
  -21.9490   -3.8820   23.8330 C   0  0  0  0  0  3  0  0  0  0  0  0
  -22.0320   -4.6680   22.6690 C   0  0  0  0  0  0  0  0  0  0  0  0
  -22.4220   -4.1030   21.5020 F   0  0  0  0  0  0  0  0  0  0  0  0
  -21.4380   -3.6990   26.1580 F   0  0  0  0  0  0  0  0  0  0  0  0
  -22.7340  -13.4160   21.3510 C   0  0  0  0  0  0  0  0  0  0  0  0
  -22.1030  -12.6840   22.2630 N   0  0  0  0  0  0  0  0  0  0  0  0
  -22.2390  -14.4560   20.9170 O   0  0  0  0  0  0  0  0  0  0  0  0
  -22.5180  -11.8420   22.6350 H   0  0  0  0  0  0  0  0  0  0  0  0
  -21.1910  -12.9710   22.5930 H   0  0  0  0  0  0  0  0  0  0  0  0
  -25.2550  -15.1300   20.3130 N   0  0  0  0  0  0  0  0  0  0  0  0
  -24.4920  -15.7680   20.5120 H   0  0  0  0  0  0  0  0  0  0  0  0
  -26.0350  -15.5790   19.8520 H   0  0  0  0  0  0  0  0  0  0  0  0
  -28.4070  -24.6020   20.8950 C   0  0  0  0  0  2  0  0  0  0  0  0
  -28.6220  -25.5590   19.7090 C   0  0  0  0  0  2  0  0  0  0  0  0
  -28.4760  -26.9060   20.1370 O   0  0  0  0  0  0  0  0  0  0  0  0
  -24.5640  -31.9140   23.2520 C   0  0  0  0  0  0  0  0  0  0  0  0
  -27.2450  -27.5170   20.1620 C   0  0  0  0  0  0  0  0  0  0  0  0
  -23.3650  -30.5040   21.6110 C   0  0  0  0  0  3  0  0  0  0  0  0
  -24.8250  -28.9740   20.1920 C   0  0  0  0  0  0  0  0  0  0  0  0
  -25.8830  -30.8870   21.4100 C   0  0  0  0  0  2  0  0  0  0  0  0
  -25.9760  -29.5150   20.7750 C   0  0  0  0  0  0  0  0  0  0  0  0
  -27.1830  -28.7910   20.7600 C   0  0  0  0  0  3  0  0  0  0  0  0
  -26.0690  -26.9670   19.5980 C   0  0  0  0  0  3  0  0  0  0  0  0
  -24.8630  -27.6950   19.6100 C   0  0  0  0  0  3  0  0  0  0  0  0
  -23.5760  -29.8230   20.2330 C   0  0  0  0  0  2  0  0  0  0  0  0
  -24.6220  -31.1170   22.1490 N   0  0  0  0  0  0  0  0  0  0  0  0
  -23.4820  -32.1790   23.7950 O   0  0  0  0  0  0  0  0  0  0  0  0
  -22.7240  -29.4790   22.5730 C   0  0  0  0  0  0  0  0  0  0  0  0
  -21.4040  -29.2750   22.4350 N   0  0  0  0  0  0  0  0  0  0  0  0
  -23.4100  -28.8700   23.3970 O   0  0  0  0  0  0  0  0  0  0  0  0
  -20.9090  -29.8160   21.7390 H   0  0  0  0  0  0  0  0  0  0  0  0
  -18.0450  -28.0460   22.9210 C   0  0  0  0  0  0  0  0  0  0  0  0
  -20.5960  -28.3330   23.2080 C   0  0  0  0  0  3  0  0  0  0  0  0
  -20.7200  -26.9020   22.6360 C   0  0  0  0  0  2  0  0  0  0  0  0
  -19.6290  -26.5640   21.6160 C   0  0  0  0  0  2  0  0  0  0  0  0
  -18.2420  -26.6970   22.2520 C   0  0  0  0  0  2  0  0  0  0  0  0
  -19.1520  -28.8220   23.3550 C   0  0  0  0  0  0  0  0  0  0  0  0
  -18.9160  -30.0850   23.9390 C   0  0  0  0  0  3  0  0  0  0  0  0
  -17.6060  -30.5750   24.0930 C   0  0  0  0  0  3  0  0  0  0  0  0
  -16.5120  -29.7970   23.6760 C   0  0  0  0  0  3  0  0  0  0  0  0
  -16.7330  -28.5340   23.0960 C   0  0  0  0  0  3  0  0  0  0  0  0
  -25.8500  -32.5520   23.8700 C   0  0  0  0  0  3  0  0  0  0  0  0
  -25.5390  -33.9520   24.1860 N   0  0  0  0  0  0  0  0  0  0  0  0
  -25.8730  -34.9960   23.4140 C   0  0  0  0  0  0  0  0  0  0  0  0
  -26.5480  -34.8810   22.3880 O   0  0  0  0  0  0  0  0  0  0  0  0
  -24.9420  -34.1150   24.9840 H   0  0  0  0  0  0  0  0  0  0  0  0
  -24.1470  -36.7810   23.0260 C   0  0  0  0  0  1  0  0  0  0  0  0
  -25.3800  -36.3870   23.8530 C   0  0  0  0  0  3  0  0  0  0  0  0
  -27.5030  -37.2830   24.7020 C   0  0  0  0  0  1  0  0  0  0  0  0
  -26.4120  -37.4410   23.7430 N   0  0  0  0  0  0  0  0  0  0  0  0
  -26.0020  -38.3600   23.8770 H   0  0  0  0  0  0  0  0  0  0  0  0
  -26.3710  -31.7900   25.1500 C   0  0  1  0  0  0  0  0  0  0  0  0
  -25.2790  -31.5500   26.2170 C   0  0  0  0  0  1  0  0  0  0  0  0
  -26.9640  -30.4140   24.7650 C   0  0  0  0  0  1  0  0  0  0  0  0
  -27.5180  -32.5930   25.8090 C   0  0  0  0  0  1  0  0  0  0  0  0
  1  3  2  0
  2 51  1  0
  2  1  1  0
  4  2  1  0
  5  1  1  0
  6  7  1  0
  6  5  1  0
  7 21  1  0
  8 20  1  0
  9 14  1  0
 10 11  1  0
 10  9  1  0
 12 11  1  0
 12 26  1  0
 12 13  1  0
 14  8  1  0
 14 13  1  0
 15  8  2  0
 17 20  1  0
 17 19  1  0
 18 16  1  0
 20 16  1  0
 21 18  1  0
 21 19  1  0
 21 22  1  1
 23 24  2  0
 24 43  1  0
 25 24  1  0
 25 28  1  0
 26 27  1  0
 26 23  1  0
 27 25  2  0
 28 29  1  0
 29 30  2  0
 31 34  1  0
 31 30  1  0
 32 31  2  0
 33 32  1  0
 33 28  2  0
 34 35  1  0
 35 36  1  0
 36 37  2  0
 38 37  1  0
 38 42  1  0
 39 38  2  0
 40 35  2  0
 40 39  1  0
 41 40  1  0
 43 44  1  0
 44 47  1  0
 44 46  1  0
 45 43  2  0
 48 23  1  0
 48 49  1  0
 50 48  1  0
 52 53  1  0
 52 51  1  0
 53 55  1  0
 54 65  2  0
 55 60  1  0
 56 64  1  0
 56 66  1  0
 57 63  1  0
 57 59  1  0
 58 64  1  0
 59 58  1  0
 60 59  2  0
 61 62  1  0
 61 55  2  0
 62 57  2  0
 63 56  1  0
 64 54  1  0
 66 68  2  0
 67 66  1  0
 69 67  1  0
 70 79  2  0
 70 75  1  0
 71 67  1  0
 71 75  1  0
 72 71  1  0
 73 74  1  0
 73 72  1  0
 74 70  1  0
 75 76  2  0
 76 77  1  0
 78 77  2  0
 79 78  1  0
 80 54  1  0
 80 81  1  0
 80 90  1  0
 81 84  1  0
 82 86  1  0
 82 81  1  0
 83 82  2  0
 86 85  1  0
 88 86  1  0
 88 89  1  0
 88 87  1  0
 90 93  1  1
 90 91  1  0
 92 90  1  0
M  ISO  4   8 100  20 100  52 101  53 101
M  END
>  <TORSDO>  (9) 
F 21

>  <SCORE>  (9) 
-12.766

>  <name>  (9) 
8

>  <ligand_id>  (9) 
8

>  <original_smiles>  (9) 
[H]c1c([H])c([H])c2c(c1[H])C([H])([H])C([H])([H])C([H])([H])C2([H])N([H])C(=O)C1([H])N(C(=O)C([H])(N([H])C(=O)C([H])(N([H])C([H])([H])[H])C([H])([H])[H])C(C([H])([H])[H])(C([H])([H])[H])C([H])([H])[H])C([H])([H])c2c([H])c(OC([H])([H])C([H])([H])N([H])C(=O)C([H])([H])C([H])([H])C([H])([H])[N+]3([H])C([H])([H])C([H])([H])N(C(=O)N4C([H])([H])C([H])([H])C([H])([H])C([H])(n5nc(-c6c([H])c([H])c(Oc7c([H])c([H])c(F)c([H])c7F)c([H])c6[H])c(C(=O)N([H])[H])c5N([H])[H])C4([H])[H])C([H])([H])C3([H])[H])c([H])c([H])c2C1([H])[H]

>  <smiles>  (9) 
[H]c1c([H])c([H])c2c(c1[H])C([H])([H])C([H])([H])C([H])([H])C2([H])N([H])C(=O)C1([H])N(C(=O)C([H])(N([H])C(=O)C([H])(N([H])C([H])([H])[H])C([H])([H])[H])C(C([H])([H])[H])(C([H])([H])[H])C([H])([H])[H])C([H])([H])c2c([H])c(OC([H])([H])C([H])([H])N([H])C(=O)C([H])([H])C([H])([H])C([H])([H])[N+]3([H])C([H])([H])C([H])([H])N(C(=O)N4C([H])([H])C([H])([H])C([H])([H])C([H])(n5nc(-c6c([H])c([H])c(Oc7c([H])c([H])c(F)c([H])c7F)c([H])c6[H])c(C(=O)N([H])[H])c5N([H])[H])C4([H])[H])C([H])([H])C3([H])[H])c([H])c([H])c2C1([H])[H]

$$$$
9:0:0
     RDKit          3D

 92100  0  0  1  0  0  0  0  0999 V2000
  -27.5550  -21.0570   18.3990 N   0  0  0  0  0  4  0  0  0  0  0  0
  -27.9420  -20.8660   19.3130 H   0  0  0  0  0  0  0  0  0  0  0  0
  -26.5490  -21.0210   18.4670 H   0  0  0  0  0  0  0  0  0  0  0  0
  -28.0670  -19.9830   17.5340 C   0  0  0  0  0  2  0  0  0  0  0  0
  -27.9990  -18.6300   18.2590 C   0  0  0  0  0  2  0  0  0  0  0  0
  -28.8100  -18.5560   19.5650 C   0  0  0  0  0  0  0  0  0  0  0  0
  -29.3270  -19.5710   20.0410 O   0  0  0  0  0  0  0  0  0  0  0  0
  -30.6580  -14.4360   20.5270 C   0  0  0  0  0  0  0  0  0  0  0  0
  -30.4040  -12.2680   19.4200 C   0  0  0  0  0  2  0  0  0  0  0  0
  -29.4760  -12.4880   18.2060 C   0  0  0  0  0  2  0  0  0  0  0  0
  -27.9900  -12.3680   18.6120 C   0  0  0  0  0  2  0  0  0  0  0  0
  -27.6330  -13.1910   19.8790 C   0  0  0  0  0  3  0  0  0  0  0  0
  -28.6810  -12.9650   20.9960 C   0  0  0  0  0  2  0  0  0  0  0  0
  -30.0200  -13.2430   20.4420 N   0  0  0  0  0  0  0  0  0  0  0  0
  -31.8420  -14.6250   20.2330 O   0  0  0  0  0  0  0  0  0  0  0  0
  -29.5300  -16.1510   19.2800 C   0  0  0  0  0  2  0  0  0  0  0  0
  -29.8880  -16.7760   21.1770 C   0  0  0  0  0  2  0  0  0  0  0  0
  -28.8340  -17.1830   20.1410 C   0  0  0  0  0  3  0  0  0  0  0  0
  -29.7840  -15.4500   20.5430 N   0  0  0  0  0  0  0  0  0  0  0  0
  -25.2240  -13.8230   20.5290 C   0  0  0  0  0  0  0  0  0  0  0  0
  -24.1470  -13.0580   20.8850 C   0  0  0  0  0  0  0  0  0  0  0  0
  -24.6060  -11.7060   20.8750 C   0  0  0  0  0  0  0  0  0  0  0  0
  -26.2720  -12.9340   20.3340 N   0  0  0  0  0  0  0  0  0  0  0  0
  -25.9010  -11.6580   20.5940 N   0  0  0  0  0  0  0  0  0  0  0  0
  -23.8780  -10.4480   21.0620 C   0  0  0  0  0  0  0  0  0  0  0  0
  -24.3100   -9.4800   21.9940 C   0  0  0  0  0  3  0  0  0  0  0  0
  -23.5850   -8.2810   22.1690 C   0  0  0  0  0  3  0  0  0  0  0  0
  -22.4150   -8.0450   21.4110 C   0  0  0  0  0  0  0  0  0  0  0  0
  -22.0020   -9.0020   20.4680 C   0  0  0  0  0  3  0  0  0  0  0  0
  -22.7280  -10.1910   20.2900 C   0  0  0  0  0  3  0  0  0  0  0  0
  -21.6600   -6.9000   21.4960 O   0  0  0  0  0  0  0  0  0  0  0  0
  -21.6230   -6.1450   22.6400 C   0  0  0  0  0  0  0  0  0  0  0  0
  -21.2200   -6.6910   23.8790 C   0  0  0  0  0  3  0  0  0  0  0  0
  -21.1340   -5.8640   25.0170 C   0  0  0  0  0  3  0  0  0  0  0  0
  -21.4370   -4.4940   24.9160 C   0  0  0  0  0  0  0  0  0  0  0  0
  -21.8320   -3.9480   23.6830 C   0  0  0  0  0  3  0  0  0  0  0  0
  -21.9230   -4.7710   22.5480 C   0  0  0  0  0  0  0  0  0  0  0  0
  -22.2860   -4.2370   21.3570 F   0  0  0  0  0  0  0  0  0  0  0  0
  -21.3430   -3.6980   26.0060 F   0  0  0  0  0  0  0  0  0  0  0  0
  -22.7440  -13.5390   21.1270 C   0  0  0  0  0  0  0  0  0  0  0  0
  -22.0010  -12.8510   21.9860 N   0  0  0  0  0  0  0  0  0  0  0  0
  -22.3160  -14.5590   20.5860 O   0  0  0  0  0  0  0  0  0  0  0  0
  -22.3580  -12.0230   22.4400 H   0  0  0  0  0  0  0  0  0  0  0  0
  -21.0580  -13.1530   22.1880 H   0  0  0  0  0  0  0  0  0  0  0  0
  -25.3920  -15.1910   20.3380 N   0  0  0  0  0  0  0  0  0  0  0  0
  -24.6250  -15.8480   20.4240 H   0  0  0  0  0  0  0  0  0  0  0  0
  -26.2540  -15.6190   20.0290 H   0  0  0  0  0  0  0  0  0  0  0  0
  -27.9940  -22.4120   18.0500 C   0  0  0  0  0  2  0  0  0  0  0  0
  -27.8580  -23.2900   19.2920 C   0  0  0  0  0  2  0  0  0  0  0  0
  -28.4800  -24.6680   19.1190 C   0  0  0  0  0  2  0  0  0  0  0  0
  -28.3920  -25.4390   20.4380 C   0  0  0  0  0  2  0  0  0  0  0  0
  -28.4370  -26.8290   20.1910 O   0  0  0  0  0  0  0  0  0  0  0  0
  -24.5750  -31.8740   23.2700 C   0  0  0  0  0  0  0  0  0  0  0  0
  -27.2290  -27.4810   20.1860 C   0  0  0  0  0  0  0  0  0  0  0  0
  -23.3640  -30.4720   21.6290 C   0  0  0  0  0  3  0  0  0  0  0  0
  -24.8140  -28.9380   20.2070 C   0  0  0  0  0  0  0  0  0  0  0  0
  -25.8820  -30.8490   21.4170 C   0  0  0  0  0  2  0  0  0  0  0  0
  -25.9690  -29.4810   20.7830 C   0  0  0  0  0  0  0  0  0  0  0  0
  -27.1780  -28.7610   20.7650 C   0  0  0  0  0  3  0  0  0  0  0  0
  -26.0540  -26.9330   19.6170 C   0  0  0  0  0  3  0  0  0  0  0  0
  -24.8490  -27.6600   19.6230 C   0  0  0  0  0  3  0  0  0  0  0  0
  -23.5670  -29.7880   20.2500 C   0  0  0  0  0  2  0  0  0  0  0  0
  -24.6260  -31.0780   22.1650 N   0  0  0  0  0  0  0  0  0  0  0  0
  -23.4960  -32.1460   23.8140 O   0  0  0  0  0  0  0  0  0  0  0  0
  -22.7170  -29.4510   22.5900 C   0  0  0  0  0  0  0  0  0  0  0  0
  -21.3940  -29.2690   22.4630 N   0  0  0  0  0  0  0  0  0  0  0  0
  -23.4030  -28.8250   23.4040 O   0  0  0  0  0  0  0  0  0  0  0  0
  -20.9050  -29.8280   21.7770 H   0  0  0  0  0  0  0  0  0  0  0  0
  -18.0190  -28.0780   22.9480 C   0  0  0  0  0  0  0  0  0  0  0  0
  -20.5750  -28.3320   23.2310 C   0  0  0  0  0  3  0  0  0  0  0  0
  -20.6780  -26.9010   22.6570 C   0  0  0  0  0  2  0  0  0  0  0  0
  -19.5810  -26.5770   21.6390 C   0  0  0  0  0  2  0  0  0  0  0  0
  -18.1970  -26.7260   22.2780 C   0  0  0  0  0  2  0  0  0  0  0  0
  -19.1360  -28.8400   23.3810 C   0  0  0  0  0  0  0  0  0  0  0  0
  -18.9170  -30.1050   23.9660 C   0  0  0  0  0  3  0  0  0  0  0  0
  -17.6140  -30.6110   24.1230 C   0  0  0  0  0  3  0  0  0  0  0  0
  -16.5100  -29.8460   23.7070 C   0  0  0  0  0  3  0  0  0  0  0  0
  -16.7130  -28.5820   23.1250 C   0  0  0  0  0  3  0  0  0  0  0  0
  -25.8660  -32.5020   23.8890 C   0  0  0  0  0  3  0  0  0  0  0  0
  -26.3810  -31.7330   25.1660 C   0  0  1  0  0  0  0  0  0  0  0  0
  -25.2890  -31.5030   26.2360 C   0  0  0  0  0  1  0  0  0  0  0  0
  -26.9560  -30.3530   24.7720 C   0  0  0  0  0  1  0  0  0  0  0  0
  -27.5370  -32.5230   25.8230 C   0  0  0  0  0  1  0  0  0  0  0  0
  -25.5660  -33.9030   24.2090 N   0  0  0  0  0  0  0  0  0  0  0  0
  -25.9080  -34.9470   23.4430 C   0  0  0  0  0  0  0  0  0  0  0  0
  -26.5820  -34.8330   22.4150 O   0  0  0  0  0  0  0  0  0  0  0  0
  -24.9720  -34.0680   25.0100 H   0  0  0  0  0  0  0  0  0  0  0  0
  -24.1910  -36.7440   23.0640 C   0  0  0  0  0  1  0  0  0  0  0  0
  -25.4240  -36.3410   23.8880 C   0  0  0  0  0  3  0  0  0  0  0  0
  -27.5590  -37.2160   24.7260 C   0  0  0  0  0  1  0  0  0  0  0  0
  -26.4640  -37.3880   23.7760 N   0  0  0  0  0  0  0  0  0  0  0  0
  -26.0620  -38.3100   23.9190 H   0  0  0  0  0  0  0  0  0  0  0  0
  1  3  1  0
  1  2  1  0
  4  5  1  0
  4  1  1  0
  5  6  1  0
  6  7  2  0
  8 19  1  0
  9 14  1  0
 10 11  1  0
 10  9  1  0
 12 11  1  0
 12 23  1  0
 12 13  1  0
 14  8  1  0
 14 13  1  0
 15  8  2  0
 16 18  1  0
 16 19  1  0
 18  6  1  0
 18 17  1  0
 19 17  1  0
 20 21  2  0
 21 40  1  0
 22 21  1  0
 22 25  1  0
 23 20  1  0
 23 24  1  0
 24 22  2  0
 25 26  1  0
 26 27  2  0
 28 31  1  0
 28 27  1  0
 29 28  2  0
 30 29  1  0
 30 25  2  0
 31 32  1  0
 32 33  1  0
 33 34  2  0
 35 34  1  0
 35 39  1  0
 36 35  2  0
 37 32  2  0
 37 36  1  0
 38 37  1  0
 40 41  1  0
 41 44  1  0
 41 43  1  0
 42 40  2  0
 45 46  1  0
 45 20  1  0
 47 45  1  0
 48  1  1  0
 48 49  1  0
 50 49  1  0
 50 51  1  0
 52 51  1  0
 53 64  2  0
 54 52  1  0
 54 59  1  0
 55 63  1  0
 55 65  1  0
 56 62  1  0
 56 58  1  0
 57 63  1  0
 58 57  1  0
 59 58  2  0
 60 61  1  0
 60 54  2  0
 61 56  2  0
 62 55  1  0
 63 53  1  0
 65 67  2  0
 66 65  1  0
 68 66  1  0
 69 78  2  0
 69 74  1  0
 70 66  1  0
 70 74  1  0
 71 70  1  0
 72 73  1  0
 72 71  1  0
 73 69  1  0
 74 75  2  0
 75 76  1  0
 77 76  2  0
 78 77  1  0
 79 53  1  0
 79 84  1  0
 79 80  1  0
 80 83  1  1
 80 81  1  0
 82 80  1  0
 84 87  1  0
 85 89  1  0
 85 84  1  0
 86 85  2  0
 89 88  1  0
 91 89  1  0
 91 92  1  0
 91 90  1  0
M  ISO  4   8 100  19 100  51 101  52 101
M  END
>  <TORSDO>  (10) 
F 23

>  <SCORE>  (10) 
-12.960

>  <name>  (10) 
9

>  <ligand_id>  (10) 
9

>  <original_smiles>  (10) 
[H]c1c([H])c([H])c2c(c1[H])C([H])([H])C([H])([H])C([H])([H])C2([H])N([H])C(=O)C1([H])N(C(=O)C([H])(N([H])C(=O)C([H])(N([H])C([H])([H])[H])C([H])([H])[H])C(C([H])([H])[H])(C([H])([H])[H])C([H])([H])[H])C([H])([H])c2c([H])c(OC([H])([H])C([H])([H])C([H])([H])C([H])([H])[N+]([H])([H])C([H])([H])C([H])([H])C(=O)C3([H])C([H])([H])N(C(=O)N4C([H])([H])C([H])([H])C([H])([H])C([H])(n5nc(-c6c([H])c([H])c(Oc7c([H])c([H])c(F)c([H])c7F)c([H])c6[H])c(C(=O)N([H])[H])c5N([H])[H])C4([H])[H])C3([H])[H])c([H])c([H])c2C1([H])[H]

>  <smiles>  (10) 
[H]c1c([H])c([H])c2c(c1[H])C([H])([H])C([H])([H])C([H])([H])C2([H])N([H])C(=O)C1([H])N(C(=O)C([H])(N([H])C(=O)C([H])(N([H])C([H])([H])[H])C([H])([H])[H])C(C([H])([H])[H])(C([H])([H])[H])C([H])([H])[H])C([H])([H])c2c([H])c(OC([H])([H])C([H])([H])C([H])([H])C([H])([H])[N+]([H])([H])C([H])([H])C([H])([H])C(=O)C3([H])C([H])([H])N(C(=O)N4C([H])([H])C([H])([H])C([H])([H])C([H])(n5nc(-c6c([H])c([H])c(Oc7c([H])c([H])c(F)c([H])c7F)c([H])c6[H])c(C(=O)N([H])[H])c5N([H])[H])C4([H])[H])C3([H])[H])c([H])c([H])c2C1([H])[H]

$$$$
10:0:0
     RDKit          3D

 94 93  0  0  1  0  0  0  0  0999 V2000
  -24.4280  -25.5000   23.3990 C   0  0  0  0  0 15  0  0  0  0  0  0
  -23.7960  -27.2960   24.2730 C   0  0  0  0  0 15  0  0  0  0  0  0
  -22.4280  -28.9940   24.1140 C   0  0  0  0  0 15  0  0  0  0  0  0
  -21.2230  -29.5970   22.3120 C   0  0  0  0  0 15  0  0  0  0  0  0
  -21.4100  -28.6690   20.4250 C   0  0  0  0  0 15  0  0  0  0  0  0
  -22.8740  -27.4560   19.6740 C   0  0  0  0  0  1  0  0  0  0  0  0
  -24.6450  -27.2480   19.6480 O   0  0  0  0  0  0  0  0  0  0  0  0
  -25.2160  -31.5060   23.2620 C   0  0  0  0  0  0  0  0  0  0  0  0
  -25.6720  -27.7990   18.8570 C   0  0  0  0  0  3  0  0  0  0  0  0
  -23.8200  -30.1120   21.7680 C   0  0  0  0  0  3  0  0  0  0  0  0
  -24.3850  -29.9440   19.3760 C   0  0  0  0  0  3  0  0  0  0  0  0
  -26.0480  -30.8550   20.9790 C   0  0  0  0  0  2  0  0  0  0  0  0
  -25.6700  -29.8970   19.8870 C   0  0  0  0  0  3  0  0  0  0  0  0
  -26.4220  -28.7890   19.5390 C   0  0  0  0  0  2  0  0  0  0  0  0
  -24.8970  -28.1890   17.8040 C   0  0  0  0  0  2  0  0  0  0  0  0
  -24.0510  -29.2440   18.2030 C   0  0  0  0  0  2  0  0  0  0  0  0
  -23.4460  -30.5840   20.3090 C   0  0  0  0  0  2  0  0  0  0  0  0
  -25.0570  -30.8190   22.0820 N   0  0  0  0  0  0  0  0  0  0  0  0
  -24.3150  -31.6230   24.1240 O   0  0  0  0  0  0  0  0  0  0  0  0
  -23.9000  -28.4410   22.1220 C   0  0  0  0  0  0  0  0  0  0  0  0
  -22.8360  -27.2440   21.9960 N   0  0  0  0  0  0  0  0  0  0  0  0
  -24.8810  -28.1930   22.7380 O   0  0  0  0  0  0  0  0  0  0  0  0
  -23.3540  -26.4000   22.0040 H   0  0  0  0  0  0  0  0  0  0  0  0
  -18.3970  -26.8670   22.0730 C   0  0  0  0  0  0  0  0  0  0  0  0
  -21.1700  -26.7930   22.4470 C   0  0  0  0  0  3  0  0  0  0  0  0
  -21.0790  -25.5510   21.6820 C   0  0  0  0  0  2  0  0  0  0  0  0
  -19.9310  -25.5210   20.6930 C   0  0  0  0  0  2  0  0  0  0  0  0
  -18.6020  -25.5380   21.3910 C   0  0  0  0  0  2  0  0  0  0  0  0
  -19.5380  -27.5220   22.6980 C   0  0  0  0  0  0  0  0  0  0  0  0
  -19.0490  -28.7630   23.3900 C   0  0  0  0  0  3  0  0  0  0  0  0
  -17.6740  -29.1740   23.4440 C   0  0  0  0  0  3  0  0  0  0  0  0
  -16.6480  -28.4530   22.8400 C   0  0  0  0  0  3  0  0  0  0  0  0
  -17.0280  -27.2970   22.1570 C   0  0  0  0  0  3  0  0  0  0  0  0
  -26.5710  -32.1220   23.5600 C   0  0  0  0  0  3  0  0  0  0  0  0
  -26.3760  -33.4540   24.1510 N   0  0  0  0  0  0  0  0  0  0  0  0
  -26.4980  -34.6100   23.4870 C   0  0  0  0  0  0  0  0  0  0  0  0
  -26.8510  -34.6610   22.3080 O   0  0  0  0  0  0  0  0  0  0  0  0
  -26.0140  -33.4900   25.0930 H   0  0  0  0  0  0  0  0  0  0  0  0
  -24.7990  -36.4350   23.8820 C   0  0  0  0  0  1  0  0  0  0  0  0
  -26.1920  -35.9090   24.2630 C   0  0  0  0  0  3  0  0  0  0  0  0
  -28.5020  -36.6450   24.6440 C   0  0  0  0  0  1  0  0  0  0  0  0
  -27.2040  -36.9670   24.0590 N   0  0  0  0  0  0  0  0  0  0  0  0
  -26.8930  -37.8510   24.4590 H   0  0  0  0  0  0  0  0  0  0  0  0
  -27.3980  -31.1870   24.5180 C   0  0  1  0  0  0  0  0  0  0  0  0
  -26.6060  -30.7670   25.7860 C   0  0  0  0  0  1  0  0  0  0  0  0
  -27.8460  -29.8860   23.8140 C   0  0  0  0  0  1  0  0  0  0  0  0
  -28.6940  -31.8970   24.9560 C   0  0  0  0  0  1  0  0  0  0  0  0
  -25.4570  -24.2960   22.0250 C   0  0  0  0  0  1  0  0  0  0  0  0
  -27.7250  -24.0550   19.5580 C   0  0  0  0  0  2  0  0  0  0  0  0
  -28.3810  -24.5280   20.8880 C   0  0  0  0  0  2  0  0  0  0  0  0
  -27.8010  -22.5280   19.3290 C   0  0  0  0  0  2  0  0  0  0  0  0
  -27.9100  -23.7430   22.1490 C   0  0  0  0  0  2  0  0  0  0  0  0
  -27.6250  -21.6580   20.6040 C   0  0  0  0  0  1  0  0  0  0  0  0
  -26.7140  -22.8900   21.7890 N   0  0  0  0  0  0  0  0  0  0  0  0
  -26.4810  -22.2950   22.5700 H   0  0  0  0  0  0  0  0  0  0  0  0
  -28.1390  -19.6310   19.9760 C   0  0  0  0  0 15  0  0  0  0  0  0
  -30.1560  -16.6220   19.7240 C   0  0  0  0  0  0  0  0  0  0  0  0
  -30.9190  -13.9770   19.0680 C   0  0  0  0  0  2  0  0  0  0  0  0
  -30.2010  -13.1180   17.9540 C   0  0  0  0  0  2  0  0  0  0  0  0
  -28.8430  -12.6040   18.4400 C   0  0  0  0  0  2  0  0  0  0  0  0
  -28.1930  -13.7200   19.2680 C   0  0  0  0  0  3  0  0  0  0  0  0
  -29.0540  -14.2810   20.4050 C   0  0  0  0  0  2  0  0  0  0  0  0
  -30.0390  -15.1130   19.7400 N   0  0  0  0  0  0  0  0  0  0  0  0
  -31.3570  -16.7300   19.3180 O   0  0  0  0  0  0  0  0  0  0  0  0
  -29.1120  -17.8970   20.0510 N   0  0  0  0  0  2  0  0  0  0  0  0
  -29.9550  -18.4600   20.0270 H   0  0  0  0  0  0  0  0  0  0  0  0
  -25.9410  -14.3170   20.1860 C   0  0  0  0  0  0  0  0  0  0  0  0
  -24.8920  -13.5660   20.6140 C   0  0  0  0  0  0  0  0  0  0  0  0
  -25.3140  -12.2030   20.5130 C   0  0  0  0  0  0  0  0  0  0  0  0
  -26.9090  -13.4110   19.8180 N   0  0  0  0  0  0  0  0  0  0  0  0
  -26.5620  -12.1340   20.0800 N   0  0  0  0  0  0  0  0  0  0  0  0
  -24.5710  -10.9610   20.7310 C   0  0  0  0  0  0  0  0  0  0  0  0
  -24.9600  -10.0270   21.7140 C   0  0  0  0  0  3  0  0  0  0  0  0
  -24.2040   -8.8510   21.9130 C   0  0  0  0  0  3  0  0  0  0  0  0
  -23.0550   -8.6030   21.1260 C   0  0  0  0  0  0  0  0  0  0  0  0
  -22.6930   -9.5260   20.1320 C   0  0  0  0  0  3  0  0  0  0  0  0
  -23.4460  -10.6940   19.9290 C   0  0  0  0  0  3  0  0  0  0  0  0
  -22.2780   -7.4780   21.2300 O   0  0  0  0  0  0  0  0  0  0  0  0
  -22.0130   -6.9010   22.4440 C   0  0  0  0  0  0  0  0  0  0  0  0
  -21.4440   -7.6300   23.5110 C   0  0  0  0  0  3  0  0  0  0  0  0
  -21.1230   -6.9770   24.7170 C   0  0  0  0  0  3  0  0  0  0  0  0
  -21.3630   -5.5960   24.8560 C   0  0  0  0  0  0  0  0  0  0  0  0
  -21.9230   -4.8670   23.7930 C   0  0  0  0  0  3  0  0  0  0  0  0
  -22.2450   -5.5180   22.5880 C   0  0  0  0  0  0  0  0  0  0  0  0
  -22.7680   -4.8060   21.5610 F   0  0  0  0  0  0  0  0  0  0  0  0
  -21.0450   -4.9680   26.0130 F   0  0  0  0  0  0  0  0  0  0  0  0
  -23.5500  -14.0860   21.0180 C   0  0  0  0  0  0  0  0  0  0  0  0
  -22.9060  -13.4350   21.9800 N   0  0  0  0  0  0  0  0  0  0  0  0
  -23.0950  -15.1090   20.5160 O   0  0  0  0  0  0  0  0  0  0  0  0
  -23.3040  -12.6060   22.4040 H   0  0  0  0  0  0  0  0  0  0  0  0
  -22.0040  -13.7670   22.2920 H   0  0  0  0  0  0  0  0  0  0  0  0
  -26.1480  -15.6870   20.0490 N   0  0  0  0  0  0  0  0  0  0  0  0
  -25.4250  -16.3670   20.2740 H   0  0  0  0  0  0  0  0  0  0  0  0
  -26.9990  -16.1180   19.7110 H   0  0  0  0  0  0  0  0  0  0  0  0
  7  6  1  0
  8 19  2  0
  9 14  1  0
  9  7  1  0
 10 18  1  0
 10 20  1  0
 11 16  1  0
 11 13  1  0
 11 17  1  0
 12 18  1  0
 13 14  1  0
 13 12  1  0
 15 16  1  0
 15  9  1  0
 17 10  1  0
 18  8  1  0
 20 22  2  0
 21 23  1  0
 21 20  1  0
 24 33  2  0
 24 29  1  0
 25 21  1  0
 25 29  1  0
 26 25  1  0
 27 28  1  0
 27 26  1  0
 28 24  1  0
 29 30  2  0
 30 31  1  0
 32 31  2  0
 33 32  1  0
 34  8  1  0
 34 35  1  0
 34 44  1  0
 35 38  1  0
 36 35  1  0
 36 40  1  0
 37 36  2  0
 40 39  1  0
 42 40  1  0
 42 43  1  0
 42 41  1  0
 44 47  1  1
 44 45  1  0
 46 44  1  0
 49 50  1  0
 50 52  1  0
 51 49  1  0
 51 53  1  0
 54 48  1  0
 54 52  1  0
 54 55  1  0
 57 63  1  0
 57 65  1  0
 58 63  1  0
 59 60  1  0
 59 58  1  0
 61 60  1  0
 61 70  1  0
 61 62  1  0
 63 62  1  0
 64 57  2  0
 66 65  1  0
 67 68  2  0
 68 87  1  0
 69 68  1  0
 69 72  1  0
 70 71  1  0
 70 67  1  0
 71 69  2  0
 72 73  1  0
 73 74  2  0
 75 78  1  0
 75 74  1  0
 76 75  2  0
 77 76  1  0
 77 72  2  0
 78 79  1  0
 79 84  2  0
 79 80  1  0
 80 81  2  0
 81 82  1  0
 82 86  1  0
 83 82  2  0
 84 83  1  0
 85 84  1  0
 87 88  1  0
 88 91  1  0
 88 90  1  0
 89 87  2  0
 92 67  1  0
 92 93  1  0
 94 92  1  0
M  ISO  4   6 101   7 101  57 100  65 100
M  END
>  <TORSDO>  (11) 
F 24

>  <SCORE>  (11) 
-14.185

>  <name>  (11) 
10

>  <ligand_id>  (11) 
10

>  <original_smiles>  (11) 
[H]c1c([H])c([H])c2c(c1[H])C([H])([H])C([H])([H])C([H])([H])C2([H])N([H])C(=O)C1([H])N(C(=O)C([H])(N([H])C(=O)C([H])(N([H])C([H])([H])[H])C([H])([H])[H])C(C([H])([H])[H])(C([H])([H])[H])C([H])([H])[H])C([H])([H])c2c([H])c(OC([H])([H])C([H])([H])C([H])([H])C([H])([H])C([H])([H])C([H])([H])C([H])([H])[N+]3([H])C([H])([H])C([H])([H])C([H])([H])C([H])([H])C3([H])C([H])([H])N([H])C(=O)N3C([H])([H])C([H])([H])C([H])([H])C([H])(n4nc(-c5c([H])c([H])c(Oc6c([H])c([H])c(F)c([H])c6F)c([H])c5[H])c(C(=O)N([H])[H])c4N([H])[H])C3([H])[H])c([H])c([H])c2C1([H])[H]

>  <smiles>  (11) 
[H]c1c([H])c([H])c2c(c1[H])C([H])([H])C([H])([H])C([H])([H])C2([H])N([H])C(=O)C1([H])N(C(=O)C([H])(N([H])C(=O)C([H])(N([H])C([H])([H])[H])C([H])([H])[H])C(C([H])([H])[H])(C([H])([H])[H])C([H])([H])[H])C([H])([H])c2c([H])c(OC([H])([H])C([H])([H])C([H])([H])C([H])([H])C([H])([H])C([H])([H])C([H])([H])[N+]3([H])C([H])([H])C([H])([H])C([H])([H])C([H])([H])C3([H])C([H])([H])N([H])C(=O)N3C([H])([H])C([H])([H])C([H])([H])C([H])(n4nc(-c5c([H])c([H])c(Oc6c([H])c([H])c(F)c([H])c6F)c([H])c5[H])c(C(=O)N([H])[H])c4N([H])[H])C3([H])[H])c([H])c([H])c2C1([H])[H]

$$$$
11:0:0
     RDKit          3D

 93100  0  0  1  0  0  0  0  0999 V2000
  -29.2120  -22.8270   21.0500 C   0  0  0  0  0  0  0  0  0  0  0  0
  -30.2510  -22.3520   21.7480 N   0  0  0  0  0  0  0  0  0  0  0  0
  -28.3530  -22.1000   20.5470 O   0  0  0  0  0  0  0  0  0  0  0  0
  -30.8820  -23.0300   22.1510 H   0  0  0  0  0  0  0  0  0  0  0  0
  -30.6310  -20.9530   21.9150 C   0  0  0  0  0  2  0  0  0  0  0  0
  -31.7990  -20.6300   20.9660 C   0  0  0  0  0  2  0  0  0  0  0  0
  -32.6220  -19.4060   21.3970 C   0  0  0  0  0  2  0  0  0  0  0  0
  -33.7020  -19.0200   20.3640 C   0  0  0  0  0  2  0  0  0  0  0  0
  -33.8820  -17.5060   20.1670 C   0  0  0  0  0  2  0  0  0  0  0  0
  -32.7860  -16.8460   19.3080 C   0  0  0  0  0  2  0  0  0  0  0  0
  -33.1890  -15.4550   18.8000 C   0  0  0  0  0  2  0  0  0  0  0  0
  -32.7510  -13.1080   19.5410 C   0  0  0  0  0  0  0  0  0  0  0  0
  -32.5020  -11.1440   21.0030 C   0  0  0  0  0  2  0  0  0  0  0  0
  -31.7260   -9.9850   20.3600 C   0  0  0  0  0  2  0  0  0  0  0  0
  -30.2170  -10.1570   20.6000 C   0  0  0  0  0  2  0  0  0  0  0  0
  -29.7140  -11.5620   20.1800 C   0  0  0  0  0  3  0  0  0  0  0  0
  -30.6040  -12.6760   20.7800 C   0  0  0  0  0  2  0  0  0  0  0  0
  -32.0180  -12.4130   20.4410 N   0  0  0  0  0  0  0  0  0  0  0  0
  -33.7140  -12.6460   18.9230 O   0  0  0  0  0  0  0  0  0  0  0  0
  -32.4820  -14.4190   19.5450 N   0  0  0  0  0  0  0  0  0  0  0  0
  -31.7470  -14.7140   20.1700 H   0  0  0  0  0  0  0  0  0  0  0  0
  -27.5740  -12.9180   20.6570 C   0  0  0  0  0  0  0  0  0  0  0  0
  -26.2900  -12.5310   20.9340 C   0  0  0  0  0  0  0  0  0  0  0  0
  -26.3020  -11.1040   20.9550 C   0  0  0  0  0  0  0  0  0  0  0  0
  -28.3060  -11.7450   20.5340 N   0  0  0  0  0  0  0  0  0  0  0  0
  -27.5350  -10.6520   20.7670 N   0  0  0  0  0  0  0  0  0  0  0  0
  -25.2040  -10.1390   21.0900 C   0  0  0  0  0  0  0  0  0  0  0  0
  -25.2360   -9.1120   22.0610 C   0  0  0  0  0  3  0  0  0  0  0  0
  -24.1590   -8.2100   22.1820 C   0  0  0  0  0  3  0  0  0  0  0  0
  -23.0330   -8.3290   21.3330 C   0  0  0  0  0  0  0  0  0  0  0  0
  -23.0160   -9.3380   20.3540 C   0  0  0  0  0  3  0  0  0  0  0  0
  -24.0920  -10.2330   20.2300 C   0  0  0  0  0  3  0  0  0  0  0  0
  -21.9530   -7.4800   21.3610 O   0  0  0  0  0  0  0  0  0  0  0  0
  -21.6340   -6.7560   22.4830 C   0  0  0  0  0  0  0  0  0  0  0  0
  -21.2960   -7.3830   23.7020 C   0  0  0  0  0  3  0  0  0  0  0  0
  -20.9100   -6.6030   24.8110 C   0  0  0  0  0  3  0  0  0  0  0  0
  -20.8500   -5.2010   24.6990 C   0  0  0  0  0  0  0  0  0  0  0  0
  -21.1810   -4.5760   23.4840 C   0  0  0  0  0  3  0  0  0  0  0  0
  -21.5690   -5.3520   22.3780 C   0  0  0  0  0  0  0  0  0  0  0  0
  -21.8670   -4.7450   21.2030 F   0  0  0  0  0  0  0  0  0  0  0  0
  -20.4700   -4.4530   25.7610 F   0  0  0  0  0  0  0  0  0  0  0  0
  -25.0960  -13.4320   21.0740 C   0  0  0  0  0  0  0  0  0  0  0  0
  -24.1520  -13.0670   21.9340 N   0  0  0  0  0  0  0  0  0  0  0  0
  -25.0170  -14.4920   20.4530 O   0  0  0  0  0  0  0  0  0  0  0  0
  -24.2230  -12.2060   22.4570 H   0  0  0  0  0  0  0  0  0  0  0  0
  -23.3450  -13.6590   22.0730 H   0  0  0  0  0  0  0  0  0  0  0  0
  -28.1750  -14.1600   20.4810 N   0  0  0  0  0  0  0  0  0  0  0  0
  -27.6480  -15.0270   20.5190 H   0  0  0  0  0  0  0  0  0  0  0  0
  -29.1490  -14.2990   20.2440 H   0  0  0  0  0  0  0  0  0  0  0  0
  -29.1560  -24.3470   20.8710 C   0  0  0  0  0  2  0  0  0  0  0  0
  -27.8230  -24.8710   20.3010 C   0  0  0  0  0  2  0  0  0  0  0  0
  -27.9240  -26.3330   19.8340 C   0  0  0  0  0  2  0  0  0  0  0  0
  -26.9460  -26.6280   18.8450 O   0  0  0  0  0  0  0  0  0  0  0  0
  -24.5780  -31.6650   23.3000 C   0  0  0  0  0  0  0  0  0  0  0  0
  -25.9200  -27.4430   19.2460 C   0  0  0  0  0  0  0  0  0  0  0  0
  -22.8880  -30.6860   21.7730 C   0  0  0  0  0  3  0  0  0  0  0  0
  -23.8110  -29.1910   19.9210 C   0  0  0  0  0  0  0  0  0  0  0  0
  -25.3570  -30.7490   21.1170 C   0  0  0  0  0  2  0  0  0  0  0  0
  -25.1200  -29.4820   20.3280 C   0  0  0  0  0  0  0  0  0  0  0  0
  -26.1790  -28.6100   19.9940 C   0  0  0  0  0  3  0  0  0  0  0  0
  -24.6020  -27.1560   18.8410 C   0  0  0  0  0  3  0  0  0  0  0  0
  -23.5440  -28.0230   19.1840 C   0  0  0  0  0  3  0  0  0  0  0  0
  -22.7390  -30.1850   20.3090 C   0  0  0  0  0  2  0  0  0  0  0  0
  -24.3050  -31.0400   22.1200 N   0  0  0  0  0  0  0  0  0  0  0  0
  -23.6680  -31.9880   24.0760 O   0  0  0  0  0  0  0  0  0  0  0  0
  -22.2750  -29.6260   22.7180 C   0  0  0  0  0  0  0  0  0  0  0  0
  -20.9490  -29.4330   22.6200 N   0  0  0  0  0  0  0  0  0  0  0  0
  -22.9860  -28.9770   23.4900 O   0  0  0  0  0  0  0  0  0  0  0  0
  -20.4340  -30.0110   21.9700 H   0  0  0  0  0  0  0  0  0  0  0  0
  -17.6650  -27.9680   22.9420 C   0  0  0  0  0  0  0  0  0  0  0  0
  -20.1630  -28.4620   23.3790 C   0  0  0  0  0  3  0  0  0  0  0  0
  -20.4300  -27.0220   22.8810 C   0  0  0  0  0  2  0  0  0  0  0  0
  -19.4360  -26.5630   21.8110 C   0  0  0  0  0  2  0  0  0  0  0  0
  -18.0030  -26.6130   22.3500 C   0  0  0  0  0  2  0  0  0  0  0  0
  -18.6790  -28.8430   23.4120 C   0  0  0  0  0  0  0  0  0  0  0  0
  -18.3120  -30.1080   23.9210 C   0  0  0  0  0  3  0  0  0  0  0  0
  -16.9610  -30.5000   23.9680 C   0  0  0  0  0  3  0  0  0  0  0  0
  -15.9590  -29.6230   23.5160 C   0  0  0  0  0  3  0  0  0  0  0  0
  -16.3100  -28.3590   23.0090 C   0  0  0  0  0  3  0  0  0  0  0  0
  -26.0390  -32.0220   23.7220 C   0  0  0  0  0  3  0  0  0  0  0  0
  -26.6630  -30.9800   24.7300 C   0  0  1  0  0  0  0  0  0  0  0  0
  -25.7700  -30.6910   25.9590 C   0  0  0  0  0  1  0  0  0  0  0  0
  -26.9330  -29.6340   24.0190 C   0  0  0  0  0  1  0  0  0  0  0  0
  -28.0310  -31.4940   25.2380 C   0  0  0  0  0  1  0  0  0  0  0  0
  -26.0150  -33.3670   24.3110 N   0  0  0  0  0  0  0  0  0  0  0  0
  -26.5150  -34.4600   23.7220 C   0  0  0  0  0  0  0  0  0  0  0  0
  -27.1200  -34.4230   22.6470 O   0  0  0  0  0  0  0  0  0  0  0  0
  -25.4940  -33.4780   25.1700 H   0  0  0  0  0  0  0  0  0  0  0  0
  -25.1880  -36.5950   23.7420 C   0  0  0  0  0  1  0  0  0  0  0  0
  -26.3120  -35.8100   24.4380 C   0  0  0  0  0  3  0  0  0  0  0  0
  -28.5730  -36.0690   25.3550 C   0  0  0  0  0  1  0  0  0  0  0  0
  -27.5380  -36.6360   24.4940 N   0  0  0  0  0  0  0  0  0  0  0  0
  -27.3310  -37.5770   24.8230 H   0  0  0  0  0  0  0  0  0  0  0  0
  1  2  1  0
  2  5  1  0
  2  4  1  0
  3  1  2  0
  6  7  1  0
  6  5  1  0
  8  7  1  0
  9  8  1  0
 10  9  1  0
 11 10  1  0
 11 20  1  0
 12 20  1  0
 12 18  1  0
 14 15  1  0
 14 13  1  0
 16 25  1  0
 16 15  1  0
 16 17  1  0
 18 17  1  0
 18 13  1  0
 19 12  2  0
 20 21  1  0
 22 23  2  0
 23 24  1  0
 23 42  1  0
 24 27  1  0
 25 22  1  0
 25 26  1  0
 26 24  2  0
 27 28  1  0
 28 29  2  0
 30 33  1  0
 30 29  1  0
 31 30  2  0
 32 31  1  0
 32 27  2  0
 33 34  1  0
 34 35  1  0
 35 36  2  0
 37 36  1  0
 37 41  1  0
 38 37  2  0
 39 34  2  0
 39 38  1  0
 40 39  1  0
 42 43  1  0
 43 46  1  0
 43 45  1  0
 44 42  2  0
 47 48  1  0
 47 22  1  0
 49 47  1  0
 50  1  1  0
 51 50  1  0
 52 51  1  0
 53 55  1  0
 53 52  1  0
 54 65  2  0
 55 60  1  0
 56 64  1  0
 56 66  1  0
 57 63  1  0
 57 59  1  0
 58 64  1  0
 59 58  1  0
 60 59  2  0
 61 62  1  0
 61 55  2  0
 62 57  2  0
 63 56  1  0
 64 54  1  0
 66 68  2  0
 67 66  1  0
 69 67  1  0
 70 79  2  0
 70 75  1  0
 71 67  1  0
 71 75  1  0
 72 71  1  0
 73 74  1  0
 73 72  1  0
 74 70  1  0
 75 76  2  0
 76 77  1  0
 78 77  2  0
 79 78  1  0
 80 54  1  0
 80 85  1  0
 80 81  1  0
 81 84  1  1
 81 82  1  0
 83 81  1  0
 85 88  1  0
 86 85  1  0
 86 90  1  0
 87 86  2  0
 90 89  1  0
 90 92  1  0
 92 93  1  0
 92 91  1  0
M  ISO  4  12 100  20 100  52 101  53 101
M  END
>  <TORSDO>  (12) 
F 26

>  <SCORE>  (12) 
-9.379

>  <name>  (12) 
11

>  <ligand_id>  (12) 
11

>  <original_smiles>  (12) 
[H]c1c([H])c([H])c2c(c1[H])C([H])([H])C([H])([H])C([H])([H])C2([H])N([H])C(=O)C1([H])N(C(=O)C([H])(N([H])C(=O)C([H])(N([H])C([H])([H])[H])C([H])([H])[H])C(C([H])([H])[H])(C([H])([H])[H])C([H])([H])[H])C([H])([H])c2c([H])c(OC([H])([H])C([H])([H])C([H])([H])C(=O)N([H])C([H])([H])C([H])([H])C([H])([H])C([H])([H])C([H])([H])C([H])([H])C([H])([H])N([H])C(=O)N3C([H])([H])C([H])([H])C([H])([H])C([H])(n4nc(-c5c([H])c([H])c(Oc6c([H])c([H])c(F)c([H])c6F)c([H])c5[H])c(C(=O)N([H])[H])c4N([H])[H])C3([H])[H])c([H])c([H])c2C1([H])[H]

>  <smiles>  (12) 
[H]c1c([H])c([H])c2c(c1[H])C([H])([H])C([H])([H])C([H])([H])C2([H])N([H])C(=O)C1([H])N(C(=O)C([H])(N([H])C(=O)C([H])(N([H])C([H])([H])[H])C([H])([H])[H])C(C([H])([H])[H])(C([H])([H])[H])C([H])([H])[H])C([H])([H])c2c([H])c(OC([H])([H])C([H])([H])C([H])([H])C(=O)N([H])C([H])([H])C([H])([H])C([H])([H])C([H])([H])C([H])([H])C([H])([H])C([H])([H])N([H])C(=O)N3C([H])([H])C([H])([H])C([H])([H])C([H])(n4nc(-c5c([H])c([H])c(Oc6c([H])c([H])c(F)c([H])c6F)c([H])c5[H])c(C(=O)N([H])[H])c4N([H])[H])C3([H])[H])c([H])c([H])c2C1([H])[H]

$$$$
12:0:0
     RDKit          3D

 95103  0  0  1  0  0  0  0  0999 V2000
  -29.9450  -20.3130   20.6060 N   0  0  0  0  0  4  0  0  0  0  0  0
  -30.6580  -20.2930   19.8920 H   0  0  0  0  0  0  0  0  0  0  0  0
  -30.3610  -20.7070   21.4350 H   0  0  0  0  0  0  0  0  0  0  0  0
  -30.6820  -14.6890   20.2090 C   0  0  0  0  0  0  0  0  0  0  0  0
  -30.3680  -12.5020   19.0810 C   0  0  0  0  0  2  0  0  0  0  0  0
  -29.3900  -12.6680   17.9010 C   0  0  0  0  0  2  0  0  0  0  0  0
  -27.9330  -12.4830   18.3710 C   0  0  0  0  0  2  0  0  0  0  0  0
  -27.6090  -13.3170   19.6410 C   0  0  0  0  0  3  0  0  0  0  0  0
  -28.7070  -13.1750   20.7180 C   0  0  0  0  0  2  0  0  0  0  0  0
  -29.9970  -13.5090   20.0940 N   0  0  0  0  0  0  0  0  0  0  0  0
  -31.8480  -14.7900   19.8190 O   0  0  0  0  0  0  0  0  0  0  0  0
  -30.7970  -18.0990   21.5270 C   0  0  0  0  0  2  0  0  0  0  0  0
  -30.5220  -16.5920   21.8140 C   0  0  0  0  0  2  0  0  0  0  0  0
  -29.0210  -16.5300   19.8350 C   0  0  0  0  0  2  0  0  0  0  0  0
  -29.2380  -18.0700   19.5990 C   0  0  0  0  0  3  0  0  0  0  0  0
  -29.6130  -18.8650   20.8750 C   0  0  0  0  0  3  0  0  0  0  0  0
  -30.0180  -15.8040   20.6660 N   0  0  0  0  0  0  0  0  0  0  0  0
  -25.2400  -13.9000   20.4400 C   0  0  0  0  0  0  0  0  0  0  0  0
  -24.1890  -13.1170   20.8340 C   0  0  0  0  0  0  0  0  0  0  0  0
  -24.6580  -11.7690   20.7790 C   0  0  0  0  0  0  0  0  0  0  0  0
  -26.2800  -13.0250   20.1680 N   0  0  0  0  0  0  0  0  0  0  0  0
  -25.9390  -11.7390   20.4330 N   0  0  0  0  0  0  0  0  0  0  0  0
  -23.9460  -10.5010   20.9750 C   0  0  0  0  0  0  0  0  0  0  0  0
  -24.3950   -9.5400   21.9060 C   0  0  0  0  0  3  0  0  0  0  0  0
  -23.6830   -8.3360   22.0900 C   0  0  0  0  0  3  0  0  0  0  0  0
  -22.5080   -8.0850   21.3400 C   0  0  0  0  0  0  0  0  0  0  0  0
  -22.0820   -9.0340   20.3940 C   0  0  0  0  0  3  0  0  0  0  0  0
  -22.7950  -10.2300   20.2100 C   0  0  0  0  0  3  0  0  0  0  0  0
  -21.7650   -6.9330   21.4340 O   0  0  0  0  0  0  0  0  0  0  0  0
  -21.7050   -6.2090   22.5970 C   0  0  0  0  0  0  0  0  0  0  0  0
  -21.2320   -6.7740   23.8030 C   0  0  0  0  0  3  0  0  0  0  0  0
  -21.1240   -5.9720   24.9580 C   0  0  0  0  0  3  0  0  0  0  0  0
  -21.4750   -4.6090   24.9060 C   0  0  0  0  0  0  0  0  0  0  0  0
  -21.9400   -4.0450   23.7050 C   0  0  0  0  0  3  0  0  0  0  0  0
  -22.0510   -4.8440   22.5530 C   0  0  0  0  0  0  0  0  0  0  0  0
  -22.4780   -4.2920   21.3910 F   0  0  0  0  0  0  0  0  0  0  0  0
  -21.3640   -3.8370   26.0120 F   0  0  0  0  0  0  0  0  0  0  0  0
  -22.7960  -13.5830   21.1470 C   0  0  0  0  0  0  0  0  0  0  0  0
  -22.0930  -12.8690   22.0210 N   0  0  0  0  0  0  0  0  0  0  0  0
  -22.3390  -14.6130   20.6540 O   0  0  0  0  0  0  0  0  0  0  0  0
  -22.4770  -12.0350   22.4400 H   0  0  0  0  0  0  0  0  0  0  0  0
  -21.1570  -13.1560   22.2700 H   0  0  0  0  0  0  0  0  0  0  0  0
  -25.3890  -15.2730   20.2680 N   0  0  0  0  0  0  0  0  0  0  0  0
  -24.6160  -15.9170   20.3890 H   0  0  0  0  0  0  0  0  0  0  0  0
  -26.2200  -15.7120   19.8930 H   0  0  0  0  0  0  0  0  0  0  0  0
  -30.2680  -18.3070   18.5850 N   0  0  0  0  0  0  0  0  0  0  0  0
  -30.9820  -17.5830   18.6500 H   0  0  0  0  0  0  0  0  0  0  0  0
  -30.7890  -18.7540   16.2380 C   0  0  0  0  0  1  0  0  0  0  0  0
  -29.7070  -18.3310   17.2370 C   0  0  0  0  0  2  0  0  0  0  0  0
  -28.8960  -21.2990   20.1530 C   0  0  0  0  0  2  0  0  0  0  0  0
  -29.0780  -22.7490   20.7660 C   0  0  0  0  0  3  0  0  0  0  0  0
  -30.3870  -22.9480   20.9330 F   0  0  0  0  0  0  0  0  0  0  0  0
  -28.5020  -24.0220   20.0140 C   0  0  0  0  0  2  0  0  0  0  0  0
  -28.4300  -25.3450   20.8760 C   0  0  0  0  0  2  0  0  0  0  0  0
  -28.4590  -26.6500   20.2150 O   0  0  0  0  0  0  0  0  0  0  0  0
  -24.6310  -31.9380   23.2440 C   0  0  0  0  0  0  0  0  0  0  0  0
  -27.3040  -27.4220   20.2380 C   0  0  0  0  0  0  0  0  0  0  0  0
  -23.4430  -30.5140   21.6100 C   0  0  0  0  0  3  0  0  0  0  0  0
  -24.9120  -28.9570   20.2140 C   0  0  0  0  0  0  0  0  0  0  0  0
  -25.9730  -30.8690   21.4250 C   0  0  0  0  0  2  0  0  0  0  0  0
  -26.0700  -29.4850   20.8010 C   0  0  0  0  0  0  0  0  0  0  0  0
  -27.2720  -28.7290   20.8010 C   0  0  0  0  0  3  0  0  0  0  0  0
  -26.1280  -26.9200   19.6470 C   0  0  0  0  0  3  0  0  0  0  0  0
  -24.9380  -27.6770   19.6310 C   0  0  0  0  0  3  0  0  0  0  0  0
  -23.6660  -29.8170   20.2400 C   0  0  0  0  0  2  0  0  0  0  0  0
  -24.7010  -31.1250   22.1510 N   0  0  0  0  0  0  0  0  0  0  0  0
  -23.5450  -32.2100   23.7750 O   0  0  0  0  0  0  0  0  0  0  0  0
  -22.7890  -29.5020   22.5790 C   0  0  0  0  0  0  0  0  0  0  0  0
  -21.4650  -29.3100   22.4460 N   0  0  0  0  0  0  0  0  0  0  0  0
  -23.4700  -28.8920   23.4070 O   0  0  0  0  0  0  0  0  0  0  0  0
  -20.9760  -29.8530   21.7500 H   0  0  0  0  0  0  0  0  0  0  0  0
  -18.0950  -28.1050   22.9460 C   0  0  0  0  0  0  0  0  0  0  0  0
  -20.6520  -28.3740   23.2220 C   0  0  0  0  0  3  0  0  0  0  0  0
  -20.7590  -26.9390   22.6550 C   0  0  0  0  0  2  0  0  0  0  0  0
  -19.6640  -26.6070   21.6390 C   0  0  0  0  0  2  0  0  0  0  0  0
  -18.2770  -26.7550   22.2730 C   0  0  0  0  0  2  0  0  0  0  0  0
  -19.2110  -28.8730   23.3760 C   0  0  0  0  0  0  0  0  0  0  0  0
  -18.9870  -30.1380   23.9610 C   0  0  0  0  0  3  0  0  0  0  0  0
  -17.6800  -30.6360   24.1220 C   0  0  0  0  0  3  0  0  0  0  0  0
  -16.5780  -29.8650   23.7120 C   0  0  0  0  0  3  0  0  0  0  0  0
  -16.7870  -28.6020   23.1280 C   0  0  0  0  0  3  0  0  0  0  0  0
  -25.9080  -32.5850   23.8650 C   0  0  0  0  0  3  0  0  0  0  0  0
  -26.4200  -31.8320   25.1550 C   0  0  1  0  0  0  0  0  0  0  0  0
  -25.3210  -31.6020   26.2170 C   0  0  0  0  0  1  0  0  0  0  0  0
  -27.0160  -30.4540   24.7830 C   0  0  0  0  0  1  0  0  0  0  0  0
  -27.5570  -32.6440   25.8190 C   0  0  0  0  0  1  0  0  0  0  0  0
  -25.5940  -33.9860   24.1760 N   0  0  0  0  0  0  0  0  0  0  0  0
  -25.9270  -35.0310   23.4070 C   0  0  0  0  0  0  0  0  0  0  0  0
  -26.6040  -34.9180   22.3810 O   0  0  0  0  0  0  0  0  0  0  0  0
  -25.0020  -34.1500   24.9760 H   0  0  0  0  0  0  0  0  0  0  0  0
  -24.1990  -36.8100   23.0080 C   0  0  0  0  0  1  0  0  0  0  0  0
  -25.4280  -36.4210   23.8450 C   0  0  0  0  0  3  0  0  0  0  0  0
  -27.5440  -37.3180   24.7040 C   0  0  0  0  0  1  0  0  0  0  0  0
  -26.4590  -37.4760   23.7420 N   0  0  0  0  0  0  0  0  0  0  0  0
  -26.0450  -38.3950   23.8790 H   0  0  0  0  0  0  0  0  0  0  0  0
  1  3  1  0
  2  1  1  0
  4 17  1  0
  5 10  1  0
  6  7  1  0
  6  5  1  0
  8  7  1  0
  8 21  1  0
  8  9  1  0
 10  4  1  0
 10  9  1  0
 11  4  2  0
 12 13  1  0
 14 17  1  0
 15 46  1  0
 15 14  1  0
 15 16  1  0
 16  1  1  0
 16 12  1  0
 17 13  1  0
 18 19  2  0
 19 38  1  0
 20 19  1  0
 20 23  1  0
 21 22  1  0
 21 18  1  0
 22 20  2  0
 23 24  1  0
 24 25  2  0
 26 29  1  0
 26 25  1  0
 27 26  2  0
 28 27  1  0
 28 23  2  0
 29 30  1  0
 30 31  1  0
 31 32  2  0
 33 32  1  0
 33 37  1  0
 34 33  2  0
 35 30  2  0
 35 34  1  0
 36 35  1  0
 38 39  1  0
 39 42  1  0
 39 41  1  0
 40 38  2  0
 43 44  1  0
 43 18  1  0
 45 43  1  0
 46 47  1  0
 48 49  1  0
 49 46  1  0
 50  1  1  0
 50 51  1  0
 51 52  1  0
 53 51  1  0
 53 54  1  0
 55 57  1  0
 55 54  1  0
 56 67  2  0
 57 62  1  0
 58 66  1  0
 58 68  1  0
 59 65  1  0
 59 61  1  0
 60 66  1  0
 61 62  2  0
 61 60  1  0
 63 57  2  0
 64 63  1  0
 64 59  2  0
 65 58  1  0
 66 56  1  0
 68 70  2  0
 69 68  1  0
 71 69  1  0
 72 81  2  0
 72 77  1  0
 73 69  1  0
 73 77  1  0
 74 73  1  0
 75 76  1  0
 75 74  1  0
 76 72  1  0
 77 78  2  0
 78 79  1  0
 80 79  2  0
 81 80  1  0
 82 56  1  0
 82 87  1  0
 82 83  1  0
 83 86  1  1
 83 84  1  0
 85 83  1  0
 87 90  1  0
 88 92  1  0
 88 87  1  0
 89 88  2  0
 92 91  1  0
 94 92  1  0
 94 95  1  0
 94 93  1  0
M  ISO  4   4 100  17 100  54 101  55 101
M  END
>  <TORSDO>  (13) 
F 22

>  <SCORE>  (13) 
-13.365

>  <name>  (13) 
12

>  <ligand_id>  (13) 
12

>  <original_smiles>  (13) 
[H]c1c([H])c([H])c2c(c1[H])C([H])([H])C([H])([H])C([H])([H])C2([H])N([H])C(=O)C1([H])N(C(=O)C([H])(N([H])C(=O)C([H])(N([H])C([H])([H])[H])C([H])([H])[H])C(C([H])([H])[H])(C([H])([H])[H])C([H])([H])[H])C([H])([H])c2c([H])c(OC([H])([H])C([H])([H])C([H])(F)C([H])([H])[N+]([H])([H])C3([H])C([H])([H])C([H])([H])N(C(=O)N4C([H])([H])C([H])([H])C([H])([H])C([H])(n5nc(-c6c([H])c([H])c(Oc7c([H])c([H])c(F)c([H])c7F)c([H])c6[H])c(C(=O)N([H])[H])c5N([H])[H])C4([H])[H])C([H])([H])C3([H])N([H])C([H])([H])C([H])([H])[H])c([H])c([H])c2C1([H])[H]

>  <smiles>  (13) 
[H]c1c([H])c([H])c2c(c1[H])C([H])([H])C([H])([H])C([H])([H])C2([H])N([H])C(=O)C1([H])N(C(=O)C([H])(N([H])C(=O)C([H])(N([H])C([H])([H])[H])C([H])([H])[H])C(C([H])([H])[H])(C([H])([H])[H])C([H])([H])[H])C([H])([H])c2c([H])c(OC([H])([H])C([H])([H])C([H])(F)C([H])([H])[N+]([H])([H])C3([H])C([H])([H])C([H])([H])N(C(=O)N4C([H])([H])C([H])([H])C([H])([H])C([H])(n5nc(-c6c([H])c([H])c(Oc7c([H])c([H])c(F)c([H])c7F)c([H])c6[H])c(C(=O)N([H])[H])c5N([H])[H])C4([H])[H])C([H])([H])C3([H])N([H])C([H])([H])C([H])([H])[H])c([H])c([H])c2C1([H])[H]

$$$$
13:0:0
     RDKit          3D

 97105  0  0  1  0  0  0  0  0999 V2000
  -28.4860  -22.3000   22.8130 C   0  0  0  0  0  2  0  0  0  0  0  0
  -27.8480  -22.9150   21.5430 C   0  0  0  0  0  2  0  0  0  0  0  0
  -28.2140  -24.3340   21.3010 N   0  0  0  0  0  4  0  0  0  0  0  0
  -29.2150  -24.4190   21.2420 H   0  0  0  0  0  0  0  0  0  0  0  0
  -27.9030  -24.8990   22.0770 H   0  0  0  0  0  0  0  0  0  0  0  0
  -27.6290  -24.8880   20.0540 C   0  0  0  0  0  2  0  0  0  0  0  0
  -28.2080  -26.2630   19.6470 C   0  0  0  0  0  2  0  0  0  0  0  0
  -27.5800  -27.4790   20.3570 C   0  0  0  0  0  2  0  0  0  0  0  0
  -28.1180  -27.6540   21.6680 O   0  0  0  0  0  0  0  0  0  0  0  0
  -27.9570  -31.8580   27.3990 C   0  0  0  0  0  0  0  0  0  0  0  0
  -27.3220  -28.2840   22.6020 C   0  0  0  0  0  0  0  0  0  0  0  0
  -25.8300  -30.7220   26.8420 C   0  0  0  0  0  3  0  0  0  0  0  0
  -25.7490  -29.5820   24.5600 C   0  0  0  0  0  0  0  0  0  0  0  0
  -27.5290  -31.2760   25.0150 C   0  0  0  0  0  2  0  0  0  0  0  0
  -27.0320  -30.0570   24.2660 C   0  0  0  0  0  0  0  0  0  0  0  0
  -27.8240  -29.4060   23.2950 C   0  0  0  0  0  3  0  0  0  0  0  0
  -26.0320  -27.8030   22.9250 C   0  0  0  0  0  3  0  0  0  0  0  0
  -25.2440  -28.4520   23.8950 C   0  0  0  0  0  3  0  0  0  0  0  0
  -24.9640  -30.3310   25.6140 C   0  0  0  0  0  2  0  0  0  0  0  0
  -27.1610  -31.2910   26.4500 N   0  0  0  0  0  0  0  0  0  0  0  0
  -27.5810  -31.9550   28.5750 O   0  0  0  0  0  0  0  0  0  0  0  0
  -25.9400  -29.4980   27.7790 C   0  0  0  0  0  0  0  0  0  0  0  0
  -25.0320  -29.4190   28.7670 N   0  0  0  0  0  0  0  0  0  0  0  0
  -26.8010  -28.6350   27.5950 O   0  0  0  0  0  0  0  0  0  0  0  0
  -24.3650  -30.1720   28.8580 H   0  0  0  0  0  0  0  0  0  0  0  0
  -23.4060  -28.4270   31.8360 C   0  0  0  0  0  0  0  0  0  0  0  0
  -24.9180  -28.3360   29.7430 C   0  0  0  0  0  3  0  0  0  0  0  0
  -23.9720  -27.2230   29.2350 C   0  0  0  0  0  2  0  0  0  0  0  0
  -22.5230  -27.4060   29.6960 C   0  0  0  0  0  2  0  0  0  0  0  0
  -22.4450  -27.4220   31.2250 C   0  0  0  0  0  2  0  0  0  0  0  0
  -24.5580  -28.8690   31.1340 C   0  0  0  0  0  0  0  0  0  0  0  0
  -25.3990  -29.8330   31.7330 C   0  0  0  0  0  3  0  0  0  0  0  0
  -25.1050  -30.3490   33.0070 C   0  0  0  0  0  3  0  0  0  0  0  0
  -23.9700  -29.9000   33.7040 C   0  0  0  0  0  3  0  0  0  0  0  0
  -23.1270  -28.9360   33.1220 C   0  0  0  0  0  3  0  0  0  0  0  0
  -29.3630  -32.4390   27.0510 C   0  0  0  0  0  3  0  0  0  0  0  0
  -30.5490  -31.4900   27.4760 C   0  0  1  0  0  0  0  0  0  0  0  0
  -30.4380  -30.9660   28.9270 C   0  0  0  0  0  1  0  0  0  0  0  0
  -30.6280  -30.2640   26.5350 C   0  0  0  0  0  1  0  0  0  0  0  0
  -31.8960  -32.2380   27.3370 C   0  0  0  0  0  1  0  0  0  0  0  0
  -29.4790  -33.7460   27.7110 N   0  0  0  0  0  0  0  0  0  0  0  0
  -29.3330  -34.9260   27.0930 C   0  0  0  0  0  0  0  0  0  0  0  0
  -29.1580  -35.0250   25.8750 O   0  0  0  0  0  0  0  0  0  0  0  0
  -29.5660  -33.7400   28.7170 H   0  0  0  0  0  0  0  0  0  0  0  0
  -27.9730  -36.7420   28.1750 C   0  0  0  0  0  1  0  0  0  0  0  0
  -29.3940  -36.1960   27.9630 C   0  0  0  0  0  3  0  0  0  0  0  0
  -31.6770  -36.9150   27.4180 C   0  0  0  0  0  1  0  0  0  0  0  0
  -30.2570  -37.2550   27.3990 N   0  0  0  0  0  0  0  0  0  0  0  0
  -30.1350  -38.1270   27.9080 H   0  0  0  0  0  0  0  0  0  0  0  0
  -30.0190  -22.0660   22.7530 C   0  0  0  0  0  2  0  0  0  0  0  0
  -30.4760  -21.4650   21.4740 N   0  0  0  0  0  4  0  0  0  0  0  0
  -30.1460  -20.5140   21.4420 H   0  0  0  0  0  0  0  0  0  0  0  0
  -30.0710  -21.9620   20.6970 H   0  0  0  0  0  0  0  0  0  0  0  0
  -31.9490  -21.4230   21.2910 C   0  0  0  0  0  2  0  0  0  0  0  0
  -32.3770  -21.4700   19.8030 C   0  0  0  0  0  2  0  0  0  0  0  0
  -32.4440  -26.6370   17.2170 C   0  0  0  0  0  0  0  0  0  0  0  0
  -32.1010  -28.3690   15.4950 C   0  0  0  0  0  2  0  0  0  0  0  0
  -30.9700  -29.3460   15.8610 C   0  0  0  0  0  2  0  0  0  0  0  0
  -29.6090  -28.7970   15.3920 C   0  0  0  0  0  2  0  0  0  0  0  0
  -29.3720  -27.3340   15.8480 C   0  0  0  0  0  3  0  0  0  0  0  0
  -30.5940  -26.4510   15.5080 C   0  0  0  0  0  2  0  0  0  0  0  0
  -31.8040  -27.0590   16.0940 N   0  0  0  0  0  0  0  0  0  0  0  0
  -33.2690  -27.3280   17.8270 O   0  0  0  0  0  0  0  0  0  0  0  0
  -33.2430  -23.1050   18.1130 C   0  0  0  0  0  3  0  0  0  0  0  0
  -32.3890  -22.8380   19.1140 C   0  0  0  0  0  0  0  0  0  0  0  0
  -33.2390  -24.3620   17.2660 C   0  0  0  0  0  2  0  0  0  0  0  0
  -31.3230  -23.8370   19.5130 C   0  0  0  0  0  3  0  0  0  0  0  0
  -31.3220  -25.1940   18.7680 C   0  0  0  0  0  3  0  0  0  0  0  0
  -32.2020  -25.3620   17.5920 N   0  0  0  0  0  0  0  0  0  0  0  0
  -27.0180  -26.2960   15.9130 C   0  0  0  0  0  0  0  0  0  0  0  0
  -26.1350  -25.9680   14.9190 C   0  0  0  0  0  0  0  0  0  0  0  0
  -26.7880  -26.2930   13.6910 C   0  0  0  0  0  0  0  0  0  0  0  0
  -28.1440  -26.7870   15.2740 N   0  0  0  0  0  0  0  0  0  0  0  0
  -28.0190  -26.7280   13.9210 N   0  0  0  0  0  0  0  0  0  0  0  0
  -26.2910  -26.2730   12.3090 C   0  0  0  0  0  0  0  0  0  0  0  0
  -26.9720  -25.5710   11.2910 C   0  0  0  0  0  3  0  0  0  0  0  0
  -26.4660  -25.5540    9.9730 C   0  0  0  0  0  3  0  0  0  0  0  0
  -25.2640  -26.2360    9.6660 C   0  0  0  0  0  0  0  0  0  0  0  0
  -24.6050  -26.9550   10.6780 C   0  0  0  0  0  3  0  0  0  0  0  0
  -25.1140  -26.9770   11.9870 C   0  0  0  0  0  3  0  0  0  0  0  0
  -24.7060  -26.2890    8.4130 O   0  0  0  0  0  0  0  0  0  0  0  0
  -24.8850  -25.2790    7.5020 C   0  0  0  0  0  0  0  0  0  0  0  0
  -24.4880  -23.9510    7.7700 C   0  0  0  0  0  3  0  0  0  0  0  0
  -24.6290  -22.9600    6.7780 C   0  0  0  0  0  3  0  0  0  0  0  0
  -25.1550  -23.2960    5.5160 C   0  0  0  0  0  0  0  0  0  0  0  0
  -25.5450  -24.6180    5.2470 C   0  0  0  0  0  3  0  0  0  0  0  0
  -25.4070  -25.6060    6.2350 C   0  0  0  0  0  0  0  0  0  0  0  0
  -25.7640  -26.8840    5.9610 F   0  0  0  0  0  0  0  0  0  0  0  0
  -25.2830  -22.3450    4.5610 F   0  0  0  0  0  0  0  0  0  0  0  0
  -24.7260  -25.4760   15.0950 C   0  0  0  0  0  0  0  0  0  0  0  0
  -24.2490  -24.6450   14.1760 N   0  0  0  0  0  0  0  0  0  0  0  0
  -24.0550  -25.7940   16.0790 O   0  0  0  0  0  0  0  0  0  0  0  0
  -24.8080  -24.3590   13.3860 H   0  0  0  0  0  0  0  0  0  0  0  0
  -23.3080  -24.2870   14.2650 H   0  0  0  0  0  0  0  0  0  0  0  0
  -26.9580  -26.2360   17.3040 N   0  0  0  0  0  0  0  0  0  0  0  0
  -26.1420  -25.9220   17.8170 H   0  0  0  0  0  0  0  0  0  0  0  0
  -27.6990  -26.5610   17.9080 H   0  0  0  0  0  0  0  0  0  0  0  0
  2  1  1  0
  3  2  1  0
  3  5  1  0
  4  3  1  0
  6  3  1  0
  7  6  1  0
  7  8  1  0
  8  9  1  0
  9 11  1  0
 10 21  2  0
 11 17  2  0
 11 16  1  0
 12 22  1  0
 13 19  1  0
 14 20  1  0
 15 13  1  0
 15 14  1  0
 16 15  2  0
 17 18  1  0
 18 13  2  0
 19 12  1  0
 20 12  1  0
 20 10  1  0
 22 23  1  0
 23 25  1  0
 24 22  2  0
 26 35  1  0
 27 23  1  0
 27 31  1  0
 28 29  1  0
 28 27  1  0
 29 30  1  0
 30 26  1  0
 31 32  1  0
 31 26  2  0
 32 33  2  0
 33 34  1  0
 35 34  2  0
 36 10  1  0
 36 37  1  0
 36 41  1  0
 37 38  1  1
 39 37  1  0
 40 37  1  0
 41 44  1  0
 42 41  1  0
 42 46  1  0
 43 42  2  0
 46 45  1  0
 48 47  1  0
 48 49  1  0
 48 46  1  0
 50  1  1  0
 51 50  1  0
 52 51  1  0
 53 51  1  0
 54 51  1  0
 55 54  1  0
 56 69  1  0
 56 63  2  0
 57 58  1  0
 57 62  1  0
 59 60  1  0
 59 58  1  0
 60 73  1  0
 61 60  1  0
 61 62  1  0
 62 56  1  0
 64 65  2  0
 65 67  1  0
 65 55  1  0
 66 69  1  0
 66 64  1  0
 68 67  2  0
 69 68  1  0
 70 95  1  0
 71 90  1  0
 71 70  2  0
 72 74  2  0
 72 71  1  0
 73 70  1  0
 74 73  1  0
 75 72  1  0
 76 75  2  0
 77 76  1  0
 78 77  2  0
 78 79  1  0
 79 80  2  0
 80 75  1  0
 81 78  1  0
 82 83  1  0
 82 81  1  0
 84 83  2  0
 85 84  1  0
 86 85  2  0
 86 87  1  0
 87 82  2  0
 88 87  1  0
 89 85  1  0
 90 92  2  0
 91 94  1  0
 91 90  1  0
 93 91  1  0
 95 96  1  0
 95 97  1  0
M  ISO  4   8 101   9 101  56 100  69 100
M  END
>  <TORSDO>  (14) 
F 25

>  <SCORE>  (14) 
-4.037

>  <name>  (14) 
13

>  <ligand_id>  (14) 
13

>  <original_smiles>  (14) 
[H]C1=C(C([H])([H])C([H])([H])[N+]([H])([H])C([H])([H])C([H])([H])C([H])([H])[N+]([H])([H])C([H])([H])C([H])([H])C([H])([H])Oc2c([H])c([H])c3c(c2[H])C([H])([H])N(C(=O)C([H])(N([H])C(=O)C([H])(N([H])C([H])([H])[H])C([H])([H])[H])C(C([H])([H])[H])(C([H])([H])[H])C([H])([H])[H])C([H])(C(=O)N([H])C2([H])c4c([H])c([H])c([H])c([H])c4C([H])([H])C([H])([H])C2([H])[H])C3([H])[H])C([H])([H])C([H])([H])N(C(=O)N2C([H])([H])C([H])([H])C([H])([H])C([H])(n3nc(-c4c([H])c([H])c(Oc5c([H])c([H])c(F)c([H])c5F)c([H])c4[H])c(C(=O)N([H])[H])c3N([H])[H])C2([H])[H])C1([H])[H]

>  <smiles>  (14) 
[H]C1=C(C([H])([H])C([H])([H])[N+]([H])([H])C([H])([H])C([H])([H])C([H])([H])[N+]([H])([H])C([H])([H])C([H])([H])C([H])([H])Oc2c([H])c([H])c3c(c2[H])C([H])([H])N(C(=O)C([H])(N([H])C(=O)C([H])(N([H])C([H])([H])[H])C([H])([H])[H])C(C([H])([H])[H])(C([H])([H])[H])C([H])([H])[H])C([H])(C(=O)N([H])C2([H])c4c([H])c([H])c([H])c([H])c4C([H])([H])C([H])([H])C2([H])[H])C3([H])[H])C([H])([H])C([H])([H])N(C(=O)N2C([H])([H])C([H])([H])C([H])([H])C([H])(n3nc(-c4c([H])c([H])c(Oc5c([H])c([H])c(F)c([H])c5F)c([H])c4[H])c(C(=O)N([H])[H])c3N([H])[H])C2([H])[H])C1([H])[H]

$$$$
14:0:0
     RDKit          3D

 92100  0  0  1  0  0  0  0  0999 V2000
  -29.8760  -21.8180   21.2640 C   0  0  0  0  0  0  0  0  0  0  0  0
  -30.9100  -22.1690   21.8480 O   0  0  0  0  0  0  0  0  0  0  0  0
  -28.9160  -22.8690   20.7410 C   0  0  0  0  0  3  0  0  0  0  0  0
  -29.1330  -24.1240   20.8310 N   0  0  0  0  0  0  0  0  0  0  0  0
  -28.1290  -25.0740   20.4020 C   0  0  0  0  0  2  0  0  0  0  0  0
  -28.5450  -25.7410   19.0760 C   0  0  0  0  0  2  0  0  0  0  0  0
  -28.4940  -27.1550   19.2170 O   0  0  0  0  0  0  0  0  0  0  0  0
  -24.7500  -31.5770   23.3060 C   0  0  0  0  0  0  0  0  0  0  0  0
  -27.2770  -27.7570   19.4210 C   0  0  0  0  0  0  0  0  0  0  0  0
  -23.4660  -30.4120   21.5410 C   0  0  0  0  0  3  0  0  0  0  0  0
  -24.8500  -29.1390   19.8240 C   0  0  0  0  0  0  0  0  0  0  0  0
  -25.9650  -30.8680   21.2500 C   0  0  0  0  0  2  0  0  0  0  0  0
  -26.0320  -29.6150   20.4050 C   0  0  0  0  0  0  0  0  0  0  0  0
  -27.2460  -28.9310   20.1990 C   0  0  0  0  0  3  0  0  0  0  0  0
  -26.0750  -27.2760   18.8520 C   0  0  0  0  0  3  0  0  0  0  0  0
  -24.8640  -27.9640   19.0520 C   0  0  0  0  0  3  0  0  0  0  0  0
  -23.5990  -29.9480   20.0660 C   0  0  0  0  0  2  0  0  0  0  0  0
  -24.7500  -30.9570   22.0920 N   0  0  0  0  0  0  0  0  0  0  0  0
  -23.7010  -31.7370   23.9430 O   0  0  0  0  0  0  0  0  0  0  0  0
  -22.8930  -29.2410   22.3700 C   0  0  0  0  0  0  0  0  0  0  0  0
  -21.5890  -28.9720   22.2000 N   0  0  0  0  0  0  0  0  0  0  0  0
  -23.6190  -28.5840   23.1210 O   0  0  0  0  0  0  0  0  0  0  0  0
  -21.0620  -29.5650   21.5730 H   0  0  0  0  0  0  0  0  0  0  0  0
  -18.3460  -27.3900   22.3920 C   0  0  0  0  0  0  0  0  0  0  0  0
  -20.8410  -27.8930   22.8440 C   0  0  0  0  0  3  0  0  0  0  0  0
  -21.1330  -26.5330   22.1670 C   0  0  0  0  0  2  0  0  0  0  0  0
  -20.1310  -26.1800   21.0660 C   0  0  0  0  0  2  0  0  0  0  0  0
  -18.7080  -26.1260   21.6300 C   0  0  0  0  0  2  0  0  0  0  0  0
  -19.3490  -28.2280   22.9470 C   0  0  0  0  0  0  0  0  0  0  0  0
  -18.9630  -29.4100   23.6160 C   0  0  0  0  0  3  0  0  0  0  0  0
  -17.6040  -29.7580   23.7360 C   0  0  0  0  0  3  0  0  0  0  0  0
  -16.6140  -28.9150   23.1980 C   0  0  0  0  0  3  0  0  0  0  0  0
  -16.9850  -27.7330   22.5340 C   0  0  0  0  0  3  0  0  0  0  0  0
  -26.0640  -32.1370   23.9390 C   0  0  0  0  0  3  0  0  0  0  0  0
  -25.7860  -33.5050   24.3960 N   0  0  0  0  0  0  0  0  0  0  0  0
  -26.1500  -34.6150   23.7420 C   0  0  0  0  0  0  0  0  0  0  0  0
  -26.8280  -34.5920   22.7100 O   0  0  0  0  0  0  0  0  0  0  0  0
  -25.1910  -33.5990   25.2070 H   0  0  0  0  0  0  0  0  0  0  0  0
  -24.4680  -36.4740   23.5340 C   0  0  0  0  0  1  0  0  0  0  0  0
  -25.6870  -35.9650   24.3210 C   0  0  0  0  0  3  0  0  0  0  0  0
  -27.8290  -36.7120   25.2600 C   0  0  0  0  0  1  0  0  0  0  0  0
  -26.7450  -36.9990   24.3240 N   0  0  0  0  0  0  0  0  0  0  0  0
  -26.3590  -37.9100   24.5550 H   0  0  0  0  0  0  0  0  0  0  0  0
  -26.6120  -31.2510   25.1240 C   0  0  1  0  0  0  0  0  0  0  0  0
  -25.5490  -30.9250   26.1980 C   0  0  0  0  0  1  0  0  0  0  0  0
  -27.1720  -29.9120   24.5910 C   0  0  0  0  0  1  0  0  0  0  0  0
  -27.7880  -31.9770   25.8200 C   0  0  0  0  0  1  0  0  0  0  0  0
  -28.1350  -19.8910   21.3790 C   0  0  0  0  0  1  0  0  0  0  0  0
  -29.5830  -20.3120   21.0360 C   0  0  0  0  0  3  0  0  0  0  0  0
  -30.5910  -19.3940   21.7930 C   0  0  0  0  0  2  0  0  0  0  0  0
  -32.3320  -14.1960   19.8600 C   0  0  0  0  0  0  0  0  0  0  0  0
  -31.8050  -11.9200   19.0280 C   0  0  0  0  0  2  0  0  0  0  0  0
  -30.8360  -12.0310   17.8270 C   0  0  0  0  0  2  0  0  0  0  0  0
  -29.3670  -12.1230   18.2920 C   0  0  0  0  0  2  0  0  0  0  0  0
  -29.1670  -13.1590   19.4290 C   0  0  0  0  0  3  0  0  0  0  0  0
  -30.2200  -12.9000   20.5260 C   0  0  0  0  0  2  0  0  0  0  0  0
  -31.5530  -13.0720   19.9220 N   0  0  0  0  0  0  0  0  0  0  0  0
  -33.4000  -14.1900   19.2300 O   0  0  0  0  0  0  0  0  0  0  0  0
  -31.3590  -17.0100   22.1700 C   0  0  0  0  0  2  0  0  0  0  0  0
  -31.7380  -17.9710   19.9640 C   0  0  0  0  0  2  0  0  0  0  0  0
  -31.2180  -15.5990   21.6060 C   0  0  0  0  0  2  0  0  0  0  0  0
  -31.9510  -16.5620   19.3380 C   0  0  0  0  0  2  0  0  0  0  0  0
  -30.7800  -18.0020   21.1620 C   0  0  0  0  0  3  0  0  0  0  0  0
  -31.7770  -15.3850   20.2460 N   0  0  0  0  0  0  0  0  0  0  0  0
  -26.9740  -14.1710   20.3280 C   0  0  0  0  0  0  0  0  0  0  0  0
  -25.7960  -13.5930   20.7210 C   0  0  0  0  0  0  0  0  0  0  0  0
  -25.9820  -12.1840   20.5810 C   0  0  0  0  0  0  0  0  0  0  0  0
  -27.8110  -13.1230   19.9720 N   0  0  0  0  0  0  0  0  0  0  0  0
  -27.2160  -11.9200   20.1710 N   0  0  0  0  0  0  0  0  0  0  0  0
  -25.0370  -11.0700   20.7530 C   0  0  0  0  0  0  0  0  0  0  0  0
  -25.2780  -10.0390   21.6880 C   0  0  0  0  0  3  0  0  0  0  0  0
  -24.3500   -8.9880   21.8510 C   0  0  0  0  0  3  0  0  0  0  0  0
  -23.1670   -8.9620   21.0770 C   0  0  0  0  0  0  0  0  0  0  0  0
  -22.9420   -9.9780   20.1330 C   0  0  0  0  0  3  0  0  0  0  0  0
  -23.8690  -11.0200   19.9680 C   0  0  0  0  0  3  0  0  0  0  0  0
  -22.2220   -7.9660   21.1460 O   0  0  0  0  0  0  0  0  0  0  0  0
  -21.9410   -7.3220   22.3210 C   0  0  0  0  0  0  0  0  0  0  0  0
  -21.5400   -8.0230   23.4800 C   0  0  0  0  0  3  0  0  0  0  0  0
  -21.1920   -7.3170   24.6470 C   0  0  0  0  0  3  0  0  0  0  0  0
  -21.2340   -5.9080   24.6580 C   0  0  0  0  0  0  0  0  0  0  0  0
  -21.6300   -5.2090   23.5060 C   0  0  0  0  0  3  0  0  0  0  0  0
  -21.9770   -5.9120   22.3410 C   0  0  0  0  0  0  0  0  0  0  0  0
  -22.3400   -5.2320   21.2270 F   0  0  0  0  0  0  0  0  0  0  0  0
  -20.8900   -5.2300   25.7760 F   0  0  0  0  0  0  0  0  0  0  0  0
  -24.5320  -14.3040   21.1120 C   0  0  0  0  0  0  0  0  0  0  0  0
  -23.7600  -13.7320   22.0280 N   0  0  0  0  0  0  0  0  0  0  0  0
  -24.2420  -15.4030   20.6350 O   0  0  0  0  0  0  0  0  0  0  0  0
  -24.0070  -12.8440   22.4370 H   0  0  0  0  0  0  0  0  0  0  0  0
  -22.9140  -14.1960   22.3300 H   0  0  0  0  0  0  0  0  0  0  0  0
  -27.3930  -15.4940   20.2230 N   0  0  0  0  0  0  0  0  0  0  0  0
  -26.7840  -16.2730   20.4480 H   0  0  0  0  0  0  0  0  0  0  0  0
  -28.3000  -15.7860   19.8780 H   0  0  0  0  0  0  0  0  0  0  0  0
  1  2  2  0
  3  4  2  0
  3  1  1  0
  5  4  1  0
  6  7  1  0
  6  5  1  0
  7  9  1  0
  8 19  2  0
  9 14  1  0
 10 18  1  0
 10 20  1  0
 11 17  1  0
 11 13  1  0
 12 18  1  0
 13 12  1  0
 14 13  2  0
 15 16  1  0
 15  9  2  0
 16 11  2  0
 17 10  1  0
 18  8  1  0
 20 22  2  0
 21 20  1  0
 23 21  1  0
 24 33  2  0
 24 29  1  0
 25 21  1  0
 25 29  1  0
 26 25  1  0
 27 28  1  0
 27 26  1  0
 28 24  1  0
 29 30  2  0
 30 31  1  0
 32 31  2  0
 33 32  1  0
 34  8  1  0
 34 35  1  0
 34 44  1  0
 35 38  1  0
 36 40  1  0
 36 35  1  0
 37 36  2  0
 40 39  1  0
 40 42  1  0
 42 43  1  0
 42 41  1  0
 44 47  1  1
 44 45  1  0
 46 44  1  0
 49  1  1  0
 49 48  1  0
 49 50  1  0
 51 57  1  0
 51 64  1  0
 52 57  1  0
 53 54  1  0
 53 52  1  0
 55 54  1  0
 55 68  1  0
 55 56  1  0
 57 56  1  0
 58 51  2  0
 60 63  1  0
 61 59  1  0
 62 60  1  0
 62 64  1  0
 63 50  1  0
 63 59  1  0
 64 61  1  0
 65 66  2  0
 66 85  1  0
 67 66  1  0
 67 70  1  0
 68 69  1  0
 68 65  1  0
 69 67  2  0
 70 71  1  0
 71 72  2  0
 73 76  1  0
 73 72  1  0
 74 73  2  0
 75 74  1  0
 75 70  2  0
 76 77  1  0
 77 82  2  0
 77 78  1  0
 78 79  2  0
 79 80  1  0
 80 84  1  0
 81 80  2  0
 82 81  1  0
 83 82  1  0
 85 86  1  0
 86 89  1  0
 86 88  1  0
 87 85  2  0
 90 65  1  0
 90 91  1  0
 92 90  1  0
M  ISO  4   6 101   7 101  51 100  64 100
M  END
>  <TORSDO>  (15) 
F 21

>  <SCORE>  (15) 
-9.715

>  <name>  (15) 
14

>  <ligand_id>  (15) 
14

>  <original_smiles>  (15) 
[H]C(=NC([H])([H])C([H])([H])Oc1c([H])c([H])c2c(c1[H])C([H])([H])N(C(=O)C([H])(N([H])C(=O)C([H])(N([H])C([H])([H])[H])C([H])([H])[H])C(C([H])([H])[H])(C([H])([H])[H])C([H])([H])[H])C([H])(C(=O)N([H])C1([H])c3c([H])c([H])c([H])c([H])c3C([H])([H])C([H])([H])C1([H])[H])C2([H])[H])C(=O)C([H])(C([H])([H])[H])C([H])([H])C1([H])C([H])([H])C([H])([H])N(C(=O)N2C([H])([H])C([H])([H])C([H])([H])C([H])(n3nc(-c4c([H])c([H])c(Oc5c([H])c([H])c(F)c([H])c5F)c([H])c4[H])c(C(=O)N([H])[H])c3N([H])[H])C2([H])[H])C([H])([H])C1([H])[H]

>  <smiles>  (15) 
[H]C(=NC([H])([H])C([H])([H])Oc1c([H])c([H])c2c(c1[H])C([H])([H])N(C(=O)C([H])(N([H])C(=O)C([H])(N([H])C([H])([H])[H])C([H])([H])[H])C(C([H])([H])[H])(C([H])([H])[H])C([H])([H])[H])C([H])(C(=O)N([H])C1([H])c3c([H])c([H])c([H])c([H])c3C([H])([H])C([H])([H])C1([H])[H])C2([H])[H])C(=O)C([H])(C([H])([H])[H])C([H])([H])C1([H])C([H])([H])C([H])([H])N(C(=O)N2C([H])([H])C([H])([H])C([H])([H])C([H])(n3nc(-c4c([H])c([H])c(Oc5c([H])c([H])c(F)c([H])c5F)c([H])c4[H])c(C(=O)N([H])[H])c3N([H])[H])C2([H])[H])C([H])([H])C1([H])[H]

$$$$
15:0:0
     RDKit          3D

102110  0  0  1  0  0  0  0  0999 V2000
  -26.8280  -20.9800   19.2180 C   0  0  0  0  0  2  0  0  0  0  0  0
  -27.1240  -19.6160   19.6940 N   0  0  0  0  0  4  0  0  0  0  0  0
  -26.9900  -18.9810   18.9240 H   0  0  0  0  0  0  0  0  0  0  0  0
  -26.4620  -19.3670   20.4130 H   0  0  0  0  0  0  0  0  0  0  0  0
  -28.4940  -19.4430   20.2350 C   0  0  0  0  0  2  0  0  0  0  0  0
  -28.7500  -17.9700   20.5930 C   0  0  0  0  0  2  0  0  0  0  0  0
  -30.0930  -17.5700   21.2710 C   0  0  0  0  0  3  0  0  0  0  0  0
  -30.8660  -15.1390   21.0250 C   0  0  0  0  0  0  0  0  0  0  0  0
  -30.6250  -13.2740   19.4570 C   0  0  0  0  0  2  0  0  0  0  0  0
  -29.7460  -13.7760   18.2910 C   0  0  0  0  0  2  0  0  0  0  0  0
  -28.2450  -13.6210   18.6180 C   0  0  0  0  0  2  0  0  0  0  0  0
  -27.8630  -14.1480   20.0260 C   0  0  0  0  0  3  0  0  0  0  0  0
  -28.8610  -13.6370   21.0940 C   0  0  0  0  0  2  0  0  0  0  0  0
  -30.2210  -14.0060   20.6620 N   0  0  0  0  0  0  0  0  0  0  0  0
  -32.0550  -15.3690   20.7880 O   0  0  0  0  0  0  0  0  0  0  0  0
  -30.0050  -16.1050   21.3680 N   0  0  0  0  0  0  0  0  0  0  0  0
  -29.0810  -15.7470   21.5530 H   0  0  0  0  0  0  0  0  0  0  0  0
  -25.3770  -14.6400   20.4860 C   0  0  0  0  0  0  0  0  0  0  0  0
  -24.3220  -13.8170   20.7670 C   0  0  0  0  0  0  0  0  0  0  0  0
  -24.8550  -12.4910   20.8000 C   0  0  0  0  0  0  0  0  0  0  0  0
  -26.4860  -13.8140   20.3740 N   0  0  0  0  0  0  0  0  0  0  0  0
  -26.1690  -12.5190   20.6210 N   0  0  0  0  0  0  0  0  0  0  0  0
  -24.1850  -11.1930   20.9340 C   0  0  0  0  0  0  0  0  0  0  0  0
  -24.5640  -10.2640   21.9280 C   0  0  0  0  0  3  0  0  0  0  0  0
  -23.8940   -9.0280   22.0460 C   0  0  0  0  0  3  0  0  0  0  0  0
  -22.8290   -8.7120   21.1700 C   0  0  0  0  0  0  0  0  0  0  0  0
  -22.4690   -9.6300   20.1680 C   0  0  0  0  0  3  0  0  0  0  0  0
  -23.1400  -10.8590   20.0480 C   0  0  0  0  0  3  0  0  0  0  0  0
  -22.1380   -7.5250   21.1970 O   0  0  0  0  0  0  0  0  0  0  0  0
  -21.9410   -6.8320   22.3640 C   0  0  0  0  0  0  0  0  0  0  0  0
  -21.3110   -7.4210   23.4820 C   0  0  0  0  0  3  0  0  0  0  0  0
  -21.0670   -6.6530   24.6380 C   0  0  0  0  0  3  0  0  0  0  0  0
  -21.4430   -5.2960   24.6740 C   0  0  0  0  0  0  0  0  0  0  0  0
  -22.0630   -4.7060   23.5590 C   0  0  0  0  0  3  0  0  0  0  0  0
  -22.3080   -5.4720   22.4060 C   0  0  0  0  0  0  0  0  0  0  0  0
  -22.8890   -4.8950   21.3260 F   0  0  0  0  0  0  0  0  0  0  0  0
  -21.2020   -4.5540   25.7800 F   0  0  0  0  0  0  0  0  0  0  0  0
  -22.8800  -14.2190   20.8970 C   0  0  0  0  0  0  0  0  0  0  0  0
  -22.1220  -13.5170   21.7300 N   0  0  0  0  0  0  0  0  0  0  0  0
  -22.4340  -15.1940   20.2930 O   0  0  0  0  0  0  0  0  0  0  0  0
  -22.4950  -12.7320   22.2420 H   0  0  0  0  0  0  0  0  0  0  0  0
  -21.1510  -13.7630   21.8570 H   0  0  0  0  0  0  0  0  0  0  0  0
  -25.4800  -16.0140   20.2830 N   0  0  0  0  0  0  0  0  0  0  0  0
  -24.6190  -16.5140   20.0880 H   0  0  0  0  0  0  0  0  0  0  0  0
  -26.2710  -16.3760   19.7720 H   0  0  0  0  0  0  0  0  0  0  0  0
  -31.3400  -18.1280   18.9950 C   0  0  0  0  0  2  0  0  0  0  0  0
  -32.6360  -18.8770   18.6540 C   0  0  0  0  0  2  0  0  0  0  0  0
  -32.0360  -19.3610   20.9320 C   0  0  0  0  0  2  0  0  0  0  0  0
  -31.3960  -18.0280   20.5220 C   0  0  0  0  0  3  0  0  0  0  0  0
  -32.9600  -19.7070   19.8340 N   0  0  0  0  0  4  0  0  0  0  0  0
  -32.8920  -20.6880   19.6140 H   0  0  0  0  0  0  0  0  0  0  0  0
  -33.9100  -19.5170   20.1130 H   0  0  0  0  0  0  0  0  0  0  0  0
  -25.3210  -21.1990   18.9580 C   0  0  0  0  0  2  0  0  0  0  0  0
  -24.9300  -22.6410   18.5580 C   0  0  0  0  0  2  0  0  0  0  0  0
  -25.1620  -23.7090   19.6470 C   0  0  0  0  0  2  0  0  0  0  0  0
  -26.5970  -24.0000   19.8260 N   0  0  0  0  0  4  0  0  0  0  0  0
  -26.9280  -24.4680   18.9980 H   0  0  0  0  0  0  0  0  0  0  0  0
  -27.0850  -23.1260   19.9130 H   0  0  0  0  0  0  0  0  0  0  0  0
  -26.9450  -24.7960   21.0210 C   0  0  0  0  0  2  0  0  0  0  0  0
  -28.4590  -25.0800   21.0740 C   0  0  0  0  0  2  0  0  0  0  0  0
  -29.0330  -25.8800   19.8880 C   0  0  0  0  0  2  0  0  0  0  0  0
  -28.8640  -27.2770   20.0800 O   0  0  0  0  0  0  0  0  0  0  0  0
  -24.5970  -31.8300   23.4100 C   0  0  0  0  0  0  0  0  0  0  0  0
  -27.6080  -27.8360   20.0890 C   0  0  0  0  0  0  0  0  0  0  0  0
  -23.5290  -30.5070   21.6110 C   0  0  0  0  0  3  0  0  0  0  0  0
  -25.1150  -29.1640   20.1350 C   0  0  0  0  0  0  0  0  0  0  0  0
  -26.0320  -31.0160   21.5470 C   0  0  0  0  0  2  0  0  0  0  0  0
  -26.2140  -29.7080   20.8110 C   0  0  0  0  0  0  0  0  0  0  0  0
  -27.4570  -29.0490   20.7890 C   0  0  0  0  0  3  0  0  0  0  0  0
  -26.4930  -27.2940   19.4060 C   0  0  0  0  0  3  0  0  0  0  0  0
  -25.2480  -27.9530   19.4340 C   0  0  0  0  0  3  0  0  0  0  0  0
  -23.8250  -29.9470   20.1940 C   0  0  0  0  0  2  0  0  0  0  0  0
  -24.7360  -31.1260   22.2510 N   0  0  0  0  0  0  0  0  0  0  0  0
  -23.4840  -32.0060   23.9230 O   0  0  0  0  0  0  0  0  0  0  0  0
  -22.9000  -29.3810   22.4590 C   0  0  0  0  0  0  0  0  0  0  0  0
  -21.5950  -29.1380   22.2530 N   0  0  0  0  0  0  0  0  0  0  0  0
  -23.5810  -28.7290   23.2540 O   0  0  0  0  0  0  0  0  0  0  0  0
  -21.1030  -29.7240   21.5910 H   0  0  0  0  0  0  0  0  0  0  0  0
  -18.2670  -27.7630   22.5140 C   0  0  0  0  0  0  0  0  0  0  0  0
  -20.7990  -28.1020   22.9070 C   0  0  0  0  0  3  0  0  0  0  0  0
  -20.9870  -26.7340   22.2130 C   0  0  0  0  0  2  0  0  0  0  0  0
  -19.9370  -26.4560   21.1320 C   0  0  0  0  0  2  0  0  0  0  0  0
  -18.5290  -26.4860   21.7340 C   0  0  0  0  0  2  0  0  0  0  0  0
  -19.3340  -28.5290   23.0510 C   0  0  0  0  0  0  0  0  0  0  0  0
  -19.0410  -29.7280   23.7370 C   0  0  0  0  0  3  0  0  0  0  0  0
  -17.7110  -30.1590   23.8960 C   0  0  0  0  0  3  0  0  0  0  0  0
  -16.6560  -29.3870   23.3780 C   0  0  0  0  0  3  0  0  0  0  0  0
  -16.9340  -28.1910   22.6920 C   0  0  0  0  0  3  0  0  0  0  0  0
  -25.8260  -32.4690   24.1320 C   0  0  0  0  0  3  0  0  0  0  0  0
  -25.5140  -33.8830   24.3710 N   0  0  0  0  0  0  0  0  0  0  0  0
  -25.9350  -34.8950   23.5990 C   0  0  0  0  0  0  0  0  0  0  0  0
  -26.6990  -34.7350   22.6420 O   0  0  0  0  0  0  0  0  0  0  0  0
  -24.8490  -34.0860   25.1030 H   0  0  0  0  0  0  0  0  0  0  0  0
  -24.2670  -36.6830   23.0140 C   0  0  0  0  0  1  0  0  0  0  0  0
  -25.4290  -36.3080   23.9460 C   0  0  0  0  0  3  0  0  0  0  0  0
  -27.4920  -37.2170   24.9200 C   0  0  0  0  0  1  0  0  0  0  0  0
  -26.4800  -37.3460   23.8740 N   0  0  0  0  0  0  0  0  0  0  0  0
  -26.0740  -38.2740   23.9410 H   0  0  0  0  0  0  0  0  0  0  0  0
  -26.2050  -31.7420   25.4800 C   0  0  1  0  0  0  0  0  0  0  0  0
  -25.0050  -31.5390   26.4330 C   0  0  0  0  0  1  0  0  0  0  0  0
  -26.8200  -30.3520   25.1960 C   0  0  0  0  0  1  0  0  0  0  0  0
  -27.2820  -32.5560   26.2330 C   0  0  0  0  0  1  0  0  0  0  0  0
  1  2  1  0
  2  5  1  0
  2  4  1  0
  3  2  1  0
  5  6  1  0
  7  6  1  0
  7 16  1  0
  8 16  1  0
  9 14  1  0
 10 11  1  0
 10  9  1  0
 12 11  1  0
 12 21  1  0
 12 13  1  0
 14  8  1  0
 14 13  1  0
 15  8  2  0
 16 17  1  0
 18 19  2  0
 19 20  1  0
 19 38  1  0
 20 23  1  0
 21 18  1  0
 21 22  1  0
 22 20  2  0
 23 24  1  0
 24 25  2  0
 26 29  1  0
 26 25  1  0
 27 26  2  0
 28 27  1  0
 28 23  2  0
 29 30  1  0
 30 35  2  0
 30 31  1  0
 31 32  2  0
 32 33  1  0
 33 37  1  0
 34 33  2  0
 35 34  1  0
 36 35  1  0
 38 39  1  0
 39 42  1  0
 39 41  1  0
 40 38  2  0
 43 18  1  0
 44 43  1  0
 45 43  1  0
 46 49  1  0
 47 46  1  0
 47 50  1  0
 49 48  1  0
 49  7  1  0
 50 52  1  0
 50 48  1  0
 51 50  1  0
 53  1  1  0
 54 53  1  0
 54 55  1  0
 55 56  1  0
 56 58  1  0
 56 59  1  0
 57 56  1  0
 59 60  1  0
 61 62  1  0
 61 60  1  0
 62 64  1  0
 63 74  2  0
 64 69  1  0
 65 73  1  0
 65 75  1  0
 66 72  1  0
 66 68  1  0
 67 73  1  0
 68 67  1  0
 69 68  2  0
 70 71  1  0
 70 64  2  0
 71 66  2  0
 72 65  1  0
 73 63  1  0
 75 77  2  0
 76 75  1  0
 78 76  1  0
 79 88  2  0
 79 84  1  0
 80 76  1  0
 80 84  1  0
 81 80  1  0
 82 83  1  0
 82 81  1  0
 83 79  1  0
 84 85  2  0
 85 86  1  0
 87 86  2  0
 88 87  1  0
 89 63  1  0
 89 90  1  0
 89 99  1  0
 90 93  1  0
 91 95  1  0
 91 90  1  0
 92 91  2  0
 95 94  1  0
 97 98  1  0
 97 95  1  0
 97 96  1  0
 99102  1  1
 99100  1  0
101 99  1  0
M  ISO  4   8 100  16 100  61 101  62 101
M  END
>  <TORSDO>  (16) 
F 28

>  <SCORE>  (16) 
-10.295

>  <name>  (16) 
15

>  <ligand_id>  (16) 
15

>  <original_smiles>  (16) 
[H]c1c([H])c([H])c2c(c1[H])C([H])([H])C([H])([H])C([H])([H])C2([H])N([H])C(=O)C1([H])N(C(=O)C([H])(N([H])C(=O)C([H])(N([H])C([H])([H])[H])C([H])([H])[H])C(C([H])([H])[H])(C([H])([H])[H])C([H])([H])[H])C([H])([H])c2c([H])c(OC([H])([H])C([H])([H])C([H])([H])[N+]([H])([H])C([H])([H])C([H])([H])C([H])([H])C([H])([H])[N+]([H])([H])C([H])([H])C([H])([H])C([H])(N([H])C(=O)N3C([H])([H])C([H])([H])C([H])([H])C([H])(n4nc(-c5c([H])c([H])c(Oc6c([H])c([H])c(F)c([H])c6F)c([H])c5[H])c(C(=O)N([H])[H])c4N([H])[H])C3([H])[H])C3([H])C([H])([H])C([H])([H])[N+]([H])([H])C3([H])[H])c([H])c([H])c2C1([H])[H]

>  <smiles>  (16) 
[H]c1c([H])c([H])c2c(c1[H])C([H])([H])C([H])([H])C([H])([H])C2([H])N([H])C(=O)C1([H])N(C(=O)C([H])(N([H])C(=O)C([H])(N([H])C([H])([H])[H])C([H])([H])[H])C(C([H])([H])[H])(C([H])([H])[H])C([H])([H])[H])C([H])([H])c2c([H])c(OC([H])([H])C([H])([H])C([H])([H])[N+]([H])([H])C([H])([H])C([H])([H])C([H])([H])C([H])([H])[N+]([H])([H])C([H])([H])C([H])([H])C([H])(N([H])C(=O)N3C([H])([H])C([H])([H])C([H])([H])C([H])(n4nc(-c5c([H])c([H])c(Oc6c([H])c([H])c(F)c([H])c6F)c([H])c5[H])c(C(=O)N([H])[H])c4N([H])[H])C3([H])[H])C3([H])C([H])([H])C([H])([H])[N+]([H])([H])C3([H])[H])c([H])c([H])c2C1([H])[H]

$$$$
16:0:0
     RDKit          3D

 97105  0  0  1  0  0  0  0  0999 V2000
  -30.6950  -17.6820   21.6150 C   0  0  0  0  0  2  0  0  0  0  0  0
  -30.9300  -19.1800   21.2860 C   0  0  0  0  0  2  0  0  0  0  0  0
  -29.9740  -19.6720   19.1010 C   0  0  0  0  0  2  0  0  0  0  0  0
  -29.7500  -16.8730   20.6920 C   0  0  0  0  0  3  0  0  0  0  0  0
  -29.3190  -18.3810   18.5710 C   0  0  0  0  0  3  0  0  0  0  0  0
  -29.9360  -17.0880   19.1510 C   0  0  0  0  0  3  0  0  0  0  0  0
  -29.8590  -19.8930   20.5560 N   0  0  0  0  0  0  0  0  0  0  0  0
  -29.3060  -16.1010   18.5030 F   0  0  0  0  0  0  0  0  0  0  0  0
  -30.5990  -14.4810   20.5930 C   0  0  0  0  0  0  0  0  0  0  0  0
  -30.3750  -12.3600   19.3600 C   0  0  0  0  0  2  0  0  0  0  0  0
  -29.4400  -12.6260   18.1610 C   0  0  0  0  0  2  0  0  0  0  0  0
  -27.9520  -12.5000   18.5590 C   0  0  0  0  0  2  0  0  0  0  0  0
  -27.6130  -13.2610   19.8700 C   0  0  0  0  0  3  0  0  0  0  0  0
  -28.6510  -12.9300   20.9660 C   0  0  0  0  0  2  0  0  0  0  0  0
  -29.9870  -13.2760   20.4420 N   0  0  0  0  0  0  0  0  0  0  0  0
  -31.7240  -14.7340   20.1460 O   0  0  0  0  0  0  0  0  0  0  0  0
  -29.7760  -15.4380   21.0510 N   0  0  0  0  0  0  0  0  0  0  0  0
  -28.9070  -15.0740   21.4150 H   0  0  0  0  0  0  0  0  0  0  0  0
  -25.1990  -13.8820   20.5120 C   0  0  0  0  0  0  0  0  0  0  0  0
  -24.1220  -13.1180   20.8660 C   0  0  0  0  0  0  0  0  0  0  0  0
  -24.5810  -11.7650   20.8590 C   0  0  0  0  0  0  0  0  0  0  0  0
  -26.2470  -12.9970   20.3110 N   0  0  0  0  0  0  0  0  0  0  0  0
  -25.8770  -11.7190   20.5740 N   0  0  0  0  0  0  0  0  0  0  0  0
  -23.8530  -10.5050   21.0510 C   0  0  0  0  0  0  0  0  0  0  0  0
  -24.2840   -9.5390   21.9890 C   0  0  0  0  0  3  0  0  0  0  0  0
  -23.5610   -8.3410   22.1680 C   0  0  0  0  0  3  0  0  0  0  0  0
  -22.3930   -8.1000   21.4060 C   0  0  0  0  0  0  0  0  0  0  0  0
  -21.9780   -9.0560   20.4610 C   0  0  0  0  0  3  0  0  0  0  0  0
  -22.7020  -10.2440   20.2810 C   0  0  0  0  0  3  0  0  0  0  0  0
  -21.6390   -6.9550   21.4910 O   0  0  0  0  0  0  0  0  0  0  0  0
  -21.5990   -6.2050   22.6380 C   0  0  0  0  0  0  0  0  0  0  0  0
  -21.1940   -6.7550   23.8730 C   0  0  0  0  0  3  0  0  0  0  0  0
  -21.1010   -5.9310   25.0140 C   0  0  0  0  0  3  0  0  0  0  0  0
  -21.4050   -4.5590   24.9180 C   0  0  0  0  0  0  0  0  0  0  0  0
  -21.8030   -4.0100   23.6880 C   0  0  0  0  0  3  0  0  0  0  0  0
  -21.8980   -4.8310   22.5500 C   0  0  0  0  0  0  0  0  0  0  0  0
  -22.2620   -4.2930   21.3610 F   0  0  0  0  0  0  0  0  0  0  0  0
  -21.3080   -3.7650   26.0110 F   0  0  0  0  0  0  0  0  0  0  0  0
  -22.7190  -13.5990   21.1100 C   0  0  0  0  0  0  0  0  0  0  0  0
  -21.9750  -12.9100   21.9640 N   0  0  0  0  0  0  0  0  0  0  0  0
  -22.2910  -14.6230   20.5770 O   0  0  0  0  0  0  0  0  0  0  0  0
  -22.3380  -12.0820   22.4140 H   0  0  0  0  0  0  0  0  0  0  0  0
  -21.0320  -13.2110   22.1700 H   0  0  0  0  0  0  0  0  0  0  0  0
  -25.3700  -15.2520   20.3250 N   0  0  0  0  0  0  0  0  0  0  0  0
  -24.6000  -15.9090   20.3880 H   0  0  0  0  0  0  0  0  0  0  0  0
  -26.2280  -15.6710   19.9860 H   0  0  0  0  0  0  0  0  0  0  0  0
  -29.3650  -18.3450   17.0870 N   0  0  0  0  0  4  0  0  0  0  0  0
  -30.3060  -18.3490   16.7370 H   0  0  0  0  0  0  0  0  0  0  0  0
  -28.8680  -19.1120   16.6660 H   0  0  0  0  0  0  0  0  0  0  0  0
  -28.9350  -17.4900   16.7780 H   0  0  0  0  0  0  0  0  0  0  0  0
  -30.0580  -21.3350   20.7720 C   0  0  0  0  0  2  0  0  0  0  0  0
  -28.8220  -22.1820   20.3750 C   0  0  0  0  0  2  0  0  0  0  0  0
  -29.1370  -23.6880   20.4160 C   0  0  0  0  0  2  0  0  0  0  0  0
  -28.3450  -24.5400   19.4030 C   0  0  0  0  0  2  0  0  0  0  0  0
  -28.8810  -26.6170   17.8720 C   0  0  0  0  0  1  0  0  0  0  0  0
  -28.9140  -25.9780   19.2740 C   0  0  0  0  0  3  0  0  0  0  0  0
  -28.5040  -26.8730   20.3090 O   0  0  0  0  0  0  0  0  0  0  0  0
  -24.5400  -31.9600   23.2570 C   0  0  0  0  0  0  0  0  0  0  0  0
  -27.2890  -27.5270   20.2610 C   0  0  0  0  0  0  0  0  0  0  0  0
  -23.3710  -30.5240   21.6150 C   0  0  0  0  0  3  0  0  0  0  0  0
  -24.8640  -28.9890   20.2250 C   0  0  0  0  0  0  0  0  0  0  0  0
  -25.8910  -30.9080   21.4500 C   0  0  0  0  0  2  0  0  0  0  0  0
  -26.0020  -29.5280   20.8380 C   0  0  0  0  0  0  0  0  0  0  0  0
  -27.2080  -28.7970   20.8720 C   0  0  0  0  0  3  0  0  0  0  0  0
  -26.1330  -27.0010   19.6350 C   0  0  0  0  0  3  0  0  0  0  0  0
  -24.9240  -27.7210   19.6230 C   0  0  0  0  0  3  0  0  0  0  0  0
  -23.6060  -29.8300   20.2460 C   0  0  0  0  0  2  0  0  0  0  0  0
  -24.6180  -31.1430   22.1680 N   0  0  0  0  0  0  0  0  0  0  0  0
  -23.4500  -32.2300   23.7790 O   0  0  0  0  0  0  0  0  0  0  0  0
  -22.7170  -29.5060   22.5770 C   0  0  0  0  0  0  0  0  0  0  0  0
  -21.3920  -29.3180   22.4420 N   0  0  0  0  0  0  0  0  0  0  0  0
  -23.3970  -28.8910   23.4040 O   0  0  0  0  0  0  0  0  0  0  0  0
  -20.8990  -29.8760   21.7590 H   0  0  0  0  0  0  0  0  0  0  0  0
  -18.0290  -28.1080   22.9200 C   0  0  0  0  0  0  0  0  0  0  0  0
  -20.5820  -28.3810   23.2160 C   0  0  0  0  0  3  0  0  0  0  0  0
  -20.6950  -26.9420   22.6610 C   0  0  0  0  0  2  0  0  0  0  0  0
  -19.6060  -26.6050   21.6370 C   0  0  0  0  0  2  0  0  0  0  0  0
  -18.2170  -26.7530   22.2620 C   0  0  0  0  0  2  0  0  0  0  0  0
  -19.1390  -28.8780   23.3550 C   0  0  0  0  0  0  0  0  0  0  0  0
  -18.9080  -30.1500   23.9260 C   0  0  0  0  0  3  0  0  0  0  0  0
  -17.5990  -30.6490   24.0640 C   0  0  0  0  0  3  0  0  0  0  0  0
  -16.5050  -29.8760   23.6410 C   0  0  0  0  0  3  0  0  0  0  0  0
  -16.7200  -28.6060   23.0760 C   0  0  0  0  0  3  0  0  0  0  0  0
  -25.8100  -32.6180   23.8800 C   0  0  0  0  0  3  0  0  0  0  0  0
  -25.4750  -34.0150   24.1780 N   0  0  0  0  0  0  0  0  0  0  0  0
  -25.8180  -35.0590   23.4140 C   0  0  0  0  0  0  0  0  0  0  0  0
  -26.5080  -34.9520   22.3970 O   0  0  0  0  0  0  0  0  0  0  0  0
  -24.8360  -34.1760   24.9430 H   0  0  0  0  0  0  0  0  0  0  0  0
  -24.0680  -36.8250   23.0180 C   0  0  0  0  0  1  0  0  0  0  0  0
  -25.3080  -36.4470   23.8450 C   0  0  0  0  0  3  0  0  0  0  0  0
  -27.4290  -37.3560   24.6830 C   0  0  0  0  0  1  0  0  0  0  0  0
  -26.3270  -37.5170   23.7370 N   0  0  0  0  0  0  0  0  0  0  0  0
  -25.9070  -38.4300   23.9020 H   0  0  0  0  0  0  0  0  0  0  0  0
  -26.3280  -31.8690   25.1720 C   0  0  1  0  0  0  0  0  0  0  0  0
  -25.2260  -31.6210   26.2280 C   0  0  0  0  0  1  0  0  0  0  0  0
  -26.9410  -30.4980   24.8000 C   0  0  0  0  0  1  0  0  0  0  0  0
  -27.4620  -32.6890   25.8320 C   0  0  0  0  0  1  0  0  0  0  0  0
  2  1  1  0
  3  7  1  0
  4 17  1  0
  4  1  1  0
  5 47  1  0
  5  3  1  0
  5  6  1  0
  6  8  1  0
  6  4  1  0
  7 51  1  0
  7  2  1  0
  9 17  1  0
 10 15  1  0
 11 12  1  0
 11 10  1  0
 13 12  1  0
 13 22  1  0
 13 14  1  0
 15  9  1  0
 15 14  1  0
 16  9  2  0
 17 18  1  0
 19 20  2  0
 20 39  1  0
 21 20  1  0
 21 24  1  0
 22 19  1  0
 22 23  1  0
 23 21  2  0
 24 25  1  0
 25 26  2  0
 27 30  1  0
 27 26  1  0
 28 27  2  0
 29 28  1  0
 29 24  2  0
 30 31  1  0
 31 32  1  0
 32 33  2  0
 34 33  1  0
 34 38  1  0
 35 34  2  0
 36 31  2  0
 36 35  1  0
 37 36  1  0
 39 40  1  0
 40 43  1  0
 40 42  1  0
 41 39  2  0
 44 45  1  0
 44 19  1  0
 46 44  1  0
 48 47  1  0
 49 47  1  0
 50 47  1  0
 52 53  1  0
 52 51  1  0
 54 53  1  0
 56 55  1  0
 56 54  1  0
 56 57  1  0
 58 69  2  0
 59 57  1  0
 59 64  1  0
 60 68  1  0
 60 70  1  0
 61 67  1  0
 61 63  1  0
 62 68  1  0
 63 64  2  0
 63 62  1  0
 65 59  2  0
 66 65  1  0
 66 61  2  0
 67 60  1  0
 68 58  1  0
 70 72  2  0
 71 70  1  0
 73 71  1  0
 74 83  2  0
 74 79  1  0
 75 71  1  0
 75 79  1  0
 76 75  1  0
 77 78  1  0
 77 76  1  0
 78 74  1  0
 79 80  2  0
 80 81  1  0
 82 81  2  0
 83 82  1  0
 84 58  1  0
 84 85  1  0
 84 94  1  0
 85 88  1  0
 86 90  1  0
 86 85  1  0
 87 86  2  0
 90 89  1  0
 92 90  1  0
 92 93  1  0
 92 91  1  0
 94 97  1  1
 94 95  1  0
 96 94  1  0
M  ISO  4   9 100  17 100  56 101  57 101
M  END
>  <TORSDO>  (17) 
F 22

>  <SCORE>  (17) 
-13.669

>  <name>  (17) 
16

>  <ligand_id>  (17) 
16

>  <original_smiles>  (17) 
[H]c1c([H])c([H])c2c(c1[H])C([H])([H])C([H])([H])C([H])([H])C2([H])N([H])C(=O)C1([H])N(C(=O)C([H])(N([H])C(=O)C([H])(N([H])C([H])([H])[H])C([H])([H])[H])C(C([H])([H])[H])(C([H])([H])[H])C([H])([H])[H])C([H])([H])c2c([H])c(OC([H])(C([H])([H])[H])C([H])([H])C([H])([H])C([H])([H])C([H])([H])N3C([H])([H])C([H])([H])C([H])(N([H])C(=O)N4C([H])([H])C([H])([H])C([H])([H])C([H])(n5nc(-c6c([H])c([H])c(Oc7c([H])c([H])c(F)c([H])c7F)c([H])c6[H])c(C(=O)N([H])[H])c5N([H])[H])C4([H])[H])C([H])(F)C([H])([N+]([H])([H])[H])C3([H])[H])c([H])c([H])c2C1([H])[H]

>  <smiles>  (17) 
[H]c1c([H])c([H])c2c(c1[H])C([H])([H])C([H])([H])C([H])([H])C2([H])N([H])C(=O)C1([H])N(C(=O)C([H])(N([H])C(=O)C([H])(N([H])C([H])([H])[H])C([H])([H])[H])C(C([H])([H])[H])(C([H])([H])[H])C([H])([H])[H])C([H])([H])c2c([H])c(OC([H])(C([H])([H])[H])C([H])([H])C([H])([H])C([H])([H])C([H])([H])N3C([H])([H])C([H])([H])C([H])(N([H])C(=O)N4C([H])([H])C([H])([H])C([H])([H])C([H])(n5nc(-c6c([H])c([H])c(Oc7c([H])c([H])c(F)c([H])c7F)c([H])c6[H])c(C(=O)N([H])[H])c5N([H])[H])C4([H])[H])C([H])(F)C([H])([N+]([H])([H])[H])C3([H])[H])c([H])c([H])c2C1([H])[H]

$$$$
17:0:0
     RDKit          3D

 94102  0  0  1  0  0  0  0  0999 V2000
  -29.8940  -23.0600   20.2500 C   0  0  0  0  0  2  0  0  0  0  0  0
  -31.0290  -23.9680   19.9640 N   0  0  0  0  0  4  0  0  0  0  0  0
  -31.5100  -23.5940   19.1580 H   0  0  0  0  0  0  0  0  0  0  0  0
  -31.6830  -23.9240   20.7300 H   0  0  0  0  0  0  0  0  0  0  0  0
  -30.7370  -25.3960   19.6930 C   0  0  0  0  0  2  0  0  0  0  0  0
  -30.2970  -26.2170   20.9320 C   0  0  0  0  0  2  0  0  0  0  0  0
  -28.7820  -26.3370   21.1760 C   0  0  0  0  0  2  0  0  0  0  0  0
  -28.1660  -26.7150   19.9530 O   0  0  0  0  0  0  0  0  0  0  0  0
  -24.5120  -31.9100   23.2070 C   0  0  0  0  0  0  0  0  0  0  0  0
  -27.0320  -27.4720   20.0560 C   0  0  0  0  0  0  0  0  0  0  0  0
  -23.2460  -30.5330   21.5840 C   0  0  0  0  0  3  0  0  0  0  0  0
  -24.6500  -28.9780   20.1270 C   0  0  0  0  0  0  0  0  0  0  0  0
  -25.7670  -30.8630   21.3300 C   0  0  0  0  0  2  0  0  0  0  0  0
  -25.8230  -29.4900   20.7000 C   0  0  0  0  0  0  0  0  0  0  0  0
  -27.0210  -28.7430   20.6700 C   0  0  0  0  0  3  0  0  0  0  0  0
  -25.8490  -26.9730   19.4680 C   0  0  0  0  0  3  0  0  0  0  0  0
  -24.6540  -27.7160   19.5140 C   0  0  0  0  0  3  0  0  0  0  0  0
  -23.4150  -29.8550   20.1960 C   0  0  0  0  0  2  0  0  0  0  0  0
  -24.5270  -31.1190   22.0960 N   0  0  0  0  0  0  0  0  0  0  0  0
  -23.4480  -32.1980   23.7730 O   0  0  0  0  0  0  0  0  0  0  0  0
  -22.6070  -29.5170   22.5520 C   0  0  0  0  0  0  0  0  0  0  0  0
  -21.2800  -29.3410   22.4400 N   0  0  0  0  0  0  0  0  0  0  0  0
  -23.2980  -28.8820   23.3550 O   0  0  0  0  0  0  0  0  0  0  0  0
  -20.7850  -29.9050   21.7650 H   0  0  0  0  0  0  0  0  0  0  0  0
  -17.9060  -28.1740   22.9740 C   0  0  0  0  0  0  0  0  0  0  0  0
  -20.4670  -28.4150   23.2240 C   0  0  0  0  0  3  0  0  0  0  0  0
  -20.5570  -26.9820   22.6530 C   0  0  0  0  0  2  0  0  0  0  0  0
  -19.4430  -26.6630   21.6500 C   0  0  0  0  0  2  0  0  0  0  0  0
  -18.0660  -26.8200   22.3040 C   0  0  0  0  0  2  0  0  0  0  0  0
  -19.0350  -28.9300   23.3900 C   0  0  0  0  0  0  0  0  0  0  0  0
  -18.8280  -30.1990   23.9730 C   0  0  0  0  0  3  0  0  0  0  0  0
  -17.5270  -30.7110   24.1470 C   0  0  0  0  0  3  0  0  0  0  0  0
  -16.4160  -29.9510   23.7460 C   0  0  0  0  0  3  0  0  0  0  0  0
  -16.6040  -28.6860   23.1640 C   0  0  0  0  0  3  0  0  0  0  0  0
  -25.8270  -32.5110   23.8000 C   0  0  0  0  0  3  0  0  0  0  0  0
  -26.3670  -31.7090   25.0480 C   0  0  1  0  0  0  0  0  0  0  0  0
  -25.3040  -31.4720   26.1430 C   0  0  0  0  0  1  0  0  0  0  0  0
  -26.9180  -30.3310   24.6060 C   0  0  0  0  0  1  0  0  0  0  0  0
  -27.5490  -32.4770   25.6890 C   0  0  0  0  0  1  0  0  0  0  0  0
  -25.5510  -33.9110   24.1560 N   0  0  0  0  0  0  0  0  0  0  0  0
  -25.8790  -34.9680   23.3980 C   0  0  0  0  0  0  0  0  0  0  0  0
  -26.5300  -34.8660   22.3520 O   0  0  0  0  0  0  0  0  0  0  0  0
  -25.0030  -34.0660   24.9870 H   0  0  0  0  0  0  0  0  0  0  0  0
  -24.1670  -36.7780   23.0770 C   0  0  0  0  0  1  0  0  0  0  0  0
  -25.4160  -36.3590   23.8700 C   0  0  0  0  0  3  0  0  0  0  0  0
  -27.5700  -37.1970   24.6890 C   0  0  0  0  0  1  0  0  0  0  0  0
  -26.4630  -37.3990   23.7560 N   0  0  0  0  0  0  0  0  0  0  0  0
  -26.0790  -38.3260   23.9030 H   0  0  0  0  0  0  0  0  0  0  0  0
  -30.5940  -20.7910   21.1960 C   0  0  0  0  0  3  0  0  0  0  0  0
  -30.3310  -22.1140   21.3540 C   0  0  0  0  0  3  0  0  0  0  0  0
  -30.9560  -19.4440   21.8510 C   0  0  0  0  0  2  0  0  0  0  0  0
  -31.1170  -14.3730   20.1080 C   0  0  0  0  0  0  0  0  0  0  0  0
  -30.7560  -12.2320   18.9420 C   0  0  0  0  0  2  0  0  0  0  0  0
  -29.7790  -12.4630   17.7670 C   0  0  0  0  0  2  0  0  0  0  0  0
  -28.3090  -12.3860   18.2310 C   0  0  0  0  0  2  0  0  0  0  0  0
  -28.0460  -13.2290   19.5070 C   0  0  0  0  0  3  0  0  0  0  0  0
  -29.1080  -12.9010   20.5740 C   0  0  0  0  0  2  0  0  0  0  0  0
  -30.4280  -13.2060   19.9970 N   0  0  0  0  0  0  0  0  0  0  0  0
  -32.2540  -14.5120   19.6420 O   0  0  0  0  0  0  0  0  0  0  0  0
  -29.6880  -15.8330   21.5740 C   0  0  0  0  0  2  0  0  0  0  0  0
  -30.3620  -16.5870   19.3370 C   0  0  0  0  0  2  0  0  0  0  0  0
  -30.2440  -17.1380   22.1690 C   0  0  0  0  0  2  0  0  0  0  0  0
  -31.0220  -17.8470   19.9340 C   0  0  0  0  0  2  0  0  0  0  0  0
  -30.3370  -15.4730   20.3020 N   0  0  0  0  0  0  0  0  0  0  0  0
  -30.3480  -18.2590   21.1930 N   0  0  2  0  0  4  0  0  0  0  0  0
  -29.4020  -18.5170   20.9470 H   0  0  0  0  0  0  0  0  0  0  0  0
  -25.6980  -13.9720   20.2570 C   0  0  0  0  0  0  0  0  0  0  0  0
  -24.6040  -13.2550   20.6620 C   0  0  0  0  0  0  0  0  0  0  0  0
  -24.9990  -11.8830   20.6330 C   0  0  0  0  0  0  0  0  0  0  0  0
  -26.6930  -13.0370   20.0160 N   0  0  0  0  0  0  0  0  0  0  0  0
  -26.2760  -11.7750   20.2960 N   0  0  0  0  0  0  0  0  0  0  0  0
  -24.2190  -10.6610   20.8550 C   0  0  0  0  0  0  0  0  0  0  0  0
  -24.6100   -9.6980   21.8110 C   0  0  0  0  0  3  0  0  0  0  0  0
  -23.8330   -8.5370   22.0160 C   0  0  0  0  0  3  0  0  0  0  0  0
  -22.6500   -8.3340   21.2650 C   0  0  0  0  0  0  0  0  0  0  0  0
  -22.2800   -9.2860   20.2970 C   0  0  0  0  0  3  0  0  0  0  0  0
  -23.0570  -10.4370   20.0920 C   0  0  0  0  0  3  0  0  0  0  0  0
  -21.8460   -7.2260   21.3770 O   0  0  0  0  0  0  0  0  0  0  0  0
  -21.7430   -6.5300   22.5540 C   0  0  0  0  0  0  0  0  0  0  0  0
  -21.3280   -7.1520   23.7510 C   0  0  0  0  0  3  0  0  0  0  0  0
  -21.1720   -6.3850   24.9250 C   0  0  0  0  0  3  0  0  0  0  0  0
  -21.4150   -4.9990   24.8990 C   0  0  0  0  0  0  0  0  0  0  0  0
  -21.8210   -4.3770   23.7040 C   0  0  0  0  0  3  0  0  0  0  0  0
  -21.9810   -5.1410   22.5350 C   0  0  0  0  0  0  0  0  0  0  0  0
  -22.3520   -4.5340   21.3820 F   0  0  0  0  0  0  0  0  0  0  0  0
  -21.2560   -4.2610   26.0220 F   0  0  0  0  0  0  0  0  0  0  0  0
  -23.2380  -13.8030   20.9590 C   0  0  0  0  0  0  0  0  0  0  0  0
  -22.5120  -13.1650   21.8690 N   0  0  0  0  0  0  0  0  0  0  0  0
  -22.8280  -14.8300   20.4190 O   0  0  0  0  0  0  0  0  0  0  0  0
  -22.8570  -12.3310   22.3230 H   0  0  0  0  0  0  0  0  0  0  0  0
  -21.5970  -13.5120   22.1170 H   0  0  0  0  0  0  0  0  0  0  0  0
  -25.9200  -15.3300   20.0560 N   0  0  0  0  0  0  0  0  0  0  0  0
  -25.1670  -16.0000   20.1460 H   0  0  0  0  0  0  0  0  0  0  0  0
  -26.7480  -15.7190   19.6200 H   0  0  0  0  0  0  0  0  0  0  0  0
  1 50  1  0
  2  1  1  0
  2  4  1  0
  3  2  1  0
  5  2  1  0
  5  6  1  0
  6  7  1  0
  8 10  1  0
  8  7  1  0
  9 20  2  0
 10 15  1  0
 11 19  1  0
 11 21  1  0
 12 18  1  0
 12 14  1  0
 13 19  1  0
 14 13  1  0
 15 14  2  0
 16 17  1  0
 16 10  2  0
 17 12  2  0
 18 11  1  0
 19  9  1  0
 21 23  2  0
 22 21  1  0
 24 22  1  0
 25 34  2  0
 25 30  1  0
 26 22  1  0
 26 30  1  0
 27 26  1  0
 28 29  1  0
 28 27  1  0
 29 25  1  0
 30 31  2  0
 31 32  1  0
 33 32  2  0
 34 33  1  0
 35  9  1  0
 35 40  1  0
 35 36  1  0
 36 39  1  1
 36 37  1  0
 38 36  1  0
 40 43  1  0
 41 45  1  0
 41 40  1  0
 42 41  2  0
 45 44  1  0
 47 45  1  0
 47 48  1  0
 47 46  1  0
 49 50  2  0
 49 51  1  0
 52 64  1  0
 53 58  1  0
 54 55  1  0
 54 53  1  0
 56 55  1  0
 56 70  1  0
 56 57  1  0
 58 52  1  0
 58 57  1  0
 59 52  2  0
 60 62  1  0
 61 63  1  0
 61 64  1  0
 63 65  1  0
 64 60  1  0
 65 51  1  0
 65 62  1  0
 65 66  1  6
 67 68  2  0
 68 87  1  0
 69 68  1  0
 69 72  1  0
 70 67  1  0
 70 71  1  0
 71 69  2  0
 72 73  1  0
 73 74  2  0
 75 78  1  0
 75 74  1  0
 76 75  2  0
 77 76  1  0
 77 72  2  0
 78 79  1  0
 79 80  1  0
 80 81  2  0
 82 81  1  0
 82 86  1  0
 83 82  2  0
 84 79  2  0
 84 83  1  0
 85 84  1  0
 87 88  1  0
 88 91  1  0
 88 90  1  0
 89 87  2  0
 92 93  1  0
 92 67  1  0
 94 92  1  0
M  ISO  4   7 101   8 101  52 100  64 100
M  END
>  <TORSDO>  (18) 
F 22

>  <SCORE>  (18) 
-12.822

>  <name>  (18) 
17

>  <ligand_id>  (18) 
17

>  <original_smiles>  (18) 
[H]C(=C([H])C([H])([H])[N+]1([H])C([H])([H])C([H])([H])N(C(=O)N2C([H])([H])C([H])([H])C([H])([H])C([H])(n3nc(-c4c([H])c([H])c(Oc5c([H])c([H])c(F)c([H])c5F)c([H])c4[H])c(C(=O)N([H])[H])c3N([H])[H])C2([H])[H])C([H])([H])C1([H])[H])C([H])([H])[N+]([H])([H])C([H])([H])C([H])([H])C([H])([H])Oc1c([H])c([H])c2c(c1[H])C([H])([H])N(C(=O)C([H])(N([H])C(=O)C([H])(N([H])C([H])([H])[H])C([H])([H])[H])C(C([H])([H])[H])(C([H])([H])[H])C([H])([H])[H])C([H])(C(=O)N([H])C1([H])c3c([H])c([H])c([H])c([H])c3C([H])([H])C([H])([H])C1([H])[H])C2([H])[H]

>  <smiles>  (18) 
[H]C(=C([H])C([H])([H])[N+]1([H])C([H])([H])C([H])([H])N(C(=O)N2C([H])([H])C([H])([H])C([H])([H])C([H])(n3nc(-c4c([H])c([H])c(Oc5c([H])c([H])c(F)c([H])c5F)c([H])c4[H])c(C(=O)N([H])[H])c3N([H])[H])C2([H])[H])C([H])([H])C1([H])[H])C([H])([H])[N+]([H])([H])C([H])([H])C([H])([H])C([H])([H])Oc1c([H])c([H])c2c(c1[H])C([H])([H])N(C(=O)C([H])(N([H])C(=O)C([H])(N([H])C([H])([H])[H])C([H])([H])[H])C(C([H])([H])[H])(C([H])([H])[H])C([H])([H])[H])C([H])(C(=O)N([H])C1([H])c3c([H])c([H])c([H])c([H])c3C([H])([H])C([H])([H])C1([H])[H])C2([H])[H]

$$$$
18:0:0
     RDKit          3D

 96104  0  0  1  0  0  0  0  0999 V2000
  -29.4870  -22.9480   20.6230 C   0  0  0  0  0  2  0  0  0  0  0  0
  -28.0750  -20.8260   20.4120 C   0  0  0  0  0  1  0  0  0  0  0  0
  -29.3970  -21.5030   19.9840 C   0  0  0  0  0  3  0  0  0  0  0  0
  -30.6130  -20.5710   20.3520 C   0  0  0  0  0  2  0  0  0  0  0  0
  -31.2730  -14.6740   19.8460 C   0  0  0  0  0  0  0  0  0  0  0  0
  -30.8990  -12.4760   18.7790 C   0  0  0  0  0  2  0  0  0  0  0  0
  -29.8710  -12.6440   17.6400 C   0  0  0  0  0  2  0  0  0  0  0  0
  -28.4350  -12.5010   18.1800 C   0  0  0  0  0  2  0  0  0  0  0  0
  -28.1840  -13.3700   19.4400 C   0  0  0  0  0  3  0  0  0  0  0  0
  -29.3190  -13.1920   20.4720 C   0  0  0  0  0  2  0  0  0  0  0  0
  -30.5960  -13.4900   19.8030 N   0  0  0  0  0  0  0  0  0  0  0  0
  -32.3370  -14.8550   19.2460 O   0  0  0  0  0  0  0  0  0  0  0  0
  -29.9600  -17.2680   22.2970 C   0  0  0  0  0  2  0  0  0  0  0  0
  -30.7920  -16.0710   21.7820 C   0  0  0  0  0  2  0  0  0  0  0  0
  -30.0850  -16.8070   19.4720 C   0  0  0  0  0  2  0  0  0  0  0  0
  -30.5320  -18.6630   21.9470 C   0  0  0  0  0  2  0  0  0  0  0  0
  -30.8300  -18.1760   19.5440 C   0  0  0  0  0  2  0  0  0  0  0  0
  -30.5950  -15.7340   20.3630 N   0  0  0  0  0  0  0  0  0  0  0  0
  -30.2590  -19.1160   20.5560 N   0  0  2  0  0  4  0  0  0  0  0  0
  -29.2570  -19.0940   20.4420 H   0  0  0  0  0  0  0  0  0  0  0  0
  -25.8810  -14.0010   20.4000 C   0  0  0  0  0  0  0  0  0  0  0  0
  -24.8250  -13.2390   20.8250 C   0  0  0  0  0  0  0  0  0  0  0  0
  -25.2380  -11.8790   20.6790 C   0  0  0  0  0  0  0  0  0  0  0  0
  -26.8710  -13.1050   20.0260 N   0  0  0  0  0  0  0  0  0  0  0  0
  -26.4930  -11.8220   20.2500 N   0  0  0  0  0  0  0  0  0  0  0  0
  -24.4920  -10.6280   20.8680 C   0  0  0  0  0  0  0  0  0  0  0  0
  -24.8660   -9.6860   21.8530 C   0  0  0  0  0  3  0  0  0  0  0  0
  -24.1230   -8.4990   22.0270 C   0  0  0  0  0  3  0  0  0  0  0  0
  -22.9900   -8.2450   21.2170 C   0  0  0  0  0  0  0  0  0  0  0  0
  -22.6360   -9.1740   20.2230 C   0  0  0  0  0  3  0  0  0  0  0  0
  -23.3800  -10.3530   20.0470 C   0  0  0  0  0  3  0  0  0  0  0  0
  -22.2240   -7.1080   21.2990 O   0  0  0  0  0  0  0  0  0  0  0  0
  -21.9780   -6.4890   22.4980 C   0  0  0  0  0  0  0  0  0  0  0  0
  -21.3590   -7.1660   23.5720 C   0  0  0  0  0  3  0  0  0  0  0  0
  -21.0610   -6.4740   24.7630 C   0  0  0  0  0  3  0  0  0  0  0  0
  -21.3710   -5.1050   24.8780 C   0  0  0  0  0  0  0  0  0  0  0  0
  -21.9810   -4.4280   23.8070 C   0  0  0  0  0  3  0  0  0  0  0  0
  -22.2800   -5.1190   22.6190 C   0  0  0  0  0  0  0  0  0  0  0  0
  -22.8490   -4.4560   21.5830 F   0  0  0  0  0  0  0  0  0  0  0  0
  -21.0770   -4.4370   26.0180 F   0  0  0  0  0  0  0  0  0  0  0  0
  -23.4750  -13.7390   21.2490 C   0  0  0  0  0  0  0  0  0  0  0  0
  -22.8290  -13.0450   22.1810 N   0  0  0  0  0  0  0  0  0  0  0  0
  -23.0020  -14.7770   20.7870 O   0  0  0  0  0  0  0  0  0  0  0  0
  -23.2260  -12.2050   22.5740 H   0  0  0  0  0  0  0  0  0  0  0  0
  -21.9280  -13.3620   22.5080 H   0  0  0  0  0  0  0  0  0  0  0  0
  -26.0770  -15.3730   20.2820 N   0  0  0  0  0  0  0  0  0  0  0  0
  -25.3490  -16.0460   20.4970 H   0  0  0  0  0  0  0  0  0  0  0  0
  -26.9150  -15.7970   19.9080 H   0  0  0  0  0  0  0  0  0  0  0  0
  -29.1400  -24.2710   19.8190 C   0  0  0  0  0  3  0  0  0  0  0  0
  -28.2150  -24.0970   18.5830 C   0  0  0  0  0  2  0  0  0  0  0  0
  -26.8180  -23.7440   18.9010 N   0  0  0  0  0  4  0  0  0  0  0  0
  -26.7720  -22.8610   19.3770 H   0  0  0  0  0  0  0  0  0  0  0  0
  -26.2930  -23.6560   18.0480 H   0  0  0  0  0  0  0  0  0  0  0  0
  -26.3680  -24.4370   19.4720 H   0  0  0  0  0  0  0  0  0  0  0  0
  -28.7060  -25.4570   20.7680 C   0  0  0  0  0  2  0  0  0  0  0  0
  -28.7700  -26.8170   20.2590 O   0  0  0  0  0  0  0  0  0  0  0  0
  -24.6410  -31.8570   23.2890 C   0  0  0  0  0  0  0  0  0  0  0  0
  -27.5870  -27.5380   20.2620 C   0  0  0  0  0  0  0  0  0  0  0  0
  -23.5590  -30.4180   21.5960 C   0  0  0  0  0  3  0  0  0  0  0  0
  -25.1300  -28.9610   20.2090 C   0  0  0  0  0  0  0  0  0  0  0  0
  -26.0770  -30.8820   21.4950 C   0  0  0  0  0  2  0  0  0  0  0  0
  -26.2470  -29.5210   20.8440 C   0  0  0  0  0  0  0  0  0  0  0  0
  -27.4810  -28.8190   20.8650 C   0  0  0  0  0  3  0  0  0  0  0  0
  -26.4540  -27.0140   19.6090 C   0  0  0  0  0  3  0  0  0  0  0  0
  -25.2310  -27.7090   19.5850 C   0  0  0  0  0  3  0  0  0  0  0  0
  -23.8480  -29.7640   20.2190 C   0  0  0  0  0  2  0  0  0  0  0  0
  -24.7750  -31.0680   22.1840 N   0  0  0  0  0  0  0  0  0  0  0  0
  -23.5310  -32.0730   23.7920 O   0  0  0  0  0  0  0  0  0  0  0  0
  -22.9210  -29.3580   22.5240 C   0  0  0  0  0  0  0  0  0  0  0  0
  -21.6140  -29.1080   22.3390 N   0  0  0  0  0  0  0  0  0  0  0  0
  -23.6010  -28.7640   23.3640 O   0  0  0  0  0  0  0  0  0  0  0  0
  -21.1250  -29.6440   21.6360 H   0  0  0  0  0  0  0  0  0  0  0  0
  -18.2840  -27.7480   22.6990 C   0  0  0  0  0  0  0  0  0  0  0  0
  -20.8150  -28.1230   23.0690 C   0  0  0  0  0  3  0  0  0  0  0  0
  -21.0050  -26.7050   22.4830 C   0  0  0  0  0  2  0  0  0  0  0  0
  -19.9590  -26.3430   21.4240 C   0  0  0  0  0  2  0  0  0  0  0  0
  -18.5490  -26.4160   22.0170 C   0  0  0  0  0  2  0  0  0  0  0  0
  -19.3480  -28.5560   23.1780 C   0  0  0  0  0  0  0  0  0  0  0  0
  -19.0480  -29.8020   23.7700 C   0  0  0  0  0  3  0  0  0  0  0  0
  -17.7160  -30.2400   23.8920 C   0  0  0  0  0  3  0  0  0  0  0  0
  -16.6660  -29.4270   23.4320 C   0  0  0  0  0  3  0  0  0  0  0  0
  -16.9510  -28.1830   22.8410 C   0  0  0  0  0  3  0  0  0  0  0  0
  -25.8740  -32.5380   23.9590 C   0  0  0  0  0  3  0  0  0  0  0  0
  -26.3390  -31.8190   25.2850 C   0  0  1  0  0  0  0  0  0  0  0  0
  -25.1940  -31.5740   26.2950 C   0  0  0  0  0  1  0  0  0  0  0  0
  -26.9860  -30.4500   24.9650 C   0  0  0  0  0  1  0  0  0  0  0  0
  -27.4240  -32.6680   25.9880 C   0  0  0  0  0  1  0  0  0  0  0  0
  -25.5150  -33.9380   24.2280 N   0  0  0  0  0  0  0  0  0  0  0  0
  -25.8590  -34.9740   23.4510 C   0  0  0  0  0  0  0  0  0  0  0  0
  -26.5830  -34.8560   22.4590 O   0  0  0  0  0  0  0  0  0  0  0  0
  -24.8780  -34.1010   24.9930 H   0  0  0  0  0  0  0  0  0  0  0  0
  -24.1240  -36.7180   22.9310 C   0  0  0  0  0  1  0  0  0  0  0  0
  -25.3130  -36.3620   23.8370 C   0  0  0  0  0  3  0  0  0  0  0  0
  -27.3640  -37.3170   24.7940 C   0  0  0  0  0  1  0  0  0  0  0  0
  -26.3300  -37.4340   23.7680 N   0  0  0  0  0  0  0  0  0  0  0  0
  -25.8960  -38.3500   23.8560 H   0  0  0  0  0  0  0  0  0  0  0  0
  3  4  1  0
  3  2  1  0
  3  1  1  0
  4 19  1  0
  5 18  1  0
  6 11  1  0
  7  8  1  0
  7  6  1  0
  9  8  1  0
  9 24  1  0
  9 10  1  0
 11  5  1  0
 11 10  1  0
 12  5  2  0
 14 13  1  0
 15 17  1  0
 15 18  1  0
 16 13  1  0
 17 19  1  0
 18 14  1  0
 19 16  1  0
 19 20  1  6
 21 22  2  0
 22 41  1  0
 23 22  1  0
 23 26  1  0
 24 25  1  0
 24 21  1  0
 25 23  2  0
 26 27  1  0
 27 28  2  0
 29 32  1  0
 29 28  1  0
 30 29  2  0
 31 30  1  0
 31 26  2  0
 32 33  1  0
 33 38  2  0
 33 34  1  0
 34 35  2  0
 35 36  1  0
 36 40  1  0
 37 36  2  0
 38 37  1  0
 39 38  1  0
 41 42  1  0
 42 45  1  0
 42 44  1  0
 43 41  2  0
 46 21  1  0
 46 47  1  0
 48 46  1  0
 49 50  1  0
 49  1  1  0
 49 55  1  0
 50 51  1  0
 51 52  1  0
 51 54  1  0
 53 51  1  0
 56 58  1  0
 56 55  1  0
 57 68  2  0
 58 63  1  0
 59 67  1  0
 59 69  1  0
 60 66  1  0
 60 62  1  0
 61 67  1  0
 62 63  2  0
 62 61  1  0
 64 58  2  0
 65 64  1  0
 65 60  2  0
 66 59  1  0
 67 57  1  0
 69 71  2  0
 70 69  1  0
 72 70  1  0
 73 82  2  0
 73 78  1  0
 74 70  1  0
 74 78  1  0
 75 74  1  0
 76 77  1  0
 76 75  1  0
 77 73  1  0
 78 79  2  0
 79 80  1  0
 81 80  2  0
 82 81  1  0
 83 57  1  0
 83 88  1  0
 83 84  1  0
 84 87  1  1
 84 85  1  0
 86 84  1  0
 88 91  1  0
 89 93  1  0
 89 88  1  0
 90 89  2  0
 93 92  1  0
 95 93  1  0
 95 96  1  0
 95 94  1  0
M  ISO  4   5 100  18 100  55 101  56 101
M  END
>  <TORSDO>  (19) 
F 22

>  <SCORE>  (19) 
-12.093

>  <name>  (19) 
18

>  <ligand_id>  (19) 
18

>  <original_smiles>  (19) 
[H]c1c([H])c([H])c2c(c1[H])C([H])([H])C([H])([H])C([H])([H])C2([H])N([H])C(=O)C1([H])N(C(=O)C([H])(N([H])C(=O)C([H])(N([H])C([H])([H])[H])C([H])([H])[H])C(C([H])([H])[H])(C([H])([H])[H])C([H])([H])[H])C([H])([H])c2c([H])c(OC([H])([H])C([H])(C([H])([H])C([H])(C([H])([H])[H])C([H])([H])[N+]3([H])C([H])([H])C([H])([H])N(C(=O)N4C([H])([H])C([H])([H])C([H])([H])C([H])(n5nc(-c6c([H])c([H])c(Oc7c([H])c([H])c(F)c([H])c7F)c([H])c6[H])c(C(=O)N([H])[H])c5N([H])[H])C4([H])[H])C([H])([H])C([H])([H])C3([H])[H])C([H])([H])[N+]([H])([H])[H])c([H])c([H])c2C1([H])[H]

>  <smiles>  (19) 
[H]c1c([H])c([H])c2c(c1[H])C([H])([H])C([H])([H])C([H])([H])C2([H])N([H])C(=O)C1([H])N(C(=O)C([H])(N([H])C(=O)C([H])(N([H])C([H])([H])[H])C([H])([H])[H])C(C([H])([H])[H])(C([H])([H])[H])C([H])([H])[H])C([H])([H])c2c([H])c(OC([H])([H])C([H])(C([H])([H])C([H])(C([H])([H])[H])C([H])([H])[N+]3([H])C([H])([H])C([H])([H])N(C(=O)N4C([H])([H])C([H])([H])C([H])([H])C([H])(n5nc(-c6c([H])c([H])c(Oc7c([H])c([H])c(F)c([H])c7F)c([H])c6[H])c(C(=O)N([H])[H])c5N([H])[H])C4([H])[H])C([H])([H])C([H])([H])C3([H])[H])C([H])([H])[N+]([H])([H])[H])c([H])c([H])c2C1([H])[H]

$$$$
19:0:0
     RDKit          3D

 94 98  0  0  1  0  0  0  0  0999 V2000
  -23.7390  -15.7600   20.9640 C   0  0  0  0  0  2  0  0  0  0  0  0
  -24.9130  -16.8880   19.9700 C   0  0  0  0  0  2  0  0  0  0  0  0
  -25.6380  -18.6010   19.9330 C   0  0  0  0  0  2  0  0  0  0  0  0
  -26.3310  -19.7630   18.6470 C   0  0  0  0  0  2  0  0  0  0  0  0
  -27.4890  -21.2240   18.5400 C   0  0  0  0  0  3  0  0  0  0  0  0
  -27.6610  -22.7790   17.5270 C   0  0  0  0  0  3  0  0  0  0  0  0
  -28.6970  -24.1150   17.2550 O   0  0  0  0  0  0  0  0  0  0  0  0
  -27.4460  -28.8860   22.6800 C   0  0  0  0  0  0  0  0  0  0  0  0
  -28.4000  -25.5220   17.6000 C   0  0  0  0  0  0  0  0  0  0  0  0
  -25.8640  -28.5590   20.8330 C   0  0  0  0  0  3  0  0  0  0  0  0
  -26.8200  -27.7110   18.6040 C   0  0  0  0  0  0  0  0  0  0  0  0
  -28.3930  -28.4690   20.3610 C   0  0  0  0  0  2  0  0  0  0  0  0
  -28.0880  -27.5280   19.1650 C   0  0  0  0  0  0  0  0  0  0  0  0
  -28.9060  -26.4310   18.6510 C   0  0  0  0  0  3  0  0  0  0  0  0
  -27.2960  -26.0200   16.9110 C   0  0  0  0  0  3  0  0  0  0  0  0
  -26.4730  -27.0190   17.4420 C   0  0  0  0  0  3  0  0  0  0  0  0
  -25.8280  -28.6380   19.2830 C   0  0  0  0  0  2  0  0  0  0  0  0
  -27.2680  -28.6430   21.3440 N   0  0  0  0  0  0  0  0  0  0  0  0
  -26.4830  -29.0200   23.4520 O   0  0  0  0  0  0  0  0  0  0  0  0
  -25.1230  -27.2890   21.3270 C   0  0  0  0  0  0  0  0  0  0  0  0
  -23.7810  -27.2760   21.2290 N   0  0  0  0  0  0  0  0  0  0  0  0
  -25.7570  -26.3340   21.7860 O   0  0  0  0  0  0  0  0  0  0  0  0
  -23.3250  -28.0990   20.8580 H   0  0  0  0  0  0  0  0  0  0  0  0
  -20.3450  -26.1240   21.2250 C   0  0  0  0  0  0  0  0  0  0  0  0
  -22.9030  -26.1660   21.6110 C   0  0  0  0  0  3  0  0  0  0  0  0
  -22.9720  -25.0200   20.5760 C   0  0  0  0  0  2  0  0  0  0  0  0
  -21.8920  -25.1190   19.4930 C   0  0  0  0  0  2  0  0  0  0  0  0
  -20.4970  -25.0900   20.1210 C   0  0  0  0  0  2  0  0  0  0  0  0
  -21.4750  -26.6400   21.9140 C   0  0  0  0  0  0  0  0  0  0  0  0
  -21.2780  -27.6210   22.9100 C   0  0  0  0  0  3  0  0  0  0  0  0
  -19.9850  -28.0850   23.2190 C   0  0  0  0  0  3  0  0  0  0  0  0
  -18.8700  -27.5620   22.5410 C   0  0  0  0  0  3  0  0  0  0  0  0
  -19.0510  -26.5810   21.5510 C   0  0  0  0  0  3  0  0  0  0  0  0
  -28.8680  -29.0270   23.2970 C   0  0  0  0  0  3  0  0  0  0  0  0
  -28.7670  -29.9430   24.4480 N   0  0  0  0  0  0  0  0  0  0  0  0
  -29.1960  -31.2110   24.4620 C   0  0  0  0  0  0  0  0  0  0  0  0
  -29.7860  -31.7250   23.5080 O   0  0  0  0  0  0  0  0  0  0  0  0
  -28.2430  -29.6070   25.2430 H   0  0  0  0  0  0  0  0  0  0  0  0
  -27.7450  -32.9930   25.4970 C   0  0  0  0  0  1  0  0  0  0  0  0
  -28.9310  -32.0430   25.7340 C   0  0  0  0  0  3  0  0  0  0  0  0
  -31.1880  -31.9890   26.7020 C   0  0  0  0  0  1  0  0  0  0  0  0
  -30.1050  -32.8220   26.1860 N   0  0  0  0  0  0  0  0  0  0  0  0
  -29.8420  -33.4830   26.9100 H   0  0  0  0  0  0  0  0  0  0  0  0
  -29.4840  -27.6470   23.7550 C   0  0  1  0  0  0  0  0  0  0  0  0
  -28.5490  -26.8210   24.6690 C   0  0  0  0  0  1  0  0  0  0  0  0
  -29.8430  -26.7640   22.5380 C   0  0  0  0  0  1  0  0  0  0  0  0
  -30.8070  -27.8940   24.5180 C   0  0  0  0  0  1  0  0  0  0  0  0
  -23.2670  -13.9280   21.4390 C   0  0  0  0  0  2  0  0  0  0  0  0
  -21.7540   -9.8910   22.2040 C   0  0  0  0  0  1  0  0  0  0  0  0
  -21.8760  -11.6860   21.7930 C   0  0  0  0  0  2  0  0  0  0  0  0
  -24.3590   -8.7830   20.4060 C   0  0  0  0  0  2  0  0  0  0  0  0
  -24.8530  -10.7690   19.8210 C   0  0  0  0  0 15  0  0  0  0  0  0
  -25.5320   -7.8330   20.8400 C   0  0  0  0  0  1  0  0  0  0  0  0
  -23.1600  -12.2300   20.7570 N   0  0  2  0  0  4  0  0  0  0  0  0
  -22.6660  -12.4540   19.9050 H   0  0  0  0  0  0  0  0  0  0  0  0
  -27.0010  -11.1870   19.5360 C   0  0  0  0  0 15  0  0  0  0  0  0
  -30.0970  -11.9040   21.1930 C   0  0  0  0  0  0  0  0  0  0  0  0
  -31.1750   -9.8140   21.7150 C   0  0  0  0  0  2  0  0  0  0  0  0
  -30.3010   -9.2920   20.5820 C   0  0  0  0  0  2  0  0  0  0  0  0
  -28.7840   -9.3360   21.0660 C   0  0  0  0  0  2  0  0  0  0  0  0
  -28.3110  -10.3500   22.3080 C   0  0  0  0  0  3  0  0  0  0  0  0
  -29.4540  -10.6270   23.1980 C   0  0  0  0  0  2  0  0  0  0  0  0
  -30.4020  -10.9570   22.1600 N   0  0  0  0  0  0  0  0  0  0  0  0
  -31.1530  -12.6050   21.3420 O   0  0  0  0  0  0  0  0  0  0  0  0
  -28.7520  -11.8480   20.1900 N   0  0  0  0  0  2  0  0  0  0  0  0
  -28.9130  -12.6600   19.6110 H   0  0  0  0  0  0  0  0  0  0  0  0
  -26.7050  -12.4390   21.8300 C   0  0  0  0  0  3  0  0  0  0  0  0
  -25.4950  -12.2340   21.5110 C   0  0  0  0  0  3  0  0  0  0  0  0
  -25.1650  -10.9370   22.3720 C   0  0  0  0  0  3  0  0  0  0  0  0
  -27.1240  -11.1180   22.2300 N   0  0  0  0  0  0  0  0  0  0  0  0
  -26.2290  -10.2990   22.6210 N   0  0  0  0  0  2  0  0  0  0  0  0
  -24.0780   -9.7700   22.2250 C   0  0  0  0  0  2  0  0  0  0  0  0
  -24.0420   -8.6220   23.3030 C   0  0  0  0  0  3  0  0  0  0  0  0
  -23.2190   -7.3480   23.0630 C   0  0  0  0  0  3  0  0  0  0  0  0
  -22.3630   -6.9980   21.8480 C   0  0  0  0  0  3  0  0  0  0  0  0
  -22.2800   -7.8020   20.5590 C   0  0  0  0  0  2  0  0  0  0  0  0
  -22.9430   -9.2040   20.4620 C   0  0  0  0  0  2  0  0  0  0  0  0
  -21.3410   -6.0660   21.9510 O   0  0  0  0  0  0  0  0  0  0  0  0
  -20.5280   -5.8970   23.0690 C   0  0  0  0  0  0  0  0  0  0  0  0
  -19.7050   -6.8930   23.6600 C   0  0  0  0  0  3  0  0  0  0  0  0
  -18.8770   -6.5840   24.7670 C   0  0  0  0  0  3  0  0  0  0  0  0
  -18.8480   -5.2750   25.2860 C   0  0  0  0  0  0  0  0  0  0  0  0
  -19.6340   -4.2780   24.6860 C   0  0  0  0  0  3  0  0  0  0  0  0
  -20.4540   -4.5890   23.5860 C   0  0  0  0  0  0  0  0  0  0  0  0
  -21.1810   -3.6100   23.0010 F   0  0  0  0  0  0  0  0  0  0  0  0
  -18.0690   -4.9710   26.3530 F   0  0  0  0  0  0  0  0  0  0  0  0
  -24.9400  -13.0180   20.1080 C   0  0  0  0  0  0  0  0  0  0  0  0
  -23.8470  -12.7870   19.3320 N   0  0  0  0  0  4  0  0  0  0  0  0
  -25.2550  -14.0540   19.6890 O   0  0  0  0  0  0  0  0  0  0  0  0
  -23.4220  -11.8820   19.2340 H   0  0  0  0  0  0  0  0  0  0  0  0
  -23.6840  -13.4700   18.6030 H   0  0  0  0  0  0  0  0  0  0  0  0
  -27.4060  -13.5720   21.4670 N   0  0  0  0  0  0  0  0  0  0  0  0
  -26.9460  -14.3590   21.0200 H   0  0  0  0  0  0  0  0  0  0  0  0
  -28.3850  -13.7390   21.6500 H   0  0  0  0  0  0  0  0  0  0  0  0
  1 48  1  0
  2  1  1  0
  3  2  1  0
  4  3  1  0
  5  4  1  0
  6  5  2  0
  7  6  1  0
  7  9  1  0
  8 19  2  0
  9 14  1  0
 10 20  1  0
 10 18  1  0
 11 13  1  0
 11 17  1  0
 12 18  1  0
 13 12  1  0
 14 13  2  0
 15 16  1  0
 15  9  2  0
 16 11  2  0
 17 10  1  0
 18  8  1  0
 20 22  2  0
 21 20  1  0
 23 21  1  0
 24 33  2  0
 24 29  1  0
 25 21  1  0
 25 29  1  0
 26 25  1  0
 27 28  1  0
 27 26  1  0
 28 24  1  0
 29 30  2  0
 30 31  1  0
 32 31  2  0
 33 32  1  0
 34  8  1  0
 34 44  1  0
 34 35  1  0
 35 36  1  0
 35 38  1  0
 36 40  1  0
 37 36  2  0
 40 39  1  0
 40 42  1  0
 42 41  1  0
 42 43  1  0
 44 47  1  1
 44 45  1  0
 46 44  1  0
 50 49  1  0
 51 77  1  0
 51 53  1  0
 54 48  1  0
 54 50  1  0
 54 55  1  6
 57 64  2  0
 57 63  1  0
 58 63  1  0
 59 60  1  0
 59 58  1  0
 61 60  1  0
 61 62  1  0
 63 62  1  0
 65 57  1  0
 66 65  1  0
 67 92  1  0
 67 70  1  0
 68 87  1  0
 68 67  1  0
 68 69  1  0
 69 72  1  0
 69 71  1  0
 70 61  1  0
 70 71  1  0
 72 73  1  0
 74 73  2  0
 75 76  1  0
 75 78  1  0
 75 74  1  0
 77 76  1  0
 78 79  1  0
 79 84  2  0
 79 80  1  0
 80 81  2  0
 81 82  1  0
 82 86  1  0
 83 82  2  0
 84 83  1  0
 85 84  1  0
 88 87  1  0
 88 54  1  0
 89 87  2  0
 90 88  1  0
 91 88  1  0
 92 94  1  0
 93 92  1  0
M  ISO  4   6 101   7 101  57 100  65 100
M  END
>  <TORSDO>  (20) 
F 24

>  <SCORE>  (20) 
-1.399

>  <name>  (20) 
19

>  <ligand_id>  (20) 
19

>  <original_smiles>  (20) 
[H]c1c([H])c([H])c2c(c1[H])C([H])([H])C([H])([H])C([H])([H])C2([H])N([H])C(=O)C1([H])N(C(=O)C([H])(N([H])C(=O)C([H])(N([H])C([H])([H])[H])C([H])([H])[H])C(C([H])([H])[H])(C([H])([H])[H])C([H])([H])[H])C([H])([H])c2c([H])c(OC([H])([H])C([H])([H])C([H])([H])C([H])([H])C([H])([H])C([H])([H])C([H])([H])[N+]3([H])C([H])([H])C([H])([H])C([H])(C([H])([H])[H])C3([H])C([H])([H])N([H])C(=O)N3C([H])([H])C([H])([H])C([H])([H])C([H])(n4nc(-c5c([H])c([H])c(Oc6c([H])c([H])c(F)c([H])c6F)c([H])c5[H])c(C(=O)N([H])[H])c4N([H])[H])C3([H])[H])c([H])c([H])c2C1([H])[H]

>  <smiles>  (20) 
[H]c1c([H])c([H])c2c(c1[H])C([H])([H])C([H])([H])C([H])([H])C2([H])N([H])C(=O)C1([H])N(C(=O)C([H])(N([H])C(=O)C([H])(N([H])C([H])([H])[H])C([H])([H])[H])C(C([H])([H])[H])(C([H])([H])[H])C([H])([H])[H])C([H])([H])c2c([H])c(OC([H])([H])C([H])([H])C([H])([H])C([H])([H])C([H])([H])C([H])([H])C([H])([H])[N+]3([H])C([H])([H])C([H])([H])C([H])(C([H])([H])[H])C3([H])C([H])([H])N([H])C(=O)N3C([H])([H])C([H])([H])C([H])([H])C([H])(n4nc(-c5c([H])c([H])c(Oc6c([H])c([H])c(F)c([H])c6F)c([H])c5[H])c(C(=O)N([H])[H])c4N([H])[H])C3([H])[H])c([H])c([H])c2C1([H])[H]

$$$$
20:0:0
     RDKit          3D

 96104  0  0  1  0  0  0  0  0999 V2000
  -30.2160  -20.6840   19.6610 C   0  0  0  0  0  2  0  0  0  0  0  0
  -29.3280  -21.8430   19.4740 N   0  0  0  0  0  4  0  0  0  0  0  0
  -28.9740  -22.1200   20.3750 H   0  0  0  0  0  0  0  0  0  0  0  0
  -28.5420  -21.5770   18.9010 H   0  0  0  0  0  0  0  0  0  0  0  0
  -30.0030  -23.0100   18.8790 C   0  0  0  0  0  2  0  0  0  0  0  0
  -29.0660  -24.2220   18.8150 C   0  0  0  0  0  2  0  0  0  0  0  0
  -29.8300  -25.5410   18.6200 C   0  0  0  0  0  2  0  0  0  0  0  0
  -28.9130  -26.7600   18.7260 C   0  0  0  0  0  2  0  0  0  0  0  0
  -28.3750  -26.7990   20.0440 O   0  0  0  0  0  0  0  0  0  0  0  0
  -24.5740  -31.8980   23.2150 C   0  0  0  0  0  0  0  0  0  0  0  0
  -27.1940  -27.4830   20.1180 C   0  0  0  0  0  0  0  0  0  0  0  0
  -23.3530  -30.4930   21.5850 C   0  0  0  0  0  3  0  0  0  0  0  0
  -24.7920  -28.9450   20.1630 C   0  0  0  0  0  0  0  0  0  0  0  0
  -25.8720  -30.8550   21.3650 C   0  0  0  0  0  2  0  0  0  0  0  0
  -25.9510  -29.4810   20.7420 C   0  0  0  0  0  0  0  0  0  0  0  0
  -27.1550  -28.7480   20.7340 C   0  0  0  0  0  3  0  0  0  0  0  0
  -26.0210  -26.9380   19.5590 C   0  0  0  0  0  3  0  0  0  0  0  0
  -24.8170  -27.6670   19.5760 C   0  0  0  0  0  3  0  0  0  0  0  0
  -23.5500  -29.8040   20.2080 C   0  0  0  0  0  2  0  0  0  0  0  0
  -24.6190  -31.0960   22.1150 N   0  0  0  0  0  0  0  0  0  0  0  0
  -23.4990  -32.1750   23.7630 O   0  0  0  0  0  0  0  0  0  0  0  0
  -22.7090  -29.4760   22.5530 C   0  0  0  0  0  0  0  0  0  0  0  0
  -21.3860  -29.2860   22.4240 N   0  0  0  0  0  0  0  0  0  0  0  0
  -23.3950  -28.8580   23.3720 O   0  0  0  0  0  0  0  0  0  0  0  0
  -20.8940  -29.8380   21.7340 H   0  0  0  0  0  0  0  0  0  0  0  0
  -18.0200  -28.0700   22.9010 C   0  0  0  0  0  0  0  0  0  0  0  0
  -20.5710  -28.3510   23.1990 C   0  0  0  0  0  3  0  0  0  0  0  0
  -20.6910  -26.9140   22.6430 C   0  0  0  0  0  2  0  0  0  0  0  0
  -19.6030  -26.5690   21.6210 C   0  0  0  0  0  2  0  0  0  0  0  0
  -18.2140  -26.7120   22.2480 C   0  0  0  0  0  2  0  0  0  0  0  0
  -19.1280  -28.8470   23.3340 C   0  0  0  0  0  0  0  0  0  0  0  0
  -18.8920  -30.1180   23.9020 C   0  0  0  0  0  3  0  0  0  0  0  0
  -17.5830  -30.6130   24.0450 C   0  0  0  0  0  3  0  0  0  0  0  0
  -16.4890  -29.8330   23.6300 C   0  0  0  0  0  3  0  0  0  0  0  0
  -16.7080  -28.5650   23.0650 C   0  0  0  0  0  3  0  0  0  0  0  0
  -25.8690  -32.5250   23.8230 C   0  0  0  0  0  3  0  0  0  0  0  0
  -25.5650  -33.9210   24.1620 N   0  0  0  0  0  0  0  0  0  0  0  0
  -25.8970  -34.9760   23.4050 C   0  0  0  0  0  0  0  0  0  0  0  0
  -26.5640  -34.8760   22.3720 O   0  0  0  0  0  0  0  0  0  0  0  0
  -24.9740  -34.0740   24.9670 H   0  0  0  0  0  0  0  0  0  0  0  0
  -24.1700  -36.7710   23.0590 C   0  0  0  0  0  1  0  0  0  0  0  0
  -25.4110  -36.3630   23.8690 C   0  0  0  0  0  3  0  0  0  0  0  0
  -27.5500  -37.2380   24.7000 C   0  0  0  0  0  1  0  0  0  0  0  0
  -26.4460  -37.4140   23.7590 N   0  0  0  0  0  0  0  0  0  0  0  0
  -26.0430  -38.3340   23.9140 H   0  0  0  0  0  0  0  0  0  0  0  0
  -26.4030  -31.7460   25.0860 C   0  0  1  0  0  0  0  0  0  0  0  0
  -25.3260  -31.5000   26.1680 C   0  0  0  0  0  1  0  0  0  0  0  0
  -26.9810  -30.3730   24.6720 C   0  0  0  0  0  1  0  0  0  0  0  0
  -27.5640  -32.5350   25.7380 C   0  0  0  0  0  1  0  0  0  0  0  0
  -29.5230  -19.5660   20.4630 C   0  0  0  0  0  2  0  0  0  0  0  0
  -30.7100  -14.2970   19.8910 C   0  0  0  0  0  0  0  0  0  0  0  0
  -30.1700  -12.2710   18.6310 C   0  0  0  0  0  2  0  0  0  0  0  0
  -29.1070  -12.6280   17.5700 C   0  0  0  0  0  2  0  0  0  0  0  0
  -27.6840  -12.5290   18.1620 C   0  0  0  0  0  2  0  0  0  0  0  0
  -27.5370  -13.2630   19.5220 C   0  0  0  0  0  3  0  0  0  0  0  0
  -28.7020  -12.9020   20.4730 C   0  0  0  0  0  2  0  0  0  0  0  0
  -29.9670  -13.1720   19.7670 N   0  0  0  0  0  0  0  0  0  0  0  0
  -31.8100  -14.4650   19.3580 O   0  0  0  0  0  0  0  0  0  0  0  0
  -30.5270  -17.5440   19.3100 C   0  0  0  0  0  2  0  0  0  0  0  0
  -29.6080  -16.3190   19.2740 C   0  0  0  0  0  2  0  0  0  0  0  0
  -30.3160  -15.9270   21.6390 C   0  0  0  0  0  2  0  0  0  0  0  0
  -30.3990  -18.3090   20.6460 C   0  0  0  0  0  3  0  0  0  0  0  0
  -29.8490  -17.3950   21.7820 C   0  0  0  0  0  3  0  0  0  0  0  0
  -30.0080  -15.3610   20.3140 N   0  0  0  0  0  0  0  0  0  0  0  0
  -25.2520  -13.8910   20.5200 C   0  0  0  0  0  0  0  0  0  0  0  0
  -24.2030  -13.1260   20.9590 C   0  0  0  0  0  0  0  0  0  0  0  0
  -24.6140  -11.7670   20.7960 C   0  0  0  0  0  0  0  0  0  0  0  0
  -26.2360  -13.0000   20.1280 N   0  0  0  0  0  0  0  0  0  0  0  0
  -25.8620  -11.7130   20.3470 N   0  0  0  0  0  0  0  0  0  0  0  0
  -23.8740  -10.5150   20.9870 C   0  0  0  0  0  0  0  0  0  0  0  0
  -24.3560   -9.4980   21.8400 C   0  0  0  0  0  3  0  0  0  0  0  0
  -23.6170   -8.3090   22.0210 C   0  0  0  0  0  3  0  0  0  0  0  0
  -22.3830   -8.1310   21.3520 C   0  0  0  0  0  0  0  0  0  0  0  0
  -21.9210   -9.1360   20.4840 C   0  0  0  0  0  3  0  0  0  0  0  0
  -22.6600  -10.3160   20.2990 C   0  0  0  0  0  3  0  0  0  0  0  0
  -21.6100   -6.9990   21.4500 O   0  0  0  0  0  0  0  0  0  0  0  0
  -21.6050   -6.2270   22.5840 C   0  0  0  0  0  0  0  0  0  0  0  0
  -21.2710   -6.7610   23.8480 C   0  0  0  0  0  3  0  0  0  0  0  0
  -21.2090   -5.9190   24.9750 C   0  0  0  0  0  3  0  0  0  0  0  0
  -21.4750   -4.5430   24.8420 C   0  0  0  0  0  0  0  0  0  0  0  0
  -21.8030   -4.0070   23.5840 C   0  0  0  0  0  3  0  0  0  0  0  0
  -21.8650   -4.8460   22.4580 C   0  0  0  0  0  0  0  0  0  0  0  0
  -22.1630   -4.3210   21.2450 F   0  0  0  0  0  0  0  0  0  0  0  0
  -21.4070   -3.7330   25.9250 F   0  0  0  0  0  0  0  0  0  0  0  0
  -22.8580  -13.6180   21.4100 C   0  0  0  0  0  0  0  0  0  0  0  0
  -22.2190  -12.8940   22.3230 N   0  0  0  0  0  0  0  0  0  0  0  0
  -22.3910  -14.6770   20.9930 O   0  0  0  0  0  0  0  0  0  0  0  0
  -22.6110  -12.0330   22.6780 H   0  0  0  0  0  0  0  0  0  0  0  0
  -21.3200  -13.2000   22.6700 H   0  0  0  0  0  0  0  0  0  0  0  0
  -25.4420  -15.2650   20.4070 N   0  0  0  0  0  0  0  0  0  0  0  0
  -24.7230  -15.9380   20.6500 H   0  0  0  0  0  0  0  0  0  0  0  0
  -26.2630  -15.6890   19.9960 H   0  0  0  0  0  0  0  0  0  0  0  0
  -30.1740  -17.9220   23.1220 N   0  0  0  0  0  4  0  0  0  0  0  0
  -31.1650  -18.0190   23.2530 H   0  0  0  0  0  0  0  0  0  0  0  0
  -29.8230  -17.3070   23.8340 H   0  0  0  0  0  0  0  0  0  0  0  0
  -29.7450  -18.8190   23.2680 H   0  0  0  0  0  0  0  0  0  0  0  0
  1 50  1  0
  2  1  1  0
  2  3  1  0
  4  2  1  0
  5  2  1  0
  6  5  1  0
  7  8  1  0
  7  6  1  0
  8  9  1  0
  9 11  1  0
 10 21  2  0
 11 16  1  0
 12 20  1  0
 12 22  1  0
 13 19  1  0
 13 15  1  0
 14 20  1  0
 15 14  1  0
 16 15  2  0
 17 18  1  0
 17 11  2  0
 18 13  2  0
 19 12  1  0
 20 10  1  0
 22 24  2  0
 23 22  1  0
 25 23  1  0
 26 35  2  0
 26 31  1  0
 27 23  1  0
 27 31  1  0
 28 27  1  0
 29 30  1  0
 29 28  1  0
 30 26  1  0
 31 32  2  0
 32 33  1  0
 34 33  2  0
 35 34  1  0
 36 10  1  0
 36 37  1  0
 36 46  1  0
 37 40  1  0
 38 42  1  0
 38 37  1  0
 39 38  2  0
 42 41  1  0
 44 42  1  0
 44 45  1  0
 44 43  1  0
 46 49  1  1
 46 47  1  0
 48 46  1  0
 51 64  1  0
 52 57  1  0
 53 54  1  0
 53 52  1  0
 55 54  1  0
 55 68  1  0
 55 56  1  0
 57 51  1  0
 57 56  1  0
 58 51  2  0
 59 62  1  0
 60 59  1  0
 60 64  1  0
 61 63  1  0
 62 50  1  0
 62 63  1  0
 63 93  1  0
 64 61  1  0
 65 66  2  0
 66 85  1  0
 67 66  1  0
 67 70  1  0
 68 69  1  0
 68 65  1  0
 69 67  2  0
 70 71  1  0
 71 72  2  0
 73 76  1  0
 73 72  1  0
 74 73  2  0
 75 74  1  0
 75 70  2  0
 76 77  1  0
 77 78  1  0
 78 79  2  0
 80 79  1  0
 80 84  1  0
 81 80  2  0
 82 77  2  0
 82 81  1  0
 83 82  1  0
 85 86  1  0
 86 89  1  0
 86 88  1  0
 87 85  2  0
 90 65  1  0
 90 91  1  0
 92 90  1  0
 93 94  1  0
 93 96  1  0
 93 95  1  0
M  ISO  4   8 101   9 101  51 100  64 100
M  END
>  <TORSDO>  (21) 
F 23

>  <SCORE>  (21) 
-12.127

>  <name>  (21) 
20

>  <ligand_id>  (21) 
20

>  <original_smiles>  (21) 
[H]c1c([H])c([H])c2c(c1[H])C([H])([H])C([H])([H])C([H])([H])C2([H])N([H])C(=O)C1([H])N(C(=O)C([H])(N([H])C(=O)C([H])(N([H])C([H])([H])[H])C([H])([H])[H])C(C([H])([H])[H])(C([H])([H])[H])C([H])([H])[H])C([H])([H])c2c([H])c(OC([H])([H])C([H])([H])C([H])([H])C([H])([H])[N+]([H])([H])C([H])([H])C([H])([H])C3([H])C([H])([H])C([H])([H])N(C(=O)N4C([H])([H])C([H])([H])C([H])([H])C([H])(n5nc(-c6c([H])c([H])c(Oc7c([H])c([H])c(F)c([H])c7F)c([H])c6[H])c(C(=O)N([H])[H])c5N([H])[H])C4([H])[H])C([H])([H])C3([H])[N+]([H])([H])[H])c([H])c([H])c2C1([H])[H]

>  <smiles>  (21) 
[H]c1c([H])c([H])c2c(c1[H])C([H])([H])C([H])([H])C([H])([H])C2([H])N([H])C(=O)C1([H])N(C(=O)C([H])(N([H])C(=O)C([H])(N([H])C([H])([H])[H])C([H])([H])[H])C(C([H])([H])[H])(C([H])([H])[H])C([H])([H])[H])C([H])([H])c2c([H])c(OC([H])([H])C([H])([H])C([H])([H])C([H])([H])[N+]([H])([H])C([H])([H])C([H])([H])C3([H])C([H])([H])C([H])([H])N(C(=O)N4C([H])([H])C([H])([H])C([H])([H])C([H])(n5nc(-c6c([H])c([H])c(Oc7c([H])c([H])c(F)c([H])c7F)c([H])c6[H])c(C(=O)N([H])[H])c5N([H])[H])C4([H])[H])C([H])([H])C3([H])[N+]([H])([H])[H])c([H])c([H])c2C1([H])[H]

$$$$
21:0:0
     RDKit          3D

 94102  0  0  1  0  0  0  0  0999 V2000
  -28.9520  -19.5280   19.8150 C   0  0  0  0  0  2  0  0  0  0  0  0
  -30.3530  -19.1660   20.1560 N   0  0  0  0  0  4  0  0  0  0  0  0
  -30.9410  -19.4440   19.3880 H   0  0  0  0  0  0  0  0  0  0  0  0
  -30.6280  -19.7080   20.9570 H   0  0  0  0  0  0  0  0  0  0  0  0
  -30.9040  -14.3380   19.7210 C   0  0  0  0  0  0  0  0  0  0  0  0
  -30.4040  -12.2380   18.5160 C   0  0  0  0  0  2  0  0  0  0  0  0
  -29.3290  -12.5390   17.4530 C   0  0  0  0  0  2  0  0  0  0  0  0
  -27.9080  -12.4410   18.0450 C   0  0  0  0  0  2  0  0  0  0  0  0
  -27.7620  -13.2000   19.3920 C   0  0  0  0  0  3  0  0  0  0  0  0
  -28.9380  -12.8680   20.3340 C   0  0  0  0  0  2  0  0  0  0  0  0
  -30.1920  -13.1780   19.6270 N   0  0  0  0  0  0  0  0  0  0  0  0
  -31.9630  -14.5140   19.1100 O   0  0  0  0  0  0  0  0  0  0  0  0
  -30.2940  -15.6910   21.6880 C   0  0  0  0  0  2  0  0  0  0  0  0
  -30.1420  -16.6680   19.5080 C   0  0  0  0  0  2  0  0  0  0  0  0
  -30.2310  -17.2240   21.8560 C   0  0  0  0  0  3  0  0  0  0  0  0
  -30.6540  -17.7380   20.4760 C   0  0  0  0  0  3  0  0  0  0  0  0
  -30.2370  -15.3940   20.2440 N   0  0  0  0  0  0  0  0  0  0  0  0
  -25.4800  -13.8250   20.4120 C   0  0  0  0  0  0  0  0  0  0  0  0
  -24.4500  -13.0580   20.8870 C   0  0  0  0  0  0  0  0  0  0  0  0
  -24.8690  -11.6990   20.7450 C   0  0  0  0  0  0  0  0  0  0  0  0
  -26.4680  -12.9350   20.0210 N   0  0  0  0  0  0  0  0  0  0  0  0
  -26.1080  -11.6500   20.2690 N   0  0  0  0  0  0  0  0  0  0  0  0
  -24.1390  -10.4440   20.9720 C   0  0  0  0  0  0  0  0  0  0  0  0
  -24.6060   -9.4750   21.8880 C   0  0  0  0  0  3  0  0  0  0  0  0
  -23.8790   -8.2850   22.1020 C   0  0  0  0  0  3  0  0  0  0  0  0
  -22.6690   -8.0560   21.4060 C   0  0  0  0  0  0  0  0  0  0  0  0
  -22.2200   -9.0130   20.4800 C   0  0  0  0  0  3  0  0  0  0  0  0
  -22.9460  -10.1950   20.2610 C   0  0  0  0  0  3  0  0  0  0  0  0
  -21.9090   -6.9180   21.5370 O   0  0  0  0  0  0  0  0  0  0  0  0
  -21.8530   -6.2170   22.7160 C   0  0  0  0  0  0  0  0  0  0  0  0
  -21.4240   -6.8180   23.9190 C   0  0  0  0  0  3  0  0  0  0  0  0
  -21.3130   -6.0450   25.0910 C   0  0  0  0  0  3  0  0  0  0  0  0
  -21.6210   -4.6720   25.0640 C   0  0  0  0  0  0  0  0  0  0  0  0
  -22.0430   -4.0710   23.8660 C   0  0  0  0  0  3  0  0  0  0  0  0
  -22.1550   -4.8400   22.6940 C   0  0  0  0  0  0  0  0  0  0  0  0
  -22.5390   -4.2480   21.5370 F   0  0  0  0  0  0  0  0  0  0  0  0
  -21.5110   -3.9290   26.1910 F   0  0  0  0  0  0  0  0  0  0  0  0
  -23.1070  -13.5450   21.3540 C   0  0  0  0  0  0  0  0  0  0  0  0
  -22.4910  -12.8330   22.2920 N   0  0  0  0  0  0  0  0  0  0  0  0
  -22.6200  -14.5880   20.9190 O   0  0  0  0  0  0  0  0  0  0  0  0
  -22.8950  -11.9780   22.6460 H   0  0  0  0  0  0  0  0  0  0  0  0
  -21.6010  -13.1410   22.6600 H   0  0  0  0  0  0  0  0  0  0  0  0
  -25.6600  -15.1990   20.2600 N   0  0  0  0  0  0  0  0  0  0  0  0
  -24.9390  -15.8750   20.4890 H   0  0  0  0  0  0  0  0  0  0  0  0
  -26.4630  -15.6200   19.8110 H   0  0  0  0  0  0  0  0  0  0  0  0
  -28.8610  -17.5730   22.1950 N   0  0  0  0  0  0  0  0  0  0  0  0
  -28.6920  -17.4220   23.1840 H   0  0  0  0  0  0  0  0  0  0  0  0
  -28.2350  -16.9260   21.7250 H   0  0  0  0  0  0  0  0  0  0  0  0
  -28.6800  -21.0500   19.9130 C   0  0  0  0  0  2  0  0  0  0  0  0
  -28.9280  -21.8450   18.6140 C   0  0  0  0  0  2  0  0  0  0  0  0
  -29.4290  -23.2940   18.8280 C   0  0  0  0  0  2  0  0  0  0  0  0
  -28.4230  -24.3060   19.4350 C   0  0  0  0  0  2  0  0  0  0  0  0
  -28.7990  -25.7610   19.0530 C   0  0  0  0  0  2  0  0  0  0  0  0
  -28.4850  -26.7660   20.0210 O   0  0  0  0  0  0  0  0  0  0  0  0
  -24.4910  -31.7480   23.1220 C   0  0  0  0  0  0  0  0  0  0  0  0
  -27.2790  -27.4320   19.9760 C   0  0  0  0  0  0  0  0  0  0  0  0
  -23.3380  -30.3540   21.4370 C   0  0  0  0  0  3  0  0  0  0  0  0
  -24.8410  -28.8780   19.9940 C   0  0  0  0  0  0  0  0  0  0  0  0
  -25.8560  -30.7680   21.2800 C   0  0  0  0  0  2  0  0  0  0  0  0
  -25.9760  -29.4130   20.6140 C   0  0  0  0  0  0  0  0  0  0  0  0
  -27.1920  -28.6920   20.6090 C   0  0  0  0  0  3  0  0  0  0  0  0
  -26.1240  -26.9050   19.3520 C   0  0  0  0  0  3  0  0  0  0  0  0
  -24.9100  -27.6210   19.3670 C   0  0  0  0  0  3  0  0  0  0  0  0
  -23.5770  -29.7140   20.0430 C   0  0  0  0  0  2  0  0  0  0  0  0
  -24.5790  -30.9710   22.0050 N   0  0  0  0  0  0  0  0  0  0  0  0
  -23.3950  -31.9840   23.6500 O   0  0  0  0  0  0  0  0  0  0  0  0
  -22.6990  -29.2960   22.3610 C   0  0  0  0  0  0  0  0  0  0  0  0
  -21.3830  -29.0850   22.2010 N   0  0  0  0  0  0  0  0  0  0  0  0
  -23.3860  -28.6680   23.1700 O   0  0  0  0  0  0  0  0  0  0  0  0
  -20.8960  -29.6470   21.5210 H   0  0  0  0  0  0  0  0  0  0  0  0
  -18.0150  -27.8530   22.6480 C   0  0  0  0  0  0  0  0  0  0  0  0
  -20.5710  -28.1130   22.9310 C   0  0  0  0  0  3  0  0  0  0  0  0
  -20.6870  -26.7070   22.3030 C   0  0  0  0  0  2  0  0  0  0  0  0
  -19.5790  -26.3910   21.2940 C   0  0  0  0  0  2  0  0  0  0  0  0
  -18.1950  -26.5230   21.9380 C   0  0  0  0  0  2  0  0  0  0  0  0
  -19.1290  -28.6050   23.1050 C   0  0  0  0  0  0  0  0  0  0  0  0
  -18.9030  -29.8430   23.7410 C   0  0  0  0  0  3  0  0  0  0  0  0
  -17.5990  -30.3350   23.9200 C   0  0  0  0  0  3  0  0  0  0  0  0
  -16.4960  -29.5830   23.4760 C   0  0  0  0  0  3  0  0  0  0  0  0
  -16.7060  -28.3410   22.8460 C   0  0  0  0  0  3  0  0  0  0  0  0
  -25.7550  -32.3900   23.7720 C   0  0  0  0  0  3  0  0  0  0  0  0
  -25.4090  -33.7690   24.1400 N   0  0  0  0  0  0  0  0  0  0  0  0
  -25.7280  -34.8520   23.4190 C   0  0  0  0  0  0  0  0  0  0  0  0
  -26.4190  -34.7960   22.3960 O   0  0  0  0  0  0  0  0  0  0  0  0
  -24.7970  -33.8850   24.9340 H   0  0  0  0  0  0  0  0  0  0  0  0
  -23.9660  -36.6150   23.0750 C   0  0  0  0  0  1  0  0  0  0  0  0
  -25.1980  -36.2160   23.9050 C   0  0  0  0  0  3  0  0  0  0  0  0
  -27.2870  -37.1220   24.8220 C   0  0  0  0  0  1  0  0  0  0  0  0
  -26.2080  -37.2950   23.8510 N   0  0  0  0  0  0  0  0  0  0  0  0
  -25.7790  -38.2020   24.0110 H   0  0  0  0  0  0  0  0  0  0  0  0
  -26.2760  -31.5950   25.0300 C   0  0  1  0  0  0  0  0  0  0  0  0
  -25.1740  -31.2920   26.0730 C   0  0  0  0  0  1  0  0  0  0  0  0
  -26.9060  -30.2490   24.6010 C   0  0  0  0  0  1  0  0  0  0  0  0
  -27.3950  -32.4000   25.7310 C   0  0  0  0  0  1  0  0  0  0  0  0
  1 49  1  0
  1  2  1  0
  2  4  1  0
  3  2  1  0
  5 17  1  0
  6 11  1  0
  7  8  1  0
  7  6  1  0
  9  8  1  0
  9 21  1  0
  9 10  1  0
 11  5  1  0
 11 10  1  0
 12  5  2  0
 13 15  1  0
 14 17  1  0
 14 16  1  0
 15 46  1  0
 16  2  1  0
 16 15  1  0
 17 13  1  0
 18 19  2  0
 19 38  1  0
 20 19  1  0
 20 23  1  0
 21 22  1  0
 21 18  1  0
 22 20  2  0
 23 24  1  0
 24 25  2  0
 26 29  1  0
 26 25  1  0
 27 26  2  0
 28 27  1  0
 28 23  2  0
 29 30  1  0
 30 31  1  0
 31 32  2  0
 33 32  1  0
 33 37  1  0
 34 33  2  0
 35 30  2  0
 35 34  1  0
 36 35  1  0
 38 39  1  0
 39 41  1  0
 39 42  1  0
 40 38  2  0
 43 18  1  0
 43 44  1  0
 45 43  1  0
 46 47  1  0
 48 46  1  0
 50 51  1  0
 50 49  1  0
 51 52  1  0
 53 52  1  0
 53 54  1  0
 55 66  2  0
 56 54  1  0
 56 61  1  0
 57 65  1  0
 57 67  1  0
 58 64  1  0
 58 60  1  0
 59 65  1  0
 60 59  1  0
 61 60  2  0
 62 63  1  0
 62 56  2  0
 63 58  2  0
 64 57  1  0
 65 55  1  0
 67 69  2  0
 68 67  1  0
 70 68  1  0
 71 80  2  0
 71 76  1  0
 72 68  1  0
 72 76  1  0
 73 72  1  0
 74 75  1  0
 74 73  1  0
 75 71  1  0
 76 77  2  0
 77 78  1  0
 79 78  2  0
 80 79  1  0
 81 55  1  0
 81 82  1  0
 81 91  1  0
 82 85  1  0
 83 87  1  0
 83 82  1  0
 84 83  2  0
 87 86  1  0
 89 87  1  0
 89 90  1  0
 89 88  1  0
 91 94  1  1
 91 92  1  0
 93 91  1  0
M  ISO  4   5 100  17 100  53 101  54 101
M  END
>  <TORSDO>  (22) 
F 23

>  <SCORE>  (22) 
-11.060

>  <name>  (22) 
21

>  <ligand_id>  (22) 
21

>  <original_smiles>  (22) 
[H]c1c([H])c([H])c2c(c1[H])C([H])([H])C([H])([H])C([H])([H])C2([H])N([H])C(=O)C1([H])N(C(=O)C([H])(N([H])C(=O)C([H])(N([H])C([H])([H])[H])C([H])([H])[H])C(C([H])([H])[H])(C([H])([H])[H])C([H])([H])[H])C([H])([H])c2c([H])c(OC([H])([H])C([H])([H])C([H])([H])C([H])([H])C([H])([H])C([H])([H])[N+]([H])([H])C3([H])C([H])([H])N(C(=O)N4C([H])([H])C([H])([H])C([H])([H])C([H])(n5nc(-c6c([H])c([H])c(Oc7c([H])c([H])c(F)c([H])c7F)c([H])c6[H])c(C(=O)N([H])[H])c5N([H])[H])C4([H])[H])C([H])([H])C3([H])N([H])[H])c([H])c([H])c2C1([H])[H]

>  <smiles>  (22) 
[H]c1c([H])c([H])c2c(c1[H])C([H])([H])C([H])([H])C([H])([H])C2([H])N([H])C(=O)C1([H])N(C(=O)C([H])(N([H])C(=O)C([H])(N([H])C([H])([H])[H])C([H])([H])[H])C(C([H])([H])[H])(C([H])([H])[H])C([H])([H])[H])C([H])([H])c2c([H])c(OC([H])([H])C([H])([H])C([H])([H])C([H])([H])C([H])([H])C([H])([H])[N+]([H])([H])C3([H])C([H])([H])N(C(=O)N4C([H])([H])C([H])([H])C([H])([H])C([H])(n5nc(-c6c([H])c([H])c(Oc7c([H])c([H])c(F)c([H])c7F)c([H])c6[H])c(C(=O)N([H])[H])c5N([H])[H])C4([H])[H])C([H])([H])C3([H])N([H])[H])c([H])c([H])c2C1([H])[H]

$$$$
22:0:0
     RDKit          3D

103111  0  0  1  0  0  0  0  0999 V2000
  -29.8490  -18.1910   22.2060 C   0  0  0  0  0  2  0  0  0  0  0  0
  -31.0760  -17.1830   20.4070 C   0  0  0  0  0  2  0  0  0  0  0  0
  -30.5410  -17.2640   23.2220 C   0  0  0  0  0  2  0  0  0  0  0  0
  -31.8040  -16.2330   21.4000 C   0  0  0  0  0  3  0  0  0  0  0  0
  -30.7350  -18.4600   21.0630 N   0  0  0  0  0  0  0  0  0  0  0  0
  -30.9290  -15.9980   22.5730 N   0  0  0  0  0  4  0  0  0  0  0  0
  -30.0910  -15.5280   22.2780 H   0  0  0  0  0  0  0  0  0  0  0  0
  -31.4020  -15.4240   23.2510 H   0  0  0  0  0  0  0  0  0  0  0  0
  -30.0330  -19.3660   20.1500 C   0  0  0  0  0  2  0  0  0  0  0  0
  -30.8860  -19.7590   18.9280 C   0  0  0  0  0  2  0  0  0  0  0  0
  -30.1380  -20.7830   18.0530 C   0  0  0  0  0  2  0  0  0  0  0  0
  -30.9120  -21.2350   16.8740 N   0  0  0  0  0  4  0  0  0  0  0  0
  -30.8790  -20.5050   16.1790 H   0  0  0  0  0  0  0  0  0  0  0  0
  -31.8790  -21.3730   17.1160 H   0  0  0  0  0  0  0  0  0  0  0  0
  -30.3810  -22.4760   16.2650 C   0  0  0  0  0  2  0  0  0  0  0  0
  -30.5880  -23.7190   17.1630 C   0  0  0  0  0  2  0  0  0  0  0  0
  -29.3920  -24.6840   17.1510 C   0  0  0  0  0  2  0  0  0  0  0  0
  -29.5000  -25.5480   18.2800 O   0  0  0  0  0  0  0  0  0  0  0  0
  -26.6900  -29.2940   23.6100 C   0  0  0  0  0  0  0  0  0  0  0  0
  -28.4000  -26.2680   18.6990 C   0  0  0  0  0  0  0  0  0  0  0  0
  -25.1460  -28.7770   21.7460 C   0  0  0  0  0  3  0  0  0  0  0  0
  -26.2300  -27.8170   19.6480 C   0  0  0  0  0  0  0  0  0  0  0  0
  -27.6630  -28.9670   21.3410 C   0  0  0  0  0  2  0  0  0  0  0  0
  -27.4970  -27.9610   20.2230 C   0  0  0  0  0  0  0  0  0  0  0  0
  -28.5800  -27.1830   19.7570 C   0  0  0  0  0  3  0  0  0  0  0  0
  -27.1090  -26.1280   18.1330 C   0  0  0  0  0  3  0  0  0  0  0  0
  -26.0280  -26.8940   18.6080 C   0  0  0  0  0  3  0  0  0  0  0  0
  -25.1240  -28.6900   20.1970 C   0  0  0  0  0  2  0  0  0  0  0  0
  -26.5260  -29.0000   22.2900 N   0  0  0  0  0  0  0  0  0  0  0  0
  -25.7160  -29.4220   24.3630 O   0  0  0  0  0  0  0  0  0  0  0  0
  -24.4580  -27.5180   22.3230 C   0  0  0  0  0  0  0  0  0  0  0  0
  -23.1650  -27.3500   22.0070 N   0  0  0  0  0  0  0  0  0  0  0  0
  -25.0900  -26.7100   23.0070 O   0  0  0  0  0  0  0  0  0  0  0  0
  -22.7190  -28.0650   21.4500 H   0  0  0  0  0  0  0  0  0  0  0  0
  -19.9550  -25.7870   21.4630 C   0  0  0  0  0  0  0  0  0  0  0  0
  -22.3230  -26.2210   22.4020 C   0  0  0  0  0  3  0  0  0  0  0  0
  -22.7430  -24.9300   21.6630 C   0  0  0  0  0  2  0  0  0  0  0  0
  -21.9580  -24.6920   20.3700 C   0  0  0  0  0  2  0  0  0  0  0  0
  -20.4570  -24.5980   20.6610 C   0  0  0  0  0  2  0  0  0  0  0  0
  -20.8350  -26.5590   22.2660 C   0  0  0  0  0  0  0  0  0  0  0  0
  -20.3230  -27.6750   22.9630 C   0  0  0  0  0  3  0  0  0  0  0  0
  -18.9620  -28.0200   22.8720 C   0  0  0  0  0  3  0  0  0  0  0  0
  -18.0930  -27.2430   22.0880 C   0  0  0  0  0  3  0  0  0  0  0  0
  -18.5880  -26.1280   21.3880 C   0  0  0  0  0  3  0  0  0  0  0  0
  -28.1080  -29.5030   24.2320 C   0  0  0  0  0  3  0  0  0  0  0  0
  -28.0570  -30.7270   25.0420 N   0  0  0  0  0  0  0  0  0  0  0  0
  -28.5390  -31.9160   24.6540 C   0  0  0  0  0  0  0  0  0  0  0  0
  -29.1440  -32.0790   23.5900 O   0  0  0  0  0  0  0  0  0  0  0  0
  -27.5320  -30.6790   25.9020 H   0  0  0  0  0  0  0  0  0  0  0  0
  -27.1440  -33.9670   25.0710 C   0  0  0  0  0  1  0  0  0  0  0  0
  -28.3120  -33.1140   25.5940 C   0  0  0  0  0  3  0  0  0  0  0  0
  -30.5830  -33.3070   26.5060 C   0  0  0  0  0  1  0  0  0  0  0  0
  -29.5100  -33.9650   25.7650 N   0  0  0  0  0  0  0  0  0  0  0  0
  -29.2740  -34.8270   26.2490 H   0  0  0  0  0  0  0  0  0  0  0  0
  -28.5950  -28.2790   25.1000 C   0  0  1  0  0  0  0  0  0  0  0  0
  -27.5600  -27.8090   26.1480 C   0  0  0  0  0  1  0  0  0  0  0  0
  -28.9330  -27.0730   24.1920 C   0  0  0  0  0  1  0  0  0  0  0  0
  -29.8970  -28.6500   25.8460 C   0  0  0  0  0  1  0  0  0  0  0  0
  -32.2550  -14.8960   20.7460 C   0  0  0  0  0  3  0  0  0  0  0  0
  -30.8350  -13.8200   18.9830 C   0  0  0  0  0  0  0  0  0  0  0  0
  -29.8390  -12.0270   17.6220 C   0  0  0  0  0  2  0  0  0  0  0  0
  -28.6140  -12.4630   16.8020 C   0  0  0  0  0  2  0  0  0  0  0  0
  -27.3320  -12.3530   17.6450 C   0  0  0  0  0  2  0  0  0  0  0  0
  -27.4680  -13.0550   19.0190 C   0  0  0  0  0  3  0  0  0  0  0  0
  -28.7630  -12.6140   19.7390 C   0  0  0  0  0  2  0  0  0  0  0  0
  -29.9140  -12.8390   18.8430 N   0  0  0  0  0  0  0  0  0  0  0  0
  -31.5180  -14.2630   18.0560 O   0  0  0  0  0  0  0  0  0  0  0  0
  -31.1120  -14.1060   20.2640 N   0  0  0  0  0  0  0  0  0  0  0  0
  -30.5760  -13.5710   20.9300 H   0  0  0  0  0  0  0  0  0  0  0  0
  -25.4530  -13.7500   20.4700 C   0  0  0  0  0  0  0  0  0  0  0  0
  -24.4550  -13.0170   21.0570 C   0  0  0  0  0  0  0  0  0  0  0  0
  -24.7320  -11.6510   20.7460 C   0  0  0  0  0  0  0  0  0  0  0  0
  -26.2840  -12.8280   19.8480 N   0  0  0  0  0  0  0  0  0  0  0  0
  -25.8670  -11.5550   20.0650 N   0  0  0  0  0  0  0  0  0  0  0  0
  -23.9530  -10.4340   21.0100 C   0  0  0  0  0  0  0  0  0  0  0  0
  -24.4460   -9.4090   21.8460 C   0  0  0  0  0  3  0  0  0  0  0  0
  -23.6700   -8.2560   22.0970 C   0  0  0  0  0  3  0  0  0  0  0  0
  -22.3880   -8.1210   21.5150 C   0  0  0  0  0  0  0  0  0  0  0  0
  -21.9110   -9.1360   20.6640 C   0  0  0  0  0  3  0  0  0  0  0  0
  -22.6870  -10.2800   20.4100 C   0  0  0  0  0  3  0  0  0  0  0  0
  -21.5770   -7.0260   21.6820 O   0  0  0  0  0  0  0  0  0  0  0  0
  -21.5430   -6.3280   22.8620 C   0  0  0  0  0  0  0  0  0  0  0  0
  -21.1740   -6.9410   24.0800 C   0  0  0  0  0  3  0  0  0  0  0  0
  -21.0860   -6.1710   25.2570 C   0  0  0  0  0  3  0  0  0  0  0  0
  -21.3570   -4.7890   25.2170 C   0  0  0  0  0  0  0  0  0  0  0  0
  -21.7180   -4.1770   24.0050 C   0  0  0  0  0  3  0  0  0  0  0  0
  -21.8080   -4.9440   22.8300 C   0  0  0  0  0  0  0  0  0  0  0  0
  -22.1370   -4.3450   21.6600 F   0  0  0  0  0  0  0  0  0  0  0  0
  -21.2640   -4.0480   26.3460 F   0  0  0  0  0  0  0  0  0  0  0  0
  -23.2580  -13.5600   21.7840 C   0  0  0  0  0  0  0  0  0  0  0  0
  -22.7830  -12.8470   22.7990 N   0  0  0  0  0  0  0  0  0  0  0  0
  -22.7660  -14.6470   21.4850 O   0  0  0  0  0  0  0  0  0  0  0  0
  -23.1990  -11.9640   23.0580 H   0  0  0  0  0  0  0  0  0  0  0  0
  -21.9910  -13.1890   23.3250 H   0  0  0  0  0  0  0  0  0  0  0  0
  -25.7150  -15.1140   20.3960 N   0  0  0  0  0  0  0  0  0  0  0  0
  -25.0830  -15.8050   20.7840 H   0  0  0  0  0  0  0  0  0  0  0  0
  -26.4660  -15.5230   19.8560 H   0  0  0  0  0  0  0  0  0  0  0  0
  -33.1420  -14.0360   21.6880 C   0  0  0  0  0  2  0  0  0  0  0  0
  -33.5000  -12.6430   21.1200 C   0  0  0  0  0  2  0  0  0  0  0  0
  -34.3200  -11.8430   22.0490 N   0  0  0  0  0  4  0  0  0  0  0  0
  -35.1980  -12.2920   22.2360 H   0  0  0  0  0  0  0  0  0  0  0  0
  -34.5160  -10.9450   21.6450 H   0  0  0  0  0  0  0  0  0  0  0  0
  -33.8430  -11.6900   22.9190 H   0  0  0  0  0  0  0  0  0  0  0  0
  1  3  1  0
  2  5  1  0
  2  4  1  0
  4 59  1  0
  4  6  1  0
  5  1  1  0
  6  3  1  0
  6  8  1  0
  7  6  1  0
  9  5  1  0
 10  9  1  0
 11 10  1  0
 12 14  1  0
 12 11  1  0
 13 12  1  0
 15 12  1  0
 15 16  1  0
 17 16  1  0
 17 18  1  0
 18 20  1  0
 19 30  2  0
 20 25  1  0
 21 29  1  0
 21 31  1  0
 22 28  1  0
 22 24  1  0
 23 29  1  0
 24 23  1  0
 25 24  2  0
 26 27  1  0
 26 20  2  0
 27 22  2  0
 28 21  1  0
 29 19  1  0
 31 33  2  0
 32 31  1  0
 34 32  1  0
 35 40  1  0
 36 32  1  0
 37 36  1  0
 38 39  1  0
 38 37  1  0
 39 35  1  0
 40 36  1  0
 40 41  2  0
 42 41  1  0
 43 42  2  0
 44 35  2  0
 44 43  1  0
 45 19  1  0
 45 46  1  0
 45 55  1  0
 46 49  1  0
 47 46  1  0
 47 51  1  0
 48 47  2  0
 51 50  1  0
 51 53  1  0
 53 54  1  0
 53 52  1  0
 55 58  1  1
 55 56  1  0
 57 55  1  0
 59 98  1  0
 60 68  1  0
 61 66  1  0
 62 61  1  0
 62 63  1  0
 64 63  1  0
 64 65  1  0
 64 73  1  0
 66 60  1  0
 66 65  1  0
 67 60  2  0
 68 59  1  0
 68 69  1  0
 70 71  2  0
 71 90  1  0
 72 75  1  0
 72 71  1  0
 73 74  1  0
 73 70  1  0
 74 72  2  0
 75 76  1  0
 76 77  2  0
 78 81  1  0
 78 77  1  0
 79 78  2  0
 80 79  1  0
 80 75  2  0
 81 82  1  0
 82 83  1  0
 83 84  2  0
 85 84  1  0
 85 89  1  0
 86 85  2  0
 87 82  2  0
 87 86  1  0
 88 87  1  0
 90 91  1  0
 91 93  1  0
 91 94  1  0
 92 90  2  0
 95 70  1  0
 95 96  1  0
 97 95  1  0
 99 98  1  0
 99100  1  0
100101  1  0
100103  1  0
102100  1  0
M  ISO  4  17 101  18 101  60 100  68 100
M  END
>  <TORSDO>  (23) 
F 27

>  <SCORE>  (23) 
-3.968

>  <name>  (23) 
22

>  <ligand_id>  (23) 
22

>  <original_smiles>  (23) 
[H]c1c([H])c([H])c2c(c1[H])C([H])([H])C([H])([H])C([H])([H])C2([H])N([H])C(=O)C1([H])N(C(=O)C([H])(N([H])C(=O)C([H])(N([H])C([H])([H])[H])C([H])([H])[H])C(C([H])([H])[H])(C([H])([H])[H])C([H])([H])[H])C([H])([H])c2c([H])c(OC([H])([H])C([H])([H])C([H])([H])[N+]([H])([H])C([H])([H])C([H])([H])C([H])([H])N3C([H])([H])C([H])([H])[N+]([H])([H])C([H])(C([H])(N([H])C(=O)N4C([H])([H])C([H])([H])C([H])([H])C([H])(n5nc(-c6c([H])c([H])c(Oc7c([H])c([H])c(F)c([H])c7F)c([H])c6[H])c(C(=O)N([H])[H])c5N([H])[H])C4([H])[H])C([H])([H])C([H])([H])[N+]([H])([H])[H])C3([H])[H])c([H])c([H])c2C1([H])[H]

>  <smiles>  (23) 
[H]c1c([H])c([H])c2c(c1[H])C([H])([H])C([H])([H])C([H])([H])C2([H])N([H])C(=O)C1([H])N(C(=O)C([H])(N([H])C(=O)C([H])(N([H])C([H])([H])[H])C([H])([H])[H])C(C([H])([H])[H])(C([H])([H])[H])C([H])([H])[H])C([H])([H])c2c([H])c(OC([H])([H])C([H])([H])C([H])([H])[N+]([H])([H])C([H])([H])C([H])([H])C([H])([H])N3C([H])([H])C([H])([H])[N+]([H])([H])C([H])(C([H])(N([H])C(=O)N4C([H])([H])C([H])([H])C([H])([H])C([H])(n5nc(-c6c([H])c([H])c(Oc7c([H])c([H])c(F)c([H])c7F)c([H])c6[H])c(C(=O)N([H])[H])c5N([H])[H])C4([H])[H])C([H])([H])C([H])([H])[N+]([H])([H])[H])C3([H])[H])c([H])c([H])c2C1([H])[H]

$$$$
23:0:0
     RDKit          3D

 93101  0  0  1  0  0  0  0  0999 V2000
  -32.0060  -18.5300   22.4380 C   0  0  0  0  0  2  0  0  0  0  0  0
  -32.2570  -19.8510   21.6970 C   0  0  0  0  0  2  0  0  0  0  0  0
  -29.8020  -18.3210   21.2880 C   0  0  0  0  0  2  0  0  0  0  0  0
  -31.1360  -17.5960   21.5810 C   0  0  0  0  0  3  0  0  0  0  0  0
  -30.9500  -20.5580   21.2670 C   0  0  0  0  0  3  0  0  0  0  0  0
  -30.0300  -19.6090   20.5840 N   0  0  0  0  0  4  0  0  0  0  0  0
  -29.1370  -20.0550   20.4500 H   0  0  0  0  0  0  0  0  0  0  0  0
  -30.4010  -19.4010   19.6710 H   0  0  0  0  0  0  0  0  0  0  0  0
  -30.9810  -16.2200   22.2710 C   0  0  0  0  0  2  0  0  0  0  0  0
  -30.6770  -14.5220   20.4480 C   0  0  0  0  0  0  0  0  0  0  0  0
  -30.3110  -12.5210   19.0440 C   0  0  0  0  0  2  0  0  0  0  0  0
  -29.3260  -12.7760   17.8870 C   0  0  0  0  0  2  0  0  0  0  0  0
  -27.8700  -12.5920   18.3530 C   0  0  0  0  0  2  0  0  0  0  0  0
  -27.5640  -13.3600   19.6660 C   0  0  0  0  0  3  0  0  0  0  0  0
  -28.6400  -13.0610   20.7300 C   0  0  0  0  0  2  0  0  0  0  0  0
  -29.9570  -13.4070   20.1620 N   0  0  0  0  0  0  0  0  0  0  0  0
  -31.6950  -14.8500   19.8310 O   0  0  0  0  0  0  0  0  0  0  0  0
  -30.2320  -15.2220   21.5040 N   0  0  0  0  0  0  0  0  0  0  0  0
  -29.3810  -14.8760   21.9220 H   0  0  0  0  0  0  0  0  0  0  0  0
  -25.1580  -13.9140   20.3940 C   0  0  0  0  0  0  0  0  0  0  0  0
  -24.1120  -13.1190   20.7770 C   0  0  0  0  0  0  0  0  0  0  0  0
  -24.6040  -11.7780   20.7480 C   0  0  0  0  0  0  0  0  0  0  0  0
  -26.2220  -13.0570   20.1580 N   0  0  0  0  0  0  0  0  0  0  0  0
  -25.8910  -11.7680   20.4260 N   0  0  0  0  0  0  0  0  0  0  0  0
  -23.9120  -10.5000   20.9530 C   0  0  0  0  0  0  0  0  0  0  0  0
  -24.3680   -9.5570   21.9010 C   0  0  0  0  0  3  0  0  0  0  0  0
  -23.6750   -8.3420   22.0930 C   0  0  0  0  0  3  0  0  0  0  0  0
  -22.5140   -8.0610   21.3350 C   0  0  0  0  0  0  0  0  0  0  0  0
  -22.0760   -8.9930   20.3780 C   0  0  0  0  0  3  0  0  0  0  0  0
  -22.7700  -10.1990   20.1840 C   0  0  0  0  0  3  0  0  0  0  0  0
  -21.7940   -6.8960   21.4340 O   0  0  0  0  0  0  0  0  0  0  0  0
  -21.7470   -6.1750   22.6000 C   0  0  0  0  0  0  0  0  0  0  0  0
  -21.2900   -6.7440   23.8090 C   0  0  0  0  0  3  0  0  0  0  0  0
  -21.1910   -5.9470   24.9670 C   0  0  0  0  0  3  0  0  0  0  0  0
  -21.5420   -4.5850   24.9180 C   0  0  0  0  0  0  0  0  0  0  0  0
  -21.9920   -4.0150   23.7140 C   0  0  0  0  0  3  0  0  0  0  0  0
  -22.0920   -4.8080   22.5570 C   0  0  0  0  0  0  0  0  0  0  0  0
  -22.5050   -4.2510   21.3940 F   0  0  0  0  0  0  0  0  0  0  0  0
  -21.4410   -3.8160   26.0280 F   0  0  0  0  0  0  0  0  0  0  0  0
  -22.7070  -13.5650   21.0650 C   0  0  0  0  0  0  0  0  0  0  0  0
  -22.0040  -12.8530   21.9400 N   0  0  0  0  0  0  0  0  0  0  0  0
  -22.2380  -14.5810   20.5510 O   0  0  0  0  0  0  0  0  0  0  0  0
  -22.3970  -12.0330   22.3790 H   0  0  0  0  0  0  0  0  0  0  0  0
  -21.0630  -13.1360   22.1770 H   0  0  0  0  0  0  0  0  0  0  0  0
  -25.2890  -15.2880   20.2070 N   0  0  0  0  0  0  0  0  0  0  0  0
  -24.5050  -15.9230   20.3100 H   0  0  0  0  0  0  0  0  0  0  0  0
  -26.1240  -15.7410   19.8560 H   0  0  0  0  0  0  0  0  0  0  0  0
  -31.2850  -21.7530   20.3400 C   0  0  0  0  0  2  0  0  0  0  0  0
  -30.2400  -22.8870   20.2960 C   0  0  0  0  0  2  0  0  0  0  0  0
  -30.5110  -23.8740   19.1400 C   0  0  0  0  0  2  0  0  0  0  0  0
  -30.0900  -25.3270   19.4260 C   0  0  0  0  0  2  0  0  0  0  0  0
  -28.5770  -25.5910   19.5220 C   0  0  0  0  0  2  0  0  0  0  0  0
  -28.4490  -26.9110   20.0420 O   0  0  0  0  0  0  0  0  0  0  0  0
  -24.5810  -31.9220   23.2410 C   0  0  0  0  0  0  0  0  0  0  0  0
  -27.2240  -27.5400   20.0750 C   0  0  0  0  0  0  0  0  0  0  0  0
  -23.3590  -30.5210   21.6080 C   0  0  0  0  0  3  0  0  0  0  0  0
  -24.8000  -28.9960   20.1570 C   0  0  0  0  0  0  0  0  0  0  0  0
  -25.8760  -30.9040   21.3730 C   0  0  0  0  0  2  0  0  0  0  0  0
  -25.9600  -29.5360   20.7260 C   0  0  0  0  0  0  0  0  0  0  0  0
  -27.1690  -28.8130   20.6820 C   0  0  0  0  0  3  0  0  0  0  0  0
  -26.0410  -26.9980   19.5200 C   0  0  0  0  0  3  0  0  0  0  0  0
  -24.8340  -27.7240   19.5580 C   0  0  0  0  0  3  0  0  0  0  0  0
  -23.5500  -29.8430   20.2240 C   0  0  0  0  0  2  0  0  0  0  0  0
  -24.6250  -31.1300   22.1320 N   0  0  0  0  0  0  0  0  0  0  0  0
  -23.5070  -32.1830   23.8000 O   0  0  0  0  0  0  0  0  0  0  0  0
  -22.7280  -29.4930   22.5740 C   0  0  0  0  0  0  0  0  0  0  0  0
  -21.4080  -29.2880   22.4520 N   0  0  0  0  0  0  0  0  0  0  0  0
  -23.4250  -28.8780   23.3880 O   0  0  0  0  0  0  0  0  0  0  0  0
  -20.9060  -29.8350   21.7640 H   0  0  0  0  0  0  0  0  0  0  0  0
  -18.0570  -28.0380   22.9550 C   0  0  0  0  0  0  0  0  0  0  0  0
  -20.6100  -28.3390   23.2260 C   0  0  0  0  0  3  0  0  0  0  0  0
  -20.7350  -26.9070   22.6580 C   0  0  0  0  0  2  0  0  0  0  0  0
  -19.6420  -26.5650   21.6400 C   0  0  0  0  0  2  0  0  0  0  0  0
  -18.2550  -26.6920   22.2770 C   0  0  0  0  0  2  0  0  0  0  0  0
  -19.1630  -28.8180   23.3840 C   0  0  0  0  0  0  0  0  0  0  0  0
  -18.9240  -30.0790   23.9750 C   0  0  0  0  0  3  0  0  0  0  0  0
  -17.6110  -30.5600   24.1390 C   0  0  0  0  0  3  0  0  0  0  0  0
  -16.5200  -29.7760   23.7270 C   0  0  0  0  0  3  0  0  0  0  0  0
  -16.7430  -28.5160   23.1420 C   0  0  0  0  0  3  0  0  0  0  0  0
  -25.8750  -32.5560   23.8460 C   0  0  0  0  0  3  0  0  0  0  0  0
  -25.5690  -33.9530   24.1790 N   0  0  0  0  0  0  0  0  0  0  0  0
  -25.8960  -35.0060   23.4180 C   0  0  0  0  0  0  0  0  0  0  0  0
  -26.5620  -34.9050   22.3850 O   0  0  0  0  0  0  0  0  0  0  0  0
  -24.9880  -34.1070   24.9900 H   0  0  0  0  0  0  0  0  0  0  0  0
  -24.1680  -36.7970   23.0590 C   0  0  0  0  0  1  0  0  0  0  0  0
  -25.4050  -36.3930   23.8770 C   0  0  0  0  0  3  0  0  0  0  0  0
  -27.5350  -37.2740   24.7210 C   0  0  0  0  0  1  0  0  0  0  0  0
  -26.4380  -37.4480   23.7730 N   0  0  0  0  0  0  0  0  0  0  0  0
  -26.0300  -38.3680   23.9250 H   0  0  0  0  0  0  0  0  0  0  0  0
  -26.4110  -31.7860   25.1140 C   0  0  1  0  0  0  0  0  0  0  0  0
  -25.3290  -31.5360   26.1910 C   0  0  0  0  0  1  0  0  0  0  0  0
  -26.9990  -30.4140   24.7120 C   0  0  0  0  0  1  0  0  0  0  0  0
  -27.5670  -32.5840   25.7610 C   0  0  0  0  0  1  0  0  0  0  0  0
  2  1  1  0
  3  4  1  0
  4  9  1  0
  4  1  1  0
  5 48  1  0
  5  2  1  0
  6  5  1  0
  6  3  1  0
  7  6  1  0
  8  6  1  0
 10 18  1  0
 11 16  1  0
 12 13  1  0
 12 11  1  0
 14 13  1  0
 14 23  1  0
 14 15  1  0
 16 10  1  0
 16 15  1  0
 17 10  2  0
 18 19  1  0
 18  9  1  0
 20 21  2  0
 21 40  1  0
 22 21  1  0
 22 25  1  0
 23 20  1  0
 23 24  1  0
 24 22  2  0
 25 26  1  0
 26 27  2  0
 28 31  1  0
 28 27  1  0
 29 28  2  0
 30 29  1  0
 30 25  2  0
 31 32  1  0
 32 33  1  0
 33 34  2  0
 35 34  1  0
 35 39  1  0
 36 35  2  0
 37 32  2  0
 37 36  1  0
 38 37  1  0
 40 41  1  0
 41 44  1  0
 41 43  1  0
 42 40  2  0
 45 46  1  0
 45 20  1  0
 47 45  1  0
 49 48  1  0
 50 51  1  0
 50 49  1  0
 51 52  1  0
 52 53  1  0
 53 55  1  0
 54 65  2  0
 55 60  1  0
 56 64  1  0
 56 66  1  0
 57 63  1  0
 57 59  1  0
 58 64  1  0
 59 58  1  0
 60 59  2  0
 61 62  1  0
 61 55  2  0
 62 57  2  0
 63 56  1  0
 64 54  1  0
 66 68  2  0
 67 66  1  0
 69 67  1  0
 70 79  2  0
 70 75  1  0
 71 67  1  0
 71 75  1  0
 72 71  1  0
 73 74  1  0
 73 72  1  0
 74 70  1  0
 75 76  2  0
 76 77  1  0
 78 77  2  0
 79 78  1  0
 80 54  1  0
 80 81  1  0
 80 90  1  0
 81 84  1  0
 82 86  1  0
 82 81  1  0
 83 82  2  0
 86 85  1  0
 88 86  1  0
 88 89  1  0
 88 87  1  0
 90 93  1  1
 90 91  1  0
 92 90  1  0
M  ISO  4  10 100  18 100  52 101  53 101
M  END
>  <TORSDO>  (24) 
F 22

>  <SCORE>  (24) 
-12.431

>  <name>  (24) 
23

>  <ligand_id>  (24) 
23

>  <original_smiles>  (24) 
[H]c1c([H])c([H])c2c(c1[H])C([H])([H])C([H])([H])C([H])([H])C2([H])N([H])C(=O)C1([H])N(C(=O)C([H])(N([H])C(=O)C([H])(N([H])C([H])([H])[H])C([H])([H])[H])C(C([H])([H])[H])(C([H])([H])[H])C([H])([H])[H])C([H])([H])c2c([H])c(OC([H])([H])C([H])([H])C([H])([H])C([H])([H])C([H])([H])C3([H])C([H])([H])C([H])([H])C([H])(C([H])([H])N([H])C(=O)N4C([H])([H])C([H])([H])C([H])([H])C([H])(n5nc(-c6c([H])c([H])c(Oc7c([H])c([H])c(F)c([H])c7F)c([H])c6[H])c(C(=O)N([H])[H])c5N([H])[H])C4([H])[H])C([H])([H])[N+]3([H])[H])c([H])c([H])c2C1([H])[H]

>  <smiles>  (24) 
[H]c1c([H])c([H])c2c(c1[H])C([H])([H])C([H])([H])C([H])([H])C2([H])N([H])C(=O)C1([H])N(C(=O)C([H])(N([H])C(=O)C([H])(N([H])C([H])([H])[H])C([H])([H])[H])C(C([H])([H])[H])(C([H])([H])[H])C([H])([H])[H])C([H])([H])c2c([H])c(OC([H])([H])C([H])([H])C([H])([H])C([H])([H])C([H])([H])C3([H])C([H])([H])C([H])([H])C([H])(C([H])([H])N([H])C(=O)N4C([H])([H])C([H])([H])C([H])([H])C([H])(n5nc(-c6c([H])c([H])c(Oc7c([H])c([H])c(F)c([H])c7F)c([H])c6[H])c(C(=O)N([H])[H])c5N([H])[H])C4([H])[H])C([H])([H])[N+]3([H])[H])c([H])c([H])c2C1([H])[H]

$$$$
25:0:0
     RDKit          3D

 94102  0  0  1  0  0  0  0  0999 V2000
  -31.1980  -21.4410   21.2310 C   0  0  0  0  0  0  0  0  0  0  0  0
  -31.0180  -22.7040   20.8200 N   0  0  0  0  0  0  0  0  0  0  0  0
  -30.2570  -20.6460   21.2980 O   0  0  0  0  0  0  0  0  0  0  0  0
  -31.8230  -23.3230   20.7920 H   0  0  0  0  0  0  0  0  0  0  0  0
  -32.6240  -20.9840   21.5740 C   0  0  0  0  0  2  0  0  0  0  0  0
  -32.7950  -19.4960   22.0120 C   0  0  0  0  0  2  0  0  0  0  0  0
  -31.5910  -14.2880   19.8780 C   0  0  0  0  0  0  0  0  0  0  0  0
  -31.1450  -12.0990   18.7980 C   0  0  0  0  0  2  0  0  0  0  0  0
  -30.1800  -12.3010   17.6090 C   0  0  0  0  0  2  0  0  0  0  0  0
  -28.7050  -12.2720   18.0660 C   0  0  0  0  0  2  0  0  0  0  0  0
  -28.4620  -13.1580   19.3200 C   0  0  0  0  0  3  0  0  0  0  0  0
  -29.5270  -12.8390   20.3910 C   0  0  0  0  0  2  0  0  0  0  0  0
  -30.8400  -13.1420   19.8020 N   0  0  0  0  0  0  0  0  0  0  0  0
  -32.7030  -14.3330   19.3360 O   0  0  0  0  0  0  0  0  0  0  0  0
  -29.7490  -17.1130   21.8440 C   0  0  0  0  0  2  0  0  0  0  0  0
  -30.0410  -15.6660   21.3750 C   0  0  0  0  0  2  0  0  0  0  0  0
  -31.4640  -16.7350   19.6440 C   0  0  0  0  0  2  0  0  0  0  0  0
  -30.9310  -17.9180   22.4220 C   0  0  0  0  0  2  0  0  0  0  0  0
  -32.4830  -17.5220   20.5080 C   0  0  0  0  0  2  0  0  0  0  0  0
  -31.0020  -15.4730   20.2640 N   0  0  0  0  0  0  0  0  0  0  0  0
  -31.8370  -18.5160   21.4040 N   0  0  2  0  0  4  0  0  0  0  0  0
  -31.2560  -19.1090   20.8130 H   0  0  0  0  0  0  0  0  0  0  0  0
  -26.1470  -13.9770   20.0950 C   0  0  0  0  0  0  0  0  0  0  0  0
  -25.0350  -13.3050   20.5200 C   0  0  0  0  0  0  0  0  0  0  0  0
  -25.3810  -11.9180   20.4940 C   0  0  0  0  0  0  0  0  0  0  0  0
  -27.1070  -13.0070   19.8430 N   0  0  0  0  0  0  0  0  0  0  0  0
  -26.6480  -11.7630   20.1340 N   0  0  0  0  0  0  0  0  0  0  0  0
  -24.5650  -10.7230   20.7350 C   0  0  0  0  0  0  0  0  0  0  0  0
  -24.9020   -9.7840   21.7340 C   0  0  0  0  0  3  0  0  0  0  0  0
  -24.0910   -8.6510   21.9550 C   0  0  0  0  0  3  0  0  0  0  0  0
  -22.9260   -8.4480   21.1770 C   0  0  0  0  0  0  0  0  0  0  0  0
  -22.6070   -9.3740   20.1670 C   0  0  0  0  0  3  0  0  0  0  0  0
  -23.4190  -10.4990   19.9450 C   0  0  0  0  0  3  0  0  0  0  0  0
  -22.0940   -7.3620   21.3030 O   0  0  0  0  0  0  0  0  0  0  0  0
  -21.8570   -6.7750   22.5210 C   0  0  0  0  0  0  0  0  0  0  0  0
  -21.3290   -7.5030   23.6110 C   0  0  0  0  0  3  0  0  0  0  0  0
  -21.0370   -6.8430   24.8210 C   0  0  0  0  0  3  0  0  0  0  0  0
  -21.2600   -5.4590   24.9410 C   0  0  0  0  0  0  0  0  0  0  0  0
  -21.7810   -4.7320   23.8560 C   0  0  0  0  0  3  0  0  0  0  0  0
  -22.0760   -5.3890   22.6480 C   0  0  0  0  0  0  0  0  0  0  0  0
  -22.5570   -4.6790   21.5990 F   0  0  0  0  0  0  0  0  0  0  0  0
  -20.9740   -4.8240   26.1010 F   0  0  0  0  0  0  0  0  0  0  0  0
  -23.6930  -13.8970   20.8390 C   0  0  0  0  0  0  0  0  0  0  0  0
  -22.9580  -13.2940   21.7650 N   0  0  0  0  0  0  0  0  0  0  0  0
  -23.3060  -14.9320   20.2980 O   0  0  0  0  0  0  0  0  0  0  0  0
  -23.2810  -12.4580   22.2300 H   0  0  0  0  0  0  0  0  0  0  0  0
  -22.0530  -13.6730   22.0100 H   0  0  0  0  0  0  0  0  0  0  0  0
  -26.4200  -15.3260   19.8830 N   0  0  0  0  0  0  0  0  0  0  0  0
  -25.7100  -16.0420   19.9750 H   0  0  0  0  0  0  0  0  0  0  0  0
  -27.2880  -15.6760   19.5020 H   0  0  0  0  0  0  0  0  0  0  0  0
  -29.7330  -23.2200   20.3360 C   0  0  0  0  0  2  0  0  0  0  0  0
  -29.5810  -24.7360   20.5420 C   0  0  0  0  0  2  0  0  0  0  0  0
  -28.2580  -25.2830   19.9870 C   0  0  0  0  0  2  0  0  0  0  0  0
  -28.2260  -26.6720   20.2880 O   0  0  0  0  0  0  0  0  0  0  0  0
  -24.5620  -31.9610   23.2380 C   0  0  0  0  0  0  0  0  0  0  0  0
  -27.0300  -27.3540   20.2700 C   0  0  0  0  0  0  0  0  0  0  0  0
  -23.2840  -30.5220   21.6830 C   0  0  0  0  0  3  0  0  0  0  0  0
  -24.6660  -28.9010   20.2840 C   0  0  0  0  0  0  0  0  0  0  0  0
  -25.8080  -30.8220   21.4000 C   0  0  0  0  0  2  0  0  0  0  0  0
  -25.8460  -29.4230   20.8250 C   0  0  0  0  0  0  0  0  0  0  0  0
  -27.0290  -28.6550   20.8150 C   0  0  0  0  0  3  0  0  0  0  0  0
  -25.8300  -26.8340   19.7280 C   0  0  0  0  0  3  0  0  0  0  0  0
  -24.6520  -27.6050   19.7360 C   0  0  0  0  0  3  0  0  0  0  0  0
  -23.4410  -29.7820   20.3270 C   0  0  0  0  0  2  0  0  0  0  0  0
  -24.5740  -31.1190   22.1650 N   0  0  0  0  0  0  0  0  0  0  0  0
  -23.4990  -32.2820   23.7880 O   0  0  0  0  0  0  0  0  0  0  0  0
  -22.6340  -29.5540   22.6970 C   0  0  0  0  0  0  0  0  0  0  0  0
  -21.3220  -29.3130   22.5360 N   0  0  0  0  0  0  0  0  0  0  0  0
  -23.3060  -29.0200   23.5830 O   0  0  0  0  0  0  0  0  0  0  0  0
  -20.8440  -29.8040   21.7930 H   0  0  0  0  0  0  0  0  0  0  0  0
  -17.9900  -27.9670   22.9060 C   0  0  0  0  0  0  0  0  0  0  0  0
  -20.4990  -28.4070   23.3400 C   0  0  0  0  0  3  0  0  0  0  0  0
  -20.7260  -26.9330   22.9290 C   0  0  0  0  0  2  0  0  0  0  0  0
  -19.7280  -26.4420   21.8770 C   0  0  0  0  0  2  0  0  0  0  0  0
  -18.2930  -26.5670   22.3980 C   0  0  0  0  0  2  0  0  0  0  0  0
  -19.0290  -28.8360   23.3320 C   0  0  0  0  0  0  0  0  0  0  0  0
  -18.6930  -30.1390   23.7560 C   0  0  0  0  0  3  0  0  0  0  0  0
  -17.3530  -30.5710   23.7690 C   0  0  0  0  0  3  0  0  0  0  0  0
  -16.3280  -29.6960   23.3690 C   0  0  0  0  0  3  0  0  0  0  0  0
  -16.6490  -28.3980   22.9360 C   0  0  0  0  0  3  0  0  0  0  0  0
  -25.8740  -32.5800   23.8090 C   0  0  0  0  0  3  0  0  0  0  0  0
  -25.5990  -33.9850   24.1310 N   0  0  0  0  0  0  0  0  0  0  0  0
  -25.9190  -35.0210   23.3440 C   0  0  0  0  0  0  0  0  0  0  0  0
  -26.5490  -34.8920   22.2910 O   0  0  0  0  0  0  0  0  0  0  0  0
  -25.0300  -34.1590   24.9470 H   0  0  0  0  0  0  0  0  0  0  0  0
  -24.1970  -36.8270   23.0350 C   0  0  0  0  0  1  0  0  0  0  0  0
  -25.4680  -36.4230   23.7980 C   0  0  0  0  0  3  0  0  0  0  0  0
  -27.6450  -37.2960   24.5220 C   0  0  0  0  0  1  0  0  0  0  0  0
  -26.5070  -37.4600   23.6220 N   0  0  0  0  0  0  0  0  0  0  0  0
  -26.1190  -38.3890   23.7690 H   0  0  0  0  0  0  0  0  0  0  0  0
  -26.4270  -31.8120   25.0710 C   0  0  1  0  0  0  0  0  0  0  0  0
  -25.3590  -31.5520   26.1610 C   0  0  0  0  0  1  0  0  0  0  0  0
  -27.0180  -30.4460   24.6470 C   0  0  0  0  0  1  0  0  0  0  0  0
  -27.5810  -32.6200   25.7130 C   0  0  0  0  0  1  0  0  0  0  0  0
  1  3  2  0
  1  5  1  0
  2  1  1  0
  4  2  1  0
  5  6  1  0
  7 20  1  0
  8 13  1  0
  9 10  1  0
  9  8  1  0
 11 10  1  0
 11 26  1  0
 11 12  1  0
 13  7  1  0
 13 12  1  0
 14  7  2  0
 15 18  1  0
 16 15  1  0
 17 20  1  0
 17 19  1  0
 19 21  1  0
 20 16  1  0
 21  6  1  0
 21 18  1  0
 21 22  1  6
 23 24  2  0
 24 43  1  0
 25 24  1  0
 25 28  1  0
 26 23  1  0
 26 27  1  0
 27 25  2  0
 28 29  1  0
 29 30  2  0
 31 34  1  0
 31 30  1  0
 32 31  2  0
 33 32  1  0
 33 28  2  0
 34 35  1  0
 35 40  2  0
 35 36  1  0
 36 37  2  0
 37 38  1  0
 38 42  1  0
 39 38  2  0
 40 39  1  0
 41 40  1  0
 43 44  1  0
 44 47  1  0
 44 46  1  0
 45 43  2  0
 48 49  1  0
 48 23  1  0
 50 48  1  0
 51 52  1  0
 51  2  1  0
 53 54  1  0
 53 52  1  0
 55 66  2  0
 56 54  1  0
 56 61  1  0
 57 65  1  0
 57 67  1  0
 58 64  1  0
 58 60  1  0
 59 65  1  0
 60 59  1  0
 61 60  2  0
 62 63  1  0
 62 56  2  0
 63 58  2  0
 64 57  1  0
 65 55  1  0
 67 69  2  0
 68 67  1  0
 70 68  1  0
 71 80  2  0
 71 76  1  0
 72 68  1  0
 73 72  1  0
 74 75  1  0
 74 73  1  0
 75 71  1  0
 76 72  1  0
 76 77  2  0
 77 78  1  0
 79 78  2  0
 80 79  1  0
 81 55  1  0
 81 82  1  0
 81 91  1  0
 82 85  1  0
 83 87  1  0
 83 82  1  0
 84 83  2  0
 87 86  1  0
 89 90  1  0
 89 87  1  0
 89 88  1  0
 91 94  1  1
 91 92  1  0
 93 91  1  0
M  ISO  4   7 100  20 100  53 101  54 101
M  END
>  <TORSDO>  (25) 
F 21

>  <SCORE>  (25) 
-12.159

>  <name>  (25) 
25

>  <ligand_id>  (25) 
25

>  <original_smiles>  (25) 
[H]c1c([H])c([H])c2c(c1[H])C([H])([H])C([H])([H])C([H])([H])C2([H])N([H])C(=O)C1([H])N(C(=O)C([H])(N([H])C(=O)C([H])(N([H])C([H])([H])[H])C([H])([H])[H])C(C([H])([H])[H])(C([H])([H])[H])C([H])([H])[H])C([H])([H])c2c([H])c(OC([H])([H])C([H])([H])C([H])([H])N([H])C(=O)C([H])([H])C([H])([H])[N+]3([H])C([H])([H])C([H])([H])N(C(=O)N4C([H])([H])C([H])([H])C([H])([H])C([H])(n5nc(-c6c([H])c([H])c(Oc7c([H])c([H])c(F)c([H])c7F)c([H])c6[H])c(C(=O)N([H])[H])c5N([H])[H])C4([H])[H])C([H])([H])C([H])([H])C3([H])[H])c([H])c([H])c2C1([H])[H]

>  <smiles>  (25) 
[H]c1c([H])c([H])c2c(c1[H])C([H])([H])C([H])([H])C([H])([H])C2([H])N([H])C(=O)C1([H])N(C(=O)C([H])(N([H])C(=O)C([H])(N([H])C([H])([H])[H])C([H])([H])[H])C(C([H])([H])[H])(C([H])([H])[H])C([H])([H])[H])C([H])([H])c2c([H])c(OC([H])([H])C([H])([H])C([H])([H])N([H])C(=O)C([H])([H])C([H])([H])[N+]3([H])C([H])([H])C([H])([H])N(C(=O)N4C([H])([H])C([H])([H])C([H])([H])C([H])(n5nc(-c6c([H])c([H])c(Oc7c([H])c([H])c(F)c([H])c7F)c([H])c6[H])c(C(=O)N([H])[H])c5N([H])[H])C4([H])[H])C([H])([H])C([H])([H])C3([H])[H])c([H])c([H])c2C1([H])[H]

$$$$
26:0:0
     RDKit          3D

 99 98  0  0  1  0  0  0  0  0999 V2000
  -25.9960  -27.5140   24.3170 C   0  0  0  0  0  3  0  0  0  0  0  0
  -25.6970  -28.4870   23.0110 C   0  0  0  0  0  2  0  0  0  0  0  0
  -25.0200  -28.8720   19.3750 C   0  0  0  0  0  1  0  0  0  0  0  0
  -25.5670  -27.8780   17.9660 C   0  0  0  0  0  3  0  0  0  0  0  0
  -26.1000  -26.7060   21.5420 C   0  0  0  0  0  1  0  0  0  0  0  0
  -26.7950  -25.2280   19.3690 C   0  0  0  0  0  1  0  0  0  0  0  0
  -25.3320  -28.0980   21.4390 C   0  0  0  0  0  3  0  0  0  0  0  0
  -26.3930  -26.2870   18.0390 C   0  0  0  0  0  0  0  0  0  0  0  0
  -26.7100  -25.7880   16.8240 F   0  0  0  0  0  0  0  0  0  0  0  0
  -28.9870  -18.4050   19.7900 C   0  0  0  0  0  2  0  0  0  0  0  0
  -29.8910  -15.1800   19.3010 C   0  0  0  0  0  2  0  0  0  0  0  0
  -29.5150  -13.7880   18.4520 C   0  0  0  0  0  2  0  0  0  0  0  0
  -28.4490  -12.8770   19.0640 C   0  0  0  0  0  2  0  0  0  0  0  0
  -27.5570  -13.8570   19.8170 C   0  0  0  0  0  3  0  0  0  0  0  0
  -28.2640  -15.1610   20.6160 C   0  0  0  0  0  2  0  0  0  0  0  0
  -28.8670  -16.5170   19.8010 N   0  0  0  0  0  0  0  0  0  0  0  0
  -30.2500  -17.9540   19.8220 O   0  0  0  0  0  1  0  0  0  0  0  0
  -27.7720  -22.7480   19.4140 C   0  0  0  0  0  2  0  0  0  0  0  0
  -28.1490  -20.5180   19.6600 N   0  0  0  0  0  1  0  0  0  0  0  0
  -28.8650  -23.0310   18.9080 O   0  0  0  0  0  0  0  0  0  0  0  0
  -29.1160  -20.7860   19.5300 H   0  0  0  0  0  0  0  0  0  0  0  0
  -25.1860  -13.9300   20.5820 C   0  0  0  0  0  0  0  0  0  0  0  0
  -24.2010  -13.0610   20.9310 C   0  0  0  0  0  0  0  0  0  0  0  0
  -24.7770  -11.7510   20.8990 C   0  0  0  0  0  0  0  0  0  0  0  0
  -26.3380  -13.2160   20.3920 N   0  0  0  0  0  0  0  0  0  0  0  0
  -26.0950  -11.8600   20.5940 N   0  0  0  0  0  0  0  0  0  0  0  0
  -24.0820  -10.4430   21.0870 C   0  0  0  0  0  0  0  0  0  0  0  0
  -24.4910   -9.4910   22.0500 C   0  0  0  0  0  3  0  0  0  0  0  0
  -23.7650   -8.2900   22.2530 C   0  0  0  0  0  3  0  0  0  0  0  0
  -22.5980   -8.0190   21.4970 C   0  0  0  0  0  0  0  0  0  0  0  0
  -22.1900   -8.9600   20.5330 C   0  0  0  0  0  3  0  0  0  0  0  0
  -22.9200  -10.1490   20.3330 C   0  0  0  0  0  3  0  0  0  0  0  0
  -21.8550   -6.8610   21.5960 O   0  0  0  0  0  0  0  0  0  0  0  0
  -21.7990   -6.1230   22.7540 C   0  0  0  0  0  0  0  0  0  0  0  0
  -21.3490   -6.6820   23.9710 C   0  0  0  0  0  3  0  0  0  0  0  0
  -21.2440   -5.8770   25.1220 C   0  0  0  0  0  3  0  0  0  0  0  0
  -21.5790   -4.5120   25.0600 C   0  0  0  0  0  0  0  0  0  0  0  0
  -22.0240   -3.9500   23.8510 C   0  0  0  0  0  3  0  0  0  0  0  0
  -22.1280   -4.7510   22.7010 C   0  0  0  0  0  0  0  0  0  0  0  0
  -22.5310   -4.1950   21.5330 F   0  0  0  0  0  0  0  0  0  0  0  0
  -21.4740   -3.7410   26.1670 F   0  0  0  0  0  0  0  0  0  0  0  0
  -22.7740  -13.4570   21.1600 C   0  0  0  0  0  0  0  0  0  0  0  0
  -22.0700  -12.7560   22.0390 N   0  0  0  0  0  0  0  0  0  0  0  0
  -22.2990  -14.4460   20.6030 O   0  0  0  0  0  0  0  0  0  0  0  0
  -22.4630  -11.9610   22.5210 H   0  0  0  0  0  0  0  0  0  0  0  0
  -21.1210  -13.0280   22.2410 H   0  0  0  0  0  0  0  0  0  0  0  0
  -25.1880  -15.3010   20.3640 N   0  0  0  0  0  0  0  0  0  0  0  0
  -24.3490  -15.8690   20.4290 H   0  0  0  0  0  0  0  0  0  0  0  0
  -25.9970  -15.8170   20.0410 H   0  0  0  0  0  0  0  0  0  0  0  0
  -27.5050  -27.1190   24.7340 C   0  0  0  0  0  2  0  0  0  0  0  0
  -28.8130  -26.3490   24.2260 C   0  0  0  0  0  3  0  0  0  0  0  0
  -29.7020  -26.5720   25.2000 F   0  0  0  0  0  0  0  0  0  0  0  0
  -29.5500  -26.7740   22.9000 C   0  0  0  0  0  2  0  0  0  0  0  0
  -29.3490  -25.9030   21.7400 O   0  0  0  0  0  0  0  0  0  0  0  0
  -24.7660  -31.7560   22.7180 C   0  0  0  0  0  0  0  0  0  0  0  0
  -28.1130  -25.8940   21.3780 C   0  0  0  0  0  0  0  0  0  0  0  0
  -23.4110  -29.8060   21.4030 C   0  0  0  0  0  2  0  0  0  0  0  0
  -24.7850  -26.8180   20.0480 C   0  0  0  0  0  2  0  0  0  0  0  0
  -26.5990  -30.1440   20.8080 C   0  0  0  0  0 15  0  0  0  0  0  0
  -26.8960  -28.1060   20.0160 C   0  0  0  0  0  1  0  0  0  0  0  0
  -28.1470  -27.3710   20.5420 C   0  0  0  0  0  3  0  0  0  0  0  0
  -26.5550  -24.7550   21.6660 C   0  0  0  0  0  3  0  0  0  0  0  0
  -24.8970  -25.2880   20.8660 C   0  0  0  0  0  3  0  0  0  0  0  0
  -23.2140  -27.9580   20.6130 C   0  0  0  0  0 15  0  0  0  0  0  0
  -24.9520  -30.7600   21.6100 N   0  0  0  0  0  2  0  0  0  0  0  0
  -23.6450  -32.0360   23.2190 O   0  0  0  0  0  0  0  0  0  0  0  0
  -22.6000  -29.4850   22.6770 C   0  0  0  0  0  0  0  0  0  0  0  0
  -21.2840  -29.3200   22.5440 N   0  0  0  0  0  0  0  0  0  0  0  0
  -23.1440  -29.0530   23.6900 O   0  0  0  0  0  0  0  0  0  0  0  0
  -20.8660  -29.5530   21.6540 H   0  0  0  0  0  0  0  0  0  0  0  0
  -18.0330  -27.9400   23.0770 C   0  0  0  0  0  0  0  0  0  0  0  0
  -20.5160  -28.4490   23.4360 C   0  0  0  0  0  3  0  0  0  0  0  0
  -20.7330  -26.9580   23.0940 C   0  0  0  0  0  2  0  0  0  0  0  0
  -19.7960  -26.4620   21.9900 C   0  0  0  0  0  2  0  0  0  0  0  0
  -18.3500  -26.5690   22.4950 C   0  0  0  0  0  2  0  0  0  0  0  0
  -19.0550  -28.8350   23.4810 C   0  0  0  0  0  0  0  0  0  0  0  0
  -18.7230  -30.1130   23.9690 C   0  0  0  0  0  3  0  0  0  0  0  0
  -17.3780  -30.5110   24.0560 C   0  0  0  0  0  3  0  0  0  0  0  0
  -16.3600  -29.6120   23.6850 C   0  0  0  0  0  3  0  0  0  0  0  0
  -16.6840  -28.3270   23.2090 C   0  0  0  0  0  3  0  0  0  0  0  0
  -25.8680  -32.6210   23.5500 C   0  0  0  0  0  3  0  0  0  0  0  0
  -26.4000  -32.0580   24.9610 C   0  0  1  0  0  0  0  0  0  0  0  0
  -25.2890  -31.6110   25.9620 C   0  0  0  0  0  1  0  0  0  0  0  0
  -27.4130  -30.9470   24.7300 C   0  0  0  0  0  1  0  0  0  0  0  0
  -27.2700  -33.0770   25.7440 C   0  0  0  0  0  1  0  0  0  0  0  0
  -25.3630  -33.9910   23.8970 N   0  0  0  0  0  0  0  0  0  0  0  0
  -25.7370  -35.1430   23.3170 C   0  0  0  0  0  0  0  0  0  0  0  0
  -26.4680  -35.1410   22.3260 O   0  0  0  0  0  0  0  0  0  0  0  0
  -24.6770  -34.0420   24.6350 H   0  0  0  0  0  0  0  0  0  0  0  0
  -23.9220  -36.9090   23.1410 C   0  0  0  0  0  1  0  0  0  0  0  0
  -25.2150  -36.5010   23.8680 C   0  0  0  0  0  3  0  0  0  0  0  0
  -27.3510  -37.4880   24.6250 C   0  0  0  0  0  1  0  0  0  0  0  0
  -26.1880  -37.6200   23.7520 N   0  0  0  0  0  0  0  0  0  0  0  0
  -25.7360  -38.5090   23.9570 H   0  0  0  0  0  0  0  0  0  0  0  0
  -24.8960  -26.5900   24.9190 C   0  0  0  0  0  2  0  0  0  0  0  0
  -24.0100  -26.0690   23.8950 N   0  0  0  0  0  4  0  0  0  0  0  0
  -23.4510  -26.8670   23.6070 H   0  0  0  0  0  0  0  0  0  0  0  0
  -23.4340  -25.3390   24.2750 H   0  0  0  0  0  0  0  0  0  0  0  0
  -24.5480  -25.7180   23.1240 H   0  0  0  0  0  0  0  0  0  0  0  0
  1 50  1  0
  1 95  1  0
  2  1  1  0
  4  8  2  0
  4  3  1  0
  7  5  1  0
  7  2  1  0
  8  6  1  0
  9  8  1  0
 10 16  1  0
 10 17  1  0
 11 16  1  0
 12 13  1  0
 12 11  1  0
 14 13  1  0
 14 25  1  0
 14 15  1  0
 16 15  1  0
 20 18  2  0
 21 19  1  0
 22 23  2  0
 23 42  1  0
 24 23  1  0
 24 27  1  0
 25 22  1  0
 25 26  1  0
 26 24  2  0
 27 28  1  0
 28 29  2  0
 30 33  1  0
 30 29  1  0
 31 30  2  0
 32 31  1  0
 32 27  2  0
 33 34  1  0
 34 35  1  0
 35 36  2  0
 37 36  1  0
 37 41  1  0
 38 37  2  0
 39 34  2  0
 39 38  1  0
 40 39  1  0
 42 43  1  0
 43 46  1  0
 43 45  1  0
 44 42  2  0
 47 48  1  0
 47 22  1  0
 49 47  1  0
 51 50  1  0
 51 52  1  0
 53 51  1  0
 54 53  1  0
 55 66  2  0
 56 62  1  0
 56 54  1  0
 57 65  1  0
 57 67  1  0
 58 63  1  0
 58  7  1  0
 60 61  1  0
 61 56  2  0
 63 62  2  0
 65 55  1  0
 67 69  2  0
 68 67  1  0
 70 68  1  0
 71 80  2  0
 71 76  1  0
 72 68  1  0
 72 76  1  0
 73 72  1  0
 74 75  1  0
 74 73  1  0
 75 71  1  0
 76 77  2  0
 77 78  1  0
 79 78  2  0
 80 79  1  0
 81 55  1  0
 81 86  1  0
 81 82  1  0
 82 85  1  1
 82 83  1  0
 84 82  1  0
 86 89  1  0
 87 91  1  0
 87 86  1  0
 88 87  2  0
 91 90  1  0
 93 91  1  0
 93 94  1  0
 93 92  1  0
 96 98  1  0
 96 95  1  0
 97 96  1  0
 99 96  1  0
M  ISO  4  10 100  19 100  53 101  54 101
M  END
>  <TORSDO>  (26) 
F 23

>  <SCORE>  (26) 
-12.612

>  <name>  (26) 
26

>  <ligand_id>  (26) 
26

>  <original_smiles>  (26) 
[H]c1c([H])c([H])c2c(c1[H])C([H])([H])C([H])([H])C([H])([H])C2([H])N([H])C(=O)C1([H])N(C(=O)C([H])(N([H])C(=O)C([H])(N([H])C([H])([H])[H])C([H])([H])[H])C(C([H])([H])[H])(C([H])([H])[H])C([H])([H])[H])C([H])([H])c2c([H])c(OC([H])([H])C([H])(F)C([H])([H])C([H])(C([H])([H])c3c([H])c([H])c(F)c(C(=O)N([H])C(=O)N4C([H])([H])C([H])([H])C([H])([H])C([H])(n5nc(-c6c([H])c([H])c(Oc7c([H])c([H])c(F)c([H])c7F)c([H])c6[H])c(C(=O)N([H])[H])c5N([H])[H])C4([H])[H])c3[H])C([H])([H])[N+]([H])([H])[H])c([H])c([H])c2C1([H])[H]

>  <smiles>  (26) 
[H]c1c([H])c([H])c2c(c1[H])C([H])([H])C([H])([H])C([H])([H])C2([H])N([H])C(=O)C1([H])N(C(=O)C([H])(N([H])C(=O)C([H])(N([H])C([H])([H])[H])C([H])([H])[H])C(C([H])([H])[H])(C([H])([H])[H])C([H])([H])[H])C([H])([H])c2c([H])c(OC([H])([H])C([H])(F)C([H])([H])C([H])(C([H])([H])c3c([H])c([H])c(F)c(C(=O)N([H])C(=O)N4C([H])([H])C([H])([H])C([H])([H])C([H])(n5nc(-c6c([H])c([H])c(Oc7c([H])c([H])c(F)c([H])c7F)c([H])c6[H])c(C(=O)N([H])[H])c5N([H])[H])C4([H])[H])c3[H])C([H])([H])[N+]([H])([H])[H])c([H])c([H])c2C1([H])[H]

$$$$
27:0:0
     RDKit          3D

 95103  0  0  1  0  0  0  0  0999 V2000
  -27.4740  -22.7330   21.5830 C   0  0  0  0  0  2  0  0  0  0  0  0
  -27.4720  -21.2010   21.4020 C   0  0  0  0  0  2  0  0  0  0  0  0
  -28.3490  -21.3910   18.9770 C   0  0  0  0  0  1  0  0  0  0  0  0
  -28.3970  -20.6060   20.3070 C   0  0  0  0  0  3  0  0  0  0  0  0
  -29.8510  -20.3100   20.7870 C   0  0  0  0  0  2  0  0  0  0  0  0
  -31.8100  -14.9560   19.7880 C   0  0  0  0  0  0  0  0  0  0  0  0
  -31.4470  -12.6280   19.0150 C   0  0  0  0  0  2  0  0  0  0  0  0
  -30.4890  -12.6000   17.8040 C   0  0  0  0  0  2  0  0  0  0  0  0
  -29.0140  -12.5650   18.2600 C   0  0  0  0  0  2  0  0  0  0  0  0
  -28.7170  -13.6320   19.3410 C   0  0  0  0  0  3  0  0  0  0  0  0
  -29.7820  -13.5430   20.4720 C   0  0  0  0  0  2  0  0  0  0  0  0
  -31.0890  -13.7900   19.8550 N   0  0  0  0  0  0  0  0  0  0  0  0
  -32.9400  -14.9430   19.2800 O   0  0  0  0  0  0  0  0  0  0  0  0
  -29.8910  -16.5750   20.0550 C   0  0  0  0  0  2  0  0  0  0  0  0
  -32.2460  -17.2910   20.3500 C   0  0  0  0  0  2  0  0  0  0  0  0
  -29.4630  -17.8590   20.7570 C   0  0  0  0  0  2  0  0  0  0  0  0
  -31.7090  -18.6420   20.8980 C   0  0  0  0  0  2  0  0  0  0  0  0
  -31.2940  -16.1450   20.2630 N   0  0  0  0  0  0  0  0  0  0  0  0
  -30.3570  -18.9630   20.3880 N   0  0  2  0  0  4  0  0  0  0  0  0
  -30.4200  -18.9800   19.3800 H   0  0  0  0  0  0  0  0  0  0  0  0
  -26.4440  -14.5480   20.1470 C   0  0  0  0  0  0  0  0  0  0  0  0
  -25.3000  -13.9110   20.5460 C   0  0  0  0  0  0  0  0  0  0  0  0
  -25.5830  -12.5140   20.4680 C   0  0  0  0  0  0  0  0  0  0  0  0
  -27.3560  -13.5420   19.8570 N   0  0  0  0  0  0  0  0  0  0  0  0
  -26.8430  -12.3140   20.1070 N   0  0  0  0  0  0  0  0  0  0  0  0
  -24.7110  -11.3500   20.6550 C   0  0  0  0  0  0  0  0  0  0  0  0
  -25.0330  -10.3290   21.5750 C   0  0  0  0  0  3  0  0  0  0  0  0
  -24.1720   -9.2250   21.7460 C   0  0  0  0  0  3  0  0  0  0  0  0
  -22.9740   -9.1350   20.9970 C   0  0  0  0  0  0  0  0  0  0  0  0
  -22.6710  -10.1430   20.0660 C   0  0  0  0  0  3  0  0  0  0  0  0
  -23.5320  -11.2400   19.8920 C   0  0  0  0  0  3  0  0  0  0  0  0
  -22.0880   -8.0890   21.0810 O   0  0  0  0  0  0  0  0  0  0  0  0
  -21.9060   -7.3930   22.2480 C   0  0  0  0  0  0  0  0  0  0  0  0
  -21.5300   -8.0360   23.4480 C   0  0  0  0  0  3  0  0  0  0  0  0
  -21.2860   -7.2750   24.6080 C   0  0  0  0  0  3  0  0  0  0  0  0
  -21.4100   -5.8730   24.5700 C   0  0  0  0  0  0  0  0  0  0  0  0
  -21.7790   -5.2310   23.3750 C   0  0  0  0  0  3  0  0  0  0  0  0
  -22.0250   -5.9890   22.2170 C   0  0  0  0  0  0  0  0  0  0  0  0
  -22.3600   -5.3650   21.0620 F   0  0  0  0  0  0  0  0  0  0  0  0
  -21.1670   -5.1400   25.6820 F   0  0  0  0  0  0  0  0  0  0  0  0
  -23.9850  -14.5570   20.8760 C   0  0  0  0  0  0  0  0  0  0  0  0
  -23.2220  -13.9630   21.7870 N   0  0  0  0  0  0  0  0  0  0  0  0
  -23.6490  -15.6220   20.3590 O   0  0  0  0  0  0  0  0  0  0  0  0
  -23.5060  -13.1010   22.2290 H   0  0  0  0  0  0  0  0  0  0  0  0
  -22.3360  -14.3750   22.0440 H   0  0  0  0  0  0  0  0  0  0  0  0
  -26.7650  -15.8910   19.9790 N   0  0  0  0  0  0  0  0  0  0  0  0
  -26.0350  -16.5890   20.0730 H   0  0  0  0  0  0  0  0  0  0  0  0
  -27.5060  -16.1810   19.3560 H   0  0  0  0  0  0  0  0  0  0  0  0
  -28.6370  -23.2760   22.4370 C   0  0  0  0  0  2  0  0  0  0  0  0
  -29.4510  -24.2630   21.7020 N   0  0  0  0  0  4  0  0  0  0  0  0
  -29.8450  -23.8250   20.8850 H   0  0  0  0  0  0  0  0  0  0  0  0
  -30.2310  -24.5210   22.2890 H   0  0  0  0  0  0  0  0  0  0  0  0
  -28.7410  -25.5060   21.3240 C   0  0  0  0  0  2  0  0  0  0  0  0
  -28.8690  -25.8210   19.8240 C   0  0  0  0  0  2  0  0  0  0  0  0
  -28.7120  -27.2240   19.6360 O   0  0  0  0  0  0  0  0  0  0  0  0
  -24.6110  -31.8210   23.1650 C   0  0  0  0  0  0  0  0  0  0  0  0
  -27.4600  -27.7800   19.7570 C   0  0  0  0  0  0  0  0  0  0  0  0
  -23.4550  -30.4610   21.4490 C   0  0  0  0  0  3  0  0  0  0  0  0
  -24.9670  -29.0980   19.9170 C   0  0  0  0  0  0  0  0  0  0  0  0
  -25.9460  -30.9900   21.2330 C   0  0  0  0  0  2  0  0  0  0  0  0
  -26.1000  -29.6670   20.5100 C   0  0  0  0  0  0  0  0  0  0  0  0
  -27.3470  -29.0170   20.4270 C   0  0  0  0  0  3  0  0  0  0  0  0
  -26.3080  -27.2060   19.1750 C   0  0  0  0  0  3  0  0  0  0  0  0
  -25.0640  -27.8610   19.2530 C   0  0  0  0  0  3  0  0  0  0  0  0
  -23.6780  -29.8760   20.0280 C   0  0  0  0  0  2  0  0  0  0  0  0
  -24.6890  -31.1020   22.0090 N   0  0  0  0  0  0  0  0  0  0  0  0
  -23.5270  -31.9940   23.7360 O   0  0  0  0  0  0  0  0  0  0  0  0
  -22.8800  -29.3470   22.3510 C   0  0  0  0  0  0  0  0  0  0  0  0
  -21.5720  -29.0830   22.2110 N   0  0  0  0  0  0  0  0  0  0  0  0
  -23.6090  -28.7210   23.1260 O   0  0  0  0  0  0  0  0  0  0  0  0
  -21.0410  -29.6520   21.5650 H   0  0  0  0  0  0  0  0  0  0  0  0
  -18.2960  -27.6090   22.5980 C   0  0  0  0  0  0  0  0  0  0  0  0
  -20.8230  -28.0440   22.9160 C   0  0  0  0  0  3  0  0  0  0  0  0
  -21.0430  -26.6590   22.2620 C   0  0  0  0  0  2  0  0  0  0  0  0
  -19.9720  -26.2930   21.2320 C   0  0  0  0  0  2  0  0  0  0  0  0
  -18.5830  -26.3030   21.8770 C   0  0  0  0  0  2  0  0  0  0  0  0
  -19.3490  -28.4320   23.0760 C   0  0  0  0  0  0  0  0  0  0  0  0
  -19.0290  -29.6480   23.7180 C   0  0  0  0  0  3  0  0  0  0  0  0
  -17.6880  -30.0430   23.8880 C   0  0  0  0  0  3  0  0  0  0  0  0
  -16.6480  -29.2170   23.4240 C   0  0  0  0  0  3  0  0  0  0  0  0
  -16.9530  -28.0020   22.7860 C   0  0  0  0  0  3  0  0  0  0  0  0
  -25.8730  -32.4770   23.8090 C   0  0  0  0  0  3  0  0  0  0  0  0
  -26.4010  -31.6970   25.0760 C   0  0  1  0  0  0  0  0  0  0  0  0
  -25.2970  -31.3840   26.1140 C   0  0  0  0  0  1  0  0  0  0  0  0
  -27.0530  -30.3580   24.6560 C   0  0  0  0  0  1  0  0  0  0  0  0
  -27.5010  -32.5240   25.7810 C   0  0  0  0  0  1  0  0  0  0  0  0
  -25.5190  -33.8590   24.1580 N   0  0  0  0  0  0  0  0  0  0  0  0
  -25.8420  -34.9330   23.4260 C   0  0  0  0  0  0  0  0  0  0  0  0
  -26.5390  -34.8640   22.4090 O   0  0  0  0  0  0  0  0  0  0  0  0
  -24.8970  -33.9820   24.9430 H   0  0  0  0  0  0  0  0  0  0  0  0
  -24.0740  -36.6810   23.0610 C   0  0  0  0  0  1  0  0  0  0  0  0
  -25.3070  -36.2980   23.8950 C   0  0  0  0  0  3  0  0  0  0  0  0
  -27.3960  -37.2260   24.7900 C   0  0  0  0  0  1  0  0  0  0  0  0
  -26.3120  -37.3800   23.8240 N   0  0  0  0  0  0  0  0  0  0  0  0
  -25.8750  -38.2860   23.9770 H   0  0  0  0  0  0  0  0  0  0  0  0
  1 49  1  0
  2  1  1  0
  4  3  1  0
  4  5  1  0
  4  2  1  0
  6 12  1  0
  6 18  1  0
  7 12  1  0
  8  9  1  0
  8  7  1  0
 10  9  1  0
 10 24  1  0
 10 11  1  0
 12 11  1  0
 13  6  2  0
 14 18  1  0
 14 16  1  0
 15 17  1  0
 18 15  1  0
 19 16  1  0
 19  5  1  0
 19 17  1  0
 19 20  1  6
 21 22  2  0
 22 41  1  0
 23 22  1  0
 23 26  1  0
 24 25  1  0
 24 21  1  0
 25 23  2  0
 26 27  1  0
 27 28  2  0
 29 32  1  0
 29 28  1  0
 30 29  2  0
 31 30  1  0
 31 26  2  0
 32 33  1  0
 33 34  1  0
 34 35  2  0
 36 35  1  0
 36 40  1  0
 37 36  2  0
 38 33  2  0
 38 37  1  0
 39 38  1  0
 41 42  1  0
 42 45  1  0
 42 44  1  0
 43 41  2  0
 46 47  1  0
 46 21  1  0
 48 46  1  0
 50 52  1  0
 50 49  1  0
 51 50  1  0
 53 50  1  0
 54 53  1  0
 55 57  1  0
 55 54  1  0
 56 67  2  0
 57 62  1  0
 58 66  1  0
 58 68  1  0
 59 65  1  0
 59 61  1  0
 60 66  1  0
 61 60  1  0
 62 61  2  0
 63 64  1  0
 63 57  2  0
 64 59  2  0
 65 58  1  0
 66 56  1  0
 68 70  2  0
 69 68  1  0
 71 69  1  0
 72 81  2  0
 72 77  1  0
 73 69  1  0
 73 77  1  0
 74 73  1  0
 75 76  1  0
 75 74  1  0
 76 72  1  0
 77 78  2  0
 78 79  1  0
 80 79  2  0
 81 80  1  0
 82 56  1  0
 82 87  1  0
 82 83  1  0
 83 86  1  1
 83 84  1  0
 85 83  1  0
 87 90  1  0
 88 92  1  0
 88 87  1  0
 89 88  2  0
 92 91  1  0
 94 92  1  0
 94 95  1  0
 94 93  1  0
M  ISO  4   6 100  18 100  54 101  55 101
M  END
>  <TORSDO>  (27) 
F 23

>  <SCORE>  (27) 
-10.395

>  <name>  (27) 
27

>  <ligand_id>  (27) 
27

>  <original_smiles>  (27) 
[H]c1c([H])c([H])c2c(c1[H])C([H])([H])C([H])([H])C([H])([H])C2([H])N([H])C(=O)C1([H])N(C(=O)C([H])(N([H])C(=O)C([H])(N([H])C([H])([H])[H])C([H])([H])[H])C(C([H])([H])[H])(C([H])([H])[H])C([H])([H])[H])C([H])([H])c2c([H])c(OC([H])([H])C([H])([H])[N+]([H])([H])C([H])([H])C([H])([H])C([H])([H])C([H])(C([H])([H])[H])C([H])([H])[N+]3([H])C([H])([H])C([H])([H])N(C(=O)N4C([H])([H])C([H])([H])C([H])([H])C([H])(n5nc(-c6c([H])c([H])c(Oc7c([H])c([H])c(F)c([H])c7F)c([H])c6[H])c(C(=O)N([H])[H])c5N([H])[H])C4([H])[H])C([H])([H])C3([H])[H])c([H])c([H])c2C1([H])[H]

>  <smiles>  (27) 
[H]c1c([H])c([H])c2c(c1[H])C([H])([H])C([H])([H])C([H])([H])C2([H])N([H])C(=O)C1([H])N(C(=O)C([H])(N([H])C(=O)C([H])(N([H])C([H])([H])[H])C([H])([H])[H])C(C([H])([H])[H])(C([H])([H])[H])C([H])([H])[H])C([H])([H])c2c([H])c(OC([H])([H])C([H])([H])[N+]([H])([H])C([H])([H])C([H])([H])C([H])([H])C([H])(C([H])([H])[H])C([H])([H])[N+]3([H])C([H])([H])C([H])([H])N(C(=O)N4C([H])([H])C([H])([H])C([H])([H])C([H])(n5nc(-c6c([H])c([H])c(Oc7c([H])c([H])c(F)c([H])c7F)c([H])c6[H])c(C(=O)N([H])[H])c5N([H])[H])C4([H])[H])C([H])([H])C3([H])[H])c([H])c([H])c2C1([H])[H]

$$$$
28:0:0
     RDKit          3D

 96104  0  0  1  0  0  0  0  0999 V2000
  -27.3070  -21.3100   21.9110 C   0  0  0  0  0  2  0  0  0  0  0  0
  -28.4040  -20.9230   20.8910 C   0  0  0  0  0  2  0  0  0  0  0  0
  -28.2340  -19.5470   20.3730 N   0  0  0  0  0  4  0  0  0  0  0  0
  -27.8740  -18.9300   21.0830 H   0  0  0  0  0  0  0  0  0  0  0  0
  -27.5380  -19.5860   19.6430 H   0  0  0  0  0  0  0  0  0  0  0  0
  -29.4490  -18.9430   19.7740 C   0  0  0  0  0  2  0  0  0  0  0  0
  -32.4960  -15.3400   20.0620 C   0  0  0  0  0  0  0  0  0  0  0  0
  -32.1570  -12.9720   19.4360 C   0  0  0  0  0  2  0  0  0  0  0  0
  -31.2780  -12.8760   18.1710 C   0  0  0  0  0  2  0  0  0  0  0  0
  -29.7770  -12.8880   18.5310 C   0  0  0  0  0  2  0  0  0  0  0  0
  -29.4170  -14.0120   19.5410 C   0  0  0  0  0  3  0  0  0  0  0  0
  -30.4130  -13.9850   20.7260 C   0  0  0  0  0  2  0  0  0  0  0  0
  -31.7570  -14.1920   20.1680 N   0  0  0  0  0  0  0  0  0  0  0  0
  -33.6520  -15.2910   19.6210 O   0  0  0  0  0  0  0  0  0  0  0  0
  -31.9300  -18.9770   20.4740 C   0  0  0  0  0  2  0  0  0  0  0  0
  -30.6980  -16.9870   20.9410 C   0  0  0  0  0  2  0  0  0  0  0  0
  -30.5200  -18.5130   20.8200 C   0  0  0  0  0  3  0  0  0  0  0  0
  -32.5890  -17.7980   19.7440 C   0  0  0  0  0  3  0  0  0  0  0  0
  -32.5060  -17.9220   18.2100 C   0  0  0  0  0  1  0  0  0  0  0  0
  -31.9050  -16.5740   20.2030 N   0  0  0  0  0  0  0  0  0  0  0  0
  -27.1030  -14.9240   20.2170 C   0  0  0  0  0  0  0  0  0  0  0  0
  -25.9450  -14.2970   20.5810 C   0  0  0  0  0  0  0  0  0  0  0  0
  -26.2270  -12.8970   20.5340 C   0  0  0  0  0  0  0  0  0  0  0  0
  -28.0320  -13.9190   19.9920 N   0  0  0  0  0  0  0  0  0  0  0  0
  -27.5040  -12.6930   20.2370 N   0  0  0  0  0  0  0  0  0  0  0  0
  -25.3400  -11.7410   20.6950 C   0  0  0  0  0  0  0  0  0  0  0  0
  -25.5870  -10.7540   21.6750 C   0  0  0  0  0  3  0  0  0  0  0  0
  -24.7090   -9.6580   21.8190 C   0  0  0  0  0  3  0  0  0  0  0  0
  -23.5740   -9.5430   20.9830 C   0  0  0  0  0  0  0  0  0  0  0  0
  -23.3490  -10.5150   19.9930 C   0  0  0  0  0  3  0  0  0  0  0  0
  -24.2260  -11.6010   19.8470 C   0  0  0  0  0  3  0  0  0  0  0  0
  -22.6800   -8.5010   21.0360 O   0  0  0  0  0  0  0  0  0  0  0  0
  -22.4000   -7.8560   22.2140 C   0  0  0  0  0  0  0  0  0  0  0  0
  -21.8920   -8.5450   23.3380 C   0  0  0  0  0  3  0  0  0  0  0  0
  -21.5500   -7.8320   24.5040 C   0  0  0  0  0  3  0  0  0  0  0  0
  -21.7020   -6.4340   24.5460 C   0  0  0  0  0  0  0  0  0  0  0  0
  -22.2020   -5.7460   23.4260 C   0  0  0  0  0  3  0  0  0  0  0  0
  -22.5460   -6.4560   22.2620 C   0  0  0  0  0  0  0  0  0  0  0  0
  -23.0090   -5.7870   21.1780 F   0  0  0  0  0  0  0  0  0  0  0  0
  -21.3680   -5.7460   25.6630 F   0  0  0  0  0  0  0  0  0  0  0  0
  -24.6180  -14.9520   20.8410 C   0  0  0  0  0  0  0  0  0  0  0  0
  -23.8040  -14.3740   21.7180 N   0  0  0  0  0  0  0  0  0  0  0  0
  -24.3160  -16.0160   20.3020 O   0  0  0  0  0  0  0  0  0  0  0  0
  -24.0600  -13.5180   22.1890 H   0  0  0  0  0  0  0  0  0  0  0  0
  -22.9100  -14.7980   21.9220 H   0  0  0  0  0  0  0  0  0  0  0  0
  -27.4300  -16.2610   20.0230 N   0  0  0  0  0  0  0  0  0  0  0  0
  -26.6400  -16.8890   19.9270 H   0  0  0  0  0  0  0  0  0  0  0  0
  -28.1520  -16.4600   19.3420 H   0  0  0  0  0  0  0  0  0  0  0  0
  -27.1990  -22.8260   22.2150 C   0  0  0  0  0  2  0  0  0  0  0  0
  -26.6190  -23.6160   21.0990 N   0  0  0  0  0  4  0  0  0  0  0  0
  -25.6140  -23.5450   21.1680 H   0  0  0  0  0  0  0  0  0  0  0  0
  -26.8840  -23.2280   20.2100 H   0  0  0  0  0  0  0  0  0  0  0  0
  -26.9610  -25.0600   21.0830 C   0  0  0  0  0  2  0  0  0  0  0  0
  -28.4280  -25.3360   20.6570 C   0  0  0  0  0  2  0  0  0  0  0  0
  -28.8140  -26.8220   20.4640 C   0  0  0  0  0  2  0  0  0  0  0  0
  -28.3460  -27.3590   19.2180 O   0  0  0  0  0  0  0  0  0  0  0  0
  -24.4820  -31.8230   23.1240 C   0  0  0  0  0  0  0  0  0  0  0  0
  -27.1720  -28.0540   19.3310 C   0  0  0  0  0  0  0  0  0  0  0  0
  -23.2500  -30.5700   21.3780 C   0  0  0  0  0  3  0  0  0  0  0  0
  -24.6970  -29.3530   19.6620 C   0  0  0  0  0  0  0  0  0  0  0  0
  -25.7220  -31.1460   21.0800 C   0  0  0  0  0  2  0  0  0  0  0  0
  -25.8510  -29.8850   20.2520 C   0  0  0  0  0  0  0  0  0  0  0  0
  -27.0920  -29.2410   20.0870 C   0  0  0  0  0  3  0  0  0  0  0  0
  -26.0170  -27.5470   18.7050 C   0  0  0  0  0  3  0  0  0  0  0  0
  -24.7750  -28.1860   18.8810 C   0  0  0  0  0  3  0  0  0  0  0  0
  -23.4060  -30.0990   19.9060 C   0  0  0  0  0  2  0  0  0  0  0  0
  -24.5050  -31.1870   21.9200 N   0  0  0  0  0  0  0  0  0  0  0  0
  -23.4280  -31.9440   23.7610 O   0  0  0  0  0  0  0  0  0  0  0  0
  -22.7420  -29.3840   22.2290 C   0  0  0  0  0  0  0  0  0  0  0  0
  -21.4350  -29.0910   22.1200 N   0  0  0  0  0  0  0  0  0  0  0  0
  -23.5160  -28.7380   22.9400 O   0  0  0  0  0  0  0  0  0  0  0  0
  -20.8660  -29.6870   21.5340 H   0  0  0  0  0  0  0  0  0  0  0  0
  -18.2220  -27.4850   22.5050 C   0  0  0  0  0  0  0  0  0  0  0  0
  -20.7410  -27.9960   22.7920 C   0  0  0  0  0  3  0  0  0  0  0  0
  -20.9890  -26.6490   22.0700 C   0  0  0  0  0  2  0  0  0  0  0  0
  -19.9150  -26.3110   21.0340 C   0  0  0  0  0  2  0  0  0  0  0  0
  -18.5370  -26.2370   21.6970 C   0  0  0  0  0  2  0  0  0  0  0  0
  -19.2570  -28.3200   23.0050 C   0  0  0  0  0  0  0  0  0  0  0  0
  -18.9100  -29.4860   23.7220 C   0  0  0  0  0  3  0  0  0  0  0  0
  -17.5630  -29.8200   23.9440 C   0  0  0  0  0  3  0  0  0  0  0  0
  -16.5410  -28.9830   23.4590 C   0  0  0  0  0  3  0  0  0  0  0  0
  -16.8730  -27.8170   22.7450 C   0  0  0  0  0  3  0  0  0  0  0  0
  -25.7730  -32.4510   23.7450 C   0  0  0  0  0  3  0  0  0  0  0  0
  -25.4370  -33.8120   24.1780 N   0  0  0  0  0  0  0  0  0  0  0  0
  -25.7260  -34.9230   23.4850 C   0  0  0  0  0  0  0  0  0  0  0  0
  -26.3760  -34.9090   22.4360 O   0  0  0  0  0  0  0  0  0  0  0  0
  -24.8600  -33.8980   25.0000 H   0  0  0  0  0  0  0  0  0  0  0  0
  -23.9390  -36.6830   23.2800 C   0  0  0  0  0  1  0  0  0  0  0  0
  -25.2080  -36.2630   24.0420 C   0  0  0  0  0  3  0  0  0  0  0  0
  -27.3300  -37.1520   24.8930 C   0  0  0  0  0  1  0  0  0  0  0  0
  -26.2060  -37.3520   23.9840 N   0  0  0  0  0  0  0  0  0  0  0  0
  -25.7760  -38.2450   24.2050 H   0  0  0  0  0  0  0  0  0  0  0  0
  -26.3620  -31.6120   24.9440 C   0  0  1  0  0  0  0  0  0  0  0  0
  -25.3170  -31.2620   26.0270 C   0  0  0  0  0  1  0  0  0  0  0  0
  -26.9790  -30.2870   24.4320 C   0  0  0  0  0  1  0  0  0  0  0  0
  -27.5030  -32.4060   25.6230 C   0  0  0  0  0  1  0  0  0  0  0  0
  1 49  1  0
  2  1  1  0
  3  2  1  0
  3  4  1  0
  5  3  1  0
  6  3  1  0
  7 13  1  0
  7 20  1  0
  8 13  1  0
  9 10  1  0
  9  8  1  0
 11 10  1  0
 11 24  1  0
 11 12  1  0
 13 12  1  0
 14  7  2  0
 15 17  1  0
 17  6  1  0
 17 16  1  0
 18 19  1  0
 18 20  1  0
 18 15  1  0
 20 16  1  0
 21 22  2  0
 22 41  1  0
 23 22  1  0
 23 26  1  0
 24 21  1  0
 24 25  1  0
 25 23  2  0
 26 27  1  0
 27 28  2  0
 29 32  1  0
 29 28  1  0
 30 29  2  0
 31 30  1  0
 31 26  2  0
 32 33  1  0
 33 38  2  0
 33 34  1  0
 34 35  2  0
 35 36  1  0
 36 40  1  0
 37 36  2  0
 38 37  1  0
 39 38  1  0
 41 42  1  0
 42 45  1  0
 42 44  1  0
 43 41  2  0
 46 21  1  0
 47 46  1  0
 48 46  1  0
 50 51  1  0
 50 49  1  0
 52 50  1  0
 53 50  1  0
 54 53  1  0
 55 54  1  0
 56 58  1  0
 56 55  1  0
 57 68  2  0
 58 63  1  0
 59 67  1  0
 59 69  1  0
 60 66  1  0
 60 62  1  0
 61 67  1  0
 62 61  1  0
 63 62  2  0
 64 65  1  0
 64 58  2  0
 65 60  2  0
 66 59  1  0
 67 57  1  0
 69 71  2  0
 70 69  1  0
 72 70  1  0
 73 82  2  0
 73 78  1  0
 74 70  1  0
 74 78  1  0
 75 74  1  0
 76 77  1  0
 76 75  1  0
 77 73  1  0
 78 79  2  0
 79 80  1  0
 81 80  2  0
 82 81  1  0
 83 57  1  0
 83 84  1  0
 83 93  1  0
 84 87  1  0
 85 89  1  0
 85 84  1  0
 86 85  2  0
 89 88  1  0
 91 89  1  0
 91 92  1  0
 91 90  1  0
 93 96  1  1
 93 94  1  0
 95 93  1  0
M  ISO  4   7 100  20 100  55 101  56 101
M  END
>  <TORSDO>  (28) 
F 24

>  <SCORE>  (28) 
-7.385

>  <name>  (28) 
28

>  <ligand_id>  (28) 
28

>  <original_smiles>  (28) 
[H]c1c([H])c([H])c2c(c1[H])C([H])([H])C([H])([H])C([H])([H])C2([H])N([H])C(=O)C1([H])N(C(=O)C([H])(N([H])C(=O)C([H])(N([H])C([H])([H])[H])C([H])([H])[H])C(C([H])([H])[H])(C([H])([H])[H])C([H])([H])[H])C([H])([H])c2c([H])c(OC([H])([H])C([H])([H])C([H])([H])[N+]([H])([H])C([H])([H])C([H])([H])C([H])([H])[N+]([H])([H])C([H])([H])C3([H])C([H])([H])N(C(=O)N4C([H])([H])C([H])([H])C([H])([H])C([H])(n5nc(-c6c([H])c([H])c(Oc7c([H])c([H])c(F)c([H])c7F)c([H])c6[H])c(C(=O)N([H])[H])c5N([H])[H])C4([H])[H])C([H])(C([H])([H])[H])C3([H])[H])c([H])c([H])c2C1([H])[H]

>  <smiles>  (28) 
[H]c1c([H])c([H])c2c(c1[H])C([H])([H])C([H])([H])C([H])([H])C2([H])N([H])C(=O)C1([H])N(C(=O)C([H])(N([H])C(=O)C([H])(N([H])C([H])([H])[H])C([H])([H])[H])C(C([H])([H])[H])(C([H])([H])[H])C([H])([H])[H])C([H])([H])c2c([H])c(OC([H])([H])C([H])([H])C([H])([H])[N+]([H])([H])C([H])([H])C([H])([H])C([H])([H])[N+]([H])([H])C([H])([H])C3([H])C([H])([H])N(C(=O)N4C([H])([H])C([H])([H])C([H])([H])C([H])(n5nc(-c6c([H])c([H])c(Oc7c([H])c([H])c(F)c([H])c7F)c([H])c6[H])c(C(=O)N([H])[H])c5N([H])[H])C4([H])[H])C([H])(C([H])([H])[H])C3([H])[H])c([H])c([H])c2C1([H])[H]

$$$$
29:0:0
     RDKit          3D

 95103  0  0  1  0  0  0  0  0999 V2000
  -26.6590  -20.0910   18.0620 C   0  0  0  0  0  0  0  0  0  0  0  0
  -25.9360  -21.2070   18.2170 N   0  0  0  0  0  0  0  0  0  0  0  0
  -27.5700  -20.0070   17.2330 O   0  0  0  0  0  0  0  0  0  0  0  0
  -25.2160  -21.1860   18.9270 H   0  0  0  0  0  0  0  0  0  0  0  0
  -26.2380  -18.8880   18.9230 C   0  0  0  0  0  2  0  0  0  0  0  0
  -28.0650  -17.1700   18.4530 C   0  0  0  0  0  3  0  0  0  0  0  0
  -27.7400  -17.9270   20.7430 C   0  0  0  0  0  3  0  0  0  0  0  0
  -29.0780  -16.2980   18.8850 C   0  0  0  0  0  3  0  0  0  0  0  0
  -28.7330  -17.0310   21.1820 C   0  0  0  0  0  3  0  0  0  0  0  0
  -27.3890  -17.9940   19.3770 C   0  0  0  0  0  0  0  0  0  0  0  0
  -29.3950  -16.1920   20.2620 C   0  0  0  0  0  0  0  0  0  0  0  0
  -30.9300  -14.2980   20.0470 C   0  0  0  0  0  0  0  0  0  0  0  0
  -30.4640  -12.2180   18.8030 C   0  0  0  0  0  2  0  0  0  0  0  0
  -29.4430  -12.4560   17.6750 C   0  0  0  0  0  2  0  0  0  0  0  0
  -28.0030  -12.3110   18.2060 C   0  0  0  0  0  2  0  0  0  0  0  0
  -27.7580  -13.1230   19.5030 C   0  0  0  0  0  3  0  0  0  0  0  0
  -28.8870  -12.8890   20.5310 C   0  0  0  0  0  2  0  0  0  0  0  0
  -30.1720  -13.1810   19.8720 N   0  0  0  0  0  0  0  0  0  0  0  0
  -32.0210  -14.4700   19.5000 O   0  0  0  0  0  0  0  0  0  0  0  0
  -30.3840  -15.2960   20.7540 N   0  0  0  0  0  0  0  0  0  0  0  0
  -31.0500  -15.7560   21.3580 H   0  0  0  0  0  0  0  0  0  0  0  0
  -25.4200  -13.7530   20.3700 C   0  0  0  0  0  0  0  0  0  0  0  0
  -24.3690  -12.9860   20.7930 C   0  0  0  0  0  0  0  0  0  0  0  0
  -24.8140  -11.6320   20.7180 C   0  0  0  0  0  0  0  0  0  0  0  0
  -26.4390  -12.8620   20.0670 N   0  0  0  0  0  0  0  0  0  0  0  0
  -26.0820  -11.5810   20.3320 N   0  0  0  0  0  0  0  0  0  0  0  0
  -24.0900  -10.3730   20.9350 C   0  0  0  0  0  0  0  0  0  0  0  0
  -24.5350   -9.4210   21.8780 C   0  0  0  0  0  3  0  0  0  0  0  0
  -23.8140   -8.2250   22.0810 C   0  0  0  0  0  3  0  0  0  0  0  0
  -22.6340   -7.9750   21.3410 C   0  0  0  0  0  0  0  0  0  0  0  0
  -22.2090   -8.9160   20.3880 C   0  0  0  0  0  3  0  0  0  0  0  0
  -22.9310  -10.1020   20.1820 C   0  0  0  0  0  3  0  0  0  0  0  0
  -21.8820   -6.8310   21.4540 O   0  0  0  0  0  0  0  0  0  0  0  0
  -21.7970   -6.1390   22.6360 C   0  0  0  0  0  0  0  0  0  0  0  0
  -21.3320   -6.7460   23.8230 C   0  0  0  0  0  3  0  0  0  0  0  0
  -21.1950   -5.9810   24.9970 C   0  0  0  0  0  3  0  0  0  0  0  0
  -21.5130   -4.6100   24.9870 C   0  0  0  0  0  0  0  0  0  0  0  0
  -21.9730   -4.0030   23.8050 C   0  0  0  0  0  3  0  0  0  0  0  0
  -22.1120   -4.7650   22.6320 C   0  0  0  0  0  0  0  0  0  0  0  0
  -22.5340   -4.1710   21.4900 F   0  0  0  0  0  0  0  0  0  0  0  0
  -21.3740   -3.8720   26.1130 F   0  0  0  0  0  0  0  0  0  0  0  0
  -22.9950  -13.4720   21.1570 C   0  0  0  0  0  0  0  0  0  0  0  0
  -22.3250  -12.7850   22.0760 N   0  0  0  0  0  0  0  0  0  0  0  0
  -22.5260  -14.4960   20.6610 O   0  0  0  0  0  0  0  0  0  0  0  0
  -22.7190  -11.9570   22.4980 H   0  0  0  0  0  0  0  0  0  0  0  0
  -21.4070  -13.0930   22.3620 H   0  0  0  0  0  0  0  0  0  0  0  0
  -25.5860  -15.1240   20.2040 N   0  0  0  0  0  0  0  0  0  0  0  0
  -24.8400  -15.7840   20.3920 H   0  0  0  0  0  0  0  0  0  0  0  0
  -26.4440  -15.5740   19.9030 H   0  0  0  0  0  0  0  0  0  0  0  0
  -25.9640  -22.3770   17.3460 C   0  0  0  0  0  2  0  0  0  0  0  0
  -26.5200  -23.6200   18.0550 C   0  0  0  0  0  2  0  0  0  0  0  0
  -28.0510  -23.6120   18.2350 C   0  0  0  0  0  2  0  0  0  0  0  0
  -28.6140  -24.9890   18.6440 C   0  0  0  0  0  2  0  0  0  0  0  0
  -28.4270  -25.3250   20.1340 C   0  0  0  0  0  2  0  0  0  0  0  0
  -28.4690  -26.7380   20.3530 O   0  0  0  0  0  0  0  0  0  0  0  0
  -24.6100  -31.9070   23.3170 C   0  0  0  0  0  0  0  0  0  0  0  0
  -27.2800  -27.4370   20.3140 C   0  0  0  0  0  0  0  0  0  0  0  0
  -23.4180  -30.4900   21.6780 C   0  0  0  0  0  3  0  0  0  0  0  0
  -24.8810  -28.9380   20.2880 C   0  0  0  0  0  0  0  0  0  0  0  0
  -25.9450  -30.8470   21.5000 C   0  0  0  0  0  2  0  0  0  0  0  0
  -26.0340  -29.4690   20.8810 C   0  0  0  0  0  0  0  0  0  0  0  0
  -27.2340  -28.7250   20.8930 C   0  0  0  0  0  3  0  0  0  0  0  0
  -26.1050  -26.9230   19.7160 C   0  0  0  0  0  3  0  0  0  0  0  0
  -24.9110  -27.6630   19.7030 C   0  0  0  0  0  3  0  0  0  0  0  0
  -23.6390  -29.7980   20.3070 C   0  0  0  0  0  2  0  0  0  0  0  0
  -24.6760  -31.0960   22.2240 N   0  0  0  0  0  0  0  0  0  0  0  0
  -23.5250  -32.1870   23.8420 O   0  0  0  0  0  0  0  0  0  0  0  0
  -22.7570  -29.4780   22.6410 C   0  0  0  0  0  0  0  0  0  0  0  0
  -21.4360  -29.2880   22.4920 N   0  0  0  0  0  0  0  0  0  0  0  0
  -23.4280  -28.8670   23.4770 O   0  0  0  0  0  0  0  0  0  0  0  0
  -20.9560  -29.8330   21.7880 H   0  0  0  0  0  0  0  0  0  0  0  0
  -18.0590  -28.0850   22.9340 C   0  0  0  0  0  0  0  0  0  0  0  0
  -20.6080  -28.3600   23.2600 C   0  0  0  0  0  3  0  0  0  0  0  0
  -20.7310  -26.9200   22.7110 C   0  0  0  0  0  2  0  0  0  0  0  0
  -19.6530  -26.5730   21.6780 C   0  0  0  0  0  2  0  0  0  0  0  0
  -18.2570  -26.7240   22.2890 C   0  0  0  0  0  2  0  0  0  0  0  0
  -19.1640  -28.8600   23.3760 C   0  0  0  0  0  0  0  0  0  0  0  0
  -18.9270  -30.1340   23.9370 C   0  0  0  0  0  3  0  0  0  0  0  0
  -17.6170  -30.6330   24.0650 C   0  0  0  0  0  3  0  0  0  0  0  0
  -16.5250  -29.8550   23.6400 C   0  0  0  0  0  3  0  0  0  0  0  0
  -16.7470  -28.5840   23.0800 C   0  0  0  0  0  3  0  0  0  0  0  0
  -25.8910  -32.5410   23.9440 C   0  0  0  0  0  3  0  0  0  0  0  0
  -25.5850  -33.9440   24.2500 N   0  0  0  0  0  0  0  0  0  0  0  0
  -25.9320  -34.9820   23.4770 C   0  0  0  0  0  0  0  0  0  0  0  0
  -26.6160  -34.8590   22.4580 O   0  0  0  0  0  0  0  0  0  0  0  0
  -24.9800  -34.1140   25.0390 H   0  0  0  0  0  0  0  0  0  0  0  0
  -24.2140  -36.7740   23.0690 C   0  0  0  0  0  1  0  0  0  0  0  0
  -25.4420  -36.3790   23.9050 C   0  0  0  0  0  3  0  0  0  0  0  0
  -27.5700  -37.2690   24.7490 C   0  0  0  0  0  1  0  0  0  0  0  0
  -26.4810  -37.4270   23.7900 N   0  0  0  0  0  0  0  0  0  0  0  0
  -26.0760  -38.3500   23.9180 H   0  0  0  0  0  0  0  0  0  0  0  0
  -26.3920  -31.7830   25.2340 C   0  0  1  0  0  0  0  0  0  0  0  0
  -25.2870  -31.5600   26.2930 C   0  0  0  0  0  1  0  0  0  0  0  0
  -26.9750  -30.4000   24.8610 C   0  0  0  0  0  1  0  0  0  0  0  0
  -27.5380  -32.5810   25.8990 C   0  0  0  0  0  1  0  0  0  0  0  0
  1  2  1  0
  1  5  1  0
  2  4  1  0
  3  1  2  0
  5 10  1  0
  6  8  2  0
  6 10  1  0
  7  9  1  0
  8 11  1  0
 10  7  2  0
 11 20  1  0
 11  9  2  0
 12 20  1  0
 13 18  1  0
 14 15  1  0
 14 13  1  0
 16 15  1  0
 16 25  1  0
 16 17  1  0
 18 12  1  0
 18 17  1  0
 19 12  2  0
 20 21  1  0
 22 23  2  0
 23 42  1  0
 24 23  1  0
 24 27  1  0
 25 26  1  0
 25 22  1  0
 26 24  2  0
 27 28  1  0
 28 29  2  0
 30 33  1  0
 30 29  1  0
 31 30  2  0
 32 31  1  0
 32 27  2  0
 33 34  1  0
 34 35  1  0
 35 36  2  0
 37 36  1  0
 37 41  1  0
 38 37  2  0
 39 34  2  0
 39 38  1  0
 40 39  1  0
 42 43  1  0
 43 46  1  0
 43 45  1  0
 44 42  2  0
 47 22  1  0
 47 48  1  0
 49 47  1  0
 50 51  1  0
 50  2  1  0
 51 52  1  0
 52 53  1  0
 53 54  1  0
 54 55  1  0
 56 67  2  0
 57 55  1  0
 57 62  1  0
 58 66  1  0
 58 68  1  0
 59 65  1  0
 59 61  1  0
 60 66  1  0
 61 62  2  0
 61 60  1  0
 63 57  2  0
 64 63  1  0
 64 59  2  0
 65 58  1  0
 66 56  1  0
 68 70  2  0
 69 68  1  0
 71 69  1  0
 72 81  2  0
 72 77  1  0
 73 69  1  0
 73 77  1  0
 74 73  1  0
 75 76  1  0
 75 74  1  0
 76 72  1  0
 77 78  2  0
 78 79  1  0
 80 79  2  0
 81 80  1  0
 82 56  1  0
 82 83  1  0
 82 92  1  0
 83 86  1  0
 84 88  1  0
 84 83  1  0
 85 84  2  0
 88 87  1  0
 90 88  1  0
 90 91  1  0
 90 89  1  0
 92 95  1  1
 92 93  1  0
 94 92  1  0
M  ISO  4  12 100  20 100  54 101  55 101
M  END
>  <TORSDO>  (29) 
F 23

>  <SCORE>  (29) 
-11.591

>  <name>  (29) 
29

>  <ligand_id>  (29) 
29

>  <original_smiles>  (29) 
[H]c1c([H])c([H])c2c(c1[H])C([H])([H])C([H])([H])C([H])([H])C2([H])N([H])C(=O)C1([H])N(C(=O)C([H])(N([H])C(=O)C([H])(N([H])C([H])([H])[H])C([H])([H])[H])C(C([H])([H])[H])(C([H])([H])[H])C([H])([H])[H])C([H])([H])c2c([H])c(OC([H])([H])C([H])([H])C([H])([H])C([H])([H])C([H])([H])N([H])C(=O)C([H])([H])c3c([H])c([H])c(N([H])C(=O)N4C([H])([H])C([H])([H])C([H])([H])C([H])(n5nc(-c6c([H])c([H])c(Oc7c([H])c([H])c(F)c([H])c7F)c([H])c6[H])c(C(=O)N([H])[H])c5N([H])[H])C4([H])[H])c([H])c3[H])c([H])c([H])c2C1([H])[H]

>  <smiles>  (29) 
[H]c1c([H])c([H])c2c(c1[H])C([H])([H])C([H])([H])C([H])([H])C2([H])N([H])C(=O)C1([H])N(C(=O)C([H])(N([H])C(=O)C([H])(N([H])C([H])([H])[H])C([H])([H])[H])C(C([H])([H])[H])(C([H])([H])[H])C([H])([H])[H])C([H])([H])c2c([H])c(OC([H])([H])C([H])([H])C([H])([H])C([H])([H])C([H])([H])N([H])C(=O)C([H])([H])c3c([H])c([H])c(N([H])C(=O)N4C([H])([H])C([H])([H])C([H])([H])C([H])(n5nc(-c6c([H])c([H])c(Oc7c([H])c([H])c(F)c([H])c7F)c([H])c6[H])c(C(=O)N([H])[H])c5N([H])[H])C4([H])[H])c([H])c3[H])c([H])c([H])c2C1([H])[H]

$$$$
30:0:0
     RDKit          3D

 92100  0  0  1  0  0  0  0  0999 V2000
  -30.2960  -19.5310   21.8500 C   0  0  0  0  0  0  0  0  0  0  0  0
  -29.8470  -20.4260   20.6890 C   0  0  0  0  0  0  0  0  0  0  0  0
  -30.4560  -17.9910   21.6990 C   0  0  0  0  0  2  0  0  0  0  0  0
  -29.6250  -19.6720   19.3590 C   0  0  0  0  0  2  0  0  0  0  0  0
  -29.3900  -18.1230   19.4470 C   0  0  0  0  0  2  0  0  0  0  0  0
  -30.4500  -17.3590   20.2820 C   0  0  0  0  0  3  0  0  0  0  0  0
  -30.5270  -20.0590   22.9800 N   0  0  0  0  0  2  0  0  0  0  0  0
  -29.7000  -21.7090   20.9030 N   0  0  0  0  0  2  0  0  0  0  0  0
  -30.3580  -21.0580   22.8760 H   0  0  0  0  0  0  0  0  0  0  0  0
  -30.9690  -14.8120   19.9790 C   0  0  0  0  0  0  0  0  0  0  0  0
  -30.6840  -12.5780   18.9340 C   0  0  0  0  0  2  0  0  0  0  0  0
  -29.6740  -12.7130   17.7730 C   0  0  0  0  0  2  0  0  0  0  0  0
  -28.2260  -12.5690   18.2830 C   0  0  0  0  0  2  0  0  0  0  0  0
  -27.9440  -13.4410   19.5360 C   0  0  0  0  0  3  0  0  0  0  0  0
  -29.0610  -13.2770   20.5930 C   0  0  0  0  0  2  0  0  0  0  0  0
  -30.3390  -13.5990   19.9400 N   0  0  0  0  0  0  0  0  0  0  0  0
  -32.1080  -14.9660   19.5300 O   0  0  0  0  0  0  0  0  0  0  0  0
  -30.1940  -15.8750   20.3470 N   0  0  0  0  0  0  0  0  0  0  0  0
  -29.2750  -15.6080   20.6700 H   0  0  0  0  0  0  0  0  0  0  0  0
  -25.6140  -14.0700   20.4190 C   0  0  0  0  0  0  0  0  0  0  0  0
  -24.5550  -13.3090   20.8310 C   0  0  0  0  0  0  0  0  0  0  0  0
  -24.9820  -11.9510   20.7310 C   0  0  0  0  0  0  0  0  0  0  0  0
  -26.6220  -13.1750   20.0950 N   0  0  0  0  0  0  0  0  0  0  0  0
  -26.2500  -11.8930   20.3420 N   0  0  0  0  0  0  0  0  0  0  0  0
  -24.2400  -10.6980   20.9280 C   0  0  0  0  0  0  0  0  0  0  0  0
  -24.6520   -9.7360   21.8750 C   0  0  0  0  0  3  0  0  0  0  0  0
  -23.9120   -8.5480   22.0580 C   0  0  0  0  0  3  0  0  0  0  0  0
  -22.7430   -8.3150   21.2940 C   0  0  0  0  0  0  0  0  0  0  0  0
  -22.3500   -9.2660   20.3370 C   0  0  0  0  0  3  0  0  0  0  0  0
  -23.0920  -10.4450   20.1520 C   0  0  0  0  0  3  0  0  0  0  0  0
  -21.9760   -7.1800   21.3860 O   0  0  0  0  0  0  0  0  0  0  0  0
  -21.8460   -6.4920   22.5670 C   0  0  0  0  0  0  0  0  0  0  0  0
  -21.2660   -7.0800   23.7110 C   0  0  0  0  0  3  0  0  0  0  0  0
  -21.0880   -6.3160   24.8820 C   0  0  0  0  0  3  0  0  0  0  0  0
  -21.4810   -4.9640   24.9070 C   0  0  0  0  0  0  0  0  0  0  0  0
  -22.0550   -4.3750   23.7660 C   0  0  0  0  0  3  0  0  0  0  0  0
  -22.2340   -5.1370   22.5990 C   0  0  0  0  0  0  0  0  0  0  0  0
  -22.7680   -4.5600   21.4960 F   0  0  0  0  0  0  0  0  0  0  0  0
  -21.3050   -4.2270   26.0280 F   0  0  0  0  0  0  0  0  0  0  0  0
  -23.1880  -13.8080   21.2030 C   0  0  0  0  0  0  0  0  0  0  0  0
  -22.5000  -13.1030   22.0950 N   0  0  0  0  0  0  0  0  0  0  0  0
  -22.7420  -14.8560   20.7390 O   0  0  0  0  0  0  0  0  0  0  0  0
  -22.8760  -12.2550   22.4910 H   0  0  0  0  0  0  0  0  0  0  0  0
  -21.5860  -13.4190   22.3870 H   0  0  0  0  0  0  0  0  0  0  0  0
  -25.7990  -15.4420   20.2700 N   0  0  0  0  0  0  0  0  0  0  0  0
  -25.0500  -16.1050   20.4380 H   0  0  0  0  0  0  0  0  0  0  0  0
  -26.6210  -15.8700   19.8640 H   0  0  0  0  0  0  0  0  0  0  0  0
  -29.2990  -22.7450   19.9110 C   0  0  0  0  0  2  0  0  0  0  0  0
  -29.1150  -24.1950   20.5530 C   0  0  0  0  0  3  0  0  0  0  0  0
  -30.2290  -24.4770   21.2340 F   0  0  0  0  0  0  0  0  0  0  0  0
  -28.8330  -25.4180   19.5810 C   0  0  0  0  0  2  0  0  0  0  0  0
  -28.6640  -26.7610   20.1730 O   0  0  0  0  0  0  0  0  0  0  0  0
  -24.6960  -31.8820   23.2840 C   0  0  0  0  0  0  0  0  0  0  0  0
  -27.4690  -27.4920   20.1370 C   0  0  0  0  0  0  0  0  0  0  0  0
  -23.5390  -30.4760   21.6140 C   0  0  0  0  0  3  0  0  0  0  0  0
  -25.0400  -29.0010   20.1640 C   0  0  0  0  0  0  0  0  0  0  0  0
  -26.0640  -30.8880   21.4390 C   0  0  0  0  0  2  0  0  0  0  0  0
  -26.1880  -29.5260   20.7680 C   0  0  0  0  0  0  0  0  0  0  0  0
  -27.4010  -28.7820   20.7460 C   0  0  0  0  0  3  0  0  0  0  0  0
  -26.2880  -27.0050   19.5290 C   0  0  0  0  0  3  0  0  0  0  0  0
  -25.0900  -27.7460   19.5410 C   0  0  0  0  0  3  0  0  0  0  0  0
  -23.7760  -29.8320   20.2230 C   0  0  0  0  0  2  0  0  0  0  0  0
  -24.7860  -31.0990   22.1700 N   0  0  0  0  0  0  0  0  0  0  0  0
  -23.6040  -32.1120   23.8220 O   0  0  0  0  0  0  0  0  0  0  0  0
  -22.9110  -29.4200   22.5530 C   0  0  0  0  0  0  0  0  0  0  0  0
  -21.6000  -29.1730   22.3920 N   0  0  0  0  0  0  0  0  0  0  0  0
  -23.6020  -28.8260   23.3860 O   0  0  0  0  0  0  0  0  0  0  0  0
  -21.1000  -29.7070   21.6960 H   0  0  0  0  0  0  0  0  0  0  0  0
  -18.2810  -27.7950   22.7920 C   0  0  0  0  0  0  0  0  0  0  0  0
  -20.8130  -28.1900   23.1370 C   0  0  0  0  0  3  0  0  0  0  0  0
  -21.0090  -26.7680   22.5620 C   0  0  0  0  0  2  0  0  0  0  0  0
  -19.9550  -26.3910   21.5150 C   0  0  0  0  0  2  0  0  0  0  0  0
  -18.5500  -26.4600   22.1190 C   0  0  0  0  0  2  0  0  0  0  0  0
  -19.3440  -28.6150   23.2560 C   0  0  0  0  0  0  0  0  0  0  0  0
  -19.0410  -29.8620   23.8430 C   0  0  0  0  0  3  0  0  0  0  0  0
  -17.7070  -30.2930   23.9710 C   0  0  0  0  0  3  0  0  0  0  0  0
  -16.6580  -29.4710   23.5240 C   0  0  0  0  0  3  0  0  0  0  0  0
  -16.9460  -28.2230   22.9410 C   0  0  0  0  0  3  0  0  0  0  0  0
  -25.9590  -32.5410   23.9220 C   0  0  0  0  0  3  0  0  0  0  0  0
  -26.4650  -31.7930   25.2160 C   0  0  1  0  0  0  0  0  0  0  0  0
  -25.3520  -31.5290   26.2570 C   0  0  0  0  0  1  0  0  0  0  0  0
  -27.0970  -30.4310   24.8470 C   0  0  0  0  0  1  0  0  0  0  0  0
  -27.5740  -32.6240   25.9030 C   0  0  0  0  0  1  0  0  0  0  0  0
  -25.6200  -33.9380   24.2320 N   0  0  0  0  0  0  0  0  0  0  0  0
  -25.9360  -34.9860   23.4610 C   0  0  0  0  0  0  0  0  0  0  0  0
  -26.6120  -34.8820   22.4330 O   0  0  0  0  0  0  0  0  0  0  0  0
  -25.0200  -34.0930   25.0280 H   0  0  0  0  0  0  0  0  0  0  0  0
  -24.1740  -36.7400   23.0750 C   0  0  0  0  0  1  0  0  0  0  0  0
  -25.4190  -36.3710   23.8970 C   0  0  0  0  0  3  0  0  0  0  0  0
  -27.5230  -37.3210   24.7350 C   0  0  0  0  0  1  0  0  0  0  0  0
  -26.4310  -37.4430   23.7730 N   0  0  0  0  0  0  0  0  0  0  0  0
  -26.0040  -38.3570   23.8920 H   0  0  0  0  0  0  0  0  0  0  0  0
  1  7  1  0
  2  8  1  0
  2  1  2  0
  3  1  1  0
  4  5  1  0
  4  2  1  0
  5  6  1  0
  6 18  1  0
  6  3  1  0
  9  7  1  0
 10 18  1  0
 11 16  1  0
 12 13  1  0
 12 11  1  0
 14 13  1  0
 14 23  1  0
 14 15  1  0
 16 10  1  0
 16 15  1  0
 17 10  2  0
 18 19  1  0
 20 21  2  0
 21 40  1  0
 22 21  1  0
 22 25  1  0
 23 24  1  0
 23 20  1  0
 24 22  2  0
 25 26  1  0
 26 27  2  0
 28 31  1  0
 28 27  1  0
 29 28  2  0
 30 29  1  0
 30 25  2  0
 31 32  1  0
 32 37  2  0
 32 33  1  0
 33 34  2  0
 34 35  1  0
 35 39  1  0
 36 35  2  0
 37 36  1  0
 38 37  1  0
 40 41  1  0
 41 44  1  0
 41 43  1  0
 42 40  2  0
 45 20  1  0
 45 46  1  0
 47 45  1  0
 48 49  1  0
 48  8  1  0
 49 50  1  0
 51 52  1  0
 51 49  1  0
 53 64  2  0
 54 52  1  0
 54 59  1  0
 55 63  1  0
 55 65  1  0
 56 62  1  0
 56 58  1  0
 57 63  1  0
 58 57  1  0
 59 58  2  0
 60 61  1  0
 60 54  2  0
 61 56  2  0
 62 55  1  0
 63 53  1  0
 65 67  2  0
 66 65  1  0
 68 66  1  0
 69 78  2  0
 69 74  1  0
 70 66  1  0
 70 74  1  0
 71 70  1  0
 72 73  1  0
 72 71  1  0
 73 69  1  0
 74 75  2  0
 75 76  1  0
 77 76  2  0
 78 77  1  0
 79 53  1  0
 79 84  1  0
 79 80  1  0
 80 83  1  1
 80 81  1  0
 82 80  1  0
 84 87  1  0
 85 89  1  0
 85 84  1  0
 86 85  2  0
 89 88  1  0
 91 92  1  0
 91 89  1  0
 91 90  1  0
M  ISO  4  10 100  18 100  51 101  52 101
M  END
>  <TORSDO>  (30) 
F 19

>  <SCORE>  (30) 
-13.674

>  <name>  (30) 
30

>  <ligand_id>  (30) 
30

>  <original_smiles>  (30) 
[H]N=C1C(=NC([H])([H])C([H])(F)C([H])([H])Oc2c([H])c([H])c3c(c2[H])C([H])([H])N(C(=O)C([H])(N([H])C(=O)C([H])(N([H])C([H])([H])[H])C([H])([H])[H])C(C([H])([H])[H])(C([H])([H])[H])C([H])([H])[H])C([H])(C(=O)N([H])C2([H])c4c([H])c([H])c([H])c([H])c4C([H])([H])C([H])([H])C2([H])[H])C3([H])[H])C([H])([H])C([H])([H])C([H])(N([H])C(=O)N2C([H])([H])C([H])([H])C([H])([H])C([H])(n3nc(-c4c([H])c([H])c(Oc5c([H])c([H])c(F)c([H])c5F)c([H])c4[H])c(C(=O)N([H])[H])c3N([H])[H])C2([H])[H])C1([H])[H]

>  <smiles>  (30) 
[H]N=C1C(=NC([H])([H])C([H])(F)C([H])([H])Oc2c([H])c([H])c3c(c2[H])C([H])([H])N(C(=O)C([H])(N([H])C(=O)C([H])(N([H])C([H])([H])[H])C([H])([H])[H])C(C([H])([H])[H])(C([H])([H])[H])C([H])([H])[H])C([H])(C(=O)N([H])C2([H])c4c([H])c([H])c([H])c([H])c4C([H])([H])C([H])([H])C2([H])[H])C3([H])[H])C([H])([H])C([H])([H])C([H])(N([H])C(=O)N2C([H])([H])C([H])([H])C([H])([H])C([H])(n3nc(-c4c([H])c([H])c(Oc5c([H])c([H])c(F)c([H])c5F)c([H])c4[H])c(C(=O)N([H])[H])c3N([H])[H])C2([H])[H])C1([H])[H]

$$$$
31:0:0
     RDKit          3D

 98107  0  0  1  0  0  0  0  0999 V2000
  -33.8680  -23.6780   19.3510 C   0  0  0  0  0  2  0  0  0  0  0  0
  -33.3500  -22.5890   18.4150 C   0  0  0  0  0  2  0  0  0  0  0  0
  -32.9210  -24.8430   19.0670 C   0  0  0  0  0  2  0  0  0  0  0  0
  -31.8250  -22.8140   18.3610 C   0  0  0  0  0  3  0  0  0  0  0  0
  -31.6070  -24.2320   18.7390 N   0  0  2  0  0  4  0  0  0  0  0  0
  -31.0910  -24.1270   19.6070 H   0  0  0  0  0  0  0  0  0  0  0  0
  -31.0570  -21.9800   19.4120 C   0  0  0  0  0  0  0  0  0  0  0  0
  -30.5260  -22.4960   20.4050 O   0  0  0  0  0  0  0  0  0  0  0  0
  -30.9680  -20.4690   19.1830 C   0  0  0  0  0  2  0  0  0  0  0  0
  -30.2910  -19.8220   20.3330 N   0  0  0  0  0  4  0  0  0  0  0  0
  -30.7560  -20.1580   21.1620 H   0  0  0  0  0  0  0  0  0  0  0  0
  -29.3380  -20.1440   20.3850 H   0  0  0  0  0  0  0  0  0  0  0  0
  -30.7160  -14.3530   20.0920 C   0  0  0  0  0  0  0  0  0  0  0  0
  -30.2660  -12.2620   18.9040 C   0  0  0  0  0  2  0  0  0  0  0  0
  -29.2620  -12.5590   17.7730 C   0  0  0  0  0  2  0  0  0  0  0  0
  -27.8150  -12.4420   18.2930 C   0  0  0  0  0  2  0  0  0  0  0  0
  -27.5760  -13.2240   19.6130 C   0  0  0  0  0  3  0  0  0  0  0  0
  -28.6990  -12.9510   20.6400 C   0  0  0  0  0  2  0  0  0  0  0  0
  -29.9890  -13.2150   19.9840 N   0  0  0  0  0  0  0  0  0  0  0  0
  -31.8720  -14.4660   19.6730 O   0  0  0  0  0  0  0  0  0  0  0  0
  -29.4250  -17.7430   19.2480 C   0  0  0  0  0  2  0  0  0  0  0  0
  -29.9670  -17.6890   21.6280 C   0  0  0  0  0  2  0  0  0  0  0  0
  -29.7200  -16.2530   19.0670 C   0  0  0  0  0  2  0  0  0  0  0  0
  -30.1890  -16.1580   21.6040 C   0  0  0  0  0  2  0  0  0  0  0  0
  -30.3590  -18.3440   20.2990 C   0  0  0  0  0  3  0  0  0  0  0  0
  -29.9880  -15.4730   20.3050 N   0  0  0  0  0  0  0  0  0  0  0  0
  -25.2340  -13.8450   20.4740 C   0  0  0  0  0  0  0  0  0  0  0  0
  -24.1790  -13.0770   20.8850 C   0  0  0  0  0  0  0  0  0  0  0  0
  -24.6230  -11.7210   20.8020 C   0  0  0  0  0  0  0  0  0  0  0  0
  -26.2530  -12.9570   20.1670 N   0  0  0  0  0  0  0  0  0  0  0  0
  -25.8920  -11.6740   20.4210 N   0  0  0  0  0  0  0  0  0  0  0  0
  -23.8960  -10.4620   21.0060 C   0  0  0  0  0  0  0  0  0  0  0  0
  -24.3640   -9.4790   21.9050 C   0  0  0  0  0  3  0  0  0  0  0  0
  -23.6390   -8.2830   22.0980 C   0  0  0  0  0  3  0  0  0  0  0  0
  -22.4320   -8.0640   21.3920 C   0  0  0  0  0  0  0  0  0  0  0  0
  -21.9840   -9.0350   20.4810 C   0  0  0  0  0  3  0  0  0  0  0  0
  -22.7100  -10.2220   20.2860 C   0  0  0  0  0  3  0  0  0  0  0  0
  -21.6750   -6.9220   21.4970 O   0  0  0  0  0  0  0  0  0  0  0  0
  -21.6620   -6.1710   22.6450 C   0  0  0  0  0  0  0  0  0  0  0  0
  -21.2840   -6.7200   23.8900 C   0  0  0  0  0  3  0  0  0  0  0  0
  -21.2170   -5.8950   25.0300 C   0  0  0  0  0  3  0  0  0  0  0  0
  -21.5160   -4.5220   24.9270 C   0  0  0  0  0  0  0  0  0  0  0  0
  -21.8870   -3.9740   23.6860 C   0  0  0  0  0  3  0  0  0  0  0  0
  -21.9560   -4.7960   22.5480 C   0  0  0  0  0  0  0  0  0  0  0  0
  -22.2950   -4.2580   21.3520 F   0  0  0  0  0  0  0  0  0  0  0  0
  -21.4440   -3.7290   26.0210 F   0  0  0  0  0  0  0  0  0  0  0  0
  -22.8050  -13.5610   21.2450 C   0  0  0  0  0  0  0  0  0  0  0  0
  -22.1200  -12.8550   22.1380 N   0  0  0  0  0  0  0  0  0  0  0  0
  -22.3480  -14.6000   20.7700 O   0  0  0  0  0  0  0  0  0  0  0  0
  -22.5040  -12.0150   22.5460 H   0  0  0  0  0  0  0  0  0  0  0  0
  -21.1990  -13.1600   22.4210 H   0  0  0  0  0  0  0  0  0  0  0  0
  -25.4060  -15.2180   20.3160 N   0  0  0  0  0  0  0  0  0  0  0  0
  -24.6580  -15.8820   20.4860 H   0  0  0  0  0  0  0  0  0  0  0  0
  -26.2570  -15.6520   19.9820 H   0  0  0  0  0  0  0  0  0  0  0  0
  -30.7720  -25.0180   17.7930 C   0  0  0  0  0  2  0  0  0  0  0  0
  -30.0730  -26.1990   18.4930 C   0  0  0  0  0  2  0  0  0  0  0  0
  -28.7570  -25.8010   19.1800 C   0  0  0  0  0  2  0  0  0  0  0  0
  -28.4680  -26.7900   20.1630 O   0  0  0  0  0  0  0  0  0  0  0  0
  -24.6270  -31.8610   23.2690 C   0  0  0  0  0  0  0  0  0  0  0  0
  -27.2580  -27.4420   20.1590 C   0  0  0  0  0  0  0  0  0  0  0  0
  -23.4090  -30.4630   21.6290 C   0  0  0  0  0  3  0  0  0  0  0  0
  -24.8510  -28.9220   20.2030 C   0  0  0  0  0  0  0  0  0  0  0  0
  -25.9310  -30.8210   21.4210 C   0  0  0  0  0  2  0  0  0  0  0  0
  -26.0090  -29.4510   20.7850 C   0  0  0  0  0  0  0  0  0  0  0  0
  -27.2090  -28.7120   20.7700 C   0  0  0  0  0  3  0  0  0  0  0  0
  -26.0730  -26.9050   19.6020 C   0  0  0  0  0  3  0  0  0  0  0  0
  -24.8750  -27.6440   19.6170 C   0  0  0  0  0  3  0  0  0  0  0  0
  -23.6090  -29.7810   20.2500 C   0  0  0  0  0  2  0  0  0  0  0  0
  -24.6750  -31.0630   22.1650 N   0  0  0  0  0  0  0  0  0  0  0  0
  -23.5490  -32.1360   23.8130 O   0  0  0  0  0  0  0  0  0  0  0  0
  -22.7600  -29.4440   22.5920 C   0  0  0  0  0  0  0  0  0  0  0  0
  -21.4360  -29.2640   22.4640 N   0  0  0  0  0  0  0  0  0  0  0  0
  -23.4440  -28.8180   23.4050 O   0  0  0  0  0  0  0  0  0  0  0  0
  -20.9470  -29.8220   21.7780 H   0  0  0  0  0  0  0  0  0  0  0  0
  -18.0590  -28.0810   22.9550 C   0  0  0  0  0  0  0  0  0  0  0  0
  -20.6160  -28.3300   23.2340 C   0  0  0  0  0  3  0  0  0  0  0  0
  -20.7150  -26.8980   22.6590 C   0  0  0  0  0  2  0  0  0  0  0  0
  -19.6150  -26.5790   21.6430 C   0  0  0  0  0  2  0  0  0  0  0  0
  -18.2320  -26.7300   22.2830 C   0  0  0  0  0  2  0  0  0  0  0  0
  -19.1790  -28.8400   23.3870 C   0  0  0  0  0  0  0  0  0  0  0  0
  -18.9640  -30.1050   23.9740 C   0  0  0  0  0  3  0  0  0  0  0  0
  -17.6620  -30.6130   24.1350 C   0  0  0  0  0  3  0  0  0  0  0  0
  -16.5560  -29.8520   23.7200 C   0  0  0  0  0  3  0  0  0  0  0  0
  -16.7540  -28.5870   23.1370 C   0  0  0  0  0  3  0  0  0  0  0  0
  -25.9190  -32.4840   23.8840 C   0  0  0  0  0  3  0  0  0  0  0  0
  -25.6230  -33.8870   24.2050 N   0  0  0  0  0  0  0  0  0  0  0  0
  -25.9680  -34.9300   23.4400 C   0  0  0  0  0  0  0  0  0  0  0  0
  -26.6430  -34.8150   22.4130 O   0  0  0  0  0  0  0  0  0  0  0  0
  -25.0260  -34.0520   25.0020 H   0  0  0  0  0  0  0  0  0  0  0  0
  -24.2600  -36.7360   23.0590 C   0  0  0  0  0  1  0  0  0  0  0  0
  -25.4890  -36.3260   23.8850 C   0  0  0  0  0  3  0  0  0  0  0  0
  -27.6260  -37.1930   24.7280 C   0  0  0  0  0  1  0  0  0  0  0  0
  -26.5320  -37.3680   23.7770 N   0  0  0  0  0  0  0  0  0  0  0  0
  -26.1340  -38.2930   23.9180 H   0  0  0  0  0  0  0  0  0  0  0  0
  -26.4340  -31.7150   25.1630 C   0  0  1  0  0  0  0  0  0  0  0  0
  -25.3420  -31.4920   26.2340 C   0  0  0  0  0  1  0  0  0  0  0  0
  -27.0050  -30.3320   24.7730 C   0  0  0  0  0  1  0  0  0  0  0  0
  -27.5940  -32.5030   25.8180 C   0  0  0  0  0  1  0  0  0  0  0  0
  2  1  1  0
  3  1  1  0
  4  2  1  0
  4  5  1  0
  4  7  1  0
  5  3  1  0
  5  6  1  1
  7  8  2  0
  9  7  1  0
  9 10  1  0
 10 12  1  0
 10 11  1  0
 13 26  1  0
 14 19  1  0
 15 16  1  0
 15 14  1  0
 17 16  1  0
 17 30  1  0
 17 18  1  0
 19 13  1  0
 19 18  1  0
 20 13  2  0
 21 25  1  0
 23 21  1  0
 23 26  1  0
 24 22  1  0
 25 10  1  0
 25 22  1  0
 26 24  1  0
 27 28  2  0
 28 47  1  0
 29 28  1  0
 29 32  1  0
 30 31  1  0
 30 27  1  0
 31 29  2  0
 32 33  1  0
 33 34  2  0
 35 38  1  0
 35 34  1  0
 36 35  2  0
 37 36  1  0
 37 32  2  0
 38 39  1  0
 39 40  1  0
 40 41  2  0
 42 41  1  0
 42 46  1  0
 43 42  2  0
 44 39  2  0
 44 43  1  0
 45 44  1  0
 47 48  1  0
 48 51  1  0
 48 50  1  0
 49 47  2  0
 52 27  1  0
 52 53  1  0
 54 52  1  0
 55 56  1  0
 55  5  1  0
 56 57  1  0
 57 58  1  0
 59 70  2  0
 60 58  1  0
 60 65  1  0
 61 69  1  0
 61 71  1  0
 62 68  1  0
 62 64  1  0
 63 69  1  0
 64 63  1  0
 65 64  2  0
 66 67  1  0
 66 60  2  0
 67 62  2  0
 68 61  1  0
 69 59  1  0
 71 73  2  0
 72 71  1  0
 74 72  1  0
 75 84  2  0
 75 80  1  0
 76 72  1  0
 76 80  1  0
 77 76  1  0
 78 79  1  0
 78 77  1  0
 79 75  1  0
 80 81  2  0
 81 82  1  0
 83 82  2  0
 84 83  1  0
 85 59  1  0
 85 86  1  0
 85 95  1  0
 86 89  1  0
 87 91  1  0
 87 86  1  0
 88 87  2  0
 91 90  1  0
 93 91  1  0
 93 94  1  0
 93 92  1  0
 95 98  1  1
 95 96  1  0
 97 95  1  0
M  ISO  4  13 100  26 100  57 101  58 101
M  END
>  <TORSDO>  (31) 
F 22

>  <SCORE>  (31) 
-12.888

>  <name>  (31) 
31

>  <ligand_id>  (31) 
31

>  <original_smiles>  (31) 
[H]c1c([H])c([H])c2c(c1[H])C([H])([H])C([H])([H])C([H])([H])C2([H])N([H])C(=O)C1([H])N(C(=O)C([H])(N([H])C(=O)C([H])(N([H])C([H])([H])[H])C([H])([H])[H])C(C([H])([H])[H])(C([H])([H])[H])C([H])([H])[H])C([H])([H])c2c([H])c(OC([H])([H])C([H])([H])C([H])([H])[N+]3([H])C([H])([H])C([H])([H])C([H])([H])C3([H])C(=O)C([H])([H])[N+]([H])([H])C3([H])C([H])([H])C([H])([H])N(C(=O)N4C([H])([H])C([H])([H])C([H])([H])C([H])(n5nc(-c6c([H])c([H])c(Oc7c([H])c([H])c(F)c([H])c7F)c([H])c6[H])c(C(=O)N([H])[H])c5N([H])[H])C4([H])[H])C([H])([H])C3([H])[H])c([H])c([H])c2C1([H])[H]

>  <smiles>  (31) 
[H]c1c([H])c([H])c2c(c1[H])C([H])([H])C([H])([H])C([H])([H])C2([H])N([H])C(=O)C1([H])N(C(=O)C([H])(N([H])C(=O)C([H])(N([H])C([H])([H])[H])C([H])([H])[H])C(C([H])([H])[H])(C([H])([H])[H])C([H])([H])[H])C([H])([H])c2c([H])c(OC([H])([H])C([H])([H])C([H])([H])[N+]3([H])C([H])([H])C([H])([H])C([H])([H])C3([H])C(=O)C([H])([H])[N+]([H])([H])C3([H])C([H])([H])C([H])([H])N(C(=O)N4C([H])([H])C([H])([H])C([H])([H])C([H])(n5nc(-c6c([H])c([H])c(Oc7c([H])c([H])c(F)c([H])c7F)c([H])c6[H])c(C(=O)N([H])[H])c5N([H])[H])C4([H])[H])C([H])([H])C3([H])[H])c([H])c([H])c2C1([H])[H]

$$$$
32:0:0
     RDKit          3D

 95103  0  0  1  0  0  0  0  0999 V2000
  -27.3030  -21.6770   21.2950 C   0  0  0  0  0  2  0  0  0  0  0  0
  -28.4580  -22.5190   21.7140 N   0  0  0  0  0  4  0  0  0  0  0  0
  -29.2440  -22.3380   21.1100 H   0  0  0  0  0  0  0  0  0  0  0  0
  -28.7270  -22.2250   22.6400 H   0  0  0  0  0  0  0  0  0  0  0  0
  -28.2210  -23.9840   21.7630 C   0  0  0  0  0  2  0  0  0  0  0  0
  -28.6660  -24.7450   20.4860 C   0  0  0  0  0  2  0  0  0  0  0  0
  -28.9790  -26.2380   20.7530 C   0  0  0  0  0  2  0  0  0  0  0  0
  -28.7360  -27.0490   19.5980 O   0  0  0  0  0  0  0  0  0  0  0  0
  -24.5460  -31.5740   23.1460 C   0  0  0  0  0  0  0  0  0  0  0  0
  -27.5270  -27.6960   19.6620 C   0  0  0  0  0  0  0  0  0  0  0  0
  -23.4480  -30.2480   21.3620 C   0  0  0  0  0  3  0  0  0  0  0  0
  -25.0220  -28.9720   19.8100 C   0  0  0  0  0  0  0  0  0  0  0  0
  -25.9410  -30.8220   21.2330 C   0  0  0  0  0  2  0  0  0  0  0  0
  -26.1310  -29.5350   20.4550 C   0  0  0  0  0  0  0  0  0  0  0  0
  -27.3890  -28.9020   20.3810 C   0  0  0  0  0  3  0  0  0  0  0  0
  -26.4080  -27.1390   19.0130 C   0  0  0  0  0  3  0  0  0  0  0  0
  -25.1520  -27.7710   19.0930 C   0  0  0  0  0  3  0  0  0  0  0  0
  -23.7150  -29.7180   19.9310 C   0  0  0  0  0  2  0  0  0  0  0  0
  -24.6590  -30.8910   21.9700 N   0  0  0  0  0  0  0  0  0  0  0  0
  -23.4480  -31.7130   23.7010 O   0  0  0  0  0  0  0  0  0  0  0  0
  -22.8750  -29.0950   22.2140 C   0  0  0  0  0  0  0  0  0  0  0  0
  -21.5740  -28.8140   22.0480 N   0  0  0  0  0  0  0  0  0  0  0  0
  -23.6010  -28.4560   22.9780 O   0  0  0  0  0  0  0  0  0  0  0  0
  -21.0550  -29.3670   21.3820 H   0  0  0  0  0  0  0  0  0  0  0  0
  -18.3050  -27.3290   22.3820 C   0  0  0  0  0  0  0  0  0  0  0  0
  -20.8320  -27.7460   22.7210 C   0  0  0  0  0  3  0  0  0  0  0  0
  -21.0510  -26.3980   22.0020 C   0  0  0  0  0  2  0  0  0  0  0  0
  -19.9840  -26.1040   20.9390 C   0  0  0  0  0  2  0  0  0  0  0  0
  -18.5900  -26.0730   21.5750 C   0  0  0  0  0  2  0  0  0  0  0  0
  -19.3570  -28.1260   22.9030 C   0  0  0  0  0  0  0  0  0  0  0  0
  -19.0380  -29.3080   23.6100 C   0  0  0  0  0  3  0  0  0  0  0  0
  -17.6980  -29.6900   23.8030 C   0  0  0  0  0  3  0  0  0  0  0  0
  -16.6590  -28.8820   23.3050 C   0  0  0  0  0  3  0  0  0  0  0  0
  -16.9650  -27.7050   22.6030 C   0  0  0  0  0  3  0  0  0  0  0  0
  -25.7850  -32.2310   23.8320 C   0  0  0  0  0  3  0  0  0  0  0  0
  -25.4070  -33.6020   24.1990 N   0  0  0  0  0  0  0  0  0  0  0  0
  -25.7260  -34.6930   23.4930 C   0  0  0  0  0  0  0  0  0  0  0  0
  -26.4420  -34.6540   22.4880 O   0  0  0  0  0  0  0  0  0  0  0  0
  -24.7740  -33.7040   24.9780 H   0  0  0  0  0  0  0  0  0  0  0  0
  -23.9450  -36.4280   23.1200 C   0  0  0  0  0  1  0  0  0  0  0  0
  -25.1610  -36.0430   23.9780 C   0  0  0  0  0  3  0  0  0  0  0  0
  -27.2100  -36.9790   24.9510 C   0  0  0  0  0  1  0  0  0  0  0  0
  -26.1540  -37.1380   23.9550 N   0  0  0  0  0  0  0  0  0  0  0  0
  -25.7030  -38.0350   24.1110 H   0  0  0  0  0  0  0  0  0  0  0  0
  -26.2970  -31.4320   25.0920 C   0  0  1  0  0  0  0  0  0  0  0  0
  -25.1860  -31.1060   26.1160 C   0  0  0  0  0  1  0  0  0  0  0  0
  -26.9540  -30.0980   24.6680 C   0  0  0  0  0  1  0  0  0  0  0  0
  -27.3870  -32.2520   25.8190 C   0  0  0  0  0  1  0  0  0  0  0  0
  -27.6640  -20.1750   21.1830 C   0  0  0  0  0  2  0  0  0  0  0  0
  -30.2550  -20.4330   18.3560 C   0  0  0  0  0  3  0  0  0  0  0  0
  -29.1970  -20.7400   19.2190 C   0  0  0  0  0  3  0  0  0  0  0  0
  -30.9140  -19.2030   18.4750 C   0  0  0  0  0  3  0  0  0  0  0  0
  -29.4720  -18.5740   20.3370 C   0  0  0  0  0  3  0  0  0  0  0  0
  -28.8130  -19.8310   20.2330 C   0  0  0  0  0  0  0  0  0  0  0  0
  -30.5090  -18.2400   19.4300 C   0  0  0  0  0  0  0  0  0  0  0  0
  -31.2270  -16.3050   17.9660 C   0  0  0  0  0  1  0  0  0  0  0  0
  -31.2310  -16.8840   19.4020 C   0  0  0  0  0  3  0  0  0  0  0  0
  -31.4630  -14.7110   20.5300 C   0  0  0  0  0  0  0  0  0  0  0  0
  -31.1140  -12.5040   19.5530 C   0  0  0  0  0  2  0  0  0  0  0  0
  -30.2540  -12.6860   18.2880 C   0  0  0  0  0  2  0  0  0  0  0  0
  -28.7550  -12.6280   18.6380 C   0  0  0  0  0  2  0  0  0  0  0  0
  -28.3760  -13.5400   19.8400 C   0  0  0  0  0  3  0  0  0  0  0  0
  -29.3730  -13.3850   21.0150 C   0  0  0  0  0  2  0  0  0  0  0  0
  -30.7340  -13.5680   20.4930 N   0  0  0  0  0  0  0  0  0  0  0  0
  -32.6800  -14.7340   20.3530 O   0  0  0  0  0  0  0  0  0  0  0  0
  -30.7470  -15.8310   20.3210 N   0  0  0  0  0  0  0  0  0  0  0  0
  -29.7560  -15.7770   20.4770 H   0  0  0  0  0  0  0  0  0  0  0  0
  -25.9700  -14.2350   20.4320 C   0  0  0  0  0  0  0  0  0  0  0  0
  -24.8660  -13.5000   20.7630 C   0  0  0  0  0  0  0  0  0  0  0  0
  -25.2830  -12.1350   20.7750 C   0  0  0  0  0  0  0  0  0  0  0  0
  -26.9970  -13.3170   20.2700 N   0  0  0  0  0  0  0  0  0  0  0  0
  -26.5850  -12.0510   20.5350 N   0  0  0  0  0  0  0  0  0  0  0  0
  -24.5060  -10.9020   20.9490 C   0  0  0  0  0  0  0  0  0  0  0  0
  -24.8560   -9.9410   21.9220 C   0  0  0  0  0  3  0  0  0  0  0  0
  -24.0830   -8.7730   22.0850 C   0  0  0  0  0  3  0  0  0  0  0  0
  -22.9440   -8.5550   21.2750 C   0  0  0  0  0  0  0  0  0  0  0  0
  -22.6130   -9.5060   20.2920 C   0  0  0  0  0  3  0  0  0  0  0  0
  -23.3870  -10.6660   20.1280 C   0  0  0  0  0  3  0  0  0  0  0  0
  -22.1490   -7.4370   21.3460 O   0  0  0  0  0  0  0  0  0  0  0  0
  -21.9240   -6.7870   22.5320 C   0  0  0  0  0  0  0  0  0  0  0  0
  -21.3350   -7.4350   23.6390 C   0  0  0  0  0  3  0  0  0  0  0  0
  -21.0560   -6.7110   24.8160 C   0  0  0  0  0  3  0  0  0  0  0  0
  -21.3540   -5.3360   24.8840 C   0  0  0  0  0  0  0  0  0  0  0  0
  -21.9330   -4.6860   23.7800 C   0  0  0  0  0  3  0  0  0  0  0  0
  -22.2130   -5.4090   22.6060 C   0  0  0  0  0  0  0  0  0  0  0  0
  -22.7520   -4.7710   21.5380 F   0  0  0  0  0  0  0  0  0  0  0  0
  -21.0790   -4.6360   26.0090 F   0  0  0  0  0  0  0  0  0  0  0  0
  -23.4710  -14.0250   20.9540 C   0  0  0  0  0  0  0  0  0  0  0  0
  -22.6870  -13.3900   21.8160 N   0  0  0  0  0  0  0  0  0  0  0  0
  -23.0870  -15.0400   20.3720 O   0  0  0  0  0  0  0  0  0  0  0  0
  -23.0020  -12.5730   22.3150 H   0  0  0  0  0  0  0  0  0  0  0  0
  -21.7450  -13.7250   21.9720 H   0  0  0  0  0  0  0  0  0  0  0  0
  -26.1700  -15.5990   20.2390 N   0  0  0  0  0  0  0  0  0  0  0  0
  -25.3880  -16.2410   20.3150 H   0  0  0  0  0  0  0  0  0  0  0  0
  -27.0190  -16.0510   19.9270 H   0  0  0  0  0  0  0  0  0  0  0  0
  1  2  1  0
  2  5  1  0
  2  4  1  0
  3  2  1  0
  6  7  1  0
  6  5  1  0
  8 10  1  0
  8  7  1  0
  9 20  2  0
 10 15  1  0
 11 19  1  0
 11 21  1  0
 12 18  1  0
 12 14  1  0
 13 19  1  0
 14 13  1  0
 15 14  2  0
 16 17  1  0
 16 10  2  0
 17 12  2  0
 18 11  1  0
 19  9  1  0
 21 23  2  0
 22 21  1  0
 24 22  1  0
 25 34  2  0
 25 30  1  0
 26 22  1  0
 26 30  1  0
 27 26  1  0
 28 29  1  0
 28 27  1  0
 29 25  1  0
 30 31  2  0
 31 32  1  0
 33 32  2  0
 34 33  1  0
 35  9  1  0
 35 36  1  0
 35 45  1  0
 36 39  1  0
 37 41  1  0
 37 36  1  0
 38 37  2  0
 41 40  1  0
 43 41  1  0
 43 44  1  0
 43 42  1  0
 45 48  1  1
 45 46  1  0
 47 45  1  0
 49  1  1  0
 50 52  2  0
 50 51  1  0
 51 54  2  0
 52 55  1  0
 54 53  1  0
 54 49  1  0
 55 53  2  0
 57 56  1  0
 57 55  1  0
 57 66  1  0
 59 64  1  0
 60 61  1  0
 60 59  1  0
 62 61  1  0
 62 71  1  0
 62 63  1  0
 64 58  1  0
 64 63  1  0
 65 58  2  0
 66 67  1  0
 66 58  1  0
 68 69  2  0
 69 70  1  0
 69 88  1  0
 70 73  1  0
 71 68  1  0
 71 72  1  0
 72 70  2  0
 73 74  1  0
 74 75  2  0
 76 79  1  0
 76 75  1  0
 77 76  2  0
 78 77  1  0
 78 73  2  0
 79 80  1  0
 80 85  2  0
 80 81  1  0
 81 82  2  0
 82 83  1  0
 83 87  1  0
 84 83  2  0
 85 84  1  0
 86 85  1  0
 88 89  1  0
 89 92  1  0
 89 91  1  0
 90 88  2  0
 93 94  1  0
 93 68  1  0
 95 93  1  0
M  ISO  4   7 101   8 101  58 100  66 100
M  END
>  <TORSDO>  (32) 
F 23

>  <SCORE>  (32) 
-9.976

>  <name>  (32) 
32

>  <ligand_id>  (32) 
32

>  <original_smiles>  (32) 
[H]c1c([H])c([H])c2c(c1[H])C([H])([H])C([H])([H])C([H])([H])C2([H])N([H])C(=O)C1([H])N(C(=O)C([H])(N([H])C(=O)C([H])(N([H])C([H])([H])[H])C([H])([H])[H])C(C([H])([H])[H])(C([H])([H])[H])C([H])([H])[H])C([H])([H])c2c([H])c(OC([H])([H])C([H])([H])C([H])([H])[N+]([H])([H])C([H])([H])C([H])([H])c3c([H])c([H])c([H])c(C([H])(N([H])C(=O)N4C([H])([H])C([H])([H])C([H])([H])C([H])(n5nc(-c6c([H])c([H])c(Oc7c([H])c([H])c(F)c([H])c7F)c([H])c6[H])c(C(=O)N([H])[H])c5N([H])[H])C4([H])[H])C([H])([H])[H])c3[H])c([H])c([H])c2C1([H])[H]

>  <smiles>  (32) 
[H]c1c([H])c([H])c2c(c1[H])C([H])([H])C([H])([H])C([H])([H])C2([H])N([H])C(=O)C1([H])N(C(=O)C([H])(N([H])C(=O)C([H])(N([H])C([H])([H])[H])C([H])([H])[H])C(C([H])([H])[H])(C([H])([H])[H])C([H])([H])[H])C([H])([H])c2c([H])c(OC([H])([H])C([H])([H])C([H])([H])[N+]([H])([H])C([H])([H])C([H])([H])c3c([H])c([H])c([H])c(C([H])(N([H])C(=O)N4C([H])([H])C([H])([H])C([H])([H])C([H])(n5nc(-c6c([H])c([H])c(Oc7c([H])c([H])c(F)c([H])c7F)c([H])c6[H])c(C(=O)N([H])[H])c5N([H])[H])C4([H])[H])C([H])([H])[H])c3[H])c([H])c([H])c2C1([H])[H]

$$$$
33:0:0
     RDKit          3D

 94102  0  0  1  0  0  0  0  0999 V2000
  -28.7230  -22.3120   21.6010 C   0  0  0  0  0  2  0  0  0  0  0  0
  -29.8390  -20.8080   23.2310 C   0  0  0  0  0  1  0  0  0  0  0  0
  -31.2410  -21.8620   21.4350 C   0  0  0  0  0  1  0  0  0  0  0  0
  -29.8600  -21.2350   21.7430 C   0  0  2  0  0  0  0  0  0  0  0  0
  -29.5960  -19.9780   20.8570 C   0  0  0  0  0  0  0  0  0  0  0  0
  -28.5810  -19.9340   20.1550 O   0  0  0  0  0  0  0  0  0  0  0  0
  -31.0520  -14.6530   20.2280 C   0  0  0  0  0  0  0  0  0  0  0  0
  -30.7070  -12.4700   19.1470 C   0  0  0  0  0  2  0  0  0  0  0  0
  -29.7450  -12.6700   17.9590 C   0  0  0  0  0  2  0  0  0  0  0  0
  -28.2800  -12.5620   18.4250 C   0  0  0  0  0  2  0  0  0  0  0  0
  -27.9790  -13.4120   19.6890 C   0  0  0  0  0  3  0  0  0  0  0  0
  -29.0610  -13.2050   20.7720 C   0  0  0  0  0  2  0  0  0  0  0  0
  -30.3670  -13.4820   20.1560 N   0  0  0  0  0  0  0  0  0  0  0  0
  -32.1860  -14.7980   19.7560 O   0  0  0  0  0  0  0  0  0  0  0  0
  -30.4570  -17.8580   22.0900 C   0  0  0  0  0  2  0  0  0  0  0  0
  -30.5380  -17.9460   19.5480 C   0  0  0  0  0  2  0  0  0  0  0  0
  -30.8980  -16.3880   21.8930 C   0  0  0  0  0  2  0  0  0  0  0  0
  -29.7360  -16.6370   19.7130 C   0  0  0  0  0  2  0  0  0  0  0  0
  -30.6010  -18.7850   20.8520 C   0  0  0  0  0  3  0  0  0  0  0  0
  -30.3630  -15.7250   20.6920 N   0  0  0  0  0  0  0  0  0  0  0  0
  -25.6230  -14.0510   20.4980 C   0  0  0  0  0  0  0  0  0  0  0  0
  -24.5470  -13.2930   20.8760 C   0  0  0  0  0  0  0  0  0  0  0  0
  -24.9730  -11.9320   20.7890 C   0  0  0  0  0  0  0  0  0  0  0  0
  -26.6380  -13.1530   20.2070 N   0  0  0  0  0  0  0  0  0  0  0  0
  -26.2530  -11.8720   20.4370 N   0  0  0  0  0  0  0  0  0  0  0  0
  -24.2240  -10.6830   20.9670 C   0  0  0  0  0  0  0  0  0  0  0  0
  -24.6100   -9.7230   21.9260 C   0  0  0  0  0  3  0  0  0  0  0  0
  -23.8660   -8.5360   22.0910 C   0  0  0  0  0  3  0  0  0  0  0  0
  -22.7200   -8.3010   21.2940 C   0  0  0  0  0  0  0  0  0  0  0  0
  -22.3520   -9.2510   20.3230 C   0  0  0  0  0  3  0  0  0  0  0  0
  -23.0970  -10.4300   20.1580 C   0  0  0  0  0  3  0  0  0  0  0  0
  -21.9530   -7.1640   21.3640 O   0  0  0  0  0  0  0  0  0  0  0  0
  -21.7690   -6.4880   22.5430 C   0  0  0  0  0  0  0  0  0  0  0  0
  -21.2030   -7.1100   23.6780 C   0  0  0  0  0  3  0  0  0  0  0  0
  -20.9690   -6.3600   24.8470 C   0  0  0  0  0  3  0  0  0  0  0  0
  -21.2920   -4.9910   24.8850 C   0  0  0  0  0  0  0  0  0  0  0  0
  -21.8520   -4.3690   23.7550 C   0  0  0  0  0  3  0  0  0  0  0  0
  -22.0870   -5.1160   22.5870 C   0  0  0  0  0  0  0  0  0  0  0  0
  -22.6070   -4.5060   21.4950 F   0  0  0  0  0  0  0  0  0  0  0  0
  -21.0590   -4.2700   26.0060 F   0  0  0  0  0  0  0  0  0  0  0  0
  -23.1710  -13.7960   21.2040 C   0  0  0  0  0  0  0  0  0  0  0  0
  -22.4570  -13.0990   22.0810 N   0  0  0  0  0  0  0  0  0  0  0  0
  -22.7370  -14.8400   20.7190 O   0  0  0  0  0  0  0  0  0  0  0  0
  -22.8210  -12.2570   22.5030 H   0  0  0  0  0  0  0  0  0  0  0  0
  -21.5300  -13.4140   22.3370 H   0  0  0  0  0  0  0  0  0  0  0  0
  -25.8140  -15.4240   20.3590 N   0  0  0  0  0  0  0  0  0  0  0  0
  -25.0630  -16.0890   20.5150 H   0  0  0  0  0  0  0  0  0  0  0  0
  -26.6700  -15.8550   20.0360 H   0  0  0  0  0  0  0  0  0  0  0  0
  -28.7700  -23.1940   20.4000 N   0  0  0  0  0  4  0  0  0  0  0  0
  -29.7320  -23.4530   20.2410 H   0  0  0  0  0  0  0  0  0  0  0  0
  -28.4560  -22.6650   19.6000 H   0  0  0  0  0  0  0  0  0  0  0  0
  -27.9560  -24.4420   20.5430 C   0  0  0  0  0  2  0  0  0  0  0  0
  -28.2410  -25.5130   19.4520 C   0  0  0  0  0  2  0  0  0  0  0  0
  -28.1750  -26.8690   19.9420 O   0  0  0  0  0  0  0  0  0  0  0  0
  -24.5000  -31.9760   23.2670 C   0  0  0  0  0  0  0  0  0  0  0  0
  -26.9830  -27.5670   19.9890 C   0  0  0  0  0  0  0  0  0  0  0  0
  -23.2210  -30.6240   21.6390 C   0  0  0  0  0  3  0  0  0  0  0  0
  -24.6040  -29.0990   20.1290 C   0  0  0  0  0  0  0  0  0  0  0  0
  -25.7420  -30.9570   21.3560 C   0  0  0  0  0  2  0  0  0  0  0  0
  -25.7870  -29.5980   20.6860 C   0  0  0  0  0  0  0  0  0  0  0  0
  -26.9750  -28.8380   20.6110 C   0  0  0  0  0  3  0  0  0  0  0  0
  -25.7760  -27.0790   19.4360 C   0  0  0  0  0  3  0  0  0  0  0  0
  -24.5940  -27.8410   19.5040 C   0  0  0  0  0  3  0  0  0  0  0  0
  -23.3730  -29.9710   20.2390 C   0  0  0  0  0  2  0  0  0  0  0  0
  -24.5090  -31.2010   22.1450 N   0  0  0  0  0  0  0  0  0  0  0  0
  -23.4420  -32.2450   23.8520 O   0  0  0  0  0  0  0  0  0  0  0  0
  -22.5950  -29.5890   22.5990 C   0  0  0  0  0  0  0  0  0  0  0  0
  -21.2790  -29.3630   22.4590 N   0  0  0  0  0  0  0  0  0  0  0  0
  -23.2900  -28.9930   23.4270 O   0  0  0  0  0  0  0  0  0  0  0  0
  -20.7790  -29.8960   21.7610 H   0  0  0  0  0  0  0  0  0  0  0  0
  -17.9610  -27.9880   22.8580 C   0  0  0  0  0  0  0  0  0  0  0  0
  -20.4850  -28.4040   23.2250 C   0  0  0  0  0  3  0  0  0  0  0  0
  -20.6940  -26.9660   22.7000 C   0  0  0  0  0  2  0  0  0  0  0  0
  -19.6560  -26.5490   21.6520 C   0  0  0  0  0  2  0  0  0  0  0  0
  -18.2410  -26.6330   22.2340 C   0  0  0  0  0  2  0  0  0  0  0  0
  -19.0140  -28.8270   23.3100 C   0  0  0  0  0  0  0  0  0  0  0  0
  -18.7010  -30.0930   23.8490 C   0  0  0  0  0  3  0  0  0  0  0  0
  -17.3640  -30.5230   23.9460 C   0  0  0  0  0  3  0  0  0  0  0  0
  -16.3230  -29.6830   23.5110 C   0  0  0  0  0  3  0  0  0  0  0  0
  -16.6220  -28.4180   22.9740 C   0  0  0  0  0  3  0  0  0  0  0  0
  -25.8140  -32.5800   23.8550 C   0  0  0  0  0  3  0  0  0  0  0  0
  -25.5460  -33.9870   24.1840 N   0  0  0  0  0  0  0  0  0  0  0  0
  -25.8950  -35.0270   23.4170 C   0  0  0  0  0  0  0  0  0  0  0  0
  -26.5510  -34.9050   22.3780 O   0  0  0  0  0  0  0  0  0  0  0  0
  -24.9620  -34.1600   24.9890 H   0  0  0  0  0  0  0  0  0  0  0  0
  -24.2070  -36.8620   23.0750 C   0  0  0  0  0  1  0  0  0  0  0  0
  -25.4480  -36.4300   23.8730 C   0  0  0  0  0  3  0  0  0  0  0  0
  -27.6130  -37.2670   24.6770 C   0  0  0  0  0  1  0  0  0  0  0  0
  -26.5040  -37.4560   23.7430 N   0  0  0  0  0  0  0  0  0  0  0  0
  -26.1220  -38.3860   23.8890 H   0  0  0  0  0  0  0  0  0  0  0  0
  -26.3440  -31.8030   25.1220 C   0  0  1  0  0  0  0  0  0  0  0  0
  -25.2690  -31.5810   26.2110 C   0  0  0  0  0  1  0  0  0  0  0  0
  -26.8990  -30.4160   24.7180 C   0  0  0  0  0  1  0  0  0  0  0  0
  -27.5180  -32.5800   25.7620 C   0  0  0  0  0  1  0  0  0  0  0  0
  1  4  1  0
  4  3  1  6
  4  2  1  0
  5  4  1  0
  6  5  2  0
  7 20  1  0
  8 13  1  0
  9 10  1  0
  9  8  1  0
 11 10  1  0
 11 24  1  0
 11 12  1  0
 13  7  1  0
 13 12  1  0
 14  7  2  0
 16 18  1  0
 16 19  1  0
 17 15  1  0
 18 20  1  0
 19  5  1  0
 19 15  1  0
 20 17  1  0
 21 22  2  0
 22 41  1  0
 23 22  1  0
 23 26  1  0
 24 25  1  0
 24 21  1  0
 25 23  2  0
 26 27  1  0
 27 28  2  0
 29 32  1  0
 29 28  1  0
 30 29  2  0
 31 30  1  0
 31 26  2  0
 32 33  1  0
 33 38  2  0
 33 34  1  0
 34 35  2  0
 35 36  1  0
 36 40  1  0
 37 36  2  0
 38 37  1  0
 39 38  1  0
 41 42  1  0
 42 45  1  0
 42 44  1  0
 43 41  2  0
 46 21  1  0
 46 47  1  0
 48 46  1  0
 49 52  1  0
 49  1  1  0
 50 49  1  0
 51 49  1  0
 53 54  1  0
 53 52  1  0
 54 56  1  0
 55 66  2  0
 56 61  1  0
 57 65  1  0
 57 67  1  0
 58 64  1  0
 58 60  1  0
 59 65  1  0
 60 59  1  0
 61 60  2  0
 62 63  1  0
 62 56  2  0
 63 58  2  0
 64 57  1  0
 65 55  1  0
 67 69  2  0
 68 67  1  0
 70 68  1  0
 71 80  2  0
 71 76  1  0
 72 68  1  0
 72 76  1  0
 73 72  1  0
 74 75  1  0
 74 73  1  0
 75 71  1  0
 76 77  2  0
 77 78  1  0
 79 78  2  0
 80 79  1  0
 81 55  1  0
 81 82  1  0
 81 91  1  0
 82 85  1  0
 83 87  1  0
 83 82  1  0
 84 83  2  0
 87 86  1  0
 89 87  1  0
 89 90  1  0
 89 88  1  0
 91 94  1  1
 91 92  1  0
 93 91  1  0
M  ISO  4   7 100  20 100  53 101  54 101
M  END
>  <TORSDO>  (33) 
F 21

>  <SCORE>  (33) 
-13.075

>  <name>  (33) 
33

>  <ligand_id>  (33) 
33

>  <original_smiles>  (33) 
[H]c1c([H])c([H])c2c(c1[H])C([H])([H])C([H])([H])C([H])([H])C2([H])N([H])C(=O)C1([H])N(C(=O)C([H])(N([H])C(=O)C([H])(N([H])C([H])([H])[H])C([H])([H])[H])C(C([H])([H])[H])(C([H])([H])[H])C([H])([H])[H])C([H])([H])c2c([H])c(OC([H])([H])C([H])([H])[N+]([H])([H])C([H])([H])C(C(=O)C3([H])C([H])([H])C([H])([H])N(C(=O)N4C([H])([H])C([H])([H])C([H])([H])C([H])(n5nc(-c6c([H])c([H])c(Oc7c([H])c([H])c(F)c([H])c7F)c([H])c6[H])c(C(=O)N([H])[H])c5N([H])[H])C4([H])[H])C([H])([H])C3([H])[H])(C([H])([H])[H])C([H])([H])[H])c([H])c([H])c2C1([H])[H]

>  <smiles>  (33) 
[H]c1c([H])c([H])c2c(c1[H])C([H])([H])C([H])([H])C([H])([H])C2([H])N([H])C(=O)C1([H])N(C(=O)C([H])(N([H])C(=O)C([H])(N([H])C([H])([H])[H])C([H])([H])[H])C(C([H])([H])[H])(C([H])([H])[H])C([H])([H])[H])C([H])([H])c2c([H])c(OC([H])([H])C([H])([H])[N+]([H])([H])C([H])([H])C(C(=O)C3([H])C([H])([H])C([H])([H])N(C(=O)N4C([H])([H])C([H])([H])C([H])([H])C([H])(n5nc(-c6c([H])c([H])c(Oc7c([H])c([H])c(F)c([H])c7F)c([H])c6[H])c(C(=O)N([H])[H])c5N([H])[H])C4([H])[H])C([H])([H])C3([H])[H])(C([H])([H])[H])C([H])([H])[H])c([H])c([H])c2C1([H])[H]

$$$$
34:0:0
     RDKit          3D

 94102  0  0  1  0  0  0  0  0999 V2000
  -29.2790  -21.4070   21.5600 C   0  0  0  0  0  0  0  0  0  0  0  0
  -29.0080  -22.6080   21.0400 N   0  0  0  0  0  0  0  0  0  0  0  0
  -30.0570  -21.2590   22.5070 O   0  0  0  0  0  0  0  0  0  0  0  0
  -28.3600  -22.6380   20.2640 H   0  0  0  0  0  0  0  0  0  0  0  0
  -28.5400  -20.2140   20.9390 C   0  0  0  0  0  2  0  0  0  0  0  0
  -29.8580  -18.4120   22.1470 C   0  0  0  0  0  3  0  0  0  0  0  0
  -30.6010  -17.2170   22.1520 C   0  0  0  0  0  3  0  0  0  0  0  0
  -29.6610  -18.2710   19.7240 C   0  0  0  0  0  3  0  0  0  0  0  0
  -29.3820  -18.9440   20.9330 C   0  0  0  0  0  0  0  0  0  0  0  0
  -30.8800  -16.5360   20.9490 C   0  0  0  0  0  0  0  0  0  0  0  0
  -30.4030  -17.0740   19.7240 C   0  0  0  0  0  0  0  0  0  0  0  0
  -30.5940  -16.4390   18.5430 F   0  0  0  0  0  0  0  0  0  0  0  0
  -31.8990  -14.4770   20.0660 C   0  0  0  0  0  0  0  0  0  0  0  0
  -31.5540  -12.2300   19.1020 C   0  0  0  0  0  2  0  0  0  0  0  0
  -30.5580  -12.2980   17.9270 C   0  0  0  0  0  2  0  0  0  0  0  0
  -29.1070  -12.1910   18.4320 C   0  0  0  0  0  2  0  0  0  0  0  0
  -28.8120  -13.1800   19.5910 C   0  0  0  0  0  3  0  0  0  0  0  0
  -29.9040  -13.0790   20.6780 C   0  0  0  0  0  2  0  0  0  0  0  0
  -31.2260  -13.3000   20.0530 N   0  0  0  0  0  0  0  0  0  0  0  0
  -32.8410  -14.7470   19.3140 O   0  0  0  0  0  0  0  0  0  0  0  0
  -31.5420  -15.2840   21.0700 N   0  0  0  0  0  0  0  0  0  0  0  0
  -31.2540  -14.7740   21.8910 H   0  0  0  0  0  0  0  0  0  0  0  0
  -26.5240  -13.8990   20.5370 C   0  0  0  0  0  0  0  0  0  0  0  0
  -25.4320  -13.1740   20.9380 C   0  0  0  0  0  0  0  0  0  0  0  0
  -25.7850  -11.8020   20.7650 C   0  0  0  0  0  0  0  0  0  0  0  0
  -27.4800  -12.9680   20.1540 N   0  0  0  0  0  0  0  0  0  0  0  0
  -27.0390  -11.6980   20.3420 N   0  0  0  0  0  0  0  0  0  0  0  0
  -24.9860  -10.5810   20.9230 C   0  0  0  0  0  0  0  0  0  0  0  0
  -25.2920   -9.6200   21.9120 C   0  0  0  0  0  3  0  0  0  0  0  0
  -24.4980   -8.4630   22.0570 C   0  0  0  0  0  3  0  0  0  0  0  0
  -23.3830   -8.2570   21.2110 C   0  0  0  0  0  0  0  0  0  0  0  0
  -23.0940   -9.2060   20.2140 C   0  0  0  0  0  3  0  0  0  0  0  0
  -23.8880  -10.3560   20.0680 C   0  0  0  0  0  3  0  0  0  0  0  0
  -22.5700   -7.1500   21.2600 O   0  0  0  0  0  0  0  0  0  0  0  0
  -22.2090   -6.5740   22.4520 C   0  0  0  0  0  0  0  0  0  0  0  0
  -21.5700   -7.3120   23.4720 C   0  0  0  0  0  3  0  0  0  0  0  0
  -21.1540   -6.6660   24.6530 C   0  0  0  0  0  3  0  0  0  0  0  0
  -21.3660   -5.2830   24.8120 C   0  0  0  0  0  0  0  0  0  0  0  0
  -21.9960   -4.5460   23.7940 C   0  0  0  0  0  3  0  0  0  0  0  0
  -22.4140   -5.1900   22.6170 C   0  0  0  0  0  0  0  0  0  0  0  0
  -23.0030   -4.4720   21.6310 F   0  0  0  0  0  0  0  0  0  0  0  0
  -20.9580   -4.6600   25.9430 F   0  0  0  0  0  0  0  0  0  0  0  0
  -24.1020  -13.7230   21.3660 C   0  0  0  0  0  0  0  0  0  0  0  0
  -23.4160  -13.0320   22.2690 N   0  0  0  0  0  0  0  0  0  0  0  0
  -23.6850  -14.7970   20.9360 O   0  0  0  0  0  0  0  0  0  0  0  0
  -23.7680  -12.1630   22.6420 H   0  0  0  0  0  0  0  0  0  0  0  0
  -22.5260  -13.3820   22.5950 H   0  0  0  0  0  0  0  0  0  0  0  0
  -26.7770  -15.2650   20.4530 N   0  0  0  0  0  0  0  0  0  0  0  0
  -26.0740  -15.9580   20.6810 H   0  0  0  0  0  0  0  0  0  0  0  0
  -27.6460  -15.6720   20.1310 H   0  0  0  0  0  0  0  0  0  0  0  0
  -29.5250  -23.8770   21.5410 C   0  0  0  0  0  2  0  0  0  0  0  0
  -29.1800  -25.0150   20.5690 C   0  0  0  0  0  2  0  0  0  0  0  0
  -29.6540  -26.3910   21.0600 C   0  0  0  0  0  2  0  0  0  0  0  0
  -29.4130  -27.3710   20.0550 O   0  0  0  0  0  0  0  0  0  0  0  0
  -24.8820  -31.6960   23.4180 C   0  0  0  0  0  0  0  0  0  0  0  0
  -28.1670  -27.9410   20.0960 C   0  0  0  0  0  0  0  0  0  0  0  0
  -23.9280  -30.3630   21.5610 C   0  0  0  0  0  3  0  0  0  0  0  0
  -25.6210  -29.1450   20.0940 C   0  0  0  0  0  0  0  0  0  0  0  0
  -26.4010  -31.0090   21.5700 C   0  0  0  0  0  2  0  0  0  0  0  0
  -26.6730  -29.7300   20.8120 C   0  0  0  0  0  0  0  0  0  0  0  0
  -27.9480  -29.1310   20.8180 C   0  0  0  0  0  3  0  0  0  0  0  0
  -27.1070  -27.3570   19.3750 C   0  0  0  0  0  3  0  0  0  0  0  0
  -25.8300  -27.9530   19.3770 C   0  0  0  0  0  3  0  0  0  0  0  0
  -24.2880  -29.8550   20.1380 C   0  0  0  0  0  2  0  0  0  0  0  0
  -25.0830  -31.0340   22.2440 N   0  0  0  0  0  0  0  0  0  0  0  0
  -23.7500  -31.7940   23.9120 O   0  0  0  0  0  0  0  0  0  0  0  0
  -23.3420  -29.1850   22.3670 C   0  0  0  0  0  0  0  0  0  0  0  0
  -22.0690  -28.8540   22.1010 N   0  0  0  0  0  0  0  0  0  0  0  0
  -24.0330  -28.5730   23.1870 O   0  0  0  0  0  0  0  0  0  0  0  0
  -21.5700  -29.4070   21.4190 H   0  0  0  0  0  0  0  0  0  0  0  0
  -18.8540  -27.2110   22.1650 C   0  0  0  0  0  0  0  0  0  0  0  0
  -21.3200  -27.7550   22.7100 C   0  0  0  0  0  3  0  0  0  0  0  0
  -21.6610  -26.4070   22.0320 C   0  0  0  0  0  2  0  0  0  0  0  0
  -20.7050  -26.0490   20.8900 C   0  0  0  0  0  2  0  0  0  0  0  0
  -19.2640  -25.9620   21.4040 C   0  0  0  0  0  2  0  0  0  0  0  0
  -19.8200  -28.0610   22.7630 C   0  0  0  0  0  0  0  0  0  0  0  0
  -19.3860  -29.2290   23.4280 C   0  0  0  0  0  3  0  0  0  0  0  0
  -18.0180  -29.5490   23.5030 C   0  0  0  0  0  3  0  0  0  0  0  0
  -17.0640  -28.6950   22.9210 C   0  0  0  0  0  3  0  0  0  0  0  0
  -17.4820  -27.5280   22.2570 C   0  0  0  0  0  3  0  0  0  0  0  0
  -26.0570  -32.3820   24.1820 C   0  0  0  0  0  3  0  0  0  0  0  0
  -25.6380  -33.7540   24.4980 N   0  0  0  0  0  0  0  0  0  0  0  0
  -26.0120  -34.8400   23.8070 C   0  0  0  0  0  0  0  0  0  0  0  0
  -26.8120  -34.7950   22.8680 O   0  0  0  0  0  0  0  0  0  0  0  0
  -24.9380  -33.8590   25.2160 H   0  0  0  0  0  0  0  0  0  0  0  0
  -24.2510  -36.5510   23.2620 C   0  0  0  0  0  1  0  0  0  0  0  0
  -25.3960  -36.1900   24.2220 C   0  0  0  0  0  3  0  0  0  0  0  0
  -27.3560  -37.1540   25.3420 C   0  0  0  0  0  1  0  0  0  0  0  0
  -26.3790  -37.2950   24.2660 N   0  0  0  0  0  0  0  0  0  0  0  0
  -25.9090  -38.1890   24.3780 H   0  0  0  0  0  0  0  0  0  0  0  0
  -26.4830  -31.6130   25.4940 C   0  0  1  0  0  0  0  0  0  0  0  0
  -25.2990  -31.2800   26.4310 C   0  0  0  0  0  1  0  0  0  0  0  0
  -27.1950  -30.2860   25.1410 C   0  0  0  0  0  1  0  0  0  0  0  0
  -27.4990  -32.4620   26.2940 C   0  0  0  0  0  1  0  0  0  0  0  0
  1  3  2  0
  2 51  1  0
  2  1  1  0
  4  2  1  0
  5  1  1  0
  6  7  1  0
  8 11  2  0
  8  9  1  0
  9  5  1  0
  9  6  2  0
 10 21  1  0
 10  7  2  0
 11 10  1  0
 12 11  1  0
 13 21  1  0
 14 19  1  0
 15 16  1  0
 15 14  1  0
 17 16  1  0
 17 26  1  0
 17 18  1  0
 19 13  1  0
 19 18  1  0
 20 13  2  0
 21 22  1  0
 23 24  2  0
 24 43  1  0
 25 28  1  0
 25 24  1  0
 26 27  1  0
 26 23  1  0
 27 25  2  0
 28 29  1  0
 29 30  2  0
 31 34  1  0
 31 30  1  0
 32 31  2  0
 33 32  1  0
 33 28  2  0
 34 35  1  0
 35 40  2  0
 35 36  1  0
 36 37  2  0
 37 38  1  0
 38 42  1  0
 39 38  2  0
 40 39  1  0
 41 40  1  0
 43 44  1  0
 44 47  1  0
 44 46  1  0
 45 43  2  0
 48 23  1  0
 48 49  1  0
 50 48  1  0
 52 53  1  0
 52 51  1  0
 54 56  1  0
 54 53  1  0
 55 66  2  0
 56 61  1  0
 57 65  1  0
 57 67  1  0
 58 64  1  0
 58 60  1  0
 59 65  1  0
 60 61  2  0
 60 59  1  0
 62 63  1  0
 62 56  2  0
 63 58  2  0
 64 57  1  0
 65 55  1  0
 67 69  2  0
 68 67  1  0
 70 68  1  0
 71 80  2  0
 71 76  1  0
 72 68  1  0
 72 76  1  0
 73 72  1  0
 74 75  1  0
 74 73  1  0
 75 71  1  0
 76 77  2  0
 77 78  1  0
 79 78  2  0
 80 79  1  0
 81 55  1  0
 81 82  1  0
 81 91  1  0
 82 85  1  0
 83 87  1  0
 83 82  1  0
 84 83  2  0
 87 86  1  0
 87 89  1  0
 89 90  1  0
 89 88  1  0
 91 94  1  1
 91 92  1  0
 93 91  1  0
M  ISO  4  13 100  21 100  53 101  54 101
M  END
>  <TORSDO>  (34) 
F 21

>  <SCORE>  (34) 
-9.942

>  <name>  (34) 
34

>  <ligand_id>  (34) 
34

>  <original_smiles>  (34) 
[H]c1c([H])c([H])c2c(c1[H])C([H])([H])C([H])([H])C([H])([H])C2([H])N([H])C(=O)C1([H])N(C(=O)C([H])(N([H])C(=O)C([H])(N([H])C([H])([H])[H])C([H])([H])[H])C(C([H])([H])[H])(C([H])([H])[H])C([H])([H])[H])C([H])([H])c2c([H])c(OC([H])([H])C([H])([H])C([H])([H])N([H])C(=O)C([H])([H])c3c([H])c([H])c(N([H])C(=O)N4C([H])([H])C([H])([H])C([H])([H])C([H])(n5nc(-c6c([H])c([H])c(Oc7c([H])c([H])c(F)c([H])c7F)c([H])c6[H])c(C(=O)N([H])[H])c5N([H])[H])C4([H])[H])c(F)c3[H])c([H])c([H])c2C1([H])[H]

>  <smiles>  (34) 
[H]c1c([H])c([H])c2c(c1[H])C([H])([H])C([H])([H])C([H])([H])C2([H])N([H])C(=O)C1([H])N(C(=O)C([H])(N([H])C(=O)C([H])(N([H])C([H])([H])[H])C([H])([H])[H])C(C([H])([H])[H])(C([H])([H])[H])C([H])([H])[H])C([H])([H])c2c([H])c(OC([H])([H])C([H])([H])C([H])([H])N([H])C(=O)C([H])([H])c3c([H])c([H])c(N([H])C(=O)N4C([H])([H])C([H])([H])C([H])([H])C([H])(n5nc(-c6c([H])c([H])c(Oc7c([H])c([H])c(F)c([H])c7F)c([H])c6[H])c(C(=O)N([H])[H])c5N([H])[H])C4([H])[H])c(F)c3[H])c([H])c([H])c2C1([H])[H]

$$$$
35:0:0
     RDKit          3D

 96104  0  0  1  0  0  0  0  0999 V2000
  -28.7000  -21.5650   20.1080 C   0  0  0  0  0  2  0  0  0  0  0  0
  -28.8970  -23.0280   20.0940 N   0  0  0  0  0  4  0  0  0  0  0  0
  -28.6640  -23.3810   19.1810 H   0  0  0  0  0  0  0  0  0  0  0  0
  -29.8930  -23.1420   20.2280 H   0  0  0  0  0  0  0  0  0  0  0  0
  -28.1540  -23.7860   21.1250 C   0  0  0  0  0  2  0  0  0  0  0  0
  -29.1000  -24.4190   22.1680 C   0  0  0  0  0  2  0  0  0  0  0  0
  -28.8850  -25.9240   22.4100 C   0  0  0  0  0  2  0  0  0  0  0  0
  -29.3700  -26.8170   21.2500 C   0  0  0  0  0  2  0  0  0  0  0  0
  -28.4610  -26.7520   20.1500 O   0  0  0  0  0  0  0  0  0  0  0  0
  -24.5820  -31.9000   23.2300 C   0  0  0  0  0  0  0  0  0  0  0  0
  -27.3020  -27.4940   20.2110 C   0  0  0  0  0  0  0  0  0  0  0  0
  -23.3940  -30.4780   21.5830 C   0  0  0  0  0  3  0  0  0  0  0  0
  -24.8720  -28.9370   20.1880 C   0  0  0  0  0  0  0  0  0  0  0  0
  -25.9110  -30.8630   21.4030 C   0  0  0  0  0  2  0  0  0  0  0  0
  -26.0110  -29.4870   20.7850 C   0  0  0  0  0  0  0  0  0  0  0  0
  -27.2240  -28.7760   20.8010 C   0  0  0  0  0  3  0  0  0  0  0  0
  -26.1460  -26.9490   19.6110 C   0  0  0  0  0  3  0  0  0  0  0  0
  -24.9300  -27.6610   19.6000 C   0  0  0  0  0  3  0  0  0  0  0  0
  -23.6180  -29.7810   20.2130 C   0  0  0  0  0  2  0  0  0  0  0  0
  -24.6450  -31.0950   22.1320 N   0  0  0  0  0  0  0  0  0  0  0  0
  -23.4960  -32.1720   23.7610 O   0  0  0  0  0  0  0  0  0  0  0  0
  -22.7430  -29.4630   22.5480 C   0  0  0  0  0  0  0  0  0  0  0  0
  -21.4160  -29.2920   22.4260 N   0  0  0  0  0  0  0  0  0  0  0  0
  -23.4260  -28.8330   23.3600 O   0  0  0  0  0  0  0  0  0  0  0  0
  -20.9290  -29.8510   21.7400 H   0  0  0  0  0  0  0  0  0  0  0  0
  -18.0330  -28.1450   22.9450 C   0  0  0  0  0  0  0  0  0  0  0  0
  -20.5950  -28.3600   23.1960 C   0  0  0  0  0  3  0  0  0  0  0  0
  -20.6710  -26.9330   22.6080 C   0  0  0  0  0  2  0  0  0  0  0  0
  -19.5560  -26.6350   21.6030 C   0  0  0  0  0  2  0  0  0  0  0  0
  -18.1820  -26.7980   22.2590 C   0  0  0  0  0  2  0  0  0  0  0  0
  -19.1670  -28.8870   23.3690 C   0  0  0  0  0  0  0  0  0  0  0  0
  -18.9740  -30.1520   23.9690 C   0  0  0  0  0  3  0  0  0  0  0  0
  -17.6790  -30.6710   24.1490 C   0  0  0  0  0  3  0  0  0  0  0  0
  -16.5590  -29.9260   23.7400 C   0  0  0  0  0  3  0  0  0  0  0  0
  -16.7370  -28.6650   23.1440 C   0  0  0  0  0  3  0  0  0  0  0  0
  -25.8630  -32.5370   23.8550 C   0  0  0  0  0  3  0  0  0  0  0  0
  -25.5470  -33.9320   24.1880 N   0  0  0  0  0  0  0  0  0  0  0  0
  -25.8690  -34.9870   23.4260 C   0  0  0  0  0  0  0  0  0  0  0  0
  -26.5370  -34.8890   22.3930 O   0  0  0  0  0  0  0  0  0  0  0  0
  -24.9590  -34.0840   24.9930 H   0  0  0  0  0  0  0  0  0  0  0  0
  -24.1220  -36.7600   23.0740 C   0  0  0  0  0  1  0  0  0  0  0  0
  -25.3700  -36.3700   23.8820 C   0  0  0  0  0  3  0  0  0  0  0  0
  -27.5000  -37.2730   24.7050 C   0  0  0  0  0  1  0  0  0  0  0  0
  -26.3930  -37.4320   23.7650 N   0  0  0  0  0  0  0  0  0  0  0  0
  -25.9790  -38.3480   23.9170 H   0  0  0  0  0  0  0  0  0  0  0  0
  -26.3900  -31.7630   25.1260 C   0  0  1  0  0  0  0  0  0  0  0  0
  -25.3000  -31.5110   26.1940 C   0  0  0  0  0  1  0  0  0  0  0  0
  -26.9870  -30.3940   24.7250 C   0  0  0  0  0  1  0  0  0  0  0  0
  -27.5330  -32.5640   25.7920 C   0  0  0  0  0  1  0  0  0  0  0  0
  -30.0230  -20.9120   20.5320 C   0  0  0  0  0  0  0  0  0  0  0  0
  -31.0180  -21.6270   20.7120 O   0  0  0  0  0  0  0  0  0  0  0  0
  -31.2600  -18.7910   21.0790 C   0  0  0  0  0  3  0  0  0  0  0  0
  -31.3160  -17.3910   21.2450 C   0  0  0  0  0  3  0  0  0  0  0  0
  -28.8980  -18.6340   20.4960 C   0  0  0  0  0  3  0  0  0  0  0  0
  -30.0520  -19.4290   20.7000 C   0  0  0  0  0  0  0  0  0  0  0  0
  -30.1620  -16.6140   21.0190 C   0  0  0  0  0  0  0  0  0  0  0  0
  -28.9570  -17.2390   20.6590 C   0  0  0  0  0  0  0  0  0  0  0  0
  -27.8510  -16.4910   20.4480 F   0  0  0  0  0  0  0  0  0  0  0  0
  -30.6980  -14.3860   20.2610 C   0  0  0  0  0  0  0  0  0  0  0  0
  -30.3000  -12.3460   18.9410 C   0  0  0  0  0  2  0  0  0  0  0  0
  -29.3050  -12.6560   17.8060 C   0  0  0  0  0  2  0  0  0  0  0  0
  -27.8510  -12.5050   18.2940 C   0  0  0  0  0  2  0  0  0  0  0  0
  -27.5870  -13.2630   19.6210 C   0  0  0  0  0  3  0  0  0  0  0  0
  -28.6820  -12.9260   20.6590 C   0  0  0  0  0  2  0  0  0  0  0  0
  -29.9960  -13.2410   20.0650 N   0  0  0  0  0  0  0  0  0  0  0  0
  -31.7350  -14.6660   19.6530 O   0  0  0  0  0  0  0  0  0  0  0  0
  -30.1590  -15.2120   21.1620 N   0  0  0  0  0  0  0  0  0  0  0  0
  -29.3160  -14.8350   21.5690 H   0  0  0  0  0  0  0  0  0  0  0  0
  -25.2000  -13.8580   20.3950 C   0  0  0  0  0  0  0  0  0  0  0  0
  -24.1490  -13.0780   20.7950 C   0  0  0  0  0  0  0  0  0  0  0  0
  -24.6200  -11.7300   20.7490 C   0  0  0  0  0  0  0  0  0  0  0  0
  -26.2480  -12.9850   20.1380 N   0  0  0  0  0  0  0  0  0  0  0  0
  -25.9000  -11.6990   20.4020 N   0  0  0  0  0  0  0  0  0  0  0  0
  -23.9090  -10.4630   20.9620 C   0  0  0  0  0  0  0  0  0  0  0  0
  -24.3640   -9.5100   21.9000 C   0  0  0  0  0  3  0  0  0  0  0  0
  -23.6530   -8.3060   22.0970 C   0  0  0  0  0  3  0  0  0  0  0  0
  -22.4740   -8.0500   21.3580 C   0  0  0  0  0  0  0  0  0  0  0  0
  -22.0380   -8.9920   20.4110 C   0  0  0  0  0  3  0  0  0  0  0  0
  -22.7500  -10.1880   20.2100 C   0  0  0  0  0  3  0  0  0  0  0  0
  -21.7340   -6.8980   21.4650 O   0  0  0  0  0  0  0  0  0  0  0  0
  -21.6890   -6.1770   22.6310 C   0  0  0  0  0  0  0  0  0  0  0  0
  -21.2550   -6.7520   23.8450 C   0  0  0  0  0  3  0  0  0  0  0  0
  -21.1560   -5.9580   25.0050 C   0  0  0  0  0  3  0  0  0  0  0  0
  -21.4840   -4.5890   24.9520 C   0  0  0  0  0  0  0  0  0  0  0  0
  -21.9140   -4.0150   23.7420 C   0  0  0  0  0  3  0  0  0  0  0  0
  -22.0130   -4.8060   22.5850 C   0  0  0  0  0  0  0  0  0  0  0  0
  -22.4060   -4.2430   21.4170 F   0  0  0  0  0  0  0  0  0  0  0  0
  -21.3830   -3.8230   26.0630 F   0  0  0  0  0  0  0  0  0  0  0  0
  -22.7590  -13.5460   21.1170 C   0  0  0  0  0  0  0  0  0  0  0  0
  -22.0670  -12.8440   22.0080 N   0  0  0  0  0  0  0  0  0  0  0  0
  -22.2960  -14.5700   20.6170 O   0  0  0  0  0  0  0  0  0  0  0  0
  -22.4540  -12.0150   22.4320 H   0  0  0  0  0  0  0  0  0  0  0  0
  -21.1370  -13.1420   22.2690 H   0  0  0  0  0  0  0  0  0  0  0  0
  -25.3420  -15.2290   20.2210 N   0  0  0  0  0  0  0  0  0  0  0  0
  -24.5880  -15.8780   20.4140 H   0  0  0  0  0  0  0  0  0  0  0  0
  -26.2320  -15.6920   20.0600 H   0  0  0  0  0  0  0  0  0  0  0  0
  1 50  1  0
  2  1  1  0
  2  4  1  0
  2  5  1  0
  3  2  1  0
  5  6  1  0
  6  7  1  0
  8  7  1  0
  9 11  1  0
  9  8  1  0
 10 21  2  0
 11 16  1  0
 12 20  1  0
 12 22  1  0
 13 19  1  0
 13 15  1  0
 14 20  1  0
 15 16  2  0
 15 14  1  0
 17 11  2  0
 18 17  1  0
 18 13  2  0
 19 12  1  0
 20 10  1  0
 22 24  2  0
 23 22  1  0
 25 23  1  0
 26 35  2  0
 26 31  1  0
 27 23  1  0
 27 31  1  0
 28 27  1  0
 29 30  1  0
 29 28  1  0
 30 26  1  0
 31 32  2  0
 32 33  1  0
 34 33  2  0
 35 34  1  0
 36 10  1  0
 36 37  1  0
 36 46  1  0
 37 40  1  0
 38 42  1  0
 38 37  1  0
 39 38  2  0
 42 41  1  0
 44 42  1  0
 44 45  1  0
 44 43  1  0
 46 49  1  1
 46 47  1  0
 48 46  1  0
 50 55  1  0
 50 51  2  0
 52 53  1  0
 54 57  2  0
 54 55  1  0
 55 52  2  0
 56 67  1  0
 56 53  2  0
 57 56  1  0
 58 57  1  0
 59 67  1  0
 60 65  1  0
 61 62  1  0
 61 60  1  0
 63 62  1  0
 63 72  1  0
 63 64  1  0
 65 59  1  0
 65 64  1  0
 66 59  2  0
 67 68  1  0
 69 70  2  0
 70 89  1  0
 71 70  1  0
 71 74  1  0
 72 69  1  0
 72 73  1  0
 73 71  2  0
 74 75  1  0
 75 76  2  0
 77 80  1  0
 77 76  1  0
 78 77  2  0
 79 78  1  0
 79 74  2  0
 80 81  1  0
 81 82  1  0
 82 83  2  0
 84 83  1  0
 84 88  1  0
 85 84  2  0
 86 81  2  0
 86 85  1  0
 87 86  1  0
 89 90  1  0
 90 93  1  0
 90 92  1  0
 91 89  2  0
 94 69  1  0
 94 95  1  0
 96 94  1  0
M  ISO  4   8 101   9 101  59 100  67 100
M  END
>  <TORSDO>  (35) 
F 23

>  <SCORE>  (35) 
-13.282

>  <name>  (35) 
35

>  <ligand_id>  (35) 
35

>  <original_smiles>  (35) 
[H]c1c([H])c([H])c2c(c1[H])C([H])([H])C([H])([H])C([H])([H])C2([H])N([H])C(=O)C1([H])N(C(=O)C([H])(N([H])C(=O)C([H])(N([H])C([H])([H])[H])C([H])([H])[H])C(C([H])([H])[H])(C([H])([H])[H])C([H])([H])[H])C([H])([H])c2c([H])c(OC([H])([H])C([H])([H])C([H])([H])C([H])([H])[N+]([H])([H])C([H])([H])C(=O)c3c([H])c([H])c(N([H])C(=O)N4C([H])([H])C([H])([H])C([H])([H])C([H])(n5nc(-c6c([H])c([H])c(Oc7c([H])c([H])c(F)c([H])c7F)c([H])c6[H])c(C(=O)N([H])[H])c5N([H])[H])C4([H])[H])c(F)c3[H])c([H])c([H])c2C1([H])[H]

>  <smiles>  (35) 
[H]c1c([H])c([H])c2c(c1[H])C([H])([H])C([H])([H])C([H])([H])C2([H])N([H])C(=O)C1([H])N(C(=O)C([H])(N([H])C(=O)C([H])(N([H])C([H])([H])[H])C([H])([H])[H])C(C([H])([H])[H])(C([H])([H])[H])C([H])([H])[H])C([H])([H])c2c([H])c(OC([H])([H])C([H])([H])C([H])([H])C([H])([H])[N+]([H])([H])C([H])([H])C(=O)c3c([H])c([H])c(N([H])C(=O)N4C([H])([H])C([H])([H])C([H])([H])C([H])(n5nc(-c6c([H])c([H])c(Oc7c([H])c([H])c(F)c([H])c7F)c([H])c6[H])c(C(=O)N([H])[H])c5N([H])[H])C4([H])[H])c(F)c3[H])c([H])c([H])c2C1([H])[H]

$$$$
36:0:0
     RDKit          3D

 92100  0  0  1  0  0  0  0  0999 V2000
  -30.4900  -22.4420   19.8090 C   0  0  0  0  0  2  0  0  0  0  0  0
  -30.3510  -23.7790   20.5880 C   0  0  0  0  0  2  0  0  0  0  0  0
  -28.9250  -24.3790   20.6960 C   0  0  0  0  0  2  0  0  0  0  0  0
  -28.5720  -25.4590   19.6550 C   0  0  0  0  0  0  0  0  0  0  0  0
  -28.4050  -25.1720   18.4660 O   0  0  0  0  0  0  0  0  0  0  0  0
  -28.4120  -26.7040   20.1960 O   0  0  0  0  0  0  0  0  0  0  0  0
  -24.6050  -31.8820   23.2260 C   0  0  0  0  0  0  0  0  0  0  0  0
  -27.2320  -27.4310   20.1210 C   0  0  0  0  0  0  0  0  0  0  0  0
  -23.3850  -30.4790   21.5950 C   0  0  0  0  0  3  0  0  0  0  0  0
  -24.8270  -28.9410   20.1570 C   0  0  0  0  0  0  0  0  0  0  0  0
  -25.9090  -30.8360   21.3750 C   0  0  0  0  0  2  0  0  0  0  0  0
  -25.9900  -29.4640   20.7340 C   0  0  0  0  0  0  0  0  0  0  0  0
  -27.1890  -28.7150   20.7160 C   0  0  0  0  0  3  0  0  0  0  0  0
  -26.0410  -26.9230   19.5440 C   0  0  0  0  0  3  0  0  0  0  0  0
  -24.8470  -27.6710   19.5600 C   0  0  0  0  0  3  0  0  0  0  0  0
  -23.5820  -29.7980   20.2150 C   0  0  0  0  0  2  0  0  0  0  0  0
  -24.6520  -31.0800   22.1240 N   0  0  0  0  0  0  0  0  0  0  0  0
  -23.5290  -32.1560   23.7750 O   0  0  0  0  0  0  0  0  0  0  0  0
  -22.7410  -29.4590   22.5620 C   0  0  0  0  0  0  0  0  0  0  0  0
  -21.4160  -29.2750   22.4450 N   0  0  0  0  0  0  0  0  0  0  0  0
  -23.4310  -28.8350   23.3740 O   0  0  0  0  0  0  0  0  0  0  0  0
  -20.9200  -29.8310   21.7630 H   0  0  0  0  0  0  0  0  0  0  0  0
  -18.0480  -28.0720   22.9580 C   0  0  0  0  0  0  0  0  0  0  0  0
  -20.6060  -28.3390   23.2230 C   0  0  0  0  0  3  0  0  0  0  0  0
  -20.7120  -26.9050   22.6540 C   0  0  0  0  0  2  0  0  0  0  0  0
  -19.6090  -26.5740   21.6440 C   0  0  0  0  0  2  0  0  0  0  0  0
  -18.2270  -26.7190   22.2890 C   0  0  0  0  0  2  0  0  0  0  0  0
  -19.1650  -28.8390   23.3810 C   0  0  0  0  0  0  0  0  0  0  0  0
  -18.9440  -30.1050   23.9660 C   0  0  0  0  0  3  0  0  0  0  0  0
  -17.6400  -30.6050   24.1300 C   0  0  0  0  0  3  0  0  0  0  0  0
  -16.5360  -29.8350   23.7220 C   0  0  0  0  0  3  0  0  0  0  0  0
  -16.7420  -28.5700   23.1420 C   0  0  0  0  0  3  0  0  0  0  0  0
  -25.8970  -32.5130   23.8330 C   0  0  0  0  0  3  0  0  0  0  0  0
  -25.5900  -33.9090   24.1720 N   0  0  0  0  0  0  0  0  0  0  0  0
  -25.9150  -34.9650   23.4150 C   0  0  0  0  0  0  0  0  0  0  0  0
  -26.5760  -34.8670   22.3760 O   0  0  0  0  0  0  0  0  0  0  0  0
  -25.0060  -34.0610   24.9810 H   0  0  0  0  0  0  0  0  0  0  0  0
  -24.1810  -36.7540   23.0790 C   0  0  0  0  0  1  0  0  0  0  0  0
  -25.4290  -36.3500   23.8810 C   0  0  0  0  0  3  0  0  0  0  0  0
  -27.5710  -37.2310   24.6960 C   0  0  0  0  0  1  0  0  0  0  0  0
  -26.4600  -37.4050   23.7640 N   0  0  0  0  0  0  0  0  0  0  0  0
  -26.0540  -38.3230   23.9250 H   0  0  0  0  0  0  0  0  0  0  0  0
  -26.4340  -31.7360   25.0970 C   0  0  1  0  0  0  0  0  0  0  0  0
  -25.3560  -31.4920   26.1790 C   0  0  0  0  0  1  0  0  0  0  0  0
  -27.0130  -30.3620   24.6870 C   0  0  0  0  0  1  0  0  0  0  0  0
  -27.5920  -32.5290   25.7480 C   0  0  0  0  0  1  0  0  0  0  0  0
  -30.1200  -21.1550   20.6020 C   0  0  0  0  0  2  0  0  0  0  0  0
  -30.4770  -19.9170   19.8560 N   0  0  0  0  0  4  0  0  0  0  0  0
  -30.0760  -20.0170   18.9380 H   0  0  0  0  0  0  0  0  0  0  0  0
  -31.4760  -19.8670   19.7370 H   0  0  0  0  0  0  0  0  0  0  0  0
  -30.6930  -14.5280   20.4620 C   0  0  0  0  0  0  0  0  0  0  0  0
  -30.3720  -12.3440   19.3600 C   0  0  0  0  0  2  0  0  0  0  0  0
  -29.4340  -12.5130   18.1490 C   0  0  0  0  0  2  0  0  0  0  0  0
  -27.9600  -12.3600   18.5770 C   0  0  0  0  0  2  0  0  0  0  0  0
  -27.6040  -13.2170   19.8200 C   0  0  0  0  0  3  0  0  0  0  0  0
  -28.6680  -13.0800   20.9350 C   0  0  0  0  0  2  0  0  0  0  0  0
  -29.9890  -13.3640   20.3490 N   0  0  0  0  0  0  0  0  0  0  0  0
  -31.8710  -14.6310   20.1170 O   0  0  0  0  0  0  0  0  0  0  0  0
  -30.9610  -17.9320   21.3710 C   0  0  0  0  0  2  0  0  0  0  0  0
  -29.6910  -17.6370   19.2690 C   0  0  0  0  0  2  0  0  0  0  0  0
  -30.4300  -16.5580   21.8750 C   0  0  0  0  0  2  0  0  0  0  0  0
  -29.1350  -16.2980   19.7910 C   0  0  0  0  0  2  0  0  0  0  0  0
  -29.9750  -18.6280   20.4070 C   0  0  0  0  0  3  0  0  0  0  0  0
  -29.9900  -15.6420   20.8000 N   0  0  0  0  0  0  0  0  0  0  0  0
  -25.2110  -13.8400   20.5160 C   0  0  0  0  0  0  0  0  0  0  0  0
  -24.1400  -13.0730   20.8830 C   0  0  0  0  0  0  0  0  0  0  0  0
  -24.6010  -11.7210   20.8700 C   0  0  0  0  0  0  0  0  0  0  0  0
  -26.2560  -12.9520   20.3030 N   0  0  0  0  0  0  0  0  0  0  0  0
  -25.8930  -11.6750   20.5750 N   0  0  0  0  0  0  0  0  0  0  0  0
  -23.8750  -10.4620   21.0640 C   0  0  0  0  0  0  0  0  0  0  0  0
  -24.3170   -9.4910   21.9900 C   0  0  0  0  0  3  0  0  0  0  0  0
  -23.5920   -8.2950   22.1710 C   0  0  0  0  0  3  0  0  0  0  0  0
  -22.4110   -8.0610   21.4260 C   0  0  0  0  0  0  0  0  0  0  0  0
  -21.9900   -9.0200   20.4880 C   0  0  0  0  0  3  0  0  0  0  0  0
  -22.7160  -10.2080   20.3040 C   0  0  0  0  0  3  0  0  0  0  0  0
  -21.6560   -6.9180   21.5180 O   0  0  0  0  0  0  0  0  0  0  0  0
  -21.6350   -6.1610   22.6620 C   0  0  0  0  0  0  0  0  0  0  0  0
  -21.2560   -6.7050   23.9080 C   0  0  0  0  0  3  0  0  0  0  0  0
  -21.1810   -5.8750   25.0450 C   0  0  0  0  0  3  0  0  0  0  0  0
  -21.4750   -4.5020   24.9360 C   0  0  0  0  0  0  0  0  0  0  0  0
  -21.8470   -3.9580   23.6940 C   0  0  0  0  0  3  0  0  0  0  0  0
  -21.9240   -4.7860   22.5600 C   0  0  0  0  0  0  0  0  0  0  0  0
  -22.2630   -4.2530   21.3610 F   0  0  0  0  0  0  0  0  0  0  0  0
  -21.3940   -3.7040   26.0250 F   0  0  0  0  0  0  0  0  0  0  0  0
  -22.7400  -13.5550   21.1370 C   0  0  0  0  0  0  0  0  0  0  0  0
  -22.0050  -12.8670   22.0040 N   0  0  0  0  0  0  0  0  0  0  0  0
  -22.3070  -14.5750   20.6020 O   0  0  0  0  0  0  0  0  0  0  0  0
  -22.3660  -12.0420   22.4560 H   0  0  0  0  0  0  0  0  0  0  0  0
  -21.0650  -13.1720   22.2160 H   0  0  0  0  0  0  0  0  0  0  0  0
  -25.3760  -15.2090   20.3260 N   0  0  0  0  0  0  0  0  0  0  0  0
  -24.6090  -15.8640   20.4260 H   0  0  0  0  0  0  0  0  0  0  0  0
  -26.2320  -15.6450   20.0060 H   0  0  0  0  0  0  0  0  0  0  0  0
  1  2  1  0
  1 47  1  0
  2  3  1  0
  4  6  1  0
  4  3  1  0
  5  4  2  0
  7 18  2  0
  8  6  1  0
  8 13  1  0
  9 17  1  0
  9 19  1  0
 10 16  1  0
 10 12  1  0
 11 17  1  0
 12 11  1  0
 13 12  2  0
 14 15  1  0
 14  8  2  0
 15 10  2  0
 16  9  1  0
 17  7  1  0
 19 21  2  0
 20 19  1  0
 22 20  1  0
 23 32  2  0
 23 28  1  0
 24 20  1  0
 24 28  1  0
 25 24  1  0
 26 27  1  0
 26 25  1  0
 27 23  1  0
 28 29  2  0
 29 30  1  0
 31 30  2  0
 32 31  1  0
 33  7  1  0
 33 34  1  0
 33 43  1  0
 34 37  1  0
 35 39  1  0
 35 34  1  0
 36 35  2  0
 39 38  1  0
 41 39  1  0
 41 42  1  0
 41 40  1  0
 43 46  1  1
 43 44  1  0
 45 43  1  0
 48 47  1  0
 49 48  1  0
 50 48  1  0
 51 64  1  0
 52 57  1  0
 53 54  1  0
 53 52  1  0
 55 54  1  0
 55 68  1  0
 55 56  1  0
 57 51  1  0
 57 56  1  0
 58 51  2  0
 59 61  1  0
 60 62  1  0
 60 63  1  0
 62 64  1  0
 63 48  1  0
 63 59  1  0
 64 61  1  0
 65 66  2  0
 66 85  1  0
 67 66  1  0
 67 70  1  0
 68 65  1  0
 68 69  1  0
 69 67  2  0
 70 71  1  0
 71 72  2  0
 73 76  1  0
 73 72  1  0
 74 73  2  0
 75 74  1  0
 75 70  2  0
 76 77  1  0
 77 78  1  0
 78 79  2  0
 80 79  1  0
 80 84  1  0
 81 80  2  0
 82 77  2  0
 82 81  1  0
 83 82  1  0
 85 86  1  0
 86 89  1  0
 86 88  1  0
 87 85  2  0
 90 91  1  0
 90 65  1  0
 92 90  1  0
M  ISO  4   4 101   6 101  51 100  64 100
M  END
>  <TORSDO>  (36) 
F 21

>  <SCORE>  (36) 
-13.616

>  <name>  (36) 
36

>  <ligand_id>  (36) 
36

>  <original_smiles>  (36) 
[H]c1c([H])c([H])c2c(c1[H])C([H])([H])C([H])([H])C([H])([H])C2([H])N([H])C(=O)C1([H])N(C(=O)C([H])(N([H])C(=O)C([H])(N([H])C([H])([H])[H])C([H])([H])[H])C(C([H])([H])[H])(C([H])([H])[H])C([H])([H])[H])C([H])([H])c2c([H])c(OC(=O)C([H])([H])C([H])([H])C([H])([H])C([H])([H])[N+]([H])([H])C3([H])C([H])([H])C([H])([H])N(C(=O)N4C([H])([H])C([H])([H])C([H])([H])C([H])(n5nc(-c6c([H])c([H])c(Oc7c([H])c([H])c(F)c([H])c7F)c([H])c6[H])c(C(=O)N([H])[H])c5N([H])[H])C4([H])[H])C([H])([H])C3([H])[H])c([H])c([H])c2C1([H])[H]

>  <smiles>  (36) 
[H]c1c([H])c([H])c2c(c1[H])C([H])([H])C([H])([H])C([H])([H])C2([H])N([H])C(=O)C1([H])N(C(=O)C([H])(N([H])C(=O)C([H])(N([H])C([H])([H])[H])C([H])([H])[H])C(C([H])([H])[H])(C([H])([H])[H])C([H])([H])[H])C([H])([H])c2c([H])c(OC(=O)C([H])([H])C([H])([H])C([H])([H])C([H])([H])[N+]([H])([H])C3([H])C([H])([H])C([H])([H])N(C(=O)N4C([H])([H])C([H])([H])C([H])([H])C([H])(n5nc(-c6c([H])c([H])c(Oc7c([H])c([H])c(F)c([H])c7F)c([H])c6[H])c(C(=O)N([H])[H])c5N([H])[H])C4([H])[H])C([H])([H])C3([H])[H])c([H])c([H])c2C1([H])[H]

$$$$
37:0:0
     RDKit          3D

 96104  0  0  1  0  0  0  0  0999 V2000
  -28.3970  -18.1480   18.9210 C   0  0  0  0  0  3  0  0  0  0  0  0
  -29.8240  -17.4620   19.0540 C   0  0  0  0  0  3  0  0  0  0  0  0
  -29.8940  -15.8910   19.2570 C   0  0  0  0  0  2  0  0  0  0  0  0
  -30.3010  -14.8820   18.0680 C   0  0  0  0  0  2  0  0  0  0  0  0
  -32.1900  -10.7660   21.4090 C   0  0  0  0  0  0  0  0  0  0  0  0
  -31.1150  -12.0740   22.4670 C   0  0  0  0  0  2  0  0  0  0  0  0
  -30.6950  -12.9020   21.2110 C   0  0  0  0  0  2  0  0  0  0  0  0
  -29.3160  -12.4860   20.6490 C   0  0  0  0  0  2  0  0  0  0  0  0
  -28.7230  -11.6150   21.6980 C   0  0  0  0  0  3  0  0  0  0  0  0
  -29.6260  -10.3630   21.9700 C   0  0  0  0  0  2  0  0  0  0  0  0
  -31.0520  -10.7500   22.1220 N   0  0  0  0  0  0  0  0  0  0  0  0
  -33.2590  -10.9570   22.0810 O   0  0  0  0  0  0  0  0  0  0  0  0
  -33.0650  -12.1790   17.8030 C   0  0  0  0  0  2  0  0  0  0  0  0
  -33.2510  -11.2470   19.0620 C   0  0  0  0  0  2  0  0  0  0  0  0
  -30.8770  -10.9090   18.9200 C   0  0  0  0  0  3  0  0  0  0  0  0
  -32.4190  -13.5830   17.9640 C   0  0  0  0  0  2  0  0  0  0  0  0
  -30.4150  -12.2200   17.9860 C   0  0  0  0  0  3  0  0  0  0  0  0
  -32.0680  -10.9430   19.9400 N   0  0  0  0  0  0  0  0  0  0  0  0
  -31.0040  -13.5680   18.3900 N   0  0  2  0  0  4  0  0  0  0  0  0
  -31.0080  -13.5510   19.4000 H   0  0  0  0  0  0  0  0  0  0  0  0
  -26.5540  -12.6570   21.1510 C   0  0  0  0  0  0  0  0  0  0  0  0
  -25.3100  -12.2010   21.0710 C   0  0  0  0  0  0  0  0  0  0  0  0
  -25.4080  -10.8050   21.3800 C   0  0  0  0  0  0  0  0  0  0  0  0
  -27.3390  -11.5800   21.5220 N   0  0  0  0  0  0  0  0  0  0  0  0
  -26.6630  -10.4390   21.5940 N   0  0  0  0  0  0  0  0  0  0  0  0
  -24.4020   -9.7810   21.4260 C   0  0  0  0  0  0  0  0  0  0  0  0
  -24.3700   -8.8030   22.4480 C   0  0  0  0  0  3  0  0  0  0  0  0
  -23.3610   -7.8200   22.4280 C   0  0  0  0  0  3  0  0  0  0  0  0
  -22.3820   -7.8270   21.4000 C   0  0  0  0  0  0  0  0  0  0  0  0
  -22.4520   -8.7890   20.3690 C   0  0  0  0  0  3  0  0  0  0  0  0
  -23.4610   -9.7560   20.3910 C   0  0  0  0  0  3  0  0  0  0  0  0
  -21.3820   -6.9020   21.3000 O   0  0  0  0  0  0  0  0  0  0  0  0
  -20.9010   -6.2570   22.4140 C   0  0  0  0  0  0  0  0  0  0  0  0
  -20.4180   -6.9650   23.5350 C   0  0  0  0  0  3  0  0  0  0  0  0
  -19.8910   -6.2590   24.6300 C   0  0  0  0  0  3  0  0  0  0  0  0
  -19.8280   -4.8540   24.6030 C   0  0  0  0  0  0  0  0  0  0  0  0
  -20.3130   -4.1520   23.4860 C   0  0  0  0  0  3  0  0  0  0  0  0
  -20.8540   -4.8520   22.3950 C   0  0  0  0  0  0  0  0  0  0  0  0
  -21.3060   -4.1680   21.3140 F   0  0  0  0  0  0  0  0  0  0  0  0
  -19.3060   -4.1820   25.6550 F   0  0  0  0  0  0  0  0  0  0  0  0
  -24.1120  -12.9990   20.6630 C   0  0  0  0  0  0  0  0  0  0  0  0
  -22.9970  -12.7430   21.2940 N   0  0  0  0  0  0  0  0  0  0  0  0
  -24.2070  -13.9080   19.8260 O   0  0  0  0  0  0  0  0  0  0  0  0
  -22.9740  -12.0340   22.0160 H   0  0  0  0  0  0  0  0  0  0  0  0
  -22.1650  -13.2640   21.0610 H   0  0  0  0  0  0  0  0  0  0  0  0
  -27.0880  -13.9260   20.9210 N   0  0  0  0  0  0  0  0  0  0  0  0
  -26.5050  -14.4520   20.2830 H   0  0  0  0  0  0  0  0  0  0  0  0
  -28.0760  -14.0180   20.7740 H   0  0  0  0  0  0  0  0  0  0  0  0
  -28.3990  -19.6900   18.5490 C   0  0  0  0  0  2  0  0  0  0  0  0
  -27.7190  -20.6730   19.4870 N   0  0  0  0  0  4  0  0  0  0  0  0
  -28.0530  -20.5000   20.4190 H   0  0  0  0  0  0  0  0  0  0  0  0
  -26.7450  -20.4160   19.4770 H   0  0  0  0  0  0  0  0  0  0  0  0
  -27.7240  -22.1700   19.1750 C   0  0  0  0  0  2  0  0  0  0  0  0
  -28.4820  -23.2370   20.1520 C   0  0  0  0  0  3  0  0  0  0  0  0
  -27.9080  -24.7430   20.1360 C   0  0  0  0  0  3  0  0  0  0  0  0
  -28.3470  -26.0880   20.7330 O   0  0  0  0  0  0  0  0  0  0  0  0
  -24.5700  -31.8990   23.3340 C   0  0  0  0  0  0  0  0  0  0  0  0
  -27.3420  -27.0990   20.6760 C   0  0  0  0  0  0  0  0  0  0  0  0
  -23.5050  -30.3880   21.7330 C   0  0  0  0  0  3  0  0  0  0  0  0
  -25.0450  -28.8110   20.5020 C   0  0  0  0  0  0  0  0  0  0  0  0
  -26.0770  -30.6820   21.7350 C   0  0  0  0  0  2  0  0  0  0  0  0
  -26.1960  -29.2750   21.1520 C   0  0  0  0  0  0  0  0  0  0  0  0
  -27.3590  -28.4280   21.2520 C   0  0  0  0  0  3  0  0  0  0  0  0
  -26.1550  -26.7640   19.9830 C   0  0  0  0  0  3  0  0  0  0  0  0
  -25.0280  -27.5600   19.9230 C   0  0  0  0  0  3  0  0  0  0  0  0
  -23.8260  -29.6880   20.4070 C   0  0  0  0  0  2  0  0  0  0  0  0
  -24.7330  -31.0060   22.3220 N   0  0  0  0  0  0  0  0  0  0  0  0
  -23.4410  -32.1990   23.7540 O   0  0  0  0  0  0  0  0  0  0  0  0
  -22.7950  -29.3970   22.6900 C   0  0  0  0  0  0  0  0  0  0  0  0
  -21.4770  -29.1950   22.4960 N   0  0  0  0  0  0  0  0  0  0  0  0
  -23.4290  -28.8150   23.5750 O   0  0  0  0  0  0  0  0  0  0  0  0
  -21.0210  -29.7150   21.7610 H   0  0  0  0  0  0  0  0  0  0  0  0
  -18.0640  -28.0930   22.9460 C   0  0  0  0  0  0  0  0  0  0  0  0
  -20.6170  -28.3060   23.2790 C   0  0  0  0  0  3  0  0  0  0  0  0
  -20.7060  -26.8510   22.7660 C   0  0  0  0  0  2  0  0  0  0  0  0
  -19.6220  -26.5120   21.7390 C   0  0  0  0  0  2  0  0  0  0  0  0
  -18.2240  -26.7130   22.3350 C   0  0  0  0  0  2  0  0  0  0  0  0
  -19.1820  -28.8450   23.3780 C   0  0  0  0  0  0  0  0  0  0  0  0
  -18.9780  -30.1370   23.9100 C   0  0  0  0  0  3  0  0  0  0  0  0
  -17.6780  -30.6750   24.0110 C   0  0  0  0  0  3  0  0  0  0  0  0
  -16.5720  -29.9150   23.5960 C   0  0  0  0  0  3  0  0  0  0  0  0
  -16.7600  -28.6260   23.0700 C   0  0  0  0  0  3  0  0  0  0  0  0
  -25.7890  -32.5990   23.9940 C   0  0  0  0  0  3  0  0  0  0  0  0
  -26.2540  -31.8980   25.3260 C   0  0  1  0  0  0  0  0  0  0  0  0
  -25.0990  -31.6030   26.3070 C   0  0  0  0  0  1  0  0  0  0  0  0
  -26.9840  -30.5660   25.0350 C   0  0  0  0  0  1  0  0  0  0  0  0
  -27.2680  -32.8090   26.0580 C   0  0  0  0  0  1  0  0  0  0  0  0
  -25.4090  -33.9960   24.2390 N   0  0  0  0  0  0  0  0  0  0  0  0
  -25.7520  -35.0280   23.4570 C   0  0  0  0  0  0  0  0  0  0  0  0
  -26.5000  -34.9120   22.4810 O   0  0  0  0  0  0  0  0  0  0  0  0
  -24.7570  -34.1660   24.9920 H   0  0  0  0  0  0  0  0  0  0  0  0
  -23.9860  -36.7380   22.9190 C   0  0  0  0  0  1  0  0  0  0  0  0
  -25.1810  -36.4100   23.8270 C   0  0  0  0  0  3  0  0  0  0  0  0
  -27.2090  -37.4210   24.7730 C   0  0  0  0  0  1  0  0  0  0  0  0
  -26.1780  -37.4980   23.7440 N   0  0  0  0  0  0  0  0  0  0  0  0
  -25.7210  -38.4040   23.8180 H   0  0  0  0  0  0  0  0  0  0  0  0
  1  2  2  0
  2  3  1  0
  4 19  1  0
  4  3  1  0
  5 12  2  0
  5 11  1  0
  7  6  1  0
  8  7  1  0
  9  8  1  0
  9 10  1  0
 10 11  1  0
 11  6  1  0
 13 16  1  0
 13 14  1  0
 14 18  1  0
 15 18  1  0
 16 19  1  0
 17 19  1  0
 17 15  2  0
 18  5  1  0
 19 20  1  1
 21 24  1  0
 22 21  2  0
 22 23  1  0
 23 26  1  0
 23 25  2  0
 24 25  1  0
 24  9  1  0
 26 27  1  0
 28 27  2  0
 29 28  1  0
 30 31  1  0
 30 29  2  0
 31 26  2  0
 32 29  1  0
 32 33  1  0
 33 34  1  0
 34 35  2  0
 36 35  1  0
 36 40  1  0
 37 36  2  0
 38 33  2  0
 38 37  1  0
 39 38  1  0
 41 22  1  0
 41 42  1  0
 42 44  1  0
 43 41  2  0
 45 42  1  0
 46 21  1  0
 47 46  1  0
 48 46  1  0
 49  1  1  0
 49 50  1  0
 50 51  1  0
 52 50  1  0
 53 50  1  0
 53 54  1  0
 55 54  2  0
 55 56  1  0
 57 68  2  0
 58 56  1  0
 58 63  1  0
 59 67  1  0
 59 69  1  0
 60 62  1  0
 61 67  1  0
 62 63  2  0
 62 61  1  0
 64 58  2  0
 65 64  1  0
 65 60  2  0
 66 60  1  0
 66 59  1  0
 67 57  1  0
 69 71  2  0
 70 69  1  0
 72 70  1  0
 73 82  2  0
 73 78  1  0
 74 70  1  0
 74 78  1  0
 75 74  1  0
 76 77  1  0
 76 75  1  0
 77 73  1  0
 78 79  2  0
 79 80  1  0
 81 80  2  0
 82 81  1  0
 83 57  1  0
 83 88  1  0
 83 84  1  0
 84 87  1  1
 84 85  1  0
 86 84  1  0
 88 91  1  0
 89 93  1  0
 89 88  1  0
 90 89  2  0
 93 92  1  0
 95 96  1  0
 95 93  1  0
 95 94  1  0
M  ISO  4   5 100  18 100  55 101  56 101
M  END
>  <TORSDO>  (37) 
F 24

>  <SCORE>  (37) 
-9.812

>  <name>  (37) 
37

>  <ligand_id>  (37) 
37

>  <original_smiles>  (37) 
[H]c1c([H])c([H])c2c(c1[H])C([H])([H])C([H])([H])C([H])([H])C2([H])N([H])C(=O)C1([H])N(C(=O)C([H])(N([H])C(=O)C([H])(N([H])C([H])([H])[H])C([H])([H])[H])C(C([H])([H])[H])(C([H])([H])[H])C([H])([H])[H])C([H])([H])c2c([H])c(OC([H])([H])C([H])([H])C([H])([H])[N+]([H])([H])C([H])([H])C([H])([H])C([H])([H])C([H])([H])C([H])([H])[N+]3([H])C([H])([H])C([H])([H])N(C(=O)N4C([H])([H])C([H])([H])C([H])([H])C([H])(n5nc(-c6c([H])c([H])c(Oc7c([H])c([H])c(F)c([H])c7F)c([H])c6[H])c(C(=O)N([H])[H])c5N([H])[H])C4([H])[H])C([H])([H])C([H])([H])C3([H])[H])c([H])c([H])c2C1([H])[H]

>  <smiles>  (37) 
[H]c1c([H])c([H])c2c(c1[H])C([H])([H])C([H])([H])C([H])([H])C2([H])N([H])C(=O)C1([H])N(C(=O)C([H])(N([H])C(=O)C([H])(N([H])C([H])([H])[H])C([H])([H])[H])C(C([H])([H])[H])(C([H])([H])[H])C([H])([H])[H])C([H])([H])c2c([H])c(OC([H])([H])C([H])([H])C([H])([H])[N+]([H])([H])C([H])([H])C([H])([H])C([H])([H])C([H])([H])C([H])([H])[N+]3([H])C([H])([H])C([H])([H])N(C(=O)N4C([H])([H])C([H])([H])C([H])([H])C([H])(n5nc(-c6c([H])c([H])c(Oc7c([H])c([H])c(F)c([H])c7F)c([H])c6[H])c(C(=O)N([H])[H])c5N([H])[H])C4([H])[H])C([H])([H])C([H])([H])C3([H])[H])c([H])c([H])c2C1([H])[H]

$$$$
38:0:0
     RDKit          3D

 95103  0  0  1  0  0  0  0  0999 V2000
  -32.1930  -22.2360   19.6510 C   0  0  0  0  0  3  0  0  0  0  0  0
  -31.1220  -21.8680   18.9490 C   0  0  0  0  0  3  0  0  0  0  0  0
  -31.8530  -23.2250   20.7360 C   0  0  0  0  0  2  0  0  0  0  0  0
  -29.8500  -22.5140   19.4500 C   0  0  0  0  0  3  0  0  0  0  0  0
  -30.3330  -23.5300   20.5250 C   0  0  0  0  0  3  0  0  0  0  0  0
  -28.9000  -21.4520   20.0290 C   0  0  0  0  0  0  0  0  0  0  0  0
  -27.7200  -21.4160   19.6780 O   0  0  0  0  0  0  0  0  0  0  0  0
  -29.4420  -20.3990   21.0020 C   0  0  0  0  0  2  0  0  0  0  0  0
  -29.5420  -19.1430   20.2390 N   0  0  0  0  0  4  0  0  0  0  0  0
  -30.3740  -19.1710   19.6750 H   0  0  0  0  0  0  0  0  0  0  0  0
  -28.7540  -19.1330   19.6120 H   0  0  0  0  0  0  0  0  0  0  0  0
  -29.5240  -17.8960   21.0330 C   0  0  0  0  0  2  0  0  0  0  0  0
  -30.1980  -16.7610   20.2450 C   0  0  0  0  0  2  0  0  0  0  0  0
  -30.6940  -14.3780   20.4160 C   0  0  0  0  0  0  0  0  0  0  0  0
  -30.3410  -12.2400   19.2850 C   0  0  0  0  0  2  0  0  0  0  0  0
  -29.3950  -12.4830   18.0910 C   0  0  0  0  0  2  0  0  0  0  0  0
  -27.9230  -12.3630   18.5290 C   0  0  0  0  0  2  0  0  0  0  0  0
  -27.6090  -13.1910   19.8040 C   0  0  0  0  0  3  0  0  0  0  0  0
  -28.6720  -12.9510   20.9010 C   0  0  0  0  0  2  0  0  0  0  0  0
  -30.0010  -13.2180   20.3250 N   0  0  0  0  0  0  0  0  0  0  0  0
  -31.8150  -14.5390   19.9280 O   0  0  0  0  0  0  0  0  0  0  0  0
  -29.9800  -15.4340   20.8270 N   0  0  0  0  0  0  0  0  0  0  0  0
  -29.0840  -15.2400   21.2490 H   0  0  0  0  0  0  0  0  0  0  0  0
  -25.2120  -13.8180   20.5070 C   0  0  0  0  0  0  0  0  0  0  0  0
  -24.1410  -13.0530   20.8890 C   0  0  0  0  0  0  0  0  0  0  0  0
  -24.5980  -11.6980   20.8620 C   0  0  0  0  0  0  0  0  0  0  0  0
  -26.2530  -12.9290   20.2840 N   0  0  0  0  0  0  0  0  0  0  0  0
  -25.8860  -11.6510   20.5520 N   0  0  0  0  0  0  0  0  0  0  0  0
  -23.8670  -10.4400   21.0600 C   0  0  0  0  0  0  0  0  0  0  0  0
  -24.3190   -9.4640   21.9750 C   0  0  0  0  0  3  0  0  0  0  0  0
  -23.5940   -8.2690   22.1660 C   0  0  0  0  0  3  0  0  0  0  0  0
  -22.4000   -8.0430   21.4420 C   0  0  0  0  0  0  0  0  0  0  0  0
  -21.9670   -9.0080   20.5130 C   0  0  0  0  0  3  0  0  0  0  0  0
  -22.6940  -10.1940   20.3220 C   0  0  0  0  0  3  0  0  0  0  0  0
  -21.6440   -6.9020   21.5400 O   0  0  0  0  0  0  0  0  0  0  0  0
  -21.6370   -6.1350   22.6780 C   0  0  0  0  0  0  0  0  0  0  0  0
  -21.2930   -6.6710   23.9370 C   0  0  0  0  0  3  0  0  0  0  0  0
  -21.2380   -5.8310   25.0690 C   0  0  0  0  0  3  0  0  0  0  0  0
  -21.5170   -4.4590   24.9410 C   0  0  0  0  0  0  0  0  0  0  0  0
  -21.8590   -3.9240   23.6880 C   0  0  0  0  0  3  0  0  0  0  0  0
  -21.9170   -4.7580   22.5580 C   0  0  0  0  0  0  0  0  0  0  0  0
  -22.2240   -4.2320   21.3490 F   0  0  0  0  0  0  0  0  0  0  0  0
  -21.4580   -3.6520   26.0270 F   0  0  0  0  0  0  0  0  0  0  0  0
  -22.7460  -13.5350   21.1620 C   0  0  0  0  0  0  0  0  0  0  0  0
  -22.0180  -12.8520   22.0370 N   0  0  0  0  0  0  0  0  0  0  0  0
  -22.3080  -14.5550   20.6310 O   0  0  0  0  0  0  0  0  0  0  0  0
  -22.3780  -12.0240   22.4890 H   0  0  0  0  0  0  0  0  0  0  0  0
  -21.0820  -13.1640   22.2570 H   0  0  0  0  0  0  0  0  0  0  0  0
  -25.3840  -15.1880   20.3180 N   0  0  0  0  0  0  0  0  0  0  0  0
  -24.6310  -15.8550   20.4400 H   0  0  0  0  0  0  0  0  0  0  0  0
  -26.2360  -15.6130   19.9770 H   0  0  0  0  0  0  0  0  0  0  0  0
  -30.0120  -24.9970   20.1450 C   0  0  0  0  0  0  0  0  0  0  0  0
  -30.9110  -25.8390   20.0320 O   0  0  0  0  0  0  0  0  0  0  0  0
  -28.5410  -25.4090   19.9390 C   0  0  0  0  0  2  0  0  0  0  0  0
  -28.4510  -26.8220   20.1150 O   0  0  0  0  0  0  0  0  0  0  0  0
  -24.6040  -31.8780   23.2230 C   0  0  0  0  0  0  0  0  0  0  0  0
  -27.2280  -27.4520   20.1270 C   0  0  0  0  0  0  0  0  0  0  0  0
  -23.3770  -30.4750   21.5930 C   0  0  0  0  0  3  0  0  0  0  0  0
  -24.8170  -28.9250   20.1660 C   0  0  0  0  0  0  0  0  0  0  0  0
  -25.8960  -30.8380   21.3670 C   0  0  0  0  0  2  0  0  0  0  0  0
  -25.9750  -29.4640   20.7330 C   0  0  0  0  0  0  0  0  0  0  0  0
  -27.1800  -28.7360   20.7060 C   0  0  0  0  0  3  0  0  0  0  0  0
  -26.0520  -26.9060   19.5640 C   0  0  0  0  0  3  0  0  0  0  0  0
  -24.8470  -27.6420   19.5820 C   0  0  0  0  0  3  0  0  0  0  0  0
  -23.5700  -29.7810   20.2160 C   0  0  0  0  0  2  0  0  0  0  0  0
  -24.6430  -31.0780   22.1210 N   0  0  0  0  0  0  0  0  0  0  0  0
  -23.5290  -32.1560   23.7740 O   0  0  0  0  0  0  0  0  0  0  0  0
  -22.7330  -29.4610   22.5650 C   0  0  0  0  0  0  0  0  0  0  0  0
  -21.4070  -29.2850   22.4500 N   0  0  0  0  0  0  0  0  0  0  0  0
  -23.4230  -28.8340   23.3740 O   0  0  0  0  0  0  0  0  0  0  0  0
  -20.9140  -29.8420   21.7660 H   0  0  0  0  0  0  0  0  0  0  0  0
  -18.0340  -28.1030   22.9690 C   0  0  0  0  0  0  0  0  0  0  0  0
  -20.5930  -28.3530   23.2280 C   0  0  0  0  0  3  0  0  0  0  0  0
  -20.6890  -26.9190   22.6550 C   0  0  0  0  0  2  0  0  0  0  0  0
  -19.5810  -26.5970   21.6480 C   0  0  0  0  0  2  0  0  0  0  0  0
  -18.2030  -26.7510   22.2980 C   0  0  0  0  0  2  0  0  0  0  0  0
  -19.1580  -28.8630   23.3910 C   0  0  0  0  0  0  0  0  0  0  0  0
  -18.9480  -30.1300   23.9770 C   0  0  0  0  0  3  0  0  0  0  0  0
  -17.6460  -30.6380   24.1450 C   0  0  0  0  0  3  0  0  0  0  0  0
  -16.5360  -29.8760   23.7410 C   0  0  0  0  0  3  0  0  0  0  0  0
  -16.7320  -28.6110   23.1600 C   0  0  0  0  0  3  0  0  0  0  0  0
  -25.9000  -32.5040   23.8290 C   0  0  0  0  0  3  0  0  0  0  0  0
  -25.5990  -33.8990   24.1780 N   0  0  0  0  0  0  0  0  0  0  0  0
  -25.9230  -34.9560   23.4210 C   0  0  0  0  0  0  0  0  0  0  0  0
  -26.5760  -34.8600   22.3800 O   0  0  0  0  0  0  0  0  0  0  0  0
  -25.0200  -34.0490   24.9910 H   0  0  0  0  0  0  0  0  0  0  0  0
  -24.1870  -36.7460   23.1080 C   0  0  0  0  0  1  0  0  0  0  0  0
  -25.4430  -36.3410   23.8950 C   0  0  0  0  0  3  0  0  0  0  0  0
  -27.5910  -37.2210   24.6960 C   0  0  0  0  0  1  0  0  0  0  0  0
  -26.4750  -37.3940   23.7690 N   0  0  0  0  0  0  0  0  0  0  0  0
  -26.0730  -38.3150   23.9270 H   0  0  0  0  0  0  0  0  0  0  0  0
  -26.4430  -31.7200   25.0860 C   0  0  1  0  0  0  0  0  0  0  0  0
  -25.3700  -31.4690   26.1720 C   0  0  0  0  0  1  0  0  0  0  0  0
  -27.0160  -30.3470   24.6650 C   0  0  0  0  0  1  0  0  0  0  0  0
  -27.6080  -32.5060   25.7320 C   0  0  0  0  0  1  0  0  0  0  0  0
  1  3  1  0
  2  4  1  0
  2  1  2  0
  4  6  1  0
  4  5  1  0
  5 52  1  0
  5  3  1  0
  6  8  1  0
  7  6  2  0
  9  8  1  0
  9 12  1  0
 10  9  1  0
 11  9  1  0
 13 22  1  0
 13 12  1  0
 14 22  1  0
 15 20  1  0
 16 17  1  0
 16 15  1  0
 18 17  1  0
 18 27  1  0
 18 19  1  0
 20 14  1  0
 20 19  1  0
 21 14  2  0
 22 23  1  0
 24 25  2  0
 25 44  1  0
 26 25  1  0
 26 29  1  0
 27 24  1  0
 27 28  1  0
 28 26  2  0
 29 30  1  0
 30 31  2  0
 32 35  1  0
 32 31  1  0
 33 32  2  0
 34 33  1  0
 34 29  2  0
 35 36  1  0
 36 37  1  0
 37 38  2  0
 39 38  1  0
 39 43  1  0
 40 39  2  0
 41 36  2  0
 41 40  1  0
 42 41  1  0
 44 45  1  0
 45 48  1  0
 45 47  1  0
 46 44  2  0
 49 50  1  0
 49 24  1  0
 51 49  1  0
 53 52  2  0
 54 55  1  0
 54 52  1  0
 55 57  1  0
 56 67  2  0
 57 62  1  0
 58 66  1  0
 58 68  1  0
 59 65  1  0
 59 61  1  0
 60 66  1  0
 61 60  1  0
 62 61  2  0
 63 64  1  0
 63 57  2  0
 64 59  2  0
 65 58  1  0
 66 56  1  0
 68 70  2  0
 69 68  1  0
 71 69  1  0
 72 81  2  0
 72 77  1  0
 73 69  1  0
 73 77  1  0
 74 73  1  0
 75 76  1  0
 75 74  1  0
 76 72  1  0
 77 78  2  0
 78 79  1  0
 80 79  2  0
 81 80  1  0
 82 56  1  0
 82 83  1  0
 82 92  1  0
 83 86  1  0
 84 88  1  0
 84 83  1  0
 85 84  2  0
 88 87  1  0
 90 88  1  0
 90 91  1  0
 90 89  1  0
 92 95  1  1
 92 93  1  0
 94 92  1  0
M  ISO  4  14 100  22 100  54 101  55 101
M  END
>  <TORSDO>  (38) 
F 23

>  <SCORE>  (38) 
-12.628

>  <name>  (38) 
38

>  <ligand_id>  (38) 
38

>  <original_smiles>  (38) 
[H]C1=C([H])C([H])(C(=O)C([H])([H])[N+]([H])([H])C([H])([H])C([H])([H])N([H])C(=O)N2C([H])([H])C([H])([H])C([H])([H])C([H])(n3nc(-c4c([H])c([H])c(Oc5c([H])c([H])c(F)c([H])c5F)c([H])c4[H])c(C(=O)N([H])[H])c3N([H])[H])C2([H])[H])C([H])(C(=O)C([H])([H])Oc2c([H])c([H])c3c(c2[H])C([H])([H])N(C(=O)C([H])(N([H])C(=O)C([H])(N([H])C([H])([H])[H])C([H])([H])[H])C(C([H])([H])[H])(C([H])([H])[H])C([H])([H])[H])C([H])(C(=O)N([H])C2([H])c4c([H])c([H])c([H])c([H])c4C([H])([H])C([H])([H])C2([H])[H])C3([H])[H])C1([H])[H]

>  <smiles>  (38) 
[H]C1=C([H])C([H])(C(=O)C([H])([H])[N+]([H])([H])C([H])([H])C([H])([H])N([H])C(=O)N2C([H])([H])C([H])([H])C([H])([H])C([H])(n3nc(-c4c([H])c([H])c(Oc5c([H])c([H])c(F)c([H])c5F)c([H])c4[H])c(C(=O)N([H])[H])c3N([H])[H])C2([H])[H])C([H])(C(=O)C([H])([H])Oc2c([H])c([H])c3c(c2[H])C([H])([H])N(C(=O)C([H])(N([H])C(=O)C([H])(N([H])C([H])([H])[H])C([H])([H])[H])C(C([H])([H])[H])(C([H])([H])[H])C([H])([H])[H])C([H])(C(=O)N([H])C2([H])c4c([H])c([H])c([H])c([H])c4C([H])([H])C([H])([H])C2([H])[H])C3([H])[H])C1([H])[H]

$$$$
39:0:0
     RDKit          3D

 98106  0  0  1  0  0  0  0  0999 V2000
  -30.3220  -21.5350   20.5590 C   0  0  0  0  0  2  0  0  0  0  0  0
  -31.1410  -22.7490   20.1000 C   0  0  0  0  0  0  0  0  0  0  0  0
  -30.4910  -23.9230   20.0890 N   0  0  0  0  0  0  0  0  0  0  0  0
  -32.3210  -22.6300   19.7630 O   0  0  0  0  0  0  0  0  0  0  0  0
  -29.5280  -23.9100   20.4010 H   0  0  0  0  0  0  0  0  0  0  0  0
  -31.0130  -25.2280   19.6820 C   0  0  0  0  0  2  0  0  0  0  0  0
  -30.8090  -26.2740   20.7990 C   0  0  0  0  0  2  0  0  0  0  0  0
  -29.7330  -27.3460   20.5330 C   0  0  0  0  0  2  0  0  0  0  0  0
  -28.4700  -26.7590   20.2020 O   0  0  0  0  0  0  0  0  0  0  0  0
  -24.6010  -31.9380   23.2650 C   0  0  0  0  0  0  0  0  0  0  0  0
  -27.3290  -27.5370   20.2300 C   0  0  0  0  0  0  0  0  0  0  0  0
  -23.4110  -30.5220   21.6190 C   0  0  0  0  0  3  0  0  0  0  0  0
  -24.8880  -28.9850   20.2180 C   0  0  0  0  0  0  0  0  0  0  0  0
  -25.9260  -30.9160   21.4210 C   0  0  0  0  0  2  0  0  0  0  0  0
  -26.0330  -29.5400   20.7990 C   0  0  0  0  0  0  0  0  0  0  0  0
  -27.2500  -28.8320   20.8010 C   0  0  0  0  0  3  0  0  0  0  0  0
  -26.1600  -26.9850   19.6590 C   0  0  0  0  0  3  0  0  0  0  0  0
  -24.9440  -27.7020   19.6430 C   0  0  0  0  0  3  0  0  0  0  0  0
  -23.6330  -29.8300   20.2460 C   0  0  0  0  0  2  0  0  0  0  0  0
  -24.6640  -31.1390   22.1630 N   0  0  0  0  0  0  0  0  0  0  0  0
  -23.5160  -32.2060   23.8000 O   0  0  0  0  0  0  0  0  0  0  0  0
  -22.7590  -29.5050   22.5820 C   0  0  0  0  0  0  0  0  0  0  0  0
  -21.4400  -29.3010   22.4310 N   0  0  0  0  0  0  0  0  0  0  0  0
  -23.4360  -28.9010   23.4180 O   0  0  0  0  0  0  0  0  0  0  0  0
  -20.9560  -29.8400   21.7280 H   0  0  0  0  0  0  0  0  0  0  0  0
  -18.0780  -28.0570   22.8610 C   0  0  0  0  0  0  0  0  0  0  0  0
  -20.6220  -28.3630   23.1980 C   0  0  0  0  0  3  0  0  0  0  0  0
  -20.7640  -26.9240   22.6490 C   0  0  0  0  0  2  0  0  0  0  0  0
  -19.6970  -26.5680   21.6100 C   0  0  0  0  0  2  0  0  0  0  0  0
  -18.2960  -26.6990   22.2120 C   0  0  0  0  0  2  0  0  0  0  0  0
  -19.1710  -28.8430   23.3080 C   0  0  0  0  0  0  0  0  0  0  0  0
  -18.9160  -30.1140   23.8720 C   0  0  0  0  0  3  0  0  0  0  0  0
  -17.6000  -30.5950   23.9940 C   0  0  0  0  0  3  0  0  0  0  0  0
  -16.5210  -29.8060   23.5630 C   0  0  0  0  0  3  0  0  0  0  0  0
  -16.7600  -28.5390   23.0030 C   0  0  0  0  0  3  0  0  0  0  0  0
  -25.8820  -32.5760   23.8890 C   0  0  0  0  0  3  0  0  0  0  0  0
  -26.3980  -31.8110   25.1680 C   0  0  1  0  0  0  0  0  0  0  0  0
  -25.3000  -31.5660   26.2300 C   0  0  0  0  0  1  0  0  0  0  0  0
  -26.9920  -30.4370   24.7740 C   0  0  0  0  0  1  0  0  0  0  0  0
  -27.5360  -32.6150   25.8370 C   0  0  0  0  0  1  0  0  0  0  0  0
  -25.5700  -33.9750   24.2070 N   0  0  0  0  0  0  0  0  0  0  0  0
  -25.9160  -35.0210   23.4470 C   0  0  0  0  0  0  0  0  0  0  0  0
  -26.6020  -34.9120   22.4260 O   0  0  0  0  0  0  0  0  0  0  0  0
  -24.9620  -34.1340   24.9980 H   0  0  0  0  0  0  0  0  0  0  0  0
  -24.2030  -36.8160   23.0420 C   0  0  0  0  0  1  0  0  0  0  0  0
  -25.4210  -36.4120   23.8870 C   0  0  0  0  0  3  0  0  0  0  0  0
  -27.5370  -37.2930   24.7680 C   0  0  0  0  0  1  0  0  0  0  0  0
  -26.4600  -37.4620   23.7970 N   0  0  0  0  0  0  0  0  0  0  0  0
  -26.0520  -38.3840   23.9310 H   0  0  0  0  0  0  0  0  0  0  0  0
  -30.7010  -20.1950   19.8760 C   0  0  0  0  0  2  0  0  0  0  0  0
  -27.7580  -18.1180   19.3480 C   0  0  0  0  0  2  0  0  0  0  0  0
  -28.3660  -19.4590   19.7300 C   0  0  0  0  0  2  0  0  0  0  0  0
  -28.9650  -17.3420   18.8370 C   0  0  0  0  0  3  0  0  0  0  0  0
  -30.0760  -17.7630   19.8260 C   0  0  0  0  0  3  0  0  0  0  0  0
  -29.7220  -19.1470   20.2080 N   0  0  0  0  0  0  0  0  0  0  0  0
  -29.3130  -17.7110   17.4500 N   0  0  0  0  0  4  0  0  0  0  0  0
  -30.1840  -17.2860   17.1860 H   0  0  0  0  0  0  0  0  0  0  0  0
  -29.4130  -18.7060   17.3590 H   0  0  0  0  0  0  0  0  0  0  0  0
  -28.6070  -17.3970   16.8050 H   0  0  0  0  0  0  0  0  0  0  0  0
  -30.1260  -16.9450   21.1580 C   0  0  0  0  0  2  0  0  0  0  0  0
  -30.6550  -14.5470   20.5090 C   0  0  0  0  0  0  0  0  0  0  0  0
  -30.3960  -12.4240   19.2880 C   0  0  0  0  0  2  0  0  0  0  0  0
  -29.4450  -12.6620   18.0960 C   0  0  0  0  0  2  0  0  0  0  0  0
  -27.9730  -12.4890   18.5270 C   0  0  0  0  0  2  0  0  0  0  0  0
  -27.6300  -13.3010   19.8030 C   0  0  0  0  0  3  0  0  0  0  0  0
  -28.6820  -13.0320   20.9030 C   0  0  0  0  0  2  0  0  0  0  0  0
  -30.0110  -13.3620   20.3500 N   0  0  0  0  0  0  0  0  0  0  0  0
  -31.7670  -14.7950   20.0400 O   0  0  0  0  0  0  0  0  0  0  0  0
  -29.8870  -15.5020   21.0530 N   0  0  0  0  0  0  0  0  0  0  0  0
  -28.9930  -15.1850   21.3990 H   0  0  0  0  0  0  0  0  0  0  0  0
  -25.2230  -13.9000   20.5050 C   0  0  0  0  0  0  0  0  0  0  0  0
  -24.1590  -13.1200   20.8680 C   0  0  0  0  0  0  0  0  0  0  0  0
  -24.6330  -11.7740   20.8460 C   0  0  0  0  0  0  0  0  0  0  0  0
  -26.2760  -13.0240   20.2770 N   0  0  0  0  0  0  0  0  0  0  0  0
  -25.9230  -11.7420   20.5450 N   0  0  0  0  0  0  0  0  0  0  0  0
  -23.9190  -10.5060   21.0390 C   0  0  0  0  0  0  0  0  0  0  0  0
  -24.3470   -9.5590   21.9960 C   0  0  0  0  0  3  0  0  0  0  0  0
  -23.6330   -8.3550   22.1770 C   0  0  0  0  0  3  0  0  0  0  0  0
  -22.4790   -8.0860   21.4010 C   0  0  0  0  0  0  0  0  0  0  0  0
  -22.0710   -9.0260   20.4390 C   0  0  0  0  0  3  0  0  0  0  0  0
  -22.7860  -10.2210   20.2530 C   0  0  0  0  0  3  0  0  0  0  0  0
  -21.7400   -6.9320   21.4900 O   0  0  0  0  0  0  0  0  0  0  0  0
  -21.6660   -6.2120   22.6540 C   0  0  0  0  0  0  0  0  0  0  0  0
  -21.1770   -6.7790   23.8500 C   0  0  0  0  0  3  0  0  0  0  0  0
  -21.0450   -5.9810   25.0050 C   0  0  0  0  0  3  0  0  0  0  0  0
  -21.3980   -4.6190   24.9650 C   0  0  0  0  0  0  0  0  0  0  0  0
  -21.8850   -4.0540   23.7730 C   0  0  0  0  0  3  0  0  0  0  0  0
  -22.0150   -4.8460   22.6200 C   0  0  0  0  0  0  0  0  0  0  0  0
  -22.4590   -4.2900   21.4680 F   0  0  0  0  0  0  0  0  0  0  0  0
  -21.2690   -3.8510   26.0720 F   0  0  0  0  0  0  0  0  0  0  0  0
  -22.7550  -13.5880   21.1370 C   0  0  0  0  0  0  0  0  0  0  0  0
  -22.0290  -12.8830   21.9970 N   0  0  0  0  0  0  0  0  0  0  0  0
  -22.3110  -14.6120   20.6190 O   0  0  0  0  0  0  0  0  0  0  0  0
  -22.4000  -12.0560   22.4420 H   0  0  0  0  0  0  0  0  0  0  0  0
  -21.0840  -13.1740   22.2080 H   0  0  0  0  0  0  0  0  0  0  0  0
  -25.3760  -15.2730   20.3360 N   0  0  0  0  0  0  0  0  0  0  0  0
  -24.6060  -15.9170   20.4890 H   0  0  0  0  0  0  0  0  0  0  0  0
  -26.2340  -15.7330   20.0660 H   0  0  0  0  0  0  0  0  0  0  0  0
  2  1  1  0
  3  2  1  0
  3  5  1  0
  4  2  2  0
  6  3  1  0
  6  7  1  0
  8  7  1  0
  9 11  1  0
  9  8  1  0
 10 21  2  0
 11 16  1  0
 12 20  1  0
 12 22  1  0
 13 19  1  0
 13 15  1  0
 14 20  1  0
 15 16  2  0
 15 14  1  0
 17 11  2  0
 18 17  1  0
 18 13  2  0
 19 12  1  0
 20 10  1  0
 22 24  2  0
 23 22  1  0
 25 23  1  0
 26 35  2  0
 26 31  1  0
 27 23  1  0
 27 31  1  0
 28 27  1  0
 29 30  1  0
 29 28  1  0
 30 26  1  0
 31 32  2  0
 32 33  1  0
 34 33  2  0
 35 34  1  0
 36 10  1  0
 36 41  1  0
 36 37  1  0
 37 40  1  1
 37 38  1  0
 39 37  1  0
 41 44  1  0
 42 46  1  0
 42 41  1  0
 43 42  2  0
 46 45  1  0
 48 46  1  0
 48 49  1  0
 48 47  1  0
 50 55  1  0
 50  1  1  0
 51 52  1  0
 52 55  1  0
 53 56  1  0
 53 51  1  0
 53 54  1  0
 54 55  1  0
 54 60  1  0
 57 56  1  0
 58 56  1  0
 59 56  1  0
 61 69  1  0
 62 67  1  0
 63 64  1  0
 63 62  1  0
 65 64  1  0
 65 74  1  0
 65 66  1  0
 67 61  1  0
 67 66  1  0
 68 61  2  0
 69 60  1  0
 69 70  1  0
 71 72  2  0
 72 91  1  0
 73 72  1  0
 73 76  1  0
 74 71  1  0
 74 75  1  0
 75 73  2  0
 76 77  1  0
 77 78  2  0
 79 82  1  0
 79 78  1  0
 80 79  2  0
 81 80  1  0
 81 76  2  0
 82 83  1  0
 83 84  1  0
 84 85  2  0
 86 85  1  0
 86 90  1  0
 87 86  2  0
 88 83  2  0
 88 87  1  0
 89 88  1  0
 91 92  1  0
 92 95  1  0
 92 94  1  0
 93 91  2  0
 96 97  1  0
 96 71  1  0
 98 96  1  0
M  ISO  4   8 101   9 101  61 100  69 100
M  END
>  <TORSDO>  (39) 
F 24

>  <SCORE>  (39) 
-13.006

>  <name>  (39) 
39

>  <ligand_id>  (39) 
39

>  <original_smiles>  (39) 
[H]c1c([H])c([H])c2c(c1[H])C([H])([H])C([H])([H])C([H])([H])C2([H])N([H])C(=O)C1([H])N(C(=O)C([H])(N([H])C(=O)C([H])(N([H])C([H])([H])[H])C([H])([H])[H])C(C([H])([H])[H])(C([H])([H])[H])C([H])([H])[H])C([H])([H])c2c([H])c(OC([H])([H])C([H])([H])C([H])([H])N([H])C(=O)C([H])([H])C([H])([H])N3C([H])([H])C([H])([H])C([H])([N+]([H])([H])[H])C3([H])C([H])([H])N([H])C(=O)N3C([H])([H])C([H])([H])C([H])([H])C([H])(n4nc(-c5c([H])c([H])c(Oc6c([H])c([H])c(F)c([H])c6F)c([H])c5[H])c(C(=O)N([H])[H])c4N([H])[H])C3([H])[H])c([H])c([H])c2C1([H])[H]

>  <smiles>  (39) 
[H]c1c([H])c([H])c2c(c1[H])C([H])([H])C([H])([H])C([H])([H])C2([H])N([H])C(=O)C1([H])N(C(=O)C([H])(N([H])C(=O)C([H])(N([H])C([H])([H])[H])C([H])([H])[H])C(C([H])([H])[H])(C([H])([H])[H])C([H])([H])[H])C([H])([H])c2c([H])c(OC([H])([H])C([H])([H])C([H])([H])N([H])C(=O)C([H])([H])C([H])([H])N3C([H])([H])C([H])([H])C([H])([N+]([H])([H])[H])C3([H])C([H])([H])N([H])C(=O)N3C([H])([H])C([H])([H])C([H])([H])C([H])(n4nc(-c5c([H])c([H])c(Oc6c([H])c([H])c(F)c([H])c6F)c([H])c5[H])c(C(=O)N([H])[H])c4N([H])[H])C3([H])[H])c([H])c([H])c2C1([H])[H]

$$$$
40:0:0
     RDKit          3D

 93102  0  0  1  0  0  0  0  0999 V2000
  -31.5020  -20.0940   21.4510 C   0  0  0  0  0  2  0  0  0  0  0  0
  -29.2180  -19.0270   19.8130 C   0  0  0  0  0  2  0  0  0  0  0  0
  -30.2920  -21.0890   21.5220 C   0  0  0  0  0  2  0  0  0  0  0  0
  -30.4410  -18.0990   20.0990 C   0  0  0  0  0  3  0  0  0  0  0  0
  -31.5480  -19.1800   20.1810 C   0  0  0  0  0  3  0  0  0  0  0  0
  -29.8220  -20.3760   19.2450 C   0  0  0  0  0  3  0  0  0  0  0  0
  -31.6100  -19.5750   17.6940 C   0  0  0  0  0  1  0  0  0  0  0  0
  -29.8830  -21.5340   20.1760 N   0  0  0  0  0  0  0  0  0  0  0  0
  -31.2490  -20.0690   19.0440 N   0  0  2  0  0  4  0  0  0  0  0  0
  -31.7630  -20.9290   19.1680 H   0  0  0  0  0  0  0  0  0  0  0  0
  -30.4170  -17.0270   21.2540 C   0  0  0  0  0  2  0  0  0  0  0  0
  -30.6450  -14.5930   20.4610 C   0  0  0  0  0  0  0  0  0  0  0  0
  -30.3690  -12.4060   19.3210 C   0  0  0  0  0  2  0  0  0  0  0  0
  -29.4250  -12.5730   18.1120 C   0  0  0  0  0  2  0  0  0  0  0  0
  -27.9530  -12.4230   18.5430 C   0  0  0  0  0  2  0  0  0  0  0  0
  -27.6070  -13.2730   19.7950 C   0  0  0  0  0  3  0  0  0  0  0  0
  -28.6620  -13.0860   20.9060 C   0  0  0  0  0  2  0  0  0  0  0  0
  -29.9770  -13.4080   20.3300 N   0  0  0  0  0  0  0  0  0  0  0  0
  -31.7980  -14.7430   20.0510 O   0  0  0  0  0  0  0  0  0  0  0  0
  -29.9280  -15.6520   20.9240 N   0  0  0  0  0  0  0  0  0  0  0  0
  -28.9740  -15.4460   21.1810 H   0  0  0  0  0  0  0  0  0  0  0  0
  -25.2090  -13.8820   20.4940 C   0  0  0  0  0  0  0  0  0  0  0  0
  -24.1390  -13.1130   20.8620 C   0  0  0  0  0  0  0  0  0  0  0  0
  -24.6000  -11.7600   20.8430 C   0  0  0  0  0  0  0  0  0  0  0  0
  -26.2540  -12.9990   20.2730 N   0  0  0  0  0  0  0  0  0  0  0  0
  -25.8910  -11.7180   20.5420 N   0  0  0  0  0  0  0  0  0  0  0  0
  -23.8700  -10.5000   21.0360 C   0  0  0  0  0  0  0  0  0  0  0  0
  -24.3040   -9.5330   21.9690 C   0  0  0  0  0  3  0  0  0  0  0  0
  -23.5760   -8.3360   22.1510 C   0  0  0  0  0  3  0  0  0  0  0  0
  -22.4000   -8.1010   21.3990 C   0  0  0  0  0  0  0  0  0  0  0  0
  -21.9860   -9.0570   20.4570 C   0  0  0  0  0  3  0  0  0  0  0  0
  -22.7150  -10.2440   20.2720 C   0  0  0  0  0  3  0  0  0  0  0  0
  -21.6440   -6.9580   21.4910 O   0  0  0  0  0  0  0  0  0  0  0  0
  -21.6030   -6.2110   22.6410 C   0  0  0  0  0  0  0  0  0  0  0  0
  -21.1930   -6.7640   23.8740 C   0  0  0  0  0  3  0  0  0  0  0  0
  -21.0990   -5.9440   25.0160 C   0  0  0  0  0  3  0  0  0  0  0  0
  -21.4060   -4.5730   24.9280 C   0  0  0  0  0  0  0  0  0  0  0  0
  -21.8080   -4.0190   23.7000 C   0  0  0  0  0  3  0  0  0  0  0  0
  -21.9030   -4.8360   22.5590 C   0  0  0  0  0  0  0  0  0  0  0  0
  -22.2720   -4.2940   21.3730 F   0  0  0  0  0  0  0  0  0  0  0  0
  -21.3080   -3.7840   26.0230 F   0  0  0  0  0  0  0  0  0  0  0  0
  -22.7410  -13.5930   21.1230 C   0  0  0  0  0  0  0  0  0  0  0  0
  -22.0080  -12.9030   21.9900 N   0  0  0  0  0  0  0  0  0  0  0  0
  -22.3070  -14.6160   20.5940 O   0  0  0  0  0  0  0  0  0  0  0  0
  -22.3720  -12.0750   22.4390 H   0  0  0  0  0  0  0  0  0  0  0  0
  -21.0700  -13.2060   22.2080 H   0  0  0  0  0  0  0  0  0  0  0  0
  -25.3770  -15.2510   20.3080 N   0  0  0  0  0  0  0  0  0  0  0  0
  -24.6090  -15.9060   20.4040 H   0  0  0  0  0  0  0  0  0  0  0  0
  -26.2260  -15.6850   19.9690 H   0  0  0  0  0  0  0  0  0  0  0  0
  -28.7910  -22.5410   20.1010 C   0  0  0  0  0  2  0  0  0  0  0  0
  -29.2080  -24.0460   20.3620 C   0  0  0  0  0  2  0  0  0  0  0  0
  -28.0960  -25.0980   19.9960 C   0  0  0  0  0  2  0  0  0  0  0  0
  -28.3200  -26.5330   20.2290 O   0  0  0  0  0  0  0  0  0  0  0  0
  -24.6040  -31.9130   23.2410 C   0  0  0  0  0  0  0  0  0  0  0  0
  -27.1940  -27.3670   20.1770 C   0  0  0  0  0  0  0  0  0  0  0  0
  -23.3900  -30.5200   21.6040 C   0  0  0  0  0  3  0  0  0  0  0  0
  -24.8290  -28.9690   20.1770 C   0  0  0  0  0  0  0  0  0  0  0  0
  -25.9280  -30.8320   21.4150 C   0  0  0  0  0  2  0  0  0  0  0  0
  -26.0010  -29.4570   20.7690 C   0  0  0  0  0  0  0  0  0  0  0  0
  -27.1860  -28.6670   20.7620 C   0  0  0  0  0  3  0  0  0  0  0  0
  -25.9970  -26.9290   19.5580 C   0  0  0  0  0  3  0  0  0  0  0  0
  -24.8280  -27.7080   19.5650 C   0  0  0  0  0  3  0  0  0  0  0  0
  -23.5960  -29.8450   20.2240 C   0  0  0  0  0  2  0  0  0  0  0  0
  -24.6590  -31.1040   22.1430 N   0  0  0  0  0  0  0  0  0  0  0  0
  -23.5240  -32.1960   23.7780 O   0  0  0  0  0  0  0  0  0  0  0  0
  -22.7240  -29.5040   22.5640 C   0  0  0  0  0  0  0  0  0  0  0  0
  -21.3970  -29.3360   22.4390 N   0  0  0  0  0  0  0  0  0  0  0  0
  -23.4000  -28.8730   23.3800 O   0  0  0  0  0  0  0  0  0  0  0  0
  -20.9120  -29.8980   21.7530 H   0  0  0  0  0  0  0  0  0  0  0  0
  -18.0090  -28.1780   22.9520 C   0  0  0  0  0  0  0  0  0  0  0  0
  -20.5720  -28.4060   23.2100 C   0  0  0  0  0  3  0  0  0  0  0  0
  -20.6550  -26.9750   22.6330 C   0  0  0  0  0  2  0  0  0  0  0  0
  -19.5440  -26.6670   21.6230 C   0  0  0  0  0  2  0  0  0  0  0  0
  -18.1680  -26.8270   22.2730 C   0  0  0  0  0  2  0  0  0  0  0  0
  -19.1400  -28.9260   23.3780 C   0  0  0  0  0  0  0  0  0  0  0  0
  -18.9400  -30.1900   23.9730 C   0  0  0  0  0  3  0  0  0  0  0  0
  -17.6420  -30.7080   24.1450 C   0  0  0  0  0  3  0  0  0  0  0  0
  -16.5260  -29.9580   23.7350 C   0  0  0  0  0  3  0  0  0  0  0  0
  -16.7120  -28.6930   23.1460 C   0  0  0  0  0  3  0  0  0  0  0  0
  -25.8920  -32.5380   23.8590 C   0  0  0  0  0  3  0  0  0  0  0  0
  -26.4080  -31.7630   25.1340 C   0  0  1  0  0  0  0  0  0  0  0  0
  -25.3140  -31.5290   26.2030 C   0  0  0  0  0  1  0  0  0  0  0  0
  -26.9830  -30.3830   24.7410 C   0  0  0  0  0  1  0  0  0  0  0  0
  -27.5630  -32.5520   25.7940 C   0  0  0  0  0  1  0  0  0  0  0  0
  -25.5900  -33.9370   24.1900 N   0  0  0  0  0  0  0  0  0  0  0  0
  -25.9200  -34.9880   23.4290 C   0  0  0  0  0  0  0  0  0  0  0  0
  -26.5840  -34.8830   22.3930 O   0  0  0  0  0  0  0  0  0  0  0  0
  -24.9990  -34.0930   24.9940 H   0  0  0  0  0  0  0  0  0  0  0  0
  -24.1960  -36.7870   23.0850 C   0  0  0  0  0  1  0  0  0  0  0  0
  -25.4400  -36.3780   23.8890 C   0  0  0  0  0  3  0  0  0  0  0  0
  -27.5840  -37.2560   24.7050 C   0  0  0  0  0  1  0  0  0  0  0  0
  -26.4760  -37.4280   23.7690 N   0  0  0  0  0  0  0  0  0  0  0  0
  -26.0740  -38.3490   23.9210 H   0  0  0  0  0  0  0  0  0  0  0  0
  1  3  1  0
  2  4  1  0
  4  5  1  0
  4 11  1  0
  5  1  1  0
  6  2  1  0
  6  8  1  0
  7  9  1  0
  8  3  1  0
  9 10  1  1
  9  6  1  0
  9  5  1  0
 12 20  1  0
 13 18  1  0
 14 15  1  0
 14 13  1  0
 16 15  1  0
 16 25  1  0
 16 17  1  0
 18 12  1  0
 18 17  1  0
 19 12  2  0
 20 21  1  0
 20 11  1  0
 22 23  2  0
 23 42  1  0
 24 23  1  0
 24 27  1  0
 25 22  1  0
 25 26  1  0
 26 24  2  0
 27 28  1  0
 28 29  2  0
 30 33  1  0
 30 29  1  0
 31 30  2  0
 32 31  1  0
 32 27  2  0
 33 34  1  0
 34 35  1  0
 35 36  2  0
 37 36  1  0
 37 41  1  0
 38 37  2  0
 39 34  2  0
 39 38  1  0
 40 39  1  0
 42 43  1  0
 43 46  1  0
 43 45  1  0
 44 42  2  0
 47 48  1  0
 47 22  1  0
 49 47  1  0
 50  8  1  0
 50 51  1  0
 52 53  1  0
 52 51  1  0
 54 65  2  0
 55 53  1  0
 55 60  1  0
 56 64  1  0
 56 66  1  0
 57 63  1  0
 57 59  1  0
 58 64  1  0
 59 58  1  0
 60 59  2  0
 61 62  1  0
 61 55  2  0
 62 57  2  0
 63 56  1  0
 64 54  1  0
 66 68  2  0
 67 66  1  0
 69 67  1  0
 70 79  2  0
 70 75  1  0
 71 67  1  0
 71 75  1  0
 72 71  1  0
 73 74  1  0
 73 72  1  0
 74 70  1  0
 75 76  2  0
 76 77  1  0
 78 77  2  0
 79 78  1  0
 80 54  1  0
 80 85  1  0
 80 81  1  0
 81 84  1  1
 81 82  1  0
 83 81  1  0
 85 88  1  0
 86 90  1  0
 86 85  1  0
 87 86  2  0
 90 89  1  0
 92 90  1  0
 92 93  1  0
 92 91  1  0
M  ISO  4  12 100  20 100  52 101  53 101
M  END
>  <TORSDO>  (40) 
F 20

>  <SCORE>  (40) 
-14.065

>  <name>  (40) 
40

>  <ligand_id>  (40) 
40

>  <original_smiles>  (40) 
[H]c1c([H])c([H])c2c(c1[H])C([H])([H])C([H])([H])C([H])([H])C2([H])N([H])C(=O)C1([H])N(C(=O)C([H])(N([H])C(=O)C([H])(N([H])C([H])([H])[H])C([H])([H])[H])C(C([H])([H])[H])(C([H])([H])[H])C([H])([H])[H])C([H])([H])c2c([H])c(OC([H])([H])C([H])([H])C([H])([H])N3C([H])([H])C([H])([H])C4([H])C([H])(C([H])([H])N([H])C(=O)N5C([H])([H])C([H])([H])C([H])([H])C([H])(n6nc(-c7c([H])c([H])c(Oc8c([H])c([H])c(F)c([H])c8F)c([H])c7[H])c(C(=O)N([H])[H])c6N([H])[H])C5([H])[H])C([H])([H])C3([H])[N+]4([H])C([H])([H])[H])c([H])c([H])c2C1([H])[H]

>  <smiles>  (40) 
[H]c1c([H])c([H])c2c(c1[H])C([H])([H])C([H])([H])C([H])([H])C2([H])N([H])C(=O)C1([H])N(C(=O)C([H])(N([H])C(=O)C([H])(N([H])C([H])([H])[H])C([H])([H])[H])C(C([H])([H])[H])(C([H])([H])[H])C([H])([H])[H])C([H])([H])c2c([H])c(OC([H])([H])C([H])([H])C([H])([H])N3C([H])([H])C([H])([H])C4([H])C([H])(C([H])([H])N([H])C(=O)N5C([H])([H])C([H])([H])C([H])([H])C([H])(n6nc(-c7c([H])c([H])c(Oc8c([H])c([H])c(F)c([H])c8F)c([H])c7[H])c(C(=O)N([H])[H])c6N([H])[H])C5([H])[H])C([H])([H])C3([H])[N+]4([H])C([H])([H])[H])c([H])c([H])c2C1([H])[H]

$$$$
41:0:0
     RDKit          3D

 98106  0  0  1  0  0  0  0  0999 V2000
  -32.4440  -22.4650   16.9000 C   0  0  0  0  0  2  0  0  0  0  0  0
  -31.0740  -21.7650   17.0730 C   0  0  0  0  0  2  0  0  0  0  0  0
  -32.0790  -20.5920   19.1530 C   0  0  0  0  0  2  0  0  0  0  0  0
  -33.0180  -23.1510   18.1670 C   0  0  0  0  0  2  0  0  0  0  0  0
  -31.9970  -21.8560   20.0430 C   0  0  0  0  0  2  0  0  0  0  0  0
  -31.0700  -20.5100   17.9820 C   0  0  0  0  0  3  0  0  0  0  0  0
  -32.0510  -23.1460   19.2970 N   0  0  1  0  0  4  0  0  0  0  0  0
  -31.1480  -23.2660   18.8480 H   0  0  0  0  0  0  0  0  0  0  0  0
  -29.6270  -20.1450   18.4320 C   0  0  0  0  0  2  0  0  0  0  0  0
  -29.3810  -18.6890   18.4100 N   0  0  0  0  0  4  0  0  0  0  0  0
  -30.0140  -18.2800   17.7430 H   0  0  0  0  0  0  0  0  0  0  0  0
  -28.4490  -18.5480   18.0490 H   0  0  0  0  0  0  0  0  0  0  0  0
  -29.4710  -17.9520   19.6920 C   0  0  0  0  0  2  0  0  0  0  0  0
  -29.9150  -16.5130   19.3980 C   0  0  0  0  0  2  0  0  0  0  0  0
  -30.6740  -14.5240   20.5430 C   0  0  0  0  0  0  0  0  0  0  0  0
  -30.4170  -12.3300   19.5120 C   0  0  0  0  0  2  0  0  0  0  0  0
  -29.5070  -12.5240   18.2790 C   0  0  0  0  0  2  0  0  0  0  0  0
  -28.0240  -12.3850   18.6730 C   0  0  0  0  0  2  0  0  0  0  0  0
  -27.6450  -13.2470   19.9090 C   0  0  0  0  0  3  0  0  0  0  0  0
  -28.6790  -13.0790   21.0510 C   0  0  0  0  0  2  0  0  0  0  0  0
  -30.0230  -13.3380   20.5060 N   0  0  0  0  0  0  0  0  0  0  0  0
  -31.8550  -14.6700   20.2150 O   0  0  0  0  0  0  0  0  0  0  0  0
  -29.8500  -15.5790   20.5280 N   0  0  0  0  0  0  0  0  0  0  0  0
  -28.9300  -15.4000   20.8970 H   0  0  0  0  0  0  0  0  0  0  0  0
  -25.2300  -13.8470   20.5650 C   0  0  0  0  0  0  0  0  0  0  0  0
  -24.1580  -13.0690   20.9160 C   0  0  0  0  0  0  0  0  0  0  0  0
  -24.6310  -11.7200   20.9060 C   0  0  0  0  0  0  0  0  0  0  0  0
  -26.2850  -12.9710   20.3610 N   0  0  0  0  0  0  0  0  0  0  0  0
  -25.9270  -11.6890   20.6260 N   0  0  0  0  0  0  0  0  0  0  0  0
  -23.9110  -10.4540   21.0890 C   0  0  0  0  0  0  0  0  0  0  0  0
  -24.3480   -9.4850   22.0190 C   0  0  0  0  0  3  0  0  0  0  0  0
  -23.6290   -8.2820   22.1890 C   0  0  0  0  0  3  0  0  0  0  0  0
  -22.4620   -8.0400   21.4280 C   0  0  0  0  0  0  0  0  0  0  0  0
  -22.0450   -8.9980   20.4880 C   0  0  0  0  0  3  0  0  0  0  0  0
  -22.7630  -10.1920   20.3150 C   0  0  0  0  0  3  0  0  0  0  0  0
  -21.7130   -6.8910   21.5070 O   0  0  0  0  0  0  0  0  0  0  0  0
  -21.6800   -6.1320   22.6500 C   0  0  0  0  0  0  0  0  0  0  0  0
  -21.2800   -6.6710   23.8930 C   0  0  0  0  0  3  0  0  0  0  0  0
  -21.1960   -5.8380   25.0270 C   0  0  0  0  0  3  0  0  0  0  0  0
  -21.5010   -4.4670   24.9190 C   0  0  0  0  0  0  0  0  0  0  0  0
  -21.8940   -3.9290   23.6820 C   0  0  0  0  0  3  0  0  0  0  0  0
  -21.9830   -4.7590   22.5510 C   0  0  0  0  0  0  0  0  0  0  0  0
  -22.3410   -4.2300   21.3550 F   0  0  0  0  0  0  0  0  0  0  0  0
  -21.4140   -3.6660   26.0060 F   0  0  0  0  0  0  0  0  0  0  0  0
  -22.7520  -13.5380   21.1540 C   0  0  0  0  0  0  0  0  0  0  0  0
  -22.0090  -12.8430   22.0080 N   0  0  0  0  0  0  0  0  0  0  0  0
  -22.3180  -14.5560   20.6170 O   0  0  0  0  0  0  0  0  0  0  0  0
  -22.3700  -12.0200   22.4670 H   0  0  0  0  0  0  0  0  0  0  0  0
  -21.0640  -13.1420   22.2060 H   0  0  0  0  0  0  0  0  0  0  0  0
  -25.3880  -15.2180   20.3790 N   0  0  0  0  0  0  0  0  0  0  0  0
  -24.6090  -15.8610   20.4640 H   0  0  0  0  0  0  0  0  0  0  0  0
  -26.2340  -15.6630   20.0470 H   0  0  0  0  0  0  0  0  0  0  0  0
  -32.1530  -24.3360   20.1860 C   0  0  0  0  0  2  0  0  0  0  0  0
  -30.8770  -24.5940   21.0280 C   0  0  0  0  0  2  0  0  0  0  0  0
  -29.6070  -24.7790   20.1930 C   0  0  0  0  0  0  0  0  0  0  0  0
  -29.4920  -24.2530   19.0810 O   0  0  0  0  0  0  0  0  0  0  0  0
  -28.4790  -25.6220   20.7810 C   0  0  0  0  0  2  0  0  0  0  0  0
  -28.4260  -26.8430   20.0600 O   0  0  0  0  0  0  0  0  0  0  0  0
  -24.5970  -31.9100   23.2280 C   0  0  0  0  0  0  0  0  0  0  0  0
  -27.2330  -27.5090   20.1290 C   0  0  0  0  0  0  0  0  0  0  0  0
  -23.3770  -30.5050   21.5940 C   0  0  0  0  0  3  0  0  0  0  0  0
  -24.8230  -28.9660   20.1660 C   0  0  0  0  0  0  0  0  0  0  0  0
  -25.8940  -30.8830   21.3690 C   0  0  0  0  0  2  0  0  0  0  0  0
  -25.9810  -29.5110   20.7370 C   0  0  0  0  0  0  0  0  0  0  0  0
  -27.1910  -28.7890   20.7140 C   0  0  0  0  0  3  0  0  0  0  0  0
  -26.0630  -26.9600   19.5640 C   0  0  0  0  0  3  0  0  0  0  0  0
  -24.8560  -27.6870   19.5810 C   0  0  0  0  0  3  0  0  0  0  0  0
  -23.5760  -29.8190   20.2150 C   0  0  0  0  0  2  0  0  0  0  0  0
  -24.6410  -31.1130   22.1230 N   0  0  0  0  0  0  0  0  0  0  0  0
  -23.5200  -32.1800   23.7790 O   0  0  0  0  0  0  0  0  0  0  0  0
  -22.7380  -29.4850   22.5620 C   0  0  0  0  0  0  0  0  0  0  0  0
  -21.4120  -29.3000   22.4430 N   0  0  0  0  0  0  0  0  0  0  0  0
  -23.4290  -28.8600   23.3690 O   0  0  0  0  0  0  0  0  0  0  0  0
  -20.9170  -29.8570   21.7610 H   0  0  0  0  0  0  0  0  0  0  0  0
  -18.0450  -28.1050   22.9600 C   0  0  0  0  0  0  0  0  0  0  0  0
  -20.6030  -28.3630   23.2190 C   0  0  0  0  0  3  0  0  0  0  0  0
  -20.7030  -26.9310   22.6430 C   0  0  0  0  0  2  0  0  0  0  0  0
  -19.5970  -26.6080   21.6350 C   0  0  0  0  0  2  0  0  0  0  0  0
  -18.2190  -26.7530   22.2850 C   0  0  0  0  0  2  0  0  0  0  0  0
  -19.1650  -28.8660   23.3830 C   0  0  0  0  0  0  0  0  0  0  0  0
  -18.9500  -30.1320   23.9720 C   0  0  0  0  0  3  0  0  0  0  0  0
  -17.6460  -30.6340   24.1420 C   0  0  0  0  0  3  0  0  0  0  0  0
  -16.5400  -29.8680   23.7340 C   0  0  0  0  0  3  0  0  0  0  0  0
  -16.7400  -28.6060   23.1490 C   0  0  0  0  0  3  0  0  0  0  0  0
  -25.8890  -32.5410   23.8370 C   0  0  0  0  0  3  0  0  0  0  0  0
  -25.5830  -33.9370   24.1720 N   0  0  0  0  0  0  0  0  0  0  0  0
  -25.9150  -34.9910   23.4140 C   0  0  0  0  0  0  0  0  0  0  0  0
  -26.5810  -34.8890   22.3800 O   0  0  0  0  0  0  0  0  0  0  0  0
  -24.9920  -34.0900   24.9760 H   0  0  0  0  0  0  0  0  0  0  0  0
  -24.1870  -36.7840   23.0630 C   0  0  0  0  0  1  0  0  0  0  0  0
  -25.4270  -36.3780   23.8740 C   0  0  0  0  0  3  0  0  0  0  0  0
  -27.5650  -37.2550   24.7050 C   0  0  0  0  0  1  0  0  0  0  0  0
  -26.4620  -37.4290   23.7650 N   0  0  0  0  0  0  0  0  0  0  0  0
  -26.0580  -38.3500   23.9180 H   0  0  0  0  0  0  0  0  0  0  0  0
  -26.4240  -31.7650   25.1030 C   0  0  1  0  0  0  0  0  0  0  0  0
  -25.3450  -31.5230   26.1840 C   0  0  0  0  0  1  0  0  0  0  0  0
  -27.0010  -30.3900   24.6940 C   0  0  0  0  0  1  0  0  0  0  0  0
  -27.5820  -32.5560   25.7530 C   0  0  0  0  0  1  0  0  0  0  0  0
  1  2  1  0
  1  4  1  0
  2  6  1  0
  3  5  1  0
  4  7  1  0
  6  9  1  0
  6  3  1  0
  7  5  1  0
  7 53  1  0
  7  8  1  6
 10  9  1  0
 10 13  1  0
 11 10  1  0
 12 10  1  0
 14 13  1  0
 14 23  1  0
 16 21  1  0
 17 18  1  0
 17 16  1  0
 19 18  1  0
 19 28  1  0
 19 20  1  0
 21 15  1  0
 21 20  1  0
 22 15  2  0
 23 15  1  0
 23 24  1  0
 25 26  2  0
 26 45  1  0
 27 26  1  0
 27 30  1  0
 28 25  1  0
 28 29  1  0
 29 27  2  0
 30 31  1  0
 31 32  2  0
 33 36  1  0
 33 32  1  0
 34 33  2  0
 35 34  1  0
 35 30  2  0
 36 37  1  0
 37 38  1  0
 38 39  2  0
 40 39  1  0
 40 44  1  0
 41 40  2  0
 42 37  2  0
 42 41  1  0
 43 42  1  0
 45 46  1  0
 46 49  1  0
 46 48  1  0
 47 45  2  0
 50 51  1  0
 50 25  1  0
 52 50  1  0
 53 54  1  0
 55 57  1  0
 55 54  1  0
 56 55  2  0
 58 60  1  0
 58 57  1  0
 59 70  2  0
 60 65  1  0
 61 69  1  0
 61 71  1  0
 62 68  1  0
 62 64  1  0
 63 69  1  0
 64 63  1  0
 65 64  2  0
 66 67  1  0
 66 60  2  0
 67 62  2  0
 68 61  1  0
 69 59  1  0
 71 73  2  0
 72 71  1  0
 74 72  1  0
 75 84  2  0
 75 80  1  0
 76 72  1  0
 76 80  1  0
 77 76  1  0
 78 79  1  0
 78 77  1  0
 79 75  1  0
 80 81  2  0
 81 82  1  0
 83 82  2  0
 84 83  1  0
 85 59  1  0
 85 86  1  0
 85 95  1  0
 86 89  1  0
 87 91  1  0
 87 86  1  0
 88 87  2  0
 91 90  1  0
 93 91  1  0
 93 94  1  0
 93 92  1  0
 95 98  1  1
 95 96  1  0
 97 95  1  0
M  ISO  4  15 100  23 100  57 101  58 101
M  END
>  <TORSDO>  (41) 
F 24

>  <SCORE>  (41) 
-12.401

>  <name>  (41) 
41

>  <ligand_id>  (41) 
41

>  <original_smiles>  (41) 
[H]c1c([H])c([H])c2c(c1[H])C([H])([H])C([H])([H])C([H])([H])C2([H])N([H])C(=O)C1([H])N(C(=O)C([H])(N([H])C(=O)C([H])(N([H])C([H])([H])[H])C([H])([H])[H])C(C([H])([H])[H])(C([H])([H])[H])C([H])([H])[H])C([H])([H])c2c([H])c(OC([H])([H])C(=O)C([H])([H])C([H])([H])[N+]3([H])C([H])([H])C([H])([H])C([H])([H])C([H])(C([H])([H])[N+]([H])([H])C([H])([H])C([H])([H])N([H])C(=O)N4C([H])([H])C([H])([H])C([H])([H])C([H])(n5nc(-c6c([H])c([H])c(Oc7c([H])c([H])c(F)c([H])c7F)c([H])c6[H])c(C(=O)N([H])[H])c5N([H])[H])C4([H])[H])C([H])([H])C3([H])[H])c([H])c([H])c2C1([H])[H]

>  <smiles>  (41) 
[H]c1c([H])c([H])c2c(c1[H])C([H])([H])C([H])([H])C([H])([H])C2([H])N([H])C(=O)C1([H])N(C(=O)C([H])(N([H])C(=O)C([H])(N([H])C([H])([H])[H])C([H])([H])[H])C(C([H])([H])[H])(C([H])([H])[H])C([H])([H])[H])C([H])([H])c2c([H])c(OC([H])([H])C(=O)C([H])([H])C([H])([H])[N+]3([H])C([H])([H])C([H])([H])C([H])([H])C([H])(C([H])([H])[N+]([H])([H])C([H])([H])C([H])([H])N([H])C(=O)N4C([H])([H])C([H])([H])C([H])([H])C([H])(n5nc(-c6c([H])c([H])c(Oc7c([H])c([H])c(F)c([H])c7F)c([H])c6[H])c(C(=O)N([H])[H])c5N([H])[H])C4([H])[H])C([H])([H])C3([H])[H])c([H])c([H])c2C1([H])[H]

$$$$
42:0:0
     RDKit          3D

 94102  0  0  1  0  0  0  0  0999 V2000
  -27.5190  -18.3560   18.9910 C   0  0  0  0  0  2  0  0  0  0  0  0
  -28.1980  -19.6880   19.2450 C   0  0  0  0  0  2  0  0  0  0  0  0
  -28.6940  -17.3940   18.8700 C   0  0  0  0  0  3  0  0  0  0  0  0
  -29.7600  -17.9540   19.8550 C   0  0  0  0  0  3  0  0  0  0  0  0
  -29.2800  -19.3370   20.1620 N   0  0  0  0  0  0  0  0  0  0  0  0
  -29.2070  -17.3450   17.4860 N   0  0  0  0  0  4  0  0  0  0  0  0
  -29.5230  -18.2490   17.1830 H   0  0  0  0  0  0  0  0  0  0  0  0
  -28.4940  -17.0280   16.8540 H   0  0  0  0  0  0  0  0  0  0  0  0
  -29.9810  -16.7080   17.4200 H   0  0  0  0  0  0  0  0  0  0  0  0
  -29.9980  -17.0890   21.1520 C   0  0  0  0  0  2  0  0  0  0  0  0
  -30.5930  -14.6120   20.6670 C   0  0  0  0  0  0  0  0  0  0  0  0
  -30.4010  -12.4200   19.5340 C   0  0  0  0  0  2  0  0  0  0  0  0
  -29.4890  -12.5870   18.2990 C   0  0  0  0  0  2  0  0  0  0  0  0
  -28.0020  -12.4330   18.6820 C   0  0  0  0  0  2  0  0  0  0  0  0
  -27.6140  -13.2750   19.9260 C   0  0  0  0  0  3  0  0  0  0  0  0
  -28.6360  -13.0720   21.0680 C   0  0  0  0  0  2  0  0  0  0  0  0
  -29.9710  -13.4050   20.5390 N   0  0  0  0  0  0  0  0  0  0  0  0
  -31.7450  -14.8200   20.2770 O   0  0  0  0  0  0  0  0  0  0  0  0
  -29.7800  -15.6190   21.0570 N   0  0  0  0  0  0  0  0  0  0  0  0
  -28.8660  -15.3080   21.3530 H   0  0  0  0  0  0  0  0  0  0  0  0
  -25.1890  -13.8860   20.5340 C   0  0  0  0  0  0  0  0  0  0  0  0
  -24.1110  -13.1140   20.8720 C   0  0  0  0  0  0  0  0  0  0  0  0
  -24.5810  -11.7650   20.8860 C   0  0  0  0  0  0  0  0  0  0  0  0
  -26.2460  -13.0050   20.3600 N   0  0  0  0  0  0  0  0  0  0  0  0
  -25.8830  -11.7270   20.6290 N   0  0  0  0  0  0  0  0  0  0  0  0
  -23.8560  -10.5030   21.0720 C   0  0  0  0  0  0  0  0  0  0  0  0
  -24.2780   -9.5430   22.0170 C   0  0  0  0  0  3  0  0  0  0  0  0
  -23.5550   -8.3430   22.1910 C   0  0  0  0  0  3  0  0  0  0  0  0
  -22.3950   -8.0970   21.4190 C   0  0  0  0  0  0  0  0  0  0  0  0
  -21.9920   -9.0460   20.4630 C   0  0  0  0  0  3  0  0  0  0  0  0
  -22.7160  -10.2370   20.2870 C   0  0  0  0  0  3  0  0  0  0  0  0
  -21.6450   -6.9480   21.5010 O   0  0  0  0  0  0  0  0  0  0  0  0
  -21.6020   -6.1980   22.6490 C   0  0  0  0  0  0  0  0  0  0  0  0
  -21.2000   -6.7490   23.8850 C   0  0  0  0  0  3  0  0  0  0  0  0
  -21.1030   -5.9250   25.0240 C   0  0  0  0  0  3  0  0  0  0  0  0
  -21.3960   -4.5520   24.9270 C   0  0  0  0  0  0  0  0  0  0  0  0
  -21.7900   -4.0010   23.6970 C   0  0  0  0  0  3  0  0  0  0  0  0
  -21.8900   -4.8210   22.5590 C   0  0  0  0  0  0  0  0  0  0  0  0
  -22.2500   -4.2810   21.3700 F   0  0  0  0  0  0  0  0  0  0  0  0
  -21.2940   -3.7580   26.0200 F   0  0  0  0  0  0  0  0  0  0  0  0
  -22.7010  -13.5880   21.0820 C   0  0  0  0  0  0  0  0  0  0  0  0
  -21.9460  -12.9050   21.9350 N   0  0  0  0  0  0  0  0  0  0  0  0
  -22.2770  -14.6000   20.5260 O   0  0  0  0  0  0  0  0  0  0  0  0
  -22.3000  -12.0870   22.4090 H   0  0  0  0  0  0  0  0  0  0  0  0
  -20.9980  -13.2050   22.1180 H   0  0  0  0  0  0  0  0  0  0  0  0
  -25.3530  -15.2550   20.3450 N   0  0  0  0  0  0  0  0  0  0  0  0
  -24.5770  -15.9020   20.4370 H   0  0  0  0  0  0  0  0  0  0  0  0
  -26.2240  -15.7110   20.1160 H   0  0  0  0  0  0  0  0  0  0  0  0
  -30.2810  -20.4010   20.4140 C   0  0  0  0  0  2  0  0  0  0  0  0
  -30.0350  -21.8520   19.8450 C   0  0  0  0  0  2  0  0  0  0  0  0
  -29.1170  -22.8500   20.6200 C   0  0  0  0  0  2  0  0  0  0  0  0
  -29.1110  -24.3060   20.0310 C   0  0  0  0  0  2  0  0  0  0  0  0
  -28.2200  -25.3470   20.7770 C   0  0  0  0  0  2  0  0  0  0  0  0
  -28.3250  -26.7020   20.2590 O   0  0  0  0  0  0  0  0  0  0  0  0
  -24.5460  -31.9920   23.2640 C   0  0  0  0  0  0  0  0  0  0  0  0
  -27.1680  -27.4680   20.2550 C   0  0  0  0  0  0  0  0  0  0  0  0
  -23.3370  -30.5800   21.6340 C   0  0  0  0  0  3  0  0  0  0  0  0
  -24.7870  -29.0130   20.2320 C   0  0  0  0  0  0  0  0  0  0  0  0
  -25.8690  -30.9140   21.4410 C   0  0  0  0  0  2  0  0  0  0  0  0
  -25.9480  -29.5320   20.8170 C   0  0  0  0  0  0  0  0  0  0  0  0
  -27.1450  -28.7690   20.8190 C   0  0  0  0  0  3  0  0  0  0  0  0
  -25.9900  -26.9760   19.6550 C   0  0  0  0  0  3  0  0  0  0  0  0
  -24.8030  -27.7360   19.6450 C   0  0  0  0  0  3  0  0  0  0  0  0
  -23.5480  -29.8820   20.2640 C   0  0  0  0  0  2  0  0  0  0  0  0
  -24.6020  -31.1790   22.1710 N   0  0  0  0  0  0  0  0  0  0  0  0
  -23.4640  -32.2780   23.7970 O   0  0  0  0  0  0  0  0  0  0  0  0
  -22.6750  -29.5740   22.6060 C   0  0  0  0  0  0  0  0  0  0  0  0
  -21.3490  -29.3990   22.4760 N   0  0  0  0  0  0  0  0  0  0  0  0
  -23.3510  -28.9550   23.4300 O   0  0  0  0  0  0  0  0  0  0  0  0
  -20.8670  -29.9500   21.7800 H   0  0  0  0  0  0  0  0  0  0  0  0
  -17.9670  -28.2240   22.9680 C   0  0  0  0  0  0  0  0  0  0  0  0
  -20.5250  -28.4750   23.2530 C   0  0  0  0  0  3  0  0  0  0  0  0
  -20.6240  -27.0360   22.6950 C   0  0  0  0  0  2  0  0  0  0  0  0
  -19.5270  -26.7060   21.6790 C   0  0  0  0  0  2  0  0  0  0  0  0
  -18.1420  -26.8650   22.3110 C   0  0  0  0  0  2  0  0  0  0  0  0
  -19.0860  -28.9870   23.3960 C   0  0  0  0  0  0  0  0  0  0  0  0
  -18.8700  -30.2590   23.9680 C   0  0  0  0  0  3  0  0  0  0  0  0
  -17.5660  -30.7680   24.1200 C   0  0  0  0  0  3  0  0  0  0  0  0
  -16.4610  -30.0020   23.7090 C   0  0  0  0  0  3  0  0  0  0  0  0
  -16.6620  -28.7320   23.1380 C   0  0  0  0  0  3  0  0  0  0  0  0
  -25.8330  -32.6220   23.8820 C   0  0  0  0  0  3  0  0  0  0  0  0
  -26.3500  -31.8540   25.1610 C   0  0  1  0  0  0  0  0  0  0  0  0
  -25.2570  -31.6240   26.2310 C   0  0  0  0  0  1  0  0  0  0  0  0
  -26.9270  -30.4730   24.7690 C   0  0  0  0  0  1  0  0  0  0  0  0
  -27.5050  -32.6460   25.8160 C   0  0  0  0  0  1  0  0  0  0  0  0
  -25.5290  -34.0220   24.2060 N   0  0  0  0  0  0  0  0  0  0  0  0
  -25.8700  -35.0700   23.4440 C   0  0  0  0  0  0  0  0  0  0  0  0
  -26.5460  -34.9590   22.4170 O   0  0  0  0  0  0  0  0  0  0  0  0
  -24.9330  -34.1830   25.0050 H   0  0  0  0  0  0  0  0  0  0  0  0
  -24.1520  -36.8670   23.0740 C   0  0  0  0  0  1  0  0  0  0  0  0
  -25.3870  -36.4620   23.8940 C   0  0  0  0  0  3  0  0  0  0  0  0
  -27.5240  -37.3370   24.7280 C   0  0  0  0  0  1  0  0  0  0  0  0
  -26.4250  -37.5100   23.7820 N   0  0  0  0  0  0  0  0  0  0  0  0
  -26.0220  -38.4320   23.9270 H   0  0  0  0  0  0  0  0  0  0  0  0
  1  2  1  0
  2  5  1  0
  3  6  1  0
  3  1  1  0
  3  4  1  0
  4  5  1  0
  4 10  1  0
  5 49  1  0
  7  6  1  0
  8  6  1  0
  9  6  1  0
 11 19  1  0
 12 17  1  0
 13 14  1  0
 13 12  1  0
 15 14  1  0
 15 24  1  0
 15 16  1  0
 17 11  1  0
 17 16  1  0
 18 11  2  0
 19 10  1  0
 19 20  1  0
 21 22  2  0
 22 23  1  0
 22 41  1  0
 23 26  1  0
 24 21  1  0
 24 25  1  0
 25 23  2  0
 26 27  1  0
 27 28  2  0
 29 32  1  0
 29 28  1  0
 30 29  2  0
 31 30  1  0
 31 26  2  0
 32 33  1  0
 33 34  1  0
 34 35  2  0
 36 35  1  0
 36 40  1  0
 37 36  2  0
 38 33  2  0
 38 37  1  0
 39 38  1  0
 41 42  1  0
 42 45  1  0
 42 44  1  0
 43 41  2  0
 46 47  1  0
 46 21  1  0
 48 46  1  0
 50 49  1  0
 50 51  1  0
 52 51  1  0
 52 53  1  0
 54 53  1  0
 55 66  2  0
 56 54  1  0
 56 61  1  0
 57 65  1  0
 57 67  1  0
 58 64  1  0
 58 60  1  0
 59 65  1  0
 60 61  2  0
 60 59  1  0
 62 56  2  0
 63 62  1  0
 63 58  2  0
 64 57  1  0
 65 55  1  0
 67 69  2  0
 68 67  1  0
 70 68  1  0
 71 80  2  0
 71 76  1  0
 72 68  1  0
 72 76  1  0
 73 72  1  0
 74 75  1  0
 74 73  1  0
 75 71  1  0
 76 77  2  0
 77 78  1  0
 79 78  2  0
 80 79  1  0
 81 55  1  0
 81 86  1  0
 81 82  1  0
 82 85  1  1
 82 83  1  0
 84 82  1  0
 86 89  1  0
 87 91  1  0
 87 86  1  0
 88 87  2  0
 91 90  1  0
 93 91  1  0
 93 94  1  0
 93 92  1  0
M  ISO  4  11 100  19 100  53 101  54 101
M  END
>  <TORSDO>  (42) 
F 23

>  <SCORE>  (42) 
-12.809

>  <name>  (42) 
42

>  <ligand_id>  (42) 
42

>  <original_smiles>  (42) 
[H]c1c([H])c([H])c2c(c1[H])C([H])([H])C([H])([H])C([H])([H])C2([H])N([H])C(=O)C1([H])N(C(=O)C([H])(N([H])C(=O)C([H])(N([H])C([H])([H])[H])C([H])([H])[H])C(C([H])([H])[H])(C([H])([H])[H])C([H])([H])[H])C([H])([H])c2c([H])c(OC([H])([H])C([H])([H])C([H])([H])C([H])([H])C([H])([H])N3C([H])([H])C([H])([H])C([H])([N+]([H])([H])[H])C3([H])C([H])([H])N([H])C(=O)N3C([H])([H])C([H])([H])C([H])([H])C([H])(n4nc(-c5c([H])c([H])c(Oc6c([H])c([H])c(F)c([H])c6F)c([H])c5[H])c(C(=O)N([H])[H])c4N([H])[H])C3([H])[H])c([H])c([H])c2C1([H])[H]

>  <smiles>  (42) 
[H]c1c([H])c([H])c2c(c1[H])C([H])([H])C([H])([H])C([H])([H])C2([H])N([H])C(=O)C1([H])N(C(=O)C([H])(N([H])C(=O)C([H])(N([H])C([H])([H])[H])C([H])([H])[H])C(C([H])([H])[H])(C([H])([H])[H])C([H])([H])[H])C([H])([H])c2c([H])c(OC([H])([H])C([H])([H])C([H])([H])C([H])([H])C([H])([H])N3C([H])([H])C([H])([H])C([H])([N+]([H])([H])[H])C3([H])C([H])([H])N([H])C(=O)N3C([H])([H])C([H])([H])C([H])([H])C([H])(n4nc(-c5c([H])c([H])c(Oc6c([H])c([H])c(F)c([H])c6F)c([H])c5[H])c(C(=O)N([H])[H])c4N([H])[H])C3([H])[H])c([H])c([H])c2C1([H])[H]

$$$$
43:0:0
     RDKit          3D

 96104  0  0  1  0  0  0  0  0999 V2000
  -29.9470  -23.1160   20.4990 N   0  0  0  0  0  4  0  0  0  0  0  0
  -28.9640  -22.8970   20.4800 H   0  0  0  0  0  0  0  0  0  0  0  0
  -30.2470  -23.2590   19.5460 H   0  0  0  0  0  0  0  0  0  0  0  0
  -30.6880  -21.9430   21.0610 C   0  0  0  0  0  2  0  0  0  0  0  0
  -29.1240  -19.8850   20.7310 C   0  0  0  0  0  0  0  0  0  0  0  0
  -31.4290  -19.4490   20.4950 C   0  0  0  0  0  2  0  0  0  0  0  0
  -30.4050  -20.5980   20.3040 C   0  0  0  0  0  3  0  0  0  0  0  0
  -30.6300  -18.1210   20.3990 C   0  0  0  0  0  3  0  0  0  0  0  0
  -29.3030  -18.5610   20.7940 N   0  0  0  0  0  0  0  0  0  0  0  0
  -28.0720  -20.4710   20.9800 O   0  0  0  0  0  0  0  0  0  0  0  0
  -28.5710  -17.9150   21.0620 H   0  0  0  0  0  0  0  0  0  0  0  0
  -31.1820  -16.9710   21.2950 C   0  0  0  0  0  2  0  0  0  0  0  0
  -31.2450  -14.6010   20.4020 C   0  0  0  0  0  0  0  0  0  0  0  0
  -30.8960  -12.4080   19.3070 C   0  0  0  0  0  2  0  0  0  0  0  0
  -29.9830  -12.5880   18.0780 C   0  0  0  0  0  2  0  0  0  0  0  0
  -28.4930  -12.5260   18.4800 C   0  0  0  0  0  2  0  0  0  0  0  0
  -28.1670  -13.4180   19.7070 C   0  0  0  0  0  3  0  0  0  0  0  0
  -29.1920  -13.1980   20.8410 C   0  0  0  0  0  2  0  0  0  0  0  0
  -30.5320  -13.4440   20.2880 N   0  0  0  0  0  0  0  0  0  0  0  0
  -32.3670  -14.7380   19.9020 O   0  0  0  0  0  0  0  0  0  0  0  0
  -30.6200  -15.6340   21.0080 N   0  0  0  0  0  0  0  0  0  0  0  0
  -29.6900  -15.4510   21.3550 H   0  0  0  0  0  0  0  0  0  0  0  0
  -25.7960  -14.1440   20.4090 C   0  0  0  0  0  0  0  0  0  0  0  0
  -24.6850  -13.4270   20.7640 C   0  0  0  0  0  0  0  0  0  0  0  0
  -25.0760  -12.0530   20.7280 C   0  0  0  0  0  0  0  0  0  0  0  0
  -26.7950  -13.2110   20.1740 N   0  0  0  0  0  0  0  0  0  0  0  0
  -26.3610  -11.9490   20.4230 N   0  0  0  0  0  0  0  0  0  0  0  0
  -24.2840  -10.8300   20.9060 C   0  0  0  0  0  0  0  0  0  0  0  0
  -24.6490   -9.8430   21.8500 C   0  0  0  0  0  3  0  0  0  0  0  0
  -23.8600   -8.6850   22.0140 C   0  0  0  0  0  3  0  0  0  0  0  0
  -22.6950   -8.5030   21.2320 C   0  0  0  0  0  0  0  0  0  0  0  0
  -22.3490   -9.4770   20.2790 C   0  0  0  0  0  3  0  0  0  0  0  0
  -23.1380  -10.6280   20.1100 C   0  0  0  0  0  3  0  0  0  0  0  0
  -21.8800   -7.3990   21.3060 O   0  0  0  0  0  0  0  0  0  0  0  0
  -21.7510   -6.6750   22.4640 C   0  0  0  0  0  0  0  0  0  0  0  0
  -21.3050   -7.2670   23.6660 C   0  0  0  0  0  3  0  0  0  0  0  0
  -21.1190   -6.4700   24.8150 C   0  0  0  0  0  3  0  0  0  0  0  0
  -21.3700   -5.0860   24.7610 C   0  0  0  0  0  0  0  0  0  0  0  0
  -21.8070   -4.4960   23.5640 C   0  0  0  0  0  3  0  0  0  0  0  0
  -21.9950   -5.2880   22.4190 C   0  0  0  0  0  0  0  0  0  0  0  0
  -22.3970   -4.7090   21.2610 F   0  0  0  0  0  0  0  0  0  0  0  0
  -21.1830   -4.3210   25.8640 F   0  0  0  0  0  0  0  0  0  0  0  0
  -23.3150  -13.9770   21.0310 C   0  0  0  0  0  0  0  0  0  0  0  0
  -22.5460  -13.3300   21.9010 N   0  0  0  0  0  0  0  0  0  0  0  0
  -22.9320  -15.0210   20.5020 O   0  0  0  0  0  0  0  0  0  0  0  0
  -22.8630  -12.4910   22.3600 H   0  0  0  0  0  0  0  0  0  0  0  0
  -21.6280  -13.6920   22.1170 H   0  0  0  0  0  0  0  0  0  0  0  0
  -26.0380  -15.5040   20.2440 N   0  0  0  0  0  0  0  0  0  0  0  0
  -25.3120  -16.2020   20.3680 H   0  0  0  0  0  0  0  0  0  0  0  0
  -26.9110  -15.8950   19.9140 H   0  0  0  0  0  0  0  0  0  0  0  0
  -30.0780  -24.4320   21.1940 C   0  0  0  0  0  2  0  0  0  0  0  0
  -30.3900  -25.2600   18.7540 C   0  0  0  0  0  1  0  0  0  0  0  0
  -31.9500  -26.0030   20.5310 C   0  0  0  0  0  1  0  0  0  0  0  0
  -30.4730  -25.6400   20.2530 C   0  0  2  0  0  0  0  0  0  0  0  0
  -29.5840  -26.9190   20.5070 C   0  0  0  0  0  2  0  0  0  0  0  0
  -28.2830  -26.6400   20.0110 O   0  0  0  0  0  0  0  0  0  0  0  0
  -24.5510  -31.9300   23.2080 C   0  0  0  0  0  0  0  0  0  0  0  0
  -27.2090  -27.5020   20.1030 C   0  0  0  0  0  0  0  0  0  0  0  0
  -23.3390  -30.5120   21.5850 C   0  0  0  0  0  3  0  0  0  0  0  0
  -24.7970  -28.9870   20.1500 C   0  0  0  0  0  0  0  0  0  0  0  0
  -25.8660  -30.8860   21.3660 C   0  0  0  0  0  2  0  0  0  0  0  0
  -25.9620  -29.5180   20.7270 C   0  0  0  0  0  0  0  0  0  0  0  0
  -27.1760  -28.7840   20.7060 C   0  0  0  0  0  3  0  0  0  0  0  0
  -26.0240  -26.9890   19.5340 C   0  0  0  0  0  3  0  0  0  0  0  0
  -24.8230  -27.7160   19.5530 C   0  0  0  0  0  3  0  0  0  0  0  0
  -23.5420  -29.8310   20.2080 C   0  0  0  0  0  2  0  0  0  0  0  0
  -24.6030  -31.1260   22.1090 N   0  0  0  0  0  0  0  0  0  0  0  0
  -23.4740  -32.1960   23.7570 O   0  0  0  0  0  0  0  0  0  0  0  0
  -22.7080  -29.4900   22.5580 C   0  0  0  0  0  0  0  0  0  0  0  0
  -21.3850  -29.2900   22.4400 N   0  0  0  0  0  0  0  0  0  0  0  0
  -23.4040  -28.8760   23.3690 O   0  0  0  0  0  0  0  0  0  0  0  0
  -20.8860  -29.8390   21.7540 H   0  0  0  0  0  0  0  0  0  0  0  0
  -18.0260  -28.0540   22.9600 C   0  0  0  0  0  0  0  0  0  0  0  0
  -20.5830  -28.3470   23.2180 C   0  0  0  0  0  3  0  0  0  0  0  0
  -20.6960  -26.9130   22.6490 C   0  0  0  0  0  2  0  0  0  0  0  0
  -19.5940  -26.5710   21.6430 C   0  0  0  0  0  2  0  0  0  0  0  0
  -18.2160  -26.7030   22.2940 C   0  0  0  0  0  2  0  0  0  0  0  0
  -19.1370  -28.8340   23.3780 C   0  0  0  0  0  0  0  0  0  0  0  0
  -18.9050  -30.0980   23.9620 C   0  0  0  0  0  3  0  0  0  0  0  0
  -17.5950  -30.5840   24.1320 C   0  0  0  0  0  3  0  0  0  0  0  0
  -16.4980  -29.8020   23.7270 C   0  0  0  0  0  3  0  0  0  0  0  0
  -16.7150  -28.5380   23.1490 C   0  0  0  0  0  3  0  0  0  0  0  0
  -25.8390  -32.5700   23.8110 C   0  0  0  0  0  3  0  0  0  0  0  0
  -25.5180  -33.9620   24.1510 N   0  0  0  0  0  0  0  0  0  0  0  0
  -25.8460  -35.0230   23.4020 C   0  0  0  0  0  0  0  0  0  0  0  0
  -26.5190  -34.9330   22.3700 O   0  0  0  0  0  0  0  0  0  0  0  0
  -24.9060  -34.1060   24.9430 H   0  0  0  0  0  0  0  0  0  0  0  0
  -24.1110  -36.8110   23.0550 C   0  0  0  0  0  1  0  0  0  0  0  0
  -25.3510  -36.4040   23.8690 C   0  0  0  0  0  3  0  0  0  0  0  0
  -27.4790  -37.2890   24.7190 C   0  0  0  0  0  1  0  0  0  0  0  0
  -26.3800  -37.4630   23.7720 N   0  0  0  0  0  0  0  0  0  0  0  0
  -25.9720  -38.3800   23.9260 H   0  0  0  0  0  0  0  0  0  0  0  0
  -26.3890  -31.8000   25.0740 C   0  0  1  0  0  0  0  0  0  0  0  0
  -25.3170  -31.5420   26.1580 C   0  0  0  0  0  1  0  0  0  0  0  0
  -26.9840  -30.4310   24.6680 C   0  0  0  0  0  1  0  0  0  0  0  0
  -27.5400  -32.6080   25.7210 C   0  0  0  0  0  1  0  0  0  0  0  0
  1  4  1  0
  1 51  1  0
  2  1  1  0
  3  1  1  0
  5  9  1  0
  5 10  2  0
  7  6  1  0
  7  5  1  0
  7  4  1  0
  8  6  1  0
  8  9  1  0
  8 12  1  0
  9 11  1  0
 13 21  1  0
 14 19  1  0
 15 16  1  0
 15 14  1  0
 17 16  1  0
 17 26  1  0
 17 18  1  0
 19 13  1  0
 19 18  1  0
 20 13  2  0
 21 12  1  0
 21 22  1  0
 23 24  2  0
 24 43  1  0
 25 24  1  0
 25 28  1  0
 26 23  1  0
 26 27  1  0
 27 25  2  0
 28 29  1  0
 29 30  2  0
 31 34  1  0
 31 30  1  0
 32 31  2  0
 33 32  1  0
 33 28  2  0
 34 35  1  0
 35 36  1  0
 36 37  2  0
 38 37  1  0
 38 42  1  0
 39 38  2  0
 40 35  2  0
 40 39  1  0
 41 40  1  0
 43 44  1  0
 44 47  1  0
 44 46  1  0
 45 43  2  0
 48 49  1  0
 48 23  1  0
 50 48  1  0
 54 52  1  6
 54 55  1  0
 54 53  1  0
 54 51  1  0
 56 58  1  0
 56 55  1  0
 57 68  2  0
 58 63  1  0
 59 67  1  0
 59 69  1  0
 60 66  1  0
 60 62  1  0
 61 67  1  0
 62 61  1  0
 63 62  2  0
 64 65  1  0
 64 58  2  0
 65 60  2  0
 66 59  1  0
 67 57  1  0
 69 71  2  0
 70 69  1  0
 72 70  1  0
 73 82  2  0
 73 78  1  0
 74 70  1  0
 74 78  1  0
 75 74  1  0
 76 77  1  0
 76 75  1  0
 77 73  1  0
 78 79  2  0
 79 80  1  0
 81 80  2  0
 82 81  1  0
 83 57  1  0
 83 84  1  0
 83 93  1  0
 84 87  1  0
 85 89  1  0
 85 84  1  0
 86 85  2  0
 89 88  1  0
 91 89  1  0
 91 92  1  0
 91 90  1  0
 93 96  1  1
 93 94  1  0
 95 93  1  0
M  ISO  4  13 100  21 100  55 101  56 101
M  END
>  <TORSDO>  (43) 
F 22

>  <SCORE>  (43) 
-13.109

>  <name>  (43) 
43

>  <ligand_id>  (43) 
43

>  <original_smiles>  (43) 
[H]c1c([H])c([H])c2c(c1[H])C([H])([H])C([H])([H])C([H])([H])C2([H])N([H])C(=O)C1([H])N(C(=O)C([H])(N([H])C(=O)C([H])(N([H])C([H])([H])[H])C([H])([H])[H])C(C([H])([H])[H])(C([H])([H])[H])C([H])([H])[H])C([H])([H])c2c([H])c(OC([H])([H])C(C([H])([H])[H])(C([H])([H])[H])C([H])([H])[N+]([H])([H])C([H])([H])C3([H])C(=O)N([H])C([H])(C([H])([H])N([H])C(=O)N4C([H])([H])C([H])([H])C([H])([H])C([H])(n5nc(-c6c([H])c([H])c(Oc7c([H])c([H])c(F)c([H])c7F)c([H])c6[H])c(C(=O)N([H])[H])c5N([H])[H])C4([H])[H])C3([H])[H])c([H])c([H])c2C1([H])[H]

>  <smiles>  (43) 
[H]c1c([H])c([H])c2c(c1[H])C([H])([H])C([H])([H])C([H])([H])C2([H])N([H])C(=O)C1([H])N(C(=O)C([H])(N([H])C(=O)C([H])(N([H])C([H])([H])[H])C([H])([H])[H])C(C([H])([H])[H])(C([H])([H])[H])C([H])([H])[H])C([H])([H])c2c([H])c(OC([H])([H])C(C([H])([H])[H])(C([H])([H])[H])C([H])([H])[N+]([H])([H])C([H])([H])C3([H])C(=O)N([H])C([H])(C([H])([H])N([H])C(=O)N4C([H])([H])C([H])([H])C([H])([H])C([H])(n5nc(-c6c([H])c([H])c(Oc7c([H])c([H])c(F)c([H])c7F)c([H])c6[H])c(C(=O)N([H])[H])c5N([H])[H])C4([H])[H])C3([H])[H])c([H])c([H])c2C1([H])[H]

$$$$
44:0:0
     RDKit          3D

 95103  0  0  1  0  0  0  0  0999 V2000
  -29.0240  -20.0420   20.7070 N   0  0  0  0  0  4  0  0  0  0  0  0
  -28.3730  -19.7280   21.4080 H   0  0  0  0  0  0  0  0  0  0  0  0
  -29.9250  -20.1270   21.1510 H   0  0  0  0  0  0  0  0  0  0  0  0
  -28.6030  -21.3980   20.2810 C   0  0  0  0  0  2  0  0  0  0  0  0
  -29.0170  -22.5390   21.2400 C   0  0  0  0  0  2  0  0  0  0  0  0
  -30.0420  -23.3830   20.6160 N   0  0  0  0  0  0  0  0  0  0  0  0
  -29.9470  -23.3390   19.6030 H   0  0  0  0  0  0  0  0  0  0  0  0
  -29.9330  -24.7930   20.9970 C   0  0  0  0  0  2  0  0  0  0  0  0
  -28.7450  -25.4830   20.2930 C   0  0  0  0  0  2  0  0  0  0  0  0
  -28.7640  -26.8880   20.5390 O   0  0  0  0  0  0  0  0  0  0  0  0
  -24.7140  -31.9660   23.3950 C   0  0  0  0  0  0  0  0  0  0  0  0
  -27.5640  -27.5630   20.4560 C   0  0  0  0  0  0  0  0  0  0  0  0
  -23.5980  -30.5260   21.7230 C   0  0  0  0  0  3  0  0  0  0  0  0
  -25.1350  -29.0110   20.3670 C   0  0  0  0  0  0  0  0  0  0  0  0
  -26.1200  -30.9360   21.6180 C   0  0  0  0  0  2  0  0  0  0  0  0
  -26.2560  -29.5650   20.9940 C   0  0  0  0  0  0  0  0  0  0  0  0
  -27.4720  -28.8480   21.0360 C   0  0  0  0  0  3  0  0  0  0  0  0
  -26.4200  -27.0250   19.8170 C   0  0  0  0  0  3  0  0  0  0  0  0
  -25.2100  -27.7380   19.7770 C   0  0  0  0  0  3  0  0  0  0  0  0
  -23.8720  -29.8420   20.3570 C   0  0  0  0  0  2  0  0  0  0  0  0
  -24.8270  -31.1570   22.3050 N   0  0  0  0  0  0  0  0  0  0  0  0
  -23.6080  -32.2180   23.8930 O   0  0  0  0  0  0  0  0  0  0  0  0
  -22.9350  -29.4960   22.6660 C   0  0  0  0  0  0  0  0  0  0  0  0
  -21.6190  -29.2880   22.4940 N   0  0  0  0  0  0  0  0  0  0  0  0
  -23.6010  -28.8900   23.5090 O   0  0  0  0  0  0  0  0  0  0  0  0
  -21.1410  -29.8340   21.7910 H   0  0  0  0  0  0  0  0  0  0  0  0
  -18.2450  -28.0690   22.9070 C   0  0  0  0  0  0  0  0  0  0  0  0
  -20.7940  -28.3410   23.2410 C   0  0  0  0  0  3  0  0  0  0  0  0
  -20.9180  -26.9140   22.6620 C   0  0  0  0  0  2  0  0  0  0  0  0
  -19.8440  -26.5880   21.6210 C   0  0  0  0  0  2  0  0  0  0  0  0
  -18.4460  -26.7240   22.2310 C   0  0  0  0  0  2  0  0  0  0  0  0
  -19.3470  -28.8360   23.3670 C   0  0  0  0  0  0  0  0  0  0  0  0
  -19.1080  -30.0960   23.9550 C   0  0  0  0  0  3  0  0  0  0  0  0
  -17.7980  -30.5910   24.0910 C   0  0  0  0  0  3  0  0  0  0  0  0
  -16.7080  -29.8220   23.6480 C   0  0  0  0  0  3  0  0  0  0  0  0
  -16.9320  -28.5620   23.0630 C   0  0  0  0  0  3  0  0  0  0  0  0
  -25.9640  -32.6260   24.0550 C   0  0  0  0  0  3  0  0  0  0  0  0
  -26.4420  -31.8850   25.3640 C   0  0  1  0  0  0  0  0  0  0  0  0
  -25.3030  -31.6110   26.3730 C   0  0  0  0  0  1  0  0  0  0  0  0
  -27.1000  -30.5300   25.0130 C   0  0  0  0  0  1  0  0  0  0  0  0
  -27.5250  -32.7270   26.0780 C   0  0  0  0  0  1  0  0  0  0  0  0
  -25.6240  -34.0250   24.3440 N   0  0  0  0  0  0  0  0  0  0  0  0
  -25.9630  -35.0640   23.5700 C   0  0  0  0  0  0  0  0  0  0  0  0
  -26.6670  -34.9470   22.5630 O   0  0  0  0  0  0  0  0  0  0  0  0
  -25.0040  -34.1890   25.1240 H   0  0  0  0  0  0  0  0  0  0  0  0
  -24.2050  -36.8070   23.1280 C   0  0  0  0  0  1  0  0  0  0  0  0
  -25.4360  -36.4530   23.9770 C   0  0  0  0  0  3  0  0  0  0  0  0
  -27.5320  -37.4070   24.8280 C   0  0  0  0  0  1  0  0  0  0  0  0
  -26.4490  -37.5240   23.8560 N   0  0  0  0  0  0  0  0  0  0  0  0
  -26.0210  -38.4390   23.9690 H   0  0  0  0  0  0  0  0  0  0  0  0
  -29.1200  -19.0060   19.6330 C   0  0  0  0  0  3  0  0  0  0  0  0
  -27.3690  -19.3930   16.5330 C   0  0  0  0  0  2  0  0  0  0  0  0
  -28.0230  -18.2490   17.3030 C   0  0  0  0  0  2  0  0  0  0  0  0
  -27.8650  -20.3240   17.6360 C   0  0  0  0  0  2  0  0  0  0  0  0
  -27.9780  -19.1100   18.5850 C   0  0  0  0  0  3  0  0  0  0  0  0
  -29.1540  -17.5710   20.2390 C   0  0  0  0  0  2  0  0  0  0  0  0
  -30.4840  -17.0780   20.8560 C   0  0  0  0  0  2  0  0  0  0  0  0
  -31.1000  -14.6540   20.6830 C   0  0  0  0  0  0  0  0  0  0  0  0
  -30.8000  -12.5350   19.4700 C   0  0  0  0  0  2  0  0  0  0  0  0
  -29.9030  -12.8160   18.2430 C   0  0  0  0  0  2  0  0  0  0  0  0
  -28.4100  -12.7250   18.6130 C   0  0  0  0  0  2  0  0  0  0  0  0
  -28.0590  -13.5240   19.8960 C   0  0  0  0  0  3  0  0  0  0  0  0
  -29.0660  -13.2100   21.0290 C   0  0  0  0  0  2  0  0  0  0  0  0
  -30.4240  -13.4860   20.5250 N   0  0  0  0  0  0  0  0  0  0  0  0
  -32.2280  -14.8580   20.2260 O   0  0  0  0  0  0  0  0  0  0  0  0
  -30.3570  -15.6530   21.1880 N   0  0  0  0  0  0  0  0  0  0  0  0
  -29.4800  -15.3640   21.5960 H   0  0  0  0  0  0  0  0  0  0  0  0
  -25.6520  -14.2000   20.5190 C   0  0  0  0  0  0  0  0  0  0  0  0
  -24.5450  -13.4560   20.8270 C   0  0  0  0  0  0  0  0  0  0  0  0
  -24.9630  -12.0930   20.7830 C   0  0  0  0  0  0  0  0  0  0  0  0
  -26.6780  -13.2890   20.3120 N   0  0  0  0  0  0  0  0  0  0  0  0
  -26.2620  -12.0150   20.5250 N   0  0  0  0  0  0  0  0  0  0  0  0
  -24.1920  -10.8510   20.9170 C   0  0  0  0  0  0  0  0  0  0  0  0
  -24.5460   -9.8590   21.8580 C   0  0  0  0  0  3  0  0  0  0  0  0
  -23.7780   -8.6820   21.9780 C   0  0  0  0  0  3  0  0  0  0  0  0
  -22.6420   -8.4890   21.1580 C   0  0  0  0  0  0  0  0  0  0  0  0
  -22.3080   -9.4690   20.2070 C   0  0  0  0  0  3  0  0  0  0  0  0
  -23.0770  -10.6380   20.0840 C   0  0  0  0  0  3  0  0  0  0  0  0
  -21.8500   -7.3660   21.1900 O   0  0  0  0  0  0  0  0  0  0  0  0
  -21.7030   -6.6220   22.3320 C   0  0  0  0  0  0  0  0  0  0  0  0
  -21.2110   -7.1840   23.5300 C   0  0  0  0  0  3  0  0  0  0  0  0
  -21.0090   -6.3670   24.6600 C   0  0  0  0  0  3  0  0  0  0  0  0
  -21.2900   -4.9890   24.5940 C   0  0  0  0  0  0  0  0  0  0  0  0
  -21.7770   -4.4270   23.4020 C   0  0  0  0  0  3  0  0  0  0  0  0
  -21.9790   -5.2400   22.2730 C   0  0  0  0  0  0  0  0  0  0  0  0
  -22.4280   -4.6890   21.1190 F   0  0  0  0  0  0  0  0  0  0  0  0
  -21.0890   -4.2030   25.6780 F   0  0  0  0  0  0  0  0  0  0  0  0
  -23.1540  -13.9770   21.0570 C   0  0  0  0  0  0  0  0  0  0  0  0
  -22.3750  -13.2920   21.8890 N   0  0  0  0  0  0  0  0  0  0  0  0
  -22.7670  -15.0210   20.5370 O   0  0  0  0  0  0  0  0  0  0  0  0
  -22.7000  -12.4460   22.3300 H   0  0  0  0  0  0  0  0  0  0  0  0
  -21.4390  -13.6190   22.0860 H   0  0  0  0  0  0  0  0  0  0  0  0
  -25.8700  -15.5660   20.3870 N   0  0  0  0  0  0  0  0  0  0  0  0
  -25.1200  -16.2420   20.4780 H   0  0  0  0  0  0  0  0  0  0  0  0
  -26.7510  -15.9790   20.1210 H   0  0  0  0  0  0  0  0  0  0  0  0
  1  3  1  0
  1  2  1  0
  4  1  1  0
  4  5  1  0
  6  8  1  0
  6  5  1  0
  7  6  1  0
  9 10  1  0
  9  8  1  0
 11 22  2  0
 12 10  1  0
 12 17  1  0
 13 21  1  0
 13 23  1  0
 14 16  1  0
 15 21  1  0
 16 17  2  0
 16 15  1  0
 18 12  2  0
 19 18  1  0
 19 14  2  0
 20 14  1  0
 20 13  1  0
 21 11  1  0
 23 25  2  0
 24 23  1  0
 26 24  1  0
 27 36  2  0
 27 32  1  0
 28 24  1  0
 28 32  1  0
 29 28  1  0
 30 31  1  0
 30 29  1  0
 31 27  1  0
 32 33  2  0
 33 34  1  0
 35 34  2  0
 36 35  1  0
 37 11  1  0
 37 42  1  0
 37 38  1  0
 38 41  1  1
 38 39  1  0
 40 38  1  0
 42 45  1  0
 43 47  1  0
 43 42  1  0
 44 43  2  0
 47 46  1  0
 49 50  1  0
 49 47  1  0
 49 48  1  0
 51 56  1  0
 51  1  1  0
 52 53  1  0
 52 54  1  0
 53 55  1  0
 54 55  1  0
 55 51  1  0
 56 57  1  0
 57 66  1  0
 58 66  1  0
 59 64  1  0
 60 61  1  0
 60 59  1  0
 62 61  1  0
 62 71  1  0
 62 63  1  0
 64 58  1  0
 64 63  1  0
 65 58  2  0
 66 67  1  0
 68 69  2  0
 69 88  1  0
 70 69  1  0
 70 73  1  0
 71 68  1  0
 71 72  1  0
 72 70  2  0
 73 74  1  0
 74 75  2  0
 76 79  1  0
 76 75  1  0
 77 76  2  0
 78 77  1  0
 78 73  2  0
 79 80  1  0
 80 81  1  0
 81 82  2  0
 83 82  1  0
 83 87  1  0
 84 83  2  0
 85 80  2  0
 85 84  1  0
 86 85  1  0
 88 89  1  0
 89 92  1  0
 89 91  1  0
 90 88  2  0
 93 94  1  0
 93 68  1  0
 95 93  1  0
M  ISO  4   9 101  10 101  58 100  66 100
M  END
>  <TORSDO>  (44) 
F 25

>  <SCORE>  (44) 
-12.055

>  <name>  (44) 
44

>  <ligand_id>  (44) 
44

>  <original_smiles>  (44) 
[H]c1c([H])c([H])c2c(c1[H])C([H])([H])C([H])([H])C([H])([H])C2([H])N([H])C(=O)C1([H])N(C(=O)C([H])(N([H])C(=O)C([H])(N([H])C([H])([H])[H])C([H])([H])[H])C(C([H])([H])[H])(C([H])([H])[H])C([H])([H])[H])C([H])([H])c2c([H])c(OC([H])([H])C([H])([H])N([H])C([H])([H])C([H])([H])[N+]([H])([H])C([H])(C([H])([H])C([H])([H])N([H])C(=O)N3C([H])([H])C([H])([H])C([H])([H])C([H])(n4nc(-c5c([H])c([H])c(Oc6c([H])c([H])c(F)c([H])c6F)c([H])c5[H])c(C(=O)N([H])[H])c4N([H])[H])C3([H])[H])C3([H])C([H])([H])C([H])([H])C3([H])[H])c([H])c([H])c2C1([H])[H]

>  <smiles>  (44) 
[H]c1c([H])c([H])c2c(c1[H])C([H])([H])C([H])([H])C([H])([H])C2([H])N([H])C(=O)C1([H])N(C(=O)C([H])(N([H])C(=O)C([H])(N([H])C([H])([H])[H])C([H])([H])[H])C(C([H])([H])[H])(C([H])([H])[H])C([H])([H])[H])C([H])([H])c2c([H])c(OC([H])([H])C([H])([H])N([H])C([H])([H])C([H])([H])[N+]([H])([H])C([H])(C([H])([H])C([H])([H])N([H])C(=O)N3C([H])([H])C([H])([H])C([H])([H])C([H])(n4nc(-c5c([H])c([H])c(Oc6c([H])c([H])c(F)c([H])c6F)c([H])c5[H])c(C(=O)N([H])[H])c4N([H])[H])C3([H])[H])C3([H])C([H])([H])C([H])([H])C3([H])[H])c([H])c([H])c2C1([H])[H]

$$$$
45:0:0
     RDKit          3D

 91 99  0  0  1  0  0  0  0  0999 V2000
  -29.9070  -20.3400   20.6220 N   0  0  0  0  0  4  0  0  0  0  0  0
  -29.0670  -20.0790   20.1320 H   0  0  0  0  0  0  0  0  0  0  0  0
  -30.6750  -20.2740   19.9750 H   0  0  0  0  0  0  0  0  0  0  0  0
  -30.1130  -19.3720   21.7460 C   0  0  0  0  0  2  0  0  0  0  0  0
  -30.5790  -14.5530   20.1480 C   0  0  0  0  0  0  0  0  0  0  0  0
  -30.1500  -12.4690   18.8680 C   0  0  0  0  0  2  0  0  0  0  0  0
  -29.1380  -12.7300   17.7360 C   0  0  0  0  0  2  0  0  0  0  0  0
  -27.6930  -12.5800   18.2500 C   0  0  0  0  0  2  0  0  0  0  0  0
  -27.4470  -13.3690   19.5620 C   0  0  0  0  0  3  0  0  0  0  0  0
  -28.5610  -13.0840   20.5940 C   0  0  0  0  0  2  0  0  0  0  0  0
  -29.8620  -13.4010   19.9740 N   0  0  0  0  0  0  0  0  0  0  0  0
  -31.5590  -14.8290   19.4500 O   0  0  0  0  0  0  0  0  0  0  0  0
  -31.6740  -15.9800   22.8930 C   0  0  0  0  0  2  0  0  0  0  0  0
  -31.2960  -17.4630   22.8360 C   0  0  0  0  0  2  0  0  0  0  0  0
  -30.4650  -15.1320   22.4920 C   0  0  0  0  0  2  0  0  0  0  0  0
  -29.7500  -16.8520   20.8700 C   0  0  0  0  0  2  0  0  0  0  0  0
  -30.7250  -17.9360   21.4730 C   0  0  0  0  0  3  0  0  0  0  0  0
  -30.1280  -15.4210   21.0970 N   0  0  0  0  0  0  0  0  0  0  0  0
  -25.0930  -13.9830   20.4040 C   0  0  0  0  0  0  0  0  0  0  0  0
  -24.0410  -13.2140   20.8230 C   0  0  0  0  0  0  0  0  0  0  0  0
  -24.4900  -11.8600   20.7560 C   0  0  0  0  0  0  0  0  0  0  0  0
  -26.1180  -13.0980   20.1100 N   0  0  0  0  0  0  0  0  0  0  0  0
  -25.7610  -11.8150   20.3760 N   0  0  0  0  0  0  0  0  0  0  0  0
  -23.7660  -10.6010   20.9760 C   0  0  0  0  0  0  0  0  0  0  0  0
  -24.2330   -9.6310   21.8900 C   0  0  0  0  0  3  0  0  0  0  0  0
  -23.5090   -8.4370   22.0990 C   0  0  0  0  0  3  0  0  0  0  0  0
  -22.3060   -8.2040   21.3920 C   0  0  0  0  0  0  0  0  0  0  0  0
  -21.8570   -9.1620   20.4670 C   0  0  0  0  0  3  0  0  0  0  0  0
  -22.5810  -10.3480   20.2570 C   0  0  0  0  0  3  0  0  0  0  0  0
  -21.5500   -7.0620   21.5120 O   0  0  0  0  0  0  0  0  0  0  0  0
  -21.5330   -6.3280   22.6690 C   0  0  0  0  0  0  0  0  0  0  0  0
  -21.1620   -6.8970   23.9080 C   0  0  0  0  0  3  0  0  0  0  0  0
  -21.0900   -6.0900   25.0600 C   0  0  0  0  0  3  0  0  0  0  0  0
  -21.3790   -4.7150   24.9770 C   0  0  0  0  0  0  0  0  0  0  0  0
  -21.7420   -4.1450   23.7440 C   0  0  0  0  0  3  0  0  0  0  0  0
  -21.8160   -4.9500   22.5940 C   0  0  0  0  0  0  0  0  0  0  0  0
  -22.1450   -4.3910   21.4030 F   0  0  0  0  0  0  0  0  0  0  0  0
  -21.3020   -3.9380   26.0820 F   0  0  0  0  0  0  0  0  0  0  0  0
  -22.6640  -13.6980   21.1770 C   0  0  0  0  0  0  0  0  0  0  0  0
  -21.9800  -12.9990   22.0770 N   0  0  0  0  0  0  0  0  0  0  0  0
  -22.2040  -14.7300   20.6900 O   0  0  0  0  0  0  0  0  0  0  0  0
  -22.3660  -12.1660   22.4950 H   0  0  0  0  0  0  0  0  0  0  0  0
  -21.0570  -13.3030   22.3540 H   0  0  0  0  0  0  0  0  0  0  0  0
  -25.2560  -15.3540   20.2290 N   0  0  0  0  0  0  0  0  0  0  0  0
  -24.5020  -16.0120   20.3910 H   0  0  0  0  0  0  0  0  0  0  0  0
  -26.0970  -15.7920   19.8740 H   0  0  0  0  0  0  0  0  0  0  0  0
  -29.8000  -21.7670   21.0890 C   0  0  0  0  0  3  0  0  0  0  0  0
  -29.1510  -22.7970   20.1040 C   0  0  0  0  0  3  0  0  0  0  0  0
  -29.1890  -24.2950   20.5850 C   0  0  0  0  0  3  0  0  0  0  0  0
  -28.1640  -25.2450   19.8910 C   0  0  0  0  0  3  0  0  0  0  0  0
  -28.2640  -26.6540   20.2500 O   0  0  0  0  0  0  0  0  0  0  0  0
  -24.5150  -31.9730   23.2350 C   0  0  0  0  0  0  0  0  0  0  0  0
  -27.1120  -27.4390   20.1910 C   0  0  0  0  0  0  0  0  0  0  0  0
  -23.2980  -30.5690   21.6060 C   0  0  0  0  0  3  0  0  0  0  0  0
  -24.7370  -29.0110   20.1870 C   0  0  0  0  0  0  0  0  0  0  0  0
  -25.8320  -30.8900   21.4110 C   0  0  0  0  0  2  0  0  0  0  0  0
  -25.9040  -29.5120   20.7770 C   0  0  0  0  0  0  0  0  0  0  0  0
  -27.0910  -28.7340   20.7770 C   0  0  0  0  0  3  0  0  0  0  0  0
  -25.9250  -26.9820   19.5690 C   0  0  0  0  0  3  0  0  0  0  0  0
  -24.7460  -27.7470   19.5790 C   0  0  0  0  0  3  0  0  0  0  0  0
  -23.5020  -29.8820   20.2310 C   0  0  0  0  0  2  0  0  0  0  0  0
  -24.5670  -31.1610   22.1420 N   0  0  0  0  0  0  0  0  0  0  0  0
  -23.4360  -32.2600   23.7720 O   0  0  0  0  0  0  0  0  0  0  0  0
  -22.6370  -29.5600   22.5740 C   0  0  0  0  0  0  0  0  0  0  0  0
  -21.3130  -29.3760   22.4400 N   0  0  0  0  0  0  0  0  0  0  0  0
  -23.3130  -28.9460   23.4030 O   0  0  0  0  0  0  0  0  0  0  0  0
  -20.8270  -29.9250   21.7440 H   0  0  0  0  0  0  0  0  0  0  0  0
  -17.9380  -28.1720   22.9150 C   0  0  0  0  0  0  0  0  0  0  0  0
  -20.4900  -28.4490   23.2170 C   0  0  0  0  0  3  0  0  0  0  0  0
  -20.6090  -27.0080   22.6700 C   0  0  0  0  0  2  0  0  0  0  0  0
  -19.5230  -26.6600   21.6470 C   0  0  0  0  0  2  0  0  0  0  0  0
  -18.1310  -26.8110   22.2690 C   0  0  0  0  0  2  0  0  0  0  0  0
  -19.0470  -28.9480   23.3460 C   0  0  0  0  0  0  0  0  0  0  0  0
  -18.8120  -30.2220   23.9090 C   0  0  0  0  0  3  0  0  0  0  0  0
  -17.5030  -30.7190   24.0480 C   0  0  0  0  0  3  0  0  0  0  0  0
  -16.4090  -29.9400   23.6330 C   0  0  0  0  0  3  0  0  0  0  0  0
  -16.6270  -28.6680   23.0730 C   0  0  0  0  0  3  0  0  0  0  0  0
  -25.8050  -32.6010   23.8470 C   0  0  0  0  0  3  0  0  0  0  0  0
  -25.5060  -34.0020   24.1720 N   0  0  0  0  0  0  0  0  0  0  0  0
  -25.8350  -35.0480   23.4040 C   0  0  0  0  0  0  0  0  0  0  0  0
  -26.4960  -34.9360   22.3680 O   0  0  0  0  0  0  0  0  0  0  0  0
  -24.9190  -34.1640   24.9790 H   0  0  0  0  0  0  0  0  0  0  0  0
  -24.1090  -36.8440   23.0560 C   0  0  0  0  0  1  0  0  0  0  0  0
  -25.3570  -36.4410   23.8570 C   0  0  0  0  0  3  0  0  0  0  0  0
  -27.5060  -37.3230   24.6560 C   0  0  0  0  0  1  0  0  0  0  0  0
  -26.3920  -37.4900   23.7250 N   0  0  0  0  0  0  0  0  0  0  0  0
  -25.9910  -38.4130   23.8740 H   0  0  0  0  0  0  0  0  0  0  0  0
  -26.3250  -31.8320   25.1250 C   0  0  1  0  0  0  0  0  0  0  0  0
  -25.2340  -31.5960   26.1940 C   0  0  0  0  0  1  0  0  0  0  0  0
  -26.9070  -30.4520   24.7340 C   0  0  0  0  0  1  0  0  0  0  0  0
  -27.4760  -32.6270   25.7830 C   0  0  0  0  0  1  0  0  0  0  0  0
  1 47  1  0
  1  4  1  0
  2  1  1  0
  3  1  1  0
  5 18  1  0
  6 11  1  0
  7  8  1  0
  7  6  1  0
  9  8  1  0
  9 22  1  0
  9 10  1  0
 11  5  1  0
 11 10  1  0
 12  5  2  0
 14 13  1  0
 15 13  1  0
 16 18  1  0
 16 17  1  0
 17  4  1  0
 17 14  1  0
 18 15  1  0
 19 20  2  0
 20 39  1  0
 21 20  1  0
 21 24  1  0
 22 23  1  0
 22 19  1  0
 23 21  2  0
 24 25  1  0
 25 26  2  0
 27 30  1  0
 27 26  1  0
 28 27  2  0
 29 28  1  0
 29 24  2  0
 30 31  1  0
 31 32  1  0
 32 33  2  0
 34 33  1  0
 34 38  1  0
 35 34  2  0
 36 31  2  0
 36 35  1  0
 37 36  1  0
 39 40  1  0
 40 43  1  0
 40 42  1  0
 41 39  2  0
 44 45  1  0
 44 19  1  0
 46 44  1  0
 48 49  1  0
 48 47  2  0
 50 51  1  0
 50 49  2  0
 52 63  2  0
 53 51  1  0
 53 58  1  0
 54 62  1  0
 54 64  1  0
 55 61  1  0
 55 57  1  0
 56 62  1  0
 57 58  2  0
 57 56  1  0
 59 60  1  0
 59 53  2  0
 60 55  2  0
 61 54  1  0
 62 52  1  0
 64 66  2  0
 65 64  1  0
 67 65  1  0
 68 77  2  0
 68 73  1  0
 69 65  1  0
 69 73  1  0
 70 69  1  0
 71 72  1  0
 71 70  1  0
 72 68  1  0
 73 74  2  0
 74 75  1  0
 76 75  2  0
 77 76  1  0
 78 52  1  0
 78 79  1  0
 78 88  1  0
 79 82  1  0
 80 84  1  0
 80 79  1  0
 81 80  2  0
 84 83  1  0
 86 84  1  0
 86 87  1  0
 86 85  1  0
 88 91  1  1
 88 89  1  0
 90 88  1  0
M  ISO  4   5 100  18 100  50 101  51 101
M  END
>  <TORSDO>  (45) 
F 21

>  <SCORE>  (45) 
-9.822

>  <name>  (45) 
45

>  <ligand_id>  (45) 
45

>  <original_smiles>  (45) 
[H]c1c([H])c([H])c2c(c1[H])C([H])([H])C([H])([H])C([H])([H])C2([H])N([H])C(=O)C1([H])N(C(=O)C([H])(N([H])C(=O)C([H])(N([H])C([H])([H])[H])C([H])([H])[H])C(C([H])([H])[H])(C([H])([H])[H])C([H])([H])[H])C([H])([H])c2c([H])c(OC([H])([H])C([H])([H])C([H])([H])C([H])([H])[N+]([H])([H])C([H])([H])C3([H])C([H])([H])N(C(=O)N4C([H])([H])C([H])([H])C([H])([H])C([H])(n5nc(-c6c([H])c([H])c(Oc7c([H])c([H])c(F)c([H])c7F)c([H])c6[H])c(C(=O)N([H])[H])c5N([H])[H])C4([H])[H])C([H])([H])C([H])([H])C3([H])[H])c([H])c([H])c2C1([H])[H]

>  <smiles>  (45) 
[H]c1c([H])c([H])c2c(c1[H])C([H])([H])C([H])([H])C([H])([H])C2([H])N([H])C(=O)C1([H])N(C(=O)C([H])(N([H])C(=O)C([H])(N([H])C([H])([H])[H])C([H])([H])[H])C(C([H])([H])[H])(C([H])([H])[H])C([H])([H])[H])C([H])([H])c2c([H])c(OC([H])([H])C([H])([H])C([H])([H])C([H])([H])[N+]([H])([H])C([H])([H])C3([H])C([H])([H])N(C(=O)N4C([H])([H])C([H])([H])C([H])([H])C([H])(n5nc(-c6c([H])c([H])c(Oc7c([H])c([H])c(F)c([H])c7F)c([H])c6[H])c(C(=O)N([H])[H])c5N([H])[H])C4([H])[H])C([H])([H])C([H])([H])C3([H])[H])c([H])c([H])c2C1([H])[H]

$$$$
46:0:0
     RDKit          3D

 93101  0  0  1  0  0  0  0  0999 V2000
  -27.9790  -18.3360   20.0300 C   0  0  0  0  0  2  0  0  0  0  0  0
  -29.0890  -17.4680   17.9250 C   0  0  0  0  0  2  0  0  0  0  0  0
  -28.7450  -19.6480   19.8450 C   0  0  0  0  0  2  0  0  0  0  0  0
  -29.8030  -18.8230   17.7690 C   0  0  0  0  0  2  0  0  0  0  0  0
  -28.7050  -17.1500   19.3870 C   0  0  0  0  0  3  0  0  0  0  0  0
  -29.0280  -19.9170   18.4050 N   0  0  2  0  0  4  0  0  0  0  0  0
  -28.1320  -19.9360   17.9390 H   0  0  0  0  0  0  0  0  0  0  0  0
  -30.6490  -14.4290   20.5460 C   0  0  0  0  0  0  0  0  0  0  0  0
  -30.3860  -12.2790   19.4170 C   0  0  0  0  0  2  0  0  0  0  0  0
  -29.4660  -12.5290   18.2020 C   0  0  0  0  0  2  0  0  0  0  0  0
  -27.9820  -12.3910   18.6000 C   0  0  0  0  0  2  0  0  0  0  0  0
  -27.6240  -13.2180   19.8610 C   0  0  0  0  0  3  0  0  0  0  0  0
  -28.6540  -12.9610   20.9900 C   0  0  0  0  0  2  0  0  0  0  0  0
  -30.0040  -13.2390   20.4600 N   0  0  0  0  0  0  0  0  0  0  0  0
  -31.8280  -14.5950   20.2220 O   0  0  0  0  0  0  0  0  0  0  0  0
  -29.9080  -16.6590   20.2100 C   0  0  0  0  0  0  0  0  0  0  0  0
  -29.7710  -15.4260   20.7000 N   0  0  0  0  0  0  0  0  0  0  0  0
  -30.9190  -17.3570   20.3300 O   0  0  0  0  0  0  0  0  0  0  0  0
  -28.8300  -15.0840   20.7860 H   0  0  0  0  0  0  0  0  0  0  0  0
  -25.2090  -13.8720   20.4880 C   0  0  0  0  0  0  0  0  0  0  0  0
  -24.1270  -13.1130   20.8420 C   0  0  0  0  0  0  0  0  0  0  0  0
  -24.5810  -11.7600   20.8480 C   0  0  0  0  0  0  0  0  0  0  0  0
  -26.2550  -12.9770   20.3030 N   0  0  0  0  0  0  0  0  0  0  0  0
  -25.8780  -11.7050   20.5750 N   0  0  0  0  0  0  0  0  0  0  0  0
  -23.8480  -10.5050   21.0420 C   0  0  0  0  0  0  0  0  0  0  0  0
  -24.2690   -9.5440   21.9870 C   0  0  0  0  0  3  0  0  0  0  0  0
  -23.5400   -8.3490   22.1630 C   0  0  0  0  0  3  0  0  0  0  0  0
  -22.3760   -8.1100   21.3950 C   0  0  0  0  0  0  0  0  0  0  0  0
  -21.9750   -9.0580   20.4390 C   0  0  0  0  0  3  0  0  0  0  0  0
  -22.7050  -10.2440   20.2610 C   0  0  0  0  0  3  0  0  0  0  0  0
  -21.6180   -6.9680   21.4830 O   0  0  0  0  0  0  0  0  0  0  0  0
  -21.5680   -6.2250   22.6340 C   0  0  0  0  0  0  0  0  0  0  0  0
  -21.1590   -6.7830   23.8640 C   0  0  0  0  0  3  0  0  0  0  0  0
  -21.0560   -5.9680   25.0090 C   0  0  0  0  0  3  0  0  0  0  0  0
  -21.3490   -4.5940   24.9220 C   0  0  0  0  0  0  0  0  0  0  0  0
  -21.7490   -4.0330   23.6960 C   0  0  0  0  0  3  0  0  0  0  0  0
  -21.8560   -4.8480   22.5540 C   0  0  0  0  0  0  0  0  0  0  0  0
  -22.2230   -4.2990   21.3710 F   0  0  0  0  0  0  0  0  0  0  0  0
  -21.2420   -3.8070   26.0190 F   0  0  0  0  0  0  0  0  0  0  0  0
  -22.7250  -13.6010   21.0700 C   0  0  0  0  0  0  0  0  0  0  0  0
  -21.9720  -12.9210   21.9280 N   0  0  0  0  0  0  0  0  0  0  0  0
  -22.3050  -14.6210   20.5250 O   0  0  0  0  0  0  0  0  0  0  0  0
  -22.3240  -12.0950   22.3900 H   0  0  0  0  0  0  0  0  0  0  0  0
  -21.0300  -13.2290   22.1240 H   0  0  0  0  0  0  0  0  0  0  0  0
  -25.3800  -15.2390   20.2870 N   0  0  0  0  0  0  0  0  0  0  0  0
  -24.5950  -15.8780   20.3520 H   0  0  0  0  0  0  0  0  0  0  0  0
  -26.2100  -15.6780   19.9160 H   0  0  0  0  0  0  0  0  0  0  0  0
  -29.6410  -21.2420   18.1350 C   0  0  0  0  0  2  0  0  0  0  0  0
  -28.9050  -22.3730   18.8600 C   0  0  0  0  0  2  0  0  0  0  0  0
  -29.2650  -23.7770   18.3980 C   0  0  0  0  0  2  0  0  0  0  0  0
  -28.7530  -24.7520   19.4580 C   0  0  0  0  0  2  0  0  0  0  0  0
  -28.8650  -26.2110   19.0580 C   0  0  0  0  0  2  0  0  0  0  0  0
  -28.4820  -26.9450   20.2060 O   0  0  0  0  0  0  0  0  0  0  0  0
  -24.5720  -31.9600   23.2580 C   0  0  0  0  0  0  0  0  0  0  0  0
  -27.2510  -27.5490   20.2130 C   0  0  0  0  0  0  0  0  0  0  0  0
  -23.3650  -30.5400   21.6260 C   0  0  0  0  0  3  0  0  0  0  0  0
  -24.8240  -28.9830   20.2270 C   0  0  0  0  0  0  0  0  0  0  0  0
  -25.8820  -30.9070   21.4290 C   0  0  0  0  0  2  0  0  0  0  0  0
  -25.9680  -29.5300   20.8200 C   0  0  0  0  0  0  0  0  0  0  0  0
  -27.1740  -28.8080   20.8310 C   0  0  0  0  0  3  0  0  0  0  0  0
  -26.0890  -26.9900   19.6290 C   0  0  0  0  0  3  0  0  0  0  0  0
  -24.8750  -27.7040   19.6380 C   0  0  0  0  0  3  0  0  0  0  0  0
  -23.5740  -29.8310   20.2580 C   0  0  0  0  0  2  0  0  0  0  0  0
  -24.6230  -31.1540   22.1630 N   0  0  0  0  0  0  0  0  0  0  0  0
  -23.4900  -32.2420   23.7930 O   0  0  0  0  0  0  0  0  0  0  0  0
  -22.7110  -29.5350   22.6000 C   0  0  0  0  0  0  0  0  0  0  0  0
  -21.3880  -29.3590   22.4700 N   0  0  0  0  0  0  0  0  0  0  0  0
  -23.3910  -28.9150   23.4220 O   0  0  0  0  0  0  0  0  0  0  0  0
  -20.9040  -29.9100   21.7760 H   0  0  0  0  0  0  0  0  0  0  0  0
  -18.0060  -28.1950   22.9640 C   0  0  0  0  0  0  0  0  0  0  0  0
  -20.5650  -28.4330   23.2440 C   0  0  0  0  0  3  0  0  0  0  0  0
  -20.6580  -26.9970   22.6790 C   0  0  0  0  0  2  0  0  0  0  0  0
  -19.5580  -26.6770   21.6630 C   0  0  0  0  0  2  0  0  0  0  0  0
  -18.1730  -26.8400   22.2960 C   0  0  0  0  0  2  0  0  0  0  0  0
  -19.1290  -28.9510   23.3930 C   0  0  0  0  0  0  0  0  0  0  0  0
  -18.9190  -30.2220   23.9710 C   0  0  0  0  0  3  0  0  0  0  0  0
  -17.6180  -30.7350   24.1250 C   0  0  0  0  0  3  0  0  0  0  0  0
  -16.5100  -29.9760   23.7130 C   0  0  0  0  0  3  0  0  0  0  0  0
  -16.7040  -28.7060   23.1410 C   0  0  0  0  0  3  0  0  0  0  0  0
  -25.8610  -32.5920   23.8770 C   0  0  0  0  0  3  0  0  0  0  0  0
  -25.5590  -33.9910   24.1960 N   0  0  0  0  0  0  0  0  0  0  0  0
  -25.9010  -35.0370   23.4300 C   0  0  0  0  0  0  0  0  0  0  0  0
  -26.5780  -34.9230   22.4040 O   0  0  0  0  0  0  0  0  0  0  0  0
  -24.9640  -34.1590   24.9930 H   0  0  0  0  0  0  0  0  0  0  0  0
  -24.1800  -36.8310   23.0530 C   0  0  0  0  0  1  0  0  0  0  0  0
  -25.4160  -36.4300   23.8740 C   0  0  0  0  0  3  0  0  0  0  0  0
  -27.5520  -37.3120   24.7060 C   0  0  0  0  0  1  0  0  0  0  0  0
  -26.4540  -37.4790   23.7590 N   0  0  0  0  0  0  0  0  0  0  0  0
  -26.0480  -38.4010   23.9000 H   0  0  0  0  0  0  0  0  0  0  0  0
  -26.3790  -31.8240   25.1540 C   0  0  1  0  0  0  0  0  0  0  0  0
  -25.2880  -31.5980   26.2260 C   0  0  0  0  0  1  0  0  0  0  0  0
  -26.9500  -30.4410   24.7630 C   0  0  0  0  0  1  0  0  0  0  0  0
  -27.5380  -32.6140   25.8090 C   0  0  0  0  0  1  0  0  0  0  0  0
  2  5  1  0
  3  1  1  0
  4  2  1  0
  4  6  1  0
  5  1  1  0
  5 16  1  0
  6  3  1  0
  6  7  1  6
  8 17  1  0
  9 14  1  0
 10 11  1  0
 10  9  1  0
 12 11  1  0
 12 23  1  0
 12 13  1  0
 14  8  1  0
 14 13  1  0
 15  8  2  0
 16 18  2  0
 16 17  1  0
 17 19  1  0
 20 21  2  0
 21 22  1  0
 21 40  1  0
 22 25  1  0
 23 20  1  0
 23 24  1  0
 24 22  2  0
 25 26  1  0
 26 27  2  0
 28 31  1  0
 28 27  1  0
 29 28  2  0
 30 29  1  0
 30 25  2  0
 31 32  1  0
 32 33  1  0
 33 34  2  0
 35 34  1  0
 35 39  1  0
 36 35  2  0
 37 32  2  0
 37 36  1  0
 38 37  1  0
 40 41  1  0
 41 44  1  0
 41 43  1  0
 42 40  2  0
 45 46  1  0
 45 20  1  0
 47 45  1  0
 48  6  1  0
 48 49  1  0
 50 49  1  0
 50 51  1  0
 52 51  1  0
 52 53  1  0
 53 55  1  0
 54 65  2  0
 55 60  1  0
 56 64  1  0
 56 66  1  0
 57 63  1  0
 57 59  1  0
 58 64  1  0
 59 60  2  0
 59 58  1  0
 61 62  1  0
 61 55  2  0
 62 57  2  0
 63 56  1  0
 64 54  1  0
 66 68  2  0
 67 66  1  0
 69 67  1  0
 70 79  2  0
 70 75  1  0
 71 67  1  0
 71 75  1  0
 72 71  1  0
 73 74  1  0
 73 72  1  0
 74 70  1  0
 75 76  2  0
 76 77  1  0
 78 77  2  0
 79 78  1  0
 80 54  1  0
 80 81  1  0
 80 90  1  0
 81 84  1  0
 82 86  1  0
 82 81  1  0
 83 82  2  0
 86 85  1  0
 88 86  1  0
 88 89  1  0
 88 87  1  0
 90 93  1  1
 90 91  1  0
 92 90  1  0
M  ISO  4   8 100  17 100  52 101  53 101
M  END
>  <TORSDO>  (46) 
F 21

>  <SCORE>  (46) 
-13.355

>  <name>  (46) 
46

>  <ligand_id>  (46) 
46

>  <original_smiles>  (46) 
[H]c1c([H])c([H])c2c(c1[H])C([H])([H])C([H])([H])C([H])([H])C2([H])N([H])C(=O)C1([H])N(C(=O)C([H])(N([H])C(=O)C([H])(N([H])C([H])([H])[H])C([H])([H])[H])C(C([H])([H])[H])(C([H])([H])[H])C([H])([H])[H])C([H])([H])c2c([H])c(OC([H])([H])C([H])([H])C([H])([H])C([H])([H])C([H])([H])[N+]3([H])C([H])([H])C([H])([H])C([H])(C(=O)N([H])C(=O)N4C([H])([H])C([H])([H])C([H])([H])C([H])(n5nc(-c6c([H])c([H])c(Oc7c([H])c([H])c(F)c([H])c7F)c([H])c6[H])c(C(=O)N([H])[H])c5N([H])[H])C4([H])[H])C([H])([H])C3([H])[H])c([H])c([H])c2C1([H])[H]

>  <smiles>  (46) 
[H]c1c([H])c([H])c2c(c1[H])C([H])([H])C([H])([H])C([H])([H])C2([H])N([H])C(=O)C1([H])N(C(=O)C([H])(N([H])C(=O)C([H])(N([H])C([H])([H])[H])C([H])([H])[H])C(C([H])([H])[H])(C([H])([H])[H])C([H])([H])[H])C([H])([H])c2c([H])c(OC([H])([H])C([H])([H])C([H])([H])C([H])([H])C([H])([H])[N+]3([H])C([H])([H])C([H])([H])C([H])(C(=O)N([H])C(=O)N4C([H])([H])C([H])([H])C([H])([H])C([H])(n5nc(-c6c([H])c([H])c(Oc7c([H])c([H])c(F)c([H])c7F)c([H])c6[H])c(C(=O)N([H])[H])c5N([H])[H])C4([H])[H])C([H])([H])C3([H])[H])c([H])c([H])c2C1([H])[H]

$$$$
47:0:0
     RDKit          3D

 92100  0  0  1  0  0  0  0  0999 V2000
  -28.7170  -19.3450   20.4320 C   0  0  0  0  0  0  0  0  0  0  0  0
  -28.5790  -20.6690   20.2270 N   0  0  0  0  0  0  0  0  0  0  0  0
  -27.7260  -18.6310   20.2920 O   0  0  0  0  0  0  0  0  0  0  0  0
  -27.6410  -20.9500   19.9800 H   0  0  0  0  0  0  0  0  0  0  0  0
  -30.9310  -14.3270   19.5020 C   0  0  0  0  0  0  0  0  0  0  0  0
  -30.3380  -12.2700   18.2760 C   0  0  0  0  0  2  0  0  0  0  0  0
  -29.2540  -12.6050   17.2330 C   0  0  0  0  0  2  0  0  0  0  0  0
  -27.8470  -12.5070   17.8650 C   0  0  0  0  0  2  0  0  0  0  0  0
  -27.7380  -13.2560   19.2230 C   0  0  0  0  0  3  0  0  0  0  0  0
  -28.9320  -12.9180   20.1420 C   0  0  0  0  0  2  0  0  0  0  0  0
  -30.1750  -13.2010   19.4020 N   0  0  0  0  0  0  0  0  0  0  0  0
  -31.9490  -14.5160   18.8230 O   0  0  0  0  0  0  0  0  0  0  0  0
  -29.5240  -16.4760   22.2220 C   0  0  0  0  0  2  0  0  0  0  0  0
  -29.9300  -17.9660   22.2400 C   0  0  0  0  0  2  0  0  0  0  0  0
  -30.7340  -17.8600   19.7580 C   0  0  0  0  0  2  0  0  0  0  0  0
  -30.5810  -15.5620   21.5730 C   0  0  0  0  0  2  0  0  0  0  0  0
  -30.0240  -16.5560   19.3250 C   0  0  0  0  0  2  0  0  0  0  0  0
  -30.0560  -18.6970   20.8770 C   0  0  0  0  0  3  0  0  0  0  0  0
  -30.3450  -15.3640   20.1340 N   0  0  0  0  0  0  0  0  0  0  0  0
  -25.4880  -13.8740   20.3130 C   0  0  0  0  0  0  0  0  0  0  0  0
  -24.4750  -13.1020   20.8200 C   0  0  0  0  0  0  0  0  0  0  0  0
  -24.8980  -11.7460   20.6660 C   0  0  0  0  0  0  0  0  0  0  0  0
  -26.4650  -12.9860   19.8890 N   0  0  0  0  0  0  0  0  0  0  0  0
  -26.1230  -11.6990   20.1590 N   0  0  0  0  0  0  0  0  0  0  0  0
  -24.1830  -10.4870   20.9220 C   0  0  0  0  0  0  0  0  0  0  0  0
  -24.6550   -9.5540   21.8710 C   0  0  0  0  0  3  0  0  0  0  0  0
  -23.9430   -8.3580   22.1120 C   0  0  0  0  0  3  0  0  0  0  0  0
  -22.7450   -8.0900   21.4040 C   0  0  0  0  0  0  0  0  0  0  0  0
  -22.2930   -9.0140   20.4460 C   0  0  0  0  0  3  0  0  0  0  0  0
  -23.0060  -10.2010   20.2030 C   0  0  0  0  0  3  0  0  0  0  0  0
  -22.0010   -6.9450   21.5520 O   0  0  0  0  0  0  0  0  0  0  0  0
  -21.8980   -6.3040   22.7610 C   0  0  0  0  0  0  0  0  0  0  0  0
  -21.3990   -6.9570   23.9100 C   0  0  0  0  0  3  0  0  0  0  0  0
  -21.2450   -6.2410   25.1120 C   0  0  0  0  0  3  0  0  0  0  0  0
  -21.5790   -4.8740   25.1680 C   0  0  0  0  0  0  0  0  0  0  0  0
  -22.0780   -4.2240   24.0260 C   0  0  0  0  0  3  0  0  0  0  0  0
  -22.2340   -4.9360   22.8250 C   0  0  0  0  0  0  0  0  0  0  0  0
  -22.6890   -4.3000   21.7170 F   0  0  0  0  0  0  0  0  0  0  0  0
  -21.4260   -4.1860   26.3230 F   0  0  0  0  0  0  0  0  0  0  0  0
  -23.1530  -13.5880   21.3350 C   0  0  0  0  0  0  0  0  0  0  0  0
  -22.5900  -12.9010   22.3260 N   0  0  0  0  0  0  0  0  0  0  0  0
  -22.6320  -14.6110   20.8950 O   0  0  0  0  0  0  0  0  0  0  0  0
  -23.0270  -12.0760   22.7060 H   0  0  0  0  0  0  0  0  0  0  0  0
  -21.7060  -13.2050   22.7070 H   0  0  0  0  0  0  0  0  0  0  0  0
  -25.6450  -15.2500   20.1640 N   0  0  0  0  0  0  0  0  0  0  0  0
  -24.9200  -15.9060   20.4260 H   0  0  0  0  0  0  0  0  0  0  0  0
  -26.4540  -15.7030   19.7620 H   0  0  0  0  0  0  0  0  0  0  0  0
  -29.5510  -21.7660   20.2460 C   0  0  0  0  0  2  0  0  0  0  0  0
  -28.9860  -23.0280   20.9470 C   0  0  0  0  0  2  0  0  0  0  0  0
  -28.6970  -24.2500   20.0410 C   0  0  0  0  0  2  0  0  0  0  0  0
  -28.9030  -25.5920   20.7880 C   0  0  0  0  0  2  0  0  0  0  0  0
  -28.7470  -26.7500   19.9620 O   0  0  0  0  0  0  0  0  0  0  0  0
  -24.6130  -31.6420   23.1070 C   0  0  0  0  0  0  0  0  0  0  0  0
  -27.5310  -27.3910   20.0210 C   0  0  0  0  0  0  0  0  0  0  0  0
  -23.5060  -30.2200   21.4090 C   0  0  0  0  0  3  0  0  0  0  0  0
  -25.0620  -28.7650   20.0040 C   0  0  0  0  0  0  0  0  0  0  0  0
  -26.0150  -30.6980   21.2730 C   0  0  0  0  0  2  0  0  0  0  0  0
  -26.1800  -29.3420   20.6220 C   0  0  0  0  0  0  0  0  0  0  0  0
  -27.4200  -28.6660   20.6230 C   0  0  0  0  0  3  0  0  0  0  0  0
  -26.3940  -26.8130   19.4190 C   0  0  0  0  0  3  0  0  0  0  0  0
  -25.1620  -27.4960   19.4060 C   0  0  0  0  0  3  0  0  0  0  0  0
  -23.7800  -29.5700   20.0240 C   0  0  0  0  0  2  0  0  0  0  0  0
  -24.7270  -30.8680   21.9900 N   0  0  0  0  0  0  0  0  0  0  0  0
  -23.5110  -31.8530   23.6310 O   0  0  0  0  0  0  0  0  0  0  0  0
  -22.8800  -29.1540   22.3400 C   0  0  0  0  0  0  0  0  0  0  0  0
  -21.5640  -28.9260   22.1870 N   0  0  0  0  0  0  0  0  0  0  0  0
  -23.5750  -28.5350   23.1500 O   0  0  0  0  0  0  0  0  0  0  0  0
  -21.0650  -29.4820   21.5080 H   0  0  0  0  0  0  0  0  0  0  0  0
  -18.2250  -27.6180   22.6210 C   0  0  0  0  0  0  0  0  0  0  0  0
  -20.7710  -27.9410   22.9230 C   0  0  0  0  0  3  0  0  0  0  0  0
  -20.9200  -26.5310   22.3040 C   0  0  0  0  0  2  0  0  0  0  0  0
  -19.8380  -26.2090   21.2700 C   0  0  0  0  0  2  0  0  0  0  0  0
  -18.4480  -26.2940   21.9070 C   0  0  0  0  0  2  0  0  0  0  0  0
  -19.3170  -28.3980   23.0820 C   0  0  0  0  0  0  0  0  0  0  0  0
  -19.0590  -29.6370   23.7080 C   0  0  0  0  0  3  0  0  0  0  0  0
  -17.7390  -30.0960   23.8780 C   0  0  0  0  0  3  0  0  0  0  0  0
  -16.6610  -29.3140   23.4340 C   0  0  0  0  0  3  0  0  0  0  0  0
  -16.9030  -28.0750   22.8110 C   0  0  0  0  0  3  0  0  0  0  0  0
  -25.8560  -32.3180   23.7640 C   0  0  0  0  0  3  0  0  0  0  0  0
  -26.3710  -31.5580   25.0480 C   0  0  1  0  0  0  0  0  0  0  0  0
  -25.2610  -31.2710   26.0830 C   0  0  0  0  0  1  0  0  0  0  0  0
  -27.0160  -30.2080   24.6600 C   0  0  0  0  0  1  0  0  0  0  0  0
  -27.4690  -32.3910   25.7500 C   0  0  0  0  0  1  0  0  0  0  0  0
  -25.4890  -33.7010   24.0890 N   0  0  0  0  0  0  0  0  0  0  0  0
  -25.7940  -34.7670   23.3350 C   0  0  0  0  0  0  0  0  0  0  0  0
  -26.4870  -34.6930   22.3190 O   0  0  0  0  0  0  0  0  0  0  0  0
  -24.8690  -33.8340   24.8750 H   0  0  0  0  0  0  0  0  0  0  0  0
  -23.9900  -36.4820   22.9590 C   0  0  0  0  0  1  0  0  0  0  0  0
  -25.2410  -36.1350   23.7820 C   0  0  0  0  0  3  0  0  0  0  0  0
  -27.3230  -37.1230   24.6340 C   0  0  0  0  0  1  0  0  0  0  0  0
  -26.2260  -37.2320   23.6730 N   0  0  0  0  0  0  0  0  0  0  0  0
  -25.7770  -38.1330   23.8110 H   0  0  0  0  0  0  0  0  0  0  0  0
  2 48  1  0
  2  1  1  0
  3  1  2  0
  4  2  1  0
  5 19  1  0
  6 11  1  0
  7  8  1  0
  7  6  1  0
  9  8  1  0
  9 23  1  0
  9 10  1  0
 11  5  1  0
 11 10  1  0
 12  5  2  0
 13 14  1  0
 15 18  1  0
 16 13  1  0
 17 15  1  0
 17 19  1  0
 18  1  1  0
 18 14  1  0
 19 16  1  0
 20 21  2  0
 21 40  1  0
 22 21  1  0
 22 25  1  0
 23 24  1  0
 23 20  1  0
 24 22  2  0
 25 26  1  0
 26 27  2  0
 28 31  1  0
 28 27  1  0
 29 28  2  0
 30 29  1  0
 30 25  2  0
 31 32  1  0
 32 37  2  0
 32 33  1  0
 33 34  2  0
 34 35  1  0
 35 39  1  0
 36 35  2  0
 37 36  1  0
 38 37  1  0
 40 41  1  0
 41 43  1  0
 41 44  1  0
 42 40  2  0
 45 20  1  0
 45 46  1  0
 47 45  1  0
 48 49  1  0
 50 51  1  0
 50 49  1  0
 52 54  1  0
 52 51  1  0
 53 64  2  0
 54 59  1  0
 55 63  1  0
 55 65  1  0
 56 62  1  0
 56 58  1  0
 57 63  1  0
 58 59  2  0
 58 57  1  0
 60 54  2  0
 61 60  1  0
 61 56  2  0
 62 55  1  0
 63 53  1  0
 65 67  2  0
 66 65  1  0
 68 66  1  0
 69 78  2  0
 69 74  1  0
 70 66  1  0
 70 74  1  0
 71 70  1  0
 72 73  1  0
 72 71  1  0
 73 69  1  0
 74 75  2  0
 75 76  1  0
 77 76  2  0
 78 77  1  0
 79 53  1  0
 79 84  1  0
 79 80  1  0
 80 83  1  1
 80 81  1  0
 82 80  1  0
 84 87  1  0
 85 89  1  0
 85 84  1  0
 86 85  2  0
 89 88  1  0
 91 89  1  0
 91 92  1  0
 91 90  1  0
M  ISO  4   5 100  19 100  51 101  52 101
M  END
>  <TORSDO>  (47) 
F 20

>  <SCORE>  (47) 
-11.015

>  <name>  (47) 
47

>  <ligand_id>  (47) 
47

>  <original_smiles>  (47) 
[H]c1c([H])c([H])c2c(c1[H])C([H])([H])C([H])([H])C([H])([H])C2([H])N([H])C(=O)C1([H])N(C(=O)C([H])(N([H])C(=O)C([H])(N([H])C([H])([H])[H])C([H])([H])[H])C(C([H])([H])[H])(C([H])([H])[H])C([H])([H])[H])C([H])([H])c2c([H])c(OC([H])([H])C([H])([H])C([H])([H])C([H])([H])N([H])C(=O)C3([H])C([H])([H])C([H])([H])N(C(=O)N4C([H])([H])C([H])([H])C([H])([H])C([H])(n5nc(-c6c([H])c([H])c(Oc7c([H])c([H])c(F)c([H])c7F)c([H])c6[H])c(C(=O)N([H])[H])c5N([H])[H])C4([H])[H])C([H])([H])C([H])([H])C3([H])[H])c([H])c([H])c2C1([H])[H]

>  <smiles>  (47) 
[H]c1c([H])c([H])c2c(c1[H])C([H])([H])C([H])([H])C([H])([H])C2([H])N([H])C(=O)C1([H])N(C(=O)C([H])(N([H])C(=O)C([H])(N([H])C([H])([H])[H])C([H])([H])[H])C(C([H])([H])[H])(C([H])([H])[H])C([H])([H])[H])C([H])([H])c2c([H])c(OC([H])([H])C([H])([H])C([H])([H])C([H])([H])N([H])C(=O)C3([H])C([H])([H])C([H])([H])N(C(=O)N4C([H])([H])C([H])([H])C([H])([H])C([H])(n5nc(-c6c([H])c([H])c(Oc7c([H])c([H])c(F)c([H])c7F)c([H])c6[H])c(C(=O)N([H])[H])c5N([H])[H])C4([H])[H])C([H])([H])C([H])([H])C3([H])[H])c([H])c([H])c2C1([H])[H]

$$$$
48:0:0
     RDKit          3D

 94101  0  0  1  0  0  0  0  0999 V2000
  -28.0280  -21.7920   20.7680 C   0  0  0  0  0  2  0  0  0  0  0  0
  -27.7560  -23.1800   21.1850 N   0  0  0  0  0  4  0  0  0  0  0  0
  -26.9950  -23.5520   20.6380 H   0  0  0  0  0  0  0  0  0  0  0  0
  -28.5760  -23.7250   20.9750 H   0  0  0  0  0  0  0  0  0  0  0  0
  -27.4380  -23.3570   22.6170 C   0  0  0  0  0  2  0  0  0  0  0  0
  -27.7540  -24.7940   23.0510 C   0  0  0  0  0  2  0  0  0  0  0  0
  -26.7340  -25.3980   24.0290 C   0  0  0  0  0  2  0  0  0  0  0  0
  -27.3750  -25.8940   25.2010 O   0  0  0  0  0  0  0  0  0  0  0  0
  -28.7360  -32.7400   23.7930 C   0  0  0  0  0  0  0  0  0  0  0  0
  -28.3070  -26.8770   24.9900 C   0  0  0  0  0  0  0  0  0  0  0  0
  -30.6850  -31.2150   23.7490 C   0  0  0  0  0  3  0  0  0  0  0  0
  -30.2700  -28.8690   24.6540 C   0  0  0  0  0  0  0  0  0  0  0  0
  -28.6480  -30.6910   25.2000 C   0  0  0  0  0  2  0  0  0  0  0  0
  -28.9610  -29.2250   25.0020 C   0  0  0  0  0  0  0  0  0  0  0  0
  -27.9700  -28.2350   25.1660 C   0  0  0  0  0  3  0  0  0  0  0  0
  -29.6290  -26.5250   24.6520 C   0  0  0  0  0  3  0  0  0  0  0  0
  -30.6090  -27.5170   24.4680 C   0  0  0  0  0  3  0  0  0  0  0  0
  -31.2690  -29.9930   24.5070 C   0  0  0  0  0  2  0  0  0  0  0  0
  -29.3090  -31.5800   24.2190 N   0  0  0  0  0  0  0  0  0  0  0  0
  -29.3490  -33.5230   23.0560 O   0  0  0  0  0  0  0  0  0  0  0  0
  -30.7570  -30.9320   22.2320 C   0  0  0  0  0  0  0  0  0  0  0  0
  -31.9860  -30.8930   21.6900 N   0  0  0  0  0  0  0  0  0  0  0  0
  -29.7320  -30.7250   21.5770 O   0  0  0  0  0  0  0  0  0  0  0  0
  -32.7740  -31.0810   22.2940 H   0  0  0  0  0  0  0  0  0  0  0  0
  -34.6980  -30.5520   19.3320 C   0  0  0  0  0  0  0  0  0  0  0  0
  -32.3000  -30.6080   20.2920 C   0  0  0  0  0  3  0  0  0  0  0  0
  -32.2620  -29.0880   20.0120 C   0  0  0  0  0  2  0  0  0  0  0  0
  -33.6280  -28.4120   20.1580 C   0  0  0  0  0  2  0  0  0  0  0  0
  -34.6420  -29.0390   19.1980 C   0  0  0  0  0  2  0  0  0  0  0  0
  -33.6050  -31.2860   19.8610 C   0  0  0  0  0  0  0  0  0  0  0  0
  -33.7230  -32.6860   19.9990 C   0  0  0  0  0  3  0  0  0  0  0  0
  -34.9030  -33.3510   19.6170 C   0  0  0  0  0  3  0  0  0  0  0  0
  -35.9760  -32.6200   19.0790 C   0  0  0  0  0  3  0  0  0  0  0  0
  -35.8710  -31.2250   18.9330 C   0  0  0  0  0  3  0  0  0  0  0  0
  -27.2940  -33.1490   24.2310 C   0  0  0  0  0  3  0  0  0  0  0  0
  -26.1650  -32.3110   23.5140 C   0  0  1  0  0  0  0  0  0  0  0  0
  -26.2770  -32.3110   21.9720 C   0  0  0  0  0  1  0  0  0  0  0  0
  -26.1930  -30.8400   23.9890 C   0  0  0  0  0  1  0  0  0  0  0  0
  -24.7740  -32.8730   23.8920 C   0  0  0  0  0  1  0  0  0  0  0  0
  -27.1380  -34.5820   23.9510 N   0  0  0  0  0  0  0  0  0  0  0  0
  -27.1350  -35.5420   24.8850 C   0  0  0  0  0  0  0  0  0  0  0  0
  -27.1940  -35.3010   26.0950 O   0  0  0  0  0  0  0  0  0  0  0  0
  -27.1410  -34.8560   22.9790 H   0  0  0  0  0  0  0  0  0  0  0  0
  -28.3340  -37.7520   24.8160 C   0  0  0  0  0  1  0  0  0  0  0  0
  -27.0580  -37.0020   24.4000 C   0  0  0  0  0  3  0  0  0  0  0  0
  -24.6640  -37.4680   24.1160 C   0  0  0  0  0  1  0  0  0  0  0  0
  -25.8680  -37.7250   24.9010 N   0  0  0  0  0  0  0  0  0  0  0  0
  -26.0340  -38.7280   24.9080 H   0  0  0  0  0  0  0  0  0  0  0  0
  -27.4280  -21.5170   19.3760 C   0  0  0  0  0  2  0  0  0  0  0  0
  -28.4580  -21.3150   18.2540 C   0  0  0  0  0  2  0  0  0  0  0  0
  -29.4480  -20.1580   18.4870 C   0  0  0  0  0  2  0  0  0  0  0  0
  -29.7650  -19.2180   16.2380 C   0  0  0  0  0  1  0  0  0  0  0  0
  -30.3660  -20.0200   17.3310 N   0  0  2  0  0  4  0  0  0  0  0  0
  -30.4750  -20.9460   16.9410 H   0  0  0  0  0  0  0  0  0  0  0  0
  -31.7360  -19.5580   17.6700 C   0  0  0  0  0  2  0  0  0  0  0  0
  -32.5390  -20.5730   18.5240 C   0  0  0  0  0  2  0  0  0  0  0  0
  -34.7630  -21.5350   18.2580 C   0  0  0  0  0  0  0  0  0  0  0  0
  -36.1520  -23.0160   16.8520 C   0  0  0  0  0  2  0  0  0  0  0  0
  -35.5210  -24.4130   16.6930 C   0  0  0  0  0  2  0  0  0  0  0  0
  -34.4890  -24.4370   15.5500 C   0  0  0  0  0  2  0  0  0  0  0  0
  -33.4720  -23.2740   15.6510 C   0  0  0  0  0  3  0  0  0  0  0  0
  -34.2220  -21.9380   15.8370 C   0  0  0  0  0  2  0  0  0  0  0  0
  -35.0870  -22.0250   17.0350 N   0  0  0  0  0  0  0  0  0  0  0  0
  -35.2500  -21.9270   19.3230 O   0  0  0  0  0  0  0  0  0  0  0  0
  -33.9610  -20.4690   18.2000 N   0  0  0  0  0  0  0  0  0  0  0  0
  -34.1170  -19.9480   17.3500 H   0  0  0  0  0  0  0  0  0  0  0  0
  -31.1960  -23.2460   14.4340 C   0  0  0  0  0  0  0  0  0  0  0  0
  -30.8740  -23.2680   13.1030 C   0  0  0  0  0  0  0  0  0  0  0  0
  -32.1150  -23.2750   12.3960 C   0  0  0  0  0  0  0  0  0  0  0  0
  -32.5820  -23.2390   14.4890 N   0  0  0  0  0  0  0  0  0  0  0  0
  -33.1300  -23.2040   13.2480 N   0  0  0  0  0  0  0  0  0  0  0  0
  -32.3990  -23.3990   10.9590 C   0  0  0  0  0  0  0  0  0  0  0  0
  -33.1520  -22.4220   10.2710 C   0  0  0  0  0  3  0  0  0  0  0  0
  -33.3990  -22.5520    8.8880 C   0  0  0  0  0  3  0  0  0  0  0  0
  -32.8900  -23.6640    8.1780 C   0  0  0  0  0  0  0  0  0  0  0  0
  -32.1590  -24.6450    8.8720 C   0  0  0  0  0  3  0  0  0  0  0  0
  -31.9180  -24.5170   10.2500 C   0  0  0  0  0  3  0  0  0  0  0  0
  -33.1020  -23.8870    6.8380 O   0  0  0  0  0  0  0  0  0  0  0  0
  -33.2840  -22.8520    5.9560 C   0  0  0  0  0  0  0  0  0  0  0  0
  -32.3050  -21.8530    5.7670 C   0  0  0  0  0  3  0  0  0  0  0  0
  -32.5020  -20.8470    4.8010 C   0  0  0  0  0  3  0  0  0  0  0  0
  -33.6710  -20.8430    4.0160 C   0  0  0  0  0  0  0  0  0  0  0  0
  -34.6450  -21.8400    4.1980 C   0  0  0  0  0  3  0  0  0  0  0  0
  -34.4510  -22.8430    5.1640 C   0  0  0  0  0  0  0  0  0  0  0  0
  -35.3820  -23.8150    5.3220 F   0  0  0  0  0  0  0  0  0  0  0  0
  -33.8580  -19.8810    3.0820 F   0  0  0  0  0  0  0  0  0  0  0  0
  -29.4960  -23.3780   12.5140 C   0  0  0  0  0  0  0  0  0  0  0  0
  -29.2680  -22.7470   11.3670 N   0  0  0  0  0  0  0  0  0  0  0  0
  -28.6010  -23.9870   13.0960 O   0  0  0  0  0  0  0  0  0  0  0  0
  -29.9980  -22.2320   10.9010 H   0  0  0  0  0  0  0  0  0  0  0  0
  -28.3500  -22.7840   10.9480 H   0  0  0  0  0  0  0  0  0  0  0  0
  -30.4350  -23.2420   15.6000 N   0  0  0  0  0  0  0  0  0  0  0  0
  -29.4640  -23.5170   15.4910 H   0  0  0  0  0  0  0  0  0  0  0  0
  -30.8450  -23.6570   16.4270 H   0  0  0  0  0  0  0  0  0  0  0  0
  1  2  1  0
  2  5  1  0
  3  2  1  0
  4  2  1  0
  5  6  1  0
  6  7  1  0
  7  8  1  0
  9 19  1  0
 10 15  1  0
 10  8  1  0
 11 21  1  0
 11 19  1  0
 11 18  1  0
 12 14  1  0
 14 15  2  0
 14 13  1  0
 16 10  2  0
 17 16  1  0
 17 12  2  0
 18 12  1  0
 19 13  1  0
 20  9  2  0
 22 21  1  0
 22 24  1  0
 23 21  2  0
 25 30  1  0
 26 22  1  0
 27 28  1  0
 27 26  1  0
 29 25  1  0
 29 28  1  0
 30 31  2  0
 30 26  1  0
 32 31  1  0
 33 32  2  0
 34 33  1  0
 34 25  2  0
 35  9  1  0
 36 39  1  6
 36 38  1  0
 36 35  1  0
 37 36  1  0
 40 35  1  0
 40 41  1  0
 41 42  2  0
 43 40  1  0
 45 44  1  0
 45 41  1  0
 45 47  1  0
 46 47  1  0
 47 48  1  0
 49  1  1  0
 50 51  1  0
 50 49  1  0
 52 53  1  0
 53 55  1  0
 53 51  1  0
 53 54  1  6
 55 56  1  0
 57 64  2  0
 58 63  1  0
 59 58  1  0
 60 61  1  0
 60 59  1  0
 61 70  1  0
 61 62  1  0
 62 63  1  0
 63 57  1  0
 65 57  1  0
 65 56  1  0
 66 65  1  0
 67 70  1  0
 67 92  1  0
 68 67  2  0
 69 68  1  0
 69 71  2  0
 71 70  1  0
 72 69  1  0
 73 72  1  0
 74 73  2  0
 75 76  2  0
 75 74  1  0
 76 77  1  0
 77 72  2  0
 78 75  1  0
 79 78  1  0
 80 79  1  0
 81 80  2  0
 82 83  2  0
 82 81  1  0
 83 84  1  0
 84 85  1  0
 84 79  2  0
 86 82  1  0
 87 89  2  0
 87 68  1  0
 88 87  1  0
 90 88  1  0
 91 88  1  0
 92 94  1  0
 93 92  1  0
M  ISO  4   7 101   8 101  57 100  65 100
M  END
>  <TORSDO>  (48) 
F 26

>  <SCORE>  (48) 
1.345

>  <name>  (48) 
48

>  <ligand_id>  (48) 
48

>  <original_smiles>  (48) 
[H]c1c([H])c([H])c2c(c1[H])C([H])([H])C([H])([H])C([H])([H])C2([H])N([H])C(=O)C1([H])N(C(=O)C([H])(N([H])C(=O)C([H])(N([H])C([H])([H])[H])C([H])([H])[H])C(C([H])([H])[H])(C([H])([H])[H])C([H])([H])[H])C([H])([H])c2c([H])c(OC([H])([H])C([H])([H])C([H])([H])[N+]([H])([H])C([H])([H])C([H])([H])C([H])([H])C([H])([H])[N+]([H])(C([H])([H])[H])C([H])([H])C([H])([H])N([H])C(=O)N3C([H])([H])C([H])([H])C([H])([H])C([H])(n4nc(-c5c([H])c([H])c(Oc6c([H])c([H])c(F)c([H])c6F)c([H])c5[H])c(C(=O)N([H])[H])c4N([H])[H])C3([H])[H])c([H])c([H])c2C1([H])[H]

>  <smiles>  (48) 
[H]c1c([H])c([H])c2c(c1[H])C([H])([H])C([H])([H])C([H])([H])C2([H])N([H])C(=O)C1([H])N(C(=O)C([H])(N([H])C(=O)C([H])(N([H])C([H])([H])[H])C([H])([H])[H])C(C([H])([H])[H])(C([H])([H])[H])C([H])([H])[H])C([H])([H])c2c([H])c(OC([H])([H])C([H])([H])C([H])([H])[N+]([H])([H])C([H])([H])C([H])([H])C([H])([H])C([H])([H])[N+]([H])(C([H])([H])[H])C([H])([H])C([H])([H])N([H])C(=O)N3C([H])([H])C([H])([H])C([H])([H])C([H])(n4nc(-c5c([H])c([H])c(Oc6c([H])c([H])c(F)c([H])c6F)c([H])c5[H])c(C(=O)N([H])[H])c4N([H])[H])C3([H])[H])c([H])c([H])c2C1([H])[H]

$$$$
49:0:0
     RDKit          3D

100109  0  0  1  0  0  0  0  0999 V2000
  -29.4420  -21.6740   20.2240 C   0  0  0  0  0  0  0  0  0  0  0  0
  -29.4540  -23.1220   19.7640 C   0  0  0  0  0  2  0  0  0  0  0  0
  -31.2080  -22.4190   18.0180 C   0  0  0  0  0  2  0  0  0  0  0  0
  -29.8930  -20.6550   19.1480 C   0  0  0  0  0  3  0  0  0  0  0  0
  -30.7930  -23.4700   19.0780 C   0  0  0  0  0  3  0  0  0  0  0  0
  -31.2090  -21.0620   18.6030 N   0  0  0  0  0  4  0  0  0  0  0  0
  -29.0760  -21.4050   21.3720 O   0  0  0  0  0  0  0  0  0  0  0  0
  -31.9040  -21.0170   19.3300 H   0  0  0  0  0  0  0  0  0  0  0  0
  -31.4790  -20.4040   17.8910 H   0  0  0  0  0  0  0  0  0  0  0  0
  -29.0610  -18.3040   19.2640 C   0  0  0  0  0  3  0  0  0  0  0  0
  -30.8300  -18.9270   20.7990 C   0  0  0  0  0  3  0  0  0  0  0  0
  -29.0780  -16.9980   19.7720 C   0  0  0  0  0  3  0  0  0  0  0  0
  -30.8590  -17.6170   21.3110 C   0  0  0  0  0  3  0  0  0  0  0  0
  -29.9350  -19.2950   19.7590 C   0  0  0  0  0  0  0  0  0  0  0  0
  -29.9910  -16.6470   20.7840 C   0  0  0  0  0  0  0  0  0  0  0  0
  -30.6870  -14.3820   20.5560 C   0  0  0  0  0  0  0  0  0  0  0  0
  -30.3540  -12.2830   19.3230 C   0  0  0  0  0  2  0  0  0  0  0  0
  -29.4160  -12.5520   18.1280 C   0  0  0  0  0  2  0  0  0  0  0  0
  -27.9390  -12.4230   18.5500 C   0  0  0  0  0  2  0  0  0  0  0  0
  -27.6130  -13.2280   19.8350 C   0  0  0  0  0  3  0  0  0  0  0  0
  -28.6580  -12.9390   20.9380 C   0  0  0  0  0  2  0  0  0  0  0  0
  -29.9990  -13.2250   20.3930 N   0  0  0  0  0  0  0  0  0  0  0  0
  -31.7850  -14.6080   20.0360 O   0  0  0  0  0  0  0  0  0  0  0  0
  -30.0320  -15.3200   21.2460 N   0  0  0  0  0  0  0  0  0  0  0  0
  -29.1780  -14.9780   21.6610 H   0  0  0  0  0  0  0  0  0  0  0  0
  -25.2110  -13.8690   20.5150 C   0  0  0  0  0  0  0  0  0  0  0  0
  -24.1330  -13.1080   20.8780 C   0  0  0  0  0  0  0  0  0  0  0  0
  -24.5830  -11.7530   20.8550 C   0  0  0  0  0  0  0  0  0  0  0  0
  -26.2510  -12.9760   20.2990 N   0  0  0  0  0  0  0  0  0  0  0  0
  -25.8740  -11.7000   20.5570 N   0  0  0  0  0  0  0  0  0  0  0  0
  -23.8480  -10.4970   21.0450 C   0  0  0  0  0  0  0  0  0  0  0  0
  -24.2670   -9.5310   21.9860 C   0  0  0  0  0  3  0  0  0  0  0  0
  -23.5340   -8.3380   22.1620 C   0  0  0  0  0  3  0  0  0  0  0  0
  -22.3680   -8.1020   21.3960 C   0  0  0  0  0  0  0  0  0  0  0  0
  -21.9680   -9.0570   20.4440 C   0  0  0  0  0  3  0  0  0  0  0  0
  -22.7020  -10.2420   20.2660 C   0  0  0  0  0  3  0  0  0  0  0  0
  -21.6070   -6.9620   21.4810 O   0  0  0  0  0  0  0  0  0  0  0  0
  -21.5440   -6.2230   22.6350 C   0  0  0  0  0  0  0  0  0  0  0  0
  -21.1020   -6.7820   23.8550 C   0  0  0  0  0  3  0  0  0  0  0  0
  -20.9860   -5.9700   25.0000 C   0  0  0  0  0  3  0  0  0  0  0  0
  -21.3030   -4.6000   24.9280 C   0  0  0  0  0  0  0  0  0  0  0  0
  -21.7380   -4.0410   23.7140 C   0  0  0  0  0  3  0  0  0  0  0  0
  -21.8550   -4.8500   22.5710 C   0  0  0  0  0  0  0  0  0  0  0  0
  -22.2550   -4.3030   21.3980 F   0  0  0  0  0  0  0  0  0  0  0  0
  -21.1840   -3.8170   26.0260 F   0  0  0  0  0  0  0  0  0  0  0  0
  -22.7380  -13.5960   21.1390 C   0  0  0  0  0  0  0  0  0  0  0  0
  -21.9960  -12.9050   21.9990 N   0  0  0  0  0  0  0  0  0  0  0  0
  -22.3120  -14.6260   20.6180 O   0  0  0  0  0  0  0  0  0  0  0  0
  -22.3500  -12.0720   22.4440 H   0  0  0  0  0  0  0  0  0  0  0  0
  -21.0600  -13.2170   22.2150 H   0  0  0  0  0  0  0  0  0  0  0  0
  -25.3880  -15.2380   20.3360 N   0  0  0  0  0  0  0  0  0  0  0  0
  -24.6240  -15.8970   20.4430 H   0  0  0  0  0  0  0  0  0  0  0  0
  -26.2500  -15.6760   20.0400 H   0  0  0  0  0  0  0  0  0  0  0  0
  -30.6340  -24.8540   18.4610 C   0  0  0  0  0  0  0  0  0  0  0  0
  -31.0840  -25.8690   19.1970 N   0  0  0  0  0  0  0  0  0  0  0  0
  -30.0550  -25.0010   17.3830 O   0  0  0  0  0  0  0  0  0  0  0  0
  -31.5650  -25.6520   20.0610 H   0  0  0  0  0  0  0  0  0  0  0  0
  -30.6980  -27.2540   19.0040 C   0  0  0  0  0  2  0  0  0  0  0  0
  -29.6930  -27.6770   20.0810 C   0  0  0  0  0  2  0  0  0  0  0  0
  -28.5090  -26.8560   20.0650 O   0  0  0  0  0  0  0  0  0  0  0  0
  -24.5620  -31.8870   23.2400 C   0  0  0  0  0  0  0  0  0  0  0  0
  -27.3080  -27.5210   20.1850 C   0  0  0  0  0  0  0  0  0  0  0  0
  -23.3740  -30.4670   21.5890 C   0  0  0  0  0  3  0  0  0  0  0  0
  -24.8540  -28.9250   20.1960 C   0  0  0  0  0  0  0  0  0  0  0  0
  -25.8850  -30.8590   21.4080 C   0  0  0  0  0  2  0  0  0  0  0  0
  -25.9860  -29.4820   20.7980 C   0  0  0  0  0  0  0  0  0  0  0  0
  -27.1970  -28.7750   20.8250 C   0  0  0  0  0  3  0  0  0  0  0  0
  -26.1520  -26.9470   19.6120 C   0  0  0  0  0  3  0  0  0  0  0  0
  -24.9250  -27.6450   19.6130 C   0  0  0  0  0  3  0  0  0  0  0  0
  -23.6000  -29.7700   20.2180 C   0  0  0  0  0  2  0  0  0  0  0  0
  -24.6230  -31.0870   22.1380 N   0  0  0  0  0  0  0  0  0  0  0  0
  -23.4760  -32.1550   23.7730 O   0  0  0  0  0  0  0  0  0  0  0  0
  -22.7260  -29.4490   22.5510 C   0  0  0  0  0  0  0  0  0  0  0  0
  -21.4020  -29.2690   22.4210 N   0  0  0  0  0  0  0  0  0  0  0  0
  -23.4090  -28.8230   23.3660 O   0  0  0  0  0  0  0  0  0  0  0  0
  -20.9140  -29.8260   21.7340 H   0  0  0  0  0  0  0  0  0  0  0  0
  -18.0220  -28.1160   22.9360 C   0  0  0  0  0  0  0  0  0  0  0  0
  -20.5840  -28.3350   23.1900 C   0  0  0  0  0  3  0  0  0  0  0  0
  -20.6620  -26.9080   22.5980 C   0  0  0  0  0  2  0  0  0  0  0  0
  -19.5490  -26.6130   21.5880 C   0  0  0  0  0  2  0  0  0  0  0  0
  -18.1740  -26.7730   22.2430 C   0  0  0  0  0  2  0  0  0  0  0  0
  -19.1550  -28.8570   23.3650 C   0  0  0  0  0  0  0  0  0  0  0  0
  -18.9600  -30.1190   23.9680 C   0  0  0  0  0  3  0  0  0  0  0  0
  -17.6650  -30.6390   24.1470 C   0  0  0  0  0  3  0  0  0  0  0  0
  -16.5460  -29.8940   23.7350 C   0  0  0  0  0  3  0  0  0  0  0  0
  -16.7250  -28.6350   23.1350 C   0  0  0  0  0  3  0  0  0  0  0  0
  -25.8440  -32.5240   23.8660 C   0  0  0  0  0  3  0  0  0  0  0  0
  -26.3610  -31.7580   25.1450 C   0  0  1  0  0  0  0  0  0  0  0  0
  -25.2650  -31.5180   26.2090 C   0  0  0  0  0  1  0  0  0  0  0  0
  -26.9520  -30.3830   24.7530 C   0  0  0  0  0  1  0  0  0  0  0  0
  -27.5050  -32.5590   25.8090 C   0  0  0  0  0  1  0  0  0  0  0  0
  -25.5310  -33.9220   24.1840 N   0  0  0  0  0  0  0  0  0  0  0  0
  -25.8780  -34.9700   23.4250 C   0  0  0  0  0  0  0  0  0  0  0  0
  -26.5670  -34.8610   22.4060 O   0  0  0  0  0  0  0  0  0  0  0  0
  -24.9210  -34.0810   24.9730 H   0  0  0  0  0  0  0  0  0  0  0  0
  -24.1650  -36.7640   23.0170 C   0  0  0  0  0  1  0  0  0  0  0  0
  -25.3820  -36.3590   23.8660 C   0  0  0  0  0  3  0  0  0  0  0  0
  -27.4950  -37.2410   24.7510 C   0  0  0  0  0  1  0  0  0  0  0  0
  -26.4200  -37.4090   23.7790 N   0  0  0  0  0  0  0  0  0  0  0  0
  -26.0120  -38.3310   23.9130 H   0  0  0  0  0  0  0  0  0  0  0  0
  1  7  2  0
  2  1  1  0
  3  6  1  0
  3  5  1  0
  4 14  1  0
  4  1  1  0
  5 54  1  0
  5  2  1  0
  6  4  1  0
  6  8  1  0
  9  6  1  0
 10 14  2  0
 10 12  1  0
 11 13  2  0
 12 15  2  0
 14 11  1  0
 15 24  1  0
 15 13  1  0
 16 24  1  0
 17 22  1  0
 18 19  1  0
 18 17  1  0
 20 19  1  0
 20 29  1  0
 20 21  1  0
 22 16  1  0
 22 21  1  0
 23 16  2  0
 24 25  1  0
 26 27  2  0
 27 46  1  0
 28 27  1  0
 28 31  1  0
 29 26  1  0
 29 30  1  0
 30 28  2  0
 31 32  1  0
 32 33  2  0
 34 37  1  0
 34 33  1  0
 35 34  2  0
 36 35  1  0
 36 31  2  0
 37 38  1  0
 38 39  1  0
 39 40  2  0
 41 40  1  0
 41 45  1  0
 42 41  2  0
 43 38  2  0
 43 42  1  0
 44 43  1  0
 46 47  1  0
 47 50  1  0
 47 49  1  0
 48 46  2  0
 51 52  1  0
 51 26  1  0
 53 51  1  0
 54 55  1  0
 55 57  1  0
 56 54  2  0
 58 55  1  0
 58 59  1  0
 60 59  1  0
 60 62  1  0
 61 72  2  0
 62 67  1  0
 63 71  1  0
 63 73  1  0
 64 70  1  0
 64 66  1  0
 65 71  1  0
 66 67  2  0
 66 65  1  0
 68 69  1  0
 68 62  2  0
 69 64  2  0
 70 63  1  0
 71 61  1  0
 73 75  2  0
 74 73  1  0
 76 74  1  0
 77 86  2  0
 77 82  1  0
 78 74  1  0
 78 82  1  0
 79 78  1  0
 80 81  1  0
 80 79  1  0
 81 77  1  0
 82 83  2  0
 83 84  1  0
 85 84  2  0
 86 85  1  0
 87 61  1  0
 87 92  1  0
 87 88  1  0
 88 91  1  1
 88 89  1  0
 90 88  1  0
 92 95  1  0
 93 97  1  0
 93 92  1  0
 94 93  2  0
 97 96  1  0
 99 97  1  0
 99100  1  0
 99 98  1  0
M  ISO  4  16 100  24 100  59 101  60 101
M  END
>  <TORSDO>  (49) 
F 20

>  <SCORE>  (49) 
-14.239

>  <name>  (49) 
49

>  <ligand_id>  (49) 
49

>  <original_smiles>  (49) 
[H]c1c([H])c([H])c2c(c1[H])C([H])([H])C([H])([H])C([H])([H])C2([H])N([H])C(=O)C1([H])N(C(=O)C([H])(N([H])C(=O)C([H])(N([H])C([H])([H])[H])C([H])([H])[H])C(C([H])([H])[H])(C([H])([H])[H])C([H])([H])[H])C([H])([H])c2c([H])c(OC([H])([H])C([H])([H])N([H])C(=O)C3([H])C([H])([H])C(=O)C([H])(c4c([H])c([H])c(N([H])C(=O)N5C([H])([H])C([H])([H])C([H])([H])C([H])(n6nc(-c7c([H])c([H])c(Oc8c([H])c([H])c(F)c([H])c8F)c([H])c7[H])c(C(=O)N([H])[H])c6N([H])[H])C5([H])[H])c([H])c4[H])[N+]([H])([H])C3([H])[H])c([H])c([H])c2C1([H])[H]

>  <smiles>  (49) 
[H]c1c([H])c([H])c2c(c1[H])C([H])([H])C([H])([H])C([H])([H])C2([H])N([H])C(=O)C1([H])N(C(=O)C([H])(N([H])C(=O)C([H])(N([H])C([H])([H])[H])C([H])([H])[H])C(C([H])([H])[H])(C([H])([H])[H])C([H])([H])[H])C([H])([H])c2c([H])c(OC([H])([H])C([H])([H])N([H])C(=O)C3([H])C([H])([H])C(=O)C([H])(c4c([H])c([H])c(N([H])C(=O)N5C([H])([H])C([H])([H])C([H])([H])C([H])(n6nc(-c7c([H])c([H])c(Oc8c([H])c([H])c(F)c([H])c8F)c([H])c7[H])c(C(=O)N([H])[H])c6N([H])[H])C5([H])[H])c([H])c4[H])[N+]([H])([H])C3([H])[H])c([H])c([H])c2C1([H])[H]

$$$$
50:0:0
     RDKit          3D

 93101  0  0  1  0  0  0  0  0999 V2000
  -30.4820  -21.9870   21.9940 C   0  0  0  0  0  2  0  0  0  0  0  0
  -30.3400  -23.2810   22.8200 C   0  0  0  0  0  2  0  0  0  0  0  0
  -30.2850  -24.5720   21.9800 C   0  0  0  0  0  2  0  0  0  0  0  0
  -29.6220  -25.7260   22.7560 C   0  0  0  0  0  2  0  0  0  0  0  0
  -29.8700  -27.1460   22.2070 C   0  0  0  0  0  2  0  0  0  0  0  0
  -29.6770  -27.3270   20.6890 C   0  0  0  0  0  2  0  0  0  0  0  0
  -28.4380  -26.8150   20.2050 O   0  0  0  0  0  0  0  0  0  0  0  0
  -24.4800  -31.9390   23.2690 C   0  0  0  0  0  0  0  0  0  0  0  0
  -27.2950  -27.5830   20.2490 C   0  0  0  0  0  0  0  0  0  0  0  0
  -23.3350  -30.5140   21.5990 C   0  0  0  0  0  3  0  0  0  0  0  0
  -24.8510  -29.0060   20.2120 C   0  0  0  0  0  0  0  0  0  0  0  0
  -25.8520  -30.9360   21.4500 C   0  0  0  0  0  2  0  0  0  0  0  0
  -25.9810  -29.5680   20.8190 C   0  0  0  0  0  0  0  0  0  0  0  0
  -27.2050  -28.8680   20.8360 C   0  0  0  0  0  3  0  0  0  0  0  0
  -26.1450  -27.0270   19.6540 C   0  0  0  0  0  3  0  0  0  0  0  0
  -24.9250  -27.7310   19.6280 C   0  0  0  0  0  3  0  0  0  0  0  0
  -23.5880  -29.8360   20.2260 C   0  0  0  0  0  2  0  0  0  0  0  0
  -24.5720  -31.1430   22.1660 N   0  0  0  0  0  0  0  0  0  0  0  0
  -23.3840  -32.1910   23.7860 O   0  0  0  0  0  0  0  0  0  0  0  0
  -22.6850  -29.4820   22.5480 C   0  0  0  0  0  0  0  0  0  0  0  0
  -21.3700  -29.2660   22.3790 N   0  0  0  0  0  0  0  0  0  0  0  0
  -23.3590  -28.8790   23.3850 O   0  0  0  0  0  0  0  0  0  0  0  0
  -20.8890  -29.8060   21.6730 H   0  0  0  0  0  0  0  0  0  0  0  0
  -18.0150  -27.9840   22.7670 C   0  0  0  0  0  0  0  0  0  0  0  0
  -20.5530  -28.3130   23.1300 C   0  0  0  0  0  3  0  0  0  0  0  0
  -20.7160  -26.8810   22.5680 C   0  0  0  0  0  2  0  0  0  0  0  0
  -19.6590  -26.5200   21.5200 C   0  0  0  0  0  2  0  0  0  0  0  0
  -18.2520  -26.6340   22.1130 C   0  0  0  0  0  2  0  0  0  0  0  0
  -19.0970  -28.7790   23.2320 C   0  0  0  0  0  0  0  0  0  0  0  0
  -18.8240  -30.0420   23.8000 C   0  0  0  0  0  3  0  0  0  0  0  0
  -17.5020  -30.5100   23.9130 C   0  0  0  0  0  3  0  0  0  0  0  0
  -16.4340  -29.7120   23.4690 C   0  0  0  0  0  3  0  0  0  0  0  0
  -16.6910  -28.4510   22.9010 C   0  0  0  0  0  3  0  0  0  0  0  0
  -25.7420  -32.5910   23.9160 C   0  0  0  0  0  3  0  0  0  0  0  0
  -25.4140  -33.9890   24.2140 N   0  0  0  0  0  0  0  0  0  0  0  0
  -25.7630  -35.0330   23.4490 C   0  0  0  0  0  0  0  0  0  0  0  0
  -26.4690  -34.9200   22.4430 O   0  0  0  0  0  0  0  0  0  0  0  0
  -24.7910  -34.1520   24.9910 H   0  0  0  0  0  0  0  0  0  0  0  0
  -24.0330  -36.8030   23.0070 C   0  0  0  0  0  1  0  0  0  0  0  0
  -25.2490  -36.4240   23.8680 C   0  0  0  0  0  3  0  0  0  0  0  0
  -27.3500  -37.3400   24.7490 C   0  0  0  0  0  1  0  0  0  0  0  0
  -26.2760  -37.4840   23.7710 N   0  0  0  0  0  0  0  0  0  0  0  0
  -25.8570  -38.4020   23.8900 H   0  0  0  0  0  0  0  0  0  0  0  0
  -26.2340  -31.8420   25.2140 C   0  0  1  0  0  0  0  0  0  0  0  0
  -25.1140  -31.5970   26.2510 C   0  0  0  0  0  1  0  0  0  0  0  0
  -26.8540  -30.4720   24.8490 C   0  0  0  0  0  1  0  0  0  0  0  0
  -27.3480  -32.6650   25.9030 C   0  0  0  0  0  1  0  0  0  0  0  0
  -30.9430  -20.7940   22.8630 C   0  0  0  0  0  2  0  0  0  0  0  0
  -30.5190  -17.7860   20.4630 C   0  0  0  0  0  2  0  0  0  0  0  0
  -30.5320  -16.9840   22.8380 C   0  0  0  0  0  2  0  0  0  0  0  0
  -31.0060  -19.1700   20.9510 C   0  0  0  0  0  2  0  0  0  0  0  0
  -31.0190  -18.3770   23.2770 C   0  0  0  0  0  2  0  0  0  0  0  0
  -30.9750  -16.6510   21.4040 C   0  0  0  0  0  3  0  0  0  0  0  0
  -30.5670  -19.4480   22.3470 N   0  0  1  0  0  4  0  0  0  0  0  0
  -29.5570  -19.4210   22.3470 H   0  0  0  0  0  0  0  0  0  0  0  0
  -30.9430  -14.4740   20.1540 C   0  0  0  0  0  0  0  0  0  0  0  0
  -30.5520  -12.3580   18.9450 C   0  0  0  0  0  2  0  0  0  0  0  0
  -29.5650  -12.5790   17.7810 C   0  0  0  0  0  2  0  0  0  0  0  0
  -28.1090  -12.4490   18.2660 C   0  0  0  0  0  2  0  0  0  0  0  0
  -27.8270  -13.2910   19.5380 C   0  0  0  0  0  3  0  0  0  0  0  0
  -28.9150  -13.0430   20.6070 C   0  0  0  0  0  2  0  0  0  0  0  0
  -30.2300  -13.3280   20.0000 N   0  0  0  0  0  0  0  0  0  0  0  0
  -31.9820  -14.7180   19.5350 O   0  0  0  0  0  0  0  0  0  0  0  0
  -30.4160  -15.3550   21.0160 N   0  0  0  0  0  0  0  0  0  0  0  0
  -29.5570  -15.0660   21.4610 H   0  0  0  0  0  0  0  0  0  0  0  0
  -25.4550  -13.9260   20.3150 C   0  0  0  0  0  0  0  0  0  0  0  0
  -24.3940  -13.1660   20.7270 C   0  0  0  0  0  0  0  0  0  0  0  0
  -24.8450  -11.8100   20.6970 C   0  0  0  0  0  0  0  0  0  0  0  0
  -26.4870  -13.0350   20.0620 N   0  0  0  0  0  0  0  0  0  0  0  0
  -26.1240  -11.7580   20.3460 N   0  0  0  0  0  0  0  0  0  0  0  0
  -24.1180  -10.5550   20.9260 C   0  0  0  0  0  0  0  0  0  0  0  0
  -24.5380   -9.6280   21.9050 C   0  0  0  0  0  3  0  0  0  0  0  0
  -23.8120   -8.4360   22.1190 C   0  0  0  0  0  3  0  0  0  0  0  0
  -22.6540   -8.1630   21.3540 C   0  0  0  0  0  0  0  0  0  0  0  0
  -22.2530   -9.0790   20.3650 C   0  0  0  0  0  3  0  0  0  0  0  0
  -22.9790  -10.2620   20.1490 C   0  0  0  0  0  3  0  0  0  0  0  0
  -21.9020   -7.0190   21.4750 O   0  0  0  0  0  0  0  0  0  0  0  0
  -21.7710   -6.3680   22.6750 C   0  0  0  0  0  0  0  0  0  0  0  0
  -21.2500   -7.0110   23.8180 C   0  0  0  0  0  3  0  0  0  0  0  0
  -21.0660   -6.2840   25.0120 C   0  0  0  0  0  3  0  0  0  0  0  0
  -21.3950   -4.9170   25.0610 C   0  0  0  0  0  0  0  0  0  0  0  0
  -21.9080   -4.2730   23.9210 C   0  0  0  0  0  3  0  0  0  0  0  0
  -22.0930   -4.9970   22.7310 C   0  0  0  0  0  0  0  0  0  0  0  0
  -22.5680   -4.3680   21.6290 F   0  0  0  0  0  0  0  0  0  0  0  0
  -21.2100   -4.2160   26.2040 F   0  0  0  0  0  0  0  0  0  0  0  0
  -23.0100  -13.6550   21.0430 C   0  0  0  0  0  0  0  0  0  0  0  0
  -22.3100  -12.9760   21.9450 N   0  0  0  0  0  0  0  0  0  0  0  0
  -22.5590  -14.6760   20.5260 O   0  0  0  0  0  0  0  0  0  0  0  0
  -22.6870  -12.1490   22.3840 H   0  0  0  0  0  0  0  0  0  0  0  0
  -21.3840  -13.2860   22.2010 H   0  0  0  0  0  0  0  0  0  0  0  0
  -25.6250  -15.2930   20.1160 N   0  0  0  0  0  0  0  0  0  0  0  0
  -24.8670  -15.9570   20.2410 H   0  0  0  0  0  0  0  0  0  0  0  0
  -26.4710  -15.7200   19.7600 H   0  0  0  0  0  0  0  0  0  0  0  0
  1  2  1  0
  1 48  1  0
  3  4  1  0
  3  2  1  0
  5  4  1  0
  6  5  1  0
  7  9  1  0
  7  6  1  0
  8 19  2  0
  9 14  1  0
 10 18  1  0
 10 20  1  0
 11 17  1  0
 11 13  1  0
 12 18  1  0
 13 14  2  0
 13 12  1  0
 15  9  2  0
 16 15  1  0
 16 11  2  0
 17 10  1  0
 18  8  1  0
 20 22  2  0
 21 20  1  0
 23 21  1  0
 24 33  2  0
 24 29  1  0
 25 21  1  0
 25 29  1  0
 26 25  1  0
 27 28  1  0
 27 26  1  0
 28 24  1  0
 29 30  2  0
 30 31  1  0
 32 31  2  0
 33 32  1  0
 34  8  1  0
 34 35  1  0
 34 44  1  0
 35 38  1  0
 36 40  1  0
 36 35  1  0
 37 36  2  0
 40 39  1  0
 42 40  1  0
 42 43  1  0
 42 41  1  0
 44 47  1  1
 44 45  1  0
 46 44  1  0
 49 51  1  0
 49 53  1  0
 50 52  1  0
 51 54  1  0
 53 64  1  0
 53 50  1  0
 54 55  1  6
 54 48  1  0
 54 52  1  0
 56 64  1  0
 57 62  1  0
 58 59  1  0
 58 57  1  0
 60 59  1  0
 60 69  1  0
 60 61  1  0
 62 56  1  0
 62 61  1  0
 63 56  2  0
 64 65  1  0
 66 67  2  0
 67 86  1  0
 68 67  1  0
 68 71  1  0
 69 66  1  0
 69 70  1  0
 70 68  2  0
 71 72  1  0
 72 73  2  0
 74 77  1  0
 74 73  1  0
 75 74  2  0
 76 75  1  0
 76 71  2  0
 77 78  1  0
 78 83  2  0
 78 79  1  0
 79 80  2  0
 80 81  1  0
 81 85  1  0
 82 81  2  0
 83 82  1  0
 84 83  1  0
 86 87  1  0
 87 90  1  0
 87 89  1  0
 88 86  2  0
 91 92  1  0
 91 66  1  0
 93 91  1  0
M  ISO  4   6 101   7 101  56 100  64 100
M  END
>  <TORSDO>  (50) 
F 23

>  <SCORE>  (50) 
-12.140

>  <name>  (50) 
50

>  <ligand_id>  (50) 
50

>  <original_smiles>  (50) 
[H]c1c([H])c([H])c2c(c1[H])C([H])([H])C([H])([H])C([H])([H])C2([H])N([H])C(=O)C1([H])N(C(=O)C([H])(N([H])C(=O)C([H])(N([H])C([H])([H])[H])C([H])([H])[H])C(C([H])([H])[H])(C([H])([H])[H])C([H])([H])[H])C([H])([H])c2c([H])c(OC([H])([H])C([H])([H])C([H])([H])C([H])([H])C([H])([H])C([H])([H])C([H])([H])[N+]3([H])C([H])([H])C([H])([H])C([H])(N([H])C(=O)N4C([H])([H])C([H])([H])C([H])([H])C([H])(n5nc(-c6c([H])c([H])c(Oc7c([H])c([H])c(F)c([H])c7F)c([H])c6[H])c(C(=O)N([H])[H])c5N([H])[H])C4([H])[H])C([H])([H])C3([H])[H])c([H])c([H])c2C1([H])[H]

>  <smiles>  (50) 
[H]c1c([H])c([H])c2c(c1[H])C([H])([H])C([H])([H])C([H])([H])C2([H])N([H])C(=O)C1([H])N(C(=O)C([H])(N([H])C(=O)C([H])(N([H])C([H])([H])[H])C([H])([H])[H])C(C([H])([H])[H])(C([H])([H])[H])C([H])([H])[H])C([H])([H])c2c([H])c(OC([H])([H])C([H])([H])C([H])([H])C([H])([H])C([H])([H])C([H])([H])C([H])([H])[N+]3([H])C([H])([H])C([H])([H])C([H])(N([H])C(=O)N4C([H])([H])C([H])([H])C([H])([H])C([H])(n5nc(-c6c([H])c([H])c(Oc7c([H])c([H])c(F)c([H])c7F)c([H])c6[H])c(C(=O)N([H])[H])c5N([H])[H])C4([H])[H])C([H])([H])C3([H])[H])c([H])c([H])c2C1([H])[H]

$$$$
51:0:0
     RDKit          3D

 91 98  0  0  1  0  0  0  0  0999 V2000
  -29.4000  -24.3540   20.4410 C   0  0  0  0  0  3  0  0  0  0  0  0
  -29.6020  -24.5290   21.8940 N   0  0  0  0  0  4  0  0  0  0  0  0
  -28.7880  -24.2430   22.4080 H   0  0  0  0  0  0  0  0  0  0  0  0
  -29.8200  -25.4850   22.1180 H   0  0  0  0  0  0  0  0  0  0  0  0
  -30.3640  -23.9380   22.1810 H   0  0  0  0  0  0  0  0  0  0  0  0
  -29.1660  -22.8610   20.1510 C   0  0  0  0  0  3  0  0  0  0  0  0
  -29.6210  -21.8870   20.8550 N   0  0  0  0  0  0  0  0  0  0  0  0
  -29.2050  -20.5350   20.4610 C   0  0  0  0  0  2  0  0  0  0  0  0
  -30.1450  -19.4260   21.0120 C   0  0  0  0  0  2  0  0  0  0  0  0
  -29.6540  -17.9780   20.7070 C   0  0  0  0  0  2  0  0  0  0  0  0
  -30.5130  -16.8550   21.3530 C   0  0  0  0  0  2  0  0  0  0  0  0
  -30.6660  -14.4800   20.4870 C   0  0  0  0  0  0  0  0  0  0  0  0
  -30.3560  -12.3210   19.3260 C   0  0  0  0  0  2  0  0  0  0  0  0
  -29.4180  -12.5090   18.1170 C   0  0  0  0  0  2  0  0  0  0  0  0
  -27.9420  -12.3810   18.5420 C   0  0  0  0  0  2  0  0  0  0  0  0
  -27.6030  -13.2320   19.7960 C   0  0  0  0  0  3  0  0  0  0  0  0
  -28.6510  -13.0140   20.9100 C   0  0  0  0  0  2  0  0  0  0  0  0
  -29.9780  -13.3120   20.3470 N   0  0  0  0  0  0  0  0  0  0  0  0
  -31.7850  -14.6540   19.9980 O   0  0  0  0  0  0  0  0  0  0  0  0
  -30.0090  -15.4870   21.0990 N   0  0  0  0  0  0  0  0  0  0  0  0
  -29.0850  -15.2670   21.4450 H   0  0  0  0  0  0  0  0  0  0  0  0
  -25.2090  -13.8660   20.4900 C   0  0  0  0  0  0  0  0  0  0  0  0
  -24.1310  -13.1070   20.8590 C   0  0  0  0  0  0  0  0  0  0  0  0
  -24.5780  -11.7500   20.8380 C   0  0  0  0  0  0  0  0  0  0  0  0
  -26.2460  -12.9720   20.2690 N   0  0  0  0  0  0  0  0  0  0  0  0
  -25.8700  -11.6950   20.5370 N   0  0  0  0  0  0  0  0  0  0  0  0
  -23.8380  -10.4980   21.0360 C   0  0  0  0  0  0  0  0  0  0  0  0
  -24.2710   -9.5260   21.9640 C   0  0  0  0  0  3  0  0  0  0  0  0
  -23.5370   -8.3350   22.1490 C   0  0  0  0  0  3  0  0  0  0  0  0
  -22.3540   -8.1080   21.4050 C   0  0  0  0  0  0  0  0  0  0  0  0
  -21.9410   -9.0690   20.4650 C   0  0  0  0  0  3  0  0  0  0  0  0
  -22.6750  -10.2510   20.2790 C   0  0  0  0  0  3  0  0  0  0  0  0
  -21.5910   -6.9700   21.4990 O   0  0  0  0  0  0  0  0  0  0  0  0
  -21.5540   -6.2200   22.6460 C   0  0  0  0  0  0  0  0  0  0  0  0
  -21.1650   -6.7720   23.8860 C   0  0  0  0  0  3  0  0  0  0  0  0
  -21.0760   -5.9480   25.0260 C   0  0  0  0  0  3  0  0  0  0  0  0
  -21.3640   -4.5740   24.9270 C   0  0  0  0  0  0  0  0  0  0  0  0
  -21.7450   -4.0210   23.6910 C   0  0  0  0  0  3  0  0  0  0  0  0
  -21.8370   -4.8430   22.5540 C   0  0  0  0  0  0  0  0  0  0  0  0
  -22.1840   -4.3020   21.3610 F   0  0  0  0  0  0  0  0  0  0  0  0
  -21.2710   -3.7790   26.0190 F   0  0  0  0  0  0  0  0  0  0  0  0
  -22.7380  -13.6010   21.1220 C   0  0  0  0  0  0  0  0  0  0  0  0
  -22.0000  -12.9190   21.9900 N   0  0  0  0  0  0  0  0  0  0  0  0
  -22.3120  -14.6260   20.5920 O   0  0  0  0  0  0  0  0  0  0  0  0
  -22.3570  -12.0910   22.4440 H   0  0  0  0  0  0  0  0  0  0  0  0
  -21.0630  -13.2290   22.2050 H   0  0  0  0  0  0  0  0  0  0  0  0
  -25.3900  -15.2340   20.3060 N   0  0  0  0  0  0  0  0  0  0  0  0
  -24.6330  -15.8980   20.4190 H   0  0  0  0  0  0  0  0  0  0  0  0
  -26.2510  -15.6630   19.9910 H   0  0  0  0  0  0  0  0  0  0  0  0
  -28.2280  -25.2340   19.9250 C   0  0  0  0  0  2  0  0  0  0  0  0
  -28.3680  -26.6510   20.1870 O   0  0  0  0  0  0  0  0  0  0  0  0
  -24.6140  -31.8920   23.2460 C   0  0  0  0  0  0  0  0  0  0  0  0
  -27.2080  -27.4130   20.1480 C   0  0  0  0  0  0  0  0  0  0  0  0
  -23.3880  -30.4970   21.6150 C   0  0  0  0  0  3  0  0  0  0  0  0
  -24.8220  -28.9560   20.1740 C   0  0  0  0  0  0  0  0  0  0  0  0
  -25.9180  -30.8330   21.4050 C   0  0  0  0  0  2  0  0  0  0  0  0
  -25.9890  -29.4620   20.7610 C   0  0  0  0  0  0  0  0  0  0  0  0
  -27.1810  -28.6980   20.7480 C   0  0  0  0  0  3  0  0  0  0  0  0
  -26.0190  -26.9410   19.5360 C   0  0  0  0  0  3  0  0  0  0  0  0
  -24.8340  -27.6970   19.5570 C   0  0  0  0  0  3  0  0  0  0  0  0
  -23.5810  -29.8190   20.2330 C   0  0  0  0  0  2  0  0  0  0  0  0
  -24.6570  -31.0910   22.1450 N   0  0  0  0  0  0  0  0  0  0  0  0
  -23.5380  -32.1710   23.7950 O   0  0  0  0  0  0  0  0  0  0  0  0
  -22.7420  -29.4780   22.5800 C   0  0  0  0  0  0  0  0  0  0  0  0
  -21.4160  -29.2970   22.4580 N   0  0  0  0  0  0  0  0  0  0  0  0
  -23.4290  -28.8540   23.3930 O   0  0  0  0  0  0  0  0  0  0  0  0
  -20.9270  -29.8480   21.7660 H   0  0  0  0  0  0  0  0  0  0  0  0
  -18.0430  -28.1030   22.9600 C   0  0  0  0  0  0  0  0  0  0  0  0
  -20.5990  -28.3620   23.2310 C   0  0  0  0  0  3  0  0  0  0  0  0
  -20.7020  -26.9310   22.6570 C   0  0  0  0  0  2  0  0  0  0  0  0
  -19.6000  -26.6040   21.6450 C   0  0  0  0  0  2  0  0  0  0  0  0
  -18.2190  -26.7520   22.2900 C   0  0  0  0  0  2  0  0  0  0  0  0
  -19.1610  -28.8670   23.3870 C   0  0  0  0  0  0  0  0  0  0  0  0
  -18.9430  -30.1330   23.9720 C   0  0  0  0  0  3  0  0  0  0  0  0
  -17.6380  -30.6350   24.1370 C   0  0  0  0  0  3  0  0  0  0  0  0
  -16.5340  -29.8680   23.7270 C   0  0  0  0  0  3  0  0  0  0  0  0
  -16.7370  -28.6050   23.1460 C   0  0  0  0  0  3  0  0  0  0  0  0
  -25.9080  -32.5160   23.8570 C   0  0  0  0  0  3  0  0  0  0  0  0
  -26.4380  -31.7340   25.1220 C   0  0  1  0  0  0  0  0  0  0  0  0
  -25.3560  -31.4920   26.1990 C   0  0  0  0  0  1  0  0  0  0  0  0
  -27.0150  -30.3580   24.7140 C   0  0  0  0  0  1  0  0  0  0  0  0
  -27.5990  -32.5210   25.7740 C   0  0  0  0  0  1  0  0  0  0  0  0
  -25.6060  -33.9130   24.1990 N   0  0  0  0  0  0  0  0  0  0  0  0
  -25.9200  -34.9670   23.4340 C   0  0  0  0  0  0  0  0  0  0  0  0
  -26.5680  -34.8660   22.3880 O   0  0  0  0  0  0  0  0  0  0  0  0
  -25.0290  -34.0630   25.0130 H   0  0  0  0  0  0  0  0  0  0  0  0
  -24.1740  -36.7500   23.1270 C   0  0  0  0  0  1  0  0  0  0  0  0
  -25.4400  -36.3530   23.9030 C   0  0  0  0  0  3  0  0  0  0  0  0
  -27.5980  -37.2420   24.6670 C   0  0  0  0  0  1  0  0  0  0  0  0
  -26.4640  -37.4110   23.7620 N   0  0  0  0  0  0  0  0  0  0  0  0
  -26.0580  -38.3280   23.9280 H   0  0  0  0  0  0  0  0  0  0  0  0
  1 50  1  0
  1  2  1  0
  2  4  1  0
  2  5  1  0
  2  3  1  0
  6  1  1  0
  6  7  2  0
  8  7  1  0
  8  9  1  0
 10  9  1  0
 10 11  1  0
 12 20  1  0
 13 18  1  0
 14 15  1  0
 14 13  1  0
 16 15  1  0
 16 25  1  0
 16 17  1  0
 18 12  1  0
 18 17  1  0
 19 12  2  0
 20 11  1  0
 20 21  1  0
 22 23  2  0
 23 42  1  0
 24 23  1  0
 24 27  1  0
 25 22  1  0
 25 26  1  0
 26 24  2  0
 27 28  1  0
 28 29  2  0
 30 33  1  0
 30 29  1  0
 31 30  2  0
 32 31  1  0
 32 27  2  0
 33 34  1  0
 34 35  1  0
 35 36  2  0
 37 36  1  0
 37 41  1  0
 38 37  2  0
 39 34  2  0
 39 38  1  0
 40 39  1  0
 42 43  1  0
 43 46  1  0
 43 45  1  0
 44 42  2  0
 47 48  1  0
 47 22  1  0
 49 47  1  0
 50 51  1  0
 52 63  2  0
 53 51  1  0
 53 58  1  0
 54 62  1  0
 54 64  1  0
 55 61  1  0
 55 57  1  0
 56 62  1  0
 57 56  1  0
 58 57  2  0
 59 60  1  0
 59 53  2  0
 60 55  2  0
 61 54  1  0
 62 52  1  0
 64 66  2  0
 65 64  1  0
 67 65  1  0
 68 77  2  0
 68 73  1  0
 69 65  1  0
 69 73  1  0
 70 69  1  0
 71 72  1  0
 71 70  1  0
 72 68  1  0
 73 74  2  0
 74 75  1  0
 76 75  2  0
 77 76  1  0
 78 52  1  0
 78 83  1  0
 78 79  1  0
 79 82  1  1
 79 80  1  0
 81 79  1  0
 83 86  1  0
 84 88  1  0
 84 83  1  0
 85 84  2  0
 88 87  1  0
 90 88  1  0
 90 91  1  0
 90 89  1  0
M  ISO  4  12 100  20 100  50 101  51 101
M  END
>  <TORSDO>  (51) 
F 23

>  <SCORE>  (51) 
-12.884

>  <name>  (51) 
51

>  <ligand_id>  (51) 
51

>  <original_smiles>  (51) 
[H]C(=NC([H])([H])C([H])([H])C([H])([H])C([H])([H])N([H])C(=O)N1C([H])([H])C([H])([H])C([H])([H])C([H])(n2nc(-c3c([H])c([H])c(Oc4c([H])c([H])c(F)c([H])c4F)c([H])c3[H])c(C(=O)N([H])[H])c2N([H])[H])C1([H])[H])C([H])(C([H])([H])Oc1c([H])c([H])c2c(c1[H])C([H])([H])N(C(=O)C([H])(N([H])C(=O)C([H])(N([H])C([H])([H])[H])C([H])([H])[H])C(C([H])([H])[H])(C([H])([H])[H])C([H])([H])[H])C([H])(C(=O)N([H])C1([H])c3c([H])c([H])c([H])c([H])c3C([H])([H])C([H])([H])C1([H])[H])C2([H])[H])[N+]([H])([H])[H]

>  <smiles>  (51) 
[H]C(=NC([H])([H])C([H])([H])C([H])([H])C([H])([H])N([H])C(=O)N1C([H])([H])C([H])([H])C([H])([H])C([H])(n2nc(-c3c([H])c([H])c(Oc4c([H])c([H])c(F)c([H])c4F)c([H])c3[H])c(C(=O)N([H])[H])c2N([H])[H])C1([H])[H])C([H])(C([H])([H])Oc1c([H])c([H])c2c(c1[H])C([H])([H])N(C(=O)C([H])(N([H])C(=O)C([H])(N([H])C([H])([H])[H])C([H])([H])[H])C(C([H])([H])[H])(C([H])([H])[H])C([H])([H])[H])C([H])(C(=O)N([H])C1([H])c3c([H])c([H])c([H])c([H])c3C([H])([H])C([H])([H])C1([H])[H])C2([H])[H])[N+]([H])([H])[H]

$$$$
52:0:0
     RDKit          3D

 91 98  0  0  1  0  0  0  0  0999 V2000
  -28.7240  -22.1770   20.6690 N   0  0  0  0  0  4  0  0  0  0  0  0
  -28.0260  -22.0450   19.9510 H   0  0  0  0  0  0  0  0  0  0  0  0
  -29.6130  -22.3230   20.2190 H   0  0  0  0  0  0  0  0  0  0  0  0
  -28.7850  -20.9450   21.4930 C   0  0  0  0  0  2  0  0  0  0  0  0
  -29.5340  -19.8070   20.7640 C   0  0  0  0  0  2  0  0  0  0  0  0
  -29.5690  -18.4670   21.5330 C   0  0  0  0  0  2  0  0  0  0  0  0
  -30.8410  -17.6540   21.2260 C   0  0  0  0  0  2  0  0  0  0  0  0
  -31.0250  -16.3920   22.0980 C   0  0  0  0  0  2  0  0  0  0  0  0
  -30.7700  -14.3830   20.6570 C   0  0  0  0  0  0  0  0  0  0  0  0
  -30.4110  -12.2880   19.4080 C   0  0  0  0  0  2  0  0  0  0  0  0
  -29.4860  -12.5110   18.1980 C   0  0  0  0  0  2  0  0  0  0  0  0
  -28.0120  -12.3610   18.6160 C   0  0  0  0  0  2  0  0  0  0  0  0
  -27.6620  -13.2030   19.8720 C   0  0  0  0  0  3  0  0  0  0  0  0
  -28.6990  -12.9760   20.9940 C   0  0  0  0  0  2  0  0  0  0  0  0
  -30.0420  -13.2550   20.4520 N   0  0  0  0  0  0  0  0  0  0  0  0
  -31.8130  -14.6350   20.0440 O   0  0  0  0  0  0  0  0  0  0  0  0
  -30.3060  -15.2180   21.5970 N   0  0  0  0  0  0  0  0  0  0  0  0
  -29.4530  -14.9500   22.0660 H   0  0  0  0  0  0  0  0  0  0  0  0
  -25.2590  -13.8150   20.5660 C   0  0  0  0  0  0  0  0  0  0  0  0
  -24.1840  -13.0430   20.9160 C   0  0  0  0  0  0  0  0  0  0  0  0
  -24.6380  -11.6900   20.8730 C   0  0  0  0  0  0  0  0  0  0  0  0
  -26.3020  -12.9320   20.3340 N   0  0  0  0  0  0  0  0  0  0  0  0
  -25.9300  -11.6480   20.5740 N   0  0  0  0  0  0  0  0  0  0  0  0
  -23.9050  -10.4290   21.0390 C   0  0  0  0  0  0  0  0  0  0  0  0
  -24.3610   -9.4210   21.9180 C   0  0  0  0  0  3  0  0  0  0  0  0
  -23.6290   -8.2250   22.0750 C   0  0  0  0  0  3  0  0  0  0  0  0
  -22.4270   -8.0280   21.3540 C   0  0  0  0  0  0  0  0  0  0  0  0
  -21.9900   -9.0250   20.4660 C   0  0  0  0  0  3  0  0  0  0  0  0
  -22.7220  -10.2130   20.3050 C   0  0  0  0  0  3  0  0  0  0  0  0
  -21.6630   -6.8870   21.4240 O   0  0  0  0  0  0  0  0  0  0  0  0
  -21.6850   -6.0730   22.5270 C   0  0  0  0  0  0  0  0  0  0  0  0
  -21.4020   -6.5640   23.8210 C   0  0  0  0  0  3  0  0  0  0  0  0
  -21.3660   -5.6790   24.9170 C   0  0  0  0  0  3  0  0  0  0  0  0
  -21.6040   -4.3060   24.7230 C   0  0  0  0  0  0  0  0  0  0  0  0
  -21.8820   -3.8140   23.4350 C   0  0  0  0  0  3  0  0  0  0  0  0
  -21.9200   -4.6960   22.3400 C   0  0  0  0  0  0  0  0  0  0  0  0
  -22.1660   -4.2150   21.0980 F   0  0  0  0  0  0  0  0  0  0  0  0
  -21.5630   -3.4540   25.7740 F   0  0  0  0  0  0  0  0  0  0  0  0
  -22.7870  -13.5250   21.1840 C   0  0  0  0  0  0  0  0  0  0  0  0
  -22.0510  -12.8250   22.0410 N   0  0  0  0  0  0  0  0  0  0  0  0
  -22.3550  -14.5550   20.6690 O   0  0  0  0  0  0  0  0  0  0  0  0
  -22.4130  -11.9910   22.4800 H   0  0  0  0  0  0  0  0  0  0  0  0
  -21.1130  -13.1280   22.2620 H   0  0  0  0  0  0  0  0  0  0  0  0
  -25.4330  -15.1870   20.4080 N   0  0  0  0  0  0  0  0  0  0  0  0
  -24.6700  -15.8460   20.5180 H   0  0  0  0  0  0  0  0  0  0  0  0
  -26.2950  -15.6250   20.1070 H   0  0  0  0  0  0  0  0  0  0  0  0
  -28.3440  -23.4120   21.3950 C   0  0  0  0  0  2  0  0  0  0  0  0
  -27.6020  -24.4120   20.4840 C   0  0  0  0  0  3  0  0  0  0  0  0
  -26.7980  -23.7200   19.6750 F   0  0  0  0  0  0  0  0  0  0  0  0
  -28.4650  -25.3940   19.6430 C   0  0  0  0  0  2  0  0  0  0  0  0
  -28.4240  -26.7490   20.1120 O   0  0  0  0  0  0  0  0  0  0  0  0
  -24.6100  -31.8690   23.2180 C   0  0  0  0  0  0  0  0  0  0  0  0
  -27.2370  -27.4570   20.0770 C   0  0  0  0  0  0  0  0  0  0  0  0
  -23.3970  -30.4940   21.5570 C   0  0  0  0  0  3  0  0  0  0  0  0
  -24.8430  -28.9680   20.1150 C   0  0  0  0  0  0  0  0  0  0  0  0
  -25.9240  -30.8370   21.3740 C   0  0  0  0  0  2  0  0  0  0  0  0
  -26.0010  -29.4750   20.7160 C   0  0  0  0  0  0  0  0  0  0  0  0
  -27.1960  -28.7230   20.7040 C   0  0  0  0  0  3  0  0  0  0  0  0
  -26.0620  -26.9730   19.4530 C   0  0  0  0  0  3  0  0  0  0  0  0
  -24.8680  -27.7140   19.4830 C   0  0  0  0  0  3  0  0  0  0  0  0
  -23.6030  -29.8290   20.1710 C   0  0  0  0  0  2  0  0  0  0  0  0
  -24.6610  -31.0790   22.1080 N   0  0  0  0  0  0  0  0  0  0  0  0
  -23.5310  -32.1410   23.7630 O   0  0  0  0  0  0  0  0  0  0  0  0
  -22.7380  -29.4650   22.5020 C   0  0  0  0  0  0  0  0  0  0  0  0
  -21.4120  -29.3020   22.3760 N   0  0  0  0  0  0  0  0  0  0  0  0
  -23.4160  -28.8170   23.3030 O   0  0  0  0  0  0  0  0  0  0  0  0
  -20.9280  -29.8730   21.6970 H   0  0  0  0  0  0  0  0  0  0  0  0
  -18.0270  -28.1340   22.8510 C   0  0  0  0  0  0  0  0  0  0  0  0
  -20.5850  -28.3640   23.1340 C   0  0  0  0  0  3  0  0  0  0  0  0
  -20.6750  -26.9370   22.5440 C   0  0  0  0  0  2  0  0  0  0  0  0
  -19.5740  -26.6370   21.5220 C   0  0  0  0  0  2  0  0  0  0  0  0
  -18.1920  -26.7900   22.1610 C   0  0  0  0  0  2  0  0  0  0  0  0
  -19.1510  -28.8810   23.2930 C   0  0  0  0  0  0  0  0  0  0  0  0
  -18.9440  -30.1430   23.8930 C   0  0  0  0  0  3  0  0  0  0  0  0
  -17.6440  -30.6560   24.0560 C   0  0  0  0  0  3  0  0  0  0  0  0
  -16.5330  -29.9050   23.6320 C   0  0  0  0  0  3  0  0  0  0  0  0
  -16.7260  -28.6460   23.0360 C   0  0  0  0  0  3  0  0  0  0  0  0
  -25.9020  -32.4840   23.8410 C   0  0  0  0  0  3  0  0  0  0  0  0
  -26.4450  -31.6620   25.0740 C   0  0  1  0  0  0  0  0  0  0  0  0
  -25.3750  -31.3770   26.1530 C   0  0  0  0  0  1  0  0  0  0  0  0
  -27.0200  -30.3030   24.6130 C   0  0  0  0  0  1  0  0  0  0  0  0
  -27.6090  -32.4310   25.7440 C   0  0  0  0  0  1  0  0  0  0  0  0
  -25.5910  -33.8640   24.2350 N   0  0  0  0  0  0  0  0  0  0  0  0
  -25.9040  -34.9490   23.5130 C   0  0  0  0  0  0  0  0  0  0  0  0
  -26.5570  -34.8930   22.4670 O   0  0  0  0  0  0  0  0  0  0  0  0
  -25.0130  -33.9800   25.0550 H   0  0  0  0  0  0  0  0  0  0  0  0
  -24.1490  -36.7310   23.2640 C   0  0  0  0  0  1  0  0  0  0  0  0
  -25.4110  -36.3130   24.0340 C   0  0  0  0  0  3  0  0  0  0  0  0
  -27.5590  -37.1790   24.8460 C   0  0  0  0  0  1  0  0  0  0  0  0
  -26.4310  -37.3810   23.9410 N   0  0  0  0  0  0  0  0  0  0  0  0
  -26.0200  -38.2900   24.1420 H   0  0  0  0  0  0  0  0  0  0  0  0
  1 47  1  0
  1  4  1  0
  2  1  1  0
  3  1  1  0
  5  4  1  0
  5  6  1  0
  7  6  1  0
  7  8  1  0
  9 17  1  0
 10 15  1  0
 11 12  1  0
 11 10  1  0
 13 12  1  0
 13 22  1  0
 13 14  1  0
 15  9  1  0
 15 14  1  0
 16  9  2  0
 17 18  1  0
 17  8  1  0
 19 20  2  0
 20 39  1  0
 21 20  1  0
 21 24  1  0
 22 19  1  0
 22 23  1  0
 23 21  2  0
 24 25  1  0
 25 26  2  0
 27 30  1  0
 27 26  1  0
 28 27  2  0
 29 28  1  0
 29 24  2  0
 30 31  1  0
 31 32  1  0
 32 33  2  0
 34 33  1  0
 34 38  1  0
 35 34  2  0
 36 31  2  0
 36 35  1  0
 37 36  1  0
 39 40  1  0
 40 43  1  0
 40 42  1  0
 41 39  2  0
 44 45  1  0
 44 19  1  0
 46 44  1  0
 48 49  1  0
 48 47  1  0
 50 51  1  0
 50 48  1  0
 52 63  2  0
 53 51  1  0
 53 58  1  0
 54 62  1  0
 54 64  1  0
 55 61  1  0
 55 57  1  0
 56 62  1  0
 57 56  1  0
 58 57  2  0
 59 60  1  0
 59 53  2  0
 60 55  2  0
 61 54  1  0
 62 52  1  0
 64 66  2  0
 65 64  1  0
 67 65  1  0
 68 77  2  0
 68 73  1  0
 69 65  1  0
 69 73  1  0
 70 69  1  0
 71 72  1  0
 71 70  1  0
 72 68  1  0
 73 74  2  0
 74 75  1  0
 76 75  2  0
 77 76  1  0
 78 52  1  0
 78 83  1  0
 78 79  1  0
 79 82  1  1
 79 80  1  0
 81 79  1  0
 83 86  1  0
 84 88  1  0
 84 83  1  0
 85 84  2  0
 88 87  1  0
 90 88  1  0
 90 91  1  0
 90 89  1  0
M  ISO  4   9 100  17 100  50 101  51 101
M  END
>  <TORSDO>  (52) 
F 24

>  <SCORE>  (52) 
-11.733

>  <name>  (52) 
52

>  <ligand_id>  (52) 
52

>  <original_smiles>  (52) 
[H]c1c([H])c([H])c2c(c1[H])C([H])([H])C([H])([H])C([H])([H])C2([H])N([H])C(=O)C1([H])N(C(=O)C([H])(N([H])C(=O)C([H])(N([H])C([H])([H])[H])C([H])([H])[H])C(C([H])([H])[H])(C([H])([H])[H])C([H])([H])[H])C([H])([H])c2c([H])c(OC([H])([H])C([H])(F)C([H])([H])[N+]([H])([H])C([H])([H])C([H])([H])C([H])([H])C([H])([H])C([H])([H])N([H])C(=O)N3C([H])([H])C([H])([H])C([H])([H])C([H])(n4nc(-c5c([H])c([H])c(Oc6c([H])c([H])c(F)c([H])c6F)c([H])c5[H])c(C(=O)N([H])[H])c4N([H])[H])C3([H])[H])c([H])c([H])c2C1([H])[H]

>  <smiles>  (52) 
[H]c1c([H])c([H])c2c(c1[H])C([H])([H])C([H])([H])C([H])([H])C2([H])N([H])C(=O)C1([H])N(C(=O)C([H])(N([H])C(=O)C([H])(N([H])C([H])([H])[H])C([H])([H])[H])C(C([H])([H])[H])(C([H])([H])[H])C([H])([H])[H])C([H])([H])c2c([H])c(OC([H])([H])C([H])(F)C([H])([H])[N+]([H])([H])C([H])([H])C([H])([H])C([H])([H])C([H])([H])C([H])([H])N([H])C(=O)N3C([H])([H])C([H])([H])C([H])([H])C([H])(n4nc(-c5c([H])c([H])c(Oc6c([H])c([H])c(F)c([H])c6F)c([H])c5[H])c(C(=O)N([H])[H])c4N([H])[H])C3([H])[H])c([H])c([H])c2C1([H])[H]

$$$$
53:0:0
     RDKit          3D

 96104  0  0  1  0  0  0  0  0999 V2000
  -31.0750  -21.6310   22.1020 C   0  0  0  0  0  2  0  0  0  0  0  0
  -32.5260  -19.5600   21.9470 C   0  0  0  0  0  2  0  0  0  0  0  0
  -32.6220  -18.0390   22.1500 C   0  0  0  0  0  2  0  0  0  0  0  0
  -30.0100  -19.3020   21.8000 C   0  0  0  0  0  2  0  0  0  0  0  0
  -31.1700  -20.1190   22.4360 C   0  0  0  0  0  3  0  0  0  0  0  0
  -31.4460  -17.3130   21.4710 C   0  0  0  0  0  3  0  0  0  0  0  0
  -30.1670  -17.8410   21.9970 N   0  0  0  0  0  4  0  0  0  0  0  0
  -29.4060  -17.3690   21.5350 H   0  0  0  0  0  0  0  0  0  0  0  0
  -30.0970  -17.6270   22.9800 H   0  0  0  0  0  0  0  0  0  0  0  0
  -31.5490  -15.7840   21.6410 C   0  0  0  0  0  2  0  0  0  0  0  0
  -30.5110  -14.6520   19.6850 C   0  0  0  0  0  0  0  0  0  0  0  0
  -29.9370  -12.7430   18.2340 C   0  0  0  0  0  2  0  0  0  0  0  0
  -28.8420  -13.0380   17.1960 C   0  0  0  0  0  2  0  0  0  0  0  0
  -27.4470  -12.8180   17.8060 C   0  0  0  0  0  2  0  0  0  0  0  0
  -27.2730  -13.5590   19.1550 C   0  0  0  0  0  3  0  0  0  0  0  0
  -28.4540  -13.2630   20.1050 C   0  0  0  0  0  2  0  0  0  0  0  0
  -29.7170  -13.5890   19.4150 N   0  0  0  0  0  0  0  0  0  0  0  0
  -31.3370  -15.1140   18.8930 O   0  0  0  0  0  0  0  0  0  0  0  0
  -30.4830  -15.0380   20.9680 N   0  0  0  0  0  0  0  0  0  0  0  0
  -29.8230  -14.5460   21.5550 H   0  0  0  0  0  0  0  0  0  0  0  0
  -24.9500  -14.0750   20.1440 C   0  0  0  0  0  0  0  0  0  0  0  0
  -23.9540  -13.2610   20.6150 C   0  0  0  0  0  0  0  0  0  0  0  0
  -24.4500  -11.9270   20.5000 C   0  0  0  0  0  0  0  0  0  0  0  0
  -25.9900  -13.2340   19.7770 N   0  0  0  0  0  0  0  0  0  0  0  0
  -25.6960  -11.9360   20.0460 N   0  0  0  0  0  0  0  0  0  0  0  0
  -23.7910  -10.6360   20.7420 C   0  0  0  0  0  0  0  0  0  0  0  0
  -24.2490   -9.7480   21.7380 C   0  0  0  0  0  3  0  0  0  0  0  0
  -23.5870   -8.5220   21.9640 C   0  0  0  0  0  3  0  0  0  0  0  0
  -22.4540   -8.1750   21.1920 C   0  0  0  0  0  0  0  0  0  0  0  0
  -22.0160   -9.0530   20.1840 C   0  0  0  0  0  3  0  0  0  0  0  0
  -22.6780  -10.2700   19.9580 C   0  0  0  0  0  3  0  0  0  0  0  0
  -21.7630   -6.9930   21.3230 O   0  0  0  0  0  0  0  0  0  0  0  0
  -21.6280   -6.3700   22.5370 C   0  0  0  0  0  0  0  0  0  0  0  0
  -21.0100   -7.0050   23.6360 C   0  0  0  0  0  3  0  0  0  0  0  0
  -20.8290   -6.3020   24.8440 C   0  0  0  0  0  3  0  0  0  0  0  0
  -21.2560   -4.9650   24.9530 C   0  0  0  0  0  0  0  0  0  0  0  0
  -21.8680   -4.3290   23.8570 C   0  0  0  0  0  3  0  0  0  0  0  0
  -22.0500   -5.0300   22.6520 C   0  0  0  0  0  0  0  0  0  0  0  0
  -22.6200   -4.4070   21.5930 F   0  0  0  0  0  0  0  0  0  0  0  0
  -21.0760   -4.2880   26.1110 F   0  0  0  0  0  0  0  0  0  0  0  0
  -22.5840  -13.6850   21.0560 C   0  0  0  0  0  0  0  0  0  0  0  0
  -22.0080  -12.9840   22.0260 N   0  0  0  0  0  0  0  0  0  0  0  0
  -22.0340  -14.6750   20.5740 O   0  0  0  0  0  0  0  0  0  0  0  0
  -22.4670  -12.1840   22.4370 H   0  0  0  0  0  0  0  0  0  0  0  0
  -21.0940  -13.2510   22.3650 H   0  0  0  0  0  0  0  0  0  0  0  0
  -25.0520  -15.4540   19.9820 N   0  0  0  0  0  0  0  0  0  0  0  0
  -24.2810  -16.0810   20.1860 H   0  0  0  0  0  0  0  0  0  0  0  0
  -25.8460  -15.9240   19.5650 H   0  0  0  0  0  0  0  0  0  0  0  0
  -29.8470  -22.2920   22.6040 N   0  0  0  0  0  4  0  0  0  0  0  0
  -29.9920  -22.5550   23.5670 H   0  0  0  0  0  0  0  0  0  0  0  0
  -29.0730  -21.6500   22.5790 H   0  0  0  0  0  0  0  0  0  0  0  0
  -29.4710  -23.4880   21.8190 C   0  0  0  0  0  2  0  0  0  0  0  0
  -28.2930  -24.2680   22.4370 C   0  0  0  0  0  2  0  0  0  0  0  0
  -27.5820  -25.1880   21.4280 C   0  0  0  0  0  2  0  0  0  0  0  0
  -28.4800  -26.2530   20.7650 C   0  0  0  0  0  2  0  0  0  0  0  0
  -27.8830  -26.7170   19.5580 O   0  0  0  0  0  0  0  0  0  0  0  0
  -24.4960  -31.8750   23.1190 C   0  0  0  0  0  0  0  0  0  0  0  0
  -26.7600  -27.4860   19.7170 C   0  0  0  0  0  0  0  0  0  0  0  0
  -23.1240  -30.5720   21.5220 C   0  0  0  0  0  3  0  0  0  0  0  0
  -24.4190  -29.0350   19.9500 C   0  0  0  0  0  0  0  0  0  0  0  0
  -25.6340  -30.8610   21.1520 C   0  0  0  0  0  2  0  0  0  0  0  0
  -25.6280  -29.5090   20.4750 C   0  0  0  0  0  0  0  0  0  0  0  0
  -26.8030  -28.7370   20.3680 C   0  0  0  0  0  3  0  0  0  0  0  0
  -25.5430  -27.0200   19.1820 C   0  0  0  0  0  3  0  0  0  0  0  0
  -24.3670  -27.7870   19.3060 C   0  0  0  0  0  3  0  0  0  0  0  0
  -23.2090  -29.9280   20.1110 C   0  0  0  0  0  2  0  0  0  0  0  0
  -24.4400  -31.1140   21.9880 N   0  0  0  0  0  0  0  0  0  0  0  0
  -23.4680  -32.1620   23.7460 O   0  0  0  0  0  0  0  0  0  0  0  0
  -22.5090  -29.5410   22.4950 C   0  0  0  0  0  0  0  0  0  0  0  0
  -21.1790  -29.3680   22.4210 N   0  0  0  0  0  0  0  0  0  0  0  0
  -23.2230  -28.8990   23.2710 O   0  0  0  0  0  0  0  0  0  0  0  0
  -20.6640  -29.9360   21.7630 H   0  0  0  0  0  0  0  0  0  0  0  0
  -17.8210  -28.1950   23.0390 C   0  0  0  0  0  0  0  0  0  0  0  0
  -20.3880  -28.4260   23.2120 C   0  0  0  0  0  3  0  0  0  0  0  0
  -20.4560  -27.0030   22.6110 C   0  0  0  0  0  2  0  0  0  0  0  0
  -19.3120  -26.7060   21.6380 C   0  0  0  0  0  2  0  0  0  0  0  0
  -17.9580  -26.8540   22.3390 C   0  0  0  0  0  2  0  0  0  0  0  0
  -18.9630  -28.9400   23.4340 C   0  0  0  0  0  0  0  0  0  0  0  0
  -18.7790  -30.1980   24.0490 C   0  0  0  0  0  3  0  0  0  0  0  0
  -17.4870  -30.7100   24.2740 C   0  0  0  0  0  3  0  0  0  0  0  0
  -16.3610  -29.9590   23.8960 C   0  0  0  0  0  3  0  0  0  0  0  0
  -16.5280  -28.7040   23.2840 C   0  0  0  0  0  3  0  0  0  0  0  0
  -25.8480  -32.4400   23.6580 C   0  0  0  0  0  3  0  0  0  0  0  0
  -25.6140  -33.8330   24.0620 N   0  0  0  0  0  0  0  0  0  0  0  0
  -25.9710  -34.9030   23.3390 C   0  0  0  0  0  0  0  0  0  0  0  0
  -26.6010  -34.8180   22.2820 O   0  0  0  0  0  0  0  0  0  0  0  0
  -25.0540  -33.9770   24.8900 H   0  0  0  0  0  0  0  0  0  0  0  0
  -24.3430  -36.8030   23.0910 C   0  0  0  0  0  1  0  0  0  0  0  0
  -25.5610  -36.2890   23.8750 C   0  0  0  0  0  3  0  0  0  0  0  0
  -27.7390  -37.0110   24.7480 C   0  0  0  0  0  1  0  0  0  0  0  0
  -26.6510  -37.2870   23.8150 N   0  0  0  0  0  0  0  0  0  0  0  0
  -26.2940  -38.2190   24.0100 H   0  0  0  0  0  0  0  0  0  0  0  0
  -26.4360  -31.6010   24.8570 C   0  0  1  0  0  0  0  0  0  0  0  0
  -25.4130  -31.3160   25.9790 C   0  0  0  0  0  1  0  0  0  0  0  0
  -26.9770  -30.2410   24.3550 C   0  0  0  0  0  1  0  0  0  0  0  0
  -27.6360  -32.3500   25.4830 C   0  0  0  0  0  1  0  0  0  0  0  0
  1 49  1  0
  2  3  1  0
  2  5  1  0
  4  7  1  0
  4  5  1  0
  5  1  1  0
  6 10  1  0
  6  7  1  0
  6  3  1  0
  7  9  1  0
  8  7  1  0
 11 19  1  0
 12 17  1  0
 13 14  1  0
 13 12  1  0
 15 14  1  0
 15 24  1  0
 15 16  1  0
 17 11  1  0
 17 16  1  0
 18 11  2  0
 19 20  1  0
 19 10  1  0
 21 22  2  0
 22 41  1  0
 23 22  1  0
 23 26  1  0
 24 25  1  0
 24 21  1  0
 25 23  2  0
 26 27  1  0
 27 28  2  0
 29 32  1  0
 29 28  1  0
 30 29  2  0
 31 30  1  0
 31 26  2  0
 32 33  1  0
 33 38  2  0
 33 34  1  0
 34 35  2  0
 35 36  1  0
 36 40  1  0
 37 36  2  0
 38 37  1  0
 39 38  1  0
 41 42  1  0
 42 45  1  0
 42 44  1  0
 43 41  2  0
 46 21  1  0
 46 47  1  0
 48 46  1  0
 49 50  1  0
 51 49  1  0
 52 53  1  0
 52 49  1  0
 54 53  1  0
 55 54  1  0
 56 58  1  0
 56 55  1  0
 57 68  2  0
 58 63  1  0
 59 67  1  0
 59 69  1  0
 60 66  1  0
 60 62  1  0
 61 67  1  0
 62 61  1  0
 63 62  2  0
 64 65  1  0
 64 58  2  0
 65 60  2  0
 66 59  1  0
 67 57  1  0
 69 71  2  0
 70 69  1  0
 72 70  1  0
 73 82  2  0
 73 78  1  0
 74 70  1  0
 74 78  1  0
 75 74  1  0
 76 77  1  0
 76 75  1  0
 77 73  1  0
 78 79  2  0
 79 80  1  0
 81 80  2  0
 82 81  1  0
 83 57  1  0
 83 84  1  0
 83 93  1  0
 84 87  1  0
 85 89  1  0
 85 84  1  0
 86 85  2  0
 89 88  1  0
 91 89  1  0
 91 92  1  0
 91 90  1  0
 93 96  1  1
 93 94  1  0
 95 93  1  0
M  ISO  4  11 100  19 100  55 101  56 101
M  END
>  <TORSDO>  (53) 
F 23

>  <SCORE>  (53) 
-8.918

>  <name>  (53) 
53

>  <ligand_id>  (53) 
53

>  <original_smiles>  (53) 
[H]c1c([H])c([H])c2c(c1[H])C([H])([H])C([H])([H])C([H])([H])C2([H])N([H])C(=O)C1([H])N(C(=O)C([H])(N([H])C(=O)C([H])(N([H])C([H])([H])[H])C([H])([H])[H])C(C([H])([H])[H])(C([H])([H])[H])C([H])([H])[H])C([H])([H])c2c([H])c(OC([H])([H])C([H])([H])C([H])([H])C([H])([H])[N+]([H])([H])C([H])([H])C3([H])C([H])([H])C([H])([H])C([H])(C([H])([H])N([H])C(=O)N4C([H])([H])C([H])([H])C([H])([H])C([H])(n5nc(-c6c([H])c([H])c(Oc7c([H])c([H])c(F)c([H])c7F)c([H])c6[H])c(C(=O)N([H])[H])c5N([H])[H])C4([H])[H])[N+]([H])([H])C3([H])[H])c([H])c([H])c2C1([H])[H]

>  <smiles>  (53) 
[H]c1c([H])c([H])c2c(c1[H])C([H])([H])C([H])([H])C([H])([H])C2([H])N([H])C(=O)C1([H])N(C(=O)C([H])(N([H])C(=O)C([H])(N([H])C([H])([H])[H])C([H])([H])[H])C(C([H])([H])[H])(C([H])([H])[H])C([H])([H])[H])C([H])([H])c2c([H])c(OC([H])([H])C([H])([H])C([H])([H])C([H])([H])[N+]([H])([H])C([H])([H])C3([H])C([H])([H])C([H])([H])C([H])(C([H])([H])N([H])C(=O)N4C([H])([H])C([H])([H])C([H])([H])C([H])(n5nc(-c6c([H])c([H])c(Oc7c([H])c([H])c(F)c([H])c7F)c([H])c6[H])c(C(=O)N([H])[H])c5N([H])[H])C4([H])[H])[N+]([H])([H])C3([H])[H])c([H])c([H])c2C1([H])[H]

$$$$
54:0:0
     RDKit          3D

 95103  0  0  1  0  0  0  0  0999 V2000
  -25.0860  -22.4850   23.6130 C   0  0  0  0  0  2  0  0  0  0  0  0
  -25.3750  -21.1930   21.4790 C   0  0  0  0  0  2  0  0  0  0  0  0
  -24.7550  -23.6050   22.5950 C   0  0  0  0  0  2  0  0  0  0  0  0
  -25.9740  -22.4200   20.7620 C   0  0  0  0  0  2  0  0  0  0  0  0
  -25.7670  -21.2580   22.9630 C   0  0  0  0  0  3  0  0  0  0  0  0
  -25.7540  -23.7070   21.4970 N   0  0  2  0  0  4  0  0  0  0  0  0
  -25.3270  -24.3190   20.8180 H   0  0  0  0  0  0  0  0  0  0  0  0
  -25.5460  -19.9510   23.7490 C   0  0  0  0  0  2  0  0  0  0  0  0
  -26.7960  -19.2990   23.9360 O   0  0  0  0  0  0  0  0  0  0  0  0
  -27.1450  -18.3990   22.8970 C   0  0  0  0  0  2  0  0  0  0  0  0
  -28.6090  -17.9770   23.0680 C   0  0  0  0  0  2  0  0  0  0  0  0
  -28.9280  -16.7770   22.1730 C   0  0  0  0  0  2  0  0  0  0  0  0
  -30.3860  -16.2830   22.2510 C   0  0  0  0  0  2  0  0  0  0  0  0
  -30.7630  -14.3110   20.7480 C   0  0  0  0  0  0  0  0  0  0  0  0
  -30.4350  -12.2850   19.3730 C   0  0  0  0  0  2  0  0  0  0  0  0
  -29.4870  -12.5320   18.1850 C   0  0  0  0  0  2  0  0  0  0  0  0
  -28.0100  -12.3900   18.5990 C   0  0  0  0  0  2  0  0  0  0  0  0
  -27.6730  -13.1940   19.8800 C   0  0  0  0  0  3  0  0  0  0  0  0
  -28.7050  -12.8810   20.9850 C   0  0  0  0  0  2  0  0  0  0  0  0
  -30.0630  -13.1820   20.4720 N   0  0  0  0  0  0  0  0  0  0  0  0
  -31.6970  -14.7430   20.0630 O   0  0  0  0  0  0  0  0  0  0  0  0
  -30.3790  -14.8760   21.8930 N   0  0  0  0  0  0  0  0  0  0  0  0
  -29.7440  -14.3040   22.4300 H   0  0  0  0  0  0  0  0  0  0  0  0
  -25.2640  -13.8160   20.5620 C   0  0  0  0  0  0  0  0  0  0  0  0
  -24.1870  -13.0440   20.9110 C   0  0  0  0  0  0  0  0  0  0  0  0
  -24.6400  -11.6900   20.8700 C   0  0  0  0  0  0  0  0  0  0  0  0
  -26.3070  -12.9290   20.3310 N   0  0  0  0  0  0  0  0  0  0  0  0
  -25.9320  -11.6460   20.5730 N   0  0  0  0  0  0  0  0  0  0  0  0
  -23.9050  -10.4300   21.0410 C   0  0  0  0  0  0  0  0  0  0  0  0
  -24.3590   -9.4200   21.9170 C   0  0  0  0  0  3  0  0  0  0  0  0
  -23.6270   -8.2240   22.0740 C   0  0  0  0  0  3  0  0  0  0  0  0
  -22.4250   -8.0290   21.3550 C   0  0  0  0  0  0  0  0  0  0  0  0
  -21.9870   -9.0270   20.4670 C   0  0  0  0  0  3  0  0  0  0  0  0
  -22.7210  -10.2160   20.3070 C   0  0  0  0  0  3  0  0  0  0  0  0
  -21.6610   -6.8880   21.4250 O   0  0  0  0  0  0  0  0  0  0  0  0
  -21.6850   -6.0740   22.5290 C   0  0  0  0  0  0  0  0  0  0  0  0
  -21.4010   -6.5630   23.8230 C   0  0  0  0  0  3  0  0  0  0  0  0
  -21.3640   -5.6760   24.9180 C   0  0  0  0  0  3  0  0  0  0  0  0
  -21.6020   -4.3020   24.7230 C   0  0  0  0  0  0  0  0  0  0  0  0
  -21.8800   -3.8140   23.4340 C   0  0  0  0  0  3  0  0  0  0  0  0
  -21.9190   -4.6970   22.3410 C   0  0  0  0  0  0  0  0  0  0  0  0
  -22.1660   -4.2160   21.0990 F   0  0  0  0  0  0  0  0  0  0  0  0
  -21.5630   -3.4490   25.7730 F   0  0  0  0  0  0  0  0  0  0  0  0
  -22.7890  -13.5270   21.1770 C   0  0  0  0  0  0  0  0  0  0  0  0
  -22.0490  -12.8250   22.0290 N   0  0  0  0  0  0  0  0  0  0  0  0
  -22.3590  -14.5600   20.6650 O   0  0  0  0  0  0  0  0  0  0  0  0
  -22.4070  -11.9850   22.4590 H   0  0  0  0  0  0  0  0  0  0  0  0
  -21.1110  -13.1270   22.2500 H   0  0  0  0  0  0  0  0  0  0  0  0
  -25.4380  -15.1890   20.4080 N   0  0  0  0  0  0  0  0  0  0  0  0
  -24.6740  -15.8450   20.5280 H   0  0  0  0  0  0  0  0  0  0  0  0
  -26.2890  -15.6300   20.0850 H   0  0  0  0  0  0  0  0  0  0  0  0
  -26.9820  -24.4270   21.9380 C   0  0  0  0  0  2  0  0  0  0  0  0
  -28.0640  -24.6050   20.8530 C   0  0  0  0  0  2  0  0  0  0  0  0
  -28.8190  -25.9390   20.9880 C   0  0  0  0  0  2  0  0  0  0  0  0
  -28.4400  -26.8150   19.9370 O   0  0  0  0  0  0  0  0  0  0  0  0
  -24.6090  -31.8710   23.2130 C   0  0  0  0  0  0  0  0  0  0  0  0
  -27.2480  -27.4800   20.0800 C   0  0  0  0  0  0  0  0  0  0  0  0
  -23.3970  -30.4920   21.5550 C   0  0  0  0  0  3  0  0  0  0  0  0
  -24.8450  -28.9530   20.1300 C   0  0  0  0  0  0  0  0  0  0  0  0
  -25.9210  -30.8430   21.3640 C   0  0  0  0  0  2  0  0  0  0  0  0
  -26.0000  -29.4750   20.7250 C   0  0  0  0  0  0  0  0  0  0  0  0
  -27.2040  -28.7410   20.7080 C   0  0  0  0  0  3  0  0  0  0  0  0
  -26.0790  -26.9570   19.4890 C   0  0  0  0  0  3  0  0  0  0  0  0
  -24.8740  -27.6870   19.5190 C   0  0  0  0  0  3  0  0  0  0  0  0
  -23.6070  -29.8190   20.1720 C   0  0  0  0  0  2  0  0  0  0  0  0
  -24.6610  -31.0820   22.1030 N   0  0  0  0  0  0  0  0  0  0  0  0
  -23.5290  -32.1460   23.7540 O   0  0  0  0  0  0  0  0  0  0  0  0
  -22.7390  -29.4640   22.5020 C   0  0  0  0  0  0  0  0  0  0  0  0
  -21.4130  -29.2990   22.3760 N   0  0  0  0  0  0  0  0  0  0  0  0
  -23.4180  -28.8160   23.3040 O   0  0  0  0  0  0  0  0  0  0  0  0
  -20.9270  -29.8730   21.7010 H   0  0  0  0  0  0  0  0  0  0  0  0
  -18.0270  -28.1370   22.8490 C   0  0  0  0  0  0  0  0  0  0  0  0
  -20.5860  -28.3630   23.1350 C   0  0  0  0  0  3  0  0  0  0  0  0
  -20.6740  -26.9350   22.5500 C   0  0  0  0  0  2  0  0  0  0  0  0
  -19.5750  -26.6340   21.5260 C   0  0  0  0  0  2  0  0  0  0  0  0
  -18.1910  -26.7920   22.1610 C   0  0  0  0  0  2  0  0  0  0  0  0
  -19.1510  -28.8820   23.2920 C   0  0  0  0  0  0  0  0  0  0  0  0
  -18.9430  -30.1440   23.8910 C   0  0  0  0  0  3  0  0  0  0  0  0
  -17.6430  -30.6570   24.0560 C   0  0  0  0  0  3  0  0  0  0  0  0
  -16.5330  -29.9070   23.6310 C   0  0  0  0  0  3  0  0  0  0  0  0
  -16.7250  -28.6490   23.0330 C   0  0  0  0  0  3  0  0  0  0  0  0
  -25.9000  -32.4840   23.8400 C   0  0  0  0  0  3  0  0  0  0  0  0
  -26.4450  -31.6600   25.0710 C   0  0  1  0  0  0  0  0  0  0  0  0
  -25.3730  -31.3690   26.1460 C   0  0  0  0  0  1  0  0  0  0  0  0
  -27.0250  -30.3040   24.6040 C   0  0  0  0  0  1  0  0  0  0  0  0
  -27.6040  -32.4290   25.7450 C   0  0  0  0  0  1  0  0  0  0  0  0
  -25.5890  -33.8640   24.2350 N   0  0  0  0  0  0  0  0  0  0  0  0
  -25.9030  -34.9490   23.5150 C   0  0  0  0  0  0  0  0  0  0  0  0
  -26.5590  -34.8940   22.4710 O   0  0  0  0  0  0  0  0  0  0  0  0
  -25.0040  -33.9810   25.0500 H   0  0  0  0  0  0  0  0  0  0  0  0
  -24.1490  -36.7330   23.2640 C   0  0  0  0  0  1  0  0  0  0  0  0
  -25.4110  -36.3130   24.0350 C   0  0  0  0  0  3  0  0  0  0  0  0
  -27.5590  -37.1820   24.8460 C   0  0  0  0  0  1  0  0  0  0  0  0
  -26.4300  -37.3810   23.9410 N   0  0  0  0  0  0  0  0  0  0  0  0
  -26.0200  -38.2900   24.1400 H   0  0  0  0  0  0  0  0  0  0  0  0
  2  5  1  0
  3  1  1  0
  4  2  1  0
  4  6  1  0
  5  1  1  0
  5  8  1  0
  6 52  1  0
  6  3  1  0
  6  7  1  6
  8  9  1  0
 10 11  1  0
 10  9  1  0
 12 13  1  0
 12 11  1  0
 14 22  1  0
 15 20  1  0
 16 17  1  0
 16 15  1  0
 18 17  1  0
 18 27  1  0
 18 19  1  0
 20 14  1  0
 20 19  1  0
 21 14  2  0
 22 13  1  0
 22 23  1  0
 24 25  2  0
 25 44  1  0
 26 25  1  0
 26 29  1  0
 27 24  1  0
 27 28  1  0
 28 26  2  0
 29 30  1  0
 30 31  2  0
 32 35  1  0
 32 31  1  0
 33 32  2  0
 34 33  1  0
 34 29  2  0
 35 36  1  0
 36 37  1  0
 37 38  2  0
 39 38  1  0
 39 43  1  0
 40 39  2  0
 41 36  2  0
 41 40  1  0
 42 41  1  0
 44 45  1  0
 45 48  1  0
 45 47  1  0
 46 44  2  0
 49 50  1  0
 49 24  1  0
 51 49  1  0
 53 54  1  0
 53 52  1  0
 55 57  1  0
 55 54  1  0
 56 67  2  0
 57 62  1  0
 58 66  1  0
 58 68  1  0
 59 65  1  0
 59 61  1  0
 60 66  1  0
 61 60  1  0
 62 61  2  0
 63 64  1  0
 63 57  2  0
 64 59  2  0
 65 58  1  0
 66 56  1  0
 68 70  2  0
 69 68  1  0
 71 69  1  0
 72 81  2  0
 72 77  1  0
 73 69  1  0
 73 77  1  0
 74 73  1  0
 75 76  1  0
 75 74  1  0
 76 72  1  0
 77 78  2  0
 78 79  1  0
 80 79  2  0
 81 80  1  0
 82 56  1  0
 82 87  1  0
 82 83  1  0
 83 86  1  1
 83 84  1  0
 85 83  1  0
 87 90  1  0
 88 92  1  0
 88 87  1  0
 89 88  2  0
 92 91  1  0
 94 92  1  0
 94 95  1  0
 94 93  1  0
M  ISO  4  14 100  22 100  54 101  55 101
M  END
>  <TORSDO>  (54) 
F 25

>  <SCORE>  (54) 
39.445

>  <name>  (54) 
54

>  <ligand_id>  (54) 
54

>  <original_smiles>  (54) 
[H]c1c([H])c([H])c2c(c1[H])C([H])([H])C([H])([H])C([H])([H])C2([H])N([H])C(=O)C1([H])N(C(=O)C([H])(N([H])C(=O)C([H])(N([H])C([H])([H])[H])C([H])([H])[H])C(C([H])([H])[H])(C([H])([H])[H])C([H])([H])[H])C([H])([H])c2c([H])c(OC([H])([H])C([H])([H])C([H])([H])[N+]3([H])C([H])([H])C([H])([H])C([H])(C([H])([H])OC([H])([H])C([H])([H])C([H])([H])C([H])([H])N([H])C(=O)N4C([H])([H])C([H])([H])C([H])([H])C([H])(n5nc(-c6c([H])c([H])c(Oc7c([H])c([H])c(F)c([H])c7F)c([H])c6[H])c(C(=O)N([H])[H])c5N([H])[H])C4([H])[H])C([H])([H])C3([H])[H])c([H])c([H])c2C1([H])[H]

>  <smiles>  (54) 
[H]c1c([H])c([H])c2c(c1[H])C([H])([H])C([H])([H])C([H])([H])C2([H])N([H])C(=O)C1([H])N(C(=O)C([H])(N([H])C(=O)C([H])(N([H])C([H])([H])[H])C([H])([H])[H])C(C([H])([H])[H])(C([H])([H])[H])C([H])([H])[H])C([H])([H])c2c([H])c(OC([H])([H])C([H])([H])C([H])([H])[N+]3([H])C([H])([H])C([H])([H])C([H])(C([H])([H])OC([H])([H])C([H])([H])C([H])([H])C([H])([H])N([H])C(=O)N4C([H])([H])C([H])([H])C([H])([H])C([H])(n5nc(-c6c([H])c([H])c(Oc7c([H])c([H])c(F)c([H])c7F)c([H])c6[H])c(C(=O)N([H])[H])c5N([H])[H])C4([H])[H])C([H])([H])C3([H])[H])c([H])c([H])c2C1([H])[H]

$$$$
55:0:0
     RDKit          3D

 97105  0  0  1  0  0  0  0  0999 V2000
  -28.8820  -18.3160   19.4360 C   0  0  0  0  0  2  0  0  0  0  0  0
  -30.8190  -18.5830   17.3280 C   0  0  0  0  0  2  0  0  0  0  0  0
  -29.4300  -19.6980   19.8200 C   0  0  0  0  0  2  0  0  0  0  0  0
  -30.8990  -20.0500   17.8010 C   0  0  0  0  0  2  0  0  0  0  0  0
  -29.9470  -17.2080   19.3560 C   0  0  0  0  0  3  0  0  0  0  0  0
  -31.1610  -17.5640   18.4420 C   0  0  0  0  0  3  0  0  0  0  0  0
  -29.7740  -20.5520   18.6470 N   0  0  2  0  0  4  0  0  0  0  0  0
  -28.9500  -20.5750   18.0620 H   0  0  0  0  0  0  0  0  0  0  0  0
  -31.7710  -16.3460   17.8670 N   0  0  0  0  0  4  0  0  0  0  0  0
  -31.1900  -15.9250   17.1640 H   0  0  0  0  0  0  0  0  0  0  0  0
  -31.9340  -15.6610   18.6050 H   0  0  0  0  0  0  0  0  0  0  0  0
  -32.6630  -16.5560   17.4530 H   0  0  0  0  0  0  0  0  0  0  0  0
  -30.3700  -16.7710   20.7950 C   0  0  0  0  0  2  0  0  0  0  0  0
  -30.7380  -14.3540   20.5370 C   0  0  0  0  0  0  0  0  0  0  0  0
  -30.3930  -12.2390   19.3550 C   0  0  0  0  0  2  0  0  0  0  0  0
  -29.4750  -12.4990   18.1430 C   0  0  0  0  0  2  0  0  0  0  0  0
  -27.9920  -12.4040   18.5490 C   0  0  0  0  0  2  0  0  0  0  0  0
  -27.6600  -13.2330   19.8180 C   0  0  0  0  0  3  0  0  0  0  0  0
  -28.6900  -12.9530   20.9390 C   0  0  0  0  0  2  0  0  0  0  0  0
  -30.0380  -13.2060   20.4010 N   0  0  0  0  0  0  0  0  0  0  0  0
  -31.8390  -14.5580   20.0150 O   0  0  0  0  0  0  0  0  0  0  0  0
  -30.0420  -15.3720   21.0450 N   0  0  0  0  0  0  0  0  0  0  0  0
  -29.1370  -15.1620   21.4430 H   0  0  0  0  0  0  0  0  0  0  0  0
  -25.2520  -13.8880   20.4610 C   0  0  0  0  0  0  0  0  0  0  0  0
  -24.1680  -13.1350   20.8230 C   0  0  0  0  0  0  0  0  0  0  0  0
  -24.6140  -11.7780   20.8240 C   0  0  0  0  0  0  0  0  0  0  0  0
  -26.2920  -12.9910   20.2700 N   0  0  0  0  0  0  0  0  0  0  0  0
  -25.9070  -11.7180   20.5420 N   0  0  0  0  0  0  0  0  0  0  0  0
  -23.8690  -10.5280   21.0230 C   0  0  0  0  0  0  0  0  0  0  0  0
  -24.2870   -9.5630   21.9660 C   0  0  0  0  0  3  0  0  0  0  0  0
  -23.5470   -8.3760   22.1500 C   0  0  0  0  0  3  0  0  0  0  0  0
  -22.3740   -8.1460   21.3920 C   0  0  0  0  0  0  0  0  0  0  0  0
  -21.9760   -9.0990   20.4380 C   0  0  0  0  0  3  0  0  0  0  0  0
  -22.7170  -10.2770   20.2510 C   0  0  0  0  0  3  0  0  0  0  0  0
  -21.6040   -7.0110   21.4860 O   0  0  0  0  0  0  0  0  0  0  0  0
  -21.5570   -6.2680   22.6380 C   0  0  0  0  0  0  0  0  0  0  0  0
  -21.1640   -6.8310   23.8730 C   0  0  0  0  0  3  0  0  0  0  0  0
  -21.0620   -6.0150   25.0170 C   0  0  0  0  0  3  0  0  0  0  0  0
  -21.3400   -4.6380   24.9280 C   0  0  0  0  0  0  0  0  0  0  0  0
  -21.7260   -4.0750   23.6990 C   0  0  0  0  0  3  0  0  0  0  0  0
  -21.8310   -4.8880   22.5570 C   0  0  0  0  0  0  0  0  0  0  0  0
  -22.1820   -4.3370   21.3700 F   0  0  0  0  0  0  0  0  0  0  0  0
  -21.2350   -3.8530   26.0250 F   0  0  0  0  0  0  0  0  0  0  0  0
  -22.7720  -13.6340   21.0620 C   0  0  0  0  0  0  0  0  0  0  0  0
  -22.0200  -12.9600   21.9280 N   0  0  0  0  0  0  0  0  0  0  0  0
  -22.3540  -14.6530   20.5160 O   0  0  0  0  0  0  0  0  0  0  0  0
  -22.3710  -12.1340   22.3910 H   0  0  0  0  0  0  0  0  0  0  0  0
  -21.0830  -13.2750   22.1300 H   0  0  0  0  0  0  0  0  0  0  0  0
  -25.4380  -15.2540   20.2630 N   0  0  0  0  0  0  0  0  0  0  0  0
  -24.6750  -15.9180   20.3430 H   0  0  0  0  0  0  0  0  0  0  0  0
  -26.2970  -15.6760   19.9370 H   0  0  0  0  0  0  0  0  0  0  0  0
  -30.0490  -21.9730   19.0070 C   0  0  0  0  0  2  0  0  0  0  0  0
  -29.0760  -22.6120   20.0170 C   0  0  0  0  0  2  0  0  0  0  0  0
  -29.3490  -24.1050   20.1820 C   0  0  0  0  0  2  0  0  0  0  0  0
  -28.5390  -24.7300   21.3260 C   0  0  0  0  0  2  0  0  0  0  0  0
  -28.7850  -26.2360   21.4140 C   0  0  0  0  0  2  0  0  0  0  0  0
  -28.4150  -26.7900   20.1580 O   0  0  0  0  0  0  0  0  0  0  0  0
  -24.5780  -31.8840   23.2450 C   0  0  0  0  0  0  0  0  0  0  0  0
  -27.2420  -27.4880   20.1850 C   0  0  0  0  0  0  0  0  0  0  0  0
  -23.3770  -30.4790   21.5970 C   0  0  0  0  0  3  0  0  0  0  0  0
  -24.8380  -28.9390   20.1860 C   0  0  0  0  0  0  0  0  0  0  0  0
  -25.8940  -30.8550   21.4020 C   0  0  0  0  0  2  0  0  0  0  0  0
  -25.9840  -29.4830   20.7780 C   0  0  0  0  0  0  0  0  0  0  0  0
  -27.1910  -28.7610   20.7810 C   0  0  0  0  0  3  0  0  0  0  0  0
  -26.0900  -26.9390   19.5940 C   0  0  0  0  0  3  0  0  0  0  0  0
  -24.8800  -27.6620   19.5960 C   0  0  0  0  0  3  0  0  0  0  0  0
  -23.5880  -29.7880   20.2210 C   0  0  0  0  0  2  0  0  0  0  0  0
  -24.6350  -31.0870   22.1410 N   0  0  0  0  0  0  0  0  0  0  0  0
  -23.4980  -32.1560   23.7850 O   0  0  0  0  0  0  0  0  0  0  0  0
  -22.7250  -29.4610   22.5590 C   0  0  0  0  0  0  0  0  0  0  0  0
  -21.4000  -29.2870   22.4330 N   0  0  0  0  0  0  0  0  0  0  0  0
  -23.4080  -28.8300   23.3720 O   0  0  0  0  0  0  0  0  0  0  0  0
  -20.9150  -29.8450   21.7440 H   0  0  0  0  0  0  0  0  0  0  0  0
  -18.0170  -28.1290   22.9380 C   0  0  0  0  0  0  0  0  0  0  0  0
  -20.5780  -28.3550   23.2030 C   0  0  0  0  0  3  0  0  0  0  0  0
  -20.6640  -26.9260   22.6210 C   0  0  0  0  0  2  0  0  0  0  0  0
  -19.5530  -26.6200   21.6100 C   0  0  0  0  0  2  0  0  0  0  0  0
  -18.1760  -26.7800   22.2580 C   0  0  0  0  0  2  0  0  0  0  0  0
  -19.1460  -28.8760   23.3690 C   0  0  0  0  0  0  0  0  0  0  0  0
  -18.9440  -30.1410   23.9640 C   0  0  0  0  0  3  0  0  0  0  0  0
  -17.6460  -30.6560   24.1370 C   0  0  0  0  0  3  0  0  0  0  0  0
  -16.5310  -29.9060   23.7230 C   0  0  0  0  0  3  0  0  0  0  0  0
  -16.7190  -28.6450   23.1280 C   0  0  0  0  0  3  0  0  0  0  0  0
  -25.8650  -32.5140   23.8670 C   0  0  0  0  0  3  0  0  0  0  0  0
  -26.3830  -31.7420   25.1430 C   0  0  1  0  0  0  0  0  0  0  0  0
  -25.2930  -31.5000   26.2110 C   0  0  0  0  0  1  0  0  0  0  0  0
  -26.9660  -30.3660   24.7480 C   0  0  0  0  0  1  0  0  0  0  0  0
  -27.5340  -32.5370   25.8030 C   0  0  0  0  0  1  0  0  0  0  0  0
  -25.5580  -33.9140   24.1930 N   0  0  0  0  0  0  0  0  0  0  0  0
  -25.8980  -34.9620   23.4310 C   0  0  0  0  0  0  0  0  0  0  0  0
  -26.5740  -34.8530   22.4040 O   0  0  0  0  0  0  0  0  0  0  0  0
  -24.9580  -34.0710   24.9890 H   0  0  0  0  0  0  0  0  0  0  0  0
  -24.1750  -36.7580   23.0580 C   0  0  0  0  0  1  0  0  0  0  0  0
  -25.4090  -36.3520   23.8800 C   0  0  0  0  0  3  0  0  0  0  0  0
  -27.5400  -37.2330   24.7220 C   0  0  0  0  0  1  0  0  0  0  0  0
  -26.4440  -37.4030   23.7720 N   0  0  0  0  0  0  0  0  0  0  0  0
  -26.0400  -38.3240   23.9170 H   0  0  0  0  0  0  0  0  0  0  0  0
  1  3  1  0
  2  4  1  0
  2  6  1  0
  4  7  1  0
  5  1  1  0
  5 13  1  0
  6  9  1  0
  6  5  1  0
  7 52  1  0
  7  3  1  0
  7  8  1  6
  9 11  1  0
 10  9  1  0
 12  9  1  0
 13 22  1  0
 14 22  1  0
 15 20  1  0
 16 17  1  0
 16 15  1  0
 18 17  1  0
 18 27  1  0
 18 19  1  0
 20 14  1  0
 20 19  1  0
 21 14  2  0
 22 23  1  0
 24 25  2  0
 25 26  1  0
 25 44  1  0
 26 29  1  0
 27 24  1  0
 27 28  1  0
 28 26  2  0
 29 30  1  0
 30 31  2  0
 32 35  1  0
 32 31  1  0
 33 32  2  0
 34 33  1  0
 34 29  2  0
 35 36  1  0
 36 37  1  0
 37 38  2  0
 39 38  1  0
 39 43  1  0
 40 39  2  0
 41 36  2  0
 41 40  1  0
 42 41  1  0
 44 45  1  0
 45 48  1  0
 45 47  1  0
 46 44  2  0
 49 50  1  0
 49 24  1  0
 51 49  1  0
 52 53  1  0
 53 54  1  0
 54 55  1  0
 55 56  1  0
 57 59  1  0
 57 56  1  0
 58 69  2  0
 59 64  1  0
 60 68  1  0
 60 70  1  0
 61 67  1  0
 61 63  1  0
 62 68  1  0
 63 64  2  0
 63 62  1  0
 65 66  1  0
 65 59  2  0
 66 61  2  0
 67 60  1  0
 68 58  1  0
 70 72  2  0
 71 70  1  0
 73 71  1  0
 74 83  2  0
 74 79  1  0
 75 71  1  0
 75 79  1  0
 76 75  1  0
 77 78  1  0
 77 76  1  0
 78 74  1  0
 79 80  2  0
 80 81  1  0
 82 81  2  0
 83 82  1  0
 84 58  1  0
 84 89  1  0
 84 85  1  0
 85 88  1  1
 85 86  1  0
 87 85  1  0
 89 92  1  0
 90 94  1  0
 90 89  1  0
 91 90  2  0
 94 93  1  0
 96 94  1  0
 96 97  1  0
 96 95  1  0
M  ISO  4  14 100  22 100  56 101  57 101
M  END
>  <TORSDO>  (55) 
F 23

>  <SCORE>  (55) 
-13.144

>  <name>  (55) 
55

>  <ligand_id>  (55) 
55

>  <original_smiles>  (55) 
[H]c1c([H])c([H])c2c(c1[H])C([H])([H])C([H])([H])C([H])([H])C2([H])N([H])C(=O)C1([H])N(C(=O)C([H])(N([H])C(=O)C([H])(N([H])C([H])([H])[H])C([H])([H])[H])C(C([H])([H])[H])(C([H])([H])[H])C([H])([H])[H])C([H])([H])c2c([H])c(OC([H])([H])C([H])([H])C([H])([H])C([H])([H])C([H])([H])[N+]3([H])C([H])([H])C([H])([H])C([H])(C([H])([H])N([H])C(=O)N4C([H])([H])C([H])([H])C([H])([H])C([H])(n5nc(-c6c([H])c([H])c(Oc7c([H])c([H])c(F)c([H])c7F)c([H])c6[H])c(C(=O)N([H])[H])c5N([H])[H])C4([H])[H])C([H])([N+]([H])([H])[H])C([H])([H])C3([H])[H])c([H])c([H])c2C1([H])[H]

>  <smiles>  (55) 
[H]c1c([H])c([H])c2c(c1[H])C([H])([H])C([H])([H])C([H])([H])C2([H])N([H])C(=O)C1([H])N(C(=O)C([H])(N([H])C(=O)C([H])(N([H])C([H])([H])[H])C([H])([H])[H])C(C([H])([H])[H])(C([H])([H])[H])C([H])([H])[H])C([H])([H])c2c([H])c(OC([H])([H])C([H])([H])C([H])([H])C([H])([H])C([H])([H])[N+]3([H])C([H])([H])C([H])([H])C([H])(C([H])([H])N([H])C(=O)N4C([H])([H])C([H])([H])C([H])([H])C([H])(n5nc(-c6c([H])c([H])c(Oc7c([H])c([H])c(F)c([H])c7F)c([H])c6[H])c(C(=O)N([H])[H])c5N([H])[H])C4([H])[H])C([H])([N+]([H])([H])[H])C([H])([H])C3([H])[H])c([H])c([H])c2C1([H])[H]

$$$$
56:0:0
     RDKit          3D

 94102  0  0  1  0  0  0  0  0999 V2000
  -28.6320  -21.2290   21.5160 C   0  0  0  0  0  3  0  0  0  0  0  0
  -28.2940  -22.6200   21.3330 C   0  0  0  0  0  3  0  0  0  0  0  0
  -29.7250  -21.1810   19.4240 C   0  0  0  0  0  3  0  0  0  0  0  0
  -29.3550  -20.4160   20.5790 C   0  0  0  0  0  0  0  0  0  0  0  0
  -28.6250  -23.3760   20.1710 C   0  0  0  0  0  0  0  0  0  0  0  0
  -29.3650  -22.5800   19.2230 C   0  0  0  0  0  0  0  0  0  0  0  0
  -29.7030  -23.1490   18.0420 F   0  0  0  0  0  0  0  0  0  0  0  0
  -27.8780  -24.7840   19.8110 C   0  0  0  0  0  2  0  0  0  0  0  0
  -28.2000  -26.2350   20.2150 O   0  0  0  0  0  0  0  0  0  0  0  0
  -24.6010  -31.9060   23.1720 C   0  0  0  0  0  0  0  0  0  0  0  0
  -27.1610  -27.2260   20.1140 C   0  0  0  0  0  0  0  0  0  0  0  0
  -23.3890  -30.5100   21.5440 C   0  0  0  0  0  3  0  0  0  0  0  0
  -24.8290  -28.9530   20.1020 C   0  0  0  0  0  0  0  0  0  0  0  0
  -25.9410  -30.7850   21.3620 C   0  0  0  0  0  2  0  0  0  0  0  0
  -26.0100  -29.3980   20.7100 C   0  0  0  0  0  0  0  0  0  0  0  0
  -27.1750  -28.5480   20.7090 C   0  0  0  0  0  3  0  0  0  0  0  0
  -25.9600  -26.8980   19.4390 C   0  0  0  0  0  3  0  0  0  0  0  0
  -24.8150  -27.7140   19.4530 C   0  0  0  0  0  3  0  0  0  0  0  0
  -23.5990  -29.8410   20.1620 C   0  0  0  0  0  2  0  0  0  0  0  0
  -24.6640  -31.0880   22.0810 N   0  0  0  0  0  0  0  0  0  0  0  0
  -23.5200  -32.1900   23.7090 O   0  0  0  0  0  0  0  0  0  0  0  0
  -22.7230  -29.4960   22.5080 C   0  0  0  0  0  0  0  0  0  0  0  0
  -21.4010  -29.2950   22.3680 N   0  0  0  0  0  0  0  0  0  0  0  0
  -23.3980  -28.8960   23.3490 O   0  0  0  0  0  0  0  0  0  0  0  0
  -20.9130  -29.8320   21.6640 H   0  0  0  0  0  0  0  0  0  0  0  0
  -18.0430  -28.0200   22.8280 C   0  0  0  0  0  0  0  0  0  0  0  0
  -20.5890  -28.3550   23.1420 C   0  0  0  0  0  3  0  0  0  0  0  0
  -20.7390  -26.9130   22.6030 C   0  0  0  0  0  2  0  0  0  0  0  0
  -19.6670  -26.5380   21.5740 C   0  0  0  0  0  2  0  0  0  0  0  0
  -18.2690  -26.6610   22.1860 C   0  0  0  0  0  2  0  0  0  0  0  0
  -19.1320  -28.8210   23.2620 C   0  0  0  0  0  0  0  0  0  0  0  0
  -18.8670  -30.0890   23.8230 C   0  0  0  0  0  3  0  0  0  0  0  0
  -17.5450  -30.5570   23.9530 C   0  0  0  0  0  3  0  0  0  0  0  0
  -16.4700  -29.7540   23.5340 C   0  0  0  0  0  3  0  0  0  0  0  0
  -16.7210  -28.4870   22.9770 C   0  0  0  0  0  3  0  0  0  0  0  0
  -25.8850  -32.5430   23.7870 C   0  0  0  0  0  3  0  0  0  0  0  0
  -25.5700  -33.9380   24.1330 N   0  0  0  0  0  0  0  0  0  0  0  0
  -25.8980  -35.0020   23.3900 C   0  0  0  0  0  0  0  0  0  0  0  0
  -26.5670  -34.9150   22.3570 O   0  0  0  0  0  0  0  0  0  0  0  0
  -24.9760  -34.0800   24.9370 H   0  0  0  0  0  0  0  0  0  0  0  0
  -24.1820  -36.8110   23.0480 C   0  0  0  0  0  1  0  0  0  0  0  0
  -25.4090  -36.3840   23.8680 C   0  0  0  0  0  3  0  0  0  0  0  0
  -27.5320  -37.2480   24.7510 C   0  0  0  0  0  1  0  0  0  0  0  0
  -26.4480  -37.4360   23.7900 N   0  0  0  0  0  0  0  0  0  0  0  0
  -26.0430  -38.3550   23.9450 H   0  0  0  0  0  0  0  0  0  0  0  0
  -26.4150  -31.7670   25.0550 C   0  0  1  0  0  0  0  0  0  0  0  0
  -25.3300  -31.5100   26.1260 C   0  0  0  0  0  1  0  0  0  0  0  0
  -27.0110  -30.3980   24.6530 C   0  0  0  0  0  1  0  0  0  0  0  0
  -27.5620  -32.5680   25.7160 C   0  0  0  0  0  1  0  0  0  0  0  0
  -29.6790  -18.8450   20.9500 C   0  0  0  0  0  3  0  0  0  0  0  0
  -30.0330  -17.6050   19.8990 C   0  0  0  0  0  2  0  0  0  0  0  0
  -30.6320  -14.9390   19.9920 C   0  0  0  0  0  0  0  0  0  0  0  0
  -30.4340  -12.6240   19.0190 C   0  0  0  0  0  2  0  0  0  0  0  0
  -29.4480  -12.6460   17.8280 C   0  0  0  0  0  2  0  0  0  0  0  0
  -27.9990  -12.4540   18.3170 C   0  0  0  0  0  2  0  0  0  0  0  0
  -27.6610  -13.3540   19.5340 C   0  0  0  0  0  3  0  0  0  0  0  0
  -28.7630  -13.3080   20.6150 C   0  0  0  0  0  2  0  0  0  0  0  0
  -30.0250  -13.6930   19.9700 N   0  0  0  0  0  0  0  0  0  0  0  0
  -31.7930  -15.0380   19.5850 O   0  0  0  0  0  0  0  0  0  0  0  0
  -29.8730  -16.0900   20.2860 N   0  0  0  0  0  0  0  0  0  0  0  0
  -28.9400  -15.8520   20.5900 H   0  0  0  0  0  0  0  0  0  0  0  0
  -25.3130  -13.9360   20.3780 C   0  0  0  0  0  0  0  0  0  0  0  0
  -24.2610  -13.1600   20.7850 C   0  0  0  0  0  0  0  0  0  0  0  0
  -24.7180  -11.8080   20.7140 C   0  0  0  0  0  0  0  0  0  0  0  0
  -26.3410  -13.0570   20.0810 N   0  0  0  0  0  0  0  0  0  0  0  0
  -25.9940  -11.7710   20.3470 N   0  0  0  0  0  0  0  0  0  0  0  0
  -23.9940  -10.5460   20.9180 C   0  0  0  0  0  0  0  0  0  0  0  0
  -24.4190   -9.5960   21.8720 C   0  0  0  0  0  3  0  0  0  0  0  0
  -23.6950   -8.3990   22.0650 C   0  0  0  0  0  3  0  0  0  0  0  0
  -22.5290   -8.1440   21.3030 C   0  0  0  0  0  0  0  0  0  0  0  0
  -22.1230   -9.0830   20.3380 C   0  0  0  0  0  3  0  0  0  0  0  0
  -22.8480  -10.2710   20.1450 C   0  0  0  0  0  3  0  0  0  0  0  0
  -21.7780   -6.9990   21.4040 O   0  0  0  0  0  0  0  0  0  0  0  0
  -21.6690   -6.3110   22.5850 C   0  0  0  0  0  0  0  0  0  0  0  0
  -21.1470   -6.9090   23.7520 C   0  0  0  0  0  3  0  0  0  0  0  0
  -20.9900   -6.1460   24.9250 C   0  0  0  0  0  3  0  0  0  0  0  0
  -21.3440   -4.7830   24.9310 C   0  0  0  0  0  0  0  0  0  0  0  0
  -21.8590   -4.1830   23.7690 C   0  0  0  0  0  3  0  0  0  0  0  0
  -22.0180   -4.9450   22.5980 C   0  0  0  0  0  0  0  0  0  0  0  0
  -22.4950   -4.3570   21.4750 F   0  0  0  0  0  0  0  0  0  0  0  0
  -21.1850   -4.0470   26.0560 F   0  0  0  0  0  0  0  0  0  0  0  0
  -22.8790  -13.6390   21.1220 C   0  0  0  0  0  0  0  0  0  0  0  0
  -22.1840  -12.9330   22.0070 N   0  0  0  0  0  0  0  0  0  0  0  0
  -22.4270  -14.6730   20.6340 O   0  0  0  0  0  0  0  0  0  0  0  0
  -22.5650  -12.0940   22.4220 H   0  0  0  0  0  0  0  0  0  0  0  0
  -21.2580  -13.2350   22.2750 H   0  0  0  0  0  0  0  0  0  0  0  0
  -25.4740  -15.3080   20.2100 N   0  0  0  0  0  0  0  0  0  0  0  0
  -24.7090  -15.9580   20.3560 H   0  0  0  0  0  0  0  0  0  0  0  0
  -26.2850  -15.7440   19.7910 H   0  0  0  0  0  0  0  0  0  0  0  0
  -30.7560  -18.8690   22.0690 C   0  0  0  0  0  2  0  0  0  0  0  0
  -30.9180  -17.5860   22.7750 N   0  0  0  0  0  4  0  0  0  0  0  0
  -31.1550  -16.8560   22.1280 H   0  0  0  0  0  0  0  0  0  0  0  0
  -30.0740  -17.3390   23.2600 H   0  0  0  0  0  0  0  0  0  0  0  0
  -31.6540  -17.6620   23.4550 H   0  0  0  0  0  0  0  0  0  0  0  0
  2  1  1  0
  3  4  1  0
  4 50  1  0
  4  1  2  0
  5  2  2  0
  6  3  2  0
  6  5  1  0
  7  6  1  0
  8  5  1  0
  8  9  1  0
 10 21  2  0
 11  9  1  0
 11 16  1  0
 12 20  1  0
 12 22  1  0
 13 19  1  0
 13 15  1  0
 14 20  1  0
 15 14  1  0
 16 15  2  0
 17 18  1  0
 17 11  2  0
 18 13  2  0
 19 12  1  0
 20 10  1  0
 22 24  2  0
 23 22  1  0
 25 23  1  0
 26 35  2  0
 26 31  1  0
 27 23  1  0
 27 31  1  0
 28 27  1  0
 29 30  1  0
 29 28  1  0
 30 26  1  0
 31 32  2  0
 32 33  1  0
 34 33  2  0
 35 34  1  0
 36 10  1  0
 36 37  1  0
 36 46  1  0
 37 40  1  0
 38 42  1  0
 38 37  1  0
 39 38  2  0
 42 41  1  0
 44 42  1  0
 44 45  1  0
 44 43  1  0
 46 49  1  1
 46 47  1  0
 48 46  1  0
 50 51  1  0
 50 90  1  0
 51 60  1  0
 52 60  1  0
 53 58  1  0
 54 55  1  0
 54 53  1  0
 56 55  1  0
 56 65  1  0
 56 57  1  0
 58 52  1  0
 58 57  1  0
 59 52  2  0
 60 61  1  0
 62 63  2  0
 63 82  1  0
 64 63  1  0
 64 67  1  0
 65 66  1  0
 65 62  1  0
 66 64  2  0
 67 68  1  0
 68 69  2  0
 70 73  1  0
 70 69  1  0
 71 70  2  0
 72 71  1  0
 72 67  2  0
 73 74  1  0
 74 79  2  0
 74 75  1  0
 75 76  2  0
 76 77  1  0
 77 81  1  0
 78 77  2  0
 79 78  1  0
 80 79  1  0
 82 83  1  0
 83 86  1  0
 83 85  1  0
 84 82  2  0
 87 88  1  0
 87 62  1  0
 89 87  1  0
 90 91  1  0
 91 93  1  0
 91 94  1  0
 92 91  1  0
M  ISO  4   8 101   9 101  52 100  60 100
M  END
>  <TORSDO>  (56) 
F 21

>  <SCORE>  (56) 
-13.522

>  <name>  (56) 
56

>  <ligand_id>  (56) 
56

>  <original_smiles>  (56) 
[H]c1c([H])c([H])c2c(c1[H])C([H])([H])C([H])([H])C([H])([H])C2([H])N([H])C(=O)C1([H])N(C(=O)C([H])(N([H])C(=O)C([H])(N([H])C([H])([H])[H])C([H])([H])[H])C(C([H])([H])[H])(C([H])([H])[H])C([H])([H])[H])C([H])([H])c2c([H])c(OC([H])([H])c3c([H])c([H])c(C([H])(C([H])([H])N([H])C(=O)N4C([H])([H])C([H])([H])C([H])([H])C([H])(n5nc(-c6c([H])c([H])c(Oc7c([H])c([H])c(F)c([H])c7F)c([H])c6[H])c(C(=O)N([H])[H])c5N([H])[H])C4([H])[H])C([H])([H])[N+]([H])([H])[H])c([H])c3F)c([H])c([H])c2C1([H])[H]

>  <smiles>  (56) 
[H]c1c([H])c([H])c2c(c1[H])C([H])([H])C([H])([H])C([H])([H])C2([H])N([H])C(=O)C1([H])N(C(=O)C([H])(N([H])C(=O)C([H])(N([H])C([H])([H])[H])C([H])([H])[H])C(C([H])([H])[H])(C([H])([H])[H])C([H])([H])[H])C([H])([H])c2c([H])c(OC([H])([H])c3c([H])c([H])c(C([H])(C([H])([H])N([H])C(=O)N4C([H])([H])C([H])([H])C([H])([H])C([H])(n5nc(-c6c([H])c([H])c(Oc7c([H])c([H])c(F)c([H])c7F)c([H])c6[H])c(C(=O)N([H])[H])c5N([H])[H])C4([H])[H])C([H])([H])[N+]([H])([H])[H])c([H])c3F)c([H])c([H])c2C1([H])[H]

$$$$
57:0:0
     RDKit          3D

 97105  0  0  1  0  0  0  0  0999 V2000
  -31.3670  -21.5440   22.4100 C   0  0  0  0  0  2  0  0  0  0  0  0
  -30.9020  -22.9200   22.6700 N   0  0  0  0  0  4  0  0  0  0  0  0
  -31.4620  -23.3100   23.4120 H   0  0  0  0  0  0  0  0  0  0  0  0
  -29.9530  -22.8800   23.0010 H   0  0  0  0  0  0  0  0  0  0  0  0
  -31.0000  -23.8190   21.4990 C   0  0  0  0  0  2  0  0  0  0  0  0
  -30.0750  -25.0380   21.6200 C   0  0  0  0  0  2  0  0  0  0  0  0
  -30.3340  -26.0900   20.5270 C   0  0  0  0  0  2  0  0  0  0  0  0
  -29.2930  -27.2090   20.5600 C   0  0  0  0  0  2  0  0  0  0  0  0
  -28.0830  -26.7080   20.0000 O   0  0  0  0  0  0  0  0  0  0  0  0
  -24.4440  -31.9350   23.2170 C   0  0  0  0  0  0  0  0  0  0  0  0
  -26.9580  -27.4980   20.0730 C   0  0  0  0  0  0  0  0  0  0  0  0
  -23.1690  -30.5550   21.6000 C   0  0  0  0  0  3  0  0  0  0  0  0
  -24.5630  -28.9970   20.1420 C   0  0  0  0  0  0  0  0  0  0  0  0
  -25.6850  -30.8910   21.3320 C   0  0  0  0  0  2  0  0  0  0  0  0
  -25.7350  -29.5200   20.6980 C   0  0  0  0  0  0  0  0  0  0  0  0
  -26.9310  -28.7820   20.6650 C   0  0  0  0  0  3  0  0  0  0  0  0
  -25.7700  -26.9800   19.5160 C   0  0  0  0  0  3  0  0  0  0  0  0
  -24.5730  -27.7210   19.5470 C   0  0  0  0  0  3  0  0  0  0  0  0
  -23.3280  -29.8640   20.2170 C   0  0  0  0  0  2  0  0  0  0  0  0
  -24.4520  -31.1410   22.1100 N   0  0  0  0  0  0  0  0  0  0  0  0
  -23.3830  -32.2250   23.7870 O   0  0  0  0  0  0  0  0  0  0  0  0
  -22.5280  -29.5470   22.5780 C   0  0  0  0  0  0  0  0  0  0  0  0
  -21.2050  -29.3560   22.4500 N   0  0  0  0  0  0  0  0  0  0  0  0
  -23.2160  -28.9360   23.4000 O   0  0  0  0  0  0  0  0  0  0  0  0
  -20.7130  -29.8970   21.7530 H   0  0  0  0  0  0  0  0  0  0  0  0
  -17.8390  -28.1530   22.9450 C   0  0  0  0  0  0  0  0  0  0  0  0
  -20.3920  -28.4260   23.2300 C   0  0  0  0  0  3  0  0  0  0  0  0
  -20.5060  -26.9870   22.6740 C   0  0  0  0  0  2  0  0  0  0  0  0
  -19.4120  -26.6450   21.6590 C   0  0  0  0  0  2  0  0  0  0  0  0
  -18.0260  -26.7930   22.2920 C   0  0  0  0  0  2  0  0  0  0  0  0
  -18.9510  -28.9260   23.3700 C   0  0  0  0  0  0  0  0  0  0  0  0
  -18.7240  -30.2000   23.9370 C   0  0  0  0  0  3  0  0  0  0  0  0
  -17.4160  -30.6990   24.0850 C   0  0  0  0  0  3  0  0  0  0  0  0
  -16.3180  -29.9210   23.6800 C   0  0  0  0  0  3  0  0  0  0  0  0
  -16.5300  -28.6500   23.1160 C   0  0  0  0  0  3  0  0  0  0  0  0
  -25.7600  -32.5370   23.8050 C   0  0  0  0  0  3  0  0  0  0  0  0
  -25.4980  -33.9470   24.1210 N   0  0  0  0  0  0  0  0  0  0  0  0
  -25.8710  -34.9800   23.3520 C   0  0  0  0  0  0  0  0  0  0  0  0
  -26.5450  -34.8430   22.3270 O   0  0  0  0  0  0  0  0  0  0  0  0
  -24.9070  -34.1310   24.9180 H   0  0  0  0  0  0  0  0  0  0  0  0
  -24.2390  -36.8440   22.9260 C   0  0  0  0  0  1  0  0  0  0  0  0
  -25.4250  -36.3870   23.7900 C   0  0  0  0  0  3  0  0  0  0  0  0
  -27.5520  -37.1850   24.7210 C   0  0  0  0  0  1  0  0  0  0  0  0
  -26.5070  -37.3940   23.7230 N   0  0  0  0  0  0  0  0  0  0  0  0
  -26.1340  -38.3310   23.8480 H   0  0  0  0  0  0  0  0  0  0  0  0
  -26.2830  -31.7660   25.0790 C   0  0  1  0  0  0  0  0  0  0  0  0
  -25.2050  -31.5600   26.1670 C   0  0  0  0  0  1  0  0  0  0  0  0
  -26.8320  -30.3740   24.6850 C   0  0  0  0  0  1  0  0  0  0  0  0
  -27.4600  -32.5420   25.7170 C   0  0  0  0  0  1  0  0  0  0  0  0
  -30.3300  -20.7470   21.5940 C   0  0  0  0  0  2  0  0  0  0  0  0
  -30.9380  -19.5780   20.8010 C   0  0  0  0  0  2  0  0  0  0  0  0
  -30.6500  -14.6010   20.0040 C   0  0  0  0  0  0  0  0  0  0  0  0
  -30.3450  -12.4140   18.9370 C   0  0  0  0  0  2  0  0  0  0  0  0
  -29.3320  -12.5820   17.7850 C   0  0  0  0  0  2  0  0  0  0  0  0
  -27.8840  -12.4430   18.2980 C   0  0  0  0  0  2  0  0  0  0  0  0
  -27.6040  -13.2930   19.5680 C   0  0  0  0  0  3  0  0  0  0  0  0
  -28.7250  -13.1000   20.6140 C   0  0  0  0  0  2  0  0  0  0  0  0
  -30.0080  -13.4070   19.9630 N   0  0  0  0  0  0  0  0  0  0  0  0
  -31.7860  -14.7780   19.5500 O   0  0  0  0  0  0  0  0  0  0  0  0
  -29.1470  -17.8010   21.2650 C   0  0  0  0  0  2  0  0  0  0  0  0
  -29.7000  -16.3650   21.3990 C   0  0  0  0  0  2  0  0  0  0  0  0
  -29.6280  -16.4850   18.9030 C   0  0  0  0  0  2  0  0  0  0  0  0
  -29.8570  -18.6620   20.1870 C   0  0  0  0  0  3  0  0  0  0  0  0
  -30.4150  -17.8020   19.0210 C   0  0  0  0  0  3  0  0  0  0  0  0
  -29.8160  -15.6590   20.1110 N   0  0  0  0  0  0  0  0  0  0  0  0
  -25.2620  -13.8830   20.4640 C   0  0  0  0  0  0  0  0  0  0  0  0
  -24.2170  -13.0980   20.8760 C   0  0  0  0  0  0  0  0  0  0  0  0
  -24.6700  -11.7480   20.7630 C   0  0  0  0  0  0  0  0  0  0  0  0
  -26.2850  -13.0080   20.1290 N   0  0  0  0  0  0  0  0  0  0  0  0
  -25.9360  -11.7180   20.3660 N   0  0  0  0  0  0  0  0  0  0  0  0
  -23.9570  -10.4790   20.9500 C   0  0  0  0  0  0  0  0  0  0  0  0
  -24.4060   -9.5100   21.8730 C   0  0  0  0  0  3  0  0  0  0  0  0
  -23.6950   -8.3040   22.0490 C   0  0  0  0  0  3  0  0  0  0  0  0
  -22.5170   -8.0610   21.3040 C   0  0  0  0  0  0  0  0  0  0  0  0
  -22.0870   -9.0190   20.3700 C   0  0  0  0  0  3  0  0  0  0  0  0
  -22.7990  -10.2160   20.1900 C   0  0  0  0  0  3  0  0  0  0  0  0
  -21.7710   -6.9100   21.3920 O   0  0  0  0  0  0  0  0  0  0  0  0
  -21.6670   -6.2090   22.5680 C   0  0  0  0  0  0  0  0  0  0  0  0
  -21.1050   -6.7800   23.7290 C   0  0  0  0  0  3  0  0  0  0  0  0
  -20.9530   -6.0010   24.8940 C   0  0  0  0  0  3  0  0  0  0  0  0
  -21.3540   -4.6530   24.8970 C   0  0  0  0  0  0  0  0  0  0  0  0
  -21.9090   -4.0800   23.7390 C   0  0  0  0  0  3  0  0  0  0  0  0
  -22.0630   -4.8560   22.5770 C   0  0  0  0  0  0  0  0  0  0  0  0
  -22.5790   -4.2940   21.4570 F   0  0  0  0  0  0  0  0  0  0  0  0
  -21.2040   -3.9020   26.0140 F   0  0  0  0  0  0  0  0  0  0  0  0
  -22.8410  -13.5640   21.2600 C   0  0  0  0  0  0  0  0  0  0  0  0
  -22.1830  -12.8550   22.1700 N   0  0  0  0  0  0  0  0  0  0  0  0
  -22.3580  -14.5900   20.7840 O   0  0  0  0  0  0  0  0  0  0  0  0
  -22.5840  -12.0220   22.5770 H   0  0  0  0  0  0  0  0  0  0  0  0
  -21.2620  -13.1500   22.4630 H   0  0  0  0  0  0  0  0  0  0  0  0
  -25.4250  -15.2590   20.3290 N   0  0  0  0  0  0  0  0  0  0  0  0
  -24.6880  -15.9230   20.5390 H   0  0  0  0  0  0  0  0  0  0  0  0
  -26.2770  -15.7020   20.0080 H   0  0  0  0  0  0  0  0  0  0  0  0
  -30.4040  -18.5530   17.7510 N   0  0  0  0  0  4  0  0  0  0  0  0
  -29.4670  -18.7690   17.4560 H   0  0  0  0  0  0  0  0  0  0  0  0
  -30.8470  -18.0190   17.0230 H   0  0  0  0  0  0  0  0  0  0  0  0
  -30.9120  -19.4140   17.8430 H   0  0  0  0  0  0  0  0  0  0  0  0
  1  2  1  0
  2  4  1  0
  2  3  1  0
  5  6  1  0
  5  2  1  0
  7  8  1  0
  7  6  1  0
  9 11  1  0
  9  8  1  0
 10 21  2  0
 11 16  1  0
 12 20  1  0
 12 22  1  0
 13 19  1  0
 13 15  1  0
 14 20  1  0
 15 14  1  0
 16 15  2  0
 17 18  1  0
 17 11  2  0
 18 13  2  0
 19 12  1  0
 20 10  1  0
 22 24  2  0
 23 22  1  0
 25 23  1  0
 26 35  2  0
 26 31  1  0
 27 23  1  0
 27 31  1  0
 28 27  1  0
 29 30  1  0
 29 28  1  0
 30 26  1  0
 31 32  2  0
 32 33  1  0
 34 33  2  0
 35 34  1  0
 36 10  1  0
 36 37  1  0
 36 46  1  0
 37 40  1  0
 38 42  1  0
 38 37  1  0
 39 38  2  0
 42 41  1  0
 44 42  1  0
 44 45  1  0
 44 43  1  0
 46 49  1  1
 46 47  1  0
 48 46  1  0
 50  1  1  0
 51 50  1  0
 52 65  1  0
 53 58  1  0
 54 55  1  0
 54 53  1  0
 56 55  1  0
 56 69  1  0
 56 57  1  0
 58 52  1  0
 58 57  1  0
 59 52  2  0
 60 61  1  0
 62 64  1  0
 62 65  1  0
 63 51  1  0
 63 60  1  0
 64 94  1  0
 64 63  1  0
 65 61  1  0
 66 67  2  0
 67 86  1  0
 68 67  1  0
 68 71  1  0
 69 70  1  0
 69 66  1  0
 70 68  2  0
 71 72  1  0
 72 73  2  0
 74 77  1  0
 74 73  1  0
 75 74  2  0
 76 75  1  0
 76 71  2  0
 77 78  1  0
 78 83  2  0
 78 79  1  0
 79 80  2  0
 80 81  1  0
 81 85  1  0
 82 81  2  0
 83 82  1  0
 84 83  1  0
 86 87  1  0
 87 90  1  0
 87 89  1  0
 88 86  2  0
 91 66  1  0
 91 92  1  0
 93 91  1  0
 94 97  1  0
 95 94  1  0
 96 94  1  0
M  ISO  4   8 101   9 101  52 100  65 100
M  END
>  <TORSDO>  (57) 
F 24

>  <SCORE>  (57) 
-12.319

>  <name>  (57) 
57

>  <ligand_id>  (57) 
57

>  <original_smiles>  (57) 
[H]c1c([H])c([H])c2c(c1[H])C([H])([H])C([H])([H])C([H])([H])C2([H])N([H])C(=O)C1([H])N(C(=O)C([H])(N([H])C(=O)C([H])(N([H])C([H])([H])[H])C([H])([H])[H])C(C([H])([H])[H])(C([H])([H])[H])C([H])([H])[H])C([H])([H])c2c([H])c(OC([H])([H])C([H])([H])C([H])([H])C([H])([H])[N+]([H])([H])C([H])([H])C([H])([H])C([H])([H])C3([H])C([H])([H])C([H])([H])N(C(=O)N4C([H])([H])C([H])([H])C([H])([H])C([H])(n5nc(-c6c([H])c([H])c(Oc7c([H])c([H])c(F)c([H])c7F)c([H])c6[H])c(C(=O)N([H])[H])c5N([H])[H])C4([H])[H])C([H])([H])C3([H])[N+]([H])([H])[H])c([H])c([H])c2C1([H])[H]

>  <smiles>  (57) 
[H]c1c([H])c([H])c2c(c1[H])C([H])([H])C([H])([H])C([H])([H])C2([H])N([H])C(=O)C1([H])N(C(=O)C([H])(N([H])C(=O)C([H])(N([H])C([H])([H])[H])C([H])([H])[H])C(C([H])([H])[H])(C([H])([H])[H])C([H])([H])[H])C([H])([H])c2c([H])c(OC([H])([H])C([H])([H])C([H])([H])C([H])([H])[N+]([H])([H])C([H])([H])C([H])([H])C([H])([H])C3([H])C([H])([H])C([H])([H])N(C(=O)N4C([H])([H])C([H])([H])C([H])([H])C([H])(n5nc(-c6c([H])c([H])c(Oc7c([H])c([H])c(F)c([H])c7F)c([H])c6[H])c(C(=O)N([H])[H])c5N([H])[H])C4([H])[H])C([H])([H])C3([H])[N+]([H])([H])[H])c([H])c([H])c2C1([H])[H]

$$$$
58:0:0
     RDKit          3D

 95103  0  0  1  0  0  0  0  0999 V2000
  -28.6310  -19.7150   18.0880 N   0  0  0  0  0  4  0  0  0  0  0  0
  -27.8210  -19.1940   17.7910 H   0  0  0  0  0  0  0  0  0  0  0  0
  -29.0010  -20.1790   17.2750 H   0  0  0  0  0  0  0  0  0  0  0  0
  -30.5850  -16.5600   18.4150 C   0  0  0  0  0  2  0  0  0  0  0  0
  -29.2440  -17.9770   19.8280 C   0  0  0  0  0  2  0  0  0  0  0  0
  -30.3240  -16.9030   19.9040 C   0  0  0  0  0  3  0  0  0  0  0  0
  -30.1470  -17.7680   17.5690 C   0  0  0  0  0  3  0  0  0  0  0  0
  -29.6750  -18.8050   18.6020 C   0  0  0  0  0  3  0  0  0  0  0  0
  -30.7370  -14.6710   20.8280 C   0  0  0  0  0  0  0  0  0  0  0  0
  -30.5400  -12.4730   19.8040 C   0  0  0  0  0  2  0  0  0  0  0  0
  -29.6800  -12.6250   18.5340 C   0  0  0  0  0  2  0  0  0  0  0  0
  -28.1760  -12.5130   18.8650 C   0  0  0  0  0  2  0  0  0  0  0  0
  -27.7430  -13.3740   20.0830 C   0  0  0  0  0  3  0  0  0  0  0  0
  -28.7330  -13.2190   21.2630 C   0  0  0  0  0  2  0  0  0  0  0  0
  -30.0910  -13.4850   20.7650 N   0  0  0  0  0  0  0  0  0  0  0  0
  -31.9460  -14.8040   20.6260 O   0  0  0  0  0  0  0  0  0  0  0  0
  -29.9260  -15.7270   20.6870 N   0  0  0  0  0  0  0  0  0  0  0  0
  -28.9430  -15.5750   20.8540 H   0  0  0  0  0  0  0  0  0  0  0  0
  -25.2910  -13.9420   20.6370 C   0  0  0  0  0  0  0  0  0  0  0  0
  -24.2180  -13.1510   20.9480 C   0  0  0  0  0  0  0  0  0  0  0  0
  -24.7080  -11.8120   20.9660 C   0  0  0  0  0  0  0  0  0  0  0  0
  -26.3680  -13.0810   20.4870 N   0  0  0  0  0  0  0  0  0  0  0  0
  -26.0160  -11.7950   20.7450 N   0  0  0  0  0  0  0  0  0  0  0  0
  -24.0000  -10.5350   21.1230 C   0  0  0  0  0  0  0  0  0  0  0  0
  -24.3860   -9.5910   22.1010 C   0  0  0  0  0  3  0  0  0  0  0  0
  -23.6750   -8.3800   22.2450 C   0  0  0  0  0  3  0  0  0  0  0  0
  -22.5670   -8.1010   21.4100 C   0  0  0  0  0  0  0  0  0  0  0  0
  -22.2030   -9.0330   20.4230 C   0  0  0  0  0  3  0  0  0  0  0  0
  -22.9150  -10.2370   20.2760 C   0  0  0  0  0  3  0  0  0  0  0  0
  -21.8370   -6.9400   21.4600 O   0  0  0  0  0  0  0  0  0  0  0  0
  -21.7130   -6.2170   22.6210 C   0  0  0  0  0  0  0  0  0  0  0  0
  -21.1590   -6.7780   23.7920 C   0  0  0  0  0  3  0  0  0  0  0  0
  -20.9830   -5.9810   24.9410 C   0  0  0  0  0  3  0  0  0  0  0  0
  -21.3540   -4.6230   24.9190 C   0  0  0  0  0  0  0  0  0  0  0  0
  -21.9020   -4.0620   23.7530 C   0  0  0  0  0  3  0  0  0  0  0  0
  -22.0780   -4.8560   22.6060 C   0  0  0  0  0  0  0  0  0  0  0  0
  -22.5860   -4.3050   21.4770 F   0  0  0  0  0  0  0  0  0  0  0  0
  -21.1820   -3.8550   26.0210 F   0  0  0  0  0  0  0  0  0  0  0  0
  -22.7950  -13.6010   21.1180 C   0  0  0  0  0  0  0  0  0  0  0  0
  -22.0250  -12.8950   21.9390 N   0  0  0  0  0  0  0  0  0  0  0  0
  -22.3700  -14.6100   20.5580 O   0  0  0  0  0  0  0  0  0  0  0  0
  -22.3740  -12.0740   22.4110 H   0  0  0  0  0  0  0  0  0  0  0  0
  -21.0660  -13.1740   22.0900 H   0  0  0  0  0  0  0  0  0  0  0  0
  -25.4380  -15.3150   20.4520 N   0  0  0  0  0  0  0  0  0  0  0  0
  -24.6510  -15.9530   20.5060 H   0  0  0  0  0  0  0  0  0  0  0  0
  -26.2910  -15.7690   20.1580 H   0  0  0  0  0  0  0  0  0  0  0  0
  -31.2640  -18.2490   16.7620 N   0  0  0  0  0  0  0  0  0  0  0  0
  -32.0180  -18.5720   17.3620 H   0  0  0  0  0  0  0  0  0  0  0  0
  -31.0080  -19.0650   16.2150 H   0  0  0  0  0  0  0  0  0  0  0  0
  -28.2310  -20.7290   19.0800 C   0  0  0  0  0  2  0  0  0  0  0  0
  -28.1650  -22.1470   18.5000 C   0  0  0  0  0  2  0  0  0  0  0  0
  -28.0450  -23.1620   19.6420 C   0  0  0  0  0  2  0  0  0  0  0  0
  -28.2830  -24.6100   19.2150 C   0  0  0  0  0  2  0  0  0  0  0  0
  -28.1890  -25.5360   20.4360 C   0  0  0  0  0  2  0  0  0  0  0  0
  -28.2430  -26.9040   20.0650 O   0  0  0  0  0  0  0  0  0  0  0  0
  -24.4980  -32.0000   23.2560 C   0  0  0  0  0  0  0  0  0  0  0  0
  -27.0510  -27.5870   20.1050 C   0  0  0  0  0  0  0  0  0  0  0  0
  -23.2460  -30.6150   21.6340 C   0  0  0  0  0  3  0  0  0  0  0  0
  -24.6560  -29.0730   20.1790 C   0  0  0  0  0  0  0  0  0  0  0  0
  -25.7610  -30.9730   21.3690 C   0  0  0  0  0  2  0  0  0  0  0  0
  -25.8280  -29.6030   20.7330 C   0  0  0  0  0  0  0  0  0  0  0  0
  -27.0300  -28.8680   20.6910 C   0  0  0  0  0  3  0  0  0  0  0  0
  -25.8560  -27.0540   19.5680 C   0  0  0  0  0  3  0  0  0  0  0  0
  -24.6610  -27.7930   19.5990 C   0  0  0  0  0  3  0  0  0  0  0  0
  -23.4170  -29.9340   20.2500 C   0  0  0  0  0  2  0  0  0  0  0  0
  -24.5220  -31.2070   22.1470 N   0  0  0  0  0  0  0  0  0  0  0  0
  -23.4320  -32.2780   23.8210 O   0  0  0  0  0  0  0  0  0  0  0  0
  -22.6070  -29.5940   22.6040 C   0  0  0  0  0  0  0  0  0  0  0  0
  -21.2840  -29.4060   22.4820 N   0  0  0  0  0  0  0  0  0  0  0  0
  -23.2990  -28.9730   23.4150 O   0  0  0  0  0  0  0  0  0  0  0  0
  -20.7880  -29.9540   21.7930 H   0  0  0  0  0  0  0  0  0  0  0  0
  -17.9190  -28.1970   22.9770 C   0  0  0  0  0  0  0  0  0  0  0  0
  -20.4730  -28.4710   23.2590 C   0  0  0  0  0  3  0  0  0  0  0  0
  -20.5880  -27.0360   22.6960 C   0  0  0  0  0  2  0  0  0  0  0  0
  -19.4940  -26.6990   21.6780 C   0  0  0  0  0  2  0  0  0  0  0  0
  -18.1060  -26.8440   22.3110 C   0  0  0  0  0  2  0  0  0  0  0  0
  -19.0310  -28.9680   23.4070 C   0  0  0  0  0  0  0  0  0  0  0  0
  -18.8040  -30.2360   23.9850 C   0  0  0  0  0  3  0  0  0  0  0  0
  -17.4970  -30.7330   24.1390 C   0  0  0  0  0  3  0  0  0  0  0  0
  -16.3990  -29.9580   23.7290 C   0  0  0  0  0  3  0  0  0  0  0  0
  -16.6100  -28.6920   23.1550 C   0  0  0  0  0  3  0  0  0  0  0  0
  -25.8040  -32.6140   23.8520 C   0  0  0  0  0  3  0  0  0  0  0  0
  -25.5210  -34.0170   24.1810 N   0  0  0  0  0  0  0  0  0  0  0  0
  -25.8720  -35.0600   23.4190 C   0  0  0  0  0  0  0  0  0  0  0  0
  -26.5400  -34.9430   22.3880 O   0  0  0  0  0  0  0  0  0  0  0  0
  -24.9260  -34.1840   24.9800 H   0  0  0  0  0  0  0  0  0  0  0  0
  -24.1840  -36.8850   23.0450 C   0  0  0  0  0  1  0  0  0  0  0  0
  -25.4080  -36.4570   23.8730 C   0  0  0  0  0  3  0  0  0  0  0  0
  -27.5500  -37.2970   24.7280 C   0  0  0  0  0  1  0  0  0  0  0  0
  -26.4620  -37.4890   23.7730 N   0  0  0  0  0  0  0  0  0  0  0  0
  -26.0720  -38.4170   23.9180 H   0  0  0  0  0  0  0  0  0  0  0  0
  -26.3340  -31.8360   25.1170 C   0  0  1  0  0  0  0  0  0  0  0  0
  -25.2520  -31.5940   26.1960 C   0  0  0  0  0  1  0  0  0  0  0  0
  -26.9090  -30.4620   24.7030 C   0  0  0  0  0  1  0  0  0  0  0  0
  -27.4920  -32.6260   25.7730 C   0  0  0  0  0  1  0  0  0  0  0  0
  1 50  1  0
  2  1  1  0
  3  1  1  0
  4  6  1  0
  5  6  1  0
  6 17  1  0
  7 47  1  0
  7  4  1  0
  7  8  1  0
  8  1  1  0
  8  5  1  0
 10 15  1  0
 11 12  1  0
 11 10  1  0
 13 12  1  0
 13 22  1  0
 13 14  1  0
 15  9  1  0
 15 14  1  0
 16  9  2  0
 17  9  1  0
 17 18  1  0
 19 20  2  0
 20 21  1  0
 20 39  1  0
 21 24  1  0
 22 19  1  0
 22 23  1  0
 23 21  2  0
 24 25  1  0
 25 26  2  0
 27 30  1  0
 27 26  1  0
 28 27  2  0
 29 28  1  0
 29 24  2  0
 30 31  1  0
 31 32  1  0
 32 33  2  0
 34 33  1  0
 34 38  1  0
 35 34  2  0
 36 31  2  0
 36 35  1  0
 37 36  1  0
 39 40  1  0
 40 43  1  0
 40 42  1  0
 41 39  2  0
 44 45  1  0
 44 19  1  0
 46 44  1  0
 47 48  1  0
 49 47  1  0
 51 50  1  0
 51 52  1  0
 53 52  1  0
 53 54  1  0
 55 57  1  0
 55 54  1  0
 56 67  2  0
 57 62  1  0
 58 66  1  0
 58 68  1  0
 59 65  1  0
 59 61  1  0
 60 66  1  0
 61 60  1  0
 62 61  2  0
 63 64  1  0
 63 57  2  0
 64 59  2  0
 65 58  1  0
 66 56  1  0
 68 70  2  0
 69 68  1  0
 71 69  1  0
 72 81  2  0
 72 77  1  0
 73 69  1  0
 73 77  1  0
 74 73  1  0
 75 76  1  0
 75 74  1  0
 76 72  1  0
 77 78  2  0
 78 79  1  0
 80 79  2  0
 81 80  1  0
 82 56  1  0
 82 83  1  0
 82 92  1  0
 83 86  1  0
 84 88  1  0
 84 83  1  0
 85 84  2  0
 88 87  1  0
 90 88  1  0
 90 91  1  0
 90 89  1  0
 92 95  1  1
 92 93  1  0
 94 92  1  0
M  ISO  4   9 100  17 100  54 101  55 101
M  END
>  <TORSDO>  (58) 
F 23

>  <SCORE>  (58) 
-12.472

>  <name>  (58) 
58

>  <ligand_id>  (58) 
58

>  <original_smiles>  (58) 
[H]c1c([H])c([H])c2c(c1[H])C([H])([H])C([H])([H])C([H])([H])C2([H])N([H])C(=O)C1([H])N(C(=O)C([H])(N([H])C(=O)C([H])(N([H])C([H])([H])[H])C([H])([H])[H])C(C([H])([H])[H])(C([H])([H])[H])C([H])([H])[H])C([H])([H])c2c([H])c(OC([H])([H])C([H])([H])C([H])([H])C([H])([H])C([H])([H])[N+]([H])([H])C3([H])C([H])([H])C([H])(N([H])C(=O)N4C([H])([H])C([H])([H])C([H])([H])C([H])(n5nc(-c6c([H])c([H])c(Oc7c([H])c([H])c(F)c([H])c7F)c([H])c6[H])c(C(=O)N([H])[H])c5N([H])[H])C4([H])[H])C([H])([H])C3([H])N([H])[H])c([H])c([H])c2C1([H])[H]

>  <smiles>  (58) 
[H]c1c([H])c([H])c2c(c1[H])C([H])([H])C([H])([H])C([H])([H])C2([H])N([H])C(=O)C1([H])N(C(=O)C([H])(N([H])C(=O)C([H])(N([H])C([H])([H])[H])C([H])([H])[H])C(C([H])([H])[H])(C([H])([H])[H])C([H])([H])[H])C([H])([H])c2c([H])c(OC([H])([H])C([H])([H])C([H])([H])C([H])([H])C([H])([H])[N+]([H])([H])C3([H])C([H])([H])C([H])(N([H])C(=O)N4C([H])([H])C([H])([H])C([H])([H])C([H])(n5nc(-c6c([H])c([H])c(Oc7c([H])c([H])c(F)c([H])c7F)c([H])c6[H])c(C(=O)N([H])[H])c5N([H])[H])C4([H])[H])C([H])([H])C3([H])N([H])[H])c([H])c([H])c2C1([H])[H]

$$$$
59:0:0
     RDKit          3D

 93100  0  0  1  0  0  0  0  0999 V2000
  -28.7640  -22.2920   20.9630 N   0  0  0  0  0  4  0  0  0  0  0  0
  -29.5390  -22.6380   21.5030 H   0  0  0  0  0  0  0  0  0  0  0  0
  -27.9580  -22.2690   21.5680 H   0  0  0  0  0  0  0  0  0  0  0  0
  -29.0440  -20.8980   20.5630 C   0  0  0  0  0  2  0  0  0  0  0  0
  -30.0500  -20.2620   21.5480 C   0  0  0  0  0  2  0  0  0  0  0  0
  -29.6910  -18.8460   22.0260 C   0  0  0  0  0  2  0  0  0  0  0  0
  -31.1500  -17.1230   20.9490 C   0  0  0  0  0  0  0  0  0  0  0  0
  -29.9860  -17.7630   21.0980 N   0  0  0  0  0  0  0  0  0  0  0  0
  -32.2400  -17.5510   21.3340 O   0  0  0  0  0  0  0  0  0  0  0  0
  -29.1730  -17.2950   20.7070 H   0  0  0  0  0  0  0  0  0  0  0  0
  -31.0270  -15.7340   20.3520 C   0  0  0  0  0  2  0  0  0  0  0  0
  -32.5300  -13.9190   19.5430 C   0  0  0  0  0  0  0  0  0  0  0  0
  -31.9020  -11.6070   18.9070 C   0  0  0  0  0  2  0  0  0  0  0  0
  -30.8630  -11.5950   17.7640 C   0  0  0  0  0  2  0  0  0  0  0  0
  -29.4260  -11.7300   18.3100 C   0  0  0  0  0  2  0  0  0  0  0  0
  -29.2970  -12.9050   19.3090 C   0  0  0  0  0  3  0  0  0  0  0  0
  -30.4060  -12.7790   20.3770 C   0  0  0  0  0  2  0  0  0  0  0  0
  -31.7100  -12.8390   19.6920 N   0  0  0  0  0  0  0  0  0  0  0  0
  -33.5420  -13.8900   18.8390 O   0  0  0  0  0  0  0  0  0  0  0  0
  -32.2890  -14.9940   20.3110 N   0  0  0  0  0  0  0  0  0  0  0  0
  -33.0790  -15.6200   20.3990 H   0  0  0  0  0  0  0  0  0  0  0  0
  -27.2320  -14.0880   20.2990 C   0  0  0  0  0  0  0  0  0  0  0  0
  -26.0320  -13.6000   20.7410 C   0  0  0  0  0  0  0  0  0  0  0  0
  -26.0990  -12.1830   20.5830 C   0  0  0  0  0  0  0  0  0  0  0  0
  -27.9680  -12.9780   19.9100 N   0  0  0  0  0  0  0  0  0  0  0  0
  -27.2940  -11.8250   20.1310 N   0  0  0  0  0  0  0  0  0  0  0  0
  -25.0770  -11.1470   20.7720 C   0  0  0  0  0  0  0  0  0  0  0  0
  -25.2980  -10.0420   21.6230 C   0  0  0  0  0  3  0  0  0  0  0  0
  -24.2960   -9.0620   21.7960 C   0  0  0  0  0  3  0  0  0  0  0  0
  -23.0580   -9.1880   21.1210 C   0  0  0  0  0  0  0  0  0  0  0  0
  -22.8530  -10.2780   20.2590 C   0  0  0  0  0  3  0  0  0  0  0  0
  -23.8530  -11.2460   20.0800 C   0  0  0  0  0  3  0  0  0  0  0  0
  -22.0350   -8.2760   21.2130 O   0  0  0  0  0  0  0  0  0  0  0  0
  -21.8260   -7.5450   22.3530 C   0  0  0  0  0  0  0  0  0  0  0  0
  -21.5970   -8.1610   23.6030 C   0  0  0  0  0  3  0  0  0  0  0  0
  -21.3190   -7.3720   24.7370 C   0  0  0  0  0  3  0  0  0  0  0  0
  -21.2540   -5.9700   24.6210 C   0  0  0  0  0  0  0  0  0  0  0  0
  -21.4740   -5.3560   23.3750 C   0  0  0  0  0  3  0  0  0  0  0  0
  -21.7550   -6.1420   22.2450 C   0  0  0  0  0  0  0  0  0  0  0  0
  -21.9490   -5.5470   21.0420 F   0  0  0  0  0  0  0  0  0  0  0  0
  -20.9780   -5.2100   25.7060 F   0  0  0  0  0  0  0  0  0  0  0  0
  -24.8470  -14.4060   21.1900 C   0  0  0  0  0  0  0  0  0  0  0  0
  -24.0610  -13.8710   22.1170 N   0  0  0  0  0  0  0  0  0  0  0  0
  -24.6430  -15.5370   20.7510 O   0  0  0  0  0  0  0  0  0  0  0  0
  -24.2530  -12.9500   22.4900 H   0  0  0  0  0  0  0  0  0  0  0  0
  -23.2690  -14.3870   22.4700 H   0  0  0  0  0  0  0  0  0  0  0  0
  -27.7490  -15.3740   20.1700 N   0  0  0  0  0  0  0  0  0  0  0  0
  -27.0940  -16.1460   20.2340 H   0  0  0  0  0  0  0  0  0  0  0  0
  -28.4650  -15.5390   19.4740 H   0  0  0  0  0  0  0  0  0  0  0  0
  -28.4870  -23.2560   19.8750 C   0  0  0  0  0  2  0  0  0  0  0  0
  -28.3760  -24.6770   20.4570 C   0  0  0  0  0  2  0  0  0  0  0  0
  -28.6980  -25.8100   19.4710 C   0  0  0  0  0  2  0  0  0  0  0  0
  -28.5590  -27.0620   20.1400 O   0  0  0  0  0  0  0  0  0  0  0  0
  -24.6430  -31.9730   23.4550 C   0  0  0  0  0  0  0  0  0  0  0  0
  -27.3360  -27.7000   20.1840 C   0  0  0  0  0  0  0  0  0  0  0  0
  -23.4530  -30.6450   21.7410 C   0  0  0  0  0  3  0  0  0  0  0  0
  -24.9230  -29.1700   20.2690 C   0  0  0  0  0  0  0  0  0  0  0  0
  -25.9770  -31.0170   21.5830 C   0  0  0  0  0  2  0  0  0  0  0  0
  -26.0710  -29.6750   20.8890 C   0  0  0  0  0  0  0  0  0  0  0  0
  -27.2750  -28.9440   20.8490 C   0  0  0  0  0  3  0  0  0  0  0  0
  -26.1630  -27.1930   19.5720 C   0  0  0  0  0  3  0  0  0  0  0  0
  -24.9610  -27.9270   19.6130 C   0  0  0  0  0  3  0  0  0  0  0  0
  -23.6800  -30.0280   20.3340 C   0  0  0  0  0  2  0  0  0  0  0  0
  -24.7090  -31.2240   22.3190 N   0  0  0  0  0  0  0  0  0  0  0  0
  -23.5590  -32.2170   24.0010 O   0  0  0  0  0  0  0  0  0  0  0  0
  -22.7930  -29.5790   22.6470 C   0  0  0  0  0  0  0  0  0  0  0  0
  -21.4840  -29.3570   22.4460 N   0  0  0  0  0  0  0  0  0  0  0  0
  -23.4540  -28.9610   23.4850 O   0  0  0  0  0  0  0  0  0  0  0  0
  -21.0140  -29.9080   21.7430 H   0  0  0  0  0  0  0  0  0  0  0  0
  -18.1460  -27.9970   22.7010 C   0  0  0  0  0  0  0  0  0  0  0  0
  -20.6620  -28.3770   23.1550 C   0  0  0  0  0  3  0  0  0  0  0  0
  -20.8760  -26.9550   22.5850 C   0  0  0  0  0  2  0  0  0  0  0  0
  -19.8650  -26.5860   21.4940 C   0  0  0  0  0  2  0  0  0  0  0  0
  -18.4360  -26.6600   22.0400 C   0  0  0  0  0  2  0  0  0  0  0  0
  -19.1940  -28.8110   23.2130 C   0  0  0  0  0  0  0  0  0  0  0  0
  -18.8710  -30.0570   23.7900 C   0  0  0  0  0  3  0  0  0  0  0  0
  -17.5370  -30.4950   23.8630 C   0  0  0  0  0  3  0  0  0  0  0  0
  -16.5020  -29.6810   23.3690 C   0  0  0  0  0  3  0  0  0  0  0  0
  -16.8070  -28.4350   22.7930 C   0  0  0  0  0  3  0  0  0  0  0  0
  -25.9230  -32.5730   24.1180 C   0  0  0  0  0  3  0  0  0  0  0  0
  -25.6320  -33.9730   24.4560 N   0  0  0  0  0  0  0  0  0  0  0  0
  -25.9950  -35.0260   23.7100 C   0  0  0  0  0  0  0  0  0  0  0  0
  -26.6790  -34.9160   22.6900 O   0  0  0  0  0  0  0  0  0  0  0  0
  -25.0310  -34.1290   25.2520 H   0  0  0  0  0  0  0  0  0  0  0  0
  -24.2990  -36.8470   23.3330 C   0  0  0  0  0  1  0  0  0  0  0  0
  -25.5190  -36.4180   24.1660 C   0  0  0  0  0  3  0  0  0  0  0  0
  -27.6540  -37.2640   25.0380 C   0  0  0  0  0  1  0  0  0  0  0  0
  -26.5700  -37.4560   24.0790 N   0  0  0  0  0  0  0  0  0  0  0  0
  -26.1750  -38.3820   24.2300 H   0  0  0  0  0  0  0  0  0  0  0  0
  -26.3960  -31.7760   25.3960 C   0  0  1  0  0  0  0  0  0  0  0  0
  -25.2620  -31.5010   26.4090 C   0  0  0  0  0  1  0  0  0  0  0  0
  -27.0060  -30.4140   24.9910 C   0  0  0  0  0  1  0  0  0  0  0  0
  -27.5120  -32.5620   26.1230 C   0  0  0  0  0  1  0  0  0  0  0  0
  1  2  1  0
  1  3  1  0
  4  1  1  0
  4  5  1  0
  5  6  1  0
  7  8  1  0
  7  9  2  0
  8  6  1  0
 10  8  1  0
 11  7  1  0
 12 18  1  0
 12 20  1  0
 13 18  1  0
 14 15  1  0
 14 13  1  0
 16 15  1  0
 16 25  1  0
 16 17  1  0
 18 17  1  0
 19 12  2  0
 20 11  1  0
 20 21  1  0
 22 23  2  0
 23 42  1  0
 24 23  1  0
 24 27  1  0
 25 26  1  0
 25 22  1  0
 26 24  2  0
 27 28  1  0
 28 29  2  0
 30 33  1  0
 30 29  1  0
 31 30  2  0
 32 31  1  0
 32 27  2  0
 33 34  1  0
 34 35  1  0
 35 36  2  0
 37 36  1  0
 37 41  1  0
 38 37  2  0
 39 34  2  0
 39 38  1  0
 40 39  1  0
 42 43  1  0
 43 46  1  0
 43 45  1  0
 44 42  2  0
 47 48  1  0
 47 22  1  0
 49 47  1  0
 50 51  1  0
 50  1  1  0
 52 53  1  0
 52 51  1  0
 53 55  1  0
 54 65  2  0
 55 60  1  0
 56 64  1  0
 56 66  1  0
 57 63  1  0
 57 59  1  0
 58 64  1  0
 59 58  1  0
 60 59  2  0
 61 62  1  0
 61 55  2  0
 62 57  2  0
 63 56  1  0
 64 54  1  0
 66 68  2  0
 67 66  1  0
 69 67  1  0
 70 79  2  0
 70 75  1  0
 71 67  1  0
 71 75  1  0
 72 71  1  0
 73 74  1  0
 73 72  1  0
 74 70  1  0
 75 76  2  0
 76 77  1  0
 78 77  2  0
 79 78  1  0
 80 54  1  0
 80 81  1  0
 80 90  1  0
 81 84  1  0
 82 86  1  0
 82 81  1  0
 83 82  2  0
 86 85  1  0
 88 86  1  0
 88 89  1  0
 88 87  1  0
 90 93  1  1
 90 91  1  0
 92 90  1  0
M  ISO  4  12 100  20 100  52 101  53 101
M  END
>  <TORSDO>  (59) 
F 24

>  <SCORE>  (59) 
-9.959

>  <name>  (59) 
59

>  <ligand_id>  (59) 
59

>  <original_smiles>  (59) 
[H]c1c([H])c([H])c2c(c1[H])C([H])([H])C([H])([H])C([H])([H])C2([H])N([H])C(=O)C1([H])N(C(=O)C([H])(N([H])C(=O)C([H])(N([H])C([H])([H])[H])C([H])([H])[H])C(C([H])([H])[H])(C([H])([H])[H])C([H])([H])[H])C([H])([H])c2c([H])c(OC([H])([H])C([H])([H])C([H])([H])[N+]([H])([H])C([H])([H])C([H])([H])C([H])([H])N([H])C(=O)C([H])([H])N([H])C(=O)N3C([H])([H])C([H])([H])C([H])([H])C([H])(n4nc(-c5c([H])c([H])c(Oc6c([H])c([H])c(F)c([H])c6F)c([H])c5[H])c(C(=O)N([H])[H])c4N([H])[H])C3([H])[H])c([H])c([H])c2C1([H])[H]

>  <smiles>  (59) 
[H]c1c([H])c([H])c2c(c1[H])C([H])([H])C([H])([H])C([H])([H])C2([H])N([H])C(=O)C1([H])N(C(=O)C([H])(N([H])C(=O)C([H])(N([H])C([H])([H])[H])C([H])([H])[H])C(C([H])([H])[H])(C([H])([H])[H])C([H])([H])[H])C([H])([H])c2c([H])c(OC([H])([H])C([H])([H])C([H])([H])[N+]([H])([H])C([H])([H])C([H])([H])C([H])([H])N([H])C(=O)C([H])([H])N([H])C(=O)N3C([H])([H])C([H])([H])C([H])([H])C([H])(n4nc(-c5c([H])c([H])c(Oc6c([H])c([H])c(F)c([H])c6F)c([H])c5[H])c(C(=O)N([H])[H])c4N([H])[H])C3([H])[H])c([H])c([H])c2C1([H])[H]

$$$$
60:0:0
     RDKit          3D

 96104  0  0  1  0  0  0  0  0999 V2000
  -31.6540  -19.9210   21.3000 C   0  0  0  0  0  2  0  0  0  0  0  0
  -29.1800  -19.3380   21.2700 C   0  0  0  0  0  2  0  0  0  0  0  0
  -31.0980  -21.1320   20.5200 C   0  0  0  0  0  2  0  0  0  0  0  0
  -28.8450  -20.8250   21.5450 C   0  0  0  0  0  2  0  0  0  0  0  0
  -30.5670  -18.9410   21.8110 C   0  0  0  0  0  3  0  0  0  0  0  0
  -29.9470  -21.7790   21.2070 N   0  0  2  0  0  4  0  0  0  0  0  0
  -30.2910  -22.1050   22.1010 H   0  0  0  0  0  0  0  0  0  0  0  0
  -30.8840  -17.5240   21.4960 N   0  0  0  0  0  4  0  0  0  0  0  0
  -30.5110  -17.2760   20.5930 H   0  0  0  0  0  0  0  0  0  0  0  0
  -30.4260  -16.9380   22.1780 H   0  0  0  0  0  0  0  0  0  0  0  0
  -32.3190  -17.1590   21.5140 C   0  0  0  0  0  2  0  0  0  0  0  0
  -32.7040  -16.2840   20.3070 C   0  0  0  0  0  2  0  0  0  0  0  0
  -31.9130  -14.2290   19.1620 C   0  0  0  0  0  0  0  0  0  0  0  0
  -31.3950  -11.8900   18.5770 C   0  0  0  0  0  2  0  0  0  0  0  0
  -30.2730  -11.7560   17.5330 C   0  0  0  0  0  2  0  0  0  0  0  0
  -28.8930  -11.7610   18.2110 C   0  0  0  0  0  2  0  0  0  0  0  0
  -28.7230  -12.9430   19.1990 C   0  0  0  0  0  3  0  0  0  0  0  0
  -29.9300  -13.0370   20.1580 C   0  0  0  0  0  2  0  0  0  0  0  0
  -31.1700  -13.1130   19.3600 N   0  0  0  0  0  0  0  0  0  0  0  0
  -32.7230  -14.3630   18.2400 O   0  0  0  0  0  0  0  0  0  0  0  0
  -31.8190  -15.1290   20.1480 N   0  0  0  0  0  0  0  0  0  0  0  0
  -31.2300  -14.8580   20.9230 H   0  0  0  0  0  0  0  0  0  0  0  0
  -26.7250  -13.8450   20.5530 C   0  0  0  0  0  0  0  0  0  0  0  0
  -25.5910  -13.2370   21.0230 C   0  0  0  0  0  0  0  0  0  0  0  0
  -25.6930  -11.8640   20.6430 C   0  0  0  0  0  0  0  0  0  0  0  0
  -27.4600  -12.8480   19.9290 N   0  0  0  0  0  0  0  0  0  0  0  0
  -26.8500  -11.6390   20.0340 N   0  0  0  0  0  0  0  0  0  0  0  0
  -24.7310  -10.7610   20.7740 C   0  0  0  0  0  0  0  0  0  0  0  0
  -25.0120   -9.6270   21.5670 C   0  0  0  0  0  3  0  0  0  0  0  0
  -24.0640   -8.5880   21.6940 C   0  0  0  0  0  3  0  0  0  0  0  0
  -22.8200   -8.6780   21.0240 C   0  0  0  0  0  0  0  0  0  0  0  0
  -22.5550   -9.7990   20.2180 C   0  0  0  0  0  3  0  0  0  0  0  0
  -23.5010  -10.8300   20.0900 C   0  0  0  0  0  3  0  0  0  0  0  0
  -21.8500   -7.7060   21.0660 O   0  0  0  0  0  0  0  0  0  0  0  0
  -21.5630   -7.0250   22.2210 C   0  0  0  0  0  0  0  0  0  0  0  0
  -21.1180   -7.6870   23.3860 C   0  0  0  0  0  3  0  0  0  0  0  0
  -20.7680   -6.9420   24.5290 C   0  0  0  0  0  3  0  0  0  0  0  0
  -20.8540   -5.5370   24.5080 C   0  0  0  0  0  0  0  0  0  0  0  0
  -21.2900   -4.8760   23.3470 C   0  0  0  0  0  3  0  0  0  0  0  0
  -21.6410   -5.6170   22.2060 C   0  0  0  0  0  0  0  0  0  0  0  0
  -22.0420   -4.9740   21.0840 F   0  0  0  0  0  0  0  0  0  0  0  0
  -20.5090   -4.8200   25.6040 F   0  0  0  0  0  0  0  0  0  0  0  0
  -24.4330  -13.9070   21.7040 C   0  0  0  0  0  0  0  0  0  0  0  0
  -23.7590  -13.2020   22.6060 N   0  0  0  0  0  0  0  0  0  0  0  0
  -24.1480  -15.0820   21.4730 O   0  0  0  0  0  0  0  0  0  0  0  0
  -24.0050  -12.2440   22.8100 H   0  0  0  0  0  0  0  0  0  0  0  0
  -22.9850  -13.6250   23.0990 H   0  0  0  0  0  0  0  0  0  0  0  0
  -27.1810  -15.1590   20.5900 N   0  0  0  0  0  0  0  0  0  0  0  0
  -26.6180  -15.9080   20.9770 H   0  0  0  0  0  0  0  0  0  0  0  0
  -28.0100  -15.4890   20.1120 H   0  0  0  0  0  0  0  0  0  0  0  0
  -29.4580  -23.0010   20.5030 C   0  0  0  0  0  2  0  0  0  0  0  0
  -30.3050  -24.2600   20.7980 C   0  0  0  0  0  2  0  0  0  0  0  0
  -29.7840  -25.5280   20.0930 C   0  0  0  0  0  3  0  0  0  0  0  0
  -30.1100  -25.4300   18.8010 F   0  0  0  0  0  0  0  0  0  0  0  0
  -30.3940  -26.8210   20.6790 C   0  0  0  0  0  2  0  0  0  0  0  0
  -30.0070  -27.9940   19.9670 O   0  0  0  0  0  0  0  0  0  0  0  0
  -24.8030  -31.2680   23.5760 C   0  0  0  0  0  0  0  0  0  0  0  0
  -28.6860  -28.3420   20.0600 C   0  0  0  0  0  0  0  0  0  0  0  0
  -24.0960  -29.9200   21.6250 C   0  0  0  0  0  3  0  0  0  0  0  0
  -25.9750  -29.1060   20.1060 C   0  0  0  0  0  0  0  0  0  0  0  0
  -26.4250  -30.9700   21.7100 C   0  0  0  0  0  2  0  0  0  0  0  0
  -26.9130  -29.8060   20.8760 C   0  0  0  0  0  0  0  0  0  0  0  0
  -28.2720  -29.4270   20.8600 C   0  0  0  0  0  3  0  0  0  0  0  0
  -27.7370  -27.6460   19.2840 C   0  0  0  0  0  3  0  0  0  0  0  0
  -26.3800  -28.0180   19.3110 C   0  0  0  0  0  3  0  0  0  0  0  0
  -24.5400  -29.5800   20.1780 C   0  0  0  0  0  2  0  0  0  0  0  0
  -25.1200  -30.7270   22.3670 N   0  0  0  0  0  0  0  0  0  0  0  0
  -23.6670  -31.1420   24.0560 O   0  0  0  0  0  0  0  0  0  0  0  0
  -23.7170  -28.6050   22.3430 C   0  0  0  0  0  0  0  0  0  0  0  0
  -22.5200  -28.0800   22.0320 N   0  0  0  0  0  0  0  0  0  0  0  0
  -24.4980  -28.0670   23.1300 O   0  0  0  0  0  0  0  0  0  0  0  0
  -21.9350  -28.5870   21.3830 H   0  0  0  0  0  0  0  0  0  0  0  0
  -19.6440  -25.8990   21.9110 C   0  0  0  0  0  0  0  0  0  0  0  0
  -21.9670  -26.8310   22.5520 C   0  0  0  0  0  3  0  0  0  0  0  0
  -22.5510  -25.6100   21.8040 C   0  0  0  0  0  2  0  0  0  0  0  0
  -21.6910  -25.1600   20.6200 C   0  0  0  0  0  2  0  0  0  0  0  0
  -20.2790  -24.7920   21.0880 C   0  0  0  0  0  2  0  0  0  0  0  0
  -20.4360  -26.8660   22.5850 C   0  0  0  0  0  0  0  0  0  0  0  0
  -19.7940  -27.8960   23.3060 C   0  0  0  0  0  3  0  0  0  0  0  0
  -18.3900  -27.9660   23.3650 C   0  0  0  0  0  3  0  0  0  0  0  0
  -17.6100  -26.9970   22.7100 C   0  0  0  0  0  3  0  0  0  0  0  0
  -18.2370  -25.9650   21.9890 C   0  0  0  0  0  3  0  0  0  0  0  0
  -25.8390  -32.0910   24.4030 C   0  0  0  0  0  3  0  0  0  0  0  0
  -25.3240  -33.4610   24.5210 N   0  0  0  0  0  0  0  0  0  0  0  0
  -25.6940  -34.4810   23.7360 C   0  0  0  0  0  0  0  0  0  0  0  0
  -26.5690  -34.3790   22.8720 O   0  0  0  0  0  0  0  0  0  0  0  0
  -24.5660  -33.6070   25.1710 H   0  0  0  0  0  0  0  0  0  0  0  0
  -23.8700  -35.9900   22.8880 C   0  0  0  0  0  1  0  0  0  0  0  0
  -24.9770  -35.8280   23.9420 C   0  0  0  0  0  3  0  0  0  0  0  0
  -26.8130  -37.0480   25.0200 C   0  0  0  0  0  1  0  0  0  0  0  0
  -25.8880  -36.9920   23.8910 N   0  0  0  0  0  0  0  0  0  0  0  0
  -25.3630  -37.8620   23.8700 H   0  0  0  0  0  0  0  0  0  0  0  0
  -26.1240  -31.4780   25.8290 C   0  0  1  0  0  0  0  0  0  0  0  0
  -24.8430  -31.1900   26.6480 C   0  0  0  0  0  1  0  0  0  0  0  0
  -26.9150  -30.1550   25.7020 C   0  0  0  0  0  1  0  0  0  0  0  0
  -27.0080  -32.4460   26.6500 C   0  0  0  0  0  1  0  0  0  0  0  0
  1  5  1  0
  2  4  1  0
  2  5  1  0
  3  6  1  0
  3  1  1  0
  5  8  1  0
  6  4  1  0
  6  7  1  1
  8 11  1  0
  8 10  1  0
  9  8  1  0
 12 11  1  0
 13 19  1  0
 13 21  1  0
 14 19  1  0
 15 16  1  0
 15 14  1  0
 17 16  1  0
 17 26  1  0
 17 18  1  0
 19 18  1  0
 20 13  2  0
 21 12  1  0
 21 22  1  0
 23 48  1  0
 23 24  2  0
 24 43  1  0
 25 28  1  0
 25 24  1  0
 26 27  1  0
 26 23  1  0
 27 25  2  0
 28 29  1  0
 29 30  2  0
 31 34  1  0
 31 30  1  0
 32 31  2  0
 33 32  1  0
 33 28  2  0
 34 35  1  0
 35 36  1  0
 36 37  2  0
 38 37  1  0
 38 42  1  0
 39 38  2  0
 40 35  2  0
 40 39  1  0
 41 40  1  0
 43 44  1  0
 44 46  1  0
 44 47  1  0
 45 43  2  0
 48 49  1  0
 50 48  1  0
 51 52  1  0
 51  6  1  0
 53 54  1  0
 53 55  1  0
 53 52  1  0
 56 58  1  0
 56 55  1  0
 57 68  2  0
 58 63  1  0
 59 69  1  0
 59 67  1  0
 60 66  1  0
 60 62  1  0
 61 67  1  0
 62 61  1  0
 63 62  2  0
 64 65  1  0
 64 58  2  0
 65 60  2  0
 66 59  1  0
 67 57  1  0
 69 71  2  0
 70 69  1  0
 72 70  1  0
 73 82  2  0
 73 78  1  0
 74 70  1  0
 74 78  1  0
 75 74  1  0
 76 77  1  0
 76 75  1  0
 77 73  1  0
 78 79  2  0
 79 80  1  0
 81 80  2  0
 82 81  1  0
 83 57  1  0
 83 84  1  0
 83 93  1  0
 84 87  1  0
 85 89  1  0
 85 84  1  0
 86 85  2  0
 89 88  1  0
 91 89  1  0
 91 90  1  0
 92 91  1  0
 93 94  1  1
 93 96  1  0
 95 93  1  0
M  ISO  4  13 100  21 100  55 101  56 101
M  END
>  <TORSDO>  (60) 
F 23

>  <SCORE>  (60) 
-5.671

>  <name>  (60) 
60

>  <ligand_id>  (60) 
60

>  <original_smiles>  (60) 
[H]c1c([H])c([H])c2c(c1[H])C([H])([H])C([H])([H])C([H])([H])C2([H])N([H])C(=O)C1([H])N(C(=O)C([H])(N([H])C(=O)C([H])(N([H])C([H])([H])[H])C([H])([H])[H])C(C([H])([H])[H])(C([H])([H])[H])C([H])([H])[H])C([H])([H])c2c([H])c(OC([H])([H])C([H])(F)C([H])([H])C([H])([H])[N+]3([H])C([H])([H])C([H])([H])C([H])([N+]([H])([H])C([H])([H])C([H])([H])N([H])C(=O)N4C([H])([H])C([H])([H])C([H])([H])C([H])(n5nc(-c6c([H])c([H])c(Oc7c([H])c([H])c(F)c([H])c7F)c([H])c6[H])c(C(=O)N([H])[H])c5N([H])[H])C4([H])[H])C([H])([H])C3([H])[H])c([H])c([H])c2C1([H])[H]

>  <smiles>  (60) 
[H]c1c([H])c([H])c2c(c1[H])C([H])([H])C([H])([H])C([H])([H])C2([H])N([H])C(=O)C1([H])N(C(=O)C([H])(N([H])C(=O)C([H])(N([H])C([H])([H])[H])C([H])([H])[H])C(C([H])([H])[H])(C([H])([H])[H])C([H])([H])[H])C([H])([H])c2c([H])c(OC([H])([H])C([H])(F)C([H])([H])C([H])([H])[N+]3([H])C([H])([H])C([H])([H])C([H])([N+]([H])([H])C([H])([H])C([H])([H])N([H])C(=O)N4C([H])([H])C([H])([H])C([H])([H])C([H])(n5nc(-c6c([H])c([H])c(Oc7c([H])c([H])c(F)c([H])c7F)c([H])c6[H])c(C(=O)N([H])[H])c5N([H])[H])C4([H])[H])C([H])([H])C3([H])[H])c([H])c([H])c2C1([H])[H]

$$$$
61:0:0
     RDKit          3D

103112  0  0  1  0  0  0  0  0999 V2000
  -28.6280  -19.7730   20.8720 C   0  0  0  0  0  3  0  0  0  0  0  0
  -28.9630  -18.4290   20.6250 C   0  0  0  0  0  3  0  0  0  0  0  0
  -31.2690  -18.8880   21.2950 C   0  0  0  0  0  3  0  0  0  0  0  0
  -29.6510  -20.6940   21.2040 C   0  0  0  0  0  0  0  0  0  0  0  0
  -30.3100  -18.0260   20.7320 C   0  0  0  0  0  0  0  0  0  0  0  0
  -30.9450  -20.2300   21.5120 C   0  0  0  0  0  0  0  0  0  0  0  0
  -31.9270  -21.0910   21.8680 F   0  0  0  0  0  0  0  0  0  0  0  0
  -28.1640  -23.9930   20.2690 C   0  0  0  0  0  2  0  0  0  0  0  0
  -29.4970  -22.1780   20.9550 C   0  0  0  0  0  3  0  0  0  0  0  0
  -29.2060  -24.4180   21.3240 C   0  0  0  0  0  3  0  0  0  0  0  0
  -29.3990  -23.1420   22.1370 C   0  0  0  0  0  3  0  0  0  0  0  0
  -28.4090  -22.5610   20.0380 N   0  0  0  0  0  4  0  0  0  0  0  0
  -30.5070  -23.2070   22.8780 F   0  0  0  0  0  0  0  0  0  0  0  0
  -28.6690  -22.3830   19.0810 H   0  0  0  0  0  0  0  0  0  0  0  0
  -27.5710  -22.0480   20.2520 H   0  0  0  0  0  0  0  0  0  0  0  0
  -28.9040  -25.7080   22.0890 C   0  0  0  0  0  2  0  0  0  0  0  0
  -29.3190  -26.9120   21.2370 C   0  0  0  0  0  2  0  0  0  0  0  0
  -28.5310  -26.9210   20.0410 O   0  0  0  0  0  0  0  0  0  0  0  0
  -24.5490  -31.8610   23.1860 C   0  0  0  0  0  0  0  0  0  0  0  0
  -27.3410  -27.6010   20.0810 C   0  0  0  0  0  0  0  0  0  0  0  0
  -23.3810  -30.4660   21.5010 C   0  0  0  0  0  3  0  0  0  0  0  0
  -24.8820  -28.9830   20.0720 C   0  0  0  0  0  0  0  0  0  0  0  0
  -25.8860  -30.9080   21.3240 C   0  0  0  0  0  2  0  0  0  0  0  0
  -26.0080  -29.5520   20.6750 C   0  0  0  0  0  0  0  0  0  0  0  0
  -27.2340  -28.8750   20.6720 C   0  0  0  0  0  3  0  0  0  0  0  0
  -26.2060  -27.0340   19.4620 C   0  0  0  0  0  3  0  0  0  0  0  0
  -24.9720  -27.7180   19.4610 C   0  0  0  0  0  3  0  0  0  0  0  0
  -23.6130  -29.8040   20.1140 C   0  0  0  0  0  2  0  0  0  0  0  0
  -24.6220  -31.0900   22.0650 N   0  0  0  0  0  0  0  0  0  0  0  0
  -23.4590  -32.1020   23.7220 O   0  0  0  0  0  0  0  0  0  0  0  0
  -22.7450  -29.4170   22.4370 C   0  0  0  0  0  0  0  0  0  0  0  0
  -21.4220  -29.2280   22.3030 N   0  0  0  0  0  0  0  0  0  0  0  0
  -23.4350  -28.7760   23.2350 O   0  0  0  0  0  0  0  0  0  0  0  0
  -20.9300  -29.7990   21.6310 H   0  0  0  0  0  0  0  0  0  0  0  0
  -18.0440  -28.0660   22.8140 C   0  0  0  0  0  0  0  0  0  0  0  0
  -20.6110  -28.2670   23.0460 C   0  0  0  0  0  3  0  0  0  0  0  0
  -20.6770  -26.8640   22.3990 C   0  0  0  0  0  2  0  0  0  0  0  0
  -19.5490  -26.6080   21.3950 C   0  0  0  0  0  2  0  0  0  0  0  0
  -18.1840  -26.7460   22.0750 C   0  0  0  0  0  2  0  0  0  0  0  0
  -19.1840  -28.7870   23.2570 C   0  0  0  0  0  0  0  0  0  0  0  0
  -19.0000  -30.0280   23.9060 C   0  0  0  0  0  3  0  0  0  0  0  0
  -17.7090  -30.5440   24.1190 C   0  0  0  0  0  3  0  0  0  0  0  0
  -16.5830  -29.8160   23.6950 C   0  0  0  0  0  3  0  0  0  0  0  0
  -16.7520  -28.5790   23.0480 C   0  0  0  0  0  3  0  0  0  0  0  0
  -25.8200  -32.4960   23.8320 C   0  0  0  0  0  3  0  0  0  0  0  0
  -26.3220  -31.7230   25.1130 C   0  0  1  0  0  0  0  0  0  0  0  0
  -25.2110  -31.4540   26.1540 C   0  0  0  0  0  1  0  0  0  0  0  0
  -26.9400  -30.3610   24.7140 C   0  0  0  0  0  1  0  0  0  0  0  0
  -27.4450  -32.5310   25.8080 C   0  0  0  0  0  1  0  0  0  0  0  0
  -25.5000  -33.8910   24.1590 N   0  0  0  0  0  0  0  0  0  0  0  0
  -25.8690  -34.9470   23.4200 C   0  0  0  0  0  0  0  0  0  0  0  0
  -26.5860  -34.8480   22.4210 O   0  0  0  0  0  0  0  0  0  0  0  0
  -24.8680  -34.0420   24.9320 H   0  0  0  0  0  0  0  0  0  0  0  0
  -24.1950  -36.7620   22.9540 C   0  0  0  0  0  1  0  0  0  0  0  0
  -25.3590  -36.3310   23.8600 C   0  0  0  0  0  3  0  0  0  0  0  0
  -27.4160  -37.1830   24.8910 C   0  0  0  0  0  1  0  0  0  0  0  0
  -26.4080  -37.3730   23.8520 N   0  0  0  0  0  0  0  0  0  0  0  0
  -26.0000  -38.2970   23.9710 H   0  0  0  0  0  0  0  0  0  0  0  0
  -30.8020  -16.7850   20.0340 C   0  0  0  0  0  3  0  0  0  0  0  0
  -30.9540  -14.4030   20.3410 C   0  0  0  0  0  0  0  0  0  0  0  0
  -30.5030  -12.3150   19.1770 C   0  0  0  0  0  2  0  0  0  0  0  0
  -29.5540  -12.6140   18.0010 C   0  0  0  0  0  2  0  0  0  0  0  0
  -28.0880  -12.5020   18.4640 C   0  0  0  0  0  2  0  0  0  0  0  0
  -27.8000  -13.3090   19.7610 C   0  0  0  0  0  3  0  0  0  0  0  0
  -28.8800  -13.0600   20.8400 C   0  0  0  0  0  2  0  0  0  0  0  0
  -30.1990  -13.2880   20.2340 N   0  0  0  0  0  0  0  0  0  0  0  0
  -32.1140  -14.4670   19.9290 O   0  0  0  0  0  0  0  0  0  0  0  0
  -30.2850  -15.5340   20.5820 N   0  0  0  0  0  0  0  0  0  0  0  0
  -29.3230  -15.4830   20.8790 H   0  0  0  0  0  0  0  0  0  0  0  0
  -25.4220  -13.9100   20.5430 C   0  0  0  0  0  0  0  0  0  0  0  0
  -24.3610  -13.1330   20.9210 C   0  0  0  0  0  0  0  0  0  0  0  0
  -24.8150  -11.7820   20.8470 C   0  0  0  0  0  0  0  0  0  0  0  0
  -26.4580  -13.0310   20.2680 N   0  0  0  0  0  0  0  0  0  0  0  0
  -26.0960  -11.7450   20.5060 N   0  0  0  0  0  0  0  0  0  0  0  0
  -24.0870  -10.5180   21.0230 C   0  0  0  0  0  0  0  0  0  0  0  0
  -24.5070   -9.5480   21.9600 C   0  0  0  0  0  3  0  0  0  0  0  0
  -23.7800   -8.3500   22.1250 C   0  0  0  0  0  3  0  0  0  0  0  0
  -22.6190   -8.1120   21.3510 C   0  0  0  0  0  0  0  0  0  0  0  0
  -22.2190   -9.0690   20.4030 C   0  0  0  0  0  3  0  0  0  0  0  0
  -22.9470  -10.2590   20.2360 C   0  0  0  0  0  3  0  0  0  0  0  0
  -21.8660   -6.9660   21.4260 O   0  0  0  0  0  0  0  0  0  0  0  0
  -21.7590   -6.2480   22.5900 C   0  0  0  0  0  0  0  0  0  0  0  0
  -21.1940   -6.8030   23.7590 C   0  0  0  0  0  3  0  0  0  0  0  0
  -21.0410   -6.0080   24.9120 C   0  0  0  0  0  3  0  0  0  0  0  0
  -21.4410   -4.6600   24.8970 C   0  0  0  0  0  0  0  0  0  0  0  0
  -21.9980   -4.1030   23.7330 C   0  0  0  0  0  3  0  0  0  0  0  0
  -22.1540   -4.8950   22.5820 C   0  0  0  0  0  0  0  0  0  0  0  0
  -22.6720   -4.3480   21.4550 F   0  0  0  0  0  0  0  0  0  0  0  0
  -21.2860   -3.8930   26.0030 F   0  0  0  0  0  0  0  0  0  0  0  0
  -22.9720  -13.6100   21.2380 C   0  0  0  0  0  0  0  0  0  0  0  0
  -22.2570  -12.8860   22.0930 N   0  0  0  0  0  0  0  0  0  0  0  0
  -22.5320  -14.6560   20.7660 O   0  0  0  0  0  0  0  0  0  0  0  0
  -22.6280  -12.0380   22.4960 H   0  0  0  0  0  0  0  0  0  0  0  0
  -21.3270  -13.1840   22.3470 H   0  0  0  0  0  0  0  0  0  0  0  0
  -25.5890  -15.2840   20.3920 N   0  0  0  0  0  0  0  0  0  0  0  0
  -24.8240  -15.9360   20.5300 H   0  0  0  0  0  0  0  0  0  0  0  0
  -26.4240  -15.7260   20.0320 H   0  0  0  0  0  0  0  0  0  0  0  0
  -30.5590  -16.8530   18.4990 C   0  0  0  0  0  2  0  0  0  0  0  0
  -31.1750  -18.0720   17.7720 C   0  0  0  0  0  2  0  0  0  0  0  0
  -32.6430  -17.9950   17.6330 N   0  0  0  0  0  4  0  0  0  0  0  0
  -33.1120  -18.0150   18.5200 H   0  0  0  0  0  0  0  0  0  0  0  0
  -32.9710  -18.7830   17.1010 H   0  0  0  0  0  0  0  0  0  0  0  0
  -32.9170  -17.1640   17.1390 H   0  0  0  0  0  0  0  0  0  0  0  0
  1  4  1  0
  2  5  1  0
  2  1  2  0
  3  6  1  0
  4  6  2  0
  5  3  2  0
  6  7  1  0
  8 10  1  0
  9  4  1  0
  9 11  1  0
 10 16  1  0
 10 11  1  0
 11 13  1  0
 12 15  1  0
 12  8  1  0
 12  9  1  0
 14 12  1  0
 17 16  1  0
 18 20  1  0
 18 17  1  0
 19 30  2  0
 20 25  1  0
 21 29  1  0
 21 31  1  0
 22 28  1  0
 22 24  1  0
 23 29  1  0
 24 23  1  0
 25 24  2  0
 26 20  2  0
 27 26  1  0
 27 22  2  0
 28 21  1  0
 29 19  1  0
 31 33  2  0
 32 31  1  0
 34 32  1  0
 35 44  2  0
 35 40  1  0
 36 32  1  0
 36 40  1  0
 37 36  1  0
 38 39  1  0
 38 37  1  0
 39 35  1  0
 40 41  2  0
 41 42  1  0
 43 42  2  0
 44 43  1  0
 45 19  1  0
 45 50  1  0
 45 46  1  0
 46 49  1  1
 46 47  1  0
 48 46  1  0
 50 53  1  0
 51 55  1  0
 51 50  1  0
 52 51  2  0
 55 54  1  0
 57 55  1  0
 57 58  1  0
 57 56  1  0
 59 98  1  0
 59 68  1  0
 59  5  1  0
 60 68  1  0
 61 66  1  0
 62 63  1  0
 62 61  1  0
 64 63  1  0
 64 73  1  0
 64 65  1  0
 66 60  1  0
 66 65  1  0
 67 60  2  0
 68 69  1  0
 70 71  2  0
 71 90  1  0
 72 71  1  0
 72 75  1  0
 73 74  1  0
 73 70  1  0
 74 72  2  0
 75 76  1  0
 76 77  2  0
 78 81  1  0
 78 77  1  0
 79 78  2  0
 80 79  1  0
 80 75  2  0
 81 82  1  0
 82 83  1  0
 83 84  2  0
 85 84  1  0
 85 89  1  0
 86 85  2  0
 87 82  2  0
 87 86  1  0
 88 87  1  0
 90 91  1  0
 91 94  1  0
 91 93  1  0
 92 90  2  0
 95 96  1  0
 95 70  1  0
 97 95  1  0
 99 98  1  0
100 99  1  0
100101  1  0
102100  1  0
103100  1  0
M  ISO  4  17 101  18 101  60 100  68 100
M  END
>  <TORSDO>  (61) 
F 23

>  <SCORE>  (61) 
-13.302

>  <name>  (61) 
61

>  <ligand_id>  (61) 
61

>  <original_smiles>  (61) 
[H]c1c([H])c([H])c2c(c1[H])C([H])([H])C([H])([H])C([H])([H])C2([H])N([H])C(=O)C1([H])N(C(=O)C([H])(N([H])C(=O)C([H])(N([H])C([H])([H])[H])C([H])([H])[H])C(C([H])([H])[H])(C([H])([H])[H])C([H])([H])[H])C([H])([H])c2c([H])c(OC([H])([H])C([H])([H])C3([H])C([H])(F)C([H])(c4c([H])c([H])c(C([H])(N([H])C(=O)N5C([H])([H])C([H])([H])C([H])([H])C([H])(n6nc(-c7c([H])c([H])c(Oc8c([H])c([H])c(F)c([H])c8F)c([H])c7[H])c(C(=O)N([H])[H])c6N([H])[H])C5([H])[H])C([H])([H])C([H])([H])[N+]([H])([H])[H])c([H])c4F)[N+]([H])([H])C3([H])[H])c([H])c([H])c2C1([H])[H]

>  <smiles>  (61) 
[H]c1c([H])c([H])c2c(c1[H])C([H])([H])C([H])([H])C([H])([H])C2([H])N([H])C(=O)C1([H])N(C(=O)C([H])(N([H])C(=O)C([H])(N([H])C([H])([H])[H])C([H])([H])[H])C(C([H])([H])[H])(C([H])([H])[H])C([H])([H])[H])C([H])([H])c2c([H])c(OC([H])([H])C([H])([H])C3([H])C([H])(F)C([H])(c4c([H])c([H])c(C([H])(N([H])C(=O)N5C([H])([H])C([H])([H])C([H])([H])C([H])(n6nc(-c7c([H])c([H])c(Oc8c([H])c([H])c(F)c([H])c8F)c([H])c7[H])c(C(=O)N([H])[H])c6N([H])[H])C5([H])[H])C([H])([H])C([H])([H])[N+]([H])([H])[H])c([H])c4F)[N+]([H])([H])C3([H])[H])c([H])c([H])c2C1([H])[H]

$$$$
62:0:0
     RDKit          3D

 96104  0  0  1  0  0  0  0  0999 V2000
  -30.2760  -22.6540   22.2130 C   0  0  0  0  0  2  0  0  0  0  0  0
  -31.0760  -21.3370   22.1630 C   0  0  0  0  0  2  0  0  0  0  0  0
  -30.2110  -20.0880   22.4230 C   0  0  0  0  0  2  0  0  0  0  0  0
  -30.9620  -18.8350   22.1660 N   0  0  0  0  0  4  0  0  0  0  0  0
  -31.5160  -18.9640   21.3360 H   0  0  0  0  0  0  0  0  0  0  0  0
  -31.6030  -18.6880   22.9320 H   0  0  0  0  0  0  0  0  0  0  0  0
  -30.6120  -14.4590   20.1240 C   0  0  0  0  0  0  0  0  0  0  0  0
  -30.2120  -12.3440   18.9090 C   0  0  0  0  0  2  0  0  0  0  0  0
  -29.2150  -12.5550   17.7520 C   0  0  0  0  0  2  0  0  0  0  0  0
  -27.7650  -12.3970   18.2480 C   0  0  0  0  0  2  0  0  0  0  0  0
  -27.4840  -13.2270   19.5250 C   0  0  0  0  0  3  0  0  0  0  0  0
  -28.5870  -13.0020   20.5860 C   0  0  0  0  0  2  0  0  0  0  0  0
  -29.8880  -13.3130   19.9700 N   0  0  0  0  0  0  0  0  0  0  0  0
  -31.6950  -14.6310   19.5540 O   0  0  0  0  0  0  0  0  0  0  0  0
  -29.1900  -17.6460   20.8020 C   0  0  0  0  0  2  0  0  0  0  0  0
  -28.9250  -16.1730   20.5150 C   0  0  0  0  0  2  0  0  0  0  0  0
  -30.1430  -17.6070   21.9870 C   0  0  0  0  0  3  0  0  0  0  0  0
  -30.9850  -16.3500   21.6890 C   0  0  0  0  0  3  0  0  0  0  0  0
  -31.5610  -15.6980   22.9580 C   0  0  0  0  0  1  0  0  0  0  0  0
  -30.1080  -15.4140   20.9510 N   0  0  0  0  0  0  0  0  0  0  0  0
  -25.1150  -13.8480   20.3130 C   0  0  0  0  0  0  0  0  0  0  0  0
  -24.0640  -13.0790   20.7350 C   0  0  0  0  0  0  0  0  0  0  0  0
  -24.5300  -11.7300   20.7110 C   0  0  0  0  0  0  0  0  0  0  0  0
  -26.1530  -12.9640   20.0610 N   0  0  0  0  0  0  0  0  0  0  0  0
  -25.8060  -11.6870   20.3560 N   0  0  0  0  0  0  0  0  0  0  0  0
  -23.8190  -10.4680   20.9480 C   0  0  0  0  0  0  0  0  0  0  0  0
  -24.2820   -9.5260   21.8930 C   0  0  0  0  0  3  0  0  0  0  0  0
  -23.5720   -8.3280   22.1160 C   0  0  0  0  0  3  0  0  0  0  0  0
  -22.3840   -8.0630   21.3930 C   0  0  0  0  0  0  0  0  0  0  0  0
  -21.9400   -8.9930   20.4370 C   0  0  0  0  0  3  0  0  0  0  0  0
  -22.6510  -10.1840   20.2120 C   0  0  0  0  0  3  0  0  0  0  0  0
  -21.6410   -6.9140   21.5260 O   0  0  0  0  0  0  0  0  0  0  0  0
  -21.6220   -6.2020   22.6970 C   0  0  0  0  0  0  0  0  0  0  0  0
  -21.2390   -6.7910   23.9230 C   0  0  0  0  0  3  0  0  0  0  0  0
  -21.1660   -6.0050   25.0890 C   0  0  0  0  0  3  0  0  0  0  0  0
  -21.4670   -4.6300   25.0320 C   0  0  0  0  0  0  0  0  0  0  0  0
  -21.8430   -4.0410   23.8130 C   0  0  0  0  0  3  0  0  0  0  0  0
  -21.9180   -4.8250   22.6490 C   0  0  0  0  0  0  0  0  0  0  0  0
  -22.2610   -4.2480   21.4710 F   0  0  0  0  0  0  0  0  0  0  0  0
  -21.3890   -3.8720   26.1520 F   0  0  0  0  0  0  0  0  0  0  0  0
  -22.6760  -13.5560   21.0510 C   0  0  0  0  0  0  0  0  0  0  0  0
  -21.9880  -12.8750   21.9620 N   0  0  0  0  0  0  0  0  0  0  0  0
  -22.2110  -14.5660   20.5270 O   0  0  0  0  0  0  0  0  0  0  0  0
  -22.3780  -12.0580   22.4060 H   0  0  0  0  0  0  0  0  0  0  0  0
  -21.0580  -13.1750   22.2160 H   0  0  0  0  0  0  0  0  0  0  0  0
  -25.2630  -15.2160   20.1010 N   0  0  0  0  0  0  0  0  0  0  0  0
  -24.4920  -15.8640   20.2190 H   0  0  0  0  0  0  0  0  0  0  0  0
  -26.0890  -15.6510   19.7120 H   0  0  0  0  0  0  0  0  0  0  0  0
  -31.1180  -23.8710   21.7840 C   0  0  0  0  0  2  0  0  0  0  0  0
  -30.3340  -25.1230   21.7640 N   0  0  0  0  0  4  0  0  0  0  0  0
  -29.9070  -25.2580   22.6660 H   0  0  0  0  0  0  0  0  0  0  0  0
  -29.5980  -25.0360   21.0800 H   0  0  0  0  0  0  0  0  0  0  0  0
  -31.1450  -26.3180   21.4430 C   0  0  0  0  0  2  0  0  0  0  0  0
  -30.2910  -27.5690   21.1730 C   0  0  0  0  0  2  0  0  0  0  0  0
  -29.5190  -27.5050   19.8440 C   0  0  0  0  0  2  0  0  0  0  0  0
  -28.3010  -26.7710   19.9910 O   0  0  0  0  0  0  0  0  0  0  0  0
  -24.4910  -31.9040   23.2060 C   0  0  0  0  0  0  0  0  0  0  0  0
  -27.1390  -27.5060   20.0950 C   0  0  0  0  0  0  0  0  0  0  0  0
  -23.2650  -30.4930   21.5790 C   0  0  0  0  0  3  0  0  0  0  0  0
  -24.7090  -28.9520   20.1500 C   0  0  0  0  0  0  0  0  0  0  0  0
  -25.7800  -30.8730   21.3470 C   0  0  0  0  0  2  0  0  0  0  0  0
  -25.8650  -29.5000   20.7190 C   0  0  0  0  0  0  0  0  0  0  0  0
  -27.0770  -28.7830   20.6990 C   0  0  0  0  0  3  0  0  0  0  0  0
  -25.9620  -26.9520   19.5510 C   0  0  0  0  0  3  0  0  0  0  0  0
  -24.7490  -27.6700   19.5710 C   0  0  0  0  0  3  0  0  0  0  0  0
  -23.4590  -29.7990   20.2030 C   0  0  0  0  0  2  0  0  0  0  0  0
  -24.5300  -31.1040   22.1030 N   0  0  0  0  0  0  0  0  0  0  0  0
  -23.4170  -32.1760   23.7610 O   0  0  0  0  0  0  0  0  0  0  0  0
  -22.6280  -29.4770   22.5520 C   0  0  0  0  0  0  0  0  0  0  0  0
  -21.3050  -29.2870   22.4310 N   0  0  0  0  0  0  0  0  0  0  0  0
  -23.3210  -28.8600   23.3660 O   0  0  0  0  0  0  0  0  0  0  0  0
  -20.8080  -29.8400   21.7460 H   0  0  0  0  0  0  0  0  0  0  0  0
  -17.9400  -28.0780   22.9370 C   0  0  0  0  0  0  0  0  0  0  0  0
  -20.4950  -28.3490   23.2080 C   0  0  0  0  0  3  0  0  0  0  0  0
  -20.6050  -26.9150   22.6400 C   0  0  0  0  0  2  0  0  0  0  0  0
  -19.5060  -26.5790   21.6270 C   0  0  0  0  0  2  0  0  0  0  0  0
  -18.1230  -26.7240   22.2690 C   0  0  0  0  0  2  0  0  0  0  0  0
  -19.0550  -28.8470   23.3620 C   0  0  0  0  0  0  0  0  0  0  0  0
  -18.8320  -30.1150   23.9410 C   0  0  0  0  0  3  0  0  0  0  0  0
  -17.5260  -30.6140   24.1010 C   0  0  0  0  0  3  0  0  0  0  0  0
  -16.4240  -29.8400   23.6960 C   0  0  0  0  0  3  0  0  0  0  0  0
  -16.6330  -28.5750   23.1200 C   0  0  0  0  0  3  0  0  0  0  0  0
  -25.7870  -32.5340   23.8090 C   0  0  0  0  0  3  0  0  0  0  0  0
  -25.4860  -33.9320   24.1440 N   0  0  0  0  0  0  0  0  0  0  0  0
  -25.8240  -34.9850   23.3870 C   0  0  0  0  0  0  0  0  0  0  0  0
  -26.4930  -34.8810   22.3560 O   0  0  0  0  0  0  0  0  0  0  0  0
  -24.9010  -34.0880   24.9530 H   0  0  0  0  0  0  0  0  0  0  0  0
  -24.1080  -36.7840   23.0240 C   0  0  0  0  0  1  0  0  0  0  0  0
  -25.3390  -36.3720   23.8470 C   0  0  0  0  0  3  0  0  0  0  0  0
  -27.4720  -37.2360   24.7020 C   0  0  0  0  0  1  0  0  0  0  0  0
  -26.3780  -37.4210   23.7510 N   0  0  0  0  0  0  0  0  0  0  0  0
  -25.9760  -38.3420   23.9050 H   0  0  0  0  0  0  0  0  0  0  0  0
  -26.3250  -31.7600   25.0730 C   0  0  1  0  0  0  0  0  0  0  0  0
  -25.2510  -31.5200   26.1580 C   0  0  0  0  0  1  0  0  0  0  0  0
  -26.9030  -30.3850   24.6600 C   0  0  0  0  0  1  0  0  0  0  0  0
  -27.4820  -32.5570   25.7220 C   0  0  0  0  0  1  0  0  0  0  0  0
  2  1  1  0
  2  3  1  0
  4  3  1  0
  4  6  1  0
  5  4  1  0
  7 20  1  0
  8 13  1  0
  9 10  1  0
  9  8  1  0
 11 10  1  0
 11 24  1  0
 11 12  1  0
 13  7  1  0
 13 12  1  0
 14  7  2  0
 15 17  1  0
 16 15  1  0
 16 20  1  0
 17  4  1  0
 18 17  1  0
 18 19  1  0
 20 18  1  0
 21 22  2  0
 22 41  1  0
 23 22  1  0
 23 26  1  0
 24 21  1  0
 24 25  1  0
 25 23  2  0
 26 27  1  0
 27 28  2  0
 29 32  1  0
 29 28  1  0
 30 29  2  0
 31 30  1  0
 31 26  2  0
 32 33  1  0
 33 34  1  0
 34 35  2  0
 36 35  1  0
 36 40  1  0
 37 36  2  0
 38 33  2  0
 38 37  1  0
 39 38  1  0
 41 42  1  0
 42 45  1  0
 42 44  1  0
 43 41  2  0
 46 47  1  0
 46 21  1  0
 48 46  1  0
 49  1  1  0
 50 49  1  0
 50 51  1  0
 52 50  1  0
 53 50  1  0
 54 53  1  0
 55 56  1  0
 55 54  1  0
 56 58  1  0
 57 68  2  0
 58 63  1  0
 59 67  1  0
 59 69  1  0
 60 66  1  0
 60 62  1  0
 61 67  1  0
 62 61  1  0
 63 62  2  0
 64 65  1  0
 64 58  2  0
 65 60  2  0
 66 59  1  0
 67 57  1  0
 69 71  2  0
 70 69  1  0
 72 70  1  0
 73 82  2  0
 73 78  1  0
 74 70  1  0
 74 78  1  0
 75 74  1  0
 76 77  1  0
 76 75  1  0
 77 73  1  0
 78 79  2  0
 79 80  1  0
 81 80  2  0
 82 81  1  0
 83 57  1  0
 83 84  1  0
 83 93  1  0
 84 87  1  0
 85 89  1  0
 85 84  1  0
 86 85  2  0
 89 88  1  0
 91 89  1  0
 91 92  1  0
 91 90  1  0
 93 96  1  1
 93 94  1  0
 95 93  1  0
M  ISO  4   7 100  20 100  55 101  56 101
M  END
>  <TORSDO>  (62) 
F 24

>  <SCORE>  (62) 
-10.455

>  <name>  (62) 
62

>  <ligand_id>  (62) 
62

>  <original_smiles>  (62) 
[H]c1c([H])c([H])c2c(c1[H])C([H])([H])C([H])([H])C([H])([H])C2([H])N([H])C(=O)C1([H])N(C(=O)C([H])(N([H])C(=O)C([H])(N([H])C([H])([H])[H])C([H])([H])[H])C(C([H])([H])[H])(C([H])([H])[H])C([H])([H])[H])C([H])([H])c2c([H])c(OC([H])([H])C([H])([H])C([H])([H])[N+]([H])([H])C([H])([H])C([H])([H])C([H])([H])C([H])([H])[N+]([H])([H])C3([H])C([H])([H])C([H])([H])N(C(=O)N4C([H])([H])C([H])([H])C([H])([H])C([H])(n5nc(-c6c([H])c([H])c(Oc7c([H])c([H])c(F)c([H])c7F)c([H])c6[H])c(C(=O)N([H])[H])c5N([H])[H])C4([H])[H])C3([H])C([H])([H])[H])c([H])c([H])c2C1([H])[H]

>  <smiles>  (62) 
[H]c1c([H])c([H])c2c(c1[H])C([H])([H])C([H])([H])C([H])([H])C2([H])N([H])C(=O)C1([H])N(C(=O)C([H])(N([H])C(=O)C([H])(N([H])C([H])([H])[H])C([H])([H])[H])C(C([H])([H])[H])(C([H])([H])[H])C([H])([H])[H])C([H])([H])c2c([H])c(OC([H])([H])C([H])([H])C([H])([H])[N+]([H])([H])C([H])([H])C([H])([H])C([H])([H])C([H])([H])[N+]([H])([H])C3([H])C([H])([H])C([H])([H])N(C(=O)N4C([H])([H])C([H])([H])C([H])([H])C([H])(n5nc(-c6c([H])c([H])c(Oc7c([H])c([H])c(F)c([H])c7F)c([H])c6[H])c(C(=O)N([H])[H])c5N([H])[H])C4([H])[H])C3([H])C([H])([H])[H])c([H])c([H])c2C1([H])[H]

$$$$
63:0:0
     RDKit          3D

 94102  0  0  1  0  0  0  0  0999 V2000
  -28.8660  -22.3030   22.5740 C   0  0  0  0  0  2  0  0  0  0  0  0
  -28.4320  -23.0450   21.4030 N   0  0  0  0  0  0  0  0  0  0  0  0
  -28.9160  -22.6860   20.5830 H   0  0  0  0  0  0  0  0  0  0  0  0
  -28.7460  -24.4560   21.5500 C   0  0  0  0  0  2  0  0  0  0  0  0
  -28.3360  -25.1470   20.2500 C   0  0  0  0  0  2  0  0  0  0  0  0
  -28.8520  -26.5850   20.1420 C   0  0  0  0  0  2  0  0  0  0  0  0
  -28.2200  -27.2150   19.0340 O   0  0  0  0  0  0  0  0  0  0  0  0
  -24.3160  -31.2590   23.3900 C   0  0  0  0  0  0  0  0  0  0  0  0
  -26.9960  -27.7500   19.3300 C   0  0  0  0  0  0  0  0  0  0  0  0
  -23.0580  -29.9680   21.6920 C   0  0  0  0  0  3  0  0  0  0  0  0
  -24.4660  -28.8580   19.8790 C   0  0  0  0  0  0  0  0  0  0  0  0
  -25.4660  -30.6910   21.2560 C   0  0  0  0  0  2  0  0  0  0  0  0
  -25.6220  -29.4500   20.4090 C   0  0  0  0  0  0  0  0  0  0  0  0
  -26.8900  -28.8970   20.1410 C   0  0  0  0  0  3  0  0  0  0  0  0
  -25.8320  -27.1640   18.7930 C   0  0  0  0  0  3  0  0  0  0  0  0
  -24.5650  -27.7080   19.0730 C   0  0  0  0  0  3  0  0  0  0  0  0
  -23.1500  -29.5240   20.2070 C   0  0  0  0  0  2  0  0  0  0  0  0
  -24.3060  -30.6460   22.1720 N   0  0  0  0  0  0  0  0  0  0  0  0
  -23.2980  -31.3070   24.0920 O   0  0  0  0  0  0  0  0  0  0  0  0
  -22.6600  -28.7450   22.5470 C   0  0  0  0  0  0  0  0  0  0  0  0
  -21.4350  -28.2400   22.3310 N   0  0  0  0  0  0  0  0  0  0  0  0
  -23.4510  -28.2500   23.3540 O   0  0  0  0  0  0  0  0  0  0  0  0
  -20.8460  -28.7050   21.6520 H   0  0  0  0  0  0  0  0  0  0  0  0
  -18.5790  -26.0290   22.3570 C   0  0  0  0  0  0  0  0  0  0  0  0
  -20.8600  -27.0680   22.9890 C   0  0  0  0  0  3  0  0  0  0  0  0
  -21.4890  -25.7630   22.4500 C   0  0  0  0  0  2  0  0  0  0  0  0
  -20.6980  -25.1460   21.2910 C   0  0  0  0  0  2  0  0  0  0  0  0
  -19.2650  -24.8270   21.7280 C   0  0  0  0  0  2  0  0  0  0  0  0
  -19.3300  -27.0880   22.9350 C   0  0  0  0  0  0  0  0  0  0  0  0
  -18.6440  -28.1980   23.4740 C   0  0  0  0  0  3  0  0  0  0  0  0
  -17.2380  -28.2580   23.4470 C   0  0  0  0  0  3  0  0  0  0  0  0
  -16.5000  -27.2010   22.8890 C   0  0  0  0  0  3  0  0  0  0  0  0
  -17.1710  -26.0870   22.3490 C   0  0  0  0  0  3  0  0  0  0  0  0
  -25.6010  -31.9490   23.9480 C   0  0  0  0  0  3  0  0  0  0  0  0
  -26.1690  -31.2550   25.2470 C   0  0  1  0  0  0  0  0  0  0  0  0
  -25.1060  -31.0350   26.3500 C   0  0  0  0  0  1  0  0  0  0  0  0
  -26.7870  -29.8790   24.9030 C   0  0  0  0  0  1  0  0  0  0  0  0
  -27.3080  -32.1150   25.8450 C   0  0  0  0  0  1  0  0  0  0  0  0
  -25.2660  -33.3540   24.2120 N   0  0  0  0  0  0  0  0  0  0  0  0
  -25.7120  -34.3910   23.4890 C   0  0  0  0  0  0  0  0  0  0  0  0
  -26.5180  -34.2650   22.5630 O   0  0  0  0  0  0  0  0  0  0  0  0
  -24.5720  -33.5250   24.9240 H   0  0  0  0  0  0  0  0  0  0  0  0
  -24.1520  -36.2410   22.8020 C   0  0  0  0  0  1  0  0  0  0  0  0
  -25.1800  -35.7900   23.8520 C   0  0  0  0  0  3  0  0  0  0  0  0
  -27.1220  -36.5940   25.1220 C   0  0  0  0  0  1  0  0  0  0  0  0
  -26.2430  -36.8110   23.9770 N   0  0  0  0  0  0  0  0  0  0  0  0
  -25.8410  -37.7410   24.0580 H   0  0  0  0  0  0  0  0  0  0  0  0
  -29.1680  -20.8510   22.1580 C   0  0  0  0  0  2  0  0  0  0  0  0
  -30.2930  -20.2650   22.9120 N   0  0  0  0  0  4  0  0  0  0  0  0
  -30.2600  -20.5680   23.8720 H   0  0  0  0  0  0  0  0  0  0  0  0
  -30.1520  -19.2680   22.9090 H   0  0  0  0  0  0  0  0  0  0  0  0
  -31.6230  -20.5380   22.3300 C   0  0  0  0  0  2  0  0  0  0  0  0
  -32.7100  -19.6280   22.9250 C   0  0  0  0  0  2  0  0  0  0  0  0
  -34.1040  -19.8080   22.2920 C   0  0  0  0  0  2  0  0  0  0  0  0
  -34.0810  -16.6710   18.9540 C   0  0  0  0  0  0  0  0  0  0  0  0
  -33.3950  -14.4700   18.0780 C   0  0  0  0  0  2  0  0  0  0  0  0
  -32.2860  -14.5920   17.0170 C   0  0  0  0  0  2  0  0  0  0  0  0
  -30.8970  -14.6320   17.6800 C   0  0  0  0  0  2  0  0  0  0  0  0
  -30.8200  -15.6620   18.8370 C   0  0  0  0  0  3  0  0  0  0  0  0
  -32.0140  -15.4860   19.8020 C   0  0  0  0  0  2  0  0  0  0  0  0
  -33.2650  -15.5850   19.0280 N   0  0  0  0  0  0  0  0  0  0  0  0
  -34.9520  -16.7910   18.0840 O   0  0  0  0  0  0  0  0  0  0  0  0
  -33.0880  -18.6070   20.1450 C   0  0  0  0  0  2  0  0  0  0  0  0
  -35.1800  -18.3700   20.3690 C   0  0  0  0  0  2  0  0  0  0  0  0
  -34.1880  -19.4330   20.8090 C   0  0  0  0  0  3  0  0  0  0  0  0
  -34.0480  -17.5030   20.0140 N   0  0  0  0  0  0  0  0  0  0  0  0
  -28.8890  -16.5300   20.3070 C   0  0  0  0  0  0  0  0  0  0  0  0
  -27.6950  -15.9660   20.6750 C   0  0  0  0  0  0  0  0  0  0  0  0
  -27.6750  -14.6660   20.0860 C   0  0  0  0  0  0  0  0  0  0  0  0
  -29.5390  -15.5750   19.5380 N   0  0  0  0  0  0  0  0  0  0  0  0
  -28.8150  -14.4300   19.4510 N   0  0  0  0  0  0  0  0  0  0  0  0
  -26.6120  -13.6520   20.0420 C   0  0  0  0  0  0  0  0  0  0  0  0
  -26.7530  -12.4070   20.6930 C   0  0  0  0  0  3  0  0  0  0  0  0
  -25.7110  -11.4550   20.6530 C   0  0  0  0  0  3  0  0  0  0  0  0
  -24.5120  -11.7440   19.9580 C   0  0  0  0  0  0  0  0  0  0  0  0
  -24.3860  -12.9760   19.2920 C   0  0  0  0  0  3  0  0  0  0  0  0
  -25.4270  -13.9190   19.3290 C   0  0  0  0  0  3  0  0  0  0  0  0
  -23.4570  -10.8720   19.8430 O   0  0  0  0  0  0  0  0  0  0  0  0
  -23.0240  -10.1220   20.9070 C   0  0  0  0  0  0  0  0  0  0  0  0
  -22.6790  -10.7110   22.1430 C   0  0  0  0  0  3  0  0  0  0  0  0
  -22.1710   -9.9120   23.1860 C   0  0  0  0  0  3  0  0  0  0  0  0
  -22.0010   -8.5270   22.9960 C   0  0  0  0  0  0  0  0  0  0  0  0
  -22.3390   -7.9400   21.7640 C   0  0  0  0  0  3  0  0  0  0  0  0
  -22.8470   -8.7360   20.7220 C   0  0  0  0  0  0  0  0  0  0  0  0
  -23.1510   -8.1680   19.5300 F   0  0  0  0  0  0  0  0  0  0  0  0
  -21.5070   -7.7600   23.9940 F   0  0  0  0  0  0  0  0  0  0  0  0
  -26.5920  -16.6290   21.4490 C   0  0  0  0  0  0  0  0  0  0  0  0
  -25.8710  -15.8660   22.2640 N   0  0  0  0  0  0  0  0  0  0  0  0
  -26.3930  -17.8420   21.3710 O   0  0  0  0  0  0  0  0  0  0  0  0
  -26.0460  -14.8760   22.3450 H   0  0  0  0  0  0  0  0  0  0  0  0
  -25.1340  -16.2810   22.8160 H   0  0  0  0  0  0  0  0  0  0  0  0
  -29.4660  -17.7730   20.5460 N   0  0  0  0  0  0  0  0  0  0  0  0
  -28.9750  -18.5100   21.0410 H   0  0  0  0  0  0  0  0  0  0  0  0
  -30.3520  -18.0760   20.1600 H   0  0  0  0  0  0  0  0  0  0  0  0
  2  4  1  0
  2  1  1  0
  3  2  1  0
  5  4  1  0
  6  5  1  0
  7  9  1  0
  7  6  1  0
  8 19  2  0
  9 14  1  0
 10 18  1  0
 10 20  1  0
 11 17  1  0
 11 13  1  0
 12 18  1  0
 13 12  1  0
 14 13  2  0
 15 16  1  0
 15  9  2  0
 16 11  2  0
 17 10  1  0
 18  8  1  0
 20 22  2  0
 21 20  1  0
 23 21  1  0
 24 29  1  0
 25 21  1  0
 26 25  1  0
 27 28  1  0
 27 26  1  0
 28 24  1  0
 29 25  1  0
 29 30  2  0
 31 30  1  0
 32 31  2  0
 33 24  2  0
 33 32  1  0
 34  8  1  0
 34 39  1  0
 34 35  1  0
 35 38  1  1
 35 36  1  0
 37 35  1  0
 39 42  1  0
 40 44  1  0
 40 39  1  0
 41 40  2  0
 44 43  1  0
 44 46  1  0
 46 47  1  0
 46 45  1  0
 48  1  1  0
 48 49  1  0
 49 50  1  0
 51 49  1  0
 52 49  1  0
 52 53  1  0
 54 53  1  0
 55 61  1  0
 55 66  1  0
 56 61  1  0
 57 58  1  0
 57 56  1  0
 59 58  1  0
 59 70  1  0
 59 60  1  0
 61 60  1  0
 62 55  2  0
 63 65  1  0
 64 65  1  0
 65 54  1  0
 66 63  1  0
 66 64  1  0
 67 92  1  0
 67 68  2  0
 68 87  1  0
 69 68  1  0
 70 67  1  0
 71 70  1  0
 71 69  2  0
 72 69  1  0
 72 73  1  0
 74 73  2  0
 75 74  1  0
 76 77  1  0
 76 75  2  0
 77 72  2  0
 78 75  1  0
 78 79  1  0
 79 80  1  0
 80 81  2  0
 82 81  1  0
 82 86  1  0
 83 82  2  0
 84 79  2  0
 84 83  1  0
 85 84  1  0
 87 88  1  0
 88 90  1  0
 88 91  1  0
 89 87  2  0
 92 93  1  0
 94 92  1  0
M  ISO  4   6 101   7 101  55 100  66 100
M  END
>  <TORSDO>  (63) 
F 25

>  <SCORE>  (63) 
0.745

>  <name>  (63) 
63

>  <ligand_id>  (63) 
63

>  <original_smiles>  (63) 
[H]c1c([H])c([H])c2c(c1[H])C([H])([H])C([H])([H])C([H])([H])C2([H])N([H])C(=O)C1([H])N(C(=O)C([H])(N([H])C(=O)C([H])(N([H])C([H])([H])[H])C([H])([H])[H])C(C([H])([H])[H])(C([H])([H])[H])C([H])([H])[H])C([H])([H])c2c([H])c(OC([H])([H])C([H])([H])C([H])([H])N([H])C([H])([H])C([H])([H])[N+]([H])([H])C([H])([H])C([H])([H])C([H])([H])C3([H])C([H])([H])N(C(=O)N4C([H])([H])C([H])([H])C([H])([H])C([H])(n5nc(-c6c([H])c([H])c(Oc7c([H])c([H])c(F)c([H])c7F)c([H])c6[H])c(C(=O)N([H])[H])c5N([H])[H])C4([H])[H])C3([H])[H])c([H])c([H])c2C1([H])[H]

>  <smiles>  (63) 
[H]c1c([H])c([H])c2c(c1[H])C([H])([H])C([H])([H])C([H])([H])C2([H])N([H])C(=O)C1([H])N(C(=O)C([H])(N([H])C(=O)C([H])(N([H])C([H])([H])[H])C([H])([H])[H])C(C([H])([H])[H])(C([H])([H])[H])C([H])([H])[H])C([H])([H])c2c([H])c(OC([H])([H])C([H])([H])C([H])([H])N([H])C([H])([H])C([H])([H])[N+]([H])([H])C([H])([H])C([H])([H])C([H])([H])C3([H])C([H])([H])N(C(=O)N4C([H])([H])C([H])([H])C([H])([H])C([H])(n5nc(-c6c([H])c([H])c(Oc7c([H])c([H])c(F)c([H])c7F)c([H])c6[H])c(C(=O)N([H])[H])c5N([H])[H])C4([H])[H])C3([H])[H])c([H])c([H])c2C1([H])[H]

$$$$
64:0:0
     RDKit          3D

 91 98  0  0  1  0  0  0  0  0999 V2000
  -30.6830  -21.4710   21.0150 N   0  0  0  0  0  4  0  0  0  0  0  0
  -30.8680  -21.4360   20.0260 H   0  0  0  0  0  0  0  0  0  0  0  0
  -31.5570  -21.6380   21.4860 H   0  0  0  0  0  0  0  0  0  0  0  0
  -29.7970  -22.6150   21.2930 C   0  0  0  0  0  2  0  0  0  0  0  0
  -30.4950  -23.9120   20.8590 C   0  0  0  0  0  2  0  0  0  0  0  0
  -29.7300  -25.2000   21.1740 C   0  0  0  0  0  2  0  0  0  0  0  0
  -28.4680  -25.4500   20.3320 C   0  0  0  0  0  2  0  0  0  0  0  0
  -28.3770  -26.8620   20.2830 O   0  0  0  0  0  0  0  0  0  0  0  0
  -24.5030  -31.9510   23.2710 C   0  0  0  0  0  0  0  0  0  0  0  0
  -27.1540  -27.4790   20.2880 C   0  0  0  0  0  0  0  0  0  0  0  0
  -23.2920  -30.5160   21.6560 C   0  0  0  0  0  3  0  0  0  0  0  0
  -24.7430  -28.9390   20.2720 C   0  0  0  0  0  0  0  0  0  0  0  0
  -25.8110  -30.8800   21.4460 C   0  0  0  0  0  2  0  0  0  0  0  0
  -25.8940  -29.4960   20.8400 C   0  0  0  0  0  0  0  0  0  0  0  0
  -27.1010  -28.7710   20.8400 C   0  0  0  0  0  3  0  0  0  0  0  0
  -25.9860  -26.9110   19.7300 C   0  0  0  0  0  3  0  0  0  0  0  0
  -24.7800  -27.6440   19.7190 C   0  0  0  0  0  3  0  0  0  0  0  0
  -23.4980  -29.7980   20.2950 C   0  0  0  0  0  2  0  0  0  0  0  0
  -24.5540  -31.1310   22.1840 N   0  0  0  0  0  0  0  0  0  0  0  0
  -23.4230  -32.2370   23.8060 O   0  0  0  0  0  0  0  0  0  0  0  0
  -22.6400  -29.5190   22.6390 C   0  0  0  0  0  0  0  0  0  0  0  0
  -21.3190  -29.3260   22.5010 N   0  0  0  0  0  0  0  0  0  0  0  0
  -23.3200  -28.9200   23.4760 O   0  0  0  0  0  0  0  0  0  0  0  0
  -20.8340  -29.8600   21.7930 H   0  0  0  0  0  0  0  0  0  0  0  0
  -17.9480  -28.1220   22.9790 C   0  0  0  0  0  0  0  0  0  0  0  0
  -20.4980  -28.4060   23.2860 C   0  0  0  0  0  3  0  0  0  0  0  0
  -20.6200  -26.9600   22.7550 C   0  0  0  0  0  2  0  0  0  0  0  0
  -19.5390  -26.6000   21.7320 C   0  0  0  0  0  2  0  0  0  0  0  0
  -18.1440  -26.7560   22.3440 C   0  0  0  0  0  2  0  0  0  0  0  0
  -19.0540  -28.9050   23.4050 C   0  0  0  0  0  0  0  0  0  0  0  0
  -18.8180  -30.1850   23.9520 C   0  0  0  0  0  3  0  0  0  0  0  0
  -17.5080  -30.6810   24.0810 C   0  0  0  0  0  3  0  0  0  0  0  0
  -16.4160  -29.8970   23.6720 C   0  0  0  0  0  3  0  0  0  0  0  0
  -16.6370  -28.6190   23.1290 C   0  0  0  0  0  3  0  0  0  0  0  0
  -25.7930  -32.5890   23.8790 C   0  0  0  0  0  3  0  0  0  0  0  0
  -26.3150  -31.8350   25.1630 C   0  0  1  0  0  0  0  0  0  0  0  0
  -25.2220  -31.6050   26.2330 C   0  0  0  0  0  1  0  0  0  0  0  0
  -26.9020  -30.4560   24.7830 C   0  0  0  0  0  1  0  0  0  0  0  0
  -27.4660  -32.6380   25.8130 C   0  0  0  0  0  1  0  0  0  0  0  0
  -25.4900  -33.9920   24.1880 N   0  0  0  0  0  0  0  0  0  0  0  0
  -25.8240  -35.0300   23.4090 C   0  0  0  0  0  0  0  0  0  0  0  0
  -26.4910  -34.9060   22.3790 O   0  0  0  0  0  0  0  0  0  0  0  0
  -24.9030  -34.1630   24.9910 H   0  0  0  0  0  0  0  0  0  0  0  0
  -24.0980  -36.8160   23.0200 C   0  0  0  0  0  1  0  0  0  0  0  0
  -25.3380  -36.4270   23.8420 C   0  0  0  0  0  3  0  0  0  0  0  0
  -27.4720  -37.3210   24.6600 C   0  0  0  0  0  1  0  0  0  0  0  0
  -26.3730  -37.4760   23.7110 N   0  0  0  0  0  0  0  0  0  0  0  0
  -25.9700  -38.3990   23.8410 H   0  0  0  0  0  0  0  0  0  0  0  0
  -30.1830  -20.1550   21.4520 C   0  0  0  0  0  2  0  0  0  0  0  0
  -31.2300  -19.0740   21.1470 C   0  0  0  0  0  2  0  0  0  0  0  0
  -30.7800  -17.6590   21.5260 C   0  0  0  0  0  2  0  0  0  0  0  0
  -31.9320  -16.6600   21.3610 C   0  0  0  0  0  2  0  0  0  0  0  0
  -31.6140  -15.2480   21.8760 C   0  0  0  0  0  2  0  0  0  0  0  0
  -30.5570  -14.1360   19.9020 C   0  0  0  0  0  0  0  0  0  0  0  0
  -29.9500  -12.1690   18.5540 C   0  0  0  0  0  2  0  0  0  0  0  0
  -28.8850  -12.4250   17.4760 C   0  0  0  0  0  2  0  0  0  0  0  0
  -27.4730  -12.2780   18.0690 C   0  0  0  0  0  2  0  0  0  0  0  0
  -27.2890  -13.1020   19.3690 C   0  0  0  0  0  3  0  0  0  0  0  0
  -28.4440  -12.8460   20.3610 C   0  0  0  0  0  2  0  0  0  0  0  0
  -29.7270  -13.0920   19.6740 N   0  0  0  0  0  0  0  0  0  0  0  0
  -31.4140  -14.5150   19.0980 O   0  0  0  0  0  0  0  0  0  0  0  0
  -30.5270  -14.5750   21.1660 N   0  0  0  0  0  0  0  0  0  0  0  0
  -29.7920  -14.1850   21.7380 H   0  0  0  0  0  0  0  0  0  0  0  0
  -24.9670  -13.7220   20.2970 C   0  0  0  0  0  0  0  0  0  0  0  0
  -23.9430  -12.9540   20.7850 C   0  0  0  0  0  0  0  0  0  0  0  0
  -24.4040  -11.6040   20.7360 C   0  0  0  0  0  0  0  0  0  0  0  0
  -25.9890  -12.8390   19.9840 N   0  0  0  0  0  0  0  0  0  0  0  0
  -25.6560  -11.5610   20.3020 N   0  0  0  0  0  0  0  0  0  0  0  0
  -23.7060  -10.3440   21.0200 C   0  0  0  0  0  0  0  0  0  0  0  0
  -24.2140   -9.4120   21.9520 C   0  0  0  0  0  3  0  0  0  0  0  0
  -23.5150   -8.2150   22.2210 C   0  0  0  0  0  3  0  0  0  0  0  0
  -22.2950   -7.9400   21.5580 C   0  0  0  0  0  0  0  0  0  0  0  0
  -21.8070   -8.8600   20.6140 C   0  0  0  0  0  3  0  0  0  0  0  0
  -22.5050  -10.0490   20.3440 C   0  0  0  0  0  3  0  0  0  0  0  0
  -21.5630   -6.7920   21.7370 O   0  0  0  0  0  0  0  0  0  0  0  0
  -21.5920   -6.0960   22.9180 C   0  0  0  0  0  0  0  0  0  0  0  0
  -21.2440   -6.7000   24.1470 C   0  0  0  0  0  3  0  0  0  0  0  0
  -21.2200   -5.9310   25.3270 C   0  0  0  0  0  3  0  0  0  0  0  0
  -21.5330   -4.5590   25.2810 C   0  0  0  0  0  0  0  0  0  0  0  0
  -21.8730   -3.9550   24.0580 C   0  0  0  0  0  3  0  0  0  0  0  0
  -21.8990   -4.7210   22.8790 C   0  0  0  0  0  0  0  0  0  0  0  0
  -22.2070   -4.1300   21.7000 F   0  0  0  0  0  0  0  0  0  0  0  0
  -21.5020   -3.8170   26.4140 F   0  0  0  0  0  0  0  0  0  0  0  0
  -22.5760  -13.4330   21.1810 C   0  0  0  0  0  0  0  0  0  0  0  0
  -21.9450  -12.7610   22.1370 N   0  0  0  0  0  0  0  0  0  0  0  0
  -22.0810  -14.4400   20.6760 O   0  0  0  0  0  0  0  0  0  0  0  0
  -22.3590  -11.9450   22.5630 H   0  0  0  0  0  0  0  0  0  0  0  0
  -21.0310  -13.0650   22.4440 H   0  0  0  0  0  0  0  0  0  0  0  0
  -25.1100  -15.0880   20.0770 N   0  0  0  0  0  0  0  0  0  0  0  0
  -24.3600  -15.7490   20.2530 H   0  0  0  0  0  0  0  0  0  0  0  0
  -25.9280  -15.5190   19.6640 H   0  0  0  0  0  0  0  0  0  0  0  0
  1  4  1  0
  1 49  1  0
  1  3  1  0
  2  1  1  0
  5  6  1  0
  5  4  1  0
  7  6  1  0
  8 10  1  0
  8  7  1  0
  9 20  2  0
 10 15  1  0
 11 19  1  0
 11 21  1  0
 12 18  1  0
 12 14  1  0
 13 19  1  0
 14 13  1  0
 15 14  2  0
 16 10  2  0
 17 16  1  0
 17 12  2  0
 18 11  1  0
 19  9  1  0
 21 23  2  0
 22 21  1  0
 24 22  1  0
 25 34  2  0
 25 30  1  0
 26 22  1  0
 26 30  1  0
 27 26  1  0
 28 29  1  0
 28 27  1  0
 29 25  1  0
 30 31  2  0
 31 32  1  0
 33 32  2  0
 34 33  1  0
 35  9  1  0
 35 40  1  0
 35 36  1  0
 36 39  1  1
 36 37  1  0
 38 36  1  0
 40 43  1  0
 41 45  1  0
 41 40  1  0
 42 41  2  0
 45 44  1  0
 47 48  1  0
 47 45  1  0
 47 46  1  0
 50 49  1  0
 50 51  1  0
 52 51  1  0
 52 53  1  0
 54 62  1  0
 55 60  1  0
 56 57  1  0
 56 55  1  0
 58 57  1  0
 58 67  1  0
 58 59  1  0
 60 54  1  0
 60 59  1  0
 61 54  2  0
 62 63  1  0
 62 53  1  0
 64 65  2  0
 65 84  1  0
 66 65  1  0
 66 69  1  0
 67 64  1  0
 67 68  1  0
 68 66  2  0
 69 70  1  0
 70 71  2  0
 72 75  1  0
 72 71  1  0
 73 72  2  0
 74 73  1  0
 74 69  2  0
 75 76  1  0
 76 77  1  0
 77 78  2  0
 79 78  1  0
 79 83  1  0
 80 79  2  0
 81 76  2  0
 81 80  1  0
 82 81  1  0
 84 85  1  0
 85 88  1  0
 85 87  1  0
 86 84  2  0
 89 90  1  0
 89 64  1  0
 91 89  1  0
M  ISO  4   7 101   8 101  54 100  62 100
M  END
>  <TORSDO>  (64) 
F 25

>  <SCORE>  (64) 
-10.507

>  <name>  (64) 
64

>  <ligand_id>  (64) 
64

>  <original_smiles>  (64) 
[H]c1c([H])c([H])c2c(c1[H])C([H])([H])C([H])([H])C([H])([H])C2([H])N([H])C(=O)C1([H])N(C(=O)C([H])(N([H])C(=O)C([H])(N([H])C([H])([H])[H])C([H])([H])[H])C(C([H])([H])[H])(C([H])([H])[H])C([H])([H])[H])C([H])([H])c2c([H])c(OC([H])([H])C([H])([H])C([H])([H])C([H])([H])[N+]([H])([H])C([H])([H])C([H])([H])C([H])([H])C([H])([H])C([H])([H])N([H])C(=O)N3C([H])([H])C([H])([H])C([H])([H])C([H])(n4nc(-c5c([H])c([H])c(Oc6c([H])c([H])c(F)c([H])c6F)c([H])c5[H])c(C(=O)N([H])[H])c4N([H])[H])C3([H])[H])c([H])c([H])c2C1([H])[H]

>  <smiles>  (64) 
[H]c1c([H])c([H])c2c(c1[H])C([H])([H])C([H])([H])C([H])([H])C2([H])N([H])C(=O)C1([H])N(C(=O)C([H])(N([H])C(=O)C([H])(N([H])C([H])([H])[H])C([H])([H])[H])C(C([H])([H])[H])(C([H])([H])[H])C([H])([H])[H])C([H])([H])c2c([H])c(OC([H])([H])C([H])([H])C([H])([H])C([H])([H])[N+]([H])([H])C([H])([H])C([H])([H])C([H])([H])C([H])([H])C([H])([H])N([H])C(=O)N3C([H])([H])C([H])([H])C([H])([H])C([H])(n4nc(-c5c([H])c([H])c(Oc6c([H])c([H])c(F)c([H])c6F)c([H])c5[H])c(C(=O)N([H])[H])c4N([H])[H])C3([H])[H])c([H])c([H])c2C1([H])[H]

$$$$
65:0:0
     RDKit          3D

 93101  0  0  1  0  0  0  0  0999 V2000
  -29.9240  -22.9990   20.7140 N   0  0  0  0  0  4  0  0  0  0  0  0
  -30.6520  -22.7270   21.3540 H   0  0  0  0  0  0  0  0  0  0  0  0
  -29.0610  -23.0650   21.2310 H   0  0  0  0  0  0  0  0  0  0  0  0
  -29.7600  -21.9330   19.6950 C   0  0  0  0  0  2  0  0  0  0  0  0
  -30.1540  -18.8030   22.0480 C   0  0  0  0  0  2  0  0  0  0  0  0
  -30.3650  -18.0670   19.5890 C   0  0  0  0  0  2  0  0  0  0  0  0
  -29.5740  -20.1390   21.5640 C   0  0  0  0  0  2  0  0  0  0  0  0
  -29.7900  -19.4360   19.1890 C   0  0  0  0  0  2  0  0  0  0  0  0
  -30.0200  -17.6420   21.0350 C   0  0  0  0  0  3  0  0  0  0  0  0
  -30.1790  -20.5320   20.2010 C   0  0  0  0  0  3  0  0  0  0  0  0
  -30.9380  -16.4800   21.4810 C   0  0  0  0  0  2  0  0  0  0  0  0
  -31.1750  -14.3320   20.1560 C   0  0  0  0  0  0  0  0  0  0  0  0
  -30.8200  -12.2060   18.9410 C   0  0  0  0  0  2  0  0  0  0  0  0
  -29.8450  -12.4390   17.7680 C   0  0  0  0  0  2  0  0  0  0  0  0
  -28.3740  -12.3700   18.2330 C   0  0  0  0  0  2  0  0  0  0  0  0
  -28.1100  -13.2330   19.4920 C   0  0  0  0  0  3  0  0  0  0  0  0
  -29.1590  -12.8970   20.5690 C   0  0  0  0  0  2  0  0  0  0  0  0
  -30.4900  -13.1760   19.9910 N   0  0  0  0  0  0  0  0  0  0  0  0
  -32.2580  -14.5800   19.6090 O   0  0  0  0  0  0  0  0  0  0  0  0
  -30.5210  -15.1980   20.9440 N   0  0  0  0  0  0  0  0  0  0  0  0
  -29.6240  -14.8640   21.2720 H   0  0  0  0  0  0  0  0  0  0  0  0
  -25.7680  -13.9990   20.2440 C   0  0  0  0  0  0  0  0  0  0  0  0
  -24.6640  -13.2930   20.6440 C   0  0  0  0  0  0  0  0  0  0  0  0
  -25.0470  -11.9160   20.6140 C   0  0  0  0  0  0  0  0  0  0  0  0
  -26.7530  -13.0540   19.9970 N   0  0  0  0  0  0  0  0  0  0  0  0
  -26.3230  -11.7980   20.2730 N   0  0  0  0  0  0  0  0  0  0  0  0
  -24.2560  -10.7000   20.8330 C   0  0  0  0  0  0  0  0  0  0  0  0
  -24.6390   -9.7370   21.7940 C   0  0  0  0  0  3  0  0  0  0  0  0
  -23.8570   -8.5800   21.9950 C   0  0  0  0  0  3  0  0  0  0  0  0
  -22.6770   -8.3810   21.2380 C   0  0  0  0  0  0  0  0  0  0  0  0
  -22.3140   -9.3310   20.2690 C   0  0  0  0  0  3  0  0  0  0  0  0
  -23.0960  -10.4800   20.0660 C   0  0  0  0  0  3  0  0  0  0  0  0
  -21.8660   -7.2770   21.3500 O   0  0  0  0  0  0  0  0  0  0  0  0
  -21.7420   -6.5950   22.5330 C   0  0  0  0  0  0  0  0  0  0  0  0
  -21.3070   -7.2280   23.7180 C   0  0  0  0  0  3  0  0  0  0  0  0
  -21.1250   -6.4730   24.8930 C   0  0  0  0  0  3  0  0  0  0  0  0
  -21.3650   -5.0850   24.8850 C   0  0  0  0  0  0  0  0  0  0  0  0
  -21.7940   -4.4530   23.7050 C   0  0  0  0  0  3  0  0  0  0  0  0
  -21.9790   -5.2040   22.5310 C   0  0  0  0  0  0  0  0  0  0  0  0
  -22.3720   -4.5860   21.3920 F   0  0  0  0  0  0  0  0  0  0  0  0
  -21.1830   -4.3590   26.0110 F   0  0  0  0  0  0  0  0  0  0  0  0
  -23.3050  -13.8500   20.9460 C   0  0  0  0  0  0  0  0  0  0  0  0
  -22.5640  -13.2100   21.8440 N   0  0  0  0  0  0  0  0  0  0  0  0
  -22.9100  -14.8920   20.4240 O   0  0  0  0  0  0  0  0  0  0  0  0
  -22.8980  -12.3660   22.2870 H   0  0  0  0  0  0  0  0  0  0  0  0
  -21.6520  -13.5680   22.0880 H   0  0  0  0  0  0  0  0  0  0  0  0
  -26.0080  -15.3570   20.0500 N   0  0  0  0  0  0  0  0  0  0  0  0
  -25.2810  -16.0520   20.1620 H   0  0  0  0  0  0  0  0  0  0  0  0
  -26.8730  -15.7410   19.6890 H   0  0  0  0  0  0  0  0  0  0  0  0
  -30.2810  -24.3230   20.1450 C   0  0  0  0  0  2  0  0  0  0  0  0
  -30.1720  -25.4880   21.1560 C   0  0  0  0  0  2  0  0  0  0  0  0
  -28.7590  -26.0710   21.3160 C   0  0  0  0  0  2  0  0  0  0  0  0
  -28.3910  -26.7130   20.1000 O   0  0  0  0  0  0  0  0  0  0  0  0
  -24.5880  -31.8740   23.2360 C   0  0  0  0  0  0  0  0  0  0  0  0
  -27.2340  -27.4440   20.1670 C   0  0  0  0  0  0  0  0  0  0  0  0
  -23.3840  -30.4690   21.5910 C   0  0  0  0  0  3  0  0  0  0  0  0
  -24.8390  -28.9260   20.1760 C   0  0  0  0  0  0  0  0  0  0  0  0
  -25.9050  -30.8270   21.4020 C   0  0  0  0  0  2  0  0  0  0  0  0
  -25.9900  -29.4550   20.7730 C   0  0  0  0  0  0  0  0  0  0  0  0
  -27.1930  -28.7180   20.7770 C   0  0  0  0  0  3  0  0  0  0  0  0
  -26.0740  -26.9210   19.5700 C   0  0  0  0  0  3  0  0  0  0  0  0
  -24.8700  -27.6530   19.5810 C   0  0  0  0  0  3  0  0  0  0  0  0
  -23.5930  -29.7860   20.2120 C   0  0  0  0  0  2  0  0  0  0  0  0
  -24.6430  -31.0760   22.1330 N   0  0  0  0  0  0  0  0  0  0  0  0
  -23.5070  -32.1420   23.7810 O   0  0  0  0  0  0  0  0  0  0  0  0
  -22.7330  -29.4500   22.5510 C   0  0  0  0  0  0  0  0  0  0  0  0
  -21.4060  -29.2740   22.4290 N   0  0  0  0  0  0  0  0  0  0  0  0
  -23.4170  -28.8190   23.3620 O   0  0  0  0  0  0  0  0  0  0  0  0
  -20.9150  -29.8380   21.7470 H   0  0  0  0  0  0  0  0  0  0  0  0
  -18.0310  -28.0950   22.9290 C   0  0  0  0  0  0  0  0  0  0  0  0
  -20.5870  -28.3410   23.2010 C   0  0  0  0  0  3  0  0  0  0  0  0
  -20.6840  -26.9080   22.6280 C   0  0  0  0  0  2  0  0  0  0  0  0
  -19.5820  -26.5870   21.6130 C   0  0  0  0  0  2  0  0  0  0  0  0
  -18.2020  -26.7410   22.2570 C   0  0  0  0  0  2  0  0  0  0  0  0
  -19.1530  -28.8500   23.3580 C   0  0  0  0  0  0  0  0  0  0  0  0
  -18.9420  -30.1150   23.9490 C   0  0  0  0  0  3  0  0  0  0  0  0
  -17.6410  -30.6250   24.1120 C   0  0  0  0  0  3  0  0  0  0  0  0
  -16.5330  -29.8640   23.7020 C   0  0  0  0  0  3  0  0  0  0  0  0
  -16.7270  -28.5980   23.1180 C   0  0  0  0  0  3  0  0  0  0  0  0
  -25.8790  -32.5030   23.8510 C   0  0  0  0  0  3  0  0  0  0  0  0
  -25.5700  -33.8990   24.1870 N   0  0  0  0  0  0  0  0  0  0  0  0
  -25.9000  -34.9530   23.4270 C   0  0  0  0  0  0  0  0  0  0  0  0
  -26.5660  -34.8530   22.3940 O   0  0  0  0  0  0  0  0  0  0  0  0
  -24.9790  -34.0500   24.9900 H   0  0  0  0  0  0  0  0  0  0  0  0
  -24.1720  -36.7480   23.0880 C   0  0  0  0  0  1  0  0  0  0  0  0
  -25.4140  -36.3400   23.8930 C   0  0  0  0  0  3  0  0  0  0  0  0
  -27.5530  -37.2260   24.7160 C   0  0  0  0  0  1  0  0  0  0  0  0
  -26.4460  -37.3920   23.7790 N   0  0  0  0  0  0  0  0  0  0  0  0
  -26.0390  -38.3090   23.9410 H   0  0  0  0  0  0  0  0  0  0  0  0
  -26.4080  -31.7190   25.1170 C   0  0  1  0  0  0  0  0  0  0  0  0
  -25.3280  -31.4730   26.1960 C   0  0  0  0  0  1  0  0  0  0  0  0
  -26.9900  -30.3420   24.7100 C   0  0  0  0  0  1  0  0  0  0  0  0
  -27.5670  -32.5100   25.7710 C   0  0  0  0  0  1  0  0  0  0  0  0
  1  3  1  0
  1  2  1  0
  4  1  1  0
  6  9  1  0
  7  5  1  0
  8  6  1  0
  8 10  1  0
  9 11  1  0
  9  5  1  0
 10  4  1  0
 10  7  1  0
 12 20  1  0
 13 18  1  0
 14 15  1  0
 14 13  1  0
 16 15  1  0
 16 25  1  0
 16 17  1  0
 18 12  1  0
 18 17  1  0
 19 12  2  0
 20 21  1  0
 20 11  1  0
 22 23  2  0
 23 42  1  0
 24 23  1  0
 24 27  1  0
 25 22  1  0
 25 26  1  0
 26 24  2  0
 27 28  1  0
 28 29  2  0
 30 33  1  0
 30 29  1  0
 31 30  2  0
 32 31  1  0
 32 27  2  0
 33 34  1  0
 34 35  1  0
 35 36  2  0
 37 36  1  0
 37 41  1  0
 38 37  2  0
 39 34  2  0
 39 38  1  0
 40 39  1  0
 42 43  1  0
 43 46  1  0
 43 45  1  0
 44 42  2  0
 47 48  1  0
 47 22  1  0
 49 47  1  0
 50  1  1  0
 50 51  1  0
 51 52  1  0
 53 55  1  0
 53 52  1  0
 54 65  2  0
 55 60  1  0
 56 64  1  0
 56 66  1  0
 57 63  1  0
 57 59  1  0
 58 64  1  0
 59 60  2  0
 59 58  1  0
 61 62  1  0
 61 55  2  0
 62 57  2  0
 63 56  1  0
 64 54  1  0
 66 68  2  0
 67 66  1  0
 69 67  1  0
 70 79  2  0
 70 75  1  0
 71 67  1  0
 71 75  1  0
 72 71  1  0
 73 74  1  0
 73 72  1  0
 74 70  1  0
 75 76  2  0
 76 77  1  0
 78 77  2  0
 79 78  1  0
 80 54  1  0
 80 81  1  0
 80 90  1  0
 81 84  1  0
 82 86  1  0
 82 81  1  0
 83 82  2  0
 86 85  1  0
 88 86  1  0
 88 89  1  0
 88 87  1  0
 90 93  1  1
 90 91  1  0
 92 90  1  0
M  ISO  4  12 100  20 100  52 101  53 101
M  END
>  <TORSDO>  (65) 
F 22

>  <SCORE>  (65) 
-12.381

>  <name>  (65) 
65

>  <ligand_id>  (65) 
65

>  <original_smiles>  (65) 
[H]c1c([H])c([H])c2c(c1[H])C([H])([H])C([H])([H])C([H])([H])C2([H])N([H])C(=O)C1([H])N(C(=O)C([H])(N([H])C(=O)C([H])(N([H])C([H])([H])[H])C([H])([H])[H])C(C([H])([H])[H])(C([H])([H])[H])C([H])([H])[H])C([H])([H])c2c([H])c(OC([H])([H])C([H])([H])C([H])([H])[N+]([H])([H])C([H])([H])C3([H])C([H])([H])C([H])([H])C([H])(C([H])([H])N([H])C(=O)N4C([H])([H])C([H])([H])C([H])([H])C([H])(n5nc(-c6c([H])c([H])c(Oc7c([H])c([H])c(F)c([H])c7F)c([H])c6[H])c(C(=O)N([H])[H])c5N([H])[H])C4([H])[H])C([H])([H])C3([H])[H])c([H])c([H])c2C1([H])[H]

>  <smiles>  (65) 
[H]c1c([H])c([H])c2c(c1[H])C([H])([H])C([H])([H])C([H])([H])C2([H])N([H])C(=O)C1([H])N(C(=O)C([H])(N([H])C(=O)C([H])(N([H])C([H])([H])[H])C([H])([H])[H])C(C([H])([H])[H])(C([H])([H])[H])C([H])([H])[H])C([H])([H])c2c([H])c(OC([H])([H])C([H])([H])C([H])([H])[N+]([H])([H])C([H])([H])C3([H])C([H])([H])C([H])([H])C([H])(C([H])([H])N([H])C(=O)N4C([H])([H])C([H])([H])C([H])([H])C([H])(n5nc(-c6c([H])c([H])c(Oc7c([H])c([H])c(F)c([H])c7F)c([H])c6[H])c(C(=O)N([H])[H])c5N([H])[H])C4([H])[H])C([H])([H])C3([H])[H])c([H])c([H])c2C1([H])[H]

$$$$
66:0:0
     RDKit          3D

 95103  0  0  1  0  0  0  0  0999 V2000
  -26.3920  -18.9720   18.2920 C   0  0  0  0  0  2  0  0  0  0  0  0
  -26.9580  -18.2460   19.5220 C   0  0  0  0  0  2  0  0  0  0  0  0
  -28.7460  -19.9870   20.1890 C   0  0  0  0  0  2  0  0  0  0  0  0
  -25.8690  -20.3980   18.5570 C   0  0  0  0  0  2  0  0  0  0  0  0
  -28.1820  -21.0360   19.2140 C   0  0  0  0  0  2  0  0  0  0  0  0
  -28.4540  -18.5250   19.7890 C   0  0  0  0  0  3  0  0  0  0  0  0
  -26.7270  -21.2290   19.4440 N   0  0  1  0  0  4  0  0  0  0  0  0
  -26.5500  -20.8930   20.3790 H   0  0  0  0  0  0  0  0  0  0  0  0
  -28.9920  -17.5300   20.8380 C   0  0  0  0  0  2  0  0  0  0  0  0
  -30.5310  -17.4420   20.8780 C   0  0  0  0  0  2  0  0  0  0  0  0
  -31.0640  -16.2880   21.7470 C   0  0  0  0  0  2  0  0  0  0  0  0
  -30.9150  -14.2690   20.2800 C   0  0  0  0  0  0  0  0  0  0  0  0
  -30.4610  -12.2380   18.9570 C   0  0  0  0  0  2  0  0  0  0  0  0
  -29.4930  -12.5200   17.7940 C   0  0  0  0  0  2  0  0  0  0  0  0
  -28.0280  -12.4180   18.2590 C   0  0  0  0  0  2  0  0  0  0  0  0
  -27.7560  -13.2290   19.5510 C   0  0  0  0  0  3  0  0  0  0  0  0
  -28.8200  -12.9100   20.6240 C   0  0  0  0  0  2  0  0  0  0  0  0
  -30.1570  -13.1680   20.0520 N   0  0  0  0  0  0  0  0  0  0  0  0
  -31.9060  -14.5710   19.6070 O   0  0  0  0  0  0  0  0  0  0  0  0
  -30.5230  -14.9990   21.3290 N   0  0  0  0  0  0  0  0  0  0  0  0
  -29.7260  -14.6500   21.8410 H   0  0  0  0  0  0  0  0  0  0  0  0
  -25.3800  -13.9020   20.2960 C   0  0  0  0  0  0  0  0  0  0  0  0
  -24.2990  -13.1610   20.6870 C   0  0  0  0  0  0  0  0  0  0  0  0
  -24.7280  -11.8000   20.6580 C   0  0  0  0  0  0  0  0  0  0  0  0
  -26.4010  -12.9950   20.0520 N   0  0  0  0  0  0  0  0  0  0  0  0
  -26.0100  -11.7250   20.3250 N   0  0  0  0  0  0  0  0  0  0  0  0
  -23.9750  -10.5590   20.8760 C   0  0  0  0  0  0  0  0  0  0  0  0
  -24.3870   -9.6020   21.8300 C   0  0  0  0  0  3  0  0  0  0  0  0
  -23.6370   -8.4260   22.0330 C   0  0  0  0  0  3  0  0  0  0  0  0
  -22.4590   -8.1970   21.2830 C   0  0  0  0  0  0  0  0  0  0  0  0
  -22.0650   -9.1420   20.3180 C   0  0  0  0  0  3  0  0  0  0  0  0
  -22.8160  -10.3110   20.1130 C   0  0  0  0  0  3  0  0  0  0  0  0
  -21.6800   -7.0710   21.3930 O   0  0  0  0  0  0  0  0  0  0  0  0
  -21.5930   -6.3690   22.5690 C   0  0  0  0  0  0  0  0  0  0  0  0
  -21.1530   -6.9750   23.7660 C   0  0  0  0  0  3  0  0  0  0  0  0
  -21.0120   -6.2000   24.9360 C   0  0  0  0  0  3  0  0  0  0  0  0
  -21.3020   -4.8230   24.9080 C   0  0  0  0  0  0  0  0  0  0  0  0
  -21.7350   -4.2180   23.7150 C   0  0  0  0  0  3  0  0  0  0  0  0
  -21.8770   -4.9890   22.5480 C   0  0  0  0  0  0  0  0  0  0  0  0
  -22.2750   -4.3980   21.3960 F   0  0  0  0  0  0  0  0  0  0  0  0
  -21.1580   -4.0780   26.0280 F   0  0  0  0  0  0  0  0  0  0  0  0
  -22.9210  -13.6780   20.9840 C   0  0  0  0  0  0  0  0  0  0  0  0
  -22.1950  -13.0120   21.8750 N   0  0  0  0  0  0  0  0  0  0  0  0
  -22.4960  -14.7070   20.4600 O   0  0  0  0  0  0  0  0  0  0  0  0
  -22.5520  -12.1790   22.3200 H   0  0  0  0  0  0  0  0  0  0  0  0
  -21.2710  -13.3400   22.1180 H   0  0  0  0  0  0  0  0  0  0  0  0
  -25.5700  -15.2630   20.1140 N   0  0  0  0  0  0  0  0  0  0  0  0
  -24.8240  -15.9360   20.2490 H   0  0  0  0  0  0  0  0  0  0  0  0
  -26.4390  -15.6810   19.8130 H   0  0  0  0  0  0  0  0  0  0  0  0
  -26.2840  -22.6480   19.4490 C   0  0  0  0  0  2  0  0  0  0  0  0
  -26.4950  -23.3810   20.7970 C   0  0  0  0  0  2  0  0  0  0  0  0
  -27.8870  -24.0210   20.9690 C   0  0  0  0  0  2  0  0  0  0  0  0
  -27.9210  -25.1960   21.9650 C   0  0  0  0  0  2  0  0  0  0  0  0
  -28.9010  -26.3030   21.5200 C   0  0  0  0  0  2  0  0  0  0  0  0
  -28.5570  -26.7730   20.2140 O   0  0  0  0  0  0  0  0  0  0  0  0
  -24.5690  -31.8210   23.1900 C   0  0  0  0  0  0  0  0  0  0  0  0
  -27.3920  -27.4910   20.1730 C   0  0  0  0  0  0  0  0  0  0  0  0
  -23.4320  -30.4030   21.5060 C   0  0  0  0  0  3  0  0  0  0  0  0
  -24.9590  -28.9050   20.1160 C   0  0  0  0  0  0  0  0  0  0  0  0
  -25.9470  -30.8280   21.3760 C   0  0  0  0  0  2  0  0  0  0  0  0
  -26.0800  -29.4630   20.7420 C   0  0  0  0  0  0  0  0  0  0  0  0
  -27.2990  -28.7610   20.7760 C   0  0  0  0  0  3  0  0  0  0  0  0
  -26.2640  -26.9390   19.5310 C   0  0  0  0  0  3  0  0  0  0  0  0
  -25.0420  -27.6370   19.5110 C   0  0  0  0  0  3  0  0  0  0  0  0
  -23.6910  -29.7260   20.1310 C   0  0  0  0  0  2  0  0  0  0  0  0
  -24.6650  -31.0310   22.0840 N   0  0  0  0  0  0  0  0  0  0  0  0
  -23.4680  -32.0710   23.7020 O   0  0  0  0  0  0  0  0  0  0  0  0
  -22.7740  -29.3690   22.4450 C   0  0  0  0  0  0  0  0  0  0  0  0
  -21.4520  -29.1900   22.3000 N   0  0  0  0  0  0  0  0  0  0  0  0
  -23.4490  -28.7290   23.2560 O   0  0  0  0  0  0  0  0  0  0  0  0
  -20.9690  -29.7610   21.6200 H   0  0  0  0  0  0  0  0  0  0  0  0
  -18.0650  -28.0230   22.7590 C   0  0  0  0  0  0  0  0  0  0  0  0
  -20.6240  -28.2410   23.0430 C   0  0  0  0  0  3  0  0  0  0  0  0
  -20.7120  -26.8250   22.4280 C   0  0  0  0  0  2  0  0  0  0  0  0
  -19.6060  -26.5440   21.4040 C   0  0  0  0  0  2  0  0  0  0  0  0
  -18.2260  -26.6900   22.0490 C   0  0  0  0  0  2  0  0  0  0  0  0
  -19.1910  -28.7590   23.2110 C   0  0  0  0  0  0  0  0  0  0  0  0
  -18.9880  -30.0110   23.8330 C   0  0  0  0  0  3  0  0  0  0  0  0
  -17.6900  -30.5260   24.0070 C   0  0  0  0  0  3  0  0  0  0  0  0
  -16.5770  -29.7850   23.5720 C   0  0  0  0  0  3  0  0  0  0  0  0
  -16.7650  -28.5360   22.9550 C   0  0  0  0  0  3  0  0  0  0  0  0
  -25.8280  -32.4680   23.8490 C   0  0  0  0  0  3  0  0  0  0  0  0
  -25.4930  -33.8610   24.1690 N   0  0  0  0  0  0  0  0  0  0  0  0
  -25.8300  -34.9150   23.4150 C   0  0  0  0  0  0  0  0  0  0  0  0
  -26.5260  -34.8170   22.4000 O   0  0  0  0  0  0  0  0  0  0  0  0
  -24.8810  -34.0100   24.9580 H   0  0  0  0  0  0  0  0  0  0  0  0
  -24.0840  -36.6750   23.0100 C   0  0  0  0  0  1  0  0  0  0  0  0
  -25.3110  -36.2960   23.8540 C   0  0  0  0  0  3  0  0  0  0  0  0
  -27.4130  -37.2160   24.7270 C   0  0  0  0  0  1  0  0  0  0  0  0
  -26.3290  -37.3650   23.7590 N   0  0  0  0  0  0  0  0  0  0  0  0
  -25.9070  -38.2790   23.8960 H   0  0  0  0  0  0  0  0  0  0  0  0
  -26.3200  -31.6990   25.1360 C   0  0  1  0  0  0  0  0  0  0  0  0
  -25.1990  -31.4460   26.1720 C   0  0  0  0  0  1  0  0  0  0  0  0
  -26.9320  -30.3310   24.7520 C   0  0  0  0  0  1  0  0  0  0  0  0
  -27.4380  -32.5080   25.8320 C   0  0  0  0  0  1  0  0  0  0  0  0
  1  4  1  0
  1  2  1  0
  2  6  1  0
  4  7  1  0
  5  7  1  0
  5  3  1  0
  6  3  1  0
  6  9  1  0
  7 50  1  0
  7  8  1  1
  9 10  1  0
 10 11  1  0
 12 20  1  0
 13 18  1  0
 14 15  1  0
 14 13  1  0
 16 15  1  0
 16 25  1  0
 16 17  1  0
 18 12  1  0
 18 17  1  0
 19 12  2  0
 20 11  1  0
 20 21  1  0
 22 23  2  0
 23 42  1  0
 24 23  1  0
 24 27  1  0
 25 22  1  0
 25 26  1  0
 26 24  2  0
 27 28  1  0
 28 29  2  0
 30 33  1  0
 30 29  1  0
 31 30  2  0
 32 31  1  0
 32 27  2  0
 33 34  1  0
 34 35  1  0
 35 36  2  0
 37 36  1  0
 37 41  1  0
 38 37  2  0
 39 34  2  0
 39 38  1  0
 40 39  1  0
 42 43  1  0
 43 46  1  0
 43 45  1  0
 44 42  2  0
 47 48  1  0
 47 22  1  0
 49 47  1  0
 50 51  1  0
 51 52  1  0
 52 53  1  0
 54 53  1  0
 55 54  1  0
 56 67  2  0
 57 55  1  0
 57 62  1  0
 58 66  1  0
 58 68  1  0
 59 65  1  0
 59 61  1  0
 60 66  1  0
 61 62  2  0
 61 60  1  0
 63 57  2  0
 64 63  1  0
 64 59  2  0
 65 58  1  0
 66 56  1  0
 68 70  2  0
 69 68  1  0
 71 69  1  0
 72 81  2  0
 72 77  1  0
 73 69  1  0
 73 77  1  0
 74 73  1  0
 75 76  1  0
 75 74  1  0
 76 72  1  0
 77 78  2  0
 78 79  1  0
 80 79  2  0
 81 80  1  0
 82 56  1  0
 82 83  1  0
 82 92  1  0
 83 86  1  0
 84 88  1  0
 84 83  1  0
 85 84  2  0
 88 87  1  0
 90 88  1  0
 90 91  1  0
 90 89  1  0
 92 95  1  1
 92 93  1  0
 94 92  1  0
M  ISO  4  12 100  20 100  54 101  55 101
M  END
>  <TORSDO>  (66) 
F 24

>  <SCORE>  (66) 
-12.309

>  <name>  (66) 
66

>  <ligand_id>  (66) 
66

>  <original_smiles>  (66) 
[H]c1c([H])c([H])c2c(c1[H])C([H])([H])C([H])([H])C([H])([H])C2([H])N([H])C(=O)C1([H])N(C(=O)C([H])(N([H])C(=O)C([H])(N([H])C([H])([H])[H])C([H])([H])[H])C(C([H])([H])[H])(C([H])([H])[H])C([H])([H])[H])C([H])([H])c2c([H])c(OC([H])([H])C([H])([H])C([H])([H])C([H])([H])C([H])([H])[N+]3([H])C([H])([H])C([H])([H])C([H])([H])C([H])(C([H])([H])C([H])([H])C([H])([H])N([H])C(=O)N4C([H])([H])C([H])([H])C([H])([H])C([H])(n5nc(-c6c([H])c([H])c(Oc7c([H])c([H])c(F)c([H])c7F)c([H])c6[H])c(C(=O)N([H])[H])c5N([H])[H])C4([H])[H])C([H])([H])C3([H])[H])c([H])c([H])c2C1([H])[H]

>  <smiles>  (66) 
[H]c1c([H])c([H])c2c(c1[H])C([H])([H])C([H])([H])C([H])([H])C2([H])N([H])C(=O)C1([H])N(C(=O)C([H])(N([H])C(=O)C([H])(N([H])C([H])([H])[H])C([H])([H])[H])C(C([H])([H])[H])(C([H])([H])[H])C([H])([H])[H])C([H])([H])c2c([H])c(OC([H])([H])C([H])([H])C([H])([H])C([H])([H])C([H])([H])[N+]3([H])C([H])([H])C([H])([H])C([H])([H])C([H])(C([H])([H])C([H])([H])C([H])([H])N([H])C(=O)N4C([H])([H])C([H])([H])C([H])([H])C([H])(n5nc(-c6c([H])c([H])c(Oc7c([H])c([H])c(F)c([H])c7F)c([H])c6[H])c(C(=O)N([H])[H])c5N([H])[H])C4([H])[H])C([H])([H])C3([H])[H])c([H])c([H])c2C1([H])[H]

$$$$
67:0:0
     RDKit          3D

 92 99  0  0  1  0  0  0  0  0999 V2000
  -30.2770  -22.7660   18.8780 C   0  0  0  0  0  2  0  0  0  0  0  0
  -30.2040  -21.4540   19.5400 N   0  0  0  0  0  4  0  0  0  0  0  0
  -29.2260  -21.4050   19.7990 H   0  0  0  0  0  0  0  0  0  0  0  0
  -30.7670  -21.4600   20.3740 H   0  0  0  0  0  0  0  0  0  0  0  0
  -30.5080  -20.2830   18.6970 C   0  0  0  0  0  2  0  0  0  0  0  0
  -29.8550  -19.0060   19.2590 C   0  0  0  0  0  2  0  0  0  0  0  0
  -30.3600  -18.5980   20.6340 C   0  0  0  0  0  3  0  0  0  0  0  0
  -30.6680  -17.3150   20.9130 C   0  0  0  0  0  3  0  0  0  0  0  0
  -31.0250  -16.2070   21.9050 C   0  0  0  0  0  2  0  0  0  0  0  0
  -30.7650  -14.2680   20.3620 C   0  0  0  0  0  0  0  0  0  0  0  0
  -30.2920  -12.2690   19.0010 C   0  0  0  0  0  2  0  0  0  0  0  0
  -29.3170  -12.5760   17.8520 C   0  0  0  0  0  2  0  0  0  0  0  0
  -27.8560  -12.4550   18.3260 C   0  0  0  0  0  2  0  0  0  0  0  0
  -27.5890  -13.2340   19.6420 C   0  0  0  0  0  3  0  0  0  0  0  0
  -28.6680  -12.9080   20.6990 C   0  0  0  0  0  2  0  0  0  0  0  0
  -30.0000  -13.1760   20.1190 N   0  0  0  0  0  0  0  0  0  0  0  0
  -31.7360  -14.5920   19.6690 O   0  0  0  0  0  0  0  0  0  0  0  0
  -30.4240  -14.9560   21.4570 N   0  0  0  0  0  0  0  0  0  0  0  0
  -29.6580  -14.5830   22.0000 H   0  0  0  0  0  0  0  0  0  0  0  0
  -25.2070  -13.8610   20.4010 C   0  0  0  0  0  0  0  0  0  0  0  0
  -24.1430  -13.0950   20.8000 C   0  0  0  0  0  0  0  0  0  0  0  0
  -24.5950  -11.7410   20.7600 C   0  0  0  0  0  0  0  0  0  0  0  0
  -26.2420  -12.9730   20.1490 N   0  0  0  0  0  0  0  0  0  0  0  0
  -25.8770  -11.6930   20.4170 N   0  0  0  0  0  0  0  0  0  0  0  0
  -23.8700  -10.4820   20.9730 C   0  0  0  0  0  0  0  0  0  0  0  0
  -24.3240   -9.5140   21.8930 C   0  0  0  0  0  3  0  0  0  0  0  0
  -23.5980   -8.3190   22.0920 C   0  0  0  0  0  3  0  0  0  0  0  0
  -22.4030   -8.0870   21.3720 C   0  0  0  0  0  0  0  0  0  0  0  0
  -21.9680   -9.0450   20.4390 C   0  0  0  0  0  3  0  0  0  0  0  0
  -22.6940  -10.2300   20.2380 C   0  0  0  0  0  3  0  0  0  0  0  0
  -21.6460   -6.9460   21.4820 O   0  0  0  0  0  0  0  0  0  0  0  0
  -21.6330   -6.1980   22.6320 C   0  0  0  0  0  0  0  0  0  0  0  0
  -21.2680   -6.7520   23.8780 C   0  0  0  0  0  3  0  0  0  0  0  0
  -21.2010   -5.9300   25.0210 C   0  0  0  0  0  3  0  0  0  0  0  0
  -21.4900   -4.5570   24.9200 C   0  0  0  0  0  0  0  0  0  0  0  0
  -21.8480   -4.0020   23.6780 C   0  0  0  0  0  3  0  0  0  0  0  0
  -21.9170   -4.8200   22.5380 C   0  0  0  0  0  0  0  0  0  0  0  0
  -22.2440   -4.2780   21.3400 F   0  0  0  0  0  0  0  0  0  0  0  0
  -21.4190   -3.7650   26.0150 F   0  0  0  0  0  0  0  0  0  0  0  0
  -22.7560  -13.5790   21.1080 C   0  0  0  0  0  0  0  0  0  0  0  0
  -22.0490  -12.8900   21.9980 N   0  0  0  0  0  0  0  0  0  0  0  0
  -22.3090  -14.6040   20.5970 O   0  0  0  0  0  0  0  0  0  0  0  0
  -22.4230  -12.0620   22.4360 H   0  0  0  0  0  0  0  0  0  0  0  0
  -21.1190  -13.1990   22.2440 H   0  0  0  0  0  0  0  0  0  0  0  0
  -25.3730  -15.2310   20.2180 N   0  0  0  0  0  0  0  0  0  0  0  0
  -24.6150  -15.8910   20.3510 H   0  0  0  0  0  0  0  0  0  0  0  0
  -26.2220  -15.6680   19.8800 H   0  0  0  0  0  0  0  0  0  0  0  0
  -28.8440  -23.2950   18.8830 C   0  0  0  0  0  0  0  0  0  0  0  0
  -27.8810  -22.5300   19.0170 O   0  0  0  0  0  0  0  0  0  0  0  0
  -28.6340  -24.8000   18.7830 C   0  0  0  0  0  2  0  0  0  0  0  0
  -28.4410  -25.3960   20.1850 C   0  0  0  0  0  2  0  0  0  0  0  0
  -28.4340  -26.8170   20.1470 O   0  0  0  0  0  0  0  0  0  0  0  0
  -24.5670  -31.8790   23.2340 C   0  0  0  0  0  0  0  0  0  0  0  0
  -27.2240  -27.4690   20.1540 C   0  0  0  0  0  0  0  0  0  0  0  0
  -23.3600  -30.4790   21.5870 C   0  0  0  0  0  3  0  0  0  0  0  0
  -24.8150  -28.9390   20.1700 C   0  0  0  0  0  0  0  0  0  0  0  0
  -25.8800  -30.8490   21.3850 C   0  0  0  0  0  2  0  0  0  0  0  0
  -25.9680  -29.4790   20.7490 C   0  0  0  0  0  0  0  0  0  0  0  0
  -27.1750  -28.7520   20.7330 C   0  0  0  0  0  3  0  0  0  0  0  0
  -26.0470  -26.9230   19.5890 C   0  0  0  0  0  3  0  0  0  0  0  0
  -24.8460  -27.6580   19.5910 C   0  0  0  0  0  3  0  0  0  0  0  0
  -23.5690  -29.7930   20.2100 C   0  0  0  0  0  2  0  0  0  0  0  0
  -24.6210  -31.0840   22.1290 N   0  0  0  0  0  0  0  0  0  0  0  0
  -23.4870  -32.1500   23.7740 O   0  0  0  0  0  0  0  0  0  0  0  0
  -22.7070  -29.4590   22.5460 C   0  0  0  0  0  0  0  0  0  0  0  0
  -21.3830  -29.2820   22.4160 N   0  0  0  0  0  0  0  0  0  0  0  0
  -23.3880  -28.8300   23.3590 O   0  0  0  0  0  0  0  0  0  0  0  0
  -20.8960  -29.8430   21.7310 H   0  0  0  0  0  0  0  0  0  0  0  0
  -18.0030  -28.1050   22.9020 C   0  0  0  0  0  0  0  0  0  0  0  0
  -20.5610  -28.3460   23.1810 C   0  0  0  0  0  3  0  0  0  0  0  0
  -20.6570  -26.9160   22.6000 C   0  0  0  0  0  2  0  0  0  0  0  0
  -19.5550  -26.6040   21.5810 C   0  0  0  0  0  2  0  0  0  0  0  0
  -18.1730  -26.7560   22.2240 C   0  0  0  0  0  2  0  0  0  0  0  0
  -19.1250  -28.8590   23.3370 C   0  0  0  0  0  0  0  0  0  0  0  0
  -18.9150  -30.1230   23.9290 C   0  0  0  0  0  3  0  0  0  0  0  0
  -17.6130  -30.6330   24.0920 C   0  0  0  0  0  3  0  0  0  0  0  0
  -16.5040  -29.8760   23.6740 C   0  0  0  0  0  3  0  0  0  0  0  0
  -16.7000  -28.6150   23.0860 C   0  0  0  0  0  3  0  0  0  0  0  0
  -25.8550  -32.5040   23.8580 C   0  0  0  0  0  3  0  0  0  0  0  0
  -26.3710  -31.7280   25.1310 C   0  0  1  0  0  0  0  0  0  0  0  0
  -25.2790  -31.4920   26.2010 C   0  0  0  0  0  1  0  0  0  0  0  0
  -26.9480  -30.3500   24.7300 C   0  0  0  0  0  1  0  0  0  0  0  0
  -27.5240  -32.5180   25.7950 C   0  0  0  0  0  1  0  0  0  0  0  0
  -25.5510  -33.9030   24.1880 N   0  0  0  0  0  0  0  0  0  0  0  0
  -25.8910  -34.9530   23.4270 C   0  0  0  0  0  0  0  0  0  0  0  0
  -26.5650  -34.8460   22.3990 O   0  0  0  0  0  0  0  0  0  0  0  0
  -24.9550  -34.0620   24.9860 H   0  0  0  0  0  0  0  0  0  0  0  0
  -24.1680  -36.7480   23.0660 C   0  0  0  0  0  1  0  0  0  0  0  0
  -25.4070  -36.3430   23.8810 C   0  0  0  0  0  3  0  0  0  0  0  0
  -27.5430  -37.2210   24.7130 C   0  0  0  0  0  1  0  0  0  0  0  0
  -26.4430  -37.3920   23.7680 N   0  0  0  0  0  0  0  0  0  0  0  0
  -26.0400  -38.3140   23.9140 H   0  0  0  0  0  0  0  0  0  0  0  0
  1 48  1  0
  1  2  1  0
  2  3  1  0
  2  4  1  0
  5  6  1  0
  5  2  1  0
  6  7  1  0
  7  8  2  0
  8  9  1  0
 10 18  1  0
 11 16  1  0
 12 13  1  0
 12 11  1  0
 14 13  1  0
 14 23  1  0
 14 15  1  0
 16 10  1  0
 16 15  1  0
 17 10  2  0
 18  9  1  0
 18 19  1  0
 20 21  2  0
 21 40  1  0
 22 21  1  0
 22 25  1  0
 23 20  1  0
 23 24  1  0
 24 22  2  0
 25 26  1  0
 26 27  2  0
 28 31  1  0
 28 27  1  0
 29 28  2  0
 30 29  1  0
 30 25  2  0
 31 32  1  0
 32 33  1  0
 33 34  2  0
 35 34  1  0
 35 39  1  0
 36 35  2  0
 37 32  2  0
 37 36  1  0
 38 37  1  0
 40 41  1  0
 41 44  1  0
 41 43  1  0
 42 40  2  0
 45 46  1  0
 45 20  1  0
 47 45  1  0
 48 49  2  0
 50 48  1  0
 50 51  1  0
 52 54  1  0
 52 51  1  0
 53 64  2  0
 54 59  1  0
 55 63  1  0
 55 65  1  0
 56 62  1  0
 56 58  1  0
 57 63  1  0
 58 57  1  0
 59 58  2  0
 60 61  1  0
 60 54  2  0
 61 56  2  0
 62 55  1  0
 63 53  1  0
 65 67  2  0
 66 65  1  0
 68 66  1  0
 69 78  2  0
 69 74  1  0
 70 66  1  0
 70 74  1  0
 71 70  1  0
 72 73  1  0
 72 71  1  0
 73 69  1  0
 74 75  2  0
 75 76  1  0
 77 76  2  0
 78 77  1  0
 79 53  1  0
 79 84  1  0
 79 80  1  0
 80 83  1  1
 80 81  1  0
 82 80  1  0
 84 87  1  0
 85 89  1  0
 85 84  1  0
 86 85  2  0
 89 88  1  0
 91 89  1  0
 91 92  1  0
 91 90  1  0
M  ISO  4  10 100  18 100  51 101  52 101
M  END
>  <TORSDO>  (67) 
F 24

>  <SCORE>  (67) 
-12.357

>  <name>  (67) 
67

>  <ligand_id>  (67) 
67

>  <original_smiles>  (67) 
[H]C(=C([H])C([H])([H])C([H])([H])[N+]([H])([H])C([H])([H])C(=O)C([H])([H])C([H])([H])Oc1c([H])c([H])c2c(c1[H])C([H])([H])N(C(=O)C([H])(N([H])C(=O)C([H])(N([H])C([H])([H])[H])C([H])([H])[H])C(C([H])([H])[H])(C([H])([H])[H])C([H])([H])[H])C([H])(C(=O)N([H])C1([H])c3c([H])c([H])c([H])c([H])c3C([H])([H])C([H])([H])C1([H])[H])C2([H])[H])C([H])([H])N([H])C(=O)N1C([H])([H])C([H])([H])C([H])([H])C([H])(n2nc(-c3c([H])c([H])c(Oc4c([H])c([H])c(F)c([H])c4F)c([H])c3[H])c(C(=O)N([H])[H])c2N([H])[H])C1([H])[H]

>  <smiles>  (67) 
[H]C(=C([H])C([H])([H])C([H])([H])[N+]([H])([H])C([H])([H])C(=O)C([H])([H])C([H])([H])Oc1c([H])c([H])c2c(c1[H])C([H])([H])N(C(=O)C([H])(N([H])C(=O)C([H])(N([H])C([H])([H])[H])C([H])([H])[H])C(C([H])([H])[H])(C([H])([H])[H])C([H])([H])[H])C([H])(C(=O)N([H])C1([H])c3c([H])c([H])c([H])c([H])c3C([H])([H])C([H])([H])C1([H])[H])C2([H])[H])C([H])([H])N([H])C(=O)N1C([H])([H])C([H])([H])C([H])([H])C([H])(n2nc(-c3c([H])c([H])c(Oc4c([H])c([H])c(F)c([H])c4F)c([H])c3[H])c(C(=O)N([H])[H])c2N([H])[H])C1([H])[H]

$$$$
68:0:0
     RDKit          3D

 98106  0  0  1  0  0  0  0  0999 V2000
  -30.9880  -19.2820   21.6890 C   0  0  0  0  0  2  0  0  0  0  0  0
  -28.4010  -19.9770   20.5930 C   0  0  0  0  0  2  0  0  0  0  0  0
  -30.3360  -20.6200   22.1030 C   0  0  0  0  0  3  0  0  0  0  0  0
  -29.4010  -21.1190   20.9610 C   0  0  0  0  0  3  0  0  0  0  0  0
  -29.9700  -18.1750   21.3210 C   0  0  0  0  0  3  0  0  0  0  0  0
  -29.0710  -18.6900   20.2560 N   0  0  0  0  0  4  0  0  0  0  0  0
  -29.5940  -18.8110   19.4030 H   0  0  0  0  0  0  0  0  0  0  0  0
  -28.3560  -18.0050   20.0670 H   0  0  0  0  0  0  0  0  0  0  0  0
  -28.6660  -22.3220   21.4070 N   0  0  0  0  0  0  0  0  0  0  0  0
  -27.6670  -22.1690   21.2790 H   0  0  0  0  0  0  0  0  0  0  0  0
  -29.0130  -23.5820   20.7230 C   0  0  0  0  0  2  0  0  0  0  0  0
  -28.3760  -24.7850   21.4730 C   0  0  0  0  0  2  0  0  0  0  0  0
  -28.9560  -26.1930   21.1600 C   0  0  0  0  0  2  0  0  0  0  0  0
  -28.4640  -26.7680   19.9500 O   0  0  0  0  0  0  0  0  0  0  0  0
  -24.5960  -31.8770   23.1780 C   0  0  0  0  0  0  0  0  0  0  0  0
  -27.3060  -27.5070   20.0420 C   0  0  0  0  0  0  0  0  0  0  0  0
  -23.4180  -30.4880   21.5010 C   0  0  0  0  0  3  0  0  0  0  0  0
  -24.8970  -28.9860   20.0680 C   0  0  0  0  0  0  0  0  0  0  0  0
  -25.9400  -30.8750   21.3310 C   0  0  0  0  0  2  0  0  0  0  0  0
  -26.0450  -29.5110   20.6770 C   0  0  0  0  0  0  0  0  0  0  0  0
  -27.2550  -28.7750   20.6700 C   0  0  0  0  0  3  0  0  0  0  0  0
  -26.1470  -27.0000   19.4230 C   0  0  0  0  0  3  0  0  0  0  0  0
  -24.9410  -27.7270   19.4420 C   0  0  0  0  0  3  0  0  0  0  0  0
  -23.6460  -29.8330   20.1140 C   0  0  0  0  0  2  0  0  0  0  0  0
  -24.6670  -31.0940   22.0630 N   0  0  0  0  0  0  0  0  0  0  0  0
  -23.5080  -32.1340   23.7150 O   0  0  0  0  0  0  0  0  0  0  0  0
  -22.7670  -29.4470   22.4410 C   0  0  0  0  0  0  0  0  0  0  0  0
  -21.4430  -29.2700   22.3100 N   0  0  0  0  0  0  0  0  0  0  0  0
  -23.4520  -28.8020   23.2390 O   0  0  0  0  0  0  0  0  0  0  0  0
  -20.9560  -29.8400   21.6330 H   0  0  0  0  0  0  0  0  0  0  0  0
  -18.0620  -28.0940   22.8120 C   0  0  0  0  0  0  0  0  0  0  0  0
  -20.6250  -28.3160   23.0610 C   0  0  0  0  0  3  0  0  0  0  0  0
  -20.7060  -26.9050   22.4350 C   0  0  0  0  0  2  0  0  0  0  0  0
  -19.5880  -26.6290   21.4250 C   0  0  0  0  0  2  0  0  0  0  0  0
  -18.2150  -26.7650   22.0910 C   0  0  0  0  0  2  0  0  0  0  0  0
  -19.1940  -28.8290   23.2530 C   0  0  0  0  0  0  0  0  0  0  0  0
  -18.9990  -30.0740   23.8890 C   0  0  0  0  0  3  0  0  0  0  0  0
  -17.7030  -30.5850   24.0880 C   0  0  0  0  0  3  0  0  0  0  0  0
  -16.5840  -29.8470   23.6630 C   0  0  0  0  0  3  0  0  0  0  0  0
  -16.7640  -28.6030   23.0320 C   0  0  0  0  0  3  0  0  0  0  0  0
  -25.8730  -32.5060   23.8180 C   0  0  0  0  0  3  0  0  0  0  0  0
  -26.3840  -31.7230   25.0900 C   0  0  1  0  0  0  0  0  0  0  0  0
  -25.2810  -31.4590   26.1410 C   0  0  0  0  0  1  0  0  0  0  0  0
  -26.9840  -30.3550   24.6860 C   0  0  0  0  0  1  0  0  0  0  0  0
  -27.5220  -32.5190   25.7730 C   0  0  0  0  0  1  0  0  0  0  0  0
  -25.5570  -33.9000   24.1560 N   0  0  0  0  0  0  0  0  0  0  0  0
  -25.8920  -34.9570   23.4050 C   0  0  0  0  0  0  0  0  0  0  0  0
  -26.5720  -34.8630   22.3790 O   0  0  0  0  0  0  0  0  0  0  0  0
  -24.9510  -34.0480   24.9500 H   0  0  0  0  0  0  0  0  0  0  0  0
  -24.1650  -36.7490   23.0350 C   0  0  0  0  0  1  0  0  0  0  0  0
  -25.3930  -36.3410   23.8650 C   0  0  0  0  0  3  0  0  0  0  0  0
  -27.5050  -37.2260   24.7500 C   0  0  0  0  0  1  0  0  0  0  0  0
  -26.4250  -37.3970   23.7800 N   0  0  0  0  0  0  0  0  0  0  0  0
  -26.0150  -38.3150   23.9230 H   0  0  0  0  0  0  0  0  0  0  0  0
  -31.4340  -21.6380   22.4920 C   0  0  0  0  0  2  0  0  0  0  0  0
  -30.8810  -22.7360   23.3000 N   0  0  0  0  0  4  0  0  0  0  0  0
  -30.0150  -23.0140   22.8530 H   0  0  0  0  0  0  0  0  0  0  0  0
  -31.5190  -23.5090   23.3440 H   0  0  0  0  0  0  0  0  0  0  0  0
  -30.6740  -22.4280   24.2330 H   0  0  0  0  0  0  0  0  0  0  0  0
  -30.7550  -16.8910   20.9120 C   0  0  0  0  0  2  0  0  0  0  0  0
  -30.6220  -14.5350   20.2210 C   0  0  0  0  0  0  0  0  0  0  0  0
  -30.2230  -12.4140   19.0380 C   0  0  0  0  0  2  0  0  0  0  0  0
  -29.2340  -12.6560   17.8810 C   0  0  0  0  0  2  0  0  0  0  0  0
  -27.7850  -12.4980   18.3750 C   0  0  0  0  0  2  0  0  0  0  0  0
  -27.5050  -13.2900   19.6800 C   0  0  0  0  0  3  0  0  0  0  0  0
  -28.6160  -13.0750   20.7320 C   0  0  0  0  0  2  0  0  0  0  0  0
  -29.9060  -13.3850   20.0990 N   0  0  0  0  0  0  0  0  0  0  0  0
  -31.7260  -14.6720   19.6910 O   0  0  0  0  0  0  0  0  0  0  0  0
  -30.0390  -15.5980   20.8190 N   0  0  0  0  0  0  0  0  0  0  0  0
  -29.1340  -15.4820   21.2500 H   0  0  0  0  0  0  0  0  0  0  0  0
  -25.1360  -13.8410   20.5070 C   0  0  0  0  0  0  0  0  0  0  0  0
  -24.0950  -13.0450   20.9050 C   0  0  0  0  0  0  0  0  0  0  0  0
  -24.5720  -11.7010   20.8250 C   0  0  0  0  0  0  0  0  0  0  0  0
  -26.1810  -12.9810   20.2130 N   0  0  0  0  0  0  0  0  0  0  0  0
  -25.8490  -11.6870   20.4610 N   0  0  0  0  0  0  0  0  0  0  0  0
  -23.8690  -10.4250   21.0150 C   0  0  0  0  0  0  0  0  0  0  0  0
  -24.3290   -9.4590   21.9380 C   0  0  0  0  0  3  0  0  0  0  0  0
  -23.6260   -8.2490   22.1170 C   0  0  0  0  0  3  0  0  0  0  0  0
  -22.4490   -7.9960   21.3760 C   0  0  0  0  0  0  0  0  0  0  0  0
  -22.0080   -8.9490   20.4390 C   0  0  0  0  0  3  0  0  0  0  0  0
  -22.7130  -10.1510   20.2590 C   0  0  0  0  0  3  0  0  0  0  0  0
  -21.7140   -6.8380   21.4660 O   0  0  0  0  0  0  0  0  0  0  0  0
  -21.6580   -6.1100   22.6270 C   0  0  0  0  0  0  0  0  0  0  0  0
  -21.1580   -6.6590   23.8280 C   0  0  0  0  0  3  0  0  0  0  0  0
  -21.0530   -5.8550   24.9810 C   0  0  0  0  0  3  0  0  0  0  0  0
  -21.4380   -4.5030   24.9340 C   0  0  0  0  0  0  0  0  0  0  0  0
  -21.9340   -3.9510   23.7380 C   0  0  0  0  0  3  0  0  0  0  0  0
  -22.0390   -4.7520   22.5880 C   0  0  0  0  0  0  0  0  0  0  0  0
  -22.4960   -4.2110   21.4330 F   0  0  0  0  0  0  0  0  0  0  0  0
  -21.3300   -3.7290   26.0380 F   0  0  0  0  0  0  0  0  0  0  0  0
  -22.7060  -13.4950   21.2480 C   0  0  0  0  0  0  0  0  0  0  0  0
  -22.0270  -12.7710   22.1300 N   0  0  0  0  0  0  0  0  0  0  0  0
  -22.2330  -14.5270   20.7710 O   0  0  0  0  0  0  0  0  0  0  0  0
  -22.4270  -11.9380   22.5320 H   0  0  0  0  0  0  0  0  0  0  0  0
  -21.0950  -13.0510   22.4040 H   0  0  0  0  0  0  0  0  0  0  0  0
  -25.2730  -15.2160   20.3440 N   0  0  0  0  0  0  0  0  0  0  0  0
  -24.4870  -15.8490   20.4480 H   0  0  0  0  0  0  0  0  0  0  0  0
  -26.0710  -15.6500   19.9010 H   0  0  0  0  0  0  0  0  0  0  0  0
  1  3  1  0
  2  4  1  0
  3 55  1  0
  4  9  1  0
  4  3  1  0
  5 60  1  0
  5  1  1  0
  6  2  1  0
  6  5  1  0
  7  6  1  0
  8  6  1  0
 10  9  1  0
 11  9  1  0
 11 12  1  0
 13 12  1  0
 14 16  1  0
 14 13  1  0
 15 26  2  0
 16 21  1  0
 17 25  1  0
 17 27  1  0
 18 24  1  0
 18 20  1  0
 19 25  1  0
 20 19  1  0
 21 20  2  0
 22 23  1  0
 22 16  2  0
 23 18  2  0
 24 17  1  0
 25 15  1  0
 27 29  2  0
 28 27  1  0
 30 28  1  0
 31 40  2  0
 31 36  1  0
 32 28  1  0
 32 36  1  0
 33 32  1  0
 34 35  1  0
 34 33  1  0
 35 31  1  0
 36 37  2  0
 37 38  1  0
 39 38  2  0
 40 39  1  0
 41 15  1  0
 41 46  1  0
 41 42  1  0
 42 45  1  1
 42 43  1  0
 44 42  1  0
 46 49  1  0
 47 51  1  0
 47 46  1  0
 48 47  2  0
 51 50  1  0
 53 51  1  0
 53 54  1  0
 53 52  1  0
 55 56  1  0
 56 58  1  0
 56 59  1  0
 57 56  1  0
 61 69  1  0
 62 67  1  0
 63 64  1  0
 63 62  1  0
 65 64  1  0
 65 74  1  0
 65 66  1  0
 67 61  1  0
 67 66  1  0
 68 61  2  0
 69 60  1  0
 69 70  1  0
 71 72  2  0
 72 91  1  0
 73 72  1  0
 73 76  1  0
 74 75  1  0
 74 71  1  0
 75 73  2  0
 76 77  1  0
 77 78  2  0
 79 82  1  0
 79 78  1  0
 80 79  2  0
 81 80  1  0
 81 76  2  0
 82 83  1  0
 83 84  1  0
 84 85  2  0
 86 85  1  0
 86 90  1  0
 87 86  2  0
 88 83  2  0
 88 87  1  0
 89 88  1  0
 91 92  1  0
 92 95  1  0
 92 94  1  0
 93 91  2  0
 96 97  1  0
 96 71  1  0
 98 96  1  0
M  ISO  4  13 101  14 101  61 100  69 100
M  END
>  <TORSDO>  (68) 
F 23

>  <SCORE>  (68) 
-13.140

>  <name>  (68) 
68

>  <ligand_id>  (68) 
68

>  <original_smiles>  (68) 
[H]c1c([H])c([H])c2c(c1[H])C([H])([H])C([H])([H])C([H])([H])C2([H])N([H])C(=O)C1([H])N(C(=O)C([H])(N([H])C(=O)C([H])(N([H])C([H])([H])[H])C([H])([H])[H])C(C([H])([H])[H])(C([H])([H])[H])C([H])([H])[H])C([H])([H])c2c([H])c(OC([H])([H])C([H])([H])C([H])([H])N([H])C3([H])C([H])(C([H])([H])[N+]([H])([H])[H])C([H])([H])C([H])(C([H])([H])N([H])C(=O)N4C([H])([H])C([H])([H])C([H])([H])C([H])(n5nc(-c6c([H])c([H])c(Oc7c([H])c([H])c(F)c([H])c7F)c([H])c6[H])c(C(=O)N([H])[H])c5N([H])[H])C4([H])[H])[N+]([H])([H])C3([H])[H])c([H])c([H])c2C1([H])[H]

>  <smiles>  (68) 
[H]c1c([H])c([H])c2c(c1[H])C([H])([H])C([H])([H])C([H])([H])C2([H])N([H])C(=O)C1([H])N(C(=O)C([H])(N([H])C(=O)C([H])(N([H])C([H])([H])[H])C([H])([H])[H])C(C([H])([H])[H])(C([H])([H])[H])C([H])([H])[H])C([H])([H])c2c([H])c(OC([H])([H])C([H])([H])C([H])([H])N([H])C3([H])C([H])(C([H])([H])[N+]([H])([H])[H])C([H])([H])C([H])(C([H])([H])N([H])C(=O)N4C([H])([H])C([H])([H])C([H])([H])C([H])(n5nc(-c6c([H])c([H])c(Oc7c([H])c([H])c(F)c([H])c7F)c([H])c6[H])c(C(=O)N([H])[H])c5N([H])[H])C4([H])[H])[N+]([H])([H])C3([H])[H])c([H])c([H])c2C1([H])[H]

$$$$
69:0:0
     RDKit          3D

 95103  0  0  1  0  0  0  0  0999 V2000
  -28.0960  -21.6620   20.3870 N   0  0  0  0  0  4  0  0  0  0  0  0
  -27.5680  -21.0650   19.7700 H   0  0  0  0  0  0  0  0  0  0  0  0
  -28.9330  -21.9370   19.9030 H   0  0  0  0  0  0  0  0  0  0  0  0
  -28.4720  -20.8410   21.5590 C   0  0  0  0  0  2  0  0  0  0  0  0
  -29.7760  -20.0420   21.3390 C   0  0  0  0  0  2  0  0  0  0  0  0
  -31.4800  -14.6100   19.9290 C   0  0  0  0  0  0  0  0  0  0  0  0
  -31.0750  -12.3860   18.9650 C   0  0  0  0  0  2  0  0  0  0  0  0
  -30.1120  -12.5510   17.7720 C   0  0  0  0  0  2  0  0  0  0  0  0
  -28.6410  -12.5170   18.2400 C   0  0  0  0  0  2  0  0  0  0  0  0
  -28.3720  -13.4470   19.4540 C   0  0  0  0  0  3  0  0  0  0  0  0
  -29.4490  -13.2430   20.5460 C   0  0  0  0  0  2  0  0  0  0  0  0
  -30.7660  -13.4530   19.9240 N   0  0  0  0  0  0  0  0  0  0  0  0
  -32.6400  -14.6810   19.5080 O   0  0  0  0  0  0  0  0  0  0  0  0
  -29.5940  -17.5030   18.5100 C   0  0  0  0  0  2  0  0  0  0  0  0
  -30.7620  -16.5210   18.6580 C   0  0  0  0  0  2  0  0  0  0  0  0
  -29.8240  -18.8210   19.2560 C   0  0  0  0  0  2  0  0  0  0  0  0
  -30.1510  -16.3290   21.1040 C   0  0  0  0  0  2  0  0  0  0  0  0
  -30.5650  -17.7980   21.3100 C   0  0  0  0  0  2  0  0  0  0  0  0
  -30.7090  -15.7170   19.8870 N   0  0  0  0  0  0  0  0  0  0  0  0
  -29.6010  -18.7270   20.7020 N   0  0  0  0  0  0  0  0  0  0  0  0
  -26.0480  -14.2110   20.2660 C   0  0  0  0  0  0  0  0  0  0  0  0
  -24.9460  -13.5040   20.6650 C   0  0  0  0  0  0  0  0  0  0  0  0
  -25.3150  -12.1260   20.6040 C   0  0  0  0  0  0  0  0  0  0  0  0
  -27.0230  -13.2640   19.9850 N   0  0  0  0  0  0  0  0  0  0  0  0
  -26.5880  -12.0060   20.2500 N   0  0  0  0  0  0  0  0  0  0  0  0
  -24.5180  -10.9120   20.8090 C   0  0  0  0  0  0  0  0  0  0  0  0
  -24.8680   -9.9560   21.7900 C   0  0  0  0  0  3  0  0  0  0  0  0
  -24.0750   -8.8050   21.9840 C   0  0  0  0  0  3  0  0  0  0  0  0
  -22.9180   -8.6010   21.1960 C   0  0  0  0  0  0  0  0  0  0  0  0
  -22.5860   -9.5410   20.2040 C   0  0  0  0  0  3  0  0  0  0  0  0
  -23.3800  -10.6850   20.0090 C   0  0  0  0  0  3  0  0  0  0  0  0
  -22.1010   -7.5000   21.2930 O   0  0  0  0  0  0  0  0  0  0  0  0
  -21.9060   -6.8520   22.4860 C   0  0  0  0  0  0  0  0  0  0  0  0
  -21.3830   -7.5160   23.6180 C   0  0  0  0  0  3  0  0  0  0  0  0
  -21.1350   -6.7960   24.8030 C   0  0  0  0  0  3  0  0  0  0  0  0
  -21.3980   -5.4130   24.8570 C   0  0  0  0  0  0  0  0  0  0  0  0
  -21.9130   -4.7510   23.7300 C   0  0  0  0  0  3  0  0  0  0  0  0
  -22.1630   -5.4680   22.5470 C   0  0  0  0  0  0  0  0  0  0  0  0
  -22.6380   -4.8200   21.4570 F   0  0  0  0  0  0  0  0  0  0  0  0
  -21.1510   -4.7210   25.9940 F   0  0  0  0  0  0  0  0  0  0  0  0
  -23.5930  -14.0670   20.9940 C   0  0  0  0  0  0  0  0  0  0  0  0
  -22.8720  -13.4260   21.9080 N   0  0  0  0  0  0  0  0  0  0  0  0
  -23.1870  -15.1060   20.4770 O   0  0  0  0  0  0  0  0  0  0  0  0
  -23.2150  -12.5820   22.3440 H   0  0  0  0  0  0  0  0  0  0  0  0
  -21.9660  -13.7820   22.1730 H   0  0  0  0  0  0  0  0  0  0  0  0
  -26.2990  -15.5710   20.1040 N   0  0  0  0  0  0  0  0  0  0  0  0
  -25.5920  -16.2770   20.2780 H   0  0  0  0  0  0  0  0  0  0  0  0
  -27.1850  -15.9590   19.8100 H   0  0  0  0  0  0  0  0  0  0  0  0
  -27.2810  -22.8600   20.6870 C   0  0  0  0  0  2  0  0  0  0  0  0
  -27.2590  -25.0050   22.0440 C   0  0  0  0  0  1  0  0  0  0  0  0
  -28.1330  -24.0270   21.2460 C   0  0  0  0  0  3  0  0  0  0  0  0
  -29.0610  -24.6930   20.1890 C   0  0  0  0  0  3  0  0  0  0  0  0
  -30.0350  -25.3490   20.8200 F   0  0  0  0  0  0  0  0  0  0  0  0
  -28.4340  -25.6350   19.1340 C   0  0  0  0  0  2  0  0  0  0  0  0
  -28.2950  -26.9610   19.6530 O   0  0  0  0  0  0  0  0  0  0  0  0
  -24.5540  -31.9040   23.1000 C   0  0  0  0  0  0  0  0  0  0  0  0
  -27.0810  -27.6120   19.7120 C   0  0  0  0  0  0  0  0  0  0  0  0
  -23.2840  -30.5610   21.4580 C   0  0  0  0  0  3  0  0  0  0  0  0
  -24.6770  -29.0920   19.9110 C   0  0  0  0  0  0  0  0  0  0  0  0
  -25.7970  -30.9380   21.1700 C   0  0  0  0  0  2  0  0  0  0  0  0
  -25.8560  -29.5980   20.4690 C   0  0  0  0  0  0  0  0  0  0  0  0
  -27.0550  -28.8610   20.3720 C   0  0  0  0  0  3  0  0  0  0  0  0
  -25.8760  -27.1160   19.1560 C   0  0  0  0  0  3  0  0  0  0  0  0
  -24.6810  -27.8490   19.2600 C   0  0  0  0  0  3  0  0  0  0  0  0
  -23.4350  -29.9420   20.0450 C   0  0  0  0  0  2  0  0  0  0  0  0
  -24.5660  -31.1460   21.9680 N   0  0  0  0  0  0  0  0  0  0  0  0
  -23.4970  -32.1540   23.6950 O   0  0  0  0  0  0  0  0  0  0  0  0
  -22.6790  -29.4980   22.4010 C   0  0  0  0  0  0  0  0  0  0  0  0
  -21.3550  -29.2950   22.3020 N   0  0  0  0  0  0  0  0  0  0  0  0
  -23.3950  -28.8590   23.1760 O   0  0  0  0  0  0  0  0  0  0  0  0
  -20.8340  -29.8650   21.6500 H   0  0  0  0  0  0  0  0  0  0  0  0
  -18.0190  -28.0160   22.8320 C   0  0  0  0  0  0  0  0  0  0  0  0
  -20.5730  -28.3220   23.0690 C   0  0  0  0  0  3  0  0  0  0  0  0
  -20.6970  -26.9080   22.4600 C   0  0  0  0  0  2  0  0  0  0  0  0
  -19.5860  -26.5830   21.4580 C   0  0  0  0  0  2  0  0  0  0  0  0
  -18.2120  -26.6850   22.1290 C   0  0  0  0  0  2  0  0  0  0  0  0
  -19.1280  -28.7930   23.2600 C   0  0  0  0  0  0  0  0  0  0  0  0
  -18.8920  -30.0400   23.8780 C   0  0  0  0  0  3  0  0  0  0  0  0
  -17.5790  -30.5090   24.0750 C   0  0  0  0  0  3  0  0  0  0  0  0
  -16.4850  -29.7300   23.6620 C   0  0  0  0  0  3  0  0  0  0  0  0
  -16.7060  -28.4860   23.0460 C   0  0  0  0  0  3  0  0  0  0  0  0
  -25.8660  -32.5140   23.6880 C   0  0  0  0  0  3  0  0  0  0  0  0
  -26.4350  -31.7030   24.9170 C   0  0  1  0  0  0  0  0  0  0  0  0
  -25.3840  -31.4320   26.0180 C   0  0  0  0  0  1  0  0  0  0  0  0
  -27.0010  -30.3380   24.4580 C   0  0  0  0  0  1  0  0  0  0  0  0
  -27.6110  -32.4790   25.5560 C   0  0  0  0  0  1  0  0  0  0  0  0
  -25.5730  -33.9010   24.0700 N   0  0  0  0  0  0  0  0  0  0  0  0
  -25.8970  -34.9740   23.3360 C   0  0  0  0  0  0  0  0  0  0  0  0
  -26.5450  -34.9010   22.2890 O   0  0  0  0  0  0  0  0  0  0  0  0
  -24.9860  -34.0340   24.8800 H   0  0  0  0  0  0  0  0  0  0  0  0
  -24.1820  -36.7940   23.0570 C   0  0  0  0  0  1  0  0  0  0  0  0
  -25.4240  -36.3490   23.8450 C   0  0  0  0  0  3  0  0  0  0  0  0
  -27.5710  -37.1860   24.6960 C   0  0  0  0  0  1  0  0  0  0  0  0
  -26.4660  -37.3970   23.7650 N   0  0  0  0  0  0  0  0  0  0  0  0
  -26.0680  -38.3140   23.9480 H   0  0  0  0  0  0  0  0  0  0  0  0
  1 49  1  0
  1  4  1  0
  2  1  1  0
  3  1  1  0
  5  4  1  0
  7 12  1  0
  8  9  1  0
  8  7  1  0
 10  9  1  0
 10 24  1  0
 10 11  1  0
 12  6  1  0
 12 11  1  0
 13  6  2  0
 14 15  1  0
 14 16  1  0
 15 19  1  0
 16 20  1  0
 17 18  1  0
 19  6  1  0
 19 17  1  0
 20 18  1  0
 20  5  1  0
 21 22  2  0
 22 41  1  0
 23 22  1  0
 23 26  1  0
 24 25  1  0
 24 21  1  0
 25 23  2  0
 26 27  1  0
 27 28  2  0
 29 32  1  0
 29 28  1  0
 30 29  2  0
 31 30  1  0
 31 26  2  0
 32 33  1  0
 33 38  2  0
 33 34  1  0
 34 35  2  0
 35 36  1  0
 36 40  1  0
 37 36  2  0
 38 37  1  0
 39 38  1  0
 41 42  1  0
 42 45  1  0
 42 44  1  0
 43 41  2  0
 46 21  1  0
 46 47  1  0
 48 46  1  0
 49 51  1  0
 51 50  1  0
 52 53  1  0
 52 51  1  0
 54 55  1  0
 54 52  1  0
 55 57  1  0
 56 67  2  0
 57 62  1  0
 58 66  1  0
 58 68  1  0
 59 65  1  0
 59 61  1  0
 60 66  1  0
 61 60  1  0
 62 61  2  0
 63 64  1  0
 63 57  2  0
 64 59  2  0
 65 58  1  0
 66 56  1  0
 68 70  2  0
 69 68  1  0
 71 69  1  0
 72 81  2  0
 72 77  1  0
 73 69  1  0
 73 77  1  0
 74 73  1  0
 75 76  1  0
 75 74  1  0
 76 72  1  0
 77 78  2  0
 78 79  1  0
 80 79  2  0
 81 80  1  0
 82 56  1  0
 82 87  1  0
 82 83  1  0
 83 86  1  1
 83 84  1  0
 85 83  1  0
 87 90  1  0
 88 92  1  0
 88 87  1  0
 89 88  2  0
 92 91  1  0
 94 92  1  0
 94 95  1  0
 94 93  1  0
M  ISO  4   6 100  19 100  54 101  55 101
M  END
>  <TORSDO>  (69) 
F 22

>  <SCORE>  (69) 
-11.991

>  <name>  (69) 
69

>  <ligand_id>  (69) 
69

>  <original_smiles>  (69) 
[H]c1c([H])c([H])c2c(c1[H])C([H])([H])C([H])([H])C([H])([H])C2([H])N([H])C(=O)C1([H])N(C(=O)C([H])(N([H])C(=O)C([H])(N([H])C([H])([H])[H])C([H])([H])[H])C(C([H])([H])[H])(C([H])([H])[H])C([H])([H])[H])C([H])([H])c2c([H])c(OC([H])([H])C([H])(F)C([H])(C([H])([H])[H])C([H])([H])[N+]([H])([H])C([H])([H])C([H])([H])N3C([H])([H])C([H])([H])N(C(=O)N4C([H])([H])C([H])([H])C([H])([H])C([H])(n5nc(-c6c([H])c([H])c(Oc7c([H])c([H])c(F)c([H])c7F)c([H])c6[H])c(C(=O)N([H])[H])c5N([H])[H])C4([H])[H])C([H])([H])C([H])([H])C3([H])[H])c([H])c([H])c2C1([H])[H]

>  <smiles>  (69) 
[H]c1c([H])c([H])c2c(c1[H])C([H])([H])C([H])([H])C([H])([H])C2([H])N([H])C(=O)C1([H])N(C(=O)C([H])(N([H])C(=O)C([H])(N([H])C([H])([H])[H])C([H])([H])[H])C(C([H])([H])[H])(C([H])([H])[H])C([H])([H])[H])C([H])([H])c2c([H])c(OC([H])([H])C([H])(F)C([H])(C([H])([H])[H])C([H])([H])[N+]([H])([H])C([H])([H])C([H])([H])N3C([H])([H])C([H])([H])N(C(=O)N4C([H])([H])C([H])([H])C([H])([H])C([H])(n5nc(-c6c([H])c([H])c(Oc7c([H])c([H])c(F)c([H])c7F)c([H])c6[H])c(C(=O)N([H])[H])c5N([H])[H])C4([H])[H])C([H])([H])C([H])([H])C3([H])[H])c([H])c([H])c2C1([H])[H]

$$$$
70:0:0
     RDKit          3D

 90 97  0  0  1  0  0  0  0  0999 V2000
  -28.8030  -22.8920   19.5180 C   0  0  0  0  0  2  0  0  0  0  0  0
  -29.2590  -21.8290   20.4570 N   0  0  0  0  0  4  0  0  0  0  0  0
  -28.7460  -21.9560   21.3150 H   0  0  0  0  0  0  0  0  0  0  0  0
  -30.2270  -22.0080   20.6650 H   0  0  0  0  0  0  0  0  0  0  0  0
  -29.0960  -20.4310   19.9640 C   0  0  0  0  0  2  0  0  0  0  0  0
  -29.8030  -19.3660   20.8520 C   0  0  0  0  0  2  0  0  0  0  0  0
  -29.5170  -17.8880   20.4630 C   0  0  0  0  0  2  0  0  0  0  0  0
  -30.3450  -16.8570   21.2790 C   0  0  0  0  0  2  0  0  0  0  0  0
  -30.6320  -14.4670   20.4800 C   0  0  0  0  0  0  0  0  0  0  0  0
  -30.3350  -12.3140   19.3050 C   0  0  0  0  0  2  0  0  0  0  0  0
  -29.3900  -12.5220   18.1030 C   0  0  0  0  0  2  0  0  0  0  0  0
  -27.9150  -12.3930   18.5330 C   0  0  0  0  0  2  0  0  0  0  0  0
  -27.5850  -13.2290   19.7980 C   0  0  0  0  0  3  0  0  0  0  0  0
  -28.6350  -12.9860   20.9040 C   0  0  0  0  0  2  0  0  0  0  0  0
  -29.9610  -13.2910   20.3390 N   0  0  0  0  0  0  0  0  0  0  0  0
  -31.7560  -14.6610   20.0070 O   0  0  0  0  0  0  0  0  0  0  0  0
  -29.9310  -15.4610   21.0580 N   0  0  0  0  0  0  0  0  0  0  0  0
  -29.0130  -15.2030   21.3920 H   0  0  0  0  0  0  0  0  0  0  0  0
  -25.1860  -13.8580   20.4900 C   0  0  0  0  0  0  0  0  0  0  0  0
  -24.1110  -13.0950   20.8600 C   0  0  0  0  0  0  0  0  0  0  0  0
  -24.5630  -11.7410   20.8400 C   0  0  0  0  0  0  0  0  0  0  0  0
  -26.2260  -12.9680   20.2720 N   0  0  0  0  0  0  0  0  0  0  0  0
  -25.8550  -11.6900   20.5380 N   0  0  0  0  0  0  0  0  0  0  0  0
  -23.8290  -10.4850   21.0350 C   0  0  0  0  0  0  0  0  0  0  0  0
  -24.2640   -9.5090   21.9600 C   0  0  0  0  0  3  0  0  0  0  0  0
  -23.5310   -8.3180   22.1430 C   0  0  0  0  0  3  0  0  0  0  0  0
  -22.3470   -8.0930   21.4000 C   0  0  0  0  0  0  0  0  0  0  0  0
  -21.9310   -9.0550   20.4640 C   0  0  0  0  0  3  0  0  0  0  0  0
  -22.6640  -10.2390   20.2800 C   0  0  0  0  0  3  0  0  0  0  0  0
  -21.5830   -6.9540   21.4920 O   0  0  0  0  0  0  0  0  0  0  0  0
  -21.5560   -6.1970   22.6360 C   0  0  0  0  0  0  0  0  0  0  0  0
  -21.1770   -6.7430   23.8820 C   0  0  0  0  0  3  0  0  0  0  0  0
  -21.0940   -5.9140   25.0190 C   0  0  0  0  0  3  0  0  0  0  0  0
  -21.3820   -4.5410   24.9110 C   0  0  0  0  0  0  0  0  0  0  0  0
  -21.7540   -3.9930   23.6710 C   0  0  0  0  0  3  0  0  0  0  0  0
  -21.8380   -4.8190   22.5350 C   0  0  0  0  0  0  0  0  0  0  0  0
  -22.1760   -4.2840   21.3380 F   0  0  0  0  0  0  0  0  0  0  0  0
  -21.2950   -3.7420   26.0010 F   0  0  0  0  0  0  0  0  0  0  0  0
  -22.7160  -13.5840   21.1230 C   0  0  0  0  0  0  0  0  0  0  0  0
  -21.9810  -12.8980   21.9920 N   0  0  0  0  0  0  0  0  0  0  0  0
  -22.2850  -14.6080   20.5940 O   0  0  0  0  0  0  0  0  0  0  0  0
  -22.3410  -12.0690   22.4410 H   0  0  0  0  0  0  0  0  0  0  0  0
  -21.0460  -13.2080   22.2140 H   0  0  0  0  0  0  0  0  0  0  0  0
  -25.3620  -15.2260   20.3040 N   0  0  0  0  0  0  0  0  0  0  0  0
  -24.5990  -15.8870   20.4030 H   0  0  0  0  0  0  0  0  0  0  0  0
  -26.2160  -15.6550   19.9710 H   0  0  0  0  0  0  0  0  0  0  0  0
  -28.7470  -24.2580   20.2350 C   0  0  0  0  0  0  0  0  0  0  0  0
  -28.8120  -24.3310   21.4690 O   0  0  0  0  0  0  0  0  0  0  0  0
  -28.6050  -25.5210   19.3540 C   0  0  0  0  0  2  0  0  0  0  0  0
  -28.4350  -26.7260   20.1330 O   0  0  0  0  0  0  0  0  0  0  0  0
  -24.6120  -31.8820   23.2320 C   0  0  0  0  0  0  0  0  0  0  0  0
  -27.2370  -27.4200   20.1280 C   0  0  0  0  0  0  0  0  0  0  0  0
  -23.3960  -30.4810   21.5990 C   0  0  0  0  0  3  0  0  0  0  0  0
  -24.8380  -28.9390   20.1680 C   0  0  0  0  0  0  0  0  0  0  0  0
  -25.9230  -30.8280   21.3910 C   0  0  0  0  0  2  0  0  0  0  0  0
  -26.0020  -29.4570   20.7480 C   0  0  0  0  0  0  0  0  0  0  0  0
  -27.1980  -28.7030   20.7280 C   0  0  0  0  0  3  0  0  0  0  0  0
  -26.0420  -26.9110   19.5630 C   0  0  0  0  0  3  0  0  0  0  0  0
  -24.8540  -27.6650   19.5770 C   0  0  0  0  0  3  0  0  0  0  0  0
  -23.5970  -29.8020   20.2180 C   0  0  0  0  0  2  0  0  0  0  0  0
  -24.6620  -31.0790   22.1310 N   0  0  0  0  0  0  0  0  0  0  0  0
  -23.5350  -32.1560   23.7770 O   0  0  0  0  0  0  0  0  0  0  0  0
  -22.7480  -29.4610   22.5620 C   0  0  0  0  0  0  0  0  0  0  0  0
  -21.4230  -29.2810   22.4410 N   0  0  0  0  0  0  0  0  0  0  0  0
  -23.4360  -28.8330   23.3720 O   0  0  0  0  0  0  0  0  0  0  0  0
  -20.9300  -29.8390   21.7580 H   0  0  0  0  0  0  0  0  0  0  0  0
  -18.0480  -28.0940   22.9550 C   0  0  0  0  0  0  0  0  0  0  0  0
  -20.6070  -28.3460   23.2170 C   0  0  0  0  0  3  0  0  0  0  0  0
  -20.7050  -26.9140   22.6400 C   0  0  0  0  0  2  0  0  0  0  0  0
  -19.5980  -26.5940   21.6310 C   0  0  0  0  0  2  0  0  0  0  0  0
  -18.2180  -26.7440   22.2790 C   0  0  0  0  0  2  0  0  0  0  0  0
  -19.1710  -28.8540   23.3800 C   0  0  0  0  0  0  0  0  0  0  0  0
  -18.9580  -30.1190   23.9680 C   0  0  0  0  0  3  0  0  0  0  0  0
  -17.6550  -30.6250   24.1380 C   0  0  0  0  0  3  0  0  0  0  0  0
  -16.5470  -29.8620   23.7300 C   0  0  0  0  0  3  0  0  0  0  0  0
  -16.7450  -28.5980   23.1440 C   0  0  0  0  0  3  0  0  0  0  0  0
  -25.9030  -32.5110   23.8440 C   0  0  0  0  0  3  0  0  0  0  0  0
  -26.4340  -31.7340   25.1110 C   0  0  1  0  0  0  0  0  0  0  0  0
  -25.3520  -31.4890   26.1890 C   0  0  0  0  0  1  0  0  0  0  0  0
  -27.0140  -30.3590   24.7060 C   0  0  0  0  0  1  0  0  0  0  0  0
  -27.5910  -32.5270   25.7650 C   0  0  0  0  0  1  0  0  0  0  0  0
  -25.5960  -33.9070   24.1820 N   0  0  0  0  0  0  0  0  0  0  0  0
  -25.9230  -34.9620   23.4230 C   0  0  0  0  0  0  0  0  0  0  0  0
  -26.5850  -34.8630   22.3870 O   0  0  0  0  0  0  0  0  0  0  0  0
  -25.0080  -34.0580   24.9880 H   0  0  0  0  0  0  0  0  0  0  0  0
  -24.1890  -36.7530   23.0860 C   0  0  0  0  0  1  0  0  0  0  0  0
  -25.4370  -36.3480   23.8870 C   0  0  0  0  0  3  0  0  0  0  0  0
  -27.5770  -37.2310   24.7040 C   0  0  0  0  0  1  0  0  0  0  0  0
  -26.4660  -37.4030   23.7710 N   0  0  0  0  0  0  0  0  0  0  0  0
  -26.0600  -38.3220   23.9290 H   0  0  0  0  0  0  0  0  0  0  0  0
  1 47  1  0
  1  2  1  0
  2  4  1  0
  2  3  1  0
  5  2  1  0
  5  6  1  0
  7  6  1  0
  7  8  1  0
  9 17  1  0
 10 15  1  0
 11 12  1  0
 11 10  1  0
 13 12  1  0
 13 22  1  0
 13 14  1  0
 15  9  1  0
 15 14  1  0
 16  9  2  0
 17  8  1  0
 17 18  1  0
 19 20  2  0
 20 39  1  0
 21 20  1  0
 21 24  1  0
 22 19  1  0
 22 23  1  0
 23 21  2  0
 24 25  1  0
 25 26  2  0
 27 30  1  0
 27 26  1  0
 28 27  2  0
 29 28  1  0
 29 24  2  0
 30 31  1  0
 31 32  1  0
 32 33  2  0
 34 33  1  0
 34 38  1  0
 35 34  2  0
 36 31  2  0
 36 35  1  0
 37 36  1  0
 39 40  1  0
 40 43  1  0
 40 42  1  0
 41 39  2  0
 44 45  1  0
 44 19  1  0
 46 44  1  0
 47 48  2  0
 49 50  1  0
 49 47  1  0
 51 62  2  0
 52 50  1  0
 52 57  1  0
 53 61  1  0
 53 63  1  0
 54 60  1  0
 54 56  1  0
 55 61  1  0
 56 55  1  0
 57 56  2  0
 58 59  1  0
 58 52  2  0
 59 54  2  0
 60 53  1  0
 61 51  1  0
 63 65  2  0
 64 63  1  0
 66 64  1  0
 67 76  2  0
 67 72  1  0
 68 64  1  0
 68 72  1  0
 69 68  1  0
 70 71  1  0
 70 69  1  0
 71 67  1  0
 72 73  2  0
 73 74  1  0
 75 74  2  0
 76 75  1  0
 77 51  1  0
 77 82  1  0
 77 78  1  0
 78 81  1  1
 78 79  1  0
 80 78  1  0
 82 85  1  0
 83 87  1  0
 83 82  1  0
 84 83  2  0
 87 86  1  0
 89 87  1  0
 89 90  1  0
 89 88  1  0
M  ISO  4   9 100  17 100  49 101  50 101
M  END
>  <TORSDO>  (70) 
F 23

>  <SCORE>  (70) 
-12.650

>  <name>  (70) 
70

>  <ligand_id>  (70) 
70

>  <original_smiles>  (70) 
[H]c1c([H])c([H])c2c(c1[H])C([H])([H])C([H])([H])C([H])([H])C2([H])N([H])C(=O)C1([H])N(C(=O)C([H])(N([H])C(=O)C([H])(N([H])C([H])([H])[H])C([H])([H])[H])C(C([H])([H])[H])(C([H])([H])[H])C([H])([H])[H])C([H])([H])c2c([H])c(OC([H])([H])C(=O)C([H])([H])[N+]([H])([H])C([H])([H])C([H])([H])C([H])([H])C([H])([H])N([H])C(=O)N3C([H])([H])C([H])([H])C([H])([H])C([H])(n4nc(-c5c([H])c([H])c(Oc6c([H])c([H])c(F)c([H])c6F)c([H])c5[H])c(C(=O)N([H])[H])c4N([H])[H])C3([H])[H])c([H])c([H])c2C1([H])[H]

>  <smiles>  (70) 
[H]c1c([H])c([H])c2c(c1[H])C([H])([H])C([H])([H])C([H])([H])C2([H])N([H])C(=O)C1([H])N(C(=O)C([H])(N([H])C(=O)C([H])(N([H])C([H])([H])[H])C([H])([H])[H])C(C([H])([H])[H])(C([H])([H])[H])C([H])([H])[H])C([H])([H])c2c([H])c(OC([H])([H])C(=O)C([H])([H])[N+]([H])([H])C([H])([H])C([H])([H])C([H])([H])C([H])([H])N([H])C(=O)N3C([H])([H])C([H])([H])C([H])([H])C([H])(n4nc(-c5c([H])c([H])c(Oc6c([H])c([H])c(F)c([H])c6F)c([H])c5[H])c(C(=O)N([H])[H])c4N([H])[H])C3([H])[H])c([H])c([H])c2C1([H])[H]

$$$$
71:0:0
     RDKit          3D

 92100  0  0  1  0  0  0  0  0999 V2000
  -27.2590  -20.7030   19.1290 C   0  0  0  0  0  2  0  0  0  0  0  0
  -27.4160  -21.9330   20.0540 C   0  0  0  0  0  2  0  0  0  0  0  0
  -27.9280  -23.1780   19.2950 C   0  0  0  0  0  2  0  0  0  0  0  0
  -28.0020  -24.4720   20.1380 C   0  0  0  0  0  2  0  0  0  0  0  0
  -28.6280  -25.6550   19.3540 C   0  0  0  0  0  2  0  0  0  0  0  0
  -28.5330  -26.9270   20.0110 O   0  0  0  0  0  0  0  0  0  0  0  0
  -24.6000  -31.8650   23.2770 C   0  0  0  0  0  0  0  0  0  0  0  0
  -27.3370  -27.6200   20.0000 C   0  0  0  0  0  0  0  0  0  0  0  0
  -23.4320  -30.5360   21.5460 C   0  0  0  0  0  3  0  0  0  0  0  0
  -24.9220  -29.0950   20.0680 C   0  0  0  0  0  0  0  0  0  0  0  0
  -25.9560  -30.9340   21.4040 C   0  0  0  0  0  2  0  0  0  0  0  0
  -26.0650  -29.5990   20.6980 C   0  0  0  0  0  0  0  0  0  0  0  0
  -27.2720  -28.8650   20.6670 C   0  0  0  0  0  3  0  0  0  0  0  0
  -26.1740  -27.1370   19.3560 C   0  0  0  0  0  3  0  0  0  0  0  0
  -24.9700  -27.8610   19.4000 C   0  0  0  0  0  3  0  0  0  0  0  0
  -23.6710  -29.9380   20.1360 C   0  0  0  0  0  2  0  0  0  0  0  0
  -24.6790  -31.1240   22.1340 N   0  0  0  0  0  0  0  0  0  0  0  0
  -23.5100  -32.0960   23.8160 O   0  0  0  0  0  0  0  0  0  0  0  0
  -22.7810  -29.4590   22.4430 C   0  0  0  0  0  0  0  0  0  0  0  0
  -21.4590  -29.2750   22.2970 N   0  0  0  0  0  0  0  0  0  0  0  0
  -23.4620  -28.7920   23.2270 O   0  0  0  0  0  0  0  0  0  0  0  0
  -20.9680  -29.8680   21.6440 H   0  0  0  0  0  0  0  0  0  0  0  0
  -18.0870  -28.0450   22.7110 C   0  0  0  0  0  0  0  0  0  0  0  0
  -20.6430  -28.2910   23.0080 C   0  0  0  0  0  3  0  0  0  0  0  0
  -20.7510  -26.8960   22.3500 C   0  0  0  0  0  2  0  0  0  0  0  0
  -19.6550  -26.6320   21.3140 C   0  0  0  0  0  2  0  0  0  0  0  0
  -18.2690  -26.7380   21.9570 C   0  0  0  0  0  2  0  0  0  0  0  0
  -19.2030  -28.7820   23.1900 C   0  0  0  0  0  0  0  0  0  0  0  0
  -18.9800  -30.0090   23.8530 C   0  0  0  0  0  3  0  0  0  0  0  0
  -17.6750  -30.4990   24.0410 C   0  0  0  0  0  3  0  0  0  0  0  0
  -16.5730  -29.7570   23.5800 C   0  0  0  0  0  3  0  0  0  0  0  0
  -16.7800  -28.5320   22.9210 C   0  0  0  0  0  3  0  0  0  0  0  0
  -25.8710  -32.4770   23.9450 C   0  0  0  0  0  3  0  0  0  0  0  0
  -26.3150  -31.7160   25.2560 C   0  0  1  0  0  0  0  0  0  0  0  0
  -25.1720  -31.5110   26.2760 C   0  0  0  0  0  1  0  0  0  0  0  0
  -26.8870  -30.3210   24.9090 C   0  0  0  0  0  1  0  0  0  0  0  0
  -27.4470  -32.4990   25.9600 C   0  0  0  0  0  1  0  0  0  0  0  0
  -25.5800  -33.8870   24.2370 N   0  0  0  0  0  0  0  0  0  0  0  0
  -25.9690  -34.9170   23.4720 C   0  0  0  0  0  0  0  0  0  0  0  0
  -26.6800  -34.7780   22.4730 O   0  0  0  0  0  0  0  0  0  0  0  0
  -24.9590  -34.0720   25.0090 H   0  0  0  0  0  0  0  0  0  0  0  0
  -24.3080  -36.7430   22.9950 C   0  0  0  0  0  1  0  0  0  0  0  0
  -25.4910  -36.3220   23.8810 C   0  0  0  0  0  3  0  0  0  0  0  0
  -27.5900  -37.1730   24.8300 C   0  0  0  0  0  1  0  0  0  0  0  0
  -26.5540  -37.3480   23.8150 N   0  0  0  0  0  0  0  0  0  0  0  0
  -26.1610  -38.2790   23.9230 H   0  0  0  0  0  0  0  0  0  0  0  0
  -27.0370  -19.3480   19.8520 C   0  0  0  0  0  2  0  0  0  0  0  0
  -28.2670  -18.7780   20.4630 N   0  0  0  0  0  4  0  0  0  0  0  0
  -28.9390  -19.5130   20.6080 H   0  0  0  0  0  0  0  0  0  0  0  0
  -27.9910  -18.4520   21.3770 H   0  0  0  0  0  0  0  0  0  0  0  0
  -31.1990  -14.7570   20.7570 C   0  0  0  0  0  0  0  0  0  0  0  0
  -30.9880  -12.4820   19.9090 C   0  0  0  0  0  2  0  0  0  0  0  0
  -30.1560  -12.5380   18.6110 C   0  0  0  0  0  2  0  0  0  0  0  0
  -28.6470  -12.4600   18.9200 C   0  0  0  0  0  2  0  0  0  0  0  0
  -28.2000  -13.4310   20.0460 C   0  0  0  0  0  3  0  0  0  0  0  0
  -29.1580  -13.3660   21.2550 C   0  0  0  0  0  2  0  0  0  0  0  0
  -30.5210  -13.5820   20.7570 N   0  0  0  0  0  0  0  0  0  0  0  0
  -32.4320  -14.7990   20.7750 O   0  0  0  0  0  0  0  0  0  0  0  0
  -30.2850  -16.8030   17.8130 C   0  0  0  0  0  2  0  0  0  0  0  0
  -29.5680  -17.9970   18.4460 C   0  0  0  0  0  2  0  0  0  0  0  0
  -31.2530  -16.1750   18.8180 C   0  0  0  0  0  2  0  0  0  0  0  0
  -29.8800  -16.8500   20.7200 C   0  0  0  0  0  2  0  0  0  0  0  0
  -28.8900  -17.6070   19.7790 C   0  0  0  0  0  3  0  0  0  0  0  0
  -30.5630  -15.7270   20.0470 N   0  0  0  0  0  0  0  0  0  0  0  0
  -25.7770  -14.1150   20.5770 C   0  0  0  0  0  0  0  0  0  0  0  0
  -24.6660  -13.3800   20.8900 C   0  0  0  0  0  0  0  0  0  0  0  0
  -25.0930  -12.0180   20.9160 C   0  0  0  0  0  0  0  0  0  0  0  0
  -26.8120  -13.2030   20.4380 N   0  0  0  0  0  0  0  0  0  0  0  0
  -26.4000  -11.9370   20.7050 N   0  0  0  0  0  0  0  0  0  0  0  0
  -24.3220  -10.7770   21.0660 C   0  0  0  0  0  0  0  0  0  0  0  0
  -24.6770   -9.7990   22.0200 C   0  0  0  0  0  3  0  0  0  0  0  0
  -23.9110   -8.6220   22.1560 C   0  0  0  0  0  3  0  0  0  0  0  0
  -22.7760   -8.4150   21.3380 C   0  0  0  0  0  0  0  0  0  0  0  0
  -22.4430   -9.3800   20.3710 C   0  0  0  0  0  3  0  0  0  0  0  0
  -23.2100  -10.5480   20.2320 C   0  0  0  0  0  3  0  0  0  0  0  0
  -21.9860   -7.2940   21.3850 O   0  0  0  0  0  0  0  0  0  0  0  0
  -21.8190   -6.5790   22.5450 C   0  0  0  0  0  0  0  0  0  0  0  0
  -21.2370   -7.1530   23.6970 C   0  0  0  0  0  3  0  0  0  0  0  0
  -21.0240   -6.3620   24.8440 C   0  0  0  0  0  3  0  0  0  0  0  0
  -21.3790   -5.0000   24.8400 C   0  0  0  0  0  0  0  0  0  0  0  0
  -21.9510   -4.4270   23.6900 C   0  0  0  0  0  3  0  0  0  0  0  0
  -22.1690   -5.2150   22.5460 C   0  0  0  0  0  0  0  0  0  0  0  0
  -22.7030   -4.6520   21.4350 F   0  0  0  0  0  0  0  0  0  0  0  0
  -21.1650   -4.2400   25.9380 F   0  0  0  0  0  0  0  0  0  0  0  0
  -23.2650  -13.8970   21.0430 C   0  0  0  0  0  0  0  0  0  0  0  0
  -22.4670  -13.2600   21.8920 N   0  0  0  0  0  0  0  0  0  0  0  0
  -22.8830  -14.9000   20.4380 O   0  0  0  0  0  0  0  0  0  0  0  0
  -22.7890  -12.4520   22.4040 H   0  0  0  0  0  0  0  0  0  0  0  0
  -21.5170  -13.5770   22.0250 H   0  0  0  0  0  0  0  0  0  0  0  0
  -25.9820  -15.4730   20.3620 N   0  0  0  0  0  0  0  0  0  0  0  0
  -25.1330  -16.0170   20.2450 H   0  0  0  0  0  0  0  0  0  0  0  0
  -26.6660  -15.6980   19.6550 H   0  0  0  0  0  0  0  0  0  0  0  0
  1 47  1  0
  1  2  1  0
  3  2  1  0
  3  4  1  0
  5  6  1  0
  5  4  1  0
  7 18  2  0
  8  6  1  0
  8 13  1  0
  9 17  1  0
  9 19  1  0
 10 16  1  0
 10 12  1  0
 11 17  1  0
 12 11  1  0
 13 12  2  0
 14 15  1  0
 14  8  2  0
 15 10  2  0
 16  9  1  0
 17  7  1  0
 19 21  2  0
 20 19  1  0
 22 20  1  0
 23 32  2  0
 23 28  1  0
 24 20  1  0
 24 28  1  0
 25 24  1  0
 26 27  1  0
 26 25  1  0
 27 23  1  0
 28 29  2  0
 29 30  1  0
 31 30  2  0
 32 31  1  0
 33  7  1  0
 33 38  1  0
 33 34  1  0
 34 37  1  1
 34 35  1  0
 36 34  1  0
 38 41  1  0
 39 43  1  0
 39 38  1  0
 40 39  2  0
 43 42  1  0
 45 43  1  0
 45 46  1  0
 45 44  1  0
 47 48  1  0
 48 49  1  0
 48 50  1  0
 51 57  1  0
 51 58  2  0
 52 57  1  0
 53 54  1  0
 53 52  1  0
 55 54  1  0
 55 68  1  0
 55 56  1  0
 57 56  1  0
 59 60  1  0
 59 61  1  0
 60 63  1  0
 61 64  1  0
 63 48  1  0
 63 62  1  0
 64 62  1  0
 64 51  1  0
 65 66  2  0
 66 67  1  0
 66 85  1  0
 67 70  1  0
 68 65  1  0
 68 69  1  0
 69 67  2  0
 70 71  1  0
 71 72  2  0
 73 76  1  0
 73 72  1  0
 74 73  2  0
 75 74  1  0
 75 70  2  0
 76 77  1  0
 77 82  2  0
 77 78  1  0
 78 79  2  0
 80 79  1  0
 80 84  1  0
 81 80  2  0
 82 81  1  0
 83 82  1  0
 85 86  1  0
 86 89  1  0
 86 88  1  0
 87 85  2  0
 90 65  1  0
 91 90  1  0
 92 90  1  0
M  ISO  4   5 101   6 101  51 100  64 100
M  END
>  <TORSDO>  (71) 
F 22

>  <SCORE>  (71) 
-11.902

>  <name>  (71) 
71

>  <ligand_id>  (71) 
71

>  <original_smiles>  (71) 
[H]c1c([H])c([H])c2c(c1[H])C([H])([H])C([H])([H])C([H])([H])C2([H])N([H])C(=O)C1([H])N(C(=O)C([H])(N([H])C(=O)C([H])(N([H])C([H])([H])[H])C([H])([H])[H])C(C([H])([H])[H])(C([H])([H])[H])C([H])([H])[H])C([H])([H])c2c([H])c(OC([H])([H])C([H])([H])C([H])([H])C([H])([H])C([H])([H])C([H])([H])[N+]([H])([H])C3([H])C([H])([H])N(C(=O)N4C([H])([H])C([H])([H])C([H])([H])C([H])(n5nc(-c6c([H])c([H])c(Oc7c([H])c([H])c(F)c([H])c7F)c([H])c6[H])c(C(=O)N([H])[H])c5N([H])[H])C4([H])[H])C([H])([H])C([H])([H])C3([H])[H])c([H])c([H])c2C1([H])[H]

>  <smiles>  (71) 
[H]c1c([H])c([H])c2c(c1[H])C([H])([H])C([H])([H])C([H])([H])C2([H])N([H])C(=O)C1([H])N(C(=O)C([H])(N([H])C(=O)C([H])(N([H])C([H])([H])[H])C([H])([H])[H])C(C([H])([H])[H])(C([H])([H])[H])C([H])([H])[H])C([H])([H])c2c([H])c(OC([H])([H])C([H])([H])C([H])([H])C([H])([H])C([H])([H])C([H])([H])[N+]([H])([H])C3([H])C([H])([H])N(C(=O)N4C([H])([H])C([H])([H])C([H])([H])C([H])(n5nc(-c6c([H])c([H])c(Oc7c([H])c([H])c(F)c([H])c7F)c([H])c6[H])c(C(=O)N([H])[H])c5N([H])[H])C4([H])[H])C([H])([H])C([H])([H])C3([H])[H])c([H])c([H])c2C1([H])[H]

$$$$
72:0:0
     RDKit          3D

 97105  0  0  1  0  0  0  0  0999 V2000
  -25.8040  -20.1140   20.0380 C   0  0  0  0  0  2  0  0  0  0  0  0
  -26.2880  -18.8690   19.2710 C   0  0  0  0  0  2  0  0  0  0  0  0
  -28.1290  -20.3180   18.2880 C   0  0  0  0  0  2  0  0  0  0  0  0
  -25.3760  -21.2980   19.1540 C   0  0  0  0  0  2  0  0  0  0  0  0
  -27.5170  -21.6780   17.8960 C   0  0  0  0  0  2  0  0  0  0  0  0
  -27.1690  -19.1370   18.0290 C   0  0  0  0  0  3  0  0  0  0  0  0
  -26.5010  -22.2220   18.8410 N   0  0  1  0  0  4  0  0  0  0  0  0
  -26.9650  -22.4030   19.7190 H   0  0  0  0  0  0  0  0  0  0  0  0
  -27.8890  -17.8330   17.5980 C   0  0  0  0  0  2  0  0  0  0  0  0
  -29.3630  -17.9450   17.4870 N   0  0  0  0  0  4  0  0  0  0  0  0
  -29.6060  -18.5300   16.7020 H   0  0  0  0  0  0  0  0  0  0  0  0
  -29.6910  -17.0200   17.2640 H   0  0  0  0  0  0  0  0  0  0  0  0
  -30.0850  -18.3750   18.7040 C   0  0  0  0  0  2  0  0  0  0  0  0
  -30.3290  -17.2200   19.6920 C   0  0  0  0  0  2  0  0  0  0  0  0
  -31.6480  -15.1670   19.4820 C   0  0  0  0  0  0  0  0  0  0  0  0
  -31.9460  -12.9230   20.4430 C   0  0  0  0  0  2  0  0  0  0  0  0
  -31.2640  -11.8760   19.5390 C   0  0  0  0  0  2  0  0  0  0  0  0
  -29.7730  -11.7260   19.8990 C   0  0  0  0  0  2  0  0  0  0  0  0
  -29.0410  -13.0890   20.0010 C   0  0  0  0  0  3  0  0  0  0  0  0
  -29.8510  -14.0680   20.8790 C   0  0  0  0  0  2  0  0  0  0  0  0
  -31.2050  -14.1860   20.3100 N   0  0  0  0  0  0  0  0  0  0  0  0
  -32.7770  -15.1830   18.9860 O   0  0  0  0  0  0  0  0  0  0  0  0
  -30.7150  -15.9920   18.9970 N   0  0  0  0  0  0  0  0  0  0  0  0
  -30.9330  -16.1980   18.0320 H   0  0  0  0  0  0  0  0  0  0  0  0
  -26.7750  -13.8870   20.9240 C   0  0  0  0  0  0  0  0  0  0  0  0
  -25.6190  -13.2160   21.2170 C   0  0  0  0  0  0  0  0  0  0  0  0
  -25.8770  -11.8430   20.9240 C   0  0  0  0  0  0  0  0  0  0  0  0
  -27.6750  -12.9260   20.4910 N   0  0  0  0  0  0  0  0  0  0  0  0
  -27.1380  -11.6820   20.5450 N   0  0  0  0  0  0  0  0  0  0  0  0
  -24.9820  -10.6790   20.9270 C   0  0  0  0  0  0  0  0  0  0  0  0
  -25.1350   -9.6320   21.8620 C   0  0  0  0  0  3  0  0  0  0  0  0
  -24.2520   -8.5300   21.8530 C   0  0  0  0  0  3  0  0  0  0  0  0
  -23.2000   -8.4700   20.9080 C   0  0  0  0  0  0  0  0  0  0  0  0
  -23.0670   -9.5050   19.9670 C   0  0  0  0  0  3  0  0  0  0  0  0
  -23.9500  -10.5980   19.9710 C   0  0  0  0  0  3  0  0  0  0  0  0
  -22.3090   -7.4280   20.8130 O   0  0  0  0  0  0  0  0  0  0  0  0
  -21.8410   -6.7760   21.9270 C   0  0  0  0  0  0  0  0  0  0  0  0
  -21.1100   -7.4480   22.9290 C   0  0  0  0  0  3  0  0  0  0  0  0
  -20.5880   -6.7290   24.0220 C   0  0  0  0  0  3  0  0  0  0  0  0
  -20.7840   -5.3370   24.1080 C   0  0  0  0  0  0  0  0  0  0  0  0
  -21.5040   -4.6650   23.1070 C   0  0  0  0  0  3  0  0  0  0  0  0
  -22.0300   -5.3830   22.0170 C   0  0  0  0  0  0  0  0  0  0  0  0
  -22.7060   -4.7270   21.0430 F   0  0  0  0  0  0  0  0  0  0  0  0
  -20.2740   -4.6430   25.1530 F   0  0  0  0  0  0  0  0  0  0  0  0
  -24.3120  -13.8250   21.6410 C   0  0  0  0  0  0  0  0  0  0  0  0
  -23.5430  -13.1160   22.4560 N   0  0  0  0  0  0  0  0  0  0  0  0
  -23.9940  -14.9590   21.2860 O   0  0  0  0  0  0  0  0  0  0  0  0
  -22.6730  -13.5040   22.7890 H   0  0  0  0  0  0  0  0  0  0  0  0
  -23.8210  -12.1970   22.7720 H   0  0  0  0  0  0  0  0  0  0  0  0
  -27.1340  -15.2310   20.9640 N   0  0  0  0  0  0  0  0  0  0  0  0
  -26.3290  -15.8460   21.0310 H   0  0  0  0  0  0  0  0  0  0  0  0
  -27.7270  -15.5200   20.1940 H   0  0  0  0  0  0  0  0  0  0  0  0
  -26.0000  -23.5360   18.3670 C   0  0  0  0  0  2  0  0  0  0  0  0
  -27.0680  -24.6390   18.4270 C   0  0  0  0  0  2  0  0  0  0  0  0
  -27.0010  -25.5160   17.1750 C   0  0  0  0  0  2  0  0  0  0  0  0
  -27.7760  -26.8300   17.3060 C   0  0  0  0  0  2  0  0  0  0  0  0
  -26.9820  -27.8570   16.7370 O   0  0  0  0  0  0  0  0  0  0  0  0
  -25.0630  -30.2230   23.1430 C   0  0  0  0  0  0  0  0  0  0  0  0
  -25.9570  -28.2720   17.5470 C   0  0  0  0  0  0  0  0  0  0  0  0
  -23.2040  -29.6540   21.6100 C   0  0  0  0  0  3  0  0  0  0  0  0
  -23.8700  -29.1990   19.1900 C   0  0  0  0  0  0  0  0  0  0  0  0
  -25.4720  -30.3920   20.6960 C   0  0  0  0  0  2  0  0  0  0  0  0
  -25.1980  -29.5270   19.4880 C   0  0  0  0  0  0  0  0  0  0  0  0
  -26.2470  -29.0630   18.6720 C   0  0  0  0  0  3  0  0  0  0  0  0
  -24.6190  -27.9400   17.2490 C   0  0  0  0  0  3  0  0  0  0  0  0
  -23.5710  -28.3990   18.0730 C   0  0  0  0  0  3  0  0  0  0  0  0
  -22.8090  -29.7580   20.1120 C   0  0  0  0  0  2  0  0  0  0  0  0
  -24.6210  -30.0750   21.8630 N   0  0  0  0  0  0  0  0  0  0  0  0
  -24.3010  -30.0580   24.1040 O   0  0  0  0  0  0  0  0  0  0  0  0
  -22.8960  -28.2210   22.0980 C   0  0  0  0  0  0  0  0  0  0  0  0
  -21.6240  -27.8100   21.9690 N   0  0  0  0  0  0  0  0  0  0  0  0
  -23.7890  -27.5000   22.5500 O   0  0  0  0  0  0  0  0  0  0  0  0
  -20.9510  -28.4650   21.5990 H   0  0  0  0  0  0  0  0  0  0  0  0
  -18.7720  -25.6190   21.6430 C   0  0  0  0  0  0  0  0  0  0  0  0
  -21.1080  -26.4890   22.3250 C   0  0  0  0  0  3  0  0  0  0  0  0
  -21.6760  -25.3970   21.3880 C   0  0  0  0  0  2  0  0  0  0  0  0
  -20.7750  -25.1070   20.1840 C   0  0  0  0  0  2  0  0  0  0  0  0
  -19.3890  -24.6500   20.6480 C   0  0  0  0  0  2  0  0  0  0  0  0
  -19.5790  -26.4930   22.4200 C   0  0  0  0  0  0  0  0  0  0  0  0
  -18.9530  -27.3980   23.3050 C   0  0  0  0  0  3  0  0  0  0  0  0
  -17.5510  -27.4370   23.4230 C   0  0  0  0  0  3  0  0  0  0  0  0
  -16.7580  -26.5590   22.6640 C   0  0  0  0  0  3  0  0  0  0  0  0
  -17.3690  -25.6500   21.7810 C   0  0  0  0  0  3  0  0  0  0  0  0
  -26.5370  -30.6290   23.4570 C   0  0  0  0  0  3  0  0  0  0  0  0
  -26.4950  -31.8740   24.2350 N   0  0  0  0  0  0  0  0  0  0  0  0
  -26.7930  -33.0860   23.7450 C   0  0  0  0  0  0  0  0  0  0  0  0
  -27.2070  -33.2620   22.5960 O   0  0  0  0  0  0  0  0  0  0  0  0
  -26.1140  -31.8130   25.1680 H   0  0  0  0  0  0  0  0  0  0  0  0
  -25.3090  -35.0380   24.3020 C   0  0  0  0  0  1  0  0  0  0  0  0
  -26.6010  -34.2950   24.6800 C   0  0  0  0  0  3  0  0  0  0  0  0
  -28.9580  -34.6820   25.2520 C   0  0  0  0  0  1  0  0  0  0  0  0
  -27.7410  -35.2370   24.6640 N   0  0  0  0  0  0  0  0  0  0  0  0
  -27.5090  -36.0920   25.1640 H   0  0  0  0  0  0  0  0  0  0  0  0
  -27.3390  -29.5140   24.2290 C   0  0  1  0  0  0  0  0  0  0  0  0
  -26.6230  -28.9990   25.5000 C   0  0  0  0  0  1  0  0  0  0  0  0
  -27.6060  -28.2990   23.3100 C   0  0  0  0  0  1  0  0  0  0  0  0
  -28.7230  -30.0600   24.6530 C   0  0  0  0  0  1  0  0  0  0  0  0
  2  1  1  0
  4  1  1  0
  5  3  1  0
  5  7  1  0
  6  9  1  0
  6  3  1  0
  6  2  1  0
  7  4  1  0
  7  8  1  1
 10  9  1  0
 10 13  1  0
 11 10  1  0
 12 10  1  0
 13 14  1  0
 15 21  1  0
 17 18  1  0
 17 16  1  0
 19 18  1  0
 19 28  1  0
 19 20  1  0
 21 16  1  0
 21 20  1  0
 22 15  2  0
 23 15  1  0
 23 14  1  0
 24 23  1  0
 25 50  1  0
 25 26  2  0
 26 45  1  0
 27 30  1  0
 27 26  1  0
 28 29  1  0
 28 25  1  0
 29 27  2  0
 30 31  1  0
 32 31  2  0
 33 32  1  0
 34 35  1  0
 34 33  2  0
 35 30  2  0
 36 33  1  0
 36 37  1  0
 37 42  2  0
 37 38  1  0
 38 39  2  0
 39 40  1  0
 40 44  1  0
 41 40  2  0
 42 41  1  0
 43 42  1  0
 45 46  1  0
 46 49  1  0
 46 48  1  0
 47 45  2  0
 50 51  1  0
 52 50  1  0
 53 54  1  0
 53  7  1  0
 55 56  1  0
 55 54  1  0
 57 56  1  0
 57 59  1  0
 58 69  2  0
 59 64  1  0
 60 68  1  0
 60 70  1  0
 61 63  1  0
 61 67  1  0
 62 68  1  0
 63 62  1  0
 64 63  2  0
 65 59  2  0
 65 66  1  0
 66 61  2  0
 67 60  1  0
 68 58  1  0
 70 72  2  0
 71 70  1  0
 73 71  1  0
 74 83  2  0
 74 79  1  0
 75 71  1  0
 75 79  1  0
 76 75  1  0
 77 78  1  0
 77 76  1  0
 78 74  1  0
 79 80  2  0
 80 81  1  0
 82 81  2  0
 83 82  1  0
 84 58  1  0
 84 94  1  0
 84 85  1  0
 85 88  1  0
 86 85  1  0
 86 90  1  0
 87 86  2  0
 90 89  1  0
 92 90  1  0
 92 93  1  0
 92 91  1  0
 94 97  1  1
 94 95  1  0
 96 94  1  0
M  ISO  4  15 100  23 100  56 101  57 101
M  END
>  <TORSDO>  (72) 
F 24

>  <SCORE>  (72) 
-4.267

>  <name>  (72) 
72

>  <ligand_id>  (72) 
72

>  <original_smiles>  (72) 
[H]c1c([H])c([H])c2c(c1[H])C([H])([H])C([H])([H])C([H])([H])C2([H])N([H])C(=O)C1([H])N(C(=O)C([H])(N([H])C(=O)C([H])(N([H])C([H])([H])[H])C([H])([H])[H])C(C([H])([H])[H])(C([H])([H])[H])C([H])([H])[H])C([H])([H])c2c([H])c(OC([H])([H])C([H])([H])C([H])([H])C([H])([H])[N+]3([H])C([H])([H])C([H])([H])C([H])([H])C([H])(C([H])([H])[N+]([H])([H])C([H])([H])C([H])([H])N([H])C(=O)N4C([H])([H])C([H])([H])C([H])([H])C([H])(n5nc(-c6c([H])c([H])c(Oc7c([H])c([H])c(F)c([H])c7F)c([H])c6[H])c(C(=O)N([H])[H])c5N([H])[H])C4([H])[H])C([H])([H])C3([H])[H])c([H])c([H])c2C1([H])[H]

>  <smiles>  (72) 
[H]c1c([H])c([H])c2c(c1[H])C([H])([H])C([H])([H])C([H])([H])C2([H])N([H])C(=O)C1([H])N(C(=O)C([H])(N([H])C(=O)C([H])(N([H])C([H])([H])[H])C([H])([H])[H])C(C([H])([H])[H])(C([H])([H])[H])C([H])([H])[H])C([H])([H])c2c([H])c(OC([H])([H])C([H])([H])C([H])([H])C([H])([H])[N+]3([H])C([H])([H])C([H])([H])C([H])([H])C([H])(C([H])([H])[N+]([H])([H])C([H])([H])C([H])([H])N([H])C(=O)N4C([H])([H])C([H])([H])C([H])([H])C([H])(n5nc(-c6c([H])c([H])c(Oc7c([H])c([H])c(F)c([H])c7F)c([H])c6[H])c(C(=O)N([H])[H])c5N([H])[H])C4([H])[H])C([H])([H])C3([H])[H])c([H])c([H])c2C1([H])[H]

$$$$
73:0:0
     RDKit          3D

 93101  0  0  1  0  0  0  0  0999 V2000
  -28.4670  -21.7170   19.0160 N   0  0  0  0  0  4  0  0  0  0  0  0
  -28.2320  -21.9260   19.9730 H   0  0  0  0  0  0  0  0  0  0  0  0
  -27.6210  -21.7590   18.4710 H   0  0  0  0  0  0  0  0  0  0  0  0
  -29.0220  -20.3520   18.9580 C   0  0  0  0  0  2  0  0  0  0  0  0
  -28.1200  -19.2930   19.6260 C   0  0  0  0  0  2  0  0  0  0  0  0
  -31.2650  -14.2580   19.4380 C   0  0  0  0  0  0  0  0  0  0  0  0
  -30.8300  -12.0530   18.4510 C   0  0  0  0  0  2  0  0  0  0  0  0
  -29.6990  -12.2080   17.4140 C   0  0  0  0  0  2  0  0  0  0  0  0
  -28.3100  -12.1030   18.0760 C   0  0  0  0  0  2  0  0  0  0  0  0
  -28.1790  -12.9770   19.3530 C   0  0  0  0  0  3  0  0  0  0  0  0
  -29.4060  -12.7870   20.2730 C   0  0  0  0  0  2  0  0  0  0  0  0
  -30.6100  -13.0730   19.4810 N   0  0  0  0  0  0  0  0  0  0  0  0
  -32.3340  -14.4230   18.8390 O   0  0  0  0  0  0  0  0  0  0  0  0
  -29.4640  -16.2790   21.8440 C   0  0  0  0  0  3  0  0  0  0  0  0
  -28.5320  -17.3920   21.3070 C   0  0  0  0  0  3  0  0  0  0  0  0
  -28.8970  -16.9990   18.8120 C   0  0  0  0  0  2  0  0  0  0  0  0
  -30.7600  -15.9870   21.0510 C   0  0  0  0  0  2  0  0  0  0  0  0
  -30.2260  -16.2540   18.6550 C   0  0  0  0  0  2  0  0  0  0  0  0
  -28.9310  -18.0240   19.9610 C   0  0  0  0  0  3  0  0  0  0  0  0
  -30.5040  -15.3250   19.7630 N   0  0  0  0  0  0  0  0  0  0  0  0
  -26.0060  -13.6100   20.5830 C   0  0  0  0  0  0  0  0  0  0  0  0
  -24.9710  -12.8510   21.0610 C   0  0  0  0  0  0  0  0  0  0  0  0
  -25.3160  -11.4960   20.7750 C   0  0  0  0  0  0  0  0  0  0  0  0
  -26.9250  -12.7160   20.0530 N   0  0  0  0  0  0  0  0  0  0  0  0
  -26.5210  -11.4310   20.2220 N   0  0  0  0  0  0  0  0  0  0  0  0
  -24.5410  -10.2600   20.9440 C   0  0  0  0  0  0  0  0  0  0  0  0
  -24.9320   -9.2700   21.8740 C   0  0  0  0  0  3  0  0  0  0  0  0
  -24.1650   -8.0960   22.0340 C   0  0  0  0  0  3  0  0  0  0  0  0
  -22.9910   -7.9090   21.2640 C   0  0  0  0  0  0  0  0  0  0  0  0
  -22.6230   -8.8860   20.3220 C   0  0  0  0  0  3  0  0  0  0  0  0
  -23.3920  -10.0500   20.1580 C   0  0  0  0  0  3  0  0  0  0  0  0
  -22.1970   -6.7900   21.3330 O   0  0  0  0  0  0  0  0  0  0  0  0
  -21.9570   -6.1500   22.5230 C   0  0  0  0  0  0  0  0  0  0  0  0
  -21.3450   -6.8090   23.6130 C   0  0  0  0  0  3  0  0  0  0  0  0
  -21.0530   -6.0980   24.7920 C   0  0  0  0  0  3  0  0  0  0  0  0
  -21.3620   -4.7270   24.8830 C   0  0  0  0  0  0  0  0  0  0  0  0
  -21.9680   -4.0680   23.7980 C   0  0  0  0  0  3  0  0  0  0  0  0
  -22.2600   -4.7770   22.6190 C   0  0  0  0  0  0  0  0  0  0  0  0
  -22.8200   -4.1310   21.5680 F   0  0  0  0  0  0  0  0  0  0  0  0
  -21.0750   -4.0400   26.0120 F   0  0  0  0  0  0  0  0  0  0  0  0
  -23.6940  -13.3560   21.6640 C   0  0  0  0  0  0  0  0  0  0  0  0
  -23.1270  -12.6090   22.6060 N   0  0  0  0  0  0  0  0  0  0  0  0
  -23.2160  -14.4420   21.3400 O   0  0  0  0  0  0  0  0  0  0  0  0
  -23.5320  -11.7270   22.8850 H   0  0  0  0  0  0  0  0  0  0  0  0
  -22.2790  -12.9250   23.0550 H   0  0  0  0  0  0  0  0  0  0  0  0
  -26.2320  -14.9760   20.5450 N   0  0  0  0  0  0  0  0  0  0  0  0
  -25.5830  -15.6490   20.9370 H   0  0  0  0  0  0  0  0  0  0  0  0
  -27.0770  -15.3970   20.1890 H   0  0  0  0  0  0  0  0  0  0  0  0
  -29.4130  -22.7500   18.5460 C   0  0  0  0  0  2  0  0  0  0  0  0
  -28.7680  -24.1420   18.5760 C   0  0  0  0  0  2  0  0  0  0  0  0
  -29.7790  -25.2890   18.4110 C   0  0  0  0  0  2  0  0  0  0  0  0
  -29.1060  -26.6520   18.5750 C   0  0  0  0  0  2  0  0  0  0  0  0
  -28.6350  -26.7620   19.9190 O   0  0  0  0  0  0  0  0  0  0  0  0
  -24.8230  -31.6680   23.3910 C   0  0  0  0  0  0  0  0  0  0  0  0
  -27.4450  -27.4300   20.0410 C   0  0  0  0  0  0  0  0  0  0  0  0
  -23.6000  -30.3520   21.6870 C   0  0  0  0  0  3  0  0  0  0  0  0
  -25.0400  -28.8820   20.1860 C   0  0  0  0  0  0  0  0  0  0  0  0
  -26.1250  -30.7170   21.4980 C   0  0  0  0  0  2  0  0  0  0  0  0
  -26.1990  -29.3830   20.7910 C   0  0  0  0  0  0  0  0  0  0  0  0
  -27.4040  -28.6550   20.7330 C   0  0  0  0  0  3  0  0  0  0  0  0
  -26.2650  -26.9130   19.4660 C   0  0  0  0  0  3  0  0  0  0  0  0
  -25.0610  -27.6350   19.5330 C   0  0  0  0  0  3  0  0  0  0  0  0
  -23.7980  -29.7370   20.2770 C   0  0  0  0  0  2  0  0  0  0  0  0
  -24.8660  -30.9260   22.2490 N   0  0  0  0  0  0  0  0  0  0  0  0
  -23.7470  -31.9170   23.9520 O   0  0  0  0  0  0  0  0  0  0  0  0
  -22.9570  -29.2840   22.5990 C   0  0  0  0  0  0  0  0  0  0  0  0
  -21.6510  -29.0430   22.4040 N   0  0  0  0  0  0  0  0  0  0  0  0
  -23.6300  -28.6760   23.4350 O   0  0  0  0  0  0  0  0  0  0  0  0
  -21.1680  -29.5890   21.7040 H   0  0  0  0  0  0  0  0  0  0  0  0
  -18.3290  -27.6480   22.6680 C   0  0  0  0  0  0  0  0  0  0  0  0
  -20.8420  -28.0550   23.1180 C   0  0  0  0  0  3  0  0  0  0  0  0
  -21.0680  -26.6350   22.5510 C   0  0  0  0  0  2  0  0  0  0  0  0
  -20.0600  -26.2510   21.4630 C   0  0  0  0  0  2  0  0  0  0  0  0
  -18.6310  -26.3130   22.0090 C   0  0  0  0  0  2  0  0  0  0  0  0
  -19.3680  -28.4730   23.1740 C   0  0  0  0  0  0  0  0  0  0  0  0
  -19.0350  -29.7220   23.7420 C   0  0  0  0  0  3  0  0  0  0  0  0
  -17.6960  -30.1470   23.8150 C   0  0  0  0  0  3  0  0  0  0  0  0
  -16.6700  -29.3180   23.3300 C   0  0  0  0  0  3  0  0  0  0  0  0
  -16.9870  -28.0710   22.7610 C   0  0  0  0  0  3  0  0  0  0  0  0
  -26.1170  -32.2610   24.0300 C   0  0  0  0  0  3  0  0  0  0  0  0
  -26.6160  -31.4550   25.2930 C   0  0  1  0  0  0  0  0  0  0  0  0
  -25.5090  -31.2040   26.3430 C   0  0  0  0  0  1  0  0  0  0  0  0
  -27.1900  -30.0800   24.8770 C   0  0  0  0  0  1  0  0  0  0  0  0
  -27.7650  -32.2250   25.9870 C   0  0  0  0  0  1  0  0  0  0  0  0
  -25.8350  -33.6580   24.3820 N   0  0  0  0  0  0  0  0  0  0  0  0
  -26.2110  -34.7170   23.6550 C   0  0  0  0  0  0  0  0  0  0  0  0
  -26.9080  -34.6190   22.6400 O   0  0  0  0  0  0  0  0  0  0  0  0
  -25.2230  -33.8100   25.1710 H   0  0  0  0  0  0  0  0  0  0  0  0
  -24.5480  -36.5650   23.2770 C   0  0  0  0  0  1  0  0  0  0  0  0
  -25.7430  -36.1050   24.1300 C   0  0  0  0  0  3  0  0  0  0  0  0
  -27.8600  -36.9090   25.0770 C   0  0  0  0  0  1  0  0  0  0  0  0
  -26.8060  -37.1310   24.0900 N   0  0  0  0  0  0  0  0  0  0  0  0
  -26.4190  -38.0580   24.2430 H   0  0  0  0  0  0  0  0  0  0  0  0
  1  2  1  0
  3  1  1  0
  4  1  1  0
  4  5  1  0
  6 12  1  0
  6 20  1  0
  7 12  1  0
  8  9  1  0
  8  7  1  0
 10  9  1  0
 10 24  1  0
 10 11  1  0
 12 11  1  0
 13  6  2  0
 15 14  2  0
 16 19  1  0
 17 14  1  0
 18 16  1  0
 18 20  1  0
 19  5  1  0
 19 15  1  0
 20 17  1  0
 21 22  2  0
 22 41  1  0
 23 26  1  0
 23 22  1  0
 24 25  1  0
 24 21  1  0
 25 23  2  0
 26 27  1  0
 27 28  2  0
 29 32  1  0
 29 28  1  0
 30 29  2  0
 31 30  1  0
 31 26  2  0
 32 33  1  0
 33 38  2  0
 33 34  1  0
 34 35  2  0
 35 36  1  0
 36 40  1  0
 37 36  2  0
 38 37  1  0
 39 38  1  0
 41 42  1  0
 42 44  1  0
 42 45  1  0
 43 41  2  0
 46 21  1  0
 46 47  1  0
 48 46  1  0
 49 50  1  0
 49  1  1  0
 51 52  1  0
 51 50  1  0
 52 53  1  0
 53 55  1  0
 54 65  2  0
 55 60  1  0
 56 64  1  0
 56 66  1  0
 57 63  1  0
 57 59  1  0
 58 64  1  0
 59 58  1  0
 60 59  2  0
 61 62  1  0
 61 55  2  0
 62 57  2  0
 63 56  1  0
 64 54  1  0
 66 68  2  0
 67 66  1  0
 69 67  1  0
 70 79  2  0
 70 75  1  0
 71 67  1  0
 71 75  1  0
 72 71  1  0
 73 74  1  0
 73 72  1  0
 74 70  1  0
 75 76  2  0
 76 77  1  0
 78 77  2  0
 79 78  1  0
 80 54  1  0
 80 85  1  0
 80 81  1  0
 81 84  1  1
 81 82  1  0
 83 81  1  0
 85 88  1  0
 86 90  1  0
 86 85  1  0
 87 86  2  0
 90 89  1  0
 92 90  1  0
 92 93  1  0
 92 91  1  0
M  ISO  4   6 100  20 100  52 101  53 101
M  END
>  <TORSDO>  (73) 
F 22

>  <SCORE>  (73) 
-9.679

>  <name>  (73) 
73

>  <ligand_id>  (73) 
73

>  <original_smiles>  (73) 
[H]c1c([H])c([H])c2c(c1[H])C([H])([H])C([H])([H])C([H])([H])C2([H])N([H])C(=O)C1([H])N(C(=O)C([H])(N([H])C(=O)C([H])(N([H])C([H])([H])[H])C([H])([H])[H])C(C([H])([H])[H])(C([H])([H])[H])C([H])([H])[H])C([H])([H])c2c([H])c(OC([H])([H])C([H])([H])C([H])([H])C([H])([H])[N+]([H])([H])C([H])([H])C([H])([H])C3([H])C([H])([H])C([H])([H])N(C(=O)N4C([H])([H])C([H])([H])C([H])([H])C([H])(n5nc(-c6c([H])c([H])c(Oc7c([H])c([H])c(F)c([H])c7F)c([H])c6[H])c(C(=O)N([H])[H])c5N([H])[H])C4([H])[H])C([H])([H])C([H])([H])C3([H])[H])c([H])c([H])c2C1([H])[H]

>  <smiles>  (73) 
[H]c1c([H])c([H])c2c(c1[H])C([H])([H])C([H])([H])C([H])([H])C2([H])N([H])C(=O)C1([H])N(C(=O)C([H])(N([H])C(=O)C([H])(N([H])C([H])([H])[H])C([H])([H])[H])C(C([H])([H])[H])(C([H])([H])[H])C([H])([H])[H])C([H])([H])c2c([H])c(OC([H])([H])C([H])([H])C([H])([H])C([H])([H])[N+]([H])([H])C([H])([H])C([H])([H])C3([H])C([H])([H])C([H])([H])N(C(=O)N4C([H])([H])C([H])([H])C([H])([H])C([H])(n5nc(-c6c([H])c([H])c(Oc7c([H])c([H])c(F)c([H])c7F)c([H])c6[H])c(C(=O)N([H])[H])c5N([H])[H])C4([H])[H])C([H])([H])C([H])([H])C3([H])[H])c([H])c([H])c2C1([H])[H]

$$$$
74:0:0
     RDKit          3D

 93101  0  0  1  0  0  0  0  0999 V2000
  -27.9910  -21.5750   18.1250 C   0  0  0  0  0  2  0  0  0  0  0  0
  -28.0940  -23.1160   18.0910 C   0  0  0  0  0  2  0  0  0  0  0  0
  -29.4480  -23.6890   17.5980 C   0  0  0  0  0  2  0  0  0  0  0  0
  -29.9190  -24.8950   18.4370 C   0  0  0  0  0  2  0  0  0  0  0  0
  -29.2690  -26.2390   18.0650 C   0  0  0  0  0  2  0  0  0  0  0  0
  -29.3260  -27.2600   19.2060 C   0  0  0  0  0  2  0  0  0  0  0  0
  -28.3870  -26.8020   20.1660 O   0  0  0  0  0  0  0  0  0  0  0  0
  -24.5420  -31.8820   23.2280 C   0  0  0  0  0  0  0  0  0  0  0  0
  -27.2080  -27.4950   20.1640 C   0  0  0  0  0  0  0  0  0  0  0  0
  -23.3330  -30.4720   21.5890 C   0  0  0  0  0  3  0  0  0  0  0  0
  -24.7910  -28.9330   20.1710 C   0  0  0  0  0  0  0  0  0  0  0  0
  -25.8460  -30.8560   21.3740 C   0  0  0  0  0  2  0  0  0  0  0  0
  -25.9380  -29.4840   20.7520 C   0  0  0  0  0  0  0  0  0  0  0  0
  -27.1490  -28.7700   20.7540 C   0  0  0  0  0  3  0  0  0  0  0  0
  -26.0520  -26.9340   19.5830 C   0  0  0  0  0  3  0  0  0  0  0  0
  -24.8380  -27.6520   19.5870 C   0  0  0  0  0  3  0  0  0  0  0  0
  -23.5390  -29.7790   20.2120 C   0  0  0  0  0  2  0  0  0  0  0  0
  -24.5910  -31.0840   22.1250 N   0  0  0  0  0  0  0  0  0  0  0  0
  -23.4630  -32.1530   23.7750 O   0  0  0  0  0  0  0  0  0  0  0  0
  -22.6870  -29.4560   22.5550 C   0  0  0  0  0  0  0  0  0  0  0  0
  -21.3610  -29.2820   22.4390 N   0  0  0  0  0  0  0  0  0  0  0  0
  -23.3760  -28.8250   23.3600 O   0  0  0  0  0  0  0  0  0  0  0  0
  -20.8690  -29.8440   21.7590 H   0  0  0  0  0  0  0  0  0  0  0  0
  -17.9870  -28.1080   22.9590 C   0  0  0  0  0  0  0  0  0  0  0  0
  -20.5470  -28.3480   23.2130 C   0  0  0  0  0  3  0  0  0  0  0  0
  -20.6370  -26.9180   22.6310 C   0  0  0  0  0  2  0  0  0  0  0  0
  -19.5240  -26.6050   21.6260 C   0  0  0  0  0  2  0  0  0  0  0  0
  -18.1500  -26.7580   22.2820 C   0  0  0  0  0  2  0  0  0  0  0  0
  -19.1130  -28.8620   23.3830 C   0  0  0  0  0  0  0  0  0  0  0  0
  -18.9080  -30.1270   23.9760 C   0  0  0  0  0  3  0  0  0  0  0  0
  -17.6090  -30.6390   24.1490 C   0  0  0  0  0  3  0  0  0  0  0  0
  -16.4960  -29.8820   23.7430 C   0  0  0  0  0  3  0  0  0  0  0  0
  -16.6860  -28.6180   23.1570 C   0  0  0  0  0  3  0  0  0  0  0  0
  -25.8320  -32.5130   23.8410 C   0  0  0  0  0  3  0  0  0  0  0  0
  -26.3660  -31.7340   25.1060 C   0  0  1  0  0  0  0  0  0  0  0  0
  -25.2880  -31.4780   26.1840 C   0  0  0  0  0  1  0  0  0  0  0  0
  -26.9490  -30.3640   24.6880 C   0  0  0  0  0  1  0  0  0  0  0  0
  -27.5210  -32.5250   25.7640 C   0  0  0  0  0  1  0  0  0  0  0  0
  -25.5280  -33.9090   24.1800 N   0  0  0  0  0  0  0  0  0  0  0  0
  -25.8610  -34.9620   23.4210 C   0  0  0  0  0  0  0  0  0  0  0  0
  -26.5280  -34.8610   22.3880 O   0  0  0  0  0  0  0  0  0  0  0  0
  -24.9380  -34.0630   24.9850 H   0  0  0  0  0  0  0  0  0  0  0  0
  -24.1360  -36.7540   23.0650 C   0  0  0  0  0  1  0  0  0  0  0  0
  -25.3740  -36.3490   23.8800 C   0  0  0  0  0  3  0  0  0  0  0  0
  -27.5110  -37.2250   24.7130 C   0  0  0  0  0  1  0  0  0  0  0  0
  -26.4090  -37.4010   23.7700 N   0  0  0  0  0  0  0  0  0  0  0  0
  -26.0050  -38.3210   23.9210 H   0  0  0  0  0  0  0  0  0  0  0  0
  -29.0250  -20.8210   19.0170 C   0  0  0  0  0  2  0  0  0  0  0  0
  -29.8490  -19.9170   18.1830 N   0  0  0  0  0  4  0  0  0  0  0  0
  -29.2330  -19.2310   17.7780 H   0  0  0  0  0  0  0  0  0  0  0  0
  -30.2410  -20.4660   17.4330 H   0  0  0  0  0  0  0  0  0  0  0  0
  -30.9570  -19.1540   18.8060 C   0  0  0  0  0  2  0  0  0  0  0  0
  -30.7710  -14.6440   20.6410 C   0  0  0  0  0  0  0  0  0  0  0  0
  -30.4650  -12.3890   19.8070 C   0  0  0  0  0  2  0  0  0  0  0  0
  -29.5800  -12.4670   18.5410 C   0  0  0  0  0  2  0  0  0  0  0  0
  -28.0990  -12.3490   18.9240 C   0  0  0  0  0  2  0  0  0  0  0  0
  -27.6850  -13.3250   20.0520 C   0  0  0  0  0  3  0  0  0  0  0  0
  -28.6970  -13.3190   21.2240 C   0  0  0  0  0  2  0  0  0  0  0  0
  -30.0530  -13.4960   20.6750 N   0  0  0  0  0  0  0  0  0  0  0  0
  -31.9420  -14.7160   21.0010 O   0  0  0  0  0  0  0  0  0  0  0  0
  -31.9420  -16.7930   18.2070 C   0  0  0  0  0  2  0  0  0  0  0  0
  -31.3760  -15.3920   18.3990 C   0  0  0  0  0  2  0  0  0  0  0  0
  -30.0850  -16.8440   19.7440 C   0  0  0  0  0  2  0  0  0  0  0  0
  -30.7270  -17.6360   18.5770 C   0  0  0  0  0  3  0  0  0  0  0  0
  -30.4630  -15.4300   19.5740 N   0  0  0  0  0  0  0  0  0  0  0  0
  -25.2450  -13.9220   20.6210 C   0  0  0  0  0  0  0  0  0  0  0  0
  -24.1560  -13.1470   20.9270 C   0  0  0  0  0  0  0  0  0  0  0  0
  -24.6330  -11.8030   20.9660 C   0  0  0  0  0  0  0  0  0  0  0  0
  -26.3110  -13.0490   20.4880 N   0  0  0  0  0  0  0  0  0  0  0  0
  -25.9430  -11.7710   20.7600 N   0  0  0  0  0  0  0  0  0  0  0  0
  -23.9080  -10.5330   21.1260 C   0  0  0  0  0  0  0  0  0  0  0  0
  -24.3010   -9.5730   22.0920 C   0  0  0  0  0  3  0  0  0  0  0  0
  -23.5740   -8.3740   22.2460 C   0  0  0  0  0  3  0  0  0  0  0  0
  -22.4420   -8.1180   21.4340 C   0  0  0  0  0  0  0  0  0  0  0  0
  -22.0730   -9.0610   20.4560 C   0  0  0  0  0  3  0  0  0  0  0  0
  -22.7990  -10.2540   20.3010 C   0  0  0  0  0  3  0  0  0  0  0  0
  -21.6950   -6.9670   21.4940 O   0  0  0  0  0  0  0  0  0  0  0  0
  -21.6100   -6.2220   22.6450 C   0  0  0  0  0  0  0  0  0  0  0  0
  -21.1560   -6.7820   23.8600 C   0  0  0  0  0  3  0  0  0  0  0  0
  -21.0180   -5.9670   25.0040 C   0  0  0  0  0  3  0  0  0  0  0  0
  -21.3250   -4.5950   24.9270 C   0  0  0  0  0  0  0  0  0  0  0  0
  -21.7710   -4.0340   23.7170 C   0  0  0  0  0  3  0  0  0  0  0  0
  -21.9100   -4.8480   22.5770 C   0  0  0  0  0  0  0  0  0  0  0  0
  -22.3220   -4.3020   21.4080 F   0  0  0  0  0  0  0  0  0  0  0  0
  -21.1830   -3.8090   26.0200 F   0  0  0  0  0  0  0  0  0  0  0  0
  -22.7330  -13.6110   21.0680 C   0  0  0  0  0  0  0  0  0  0  0  0
  -21.9410  -12.9300   21.8970 N   0  0  0  0  0  0  0  0  0  0  0  0
  -22.3230  -14.6100   20.4820 O   0  0  0  0  0  0  0  0  0  0  0  0
  -22.2790  -12.1300   22.4100 H   0  0  0  0  0  0  0  0  0  0  0  0
  -20.9810  -13.2210   22.0260 H   0  0  0  0  0  0  0  0  0  0  0  0
  -25.4190  -15.2850   20.4170 N   0  0  0  0  0  0  0  0  0  0  0  0
  -24.6520  -15.9510   20.4110 H   0  0  0  0  0  0  0  0  0  0  0  0
  -26.3090  -15.6970   20.1580 H   0  0  0  0  0  0  0  0  0  0  0  0
  1 48  1  0
  2  1  1  0
  3  2  1  0
  3  4  1  0
  5  4  1  0
  5  6  1  0
  6  7  1  0
  8 19  2  0
  9  7  1  0
  9 14  1  0
 10 18  1  0
 10 20  1  0
 11 17  1  0
 11 13  1  0
 12 18  1  0
 13 14  2  0
 13 12  1  0
 15 16  1  0
 15  9  2  0
 16 11  2  0
 17 10  1  0
 18  8  1  0
 20 22  2  0
 21 20  1  0
 23 21  1  0
 24 33  2  0
 24 29  1  0
 25 21  1  0
 25 29  1  0
 26 25  1  0
 27 28  1  0
 27 26  1  0
 28 24  1  0
 29 30  2  0
 30 31  1  0
 32 31  2  0
 33 32  1  0
 34  8  1  0
 34 39  1  0
 34 35  1  0
 35 38  1  1
 35 36  1  0
 37 35  1  0
 39 42  1  0
 40 44  1  0
 40 39  1  0
 41 40  2  0
 44 43  1  0
 46 44  1  0
 46 47  1  0
 46 45  1  0
 49 52  1  0
 49 48  1  0
 50 49  1  0
 51 49  1  0
 53 59  1  0
 53 60  2  0
 54 59  1  0
 55 56  1  0
 55 54  1  0
 57 56  1  0
 57 69  1  0
 57 58  1  0
 59 58  1  0
 61 62  1  0
 61 64  1  0
 62 65  1  0
 64 52  1  0
 64 63  1  0
 65 63  1  0
 65 53  1  0
 66 67  2  0
 67 68  1  0
 67 86  1  0
 68 71  1  0
 69 66  1  0
 69 70  1  0
 70 68  2  0
 71 72  1  0
 72 73  2  0
 74 77  1  0
 74 73  1  0
 75 74  2  0
 76 75  1  0
 76 71  2  0
 77 78  1  0
 78 79  1  0
 79 80  2  0
 81 80  1  0
 81 85  1  0
 82 81  2  0
 83 78  2  0
 83 82  1  0
 84 83  1  0
 86 87  1  0
 87 90  1  0
 87 89  1  0
 88 86  2  0
 91 66  1  0
 92 91  1  0
 93 91  1  0
M  ISO  4   6 101   7 101  53 100  65 100
M  END
>  <TORSDO>  (74) 
F 24

>  <SCORE>  (74) 
-12.322

>  <name>  (74) 
74

>  <ligand_id>  (74) 
74

>  <original_smiles>  (74) 
[H]c1c([H])c([H])c2c(c1[H])C([H])([H])C([H])([H])C([H])([H])C2([H])N([H])C(=O)C1([H])N(C(=O)C([H])(N([H])C(=O)C([H])(N([H])C([H])([H])[H])C([H])([H])[H])C(C([H])([H])[H])(C([H])([H])[H])C([H])([H])[H])C([H])([H])c2c([H])c(OC([H])([H])C([H])([H])C([H])([H])C([H])([H])C([H])([H])C([H])([H])C([H])([H])[N+]([H])([H])C([H])([H])C3([H])C([H])([H])N(C(=O)N4C([H])([H])C([H])([H])C([H])([H])C([H])(n5nc(-c6c([H])c([H])c(Oc7c([H])c([H])c(F)c([H])c7F)c([H])c6[H])c(C(=O)N([H])[H])c5N([H])[H])C4([H])[H])C([H])([H])C3([H])[H])c([H])c([H])c2C1([H])[H]

>  <smiles>  (74) 
[H]c1c([H])c([H])c2c(c1[H])C([H])([H])C([H])([H])C([H])([H])C2([H])N([H])C(=O)C1([H])N(C(=O)C([H])(N([H])C(=O)C([H])(N([H])C([H])([H])[H])C([H])([H])[H])C(C([H])([H])[H])(C([H])([H])[H])C([H])([H])[H])C([H])([H])c2c([H])c(OC([H])([H])C([H])([H])C([H])([H])C([H])([H])C([H])([H])C([H])([H])C([H])([H])[N+]([H])([H])C([H])([H])C3([H])C([H])([H])N(C(=O)N4C([H])([H])C([H])([H])C([H])([H])C([H])(n5nc(-c6c([H])c([H])c(Oc7c([H])c([H])c(F)c([H])c7F)c([H])c6[H])c(C(=O)N([H])[H])c5N([H])[H])C4([H])[H])C([H])([H])C3([H])[H])c([H])c([H])c2C1([H])[H]

$$$$
75:0:0
     RDKit          3D

 91 99  0  0  1  0  0  0  0  0999 V2000
  -29.3970  -19.3770   20.6260 C   0  0  0  0  0  0  0  0  0  0  0  0
  -28.8190  -20.4340   20.0360 N   0  0  0  0  0  0  0  0  0  0  0  0
  -30.5320  -19.4220   21.1010 O   0  0  0  0  0  0  0  0  0  0  0  0
  -27.8920  -20.2860   19.6580 H   0  0  0  0  0  0  0  0  0  0  0  0
  -30.8480  -14.4730   20.0910 C   0  0  0  0  0  0  0  0  0  0  0  0
  -30.5050  -12.3400   18.9330 C   0  0  0  0  0  2  0  0  0  0  0  0
  -29.5310  -12.6100   17.7690 C   0  0  0  0  0  2  0  0  0  0  0  0
  -28.0680  -12.4630   18.2430 C   0  0  0  0  0  2  0  0  0  0  0  0
  -27.7750  -13.2490   19.5500 C   0  0  0  0  0  3  0  0  0  0  0  0
  -28.8710  -13.0050   20.6120 C   0  0  0  0  0  2  0  0  0  0  0  0
  -30.1730  -13.2980   19.9940 N   0  0  0  0  0  0  0  0  0  0  0  0
  -31.9950  -14.6360   19.6670 O   0  0  0  0  0  0  0  0  0  0  0  0
  -28.6200  -17.3190   19.3300 C   0  0  0  0  0  2  0  0  0  0  0  0
  -28.9160  -17.1250   21.8410 C   0  0  0  0  0  2  0  0  0  0  0  0
  -29.9050  -16.4850   19.1850 C   0  0  0  0  0  2  0  0  0  0  0  0
  -30.1710  -16.2610   21.5830 C   0  0  0  0  0  2  0  0  0  0  0  0
  -28.5580  -18.0800   20.6710 C   0  0  0  0  0  3  0  0  0  0  0  0
  -30.0580  -15.5490   20.3090 N   0  0  0  0  0  0  0  0  0  0  0  0
  -25.3910  -13.8210   20.3330 C   0  0  0  0  0  0  0  0  0  0  0  0
  -24.3440  -13.0330   20.7280 C   0  0  0  0  0  0  0  0  0  0  0  0
  -24.8270  -11.6890   20.6870 C   0  0  0  0  0  0  0  0  0  0  0  0
  -26.4420  -12.9560   20.0700 N   0  0  0  0  0  0  0  0  0  0  0  0
  -26.1070  -11.6680   20.3400 N   0  0  0  0  0  0  0  0  0  0  0  0
  -24.1270  -10.4160   20.9020 C   0  0  0  0  0  0  0  0  0  0  0  0
  -24.5630   -9.4880   21.8740 C   0  0  0  0  0  3  0  0  0  0  0  0
  -23.8620   -8.2790   22.0740 C   0  0  0  0  0  3  0  0  0  0  0  0
  -22.7120   -7.9890   21.3020 C   0  0  0  0  0  0  0  0  0  0  0  0
  -22.2950   -8.9070   20.3200 C   0  0  0  0  0  3  0  0  0  0  0  0
  -22.9980  -10.1070   20.1180 C   0  0  0  0  0  3  0  0  0  0  0  0
  -21.9850   -6.8280   21.4070 O   0  0  0  0  0  0  0  0  0  0  0  0
  -21.8770   -6.1520   22.5960 C   0  0  0  0  0  0  0  0  0  0  0  0
  -21.3620   -6.7670   23.7580 C   0  0  0  0  0  3  0  0  0  0  0  0
  -21.2030   -6.0170   24.9410 C   0  0  0  0  0  3  0  0  0  0  0  0
  -21.5490   -4.6530   24.9610 C   0  0  0  0  0  0  0  0  0  0  0  0
  -22.0590   -4.0380   23.8040 C   0  0  0  0  0  3  0  0  0  0  0  0
  -22.2200   -4.7860   22.6240 C   0  0  0  0  0  0  0  0  0  0  0  0
  -22.6900   -4.1830   21.5040 F   0  0  0  0  0  0  0  0  0  0  0  0
  -21.3910   -3.9300   26.0950 F   0  0  0  0  0  0  0  0  0  0  0  0
  -22.9470  -13.4890   21.0400 C   0  0  0  0  0  0  0  0  0  0  0  0
  -22.2560  -12.7870   21.9320 N   0  0  0  0  0  0  0  0  0  0  0  0
  -22.4760  -14.5040   20.5280 O   0  0  0  0  0  0  0  0  0  0  0  0
  -22.6490  -11.9690   22.3710 H   0  0  0  0  0  0  0  0  0  0  0  0
  -21.3200  -13.0730   22.1810 H   0  0  0  0  0  0  0  0  0  0  0  0
  -25.5330  -15.1940   20.1600 N   0  0  0  0  0  0  0  0  0  0  0  0
  -24.7750  -15.8480   20.3220 H   0  0  0  0  0  0  0  0  0  0  0  0
  -26.3970  -15.6440   19.8920 H   0  0  0  0  0  0  0  0  0  0  0  0
  -29.4240  -21.7440   19.7880 C   0  0  0  0  0  2  0  0  0  0  0  0
  -28.5830  -22.8780   20.4040 C   0  0  0  0  0  2  0  0  0  0  0  0
  -28.9920  -24.2880   19.9250 C   0  0  0  0  0  2  0  0  0  0  0  0
  -28.2880  -25.4010   20.7190 C   0  0  0  0  0  2  0  0  0  0  0  0
  -28.4630  -26.7000   20.1270 O   0  0  0  0  0  0  0  0  0  0  0  0
  -24.6420  -31.8490   23.2060 C   0  0  0  0  0  0  0  0  0  0  0  0
  -27.3140  -27.4560   20.0970 C   0  0  0  0  0  0  0  0  0  0  0  0
  -23.4490  -30.4550   21.5480 C   0  0  0  0  0  3  0  0  0  0  0  0
  -24.9160  -28.9450   20.1090 C   0  0  0  0  0  0  0  0  0  0  0  0
  -25.9720  -30.8340   21.3600 C   0  0  0  0  0  2  0  0  0  0  0  0
  -26.0680  -29.4710   20.7080 C   0  0  0  0  0  0  0  0  0  0  0  0
  -27.2740  -28.7330   20.7000 C   0  0  0  0  0  3  0  0  0  0  0  0
  -26.1520  -26.9520   19.4740 C   0  0  0  0  0  3  0  0  0  0  0  0
  -24.9520  -27.6850   19.4880 C   0  0  0  0  0  3  0  0  0  0  0  0
  -23.6670  -29.7940   20.1620 C   0  0  0  0  0  2  0  0  0  0  0  0
  -24.7050  -31.0590   22.0970 N   0  0  0  0  0  0  0  0  0  0  0  0
  -23.5580  -32.1100   23.7460 O   0  0  0  0  0  0  0  0  0  0  0  0
  -22.8030  -29.4190   22.4970 C   0  0  0  0  0  0  0  0  0  0  0  0
  -21.4790  -29.2370   22.3730 N   0  0  0  0  0  0  0  0  0  0  0  0
  -23.4910  -28.7820   23.3010 O   0  0  0  0  0  0  0  0  0  0  0  0
  -20.9840  -29.8020   21.6960 H   0  0  0  0  0  0  0  0  0  0  0  0
  -18.1070  -28.0370   22.8670 C   0  0  0  0  0  0  0  0  0  0  0  0
  -20.6650  -28.2900   23.1350 C   0  0  0  0  0  3  0  0  0  0  0  0
  -20.7650  -26.8660   22.5410 C   0  0  0  0  0  2  0  0  0  0  0  0
  -19.6600  -26.5570   21.5250 C   0  0  0  0  0  2  0  0  0  0  0  0
  -18.2810  -26.6960   22.1750 C   0  0  0  0  0  2  0  0  0  0  0  0
  -19.2280  -28.7930   23.3040 C   0  0  0  0  0  0  0  0  0  0  0  0
  -19.0120  -30.0480   23.9120 C   0  0  0  0  0  3  0  0  0  0  0  0
  -17.7080  -30.5500   24.0860 C   0  0  0  0  0  3  0  0  0  0  0  0
  -16.6020  -29.7910   23.6650 C   0  0  0  0  0  3  0  0  0  0  0  0
  -16.8010  -28.5370   23.0620 C   0  0  0  0  0  3  0  0  0  0  0  0
  -25.9230  -32.4830   23.8330 C   0  0  0  0  0  3  0  0  0  0  0  0
  -26.4450  -31.7030   25.1010 C   0  0  1  0  0  0  0  0  0  0  0  0
  -25.3530  -31.4490   26.1660 C   0  0  0  0  0  1  0  0  0  0  0  0
  -27.0360  -30.3330   24.6940 C   0  0  0  0  0  1  0  0  0  0  0  0
  -27.5910  -32.4980   25.7720 C   0  0  0  0  0  1  0  0  0  0  0  0
  -25.6060  -33.8760   24.1730 N   0  0  0  0  0  0  0  0  0  0  0  0
  -25.9310  -34.9350   23.4180 C   0  0  0  0  0  0  0  0  0  0  0  0
  -26.6000  -34.8430   22.3870 O   0  0  0  0  0  0  0  0  0  0  0  0
  -25.0130  -34.0230   24.9760 H   0  0  0  0  0  0  0  0  0  0  0  0
  -24.1880  -36.7140   23.0740 C   0  0  0  0  0  1  0  0  0  0  0  0
  -25.4330  -36.3170   23.8840 C   0  0  0  0  0  3  0  0  0  0  0  0
  -27.5630  -37.2120   24.7150 C   0  0  0  0  0  1  0  0  0  0  0  0
  -26.4570  -37.3780   23.7760 N   0  0  0  0  0  0  0  0  0  0  0  0
  -26.0430  -38.2940   23.9330 H   0  0  0  0  0  0  0  0  0  0  0  0
  1  3  2  0
  2  1  1  0
  4  2  1  0
  5 18  1  0
  6 11  1  0
  7  8  1  0
  7  6  1  0
  9  8  1  0
  9 22  1  0
  9 10  1  0
 11  5  1  0
 11 10  1  0
 12  5  2  0
 13 17  1  0
 15 13  1  0
 15 18  1  0
 16 14  1  0
 17  1  1  0
 17 14  1  0
 18 16  1  0
 19 20  2  0
 20 39  1  0
 21 20  1  0
 21 24  1  0
 22 19  1  0
 22 23  1  0
 23 21  2  0
 24 25  1  0
 25 26  2  0
 27 30  1  0
 27 26  1  0
 28 27  2  0
 29 28  1  0
 29 24  2  0
 30 31  1  0
 31 36  2  0
 31 32  1  0
 32 33  2  0
 33 34  1  0
 34 38  1  0
 35 34  2  0
 36 35  1  0
 37 36  1  0
 39 40  1  0
 40 43  1  0
 40 42  1  0
 41 39  2  0
 44 45  1  0
 44 19  1  0
 46 44  1  0
 47  2  1  0
 47 48  1  0
 49 48  1  0
 49 50  1  0
 51 50  1  0
 52 63  2  0
 53 51  1  0
 53 58  1  0
 54 62  1  0
 54 64  1  0
 55 61  1  0
 55 57  1  0
 56 62  1  0
 57 56  1  0
 58 57  2  0
 59 60  1  0
 59 53  2  0
 60 55  2  0
 61 54  1  0
 62 52  1  0
 64 66  2  0
 65 64  1  0
 67 65  1  0
 68 77  2  0
 68 73  1  0
 69 65  1  0
 69 73  1  0
 70 69  1  0
 71 72  1  0
 71 70  1  0
 72 68  1  0
 73 74  2  0
 74 75  1  0
 76 75  2  0
 77 76  1  0
 78 52  1  0
 78 83  1  0
 78 79  1  0
 79 82  1  1
 79 80  1  0
 81 79  1  0
 83 86  1  0
 84 88  1  0
 84 83  1  0
 85 84  2  0
 88 87  1  0
 90 88  1  0
 90 91  1  0
 90 89  1  0
M  ISO  4   5 100  18 100  50 101  51 101
M  END
>  <TORSDO>  (75) 
F 20

>  <SCORE>  (75) 
-12.504

>  <name>  (75) 
75

>  <ligand_id>  (75) 
75

>  <original_smiles>  (75) 
[H]c1c([H])c([H])c2c(c1[H])C([H])([H])C([H])([H])C([H])([H])C2([H])N([H])C(=O)C1([H])N(C(=O)C([H])(N([H])C(=O)C([H])(N([H])C([H])([H])[H])C([H])([H])[H])C(C([H])([H])[H])(C([H])([H])[H])C([H])([H])[H])C([H])([H])c2c([H])c(OC([H])([H])C([H])([H])C([H])([H])C([H])([H])N([H])C(=O)C3([H])C([H])([H])C([H])([H])N(C(=O)N4C([H])([H])C([H])([H])C([H])([H])C([H])(n5nc(-c6c([H])c([H])c(Oc7c([H])c([H])c(F)c([H])c7F)c([H])c6[H])c(C(=O)N([H])[H])c5N([H])[H])C4([H])[H])C([H])([H])C3([H])[H])c([H])c([H])c2C1([H])[H]

>  <smiles>  (75) 
[H]c1c([H])c([H])c2c(c1[H])C([H])([H])C([H])([H])C([H])([H])C2([H])N([H])C(=O)C1([H])N(C(=O)C([H])(N([H])C(=O)C([H])(N([H])C([H])([H])[H])C([H])([H])[H])C(C([H])([H])[H])(C([H])([H])[H])C([H])([H])[H])C([H])([H])c2c([H])c(OC([H])([H])C([H])([H])C([H])([H])C([H])([H])N([H])C(=O)C3([H])C([H])([H])C([H])([H])N(C(=O)N4C([H])([H])C([H])([H])C([H])([H])C([H])(n5nc(-c6c([H])c([H])c(Oc7c([H])c([H])c(F)c([H])c7F)c([H])c6[H])c(C(=O)N([H])[H])c5N([H])[H])C4([H])[H])C([H])([H])C3([H])[H])c([H])c([H])c2C1([H])[H]

$$$$
76:0:0
     RDKit          3D

 94102  0  0  1  0  0  0  0  0999 V2000
  -32.9890  -19.6460   21.7450 C   0  0  0  0  0  2  0  0  0  0  0  0
  -32.4190  -18.3560   22.3380 C   0  0  0  0  0  2  0  0  0  0  0  0
  -31.8520  -20.6420   21.5040 C   0  0  0  0  0  2  0  0  0  0  0  0
  -31.3220  -17.7420   21.4410 C   0  0  0  0  0  3  0  0  0  0  0  0
  -30.7540  -20.0450   20.5880 C   0  0  0  0  0  3  0  0  0  0  0  0
  -30.2610  -18.7470   21.1400 N   0  0  0  0  0  4  0  0  0  0  0  0
  -29.7480  -18.9360   21.9860 H   0  0  0  0  0  0  0  0  0  0  0  0
  -29.6160  -18.3380   20.4820 H   0  0  0  0  0  0  0  0  0  0  0  0
  -30.7690  -16.4700   22.1460 C   0  0  0  0  0  2  0  0  0  0  0  0
  -30.3360  -14.8800   20.2880 C   0  0  0  0  0  0  0  0  0  0  0  0
  -30.0130  -12.8700   18.8930 C   0  0  0  0  0  2  0  0  0  0  0  0
  -28.9750  -13.1000   17.7800 C   0  0  0  0  0  2  0  0  0  0  0  0
  -27.5510  -12.8190   18.2970 C   0  0  0  0  0  2  0  0  0  0  0  0
  -27.2540  -13.5390   19.6390 C   0  0  0  0  0  3  0  0  0  0  0  0
  -28.3930  -13.3030   20.6550 C   0  0  0  0  0  2  0  0  0  0  0  0
  -29.6610  -13.7290   20.0330 N   0  0  0  0  0  0  0  0  0  0  0  0
  -31.3170  -15.2500   19.6380 O   0  0  0  0  0  0  0  0  0  0  0  0
  -29.9140  -15.5820   21.3500 N   0  0  0  0  0  0  0  0  0  0  0  0
  -29.0860  -15.2250   21.8050 H   0  0  0  0  0  0  0  0  0  0  0  0
  -24.8580  -13.9260   20.4970 C   0  0  0  0  0  0  0  0  0  0  0  0
  -23.8770  -13.0580   20.8960 C   0  0  0  0  0  0  0  0  0  0  0  0
  -24.4420  -11.7500   20.7930 C   0  0  0  0  0  0  0  0  0  0  0  0
  -25.9550  -13.1400   20.1800 N   0  0  0  0  0  0  0  0  0  0  0  0
  -25.7120  -11.8260   20.4130 N   0  0  0  0  0  0  0  0  0  0  0  0
  -23.8320  -10.4270   20.9770 C   0  0  0  0  0  0  0  0  0  0  0  0
  -24.3370   -9.5060   21.9210 C   0  0  0  0  0  3  0  0  0  0  0  0
  -23.7210   -8.2480   22.0930 C   0  0  0  0  0  3  0  0  0  0  0  0
  -22.5870   -7.9010   21.3210 C   0  0  0  0  0  0  0  0  0  0  0  0
  -22.1020   -8.8120   20.3680 C   0  0  0  0  0  3  0  0  0  0  0  0
  -22.7190  -10.0620   20.1930 C   0  0  0  0  0  3  0  0  0  0  0  0
  -21.9400   -6.6920   21.4020 O   0  0  0  0  0  0  0  0  0  0  0  0
  -21.8870   -5.9810   22.5740 C   0  0  0  0  0  0  0  0  0  0  0  0
  -21.2980   -6.5120   23.7420 C   0  0  0  0  0  3  0  0  0  0  0  0
  -21.2030   -5.7210   24.9060 C   0  0  0  0  0  3  0  0  0  0  0  0
  -21.6850   -4.3990   24.9000 C   0  0  0  0  0  0  0  0  0  0  0  0
  -22.2670   -3.8660   23.7360 C   0  0  0  0  0  3  0  0  0  0  0  0
  -22.3650   -4.6540   22.5750 C   0  0  0  0  0  0  0  0  0  0  0  0
  -22.9060   -4.1290   21.4500 F   0  0  0  0  0  0  0  0  0  0  0  0
  -21.5870   -3.6360   26.0140 F   0  0  0  0  0  0  0  0  0  0  0  0
  -22.4640  -13.4110   21.2620 C   0  0  0  0  0  0  0  0  0  0  0  0
  -21.8470  -12.6320   22.1430 N   0  0  0  0  0  0  0  0  0  0  0  0
  -21.9150  -14.4110   20.8010 O   0  0  0  0  0  0  0  0  0  0  0  0
  -22.3050  -11.8240   22.5360 H   0  0  0  0  0  0  0  0  0  0  0  0
  -20.9030  -12.8490   22.4300 H   0  0  0  0  0  0  0  0  0  0  0  0
  -24.9050  -15.3100   20.3590 N   0  0  0  0  0  0  0  0  0  0  0  0
  -24.0980  -15.9000   20.5300 H   0  0  0  0  0  0  0  0  0  0  0  0
  -25.7000  -15.8230   20.0010 H   0  0  0  0  0  0  0  0  0  0  0  0
  -29.5820  -21.0460   20.3720 C   0  0  0  0  0  2  0  0  0  0  0  0
  -30.0330  -22.4040   20.0400 N   0  0  0  0  0  0  0  0  0  0  0  0
  -30.6360  -22.3750   19.2200 H   0  0  0  0  0  0  0  0  0  0  0  0
  -28.8980  -23.2870   19.7760 C   0  0  0  0  0  2  0  0  0  0  0  0
  -29.3000  -24.7830   19.7850 C   0  0  0  0  0  2  0  0  0  0  0  0
  -28.0910  -25.6720   19.4360 C   0  0  0  0  0  2  0  0  0  0  0  0
  -28.2610  -27.0720   19.7160 O   0  0  0  0  0  0  0  0  0  0  0  0
  -24.6750  -32.0310   23.3780 C   0  0  0  0  0  0  0  0  0  0  0  0
  -27.0960  -27.8160   19.8180 C   0  0  0  0  0  0  0  0  0  0  0  0
  -23.3650  -30.7560   21.7170 C   0  0  0  0  0  3  0  0  0  0  0  0
  -24.7160  -29.3330   20.0940 C   0  0  0  0  0  0  0  0  0  0  0  0
  -25.8780  -31.1220   21.3920 C   0  0  0  0  0  2  0  0  0  0  0  0
  -25.9150  -29.8040   20.6460 C   0  0  0  0  0  0  0  0  0  0  0  0
  -27.1070  -29.0540   20.5040 C   0  0  0  0  0  3  0  0  0  0  0  0
  -25.8720  -27.3710   19.2580 C   0  0  0  0  0  3  0  0  0  0  0  0
  -24.6910  -28.1160   19.3990 C   0  0  0  0  0  3  0  0  0  0  0  0
  -23.4840  -30.1860   20.2800 C   0  0  0  0  0  2  0  0  0  0  0  0
  -24.6620  -31.3130   22.2190 N   0  0  0  0  0  0  0  0  0  0  0  0
  -23.6300  -32.2640   24.0010 O   0  0  0  0  0  0  0  0  0  0  0  0
  -22.7670  -29.6650   22.6350 C   0  0  0  0  0  0  0  0  0  0  0  0
  -21.4510  -29.4280   22.5050 N   0  0  0  0  0  0  0  0  0  0  0  0
  -23.4830  -29.0400   23.4210 O   0  0  0  0  0  0  0  0  0  0  0  0
  -20.9330  -29.9900   21.8450 H   0  0  0  0  0  0  0  0  0  0  0  0
  -18.1520  -28.0110   22.9110 C   0  0  0  0  0  0  0  0  0  0  0  0
  -20.6830  -28.4230   23.2400 C   0  0  0  0  0  3  0  0  0  0  0  0
  -20.8870  -27.0140   22.6360 C   0  0  0  0  0  2  0  0  0  0  0  0
  -19.8270  -26.6450   21.5940 C   0  0  0  0  0  2  0  0  0  0  0  0
  -18.4260  -26.6900   22.2120 C   0  0  0  0  0  2  0  0  0  0  0  0
  -19.2120  -28.8320   23.3800 C   0  0  0  0  0  0  0  0  0  0  0  0
  -18.9030  -30.0670   23.9890 C   0  0  0  0  0  3  0  0  0  0  0  0
  -17.5660  -30.4830   24.1370 C   0  0  0  0  0  3  0  0  0  0  0  0
  -16.5210  -29.6590   23.6870 C   0  0  0  0  0  3  0  0  0  0  0  0
  -16.8140  -28.4250   23.0800 C   0  0  0  0  0  3  0  0  0  0  0  0
  -26.0000  -32.6140   23.9620 C   0  0  0  0  0  3  0  0  0  0  0  0
  -25.7370  -34.0030   24.3590 N   0  0  0  0  0  0  0  0  0  0  0  0
  -26.0700  -35.0770   23.6300 C   0  0  0  0  0  0  0  0  0  0  0  0
  -26.7050  -35.0000   22.5750 O   0  0  0  0  0  0  0  0  0  0  0  0
  -25.1730  -34.1390   25.1840 H   0  0  0  0  0  0  0  0  0  0  0  0
  -24.3880  -36.9300   23.3830 C   0  0  0  0  0  1  0  0  0  0  0  0
  -25.6290  -36.4560   24.1570 C   0  0  0  0  0  3  0  0  0  0  0  0
  -27.7930  -37.2480   25.0010 C   0  0  0  0  0  1  0  0  0  0  0  0
  -26.6900  -37.4840   24.0750 N   0  0  0  0  0  0  0  0  0  0  0  0
  -26.3100  -38.4080   24.2610 H   0  0  0  0  0  0  0  0  0  0  0  0
  -26.5610  -31.7820   25.1800 C   0  0  1  0  0  0  0  0  0  0  0  0
  -25.5100  -31.5020   26.2790 C   0  0  0  0  0  1  0  0  0  0  0  0
  -27.1180  -30.4210   24.7010 C   0  0  0  0  0  1  0  0  0  0  0  0
  -27.7430  -32.5380   25.8310 C   0  0  0  0  0  1  0  0  0  0  0  0
  1  2  1  0
  3  1  1  0
  4  9  1  0
  4  2  1  0
  5 48  1  0
  5  6  1  0
  5  3  1  0
  6  4  1  0
  6  7  1  0
  8  6  1  0
 10 18  1  0
 11 16  1  0
 12 13  1  0
 12 11  1  0
 14 13  1  0
 14 23  1  0
 14 15  1  0
 16 10  1  0
 16 15  1  0
 17 10  2  0
 18 19  1  0
 18  9  1  0
 20 21  2  0
 21 40  1  0
 22 21  1  0
 22 25  1  0
 23 24  1  0
 23 20  1  0
 24 22  2  0
 25 26  1  0
 26 27  2  0
 28 31  1  0
 28 27  1  0
 29 28  2  0
 30 29  1  0
 30 25  2  0
 31 32  1  0
 32 37  2  0
 32 33  1  0
 33 34  2  0
 35 34  1  0
 35 39  1  0
 36 35  2  0
 37 36  1  0
 38 37  1  0
 40 41  1  0
 41 44  1  0
 41 43  1  0
 42 40  2  0
 45 20  1  0
 45 46  1  0
 47 45  1  0
 49 48  1  0
 50 49  1  0
 51 52  1  0
 51 49  1  0
 53 54  1  0
 53 52  1  0
 54 56  1  0
 55 66  2  0
 56 61  1  0
 57 65  1  0
 57 67  1  0
 58 64  1  0
 58 60  1  0
 59 65  1  0
 60 59  1  0
 61 60  2  0
 62 63  1  0
 62 56  2  0
 63 58  2  0
 64 57  1  0
 65 55  1  0
 67 69  2  0
 68 67  1  0
 70 68  1  0
 71 80  2  0
 71 76  1  0
 72 68  1  0
 72 76  1  0
 73 72  1  0
 74 75  1  0
 74 73  1  0
 75 71  1  0
 76 77  2  0
 77 78  1  0
 79 78  2  0
 80 79  1  0
 81 55  1  0
 81 82  1  0
 81 91  1  0
 82 85  1  0
 83 87  1  0
 83 82  1  0
 84 83  2  0
 87 86  1  0
 89 87  1  0
 89 90  1  0
 89 88  1  0
 91 94  1  1
 91 92  1  0
 93 91  1  0
M  ISO  4  10 100  18 100  53 101  54 101
M  END
>  <TORSDO>  (76) 
F 22

>  <SCORE>  (76) 
-11.687

>  <name>  (76) 
76

>  <ligand_id>  (76) 
76

>  <original_smiles>  (76) 
[H]c1c([H])c([H])c2c(c1[H])C([H])([H])C([H])([H])C([H])([H])C2([H])N([H])C(=O)C1([H])N(C(=O)C([H])(N([H])C(=O)C([H])(N([H])C([H])([H])[H])C([H])([H])[H])C(C([H])([H])[H])(C([H])([H])[H])C([H])([H])[H])C([H])([H])c2c([H])c(OC([H])([H])C([H])([H])C([H])([H])N([H])C([H])([H])C3([H])C([H])([H])C([H])([H])C([H])([H])C([H])(C([H])([H])N([H])C(=O)N4C([H])([H])C([H])([H])C([H])([H])C([H])(n5nc(-c6c([H])c([H])c(Oc7c([H])c([H])c(F)c([H])c7F)c([H])c6[H])c(C(=O)N([H])[H])c5N([H])[H])C4([H])[H])[N+]3([H])[H])c([H])c([H])c2C1([H])[H]

>  <smiles>  (76) 
[H]c1c([H])c([H])c2c(c1[H])C([H])([H])C([H])([H])C([H])([H])C2([H])N([H])C(=O)C1([H])N(C(=O)C([H])(N([H])C(=O)C([H])(N([H])C([H])([H])[H])C([H])([H])[H])C(C([H])([H])[H])(C([H])([H])[H])C([H])([H])[H])C([H])([H])c2c([H])c(OC([H])([H])C([H])([H])C([H])([H])N([H])C([H])([H])C3([H])C([H])([H])C([H])([H])C([H])([H])C([H])(C([H])([H])N([H])C(=O)N4C([H])([H])C([H])([H])C([H])([H])C([H])(n5nc(-c6c([H])c([H])c(Oc7c([H])c([H])c(F)c([H])c7F)c([H])c6[H])c(C(=O)N([H])[H])c5N([H])[H])C4([H])[H])[N+]3([H])[H])c([H])c([H])c2C1([H])[H]

$$$$
77:0:0
     RDKit          3D

 94102  0  0  1  0  0  0  0  0999 V2000
  -27.5190  -18.3560   18.9910 C   0  0  0  0  0  2  0  0  0  0  0  0
  -28.1980  -19.6880   19.2450 C   0  0  0  0  0  2  0  0  0  0  0  0
  -28.6940  -17.3940   18.8700 C   0  0  0  0  0  3  0  0  0  0  0  0
  -29.7600  -17.9540   19.8550 C   0  0  0  0  0  3  0  0  0  0  0  0
  -29.2800  -19.3370   20.1620 N   0  0  0  0  0  0  0  0  0  0  0  0
  -29.2070  -17.3450   17.4860 N   0  0  0  0  0  4  0  0  0  0  0  0
  -29.5230  -18.2490   17.1830 H   0  0  0  0  0  0  0  0  0  0  0  0
  -28.4940  -17.0280   16.8540 H   0  0  0  0  0  0  0  0  0  0  0  0
  -29.9810  -16.7080   17.4200 H   0  0  0  0  0  0  0  0  0  0  0  0
  -29.9980  -17.0890   21.1520 C   0  0  0  0  0  2  0  0  0  0  0  0
  -30.5930  -14.6120   20.6670 C   0  0  0  0  0  0  0  0  0  0  0  0
  -30.4010  -12.4200   19.5340 C   0  0  0  0  0  2  0  0  0  0  0  0
  -29.4890  -12.5870   18.2990 C   0  0  0  0  0  2  0  0  0  0  0  0
  -28.0020  -12.4330   18.6820 C   0  0  0  0  0  2  0  0  0  0  0  0
  -27.6140  -13.2750   19.9260 C   0  0  0  0  0  3  0  0  0  0  0  0
  -28.6360  -13.0720   21.0680 C   0  0  0  0  0  2  0  0  0  0  0  0
  -29.9710  -13.4050   20.5390 N   0  0  0  0  0  0  0  0  0  0  0  0
  -31.7450  -14.8200   20.2770 O   0  0  0  0  0  0  0  0  0  0  0  0
  -29.7800  -15.6190   21.0570 N   0  0  0  0  0  0  0  0  0  0  0  0
  -28.8660  -15.3080   21.3530 H   0  0  0  0  0  0  0  0  0  0  0  0
  -25.1890  -13.8860   20.5340 C   0  0  0  0  0  0  0  0  0  0  0  0
  -24.1110  -13.1140   20.8720 C   0  0  0  0  0  0  0  0  0  0  0  0
  -24.5810  -11.7650   20.8860 C   0  0  0  0  0  0  0  0  0  0  0  0
  -26.2460  -13.0050   20.3600 N   0  0  0  0  0  0  0  0  0  0  0  0
  -25.8830  -11.7270   20.6290 N   0  0  0  0  0  0  0  0  0  0  0  0
  -23.8560  -10.5030   21.0720 C   0  0  0  0  0  0  0  0  0  0  0  0
  -24.2780   -9.5430   22.0170 C   0  0  0  0  0  3  0  0  0  0  0  0
  -23.5550   -8.3430   22.1910 C   0  0  0  0  0  3  0  0  0  0  0  0
  -22.3950   -8.0970   21.4190 C   0  0  0  0  0  0  0  0  0  0  0  0
  -21.9920   -9.0460   20.4630 C   0  0  0  0  0  3  0  0  0  0  0  0
  -22.7160  -10.2370   20.2870 C   0  0  0  0  0  3  0  0  0  0  0  0
  -21.6450   -6.9480   21.5010 O   0  0  0  0  0  0  0  0  0  0  0  0
  -21.6020   -6.1980   22.6490 C   0  0  0  0  0  0  0  0  0  0  0  0
  -21.2000   -6.7490   23.8850 C   0  0  0  0  0  3  0  0  0  0  0  0
  -21.1030   -5.9250   25.0240 C   0  0  0  0  0  3  0  0  0  0  0  0
  -21.3960   -4.5520   24.9270 C   0  0  0  0  0  0  0  0  0  0  0  0
  -21.7900   -4.0010   23.6970 C   0  0  0  0  0  3  0  0  0  0  0  0
  -21.8900   -4.8210   22.5590 C   0  0  0  0  0  0  0  0  0  0  0  0
  -22.2500   -4.2810   21.3700 F   0  0  0  0  0  0  0  0  0  0  0  0
  -21.2940   -3.7580   26.0200 F   0  0  0  0  0  0  0  0  0  0  0  0
  -22.7010  -13.5880   21.0820 C   0  0  0  0  0  0  0  0  0  0  0  0
  -21.9460  -12.9050   21.9350 N   0  0  0  0  0  0  0  0  0  0  0  0
  -22.2770  -14.6000   20.5260 O   0  0  0  0  0  0  0  0  0  0  0  0
  -22.3000  -12.0870   22.4090 H   0  0  0  0  0  0  0  0  0  0  0  0
  -20.9980  -13.2050   22.1180 H   0  0  0  0  0  0  0  0  0  0  0  0
  -25.3530  -15.2550   20.3450 N   0  0  0  0  0  0  0  0  0  0  0  0
  -24.5770  -15.9020   20.4370 H   0  0  0  0  0  0  0  0  0  0  0  0
  -26.2240  -15.7110   20.1160 H   0  0  0  0  0  0  0  0  0  0  0  0
  -30.2810  -20.4010   20.4140 C   0  0  0  0  0  2  0  0  0  0  0  0
  -30.0350  -21.8520   19.8450 C   0  0  0  0  0  2  0  0  0  0  0  0
  -29.1170  -22.8500   20.6200 C   0  0  0  0  0  2  0  0  0  0  0  0
  -29.1110  -24.3060   20.0310 C   0  0  0  0  0  2  0  0  0  0  0  0
  -28.2200  -25.3470   20.7770 C   0  0  0  0  0  2  0  0  0  0  0  0
  -28.3250  -26.7020   20.2590 O   0  0  0  0  0  0  0  0  0  0  0  0
  -24.5460  -31.9920   23.2640 C   0  0  0  0  0  0  0  0  0  0  0  0
  -27.1680  -27.4680   20.2550 C   0  0  0  0  0  0  0  0  0  0  0  0
  -23.3370  -30.5800   21.6340 C   0  0  0  0  0  3  0  0  0  0  0  0
  -24.7870  -29.0130   20.2320 C   0  0  0  0  0  0  0  0  0  0  0  0
  -25.8690  -30.9140   21.4410 C   0  0  0  0  0  2  0  0  0  0  0  0
  -25.9480  -29.5320   20.8170 C   0  0  0  0  0  0  0  0  0  0  0  0
  -27.1450  -28.7690   20.8190 C   0  0  0  0  0  3  0  0  0  0  0  0
  -25.9900  -26.9760   19.6550 C   0  0  0  0  0  3  0  0  0  0  0  0
  -24.8030  -27.7360   19.6450 C   0  0  0  0  0  3  0  0  0  0  0  0
  -23.5480  -29.8820   20.2640 C   0  0  0  0  0  2  0  0  0  0  0  0
  -24.6020  -31.1790   22.1710 N   0  0  0  0  0  0  0  0  0  0  0  0
  -23.4640  -32.2780   23.7970 O   0  0  0  0  0  0  0  0  0  0  0  0
  -22.6750  -29.5740   22.6060 C   0  0  0  0  0  0  0  0  0  0  0  0
  -21.3490  -29.3990   22.4760 N   0  0  0  0  0  0  0  0  0  0  0  0
  -23.3510  -28.9550   23.4300 O   0  0  0  0  0  0  0  0  0  0  0  0
  -20.8670  -29.9500   21.7800 H   0  0  0  0  0  0  0  0  0  0  0  0
  -17.9670  -28.2240   22.9680 C   0  0  0  0  0  0  0  0  0  0  0  0
  -20.5250  -28.4750   23.2530 C   0  0  0  0  0  3  0  0  0  0  0  0
  -20.6240  -27.0360   22.6950 C   0  0  0  0  0  2  0  0  0  0  0  0
  -19.5270  -26.7060   21.6790 C   0  0  0  0  0  2  0  0  0  0  0  0
  -18.1420  -26.8650   22.3110 C   0  0  0  0  0  2  0  0  0  0  0  0
  -19.0860  -28.9870   23.3960 C   0  0  0  0  0  0  0  0  0  0  0  0
  -18.8700  -30.2590   23.9680 C   0  0  0  0  0  3  0  0  0  0  0  0
  -17.5660  -30.7680   24.1200 C   0  0  0  0  0  3  0  0  0  0  0  0
  -16.4610  -30.0020   23.7090 C   0  0  0  0  0  3  0  0  0  0  0  0
  -16.6620  -28.7320   23.1380 C   0  0  0  0  0  3  0  0  0  0  0  0
  -25.8330  -32.6220   23.8820 C   0  0  0  0  0  3  0  0  0  0  0  0
  -26.3500  -31.8540   25.1610 C   0  0  1  0  0  0  0  0  0  0  0  0
  -25.2570  -31.6240   26.2310 C   0  0  0  0  0  1  0  0  0  0  0  0
  -26.9270  -30.4730   24.7690 C   0  0  0  0  0  1  0  0  0  0  0  0
  -27.5050  -32.6460   25.8160 C   0  0  0  0  0  1  0  0  0  0  0  0
  -25.5290  -34.0220   24.2060 N   0  0  0  0  0  0  0  0  0  0  0  0
  -25.8700  -35.0700   23.4440 C   0  0  0  0  0  0  0  0  0  0  0  0
  -26.5460  -34.9590   22.4170 O   0  0  0  0  0  0  0  0  0  0  0  0
  -24.9330  -34.1830   25.0050 H   0  0  0  0  0  0  0  0  0  0  0  0
  -24.1520  -36.8670   23.0740 C   0  0  0  0  0  1  0  0  0  0  0  0
  -25.3870  -36.4620   23.8940 C   0  0  0  0  0  3  0  0  0  0  0  0
  -27.5240  -37.3370   24.7280 C   0  0  0  0  0  1  0  0  0  0  0  0
  -26.4250  -37.5100   23.7820 N   0  0  0  0  0  0  0  0  0  0  0  0
  -26.0220  -38.4320   23.9270 H   0  0  0  0  0  0  0  0  0  0  0  0
  1  2  1  0
  2  5  1  0
  3  6  1  0
  3  1  1  0
  3  4  1  0
  4  5  1  0
  4 10  1  0
  5 49  1  0
  7  6  1  0
  8  6  1  0
  9  6  1  0
 11 19  1  0
 12 17  1  0
 13 14  1  0
 13 12  1  0
 15 14  1  0
 15 24  1  0
 15 16  1  0
 17 11  1  0
 17 16  1  0
 18 11  2  0
 19 10  1  0
 19 20  1  0
 21 22  2  0
 22 23  1  0
 22 41  1  0
 23 26  1  0
 24 21  1  0
 24 25  1  0
 25 23  2  0
 26 27  1  0
 27 28  2  0
 29 32  1  0
 29 28  1  0
 30 29  2  0
 31 30  1  0
 31 26  2  0
 32 33  1  0
 33 34  1  0
 34 35  2  0
 36 35  1  0
 36 40  1  0
 37 36  2  0
 38 33  2  0
 38 37  1  0
 39 38  1  0
 41 42  1  0
 42 45  1  0
 42 44  1  0
 43 41  2  0
 46 47  1  0
 46 21  1  0
 48 46  1  0
 50 49  1  0
 50 51  1  0
 52 51  1  0
 52 53  1  0
 54 53  1  0
 55 66  2  0
 56 54  1  0
 56 61  1  0
 57 65  1  0
 57 67  1  0
 58 64  1  0
 58 60  1  0
 59 65  1  0
 60 61  2  0
 60 59  1  0
 62 56  2  0
 63 62  1  0
 63 58  2  0
 64 57  1  0
 65 55  1  0
 67 69  2  0
 68 67  1  0
 70 68  1  0
 71 80  2  0
 71 76  1  0
 72 68  1  0
 72 76  1  0
 73 72  1  0
 74 75  1  0
 74 73  1  0
 75 71  1  0
 76 77  2  0
 77 78  1  0
 79 78  2  0
 80 79  1  0
 81 55  1  0
 81 86  1  0
 81 82  1  0
 82 85  1  1
 82 83  1  0
 84 82  1  0
 86 89  1  0
 87 91  1  0
 87 86  1  0
 88 87  2  0
 91 90  1  0
 93 91  1  0
 93 94  1  0
 93 92  1  0
M  ISO  4  11 100  19 100  53 101  54 101
M  END
>  <TORSDO>  (77) 
F 23

>  <SCORE>  (77) 
-12.809

>  <name>  (77) 
77

>  <ligand_id>  (77) 
77

>  <original_smiles>  (77) 
[H]c1c([H])c([H])c2c(c1[H])C([H])([H])C([H])([H])C([H])([H])C2([H])N([H])C(=O)C1([H])N(C(=O)C([H])(N([H])C(=O)C([H])(N([H])C([H])([H])[H])C([H])([H])[H])C(C([H])([H])[H])(C([H])([H])[H])C([H])([H])[H])C([H])([H])c2c([H])c(OC([H])([H])C([H])([H])C([H])([H])C([H])([H])C([H])([H])N3C([H])([H])C([H])([H])C([H])([N+]([H])([H])[H])C3([H])C([H])([H])N([H])C(=O)N3C([H])([H])C([H])([H])C([H])([H])C([H])(n4nc(-c5c([H])c([H])c(Oc6c([H])c([H])c(F)c([H])c6F)c([H])c5[H])c(C(=O)N([H])[H])c4N([H])[H])C3([H])[H])c([H])c([H])c2C1([H])[H]

>  <smiles>  (77) 
[H]c1c([H])c([H])c2c(c1[H])C([H])([H])C([H])([H])C([H])([H])C2([H])N([H])C(=O)C1([H])N(C(=O)C([H])(N([H])C(=O)C([H])(N([H])C([H])([H])[H])C([H])([H])[H])C(C([H])([H])[H])(C([H])([H])[H])C([H])([H])[H])C([H])([H])c2c([H])c(OC([H])([H])C([H])([H])C([H])([H])C([H])([H])C([H])([H])N3C([H])([H])C([H])([H])C([H])([N+]([H])([H])[H])C3([H])C([H])([H])N([H])C(=O)N3C([H])([H])C([H])([H])C([H])([H])C([H])(n4nc(-c5c([H])c([H])c(Oc6c([H])c([H])c(F)c([H])c6F)c([H])c5[H])c(C(=O)N([H])[H])c4N([H])[H])C3([H])[H])c([H])c([H])c2C1([H])[H]

$$$$
78:0:0
     RDKit          3D

 90 98  0  0  1  0  0  0  0  0999 V2000
  -28.7270  -20.3750   22.0120 C   0  0  0  0  0  2  0  0  0  0  0  0
  -28.2500  -19.8140   20.6640 C   0  0  0  0  0  2  0  0  0  0  0  0
  -29.9220  -21.2960   21.6760 C   0  0  0  0  0  2  0  0  0  0  0  0
  -29.4610  -20.0010   19.7450 C   0  0  0  0  0  3  0  0  0  0  0  0
  -30.0330  -21.3510   20.1960 N   0  0  1  0  0  4  0  0  0  0  0  0
  -31.0070  -21.4040   19.9370 H   0  0  0  0  0  0  0  0  0  0  0  0
  -30.3820  -18.6570   19.6170 C   0  0  0  0  0  2  0  0  0  0  0  0
  -30.5500  -17.5380   20.7630 C   0  0  0  0  0  2  0  0  0  0  0  0
  -31.1500  -15.0100   20.1580 C   0  0  0  0  0  0  0  0  0  0  0  0
  -30.9610  -12.7670   19.0870 C   0  0  0  0  0  2  0  0  0  0  0  0
  -29.9740  -12.8430   17.8990 C   0  0  0  0  0  2  0  0  0  0  0  0
  -28.5040  -12.7100   18.3600 C   0  0  0  0  0  2  0  0  0  0  0  0
  -28.1780  -13.5850   19.6020 C   0  0  0  0  0  3  0  0  0  0  0  0
  -29.2620  -13.4120   20.6870 C   0  0  0  0  0  2  0  0  0  0  0  0
  -30.5470  -13.7810   20.0770 N   0  0  0  0  0  0  0  0  0  0  0  0
  -32.3270  -15.1700   19.8210 O   0  0  0  0  0  0  0  0  0  0  0  0
  -30.3200  -16.0670   20.4510 N   0  0  0  0  0  0  0  0  0  0  0  0
  -29.3750  -15.7590   20.6290 H   0  0  0  0  0  0  0  0  0  0  0  0
  -25.8250  -14.2290   20.4130 C   0  0  0  0  0  0  0  0  0  0  0  0
  -24.7470  -13.4730   20.7840 C   0  0  0  0  0  0  0  0  0  0  0  0
  -25.1660  -12.1120   20.6900 C   0  0  0  0  0  0  0  0  0  0  0  0
  -26.8350  -13.3270   20.1170 N   0  0  0  0  0  0  0  0  0  0  0  0
  -26.4460  -12.0470   20.3420 N   0  0  0  0  0  0  0  0  0  0  0  0
  -24.4080  -10.8660   20.8490 C   0  0  0  0  0  0  0  0  0  0  0  0
  -24.7990   -9.8820   21.7850 C   0  0  0  0  0  3  0  0  0  0  0  0
  -24.0440   -8.6980   21.9350 C   0  0  0  0  0  3  0  0  0  0  0  0
  -22.8830   -8.4930   21.1480 C   0  0  0  0  0  0  0  0  0  0  0  0
  -22.5150   -9.4630   20.2000 C   0  0  0  0  0  3  0  0  0  0  0  0
  -23.2710  -10.6360   20.0500 C   0  0  0  0  0  3  0  0  0  0  0  0
  -22.1030   -7.3640   21.2080 O   0  0  0  0  0  0  0  0  0  0  0  0
  -21.9470   -6.6550   22.3720 C   0  0  0  0  0  0  0  0  0  0  0  0
  -21.4010   -7.2440   23.5350 C   0  0  0  0  0  3  0  0  0  0  0  0
  -21.1960   -6.4620   24.6890 C   0  0  0  0  0  3  0  0  0  0  0  0
  -21.5260   -5.0920   24.6790 C   0  0  0  0  0  0  0  0  0  0  0  0
  -22.0630   -4.5040   23.5210 C   0  0  0  0  0  3  0  0  0  0  0  0
  -22.2690   -5.2840   22.3690 C   0  0  0  0  0  0  0  0  0  0  0  0
  -22.7670   -4.7070   21.2490 F   0  0  0  0  0  0  0  0  0  0  0  0
  -21.3190   -4.3400   25.7840 F   0  0  0  0  0  0  0  0  0  0  0  0
  -23.3700  -13.9790   21.1080 C   0  0  0  0  0  0  0  0  0  0  0  0
  -22.6460  -13.2770   21.9740 N   0  0  0  0  0  0  0  0  0  0  0  0
  -22.9450  -15.0300   20.6290 O   0  0  0  0  0  0  0  0  0  0  0  0
  -23.0030  -12.4270   22.3860 H   0  0  0  0  0  0  0  0  0  0  0  0
  -21.7200  -13.5890   22.2230 H   0  0  0  0  0  0  0  0  0  0  0  0
  -26.0200  -15.6030   20.2840 N   0  0  0  0  0  0  0  0  0  0  0  0
  -25.2630  -16.2580   20.4540 H   0  0  0  0  0  0  0  0  0  0  0  0
  -26.8510  -16.0440   19.9150 H   0  0  0  0  0  0  0  0  0  0  0  0
  -29.3350  -22.5930   19.5950 C   0  0  0  0  0  2  0  0  0  0  0  0
  -29.6420  -24.0990   20.1160 C   0  0  0  0  0  3  0  0  0  0  0  0
  -28.5310  -25.2070   19.7770 C   0  0  0  0  0  3  0  0  0  0  0  0
  -28.6930  -26.6610   20.0830 O   0  0  0  0  0  0  0  0  0  0  0  0
  -24.6320  -31.7760   23.2190 C   0  0  0  0  0  0  0  0  0  0  0  0
  -27.5350  -27.4710   20.0450 C   0  0  0  0  0  0  0  0  0  0  0  0
  -23.5380  -30.3840   21.5010 C   0  0  0  0  0  3  0  0  0  0  0  0
  -25.0930  -28.9770   20.0460 C   0  0  0  0  0  0  0  0  0  0  0  0
  -26.0680  -30.8310   21.3980 C   0  0  0  0  0  2  0  0  0  0  0  0
  -26.2290  -29.4940   20.6840 C   0  0  0  0  0  0  0  0  0  0  0  0
  -27.4550  -28.7620   20.6620 C   0  0  0  0  0  3  0  0  0  0  0  0
  -26.3670  -27.0090   19.3940 C   0  0  0  0  0  3  0  0  0  0  0  0
  -25.1680  -27.7400   19.3900 C   0  0  0  0  0  3  0  0  0  0  0  0
  -23.8160  -29.7900   20.0970 C   0  0  0  0  0  2  0  0  0  0  0  0
  -24.7600  -31.0180   22.0910 N   0  0  0  0  0  0  0  0  0  0  0  0
  -23.5240  -31.9720   23.7410 O   0  0  0  0  0  0  0  0  0  0  0  0
  -22.9110  -29.2950   22.4070 C   0  0  0  0  0  0  0  0  0  0  0  0
  -21.5960  -29.0550   22.2520 N   0  0  0  0  0  0  0  0  0  0  0  0
  -23.6080  -28.6720   23.2110 O   0  0  0  0  0  0  0  0  0  0  0  0
  -21.0880  -29.6190   21.5860 H   0  0  0  0  0  0  0  0  0  0  0  0
  -18.2710  -27.6850   22.6820 C   0  0  0  0  0  0  0  0  0  0  0  0
  -20.8150  -28.0480   22.9760 C   0  0  0  0  0  3  0  0  0  0  0  0
  -20.9810  -26.6480   22.3400 C   0  0  0  0  0  2  0  0  0  0  0  0
  -19.9000  -26.3200   21.3050 C   0  0  0  0  0  2  0  0  0  0  0  0
  -18.5100  -26.3780   21.9430 C   0  0  0  0  0  2  0  0  0  0  0  0
  -19.3540  -28.4760   23.1520 C   0  0  0  0  0  0  0  0  0  0  0  0
  -19.0750  -29.6980   23.8020 C   0  0  0  0  0  3  0  0  0  0  0  0
  -17.7490  -30.1330   23.9800 C   0  0  0  0  0  3  0  0  0  0  0  0
  -16.6820  -29.3420   23.5280 C   0  0  0  0  0  3  0  0  0  0  0  0
  -16.9440  -28.1150   22.8860 C   0  0  0  0  0  3  0  0  0  0  0  0
  -25.8660  -32.4570   23.8890 C   0  0  0  0  0  3  0  0  0  0  0  0
  -25.5000  -33.8450   24.1950 N   0  0  0  0  0  0  0  0  0  0  0  0
  -25.8030  -34.9050   23.4320 C   0  0  0  0  0  0  0  0  0  0  0  0
  -26.5020  -34.8220   22.4190 O   0  0  0  0  0  0  0  0  0  0  0  0
  -24.9100  -33.9860   25.0020 H   0  0  0  0  0  0  0  0  0  0  0  0
  -24.0130  -36.6210   23.0190 C   0  0  0  0  0  1  0  0  0  0  0  0
  -25.2470  -36.2750   23.8660 C   0  0  0  0  0  3  0  0  0  0  0  0
  -27.3170  -37.2570   24.7500 C   0  0  0  0  0  1  0  0  0  0  0  0
  -26.2390  -37.3680   23.7720 N   0  0  0  0  0  0  0  0  0  0  0  0
  -25.7880  -38.2720   23.8940 H   0  0  0  0  0  0  0  0  0  0  0  0
  -26.3590  -31.7150   25.1940 C   0  0  1  0  0  0  0  0  0  0  0  0
  -25.2340  -31.4260   26.2140 C   0  0  0  0  0  1  0  0  0  0  0  0
  -27.0340  -30.3680   24.8470 C   0  0  0  0  0  1  0  0  0  0  0  0
  -27.4320  -32.5740   25.9080 C   0  0  0  0  0  1  0  0  0  0  0  0
  2  1  1  0
  3  1  1  0
  4  7  1  0
  4  5  1  0
  4  2  1  0
  5  3  1  0
  5  6  1  1
  7  8  1  0
  9 17  1  0
 10 15  1  0
 11 12  1  0
 11 10  1  0
 13 12  1  0
 13 22  1  0
 13 14  1  0
 15  9  1  0
 15 14  1  0
 16  9  2  0
 17 18  1  0
 17  8  1  0
 19 20  2  0
 20 39  1  0
 21 20  1  0
 21 24  1  0
 22 23  1  0
 22 19  1  0
 23 21  2  0
 24 25  1  0
 25 26  2  0
 27 30  1  0
 27 26  1  0
 28 27  2  0
 29 28  1  0
 29 24  2  0
 30 31  1  0
 31 32  1  0
 32 33  2  0
 34 33  1  0
 34 38  1  0
 35 34  2  0
 36 31  2  0
 36 35  1  0
 37 36  1  0
 39 40  1  0
 40 43  1  0
 40 42  1  0
 41 39  2  0
 44 19  1  0
 44 45  1  0
 46 44  1  0
 47 48  1  0
 47  5  1  0
 49 50  1  0
 49 48  2  0
 51 62  2  0
 52 50  1  0
 52 57  1  0
 53 61  1  0
 53 63  1  0
 54 60  1  0
 54 56  1  0
 55 61  1  0
 56 55  1  0
 57 56  2  0
 58 52  2  0
 59 58  1  0
 59 54  2  0
 60 53  1  0
 61 51  1  0
 63 65  2  0
 64 63  1  0
 66 64  1  0
 67 76  2  0
 67 72  1  0
 68 64  1  0
 68 72  1  0
 69 68  1  0
 70 71  1  0
 70 69  1  0
 71 67  1  0
 72 73  2  0
 73 74  1  0
 75 74  2  0
 76 75  1  0
 77 51  1  0
 77 78  1  0
 77 87  1  0
 78 81  1  0
 79 83  1  0
 79 78  1  0
 80 79  2  0
 83 82  1  0
 85 83  1  0
 85 86  1  0
 85 84  1  0
 87 90  1  1
 87 88  1  0
 89 87  1  0
M  ISO  4   9 100  17 100  49 101  50 101
M  END
>  <TORSDO>  (78) 
F 21

>  <SCORE>  (78) 
-11.502

>  <name>  (78) 
78

>  <ligand_id>  (78) 
78

>  <original_smiles>  (78) 
[H]c1c([H])c([H])c2c(c1[H])C([H])([H])C([H])([H])C([H])([H])C2([H])N([H])C(=O)C1([H])N(C(=O)C([H])(N([H])C(=O)C([H])(N([H])C([H])([H])[H])C([H])([H])[H])C(C([H])([H])[H])(C([H])([H])[H])C([H])([H])[H])C([H])([H])c2c([H])c(OC([H])([H])C([H])([H])C([H])([H])[N+]3([H])C([H])([H])C([H])([H])C([H])([H])C3([H])C([H])([H])C([H])([H])N([H])C(=O)N3C([H])([H])C([H])([H])C([H])([H])C([H])(n4nc(-c5c([H])c([H])c(Oc6c([H])c([H])c(F)c([H])c6F)c([H])c5[H])c(C(=O)N([H])[H])c4N([H])[H])C3([H])[H])c([H])c([H])c2C1([H])[H]

>  <smiles>  (78) 
[H]c1c([H])c([H])c2c(c1[H])C([H])([H])C([H])([H])C([H])([H])C2([H])N([H])C(=O)C1([H])N(C(=O)C([H])(N([H])C(=O)C([H])(N([H])C([H])([H])[H])C([H])([H])[H])C(C([H])([H])[H])(C([H])([H])[H])C([H])([H])[H])C([H])([H])c2c([H])c(OC([H])([H])C([H])([H])C([H])([H])[N+]3([H])C([H])([H])C([H])([H])C([H])([H])C3([H])C([H])([H])C([H])([H])N([H])C(=O)N3C([H])([H])C([H])([H])C([H])([H])C([H])(n4nc(-c5c([H])c([H])c(Oc6c([H])c([H])c(F)c([H])c6F)c([H])c5[H])c(C(=O)N([H])[H])c4N([H])[H])C3([H])[H])c([H])c([H])c2C1([H])[H]

$$$$
79:0:0
     RDKit          3D

 99107  0  0  1  0  0  0  0  0999 V2000
  -28.7610  -20.0740   21.3440 C   0  0  0  0  0  2  0  0  0  0  0  0
  -28.8800  -19.0840   20.1570 C   0  0  0  0  0  2  0  0  0  0  0  0
  -30.2190  -19.1320   19.5180 N   0  0  0  0  0  4  0  0  0  0  0  0
  -30.2620  -19.9500   18.9390 H   0  0  0  0  0  0  0  0  0  0  0  0
  -30.9120  -19.2400   20.2440 H   0  0  0  0  0  0  0  0  0  0  0  0
  -32.5170  -14.7580   19.5500 C   0  0  0  0  0  0  0  0  0  0  0  0
  -32.1430  -12.3890   19.0860 C   0  0  0  0  0  2  0  0  0  0  0  0
  -31.2470  -12.2750   17.8370 C   0  0  0  0  0  2  0  0  0  0  0  0
  -29.7540  -12.3320   18.2250 C   0  0  0  0  0  2  0  0  0  0  0  0
  -29.4140  -13.4890   19.2060 C   0  0  0  0  0  3  0  0  0  0  0  0
  -30.4390  -13.5670   20.3610 C   0  0  0  0  0  2  0  0  0  0  0  0
  -31.7770  -13.6400   19.7590 N   0  0  0  0  0  0  0  0  0  0  0  0
  -33.7440  -14.7160   19.4410 O   0  0  0  0  0  0  0  0  0  0  0  0
  -31.4190  -15.9550   16.3900 C   0  0  0  0  0  2  0  0  0  0  0  0
  -30.6790  -17.2680   16.1860 C   0  0  0  0  0  2  0  0  0  0  0  0
  -32.4520  -16.0340   17.5110 C   0  0  0  0  0  2  0  0  0  0  0  0
  -31.1020  -16.7790   19.5090 C   0  0  0  0  0  2  0  0  0  0  0  0
  -29.8070  -17.7020   17.3870 C   0  0  0  0  0  3  0  0  0  0  0  0
  -30.6920  -18.0210   18.6520 C   0  0  0  0  0  3  0  0  0  0  0  0
  -31.8640  -15.7060   18.8270 N   0  0  0  0  0  0  0  0  0  0  0  0
  -27.1090  -14.3980   19.9050 C   0  0  0  0  0  0  0  0  0  0  0  0
  -25.9630  -13.7720   20.3070 C   0  0  0  0  0  0  0  0  0  0  0  0
  -26.2660  -12.3760   20.3380 C   0  0  0  0  0  0  0  0  0  0  0  0
  -28.0430  -13.3930   19.7040 N   0  0  0  0  0  0  0  0  0  0  0  0
  -27.5410  -12.1740   20.0260 N   0  0  0  0  0  0  0  0  0  0  0  0
  -25.4010  -11.2160   20.5790 C   0  0  0  0  0  0  0  0  0  0  0  0
  -25.6720  -10.2970   21.6180 C   0  0  0  0  0  3  0  0  0  0  0  0
  -24.8150   -9.1990   21.8430 C   0  0  0  0  0  3  0  0  0  0  0  0
  -23.6710   -9.0130   21.0310 C   0  0  0  0  0  0  0  0  0  0  0  0
  -23.4190   -9.9170   19.9830 C   0  0  0  0  0  3  0  0  0  0  0  0
  -24.2740  -11.0080   19.7570 C   0  0  0  0  0  3  0  0  0  0  0  0
  -22.7980   -7.9600   21.1610 O   0  0  0  0  0  0  0  0  0  0  0  0
  -22.4700   -7.4440   22.3890 C   0  0  0  0  0  0  0  0  0  0  0  0
  -21.8520   -8.2310   23.3850 C   0  0  0  0  0  3  0  0  0  0  0  0
  -21.4650   -7.6430   24.6080 C   0  0  0  0  0  3  0  0  0  0  0  0
  -21.6860   -6.2710   24.8320 C   0  0  0  0  0  0  0  0  0  0  0  0
  -22.2990   -5.4860   23.8390 C   0  0  0  0  0  3  0  0  0  0  0  0
  -22.6840   -6.0700   22.6190 C   0  0  0  0  0  0  0  0  0  0  0  0
  -23.2520   -5.3030   21.6580 F   0  0  0  0  0  0  0  0  0  0  0  0
  -21.3100   -5.7060   26.0020 F   0  0  0  0  0  0  0  0  0  0  0  0
  -24.6310  -14.4180   20.5550 C   0  0  0  0  0  0  0  0  0  0  0  0
  -23.8370  -13.8670   21.4650 N   0  0  0  0  0  0  0  0  0  0  0  0
  -24.3080  -15.4550   19.9740 O   0  0  0  0  0  0  0  0  0  0  0  0
  -24.1090  -13.0280   21.9580 H   0  0  0  0  0  0  0  0  0  0  0  0
  -22.9440  -14.2920   21.6690 H   0  0  0  0  0  0  0  0  0  0  0  0
  -27.4290  -15.7300   19.6570 N   0  0  0  0  0  0  0  0  0  0  0  0
  -26.6850  -16.4160   19.6160 H   0  0  0  0  0  0  0  0  0  0  0  0
  -28.2110  -15.9660   19.0640 H   0  0  0  0  0  0  0  0  0  0  0  0
  -29.4330  -20.1300   16.4420 C   0  0  0  0  0  1  0  0  0  0  0  0
  -28.8200  -18.7830   16.8560 C   0  0  0  0  0  2  0  0  0  0  0  0
  -29.7100  -21.3060   21.3610 C   0  0  0  0  0  2  0  0  0  0  0  0
  -29.6580  -22.2910   20.1580 C   0  0  0  0  0  2  0  0  0  0  0  0
  -30.9910  -22.8780   19.8680 N   0  0  0  0  0  4  0  0  0  0  0  0
  -31.2790  -22.6160   18.9420 H   0  0  0  0  0  0  0  0  0  0  0  0
  -31.6580  -22.4970   20.5240 H   0  0  0  0  0  0  0  0  0  0  0  0
  -31.1110  -24.3540   19.9440 C   0  0  0  0  0  2  0  0  0  0  0  0
  -32.1310  -24.8820   18.9050 C   0  0  0  0  0  2  0  0  0  0  0  0
  -32.5310  -26.3640   19.0720 C   0  0  0  0  0  2  0  0  0  0  0  0
  -31.9330  -27.1810   18.0560 O   0  0  0  0  0  0  0  0  0  0  0  0
  -27.0200  -28.3930   23.0270 C   0  0  0  0  0  0  0  0  0  0  0  0
  -30.6220  -27.4840   18.3230 C   0  0  0  0  0  0  0  0  0  0  0  0
  -26.1640  -27.9450   20.7460 C   0  0  0  0  0  3  0  0  0  0  0  0
  -27.9060  -27.9900   18.8830 C   0  0  0  0  0  0  0  0  0  0  0  0
  -28.4510  -29.0260   21.0930 C   0  0  0  0  0  2  0  0  0  0  0  0
  -28.8940  -28.3640   19.8040 C   0  0  0  0  0  0  0  0  0  0  0  0
  -30.2540  -28.1140   19.5310 C   0  0  0  0  0  3  0  0  0  0  0  0
  -29.6260  -27.1230   17.3960 C   0  0  0  0  0  3  0  0  0  0  0  0
  -28.2650  -27.3640   17.6740 C   0  0  0  0  0  3  0  0  0  0  0  0
  -26.4740  -28.2870   19.2630 C   0  0  0  0  0  2  0  0  0  0  0  0
  -27.2270  -28.4370   21.6810 N   0  0  0  0  0  0  0  0  0  0  0  0
  -25.9470  -27.9870   23.4950 O   0  0  0  0  0  0  0  0  0  0  0  0
  -25.8990  -26.4270   20.8620 C   0  0  0  0  0  0  0  0  0  0  0  0
  -24.7070  -25.9910   20.4200 N   0  0  0  0  0  0  0  0  0  0  0  0
  -26.7620  -25.6700   21.3150 O   0  0  0  0  0  0  0  0  0  0  0  0
  -24.0450  -26.6730   20.0780 H   0  0  0  0  0  0  0  0  0  0  0  0
  -21.9440  -23.8460   19.5330 C   0  0  0  0  0  0  0  0  0  0  0  0
  -24.2600  -24.6000   20.3950 C   0  0  0  0  0  3  0  0  0  0  0  0
  -24.8470  -23.8460   19.1810 C   0  0  0  0  0  2  0  0  0  0  0  0
  -23.9250  -23.8750   17.9580 C   0  0  0  0  0  2  0  0  0  0  0  0
  -22.5740  -23.2390   18.2900 C   0  0  0  0  0  2  0  0  0  0  0  0
  -22.7340  -24.5040   20.5110 C   0  0  0  0  0  0  0  0  0  0  0  0
  -22.0980  -25.0960   21.6230 C   0  0  0  0  0  3  0  0  0  0  0  0
  -20.6990  -25.0400   21.7640 C   0  0  0  0  0  3  0  0  0  0  0  0
  -19.9230  -24.3670   20.8020 C   0  0  0  0  0  3  0  0  0  0  0  0
  -20.5440  -23.7690   19.6930 C   0  0  0  0  0  3  0  0  0  0  0  0
  -28.1090  -28.8630   24.0410 C   0  0  0  0  0  3  0  0  0  0  0  0
  -28.7400  -27.6770   24.8690 C   0  0  1  0  0  0  0  0  0  0  0  0
  -27.6890  -26.7670   25.5480 C   0  0  0  0  0  1  0  0  0  0  0  0
  -29.6200  -26.7870   23.9620 C   0  0  0  0  0  1  0  0  0  0  0  0
  -29.6650  -28.2430   25.9710 C   0  0  0  0  0  1  0  0  0  0  0  0
  -27.4890  -29.8500   24.9330 N   0  0  0  0  0  0  0  0  0  0  0  0
  -27.6390  -31.1750   24.8180 C   0  0  0  0  0  0  0  0  0  0  0  0
  -28.3830  -31.6960   23.9830 O   0  0  0  0  0  0  0  0  0  0  0  0
  -26.8220  -29.4970   25.6040 H   0  0  0  0  0  0  0  0  0  0  0  0
  -25.5950  -32.6200   25.0620 C   0  0  0  0  0  1  0  0  0  0  0  0
  -26.8330  -32.0640   25.7830 C   0  0  0  0  0  3  0  0  0  0  0  0
  -28.6540  -32.7420   27.2840 C   0  0  0  0  0  1  0  0  0  0  0  0
  -27.6200  -33.1800   26.3510 N   0  0  0  0  0  0  0  0  0  0  0  0
  -27.0140  -33.8380   26.8370 H   0  0  0  0  0  0  0  0  0  0  0  0
  1 51  1  0
  2  1  1  0
  3  2  1  0
  3  5  1  0
  4  3  1  0
  6 12  1  0
  7 12  1  0
  8  9  1  0
  8  7  1  0
 10  9  1  0
 10 24  1  0
 10 11  1  0
 12 11  1  0
 13  6  2  0
 14 16  1  0
 15 14  1  0
 15 18  1  0
 16 20  1  0
 18 50  1  0
 18 19  1  0
 19 17  1  0
 19  3  1  0
 20 17  1  0
 20  6  1  0
 21 22  2  0
 22 23  1  0
 22 41  1  0
 23 26  1  0
 24 21  1  0
 24 25  1  0
 25 23  2  0
 26 27  1  0
 27 28  2  0
 29 32  1  0
 29 28  1  0
 30 29  2  0
 31 30  1  0
 31 26  2  0
 32 33  1  0
 33 38  2  0
 33 34  1  0
 34 35  2  0
 35 36  1  0
 36 40  1  0
 37 36  2  0
 38 37  1  0
 39 38  1  0
 41 42  1  0
 42 45  1  0
 42 44  1  0
 43 41  2  0
 46 21  1  0
 47 46  1  0
 48 46  1  0
 49 50  1  0
 52 51  1  0
 53 56  1  0
 53 52  1  0
 53 55  1  0
 54 53  1  0
 57 58  1  0
 57 56  1  0
 59 61  1  0
 59 58  1  0
 60 71  2  0
 61 66  1  0
 62 72  1  0
 62 70  1  0
 63 69  1  0
 63 65  1  0
 64 70  1  0
 65 64  1  0
 66 65  2  0
 67 68  1  0
 67 61  2  0
 68 63  2  0
 69 62  1  0
 70 60  1  0
 72 74  2  0
 73 72  1  0
 75 73  1  0
 76 85  2  0
 76 81  1  0
 77 73  1  0
 77 81  1  0
 78 77  1  0
 79 80  1  0
 79 78  1  0
 80 76  1  0
 81 82  2  0
 82 83  1  0
 84 83  2  0
 85 84  1  0
 86 60  1  0
 86 87  1  0
 86 91  1  0
 87 88  1  1
 87 90  1  0
 89 87  1  0
 91 94  1  0
 92 91  1  0
 92 96  1  0
 93 92  2  0
 96 95  1  0
 96 98  1  0
 98 99  1  0
 98 97  1  0
M  ISO  4   6 100  20 100  58 101  59 101
M  END
>  <TORSDO>  (79) 
F 25

>  <SCORE>  (79) 
-4.212

>  <name>  (79) 
79

>  <ligand_id>  (79) 
79

>  <original_smiles>  (79) 
[H]c1c([H])c([H])c2c(c1[H])C([H])([H])C([H])([H])C([H])([H])C2([H])N([H])C(=O)C1([H])N(C(=O)C([H])(N([H])C(=O)C([H])(N([H])C([H])([H])[H])C([H])([H])[H])C(C([H])([H])[H])(C([H])([H])[H])C([H])([H])[H])C([H])([H])c2c([H])c(OC([H])([H])C([H])([H])C([H])([H])[N+]([H])([H])C([H])([H])C([H])([H])C([H])([H])C([H])([H])[N+]([H])([H])C3([H])C([H])([H])N(C(=O)N4C([H])([H])C([H])([H])C([H])([H])C([H])(n5nc(-c6c([H])c([H])c(Oc7c([H])c([H])c(F)c([H])c7F)c([H])c6[H])c(C(=O)N([H])[H])c5N([H])[H])C4([H])[H])C([H])([H])C([H])([H])C([H])([H])C3([H])C([H])([H])C([H])([H])[H])c([H])c([H])c2C1([H])[H]

>  <smiles>  (79) 
[H]c1c([H])c([H])c2c(c1[H])C([H])([H])C([H])([H])C([H])([H])C2([H])N([H])C(=O)C1([H])N(C(=O)C([H])(N([H])C(=O)C([H])(N([H])C([H])([H])[H])C([H])([H])[H])C(C([H])([H])[H])(C([H])([H])[H])C([H])([H])[H])C([H])([H])c2c([H])c(OC([H])([H])C([H])([H])C([H])([H])[N+]([H])([H])C([H])([H])C([H])([H])C([H])([H])C([H])([H])[N+]([H])([H])C3([H])C([H])([H])N(C(=O)N4C([H])([H])C([H])([H])C([H])([H])C([H])(n5nc(-c6c([H])c([H])c(Oc7c([H])c([H])c(F)c([H])c7F)c([H])c6[H])c(C(=O)N([H])[H])c5N([H])[H])C4([H])[H])C([H])([H])C([H])([H])C([H])([H])C3([H])C([H])([H])C([H])([H])[H])c([H])c([H])c2C1([H])[H]

$$$$
80:0:0
     RDKit          3D

 92100  0  0  1  0  0  0  0  0999 V2000
  -31.2350  -21.7140   22.2740 C   0  0  0  0  0  2  0  0  0  0  0  0
  -30.5780  -19.4570   21.4300 C   0  0  0  0  0  0  0  0  0  0  0  0
  -30.2980  -20.6160   22.0420 N   0  0  0  0  0  0  0  0  0  0  0  0
  -31.6440  -19.2650   20.8430 O   0  0  0  0  0  0  0  0  0  0  0  0
  -29.3960  -20.6860   22.4950 H   0  0  0  0  0  0  0  0  0  0  0  0
  -31.0310  -14.5880   20.0840 C   0  0  0  0  0  0  0  0  0  0  0  0
  -30.6270  -12.4740   18.8920 C   0  0  0  0  0  2  0  0  0  0  0  0
  -29.6460  -12.7350   17.7320 C   0  0  0  0  0  2  0  0  0  0  0  0
  -28.1950  -12.5760   18.2210 C   0  0  0  0  0  2  0  0  0  0  0  0
  -27.9090  -13.3780   19.5190 C   0  0  0  0  0  3  0  0  0  0  0  0
  -29.0130  -13.1590   20.5790 C   0  0  0  0  0  2  0  0  0  0  0  0
  -30.3140  -13.4400   19.9550 N   0  0  0  0  0  0  0  0  0  0  0  0
  -32.1410  -14.7480   19.5700 O   0  0  0  0  0  0  0  0  0  0  0  0
  -29.0910  -17.7510   20.1750 C   0  0  0  0  0  2  0  0  0  0  0  0
  -29.9210  -17.2080   22.4950 C   0  0  0  0  0  2  0  0  0  0  0  0
  -30.1030  -16.7280   19.6300 C   0  0  0  0  0  2  0  0  0  0  0  0
  -30.8970  -16.1920   21.8620 C   0  0  0  0  0  2  0  0  0  0  0  0
  -29.5070  -18.3480   21.5350 C   0  0  0  0  0  3  0  0  0  0  0  0
  -30.3760  -15.6500   20.5990 N   0  0  0  0  0  0  0  0  0  0  0  0
  -25.5280  -13.9390   20.3110 C   0  0  0  0  0  0  0  0  0  0  0  0
  -24.4860  -13.1470   20.7130 C   0  0  0  0  0  0  0  0  0  0  0  0
  -24.9670  -11.8040   20.6580 C   0  0  0  0  0  0  0  0  0  0  0  0
  -26.5790  -13.0780   20.0450 N   0  0  0  0  0  0  0  0  0  0  0  0
  -26.2480  -11.7870   20.3080 N   0  0  0  0  0  0  0  0  0  0  0  0
  -24.2670  -10.5280   20.8650 C   0  0  0  0  0  0  0  0  0  0  0  0
  -24.6850   -9.6080   21.8510 C   0  0  0  0  0  3  0  0  0  0  0  0
  -23.9840   -8.3970   22.0430 C   0  0  0  0  0  3  0  0  0  0  0  0
  -22.8520   -8.0990   21.2480 C   0  0  0  0  0  0  0  0  0  0  0  0
  -22.4530   -9.0100   20.2530 C   0  0  0  0  0  3  0  0  0  0  0  0
  -23.1540  -10.2110   20.0600 C   0  0  0  0  0  3  0  0  0  0  0  0
  -22.1270   -6.9360   21.3450 O   0  0  0  0  0  0  0  0  0  0  0  0
  -21.9720   -6.2820   22.5410 C   0  0  0  0  0  0  0  0  0  0  0  0
  -21.3830   -6.9080   23.6610 C   0  0  0  0  0  3  0  0  0  0  0  0
  -21.1810   -6.1790   24.8490 C   0  0  0  0  0  3  0  0  0  0  0  0
  -21.5550   -4.8230   24.9170 C   0  0  0  0  0  0  0  0  0  0  0  0
  -22.1340   -4.1960   23.8000 C   0  0  0  0  0  3  0  0  0  0  0  0
  -22.3400   -4.9230   22.6140 C   0  0  0  0  0  0  0  0  0  0  0  0
  -22.8790   -4.3090   21.5350 F   0  0  0  0  0  0  0  0  0  0  0  0
  -21.3540   -4.1190   26.0570 F   0  0  0  0  0  0  0  0  0  0  0  0
  -23.0920  -13.6020   21.0400 C   0  0  0  0  0  0  0  0  0  0  0  0
  -22.4190  -12.9030   21.9470 N   0  0  0  0  0  0  0  0  0  0  0  0
  -22.6110  -14.6100   20.5250 O   0  0  0  0  0  0  0  0  0  0  0  0
  -22.8210  -12.0840   22.3780 H   0  0  0  0  0  0  0  0  0  0  0  0
  -21.4900  -13.1920   22.2160 H   0  0  0  0  0  0  0  0  0  0  0  0
  -25.6640  -15.3120   20.1250 N   0  0  0  0  0  0  0  0  0  0  0  0
  -24.8840  -15.9530   20.2140 H   0  0  0  0  0  0  0  0  0  0  0  0
  -26.4940  -15.7450   19.7380 H   0  0  0  0  0  0  0  0  0  0  0  0
  -31.2350  -22.7790   21.1610 C   0  0  0  0  0  2  0  0  0  0  0  0
  -29.8510  -23.3960   20.8950 C   0  0  0  0  0  2  0  0  0  0  0  0
  -29.9220  -24.8230   20.3150 C   0  0  0  0  0  2  0  0  0  0  0  0
  -28.5290  -25.4390   20.1430 C   0  0  0  0  0  2  0  0  0  0  0  0
  -28.6360  -26.8570   20.0240 O   0  0  0  0  0  0  0  0  0  0  0  0
  -24.6850  -31.8050   23.2680 C   0  0  0  0  0  0  0  0  0  0  0  0
  -27.4440  -27.5450   20.0420 C   0  0  0  0  0  0  0  0  0  0  0  0
  -23.5240  -30.4530   21.5530 C   0  0  0  0  0  3  0  0  0  0  0  0
  -25.0220  -29.0010   20.0900 C   0  0  0  0  0  0  0  0  0  0  0  0
  -26.0480  -30.8590   21.4090 C   0  0  0  0  0  2  0  0  0  0  0  0
  -26.1630  -29.5190   20.7130 C   0  0  0  0  0  0  0  0  0  0  0  0
  -27.3790  -28.8010   20.6830 C   0  0  0  0  0  3  0  0  0  0  0  0
  -26.2810  -27.0350   19.4180 C   0  0  0  0  0  3  0  0  0  0  0  0
  -25.0750  -27.7550   19.4430 C   0  0  0  0  0  3  0  0  0  0  0  0
  -23.7620  -29.8340   20.1510 C   0  0  0  0  0  2  0  0  0  0  0  0
  -24.7700  -31.0490   22.1370 N   0  0  0  0  0  0  0  0  0  0  0  0
  -23.5930  -32.0390   23.8010 O   0  0  0  0  0  0  0  0  0  0  0  0
  -22.8780  -29.3820   22.4600 C   0  0  0  0  0  0  0  0  0  0  0  0
  -21.5590  -29.1830   22.3010 N   0  0  0  0  0  0  0  0  0  0  0  0
  -23.5600  -28.7330   23.2580 O   0  0  0  0  0  0  0  0  0  0  0  0
  -21.0720  -29.7600   21.6300 H   0  0  0  0  0  0  0  0  0  0  0  0
  -18.1900  -27.9490   22.7140 C   0  0  0  0  0  0  0  0  0  0  0  0
  -20.7440  -28.2040   23.0200 C   0  0  0  0  0  3  0  0  0  0  0  0
  -20.8600  -26.8030   22.3750 C   0  0  0  0  0  2  0  0  0  0  0  0
  -19.7680  -26.5260   21.3380 C   0  0  0  0  0  2  0  0  0  0  0  0
  -18.3790  -26.6350   21.9740 C   0  0  0  0  0  2  0  0  0  0  0  0
  -19.3020  -28.6930   23.1900 C   0  0  0  0  0  0  0  0  0  0  0  0
  -19.0740  -29.9270   23.8370 C   0  0  0  0  0  3  0  0  0  0  0  0
  -17.7650  -30.4150   24.0150 C   0  0  0  0  0  3  0  0  0  0  0  0
  -16.6680  -29.6650   23.5570 C   0  0  0  0  0  3  0  0  0  0  0  0
  -16.8810  -28.4340   22.9110 C   0  0  0  0  0  3  0  0  0  0  0  0
  -25.9530  -32.4280   23.9310 C   0  0  0  0  0  3  0  0  0  0  0  0
  -25.6400  -33.8260   24.2550 N   0  0  0  0  0  0  0  0  0  0  0  0
  -26.0150  -34.8790   23.5170 C   0  0  0  0  0  0  0  0  0  0  0  0
  -26.7330  -34.7760   22.5180 O   0  0  0  0  0  0  0  0  0  0  0  0
  -25.0120  -33.9810   25.0300 H   0  0  0  0  0  0  0  0  0  0  0  0
  -24.3370  -36.6940   23.0650 C   0  0  0  0  0  1  0  0  0  0  0  0
  -25.5150  -36.2670   23.9560 C   0  0  0  0  0  3  0  0  0  0  0  0
  -27.5960  -37.1160   24.9430 C   0  0  0  0  0  1  0  0  0  0  0  0
  -26.5640  -37.3090   23.9270 N   0  0  0  0  0  0  0  0  0  0  0  0
  -26.1610  -38.2330   24.0580 H   0  0  0  0  0  0  0  0  0  0  0  0
  -26.4270  -31.6490   25.2180 C   0  0  1  0  0  0  0  0  0  0  0  0
  -25.2990  -31.4050   26.2470 C   0  0  0  0  0  1  0  0  0  0  0  0
  -27.0220  -30.2740   24.8360 C   0  0  0  0  0  1  0  0  0  0  0  0
  -27.5550  -32.4390   25.9230 C   0  0  0  0  0  1  0  0  0  0  0  0
  2  3  1  0
  3  1  1  0
  3  5  1  0
  4  2  2  0
  6 19  1  0
  7 12  1  0
  8  9  1  0
  8  7  1  0
 10  9  1  0
 10 23  1  0
 10 11  1  0
 12  6  1  0
 12 11  1  0
 13  6  2  0
 14 18  1  0
 16 14  1  0
 16 19  1  0
 17 15  1  0
 18  2  1  0
 18 15  1  0
 19 17  1  0
 20 21  2  0
 21 40  1  0
 22 21  1  0
 22 25  1  0
 23 24  1  0
 23 20  1  0
 24 22  2  0
 25 26  1  0
 26 27  2  0
 28 31  1  0
 28 27  1  0
 29 28  2  0
 30 29  1  0
 30 25  2  0
 31 32  1  0
 32 37  2  0
 32 33  1  0
 33 34  2  0
 34 35  1  0
 35 39  1  0
 36 35  2  0
 37 36  1  0
 38 37  1  0
 40 41  1  0
 41 44  1  0
 41 43  1  0
 42 40  2  0
 45 46  1  0
 45 20  1  0
 47 45  1  0
 48  1  1  0
 49 48  1  0
 50 49  1  0
 51 50  1  0
 52 54  1  0
 52 51  1  0
 53 64  2  0
 54 59  1  0
 55 63  1  0
 55 65  1  0
 56 62  1  0
 56 58  1  0
 57 63  1  0
 58 57  1  0
 59 58  2  0
 60 61  1  0
 60 54  2  0
 61 56  2  0
 62 55  1  0
 63 53  1  0
 65 67  2  0
 66 65  1  0
 68 66  1  0
 69 78  2  0
 69 74  1  0
 70 66  1  0
 70 74  1  0
 71 70  1  0
 72 73  1  0
 72 71  1  0
 73 69  1  0
 74 75  2  0
 75 76  1  0
 77 76  2  0
 78 77  1  0
 79 53  1  0
 79 80  1  0
 79 89  1  0
 80 83  1  0
 81 85  1  0
 81 80  1  0
 82 81  2  0
 85 84  1  0
 87 85  1  0
 87 88  1  0
 87 86  1  0
 89 92  1  1
 89 90  1  0
 91 89  1  0
M  ISO  4   6 100  19 100  51 101  52 101
M  END
>  <TORSDO>  (80) 
F 21

>  <SCORE>  (80) 
-12.257

>  <name>  (80) 
80

>  <ligand_id>  (80) 
80

>  <original_smiles>  (80) 
[H]c1c([H])c([H])c2c(c1[H])C([H])([H])C([H])([H])C([H])([H])C2([H])N([H])C(=O)C1([H])N(C(=O)C([H])(N([H])C(=O)C([H])(N([H])C([H])([H])[H])C([H])([H])[H])C(C([H])([H])[H])(C([H])([H])[H])C([H])([H])[H])C([H])([H])c2c([H])c(OC([H])([H])C([H])([H])C([H])([H])C([H])([H])C([H])([H])N([H])C(=O)C3([H])C([H])([H])C([H])([H])N(C(=O)N4C([H])([H])C([H])([H])C([H])([H])C([H])(n5nc(-c6c([H])c([H])c(Oc7c([H])c([H])c(F)c([H])c7F)c([H])c6[H])c(C(=O)N([H])[H])c5N([H])[H])C4([H])[H])C([H])([H])C3([H])[H])c([H])c([H])c2C1([H])[H]

>  <smiles>  (80) 
[H]c1c([H])c([H])c2c(c1[H])C([H])([H])C([H])([H])C([H])([H])C2([H])N([H])C(=O)C1([H])N(C(=O)C([H])(N([H])C(=O)C([H])(N([H])C([H])([H])[H])C([H])([H])[H])C(C([H])([H])[H])(C([H])([H])[H])C([H])([H])[H])C([H])([H])c2c([H])c(OC([H])([H])C([H])([H])C([H])([H])C([H])([H])C([H])([H])N([H])C(=O)C3([H])C([H])([H])C([H])([H])N(C(=O)N4C([H])([H])C([H])([H])C([H])([H])C([H])(n5nc(-c6c([H])c([H])c(Oc7c([H])c([H])c(F)c([H])c7F)c([H])c6[H])c(C(=O)N([H])[H])c5N([H])[H])C4([H])[H])C([H])([H])C3([H])[H])c([H])c([H])c2C1([H])[H]

$$$$
81:0:0
     RDKit          3D

 96104  0  0  1  0  0  0  0  0999 V2000
  -33.0230  -20.7490   23.5680 C   0  0  0  0  0  2  0  0  0  0  0  0
  -32.6700  -19.5680   22.6420 C   0  0  0  0  0  2  0  0  0  0  0  0
  -30.0910  -19.5930   23.0490 C   0  0  0  0  0  2  0  0  0  0  0  0
  -32.3290  -22.0770   23.2070 C   0  0  0  0  0  2  0  0  0  0  0  0
  -30.1370  -21.0020   23.6620 C   0  0  0  0  0  2  0  0  0  0  0  0
  -31.4070  -18.7760   23.0740 C   0  0  0  0  0  3  0  0  0  0  0  0
  -30.9170  -21.9040   22.7790 N   0  0  1  0  0  4  0  0  0  0  0  0
  -30.9610  -21.4030   21.9050 H   0  0  0  0  0  0  0  0  0  0  0  0
  -31.1880  -17.4970   22.2300 C   0  0  0  0  0  2  0  0  0  0  0  0
  -32.4380  -16.9300   21.5300 C   0  0  0  0  0  2  0  0  0  0  0  0
  -32.2100  -16.5350   20.0590 C   0  0  0  0  0  2  0  0  0  0  0  0
  -31.2110  -14.6000   18.8890 C   0  0  0  0  0  0  0  0  0  0  0  0
  -30.8830  -12.2150   18.3960 C   0  0  0  0  0  2  0  0  0  0  0  0
  -29.7510  -11.9320   17.4010 C   0  0  0  0  0  2  0  0  0  0  0  0
  -28.4110  -11.7980   18.1420 C   0  0  0  0  0  2  0  0  0  0  0  0
  -28.1430  -12.9950   19.0910 C   0  0  0  0  0  3  0  0  0  0  0  0
  -29.3660  -13.2940   19.9880 C   0  0  0  0  0  2  0  0  0  0  0  0
  -30.5670  -13.4370   19.1430 N   0  0  0  0  0  0  0  0  0  0  0  0
  -31.8870  -14.8090   17.8770 O   0  0  0  0  0  0  0  0  0  0  0  0
  -31.2780  -15.4180   19.9450 N   0  0  0  0  0  0  0  0  0  0  0  0
  -30.7610  -15.1440   20.7670 H   0  0  0  0  0  0  0  0  0  0  0  0
  -26.1900  -13.6890   20.6220 C   0  0  0  0  0  0  0  0  0  0  0  0
  -25.1140  -12.9920   21.1060 C   0  0  0  0  0  0  0  0  0  0  0  0
  -25.2530  -11.6580   20.6150 C   0  0  0  0  0  0  0  0  0  0  0  0
  -26.9300  -12.7800   19.8810 N   0  0  0  0  0  0  0  0  0  0  0  0
  -26.3810  -11.5380   19.9250 N   0  0  0  0  0  0  0  0  0  0  0  0
  -24.3510  -10.5040   20.7140 C   0  0  0  0  0  0  0  0  0  0  0  0
  -24.6650   -9.3870   21.5200 C   0  0  0  0  0  3  0  0  0  0  0  0
  -23.7730   -8.2970   21.6140 C   0  0  0  0  0  3  0  0  0  0  0  0
  -22.5510   -8.3180   20.9000 C   0  0  0  0  0  0  0  0  0  0  0  0
  -22.2530   -9.4210   20.0820 C   0  0  0  0  0  3  0  0  0  0  0  0
  -23.1440  -10.5020   19.9850 C   0  0  0  0  0  3  0  0  0  0  0  0
  -21.6350   -7.2930   20.9100 O   0  0  0  0  0  0  0  0  0  0  0  0
  -21.3180   -6.6220   22.0640 C   0  0  0  0  0  0  0  0  0  0  0  0
  -20.7650   -7.2830   23.1820 C   0  0  0  0  0  3  0  0  0  0  0  0
  -20.3890   -6.5430   24.3210 C   0  0  0  0  0  3  0  0  0  0  0  0
  -20.5560   -5.1460   24.3430 C   0  0  0  0  0  0  0  0  0  0  0  0
  -21.1020   -4.4860   23.2270 C   0  0  0  0  0  3  0  0  0  0  0  0
  -21.4780   -5.2220   22.0900 C   0  0  0  0  0  0  0  0  0  0  0  0
  -21.9840   -4.5780   21.0110 F   0  0  0  0  0  0  0  0  0  0  0  0
  -20.1880   -4.4350   25.4330 F   0  0  0  0  0  0  0  0  0  0  0  0
  -23.9690  -13.5520   21.9010 C   0  0  0  0  0  0  0  0  0  0  0  0
  -23.3950  -12.7540   22.7950 N   0  0  0  0  0  0  0  0  0  0  0  0
  -23.6080  -14.7210   21.7670 O   0  0  0  0  0  0  0  0  0  0  0  0
  -23.7060  -11.8020   22.9200 H   0  0  0  0  0  0  0  0  0  0  0  0
  -22.6340  -13.1010   23.3620 H   0  0  0  0  0  0  0  0  0  0  0  0
  -26.5890  -15.0170   20.7350 N   0  0  0  0  0  0  0  0  0  0  0  0
  -26.0330  -15.7110   21.2210 H   0  0  0  0  0  0  0  0  0  0  0  0
  -27.4150  -15.4060   20.2970 H   0  0  0  0  0  0  0  0  0  0  0  0
  -30.2170  -23.1700   22.4400 C   0  0  0  0  0  2  0  0  0  0  0  0
  -30.1880  -23.4460   20.9200 C   0  0  0  0  0  2  0  0  0  0  0  0
  -31.0390  -24.6510   20.4910 C   0  0  0  0  0  2  0  0  0  0  0  0
  -30.9510  -24.9210   18.9810 C   0  0  0  0  0  2  0  0  0  0  0  0
  -30.7990  -26.4140   18.6700 C   0  0  0  0  0  2  0  0  0  0  0  0
  -30.4770  -26.6870   17.1930 C   0  0  0  0  0  2  0  0  0  0  0  0
  -29.7550  -27.9090   17.0780 O   0  0  0  0  0  0  0  0  0  0  0  0
  -25.5380  -28.6400   22.7460 C   0  0  0  0  0  0  0  0  0  0  0  0
  -28.4580  -27.9480   17.5380 C   0  0  0  0  0  0  0  0  0  0  0  0
  -24.3980  -28.0210   20.6390 C   0  0  0  0  0  3  0  0  0  0  0  0
  -25.8210  -28.1590   18.5300 C   0  0  0  0  0  0  0  0  0  0  0  0
  -26.5930  -29.3340   20.5990 C   0  0  0  0  0  2  0  0  0  0  0  0
  -26.8910  -28.6750   19.2710 C   0  0  0  0  0  0  0  0  0  0  0  0
  -28.2070  -28.5770   18.7750 C   0  0  0  0  0  3  0  0  0  0  0  0
  -27.3680  -27.4210   16.8050 C   0  0  0  0  0  3  0  0  0  0  0  0
  -26.0540  -27.5270   17.2980 C   0  0  0  0  0  3  0  0  0  0  0  0
  -24.4390  -28.3250   19.1180 C   0  0  0  0  0  2  0  0  0  0  0  0
  -25.5370  -28.6510   21.3820 N   0  0  0  0  0  0  0  0  0  0  0  0
  -24.5940  -28.1540   23.3820 O   0  0  0  0  0  0  0  0  0  0  0  0
  -24.3150  -26.4910   20.8300 C   0  0  0  0  0  0  0  0  0  0  0  0
  -23.1700  -25.9010   20.4470 N   0  0  0  0  0  0  0  0  0  0  0  0
  -25.2700  -25.8560   21.2860 O   0  0  0  0  0  0  0  0  0  0  0  0
  -22.4330  -26.4930   20.0880 H   0  0  0  0  0  0  0  0  0  0  0  0
  -20.7560  -23.3880   19.4990 C   0  0  0  0  0  0  0  0  0  0  0  0
  -22.8790  -24.4700   20.5000 C   0  0  0  0  0  3  0  0  0  0  0  0
  -23.6630  -23.7040   19.4090 C   0  0  0  0  0  2  0  0  0  0  0  0
  -22.8690  -23.5250   18.1100 C   0  0  0  0  0  2  0  0  0  0  0  0
  -21.5680  -22.7610   18.3760 C   0  0  0  0  0  2  0  0  0  0  0  0
  -21.3700  -24.2020   20.4870 C   0  0  0  0  0  0  0  0  0  0  0  0
  -20.5660  -24.7890   21.4870 C   0  0  0  0  0  3  0  0  0  0  0  0
  -19.1750  -24.5720   21.5120 C   0  0  0  0  0  3  0  0  0  0  0  0
  -18.5750  -23.7500   20.5430 C   0  0  0  0  0  3  0  0  0  0  0  0
  -19.3660  -23.1560   19.5410 C   0  0  0  0  0  3  0  0  0  0  0  0
  -26.7130  -29.2580   23.5670 C   0  0  0  0  0  3  0  0  0  0  0  0
  -27.3330  -28.2560   24.6170 C   0  0  1  0  0  0  0  0  0  0  0  0
  -26.2790  -27.5630   25.5120 C   0  0  0  0  0  1  0  0  0  0  0  0
  -28.1460  -27.1510   23.9040 C   0  0  0  0  0  1  0  0  0  0  0  0
  -28.3260  -29.0070   25.5360 C   0  0  0  0  0  1  0  0  0  0  0  0
  -26.2000  -30.4600   24.2350 N   0  0  0  0  0  0  0  0  0  0  0  0
  -26.5070  -31.7160   23.8810 C   0  0  0  0  0  0  0  0  0  0  0  0
  -27.3180  -31.9810   22.9900 O   0  0  0  0  0  0  0  0  0  0  0  0
  -25.4870  -30.3180   24.9350 H   0  0  0  0  0  0  0  0  0  0  0  0
  -24.7100  -33.4690   23.7370 C   0  0  0  0  0  1  0  0  0  0  0  0
  -25.7990  -32.8580   24.6340 C   0  0  0  0  0  3  0  0  0  0  0  0
  -27.6540  -33.4680   26.1220 C   0  0  0  0  0  1  0  0  0  0  0  0
  -26.7210  -33.9200   25.0930 N   0  0  0  0  0  0  0  0  0  0  0  0
  -26.2030  -34.7140   25.4620 H   0  0  0  0  0  0  0  0  0  0  0  0
  2  6  1  0
  2  1  1  0
  3  6  1  0
  3  5  1  0
  4  1  1  0
  6  9  1  0
  7  4  1  0
  7  5  1  0
  7  8  1  6
 10  9  1  0
 11 10  1  0
 12 18  1  0
 12 20  1  0
 13 18  1  0
 14 15  1  0
 14 13  1  0
 16 15  1  0
 16 25  1  0
 16 17  1  0
 18 17  1  0
 19 12  2  0
 20 11  1  0
 20 21  1  0
 22 47  1  0
 22 23  2  0
 23 42  1  0
 24 27  1  0
 24 23  1  0
 25 26  1  0
 25 22  1  0
 26 24  2  0
 27 28  1  0
 28 29  2  0
 30 33  1  0
 30 29  1  0
 31 30  2  0
 32 31  1  0
 32 27  2  0
 33 34  1  0
 34 39  2  0
 34 35  1  0
 35 36  2  0
 36 37  1  0
 37 41  1  0
 38 37  2  0
 39 38  1  0
 40 39  1  0
 42 43  1  0
 43 45  1  0
 43 46  1  0
 44 42  2  0
 47 48  1  0
 49 47  1  0
 50  7  1  0
 51 50  1  0
 52 51  1  0
 53 52  1  0
 54 53  1  0
 55 54  1  0
 56 55  1  0
 56 58  1  0
 57 68  2  0
 58 63  1  0
 59 69  1  0
 59 67  1  0
 60 66  1  0
 60 62  1  0
 61 67  1  0
 62 61  1  0
 63 62  2  0
 64 65  1  0
 64 58  2  0
 65 60  2  0
 66 59  1  0
 67 57  1  0
 69 71  2  0
 70 69  1  0
 72 70  1  0
 73 82  2  0
 73 78  1  0
 74 70  1  0
 75 74  1  0
 76 77  1  0
 76 75  1  0
 77 73  1  0
 78 74  1  0
 78 79  2  0
 79 80  1  0
 81 80  2  0
 82 81  1  0
 83 57  1  0
 83 88  1  0
 83 84  1  0
 84 85  1  1
 84 87  1  0
 86 84  1  0
 88 91  1  0
 89 88  1  0
 89 93  1  0
 90 89  2  0
 93 92  1  0
 93 95  1  0
 95 96  1  0
 95 94  1  0
M  ISO  4  12 100  20 100  55 101  56 101
M  END
>  <TORSDO>  (81) 
F 25

>  <SCORE>  (81) 
-2.004

>  <name>  (81) 
81

>  <ligand_id>  (81) 
81

>  <original_smiles>  (81) 
[H]c1c([H])c([H])c2c(c1[H])C([H])([H])C([H])([H])C([H])([H])C2([H])N([H])C(=O)C1([H])N(C(=O)C([H])(N([H])C(=O)C([H])(N([H])C([H])([H])[H])C([H])([H])[H])C(C([H])([H])[H])(C([H])([H])[H])C([H])([H])[H])C([H])([H])c2c([H])c(OC([H])([H])C([H])([H])C([H])([H])C([H])([H])C([H])([H])C([H])([H])[N+]3([H])C([H])([H])C([H])([H])C([H])([H])C([H])(C([H])([H])C([H])([H])C([H])([H])N([H])C(=O)N4C([H])([H])C([H])([H])C([H])([H])C([H])(n5nc(-c6c([H])c([H])c(Oc7c([H])c([H])c(F)c([H])c7F)c([H])c6[H])c(C(=O)N([H])[H])c5N([H])[H])C4([H])[H])C([H])([H])C3([H])[H])c([H])c([H])c2C1([H])[H]

>  <smiles>  (81) 
[H]c1c([H])c([H])c2c(c1[H])C([H])([H])C([H])([H])C([H])([H])C2([H])N([H])C(=O)C1([H])N(C(=O)C([H])(N([H])C(=O)C([H])(N([H])C([H])([H])[H])C([H])([H])[H])C(C([H])([H])[H])(C([H])([H])[H])C([H])([H])[H])C([H])([H])c2c([H])c(OC([H])([H])C([H])([H])C([H])([H])C([H])([H])C([H])([H])C([H])([H])[N+]3([H])C([H])([H])C([H])([H])C([H])([H])C([H])(C([H])([H])C([H])([H])C([H])([H])N([H])C(=O)N4C([H])([H])C([H])([H])C([H])([H])C([H])(n5nc(-c6c([H])c([H])c(Oc7c([H])c([H])c(F)c([H])c7F)c([H])c6[H])c(C(=O)N([H])[H])c5N([H])[H])C4([H])[H])C([H])([H])C3([H])[H])c([H])c([H])c2C1([H])[H]

$$$$
82:0:0
     RDKit          3D

101109  0  0  1  0  0  0  0  0999 V2000
  -29.9010  -22.7900   23.5950 C   0  0  0  0  0  3  0  0  0  0  0  0
  -30.7110  -21.4730   21.4730 C   0  0  0  0  0  2  0  0  0  0  0  0
  -31.7250  -20.9780   23.7500 C   0  0  0  0  0  2  0  0  0  0  0  0
  -31.7970  -20.5530   20.8650 C   0  0  0  0  0  2  0  0  0  0  0  0
  -32.7390  -20.0640   23.0370 C   0  0  0  0  0  2  0  0  0  0  0  0
  -31.1020  -22.0890   22.8550 C   0  0  0  0  0  3  0  0  0  0  0  0
  -32.1110  -19.4780   21.8330 N   0  0  2  0  0  4  0  0  0  0  0  0
  -31.2240  -19.1190   22.1460 H   0  0  0  0  0  0  0  0  0  0  0  0
  -32.8070  -18.2690   21.3110 C   0  0  0  0  0  2  0  0  0  0  0  0
  -31.9940  -17.5400   20.2140 C   0  0  0  0  0  2  0  0  0  0  0  0
  -32.3760  -15.0870   19.8340 C   0  0  0  0  0  0  0  0  0  0  0  0
  -31.9990  -12.7460   19.1500 C   0  0  0  0  0  2  0  0  0  0  0  0
  -31.0480  -12.6910   17.9370 C   0  0  0  0  0  2  0  0  0  0  0  0
  -29.5730  -12.7030   18.3880 C   0  0  0  0  0  2  0  0  0  0  0  0
  -29.2740  -13.8330   19.4080 C   0  0  0  0  0  3  0  0  0  0  0  0
  -30.3190  -13.8140   20.5460 C   0  0  0  0  0  2  0  0  0  0  0  0
  -31.6650  -13.9350   19.9460 N   0  0  0  0  0  0  0  0  0  0  0  0
  -33.3980  -15.2070   19.1510 O   0  0  0  0  0  0  0  0  0  0  0  0
  -31.8330  -16.1160   20.4950 N   0  0  0  0  0  0  0  0  0  0  0  0
  -31.0390  -15.8670   21.0670 H   0  0  0  0  0  0  0  0  0  0  0  0
  -27.0100  -14.7490   20.2330 C   0  0  0  0  0  0  0  0  0  0  0  0
  -25.8560  -14.1190   20.6160 C   0  0  0  0  0  0  0  0  0  0  0  0
  -26.1150  -12.7180   20.5060 C   0  0  0  0  0  0  0  0  0  0  0  0
  -27.9080  -13.7390   19.9230 N   0  0  0  0  0  0  0  0  0  0  0  0
  -27.3720  -12.5100   20.1390 N   0  0  0  0  0  0  0  0  0  0  0  0
  -25.2230  -11.5640   20.6720 C   0  0  0  0  0  0  0  0  0  0  0  0
  -25.4520  -10.5950   21.6730 C   0  0  0  0  0  3  0  0  0  0  0  0
  -24.5730   -9.5020   21.8270 C   0  0  0  0  0  3  0  0  0  0  0  0
  -23.4480   -9.3720   20.9770 C   0  0  0  0  0  0  0  0  0  0  0  0
  -23.2370  -10.3280   19.9680 C   0  0  0  0  0  3  0  0  0  0  0  0
  -24.1180  -11.4120   19.8130 C   0  0  0  0  0  3  0  0  0  0  0  0
  -22.5550   -8.3300   21.0340 O   0  0  0  0  0  0  0  0  0  0  0  0
  -22.1040   -7.8330   22.2310 C   0  0  0  0  0  0  0  0  0  0  0  0
  -21.4260   -8.6450   23.1660 C   0  0  0  0  0  3  0  0  0  0  0  0
  -20.9190   -8.0780   24.3530 C   0  0  0  0  0  3  0  0  0  0  0  0
  -21.0800   -6.7020   24.6010 C   0  0  0  0  0  0  0  0  0  0  0  0
  -21.7510   -5.8920   23.6690 C   0  0  0  0  0  3  0  0  0  0  0  0
  -22.2590   -6.4560   22.4850 C   0  0  0  0  0  0  0  0  0  0  0  0
  -22.8850   -5.6660   21.5800 F   0  0  0  0  0  0  0  0  0  0  0  0
  -20.5860   -6.1550   25.7370 F   0  0  0  0  0  0  0  0  0  0  0  0
  -24.5530  -14.7750   20.9730 C   0  0  0  0  0  0  0  0  0  0  0  0
  -23.7840  -14.1620   21.8660 N   0  0  0  0  0  0  0  0  0  0  0  0
  -24.2320  -15.8630   20.4970 O   0  0  0  0  0  0  0  0  0  0  0  0
  -24.0560  -13.2780   22.2690 H   0  0  0  0  0  0  0  0  0  0  0  0
  -22.9090  -14.5820   22.1490 H   0  0  0  0  0  0  0  0  0  0  0  0
  -27.3680  -16.0880   20.1100 N   0  0  0  0  0  0  0  0  0  0  0  0
  -26.7110  -16.8450   20.2730 H   0  0  0  0  0  0  0  0  0  0  0  0
  -28.2620  -16.4080   19.7570 H   0  0  0  0  0  0  0  0  0  0  0  0
  -28.9510  -23.4720   22.6720 N   0  0  0  0  0  4  0  0  0  0  0  0
  -28.5690  -22.7860   22.0400 H   0  0  0  0  0  0  0  0  0  0  0  0
  -28.1740  -23.7960   23.2290 H   0  0  0  0  0  0  0  0  0  0  0  0
  -29.4370  -24.6320   21.8910 C   0  0  0  0  0  2  0  0  0  0  0  0
  -28.3380  -25.1280   20.9370 C   0  0  0  0  0  2  0  0  0  0  0  0
  -28.7660  -26.3340   20.0900 C   0  0  0  0  0  2  0  0  0  0  0  0
  -27.8670  -26.4730   18.9960 O   0  0  0  0  0  0  0  0  0  0  0  0
  -24.3920  -31.1110   23.1600 C   0  0  0  0  0  0  0  0  0  0  0  0
  -26.7190  -27.1670   19.2730 C   0  0  0  0  0  0  0  0  0  0  0  0
  -23.0290  -29.9300   21.4650 C   0  0  0  0  0  3  0  0  0  0  0  0
  -24.3340  -28.6000   19.7260 C   0  0  0  0  0  0  0  0  0  0  0  0
  -25.5220  -30.3340   21.0840 C   0  0  0  0  0  2  0  0  0  0  0  0
  -25.5410  -29.0570   20.2710 C   0  0  0  0  0  0  0  0  0  0  0  0
  -26.7360  -28.3410   20.0550 C   0  0  0  0  0  3  0  0  0  0  0  0
  -25.5020  -26.7180   18.7210 C   0  0  0  0  0  3  0  0  0  0  0  0
  -24.3060  -27.4230   18.9530 C   0  0  0  0  0  3  0  0  0  0  0  0
  -23.1040  -29.4340   19.9970 C   0  0  0  0  0  2  0  0  0  0  0  0
  -24.3380  -30.4640   21.9610 N   0  0  0  0  0  0  0  0  0  0  0  0
  -23.3680  -31.3030   23.8290 O   0  0  0  0  0  0  0  0  0  0  0  0
  -22.4620  -28.7890   22.3390 C   0  0  0  0  0  0  0  0  0  0  0  0
  -21.1620  -28.4980   22.1680 N   0  0  0  0  0  0  0  0  0  0  0  0
  -23.1870  -28.1720   23.1220 O   0  0  0  0  0  0  0  0  0  0  0  0
  -20.6340  -29.0560   21.5100 H   0  0  0  0  0  0  0  0  0  0  0  0
  -17.9590  -26.8460   22.3510 C   0  0  0  0  0  0  0  0  0  0  0  0
  -20.4230  -27.4390   22.8510 C   0  0  0  0  0  3  0  0  0  0  0  0
  -20.7710  -26.0500   22.2650 C   0  0  0  0  0  2  0  0  0  0  0  0
  -19.8120  -25.6080   21.1550 C   0  0  0  0  0  2  0  0  0  0  0  0
  -18.3740  -25.5480   21.6770 C   0  0  0  0  0  2  0  0  0  0  0  0
  -18.9210  -27.7410   22.8870 C   0  0  0  0  0  0  0  0  0  0  0  0
  -18.4820  -28.9500   23.4680 C   0  0  0  0  0  3  0  0  0  0  0  0
  -17.1100  -29.2630   23.5290 C   0  0  0  0  0  3  0  0  0  0  0  0
  -16.1610  -28.3660   23.0110 C   0  0  0  0  0  3  0  0  0  0  0  0
  -16.5860  -27.1600   22.4260 C   0  0  0  0  0  3  0  0  0  0  0  0
  -25.7370  -31.6550   23.7350 C   0  0  0  0  0  3  0  0  0  0  0  0
  -26.4100  -30.6760   24.7740 C   0  0  1  0  0  0  0  0  0  0  0  0
  -25.4510  -30.2070   25.8940 C   0  0  0  0  0  1  0  0  0  0  0  0
  -26.9590  -29.4200   24.0600 C   0  0  0  0  0  1  0  0  0  0  0  0
  -27.6230  -31.3720   25.4360 C   0  0  0  0  0  1  0  0  0  0  0  0
  -25.4570  -32.9600   24.3490 N   0  0  0  0  0  0  0  0  0  0  0  0
  -25.7890  -34.1380   23.8060 C   0  0  0  0  0  0  0  0  0  0  0  0
  -26.4290  -34.2360   22.7540 O   0  0  0  0  0  0  0  0  0  0  0  0
  -24.8840  -32.9550   25.1790 H   0  0  0  0  0  0  0  0  0  0  0  0
  -24.1250  -36.0220   23.8190 C   0  0  0  0  0  1  0  0  0  0  0  0
  -25.3340  -35.4110   24.5430 C   0  0  0  0  0  3  0  0  0  0  0  0
  -27.4710  -36.0250   25.5860 C   0  0  0  0  0  1  0  0  0  0  0  0
  -26.4020  -36.4250   24.6750 N   0  0  0  0  0  0  0  0  0  0  0  0
  -26.0230  -37.3110   25.0030 H   0  0  0  0  0  0  0  0  0  0  0  0
  -30.2850  -23.7350   24.7760 C   0  0  0  0  0  2  0  0  0  0  0  0
  -31.1470  -23.1850   25.9420 C   0  0  0  0  0  2  0  0  0  0  0  0
  -30.5130  -22.0940   26.7090 N   0  0  0  0  0  4  0  0  0  0  0  0
  -29.6060  -22.3640   27.0520 H   0  0  0  0  0  0  0  0  0  0  0  0
  -31.0840  -21.8780   27.5080 H   0  0  0  0  0  0  0  0  0  0  0  0
  -30.4220  -21.2490   26.1750 H   0  0  0  0  0  0  0  0  0  0  0  0
  1 96  1  0
  2  6  1  0
  4  2  1  0
  4  7  1  0
  5  3  1  0
  6  1  1  0
  6  3  1  0
  7  8  1  1
  7  5  1  0
  9  7  1  0
 10 19  1  0
 10  9  1  0
 11 17  1  0
 11 19  1  0
 12 17  1  0
 13 14  1  0
 13 12  1  0
 15 14  1  0
 15 24  1  0
 15 16  1  0
 17 16  1  0
 18 11  2  0
 19 20  1  0
 21 22  2  0
 22 41  1  0
 23 22  1  0
 23 26  1  0
 24 25  1  0
 24 21  1  0
 25 23  2  0
 26 27  1  0
 27 28  2  0
 29 32  1  0
 29 28  1  0
 30 29  2  0
 31 30  1  0
 31 26  2  0
 32 33  1  0
 33 38  2  0
 33 34  1  0
 34 35  2  0
 35 36  1  0
 36 40  1  0
 37 36  2  0
 38 37  1  0
 39 38  1  0
 41 42  1  0
 42 45  1  0
 42 44  1  0
 43 41  2  0
 46 21  1  0
 46 47  1  0
 48 46  1  0
 49 51  1  0
 49  1  1  0
 50 49  1  0
 52 49  1  0
 53 52  1  0
 54 53  1  0
 55 57  1  0
 55 54  1  0
 56 67  2  0
 57 62  1  0
 58 66  1  0
 58 68  1  0
 59 65  1  0
 59 61  1  0
 60 66  1  0
 61 60  1  0
 62 61  2  0
 63 64  1  0
 63 57  2  0
 64 59  2  0
 65 58  1  0
 66 56  1  0
 68 70  2  0
 69 68  1  0
 71 69  1  0
 72 81  2  0
 72 77  1  0
 73 69  1  0
 73 77  1  0
 74 73  1  0
 75 76  1  0
 75 74  1  0
 76 72  1  0
 77 78  2  0
 78 79  1  0
 80 79  2  0
 81 80  1  0
 82 56  1  0
 82 87  1  0
 82 83  1  0
 83 86  1  1
 83 84  1  0
 85 83  1  0
 87 90  1  0
 88 87  1  0
 88 92  1  0
 89 88  2  0
 92 91  1  0
 92 94  1  0
 94 95  1  0
 94 93  1  0
 96 97  1  0
 97 98  1  0
 98 99  1  0
 98100  1  0
101 98  1  0
M  ISO  4  11 100  19 100  54 101  55 101
M  END
>  <TORSDO>  (82) 
F 26

>  <SCORE>  (82) 
-1.352

>  <name>  (82) 
82

>  <ligand_id>  (82) 
82

>  <original_smiles>  (82) 
[H]c1c([H])c([H])c2c(c1[H])C([H])([H])C([H])([H])C([H])([H])C2([H])N([H])C(=O)C1([H])N(C(=O)C([H])(N([H])C(=O)C([H])(N([H])C([H])([H])[H])C([H])([H])[H])C(C([H])([H])[H])(C([H])([H])[H])C([H])([H])[H])C([H])([H])c2c([H])c(OC([H])([H])C([H])([H])C([H])([H])[N+]([H])([H])C([H])(C([H])([H])C([H])([H])[N+]([H])([H])[H])C3([H])C([H])([H])C([H])([H])[N+]([H])(C([H])([H])C([H])([H])N([H])C(=O)N4C([H])([H])C([H])([H])C([H])([H])C([H])(n5nc(-c6c([H])c([H])c(Oc7c([H])c([H])c(F)c([H])c7F)c([H])c6[H])c(C(=O)N([H])[H])c5N([H])[H])C4([H])[H])C([H])([H])C3([H])[H])c([H])c([H])c2C1([H])[H]

>  <smiles>  (82) 
[H]c1c([H])c([H])c2c(c1[H])C([H])([H])C([H])([H])C([H])([H])C2([H])N([H])C(=O)C1([H])N(C(=O)C([H])(N([H])C(=O)C([H])(N([H])C([H])([H])[H])C([H])([H])[H])C(C([H])([H])[H])(C([H])([H])[H])C([H])([H])[H])C([H])([H])c2c([H])c(OC([H])([H])C([H])([H])C([H])([H])[N+]([H])([H])C([H])(C([H])([H])C([H])([H])[N+]([H])([H])[H])C3([H])C([H])([H])C([H])([H])[N+]([H])(C([H])([H])C([H])([H])N([H])C(=O)N4C([H])([H])C([H])([H])C([H])([H])C([H])(n5nc(-c6c([H])c([H])c(Oc7c([H])c([H])c(F)c([H])c7F)c([H])c6[H])c(C(=O)N([H])[H])c5N([H])[H])C4([H])[H])C([H])([H])C3([H])[H])c([H])c([H])c2C1([H])[H]

$$$$
83:0:0
     RDKit          3D

 93101  0  0  1  0  0  0  0  0999 V2000
  -27.4180  -21.6560   20.8840 C   0  0  0  0  0  0  0  0  0  0  0  0
  -27.8260  -22.8880   21.1980 N   0  0  0  0  0  0  0  0  0  0  0  0
  -26.2470  -21.3970   20.5980 O   0  0  0  0  0  0  0  0  0  0  0  0
  -28.7910  -23.0220   21.4650 H   0  0  0  0  0  0  0  0  0  0  0  0
  -27.9980  -19.1540   20.5290 C   0  0  0  0  0  2  0  0  0  0  0  0
  -29.6630  -20.9320   19.9730 C   0  0  0  0  0  2  0  0  0  0  0  0
  -29.1320  -18.1050   20.6520 C   0  0  0  0  0  2  0  0  0  0  0  0
  -30.8240  -19.9590   20.1840 C   0  0  0  0  0  2  0  0  0  0  0  0
  -28.5020  -20.5650   20.9080 C   0  0  0  0  0  3  0  0  0  0  0  0
  -30.4250  -18.5000   19.8900 C   0  0  0  0  0  3  0  0  0  0  0  0
  -31.6250  -17.5740   20.2170 C   0  0  0  0  0  2  0  0  0  0  0  0
  -31.9190  -15.1250   19.8100 C   0  0  0  0  0  0  0  0  0  0  0  0
  -31.6120  -12.8120   19.0130 C   0  0  0  0  0  2  0  0  0  0  0  0
  -30.6740  -12.8250   17.7880 C   0  0  0  0  0  2  0  0  0  0  0  0
  -29.1920  -12.8000   18.2180 C   0  0  0  0  0  2  0  0  0  0  0  0
  -28.8760  -13.8500   19.3150 C   0  0  0  0  0  3  0  0  0  0  0  0
  -29.9100  -13.7580   20.4560 C   0  0  0  0  0  2  0  0  0  0  0  0
  -31.2450  -13.9480   19.8680 N   0  0  0  0  0  0  0  0  0  0  0  0
  -33.0070  -15.2530   19.2410 O   0  0  0  0  0  0  0  0  0  0  0  0
  -31.2510  -16.1680   20.3350 N   0  0  0  0  0  0  0  0  0  0  0  0
  -30.3740  -15.9630   20.7860 H   0  0  0  0  0  0  0  0  0  0  0  0
  -26.5700  -14.6860   20.0920 C   0  0  0  0  0  0  0  0  0  0  0  0
  -25.4400  -14.0140   20.4760 C   0  0  0  0  0  0  0  0  0  0  0  0
  -25.7640  -12.6230   20.4130 C   0  0  0  0  0  0  0  0  0  0  0  0
  -27.5130  -13.7080   19.8170 N   0  0  0  0  0  0  0  0  0  0  0  0
  -27.0320  -12.4620   20.0620 N   0  0  0  0  0  0  0  0  0  0  0  0
  -24.9250  -11.4330   20.6020 C   0  0  0  0  0  0  0  0  0  0  0  0
  -25.2270  -10.4670   21.5870 C   0  0  0  0  0  3  0  0  0  0  0  0
  -24.3960   -9.3410   21.7630 C   0  0  0  0  0  3  0  0  0  0  0  0
  -23.2490   -9.1740   20.9520 C   0  0  0  0  0  0  0  0  0  0  0  0
  -22.9620  -10.1280   19.9610 C   0  0  0  0  0  3  0  0  0  0  0  0
  -23.7940  -11.2460   19.7840 C   0  0  0  0  0  3  0  0  0  0  0  0
  -22.3950   -8.0990   21.0380 O   0  0  0  0  0  0  0  0  0  0  0  0
  -22.1450   -7.4700   22.2310 C   0  0  0  0  0  0  0  0  0  0  0  0
  -21.6240   -8.1620   23.3450 C   0  0  0  0  0  3  0  0  0  0  0  0
  -21.3200   -7.4620   24.5300 C   0  0  0  0  0  3  0  0  0  0  0  0
  -21.5240   -6.0700   24.5970 C   0  0  0  0  0  0  0  0  0  0  0  0
  -22.0400   -5.3790   23.4870 C   0  0  0  0  0  3  0  0  0  0  0  0
  -22.3460   -6.0760   22.3060 C   0  0  0  0  0  0  0  0  0  0  0  0
  -22.8240   -5.4010   21.2320 F   0  0  0  0  0  0  0  0  0  0  0  0
  -21.2230   -5.3980   25.7310 F   0  0  0  0  0  0  0  0  0  0  0  0
  -24.1060  -14.6210   20.8010 C   0  0  0  0  0  0  0  0  0  0  0  0
  -23.3510  -13.9940   21.6990 N   0  0  0  0  0  0  0  0  0  0  0  0
  -23.7420  -15.6780   20.2920 O   0  0  0  0  0  0  0  0  0  0  0  0
  -23.6610  -13.1360   22.1330 H   0  0  0  0  0  0  0  0  0  0  0  0
  -22.4530  -14.3800   21.9580 H   0  0  0  0  0  0  0  0  0  0  0  0
  -26.8670  -16.0340   19.9340 N   0  0  0  0  0  0  0  0  0  0  0  0
  -26.1840  -16.7640   20.0980 H   0  0  0  0  0  0  0  0  0  0  0  0
  -27.7530  -16.3870   19.6010 H   0  0  0  0  0  0  0  0  0  0  0  0
  -26.9650  -24.0600   21.2000 C   0  0  0  0  0  2  0  0  0  0  0  0
  -27.7770  -25.3530   21.3560 C   0  0  0  0  0  2  0  0  0  0  0  0
  -28.5880  -25.7710   20.0930 C   0  0  0  0  0  2  0  0  0  0  0  0
  -28.6910  -27.1920   19.9520 O   0  0  0  0  0  0  0  0  0  0  0  0
  -24.6840  -32.0130   23.2490 C   0  0  0  0  0  0  0  0  0  0  0  0
  -27.5020  -27.8820   19.9210 C   0  0  0  0  0  0  0  0  0  0  0  0
  -23.5220  -30.6590   21.5300 C   0  0  0  0  0  3  0  0  0  0  0  0
  -25.0450  -29.2740   20.0130 C   0  0  0  0  0  0  0  0  0  0  0  0
  -26.0310  -31.1340   21.3510 C   0  0  0  0  0  2  0  0  0  0  0  0
  -26.1760  -29.8080   20.6400 C   0  0  0  0  0  0  0  0  0  0  0  0
  -27.4060  -29.1170   20.6000 C   0  0  0  0  0  3  0  0  0  0  0  0
  -26.3580  -27.3720   19.2610 C   0  0  0  0  0  3  0  0  0  0  0  0
  -25.1280  -28.0560   19.3210 C   0  0  0  0  0  3  0  0  0  0  0  0
  -23.7560  -30.0600   20.1160 C   0  0  0  0  0  2  0  0  0  0  0  0
  -24.7640  -31.2780   22.1010 N   0  0  0  0  0  0  0  0  0  0  0  0
  -23.5950  -32.2100   23.8080 O   0  0  0  0  0  0  0  0  0  0  0  0
  -22.9210  -29.5590   22.4370 C   0  0  0  0  0  0  0  0  0  0  0  0
  -21.6110  -29.3100   22.2810 N   0  0  0  0  0  0  0  0  0  0  0  0
  -23.6310  -28.9330   23.2300 O   0  0  0  0  0  0  0  0  0  0  0  0
  -21.1000  -29.8360   21.5860 H   0  0  0  0  0  0  0  0  0  0  0  0
  -18.2970  -27.9770   22.6910 C   0  0  0  0  0  0  0  0  0  0  0  0
  -20.8370  -28.3110   23.0140 C   0  0  0  0  0  3  0  0  0  0  0  0
  -20.9950  -26.9080   22.3910 C   0  0  0  0  0  2  0  0  0  0  0  0
  -19.9340  -26.6170   21.3220 C   0  0  0  0  0  2  0  0  0  0  0  0
  -18.5270  -26.6890   21.9180 C   0  0  0  0  0  2  0  0  0  0  0  0
  -19.3820  -28.7490   23.1850 C   0  0  0  0  0  0  0  0  0  0  0  0
  -19.1140  -29.9630   23.8490 C   0  0  0  0  0  3  0  0  0  0  0  0
  -17.7910  -30.3990   24.0430 C   0  0  0  0  0  3  0  0  0  0  0  0
  -16.7190  -29.6290   23.5620 C   0  0  0  0  0  3  0  0  0  0  0  0
  -16.9710  -28.4200   22.8900 C   0  0  0  0  0  3  0  0  0  0  0  0
  -25.9510  -32.6600   23.8980 C   0  0  0  0  0  3  0  0  0  0  0  0
  -25.6150  -34.0500   24.2290 N   0  0  0  0  0  0  0  0  0  0  0  0
  -25.9640  -35.1140   23.4920 C   0  0  0  0  0  0  0  0  0  0  0  0
  -26.6740  -35.0260   22.4840 O   0  0  0  0  0  0  0  0  0  0  0  0
  -24.9890  -34.1920   25.0090 H   0  0  0  0  0  0  0  0  0  0  0  0
  -24.2290  -36.8900   23.0890 C   0  0  0  0  0  1  0  0  0  0  0  0
  -25.4430  -36.4900   23.9410 C   0  0  0  0  0  3  0  0  0  0  0  0
  -27.5310  -37.3920   24.8650 C   0  0  0  0  0  1  0  0  0  0  0  0
  -26.4650  -37.5570   23.8810 N   0  0  0  0  0  0  0  0  0  0  0  0
  -26.0400  -38.4690   24.0220 H   0  0  0  0  0  0  0  0  0  0  0  0
  -26.4580  -31.8850   25.1770 C   0  0  1  0  0  0  0  0  0  0  0  0
  -25.3450  -31.6080   26.2150 C   0  0  0  0  0  1  0  0  0  0  0  0
  -27.0850  -30.5290   24.7750 C   0  0  0  0  0  1  0  0  0  0  0  0
  -27.5690  -32.6980   25.8820 C   0  0  0  0  0  1  0  0  0  0  0  0
  1  2  1  0
  2 50  1  0
  2  4  1  0
  3  1  2  0
  5  7  1  0
  5  9  1  0
  6  8  1  0
  6  9  1  0
  9  1  1  0
 10  8  1  0
 10 11  1  0
 10  7  1  0
 11 20  1  0
 12 18  1  0
 12 20  1  0
 13 18  1  0
 14 15  1  0
 14 13  1  0
 16 15  1  0
 16 25  1  0
 16 17  1  0
 18 17  1  0
 19 12  2  0
 20 21  1  0
 22 23  2  0
 23 42  1  0
 24 23  1  0
 24 27  1  0
 25 26  1  0
 25 22  1  0
 26 24  2  0
 27 28  1  0
 28 29  2  0
 30 33  1  0
 30 29  1  0
 31 30  2  0
 32 31  1  0
 32 27  2  0
 33 34  1  0
 34 39  2  0
 34 35  1  0
 35 36  2  0
 36 37  1  0
 37 41  1  0
 38 37  2  0
 39 38  1  0
 40 39  1  0
 42 43  1  0
 43 46  1  0
 43 45  1  0
 44 42  2  0
 47 22  1  0
 47 48  1  0
 49 47  1  0
 50 51  1  0
 52 51  1  0
 53 52  1  0
 54 65  2  0
 55 53  1  0
 55 60  1  0
 56 64  1  0
 56 66  1  0
 57 63  1  0
 57 59  1  0
 58 64  1  0
 59 58  1  0
 60 59  2  0
 61 62  1  0
 61 55  2  0
 62 57  2  0
 63 56  1  0
 64 54  1  0
 66 68  2  0
 67 66  1  0
 69 67  1  0
 70 79  2  0
 70 75  1  0
 71 67  1  0
 71 75  1  0
 72 71  1  0
 73 74  1  0
 73 72  1  0
 74 70  1  0
 75 76  2  0
 76 77  1  0
 78 77  2  0
 79 78  1  0
 80 54  1  0
 80 81  1  0
 80 90  1  0
 81 84  1  0
 82 86  1  0
 82 81  1  0
 83 82  2  0
 86 85  1  0
 88 86  1  0
 88 89  1  0
 88 87  1  0
 90 93  1  1
 90 91  1  0
 92 90  1  0
M  ISO  4  12 100  20 100  52 101  53 101
M  END
>  <TORSDO>  (83) 
F 21

>  <SCORE>  (83) 
-9.856

>  <name>  (83) 
83

>  <ligand_id>  (83) 
83

>  <original_smiles>  (83) 
[H]c1c([H])c([H])c2c(c1[H])C([H])([H])C([H])([H])C([H])([H])C2([H])N([H])C(=O)C1([H])N(C(=O)C([H])(N([H])C(=O)C([H])(N([H])C([H])([H])[H])C([H])([H])[H])C(C([H])([H])[H])(C([H])([H])[H])C([H])([H])[H])C([H])([H])c2c([H])c(OC([H])([H])C([H])([H])C([H])([H])N([H])C(=O)C3([H])C([H])([H])C([H])([H])C([H])(C([H])([H])N([H])C(=O)N4C([H])([H])C([H])([H])C([H])([H])C([H])(n5nc(-c6c([H])c([H])c(Oc7c([H])c([H])c(F)c([H])c7F)c([H])c6[H])c(C(=O)N([H])[H])c5N([H])[H])C4([H])[H])C([H])([H])C3([H])[H])c([H])c([H])c2C1([H])[H]

>  <smiles>  (83) 
[H]c1c([H])c([H])c2c(c1[H])C([H])([H])C([H])([H])C([H])([H])C2([H])N([H])C(=O)C1([H])N(C(=O)C([H])(N([H])C(=O)C([H])(N([H])C([H])([H])[H])C([H])([H])[H])C(C([H])([H])[H])(C([H])([H])[H])C([H])([H])[H])C([H])([H])c2c([H])c(OC([H])([H])C([H])([H])C([H])([H])N([H])C(=O)C3([H])C([H])([H])C([H])([H])C([H])(C([H])([H])N([H])C(=O)N4C([H])([H])C([H])([H])C([H])([H])C([H])(n5nc(-c6c([H])c([H])c(Oc7c([H])c([H])c(F)c([H])c7F)c([H])c6[H])c(C(=O)N([H])[H])c5N([H])[H])C4([H])[H])C([H])([H])C3([H])[H])c([H])c([H])c2C1([H])[H]

$$$$
84:0:0
     RDKit          3D

 91 98  0  0  1  0  0  0  0  0999 V2000
  -28.2780  -21.8590   22.5120 C   0  0  0  0  0  1  0  0  0  0  0  0
  -28.7510  -22.5120   21.1660 C   0  0  0  0  0  3  0  0  0  0  0  0
  -28.6940  -21.2800   20.1400 C   0  0  0  0  0  0  0  0  0  0  0  0
  -29.3490  -20.0940   20.4470 N   0  0  0  0  0  0  0  0  0  0  0  0
  -28.0050  -21.3810   19.1240 O   0  0  0  0  0  0  0  0  0  0  0  0
  -29.9500  -20.1660   21.2560 H   0  0  0  0  0  0  0  0  0  0  0  0
  -29.1650  -18.6730   19.9290 C   0  0  0  0  0  3  0  0  0  0  0  0
  -30.1600  -17.5320   20.5000 C   0  0  0  0  0  3  0  0  0  0  0  0
  -30.6550  -14.9610   20.0420 C   0  0  0  0  0  0  0  0  0  0  0  0
  -30.4530  -12.7020   19.0000 C   0  0  0  0  0  2  0  0  0  0  0  0
  -29.4690  -12.8200   17.8180 C   0  0  0  0  0  2  0  0  0  0  0  0
  -28.0120  -12.6420   18.2890 C   0  0  0  0  0  2  0  0  0  0  0  0
  -27.6820  -13.4990   19.5400 C   0  0  0  0  0  3  0  0  0  0  0  0
  -28.7780  -13.3670   20.6210 C   0  0  0  0  0  2  0  0  0  0  0  0
  -30.0530  -13.7280   19.9870 N   0  0  0  0  0  0  0  0  0  0  0  0
  -31.8320  -15.0990   19.6990 O   0  0  0  0  0  0  0  0  0  0  0  0
  -29.8390  -16.0520   20.3080 N   0  0  0  0  0  0  0  0  0  0  0  0
  -28.8800  -15.7980   20.4880 H   0  0  0  0  0  0  0  0  0  0  0  0
  -25.3130  -14.0760   20.3310 C   0  0  0  0  0  0  0  0  0  0  0  0
  -24.2610  -13.2930   20.7360 C   0  0  0  0  0  0  0  0  0  0  0  0
  -24.7330  -11.9460   20.6950 C   0  0  0  0  0  0  0  0  0  0  0  0
  -26.3540  -13.2020   20.0660 N   0  0  0  0  0  0  0  0  0  0  0  0
  -26.0140  -11.9190   20.3500 N   0  0  0  0  0  0  0  0  0  0  0  0
  -24.0240  -10.6760   20.9080 C   0  0  0  0  0  0  0  0  0  0  0  0
  -24.4700   -9.7280   21.8530 C   0  0  0  0  0  3  0  0  0  0  0  0
  -23.7550   -8.5260   22.0530 C   0  0  0  0  0  3  0  0  0  0  0  0
  -22.5810   -8.2680   21.3060 C   0  0  0  0  0  0  0  0  0  0  0  0
  -22.1560   -9.2060   20.3490 C   0  0  0  0  0  3  0  0  0  0  0  0
  -22.8720  -10.3970   20.1460 C   0  0  0  0  0  3  0  0  0  0  0  0
  -21.8330   -7.1200   21.4120 O   0  0  0  0  0  0  0  0  0  0  0  0
  -21.7770   -6.4040   22.5820 C   0  0  0  0  0  0  0  0  0  0  0  0
  -21.2920   -6.9760   23.7770 C   0  0  0  0  0  3  0  0  0  0  0  0
  -21.1850   -6.1910   24.9430 C   0  0  0  0  0  3  0  0  0  0  0  0
  -21.5480   -4.8320   24.9140 C   0  0  0  0  0  0  0  0  0  0  0  0
  -22.0300   -4.2590   23.7220 C   0  0  0  0  0  3  0  0  0  0  0  0
  -22.1380   -5.0420   22.5590 C   0  0  0  0  0  0  0  0  0  0  0  0
  -22.5820   -4.4780   21.4090 F   0  0  0  0  0  0  0  0  0  0  0  0
  -21.4390   -4.0730   26.0280 F   0  0  0  0  0  0  0  0  0  0  0  0
  -22.8710  -13.7640   21.0480 C   0  0  0  0  0  0  0  0  0  0  0  0
  -22.1720  -13.0570   21.9330 N   0  0  0  0  0  0  0  0  0  0  0  0
  -22.4090  -14.7840   20.5390 O   0  0  0  0  0  0  0  0  0  0  0  0
  -22.5570  -12.2210   22.3510 H   0  0  0  0  0  0  0  0  0  0  0  0
  -21.2460  -13.3580   22.1990 H   0  0  0  0  0  0  0  0  0  0  0  0
  -25.4530  -15.4450   20.1370 N   0  0  0  0  0  0  0  0  0  0  0  0
  -24.6750  -16.0850   20.2500 H   0  0  0  0  0  0  0  0  0  0  0  0
  -26.2380  -15.8700   19.6590 H   0  0  0  0  0  0  0  0  0  0  0  0
  -27.9810  -23.9660   20.9020 C   0  0  0  0  0  3  0  0  0  0  0  0
  -28.8570  -25.3520   22.9460 C   0  0  0  0  0  1  0  0  0  0  0  0
  -27.6500  -24.7220   22.2210 C   0  0  0  0  0  2  0  0  0  0  0  0
  -28.4500  -25.0890   19.8170 C   0  0  0  0  0  2  0  0  0  0  0  0
  -28.4340  -26.5910   20.0390 O   0  0  0  0  0  0  0  0  0  0  0  0
  -24.6950  -31.9200   23.1590 C   0  0  0  0  0  0  0  0  0  0  0  0
  -27.3050  -27.4400   19.9560 C   0  0  0  0  0  0  0  0  0  0  0  0
  -23.4880  -30.5610   21.4930 C   0  0  0  0  0  3  0  0  0  0  0  0
  -24.9340  -29.0700   19.9890 C   0  0  0  0  0  0  0  0  0  0  0  0
  -26.0250  -30.9060   21.2830 C   0  0  0  0  0  2  0  0  0  0  0  0
  -26.1060  -29.5460   20.5900 C   0  0  0  0  0  0  0  0  0  0  0  0
  -27.2930  -28.7480   20.5550 C   0  0  0  0  0  3  0  0  0  0  0  0
  -26.1120  -27.0240   19.3290 C   0  0  0  0  0  3  0  0  0  0  0  0
  -24.9430  -27.8190   19.3470 C   0  0  0  0  0  3  0  0  0  0  0  0
  -23.6910  -29.9360   20.0880 C   0  0  0  0  0  2  0  0  0  0  0  0
  -24.7560  -31.1520   22.0320 N   0  0  0  0  0  0  0  0  0  0  0  0
  -23.6150  -32.1670   23.7190 O   0  0  0  0  0  0  0  0  0  0  0  0
  -22.8540  -29.5050   22.4290 C   0  0  0  0  0  0  0  0  0  0  0  0
  -21.5310  -29.2990   22.3010 N   0  0  0  0  0  0  0  0  0  0  0  0
  -23.5460  -28.8720   23.2290 O   0  0  0  0  0  0  0  0  0  0  0  0
  -21.0270  -29.8610   21.6270 H   0  0  0  0  0  0  0  0  0  0  0  0
  -18.1810  -28.0070   22.7760 C   0  0  0  0  0  0  0  0  0  0  0  0
  -20.7320  -28.3250   23.0500 C   0  0  0  0  0  3  0  0  0  0  0  0
  -20.8720  -26.9090   22.4390 C   0  0  0  0  0  2  0  0  0  0  0  0
  -19.7760  -26.5880   21.4180 C   0  0  0  0  0  2  0  0  0  0  0  0
  -18.3920  -26.6800   22.0670 C   0  0  0  0  0  2  0  0  0  0  0  0
  -19.2790  -28.7890   23.2200 C   0  0  0  0  0  0  0  0  0  0  0  0
  -19.0250  -30.0310   23.8460 C   0  0  0  0  0  3  0  0  0  0  0  0
  -17.7060  -30.4910   24.0250 C   0  0  0  0  0  3  0  0  0  0  0  0
  -16.6230  -29.7040   23.5930 C   0  0  0  0  0  3  0  0  0  0  0  0
  -16.8620  -28.4650   22.9750 C   0  0  0  0  0  3  0  0  0  0  0  0
  -25.9740  -32.5530   23.7890 C   0  0  0  0  0  3  0  0  0  0  0  0
  -25.6600  -33.9480   24.1390 N   0  0  0  0  0  0  0  0  0  0  0  0
  -25.9870  -35.0140   23.3940 C   0  0  0  0  0  0  0  0  0  0  0  0
  -26.6540  -34.9260   22.3600 O   0  0  0  0  0  0  0  0  0  0  0  0
  -25.0660  -34.0900   24.9430 H   0  0  0  0  0  0  0  0  0  0  0  0
  -24.2570  -36.8100   23.0640 C   0  0  0  0  0  1  0  0  0  0  0  0
  -25.4990  -36.3960   23.8730 C   0  0  0  0  0  3  0  0  0  0  0  0
  -27.6280  -37.2700   24.7310 C   0  0  0  0  0  1  0  0  0  0  0  0
  -26.5320  -37.4510   23.7810 N   0  0  0  0  0  0  0  0  0  0  0  0
  -26.1260  -38.3690   23.9370 H   0  0  0  0  0  0  0  0  0  0  0  0
  -26.4990  -31.7700   25.0550 C   0  0  1  0  0  0  0  0  0  0  0  0
  -25.4130  -31.5110   26.1260 C   0  0  0  0  0  1  0  0  0  0  0  0
  -27.0850  -30.4010   24.6450 C   0  0  0  0  0  1  0  0  0  0  0  0
  -27.6510  -32.5630   25.7180 C   0  0  0  0  0  1  0  0  0  0  0  0
  2  1  1  0
  3  4  1  0
  3  2  1  0
  4  6  1  0
  5  3  2  0
  7  4  1  0
  7  8  2  0
  9 17  1  0
 10 15  1  0
 11 12  1  0
 11 10  1  0
 13 12  1  0
 13 22  1  0
 13 14  1  0
 15  9  1  0
 15 14  1  0
 16  9  2  0
 17 18  1  0
 17  8  1  0
 19 20  2  0
 20 39  1  0
 21 20  1  0
 21 24  1  0
 22 19  1  0
 22 23  1  0
 23 21  2  0
 24 25  1  0
 25 26  2  0
 27 30  1  0
 27 26  1  0
 28 27  2  0
 29 28  1  0
 29 24  2  0
 30 31  1  0
 31 32  1  0
 32 33  2  0
 34 33  1  0
 34 38  1  0
 35 34  2  0
 36 31  2  0
 36 35  1  0
 37 36  1  0
 39 40  1  0
 40 43  1  0
 40 42  1  0
 41 39  2  0
 44 45  1  0
 44 19  1  0
 46 44  1  0
 47 50  1  0
 47  2  1  0
 47 49  1  0
 49 48  1  0
 50 51  1  0
 52 63  2  0
 53 51  1  0
 53 58  1  0
 54 62  1  0
 54 64  1  0
 55 61  1  0
 55 57  1  0
 56 62  1  0
 57 56  1  0
 58 57  2  0
 59 60  1  0
 59 53  2  0
 60 55  2  0
 61 54  1  0
 62 52  1  0
 64 66  2  0
 65 64  1  0
 67 65  1  0
 68 77  2  0
 68 73  1  0
 69 65  1  0
 69 73  1  0
 70 69  1  0
 71 72  1  0
 71 70  1  0
 72 68  1  0
 73 74  2  0
 74 75  1  0
 76 75  2  0
 77 76  1  0
 78 52  1  0
 78 79  1  0
 78 88  1  0
 79 82  1  0
 80 84  1  0
 80 79  1  0
 81 80  2  0
 84 83  1  0
 86 84  1  0
 86 87  1  0
 86 85  1  0
 88 91  1  1
 88 89  1  0
 90 88  1  0
M  ISO  4   9 100  17 100  50 101  51 101
M  END
>  <TORSDO>  (84) 
F 22

>  <SCORE>  (84) 
-12.354

>  <name>  (84) 
84

>  <ligand_id>  (84) 
84

>  <original_smiles>  (84) 
[H]c1c([H])c([H])c2c(c1[H])C([H])([H])C([H])([H])C([H])([H])C2([H])N([H])C(=O)C1([H])N(C(=O)C([H])(N([H])C(=O)C([H])(N([H])C([H])([H])[H])C([H])([H])[H])C(C([H])([H])[H])(C([H])([H])[H])C([H])([H])[H])C([H])([H])c2c([H])c(OC([H])([H])C([H])(C([H])([H])C([H])([H])[H])C([H])(C(=O)N([H])C([H])([H])C([H])([H])N([H])C(=O)N3C([H])([H])C([H])([H])C([H])([H])C([H])(n4nc(-c5c([H])c([H])c(Oc6c([H])c([H])c(F)c([H])c6F)c([H])c5[H])c(C(=O)N([H])[H])c4N([H])[H])C3([H])[H])C([H])([H])[H])c([H])c([H])c2C1([H])[H]

>  <smiles>  (84) 
[H]c1c([H])c([H])c2c(c1[H])C([H])([H])C([H])([H])C([H])([H])C2([H])N([H])C(=O)C1([H])N(C(=O)C([H])(N([H])C(=O)C([H])(N([H])C([H])([H])[H])C([H])([H])[H])C(C([H])([H])[H])(C([H])([H])[H])C([H])([H])[H])C([H])([H])c2c([H])c(OC([H])([H])C([H])(C([H])([H])C([H])([H])[H])C([H])(C(=O)N([H])C([H])([H])C([H])([H])N([H])C(=O)N3C([H])([H])C([H])([H])C([H])([H])C([H])(n4nc(-c5c([H])c([H])c(Oc6c([H])c([H])c(F)c([H])c6F)c([H])c5[H])c(C(=O)N([H])[H])c4N([H])[H])C3([H])[H])C([H])([H])[H])c([H])c([H])c2C1([H])[H]

$$$$
85:0:0
     RDKit          3D

 98106  0  0  1  0  0  0  0  0999 V2000
  -31.7250  -23.2670   20.6250 C   0  0  0  0  0  2  0  0  0  0  0  0
  -31.9810  -24.6840   20.0660 C   0  0  0  0  0  2  0  0  0  0  0  0
  -30.7070  -24.1750   18.0390 C   0  0  0  0  0  2  0  0  0  0  0  0
  -31.3130  -22.2410   19.5410 C   0  0  0  0  0  3  0  0  0  0  0  0
  -30.2380  -22.8370   18.6070 C   0  0  0  0  0  3  0  0  0  0  0  0
  -30.8780  -25.1160   19.1670 N   0  0  2  0  0  4  0  0  0  0  0  0
  -29.0910  -23.0760   19.2550 F   0  0  0  0  0  0  0  0  0  0  0  0
  -30.0140  -25.0240   19.6860 H   0  0  0  0  0  0  0  0  0  0  0  0
  -30.8320  -20.9470   20.2080 C   0  0  0  0  0  0  0  0  0  0  0  0
  -29.7720  -20.8930   20.8430 O   0  0  0  0  0  0  0  0  0  0  0  0
  -31.7280  -19.7190   20.1000 C   0  0  0  0  0  2  0  0  0  0  0  0
  -31.2550  -18.7820   21.1340 N   0  0  0  0  0  4  0  0  0  0  0  0
  -30.4770  -19.2650   21.5720 H   0  0  0  0  0  0  0  0  0  0  0  0
  -31.9830  -18.6670   21.8200 H   0  0  0  0  0  0  0  0  0  0  0  0
  -30.7730  -17.4790   20.6470 C   0  0  0  0  0  2  0  0  0  0  0  0
  -30.8480  -16.4320   21.7780 C   0  0  0  0  0  2  0  0  0  0  0  0
  -30.7440  -14.3280   20.4640 C   0  0  0  0  0  0  0  0  0  0  0  0
  -30.3370  -12.2900   19.1410 C   0  0  0  0  0  2  0  0  0  0  0  0
  -29.3880  -12.6410   17.9820 C   0  0  0  0  0  2  0  0  0  0  0  0
  -27.9120  -12.5400   18.4130 C   0  0  0  0  0  2  0  0  0  0  0  0
  -27.6250  -13.2610   19.7580 C   0  0  0  0  0  3  0  0  0  0  0  0
  -28.6910  -12.9020   20.8170 C   0  0  0  0  0  2  0  0  0  0  0  0
  -30.0240  -13.1930   20.2600 N   0  0  0  0  0  0  0  0  0  0  0  0
  -31.7520  -14.6250   19.8180 O   0  0  0  0  0  0  0  0  0  0  0  0
  -30.2800  -15.1340   21.4210 N   0  0  0  0  0  0  0  0  0  0  0  0
  -29.5000  -14.7980   21.9670 H   0  0  0  0  0  0  0  0  0  0  0  0
  -25.2180  -13.8590   20.4610 C   0  0  0  0  0  0  0  0  0  0  0  0
  -24.1540  -13.0820   20.8380 C   0  0  0  0  0  0  0  0  0  0  0  0
  -24.6180  -11.7340   20.8130 C   0  0  0  0  0  0  0  0  0  0  0  0
  -26.2680  -12.9820   20.2380 N   0  0  0  0  0  0  0  0  0  0  0  0
  -25.9090  -11.6970   20.4970 N   0  0  0  0  0  0  0  0  0  0  0  0
  -23.8970  -10.4680   21.0190 C   0  0  0  0  0  0  0  0  0  0  0  0
  -24.3430   -9.5000   21.9470 C   0  0  0  0  0  3  0  0  0  0  0  0
  -23.6180   -8.3040   22.1410 C   0  0  0  0  0  3  0  0  0  0  0  0
  -22.4310   -8.0670   21.4050 C   0  0  0  0  0  0  0  0  0  0  0  0
  -22.0030   -9.0250   20.4690 C   0  0  0  0  0  3  0  0  0  0  0  0
  -22.7310  -10.2100   20.2730 C   0  0  0  0  0  3  0  0  0  0  0  0
  -21.6770   -6.9240   21.5060 O   0  0  0  0  0  0  0  0  0  0  0  0
  -21.6610   -6.1680   22.6490 C   0  0  0  0  0  0  0  0  0  0  0  0
  -21.2850   -6.7130   23.8950 C   0  0  0  0  0  3  0  0  0  0  0  0
  -21.2170   -5.8890   25.0340 C   0  0  0  0  0  3  0  0  0  0  0  0
  -21.5120   -4.5160   24.9290 C   0  0  0  0  0  0  0  0  0  0  0  0
  -21.8800   -3.9690   23.6870 C   0  0  0  0  0  3  0  0  0  0  0  0
  -21.9520   -4.7920   22.5500 C   0  0  0  0  0  0  0  0  0  0  0  0
  -22.2890   -4.2560   21.3520 F   0  0  0  0  0  0  0  0  0  0  0  0
  -21.4380   -3.7200   26.0210 F   0  0  0  0  0  0  0  0  0  0  0  0
  -22.7560  -13.5570   21.1170 C   0  0  0  0  0  0  0  0  0  0  0  0
  -22.0370  -12.8620   21.9910 N   0  0  0  0  0  0  0  0  0  0  0  0
  -22.3090  -14.5770   20.5960 O   0  0  0  0  0  0  0  0  0  0  0  0
  -22.4070  -12.0320   22.4260 H   0  0  0  0  0  0  0  0  0  0  0  0
  -21.1000  -13.1630   22.2180 H   0  0  0  0  0  0  0  0  0  0  0  0
  -25.3750  -15.2300   20.2760 N   0  0  0  0  0  0  0  0  0  0  0  0
  -24.6060  -15.8850   20.3730 H   0  0  0  0  0  0  0  0  0  0  0  0
  -26.2310  -15.6760   19.9680 H   0  0  0  0  0  0  0  0  0  0  0  0
  -30.9350  -26.5370   18.7410 C   0  0  0  0  0  2  0  0  0  0  0  0
  -30.6060  -27.5330   19.8770 C   0  0  0  0  0  2  0  0  0  0  0  0
  -29.5280  -27.0320   20.8590 C   0  0  0  0  0  2  0  0  0  0  0  0
  -28.3580  -26.6750   20.1330 O   0  0  0  0  0  0  0  0  0  0  0  0
  -24.5740  -31.8980   23.2350 C   0  0  0  0  0  0  0  0  0  0  0  0
  -27.2370  -27.4720   20.1820 C   0  0  0  0  0  0  0  0  0  0  0  0
  -23.3630  -30.4800   21.6030 C   0  0  0  0  0  3  0  0  0  0  0  0
  -24.8180  -28.9370   20.1880 C   0  0  0  0  0  0  0  0  0  0  0  0
  -25.8810  -30.8530   21.3950 C   0  0  0  0  0  2  0  0  0  0  0  0
  -25.9700  -29.4810   20.7670 C   0  0  0  0  0  0  0  0  0  0  0  0
  -27.1820  -28.7650   20.7570 C   0  0  0  0  0  3  0  0  0  0  0  0
  -26.0680  -26.9380   19.6040 C   0  0  0  0  0  3  0  0  0  0  0  0
  -24.8600  -27.6620   19.6010 C   0  0  0  0  0  3  0  0  0  0  0  0
  -23.5670  -29.7840   20.2310 C   0  0  0  0  0  2  0  0  0  0  0  0
  -24.6230  -31.0920   22.1370 N   0  0  0  0  0  0  0  0  0  0  0  0
  -23.4960  -32.1760   23.7750 O   0  0  0  0  0  0  0  0  0  0  0  0
  -22.7150  -29.4690   22.5750 C   0  0  0  0  0  0  0  0  0  0  0  0
  -21.3880  -29.2960   22.4560 N   0  0  0  0  0  0  0  0  0  0  0  0
  -23.4010  -28.8420   23.3860 O   0  0  0  0  0  0  0  0  0  0  0  0
  -20.8960  -29.8630   21.7810 H   0  0  0  0  0  0  0  0  0  0  0  0
  -18.0080  -28.1380   22.9640 C   0  0  0  0  0  0  0  0  0  0  0  0
  -20.5690  -28.3660   23.2290 C   0  0  0  0  0  3  0  0  0  0  0  0
  -20.6560  -26.9340   22.6550 C   0  0  0  0  0  2  0  0  0  0  0  0
  -19.5480  -26.6210   21.6450 C   0  0  0  0  0  2  0  0  0  0  0  0
  -18.1650  -26.7900   22.2820 C   0  0  0  0  0  2  0  0  0  0  0  0
  -19.1380  -28.8880   23.3890 C   0  0  0  0  0  0  0  0  0  0  0  0
  -18.9350  -30.1580   23.9710 C   0  0  0  0  0  3  0  0  0  0  0  0
  -17.6370  -30.6730   24.1460 C   0  0  0  0  0  3  0  0  0  0  0  0
  -16.5220  -29.9150   23.7460 C   0  0  0  0  0  3  0  0  0  0  0  0
  -16.7090  -28.6520   23.1560 C   0  0  0  0  0  3  0  0  0  0  0  0
  -25.8640  -32.5330   23.8460 C   0  0  0  0  0  3  0  0  0  0  0  0
  -25.5610  -33.9320   24.1730 N   0  0  0  0  0  0  0  0  0  0  0  0
  -25.8970  -34.9830   23.4140 C   0  0  0  0  0  0  0  0  0  0  0  0
  -26.5740  -34.8760   22.3870 O   0  0  0  0  0  0  0  0  0  0  0  0
  -24.9730  -34.0930   24.9770 H   0  0  0  0  0  0  0  0  0  0  0  0
  -24.1720  -36.7700   23.0380 C   0  0  0  0  0  1  0  0  0  0  0  0
  -25.4070  -36.3700   23.8630 C   0  0  0  0  0  3  0  0  0  0  0  0
  -27.5540  -37.2320   24.6890 C   0  0  0  0  0  1  0  0  0  0  0  0
  -26.4350  -37.4310   23.7720 N   0  0  0  0  0  0  0  0  0  0  0  0
  -26.0260  -38.3390   23.9770 H   0  0  0  0  0  0  0  0  0  0  0  0
  -26.3920  -31.7630   25.1190 C   0  0  1  0  0  0  0  0  0  0  0  0
  -25.3070  -31.5260   26.1940 C   0  0  0  0  0  1  0  0  0  0  0  0
  -26.9710  -30.3840   24.7260 C   0  0  0  0  0  1  0  0  0  0  0  0
  -27.5460  -32.5580   25.7750 C   0  0  0  0  0  1  0  0  0  0  0  0
  2  1  1  0
  3  5  1  0
  3  6  1  0
  4  9  1  0
  4  1  1  0
  5  7  1  0
  5  4  1  0
  6  8  1  1
  6  2  1  0
  9 10  2  0
 11  9  1  0
 11 12  1  0
 12 13  1  0
 12 14  1  0
 15 12  1  0
 15 16  1  0
 17 25  1  0
 18 23  1  0
 19 20  1  0
 19 18  1  0
 21 20  1  0
 21 30  1  0
 21 22  1  0
 23 17  1  0
 23 22  1  0
 24 17  2  0
 25 16  1  0
 25 26  1  0
 27 28  2  0
 28 47  1  0
 29 28  1  0
 29 32  1  0
 30 27  1  0
 30 31  1  0
 31 29  2  0
 32 33  1  0
 33 34  2  0
 35 38  1  0
 35 34  1  0
 36 35  2  0
 37 36  1  0
 37 32  2  0
 38 39  1  0
 39 40  1  0
 40 41  2  0
 42 41  1  0
 42 46  1  0
 43 42  2  0
 44 39  2  0
 44 43  1  0
 45 44  1  0
 47 48  1  0
 48 51  1  0
 48 50  1  0
 49 47  2  0
 52 53  1  0
 52 27  1  0
 54 52  1  0
 55  6  1  0
 55 56  1  0
 56 57  1  0
 58 60  1  0
 58 57  1  0
 59 70  2  0
 60 65  1  0
 61 69  1  0
 61 71  1  0
 62 68  1  0
 62 64  1  0
 63 69  1  0
 64 63  1  0
 65 64  2  0
 66 60  2  0
 67 66  1  0
 67 62  2  0
 68 61  1  0
 69 59  1  0
 71 73  2  0
 72 71  1  0
 74 72  1  0
 75 84  2  0
 75 80  1  0
 76 72  1  0
 76 80  1  0
 77 76  1  0
 78 79  1  0
 78 77  1  0
 79 75  1  0
 80 81  2  0
 81 82  1  0
 83 82  2  0
 84 83  1  0
 85 59  1  0
 85 86  1  0
 85 95  1  0
 86 89  1  0
 87 91  1  0
 87 86  1  0
 88 87  2  0
 91 90  1  0
 93 91  1  0
 93 94  1  0
 93 92  1  0
 95 98  1  1
 95 96  1  0
 97 95  1  0
M  ISO  4  17 100  25 100  57 101  58 101
M  END
>  <TORSDO>  (85) 
F 24

>  <SCORE>  (85) 
-12.579

>  <name>  (85) 
85

>  <ligand_id>  (85) 
85

>  <original_smiles>  (85) 
[H]c1c([H])c([H])c2c(c1[H])C([H])([H])C([H])([H])C([H])([H])C2([H])N([H])C(=O)C1([H])N(C(=O)C([H])(N([H])C(=O)C([H])(N([H])C([H])([H])[H])C([H])([H])[H])C(C([H])([H])[H])(C([H])([H])[H])C([H])([H])[H])C([H])([H])c2c([H])c(OC([H])([H])C([H])([H])C([H])([H])[N+]3([H])C([H])([H])C([H])([H])C([H])(C(=O)C([H])([H])[N+]([H])([H])C([H])([H])C([H])([H])N([H])C(=O)N4C([H])([H])C([H])([H])C([H])([H])C([H])(n5nc(-c6c([H])c([H])c(Oc7c([H])c([H])c(F)c([H])c7F)c([H])c6[H])c(C(=O)N([H])[H])c5N([H])[H])C4([H])[H])C([H])(F)C3([H])[H])c([H])c([H])c2C1([H])[H]

>  <smiles>  (85) 
[H]c1c([H])c([H])c2c(c1[H])C([H])([H])C([H])([H])C([H])([H])C2([H])N([H])C(=O)C1([H])N(C(=O)C([H])(N([H])C(=O)C([H])(N([H])C([H])([H])[H])C([H])([H])[H])C(C([H])([H])[H])(C([H])([H])[H])C([H])([H])[H])C([H])([H])c2c([H])c(OC([H])([H])C([H])([H])C([H])([H])[N+]3([H])C([H])([H])C([H])([H])C([H])(C(=O)C([H])([H])[N+]([H])([H])C([H])([H])C([H])([H])N([H])C(=O)N4C([H])([H])C([H])([H])C([H])([H])C([H])(n5nc(-c6c([H])c([H])c(Oc7c([H])c([H])c(F)c([H])c7F)c([H])c6[H])c(C(=O)N([H])[H])c5N([H])[H])C4([H])[H])C([H])(F)C3([H])[H])c([H])c([H])c2C1([H])[H]

$$$$
86:0:0
     RDKit          3D

 99107  0  0  1  0  0  0  0  0999 V2000
  -31.2870  -21.2040   23.2370 C   0  0  0  0  0  2  0  0  0  0  0  0
  -32.6890  -17.9590   21.5490 C   0  0  0  0  0  2  0  0  0  0  0  0
  -32.4360  -19.4600   21.7510 C   0  0  0  0  0  2  0  0  0  0  0  0
  -30.3570  -17.4470   22.4180 C   0  0  0  0  0  2  0  0  0  0  0  0
  -31.3880  -17.1700   21.2980 C   0  0  0  0  0  3  0  0  0  0  0  0
  -31.4390  -19.7020   22.9050 C   0  0  0  0  0  3  0  0  0  0  0  0
  -30.0980  -18.9540   22.6350 C   0  0  0  0  0  3  0  0  0  0  0  0
  -29.3390  -19.5190   21.4990 N   0  0  0  0  0  4  0  0  0  0  0  0
  -29.8510  -19.4450   20.6380 H   0  0  0  0  0  0  0  0  0  0  0  0
  -29.1110  -20.4850   21.6460 H   0  0  0  0  0  0  0  0  0  0  0  0
  -28.4710  -19.0230   21.3880 H   0  0  0  0  0  0  0  0  0  0  0  0
  -31.7090  -15.6690   21.1590 C   0  0  0  0  0  2  0  0  0  0  0  0
  -30.5250  -14.3700   19.4070 C   0  0  0  0  0  0  0  0  0  0  0  0
  -29.9760  -12.2560   18.2690 C   0  0  0  0  0  2  0  0  0  0  0  0
  -28.8230  -12.3510   17.2590 C   0  0  0  0  0  2  0  0  0  0  0  0
  -27.4700  -12.1600   17.9640 C   0  0  0  0  0  2  0  0  0  0  0  0
  -27.3170  -13.0750   19.2070 C   0  0  0  0  0  3  0  0  0  0  0  0
  -28.5540  -12.9800   20.1250 C   0  0  0  0  0  2  0  0  0  0  0  0
  -29.7650  -13.2520   19.3270 N   0  0  0  0  0  0  0  0  0  0  0  0
  -31.2700  -14.7610   18.5020 O   0  0  0  0  0  0  0  0  0  0  0  0
  -30.5980  -14.8740   20.6430 N   0  0  0  0  0  0  0  0  0  0  0  0
  -29.9770  -14.4610   21.3250 H   0  0  0  0  0  0  0  0  0  0  0  0
  -25.1180  -13.6440   20.4240 C   0  0  0  0  0  0  0  0  0  0  0  0
  -24.1370  -12.8520   20.9570 C   0  0  0  0  0  0  0  0  0  0  0  0
  -24.5640  -11.5030   20.7540 C   0  0  0  0  0  0  0  0  0  0  0  0
  -26.0830  -12.7770   19.9340 N   0  0  0  0  0  0  0  0  0  0  0  0
  -25.7630  -11.4810   20.1860 N   0  0  0  0  0  0  0  0  0  0  0  0
  -23.8750  -10.2330   21.0140 C   0  0  0  0  0  0  0  0  0  0  0  0
  -24.3890   -9.2880   21.9300 C   0  0  0  0  0  3  0  0  0  0  0  0
  -23.7000   -8.0820   22.1760 C   0  0  0  0  0  3  0  0  0  0  0  0
  -22.4820   -7.8100   21.5090 C   0  0  0  0  0  0  0  0  0  0  0  0
  -21.9860   -8.7440   20.5820 C   0  0  0  0  0  3  0  0  0  0  0  0
  -22.6760   -9.9420   20.3340 C   0  0  0  0  0  3  0  0  0  0  0  0
  -21.7570   -6.6530   21.6670 O   0  0  0  0  0  0  0  0  0  0  0  0
  -21.7150   -5.9880   22.8650 C   0  0  0  0  0  0  0  0  0  0  0  0
  -21.2690   -6.6140   24.0500 C   0  0  0  0  0  3  0  0  0  0  0  0
  -21.1760   -5.8730   25.2450 C   0  0  0  0  0  3  0  0  0  0  0  0
  -21.5190   -4.5070   25.2560 C   0  0  0  0  0  0  0  0  0  0  0  0
  -21.9570   -3.8810   24.0770 C   0  0  0  0  0  3  0  0  0  0  0  0
  -22.0520   -4.6190   22.8840 C   0  0  0  0  0  0  0  0  0  0  0  0
  -22.4550   -4.0060   21.7450 F   0  0  0  0  0  0  0  0  0  0  0  0
  -21.4220   -3.7940   26.4030 F   0  0  0  0  0  0  0  0  0  0  0  0
  -22.8310  -13.3130   21.5360 C   0  0  0  0  0  0  0  0  0  0  0  0
  -22.3110  -12.5930   22.5250 N   0  0  0  0  0  0  0  0  0  0  0  0
  -22.2870  -14.3450   21.1450 O   0  0  0  0  0  0  0  0  0  0  0  0
  -22.7660  -11.7560   22.8590 H   0  0  0  0  0  0  0  0  0  0  0  0
  -21.4420  -12.8830   22.9520 H   0  0  0  0  0  0  0  0  0  0  0  0
  -25.2630  -15.0220   20.2960 N   0  0  0  0  0  0  0  0  0  0  0  0
  -24.5470  -15.6740   20.5960 H   0  0  0  0  0  0  0  0  0  0  0  0
  -26.0450  -15.4760   19.8370 H   0  0  0  0  0  0  0  0  0  0  0  0
  -30.1860  -21.5150   24.2790 C   0  0  0  0  0  2  0  0  0  0  0  0
  -29.7910  -22.9390   24.2560 N   0  0  0  0  0  4  0  0  0  0  0  0
  -30.6160  -23.5070   24.3620 H   0  0  0  0  0  0  0  0  0  0  0  0
  -29.2000  -23.1210   25.0530 H   0  0  0  0  0  0  0  0  0  0  0  0
  -29.0480  -23.3290   23.0380 C   0  0  0  0  0  2  0  0  0  0  0  0
  -29.3980  -24.7410   22.5490 C   0  0  0  0  0  2  0  0  0  0  0  0
  -28.6440  -25.0730   21.2520 C   0  0  0  0  0  2  0  0  0  0  0  0
  -29.1080  -26.3670   20.5790 C   0  0  0  0  0  2  0  0  0  0  0  0
  -28.2380  -26.6090   19.4760 O   0  0  0  0  0  0  0  0  0  0  0  0
  -24.9090  -31.5710   23.3700 C   0  0  0  0  0  0  0  0  0  0  0  0
  -27.1350  -27.3990   19.6930 C   0  0  0  0  0  0  0  0  0  0  0  0
  -23.5410  -30.4590   21.6290 C   0  0  0  0  0  3  0  0  0  0  0  0
  -24.8310  -29.0040   19.9780 C   0  0  0  0  0  0  0  0  0  0  0  0
  -26.0670  -30.6910   21.3510 C   0  0  0  0  0  2  0  0  0  0  0  0
  -26.0370  -29.3960   20.5710 C   0  0  0  0  0  0  0  0  0  0  0  0
  -27.1910  -28.6010   20.4310 C   0  0  0  0  0  3  0  0  0  0  0  0
  -25.9190  -27.0160   19.0930 C   0  0  0  0  0  3  0  0  0  0  0  0
  -24.7630  -27.8090   19.2380 C   0  0  0  0  0  3  0  0  0  0  0  0
  -23.6490  -29.9250   20.1750 C   0  0  0  0  0  2  0  0  0  0  0  0
  -24.8610  -30.9120   22.1790 N   0  0  0  0  0  0  0  0  0  0  0  0
  -23.8730  -31.8470   23.9900 O   0  0  0  0  0  0  0  0  0  0  0  0
  -22.8540  -29.3810   22.4950 C   0  0  0  0  0  0  0  0  0  0  0  0
  -21.5240  -29.2660   22.3580 N   0  0  0  0  0  0  0  0  0  0  0  0
  -23.5150  -28.6530   23.2400 O   0  0  0  0  0  0  0  0  0  0  0  0
  -21.0560  -29.9040   21.7290 H   0  0  0  0  0  0  0  0  0  0  0  0
  -18.1070  -28.1610   22.7440 C   0  0  0  0  0  0  0  0  0  0  0  0
  -20.6710  -28.2930   23.0390 C   0  0  0  0  0  3  0  0  0  0  0  0
  -20.7220  -26.9190   22.3330 C   0  0  0  0  0  2  0  0  0  0  0  0
  -19.6140  -26.7340   21.2930 C   0  0  0  0  0  2  0  0  0  0  0  0
  -18.2350  -26.8740   21.9460 C   0  0  0  0  0  2  0  0  0  0  0  0
  -19.2530  -28.8370   23.2430 C   0  0  0  0  0  0  0  0  0  0  0  0
  -19.0830  -30.0490   23.9460 C   0  0  0  0  0  3  0  0  0  0  0  0
  -17.7980  -30.5870   24.1530 C   0  0  0  0  0  3  0  0  0  0  0  0
  -16.6680  -29.9070   23.6700 C   0  0  0  0  0  3  0  0  0  0  0  0
  -16.8220  -28.6950   22.9740 C   0  0  0  0  0  3  0  0  0  0  0  0
  -26.2620  -32.0300   24.0000 C   0  0  0  0  0  3  0  0  0  0  0  0
  -26.8070  -31.0370   25.0990 C   0  0  1  0  0  0  0  0  0  0  0  0
  -25.7550  -30.6500   26.1650 C   0  0  0  0  0  1  0  0  0  0  0  0
  -27.3180  -29.7320   24.4450 C   0  0  0  0  0  1  0  0  0  0  0  0
  -28.0160  -31.6700   25.8290 C   0  0  0  0  0  1  0  0  0  0  0  0
  -26.0570  -33.3700   24.5640 N   0  0  0  0  0  0  0  0  0  0  0  0
  -26.4450  -34.5090   23.9740 C   0  0  0  0  0  0  0  0  0  0  0  0
  -27.0890  -34.5330   22.9200 O   0  0  0  0  0  0  0  0  0  0  0  0
  -25.4970  -33.4290   25.4010 H   0  0  0  0  0  0  0  0  0  0  0  0
  -24.8530  -36.4530   23.9380 C   0  0  0  0  0  1  0  0  0  0  0  0
  -26.0590  -35.8320   24.6610 C   0  0  0  0  0  3  0  0  0  0  0  0
  -28.2480  -36.4090   25.6120 C   0  0  0  0  0  1  0  0  0  0  0  0
  -27.1660  -36.8120   24.7160 N   0  0  0  0  0  0  0  0  0  0  0  0
  -26.8270  -37.7210   25.0200 H   0  0  0  0  0  0  0  0  0  0  0  0
  1 51  1  0
  2  3  1  0
  3  6  1  0
  4  7  1  0
  5 12  1  0
  5  2  1  0
  5  4  1  0
  6  1  1  0
  7  8  1  0
  7  6  1  0
  8 10  1  0
  9  8  1  0
 11  8  1  0
 13 21  1  0
 14 19  1  0
 15 16  1  0
 15 14  1  0
 17 16  1  0
 17 26  1  0
 17 18  1  0
 19 13  1  0
 19 18  1  0
 20 13  2  0
 21 12  1  0
 21 22  1  0
 23 24  2  0
 24 43  1  0
 25 24  1  0
 25 28  1  0
 26 27  1  0
 26 23  1  0
 27 25  2  0
 28 29  1  0
 29 30  2  0
 31 34  1  0
 31 30  1  0
 32 31  2  0
 33 32  1  0
 33 28  2  0
 34 35  1  0
 35 40  2  0
 35 36  1  0
 36 37  2  0
 37 38  1  0
 38 42  1  0
 39 38  2  0
 40 39  1  0
 41 40  1  0
 43 44  1  0
 44 46  1  0
 44 47  1  0
 45 43  2  0
 48 23  1  0
 48 49  1  0
 50 48  1  0
 52 51  1  0
 52 53  1  0
 52 54  1  0
 55 52  1  0
 56 55  1  0
 57 56  1  0
 58 57  1  0
 59 61  1  0
 59 58  1  0
 60 71  2  0
 61 66  1  0
 62 70  1  0
 62 72  1  0
 63 69  1  0
 63 65  1  0
 64 70  1  0
 65 64  1  0
 66 65  2  0
 67 68  1  0
 67 61  2  0
 68 63  2  0
 69 62  1  0
 70 60  1  0
 72 74  2  0
 73 72  1  0
 75 73  1  0
 76 85  2  0
 76 81  1  0
 77 73  1  0
 77 81  1  0
 78 77  1  0
 79 80  1  0
 79 78  1  0
 80 76  1  0
 81 82  2  0
 82 83  1  0
 84 83  2  0
 85 84  1  0
 86 60  1  0
 86 91  1  0
 86 87  1  0
 87 90  1  1
 87 88  1  0
 89 87  1  0
 91 94  1  0
 92 91  1  0
 92 96  1  0
 93 92  2  0
 96 95  1  0
 96 98  1  0
 98 99  1  0
 98 97  1  0
M  ISO  4  13 100  21 100  58 101  59 101
M  END
>  <TORSDO>  (86) 
F 25

>  <SCORE>  (86) 
-9.096

>  <name>  (86) 
86

>  <ligand_id>  (86) 
86

>  <original_smiles>  (86) 
[H]c1c([H])c([H])c2c(c1[H])C([H])([H])C([H])([H])C([H])([H])C2([H])N([H])C(=O)C1([H])N(C(=O)C([H])(N([H])C(=O)C([H])(N([H])C([H])([H])[H])C([H])([H])[H])C(C([H])([H])[H])(C([H])([H])[H])C([H])([H])[H])C([H])([H])c2c([H])c(OC([H])([H])C([H])([H])C([H])([H])C([H])([H])[N+]([H])([H])C([H])([H])C([H])([H])C3([H])C([H])([H])C([H])([H])C([H])(C([H])([H])N([H])C(=O)N4C([H])([H])C([H])([H])C([H])([H])C([H])(n5nc(-c6c([H])c([H])c(Oc7c([H])c([H])c(F)c([H])c7F)c([H])c6[H])c(C(=O)N([H])[H])c5N([H])[H])C4([H])[H])C([H])([H])C3([H])[N+]([H])([H])[H])c([H])c([H])c2C1([H])[H]

>  <smiles>  (86) 
[H]c1c([H])c([H])c2c(c1[H])C([H])([H])C([H])([H])C([H])([H])C2([H])N([H])C(=O)C1([H])N(C(=O)C([H])(N([H])C(=O)C([H])(N([H])C([H])([H])[H])C([H])([H])[H])C(C([H])([H])[H])(C([H])([H])[H])C([H])([H])[H])C([H])([H])c2c([H])c(OC([H])([H])C([H])([H])C([H])([H])C([H])([H])[N+]([H])([H])C([H])([H])C([H])([H])C3([H])C([H])([H])C([H])([H])C([H])(C([H])([H])N([H])C(=O)N4C([H])([H])C([H])([H])C([H])([H])C([H])(n5nc(-c6c([H])c([H])c(Oc7c([H])c([H])c(F)c([H])c7F)c([H])c6[H])c(C(=O)N([H])[H])c5N([H])[H])C4([H])[H])C([H])([H])C3([H])[N+]([H])([H])[H])c([H])c([H])c2C1([H])[H]

$$$$
87:0:0
     RDKit          3D

101109  0  0  1  0  0  0  0  0999 V2000
  -27.5200  -19.0250   17.4880 C   0  0  0  0  0  0  0  0  0  0  0  0
  -28.5480  -19.8420   17.2580 N   0  0  0  0  0  0  0  0  0  0  0  0
  -26.7270  -18.6860   16.6080 O   0  0  0  0  0  0  0  0  0  0  0  0
  -29.1340  -20.1110   18.0370 H   0  0  0  0  0  0  0  0  0  0  0  0
  -27.4080  -18.4460   18.8920 C   0  0  0  0  0  2  0  0  0  0  0  0
  -27.7950  -16.9520   18.8520 C   0  0  0  0  0  2  0  0  0  0  0  0
  -27.2720  -13.9570   22.0120 C   0  0  0  0  0  2  0  0  0  0  0  0
  -28.6760  -14.3980   21.5850 C   0  0  0  0  0  2  0  0  0  0  0  0
  -26.3620  -15.8470   20.5730 C   0  0  0  0  0  2  0  0  0  0  0  0
  -26.3090  -15.1480   21.9510 C   0  0  0  0  0  3  0  0  0  0  0  0
  -28.6470  -15.0230   20.1690 C   0  0  0  0  0  3  0  0  0  0  0  0
  -24.8770  -14.7170   22.3110 C   0  0  0  0  0  1  0  0  0  0  0  0
  -27.7500  -16.2220   20.1530 N   0  0  1  0  0  4  0  0  0  0  0  0
  -28.0980  -16.8600   20.8540 H   0  0  0  0  0  0  0  0  0  0  0  0
  -30.0780  -15.2150   19.5590 C   0  0  0  0  0  2  0  0  0  0  0  0
  -31.5740  -13.1930   19.7660 C   0  0  0  0  0  0  0  0  0  0  0  0
  -31.4720  -10.7620   20.2430 C   0  0  0  0  0  2  0  0  0  0  0  0
  -30.7320   -9.9780   19.1380 C   0  0  0  0  0  2  0  0  0  0  0  0
  -29.1980  -10.0390   19.3060 C   0  0  0  0  0  2  0  0  0  0  0  0
  -28.6850  -11.4790   19.5740 C   0  0  0  0  0  3  0  0  0  0  0  0
  -29.5230  -12.0630   20.7310 C   0  0  0  0  0  2  0  0  0  0  0  0
  -30.9230  -12.1240   20.2990 N   0  0  0  0  0  0  0  0  0  0  0  0
  -32.6600  -13.0900   19.1860 O   0  0  0  0  0  0  0  0  0  0  0  0
  -31.1400  -14.3960   20.1800 N   0  0  0  0  0  0  0  0  0  0  0  0
  -31.9370  -14.9850   20.3800 H   0  0  0  0  0  0  0  0  0  0  0  0
  -26.3160  -12.5010   19.6650 C   0  0  0  0  0  0  0  0  0  0  0  0
  -25.1070  -11.9800   20.0420 C   0  0  0  0  0  0  0  0  0  0  0  0
  -25.3700  -10.6290   20.4250 C   0  0  0  0  0  0  0  0  0  0  0  0
  -27.2500  -11.4930   19.8590 N   0  0  0  0  0  0  0  0  0  0  0  0
  -26.6710  -10.3730   20.3600 N   0  0  0  0  0  0  0  0  0  0  0  0
  -24.4520   -9.5490   20.8020 C   0  0  0  0  0  0  0  0  0  0  0  0
  -24.7400   -8.6830   21.8790 C   0  0  0  0  0  3  0  0  0  0  0  0
  -23.8350   -7.6610   22.2340 C   0  0  0  0  0  3  0  0  0  0  0  0
  -22.6280   -7.5000   21.5120 C   0  0  0  0  0  0  0  0  0  0  0  0
  -22.3570   -8.3510   20.4260 C   0  0  0  0  0  3  0  0  0  0  0  0
  -23.2630   -9.3640   20.0710 C   0  0  0  0  0  3  0  0  0  0  0  0
  -21.7060   -6.5140   21.7640 O   0  0  0  0  0  0  0  0  0  0  0  0
  -21.5820   -5.9470   23.0070 C   0  0  0  0  0  0  0  0  0  0  0  0
  -21.0030   -6.6440   24.0890 C   0  0  0  0  0  3  0  0  0  0  0  0
  -20.8310   -6.0010   25.3300 C   0  0  0  0  0  3  0  0  0  0  0  0
  -21.2310   -4.6600   25.4910 C   0  0  0  0  0  0  0  0  0  0  0  0
  -21.8040   -3.9630   24.4120 C   0  0  0  0  0  3  0  0  0  0  0  0
  -21.9770   -4.6040   23.1740 C   0  0  0  0  0  0  0  0  0  0  0  0
  -22.5100   -3.9210   22.1320 F   0  0  0  0  0  0  0  0  0  0  0  0
  -21.0590   -4.0380   26.6800 F   0  0  0  0  0  0  0  0  0  0  0  0
  -23.7710  -12.6590   19.9540 C   0  0  0  0  0  0  0  0  0  0  0  0
  -22.7850  -12.1800   20.7070 N   0  0  0  0  0  0  0  0  0  0  0  0
  -23.6050  -13.6520   19.2460 O   0  0  0  0  0  0  0  0  0  0  0  0
  -22.9210  -11.3770   21.3030 H   0  0  0  0  0  0  0  0  0  0  0  0
  -21.8770  -12.6200   20.6780 H   0  0  0  0  0  0  0  0  0  0  0  0
  -26.6940  -13.7380   19.1570 N   0  0  0  0  0  0  0  0  0  0  0  0
  -25.9650  -14.3640   18.8280 H   0  0  0  0  0  0  0  0  0  0  0  0
  -27.5420  -13.8250   18.6130 H   0  0  0  0  0  0  0  0  0  0  0  0
  -28.9870  -20.2170   15.9220 C   0  0  0  0  0  2  0  0  0  0  0  0
  -29.9610  -21.3980   15.9860 C   0  0  0  0  0  2  0  0  0  0  0  0
  -29.5690  -22.4500   15.0320 N   0  0  0  0  0  4  0  0  0  0  0  0
  -28.5930  -22.3250   14.8160 H   0  0  0  0  0  0  0  0  0  0  0  0
  -30.0910  -22.3200   14.1780 H   0  0  0  0  0  0  0  0  0  0  0  0
  -29.7730  -23.8210   15.5410 C   0  0  0  0  0  2  0  0  0  0  0  0
  -29.1580  -24.8770   14.6090 C   0  0  0  0  0  2  0  0  0  0  0  0
  -28.9550  -26.0870   15.3320 O   0  0  0  0  0  0  0  0  0  0  0  0
  -25.3250  -27.7890   21.1750 C   0  0  0  0  0  0  0  0  0  0  0  0
  -27.7070  -26.3770   15.8410 C   0  0  0  0  0  0  0  0  0  0  0  0
  -23.9460  -27.3290   19.1720 C   0  0  0  0  0  3  0  0  0  0  0  0
  -25.2240  -27.1160   16.9770 C   0  0  0  0  0  0  0  0  0  0  0  0
  -26.3390  -28.2000   18.9390 C   0  0  0  0  0  2  0  0  0  0  0  0
  -26.4180  -27.4460   17.6290 C   0  0  0  0  0  0  0  0  0  0  0  0
  -27.6560  -27.0820   17.0620 C   0  0  0  0  0  3  0  0  0  0  0  0
  -26.4880  -26.0320   15.2050 C   0  0  0  0  0  3  0  0  0  0  0  0
  -25.2520  -26.4050   15.7680 C   0  0  0  0  0  3  0  0  0  0  0  0
  -23.9420  -27.5680   17.6380 C   0  0  0  0  0  2  0  0  0  0  0  0
  -25.2310  -27.7540   19.8160 N   0  0  0  0  0  0  0  0  0  0  0  0
  -24.3510  -27.5170   21.8910 O   0  0  0  0  0  0  0  0  0  0  0  0
  -23.5860  -25.8500   19.4390 C   0  0  0  0  0  0  0  0  0  0  0  0
  -22.2890  -25.5230   19.3300 N   0  0  0  0  0  0  0  0  0  0  0  0
  -24.4630  -25.0240   19.7050 O   0  0  0  0  0  0  0  0  0  0  0  0
  -21.6310  -26.2600   19.1150 H   0  0  0  0  0  0  0  0  0  0  0  0
  -19.2050  -23.6440   19.2870 C   0  0  0  0  0  0  0  0  0  0  0  0
  -21.7230  -24.1860   19.5010 C   0  0  0  0  0  3  0  0  0  0  0  0
  -21.9110  -23.3340   18.2250 C   0  0  0  0  0  2  0  0  0  0  0  0
  -20.7160  -23.4060   17.2700 C   0  0  0  0  0  2  0  0  0  0  0  0
  -19.4400  -22.9250   17.9690 C   0  0  0  0  0  2  0  0  0  0  0  0
  -20.2740  -24.2480   19.9990 C   0  0  0  0  0  0  0  0  0  0  0  0
  -19.9960  -24.9350   21.2000 C   0  0  0  0  0  3  0  0  0  0  0  0
  -18.6800  -25.0200   21.6920 C   0  0  0  0  0  3  0  0  0  0  0  0
  -17.6280  -24.4050   20.9930 C   0  0  0  0  0  3  0  0  0  0  0  0
  -17.8910  -23.7160   19.7970 C   0  0  0  0  0  3  0  0  0  0  0  0
  -26.6480  -28.1970   21.8950 C   0  0  0  0  0  3  0  0  0  0  0  0
  -27.5460  -26.9610   22.2910 C   0  0  1  0  0  0  0  0  0  0  0  0
  -26.7860  -25.8670   23.0760 C   0  0  0  0  0  1  0  0  0  0  0  0
  -28.1530  -26.3020   21.0310 C   0  0  0  0  0  1  0  0  0  0  0  0
  -28.7350  -27.4320   23.1610 C   0  0  0  0  0  1  0  0  0  0  0  0
  -26.2830  -28.9740   23.0870 N   0  0  0  0  0  0  0  0  0  0  0  0
  -26.4500  -30.2990   23.2090 C   0  0  0  0  0  0  0  0  0  0  0  0
  -27.0040  -30.9870   22.3460 O   0  0  0  0  0  0  0  0  0  0  0  0
  -25.7780  -28.4840   23.8100 H   0  0  0  0  0  0  0  0  0  0  0  0
  -24.6150  -31.7200   24.1760 C   0  0  0  0  0  1  0  0  0  0  0  0
  -25.9170  -30.9640   24.4920 C   0  0  0  0  0  3  0  0  0  0  0  0
  -28.0310  -31.1990   25.7190 C   0  0  0  0  0  1  0  0  0  0  0  0
  -26.8870  -31.8850   25.1220 N   0  0  0  0  0  0  0  0  0  0  0  0
  -26.4380  -32.4400   25.8450 H   0  0  0  0  0  0  0  0  0  0  0  0
  1  5  1  0
  2  1  1  0
  2  4  1  0
  3  1  2  0
  6  5  1  0
  6 13  1  0
  8  7  1  0
  9 10  1  0
 10  7  1  0
 10 12  1  0
 11 15  1  0
 11  8  1  0
 13 11  1  0
 13  9  1  0
 13 14  1  1
 15 24  1  0
 16 24  1  0
 16 22  1  0
 17 22  1  0
 18 19  1  0
 18 17  1  0
 20 19  1  0
 20 29  1  0
 20 21  1  0
 22 21  1  0
 23 16  2  0
 24 25  1  0
 26 29  1  0
 26 27  2  0
 27 28  1  0
 28 31  1  0
 29 30  1  0
 30 28  2  0
 31 32  1  0
 32 33  2  0
 34 37  1  0
 34 33  1  0
 35 34  2  0
 36 35  1  0
 36 31  2  0
 37 38  1  0
 38 43  2  0
 38 39  1  0
 39 40  2  0
 40 41  1  0
 41 45  1  0
 42 41  2  0
 43 42  1  0
 44 43  1  0
 46 27  1  0
 46 47  1  0
 47 49  1  0
 48 46  2  0
 50 47  1  0
 51 26  1  0
 52 51  1  0
 53 51  1  0
 54 55  1  0
 54  2  1  0
 56 59  1  0
 56 55  1  0
 57 56  1  0
 58 56  1  0
 60 61  1  0
 60 59  1  0
 61 63  1  0
 62 73  2  0
 63 68  1  0
 64 74  1  0
 64 72  1  0
 65 67  1  0
 65 71  1  0
 66 72  1  0
 67 66  1  0
 68 67  2  0
 69 70  1  0
 69 63  2  0
 70 65  2  0
 71 64  1  0
 72 62  1  0
 74 76  2  0
 75 74  1  0
 77 75  1  0
 78 87  2  0
 78 83  1  0
 79 75  1  0
 79 83  1  0
 80 79  1  0
 81 82  1  0
 81 80  1  0
 82 78  1  0
 83 84  2  0
 84 85  1  0
 86 85  2  0
 87 86  1  0
 88 62  1  0
 88 89  1  0
 88 93  1  0
 89 90  1  1
 89 92  1  0
 91 89  1  0
 93 94  1  0
 93 96  1  0
 94 98  1  0
 95 94  2  0
 98 97  1  0
 98100  1  0
100 99  1  0
100101  1  0
M  ISO  4  16 100  24 100  60 101  61 101
M  END
>  <TORSDO>  (87) 
F 25

>  <SCORE>  (87) 
-2.646

>  <name>  (87) 
87

>  <ligand_id>  (87) 
87

>  <original_smiles>  (87) 
[H]c1c([H])c([H])c2c(c1[H])C([H])([H])C([H])([H])C([H])([H])C2([H])N([H])C(=O)C1([H])N(C(=O)C([H])(N([H])C(=O)C([H])(N([H])C([H])([H])[H])C([H])([H])[H])C(C([H])([H])[H])(C([H])([H])[H])C([H])([H])[H])C([H])([H])c2c([H])c(OC([H])([H])C([H])([H])[N+]([H])([H])C([H])([H])C([H])([H])N([H])C(=O)C([H])([H])C([H])([H])[N+]3([H])C([H])([H])C([H])(C([H])([H])[H])C([H])([H])C([H])([H])C3([H])C([H])([H])N([H])C(=O)N3C([H])([H])C([H])([H])C([H])([H])C([H])(n4nc(-c5c([H])c([H])c(Oc6c([H])c([H])c(F)c([H])c6F)c([H])c5[H])c(C(=O)N([H])[H])c4N([H])[H])C3([H])[H])c([H])c([H])c2C1([H])[H]

>  <smiles>  (87) 
[H]c1c([H])c([H])c2c(c1[H])C([H])([H])C([H])([H])C([H])([H])C2([H])N([H])C(=O)C1([H])N(C(=O)C([H])(N([H])C(=O)C([H])(N([H])C([H])([H])[H])C([H])([H])[H])C(C([H])([H])[H])(C([H])([H])[H])C([H])([H])[H])C([H])([H])c2c([H])c(OC([H])([H])C([H])([H])[N+]([H])([H])C([H])([H])C([H])([H])N([H])C(=O)C([H])([H])C([H])([H])[N+]3([H])C([H])([H])C([H])(C([H])([H])[H])C([H])([H])C([H])([H])C3([H])C([H])([H])N([H])C(=O)N3C([H])([H])C([H])([H])C([H])([H])C([H])(n4nc(-c5c([H])c([H])c(Oc6c([H])c([H])c(F)c([H])c6F)c([H])c5[H])c(C(=O)N([H])[H])c4N([H])[H])C3([H])[H])c([H])c([H])c2C1([H])[H]

$$$$
88:0:0
     RDKit          3D

 91 99  0  0  1  0  0  0  0  0999 V2000
  -29.3970  -19.3770   20.6260 C   0  0  0  0  0  0  0  0  0  0  0  0
  -28.8190  -20.4340   20.0360 N   0  0  0  0  0  0  0  0  0  0  0  0
  -30.5320  -19.4220   21.1010 O   0  0  0  0  0  0  0  0  0  0  0  0
  -27.8920  -20.2860   19.6580 H   0  0  0  0  0  0  0  0  0  0  0  0
  -30.8480  -14.4730   20.0910 C   0  0  0  0  0  0  0  0  0  0  0  0
  -30.5050  -12.3400   18.9330 C   0  0  0  0  0  2  0  0  0  0  0  0
  -29.5310  -12.6100   17.7690 C   0  0  0  0  0  2  0  0  0  0  0  0
  -28.0680  -12.4630   18.2430 C   0  0  0  0  0  2  0  0  0  0  0  0
  -27.7750  -13.2490   19.5500 C   0  0  0  0  0  3  0  0  0  0  0  0
  -28.8710  -13.0050   20.6120 C   0  0  0  0  0  2  0  0  0  0  0  0
  -30.1730  -13.2980   19.9940 N   0  0  0  0  0  0  0  0  0  0  0  0
  -31.9950  -14.6360   19.6670 O   0  0  0  0  0  0  0  0  0  0  0  0
  -28.6200  -17.3190   19.3300 C   0  0  0  0  0  2  0  0  0  0  0  0
  -28.9160  -17.1250   21.8410 C   0  0  0  0  0  2  0  0  0  0  0  0
  -29.9050  -16.4850   19.1850 C   0  0  0  0  0  2  0  0  0  0  0  0
  -30.1710  -16.2610   21.5830 C   0  0  0  0  0  2  0  0  0  0  0  0
  -28.5580  -18.0800   20.6710 C   0  0  0  0  0  3  0  0  0  0  0  0
  -30.0580  -15.5490   20.3090 N   0  0  0  0  0  0  0  0  0  0  0  0
  -25.3910  -13.8210   20.3330 C   0  0  0  0  0  0  0  0  0  0  0  0
  -24.3440  -13.0330   20.7280 C   0  0  0  0  0  0  0  0  0  0  0  0
  -24.8270  -11.6890   20.6870 C   0  0  0  0  0  0  0  0  0  0  0  0
  -26.4420  -12.9560   20.0700 N   0  0  0  0  0  0  0  0  0  0  0  0
  -26.1070  -11.6680   20.3400 N   0  0  0  0  0  0  0  0  0  0  0  0
  -24.1270  -10.4160   20.9020 C   0  0  0  0  0  0  0  0  0  0  0  0
  -24.5630   -9.4880   21.8740 C   0  0  0  0  0  3  0  0  0  0  0  0
  -23.8620   -8.2790   22.0740 C   0  0  0  0  0  3  0  0  0  0  0  0
  -22.7120   -7.9890   21.3020 C   0  0  0  0  0  0  0  0  0  0  0  0
  -22.2950   -8.9070   20.3200 C   0  0  0  0  0  3  0  0  0  0  0  0
  -22.9980  -10.1070   20.1180 C   0  0  0  0  0  3  0  0  0  0  0  0
  -21.9850   -6.8280   21.4070 O   0  0  0  0  0  0  0  0  0  0  0  0
  -21.8770   -6.1520   22.5960 C   0  0  0  0  0  0  0  0  0  0  0  0
  -21.3620   -6.7670   23.7580 C   0  0  0  0  0  3  0  0  0  0  0  0
  -21.2030   -6.0170   24.9410 C   0  0  0  0  0  3  0  0  0  0  0  0
  -21.5490   -4.6530   24.9610 C   0  0  0  0  0  0  0  0  0  0  0  0
  -22.0590   -4.0380   23.8040 C   0  0  0  0  0  3  0  0  0  0  0  0
  -22.2200   -4.7860   22.6240 C   0  0  0  0  0  0  0  0  0  0  0  0
  -22.6900   -4.1830   21.5040 F   0  0  0  0  0  0  0  0  0  0  0  0
  -21.3910   -3.9300   26.0950 F   0  0  0  0  0  0  0  0  0  0  0  0
  -22.9470  -13.4890   21.0400 C   0  0  0  0  0  0  0  0  0  0  0  0
  -22.2560  -12.7870   21.9320 N   0  0  0  0  0  0  0  0  0  0  0  0
  -22.4760  -14.5040   20.5280 O   0  0  0  0  0  0  0  0  0  0  0  0
  -22.6490  -11.9690   22.3710 H   0  0  0  0  0  0  0  0  0  0  0  0
  -21.3200  -13.0730   22.1810 H   0  0  0  0  0  0  0  0  0  0  0  0
  -25.5330  -15.1940   20.1600 N   0  0  0  0  0  0  0  0  0  0  0  0
  -24.7750  -15.8480   20.3220 H   0  0  0  0  0  0  0  0  0  0  0  0
  -26.3970  -15.6440   19.8920 H   0  0  0  0  0  0  0  0  0  0  0  0
  -29.4240  -21.7440   19.7880 C   0  0  0  0  0  2  0  0  0  0  0  0
  -28.5830  -22.8780   20.4040 C   0  0  0  0  0  2  0  0  0  0  0  0
  -28.9920  -24.2880   19.9250 C   0  0  0  0  0  2  0  0  0  0  0  0
  -28.2880  -25.4010   20.7190 C   0  0  0  0  0  2  0  0  0  0  0  0
  -28.4630  -26.7000   20.1270 O   0  0  0  0  0  0  0  0  0  0  0  0
  -24.6420  -31.8490   23.2060 C   0  0  0  0  0  0  0  0  0  0  0  0
  -27.3140  -27.4560   20.0970 C   0  0  0  0  0  0  0  0  0  0  0  0
  -23.4490  -30.4550   21.5480 C   0  0  0  0  0  3  0  0  0  0  0  0
  -24.9160  -28.9450   20.1090 C   0  0  0  0  0  0  0  0  0  0  0  0
  -25.9720  -30.8340   21.3600 C   0  0  0  0  0  2  0  0  0  0  0  0
  -26.0680  -29.4710   20.7080 C   0  0  0  0  0  0  0  0  0  0  0  0
  -27.2740  -28.7330   20.7000 C   0  0  0  0  0  3  0  0  0  0  0  0
  -26.1520  -26.9520   19.4740 C   0  0  0  0  0  3  0  0  0  0  0  0
  -24.9520  -27.6850   19.4880 C   0  0  0  0  0  3  0  0  0  0  0  0
  -23.6670  -29.7940   20.1620 C   0  0  0  0  0  2  0  0  0  0  0  0
  -24.7050  -31.0590   22.0970 N   0  0  0  0  0  0  0  0  0  0  0  0
  -23.5580  -32.1100   23.7460 O   0  0  0  0  0  0  0  0  0  0  0  0
  -22.8030  -29.4190   22.4970 C   0  0  0  0  0  0  0  0  0  0  0  0
  -21.4790  -29.2370   22.3730 N   0  0  0  0  0  0  0  0  0  0  0  0
  -23.4910  -28.7820   23.3010 O   0  0  0  0  0  0  0  0  0  0  0  0
  -20.9840  -29.8020   21.6960 H   0  0  0  0  0  0  0  0  0  0  0  0
  -18.1070  -28.0370   22.8670 C   0  0  0  0  0  0  0  0  0  0  0  0
  -20.6650  -28.2900   23.1350 C   0  0  0  0  0  3  0  0  0  0  0  0
  -20.7650  -26.8660   22.5410 C   0  0  0  0  0  2  0  0  0  0  0  0
  -19.6600  -26.5570   21.5250 C   0  0  0  0  0  2  0  0  0  0  0  0
  -18.2810  -26.6960   22.1750 C   0  0  0  0  0  2  0  0  0  0  0  0
  -19.2280  -28.7930   23.3040 C   0  0  0  0  0  0  0  0  0  0  0  0
  -19.0120  -30.0480   23.9120 C   0  0  0  0  0  3  0  0  0  0  0  0
  -17.7080  -30.5500   24.0860 C   0  0  0  0  0  3  0  0  0  0  0  0
  -16.6020  -29.7910   23.6650 C   0  0  0  0  0  3  0  0  0  0  0  0
  -16.8010  -28.5370   23.0620 C   0  0  0  0  0  3  0  0  0  0  0  0
  -25.9230  -32.4830   23.8330 C   0  0  0  0  0  3  0  0  0  0  0  0
  -26.4450  -31.7030   25.1010 C   0  0  1  0  0  0  0  0  0  0  0  0
  -25.3530  -31.4490   26.1660 C   0  0  0  0  0  1  0  0  0  0  0  0
  -27.0360  -30.3330   24.6940 C   0  0  0  0  0  1  0  0  0  0  0  0
  -27.5910  -32.4980   25.7720 C   0  0  0  0  0  1  0  0  0  0  0  0
  -25.6060  -33.8760   24.1730 N   0  0  0  0  0  0  0  0  0  0  0  0
  -25.9310  -34.9350   23.4180 C   0  0  0  0  0  0  0  0  0  0  0  0
  -26.6000  -34.8430   22.3870 O   0  0  0  0  0  0  0  0  0  0  0  0
  -25.0130  -34.0230   24.9760 H   0  0  0  0  0  0  0  0  0  0  0  0
  -24.1880  -36.7140   23.0740 C   0  0  0  0  0  1  0  0  0  0  0  0
  -25.4330  -36.3170   23.8840 C   0  0  0  0  0  3  0  0  0  0  0  0
  -27.5630  -37.2120   24.7150 C   0  0  0  0  0  1  0  0  0  0  0  0
  -26.4570  -37.3780   23.7760 N   0  0  0  0  0  0  0  0  0  0  0  0
  -26.0430  -38.2940   23.9330 H   0  0  0  0  0  0  0  0  0  0  0  0
  1  3  2  0
  2  1  1  0
  4  2  1  0
  5 18  1  0
  6 11  1  0
  7  8  1  0
  7  6  1  0
  9  8  1  0
  9 22  1  0
  9 10  1  0
 11  5  1  0
 11 10  1  0
 12  5  2  0
 13 17  1  0
 15 13  1  0
 15 18  1  0
 16 14  1  0
 17  1  1  0
 17 14  1  0
 18 16  1  0
 19 20  2  0
 20 39  1  0
 21 20  1  0
 21 24  1  0
 22 19  1  0
 22 23  1  0
 23 21  2  0
 24 25  1  0
 25 26  2  0
 27 30  1  0
 27 26  1  0
 28 27  2  0
 29 28  1  0
 29 24  2  0
 30 31  1  0
 31 36  2  0
 31 32  1  0
 32 33  2  0
 33 34  1  0
 34 38  1  0
 35 34  2  0
 36 35  1  0
 37 36  1  0
 39 40  1  0
 40 43  1  0
 40 42  1  0
 41 39  2  0
 44 45  1  0
 44 19  1  0
 46 44  1  0
 47  2  1  0
 47 48  1  0
 49 48  1  0
 49 50  1  0
 51 50  1  0
 52 63  2  0
 53 51  1  0
 53 58  1  0
 54 62  1  0
 54 64  1  0
 55 61  1  0
 55 57  1  0
 56 62  1  0
 57 56  1  0
 58 57  2  0
 59 60  1  0
 59 53  2  0
 60 55  2  0
 61 54  1  0
 62 52  1  0
 64 66  2  0
 65 64  1  0
 67 65  1  0
 68 77  2  0
 68 73  1  0
 69 65  1  0
 69 73  1  0
 70 69  1  0
 71 72  1  0
 71 70  1  0
 72 68  1  0
 73 74  2  0
 74 75  1  0
 76 75  2  0
 77 76  1  0
 78 52  1  0
 78 83  1  0
 78 79  1  0
 79 82  1  1
 79 80  1  0
 81 79  1  0
 83 86  1  0
 84 88  1  0
 84 83  1  0
 85 84  2  0
 88 87  1  0
 90 88  1  0
 90 91  1  0
 90 89  1  0
M  ISO  4   5 100  18 100  50 101  51 101
M  END
>  <TORSDO>  (88) 
F 20

>  <SCORE>  (88) 
-12.504

>  <name>  (88) 
88

>  <ligand_id>  (88) 
88

>  <original_smiles>  (88) 
[H]c1c([H])c([H])c2c(c1[H])C([H])([H])C([H])([H])C([H])([H])C2([H])N([H])C(=O)C1([H])N(C(=O)C([H])(N([H])C(=O)C([H])(N([H])C([H])([H])[H])C([H])([H])[H])C(C([H])([H])[H])(C([H])([H])[H])C([H])([H])[H])C([H])([H])c2c([H])c(OC([H])([H])C([H])([H])C([H])([H])C([H])([H])N([H])C(=O)C3([H])C([H])([H])C([H])([H])N(C(=O)N4C([H])([H])C([H])([H])C([H])([H])C([H])(n5nc(-c6c([H])c([H])c(Oc7c([H])c([H])c(F)c([H])c7F)c([H])c6[H])c(C(=O)N([H])[H])c5N([H])[H])C4([H])[H])C([H])([H])C3([H])[H])c([H])c([H])c2C1([H])[H]

>  <smiles>  (88) 
[H]c1c([H])c([H])c2c(c1[H])C([H])([H])C([H])([H])C([H])([H])C2([H])N([H])C(=O)C1([H])N(C(=O)C([H])(N([H])C(=O)C([H])(N([H])C([H])([H])[H])C([H])([H])[H])C(C([H])([H])[H])(C([H])([H])[H])C([H])([H])[H])C([H])([H])c2c([H])c(OC([H])([H])C([H])([H])C([H])([H])C([H])([H])N([H])C(=O)C3([H])C([H])([H])C([H])([H])N(C(=O)N4C([H])([H])C([H])([H])C([H])([H])C([H])(n5nc(-c6c([H])c([H])c(Oc7c([H])c([H])c(F)c([H])c7F)c([H])c6[H])c(C(=O)N([H])[H])c5N([H])[H])C4([H])[H])C([H])([H])C3([H])[H])c([H])c([H])c2C1([H])[H]

$$$$
89:0:0
     RDKit          3D

 94102  0  0  1  0  0  0  0  0999 V2000
  -29.2040  -21.5290   20.2450 C   0  0  0  0  0  0  0  0  0  0  0  0
  -28.7510  -22.7590   19.9010 N   0  0  0  0  0  0  0  0  0  0  0  0
  -30.2360  -21.3710   20.8980 O   0  0  0  0  0  0  0  0  0  0  0  0
  -27.8850  -22.7840   19.3810 H   0  0  0  0  0  0  0  0  0  0  0  0
  -28.4000  -20.2870   19.7510 C   0  0  0  0  0  2  0  0  0  0  0  0
  -31.0580  -14.6110   19.8560 C   0  0  0  0  0  0  0  0  0  0  0  0
  -30.5540  -12.3930   18.8920 C   0  0  0  0  0  2  0  0  0  0  0  0
  -29.5770  -12.5300   17.7140 C   0  0  0  0  0  2  0  0  0  0  0  0
  -28.1290  -12.4030   18.2230 C   0  0  0  0  0  2  0  0  0  0  0  0
  -27.8520  -13.2860   19.4700 C   0  0  0  0  0  3  0  0  0  0  0  0
  -28.9830  -13.2060   20.5250 C   0  0  0  0  0  2  0  0  0  0  0  0
  -30.2520  -13.4960   19.8390 N   0  0  0  0  0  0  0  0  0  0  0  0
  -32.1700  -14.5120   19.3390 O   0  0  0  0  0  0  0  0  0  0  0  0
  -31.5510  -17.0160   19.8080 C   0  0  0  0  0  2  0  0  0  0  0  0
  -29.4330  -16.4190   20.8670 C   0  0  0  0  0  2  0  0  0  0  0  0
  -31.0250  -17.6980   18.5370 C   0  0  0  0  0  2  0  0  0  0  0  0
  -29.2270  -18.0050   20.9670 C   0  0  0  0  0  3  0  0  0  0  0  0
  -29.0810  -18.8550   19.6370 C   0  0  0  0  0  3  0  0  0  0  0  0
  -30.6450  -15.8970   20.1750 N   0  0  0  0  0  0  0  0  0  0  0  0
  -30.3460  -18.9620   18.8670 N   0  0  0  0  0  4  0  0  0  0  0  0
  -28.0980  -18.1560   21.6580 F   0  0  0  0  0  0  0  0  0  0  0  0
  -30.1380  -19.4140   17.9900 H   0  0  0  0  0  0  0  0  0  0  0  0
  -30.9890  -19.5560   19.3670 H   0  0  0  0  0  0  0  0  0  0  0  0
  -25.5320  -13.8790   20.3930 C   0  0  0  0  0  0  0  0  0  0  0  0
  -24.4880  -13.1060   20.8190 C   0  0  0  0  0  0  0  0  0  0  0  0
  -24.9240  -11.7490   20.6990 C   0  0  0  0  0  0  0  0  0  0  0  0
  -26.5420  -12.9970   20.0460 N   0  0  0  0  0  0  0  0  0  0  0  0
  -26.1870  -11.7090   20.2870 N   0  0  0  0  0  0  0  0  0  0  0  0
  -24.1940  -10.4920   20.8950 C   0  0  0  0  0  0  0  0  0  0  0  0
  -24.6010   -9.5370   21.8540 C   0  0  0  0  0  3  0  0  0  0  0  0
  -23.8670   -8.3450   22.0340 C   0  0  0  0  0  3  0  0  0  0  0  0
  -22.7080   -8.0990   21.2580 C   0  0  0  0  0  0  0  0  0  0  0  0
  -22.3230   -9.0420   20.2880 C   0  0  0  0  0  3  0  0  0  0  0  0
  -23.0580  -10.2250   20.1060 C   0  0  0  0  0  3  0  0  0  0  0  0
  -21.9480   -6.9590   21.3480 O   0  0  0  0  0  0  0  0  0  0  0  0
  -21.7670   -6.3030   22.5410 C   0  0  0  0  0  0  0  0  0  0  0  0
  -21.1750   -6.9370   23.6550 C   0  0  0  0  0  3  0  0  0  0  0  0
  -20.9460   -6.2090   24.8400 C   0  0  0  0  0  3  0  0  0  0  0  0
  -21.3010   -4.8470   24.9100 C   0  0  0  0  0  0  0  0  0  0  0  0
  -21.8850   -4.2140   23.7990 C   0  0  0  0  0  3  0  0  0  0  0  0
  -22.1160   -4.9410   22.6170 C   0  0  0  0  0  0  0  0  0  0  0  0
  -22.6600   -4.3190   21.5440 F   0  0  0  0  0  0  0  0  0  0  0  0
  -21.0760   -4.1460   26.0450 F   0  0  0  0  0  0  0  0  0  0  0  0
  -23.1260  -13.5910   21.2210 C   0  0  0  0  0  0  0  0  0  0  0  0
  -22.4600  -12.8790   22.1220 N   0  0  0  0  0  0  0  0  0  0  0  0
  -22.6610  -14.6380   20.7690 O   0  0  0  0  0  0  0  0  0  0  0  0
  -22.8510  -12.0360   22.5170 H   0  0  0  0  0  0  0  0  0  0  0  0
  -21.5450  -13.1830   22.4220 H   0  0  0  0  0  0  0  0  0  0  0  0
  -25.7030  -15.2540   20.2490 N   0  0  0  0  0  0  0  0  0  0  0  0
  -24.9590  -15.9150   20.4480 H   0  0  0  0  0  0  0  0  0  0  0  0
  -26.5230  -15.6930   19.8560 H   0  0  0  0  0  0  0  0  0  0  0  0
  -29.3490  -24.0900   20.1870 C   0  0  0  0  0  2  0  0  0  0  0  0
  -28.4130  -25.2290   19.6700 C   0  0  0  0  0  2  0  0  0  0  0  0
  -28.5310  -26.5910   20.1850 O   0  0  0  0  0  0  0  0  0  0  0  0
  -24.5020  -31.6810   23.2570 C   0  0  0  0  0  0  0  0  0  0  0  0
  -27.3690  -27.3670   20.1310 C   0  0  0  0  0  0  0  0  0  0  0  0
  -23.3940  -30.3030   21.5300 C   0  0  0  0  0  3  0  0  0  0  0  0
  -24.9400  -28.8520   20.1190 C   0  0  0  0  0  0  0  0  0  0  0  0
  -25.9220  -30.7250   21.4360 C   0  0  0  0  0  2  0  0  0  0  0  0
  -26.0710  -29.3720   20.7620 C   0  0  0  0  0  0  0  0  0  0  0  0
  -27.2890  -28.6360   20.7710 C   0  0  0  0  0  3  0  0  0  0  0  0
  -26.2120  -26.8990   19.4570 C   0  0  0  0  0  3  0  0  0  0  0  0
  -25.0080  -27.6130   19.4710 C   0  0  0  0  0  3  0  0  0  0  0  0
  -23.6760  -29.6800   20.1410 C   0  0  0  0  0  2  0  0  0  0  0  0
  -24.6210  -30.9170   22.1330 N   0  0  0  0  0  0  0  0  0  0  0  0
  -23.3950  -31.9030   23.7690 O   0  0  0  0  0  0  0  0  0  0  0  0
  -22.7380  -29.2320   22.4330 C   0  0  0  0  0  0  0  0  0  0  0  0
  -21.4220  -29.0180   22.2560 N   0  0  0  0  0  0  0  0  0  0  0  0
  -23.4110  -28.5980   23.2490 O   0  0  0  0  0  0  0  0  0  0  0  0
  -20.9350  -29.5860   21.5780 H   0  0  0  0  0  0  0  0  0  0  0  0
  -18.0640  -27.7380   22.6420 C   0  0  0  0  0  0  0  0  0  0  0  0
  -20.6110  -28.0280   22.9680 C   0  0  0  0  0  3  0  0  0  0  0  0
  -20.7480  -26.6260   22.3310 C   0  0  0  0  0  2  0  0  0  0  0  0
  -19.6700  -26.3320   21.2840 C   0  0  0  0  0  2  0  0  0  0  0  0
  -18.2750  -26.4240   21.9090 C   0  0  0  0  0  2  0  0  0  0  0  0
  -19.1600  -28.4980   23.1270 C   0  0  0  0  0  0  0  0  0  0  0  0
  -18.9100  -29.7300   23.7700 C   0  0  0  0  0  3  0  0  0  0  0  0
  -17.5950  -30.2020   23.9340 C   0  0  0  0  0  3  0  0  0  0  0  0
  -16.5110  -29.4390   23.4640 C   0  0  0  0  0  3  0  0  0  0  0  0
  -16.7480  -28.2090   22.8250 C   0  0  0  0  0  3  0  0  0  0  0  0
  -25.7460  -32.3270   23.9390 C   0  0  0  0  0  3  0  0  0  0  0  0
  -26.1680  -31.6010   25.2760 C   0  0  1  0  0  0  0  0  0  0  0  0
  -25.0000  -31.3990   26.2690 C   0  0  0  0  0  1  0  0  0  0  0  0
  -26.7780  -30.2130   24.9730 C   0  0  0  0  0  1  0  0  0  0  0  0
  -27.2690  -32.4170   25.9930 C   0  0  0  0  0  1  0  0  0  0  0  0
  -25.4280  -33.7390   24.1960 N   0  0  0  0  0  0  0  0  0  0  0  0
  -25.7920  -34.7570   23.4030 C   0  0  0  0  0  0  0  0  0  0  0  0
  -26.5030  -34.6070   22.4060 O   0  0  0  0  0  0  0  0  0  0  0  0
  -24.8060  -33.9260   24.9680 H   0  0  0  0  0  0  0  0  0  0  0  0
  -24.0710  -36.5220   22.9070 C   0  0  0  0  0  1  0  0  0  0  0  0
  -25.2870  -36.1640   23.7760 C   0  0  0  0  0  3  0  0  0  0  0  0
  -27.3850  -37.1070   24.6380 C   0  0  0  0  0  1  0  0  0  0  0  0
  -26.3230  -37.2150   23.6420 N   0  0  0  0  0  0  0  0  0  0  0  0
  -25.9090  -38.1410   23.7160 H   0  0  0  0  0  0  0  0  0  0  0  0
  1  3  2  0
  2 52  1  0
  2  1  1  0
  4  2  1  0
  5  1  1  0
  6 19  1  0
  7 12  1  0
  8  9  1  0
  8  7  1  0
 10  9  1  0
 10 27  1  0
 10 11  1  0
 12  6  1  0
 12 11  1  0
 13  6  2  0
 14 19  1  0
 15 17  1  0
 16 20  1  0
 16 14  1  0
 17 21  1  0
 18  5  1  0
 18 17  1  0
 19 15  1  0
 20 23  1  0
 20 18  1  0
 22 20  1  0
 24 25  2  0
 25 44  1  0
 26 25  1  0
 26 29  1  0
 27 28  1  0
 27 24  1  0
 28 26  2  0
 29 30  1  0
 30 31  2  0
 32 35  1  0
 32 31  1  0
 33 32  2  0
 34 33  1  0
 34 29  2  0
 35 36  1  0
 36 41  2  0
 36 37  1  0
 37 38  2  0
 38 39  1  0
 39 43  1  0
 40 39  2  0
 41 40  1  0
 42 41  1  0
 44 45  1  0
 45 48  1  0
 45 47  1  0
 46 44  2  0
 49 24  1  0
 49 50  1  0
 51 49  1  0
 53 54  1  0
 53 52  1  0
 55 66  2  0
 56 54  1  0
 56 61  1  0
 57 65  1  0
 57 67  1  0
 58 64  1  0
 58 60  1  0
 59 65  1  0
 60 61  2  0
 60 59  1  0
 62 63  1  0
 62 56  2  0
 63 58  2  0
 64 57  1  0
 65 55  1  0
 67 69  2  0
 68 67  1  0
 70 68  1  0
 71 80  2  0
 71 76  1  0
 72 68  1  0
 72 76  1  0
 73 72  1  0
 74 75  1  0
 74 73  1  0
 75 71  1  0
 76 77  2  0
 77 78  1  0
 79 78  2  0
 80 79  1  0
 81 55  1  0
 81 86  1  0
 81 82  1  0
 82 85  1  1
 82 83  1  0
 84 82  1  0
 86 89  1  0
 87 91  1  0
 87 86  1  0
 88 87  2  0
 91 90  1  0
 93 94  1  0
 93 91  1  0
 93 92  1  0
M  ISO  4   6 100  19 100  53 101  54 101
M  END
>  <TORSDO>  (89) 
F 19

>  <SCORE>  (89) 
-12.729

>  <name>  (89) 
89

>  <ligand_id>  (89) 
89

>  <original_smiles>  (89) 
[H]c1c([H])c([H])c2c(c1[H])C([H])([H])C([H])([H])C([H])([H])C2([H])N([H])C(=O)C1([H])N(C(=O)C([H])(N([H])C(=O)C([H])(N([H])C([H])([H])[H])C([H])([H])[H])C(C([H])([H])[H])(C([H])([H])[H])C([H])([H])[H])C([H])([H])c2c([H])c(OC([H])([H])C([H])([H])N([H])C(=O)C([H])([H])C3([H])C([H])(F)C([H])([H])N(C(=O)N4C([H])([H])C([H])([H])C([H])([H])C([H])(n5nc(-c6c([H])c([H])c(Oc7c([H])c([H])c(F)c([H])c7F)c([H])c6[H])c(C(=O)N([H])[H])c5N([H])[H])C4([H])[H])C([H])([H])C([H])([H])[N+]3([H])[H])c([H])c([H])c2C1([H])[H]

>  <smiles>  (89) 
[H]c1c([H])c([H])c2c(c1[H])C([H])([H])C([H])([H])C([H])([H])C2([H])N([H])C(=O)C1([H])N(C(=O)C([H])(N([H])C(=O)C([H])(N([H])C([H])([H])[H])C([H])([H])[H])C(C([H])([H])[H])(C([H])([H])[H])C([H])([H])[H])C([H])([H])c2c([H])c(OC([H])([H])C([H])([H])N([H])C(=O)C([H])([H])C3([H])C([H])(F)C([H])([H])N(C(=O)N4C([H])([H])C([H])([H])C([H])([H])C([H])(n5nc(-c6c([H])c([H])c(Oc7c([H])c([H])c(F)c([H])c7F)c([H])c6[H])c(C(=O)N([H])[H])c5N([H])[H])C4([H])[H])C([H])([H])C([H])([H])[N+]3([H])[H])c([H])c([H])c2C1([H])[H]

$$$$
90:0:0
     RDKit          3D

 97 98  0  0  1  0  0  0  0  0999 V2000
  -20.1900  -25.6870   22.0040 C   0  0  0  0  0  1  0  0  0  0  0  0
  -21.6670  -27.3360   19.9640 C   0  0  0  0  0  3  0  0  0  0  0  0
  -18.9100  -25.8720   19.3970 C   0  0  0  0  0  2  0  0  0  0  0  0
  -22.3420  -26.3720   21.2520 C   0  0  0  0  0  1  0  0  0  0  0  0
  -18.9610  -24.9700   20.9270 C   0  0  0  0  0  3  0  0  0  0  0  0
  -20.1960  -27.0540   19.0290 C   0  0  0  0  0  0  0  0  0  0  0  0
  -20.0830  -27.7350   17.8630 F   0  0  0  0  0  0  0  0  0  0  0  0
  -24.6320  -24.8750   21.4850 C   0  0  0  0  0  3  0  0  0  0  0  0
  -26.8020  -22.9110   21.0700 C   0  0  0  0  0  1  0  0  0  0  0  0
  -30.7220  -20.3240   20.7990 C   0  0  0  0  0  2  0  0  0  0  0  0
  -33.0460  -18.2640   19.9240 C   0  0  0  0  0  2  0  0  0  0  0  0
  -33.2930  -17.0130   18.8750 C   0  0  0  0  0  2  0  0  0  0  0  0
  -32.4810  -15.7660   19.2080 C   0  0  0  0  0  2  0  0  0  0  0  0
  -31.2940  -16.3540   19.9590 C   0  0  0  0  0  3  0  0  0  0  0  0
  -31.5290  -17.3780   21.1320 C   0  0  0  0  0  2  0  0  0  0  0  0
  -31.5330  -18.8070   20.5350 N   0  0  0  0  0  0  0  0  0  0  0  0
  -32.0100  -20.6820   20.7990 O   0  0  0  0  0  1  0  0  0  0  0  0
  -28.9200  -21.4170   20.9240 N   0  0  0  0  0  1  0  0  0  0  0  0
  -29.5110  -22.2290   21.0540 H   0  0  0  0  0  0  0  0  0  0  0  0
  -28.9420  -15.9210   20.3560 C   0  0  0  0  0  0  0  0  0  0  0  0
  -28.2270  -14.8210   20.6690 C   0  0  0  0  0  0  0  0  0  0  0  0
  -29.1640  -13.7420   20.7640 C   0  0  0  0  0  0  0  0  0  0  0  0
  -30.2390  -15.4850   20.2940 N   0  0  0  0  0  0  0  0  0  0  0  0
  -30.4090  -14.1760   20.5880 N   0  0  0  0  0  0  0  0  0  0  0  0
  -28.9170  -12.3160   20.9440 C   0  0  0  0  0  0  0  0  0  0  0  0
  -29.8250  -11.4830   21.6300 C   0  0  0  0  0  3  0  0  0  0  0  0
  -29.5340  -10.1160   21.8160 C   0  0  0  0  0  3  0  0  0  0  0  0
  -28.3230   -9.5760   21.3180 C   0  0  0  0  0  0  0  0  0  0  0  0
  -27.4360  -10.4070   20.6150 C   0  0  0  0  0  3  0  0  0  0  0  0
  -27.7300  -11.7650   20.4250 C   0  0  0  0  0  3  0  0  0  0  0  0
  -27.9640   -8.2560   21.4320 O   0  0  0  0  0  0  0  0  0  0  0  0
  -28.7180   -7.3670   22.1540 C   0  0  0  0  0  0  0  0  0  0  0  0
  -29.1610   -7.6570   23.4620 C   0  0  0  0  0  3  0  0  0  0  0  0
  -29.8730   -6.6860   24.1950 C   0  0  0  0  0  3  0  0  0  0  0  0
  -30.1370   -5.4260   23.6230 C   0  0  0  0  0  0  0  0  0  0  0  0
  -29.6920   -5.1360   22.3220 C   0  0  0  0  0  3  0  0  0  0  0  0
  -28.9830   -6.1040   21.5900 C   0  0  0  0  0  0  0  0  0  0  0  0
  -28.5380   -5.8130   20.3430 F   0  0  0  0  0  0  0  0  0  0  0  0
  -30.8130   -4.4900   24.3280 F   0  0  0  0  0  0  0  0  0  0  0  0
  -26.7390  -14.7880   20.7530 C   0  0  0  0  0  0  0  0  0  0  0  0
  -26.1990  -13.9120   21.5860 N   0  0  0  0  0  0  0  0  0  0  0  0
  -26.0520  -15.5940   20.1240 O   0  0  0  0  0  0  0  0  0  0  0  0
  -26.7710  -13.2750   22.1210 H   0  0  0  0  0  0  0  0  0  0  0  0
  -25.1960  -13.8790   21.6980 H   0  0  0  0  0  0  0  0  0  0  0  0
  -28.6020  -17.2510   20.0950 N   0  0  0  0  0  0  0  0  0  0  0  0
  -27.6350  -17.5510   20.0300 H   0  0  0  0  0  0  0  0  0  0  0  0
  -29.2610  -17.9250   19.7340 H   0  0  0  0  0  0  0  0  0  0  0  0
  -27.1360  -23.1800   22.5390 C   0  0  0  0  0  2  0  0  0  0  0  0
  -27.9010  -24.2710   22.5980 F   0  0  0  0  0  0  0  0  0  0  0  0
  -19.6320  -23.2610   20.6160 C   0  0  0  0  0  2  0  0  0  0  0  0
  -21.1790  -22.7330   19.8430 N   0  0  0  0  0  4  0  0  0  0  0  0
  -20.9040  -22.7090   18.8740 H   0  0  0  0  0  0  0  0  0  0  0  0
  -21.2120  -21.7510   20.0760 H   0  0  0  0  0  0  0  0  0  0  0  0
  -22.9250  -23.1700   19.7460 C   0  0  0  0  0  2  0  0  0  0  0  0
  -24.1950  -24.6470   19.8300 C   0  0  0  0  0  3  0  0  0  0  0  0
  -26.0480  -25.0550   19.8520 C   0  0  0  0  0  2  0  0  0  0  0  0
  -27.3480  -25.8780   20.6320 O   0  0  0  0  0  0  0  0  0  0  0  0
  -28.0190  -32.1770   24.0430 C   0  0  0  0  0  0  0  0  0  0  0  0
  -27.7470  -27.2230   20.3920 C   0  0  0  0  0  0  0  0  0  0  0  0
  -26.1190  -31.1330   22.9140 C   0  0  0  0  0  3  0  0  0  0  0  0
  -26.6340  -29.6750   20.8840 C   0  0  0  0  0  0  0  0  0  0  0  0
  -28.5230  -30.7500   22.0340 C   0  0  0  0  0  2  0  0  0  0  0  0
  -27.9530  -29.5200   21.3100 C   0  0  0  0  0  0  0  0  0  0  0  0
  -28.5400  -28.2120   21.1260 C   0  0  0  0  0  3  0  0  0  0  0  0
  -26.8000  -27.6910   19.5410 C   0  0  0  0  0  3  0  0  0  0  0  0
  -26.1050  -28.8080   19.9370 C   0  0  0  0  0  3  0  0  0  0  0  0
  -25.7940  -30.7980   21.4370 C   0  0  0  0  0  2  0  0  0  0  0  0
  -27.5880  -31.4140   23.0030 N   0  0  0  0  0  0  0  0  0  0  0  0
  -27.2180  -32.7110   24.8250 O   0  0  0  0  0  0  0  0  0  0  0  0
  -25.7420  -30.0140   23.9710 C   0  0  0  0  0  0  0  0  0  0  0  0
  -24.5080  -29.5890   24.2330 N   0  0  0  0  0  0  0  0  0  0  0  0
  -26.6110  -29.4870   24.6370 O   0  0  0  0  0  0  0  0  0  0  0  0
  -23.7890  -30.0270   23.6740 H   0  0  0  0  0  0  0  0  0  0  0  0
  -22.5180  -28.2080   23.0390 C   0  0  0  0  0  2  0  0  0  0  0  0
  -23.8660  -28.5940   25.2400 C   0  0  0  0  0  2  0  0  0  0  0  0
  -24.4510  -26.7370   25.9670 C   0  0  0  0  0 15  0  0  0  0  0  0
  -24.5330  -24.8500   24.6410 C   0  0  0  0  0 15  0  0  0  0  0  0
  -24.1760  -25.6540   22.4780 C   0  0  0  0  0  2  0  0  0  0  0  0
  -22.5940  -28.9960   24.3100 C   0  0  0  0  0  3  0  0  0  0  0  0
  -21.7700  -30.1790   24.6790 C   0  0  0  0  0  2  0  0  0  0  0  0
  -20.4890  -30.5040   24.1720 C   0  0  0  0  0  2  0  0  0  0  0  0
  -20.0230  -29.5130   23.3160 C   0  0  0  0  0  3  0  0  0  0  0  0
  -20.9680  -28.4820   22.8320 C   0  0  0  0  0  3  0  0  0  0  0  0
  -29.5340  -32.4120   24.2960 C   0  0  0  0  0  3  0  0  0  0  0  0
  -29.6990  -33.8270   24.6630 N   0  0  0  0  0  0  0  0  0  0  0  0
  -30.1470  -34.7860   23.8430 C   0  0  0  0  0  0  0  0  0  0  0  0
  -30.5470  -34.5520   22.7000 O   0  0  0  0  0  0  0  0  0  0  0  0
  -29.3450  -34.1010   25.5680 H   0  0  0  0  0  0  0  0  0  0  0  0
  -28.9520  -37.0000   23.8300 C   0  0  0  0  0  1  0  0  0  0  0  0
  -30.1610  -36.2300   24.3830 C   0  0  0  0  0  3  0  0  0  0  0  0
  -32.5780  -36.4420   24.7630 C   0  0  0  0  0  1  0  0  0  0  0  0
  -31.4050  -36.9660   24.0670 N   0  0  0  0  0  0  0  0  0  0  0  0
  -31.3100  -37.9490   24.3050 H   0  0  0  0  0  0  0  0  0  0  0  0
  -30.1200  -31.4820   25.4330 C   0  0  1  0  0  0  0  0  0  0  0  0
  -29.2810  -31.4900   26.7310 C   0  0  0  0  0  1  0  0  0  0  0  0
  -30.2350  -30.0130   24.9670 C   0  0  0  0  0  1  0  0  0  0  0  0
  -31.5580  -31.9300   25.7880 C   0  0  0  0  0  1  0  0  0  0  0  0
  2  4  1  0
  3  5  1  0
  5  1  1  0
  6  3  1  0
  6  2  2  0
  7  6  1  0
  8 78  2  0
  9 48  1  0
 10 17  1  0
 11 16  1  0
 12 13  1  0
 12 11  1  0
 14 13  1  0
 14 23  1  0
 14 15  1  0
 16 10  1  0
 16 15  1  0
 18 19  1  0
 20 21  2  0
 21 40  1  0
 21 22  1  0
 22 25  1  0
 23 20  1  0
 23 24  1  0
 24 22  2  0
 25 26  1  0
 26 27  2  0
 28 31  1  0
 28 27  1  0
 29 28  2  0
 30 29  1  0
 30 25  2  0
 31 32  1  0
 32 33  1  0
 33 34  2  0
 35 34  1  0
 35 39  1  0
 36 35  2  0
 37 32  2  0
 37 36  1  0
 38 37  1  0
 40 41  1  0
 41 44  1  0
 41 43  1  0
 42 40  2  0
 45 20  1  0
 46 45  1  0
 47 45  1  0
 48 49  1  0
 50  5  1  0
 51 53  1  0
 51 50  1  0
 52 51  1  0
 54 51  1  0
 55 54  1  0
 55 56  1  0
 55  8  1  0
 56 57  1  0
 58 69  2  0
 59 57  1  0
 59 64  1  0
 60 68  1  0
 60 70  1  0
 61 63  1  0
 61 67  1  0
 62 68  1  0
 63 62  1  0
 64 63  2  0
 65 66  1  0
 65 59  2  0
 66 61  2  0
 67 60  1  0
 68 58  1  0
 70 71  1  0
 70 72  2  0
 71 75  1  0
 73 71  1  0
 74 79  1  0
 79 80  1  0
 79 75  1  0
 81 80  1  0
 82 81  1  0
 83 74  1  0
 83 82  2  0
 84 58  1  0
 84 85  1  0
 84 94  1  0
 85 88  1  0
 86 90  1  0
 86 85  1  0
 87 86  2  0
 90 89  1  0
 92 93  1  0
 92 90  1  0
 92 91  1  0
 94 97  1  1
 94 95  1  0
 96 94  1  0
M  ISO  4  10 100  18 100  56 101  57 101
M  END
>  <TORSDO>  (90) 
F 24

>  <SCORE>  (90) 
-3.494

>  <name>  (90) 
90

>  <ligand_id>  (90) 
90

>  <original_smiles>  (90) 
[H]c1c([H])c([H])c2c(c1[H])C([H])([H])C([H])([H])C([H])([H])C2([H])N([H])C(=O)C1([H])N(C(=O)C([H])(N([H])C(=O)C([H])(N([H])C([H])([H])[H])C([H])([H])[H])C(C([H])([H])[H])(C([H])([H])[H])C([H])([H])[H])C([H])([H])c2c([H])c(OC([H])([H])C([H])([H])C([H])([H])[N+]([H])([H])C([H])([H])c3c([H])c(F)c([H])c(C([H])([H])C([H])(N([H])C(=O)N4C([H])([H])C([H])([H])C([H])([H])C([H])(n5nc(-c6c([H])c([H])c(Oc7c([H])c([H])c(F)c([H])c7F)c([H])c6[H])c(C(=O)N([H])[H])c5N([H])[H])C4([H])[H])C([H])([H])F)c3[H])c([H])c([H])c2C1([H])[H]

>  <smiles>  (90) 
[H]c1c([H])c([H])c2c(c1[H])C([H])([H])C([H])([H])C([H])([H])C2([H])N([H])C(=O)C1([H])N(C(=O)C([H])(N([H])C(=O)C([H])(N([H])C([H])([H])[H])C([H])([H])[H])C(C([H])([H])[H])(C([H])([H])[H])C([H])([H])[H])C([H])([H])c2c([H])c(OC([H])([H])C([H])([H])C([H])([H])[N+]([H])([H])C([H])([H])c3c([H])c(F)c([H])c(C([H])([H])C([H])(N([H])C(=O)N4C([H])([H])C([H])([H])C([H])([H])C([H])(n5nc(-c6c([H])c([H])c(Oc7c([H])c([H])c(F)c([H])c7F)c([H])c6[H])c(C(=O)N([H])[H])c5N([H])[H])C4([H])[H])C([H])([H])F)c3[H])c([H])c([H])c2C1([H])[H]

$$$$
91:0:0
     RDKit          3D

101109  0  0  1  0  0  0  0  0999 V2000
  -30.2570  -19.1830   21.5960 C   0  0  0  0  0  2  0  0  0  0  0  0
  -30.2400  -18.1450   19.4320 C   0  0  0  0  0  2  0  0  0  0  0  0
  -29.9780  -17.8330   20.9220 C   0  0  0  0  0  3  0  0  0  0  0  0
  -29.8230  -20.2270   20.5630 C   0  0  0  0  0  3  0  0  0  0  0  0
  -30.1810  -19.6170   19.2640 N   0  0  0  0  0  4  0  0  0  0  0  0
  -29.5160  -19.8600   18.5460 H   0  0  0  0  0  0  0  0  0  0  0  0
  -31.0920  -19.9250   18.9680 H   0  0  0  0  0  0  0  0  0  0  0  0
  -30.4560  -21.6190   20.8320 C   0  0  0  0  0  2  0  0  0  0  0  0
  -30.0490  -22.7470   19.8550 C   0  0  0  0  0  2  0  0  0  0  0  0
  -30.5600  -24.0760   20.2770 N   0  0  0  0  0  4  0  0  0  0  0  0
  -31.5110  -23.9790   20.5990 H   0  0  0  0  0  0  0  0  0  0  0  0
  -30.0020  -24.4010   21.0500 H   0  0  0  0  0  0  0  0  0  0  0  0
  -30.5370  -25.0940   19.2010 C   0  0  0  0  0  2  0  0  0  0  0  0
  -30.8230  -26.5400   19.6770 C   0  0  0  0  0  2  0  0  0  0  0  0
  -29.7170  -27.2080   20.5220 C   0  0  0  0  0  2  0  0  0  0  0  0
  -28.4580  -26.7540   20.0420 O   0  0  0  0  0  0  0  0  0  0  0  0
  -24.5730  -31.9000   23.2160 C   0  0  0  0  0  0  0  0  0  0  0  0
  -27.3230  -27.5270   20.1490 C   0  0  0  0  0  0  0  0  0  0  0  0
  -23.3960  -30.4760   21.5680 C   0  0  0  0  0  3  0  0  0  0  0  0
  -24.8840  -28.9590   20.1610 C   0  0  0  0  0  0  0  0  0  0  0  0
  -25.9100  -30.8830   21.3790 C   0  0  0  0  0  2  0  0  0  0  0  0
  -26.0260  -29.5100   20.7560 C   0  0  0  0  0  0  0  0  0  0  0  0
  -27.2460  -28.8000   20.7630 C   0  0  0  0  0  3  0  0  0  0  0  0
  -26.1600  -26.9790   19.5710 C   0  0  0  0  0  3  0  0  0  0  0  0
  -24.9420  -27.6830   19.5710 C   0  0  0  0  0  3  0  0  0  0  0  0
  -23.6250  -29.7950   20.1920 C   0  0  0  0  0  2  0  0  0  0  0  0
  -24.6430  -31.1010   22.1150 N   0  0  0  0  0  0  0  0  0  0  0  0
  -23.4850  -32.1570   23.7500 O   0  0  0  0  0  0  0  0  0  0  0  0
  -22.7570  -29.4470   22.5260 C   0  0  0  0  0  0  0  0  0  0  0  0
  -21.4420  -29.2220   22.3690 N   0  0  0  0  0  0  0  0  0  0  0  0
  -23.4410  -28.8520   23.3640 O   0  0  0  0  0  0  0  0  0  0  0  0
  -20.9520  -29.7530   21.6630 H   0  0  0  0  0  0  0  0  0  0  0  0
  -18.1030  -27.9010   22.7670 C   0  0  0  0  0  0  0  0  0  0  0  0
  -20.6360  -28.2690   23.1310 C   0  0  0  0  0  3  0  0  0  0  0  0
  -20.8200  -26.8300   22.5940 C   0  0  0  0  0  2  0  0  0  0  0  0
  -19.7710  -26.4390   21.5480 C   0  0  0  0  0  2  0  0  0  0  0  0
  -18.3610  -26.5440   22.1340 C   0  0  0  0  0  2  0  0  0  0  0  0
  -19.1730  -28.7180   23.2240 C   0  0  0  0  0  0  0  0  0  0  0  0
  -18.8820  -29.9850   23.7720 C   0  0  0  0  0  3  0  0  0  0  0  0
  -17.5530  -30.4380   23.8730 C   0  0  0  0  0  3  0  0  0  0  0  0
  -16.4970  -29.6190   23.4390 C   0  0  0  0  0  3  0  0  0  0  0  0
  -16.7730  -28.3530   22.8900 C   0  0  0  0  0  3  0  0  0  0  0  0
  -25.8480  -32.5470   23.8410 C   0  0  0  0  0  3  0  0  0  0  0  0
  -26.3780  -31.7760   25.1120 C   0  0  1  0  0  0  0  0  0  0  0  0
  -25.2870  -31.5050   26.1740 C   0  0  0  0  0  1  0  0  0  0  0  0
  -26.9940  -30.4150   24.7050 C   0  0  0  0  0  1  0  0  0  0  0  0
  -27.5080  -32.5890   25.7860 C   0  0  0  0  0  1  0  0  0  0  0  0
  -25.5200  -33.9380   24.1750 N   0  0  0  0  0  0  0  0  0  0  0  0
  -25.8400  -34.9960   23.4180 C   0  0  0  0  0  0  0  0  0  0  0  0
  -26.5170  -34.9050   22.3900 O   0  0  0  0  0  0  0  0  0  0  0  0
  -24.9270  -34.0840   24.9790 H   0  0  0  0  0  0  0  0  0  0  0  0
  -24.0840  -36.7560   23.0570 C   0  0  0  0  0  1  0  0  0  0  0  0
  -25.3290  -36.3750   23.8740 C   0  0  0  0  0  3  0  0  0  0  0  0
  -27.4500  -37.2900   24.7050 C   0  0  0  0  0  1  0  0  0  0  0  0
  -26.3440  -37.4450   23.7640 N   0  0  0  0  0  0  0  0  0  0  0  0
  -25.9220  -38.3570   23.9200 H   0  0  0  0  0  0  0  0  0  0  0  0
  -30.7890  -16.6250   21.4870 C   0  0  0  0  0  3  0  0  0  0  0  0
  -30.7200  -14.4810   20.1440 C   0  0  0  0  0  0  0  0  0  0  0  0
  -30.2830  -12.4210   18.8540 C   0  0  0  0  0  2  0  0  0  0  0  0
  -29.2820  -12.6930   17.7130 C   0  0  0  0  0  2  0  0  0  0  0  0
  -27.8310  -12.5600   18.2140 C   0  0  0  0  0  2  0  0  0  0  0  0
  -27.5770  -13.3580   19.5190 C   0  0  0  0  0  3  0  0  0  0  0  0
  -28.6750  -13.0590   20.5630 C   0  0  0  0  0  2  0  0  0  0  0  0
  -29.9860  -13.3540   19.9520 N   0  0  0  0  0  0  0  0  0  0  0  0
  -31.7590  -14.7290   19.5260 O   0  0  0  0  0  0  0  0  0  0  0  0
  -30.2130  -15.3480   21.0380 N   0  0  0  0  0  0  0  0  0  0  0  0
  -29.3430  -15.0640   21.4630 H   0  0  0  0  0  0  0  0  0  0  0  0
  -25.2120  -13.9930   20.3190 C   0  0  0  0  0  0  0  0  0  0  0  0
  -24.1520  -13.2320   20.7320 C   0  0  0  0  0  0  0  0  0  0  0  0
  -24.5990  -11.8750   20.6890 C   0  0  0  0  0  0  0  0  0  0  0  0
  -26.2390  -13.1000   20.0510 N   0  0  0  0  0  0  0  0  0  0  0  0
  -25.8760  -11.8220   20.3290 N   0  0  0  0  0  0  0  0  0  0  0  0
  -23.8700  -10.6200   20.9130 C   0  0  0  0  0  0  0  0  0  0  0  0
  -24.3330   -9.6510   21.8310 C   0  0  0  0  0  3  0  0  0  0  0  0
  -23.6060   -8.4610   22.0420 C   0  0  0  0  0  3  0  0  0  0  0  0
  -22.4000   -8.2310   21.3370 C   0  0  0  0  0  0  0  0  0  0  0  0
  -21.9560   -9.1880   20.4080 C   0  0  0  0  0  3  0  0  0  0  0  0
  -22.6840  -10.3710   20.1950 C   0  0  0  0  0  3  0  0  0  0  0  0
  -21.6410   -7.0930   21.4590 O   0  0  0  0  0  0  0  0  0  0  0  0
  -21.6310   -6.3550   22.6150 C   0  0  0  0  0  0  0  0  0  0  0  0
  -21.2840   -6.9230   23.8600 C   0  0  0  0  0  3  0  0  0  0  0  0
  -21.2200   -6.1120   25.0110 C   0  0  0  0  0  3  0  0  0  0  0  0
  -21.4920   -4.7340   24.9180 C   0  0  0  0  0  0  0  0  0  0  0  0
  -21.8330   -4.1650   23.6780 C   0  0  0  0  0  3  0  0  0  0  0  0
  -21.8990   -4.9730   22.5300 C   0  0  0  0  0  0  0  0  0  0  0  0
  -22.2070   -4.4160   21.3340 F   0  0  0  0  0  0  0  0  0  0  0  0
  -21.4230   -3.9520   26.0210 F   0  0  0  0  0  0  0  0  0  0  0  0
  -22.7710  -13.7220   21.0610 C   0  0  0  0  0  0  0  0  0  0  0  0
  -22.0760  -13.0410   21.9650 N   0  0  0  0  0  0  0  0  0  0  0  0
  -22.3170  -14.7450   20.5480 O   0  0  0  0  0  0  0  0  0  0  0  0
  -22.4530  -12.2130   22.3990 H   0  0  0  0  0  0  0  0  0  0  0  0
  -21.1500  -13.3520   22.2240 H   0  0  0  0  0  0  0  0  0  0  0  0
  -25.3830  -15.3600   20.1280 N   0  0  0  0  0  0  0  0  0  0  0  0
  -24.6290  -16.0250   20.2630 H   0  0  0  0  0  0  0  0  0  0  0  0
  -26.2260  -15.7860   19.7610 H   0  0  0  0  0  0  0  0  0  0  0  0
  -30.8720  -16.6330   23.0340 C   0  0  0  0  0  2  0  0  0  0  0  0
  -31.8830  -15.6230   23.6160 C   0  0  0  0  0  2  0  0  0  0  0  0
  -32.0610  -15.7860   25.0710 N   0  0  0  0  0  4  0  0  0  0  0  0
  -32.3950  -16.7080   25.2890 H   0  0  0  0  0  0  0  0  0  0  0  0
  -32.7360  -15.1250   25.4100 H   0  0  0  0  0  0  0  0  0  0  0  0
  -31.1990  -15.6320   25.5610 H   0  0  0  0  0  0  0  0  0  0  0  0
  2  3  1  0
  3 57  1  0
  3  1  1  0
  4  8  1  0
  4  1  1  0
  5  2  1  0
  5  4  1  0
  6  5  1  0
  7  5  1  0
  9 10  1  0
  9  8  1  0
 10 11  1  0
 10 12  1  0
 13 14  1  0
 13 10  1  0
 14 15  1  0
 16 18  1  0
 16 15  1  0
 17 28  2  0
 18 23  1  0
 19 27  1  0
 19 29  1  0
 20 26  1  0
 20 22  1  0
 21 27  1  0
 22 23  2  0
 22 21  1  0
 24 18  2  0
 25 24  1  0
 25 20  2  0
 26 19  1  0
 27 17  1  0
 29 31  2  0
 30 29  1  0
 32 30  1  0
 33 42  2  0
 33 38  1  0
 34 30  1  0
 34 38  1  0
 35 34  1  0
 36 37  1  0
 36 35  1  0
 37 33  1  0
 38 39  2  0
 39 40  1  0
 41 40  2  0
 42 41  1  0
 43 17  1  0
 43 48  1  0
 43 44  1  0
 44 47  1  1
 44 45  1  0
 46 44  1  0
 48 51  1  0
 49 53  1  0
 49 48  1  0
 50 49  2  0
 53 52  1  0
 55 53  1  0
 55 56  1  0
 55 54  1  0
 57 96  1  0
 58 66  1  0
 59 64  1  0
 60 61  1  0
 60 59  1  0
 62 61  1  0
 62 71  1  0
 62 63  1  0
 64 58  1  0
 64 63  1  0
 65 58  2  0
 66 67  1  0
 66 57  1  0
 68 69  2  0
 69 88  1  0
 70 69  1  0
 70 73  1  0
 71 68  1  0
 71 72  1  0
 72 70  2  0
 73 74  1  0
 74 75  2  0
 76 79  1  0
 76 75  1  0
 77 76  2  0
 78 77  1  0
 78 73  2  0
 79 80  1  0
 80 81  1  0
 81 82  2  0
 83 82  1  0
 83 87  1  0
 84 83  2  0
 85 80  2  0
 85 84  1  0
 86 85  1  0
 88 89  1  0
 89 92  1  0
 89 91  1  0
 90 88  2  0
 93 94  1  0
 93 68  1  0
 95 93  1  0
 96 97  1  0
 97 98  1  0
 98 99  1  0
 98100  1  0
 98101  1  0
M  ISO  4  15 101  16 101  58 100  66 100
M  END
>  <TORSDO>  (91) 
F 26

>  <SCORE>  (91) 
-4.972

>  <name>  (91) 
91

>  <ligand_id>  (91) 
91

>  <original_smiles>  (91) 
[H]c1c([H])c([H])c2c(c1[H])C([H])([H])C([H])([H])C([H])([H])C2([H])N([H])C(=O)C1([H])N(C(=O)C([H])(N([H])C(=O)C([H])(N([H])C([H])([H])[H])C([H])([H])[H])C(C([H])([H])[H])(C([H])([H])[H])C([H])([H])[H])C([H])([H])c2c([H])c(OC([H])([H])C([H])([H])C([H])([H])[N+]([H])([H])C([H])([H])C([H])([H])C3([H])C([H])([H])C([H])(C([H])(N([H])C(=O)N4C([H])([H])C([H])([H])C([H])([H])C([H])(n5nc(-c6c([H])c([H])c(Oc7c([H])c([H])c(F)c([H])c7F)c([H])c6[H])c(C(=O)N([H])[H])c5N([H])[H])C4([H])[H])C([H])([H])C([H])([H])[N+]([H])([H])[H])C([H])([H])[N+]3([H])[H])c([H])c([H])c2C1([H])[H]

>  <smiles>  (91) 
[H]c1c([H])c([H])c2c(c1[H])C([H])([H])C([H])([H])C([H])([H])C2([H])N([H])C(=O)C1([H])N(C(=O)C([H])(N([H])C(=O)C([H])(N([H])C([H])([H])[H])C([H])([H])[H])C(C([H])([H])[H])(C([H])([H])[H])C([H])([H])[H])C([H])([H])c2c([H])c(OC([H])([H])C([H])([H])C([H])([H])[N+]([H])([H])C([H])([H])C([H])([H])C3([H])C([H])([H])C([H])(C([H])(N([H])C(=O)N4C([H])([H])C([H])([H])C([H])([H])C([H])(n5nc(-c6c([H])c([H])c(Oc7c([H])c([H])c(F)c([H])c7F)c([H])c6[H])c(C(=O)N([H])[H])c5N([H])[H])C4([H])[H])C([H])([H])C([H])([H])[N+]([H])([H])[H])C([H])([H])[N+]3([H])[H])c([H])c([H])c2C1([H])[H]

$$$$
92:0:0
     RDKit          3D

 94102  0  0  1  0  0  0  0  0999 V2000
  -30.2750  -21.1930   18.5590 N   0  0  0  0  0  4  0  0  0  0  0  0
  -31.1690  -20.7620   18.3460 H   0  0  0  0  0  0  0  0  0  0  0  0
  -29.9830  -20.8240   19.4520 H   0  0  0  0  0  0  0  0  0  0  0  0
  -29.2760  -20.8740   17.4860 C   0  0  0  0  0  2  0  0  0  0  0  0
  -28.4790  -19.5890   17.8150 C   0  0  0  0  0  2  0  0  0  0  0  0
  -30.6110  -14.9260   21.3130 C   0  0  0  0  0  0  0  0  0  0  0  0
  -30.5880  -12.5780   20.6830 C   0  0  0  0  0  2  0  0  0  0  0  0
  -29.8670  -12.4810   19.3220 C   0  0  0  0  0  2  0  0  0  0  0  0
  -28.3450  -12.3620   19.5270 C   0  0  0  0  0  2  0  0  0  0  0  0
  -27.7550  -13.3710   20.5500 C   0  0  0  0  0  3  0  0  0  0  0  0
  -28.6250  -13.4790   21.8250 C   0  0  0  0  0  2  0  0  0  0  0  0
  -30.0130  -13.7140   21.4090 N   0  0  0  0  0  0  0  0  0  0  0  0
  -31.8230  -15.0860   21.4680 O   0  0  0  0  0  0  0  0  0  0  0  0
  -29.1170  -18.2620   17.3820 C   0  0  0  0  0  0  0  0  0  0  0  0
  -29.7290  -15.9410   17.9190 C   0  0  0  0  0  2  0  0  0  0  0  0
  -28.1520  -17.0250   19.3800 C   0  0  0  0  0  2  0  0  0  0  0  0
  -30.7520  -15.8530   19.0660 C   0  0  0  0  0  2  0  0  0  0  0  0
  -29.0600  -16.7400   20.6170 C   0  0  0  0  0  2  0  0  0  0  0  0
  -28.9640  -17.1610   18.1560 N   0  0  0  0  0  0  0  0  0  0  0  0
  -30.0290  -15.6640   20.3400 N   0  0  0  0  0  0  0  0  0  0  0  0
  -29.7600  -18.2380   16.3270 O   0  0  0  0  0  0  0  0  0  0  0  0
  -25.2630  -13.9310   20.9120 C   0  0  0  0  0  0  0  0  0  0  0  0
  -24.1760  -13.1330   21.1130 C   0  0  0  0  0  0  0  0  0  0  0  0
  -24.6770  -11.7930   21.1580 C   0  0  0  0  0  0  0  0  0  0  0  0
  -26.3580  -13.0800   20.8440 N   0  0  0  0  0  0  0  0  0  0  0  0
  -25.9970  -11.7920   21.0600 N   0  0  0  0  0  0  0  0  0  0  0  0
  -23.9740  -10.5100   21.2360 C   0  0  0  0  0  0  0  0  0  0  0  0
  -24.3400   -9.5310   22.1850 C   0  0  0  0  0  3  0  0  0  0  0  0
  -23.6400   -8.3090   22.2590 C   0  0  0  0  0  3  0  0  0  0  0  0
  -22.5570   -8.0590   21.3830 C   0  0  0  0  0  0  0  0  0  0  0  0
  -22.2110   -9.0290   20.4250 C   0  0  0  0  0  3  0  0  0  0  0  0
  -22.9150  -10.2420   20.3480 C   0  0  0  0  0  3  0  0  0  0  0  0
  -21.8380   -6.8900   21.3640 O   0  0  0  0  0  0  0  0  0  0  0  0
  -21.7380   -6.0890   22.4740 C   0  0  0  0  0  0  0  0  0  0  0  0
  -21.2390   -6.5740   23.7030 C   0  0  0  0  0  3  0  0  0  0  0  0
  -21.0910   -5.7000   24.7970 C   0  0  0  0  0  3  0  0  0  0  0  0
  -21.4280   -4.3400   24.6630 C   0  0  0  0  0  0  0  0  0  0  0  0
  -21.9210   -3.8540   23.4380 C   0  0  0  0  0  3  0  0  0  0  0  0
  -22.0730   -4.7260   22.3470 C   0  0  0  0  0  0  0  0  0  0  0  0
  -22.5270   -4.2480   21.1640 F   0  0  0  0  0  0  0  0  0  0  0  0
  -21.2790   -3.4970   25.7110 F   0  0  0  0  0  0  0  0  0  0  0  0
  -22.7390  -13.5670   21.1830 C   0  0  0  0  0  0  0  0  0  0  0  0
  -21.9190  -12.8530   21.9420 N   0  0  0  0  0  0  0  0  0  0  0  0
  -22.3470  -14.5810   20.6030 O   0  0  0  0  0  0  0  0  0  0  0  0
  -22.2340  -12.0170   22.4140 H   0  0  0  0  0  0  0  0  0  0  0  0
  -20.9600  -13.1500   22.0590 H   0  0  0  0  0  0  0  0  0  0  0  0
  -25.4150  -15.3090   20.7580 N   0  0  0  0  0  0  0  0  0  0  0  0
  -24.6280  -15.9480   20.7240 H   0  0  0  0  0  0  0  0  0  0  0  0
  -26.3060  -15.7740   20.6730 H   0  0  0  0  0  0  0  0  0  0  0  0
  -30.4770  -22.6370   18.8040 C   0  0  0  0  0  2  0  0  0  0  0  0
  -29.4440  -23.2010   19.8170 C   0  0  0  0  0  2  0  0  0  0  0  0
  -29.2100  -24.6970   19.5780 C   0  0  0  0  0  2  0  0  0  0  0  0
  -28.2180  -25.3930   20.5090 C   0  0  0  0  0  2  0  0  0  0  0  0
  -28.3290  -26.7870   20.1960 O   0  0  0  0  0  0  0  0  0  0  0  0
  -24.5950  -31.9600   23.2770 C   0  0  0  0  0  0  0  0  0  0  0  0
  -27.1690  -27.5170   20.1720 C   0  0  0  0  0  0  0  0  0  0  0  0
  -23.3670  -30.5600   21.6510 C   0  0  0  0  0  3  0  0  0  0  0  0
  -24.7930  -29.0310   20.1980 C   0  0  0  0  0  0  0  0  0  0  0  0
  -25.8880  -30.9180   21.4180 C   0  0  0  0  0  2  0  0  0  0  0  0
  -25.9590  -29.5490   20.7760 C   0  0  0  0  0  0  0  0  0  0  0  0
  -27.1540  -28.8000   20.7560 C   0  0  0  0  0  3  0  0  0  0  0  0
  -25.9950  -27.0220   19.5580 C   0  0  0  0  0  3  0  0  0  0  0  0
  -24.8030  -27.7690   19.5840 C   0  0  0  0  0  3  0  0  0  0  0  0
  -23.5540  -29.8920   20.2640 C   0  0  0  0  0  2  0  0  0  0  0  0
  -24.6360  -31.1600   22.1740 N   0  0  0  0  0  0  0  0  0  0  0  0
  -23.5200  -32.2340   23.8270 O   0  0  0  0  0  0  0  0  0  0  0  0
  -22.7330  -29.5340   22.6180 C   0  0  0  0  0  0  0  0  0  0  0  0
  -21.4130  -29.3300   22.4850 N   0  0  0  0  0  0  0  0  0  0  0  0
  -23.4230  -28.9250   23.4410 O   0  0  0  0  0  0  0  0  0  0  0  0
  -20.9210  -29.8630   21.7820 H   0  0  0  0  0  0  0  0  0  0  0  0
  -18.0600  -28.0670   22.9570 C   0  0  0  0  0  0  0  0  0  0  0  0
  -20.6050  -28.3890   23.2600 C   0  0  0  0  0  3  0  0  0  0  0  0
  -20.7540  -26.9510   22.7090 C   0  0  0  0  0  2  0  0  0  0  0  0
  -19.6740  -26.5850   21.6880 C   0  0  0  0  0  2  0  0  0  0  0  0
  -18.2780  -26.7110   22.3060 C   0  0  0  0  0  2  0  0  0  0  0  0
  -19.1540  -28.8630   23.3870 C   0  0  0  0  0  0  0  0  0  0  0  0
  -18.8980  -30.1350   23.9500 C   0  0  0  0  0  3  0  0  0  0  0  0
  -17.5790  -30.6060   24.0870 C   0  0  0  0  0  3  0  0  0  0  0  0
  -16.4980  -29.8050   23.6740 C   0  0  0  0  0  3  0  0  0  0  0  0
  -16.7400  -28.5390   23.1150 C   0  0  0  0  0  3  0  0  0  0  0  0
  -25.8910  -32.5900   23.8790 C   0  0  0  0  0  3  0  0  0  0  0  0
  -26.4260  -31.8150   25.1440 C   0  0  1  0  0  0  0  0  0  0  0  0
  -25.3470  -31.5580   26.2210 C   0  0  0  0  0  1  0  0  0  0  0  0
  -27.0070  -30.4420   24.7320 C   0  0  0  0  0  1  0  0  0  0  0  0
  -27.5850  -32.6070   25.7960 C   0  0  0  0  0  1  0  0  0  0  0  0
  -25.5870  -33.9870   24.2150 N   0  0  0  0  0  0  0  0  0  0  0  0
  -25.9110  -35.0400   23.4510 C   0  0  0  0  0  0  0  0  0  0  0  0
  -26.5710  -34.9360   22.4140 O   0  0  0  0  0  0  0  0  0  0  0  0
  -25.0160  -34.1460   25.0320 H   0  0  0  0  0  0  0  0  0  0  0  0
  -24.1780  -36.8230   23.0970 C   0  0  0  0  0  1  0  0  0  0  0  0
  -25.4230  -36.4280   23.9080 C   0  0  0  0  0  3  0  0  0  0  0  0
  -27.5660  -37.3050   24.7240 C   0  0  0  0  0  1  0  0  0  0  0  0
  -26.4530  -37.4830   23.7930 N   0  0  0  0  0  0  0  0  0  0  0  0
  -26.0500  -38.4010   23.9560 H   0  0  0  0  0  0  0  0  0  0  0  0
  1 50  1  0
  1  3  1  0
  2  1  1  0
  4  5  1  0
  4  1  1  0
  6 12  1  0
  6 13  2  0
  7 12  1  0
  8  9  1  0
  8  7  1  0
 10  9  1  0
 10 25  1  0
 10 11  1  0
 12 11  1  0
 14  5  1  0
 14 19  1  0
 15 19  1  0
 15 17  1  0
 16 18  1  0
 17 20  1  0
 19 16  1  0
 20 18  1  0
 20  6  1  0
 21 14  2  0
 22 23  2  0
 23 24  1  0
 23 42  1  0
 24 27  1  0
 25 22  1  0
 25 26  1  0
 26 24  2  0
 27 28  1  0
 28 29  2  0
 30 29  1  0
 31 30  2  0
 32 31  1  0
 32 27  2  0
 33 30  1  0
 33 34  1  0
 34 35  1  0
 35 36  2  0
 37 36  1  0
 37 41  1  0
 38 37  2  0
 39 34  2  0
 39 38  1  0
 40 39  1  0
 42 43  1  0
 43 46  1  0
 43 45  1  0
 44 42  2  0
 47 22  1  0
 48 47  1  0
 49 47  1  0
 50 51  1  0
 52 51  1  0
 52 53  1  0
 54 53  1  0
 55 66  2  0
 56 54  1  0
 56 61  1  0
 57 65  1  0
 57 67  1  0
 58 64  1  0
 58 60  1  0
 59 65  1  0
 60 59  1  0
 61 60  2  0
 62 63  1  0
 62 56  2  0
 63 58  2  0
 64 57  1  0
 65 55  1  0
 67 69  2  0
 68 67  1  0
 70 68  1  0
 71 80  2  0
 71 76  1  0
 72 68  1  0
 72 76  1  0
 73 72  1  0
 74 75  1  0
 74 73  1  0
 75 71  1  0
 76 77  2  0
 77 78  1  0
 79 78  2  0
 80 79  1  0
 81 55  1  0
 81 86  1  0
 81 82  1  0
 82 85  1  1
 82 83  1  0
 84 82  1  0
 86 89  1  0
 87 91  1  0
 87 86  1  0
 88 87  2  0
 91 90  1  0
 93 91  1  0
 93 94  1  0
 93 92  1  0
M  ISO  4   6 100  20 100  53 101  54 101
M  END
>  <TORSDO>  (92) 
F 22

>  <SCORE>  (92) 
-10.907

>  <name>  (92) 
92

>  <ligand_id>  (92) 
92

>  <original_smiles>  (92) 
[H]c1c([H])c([H])c2c(c1[H])C([H])([H])C([H])([H])C([H])([H])C2([H])N([H])C(=O)C1([H])N(C(=O)C([H])(N([H])C(=O)C([H])(N([H])C([H])([H])[H])C([H])([H])[H])C(C([H])([H])[H])(C([H])([H])[H])C([H])([H])[H])C([H])([H])c2c([H])c(OC([H])([H])C([H])([H])C([H])([H])C([H])([H])[N+]([H])([H])C([H])([H])C([H])([H])C(=O)N3C([H])([H])C([H])([H])N(C(=O)N4C([H])([H])C([H])([H])C([H])([H])C([H])(n5nc(-c6c([H])c([H])c(Oc7c([H])c([H])c(F)c([H])c7F)c([H])c6[H])c(C(=O)N([H])[H])c5N([H])[H])C4([H])[H])C([H])([H])C3([H])[H])c([H])c([H])c2C1([H])[H]

>  <smiles>  (92) 
[H]c1c([H])c([H])c2c(c1[H])C([H])([H])C([H])([H])C([H])([H])C2([H])N([H])C(=O)C1([H])N(C(=O)C([H])(N([H])C(=O)C([H])(N([H])C([H])([H])[H])C([H])([H])[H])C(C([H])([H])[H])(C([H])([H])[H])C([H])([H])[H])C([H])([H])c2c([H])c(OC([H])([H])C([H])([H])C([H])([H])C([H])([H])[N+]([H])([H])C([H])([H])C([H])([H])C(=O)N3C([H])([H])C([H])([H])N(C(=O)N4C([H])([H])C([H])([H])C([H])([H])C([H])(n5nc(-c6c([H])c([H])c(Oc7c([H])c([H])c(F)c([H])c7F)c([H])c6[H])c(C(=O)N([H])[H])c5N([H])[H])C4([H])[H])C([H])([H])C3([H])[H])c([H])c([H])c2C1([H])[H]

$$$$
93:0:0
     RDKit          3D

 95103  0  0  1  0  0  0  0  0999 V2000
  -27.6910  -21.5130   18.1440 C   0  0  0  0  0  2  0  0  0  0  0  0
  -28.9390  -22.2470   17.8440 N   0  0  0  0  0  4  0  0  0  0  0  0
  -29.6390  -21.9790   18.5170 H   0  0  0  0  0  0  0  0  0  0  0  0
  -29.2530  -21.9300   16.9410 H   0  0  0  0  0  0  0  0  0  0  0  0
  -28.7880  -23.7240   17.7950 C   0  0  0  0  0  2  0  0  0  0  0  0
  -30.1210  -24.4600   17.5530 C   0  0  0  0  0  2  0  0  0  0  0  0
  -30.0070  -25.9990   17.5520 C   0  0  0  0  0  2  0  0  0  0  0  0
  -29.6870  -26.5180   18.8460 O   0  0  0  0  0  0  0  0  0  0  0  0
  -25.5030  -30.2530   23.2190 C   0  0  0  0  0  0  0  0  0  0  0  0
  -28.4380  -27.0640   19.0420 C   0  0  0  0  0  0  0  0  0  0  0  0
  -24.3730  -29.2130   21.2810 C   0  0  0  0  0  3  0  0  0  0  0  0
  -25.9090  -28.2470   19.4910 C   0  0  0  0  0  0  0  0  0  0  0  0
  -26.8460  -29.8520   21.1620 C   0  0  0  0  0  2  0  0  0  0  0  0
  -27.0330  -28.7100   20.1860 C   0  0  0  0  0  0  0  0  0  0  0  0
  -28.2940  -28.1170   19.9720 C   0  0  0  0  0  3  0  0  0  0  0  0
  -27.2900  -26.5950   18.3610 C   0  0  0  0  0  3  0  0  0  0  0  0
  -26.0310  -27.1800   18.5830 C   0  0  0  0  0  3  0  0  0  0  0  0
  -24.5980  -28.9450   19.7670 C   0  0  0  0  0  2  0  0  0  0  0  0
  -25.5940  -29.7730   21.9470 N   0  0  0  0  0  0  0  0  0  0  0  0
  -24.4210  -30.2720   23.8200 O   0  0  0  0  0  0  0  0  0  0  0  0
  -23.8540  -27.9170   21.9420 C   0  0  0  0  0  0  0  0  0  0  0  0
  -22.5730  -27.5950   21.7030 N   0  0  0  0  0  0  0  0  0  0  0  0
  -24.6020  -27.2120   22.6270 O   0  0  0  0  0  0  0  0  0  0  0  0
  -22.0230  -28.2320   21.1440 H   0  0  0  0  0  0  0  0  0  0  0  0
  -19.3920  -25.8790   21.7200 C   0  0  0  0  0  0  0  0  0  0  0  0
  -21.8760  -26.4060   22.1910 C   0  0  0  0  0  3  0  0  0  0  0  0
  -22.2000  -25.1650   21.3240 C   0  0  0  0  0  2  0  0  0  0  0  0
  -21.1790  -24.9080   20.2120 C   0  0  0  0  0  2  0  0  0  0  0  0
  -19.7720  -24.7410   20.7920 C   0  0  0  0  0  2  0  0  0  0  0  0
  -20.3780  -26.6680   22.3670 C   0  0  0  0  0  0  0  0  0  0  0  0
  -19.9660  -27.7280   23.2040 C   0  0  0  0  0  3  0  0  0  0  0  0
  -18.6000  -28.0000   23.4000 C   0  0  0  0  0  3  0  0  0  0  0  0
  -17.6280  -27.2050   22.7660 C   0  0  0  0  0  3  0  0  0  0  0  0
  -18.0250  -26.1460   21.9320 C   0  0  0  0  0  3  0  0  0  0  0  0
  -26.7480  -30.8240   23.9670 C   0  0  0  0  0  3  0  0  0  0  0  0
  -26.3540  -32.1090   24.5610 N   0  0  0  0  0  0  0  0  0  0  0  0
  -26.6450  -33.3090   24.0400 C   0  0  0  0  0  0  0  0  0  0  0  0
  -27.3450  -33.4510   23.0330 O   0  0  0  0  0  0  0  0  0  0  0  0
  -25.7320  -32.0690   25.3550 H   0  0  0  0  0  0  0  0  0  0  0  0
  -24.8600  -35.0790   23.9600 C   0  0  0  0  0  1  0  0  0  0  0  0
  -26.0690  -34.5480   24.7500 C   0  0  0  0  0  3  0  0  0  0  0  0
  -28.1010  -35.3050   25.9020 C   0  0  0  0  0  1  0  0  0  0  0  0
  -27.0570  -35.6340   24.9350 N   0  0  0  0  0  0  0  0  0  0  0  0
  -26.5990  -36.4880   25.2400 H   0  0  0  0  0  0  0  0  0  0  0  0
  -27.3150  -29.8480   25.0690 C   0  0  1  0  0  0  0  0  0  0  0  0
  -26.2420  -29.3350   26.0570 C   0  0  0  0  0  1  0  0  0  0  0  0
  -27.9820  -28.6150   24.4150 C   0  0  0  0  0  1  0  0  0  0  0  0
  -28.4160  -30.5630   25.8880 C   0  0  0  0  0  1  0  0  0  0  0  0
  -27.5510  -21.1100   19.6300 C   0  0  0  0  0  2  0  0  0  0  0  0
  -26.7970  -17.5350   20.7060 C   0  0  0  0  0  2  0  0  0  0  0  0
  -27.7670  -16.7520   19.8070 C   0  0  0  0  0  2  0  0  0  0  0  0
  -29.8110  -18.2760   20.1070 C   0  0  0  0  0  2  0  0  0  0  0  0
  -26.6180  -19.0190   20.3420 C   0  0  0  0  0  2  0  0  0  0  0  0
  -28.9870  -19.4340   20.6970 C   0  0  0  0  0  2  0  0  0  0  0  0
  -29.2330  -16.8560   20.2970 C   0  0  0  0  0  3  0  0  0  0  0  0
  -27.8280  -19.6820   19.8360 N   0  0  0  0  0  0  0  0  0  0  0  0
  -30.1950  -15.8490   19.6260 C   0  0  0  0  0  2  0  0  0  0  0  0
  -30.7140  -13.4420   19.6730 C   0  0  0  0  0  0  0  0  0  0  0  0
  -30.4600  -11.0310   19.2460 C   0  0  0  0  0  2  0  0  0  0  0  0
  -29.4220  -10.8260   18.1240 C   0  0  0  0  0  2  0  0  0  0  0  0
  -27.9930  -10.7800   18.7030 C   0  0  0  0  0  2  0  0  0  0  0  0
  -27.6970  -11.9630   19.6630 C   0  0  0  0  0  3  0  0  0  0  0  0
  -28.8380  -12.1100   20.6960 C   0  0  0  0  0  2  0  0  0  0  0  0
  -30.1110  -12.2620   19.9640 N   0  0  0  0  0  0  0  0  0  0  0  0
  -31.6930  -13.5520   18.9270 O   0  0  0  0  0  0  0  0  0  0  0  0
  -30.0960  -14.5100   20.1810 N   0  0  0  0  0  0  0  0  0  0  0  0
  -29.3270  -14.3260   20.8090 H   0  0  0  0  0  0  0  0  0  0  0  0
  -25.5340  -12.7810   20.8060 C   0  0  0  0  0  0  0  0  0  0  0  0
  -24.4350  -12.1100   21.2660 C   0  0  0  0  0  0  0  0  0  0  0  0
  -24.6800  -10.7270   21.0030 C   0  0  0  0  0  0  0  0  0  0  0  0
  -26.3980  -11.8110   20.3180 N   0  0  0  0  0  0  0  0  0  0  0  0
  -25.8890  -10.5640   20.4840 N   0  0  0  0  0  0  0  0  0  0  0  0
  -23.8130   -9.5540   21.1650 C   0  0  0  0  0  0  0  0  0  0  0  0
  -23.9590   -8.6710   22.2570 C   0  0  0  0  0  3  0  0  0  0  0  0
  -23.1010   -7.5590   22.3970 C   0  0  0  0  0  3  0  0  0  0  0  0
  -22.0830   -7.3250   21.4420 C   0  0  0  0  0  0  0  0  0  0  0  0
  -21.9570   -8.1950   20.3450 C   0  0  0  0  0  3  0  0  0  0  0  0
  -22.8150   -9.2970   20.2050 C   0  0  0  0  0  3  0  0  0  0  0  0
  -21.2200   -6.2560   21.4850 O   0  0  0  0  0  0  0  0  0  0  0  0
  -20.6290   -5.8540   22.6550 C   0  0  0  0  0  0  0  0  0  0  0  0
  -19.7420   -6.6890   23.3680 C   0  0  0  0  0  3  0  0  0  0  0  0
  -19.1040   -6.2110   24.5300 C   0  0  0  0  0  3  0  0  0  0  0  0
  -19.3420   -4.8960   24.9750 C   0  0  0  0  0  0  0  0  0  0  0  0
  -20.2200   -4.0600   24.2610 C   0  0  0  0  0  3  0  0  0  0  0  0
  -20.8580   -4.5370   23.1040 C   0  0  0  0  0  0  0  0  0  0  0  0
  -21.6890   -3.7210   22.4090 F   0  0  0  0  0  0  0  0  0  0  0  0
  -18.7240   -4.4330   26.0840 F   0  0  0  0  0  0  0  0  0  0  0  0
  -23.1830  -12.7210   21.8260 C   0  0  0  0  0  0  0  0  0  0  0  0
  -22.5240  -12.0260   22.7480 N   0  0  0  0  0  0  0  0  0  0  0  0
  -22.8080  -13.8420   21.4840 O   0  0  0  0  0  0  0  0  0  0  0  0
  -22.8400  -11.1110   23.0330 H   0  0  0  0  0  0  0  0  0  0  0  0
  -21.6920  -12.4130   23.1690 H   0  0  0  0  0  0  0  0  0  0  0  0
  -25.8640  -14.1300   20.7440 N   0  0  0  0  0  0  0  0  0  0  0  0
  -25.2210  -14.8590   21.0280 H   0  0  0  0  0  0  0  0  0  0  0  0
  -26.7200  -14.4860   20.3390 H   0  0  0  0  0  0  0  0  0  0  0  0
  1 49  1  0
  2  1  1  0
  2  3  1  0
  4  2  1  0
  5  2  1  0
  6  5  1  0
  7  6  1  0
  7  8  1  0
  8 10  1  0
  9 20  2  0
 10 15  1  0
 11 21  1  0
 11 19  1  0
 12 18  1  0
 12 14  1  0
 13 19  1  0
 14 13  1  0
 15 14  2  0
 16 17  1  0
 16 10  2  0
 17 12  2  0
 18 11  1  0
 19  9  1  0
 21 23  2  0
 22 21  1  0
 24 22  1  0
 25 34  2  0
 25 30  1  0
 26 22  1  0
 26 30  1  0
 27 26  1  0
 28 29  1  0
 28 27  1  0
 29 25  1  0
 30 31  2  0
 31 32  1  0
 33 32  2  0
 34 33  1  0
 35  9  1  0
 35 36  1  0
 35 45  1  0
 36 39  1  0
 37 36  1  0
 37 41  1  0
 38 37  2  0
 41 40  1  0
 41 43  1  0
 43 44  1  0
 43 42  1  0
 45 48  1  1
 45 46  1  0
 47 45  1  0
 49 56  1  0
 51 55  1  0
 51 50  1  0
 52 55  1  0
 52 54  1  0
 53 50  1  0
 55 57  1  0
 56 53  1  0
 56 54  1  0
 57 66  1  0
 58 64  1  0
 58 66  1  0
 59 64  1  0
 60 61  1  0
 60 59  1  0
 62 61  1  0
 62 71  1  0
 62 63  1  0
 64 63  1  0
 65 58  2  0
 66 67  1  0
 68 69  2  0
 69 88  1  0
 70 73  1  0
 70 69  1  0
 71 72  1  0
 71 68  1  0
 72 70  2  0
 73 74  1  0
 74 75  2  0
 76 79  1  0
 76 75  1  0
 77 76  2  0
 78 77  1  0
 78 73  2  0
 79 80  1  0
 80 85  2  0
 80 81  1  0
 81 82  2  0
 82 83  1  0
 83 87  1  0
 84 83  2  0
 85 84  1  0
 86 85  1  0
 88 89  1  0
 89 91  1  0
 89 92  1  0
 90 88  2  0
 93 68  1  0
 93 94  1  0
 95 93  1  0
M  ISO  4   7 101   8 101  58 100  66 100
M  END
>  <TORSDO>  (93) 
F 23

>  <SCORE>  (93) 
-5.808

>  <name>  (93) 
93

>  <ligand_id>  (93) 
93

>  <original_smiles>  (93) 
[H]c1c([H])c([H])c2c(c1[H])C([H])([H])C([H])([H])C([H])([H])C2([H])N([H])C(=O)C1([H])N(C(=O)C([H])(N([H])C(=O)C([H])(N([H])C([H])([H])[H])C([H])([H])[H])C(C([H])([H])[H])(C([H])([H])[H])C([H])([H])[H])C([H])([H])c2c([H])c(OC([H])([H])C([H])([H])C([H])([H])[N+]([H])([H])C([H])([H])C([H])([H])N3C([H])([H])C([H])([H])C([H])([H])C([H])(C([H])([H])N([H])C(=O)N4C([H])([H])C([H])([H])C([H])([H])C([H])(n5nc(-c6c([H])c([H])c(Oc7c([H])c([H])c(F)c([H])c7F)c([H])c6[H])c(C(=O)N([H])[H])c5N([H])[H])C4([H])[H])C([H])([H])C3([H])[H])c([H])c([H])c2C1([H])[H]

>  <smiles>  (93) 
[H]c1c([H])c([H])c2c(c1[H])C([H])([H])C([H])([H])C([H])([H])C2([H])N([H])C(=O)C1([H])N(C(=O)C([H])(N([H])C(=O)C([H])(N([H])C([H])([H])[H])C([H])([H])[H])C(C([H])([H])[H])(C([H])([H])[H])C([H])([H])[H])C([H])([H])c2c([H])c(OC([H])([H])C([H])([H])C([H])([H])[N+]([H])([H])C([H])([H])C([H])([H])N3C([H])([H])C([H])([H])C([H])([H])C([H])(C([H])([H])N([H])C(=O)N4C([H])([H])C([H])([H])C([H])([H])C([H])(n5nc(-c6c([H])c([H])c(Oc7c([H])c([H])c(F)c([H])c7F)c([H])c6[H])c(C(=O)N([H])[H])c5N([H])[H])C4([H])[H])C([H])([H])C3([H])[H])c([H])c([H])c2C1([H])[H]

$$$$
94:0:0
     RDKit          3D

 94101  0  0  1  0  0  0  0  0999 V2000
  -27.3350  -21.4790   19.8630 C   0  0  0  0  0  0  0  0  0  0  0  0
  -28.5050  -22.1260   19.8810 N   0  0  0  0  0  0  0  0  0  0  0  0
  -26.3860  -21.7800   20.5880 O   0  0  0  0  0  0  0  0  0  0  0  0
  -29.2290  -21.8310   19.2380 H   0  0  0  0  0  0  0  0  0  0  0  0
  -27.2320  -20.2810   18.9350 C   0  0  0  0  0  2  0  0  0  0  0  0
  -27.5430  -19.0560   19.6970 N   0  0  0  0  0  4  0  0  0  0  0  0
  -27.1090  -18.2750   19.2350 H   0  0  0  0  0  0  0  0  0  0  0  0
  -27.1140  -19.1670   20.6010 H   0  0  0  0  0  0  0  0  0  0  0  0
  -28.9930  -18.8000   19.8570 C   0  0  0  0  0  2  0  0  0  0  0  0
  -29.2890  -17.5960   20.7590 C   0  0  0  0  0  2  0  0  0  0  0  0
  -30.8050  -17.4170   20.9810 C   0  0  0  0  0  2  0  0  0  0  0  0
  -31.1570  -16.2320   21.8980 C   0  0  0  0  0  2  0  0  0  0  0  0
  -30.8470  -14.2990   20.3670 C   0  0  0  0  0  0  0  0  0  0  0  0
  -30.3780  -12.2690   19.0560 C   0  0  0  0  0  2  0  0  0  0  0  0
  -29.4160  -12.5480   17.8880 C   0  0  0  0  0  2  0  0  0  0  0  0
  -27.9520  -12.4350   18.3500 C   0  0  0  0  0  2  0  0  0  0  0  0
  -27.6700  -13.2610   19.6310 C   0  0  0  0  0  3  0  0  0  0  0  0
  -28.7320  -12.9710   20.7150 C   0  0  0  0  0  2  0  0  0  0  0  0
  -30.0740  -13.2080   20.1430 N   0  0  0  0  0  0  0  0  0  0  0  0
  -31.8180  -14.6060   19.6680 O   0  0  0  0  0  0  0  0  0  0  0  0
  -30.5200  -14.9990   21.4570 N   0  0  0  0  0  0  0  0  0  0  0  0
  -29.7470  -14.6510   22.0050 H   0  0  0  0  0  0  0  0  0  0  0  0
  -25.2940  -13.9320   20.3690 C   0  0  0  0  0  0  0  0  0  0  0  0
  -24.2130  -13.1880   20.7580 C   0  0  0  0  0  0  0  0  0  0  0  0
  -24.6420  -11.8260   20.7270 C   0  0  0  0  0  0  0  0  0  0  0  0
  -26.3150  -13.0260   20.1270 N   0  0  0  0  0  0  0  0  0  0  0  0
  -25.9260  -11.7540   20.3970 N   0  0  0  0  0  0  0  0  0  0  0  0
  -23.8920  -10.5830   20.9370 C   0  0  0  0  0  0  0  0  0  0  0  0
  -24.3110   -9.6150   21.8770 C   0  0  0  0  0  3  0  0  0  0  0  0
  -23.5630   -8.4350   22.0740 C   0  0  0  0  0  3  0  0  0  0  0  0
  -22.3800   -8.2140   21.3280 C   0  0  0  0  0  0  0  0  0  0  0  0
  -21.9800   -9.1690   20.3770 C   0  0  0  0  0  3  0  0  0  0  0  0
  -22.7290  -10.3400   20.1800 C   0  0  0  0  0  3  0  0  0  0  0  0
  -21.6030   -7.0850   21.4330 O   0  0  0  0  0  0  0  0  0  0  0  0
  -21.5400   -6.3600   22.5970 C   0  0  0  0  0  0  0  0  0  0  0  0
  -21.1350   -6.9420   23.8170 C   0  0  0  0  0  3  0  0  0  0  0  0
  -21.0180   -6.1450   24.9730 C   0  0  0  0  0  3  0  0  0  0  0  0
  -21.2960   -4.7670   24.9090 C   0  0  0  0  0  0  0  0  0  0  0  0
  -21.6940   -4.1840   23.6930 C   0  0  0  0  0  3  0  0  0  0  0  0
  -21.8130   -4.9790   22.5400 C   0  0  0  0  0  0  0  0  0  0  0  0
  -22.1770   -4.4080   21.3660 F   0  0  0  0  0  0  0  0  0  0  0  0
  -21.1760   -3.9980   26.0170 F   0  0  0  0  0  0  0  0  0  0  0  0
  -22.8330  -13.6990   21.0550 C   0  0  0  0  0  0  0  0  0  0  0  0
  -22.1050  -13.0240   21.9370 N   0  0  0  0  0  0  0  0  0  0  0  0
  -22.4090  -14.7310   20.5360 O   0  0  0  0  0  0  0  0  0  0  0  0
  -22.4630  -12.1890   22.3770 H   0  0  0  0  0  0  0  0  0  0  0  0
  -21.1790  -13.3470   22.1770 H   0  0  0  0  0  0  0  0  0  0  0  0
  -25.4910  -15.2970   20.1810 N   0  0  0  0  0  0  0  0  0  0  0  0
  -24.7420  -15.9740   20.2900 H   0  0  0  0  0  0  0  0  0  0  0  0
  -26.3550  -15.6930   19.8390 H   0  0  0  0  0  0  0  0  0  0  0  0
  -28.8190  -23.2590   20.7390 C   0  0  0  0  0  2  0  0  0  0  0  0
  -28.4900  -24.5510   20.0020 C   0  0  0  0  0  2  0  0  0  0  0  0
  -28.7070  -25.7890   20.8680 C   0  0  0  0  0  2  0  0  0  0  0  0
  -28.5460  -26.9250   20.0450 O   0  0  0  0  0  0  0  0  0  0  0  0
  -24.6440  -31.9070   23.2390 C   0  0  0  0  0  0  0  0  0  0  0  0
  -27.3330  -27.5510   20.1280 C   0  0  0  0  0  0  0  0  0  0  0  0
  -23.4440  -30.5070   21.5870 C   0  0  0  0  0  3  0  0  0  0  0  0
  -24.9080  -28.9820   20.1660 C   0  0  0  0  0  0  0  0  0  0  0  0
  -25.9620  -30.8950   21.3920 C   0  0  0  0  0  2  0  0  0  0  0  0
  -26.0570  -29.5300   20.7510 C   0  0  0  0  0  0  0  0  0  0  0  0
  -27.2740  -28.8210   20.7310 C   0  0  0  0  0  3  0  0  0  0  0  0
  -26.1710  -26.9980   19.5490 C   0  0  0  0  0  3  0  0  0  0  0  0
  -24.9550  -27.7080   19.5700 C   0  0  0  0  0  3  0  0  0  0  0  0
  -23.6550  -29.8250   20.2100 C   0  0  0  0  0  2  0  0  0  0  0  0
  -24.7010  -31.1150   22.1310 N   0  0  0  0  0  0  0  0  0  0  0  0
  -23.5600  -32.1720   23.7770 O   0  0  0  0  0  0  0  0  0  0  0  0
  -22.7960  -29.4800   22.5410 C   0  0  0  0  0  0  0  0  0  0  0  0
  -21.4720  -29.3060   22.4170 N   0  0  0  0  0  0  0  0  0  0  0  0
  -23.4820  -28.8430   23.3450 O   0  0  0  0  0  0  0  0  0  0  0  0
  -20.9820  -29.8700   21.7360 H   0  0  0  0  0  0  0  0  0  0  0  0
  -18.0930  -28.1440   22.9300 C   0  0  0  0  0  0  0  0  0  0  0  0
  -20.6540  -28.3670   23.1810 C   0  0  0  0  0  3  0  0  0  0  0  0
  -20.7350  -26.9450   22.5820 C   0  0  0  0  0  2  0  0  0  0  0  0
  -19.6200  -26.6480   21.5740 C   0  0  0  0  0  2  0  0  0  0  0  0
  -18.2460  -26.8020   22.2330 C   0  0  0  0  0  2  0  0  0  0  0  0
  -19.2250  -28.8870   23.3600 C   0  0  0  0  0  0  0  0  0  0  0  0
  -19.0270  -30.1450   23.9690 C   0  0  0  0  0  3  0  0  0  0  0  0
  -17.7290  -30.6630   24.1500 C   0  0  0  0  0  3  0  0  0  0  0  0
  -16.6120  -29.9160   23.7370 C   0  0  0  0  0  3  0  0  0  0  0  0
  -16.7950  -28.6570   23.1360 C   0  0  0  0  0  3  0  0  0  0  0  0
  -25.9280  -32.5370   23.8620 C   0  0  0  0  0  3  0  0  0  0  0  0
  -26.4500  -31.7620   25.1340 C   0  0  1  0  0  0  0  0  0  0  0  0
  -25.3580  -31.5090   26.2020 C   0  0  0  0  0  1  0  0  0  0  0  0
  -27.0410  -30.3910   24.7310 C   0  0  0  0  0  1  0  0  0  0  0  0
  -27.5980  -32.5590   25.7970 C   0  0  0  0  0  1  0  0  0  0  0  0
  -25.6150  -33.9320   24.1940 N   0  0  0  0  0  0  0  0  0  0  0  0
  -25.9410  -34.9850   23.4330 C   0  0  0  0  0  0  0  0  0  0  0  0
  -26.6110  -34.8860   22.4000 O   0  0  0  0  0  0  0  0  0  0  0  0
  -25.0200  -34.0830   24.9950 H   0  0  0  0  0  0  0  0  0  0  0  0
  -24.2030  -36.7670   23.0870 C   0  0  0  0  0  1  0  0  0  0  0  0
  -25.4490  -36.3710   23.8910 C   0  0  0  0  0  3  0  0  0  0  0  0
  -27.5840  -37.2670   24.7060 C   0  0  0  0  0  1  0  0  0  0  0  0
  -26.4750  -37.4290   23.7700 N   0  0  0  0  0  0  0  0  0  0  0  0
  -26.0640  -38.3460   23.9200 H   0  0  0  0  0  0  0  0  0  0  0  0
  1  2  1  0
  1  3  2  0
  2 51  1  0
  4  2  1  0
  5  6  1  0
  5  1  1  0
  6  9  1  0
  6  8  1  0
  7  6  1  0
  9 10  1  0
 10 11  1  0
 11 12  1  0
 13 21  1  0
 14 19  1  0
 15 16  1  0
 15 14  1  0
 17 16  1  0
 17 26  1  0
 17 18  1  0
 19 13  1  0
 19 18  1  0
 20 13  2  0
 21 12  1  0
 21 22  1  0
 23 24  2  0
 24 43  1  0
 25 24  1  0
 25 28  1  0
 26 23  1  0
 26 27  1  0
 27 25  2  0
 28 29  1  0
 29 30  2  0
 31 34  1  0
 31 30  1  0
 32 31  2  0
 33 32  1  0
 33 28  2  0
 34 35  1  0
 35 36  1  0
 36 37  2  0
 38 37  1  0
 38 42  1  0
 39 38  2  0
 40 35  2  0
 40 39  1  0
 41 40  1  0
 43 44  1  0
 44 47  1  0
 44 46  1  0
 45 43  2  0
 48 49  1  0
 48 23  1  0
 50 48  1  0
 52 51  1  0
 52 53  1  0
 54 56  1  0
 54 53  1  0
 55 66  2  0
 56 61  1  0
 57 65  1  0
 57 67  1  0
 58 64  1  0
 58 60  1  0
 59 65  1  0
 60 59  1  0
 61 60  2  0
 62 63  1  0
 62 56  2  0
 63 58  2  0
 64 57  1  0
 65 55  1  0
 67 69  2  0
 68 67  1  0
 70 68  1  0
 71 80  2  0
 71 76  1  0
 72 68  1  0
 72 76  1  0
 73 72  1  0
 74 75  1  0
 74 73  1  0
 75 71  1  0
 76 77  2  0
 77 78  1  0
 79 78  2  0
 80 79  1  0
 81 55  1  0
 81 86  1  0
 81 82  1  0
 82 85  1  1
 82 83  1  0
 84 82  1  0
 86 89  1  0
 87 91  1  0
 87 86  1  0
 88 87  2  0
 91 90  1  0
 93 91  1  0
 93 94  1  0
 93 92  1  0
M  ISO  4  13 100  21 100  53 101  54 101
M  END
>  <TORSDO>  (94) 
F 25

>  <SCORE>  (94) 
-11.530

>  <name>  (94) 
94

>  <ligand_id>  (94) 
94

>  <original_smiles>  (94) 
[H]c1c([H])c([H])c2c(c1[H])C([H])([H])C([H])([H])C([H])([H])C2([H])N([H])C(=O)C1([H])N(C(=O)C([H])(N([H])C(=O)C([H])(N([H])C([H])([H])[H])C([H])([H])[H])C(C([H])([H])[H])(C([H])([H])[H])C([H])([H])[H])C([H])([H])c2c([H])c(OC([H])([H])C([H])([H])C([H])([H])N([H])C(=O)C([H])([H])[N+]([H])([H])C([H])([H])C([H])([H])C([H])([H])C([H])([H])N([H])C(=O)N3C([H])([H])C([H])([H])C([H])([H])C([H])(n4nc(-c5c([H])c([H])c(Oc6c([H])c([H])c(F)c([H])c6F)c([H])c5[H])c(C(=O)N([H])[H])c4N([H])[H])C3([H])[H])c([H])c([H])c2C1([H])[H]

>  <smiles>  (94) 
[H]c1c([H])c([H])c2c(c1[H])C([H])([H])C([H])([H])C([H])([H])C2([H])N([H])C(=O)C1([H])N(C(=O)C([H])(N([H])C(=O)C([H])(N([H])C([H])([H])[H])C([H])([H])[H])C(C([H])([H])[H])(C([H])([H])[H])C([H])([H])[H])C([H])([H])c2c([H])c(OC([H])([H])C([H])([H])C([H])([H])N([H])C(=O)C([H])([H])[N+]([H])([H])C([H])([H])C([H])([H])C([H])([H])C([H])([H])N([H])C(=O)N3C([H])([H])C([H])([H])C([H])([H])C([H])(n4nc(-c5c([H])c([H])c(Oc6c([H])c([H])c(F)c([H])c6F)c([H])c5[H])c(C(=O)N([H])[H])c4N([H])[H])C3([H])[H])c([H])c([H])c2C1([H])[H]

$$$$
95:0:0
     RDKit          3D

 98106  0  0  1  0  0  0  0  0999 V2000
  -27.4340  -21.8000   21.7090 C   0  0  0  0  0  2  0  0  0  0  0  0
  -28.7470  -21.8390   20.8960 C   0  0  0  0  0  2  0  0  0  0  0  0
  -31.2660  -19.3240   20.8230 C   0  0  0  0  0  2  0  0  0  0  0  0
  -30.5940  -20.4970   20.0960 C   0  0  0  0  0  2  0  0  0  0  0  0
  -28.3410  -19.9200   19.4330 C   0  0  0  0  0  2  0  0  0  0  0  0
  -28.7480  -18.4710   19.0830 C   0  0  0  0  0  2  0  0  0  0  0  0
  -30.8370  -17.9200   20.3400 C   0  0  0  0  0  3  0  0  0  0  0  0
  -29.1810  -20.5020   20.4870 N   0  0  0  0  0  0  0  0  0  0  0  0
  -29.3620  -17.7800   20.2390 N   0  0  0  0  0  4  0  0  0  0  0  0
  -29.1560  -16.8000   20.1650 H   0  0  0  0  0  0  0  0  0  0  0  0
  -28.9290  -18.1440   21.0750 H   0  0  0  0  0  0  0  0  0  0  0  0
  -31.4250  -16.8310   21.2680 C   0  0  0  0  0  2  0  0  0  0  0  0
  -31.1700  -14.7010   20.0160 C   0  0  0  0  0  0  0  0  0  0  0  0
  -30.7840  -12.4920   19.0050 C   0  0  0  0  0  2  0  0  0  0  0  0
  -29.7950  -12.5510   17.8280 C   0  0  0  0  0  2  0  0  0  0  0  0
  -28.3390  -12.4550   18.3210 C   0  0  0  0  0  2  0  0  0  0  0  0
  -28.0360  -13.4250   19.4900 C   0  0  0  0  0  3  0  0  0  0  0  0
  -29.1270  -13.3330   20.5830 C   0  0  0  0  0  2  0  0  0  0  0  0
  -30.4480  -13.5550   19.9580 N   0  0  0  0  0  0  0  0  0  0  0  0
  -32.0920  -14.9810   19.2440 O   0  0  0  0  0  0  0  0  0  0  0  0
  -30.8390  -15.5140   21.0210 N   0  0  0  0  0  0  0  0  0  0  0  0
  -30.1840  -15.1550   21.7010 H   0  0  0  0  0  0  0  0  0  0  0  0
  -25.7140  -14.1180   20.3680 C   0  0  0  0  0  0  0  0  0  0  0  0
  -24.6310  -13.3830   20.7680 C   0  0  0  0  0  0  0  0  0  0  0  0
  -25.0150  -12.0120   20.6380 C   0  0  0  0  0  0  0  0  0  0  0  0
  -26.6970  -13.1980   20.0320 N   0  0  0  0  0  0  0  0  0  0  0  0
  -26.2790  -11.9240   20.2420 N   0  0  0  0  0  0  0  0  0  0  0  0
  -24.2340  -10.7800   20.8040 C   0  0  0  0  0  0  0  0  0  0  0  0
  -24.6180   -9.7840   21.7290 C   0  0  0  0  0  3  0  0  0  0  0  0
  -23.8420   -8.6150   21.8850 C   0  0  0  0  0  3  0  0  0  0  0  0
  -22.6660   -8.4350   21.1190 C   0  0  0  0  0  0  0  0  0  0  0  0
  -22.3010   -9.4200   20.1830 C   0  0  0  0  0  3  0  0  0  0  0  0
  -23.0770  -10.5800   20.0250 C   0  0  0  0  0  3  0  0  0  0  0  0
  -21.8660   -7.3200   21.1880 O   0  0  0  0  0  0  0  0  0  0  0  0
  -21.6950   -6.6280   22.3600 C   0  0  0  0  0  0  0  0  0  0  0  0
  -21.1630   -7.2380   23.5180 C   0  0  0  0  0  3  0  0  0  0  0  0
  -20.9380   -6.4700   24.6780 C   0  0  0  0  0  3  0  0  0  0  0  0
  -21.2370   -5.0950   24.6820 C   0  0  0  0  0  0  0  0  0  0  0  0
  -21.7650   -4.4850   23.5300 C   0  0  0  0  0  3  0  0  0  0  0  0
  -21.9900   -5.2500   22.3710 C   0  0  0  0  0  0  0  0  0  0  0  0
  -22.4760   -4.6530   21.2580 F   0  0  0  0  0  0  0  0  0  0  0  0
  -21.0160   -4.3560   25.7940 F   0  0  0  0  0  0  0  0  0  0  0  0
  -23.2820  -13.9140   21.1550 C   0  0  0  0  0  0  0  0  0  0  0  0
  -22.5770  -13.2190   22.0410 N   0  0  0  0  0  0  0  0  0  0  0  0
  -22.8620  -14.9810   20.7030 O   0  0  0  0  0  0  0  0  0  0  0  0
  -22.9260  -12.3550   22.4290 H   0  0  0  0  0  0  0  0  0  0  0  0
  -21.6710  -13.5560   22.3340 H   0  0  0  0  0  0  0  0  0  0  0  0
  -25.9410  -15.4860   20.2380 N   0  0  0  0  0  0  0  0  0  0  0  0
  -25.1710  -16.1420   20.3290 H   0  0  0  0  0  0  0  0  0  0  0  0
  -26.7180  -15.8650   19.7140 H   0  0  0  0  0  0  0  0  0  0  0  0
  -26.9630  -23.1600   22.2760 C   0  0  0  0  0  2  0  0  0  0  0  0
  -26.5350  -24.1180   21.2350 N   0  0  0  0  0  4  0  0  0  0  0  0
  -25.8350  -24.7200   21.6400 H   0  0  0  0  0  0  0  0  0  0  0  0
  -26.0810  -23.6090   20.4950 H   0  0  0  0  0  0  0  0  0  0  0  0
  -27.5930  -24.9930   20.6800 C   0  0  0  0  0  2  0  0  0  0  0  0
  -27.1480  -25.5510   19.3290 C   0  0  0  0  0  2  0  0  0  0  0  0
  -28.1620  -26.5230   18.6870 C   0  0  0  0  0  2  0  0  0  0  0  0
  -27.5850  -27.2570   17.6050 O   0  0  0  0  0  0  0  0  0  0  0  0
  -24.7880  -31.3150   22.6890 C   0  0  0  0  0  0  0  0  0  0  0  0
  -26.5150  -28.0090   18.0050 C   0  0  0  0  0  0  0  0  0  0  0  0
  -23.1990  -30.4440   21.0080 C   0  0  0  0  0  3  0  0  0  0  0  0
  -24.2520  -29.3970   18.9350 C   0  0  0  0  0  0  0  0  0  0  0  0
  -25.6470  -30.8660   20.3990 C   0  0  0  0  0  2  0  0  0  0  0  0
  -25.5270  -29.7430   19.3970 C   0  0  0  0  0  0  0  0  0  0  0  0
  -26.6660  -29.0500   18.9410 C   0  0  0  0  0  3  0  0  0  0  0  0
  -25.2330  -27.6880   17.5150 C   0  0  0  0  0  3  0  0  0  0  0  0
  -24.0970  -28.3640   17.9930 C   0  0  0  0  0  3  0  0  0  0  0  0
  -23.0870  -30.1890   19.4810 C   0  0  0  0  0  2  0  0  0  0  0  0
  -24.5760  -30.8680   21.4210 N   0  0  0  0  0  0  0  0  0  0  0  0
  -23.8540  -31.4150   23.4950 O   0  0  0  0  0  0  0  0  0  0  0  0
  -22.7000  -29.1850   21.7520 C   0  0  0  0  0  0  0  0  0  0  0  0
  -21.3700  -29.0030   21.7940 N   0  0  0  0  0  0  0  0  0  0  0  0
  -23.4970  -28.3850   22.2470 O   0  0  0  0  0  0  0  0  0  0  0  0
  -20.7790  -29.7130   21.3820 H   0  0  0  0  0  0  0  0  0  0  0  0
  -18.1030  -27.5650   22.3670 C   0  0  0  0  0  0  0  0  0  0  0  0
  -20.6720  -27.8730   22.4060 C   0  0  0  0  0  3  0  0  0  0  0  0
  -20.7340  -26.6190   21.5040 C   0  0  0  0  0  2  0  0  0  0  0  0
  -19.5260  -26.4880   20.5730 C   0  0  0  0  0  2  0  0  0  0  0  0
  -18.2260  -26.4150   21.3800 C   0  0  0  0  0  2  0  0  0  0  0  0
  -19.2490  -28.2610   22.8320 C   0  0  0  0  0  0  0  0  0  0  0  0
  -19.0780  -29.3480   23.7150 C   0  0  0  0  0  3  0  0  0  0  0  0
  -17.7930  -29.7380   24.1370 C   0  0  0  0  0  3  0  0  0  0  0  0
  -16.6620  -29.0370   23.6830 C   0  0  0  0  0  3  0  0  0  0  0  0
  -16.8170  -27.9490   22.8050 C   0  0  0  0  0  3  0  0  0  0  0  0
  -26.2050  -31.7480   23.1800 C   0  0  0  0  0  3  0  0  0  0  0  0
  -26.0600  -33.0220   23.8960 N   0  0  0  0  0  0  0  0  0  0  0  0
  -26.3790  -34.2200   23.3860 C   0  0  0  0  0  0  0  0  0  0  0  0
  -26.8990  -34.3590   22.2760 O   0  0  0  0  0  0  0  0  0  0  0  0
  -25.5940  -32.9890   24.7910 H   0  0  0  0  0  0  0  0  0  0  0  0
  -24.7860  -36.1360   23.7300 C   0  0  0  0  0  1  0  0  0  0  0  0
  -26.0680  -35.4620   24.2450 C   0  0  0  0  0  3  0  0  0  0  0  0
  -28.3480  -35.9710   25.0040 C   0  0  0  0  0  1  0  0  0  0  0  0
  -27.1720  -36.4460   24.2780 N   0  0  0  0  0  0  0  0  0  0  0  0
  -26.8670  -37.3160   24.7080 H   0  0  0  0  0  0  0  0  0  0  0  0
  -26.9030  -30.6660   24.0920 C   0  0  1  0  0  0  0  0  0  0  0  0
  -26.0200  -30.1830   25.2670 C   0  0  0  0  0  1  0  0  0  0  0  0
  -27.3000  -29.4230   23.2600 C   0  0  0  0  0  1  0  0  0  0  0  0
  -28.2150  -31.2400   24.6780 C   0  0  0  0  0  1  0  0  0  0  0  0
  1 51  1  0
  2  1  1  0
  4  8  1  0
  4  3  1  0
  5  8  1  0
  6  5  1  0
  6  9  1  0
  7  3  1  0
  7 12  1  0
  8  2  1  0
  9  7  1  0
  9 11  1  0
 10  9  1  0
 13 21  1  0
 14 19  1  0
 15 16  1  0
 15 14  1  0
 17 16  1  0
 17 26  1  0
 17 18  1  0
 19 13  1  0
 19 18  1  0
 20 13  2  0
 21 12  1  0
 21 22  1  0
 23 24  2  0
 24 43  1  0
 25 24  1  0
 25 28  1  0
 26 27  1  0
 26 23  1  0
 27 25  2  0
 28 29  1  0
 29 30  2  0
 31 34  1  0
 31 30  1  0
 32 31  2  0
 33 32  1  0
 33 28  2  0
 34 35  1  0
 35 40  2  0
 35 36  1  0
 36 37  2  0
 37 38  1  0
 38 42  1  0
 39 38  2  0
 40 39  1  0
 41 40  1  0
 43 44  1  0
 44 47  1  0
 44 46  1  0
 45 43  2  0
 48 49  1  0
 48 23  1  0
 50 48  1  0
 52 53  1  0
 52 51  1  0
 54 52  1  0
 55 52  1  0
 56 55  1  0
 57 56  1  0
 58 60  1  0
 58 57  1  0
 59 70  2  0
 60 65  1  0
 61 69  1  0
 61 71  1  0
 62 64  1  0
 62 68  1  0
 63 69  1  0
 64 63  1  0
 65 64  2  0
 66 67  1  0
 66 60  2  0
 67 62  2  0
 68 61  1  0
 69 59  1  0
 71 72  1  0
 71 73  2  0
 74 72  1  0
 75 84  2  0
 75 80  1  0
 76 72  1  0
 76 80  1  0
 77 76  1  0
 78 79  1  0
 78 77  1  0
 79 75  1  0
 80 81  2  0
 81 82  1  0
 83 82  2  0
 84 83  1  0
 85 59  1  0
 85 86  1  0
 85 95  1  0
 86 89  1  0
 87 86  1  0
 87 91  1  0
 88 87  2  0
 91 90  1  0
 91 93  1  0
 93 94  1  0
 93 92  1  0
 95 98  1  1
 95 96  1  0
 97 95  1  0
M  ISO  4  13 100  21 100  57 101  58 101
M  END
>  <TORSDO>  (95) 
F 24

>  <SCORE>  (95) 
-8.627

>  <name>  (95) 
95

>  <ligand_id>  (95) 
95

>  <original_smiles>  (95) 
[H]c1c([H])c([H])c2c(c1[H])C([H])([H])C([H])([H])C([H])([H])C2([H])N([H])C(=O)C1([H])N(C(=O)C([H])(N([H])C(=O)C([H])(N([H])C([H])([H])[H])C([H])([H])[H])C(C([H])([H])[H])(C([H])([H])[H])C([H])([H])[H])C([H])([H])c2c([H])c(OC([H])([H])C([H])([H])C([H])([H])[N+]([H])([H])C([H])([H])C([H])([H])C([H])([H])N3C([H])([H])C([H])([H])C([H])(C([H])([H])N([H])C(=O)N4C([H])([H])C([H])([H])C([H])([H])C([H])(n5nc(-c6c([H])c([H])c(Oc7c([H])c([H])c(F)c([H])c7F)c([H])c6[H])c(C(=O)N([H])[H])c5N([H])[H])C4([H])[H])[N+]([H])([H])C([H])([H])C3([H])[H])c([H])c([H])c2C1([H])[H]

>  <smiles>  (95) 
[H]c1c([H])c([H])c2c(c1[H])C([H])([H])C([H])([H])C([H])([H])C2([H])N([H])C(=O)C1([H])N(C(=O)C([H])(N([H])C(=O)C([H])(N([H])C([H])([H])[H])C([H])([H])[H])C(C([H])([H])[H])(C([H])([H])[H])C([H])([H])[H])C([H])([H])c2c([H])c(OC([H])([H])C([H])([H])C([H])([H])[N+]([H])([H])C([H])([H])C([H])([H])C([H])([H])N3C([H])([H])C([H])([H])C([H])(C([H])([H])N([H])C(=O)N4C([H])([H])C([H])([H])C([H])([H])C([H])(n5nc(-c6c([H])c([H])c(Oc7c([H])c([H])c(F)c([H])c7F)c([H])c6[H])c(C(=O)N([H])[H])c5N([H])[H])C4([H])[H])[N+]([H])([H])C([H])([H])C3([H])[H])c([H])c([H])c2C1([H])[H]

$$$$
96:0:0
     RDKit          3D

 91 99  0  0  1  0  0  0  0  0999 V2000
  -28.4500  -19.2170   20.4880 C   0  0  0  0  0  0  0  0  0  0  0  0
  -28.7390  -20.5280   20.2940 N   0  0  0  0  0  0  0  0  0  0  0  0
  -27.2980  -18.8320   20.6880 O   0  0  0  0  0  0  0  0  0  0  0  0
  -29.7130  -20.7510   20.1400 H   0  0  0  0  0  0  0  0  0  0  0  0
  -30.7520  -14.6090   20.6640 C   0  0  0  0  0  0  0  0  0  0  0  0
  -30.5630  -12.3390   19.7420 C   0  0  0  0  0  2  0  0  0  0  0  0
  -29.6910  -12.3930   18.4660 C   0  0  0  0  0  2  0  0  0  0  0  0
  -28.1930  -12.3010   18.8210 C   0  0  0  0  0  2  0  0  0  0  0  0
  -27.7700  -13.2300   19.9900 C   0  0  0  0  0  3  0  0  0  0  0  0
  -28.7640  -13.1570   21.1680 C   0  0  0  0  0  2  0  0  0  0  0  0
  -30.1030  -13.4140   20.6330 N   0  0  0  0  0  0  0  0  0  0  0  0
  -31.9800  -14.6770   20.5760 O   0  0  0  0  0  0  0  0  0  0  0  0
  -31.1600  -17.2070   18.5900 C   0  0  0  0  0  2  0  0  0  0  0  0
  -30.2620  -18.3650   18.9970 C   0  0  0  0  0  2  0  0  0  0  0  0
  -30.3510  -15.9230   18.6790 C   0  0  0  0  0  2  0  0  0  0  0  0
  -29.2570  -16.6840   20.7690 C   0  0  0  0  0  2  0  0  0  0  0  0
  -29.6270  -18.1910   20.4000 C   0  0  0  0  0  3  0  0  0  0  0  0
  -30.0330  -15.6130   20.0770 N   0  0  0  0  0  0  0  0  0  0  0  0
  -25.3480  -13.8540   20.5880 C   0  0  0  0  0  0  0  0  0  0  0  0
  -24.2610  -13.0880   20.9100 C   0  0  0  0  0  0  0  0  0  0  0  0
  -24.7210  -11.7360   20.9260 C   0  0  0  0  0  0  0  0  0  0  0  0
  -26.3990  -12.9660   20.4190 N   0  0  0  0  0  0  0  0  0  0  0  0
  -26.0240  -11.6900   20.6850 N   0  0  0  0  0  0  0  0  0  0  0  0
  -23.9840  -10.4760   21.0970 C   0  0  0  0  0  0  0  0  0  0  0  0
  -24.3720   -9.5190   22.0580 C   0  0  0  0  0  3  0  0  0  0  0  0
  -23.6360   -8.3250   22.2150 C   0  0  0  0  0  3  0  0  0  0  0  0
  -22.4990   -8.0800   21.4100 C   0  0  0  0  0  0  0  0  0  0  0  0
  -22.1310   -9.0250   20.4370 C   0  0  0  0  0  3  0  0  0  0  0  0
  -22.8670  -10.2120   20.2780 C   0  0  0  0  0  3  0  0  0  0  0  0
  -21.7430   -6.9350   21.4720 O   0  0  0  0  0  0  0  0  0  0  0  0
  -21.6390   -6.2050   22.6280 C   0  0  0  0  0  0  0  0  0  0  0  0
  -21.1480   -6.7690   23.8260 C   0  0  0  0  0  3  0  0  0  0  0  0
  -20.9940   -5.9630   24.9720 C   0  0  0  0  0  3  0  0  0  0  0  0
  -21.3220   -4.5950   24.9220 C   0  0  0  0  0  0  0  0  0  0  0  0
  -21.8080   -4.0300   23.7290 C   0  0  0  0  0  3  0  0  0  0  0  0
  -21.9630   -4.8340   22.5860 C   0  0  0  0  0  0  0  0  0  0  0  0
  -22.4120   -4.2810   21.4340 F   0  0  0  0  0  0  0  0  0  0  0  0
  -21.1650   -3.8200   26.0200 F   0  0  0  0  0  0  0  0  0  0  0  0
  -22.8510  -13.5710   21.0960 C   0  0  0  0  0  0  0  0  0  0  0  0
  -22.0790  -12.8980   21.9410 N   0  0  0  0  0  0  0  0  0  0  0  0
  -22.4400  -14.5830   20.5280 O   0  0  0  0  0  0  0  0  0  0  0  0
  -22.4200  -12.0830   22.4290 H   0  0  0  0  0  0  0  0  0  0  0  0
  -21.1300  -13.2030   22.1070 H   0  0  0  0  0  0  0  0  0  0  0  0
  -25.5240  -15.2200   20.3970 N   0  0  0  0  0  0  0  0  0  0  0  0
  -24.7570  -15.8810   20.4610 H   0  0  0  0  0  0  0  0  0  0  0  0
  -26.3960  -15.6530   20.1220 H   0  0  0  0  0  0  0  0  0  0  0  0
  -27.7790  -21.6200   20.0400 C   0  0  0  0  0  2  0  0  0  0  0  0
  -28.1220  -22.9370   20.7420 C   0  0  0  0  0  3  0  0  0  0  0  0
  -28.0500  -24.1800   20.2030 C   0  0  0  0  0  3  0  0  0  0  0  0
  -28.3200  -25.4700   20.9890 C   0  0  0  0  0  2  0  0  0  0  0  0
  -28.3820  -26.6910   20.2140 O   0  0  0  0  0  0  0  0  0  0  0  0
  -24.5750  -31.9170   23.2660 C   0  0  0  0  0  0  0  0  0  0  0  0
  -27.2330  -27.4560   20.2170 C   0  0  0  0  0  0  0  0  0  0  0  0
  -23.3790  -30.5140   21.6190 C   0  0  0  0  0  3  0  0  0  0  0  0
  -24.8440  -28.9750   20.2040 C   0  0  0  0  0  0  0  0  0  0  0  0
  -25.9060  -30.8740   21.4330 C   0  0  0  0  0  2  0  0  0  0  0  0
  -26.0000  -29.5000   20.7970 C   0  0  0  0  0  0  0  0  0  0  0  0
  -27.2010  -28.7490   20.7960 C   0  0  0  0  0  3  0  0  0  0  0  0
  -26.0630  -26.9500   19.6200 C   0  0  0  0  0  3  0  0  0  0  0  0
  -24.8720  -27.7020   19.6090 C   0  0  0  0  0  3  0  0  0  0  0  0
  -23.6000  -29.8350   20.2400 C   0  0  0  0  0  2  0  0  0  0  0  0
  -24.6390  -31.1160   22.1650 N   0  0  0  0  0  0  0  0  0  0  0  0
  -23.4910  -32.1890   23.8000 O   0  0  0  0  0  0  0  0  0  0  0  0
  -22.7240  -29.4920   22.5760 C   0  0  0  0  0  0  0  0  0  0  0  0
  -21.3990  -29.3110   22.4470 N   0  0  0  0  0  0  0  0  0  0  0  0
  -23.4050  -28.8630   23.3910 O   0  0  0  0  0  0  0  0  0  0  0  0
  -20.9090  -29.8710   21.7640 H   0  0  0  0  0  0  0  0  0  0  0  0
  -18.0220  -28.1290   22.9450 C   0  0  0  0  0  0  0  0  0  0  0  0
  -20.5810  -28.3720   23.2150 C   0  0  0  0  0  3  0  0  0  0  0  0
  -20.6760  -26.9420   22.6330 C   0  0  0  0  0  2  0  0  0  0  0  0
  -19.5720  -26.6310   21.6170 C   0  0  0  0  0  2  0  0  0  0  0  0
  -18.1920  -26.7830   22.2630 C   0  0  0  0  0  2  0  0  0  0  0  0
  -19.1440  -28.8820   23.3780 C   0  0  0  0  0  0  0  0  0  0  0  0
  -18.9340  -30.1440   23.9760 C   0  0  0  0  0  3  0  0  0  0  0  0
  -17.6320  -30.6530   24.1450 C   0  0  0  0  0  3  0  0  0  0  0  0
  -16.5240  -29.8950   23.7280 C   0  0  0  0  0  3  0  0  0  0  0  0
  -16.7190  -28.6350   23.1350 C   0  0  0  0  0  3  0  0  0  0  0  0
  -25.8560  -32.5530   23.8900 C   0  0  0  0  0  3  0  0  0  0  0  0
  -26.3610  -31.7940   25.1800 C   0  0  1  0  0  0  0  0  0  0  0  0
  -25.2590  -31.5720   26.2410 C   0  0  0  0  0  1  0  0  0  0  0  0
  -26.9410  -30.4110   24.8040 C   0  0  0  0  0  1  0  0  0  0  0  0
  -27.5050  -32.5920   25.8460 C   0  0  0  0  0  1  0  0  0  0  0  0
  -25.5470  -33.9560   24.2010 N   0  0  0  0  0  0  0  0  0  0  0  0
  -25.8940  -34.9970   23.4330 C   0  0  0  0  0  0  0  0  0  0  0  0
  -26.5770  -34.8790   22.4110 O   0  0  0  0  0  0  0  0  0  0  0  0
  -24.9470  -34.1230   24.9950 H   0  0  0  0  0  0  0  0  0  0  0  0
  -24.1830  -36.7960   23.0270 C   0  0  0  0  0  1  0  0  0  0  0  0
  -25.4050  -36.3920   23.8670 C   0  0  0  0  0  3  0  0  0  0  0  0
  -27.5260  -37.2760   24.7320 C   0  0  0  0  0  1  0  0  0  0  0  0
  -26.4440  -37.4400   23.7650 N   0  0  0  0  0  0  0  0  0  0  0  0
  -26.0390  -38.3610   23.8980 H   0  0  0  0  0  0  0  0  0  0  0  0
  1  3  2  0
  2  1  1  0
  4  2  1  0
  6 11  1  0
  7  8  1  0
  7  6  1  0
  9  8  1  0
  9 22  1  0
  9 10  1  0
 11  5  1  0
 11 10  1  0
 12  5  2  0
 13 15  1  0
 13 14  1  0
 14 17  1  0
 15 18  1  0
 17  1  1  0
 17 16  1  0
 18  5  1  0
 18 16  1  0
 19 20  2  0
 20 21  1  0
 20 39  1  0
 21 24  1  0
 22 19  1  0
 22 23  1  0
 23 21  2  0
 24 25  1  0
 25 26  2  0
 27 30  1  0
 27 26  1  0
 28 27  2  0
 29 28  1  0
 29 24  2  0
 30 31  1  0
 31 32  1  0
 32 33  2  0
 34 33  1  0
 34 38  1  0
 35 34  2  0
 36 31  2  0
 36 35  1  0
 37 36  1  0
 39 40  1  0
 40 43  1  0
 40 42  1  0
 41 39  2  0
 44 45  1  0
 44 19  1  0
 46 44  1  0
 47  2  1  0
 47 48  1  0
 49 48  2  0
 49 50  1  0
 51 53  1  0
 51 50  1  0
 52 63  2  0
 53 58  1  0
 54 62  1  0
 54 64  1  0
 55 61  1  0
 55 57  1  0
 56 62  1  0
 57 56  1  0
 58 57  2  0
 59 53  2  0
 60 59  1  0
 60 55  2  0
 61 54  1  0
 62 52  1  0
 64 66  2  0
 65 64  1  0
 67 65  1  0
 68 77  2  0
 68 73  1  0
 69 65  1  0
 69 73  1  0
 70 69  1  0
 71 72  1  0
 71 70  1  0
 72 68  1  0
 73 74  2  0
 74 75  1  0
 76 75  2  0
 77 76  1  0
 78 52  1  0
 78 83  1  0
 78 79  1  0
 79 82  1  1
 79 80  1  0
 81 79  1  0
 83 86  1  0
 84 88  1  0
 84 83  1  0
 85 84  2  0
 88 87  1  0
 90 88  1  0
 90 91  1  0
 90 89  1  0
M  ISO  4   5 100  18 100  50 101  51 101
M  END
>  <TORSDO>  (96) 
F 19

>  <SCORE>  (96) 
-13.927

>  <name>  (96) 
96

>  <ligand_id>  (96) 
96

>  <original_smiles>  (96) 
[H]C(=C([H])C([H])([H])N([H])C(=O)C1([H])C([H])([H])N(C(=O)N2C([H])([H])C([H])([H])C([H])([H])C([H])(n3nc(-c4c([H])c([H])c(Oc5c([H])c([H])c(F)c([H])c5F)c([H])c4[H])c(C(=O)N([H])[H])c3N([H])[H])C2([H])[H])C([H])([H])C([H])([H])C1([H])[H])C([H])([H])Oc1c([H])c([H])c2c(c1[H])C([H])([H])N(C(=O)C([H])(N([H])C(=O)C([H])(N([H])C([H])([H])[H])C([H])([H])[H])C(C([H])([H])[H])(C([H])([H])[H])C([H])([H])[H])C([H])(C(=O)N([H])C1([H])c3c([H])c([H])c([H])c([H])c3C([H])([H])C([H])([H])C1([H])[H])C2([H])[H]

>  <smiles>  (96) 
[H]C(=C([H])C([H])([H])N([H])C(=O)C1([H])C([H])([H])N(C(=O)N2C([H])([H])C([H])([H])C([H])([H])C([H])(n3nc(-c4c([H])c([H])c(Oc5c([H])c([H])c(F)c([H])c5F)c([H])c4[H])c(C(=O)N([H])[H])c3N([H])[H])C2([H])[H])C([H])([H])C([H])([H])C1([H])[H])C([H])([H])Oc1c([H])c([H])c2c(c1[H])C([H])([H])N(C(=O)C([H])(N([H])C(=O)C([H])(N([H])C([H])([H])[H])C([H])([H])[H])C(C([H])([H])[H])(C([H])([H])[H])C([H])([H])[H])C([H])(C(=O)N([H])C1([H])c3c([H])c([H])c([H])c([H])c3C([H])([H])C([H])([H])C1([H])[H])C2([H])[H]

$$$$
97:0:0
     RDKit          3D

 91 99  0  0  1  0  0  0  0  0999 V2000
  -29.1380  -19.7810   17.9610 C   0  0  0  0  0  2  0  0  0  0  0  0
  -30.1320  -20.5450   18.8490 C   0  0  0  0  0  2  0  0  0  0  0  0
  -28.4880  -18.7170   18.8700 C   0  0  0  0  0  3  0  0  0  0  0  0
  -29.0920  -18.9610   20.2750 C   0  0  0  0  0  3  0  0  0  0  0  0
  -26.9510  -18.7480   18.8460 C   0  0  0  0  0  1  0  0  0  0  0  0
  -29.5590  -20.4800   20.2060 N   0  0  2  0  0  4  0  0  0  0  0  0
  -30.3000  -20.6070   20.8800 H   0  0  0  0  0  0  0  0  0  0  0  0
  -30.1730  -17.6860   20.5510 C   0  0  0  0  0  2  0  0  0  0  0  0
  -30.5730  -14.9680   20.4160 C   0  0  0  0  0  0  0  0  0  0  0  0
  -30.4610  -12.6240   19.4650 C   0  0  0  0  0  2  0  0  0  0  0  0
  -29.5290  -12.5650   18.2330 C   0  0  0  0  0  2  0  0  0  0  0  0
  -28.0650  -12.3560   18.6630 C   0  0  0  0  0  2  0  0  0  0  0  0
  -27.6500  -13.2800   19.8380 C   0  0  0  0  0  3  0  0  0  0  0  0
  -28.7030  -13.3000   20.9650 C   0  0  0  0  0  2  0  0  0  0  0  0
  -29.9730  -13.7120   20.3570 N   0  0  0  0  0  0  0  0  0  0  0  0
  -31.7770  -15.0370   20.1490 O   0  0  0  0  0  0  0  0  0  0  0  0
  -29.7970  -16.1470   20.5640 N   0  0  0  0  0  0  0  0  0  0  0  0
  -28.8170  -15.9630   20.7190 H   0  0  0  0  0  0  0  0  0  0  0  0
  -25.2660  -13.8400   20.5770 C   0  0  0  0  0  0  0  0  0  0  0  0
  -24.2050  -13.0570   20.9430 C   0  0  0  0  0  0  0  0  0  0  0  0
  -24.6770  -11.7090   20.9030 C   0  0  0  0  0  0  0  0  0  0  0  0
  -26.3140  -12.9700   20.3330 N   0  0  0  0  0  0  0  0  0  0  0  0
  -25.9700  -11.6830   20.5960 N   0  0  0  0  0  0  0  0  0  0  0  0
  -23.9570  -10.4410   21.0780 C   0  0  0  0  0  0  0  0  0  0  0  0
  -24.3950   -9.4660   22.0010 C   0  0  0  0  0  3  0  0  0  0  0  0
  -23.6730   -8.2640   22.1670 C   0  0  0  0  0  3  0  0  0  0  0  0
  -22.5010   -8.0290   21.4110 C   0  0  0  0  0  0  0  0  0  0  0  0
  -22.0830   -8.9930   20.4760 C   0  0  0  0  0  3  0  0  0  0  0  0
  -22.8040  -10.1870   20.3100 C   0  0  0  0  0  3  0  0  0  0  0  0
  -21.7510   -6.8820   21.4890 O   0  0  0  0  0  0  0  0  0  0  0  0
  -21.7040   -6.1280   22.6350 C   0  0  0  0  0  0  0  0  0  0  0  0
  -21.2670   -6.6680   23.8640 C   0  0  0  0  0  3  0  0  0  0  0  0
  -21.1660   -5.8400   25.0010 C   0  0  0  0  0  3  0  0  0  0  0  0
  -21.4940   -4.4740   24.9090 C   0  0  0  0  0  0  0  0  0  0  0  0
  -21.9230   -3.9330   23.6840 C   0  0  0  0  0  3  0  0  0  0  0  0
  -22.0250   -4.7580   22.5500 C   0  0  0  0  0  0  0  0  0  0  0  0
  -22.4190   -4.2270   21.3670 F   0  0  0  0  0  0  0  0  0  0  0  0
  -21.3920   -3.6760   25.9980 F   0  0  0  0  0  0  0  0  0  0  0  0
  -22.8050  -13.5250   21.2110 C   0  0  0  0  0  0  0  0  0  0  0  0
  -22.0790  -12.8220   22.0730 N   0  0  0  0  0  0  0  0  0  0  0  0
  -22.3630  -14.5480   20.6910 O   0  0  0  0  0  0  0  0  0  0  0  0
  -22.4520  -11.9950   22.5160 H   0  0  0  0  0  0  0  0  0  0  0  0
  -21.1380  -13.1150   22.2940 H   0  0  0  0  0  0  0  0  0  0  0  0
  -25.4200  -15.2110   20.3990 N   0  0  0  0  0  0  0  0  0  0  0  0
  -24.6320  -15.8460   20.4680 H   0  0  0  0  0  0  0  0  0  0  0  0
  -26.2320  -15.6350   19.9710 H   0  0  0  0  0  0  0  0  0  0  0  0
  -28.5670  -21.7110   20.4200 C   0  0  0  0  0  2  0  0  0  0  0  0
  -29.0180  -23.3420   20.3310 C   0  0  0  0  0  3  0  0  0  0  0  0
  -29.8840  -23.5260   21.3290 F   0  0  0  0  0  0  0  0  0  0  0  0
  -27.9510  -24.6500   20.3680 C   0  0  0  0  0  2  0  0  0  0  0  0
  -28.2510  -26.1830   20.2910 O   0  0  0  0  0  0  0  0  0  0  0  0
  -24.6410  -31.8860   23.2700 C   0  0  0  0  0  0  0  0  0  0  0  0
  -27.1940  -27.1640   20.2400 C   0  0  0  0  0  0  0  0  0  0  0  0
  -23.4330  -30.4940   21.6350 C   0  0  0  0  0  3  0  0  0  0  0  0
  -24.8720  -28.9170   20.2080 C   0  0  0  0  0  0  0  0  0  0  0  0
  -25.9870  -30.7540   21.4610 C   0  0  0  0  0  2  0  0  0  0  0  0
  -26.0540  -29.3600   20.8140 C   0  0  0  0  0  0  0  0  0  0  0  0
  -27.2160  -28.5000   20.8130 C   0  0  0  0  0  3  0  0  0  0  0  0
  -25.9860  -26.8290   19.5880 C   0  0  0  0  0  3  0  0  0  0  0  0
  -24.8500  -27.6660   19.5780 C   0  0  0  0  0  3  0  0  0  0  0  0
  -23.6470  -29.8160   20.2560 C   0  0  0  0  0  2  0  0  0  0  0  0
  -24.7080  -31.0670   22.1760 N   0  0  0  0  0  0  0  0  0  0  0  0
  -23.5570  -32.1740   23.8000 O   0  0  0  0  0  0  0  0  0  0  0  0
  -22.7540  -29.4890   22.5990 C   0  0  0  0  0  0  0  0  0  0  0  0
  -21.4260  -29.3160   22.4700 N   0  0  0  0  0  0  0  0  0  0  0  0
  -23.4250  -28.8660   23.4250 O   0  0  0  0  0  0  0  0  0  0  0  0
  -20.9410  -29.8680   21.7770 H   0  0  0  0  0  0  0  0  0  0  0  0
  -18.0470  -28.1070   22.9650 C   0  0  0  0  0  0  0  0  0  0  0  0
  -20.6040  -28.3820   23.2430 C   0  0  0  0  0  3  0  0  0  0  0  0
  -20.7140  -26.9460   22.6810 C   0  0  0  0  0  2  0  0  0  0  0  0
  -19.6190  -26.6100   21.6640 C   0  0  0  0  0  2  0  0  0  0  0  0
  -18.2330  -26.7540   22.2990 C   0  0  0  0  0  2  0  0  0  0  0  0
  -19.1600  -28.8780   23.3940 C   0  0  0  0  0  0  0  0  0  0  0  0
  -18.9320  -30.1420   23.9790 C   0  0  0  0  0  3  0  0  0  0  0  0
  -17.6240  -30.6380   24.1370 C   0  0  0  0  0  3  0  0  0  0  0  0
  -16.5240  -29.8640   23.7230 C   0  0  0  0  0  3  0  0  0  0  0  0
  -16.7370  -28.6010   23.1420 C   0  0  0  0  0  3  0  0  0  0  0  0
  -25.9220  -32.5180   23.8920 C   0  0  0  0  0  3  0  0  0  0  0  0
  -26.4330  -31.7510   25.1740 C   0  0  1  0  0  0  0  0  0  0  0  0
  -25.3370  -31.5210   26.2410 C   0  0  0  0  0  1  0  0  0  0  0  0
  -27.0100  -30.3680   24.7910 C   0  0  0  0  0  1  0  0  0  0  0  0
  -27.5880  -32.5420   25.8320 C   0  0  0  0  0  1  0  0  0  0  0  0
  -25.6150  -33.9190   24.2230 N   0  0  0  0  0  0  0  0  0  0  0  0
  -25.9330  -34.9730   23.4600 C   0  0  0  0  0  0  0  0  0  0  0  0
  -26.5840  -34.8690   22.4170 O   0  0  0  0  0  0  0  0  0  0  0  0
  -25.0380  -34.0740   25.0380 H   0  0  0  0  0  0  0  0  0  0  0  0
  -24.1960  -36.7660   23.1450 C   0  0  0  0  0  1  0  0  0  0  0  0
  -25.4570  -36.3640   23.9260 C   0  0  0  0  0  3  0  0  0  0  0  0
  -27.6090  -37.2540   24.7050 C   0  0  0  0  0  1  0  0  0  0  0  0
  -26.4850  -37.4180   23.7850 N   0  0  0  0  0  0  0  0  0  0  0  0
  -26.0820  -38.3370   23.9380 H   0  0  0  0  0  0  0  0  0  0  0  0
  1  2  1  0
  1  3  1  0
  2  6  1  0
  3  5  1  0
  3  4  1  0
  4  8  1  0
  6  4  1  0
  6 47  1  0
  6  7  1  1
  8 17  1  0
  9 17  1  0
 10 15  1  0
 11 12  1  0
 11 10  1  0
 13 12  1  0
 13 22  1  0
 13 14  1  0
 15  9  1  0
 15 14  1  0
 16  9  2  0
 17 18  1  0
 19 20  2  0
 20 39  1  0
 21 20  1  0
 21 24  1  0
 22 19  1  0
 22 23  1  0
 23 21  2  0
 24 25  1  0
 25 26  2  0
 27 30  1  0
 27 26  1  0
 28 27  2  0
 29 28  1  0
 29 24  2  0
 30 31  1  0
 31 32  1  0
 32 33  2  0
 34 33  1  0
 34 38  1  0
 35 34  2  0
 36 31  2  0
 36 35  1  0
 37 36  1  0
 39 40  1  0
 40 43  1  0
 40 42  1  0
 41 39  2  0
 44 45  1  0
 44 19  1  0
 46 44  1  0
 48 50  1  0
 48 47  1  0
 48 49  1  0
 51 50  1  0
 52 63  2  0
 53 51  1  0
 53 58  1  0
 54 62  1  0
 54 64  1  0
 55 61  1  0
 55 57  1  0
 56 62  1  0
 57 56  1  0
 58 57  2  0
 59 53  2  0
 60 59  1  0
 60 55  2  0
 61 54  1  0
 62 52  1  0
 64 66  2  0
 65 64  1  0
 67 65  1  0
 68 77  2  0
 68 73  1  0
 69 65  1  0
 69 73  1  0
 70 69  1  0
 71 72  1  0
 71 70  1  0
 72 68  1  0
 73 74  2  0
 74 75  1  0
 76 75  2  0
 77 76  1  0
 78 52  1  0
 78 83  1  0
 78 79  1  0
 79 82  1  1
 79 80  1  0
 81 79  1  0
 83 86  1  0
 84 88  1  0
 84 83  1  0
 85 84  2  0
 88 87  1  0
 90 88  1  0
 90 91  1  0
 90 89  1  0
M  ISO  4   9 100  17 100  50 101  51 101
M  END
>  <TORSDO>  (97) 
F 20

>  <SCORE>  (97) 
-15.006

>  <name>  (97) 
97

>  <ligand_id>  (97) 
97

>  <original_smiles>  (97) 
[H]c1c([H])c([H])c2c(c1[H])C([H])([H])C([H])([H])C([H])([H])C2([H])N([H])C(=O)C1([H])N(C(=O)C([H])(N([H])C(=O)C([H])(N([H])C([H])([H])[H])C([H])([H])[H])C(C([H])([H])[H])(C([H])([H])[H])C([H])([H])[H])C([H])([H])c2c([H])c(OC([H])([H])C([H])(F)C([H])([H])[N+]3([H])C([H])([H])C([H])([H])C([H])(C([H])([H])[H])C3([H])C([H])([H])N([H])C(=O)N3C([H])([H])C([H])([H])C([H])([H])C([H])(n4nc(-c5c([H])c([H])c(Oc6c([H])c([H])c(F)c([H])c6F)c([H])c5[H])c(C(=O)N([H])[H])c4N([H])[H])C3([H])[H])c([H])c([H])c2C1([H])[H]

>  <smiles>  (97) 
[H]c1c([H])c([H])c2c(c1[H])C([H])([H])C([H])([H])C([H])([H])C2([H])N([H])C(=O)C1([H])N(C(=O)C([H])(N([H])C(=O)C([H])(N([H])C([H])([H])[H])C([H])([H])[H])C(C([H])([H])[H])(C([H])([H])[H])C([H])([H])[H])C([H])([H])c2c([H])c(OC([H])([H])C([H])(F)C([H])([H])[N+]3([H])C([H])([H])C([H])([H])C([H])(C([H])([H])[H])C3([H])C([H])([H])N([H])C(=O)N3C([H])([H])C([H])([H])C([H])([H])C([H])(n4nc(-c5c([H])c([H])c(Oc6c([H])c([H])c(F)c([H])c6F)c([H])c5[H])c(C(=O)N([H])[H])c4N([H])[H])C3([H])[H])c([H])c([H])c2C1([H])[H]

$$$$
98:0:0
     RDKit          3D

 94 95  0  0  1  0  0  0  0  0999 V2000
  -22.6650  -27.9460   23.4260 C   0  0  0  0  0  2  0  0  0  0  0  0
  -23.8010  -25.8430   23.2300 C   0  0  0  0  0 15  0  0  0  0  0  0
  -22.7150  -26.8640   19.6980 C   0  0  0  0  0 15  0  0  0  0  0  0
  -21.9920  -28.5930   20.9500 C   0  0  0  0  0  1  0  0  0  0  0  0
  -24.5640  -24.4550   21.6510 C   0  0  0  0  0  1  0  0  0  0  0  0
  -23.7160  -25.2970   20.2400 N   0  0  0  0  0  0  0  0  0  0  0  0
  -20.8440  -29.0990   20.4780 F   0  0  0  0  0  0  0  0  0  0  0  0
  -22.8490  -24.9020   20.5700 H   0  0  0  0  0  0  0  0  0  0  0  0
  -25.9290  -22.2530   21.4960 C   0  0  0  0  0 15  0  0  0  0  0  0
  -27.5050  -20.4050   20.6620 C   0  0  0  0  0 15  0  0  0  0  0  0
  -29.6680  -16.9230   19.9870 C   0  0  0  0  0  0  0  0  0  0  0  0
  -30.6960  -14.2870   18.9160 C   0  0  0  0  0  2  0  0  0  0  0  0
  -30.0850  -13.2450   17.8510 C   0  0  0  0  0  2  0  0  0  0  0  0
  -28.8540  -12.5190   18.3900 C   0  0  0  0  0  2  0  0  0  0  0  0
  -28.1860  -13.5190   19.3360 C   0  0  0  0  0  3  0  0  0  0  0  0
  -29.0680  -14.1740   20.4250 C   0  0  0  0  0  2  0  0  0  0  0  0
  -29.7170  -15.3230   19.7510 N   0  0  0  0  0  0  0  0  0  0  0  0
  -30.9200  -16.9380   19.6290 O   0  0  0  0  0  0  0  0  0  0  0  0
  -28.5070  -18.3670   20.4190 N   0  0  0  0  0  2  0  0  0  0  0  0
  -29.3900  -18.8600   20.4910 H   0  0  0  0  0  0  0  0  0  0  0  0
  -26.0410  -14.0020   20.4270 C   0  0  0  0  0  0  0  0  0  0  0  0
  -25.0330  -13.2190   20.8830 C   0  0  0  0  0  0  0  0  0  0  0  0
  -25.4380  -11.8680   20.6430 C   0  0  0  0  0  0  0  0  0  0  0  0
  -26.9690  -13.1200   19.9290 N   0  0  0  0  0  0  0  0  0  0  0  0
  -26.6560  -11.8210   20.1200 N   0  0  0  0  0  0  0  0  0  0  0  0
  -24.6970  -10.6220   20.8160 C   0  0  0  0  0  0  0  0  0  0  0  0
  -25.1290   -9.6200   21.7090 C   0  0  0  0  0  3  0  0  0  0  0  0
  -24.3720   -8.4410   21.8700 C   0  0  0  0  0  3  0  0  0  0  0  0
  -23.1760   -8.2610   21.1350 C   0  0  0  0  0  0  0  0  0  0  0  0
  -22.7690   -9.2540   20.2260 C   0  0  0  0  0  3  0  0  0  0  0  0
  -23.5250  -10.4240   20.0640 C   0  0  0  0  0  3  0  0  0  0  0  0
  -22.3870   -7.1410   21.2080 O   0  0  0  0  0  0  0  0  0  0  0  0
  -22.0790   -6.5580   22.4110 C   0  0  0  0  0  0  0  0  0  0  0  0
  -21.4160   -7.2690   23.4350 C   0  0  0  0  0  3  0  0  0  0  0  0
  -21.0550   -6.6100   24.6280 C   0  0  0  0  0  3  0  0  0  0  0  0
  -21.3510   -5.2430   24.7930 C   0  0  0  0  0  0  0  0  0  0  0  0
  -22.0070   -4.5340   23.7730 C   0  0  0  0  0  3  0  0  0  0  0  0
  -22.3680   -5.1900   22.5830 C   0  0  0  0  0  0  0  0  0  0  0  0
  -22.9810   -4.5000   21.5910 F   0  0  0  0  0  0  0  0  0  0  0  0
  -20.9980   -4.6070   25.9340 F   0  0  0  0  0  0  0  0  0  0  0  0
  -23.7300  -13.7220   21.4110 C   0  0  0  0  0  0  0  0  0  0  0  0
  -23.1650  -13.0300   22.3910 N   0  0  0  0  0  0  0  0  0  0  0  0
  -23.2390  -14.7690   20.9940 O   0  0  0  0  0  0  0  0  0  0  0  0
  -23.5900  -12.1860   22.7470 H   0  0  0  0  0  0  0  0  0  0  0  0
  -22.2950  -13.3500   22.7930 H   0  0  0  0  0  0  0  0  0  0  0  0
  -26.2400  -15.3830   20.3710 N   0  0  0  0  0  0  0  0  0  0  0  0
  -25.5340  -16.0380   20.6870 H   0  0  0  0  0  0  0  0  0  0  0  0
  -27.0280  -15.8370   19.9280 H   0  0  0  0  0  0  0  0  0  0  0  0
  -23.8980  -24.3480   19.0810 C   0  0  0  0  0  2  0  0  0  0  0  0
  -25.1840  -24.4050   18.1780 C   0  0  0  0  0  2  0  0  0  0  0  0
  -26.5830  -23.8700   18.6970 C   0  0  0  0  0  2  0  0  0  0  0  0
  -27.5220  -25.0330   18.9380 C   0  0  0  0  0  2  0  0  0  0  0  0
  -28.4670  -25.4320   20.1100 C   0  0  0  0  0  2  0  0  0  0  0  0
  -28.8650  -26.8540   20.1250 O   0  0  0  0  0  0  0  0  0  0  0  0
  -24.9160  -31.8840   23.3210 C   0  0  0  0  0  0  0  0  0  0  0  0
  -27.8610  -27.8090   20.0230 C   0  0  0  0  0  0  0  0  0  0  0  0
  -24.0750  -30.2480   21.6290 C   0  0  0  0  0  3  0  0  0  0  0  0
  -25.5690  -29.4170   19.9260 C   0  0  0  0  0  0  0  0  0  0  0  0
  -26.4700  -31.0250   21.5920 C   0  0  0  0  0  2  0  0  0  0  0  0
  -26.6420  -29.7780   20.7570 C   0  0  0  0  0  0  0  0  0  0  0  0
  -27.7680  -28.9310   20.8710 C   0  0  0  0  0  3  0  0  0  0  0  0
  -26.8980  -27.7260   18.9940 C   0  0  0  0  0  3  0  0  0  0  0  0
  -25.6690  -28.3500   19.0550 C   0  0  0  0  0  3  0  0  0  0  0  0
  -24.2910  -30.1590   20.0970 C   0  0  0  0  0  2  0  0  0  0  0  0
  -25.1320  -31.1280   22.2070 N   0  0  0  0  0  0  0  0  0  0  0  0
  -23.7780  -32.0770   23.7740 O   0  0  0  0  0  0  0  0  0  0  0  0
  -24.2030  -28.7520   22.2560 C   0  0  0  0  0  0  0  0  0  0  0  0
  -23.4360  -27.4800   22.1340 N   0  0  0  0  0  0  0  0  0  0  0  0
  -24.9700  -28.7130   23.1830 O   0  0  0  0  0  0  0  0  0  0  0  0
  -24.0600  -26.7740   22.5030 H   0  0  0  0  0  0  0  0  0  0  0  0
  -18.5030  -27.9550   23.0000 C   0  0  0  0  0  0  0  0  0  0  0  0
  -21.2680  -26.8230   22.8150 C   0  0  0  0  0  3  0  0  0  0  0  0
  -20.4330  -25.8080   22.1880 C   0  0  0  0  0  2  0  0  0  0  0  0
  -19.3310  -26.3730   21.3220 C   0  0  0  0  0  2  0  0  0  0  0  0
  -18.1680  -26.7670   22.1870 C   0  0  0  0  0  2  0  0  0  0  0  0
  -19.8960  -28.1200   23.3690 C   0  0  0  0  0  0  0  0  0  0  0  0
  -19.9250  -29.5460   23.8790 C   0  0  0  0  0  3  0  0  0  0  0  0
  -18.8100  -30.4750   24.0560 C   0  0  0  0  0  3  0  0  0  0  0  0
  -17.4940  -30.0970   23.7640 C   0  0  0  0  0  3  0  0  0  0  0  0
  -17.3740  -28.8210   23.2170 C   0  0  0  0  0  3  0  0  0  0  0  0
  -26.1140  -32.5280   24.0840 C   0  0  0  0  0  3  0  0  0  0  0  0
  -25.7350  -33.8950   24.4650 N   0  0  0  0  0  0  0  0  0  0  0  0
  -26.0360  -34.9900   23.7540 C   0  0  0  0  0  0  0  0  0  0  0  0
  -26.7110  -34.9550   22.7210 O   0  0  0  0  0  0  0  0  0  0  0  0
  -25.1310  -33.9950   25.2690 H   0  0  0  0  0  0  0  0  0  0  0  0
  -24.2070  -36.7010   23.5400 C   0  0  0  0  0  1  0  0  0  0  0  0
  -25.5080  -36.3420   24.2750 C   0  0  0  0  0  3  0  0  0  0  0  0
  -27.6300  -37.3180   25.0310 C   0  0  0  0  0  1  0  0  0  0  0  0
  -26.4810  -37.4470   24.1370 N   0  0  0  0  0  0  0  0  0  0  0  0
  -26.0360  -38.3420   24.3240 H   0  0  0  0  0  0  0  0  0  0  0  0
  -26.5570  -31.6930   25.3500 C   0  0  1  0  0  0  0  0  0  0  0  0
  -25.3710  -31.1170   26.1580 C   0  0  0  0  0  1  0  0  0  0  0  0
  -27.4830  -30.5170   24.9650 C   0  0  0  0  0  1  0  0  0  0  0  0
  -27.3990  -32.5760   26.2980 C   0  0  0  0  0  1  0  0  0  0  0  0
  6  8  1  0
  6  5  1  0
  7  4  1  0
 11 19  1  0
 12 17  1  0
 13 14  1  0
 13 12  1  0
 15 14  1  0
 15 24  1  0
 15 16  1  0
 17 11  1  0
 17 16  1  0
 18 11  2  0
 19 20  1  0
 21 22  2  0
 22 41  1  0
 23 26  1  0
 23 22  1  0
 24 25  1  0
 24 21  1  0
 25 23  2  0
 26 27  1  0
 27 28  2  0
 29 32  1  0
 29 28  1  0
 30 29  2  0
 31 30  1  0
 31 26  2  0
 32 33  1  0
 33 38  2  0
 33 34  1  0
 34 35  2  0
 35 36  1  0
 36 40  1  0
 37 36  2  0
 38 37  1  0
 39 38  1  0
 41 42  1  0
 42 44  1  0
 42 45  1  0
 43 41  2  0
 46 21  1  0
 46 47  1  0
 48 46  1  0
 49  6  1  0
 50 51  1  0
 50 49  1  0
 51 52  1  0
 52 53  1  0
 53 54  1  0
 55 66  2  0
 56 54  1  0
 56 61  1  0
 57 65  1  0
 57 67  1  0
 58 64  1  0
 58 60  1  0
 59 65  1  0
 60 61  2  0
 60 59  1  0
 62 63  1  0
 62 56  2  0
 63 58  2  0
 64 57  1  0
 65 55  1  0
 67 69  2  0
 68 67  1  0
 68 70  1  0
 68  1  1  0
 71 80  2  0
 71 76  1  0
 72 76  1  0
 72  1  1  0
 73 72  1  0
 74 75  1  0
 74 73  1  0
 75 71  1  0
 76 77  2  0
 77 78  1  0
 79 78  2  0
 80 79  1  0
 81 55  1  0
 81 82  1  0
 81 91  1  0
 82 85  1  0
 83 87  1  0
 83 82  1  0
 84 83  2  0
 87 86  1  0
 89 87  1  0
 89 90  1  0
 89 88  1  0
 91 92  1  1
 91 94  1  0
 93 91  1  0
M  ISO  4  11 100  19 100  53 101  54 101
M  END
>  <TORSDO>  (98) 
F 23

>  <SCORE>  (98) 
-9.895

>  <name>  (98) 
98

>  <ligand_id>  (98) 
98

>  <original_smiles>  (98) 
[H]c1c([H])c([H])c2c(c1[H])C([H])([H])C([H])([H])C([H])([H])C2([H])N([H])C(=O)C1([H])N(C(=O)C([H])(N([H])C(=O)C([H])(N([H])C([H])([H])[H])C([H])([H])[H])C(C([H])([H])[H])(C([H])([H])[H])C([H])([H])[H])C([H])([H])c2c([H])c(OC([H])([H])C([H])([H])C([H])([H])C([H])([H])C([H])([H])[N+]3([H])C([H])([H])C([H])(F)C([H])([H])C([H])([H])C3([H])C([H])([H])C([H])([H])N([H])C(=O)N3C([H])([H])C([H])([H])C([H])([H])C([H])(n4nc(-c5c([H])c([H])c(Oc6c([H])c([H])c(F)c([H])c6F)c([H])c5[H])c(C(=O)N([H])[H])c4N([H])[H])C3([H])[H])c([H])c([H])c2C1([H])[H]

>  <smiles>  (98) 
[H]c1c([H])c([H])c2c(c1[H])C([H])([H])C([H])([H])C([H])([H])C2([H])N([H])C(=O)C1([H])N(C(=O)C([H])(N([H])C(=O)C([H])(N([H])C([H])([H])[H])C([H])([H])[H])C(C([H])([H])[H])(C([H])([H])[H])C([H])([H])[H])C([H])([H])c2c([H])c(OC([H])([H])C([H])([H])C([H])([H])C([H])([H])C([H])([H])[N+]3([H])C([H])([H])C([H])(F)C([H])([H])C([H])([H])C3([H])C([H])([H])C([H])([H])N([H])C(=O)N3C([H])([H])C([H])([H])C([H])([H])C([H])(n4nc(-c5c([H])c([H])c(Oc6c([H])c([H])c(F)c([H])c6F)c([H])c5[H])c(C(=O)N([H])[H])c4N([H])[H])C3([H])[H])c([H])c([H])c2C1([H])[H]

$$$$
