0:0:0
     RDKit          3D

 97105  0  0  1  0  0  0  0  0999 V2000
  -25.5470  -21.9190   19.8660 C   0  0  0  0  0  2  0  0  0  0  0  0
  -26.9680  -21.3520   19.6560 C   0  0  0  0  0  2  0  0  0  0  0  0
  -28.3590  -19.6850   20.7710 C   0  0  0  0  0  2  0  0  0  0  0  0
  -26.8710  -18.9610   19.0190 C   0  0  0  0  0  2  0  0  0  0  0  0
  -29.5490  -19.6260   19.7830 C   0  0  0  0  0  2  0  0  0  0  0  0
  -28.0650  -18.8360   18.0310 C   0  0  0  0  0  2  0  0  0  0  0  0
  -27.0850  -19.9550   20.0870 N   0  0  0  0  0  0  0  0  0  0  0  0
  -29.3450  -18.5900   18.7400 N   0  0  2  0  0  4  0  0  0  0  0  0
  -30.0860  -18.7370   18.0720 H   0  0  0  0  0  0  0  0  0  0  0  0
  -29.5220  -17.1960   19.2270 C   0  0  0  0  0  2  0  0  0  0  0  0
  -30.8500  -16.5500   18.7710 C   0  0  0  0  0  2  0  0  0  0  0  0
  -31.5130  -14.1450   18.9350 C   0  0  0  0  0  0  0  0  0  0  0  0
  -31.2390  -11.6940   18.8390 C   0  0  0  0  0  2  0  0  0  0  0  0
  -30.1440  -11.3380   17.8130 C   0  0  0  0  0  2  0  0  0  0  0  0
  -28.7460  -11.3910   18.4630 C   0  0  0  0  0  2  0  0  0  0  0  0
  -28.5020  -12.6990   19.2590 C   0  0  0  0  0  3  0  0  0  0  0  0
  -29.6910  -12.9670   20.2110 C   0  0  0  0  0  2  0  0  0  0  0  0
  -30.9310  -13.0120   19.4070 N   0  0  0  0  0  0  0  0  0  0  0  0
  -32.4060  -14.1690   18.0850 O   0  0  0  0  0  0  0  0  0  0  0  0
  -30.9720  -15.2580   19.4330 N   0  0  0  0  0  0  0  0  0  0  0  0
  -30.3690  -15.0980   20.2250 H   0  0  0  0  0  0  0  0  0  0  0  0
  -26.4790  -13.6910   20.5200 C   0  0  0  0  0  0  0  0  0  0  0  0
  -25.3460  -13.1140   21.0240 C   0  0  0  0  0  0  0  0  0  0  0  0
  -25.4500  -11.7200   20.7340 C   0  0  0  0  0  0  0  0  0  0  0  0
  -27.2260  -12.6560   19.9750 N   0  0  0  0  0  0  0  0  0  0  0  0
  -26.6120  -11.4580   20.1490 N   0  0  0  0  0  0  0  0  0  0  0  0
  -24.4890  -10.6270   20.9250 C   0  0  0  0  0  0  0  0  0  0  0  0
  -24.7960   -9.5070   21.7310 C   0  0  0  0  0  3  0  0  0  0  0  0
  -23.8510   -8.4740   21.9120 C   0  0  0  0  0  3  0  0  0  0  0  0
  -22.5820   -8.5580   21.2900 C   0  0  0  0  0  0  0  0  0  0  0  0
  -22.2900   -9.6640   20.4730 C   0  0  0  0  0  3  0  0  0  0  0  0
  -23.2340  -10.6860   20.2890 C   0  0  0  0  0  3  0  0  0  0  0  0
  -21.6080   -7.5950   21.3890 O   0  0  0  0  0  0  0  0  0  0  0  0
  -21.4610   -6.8380   22.5230 C   0  0  0  0  0  0  0  0  0  0  0  0
  -21.1700   -7.4210   23.7770 C   0  0  0  0  0  3  0  0  0  0  0  0
  -20.9570   -6.5990   24.9020 C   0  0  0  0  0  3  0  0  0  0  0  0
  -21.0280   -5.1990   24.7750 C   0  0  0  0  0  0  0  0  0  0  0  0
  -21.3140   -4.6180   23.5280 C   0  0  0  0  0  3  0  0  0  0  0  0
  -21.5270   -5.4360   22.4050 C   0  0  0  0  0  0  0  0  0  0  0  0
  -21.7810   -4.8700   21.2000 F   0  0  0  0  0  0  0  0  0  0  0  0
  -20.8140   -4.4110   25.8540 F   0  0  0  0  0  0  0  0  0  0  0  0
  -24.1780  -13.8250   21.6490 C   0  0  0  0  0  0  0  0  0  0  0  0
  -23.4850  -13.1710   22.5720 N   0  0  0  0  0  0  0  0  0  0  0  0
  -23.9020  -14.9870   21.3470 O   0  0  0  0  0  0  0  0  0  0  0  0
  -23.7200  -12.2220   22.8260 H   0  0  0  0  0  0  0  0  0  0  0  0
  -22.7070  -13.6220   23.0340 H   0  0  0  0  0  0  0  0  0  0  0  0
  -26.9300  -15.0080   20.4640 N   0  0  0  0  0  0  0  0  0  0  0  0
  -26.3380  -15.7750   20.7640 H   0  0  0  0  0  0  0  0  0  0  0  0
  -27.6810  -15.3040   19.8570 H   0  0  0  0  0  0  0  0  0  0  0  0
  -25.5070  -23.4640   19.8810 C   0  0  0  0  0  2  0  0  0  0  0  0
  -25.3850  -24.0630   18.5330 N   0  0  0  0  0  4  0  0  0  0  0  0
  -25.0150  -24.9930   18.6410 H   0  0  0  0  0  0  0  0  0  0  0  0
  -24.6860  -23.5350   18.0310 H   0  0  0  0  0  0  0  0  0  0  0  0
  -26.6240  -24.1170   17.7160 C   0  0  0  0  0  2  0  0  0  0  0  0
  -27.7390  -25.0160   18.3200 C   0  0  0  0  0  2  0  0  0  0  0  0
  -28.0150  -26.3030   17.4970 C   0  0  0  0  0  2  0  0  0  0  0  0
  -28.0160  -27.4940   18.2890 O   0  0  0  0  0  0  0  0  0  0  0  0
  -24.5200  -31.2300   23.1990 C   0  0  0  0  0  0  0  0  0  0  0  0
  -26.8130  -28.0780   18.6230 C   0  0  0  0  0  0  0  0  0  0  0  0
  -23.1240  -30.2590   21.4040 C   0  0  0  0  0  3  0  0  0  0  0  0
  -24.3860  -29.3110   19.4040 C   0  0  0  0  0  0  0  0  0  0  0  0
  -25.5730  -30.8490   20.9730 C   0  0  0  0  0  2  0  0  0  0  0  0
  -25.6010  -29.7300   19.9600 C   0  0  0  0  0  0  0  0  0  0  0  0
  -26.8120  -29.1150   19.5790 C   0  0  0  0  0  3  0  0  0  0  0  0
  -25.5760  -27.6820   18.0560 C   0  0  0  0  0  3  0  0  0  0  0  0
  -24.3690  -28.2800   18.4530 C   0  0  0  0  0  3  0  0  0  0  0  0
  -23.1340  -30.0150   19.8720 C   0  0  0  0  0  2  0  0  0  0  0  0
  -24.4310  -30.7810   21.9130 N   0  0  0  0  0  0  0  0  0  0  0  0
  -23.5250  -31.2580   23.9370 O   0  0  0  0  0  0  0  0  0  0  0  0
  -22.6630  -28.9620   22.1060 C   0  0  0  0  0  0  0  0  0  0  0  0
  -21.3760  -28.6190   21.9370 N   0  0  0  0  0  0  0  0  0  0  0  0
  -23.4560  -28.2760   22.7540 O   0  0  0  0  0  0  0  0  0  0  0  0
  -20.7900  -29.2330   21.3890 H   0  0  0  0  0  0  0  0  0  0  0  0
  -18.3080  -26.7120   21.9210 C   0  0  0  0  0  0  0  0  0  0  0  0
  -20.7320  -27.4200   22.4710 C   0  0  0  0  0  3  0  0  0  0  0  0
  -21.1720  -26.1600   21.6910 C   0  0  0  0  0  2  0  0  0  0  0  0
  -20.2260  -25.8030   20.5410 C   0  0  0  0  0  2  0  0  0  0  0  0
  -18.8090  -25.5600   21.0650 C   0  0  0  0  0  2  0  0  0  0  0  0
  -19.2110  -27.5950   22.5670 C   0  0  0  0  0  0  0  0  0  0  0  0
  -18.6970  -28.6740   23.3200 C   0  0  0  0  0  3  0  0  0  0  0  0
  -17.3090  -28.8740   23.4350 C   0  0  0  0  0  3  0  0  0  0  0  0
  -16.4180  -27.9870   22.8070 C   0  0  0  0  0  3  0  0  0  0  0  0
  -16.9180  -26.9070   22.0570 C   0  0  0  0  0  3  0  0  0  0  0  0
  -25.8660  -31.7500   23.7920 C   0  0  0  0  0  3  0  0  0  0  0  0
  -26.5020  -30.7710   24.8530 C   0  0  1  0  0  0  0  0  0  0  0  0
  -25.5240  -30.3490   25.9760 C   0  0  0  0  0  1  0  0  0  0  0  0
  -27.0160  -29.4830   24.1680 C   0  0  0  0  0  1  0  0  0  0  0  0
  -27.7320  -31.4410   25.5120 C   0  0  0  0  0  1  0  0  0  0  0  0
  -25.6010  -33.0640   24.3900 N   0  0  0  0  0  0  0  0  0  0  0  0
  -25.9210  -34.2370   23.8270 C   0  0  0  0  0  0  0  0  0  0  0  0
  -26.5480  -34.3200   22.7670 O   0  0  0  0  0  0  0  0  0  0  0  0
  -25.0440  -33.0710   25.2320 H   0  0  0  0  0  0  0  0  0  0  0  0
  -24.2500  -36.1180   23.8500 C   0  0  0  0  0  1  0  0  0  0  0  0
  -25.4790  -35.5220   24.5560 C   0  0  0  0  0  3  0  0  0  0  0  0
  -27.6410  -36.1550   25.5320 C   0  0  0  0  0  1  0  0  0  0  0  0
  -26.5460  -36.5430   24.6470 N   0  0  0  0  0  0  0  0  0  0  0  0
  -26.1730  -37.4290   24.9750 H   0  0  0  0  0  0  0  0  0  0  0  0
  1 50  1  0
  2  1  1  0
  2  7  1  0
  4  7  1  0
  5  3  1  0
  6  8  1  0
  6  4  1  0
  7  3  1  0
  8 10  1  0
  8  5  1  0
  8  9  1  6
 11 10  1  0
 11 20  1  0
 12 18  1  0
 12 20  1  0
 13 18  1  0
 14 15  1  0
 14 13  1  0
 16 15  1  0
 16 25  1  0
 16 17  1  0
 18 17  1  0
 19 12  2  0
 20 21  1  0
 22 23  2  0
 23 42  1  0
 24 27  1  0
 24 23  1  0
 25 26  1  0
 25 22  1  0
 26 24  2  0
 27 28  1  0
 28 29  2  0
 30 33  1  0
 30 29  1  0
 31 30  2  0
 32 31  1  0
 32 27  2  0
 33 34  1  0
 34 35  1  0
 35 36  2  0
 37 36  1  0
 37 41  1  0
 38 37  2  0
 39 34  2  0
 39 38  1  0
 40 39  1  0
 42 43  1  0
 43 45  1  0
 43 46  1  0
 44 42  2  0
 47 22  1  0
 47 48  1  0
 49 47  1  0
 51 52  1  0
 51 50  1  0
 53 51  1  0
 54 55  1  0
 54 51  1  0
 56 57  1  0
 56 55  1  0
 57 59  1  0
 58 69  2  0
 59 64  1  0
 60 68  1  0
 60 70  1  0
 61 67  1  0
 61 63  1  0
 62 68  1  0
 63 62  1  0
 64 63  2  0
 65 66  1  0
 65 59  2  0
 66 61  2  0
 67 60  1  0
 68 58  1  0
 70 72  2  0
 71 70  1  0
 73 71  1  0
 74 83  2  0
 74 79  1  0
 75 71  1  0
 75 79  1  0
 76 75  1  0
 77 78  1  0
 77 76  1  0
 78 74  1  0
 79 80  2  0
 80 81  1  0
 82 81  2  0
 83 82  1  0
 84 58  1  0
 84 89  1  0
 84 85  1  0
 85 88  1  1
 85 86  1  0
 87 85  1  0
 89 92  1  0
 90 89  1  0
 90 94  1  0
 91 90  2  0
 94 93  1  0
 94 96  1  0
 96 97  1  0
 96 95  1  0
M  ISO  4  12 100  20 100  56 101  57 101
M  END
>  <TORSDO>  (1) 
F 25

>  <SCORE>  (1) 
-7.093

>  <name>  (1) 
0

>  <ligand_id>  (1) 
0

>  <original_smiles>  (1) 
[H]c1c([H])c([H])c2c(c1[H])C([H])([H])C([H])([H])C([H])([H])C2([H])N([H])C(=O)C1([H])N(C(=O)C([H])(N([H])C(=O)C([H])(N([H])C([H])([H])[H])C([H])([H])[H])C(C([H])([H])[H])(C([H])([H])[H])C([H])([H])[H])C([H])([H])c2c([H])c(OC([H])([H])C([H])([H])C([H])([H])[N+]([H])([H])C([H])([H])C([H])([H])C([H])([H])N3C([H])([H])C([H])([H])[N+]([H])(C([H])([H])C([H])([H])N([H])C(=O)N4C([H])([H])C([H])([H])C([H])([H])C([H])(n5nc(-c6c([H])c([H])c(Oc7c([H])c([H])c(F)c([H])c7F)c([H])c6[H])c(C(=O)N([H])[H])c5N([H])[H])C4([H])[H])C([H])([H])C3([H])[H])c([H])c([H])c2C1([H])[H]

>  <smiles>  (1) 
[H]c1c([H])c([H])c2c(c1[H])C([H])([H])C([H])([H])C([H])([H])C2([H])N([H])C(=O)C1([H])N(C(=O)C([H])(N([H])C(=O)C([H])(N([H])C([H])([H])[H])C([H])([H])[H])C(C([H])([H])[H])(C([H])([H])[H])C([H])([H])[H])C([H])([H])c2c([H])c(OC([H])([H])C([H])([H])C([H])([H])[N+]([H])([H])C([H])([H])C([H])([H])C([H])([H])N3C([H])([H])C([H])([H])[N+]([H])(C([H])([H])C([H])([H])N([H])C(=O)N4C([H])([H])C([H])([H])C([H])([H])C([H])(n5nc(-c6c([H])c([H])c(Oc7c([H])c([H])c(F)c([H])c7F)c([H])c6[H])c(C(=O)N([H])[H])c5N([H])[H])C4([H])[H])C([H])([H])C3([H])[H])c([H])c([H])c2C1([H])[H]

$$$$
1:0:0
     RDKit          3D

 93101  0  0  1  0  0  0  0  0999 V2000
  -30.4640  -22.1350   20.5290 C   0  0  0  0  0  2  0  0  0  0  0  0
  -29.2570  -22.9420   20.1640 N   0  0  0  0  0  4  0  0  0  0  0  0
  -28.4770  -22.5950   20.7010 H   0  0  0  0  0  0  0  0  0  0  0  0
  -29.0500  -22.7680   19.1910 H   0  0  0  0  0  0  0  0  0  0  0  0
  -29.4010  -24.4310   20.3750 C   0  0  0  0  0  3  0  0  0  0  0  0
  -28.1720  -25.2950   19.9320 C   0  0  0  0  0  3  0  0  0  0  0  0
  -28.2990  -26.7290   20.1820 O   0  0  0  0  0  0  0  0  0  0  0  0
  -24.6100  -32.0060   23.3220 C   0  0  0  0  0  0  0  0  0  0  0  0
  -27.1440  -27.5110   20.1700 C   0  0  0  0  0  0  0  0  0  0  0  0
  -23.3610  -30.6330   21.6910 C   0  0  0  0  0  3  0  0  0  0  0  0
  -24.7710  -29.0860   20.2330 C   0  0  0  0  0  0  0  0  0  0  0  0
  -25.8910  -30.9580   21.4460 C   0  0  0  0  0  2  0  0  0  0  0  0
  -25.9530  -29.5870   20.7920 C   0  0  0  0  0  0  0  0  0  0  0  0
  -27.1430  -28.8110   20.7480 C   0  0  0  0  0  3  0  0  0  0  0  0
  -25.9320  -27.0410   19.6070 C   0  0  0  0  0  3  0  0  0  0  0  0
  -24.7570  -27.8140   19.6430 C   0  0  0  0  0  3  0  0  0  0  0  0
  -23.5390  -29.9650   20.3040 C   0  0  0  0  0  2  0  0  0  0  0  0
  -24.6420  -31.2130   22.2120 N   0  0  0  0  0  0  0  0  0  0  0  0
  -23.5380  -32.2840   23.8820 O   0  0  0  0  0  0  0  0  0  0  0  0
  -22.7130  -29.6100   22.6550 C   0  0  0  0  0  0  0  0  0  0  0  0
  -21.3910  -29.4100   22.5180 N   0  0  0  0  0  0  0  0  0  0  0  0
  -23.3960  -29.0000   23.4800 O   0  0  0  0  0  0  0  0  0  0  0  0
  -20.8980  -29.9550   21.8250 H   0  0  0  0  0  0  0  0  0  0  0  0
  -18.0370  -28.1360   22.9670 C   0  0  0  0  0  0  0  0  0  0  0  0
  -20.5820  -28.4640   23.2880 C   0  0  0  0  0  3  0  0  0  0  0  0
  -20.7350  -27.0270   22.7400 C   0  0  0  0  0  2  0  0  0  0  0  0
  -19.6630  -26.6570   21.7090 C   0  0  0  0  0  2  0  0  0  0  0  0
  -18.2640  -26.7800   22.3200 C   0  0  0  0  0  2  0  0  0  0  0  0
  -19.1280  -28.9340   23.4070 C   0  0  0  0  0  0  0  0  0  0  0  0
  -18.8660  -30.2000   23.9720 C   0  0  0  0  0  3  0  0  0  0  0  0
  -17.5470  -30.6730   24.1020 C   0  0  0  0  0  3  0  0  0  0  0  0
  -16.4690  -29.8730   23.6780 C   0  0  0  0  0  3  0  0  0  0  0  0
  -16.7170  -28.6070   23.1170 C   0  0  0  0  0  3  0  0  0  0  0  0
  -25.9100  -32.6210   23.9270 C   0  0  0  0  0  3  0  0  0  0  0  0
  -25.6190  -34.0190   24.2730 N   0  0  0  0  0  0  0  0  0  0  0  0
  -25.9440  -35.0740   23.5140 C   0  0  0  0  0  0  0  0  0  0  0  0
  -26.5920  -34.9720   22.4690 O   0  0  0  0  0  0  0  0  0  0  0  0
  -25.0490  -34.1740   25.0920 H   0  0  0  0  0  0  0  0  0  0  0  0
  -24.2270  -36.8850   23.2020 C   0  0  0  0  0  1  0  0  0  0  0  0
  -25.4760  -36.4620   23.9910 C   0  0  0  0  0  3  0  0  0  0  0  0
  -27.6300  -37.3220   24.7960 C   0  0  0  0  0  1  0  0  0  0  0  0
  -26.5150  -37.5070   23.8710 N   0  0  0  0  0  0  0  0  0  0  0  0
  -26.1190  -38.4280   24.0340 H   0  0  0  0  0  0  0  0  0  0  0  0
  -26.4400  -31.8370   25.1890 C   0  0  1  0  0  0  0  0  0  0  0  0
  -25.3620  -31.5950   26.2720 C   0  0  0  0  0  1  0  0  0  0  0  0
  -27.0110  -30.4630   24.7730 C   0  0  0  0  0  1  0  0  0  0  0  0
  -27.6010  -32.6200   25.8470 C   0  0  0  0  0  1  0  0  0  0  0  0
  -30.4960  -20.6210   20.0610 C   0  0  0  0  0  2  0  0  0  0  0  0
  -32.7940  -18.4570   22.0550 C   0  0  0  0  0  2  0  0  0  0  0  0
  -32.1790  -19.7670   22.5570 C   0  0  0  0  0  2  0  0  0  0  0  0
  -32.2760  -18.1190   20.6430 C   0  0  0  0  0  2  0  0  0  0  0  0
  -30.6470  -19.7460   22.4040 C   0  0  0  0  0  2  0  0  0  0  0  0
  -30.7240  -18.1610   20.5360 C   0  0  0  0  0  3  0  0  0  0  0  0
  -30.2320  -19.5000   21.0130 N   0  0  0  0  0  0  0  0  0  0  0  0
  -30.0380  -16.9850   21.3320 C   0  0  0  0  0  2  0  0  0  0  0  0
  -30.7490  -14.6530   20.2980 C   0  0  0  0  0  0  0  0  0  0  0  0
  -30.5160  -12.4810   19.1160 C   0  0  0  0  0  2  0  0  0  0  0  0
  -29.5260  -12.6480   17.9390 C   0  0  0  0  0  2  0  0  0  0  0  0
  -28.0590  -12.5000   18.4050 C   0  0  0  0  0  2  0  0  0  0  0  0
  -27.7430  -13.3160   19.6870 C   0  0  0  0  0  3  0  0  0  0  0  0
  -28.8340  -13.0770   20.7550 C   0  0  0  0  0  2  0  0  0  0  0  0
  -30.1310  -13.4440   20.1570 N   0  0  0  0  0  0  0  0  0  0  0  0
  -31.8820  -14.8810   19.8730 O   0  0  0  0  0  0  0  0  0  0  0  0
  -29.9310  -15.6030   20.8040 N   0  0  0  0  0  0  0  0  0  0  0  0
  -29.0260  -15.2020   20.9890 H   0  0  0  0  0  0  0  0  0  0  0  0
  -25.3560  -13.9140   20.4540 C   0  0  0  0  0  0  0  0  0  0  0  0
  -24.2970  -13.1360   20.8330 C   0  0  0  0  0  0  0  0  0  0  0  0
  -24.7590  -11.7860   20.7840 C   0  0  0  0  0  0  0  0  0  0  0  0
  -26.4000  -13.0370   20.1960 N   0  0  0  0  0  0  0  0  0  0  0  0
  -26.0460  -11.7520   20.4530 N   0  0  0  0  0  0  0  0  0  0  0  0
  -24.0400  -10.5210   20.9790 C   0  0  0  0  0  0  0  0  0  0  0  0
  -24.4740   -9.5620   21.9200 C   0  0  0  0  0  3  0  0  0  0  0  0
  -23.7550   -8.3600   22.1010 C   0  0  0  0  0  3  0  0  0  0  0  0
  -22.5870   -8.1100   21.3420 C   0  0  0  0  0  0  0  0  0  0  0  0
  -22.1710   -9.0590   20.3920 C   0  0  0  0  0  3  0  0  0  0  0  0
  -22.8900  -10.2530   20.2090 C   0  0  0  0  0  3  0  0  0  0  0  0
  -21.8420   -6.9580   21.4290 O   0  0  0  0  0  0  0  0  0  0  0  0
  -21.7740   -6.2330   22.5920 C   0  0  0  0  0  0  0  0  0  0  0  0
  -21.3030   -6.7970   23.7960 C   0  0  0  0  0  3  0  0  0  0  0  0
  -21.1840   -5.9980   24.9510 C   0  0  0  0  0  3  0  0  0  0  0  0
  -21.5260   -4.6330   24.9010 C   0  0  0  0  0  0  0  0  0  0  0  0
  -21.9910   -4.0680   23.7010 C   0  0  0  0  0  3  0  0  0  0  0  0
  -22.1120   -4.8650   22.5490 C   0  0  0  0  0  0  0  0  0  0  0  0
  -22.5410   -4.3100   21.3900 F   0  0  0  0  0  0  0  0  0  0  0  0
  -21.4030   -3.8620   26.0070 F   0  0  0  0  0  0  0  0  0  0  0  0
  -22.9020  -13.6110   21.1320 C   0  0  0  0  0  0  0  0  0  0  0  0
  -22.1910  -12.9070   22.0040 N   0  0  0  0  0  0  0  0  0  0  0  0
  -22.4540  -14.6400   20.6320 O   0  0  0  0  0  0  0  0  0  0  0  0
  -22.5670  -12.0780   22.4420 H   0  0  0  0  0  0  0  0  0  0  0  0
  -21.2600  -13.2110   22.2440 H   0  0  0  0  0  0  0  0  0  0  0  0
  -25.5120  -15.2880   20.2860 N   0  0  0  0  0  0  0  0  0  0  0  0
  -24.7270  -15.9230   20.3800 H   0  0  0  0  0  0  0  0  0  0  0  0
  -26.3530  -15.7420   19.9540 H   0  0  0  0  0  0  0  0  0  0  0  0
  2  5  1  0
  2  1  1  0
  2  3  1  0
  4  2  1  0
  6  7  1  0
  6  5  2  0
  8 19  2  0
  9  7  1  0
  9 14  1  0
 10 18  1  0
 10 20  1  0
 11 17  1  0
 11 13  1  0
 12 18  1  0
 13 12  1  0
 14 13  2  0
 15 16  1  0
 15  9  2  0
 16 11  2  0
 17 10  1  0
 18  8  1  0
 20 22  2  0
 21 20  1  0
 23 21  1  0
 24 33  2  0
 24 29  1  0
 25 21  1  0
 25 29  1  0
 26 25  1  0
 27 28  1  0
 27 26  1  0
 28 24  1  0
 29 30  2  0
 30 31  1  0
 32 31  2  0
 33 32  1  0
 34  8  1  0
 34 35  1  0
 34 44  1  0
 35 38  1  0
 36 40  1  0
 36 35  1  0
 37 36  2  0
 40 39  1  0
 42 40  1  0
 42 43  1  0
 42 41  1  0
 44 47  1  1
 44 45  1  0
 46 44  1  0
 48  1  1  0
 48 54  1  0
 49 50  1  0
 51 49  1  0
 52 50  1  0
 53 51  1  0
 53 54  1  0
 53 55  1  0
 54 52  1  0
 56 64  1  0
 57 62  1  0
 58 59  1  0
 58 57  1  0
 60 59  1  0
 60 69  1  0
 60 61  1  0
 62 56  1  0
 62 61  1  0
 63 56  2  0
 64 65  1  0
 64 55  1  0
 66 67  2  0
 67 86  1  0
 68 67  1  0
 68 71  1  0
 69 70  1  0
 69 66  1  0
 70 68  2  0
 71 72  1  0
 72 73  2  0
 74 77  1  0
 74 73  1  0
 75 74  2  0
 76 75  1  0
 76 71  2  0
 77 78  1  0
 78 79  1  0
 79 80  2  0
 81 80  1  0
 81 85  1  0
 82 81  2  0
 83 78  2  0
 83 82  1  0
 84 83  1  0
 86 87  1  0
 87 90  1  0
 87 89  1  0
 88 86  2  0
 91 92  1  0
 91 66  1  0
 93 91  1  0
M  ISO  4   6 101   7 101  56 100  64 100
M  END
>  <TORSDO>  (2) 
F 22

>  <SCORE>  (2) 
-12.254

>  <name>  (2) 
1

>  <ligand_id>  (2) 
1

>  <original_smiles>  (2) 
[H]c1c([H])c([H])c2c(c1[H])C([H])([H])C([H])([H])C([H])([H])C2([H])N([H])C(=O)C1([H])N(C(=O)C([H])(N([H])C(=O)C([H])(N([H])C([H])([H])[H])C([H])([H])[H])C(C([H])([H])[H])(C([H])([H])[H])C([H])([H])[H])C([H])([H])c2c([H])c(OC([H])([H])C([H])([H])[N+]([H])([H])C([H])([H])C([H])([H])N3C([H])([H])C([H])([H])C([H])([H])C([H])([H])C3([H])C([H])([H])N([H])C(=O)N3C([H])([H])C([H])([H])C([H])([H])C([H])(n4nc(-c5c([H])c([H])c(Oc6c([H])c([H])c(F)c([H])c6F)c([H])c5[H])c(C(=O)N([H])[H])c4N([H])[H])C3([H])[H])c([H])c([H])c2C1([H])[H]

>  <smiles>  (2) 
[H]c1c([H])c([H])c2c(c1[H])C([H])([H])C([H])([H])C([H])([H])C2([H])N([H])C(=O)C1([H])N(C(=O)C([H])(N([H])C(=O)C([H])(N([H])C([H])([H])[H])C([H])([H])[H])C(C([H])([H])[H])(C([H])([H])[H])C([H])([H])[H])C([H])([H])c2c([H])c(OC([H])([H])C([H])([H])[N+]([H])([H])C([H])([H])C([H])([H])N3C([H])([H])C([H])([H])C([H])([H])C([H])([H])C3([H])C([H])([H])N([H])C(=O)N3C([H])([H])C([H])([H])C([H])([H])C([H])(n4nc(-c5c([H])c([H])c(Oc6c([H])c([H])c(F)c([H])c6F)c([H])c5[H])c(C(=O)N([H])[H])c4N([H])[H])C3([H])[H])c([H])c([H])c2C1([H])[H]

$$$$
2:0:0
     RDKit          3D

 97106  0  0  1  0  0  0  0  0999 V2000
  -33.5110  -23.4920   21.1410 C   0  0  0  0  0  2  0  0  0  0  0  0
  -33.5560  -22.5840   19.9200 C   0  0  0  0  0  2  0  0  0  0  0  0
  -32.5850  -24.6080   20.6690 C   0  0  0  0  0  2  0  0  0  0  0  0
  -32.1190  -22.6410   19.3630 C   0  0  0  0  0  3  0  0  0  0  0  0
  -31.5850  -23.9800   19.7660 N   0  0  2  0  0  4  0  0  0  0  0  0
  -30.7720  -23.7330   20.3170 H   0  0  0  0  0  0  0  0  0  0  0  0
  -31.2630  -21.4990   19.9460 C   0  0  0  0  0  0  0  0  0  0  0  0
  -31.7530  -20.2440   19.8700 N   0  0  0  0  0  0  0  0  0  0  0  0
  -30.1910  -21.7620   20.4970 O   0  0  0  0  0  0  0  0  0  0  0  0
  -32.6350  -20.1210   19.3920 H   0  0  0  0  0  0  0  0  0  0  0  0
  -31.2040  -19.0820   20.5680 C   0  0  0  0  0  2  0  0  0  0  0  0
  -31.9670  -17.7610   20.2810 C   0  0  0  0  0  2  0  0  0  0  0  0
  -31.5810  -14.4610   20.0180 C   0  0  0  0  0  0  0  0  0  0  0  0
  -31.1680  -12.3210   18.8470 C   0  0  0  0  0  2  0  0  0  0  0  0
  -30.1430  -12.5270   17.7110 C   0  0  0  0  0  2  0  0  0  0  0  0
  -28.6910  -12.4500   18.2330 C   0  0  0  0  0  2  0  0  0  0  0  0
  -28.4730  -13.3000   19.5130 C   0  0  0  0  0  3  0  0  0  0  0  0
  -29.5850  -12.9680   20.5350 C   0  0  0  0  0  2  0  0  0  0  0  0
  -30.8690  -13.3010   19.9040 N   0  0  0  0  0  0  0  0  0  0  0  0
  -32.6660  -14.6150   19.4460 O   0  0  0  0  0  0  0  0  0  0  0  0
  -29.7650  -16.0010   21.1280 C   0  0  0  0  0  2  0  0  0  0  0  0
  -30.4800  -16.7420   22.2500 C   0  0  0  0  0  3  0  0  0  0  0  0
  -31.7210  -16.6700   21.3560 C   0  0  0  0  0  3  0  0  0  0  0  0
  -31.0960  -15.4350   20.8330 N   0  0  0  0  0  0  0  0  0  0  0  0
  -30.6030  -15.9920   23.3530 F   0  0  0  0  0  0  0  0  0  0  0  0
  -26.1860  -14.0580   20.4260 C   0  0  0  0  0  0  0  0  0  0  0  0
  -25.0850  -13.3490   20.8200 C   0  0  0  0  0  0  0  0  0  0  0  0
  -25.4210  -11.9710   20.6560 C   0  0  0  0  0  0  0  0  0  0  0  0
  -27.1350  -13.1110   20.0640 N   0  0  0  0  0  0  0  0  0  0  0  0
  -26.6780  -11.8480   20.2510 N   0  0  0  0  0  0  0  0  0  0  0  0
  -24.6030  -10.7630   20.8020 C   0  0  0  0  0  0  0  0  0  0  0  0
  -24.9650   -9.7360   21.7000 C   0  0  0  0  0  3  0  0  0  0  0  0
  -24.1560   -8.5890   21.8390 C   0  0  0  0  0  3  0  0  0  0  0  0
  -22.9690   -8.4610   21.0780 C   0  0  0  0  0  0  0  0  0  0  0  0
  -22.6270   -9.4760   20.1670 C   0  0  0  0  0  3  0  0  0  0  0  0
  -23.4360  -10.6160   20.0270 C   0  0  0  0  0  3  0  0  0  0  0  0
  -22.1320   -7.3720   21.1300 O   0  0  0  0  0  0  0  0  0  0  0  0
  -21.9770   -6.6400   22.2790 C   0  0  0  0  0  0  0  0  0  0  0  0
  -21.5410   -7.2280   23.4850 C   0  0  0  0  0  3  0  0  0  0  0  0
  -21.3310   -6.4260   24.6250 C   0  0  0  0  0  3  0  0  0  0  0  0
  -21.5420   -5.0360   24.5580 C   0  0  0  0  0  0  0  0  0  0  0  0
  -21.9700   -4.4470   23.3550 C   0  0  0  0  0  3  0  0  0  0  0  0
  -22.1850   -5.2460   22.2190 C   0  0  0  0  0  0  0  0  0  0  0  0
  -22.5780   -4.6710   21.0570 F   0  0  0  0  0  0  0  0  0  0  0  0
  -21.3300   -4.2620   25.6490 F   0  0  0  0  0  0  0  0  0  0  0  0
  -23.7550  -13.9160   21.2310 C   0  0  0  0  0  0  0  0  0  0  0  0
  -23.0510  -13.2370   22.1320 N   0  0  0  0  0  0  0  0  0  0  0  0
  -23.3540  -14.9930   20.7930 O   0  0  0  0  0  0  0  0  0  0  0  0
  -23.3850  -12.3630   22.5110 H   0  0  0  0  0  0  0  0  0  0  0  0
  -22.1620  -13.5990   22.4490 H   0  0  0  0  0  0  0  0  0  0  0  0
  -26.4510  -15.4210   20.3290 N   0  0  0  0  0  0  0  0  0  0  0  0
  -25.7480  -16.1200   20.5410 H   0  0  0  0  0  0  0  0  0  0  0  0
  -27.2950  -15.8200   19.9400 H   0  0  0  0  0  0  0  0  0  0  0  0
  -31.1430  -24.8370   18.6210 C   0  0  0  0  0  2  0  0  0  0  0  0
  -31.0660  -26.3770   18.8640 C   0  0  0  0  0  2  0  0  0  0  0  0
  -29.9960  -26.9110   19.8380 C   0  0  0  0  0  2  0  0  0  0  0  0
  -28.7270  -26.6090   19.2800 O   0  0  0  0  0  0  0  0  0  0  0  0
  -25.0010  -31.4980   23.0310 C   0  0  0  0  0  0  0  0  0  0  0  0
  -27.6190  -27.4040   19.4860 C   0  0  0  0  0  0  0  0  0  0  0  0
  -23.7680  -30.2560   21.2780 C   0  0  0  0  0  3  0  0  0  0  0  0
  -25.2050  -28.8680   19.6940 C   0  0  0  0  0  0  0  0  0  0  0  0
  -26.2890  -30.6440   21.0770 C   0  0  0  0  0  2  0  0  0  0  0  0
  -26.3690  -29.3400   20.3160 C   0  0  0  0  0  0  0  0  0  0  0  0
  -27.5770  -28.6140   20.2250 C   0  0  0  0  0  3  0  0  0  0  0  0
  -26.4360  -26.9440   18.8750 C   0  0  0  0  0  3  0  0  0  0  0  0
  -25.2310  -27.6610   18.9750 C   0  0  0  0  0  3  0  0  0  0  0  0
  -23.9580  -29.7090   19.8380 C   0  0  0  0  0  2  0  0  0  0  0  0
  -25.0380  -30.8100   21.8550 N   0  0  0  0  0  0  0  0  0  0  0  0
  -23.9290  -31.7130   23.6120 O   0  0  0  0  0  0  0  0  0  0  0  0
  -23.1370  -29.1450   22.1470 C   0  0  0  0  0  0  0  0  0  0  0  0
  -21.8060  -28.9950   22.0540 N   0  0  0  0  0  0  0  0  0  0  0  0
  -23.8400  -28.4230   22.8600 O   0  0  0  0  0  0  0  0  0  0  0  0
  -21.3010  -29.6360   21.4560 H   0  0  0  0  0  0  0  0  0  0  0  0
  -18.4290  -27.8230   22.5680 C   0  0  0  0  0  0  0  0  0  0  0  0
  -21.0020  -27.9910   22.7460 C   0  0  0  0  0  3  0  0  0  0  0  0
  -21.0380  -26.6360   22.0000 C   0  0  0  0  0  2  0  0  0  0  0  0
  -19.8830  -26.4610   21.0090 C   0  0  0  0  0  2  0  0  0  0  0  0
  -18.5370  -26.5590   21.7340 C   0  0  0  0  0  2  0  0  0  0  0  0
  -19.5850  -28.5050   23.0320 C   0  0  0  0  0  0  0  0  0  0  0  0
  -19.4290  -29.6960   23.7740 C   0  0  0  0  0  3  0  0  0  0  0  0
  -18.1470  -30.2030   24.0590 C   0  0  0  0  0  3  0  0  0  0  0  0
  -17.0040  -29.5160   23.6120 C   0  0  0  0  0  3  0  0  0  0  0  0
  -17.1470  -28.3300   22.8740 C   0  0  0  0  0  3  0  0  0  0  0  0
  -26.2950  -32.0680   23.6880 C   0  0  0  0  0  3  0  0  0  0  0  0
  -25.9880  -33.4240   24.1620 N   0  0  0  0  0  0  0  0  0  0  0  0
  -26.3230  -34.5500   23.5210 C   0  0  0  0  0  0  0  0  0  0  0  0
  -26.9940  -34.5560   22.4840 O   0  0  0  0  0  0  0  0  0  0  0  0
  -25.3820  -33.4960   24.9680 H   0  0  0  0  0  0  0  0  0  0  0  0
  -24.6060  -36.3810   23.3520 C   0  0  0  0  0  1  0  0  0  0  0  0
  -25.8380  -35.8820   24.1240 C   0  0  0  0  0  3  0  0  0  0  0  0
  -27.9680  -36.6590   25.0660 C   0  0  0  0  0  1  0  0  0  0  0  0
  -26.8760  -36.9360   24.1360 N   0  0  0  0  0  0  0  0  0  0  0  0
  -26.4720  -37.8360   24.3810 H   0  0  0  0  0  0  0  0  0  0  0  0
  -26.8450  -31.1730   24.8630 C   0  0  1  0  0  0  0  0  0  0  0  0
  -25.7840  -30.8200   25.9310 C   0  0  0  0  0  1  0  0  0  0  0  0
  -27.4220  -29.8460   24.3120 C   0  0  0  0  0  1  0  0  0  0  0  0
  -28.0130  -31.9030   25.5700 C   0  0  0  0  0  1  0  0  0  0  0  0
  2  1  1  0
  3  1  1  0
  4  5  1  0
  4  2  1  0
  4  7  1  0
  5  6  1  1
  5  3  1  0
  7  9  2  0
  8  7  1  0
  8 11  1  0
 10  8  1  0
 12 11  1  0
 13 24  1  0
 14 19  1  0
 15 16  1  0
 15 14  1  0
 17 16  1  0
 17 29  1  0
 17 18  1  0
 19 13  1  0
 19 18  1  0
 20 13  2  0
 21 22  1  0
 22 25  1  0
 23 12  1  0
 23 22  1  0
 24 21  1  0
 24 23  1  0
 26 27  2  0
 27 46  1  0
 28 31  1  0
 28 27  1  0
 29 30  1  0
 29 26  1  0
 30 28  2  0
 31 32  1  0
 32 33  2  0
 34 37  1  0
 34 33  1  0
 35 34  2  0
 36 35  1  0
 36 31  2  0
 37 38  1  0
 38 39  1  0
 39 40  2  0
 41 40  1  0
 41 45  1  0
 42 41  2  0
 43 38  2  0
 43 42  1  0
 44 43  1  0
 46 47  1  0
 47 50  1  0
 47 49  1  0
 48 46  2  0
 51 26  1  0
 51 52  1  0
 53 51  1  0
 54 55  1  0
 54  5  1  0
 55 56  1  0
 57 59  1  0
 57 56  1  0
 58 69  2  0
 59 64  1  0
 60 68  1  0
 60 70  1  0
 61 67  1  0
 61 63  1  0
 62 68  1  0
 63 62  1  0
 64 63  2  0
 65 66  1  0
 65 59  2  0
 66 61  2  0
 67 60  1  0
 68 58  1  0
 70 72  2  0
 71 70  1  0
 73 71  1  0
 74 83  2  0
 74 79  1  0
 75 71  1  0
 75 79  1  0
 76 75  1  0
 77 78  1  0
 77 76  1  0
 78 74  1  0
 79 80  2  0
 80 81  1  0
 82 81  2  0
 83 82  1  0
 84 58  1  0
 84 85  1  0
 84 94  1  0
 85 88  1  0
 86 90  1  0
 86 85  1  0
 87 86  2  0
 90 89  1  0
 90 92  1  0
 92 93  1  0
 92 91  1  0
 94 97  1  1
 94 95  1  0
 96 94  1  0
M  ISO  4  13 100  24 100  56 101  57 101
M  END
>  <TORSDO>  (3) 
F 22

>  <SCORE>  (3) 
-8.642

>  <name>  (3) 
2

>  <ligand_id>  (3) 
2

>  <original_smiles>  (3) 
[H]c1c([H])c([H])c2c(c1[H])C([H])([H])C([H])([H])C([H])([H])C2([H])N([H])C(=O)C1([H])N(C(=O)C([H])(N([H])C(=O)C([H])(N([H])C([H])([H])[H])C([H])([H])[H])C(C([H])([H])[H])(C([H])([H])[H])C([H])([H])[H])C([H])([H])c2c([H])c(OC([H])([H])C([H])([H])C([H])([H])[N+]3([H])C([H])([H])C([H])([H])C([H])([H])C3([H])C(=O)N([H])C([H])([H])C([H])([H])C3([H])N(C(=O)N4C([H])([H])C([H])([H])C([H])([H])C([H])(n5nc(-c6c([H])c([H])c(Oc7c([H])c([H])c(F)c([H])c7F)c([H])c6[H])c(C(=O)N([H])[H])c5N([H])[H])C4([H])[H])C([H])([H])C3([H])F)c([H])c([H])c2C1([H])[H]

>  <smiles>  (3) 
[H]c1c([H])c([H])c2c(c1[H])C([H])([H])C([H])([H])C([H])([H])C2([H])N([H])C(=O)C1([H])N(C(=O)C([H])(N([H])C(=O)C([H])(N([H])C([H])([H])[H])C([H])([H])[H])C(C([H])([H])[H])(C([H])([H])[H])C([H])([H])[H])C([H])([H])c2c([H])c(OC([H])([H])C([H])([H])C([H])([H])[N+]3([H])C([H])([H])C([H])([H])C([H])([H])C3([H])C(=O)N([H])C([H])([H])C([H])([H])C3([H])N(C(=O)N4C([H])([H])C([H])([H])C([H])([H])C([H])(n5nc(-c6c([H])c([H])c(Oc7c([H])c([H])c(F)c([H])c7F)c([H])c6[H])c(C(=O)N([H])[H])c5N([H])[H])C4([H])[H])C([H])([H])C3([H])F)c([H])c([H])c2C1([H])[H]

$$$$
3:0:0
     RDKit          3D

 95103  0  0  1  0  0  0  0  0999 V2000
  -30.4460  -22.2110   20.9060 C   0  0  0  0  0  2  0  0  0  0  0  0
  -29.6790  -19.7910   21.4000 C   0  0  0  0  0  0  0  0  0  0  0  0
  -32.0400  -20.2120   20.5640 C   0  0  0  0  0  2  0  0  0  0  0  0
  -32.3650  -18.7760   21.0070 C   0  0  0  0  0  2  0  0  0  0  0  0
  -30.8620  -20.7850   21.3790 C   0  0  0  0  0  3  0  0  0  0  0  0
  -31.1610  -17.8230   20.8260 C   0  0  0  0  0  3  0  0  0  0  0  0
  -29.8950  -18.4860   21.1620 N   0  0  0  0  0  0  0  0  0  0  0  0
  -28.5470  -20.2020   21.6580 O   0  0  0  0  0  0  0  0  0  0  0  0
  -29.0790  -17.8890   21.1880 H   0  0  0  0  0  0  0  0  0  0  0  0
  -31.3260  -16.5500   21.6970 C   0  0  0  0  0  2  0  0  0  0  0  0
  -31.0350  -14.5480   20.2460 C   0  0  0  0  0  0  0  0  0  0  0  0
  -30.5790  -12.5030   18.9400 C   0  0  0  0  0  2  0  0  0  0  0  0
  -29.6070  -12.7950   17.7810 C   0  0  0  0  0  2  0  0  0  0  0  0
  -28.1450  -12.6830   18.2520 C   0  0  0  0  0  2  0  0  0  0  0  0
  -27.8780  -13.4750   19.5610 C   0  0  0  0  0  3  0  0  0  0  0  0
  -28.9550  -13.1610   20.6240 C   0  0  0  0  0  2  0  0  0  0  0  0
  -30.2780  -13.4370   20.0350 N   0  0  0  0  0  0  0  0  0  0  0  0
  -32.0740  -14.7860   19.6240 O   0  0  0  0  0  0  0  0  0  0  0  0
  -30.5890  -15.3900   21.1900 N   0  0  0  0  0  0  0  0  0  0  0  0
  -29.7220  -15.1490   21.6470 H   0  0  0  0  0  0  0  0  0  0  0  0
  -25.5060  -14.1300   20.3200 C   0  0  0  0  0  0  0  0  0  0  0  0
  -24.4310  -13.3780   20.7120 C   0  0  0  0  0  0  0  0  0  0  0  0
  -24.8650  -12.0180   20.6700 C   0  0  0  0  0  0  0  0  0  0  0  0
  -26.5290  -13.2280   20.0670 N   0  0  0  0  0  0  0  0  0  0  0  0
  -26.1460  -11.9520   20.3330 N   0  0  0  0  0  0  0  0  0  0  0  0
  -24.1180  -10.7700   20.8760 C   0  0  0  0  0  0  0  0  0  0  0  0
  -24.5200   -9.8190   21.8400 C   0  0  0  0  0  3  0  0  0  0  0  0
  -23.7760   -8.6360   22.0330 C   0  0  0  0  0  3  0  0  0  0  0  0
  -22.6160   -8.3940   21.2610 C   0  0  0  0  0  0  0  0  0  0  0  0
  -22.2330   -9.3320   20.2850 C   0  0  0  0  0  3  0  0  0  0  0  0
  -22.9780  -10.5070   20.0910 C   0  0  0  0  0  3  0  0  0  0  0  0
  -21.8460   -7.2610   21.3590 O   0  0  0  0  0  0  0  0  0  0  0  0
  -21.7220   -6.5750   22.5410 C   0  0  0  0  0  0  0  0  0  0  0  0
  -21.2240   -7.1900   23.7110 C   0  0  0  0  0  3  0  0  0  0  0  0
  -21.0480   -6.4310   24.8860 C   0  0  0  0  0  3  0  0  0  0  0  0
  -21.3590   -5.0580   24.8910 C   0  0  0  0  0  0  0  0  0  0  0  0
  -21.8500   -4.4420   23.7260 C   0  0  0  0  0  3  0  0  0  0  0  0
  -22.0270   -5.1990   22.5530 C   0  0  0  0  0  0  0  0  0  0  0  0
  -22.4800   -4.5960   21.4270 F   0  0  0  0  0  0  0  0  0  0  0  0
  -21.1830   -4.3270   26.0160 F   0  0  0  0  0  0  0  0  0  0  0  0
  -23.0510  -13.8830   21.0180 C   0  0  0  0  0  0  0  0  0  0  0  0
  -22.3340  -13.2070   21.9100 N   0  0  0  0  0  0  0  0  0  0  0  0
  -22.6150  -14.9100   20.5000 O   0  0  0  0  0  0  0  0  0  0  0  0
  -22.6990  -12.3750   22.3500 H   0  0  0  0  0  0  0  0  0  0  0  0
  -21.4080  -13.5260   22.1550 H   0  0  0  0  0  0  0  0  0  0  0  0
  -25.6950  -15.4960   20.1390 N   0  0  0  0  0  0  0  0  0  0  0  0
  -24.9450  -16.1690   20.2590 H   0  0  0  0  0  0  0  0  0  0  0  0
  -26.5500  -15.9150   19.7910 H   0  0  0  0  0  0  0  0  0  0  0  0
  -29.7050  -22.9680   21.9480 N   0  0  0  0  0  4  0  0  0  0  0  0
  -30.3080  -23.1570   22.7320 H   0  0  0  0  0  0  0  0  0  0  0  0
  -28.9740  -22.3490   22.2730 H   0  0  0  0  0  0  0  0  0  0  0  0
  -29.0440  -24.2260   21.5170 C   0  0  0  0  0  2  0  0  0  0  0  0
  -30.0170  -25.3910   21.2200 C   0  0  0  0  0  2  0  0  0  0  0  0
  -29.3090  -26.7570   21.0830 C   0  0  0  0  0  2  0  0  0  0  0  0
  -28.4330  -26.7380   19.9600 O   0  0  0  0  0  0  0  0  0  0  0  0
  -24.6050  -31.8700   23.1650 C   0  0  0  0  0  0  0  0  0  0  0  0
  -27.2970  -27.5140   20.0230 C   0  0  0  0  0  0  0  0  0  0  0  0
  -23.4080  -30.4790   21.5050 C   0  0  0  0  0  3  0  0  0  0  0  0
  -24.8770  -28.9750   20.0570 C   0  0  0  0  0  0  0  0  0  0  0  0
  -25.9250  -30.8720   21.3030 C   0  0  0  0  0  2  0  0  0  0  0  0
  -26.0270  -29.5080   20.6550 C   0  0  0  0  0  0  0  0  0  0  0  0
  -27.2380  -28.7830   20.6450 C   0  0  0  0  0  3  0  0  0  0  0  0
  -26.1370  -26.9990   19.4100 C   0  0  0  0  0  3  0  0  0  0  0  0
  -24.9260  -27.7160   19.4330 C   0  0  0  0  0  3  0  0  0  0  0  0
  -23.6190  -29.8140   20.1180 C   0  0  0  0  0  2  0  0  0  0  0  0
  -24.6650  -31.0870   22.0510 N   0  0  0  0  0  0  0  0  0  0  0  0
  -23.5230  -32.1230   23.7130 O   0  0  0  0  0  0  0  0  0  0  0  0
  -22.7690  -29.4400   22.4530 C   0  0  0  0  0  0  0  0  0  0  0  0
  -21.4430  -29.2560   22.3320 N   0  0  0  0  0  0  0  0  0  0  0  0
  -23.4610  -28.8000   23.2500 O   0  0  0  0  0  0  0  0  0  0  0  0
  -20.9470  -29.8210   21.6580 H   0  0  0  0  0  0  0  0  0  0  0  0
  -18.0710  -28.0730   22.8570 C   0  0  0  0  0  0  0  0  0  0  0  0
  -20.6350  -28.3040   23.0930 C   0  0  0  0  0  3  0  0  0  0  0  0
  -20.7170  -26.8890   22.4760 C   0  0  0  0  0  2  0  0  0  0  0  0
  -19.5950  -26.6020   21.4720 C   0  0  0  0  0  2  0  0  0  0  0  0
  -18.2260  -26.7410   22.1430 C   0  0  0  0  0  2  0  0  0  0  0  0
  -19.2030  -28.8150   23.2890 C   0  0  0  0  0  0  0  0  0  0  0  0
  -19.0050  -30.0630   23.9170 C   0  0  0  0  0  3  0  0  0  0  0  0
  -17.7080  -30.5710   24.1170 C   0  0  0  0  0  3  0  0  0  0  0  0
  -16.5900  -29.8250   23.7020 C   0  0  0  0  0  3  0  0  0  0  0  0
  -16.7740  -28.5790   23.0790 C   0  0  0  0  0  3  0  0  0  0  0  0
  -25.8880  -32.5010   23.7920 C   0  0  0  0  0  3  0  0  0  0  0  0
  -25.5720  -33.8930   24.1380 N   0  0  0  0  0  0  0  0  0  0  0  0
  -25.9090  -34.9550   23.3940 C   0  0  0  0  0  0  0  0  0  0  0  0
  -26.5900  -34.8660   22.3680 O   0  0  0  0  0  0  0  0  0  0  0  0
  -24.9640  -34.0350   24.9310 H   0  0  0  0  0  0  0  0  0  0  0  0
  -24.1860  -36.7500   23.0320 C   0  0  0  0  0  1  0  0  0  0  0  0
  -25.4110  -36.3340   23.8620 C   0  0  0  0  0  3  0  0  0  0  0  0
  -27.5270  -37.2060   24.7520 C   0  0  0  0  0  1  0  0  0  0  0  0
  -26.4440  -37.3910   23.7890 N   0  0  0  0  0  0  0  0  0  0  0  0
  -26.0340  -38.3070   23.9440 H   0  0  0  0  0  0  0  0  0  0  0  0
  -26.4150  -31.7160   25.0550 C   0  0  1  0  0  0  0  0  0  0  0  0
  -25.3270  -31.4500   26.1200 C   0  0  0  0  0  1  0  0  0  0  0  0
  -27.0110  -30.3500   24.6390 C   0  0  0  0  0  1  0  0  0  0  0  0
  -27.5610  -32.5090   25.7250 C   0  0  0  0  0  1  0  0  0  0  0  0
  1 49  1  0
  2  8  2  0
  3  4  1  0
  3  5  1  0
  5  1  1  0
  5  2  1  0
  6  4  1  0
  6  7  1  0
  6 10  1  0
  7  9  1  0
  7  2  1  0
 11 19  1  0
 12 17  1  0
 13 14  1  0
 13 12  1  0
 15 14  1  0
 15 24  1  0
 15 16  1  0
 17 11  1  0
 17 16  1  0
 18 11  2  0
 19 20  1  0
 19 10  1  0
 21 22  2  0
 22 41  1  0
 23 22  1  0
 23 26  1  0
 24 21  1  0
 24 25  1  0
 25 23  2  0
 26 27  1  0
 27 28  2  0
 29 32  1  0
 29 28  1  0
 30 29  2  0
 31 30  1  0
 31 26  2  0
 32 33  1  0
 33 38  2  0
 33 34  1  0
 34 35  2  0
 35 36  1  0
 36 40  1  0
 37 36  2  0
 38 37  1  0
 39 38  1  0
 41 42  1  0
 42 45  1  0
 42 44  1  0
 43 41  2  0
 46 47  1  0
 46 21  1  0
 48 46  1  0
 49 51  1  0
 49 50  1  0
 52 49  1  0
 53 52  1  0
 54 53  1  0
 55 57  1  0
 55 54  1  0
 56 67  2  0
 57 62  1  0
 58 66  1  0
 58 68  1  0
 59 65  1  0
 59 61  1  0
 60 66  1  0
 61 60  1  0
 62 61  2  0
 63 64  1  0
 63 57  2  0
 64 59  2  0
 65 58  1  0
 66 56  1  0
 68 70  2  0
 69 68  1  0
 71 69  1  0
 72 81  2  0
 72 77  1  0
 73 69  1  0
 73 77  1  0
 74 73  1  0
 75 76  1  0
 75 74  1  0
 76 72  1  0
 77 78  2  0
 78 79  1  0
 80 79  2  0
 81 80  1  0
 82 56  1  0
 82 83  1  0
 82 92  1  0
 83 86  1  0
 84 88  1  0
 84 83  1  0
 85 84  2  0
 88 87  1  0
 90 88  1  0
 90 91  1  0
 90 89  1  0
 92 95  1  1
 92 93  1  0
 94 92  1  0
M  ISO  4  11 100  19 100  54 101  55 101
M  END
>  <TORSDO>  (4) 
F 22

>  <SCORE>  (4) 
-12.453

>  <name>  (4) 
3

>  <ligand_id>  (4) 
3

>  <original_smiles>  (4) 
[H]c1c([H])c([H])c2c(c1[H])C([H])([H])C([H])([H])C([H])([H])C2([H])N([H])C(=O)C1([H])N(C(=O)C([H])(N([H])C(=O)C([H])(N([H])C([H])([H])[H])C([H])([H])[H])C(C([H])([H])[H])(C([H])([H])[H])C([H])([H])[H])C([H])([H])c2c([H])c(OC([H])([H])C([H])([H])C([H])([H])[N+]([H])([H])C([H])([H])C3([H])C(=O)N([H])C([H])(C([H])([H])N([H])C(=O)N4C([H])([H])C([H])([H])C([H])([H])C([H])(n5nc(-c6c([H])c([H])c(Oc7c([H])c([H])c(F)c([H])c7F)c([H])c6[H])c(C(=O)N([H])[H])c5N([H])[H])C4([H])[H])C([H])([H])C3([H])[H])c([H])c([H])c2C1([H])[H]

>  <smiles>  (4) 
[H]c1c([H])c([H])c2c(c1[H])C([H])([H])C([H])([H])C([H])([H])C2([H])N([H])C(=O)C1([H])N(C(=O)C([H])(N([H])C(=O)C([H])(N([H])C([H])([H])[H])C([H])([H])[H])C(C([H])([H])[H])(C([H])([H])[H])C([H])([H])[H])C([H])([H])c2c([H])c(OC([H])([H])C([H])([H])C([H])([H])[N+]([H])([H])C([H])([H])C3([H])C(=O)N([H])C([H])(C([H])([H])N([H])C(=O)N4C([H])([H])C([H])([H])C([H])([H])C([H])(n5nc(-c6c([H])c([H])c(Oc7c([H])c([H])c(F)c([H])c7F)c([H])c6[H])c(C(=O)N([H])[H])c5N([H])[H])C4([H])[H])C([H])([H])C3([H])[H])c([H])c([H])c2C1([H])[H]

$$$$
4:0:0
     RDKit          3D

 94102  0  0  1  0  0  0  0  0999 V2000
  -28.6480  -21.3000   21.1480 C   0  0  0  0  0  2  0  0  0  0  0  0
  -30.0110  -19.5270   19.7840 C   0  0  0  0  0  2  0  0  0  0  0  0
  -28.3970  -18.7460   21.3290 C   0  0  0  0  0  2  0  0  0  0  0  0
  -28.6780  -19.9470   20.4170 C   0  0  0  0  0  3  0  0  0  0  0  0
  -29.7570  -18.0380   19.4930 C   0  0  0  0  0  3  0  0  0  0  0  0
  -28.8540  -17.5680   20.5680 N   0  0  0  0  0  4  0  0  0  0  0  0
  -28.0560  -17.1000   20.1660 H   0  0  0  0  0  0  0  0  0  0  0  0
  -29.3290  -16.9350   21.1890 H   0  0  0  0  0  0  0  0  0  0  0  0
  -31.0170  -17.1620   19.3530 C   0  0  0  0  0  2  0  0  0  0  0  0
  -31.4690  -14.7130   19.4370 C   0  0  0  0  0  0  0  0  0  0  0  0
  -31.2350  -12.3180   18.9200 C   0  0  0  0  0  2  0  0  0  0  0  0
  -30.2590  -12.1580   17.7370 C   0  0  0  0  0  2  0  0  0  0  0  0
  -28.8030  -12.0850   18.2320 C   0  0  0  0  0  2  0  0  0  0  0  0
  -28.4530  -13.2300   19.2200 C   0  0  0  0  0  3  0  0  0  0  0  0
  -29.5380  -13.3500   20.3180 C   0  0  0  0  0  2  0  0  0  0  0  0
  -30.8450  -13.5270   19.6560 N   0  0  0  0  0  0  0  0  0  0  0  0
  -32.5360  -14.8220   18.8290 O   0  0  0  0  0  0  0  0  0  0  0  0
  -30.7610  -15.7890   19.8050 N   0  0  0  0  0  0  0  0  0  0  0  0
  -29.9050  -15.5900   20.2950 H   0  0  0  0  0  0  0  0  0  0  0  0
  -26.1610  -14.0190   20.0900 C   0  0  0  0  0  0  0  0  0  0  0  0
  -25.0720  -13.3300   20.5510 C   0  0  0  0  0  0  0  0  0  0  0  0
  -25.4330  -11.9470   20.5050 C   0  0  0  0  0  0  0  0  0  0  0  0
  -27.1200  -13.0620   19.7930 N   0  0  0  0  0  0  0  0  0  0  0  0
  -26.6890  -11.8130   20.1000 N   0  0  0  0  0  0  0  0  0  0  0  0
  -24.6380  -10.7410   20.7670 C   0  0  0  0  0  0  0  0  0  0  0  0
  -24.9670   -9.8510   21.8140 C   0  0  0  0  0  3  0  0  0  0  0  0
  -24.1770   -8.7060   22.0570 C   0  0  0  0  0  3  0  0  0  0  0  0
  -23.0440   -8.4430   21.2530 C   0  0  0  0  0  0  0  0  0  0  0  0
  -22.7330   -9.3180   20.1970 C   0  0  0  0  0  3  0  0  0  0  0  0
  -23.5230  -10.4550   19.9530 C   0  0  0  0  0  3  0  0  0  0  0  0
  -22.2330   -7.3420   21.3970 O   0  0  0  0  0  0  0  0  0  0  0  0
  -21.9430   -6.8210   22.6330 C   0  0  0  0  0  0  0  0  0  0  0  0
  -21.3280   -7.5950   23.6420 C   0  0  0  0  0  3  0  0  0  0  0  0
  -20.9820   -7.0010   24.8730 C   0  0  0  0  0  3  0  0  0  0  0  0
  -21.2430   -5.6350   25.0940 C   0  0  0  0  0  0  0  0  0  0  0  0
  -21.8530   -4.8630   24.0890 C   0  0  0  0  0  3  0  0  0  0  0  0
  -22.1990   -5.4550   22.8620 C   0  0  0  0  0  0  0  0  0  0  0  0
  -22.7650   -4.7020   21.8890 F   0  0  0  0  0  0  0  0  0  0  0  0
  -20.9070   -5.0610   26.2720 F   0  0  0  0  0  0  0  0  0  0  0  0
  -23.7340  -13.9050   20.9110 C   0  0  0  0  0  0  0  0  0  0  0  0
  -23.0400  -13.2990   21.8670 N   0  0  0  0  0  0  0  0  0  0  0  0
  -23.3130  -14.9310   20.3750 O   0  0  0  0  0  0  0  0  0  0  0  0
  -23.3910  -12.4710   22.3260 H   0  0  0  0  0  0  0  0  0  0  0  0
  -22.1440  -13.6720   22.1500 H   0  0  0  0  0  0  0  0  0  0  0  0
  -26.4120  -15.3720   19.8750 N   0  0  0  0  0  0  0  0  0  0  0  0
  -25.6410  -16.0280   19.9250 H   0  0  0  0  0  0  0  0  0  0  0  0
  -27.1240  -15.6640   19.2170 H   0  0  0  0  0  0  0  0  0  0  0  0
  -28.5970  -22.4460   20.2150 N   0  0  0  0  0  4  0  0  0  0  0  0
  -27.8300  -22.3230   19.5740 H   0  0  0  0  0  0  0  0  0  0  0  0
  -29.4460  -22.4750   19.6720 H   0  0  0  0  0  0  0  0  0  0  0  0
  -28.4090  -23.7420   20.8950 C   0  0  0  0  0  2  0  0  0  0  0  0
  -29.4230  -24.7940   20.4270 C   0  0  0  0  0  2  0  0  0  0  0  0
  -29.2270  -26.1270   21.1570 C   0  0  0  0  0  2  0  0  0  0  0  0
  -29.1450  -27.1730   20.2030 O   0  0  0  0  0  0  0  0  0  0  0  0
  -24.6470  -31.7310   23.2390 C   0  0  0  0  0  0  0  0  0  0  0  0
  -27.9040  -27.7460   20.1680 C   0  0  0  0  0  0  0  0  0  0  0  0
  -23.6740  -30.2520   21.5060 C   0  0  0  0  0  3  0  0  0  0  0  0
  -25.3520  -28.9210   20.1190 C   0  0  0  0  0  0  0  0  0  0  0  0
  -26.1430  -30.9010   21.4320 C   0  0  0  0  0  2  0  0  0  0  0  0
  -26.4120  -29.5690   20.7700 C   0  0  0  0  0  0  0  0  0  0  0  0
  -27.6910  -28.9850   20.7980 C   0  0  0  0  0  3  0  0  0  0  0  0
  -26.8380  -27.0890   19.5220 C   0  0  0  0  0  3  0  0  0  0  0  0
  -25.5570  -27.6750   19.4960 C   0  0  0  0  0  3  0  0  0  0  0  0
  -24.0180  -29.6300   20.1250 C   0  0  0  0  0  2  0  0  0  0  0  0
  -24.8340  -30.9750   22.1200 N   0  0  0  0  0  0  0  0  0  0  0  0
  -23.5210  -31.8750   23.7320 O   0  0  0  0  0  0  0  0  0  0  0  0
  -23.0940  -29.1410   22.4130 C   0  0  0  0  0  0  0  0  0  0  0  0
  -21.8200  -28.7900   22.1820 N   0  0  0  0  0  0  0  0  0  0  0  0
  -23.7910  -28.5950   23.2730 O   0  0  0  0  0  0  0  0  0  0  0  0
  -21.3160  -29.2910   21.4630 H   0  0  0  0  0  0  0  0  0  0  0  0
  -18.6170  -27.1410   22.3760 C   0  0  0  0  0  0  0  0  0  0  0  0
  -21.0780  -27.7430   22.8800 C   0  0  0  0  0  3  0  0  0  0  0  0
  -21.4270  -26.3460   22.3220 C   0  0  0  0  0  2  0  0  0  0  0  0
  -20.4790  -25.8900   21.2070 C   0  0  0  0  0  2  0  0  0  0  0  0
  -19.0380  -25.8360   21.7190 C   0  0  0  0  0  2  0  0  0  0  0  0
  -19.5760  -28.0440   22.9040 C   0  0  0  0  0  0  0  0  0  0  0  0
  -19.1360  -29.2630   23.4650 C   0  0  0  0  0  3  0  0  0  0  0  0
  -17.7670  -29.5820   23.5090 C   0  0  0  0  0  3  0  0  0  0  0  0
  -16.8190  -28.6760   23.0020 C   0  0  0  0  0  3  0  0  0  0  0  0
  -17.2420  -27.4580   22.4430 C   0  0  0  0  0  3  0  0  0  0  0  0
  -25.8320  -32.4740   23.9340 C   0  0  0  0  0  3  0  0  0  0  0  0
  -25.3950  -33.8510   24.1960 N   0  0  0  0  0  0  0  0  0  0  0  0
  -25.7140  -34.9060   23.4340 C   0  0  0  0  0  0  0  0  0  0  0  0
  -26.4780  -34.8280   22.4680 O   0  0  0  0  0  0  0  0  0  0  0  0
  -24.7270  -33.9790   24.9420 H   0  0  0  0  0  0  0  0  0  0  0  0
  -23.9030  -36.5530   22.8660 C   0  0  0  0  0  1  0  0  0  0  0  0
  -25.0870  -36.2620   23.8040 C   0  0  0  0  0  3  0  0  0  0  0  0
  -27.0620  -37.3210   24.8050 C   0  0  0  0  0  1  0  0  0  0  0  0
  -26.0470  -37.3870   23.7570 N   0  0  0  0  0  0  0  0  0  0  0  0
  -25.5630  -38.2770   23.8420 H   0  0  0  0  0  0  0  0  0  0  0  0
  -26.3070  -31.7740   25.2660 C   0  0  1  0  0  0  0  0  0  0  0  0
  -25.1500  -31.4400   26.2370 C   0  0  0  0  0  1  0  0  0  0  0  0
  -27.0600  -30.4600   24.9500 C   0  0  0  0  0  1  0  0  0  0  0  0
  -27.3070  -32.6910   26.0110 C   0  0  0  0  0  1  0  0  0  0  0  0
  2  4  1  0
  4  1  1  0
  4  3  1  0
  5  9  1  0
  5  2  1  0
  5  6  1  0
  6  8  1  0
  6  3  1  0
  7  6  1  0
  9 18  1  0
 10 16  1  0
 10 18  1  0
 11 16  1  0
 12 13  1  0
 12 11  1  0
 14 13  1  0
 14 23  1  0
 14 15  1  0
 16 15  1  0
 17 10  2  0
 18 19  1  0
 20 21  2  0
 21 40  1  0
 22 21  1  0
 22 25  1  0
 23 20  1  0
 23 24  1  0
 24 22  2  0
 25 26  1  0
 26 27  2  0
 28 31  1  0
 28 27  1  0
 29 28  2  0
 30 29  1  0
 30 25  2  0
 31 32  1  0
 32 37  2  0
 32 33  1  0
 33 34  2  0
 34 35  1  0
 35 39  1  0
 36 35  2  0
 37 36  1  0
 38 37  1  0
 40 41  1  0
 41 44  1  0
 41 43  1  0
 42 40  2  0
 45 46  1  0
 45 20  1  0
 47 45  1  0
 48 51  1  0
 48  1  1  0
 49 48  1  0
 50 48  1  0
 52 51  1  0
 52 53  1  0
 54 53  1  0
 55 66  2  0
 56 54  1  0
 56 61  1  0
 57 65  1  0
 57 67  1  0
 58 64  1  0
 58 60  1  0
 59 65  1  0
 60 61  2  0
 60 59  1  0
 62 56  2  0
 63 62  1  0
 63 58  2  0
 64 57  1  0
 65 55  1  0
 67 69  2  0
 68 67  1  0
 70 68  1  0
 71 80  2  0
 71 76  1  0
 72 68  1  0
 72 76  1  0
 73 72  1  0
 74 75  1  0
 74 73  1  0
 75 71  1  0
 76 77  2  0
 77 78  1  0
 79 78  2  0
 80 79  1  0
 81 55  1  0
 81 82  1  0
 81 91  1  0
 82 85  1  0
 83 87  1  0
 83 82  1  0
 84 83  2  0
 87 86  1  0
 89 87  1  0
 89 90  1  0
 89 88  1  0
 91 94  1  1
 91 92  1  0
 93 91  1  0
M  ISO  4  10 100  18 100  53 101  54 101
M  END
>  <TORSDO>  (5) 
F 22

>  <SCORE>  (5) 
-10.321

>  <name>  (5) 
4

>  <ligand_id>  (5) 
4

>  <original_smiles>  (5) 
[H]c1c([H])c([H])c2c(c1[H])C([H])([H])C([H])([H])C([H])([H])C2([H])N([H])C(=O)C1([H])N(C(=O)C([H])(N([H])C(=O)C([H])(N([H])C([H])([H])[H])C([H])([H])[H])C(C([H])([H])[H])(C([H])([H])[H])C([H])([H])[H])C([H])([H])c2c([H])c(OC([H])([H])C([H])([H])C([H])([H])[N+]([H])([H])C([H])([H])C3([H])C([H])([H])C([H])(C([H])([H])N([H])C(=O)N4C([H])([H])C([H])([H])C([H])([H])C([H])(n5nc(-c6c([H])c([H])c(Oc7c([H])c([H])c(F)c([H])c7F)c([H])c6[H])c(C(=O)N([H])[H])c5N([H])[H])C4([H])[H])[N+]([H])([H])C3([H])[H])c([H])c([H])c2C1([H])[H]

>  <smiles>  (5) 
[H]c1c([H])c([H])c2c(c1[H])C([H])([H])C([H])([H])C([H])([H])C2([H])N([H])C(=O)C1([H])N(C(=O)C([H])(N([H])C(=O)C([H])(N([H])C([H])([H])[H])C([H])([H])[H])C(C([H])([H])[H])(C([H])([H])[H])C([H])([H])[H])C([H])([H])c2c([H])c(OC([H])([H])C([H])([H])C([H])([H])[N+]([H])([H])C([H])([H])C3([H])C([H])([H])C([H])(C([H])([H])N([H])C(=O)N4C([H])([H])C([H])([H])C([H])([H])C([H])(n5nc(-c6c([H])c([H])c(Oc7c([H])c([H])c(F)c([H])c7F)c([H])c6[H])c(C(=O)N([H])[H])c5N([H])[H])C4([H])[H])[N+]([H])([H])C3([H])[H])c([H])c([H])c2C1([H])[H]

$$$$
5:0:0
     RDKit          3D

 98107  0  0  1  0  0  0  0  0999 V2000
  -32.3120  -20.7580   19.3680 C   0  0  0  0  0  2  0  0  0  0  0  0
  -32.5320  -20.2330   21.8350 C   0  0  0  0  0  2  0  0  0  0  0  0
  -32.0570  -22.1760   19.9350 C   0  0  0  0  0  2  0  0  0  0  0  0
  -31.5230  -21.3530   22.1990 C   0  0  0  0  0  2  0  0  0  0  0  0
  -32.2800  -19.6380   20.4390 C   0  0  0  0  0  3  0  0  0  0  0  0
  -31.0310  -22.1160   21.0130 N   0  0  1  0  0  4  0  0  0  0  0  0
  -30.3300  -21.5090   20.6150 H   0  0  0  0  0  0  0  0  0  0  0  0
  -31.1320  -17.4190   20.8440 C   0  0  0  0  0  3  0  0  0  0  0  0
  -29.7490  -19.2630   20.0550 C   0  0  0  0  0  3  0  0  0  0  0  0
  -28.7240  -17.1150   20.5780 C   0  0  0  0  0  3  0  0  0  0  0  0
  -31.0210  -18.7660   20.4340 C   0  0  0  0  0  0  0  0  0  0  0  0
  -29.9930  -16.5840   20.8780 C   0  0  0  0  0  0  0  0  0  0  0  0
  -28.6050  -18.4480   20.1470 C   0  0  0  0  0  0  0  0  0  0  0  0
  -27.3930  -18.9420   19.8000 F   0  0  0  0  0  0  0  0  0  0  0  0
  -30.6980  -14.3180   20.4120 C   0  0  0  0  0  0  0  0  0  0  0  0
  -30.3440  -12.2090   19.1960 C   0  0  0  0  0  2  0  0  0  0  0  0
  -29.3770  -12.4600   18.0190 C   0  0  0  0  0  2  0  0  0  0  0  0
  -27.9090  -12.3480   18.4730 C   0  0  0  0  0  2  0  0  0  0  0  0
  -27.6150  -13.1720   19.7560 C   0  0  0  0  0  3  0  0  0  0  0  0
  -28.6780  -12.8760   20.8390 C   0  0  0  0  0  2  0  0  0  0  0  0
  -30.0100  -13.1580   20.2660 N   0  0  0  0  0  0  0  0  0  0  0  0
  -31.7640  -14.5580   19.8310 O   0  0  0  0  0  0  0  0  0  0  0  0
  -30.0920  -15.2130   21.2010 N   0  0  0  0  0  0  0  0  0  0  0  0
  -29.2840  -14.8180   21.6590 H   0  0  0  0  0  0  0  0  0  0  0  0
  -25.2360  -13.8230   20.5080 C   0  0  0  0  0  0  0  0  0  0  0  0
  -24.1640  -13.0710   20.9000 C   0  0  0  0  0  0  0  0  0  0  0  0
  -24.5980  -11.7090   20.8490 C   0  0  0  0  0  0  0  0  0  0  0  0
  -26.2620  -12.9270   20.2510 N   0  0  0  0  0  0  0  0  0  0  0  0
  -25.8800  -11.6490   20.5100 N   0  0  0  0  0  0  0  0  0  0  0  0
  -23.8550  -10.4590   21.0460 C   0  0  0  0  0  0  0  0  0  0  0  0
  -24.2910   -9.4780   21.9620 C   0  0  0  0  0  3  0  0  0  0  0  0
  -23.5500   -8.2900   22.1440 C   0  0  0  0  0  3  0  0  0  0  0  0
  -22.3600   -8.0770   21.4090 C   0  0  0  0  0  0  0  0  0  0  0  0
  -21.9430   -9.0470   20.4810 C   0  0  0  0  0  3  0  0  0  0  0  0
  -22.6850  -10.2250   20.2970 C   0  0  0  0  0  3  0  0  0  0  0  0
  -21.5900   -6.9430   21.5030 O   0  0  0  0  0  0  0  0  0  0  0  0
  -21.5500   -6.1930   22.6520 C   0  0  0  0  0  0  0  0  0  0  0  0
  -21.1440   -6.7410   23.8870 C   0  0  0  0  0  3  0  0  0  0  0  0
  -21.0530   -5.9170   25.0270 C   0  0  0  0  0  3  0  0  0  0  0  0
  -21.3570   -4.5450   24.9310 C   0  0  0  0  0  0  0  0  0  0  0  0
  -21.7540   -3.9960   23.6990 C   0  0  0  0  0  3  0  0  0  0  0  0
  -21.8480   -4.8170   22.5620 C   0  0  0  0  0  0  0  0  0  0  0  0
  -22.2130   -4.2810   21.3730 F   0  0  0  0  0  0  0  0  0  0  0  0
  -21.2610   -3.7510   26.0230 F   0  0  0  0  0  0  0  0  0  0  0  0
  -22.7800  -13.5680   21.2080 C   0  0  0  0  0  0  0  0  0  0  0  0
  -22.0570  -12.8760   22.0800 N   0  0  0  0  0  0  0  0  0  0  0  0
  -22.3510  -14.6090   20.7110 O   0  0  0  0  0  0  0  0  0  0  0  0
  -22.4160  -12.0340   22.5070 H   0  0  0  0  0  0  0  0  0  0  0  0
  -21.1280  -13.1900   22.3270 H   0  0  0  0  0  0  0  0  0  0  0  0
  -25.4160  -15.1910   20.3240 N   0  0  0  0  0  0  0  0  0  0  0  0
  -24.6380  -15.8370   20.4090 H   0  0  0  0  0  0  0  0  0  0  0  0
  -26.2140  -15.5930   19.8520 H   0  0  0  0  0  0  0  0  0  0  0  0
  -30.2290  -23.3340   21.3790 C   0  0  0  0  0  2  0  0  0  0  0  0
  -30.6330  -24.6460   20.6760 C   0  0  0  0  0  0  0  0  0  0  0  0
  -31.4860  -25.3850   21.1760 O   0  0  0  0  0  0  0  0  0  0  0  0
  -30.0110  -25.0050   19.3200 C   0  0  0  0  0  2  0  0  0  0  0  0
  -28.5820  -25.5920   19.3720 C   0  0  0  0  0  2  0  0  0  0  0  0
  -28.4630  -26.7900   20.1460 O   0  0  0  0  0  0  0  0  0  0  0  0
  -24.5530  -31.8890   23.2240 C   0  0  0  0  0  0  0  0  0  0  0  0
  -27.2420  -27.4420   20.1680 C   0  0  0  0  0  0  0  0  0  0  0  0
  -23.3540  -30.4730   21.5870 C   0  0  0  0  0  3  0  0  0  0  0  0
  -24.8180  -28.9140   20.1950 C   0  0  0  0  0  0  0  0  0  0  0  0
  -25.8810  -30.8260   21.4050 C   0  0  0  0  0  2  0  0  0  0  0  0
  -25.9720  -29.4490   20.7820 C   0  0  0  0  0  0  0  0  0  0  0  0
  -27.1780  -28.7150   20.7790 C   0  0  0  0  0  3  0  0  0  0  0  0
  -26.0590  -26.9070   19.6010 C   0  0  0  0  0  3  0  0  0  0  0  0
  -24.8510  -27.6340   19.6200 C   0  0  0  0  0  3  0  0  0  0  0  0
  -23.5760  -29.7740   20.2180 C   0  0  0  0  0  2  0  0  0  0  0  0
  -24.6120  -31.0810   22.1290 N   0  0  0  0  0  0  0  0  0  0  0  0
  -23.4690  -32.1660   23.7570 O   0  0  0  0  0  0  0  0  0  0  0  0
  -22.6960  -29.4620   22.5520 C   0  0  0  0  0  0  0  0  0  0  0  0
  -21.3710  -29.2870   22.4260 N   0  0  0  0  0  0  0  0  0  0  0  0
  -23.3790  -28.8360   23.3690 O   0  0  0  0  0  0  0  0  0  0  0  0
  -20.8880  -29.8410   21.7340 H   0  0  0  0  0  0  0  0  0  0  0  0
  -17.9870  -28.1450   22.9530 C   0  0  0  0  0  0  0  0  0  0  0  0
  -20.5500  -28.3620   23.2030 C   0  0  0  0  0  3  0  0  0  0  0  0
  -20.6280  -26.9330   22.6180 C   0  0  0  0  0  2  0  0  0  0  0  0
  -19.5110  -26.6300   21.6140 C   0  0  0  0  0  2  0  0  0  0  0  0
  -18.1380  -26.7950   22.2720 C   0  0  0  0  0  2  0  0  0  0  0  0
  -19.1210  -28.8870   23.3770 C   0  0  0  0  0  0  0  0  0  0  0  0
  -18.9260  -30.1520   23.9730 C   0  0  0  0  0  3  0  0  0  0  0  0
  -17.6310  -30.6730   24.1540 C   0  0  0  0  0  3  0  0  0  0  0  0
  -16.5110  -29.9260   23.7490 C   0  0  0  0  0  3  0  0  0  0  0  0
  -16.6910  -28.6650   23.1520 C   0  0  0  0  0  3  0  0  0  0  0  0
  -25.8390  -32.5220   23.8440 C   0  0  0  0  0  3  0  0  0  0  0  0
  -25.5310  -33.9210   24.1670 N   0  0  0  0  0  0  0  0  0  0  0  0
  -25.8730  -34.9710   23.4080 C   0  0  0  0  0  0  0  0  0  0  0  0
  -26.5540  -34.8650   22.3850 O   0  0  0  0  0  0  0  0  0  0  0  0
  -24.9310  -34.0780   24.9650 H   0  0  0  0  0  0  0  0  0  0  0  0
  -24.1630  -36.7720   23.0180 C   0  0  0  0  0  1  0  0  0  0  0  0
  -25.3830  -36.3600   23.8580 C   0  0  0  0  0  3  0  0  0  0  0  0
  -27.4990  -37.2340   24.7460 C   0  0  0  0  0  1  0  0  0  0  0  0
  -26.4230  -37.4080   23.7730 N   0  0  0  0  0  0  0  0  0  0  0  0
  -26.0170  -38.3280   23.9150 H   0  0  0  0  0  0  0  0  0  0  0  0
  -26.3590  -31.7550   25.1200 C   0  0  1  0  0  0  0  0  0  0  0  0
  -25.2660  -31.5130   26.1850 C   0  0  0  0  0  1  0  0  0  0  0  0
  -26.9470  -30.3800   24.7280 C   0  0  0  0  0  1  0  0  0  0  0  0
  -27.5090  -32.5510   25.7790 C   0  0  0  0  0  1  0  0  0  0  0  0
  1  3  1  0
  1  5  1  0
  2  4  1  0
  3  6  1  0
  5 11  1  0
  5  2  1  0
  6 53  1  0
  6  4  1  0
  6  7  1  6
  8 12  1  0
  9 13  2  0
  9 11  1  0
 10 12  2  0
 11  8  2  0
 12 23  1  0
 13 10  1  0
 14 13  1  0
 15 23  1  0
 16 21  1  0
 17 18  1  0
 17 16  1  0
 19 18  1  0
 19 28  1  0
 19 20  1  0
 21 15  1  0
 21 20  1  0
 22 15  2  0
 23 24  1  0
 25 26  2  0
 26 45  1  0
 27 26  1  0
 27 30  1  0
 28 25  1  0
 28 29  1  0
 29 27  2  0
 30 31  1  0
 31 32  2  0
 33 36  1  0
 33 32  1  0
 34 33  2  0
 35 34  1  0
 35 30  2  0
 36 37  1  0
 37 38  1  0
 38 39  2  0
 40 39  1  0
 40 44  1  0
 41 40  2  0
 42 37  2  0
 42 41  1  0
 43 42  1  0
 45 46  1  0
 46 49  1  0
 46 48  1  0
 47 45  2  0
 50 51  1  0
 50 25  1  0
 52 50  1  0
 54 55  2  0
 54 53  1  0
 56 57  1  0
 56 54  1  0
 57 58  1  0
 58 60  1  0
 59 70  2  0
 60 65  1  0
 61 69  1  0
 61 71  1  0
 62 68  1  0
 62 64  1  0
 63 69  1  0
 64 63  1  0
 65 64  2  0
 66 67  1  0
 66 60  2  0
 67 62  2  0
 68 61  1  0
 69 59  1  0
 71 73  2  0
 72 71  1  0
 74 72  1  0
 75 84  2  0
 75 80  1  0
 76 72  1  0
 76 80  1  0
 77 76  1  0
 78 79  1  0
 78 77  1  0
 79 75  1  0
 80 81  2  0
 81 82  1  0
 83 82  2  0
 84 83  1  0
 85 59  1  0
 85 86  1  0
 85 95  1  0
 86 89  1  0
 87 91  1  0
 87 86  1  0
 88 87  2  0
 91 90  1  0
 93 91  1  0
 93 94  1  0
 93 92  1  0
 95 98  1  1
 95 96  1  0
 97 95  1  0
M  ISO  4  15 100  23 100  57 101  58 101
M  END
>  <TORSDO>  (6) 
F 21

>  <SCORE>  (6) 
-14.229

>  <name>  (6) 
5

>  <ligand_id>  (6) 
5

>  <original_smiles>  (6) 
[H]c1c([H])c([H])c2c(c1[H])C([H])([H])C([H])([H])C([H])([H])C2([H])N([H])C(=O)C1([H])N(C(=O)C([H])(N([H])C(=O)C([H])(N([H])C([H])([H])[H])C([H])([H])[H])C(C([H])([H])[H])(C([H])([H])[H])C([H])([H])[H])C([H])([H])c2c([H])c(OC([H])([H])C([H])([H])C(=O)C([H])([H])[N+]3([H])C([H])([H])C([H])([H])C([H])(c4c([H])c(F)c([H])c(N([H])C(=O)N5C([H])([H])C([H])([H])C([H])([H])C([H])(n6nc(-c7c([H])c([H])c(Oc8c([H])c([H])c(F)c([H])c8F)c([H])c7[H])c(C(=O)N([H])[H])c6N([H])[H])C5([H])[H])c4[H])C([H])([H])C3([H])[H])c([H])c([H])c2C1([H])[H]

>  <smiles>  (6) 
[H]c1c([H])c([H])c2c(c1[H])C([H])([H])C([H])([H])C([H])([H])C2([H])N([H])C(=O)C1([H])N(C(=O)C([H])(N([H])C(=O)C([H])(N([H])C([H])([H])[H])C([H])([H])[H])C(C([H])([H])[H])(C([H])([H])[H])C([H])([H])[H])C([H])([H])c2c([H])c(OC([H])([H])C([H])([H])C(=O)C([H])([H])[N+]3([H])C([H])([H])C([H])([H])C([H])(c4c([H])c(F)c([H])c(N([H])C(=O)N5C([H])([H])C([H])([H])C([H])([H])C([H])(n6nc(-c7c([H])c([H])c(Oc8c([H])c([H])c(F)c([H])c8F)c([H])c7[H])c(C(=O)N([H])[H])c6N([H])[H])C5([H])[H])c4[H])C([H])([H])C3([H])[H])c([H])c([H])c2C1([H])[H]

$$$$
6:0:0
     RDKit          3D

 93101  0  0  1  0  0  0  0  0999 V2000
  -30.2890  -22.1820   22.4310 C   0  0  0  0  0  1  0  0  0  0  0  0
  -30.0450  -21.8460   20.9440 C   0  0  0  0  0  3  0  0  0  0  0  0
  -29.3570  -20.4610   20.8300 C   0  0  0  0  0  0  0  0  0  0  0  0
  -30.1080  -19.3390   20.8350 N   0  0  0  0  0  0  0  0  0  0  0  0
  -28.1250  -20.4180   20.7540 O   0  0  0  0  0  0  0  0  0  0  0  0
  -31.1110  -19.4470   20.9100 H   0  0  0  0  0  0  0  0  0  0  0  0
  -30.8640  -14.5260   20.1340 C   0  0  0  0  0  0  0  0  0  0  0  0
  -30.5010  -12.4160   18.8950 C   0  0  0  0  0  2  0  0  0  0  0  0
  -29.4780  -12.6500   17.7630 C   0  0  0  0  0  2  0  0  0  0  0  0
  -28.0300  -12.5040   18.2760 C   0  0  0  0  0  2  0  0  0  0  0  0
  -27.7810  -13.2730   19.6020 C   0  0  0  0  0  3  0  0  0  0  0  0
  -28.9040  -12.9590   20.6140 C   0  0  0  0  0  2  0  0  0  0  0  0
  -30.1780  -13.3500   19.9900 N   0  0  0  0  0  0  0  0  0  0  0  0
  -31.9640  -14.6880   19.5910 O   0  0  0  0  0  0  0  0  0  0  0  0
  -29.4730  -17.3030   22.1370 C   0  0  0  0  0  2  0  0  0  0  0  0
  -29.4590  -15.8040   21.8160 C   0  0  0  0  0  2  0  0  0  0  0  0
  -30.4360  -16.9680   19.9830 C   0  0  0  0  0  2  0  0  0  0  0  0
  -29.5680  -17.9690   20.7690 C   0  0  0  0  0  3  0  0  0  0  0  0
  -30.1640  -15.6270   20.5390 N   0  0  0  0  0  0  0  0  0  0  0  0
  -25.4310  -13.8610   20.4700 C   0  0  0  0  0  0  0  0  0  0  0  0
  -24.3830  -13.0770   20.8730 C   0  0  0  0  0  0  0  0  0  0  0  0
  -24.8350  -11.7270   20.7650 C   0  0  0  0  0  0  0  0  0  0  0  0
  -26.4570  -12.9850   20.1480 N   0  0  0  0  0  0  0  0  0  0  0  0
  -26.1040  -11.6940   20.3790 N   0  0  0  0  0  0  0  0  0  0  0  0
  -24.1160  -10.4590   20.9510 C   0  0  0  0  0  0  0  0  0  0  0  0
  -24.5490   -9.4980   21.8900 C   0  0  0  0  0  3  0  0  0  0  0  0
  -23.8330   -8.2950   22.0660 C   0  0  0  0  0  3  0  0  0  0  0  0
  -22.6680   -8.0460   21.3010 C   0  0  0  0  0  0  0  0  0  0  0  0
  -22.2530   -8.9960   20.3530 C   0  0  0  0  0  3  0  0  0  0  0  0
  -22.9710  -10.1910   20.1750 C   0  0  0  0  0  3  0  0  0  0  0  0
  -21.9220   -6.8960   21.3870 O   0  0  0  0  0  0  0  0  0  0  0  0
  -21.7920   -6.2070   22.5660 C   0  0  0  0  0  0  0  0  0  0  0  0
  -21.2760   -6.8140   23.7320 C   0  0  0  0  0  3  0  0  0  0  0  0
  -21.0950   -6.0490   24.9020 C   0  0  0  0  0  3  0  0  0  0  0  0
  -21.4200   -4.6800   24.9060 C   0  0  0  0  0  0  0  0  0  0  0  0
  -21.9280   -4.0730   23.7440 C   0  0  0  0  0  3  0  0  0  0  0  0
  -22.1110   -4.8340   22.5770 C   0  0  0  0  0  0  0  0  0  0  0  0
  -22.5810   -4.2390   21.4540 F   0  0  0  0  0  0  0  0  0  0  0  0
  -21.2380   -3.9430   26.0270 F   0  0  0  0  0  0  0  0  0  0  0  0
  -23.0070  -13.5460   21.2480 C   0  0  0  0  0  0  0  0  0  0  0  0
  -22.3400  -12.8320   22.1480 N   0  0  0  0  0  0  0  0  0  0  0  0
  -22.5330  -14.5820   20.7800 O   0  0  0  0  0  0  0  0  0  0  0  0
  -22.7360  -11.9930   22.5460 H   0  0  0  0  0  0  0  0  0  0  0  0
  -21.4190  -13.1250   22.4400 H   0  0  0  0  0  0  0  0  0  0  0  0
  -25.5900  -15.2360   20.3320 N   0  0  0  0  0  0  0  0  0  0  0  0
  -24.8350  -15.8870   20.5120 H   0  0  0  0  0  0  0  0  0  0  0  0
  -26.4220  -15.6860   19.9730 H   0  0  0  0  0  0  0  0  0  0  0  0
  -29.1940  -22.8690   20.2720 N   0  0  0  0  0  4  0  0  0  0  0  0
  -29.1690  -22.6160   19.2960 H   0  0  0  0  0  0  0  0  0  0  0  0
  -28.2600  -22.7050   20.6170 H   0  0  0  0  0  0  0  0  0  0  0  0
  -29.5520  -24.3190   20.4020 C   0  0  0  0  0  2  0  0  0  0  0  0
  -28.4320  -25.2150   19.8250 C   0  0  0  0  0  2  0  0  0  0  0  0
  -28.5730  -26.6350   20.0620 O   0  0  0  0  0  0  0  0  0  0  0  0
  -24.5950  -31.6850   23.1660 C   0  0  0  0  0  0  0  0  0  0  0  0
  -27.3970  -27.3700   20.0170 C   0  0  0  0  0  0  0  0  0  0  0  0
  -23.4520  -30.2850   21.4820 C   0  0  0  0  0  3  0  0  0  0  0  0
  -24.9650  -28.8310   20.0360 C   0  0  0  0  0  0  0  0  0  0  0  0
  -25.9730  -30.7170   21.3250 C   0  0  0  0  0  2  0  0  0  0  0  0
  -26.1050  -29.3650   20.6490 C   0  0  0  0  0  0  0  0  0  0  0  0
  -27.3230  -28.6430   20.6380 C   0  0  0  0  0  3  0  0  0  0  0  0
  -26.2330  -26.8710   19.3800 C   0  0  0  0  0  3  0  0  0  0  0  0
  -25.0240  -27.5830   19.3990 C   0  0  0  0  0  3  0  0  0  0  0  0
  -23.6960  -29.6490   20.0890 C   0  0  0  0  0  2  0  0  0  0  0  0
  -24.6910  -30.9090   22.0480 N   0  0  0  0  0  0  0  0  0  0  0  0
  -23.5010  -31.9110   23.6970 O   0  0  0  0  0  0  0  0  0  0  0  0
  -22.8220  -29.2210   22.4080 C   0  0  0  0  0  0  0  0  0  0  0  0
  -21.5050  -28.9990   22.2590 N   0  0  0  0  0  0  0  0  0  0  0  0
  -23.5140  -28.5970   23.2170 O   0  0  0  0  0  0  0  0  0  0  0  0
  -21.0050  -29.5570   21.5810 H   0  0  0  0  0  0  0  0  0  0  0  0
  -18.1610  -27.6930   22.6900 C   0  0  0  0  0  0  0  0  0  0  0  0
  -20.7080  -28.0190   22.9970 C   0  0  0  0  0  3  0  0  0  0  0  0
  -20.8580  -26.6060   22.3860 C   0  0  0  0  0  2  0  0  0  0  0  0
  -19.7770  -26.2750   21.3540 C   0  0  0  0  0  2  0  0  0  0  0  0
  -18.3840  -26.3660   21.9850 C   0  0  0  0  0  2  0  0  0  0  0  0
  -19.2530  -28.4770   23.1500 C   0  0  0  0  0  0  0  0  0  0  0  0
  -18.9930  -29.7200   23.7670 C   0  0  0  0  0  3  0  0  0  0  0  0
  -17.6720  -30.1800   23.9280 C   0  0  0  0  0  3  0  0  0  0  0  0
  -16.5950  -29.3930   23.4870 C   0  0  0  0  0  3  0  0  0  0  0  0
  -16.8400  -28.1510   22.8730 C   0  0  0  0  0  3  0  0  0  0  0  0
  -25.8550  -32.3400   23.8140 C   0  0  0  0  0  3  0  0  0  0  0  0
  -26.3640  -31.5740   25.0940 C   0  0  1  0  0  0  0  0  0  0  0  0
  -25.2560  -31.3030   26.1390 C   0  0  0  0  0  1  0  0  0  0  0  0
  -26.9880  -30.2130   24.7050 C   0  0  0  0  0  1  0  0  0  0  0  0
  -27.4820  -32.3920   25.7830 C   0  0  0  0  0  1  0  0  0  0  0  0
  -25.5110  -33.7290   24.1420 N   0  0  0  0  0  0  0  0  0  0  0  0
  -25.8110  -34.7880   23.3780 C   0  0  0  0  0  0  0  0  0  0  0  0
  -26.4790  -34.7000   22.3440 O   0  0  0  0  0  0  0  0  0  0  0  0
  -24.9180  -33.8710   24.9480 H   0  0  0  0  0  0  0  0  0  0  0  0
  -24.0200  -36.5190   23.0370 C   0  0  0  0  0  1  0  0  0  0  0  0
  -25.2850  -36.1630   23.8330 C   0  0  0  0  0  3  0  0  0  0  0  0
  -27.4000  -37.1250   24.6250 C   0  0  0  0  0  1  0  0  0  0  0  0
  -26.2810  -37.2480   23.6950 N   0  0  0  0  0  0  0  0  0  0  0  0
  -25.8480  -38.1560   23.8390 H   0  0  0  0  0  0  0  0  0  0  0  0
  2  1  1  0
  3  4  1  0
  3  2  1  0
  4  6  1  0
  5  3  2  0
  7 19  1  0
  8 13  1  0
  9 10  1  0
  9  8  1  0
 11 10  1  0
 11 23  1  0
 11 12  1  0
 13  7  1  0
 13 12  1  0
 14  7  2  0
 16 15  1  0
 17 19  1  0
 17 18  1  0
 18  4  1  0
 18 15  1  0
 19 16  1  0
 20 21  2  0
 21 40  1  0
 22 21  1  0
 22 25  1  0
 23 24  1  0
 23 20  1  0
 24 22  2  0
 25 26  1  0
 26 27  2  0
 28 31  1  0
 28 27  1  0
 29 28  2  0
 30 29  1  0
 30 25  2  0
 31 32  1  0
 32 37  2  0
 32 33  1  0
 33 34  2  0
 34 35  1  0
 35 39  1  0
 36 35  2  0
 37 36  1  0
 38 37  1  0
 40 41  1  0
 41 44  1  0
 41 43  1  0
 42 40  2  0
 45 20  1  0
 45 46  1  0
 47 45  1  0
 48 51  1  0
 48 50  1  0
 48  2  1  0
 49 48  1  0
 52 53  1  0
 52 51  1  0
 54 65  2  0
 55 53  1  0
 55 60  1  0
 56 64  1  0
 56 66  1  0
 57 63  1  0
 57 59  1  0
 58 64  1  0
 59 58  1  0
 60 59  2  0
 61 62  1  0
 61 55  2  0
 62 57  2  0
 63 56  1  0
 64 54  1  0
 66 68  2  0
 67 66  1  0
 69 67  1  0
 70 79  2  0
 70 75  1  0
 71 67  1  0
 71 75  1  0
 72 71  1  0
 73 74  1  0
 73 72  1  0
 74 70  1  0
 75 76  2  0
 76 77  1  0
 78 77  2  0
 79 78  1  0
 80 54  1  0
 80 85  1  0
 80 81  1  0
 81 84  1  1
 81 82  1  0
 83 81  1  0
 85 88  1  0
 86 90  1  0
 86 85  1  0
 87 86  2  0
 90 89  1  0
 92 90  1  0
 92 93  1  0
 92 91  1  0
M  ISO  4   7 100  19 100  52 101  53 101
M  END
>  <TORSDO>  (7) 
F 20

>  <SCORE>  (7) 
-12.280

>  <name>  (7) 
6

>  <ligand_id>  (7) 
6

>  <original_smiles>  (7) 
[H]c1c([H])c([H])c2c(c1[H])C([H])([H])C([H])([H])C([H])([H])C2([H])N([H])C(=O)C1([H])N(C(=O)C([H])(N([H])C(=O)C([H])(N([H])C([H])([H])[H])C([H])([H])[H])C(C([H])([H])[H])(C([H])([H])[H])C([H])([H])[H])C([H])([H])c2c([H])c(OC([H])([H])C([H])([H])[N+]([H])([H])C([H])(C(=O)N([H])C3([H])C([H])([H])N(C(=O)N4C([H])([H])C([H])([H])C([H])([H])C([H])(n5nc(-c6c([H])c([H])c(Oc7c([H])c([H])c(F)c([H])c7F)c([H])c6[H])c(C(=O)N([H])[H])c5N([H])[H])C4([H])[H])C([H])([H])C3([H])[H])C([H])([H])[H])c([H])c([H])c2C1([H])[H]

>  <smiles>  (7) 
[H]c1c([H])c([H])c2c(c1[H])C([H])([H])C([H])([H])C([H])([H])C2([H])N([H])C(=O)C1([H])N(C(=O)C([H])(N([H])C(=O)C([H])(N([H])C([H])([H])[H])C([H])([H])[H])C(C([H])([H])[H])(C([H])([H])[H])C([H])([H])[H])C([H])([H])c2c([H])c(OC([H])([H])C([H])([H])[N+]([H])([H])C([H])(C(=O)N([H])C3([H])C([H])([H])N(C(=O)N4C([H])([H])C([H])([H])C([H])([H])C([H])(n5nc(-c6c([H])c([H])c(Oc7c([H])c([H])c(F)c([H])c7F)c([H])c6[H])c(C(=O)N([H])[H])c5N([H])[H])C4([H])[H])C([H])([H])C3([H])[H])C([H])([H])[H])c([H])c([H])c2C1([H])[H]

$$$$
7:0:0
     RDKit          3D

 92100  0  0  1  0  0  0  0  0999 V2000
  -29.5890  -20.4010   21.3010 C   0  0  0  0  0  2  0  0  0  0  0  0
  -29.8880  -21.9210   21.4150 C   0  0  0  0  0  3  0  0  0  0  0  0
  -29.8580  -22.2520   22.7060 F   0  0  0  0  0  0  0  0  0  0  0  0
  -28.9090  -22.8370   20.6450 C   0  0  0  0  0  2  0  0  0  0  0  0
  -29.2400  -24.3540   20.7240 C   0  0  0  0  0  2  0  0  0  0  0  0
  -28.1840  -25.2180   20.0030 C   0  0  0  0  0  2  0  0  0  0  0  0
  -28.3680  -26.6420   20.1510 O   0  0  0  0  0  0  0  0  0  0  0  0
  -24.6160  -31.8690   23.2100 C   0  0  0  0  0  0  0  0  0  0  0  0
  -27.2210  -27.4190   20.0960 C   0  0  0  0  0  0  0  0  0  0  0  0
  -23.4030  -30.4970   21.5520 C   0  0  0  0  0  3  0  0  0  0  0  0
  -24.8470  -28.9710   20.1070 C   0  0  0  0  0  0  0  0  0  0  0  0
  -25.9350  -30.8320   21.3670 C   0  0  0  0  0  2  0  0  0  0  0  0
  -26.0100  -29.4680   20.7090 C   0  0  0  0  0  0  0  0  0  0  0  0
  -27.2000  -28.7000   20.7000 C   0  0  0  0  0  3  0  0  0  0  0  0
  -26.0390  -26.9580   19.4640 C   0  0  0  0  0  3  0  0  0  0  0  0
  -24.8580  -27.7180   19.4800 C   0  0  0  0  0  3  0  0  0  0  0  0
  -23.6110  -29.8390   20.1630 C   0  0  0  0  0  2  0  0  0  0  0  0
  -24.6700  -31.0790   22.1010 N   0  0  0  0  0  0  0  0  0  0  0  0
  -23.5350  -32.1440   23.7500 O   0  0  0  0  0  0  0  0  0  0  0  0
  -22.7420  -29.4670   22.4970 C   0  0  0  0  0  0  0  0  0  0  0  0
  -21.4150  -29.3030   22.3720 N   0  0  0  0  0  0  0  0  0  0  0  0
  -23.4200  -28.8190   23.2990 O   0  0  0  0  0  0  0  0  0  0  0  0
  -20.9290  -29.8770   21.6960 H   0  0  0  0  0  0  0  0  0  0  0  0
  -18.0280  -28.1370   22.8490 C   0  0  0  0  0  0  0  0  0  0  0  0
  -20.5870  -28.3660   23.1320 C   0  0  0  0  0  3  0  0  0  0  0  0
  -20.6780  -26.9390   22.5410 C   0  0  0  0  0  2  0  0  0  0  0  0
  -19.5760  -26.6380   21.5210 C   0  0  0  0  0  2  0  0  0  0  0  0
  -18.1930  -26.7920   22.1620 C   0  0  0  0  0  2  0  0  0  0  0  0
  -19.1530  -28.8830   23.2900 C   0  0  0  0  0  0  0  0  0  0  0  0
  -18.9460  -30.1430   23.8910 C   0  0  0  0  0  3  0  0  0  0  0  0
  -17.6470  -30.6580   24.0570 C   0  0  0  0  0  3  0  0  0  0  0  0
  -16.5360  -29.9080   23.6330 C   0  0  0  0  0  3  0  0  0  0  0  0
  -16.7270  -28.6510   23.0330 C   0  0  0  0  0  3  0  0  0  0  0  0
  -25.9050  -32.4830   23.8390 C   0  0  0  0  0  3  0  0  0  0  0  0
  -25.5910  -33.8620   24.2330 N   0  0  0  0  0  0  0  0  0  0  0  0
  -25.9040  -34.9480   23.5130 C   0  0  0  0  0  0  0  0  0  0  0  0
  -26.5590  -34.8930   22.4680 O   0  0  0  0  0  0  0  0  0  0  0  0
  -25.0090  -33.9790   25.0490 H   0  0  0  0  0  0  0  0  0  0  0  0
  -24.1490  -36.7300   23.2640 C   0  0  0  0  0  1  0  0  0  0  0  0
  -25.4120  -36.3110   24.0340 C   0  0  0  0  0  3  0  0  0  0  0  0
  -27.5580  -37.1810   24.8470 C   0  0  0  0  0  1  0  0  0  0  0  0
  -26.4300  -37.3790   23.9410 N   0  0  0  0  0  0  0  0  0  0  0  0
  -26.0190  -38.2870   24.1420 H   0  0  0  0  0  0  0  0  0  0  0  0
  -26.4470  -31.6600   25.0720 C   0  0  1  0  0  0  0  0  0  0  0  0
  -25.3720  -31.3710   26.1450 C   0  0  0  0  0  1  0  0  0  0  0  0
  -27.0300  -30.3050   24.6070 C   0  0  0  0  0  1  0  0  0  0  0  0
  -27.6030  -32.4320   25.7490 C   0  0  0  0  0  1  0  0  0  0  0  0
  -30.7490  -19.5390   21.8610 C   0  0  0  0  0  2  0  0  0  0  0  0
  -30.8450  -14.3670   20.7360 C   0  0  0  0  0  0  0  0  0  0  0  0
  -30.3950  -12.3030   19.4590 C   0  0  0  0  0  2  0  0  0  0  0  0
  -29.4990  -12.5290   18.2240 C   0  0  0  0  0  2  0  0  0  0  0  0
  -28.0230  -12.3560   18.6070 C   0  0  0  0  0  2  0  0  0  0  0  0
  -27.6540  -13.2050   19.8400 C   0  0  0  0  0  3  0  0  0  0  0  0
  -28.6640  -13.0390   20.9880 C   0  0  0  0  0  2  0  0  0  0  0  0
  -30.0500  -13.2700   20.5290 N   0  0  0  0  0  0  0  0  0  0  0  0
  -31.7050  -14.6730   19.9040 O   0  0  0  0  0  0  0  0  0  0  0  0
  -29.0050  -16.2490   22.9050 C   0  0  0  0  0  2  0  0  0  0  0  0
  -29.9490  -15.0430   23.0760 C   0  0  0  0  0  2  0  0  0  0  0  0
  -32.0180  -15.9200   22.2430 C   0  0  0  0  0  2  0  0  0  0  0  0
  -29.7170  -17.6220   23.0550 C   0  0  0  0  0  2  0  0  0  0  0  0
  -31.8430  -17.3570   21.6870 C   0  0  0  0  0  2  0  0  0  0  0  0
  -30.8980  -14.9980   21.9560 N   0  0  0  0  0  0  0  0  0  0  0  0
  -30.5270  -18.0550   21.8740 N   0  0  2  0  0  4  0  0  0  0  0  0
  -29.9790  -17.8440   21.0530 H   0  0  0  0  0  0  0  0  0  0  0  0
  -25.2570  -13.8150   20.5610 C   0  0  0  0  0  0  0  0  0  0  0  0
  -24.1830  -13.0440   20.9150 C   0  0  0  0  0  0  0  0  0  0  0  0
  -24.6370  -11.6900   20.8660 C   0  0  0  0  0  0  0  0  0  0  0  0
  -26.2940  -12.9310   20.3080 N   0  0  0  0  0  0  0  0  0  0  0  0
  -25.9260  -11.6480   20.5570 N   0  0  0  0  0  0  0  0  0  0  0  0
  -23.9020  -10.4300   21.0370 C   0  0  0  0  0  0  0  0  0  0  0  0
  -24.3590   -9.4230   21.9160 C   0  0  0  0  0  3  0  0  0  0  0  0
  -23.6280   -8.2260   22.0750 C   0  0  0  0  0  3  0  0  0  0  0  0
  -22.4260   -8.0270   21.3540 C   0  0  0  0  0  0  0  0  0  0  0  0
  -21.9880   -9.0240   20.4640 C   0  0  0  0  0  3  0  0  0  0  0  0
  -22.7190  -10.2130   20.3040 C   0  0  0  0  0  3  0  0  0  0  0  0
  -21.6650   -6.8860   21.4230 O   0  0  0  0  0  0  0  0  0  0  0  0
  -21.6860   -6.0720   22.5270 C   0  0  0  0  0  0  0  0  0  0  0  0
  -21.4010   -6.5630   23.8200 C   0  0  0  0  0  3  0  0  0  0  0  0
  -21.3660   -5.6790   24.9170 C   0  0  0  0  0  3  0  0  0  0  0  0
  -21.6050   -4.3050   24.7230 C   0  0  0  0  0  0  0  0  0  0  0  0
  -21.8820   -3.8130   23.4350 C   0  0  0  0  0  3  0  0  0  0  0  0
  -21.9200   -4.6950   22.3400 C   0  0  0  0  0  0  0  0  0  0  0  0
  -22.1670   -4.2130   21.0980 F   0  0  0  0  0  0  0  0  0  0  0  0
  -21.5630   -3.4540   25.7740 F   0  0  0  0  0  0  0  0  0  0  0  0
  -22.7870  -13.5250   21.1880 C   0  0  0  0  0  0  0  0  0  0  0  0
  -22.0510  -12.8230   22.0420 N   0  0  0  0  0  0  0  0  0  0  0  0
  -22.3560  -14.5580   20.6750 O   0  0  0  0  0  0  0  0  0  0  0  0
  -22.4110  -11.9870   22.4780 H   0  0  0  0  0  0  0  0  0  0  0  0
  -21.1130  -13.1270   22.2640 H   0  0  0  0  0  0  0  0  0  0  0  0
  -25.4330  -15.1880   20.4090 N   0  0  0  0  0  0  0  0  0  0  0  0
  -24.6690  -15.8430   20.5320 H   0  0  0  0  0  0  0  0  0  0  0  0
  -26.2770  -15.6240   20.0610 H   0  0  0  0  0  0  0  0  0  0  0  0
  1  2  1  0
  1 48  1  0
  2  3  1  0
  4  5  1  0
  4  2  1  0
  6  7  1  0
  6  5  1  0
  8 19  2  0
  9  7  1  0
  9 14  1  0
 10 18  1  0
 10 20  1  0
 11 17  1  0
 11 13  1  0
 12 18  1  0
 13 12  1  0
 14 13  2  0
 15 16  1  0
 15  9  2  0
 16 11  2  0
 17 10  1  0
 18  8  1  0
 20 22  2  0
 21 20  1  0
 23 21  1  0
 24 33  2  0
 24 29  1  0
 25 21  1  0
 25 29  1  0
 26 25  1  0
 27 28  1  0
 27 26  1  0
 28 24  1  0
 29 30  2  0
 30 31  1  0
 32 31  2  0
 33 32  1  0
 34  8  1  0
 34 35  1  0
 34 44  1  0
 35 38  1  0
 36 40  1  0
 36 35  1  0
 37 36  2  0
 40 39  1  0
 42 40  1  0
 42 43  1  0
 42 41  1  0
 44 47  1  1
 44 45  1  0
 46 44  1  0
 48 63  1  0
 49 62  1  0
 50 55  1  0
 51 52  1  0
 51 50  1  0
 53 52  1  0
 53 68  1  0
 53 54  1  0
 55 49  1  0
 55 54  1  0
 56 49  2  0
 57 60  1  0
 57 58  1  0
 61 63  1  0
 61 59  1  0
 62 59  1  0
 62 58  1  0
 63 60  1  0
 63 64  1  6
 65 66  2  0
 66 85  1  0
 67 66  1  0
 67 70  1  0
 68 69  1  0
 68 65  1  0
 69 67  2  0
 70 71  1  0
 71 72  2  0
 73 76  1  0
 73 72  1  0
 74 73  2  0
 75 74  1  0
 75 70  2  0
 76 77  1  0
 77 78  1  0
 78 79  2  0
 80 79  1  0
 80 84  1  0
 81 80  2  0
 82 77  2  0
 82 81  1  0
 83 82  1  0
 85 86  1  0
 86 89  1  0
 86 88  1  0
 87 85  2  0
 90 91  1  0
 90 65  1  0
 92 90  1  0
M  ISO  4   6 101   7 101  49 100  62 100
M  END
>  <TORSDO>  (8) 
F 21

>  <SCORE>  (8) 
-2.693

>  <name>  (8) 
7

>  <ligand_id>  (8) 
7

>  <original_smiles>  (8) 
[H]c1c([H])c([H])c2c(c1[H])C([H])([H])C([H])([H])C([H])([H])C2([H])N([H])C(=O)C1([H])N(C(=O)C([H])(N([H])C(=O)C([H])(N([H])C([H])([H])[H])C([H])([H])[H])C(C([H])([H])[H])(C([H])([H])[H])C([H])([H])[H])C([H])([H])c2c([H])c(OC([H])([H])C([H])([H])C([H])([H])C([H])(F)C([H])([H])C([H])([H])[N+]3([H])C([H])([H])C([H])([H])N(C(=O)N4C([H])([H])C([H])([H])C([H])([H])C([H])(n5nc(-c6c([H])c([H])c(Oc7c([H])c([H])c(F)c([H])c7F)c([H])c6[H])c(C(=O)N([H])[H])c5N([H])[H])C4([H])[H])C([H])([H])C([H])([H])C3([H])[H])c([H])c([H])c2C1([H])[H]

>  <smiles>  (8) 
[H]c1c([H])c([H])c2c(c1[H])C([H])([H])C([H])([H])C([H])([H])C2([H])N([H])C(=O)C1([H])N(C(=O)C([H])(N([H])C(=O)C([H])(N([H])C([H])([H])[H])C([H])([H])[H])C(C([H])([H])[H])(C([H])([H])[H])C([H])([H])[H])C([H])([H])c2c([H])c(OC([H])([H])C([H])([H])C([H])([H])C([H])(F)C([H])([H])C([H])([H])[N+]3([H])C([H])([H])C([H])([H])N(C(=O)N4C([H])([H])C([H])([H])C([H])([H])C([H])(n5nc(-c6c([H])c([H])c(Oc7c([H])c([H])c(F)c([H])c7F)c([H])c6[H])c(C(=O)N([H])[H])c5N([H])[H])C4([H])[H])C([H])([H])C([H])([H])C3([H])[H])c([H])c([H])c2C1([H])[H]

$$$$
8:0:0
     RDKit          3D

 97105  0  0  1  0  0  0  0  0999 V2000
  -31.0790  -20.8310   20.1350 C   0  0  0  0  0  2  0  0  0  0  0  0
  -31.4560  -19.3530   20.4110 C   0  0  0  0  0  3  0  0  0  0  0  0
  -29.6970  -21.0130   20.7810 C   0  0  0  0  0  3  0  0  0  0  0  0
  -30.1320  -18.5350   20.3500 C   0  0  0  0  0  3  0  0  0  0  0  0
  -29.1040  -19.6130   20.6760 N   0  0  0  0  0  4  0  0  0  0  0  0
  -28.4270  -19.5950   19.9310 H   0  0  0  0  0  0  0  0  0  0  0  0
  -28.6140  -19.3900   21.5260 H   0  0  0  0  0  0  0  0  0  0  0  0
  -32.4610  -18.9040   19.4520 N   0  0  0  0  0  0  0  0  0  0  0  0
  -32.0700  -18.8670   18.5160 H   0  0  0  0  0  0  0  0  0  0  0  0
  -32.7060  -17.9390   19.6560 H   0  0  0  0  0  0  0  0  0  0  0  0
  -28.8010  -22.2700   20.2650 C   0  0  0  0  0  2  0  0  0  0  0  0
  -29.1980  -23.8400   20.4680 C   0  0  0  0  0  3  0  0  0  0  0  0
  -30.3980  -24.1980   19.6750 N   0  0  0  0  0  4  0  0  0  0  0  0
  -30.3070  -23.9410   18.7060 H   0  0  0  0  0  0  0  0  0  0  0  0
  -31.2340  -23.7810   20.0460 H   0  0  0  0  0  0  0  0  0  0  0  0
  -30.5210  -25.1970   19.7110 H   0  0  0  0  0  0  0  0  0  0  0  0
  -28.0600  -24.9410   20.1420 C   0  0  0  0  0  2  0  0  0  0  0  0
  -28.3060  -26.4140   20.3020 O   0  0  0  0  0  0  0  0  0  0  0  0
  -24.6100  -31.9100   23.2570 C   0  0  0  0  0  0  0  0  0  0  0  0
  -27.2060  -27.3020   20.2270 C   0  0  0  0  0  0  0  0  0  0  0  0
  -23.4010  -30.5060   21.6270 C   0  0  0  0  0  3  0  0  0  0  0  0
  -24.8510  -28.9450   20.2020 C   0  0  0  0  0  0  0  0  0  0  0  0
  -25.9440  -30.8040   21.4460 C   0  0  0  0  0  2  0  0  0  0  0  0
  -26.0210  -29.4200   20.8090 C   0  0  0  0  0  0  0  0  0  0  0  0
  -27.1990  -28.6070   20.8180 C   0  0  0  0  0  3  0  0  0  0  0  0
  -26.0160  -26.9030   19.5670 C   0  0  0  0  0  3  0  0  0  0  0  0
  -24.8570  -27.6960   19.5650 C   0  0  0  0  0  3  0  0  0  0  0  0
  -23.6120  -29.8190   20.2510 C   0  0  0  0  0  2  0  0  0  0  0  0
  -24.6710  -31.0910   22.1660 N   0  0  0  0  0  0  0  0  0  0  0  0
  -23.5270  -32.2020   23.7850 O   0  0  0  0  0  0  0  0  0  0  0  0
  -22.7320  -29.5010   22.5930 C   0  0  0  0  0  0  0  0  0  0  0  0
  -21.4040  -29.3360   22.4730 N   0  0  0  0  0  0  0  0  0  0  0  0
  -23.4090  -28.8690   23.4110 O   0  0  0  0  0  0  0  0  0  0  0  0
  -20.9200  -29.9010   21.7900 H   0  0  0  0  0  0  0  0  0  0  0  0
  -18.0180  -28.1530   22.9620 C   0  0  0  0  0  0  0  0  0  0  0  0
  -20.5770  -28.4050   23.2390 C   0  0  0  0  0  3  0  0  0  0  0  0
  -20.6750  -26.9690   22.6740 C   0  0  0  0  0  2  0  0  0  0  0  0
  -19.5750  -26.6430   21.6580 C   0  0  0  0  0  2  0  0  0  0  0  0
  -18.1910  -26.7980   22.2960 C   0  0  0  0  0  2  0  0  0  0  0  0
  -19.1390  -28.9130   23.3910 C   0  0  0  0  0  0  0  0  0  0  0  0
  -18.9240  -30.1780   23.9750 C   0  0  0  0  0  3  0  0  0  0  0  0
  -17.6210  -30.6880   24.1310 C   0  0  0  0  0  3  0  0  0  0  0  0
  -16.5140  -29.9260   23.7200 C   0  0  0  0  0  3  0  0  0  0  0  0
  -16.7130  -28.6590   23.1410 C   0  0  0  0  0  3  0  0  0  0  0  0
  -25.8930  -32.5390   23.8820 C   0  0  0  0  0  3  0  0  0  0  0  0
  -25.5910  -33.9410   24.2110 N   0  0  0  0  0  0  0  0  0  0  0  0
  -25.9240  -34.9900   23.4470 C   0  0  0  0  0  0  0  0  0  0  0  0
  -26.5850  -34.8820   22.4110 O   0  0  0  0  0  0  0  0  0  0  0  0
  -24.9970  -34.0980   25.0100 H   0  0  0  0  0  0  0  0  0  0  0  0
  -24.1950  -36.7870   23.1130 C   0  0  0  0  0  1  0  0  0  0  0  0
  -25.4460  -36.3810   23.9060 C   0  0  0  0  0  3  0  0  0  0  0  0
  -27.5980  -37.2610   24.6960 C   0  0  0  0  0  1  0  0  0  0  0  0
  -26.4800  -37.4300   23.7720 N   0  0  0  0  0  0  0  0  0  0  0  0
  -26.0800  -38.3520   23.9230 H   0  0  0  0  0  0  0  0  0  0  0  0
  -26.4070  -31.7680   25.1580 C   0  0  1  0  0  0  0  0  0  0  0  0
  -25.3120  -31.5400   26.2270 C   0  0  0  0  0  1  0  0  0  0  0  0
  -26.9810  -30.3830   24.7690 C   0  0  0  0  0  1  0  0  0  0  0  0
  -27.5620  -32.5580   25.8170 C   0  0  0  0  0  1  0  0  0  0  0  0
  -30.1950  -17.2090   21.2780 C   0  0  0  0  0  2  0  0  0  0  0  0
  -30.5820  -14.7200   20.4540 C   0  0  0  0  0  0  0  0  0  0  0  0
  -30.3670  -12.4750   19.3690 C   0  0  0  0  0  2  0  0  0  0  0  0
  -29.4240  -12.5550   18.1480 C   0  0  0  0  0  2  0  0  0  0  0  0
  -27.9530  -12.3890   18.5760 C   0  0  0  0  0  2  0  0  0  0  0  0
  -27.5790  -13.2770   19.7930 C   0  0  0  0  0  3  0  0  0  0  0  0
  -28.6340  -13.1640   20.9160 C   0  0  0  0  0  2  0  0  0  0  0  0
  -29.9370  -13.5120   20.3320 N   0  0  0  0  0  0  0  0  0  0  0  0
  -31.7660  -14.8410   20.1320 O   0  0  0  0  0  0  0  0  0  0  0  0
  -29.8160  -15.8190   20.7830 N   0  0  0  0  0  0  0  0  0  0  0  0
  -28.8390  -15.5950   20.9030 H   0  0  0  0  0  0  0  0  0  0  0  0
  -25.1840  -13.8820   20.4940 C   0  0  0  0  0  0  0  0  0  0  0  0
  -24.1130  -13.1140   20.8620 C   0  0  0  0  0  0  0  0  0  0  0  0
  -24.5740  -11.7620   20.8470 C   0  0  0  0  0  0  0  0  0  0  0  0
  -26.2280  -12.9990   20.2750 N   0  0  0  0  0  0  0  0  0  0  0  0
  -25.8670  -11.7200   20.5510 N   0  0  0  0  0  0  0  0  0  0  0  0
  -23.8430  -10.5040   21.0410 C   0  0  0  0  0  0  0  0  0  0  0  0
  -24.2760   -9.5330   21.9720 C   0  0  0  0  0  3  0  0  0  0  0  0
  -23.5450   -8.3400   22.1550 C   0  0  0  0  0  3  0  0  0  0  0  0
  -22.3660   -8.1080   21.4060 C   0  0  0  0  0  0  0  0  0  0  0  0
  -21.9520   -9.0670   20.4640 C   0  0  0  0  0  3  0  0  0  0  0  0
  -22.6850  -10.2520   20.2800 C   0  0  0  0  0  3  0  0  0  0  0  0
  -21.6060   -6.9670   21.4980 O   0  0  0  0  0  0  0  0  0  0  0  0
  -21.5710   -6.2160   22.6450 C   0  0  0  0  0  0  0  0  0  0  0  0
  -21.1780   -6.7660   23.8850 C   0  0  0  0  0  3  0  0  0  0  0  0
  -21.0920   -5.9400   25.0250 C   0  0  0  0  0  3  0  0  0  0  0  0
  -21.3880   -4.5690   24.9260 C   0  0  0  0  0  0  0  0  0  0  0  0
  -21.7730   -4.0180   23.6910 C   0  0  0  0  0  3  0  0  0  0  0  0
  -21.8640   -4.8390   22.5540 C   0  0  0  0  0  0  0  0  0  0  0  0
  -22.2150   -4.3000   21.3610 F   0  0  0  0  0  0  0  0  0  0  0  0
  -21.2970   -3.7740   26.0180 F   0  0  0  0  0  0  0  0  0  0  0  0
  -22.7150  -13.5960   21.1160 C   0  0  0  0  0  0  0  0  0  0  0  0
  -21.9790  -12.9110   21.9820 N   0  0  0  0  0  0  0  0  0  0  0  0
  -22.2860  -14.6170   20.5790 O   0  0  0  0  0  0  0  0  0  0  0  0
  -22.3430  -12.0850   22.4340 H   0  0  0  0  0  0  0  0  0  0  0  0
  -21.0390  -13.2150   22.1960 H   0  0  0  0  0  0  0  0  0  0  0  0
  -25.3510  -15.2520   20.3050 N   0  0  0  0  0  0  0  0  0  0  0  0
  -24.5700  -15.8950   20.3850 H   0  0  0  0  0  0  0  0  0  0  0  0
  -26.1880  -15.6860   19.9390 H   0  0  0  0  0  0  0  0  0  0  0  0
  1  2  1  0
  1  3  1  0
  2  8  1  0
  3 11  1  0
  4  2  1  0
  4  5  1  0
  4 59  1  0
  5  3  1  0
  5  7  1  0
  6  5  1  0
  8 10  1  0
  9  8  1  0
 11 12  1  0
 12 17  1  0
 13 16  1  0
 13 15  1  0
 13 12  1  0
 14 13  1  0
 17 18  1  0
 19 30  2  0
 20 18  1  0
 20 25  1  0
 21 29  1  0
 21 31  1  0
 22 28  1  0
 22 24  1  0
 23 29  1  0
 24 25  2  0
 24 23  1  0
 26 20  2  0
 27 26  1  0
 27 22  2  0
 28 21  1  0
 29 19  1  0
 31 33  2  0
 32 31  1  0
 34 32  1  0
 35 44  2  0
 35 40  1  0
 36 32  1  0
 36 40  1  0
 37 36  1  0
 38 39  1  0
 38 37  1  0
 39 35  1  0
 40 41  2  0
 41 42  1  0
 43 42  2  0
 44 43  1  0
 45 19  1  0
 45 46  1  0
 45 55  1  0
 46 49  1  0
 47 51  1  0
 47 46  1  0
 48 47  2  0
 51 50  1  0
 53 51  1  0
 53 54  1  0
 53 52  1  0
 55 58  1  1
 55 56  1  0
 57 55  1  0
 60 68  1  0
 61 66  1  0
 62 63  1  0
 62 61  1  0
 64 63  1  0
 64 73  1  0
 64 65  1  0
 66 60  1  0
 66 65  1  0
 67 60  2  0
 68 69  1  0
 68 59  1  0
 70 71  2  0
 71 90  1  0
 72 71  1  0
 72 75  1  0
 73 70  1  0
 73 74  1  0
 74 72  2  0
 75 76  1  0
 76 77  2  0
 78 81  1  0
 78 77  1  0
 79 78  2  0
 80 79  1  0
 80 75  2  0
 81 82  1  0
 82 83  1  0
 83 84  2  0
 85 84  1  0
 85 89  1  0
 86 85  2  0
 87 82  2  0
 87 86  1  0
 88 87  1  0
 90 91  1  0
 91 94  1  0
 91 93  1  0
 92 90  2  0
 95 96  1  0
 95 70  1  0
 97 95  1  0
M  ISO  4  17 101  18 101  60 100  68 100
M  END
>  <TORSDO>  (9) 
F 22

>  <SCORE>  (9) 
-13.601

>  <name>  (9) 
8

>  <ligand_id>  (9) 
8

>  <original_smiles>  (9) 
[H]c1c([H])c([H])c2c(c1[H])C([H])([H])C([H])([H])C([H])([H])C2([H])N([H])C(=O)C1([H])N(C(=O)C([H])(N([H])C(=O)C([H])(N([H])C([H])([H])[H])C([H])([H])[H])C(C([H])([H])[H])(C([H])([H])[H])C([H])([H])[H])C([H])([H])c2c([H])c(OC([H])([H])C([H])(C([H])([H])C3([H])C([H])([H])C([H])(N([H])[H])C([H])(C([H])([H])N([H])C(=O)N4C([H])([H])C([H])([H])C([H])([H])C([H])(n5nc(-c6c([H])c([H])c(Oc7c([H])c([H])c(F)c([H])c7F)c([H])c6[H])c(C(=O)N([H])[H])c5N([H])[H])C4([H])[H])[N+]3([H])[H])[N+]([H])([H])[H])c([H])c([H])c2C1([H])[H]

>  <smiles>  (9) 
[H]c1c([H])c([H])c2c(c1[H])C([H])([H])C([H])([H])C([H])([H])C2([H])N([H])C(=O)C1([H])N(C(=O)C([H])(N([H])C(=O)C([H])(N([H])C([H])([H])[H])C([H])([H])[H])C(C([H])([H])[H])(C([H])([H])[H])C([H])([H])[H])C([H])([H])c2c([H])c(OC([H])([H])C([H])(C([H])([H])C3([H])C([H])([H])C([H])(N([H])[H])C([H])(C([H])([H])N([H])C(=O)N4C([H])([H])C([H])([H])C([H])([H])C([H])(n5nc(-c6c([H])c([H])c(Oc7c([H])c([H])c(F)c([H])c7F)c([H])c6[H])c(C(=O)N([H])[H])c5N([H])[H])C4([H])[H])[N+]3([H])[H])[N+]([H])([H])[H])c([H])c([H])c2C1([H])[H]

$$$$
9:0:0
     RDKit          3D

 95103  0  0  1  0  0  0  0  0999 V2000
  -29.3370  -21.4860   19.4520 C   0  0  0  0  0  2  0  0  0  0  0  0
  -29.3270  -17.8070   20.5870 C   0  0  0  0  0  3  0  0  0  0  0  0
  -31.0840  -20.0030   20.5650 C   0  0  0  0  0  3  0  0  0  0  0  0
  -30.6300  -17.6570   21.1100 C   0  0  0  0  0  0  0  0  0  0  0  0
  -29.7810  -20.1530   20.0460 C   0  0  0  0  0  0  0  0  0  0  0  0
  -31.5060  -18.7660   21.0910 C   0  0  0  0  0  0  0  0  0  0  0  0
  -28.9060  -19.0440   20.0580 C   0  0  0  0  0  0  0  0  0  0  0  0
  -32.7620  -18.6530   21.5870 F   0  0  0  0  0  0  0  0  0  0  0  0
  -27.6500  -19.1660   19.5670 F   0  0  0  0  0  0  0  0  0  0  0  0
  -31.0980  -16.3410   21.7300 C   0  0  0  0  0  2  0  0  0  0  0  0
  -30.7480  -14.3480   20.2830 C   0  0  0  0  0  0  0  0  0  0  0  0
  -30.2760  -12.3020   18.9910 C   0  0  0  0  0  2  0  0  0  0  0  0
  -29.3020  -12.6040   17.8380 C   0  0  0  0  0  2  0  0  0  0  0  0
  -27.8440  -12.4690   18.3170 C   0  0  0  0  0  2  0  0  0  0  0  0
  -27.5760  -13.2640   19.6240 C   0  0  0  0  0  3  0  0  0  0  0  0
  -28.6650  -12.9730   20.6840 C   0  0  0  0  0  2  0  0  0  0  0  0
  -29.9860  -13.2380   20.0860 N   0  0  0  0  0  0  0  0  0  0  0  0
  -31.7420  -14.6110   19.6020 O   0  0  0  0  0  0  0  0  0  0  0  0
  -30.3750  -15.1410   21.2960 N   0  0  0  0  0  0  0  0  0  0  0  0
  -29.5830  -14.8480   21.8470 H   0  0  0  0  0  0  0  0  0  0  0  0
  -25.2050  -13.8940   20.4130 C   0  0  0  0  0  0  0  0  0  0  0  0
  -24.1430  -13.1300   20.8140 C   0  0  0  0  0  0  0  0  0  0  0  0
  -24.5870  -11.7740   20.7600 C   0  0  0  0  0  0  0  0  0  0  0  0
  -26.2330  -13.0030   20.1430 N   0  0  0  0  0  0  0  0  0  0  0  0
  -25.8660  -11.7220   20.4060 N   0  0  0  0  0  0  0  0  0  0  0  0
  -23.8530  -10.5180   20.9680 C   0  0  0  0  0  0  0  0  0  0  0  0
  -24.2980   -9.5480   21.8940 C   0  0  0  0  0  3  0  0  0  0  0  0
  -23.5660   -8.3570   22.0900 C   0  0  0  0  0  3  0  0  0  0  0  0
  -22.3750   -8.1280   21.3610 C   0  0  0  0  0  0  0  0  0  0  0  0
  -21.9480   -9.0850   20.4240 C   0  0  0  0  0  3  0  0  0  0  0  0
  -22.6820  -10.2680   20.2260 C   0  0  0  0  0  3  0  0  0  0  0  0
  -21.6110   -6.9900   21.4670 O   0  0  0  0  0  0  0  0  0  0  0  0
  -21.5770   -6.2500   22.6230 C   0  0  0  0  0  0  0  0  0  0  0  0
  -21.1740   -6.8120   23.8550 C   0  0  0  0  0  3  0  0  0  0  0  0
  -21.0860   -5.9990   25.0040 C   0  0  0  0  0  3  0  0  0  0  0  0
  -21.3910   -4.6270   24.9210 C   0  0  0  0  0  0  0  0  0  0  0  0
  -21.7880   -4.0660   23.6940 C   0  0  0  0  0  3  0  0  0  0  0  0
  -21.8770   -4.8750   22.5490 C   0  0  0  0  0  0  0  0  0  0  0  0
  -22.2390   -4.3260   21.3630 F   0  0  0  0  0  0  0  0  0  0  0  0
  -21.2990   -3.8440   26.0210 F   0  0  0  0  0  0  0  0  0  0  0  0
  -22.7600  -13.6200   21.1400 C   0  0  0  0  0  0  0  0  0  0  0  0
  -22.0540  -12.9260   22.0270 N   0  0  0  0  0  0  0  0  0  0  0  0
  -22.3150  -14.6530   20.6420 O   0  0  0  0  0  0  0  0  0  0  0  0
  -22.4270  -12.0900   22.4530 H   0  0  0  0  0  0  0  0  0  0  0  0
  -21.1260  -13.2330   22.2800 H   0  0  0  0  0  0  0  0  0  0  0  0
  -25.3790  -15.2640   20.2380 N   0  0  0  0  0  0  0  0  0  0  0  0
  -24.6260  -15.9300   20.3730 H   0  0  0  0  0  0  0  0  0  0  0  0
  -26.2260  -15.6940   19.8840 H   0  0  0  0  0  0  0  0  0  0  0  0
  -28.7140  -22.3780   20.4560 N   0  0  0  0  0  4  0  0  0  0  0  0
  -28.4610  -21.8070   21.2470 H   0  0  0  0  0  0  0  0  0  0  0  0
  -27.8500  -22.7260   20.0730 H   0  0  0  0  0  0  0  0  0  0  0  0
  -29.5330  -23.5210   20.9420 C   0  0  0  0  0  2  0  0  0  0  0  0
  -29.7470  -24.6470   19.8950 C   0  0  0  0  0  2  0  0  0  0  0  0
  -28.4770  -25.4440   19.5320 C   0  0  0  0  0  2  0  0  0  0  0  0
  -28.4250  -26.7080   20.2040 O   0  0  0  0  0  0  0  0  0  0  0  0
  -24.5900  -31.8730   23.2490 C   0  0  0  0  0  0  0  0  0  0  0  0
  -27.2390  -27.4190   20.1750 C   0  0  0  0  0  0  0  0  0  0  0  0
  -23.3890  -30.4720   21.6030 C   0  0  0  0  0  3  0  0  0  0  0  0
  -24.8440  -28.9340   20.1860 C   0  0  0  0  0  0  0  0  0  0  0  0
  -25.9180  -30.8200   21.4210 C   0  0  0  0  0  2  0  0  0  0  0  0
  -25.9990  -29.4490   20.7850 C   0  0  0  0  0  0  0  0  0  0  0  0
  -27.1960  -28.6950   20.7850 C   0  0  0  0  0  3  0  0  0  0  0  0
  -26.0600  -26.9270   19.5640 C   0  0  0  0  0  3  0  0  0  0  0  0
  -24.8670  -27.6700   19.5780 C   0  0  0  0  0  3  0  0  0  0  0  0
  -23.6030  -29.7930   20.2250 C   0  0  0  0  0  2  0  0  0  0  0  0
  -24.6500  -31.0710   22.1490 N   0  0  0  0  0  0  0  0  0  0  0  0
  -23.5060  -32.1500   23.7820 O   0  0  0  0  0  0  0  0  0  0  0  0
  -22.7310  -29.4520   22.5590 C   0  0  0  0  0  0  0  0  0  0  0  0
  -21.4070  -29.2730   22.4250 N   0  0  0  0  0  0  0  0  0  0  0  0
  -23.4080  -28.8240   23.3780 O   0  0  0  0  0  0  0  0  0  0  0  0
  -20.9220  -29.8310   21.7340 H   0  0  0  0  0  0  0  0  0  0  0  0
  -18.0230  -28.1010   22.9050 C   0  0  0  0  0  0  0  0  0  0  0  0
  -20.5810  -28.3400   23.1900 C   0  0  0  0  0  3  0  0  0  0  0  0
  -20.6770  -26.9090   22.6110 C   0  0  0  0  0  2  0  0  0  0  0  0
  -19.5770  -26.5960   21.5920 C   0  0  0  0  0  2  0  0  0  0  0  0
  -18.1940  -26.7510   22.2290 C   0  0  0  0  0  2  0  0  0  0  0  0
  -19.1450  -28.8540   23.3410 C   0  0  0  0  0  0  0  0  0  0  0  0
  -18.9330  -30.1200   23.9310 C   0  0  0  0  0  3  0  0  0  0  0  0
  -17.6310  -30.6320   24.0890 C   0  0  0  0  0  3  0  0  0  0  0  0
  -16.5240  -29.8740   23.6710 C   0  0  0  0  0  3  0  0  0  0  0  0
  -16.7200  -28.6110   23.0840 C   0  0  0  0  0  3  0  0  0  0  0  0
  -25.8730  -32.5010   23.8750 C   0  0  0  0  0  3  0  0  0  0  0  0
  -25.5670  -33.8990   24.2050 N   0  0  0  0  0  0  0  0  0  0  0  0
  -25.9020  -34.9500   23.4460 C   0  0  0  0  0  0  0  0  0  0  0  0
  -26.5730  -34.8470   22.4150 O   0  0  0  0  0  0  0  0  0  0  0  0
  -24.9700  -34.0540   25.0040 H   0  0  0  0  0  0  0  0  0  0  0  0
  -24.1750  -36.7410   23.0860 C   0  0  0  0  0  1  0  0  0  0  0  0
  -25.4130  -36.3380   23.9020 C   0  0  0  0  0  3  0  0  0  0  0  0
  -27.5450  -37.2190   24.7390 C   0  0  0  0  0  1  0  0  0  0  0  0
  -26.4460  -37.3910   23.7930 N   0  0  0  0  0  0  0  0  0  0  0  0
  -26.0400  -38.3110   23.9430 H   0  0  0  0  0  0  0  0  0  0  0  0
  -26.3890  -31.7240   25.1470 C   0  0  1  0  0  0  0  0  0  0  0  0
  -25.2950  -31.4810   26.2150 C   0  0  0  0  0  1  0  0  0  0  0  0
  -26.9710  -30.3490   24.7470 C   0  0  0  0  0  1  0  0  0  0  0  0
  -27.5400  -32.5160   25.8130 C   0  0  0  0  0  1  0  0  0  0  0  0
  1  5  1  0
  1 49  1  0
  2  4  1  0
  3  6  1  0
  4 10  1  0
  5  7  1  0
  5  3  2  0
  6  4  2  0
  6  8  1  0
  7  2  2  0
  9  7  1  0
 11 19  1  0
 12 17  1  0
 13 14  1  0
 13 12  1  0
 15 14  1  0
 15 24  1  0
 15 16  1  0
 17 11  1  0
 17 16  1  0
 18 11  2  0
 19 10  1  0
 19 20  1  0
 21 22  2  0
 22 41  1  0
 23 22  1  0
 23 26  1  0
 24 25  1  0
 24 21  1  0
 25 23  2  0
 26 27  1  0
 27 28  2  0
 29 32  1  0
 29 28  1  0
 30 29  2  0
 31 30  1  0
 31 26  2  0
 32 33  1  0
 33 34  1  0
 34 35  2  0
 36 35  1  0
 36 40  1  0
 37 36  2  0
 38 33  2  0
 38 37  1  0
 39 38  1  0
 41 42  1  0
 42 45  1  0
 42 44  1  0
 43 41  2  0
 46 47  1  0
 46 21  1  0
 48 46  1  0
 49 52  1  0
 49 50  1  0
 51 49  1  0
 53 52  1  0
 54 53  1  0
 54 55  1  0
 56 67  2  0
 57 55  1  0
 57 62  1  0
 58 66  1  0
 58 68  1  0
 59 65  1  0
 59 61  1  0
 60 66  1  0
 61 60  1  0
 62 61  2  0
 63 64  1  0
 63 57  2  0
 64 59  2  0
 65 58  1  0
 66 56  1  0
 68 70  2  0
 69 68  1  0
 71 69  1  0
 72 81  2  0
 72 77  1  0
 73 69  1  0
 73 77  1  0
 74 73  1  0
 75 76  1  0
 75 74  1  0
 76 72  1  0
 77 78  2  0
 78 79  1  0
 80 79  2  0
 81 80  1  0
 82 56  1  0
 82 83  1  0
 82 92  1  0
 83 86  1  0
 84 88  1  0
 84 83  1  0
 85 84  2  0
 88 87  1  0
 90 88  1  0
 90 91  1  0
 90 89  1  0
 92 95  1  1
 92 93  1  0
 94 92  1  0
M  ISO  4  11 100  19 100  54 101  55 101
M  END
>  <TORSDO>  (10) 
F 22

>  <SCORE>  (10) 
-13.493

>  <name>  (10) 
9

>  <ligand_id>  (10) 
9

>  <original_smiles>  (10) 
[H]c1c([H])c([H])c2c(c1[H])C([H])([H])C([H])([H])C([H])([H])C2([H])N([H])C(=O)C1([H])N(C(=O)C([H])(N([H])C(=O)C([H])(N([H])C([H])([H])[H])C([H])([H])[H])C(C([H])([H])[H])(C([H])([H])[H])C([H])([H])[H])C([H])([H])c2c([H])c(OC([H])([H])C([H])([H])C([H])([H])[N+]([H])([H])C([H])([H])c3c([H])c(F)c(C([H])([H])N([H])C(=O)N4C([H])([H])C([H])([H])C([H])([H])C([H])(n5nc(-c6c([H])c([H])c(Oc7c([H])c([H])c(F)c([H])c7F)c([H])c6[H])c(C(=O)N([H])[H])c5N([H])[H])C4([H])[H])c([H])c3F)c([H])c([H])c2C1([H])[H]

>  <smiles>  (10) 
[H]c1c([H])c([H])c2c(c1[H])C([H])([H])C([H])([H])C([H])([H])C2([H])N([H])C(=O)C1([H])N(C(=O)C([H])(N([H])C(=O)C([H])(N([H])C([H])([H])[H])C([H])([H])[H])C(C([H])([H])[H])(C([H])([H])[H])C([H])([H])[H])C([H])([H])c2c([H])c(OC([H])([H])C([H])([H])C([H])([H])[N+]([H])([H])C([H])([H])c3c([H])c(F)c(C([H])([H])N([H])C(=O)N4C([H])([H])C([H])([H])C([H])([H])C([H])(n5nc(-c6c([H])c([H])c(Oc7c([H])c([H])c(F)c([H])c7F)c([H])c6[H])c(C(=O)N([H])[H])c5N([H])[H])C4([H])[H])c([H])c3F)c([H])c([H])c2C1([H])[H]

$$$$
10:0:0
     RDKit          3D

 91 99  0  0  1  0  0  0  0  0999 V2000
  -28.1640  -20.2480   20.2070 C   0  0  0  0  0  3  0  0  0  0  0  0
  -30.3280  -20.9870   20.4340 C   0  0  0  0  0  3  0  0  0  0  0  0
  -29.5240  -19.7660   20.3360 C   0  0  0  0  0  0  0  0  0  0  0  0
  -28.5370  -22.8800   20.2390 C   0  0  0  0  0  0  0  0  0  0  0  0
  -27.7190  -21.6670   20.1640 C   0  0  0  0  0  0  0  0  0  0  0  0
  -29.9010  -22.4090   20.3840 C   0  0  0  0  0  0  0  0  0  0  0  0
  -26.3880  -21.8570   19.9980 F   0  0  0  0  0  0  0  0  0  0  0  0
  -30.8770  -23.3460   20.4500 F   0  0  0  0  0  0  0  0  0  0  0  0
  -27.8550  -24.4620   19.9990 C   0  0  0  0  0  2  0  0  0  0  0  0
  -28.2280  -26.0150   20.3070 O   0  0  0  0  0  0  0  0  0  0  0  0
  -24.6560  -31.9260   23.2830 C   0  0  0  0  0  0  0  0  0  0  0  0
  -27.2330  -27.1140   20.2310 C   0  0  0  0  0  0  0  0  0  0  0  0
  -23.4680  -30.5390   21.6330 C   0  0  0  0  0  3  0  0  0  0  0  0
  -24.9250  -28.9630   20.1970 C   0  0  0  0  0  0  0  0  0  0  0  0
  -26.0330  -30.7710   21.4900 C   0  0  0  0  0  2  0  0  0  0  0  0
  -26.1100  -29.3710   20.8230 C   0  0  0  0  0  0  0  0  0  0  0  0
  -27.2600  -28.4670   20.8190 C   0  0  0  0  0  3  0  0  0  0  0  0
  -26.0210  -26.8560   19.5500 C   0  0  0  0  0  3  0  0  0  0  0  0
  -24.9040  -27.7250   19.5410 C   0  0  0  0  0  3  0  0  0  0  0  0
  -23.7010  -29.8730   20.2510 C   0  0  0  0  0  2  0  0  0  0  0  0
  -24.7400  -31.1050   22.1880 N   0  0  0  0  0  0  0  0  0  0  0  0
  -23.5650  -32.2070   23.8060 O   0  0  0  0  0  0  0  0  0  0  0  0
  -22.7800  -29.5290   22.5880 C   0  0  0  0  0  0  0  0  0  0  0  0
  -21.4520  -29.3520   22.4520 N   0  0  0  0  0  0  0  0  0  0  0  0
  -23.4460  -28.9080   23.4200 O   0  0  0  0  0  0  0  0  0  0  0  0
  -20.9690  -29.9040   21.7590 H   0  0  0  0  0  0  0  0  0  0  0  0
  -18.0770  -28.1130   22.9340 C   0  0  0  0  0  0  0  0  0  0  0  0
  -20.6330  -28.4040   23.2140 C   0  0  0  0  0  3  0  0  0  0  0  0
  -20.7510  -26.9750   22.6370 C   0  0  0  0  0  2  0  0  0  0  0  0
  -19.6590  -26.6440   21.6150 C   0  0  0  0  0  2  0  0  0  0  0  0
  -18.2720  -26.7700   22.2520 C   0  0  0  0  0  2  0  0  0  0  0  0
  -19.1850  -28.8880   23.3720 C   0  0  0  0  0  0  0  0  0  0  0  0
  -18.9470  -30.1430   23.9730 C   0  0  0  0  0  3  0  0  0  0  0  0
  -17.6350  -30.6250   24.1400 C   0  0  0  0  0  3  0  0  0  0  0  0
  -16.5420  -29.8490   23.7150 C   0  0  0  0  0  3  0  0  0  0  0  0
  -16.7640  -28.5950   23.1190 C   0  0  0  0  0  3  0  0  0  0  0  0
  -25.9250  -32.5680   23.9210 C   0  0  0  0  0  3  0  0  0  0  0  0
  -26.4140  -31.8120   25.2190 C   0  0  1  0  0  0  0  0  0  0  0  0
  -25.3000  -31.5950   26.2700 C   0  0  0  0  0  1  0  0  0  0  0  0
  -26.9990  -30.4260   24.8650 C   0  0  0  0  0  1  0  0  0  0  0  0
  -27.5550  -32.6110   25.8900 C   0  0  0  0  0  1  0  0  0  0  0  0
  -25.6110  -33.9720   24.2390 N   0  0  0  0  0  0  0  0  0  0  0  0
  -25.9310  -35.0230   23.4710 C   0  0  0  0  0  0  0  0  0  0  0  0
  -26.5840  -34.9120   22.4320 O   0  0  0  0  0  0  0  0  0  0  0  0
  -25.0260  -34.1300   25.0470 H   0  0  0  0  0  0  0  0  0  0  0  0
  -24.1860  -36.8100   23.1490 C   0  0  0  0  0  1  0  0  0  0  0  0
  -25.4510  -36.4150   23.9280 C   0  0  0  0  0  3  0  0  0  0  0  0
  -27.6010  -37.3260   24.6950 C   0  0  0  0  0  1  0  0  0  0  0  0
  -26.4760  -37.4720   23.7740 N   0  0  0  0  0  0  0  0  0  0  0  0
  -26.0690  -38.3920   23.9140 H   0  0  0  0  0  0  0  0  0  0  0  0
  -30.2320  -18.1820   20.1990 C   0  0  0  0  0  0  0  0  0  0  0  0
  -30.4960  -15.3290   20.3230 C   0  0  0  0  0  0  0  0  0  0  0  0
  -30.4010  -12.9280   19.3840 C   0  0  0  0  0  2  0  0  0  0  0  0
  -29.4760  -12.7980   18.1490 C   0  0  0  0  0  2  0  0  0  0  0  0
  -28.0240  -12.5420   18.5880 C   0  0  0  0  0  2  0  0  0  0  0  0
  -27.5930  -13.4750   19.7480 C   0  0  0  0  0  3  0  0  0  0  0  0
  -28.6480  -13.5690   20.8720 C   0  0  0  0  0  2  0  0  0  0  0  0
  -29.8890  -14.0510   20.2480 N   0  0  0  0  0  0  0  0  0  0  0  0
  -31.7110  -15.3060   20.0840 O   0  0  0  0  0  0  0  0  0  0  0  0
  -29.7860  -16.6130   20.4450 N   0  0  0  0  0  4  0  0  0  0  0  0
  -28.7990  -16.5040   20.6200 H   0  0  0  0  0  0  0  0  0  0  0  0
  -25.2190  -14.0270   20.4960 C   0  0  0  0  0  0  0  0  0  0  0  0
  -24.1590  -13.2450   20.8620 C   0  0  0  0  0  0  0  0  0  0  0  0
  -24.6310  -11.8970   20.8330 C   0  0  0  0  0  0  0  0  0  0  0  0
  -26.2660  -13.1550   20.2540 N   0  0  0  0  0  0  0  0  0  0  0  0
  -25.9230  -11.8690   20.5250 N   0  0  0  0  0  0  0  0  0  0  0  0
  -23.9080  -10.6320   21.0200 C   0  0  0  0  0  0  0  0  0  0  0  0
  -24.3280   -9.6710   21.9660 C   0  0  0  0  0  3  0  0  0  0  0  0
  -23.6020   -8.4730   22.1410 C   0  0  0  0  0  3  0  0  0  0  0  0
  -22.4410   -8.2260   21.3710 C   0  0  0  0  0  0  0  0  0  0  0  0
  -22.0400   -9.1760   20.4150 C   0  0  0  0  0  3  0  0  0  0  0  0
  -22.7660  -10.3660   20.2360 C   0  0  0  0  0  3  0  0  0  0  0  0
  -21.6890   -7.0800   21.4550 O   0  0  0  0  0  0  0  0  0  0  0  0
  -21.6100   -6.3550   22.6170 C   0  0  0  0  0  0  0  0  0  0  0  0
  -21.1150   -6.9160   23.8140 C   0  0  0  0  0  3  0  0  0  0  0  0
  -20.9850   -6.1150   24.9660 C   0  0  0  0  0  3  0  0  0  0  0  0
  -21.3410   -4.7550   24.9230 C   0  0  0  0  0  0  0  0  0  0  0  0
  -21.8300   -4.1920   23.7300 C   0  0  0  0  0  3  0  0  0  0  0  0
  -21.9600   -4.9900   22.5790 C   0  0  0  0  0  0  0  0  0  0  0  0
  -22.4110   -4.4380   21.4270 F   0  0  0  0  0  0  0  0  0  0  0  0
  -21.2110   -3.9830   26.0270 F   0  0  0  0  0  0  0  0  0  0  0  0
  -22.7580  -13.7170   21.1240 C   0  0  0  0  0  0  0  0  0  0  0  0
  -22.0310  -13.0230   21.9910 N   0  0  0  0  0  0  0  0  0  0  0  0
  -22.3190  -14.7380   20.5940 O   0  0  0  0  0  0  0  0  0  0  0  0
  -22.4000  -12.1990   22.4410 H   0  0  0  0  0  0  0  0  0  0  0  0
  -21.0900  -13.3220   22.2100 H   0  0  0  0  0  0  0  0  0  0  0  0
  -25.3740  -15.3980   20.3170 N   0  0  0  0  0  0  0  0  0  0  0  0
  -24.6000  -16.0450   20.4180 H   0  0  0  0  0  0  0  0  0  0  0  0
  -26.2100  -15.8370   19.9510 H   0  0  0  0  0  0  0  0  0  0  0  0
  -30.8980  -18.1820   18.8100 C   0  0  0  0  0  2  0  0  0  0  0  0
  -29.9770  -18.0010   17.8610 F   0  0  0  0  0  0  0  0  0  0  0  0
  1  3  1  0
  3  2  2  0
  4  6  2  0
  5  1  2  0
  5  4  1  0
  6  2  1  0
  6  8  1  0
  7  5  1  0
  9  4  1  0
  9 10  1  0
 11 22  2  0
 12 10  1  0
 12 17  1  0
 13 21  1  0
 13 23  1  0
 14 20  1  0
 14 16  1  0
 15 21  1  0
 16 15  1  0
 17 16  2  0
 18 12  2  0
 19 18  1  0
 19 14  2  0
 20 13  1  0
 21 11  1  0
 23 25  2  0
 24 23  1  0
 26 24  1  0
 27 36  2  0
 27 32  1  0
 28 24  1  0
 28 32  1  0
 29 28  1  0
 30 31  1  0
 30 29  1  0
 31 27  1  0
 32 33  2  0
 33 34  1  0
 35 34  2  0
 36 35  1  0
 37 11  1  0
 37 42  1  0
 37 38  1  0
 38 41  1  1
 38 39  1  0
 40 38  1  0
 42 45  1  0
 43 47  1  0
 43 42  1  0
 44 43  2  0
 47 46  1  0
 49 50  1  0
 49 47  1  0
 49 48  1  0
 51  3  1  0
 51 60  2  0
 52 60  1  0
 53 58  1  0
 54 55  1  0
 54 53  1  0
 56 55  1  0
 56 65  1  0
 56 57  1  0
 58 52  1  0
 58 57  1  0
 59 52  2  0
 60 61  1  0
 62 63  2  0
 63 82  1  0
 64 63  1  0
 64 67  1  0
 65 62  1  0
 65 66  1  0
 66 64  2  0
 67 68  1  0
 68 69  2  0
 70 73  1  0
 70 69  1  0
 71 70  2  0
 72 71  1  0
 72 67  2  0
 73 74  1  0
 74 75  1  0
 75 76  2  0
 77 76  1  0
 77 81  1  0
 78 77  2  0
 79 74  2  0
 79 78  1  0
 80 79  1  0
 82 83  1  0
 83 86  1  0
 83 85  1  0
 84 82  2  0
 87 88  1  0
 87 62  1  0
 89 87  1  0
 90 51  1  0
 91 90  1  0
M  ISO  4   9 101  10 101  52 100  60 100
M  END
>  <TORSDO>  (11) 
F 19

>  <SCORE>  (11) 
-15.161

>  <name>  (11) 
10

>  <ligand_id>  (11) 
10

>  <original_smiles>  (11) 
[H]c1c([H])c([H])c2c(c1[H])C([H])([H])C([H])([H])C([H])([H])C2([H])N([H])C(=O)C1([H])N(C(=O)C([H])(N([H])C(=O)C([H])(N([H])C([H])([H])[H])C([H])([H])[H])C(C([H])([H])[H])(C([H])([H])[H])C([H])([H])[H])C([H])([H])c2c([H])c(OC([H])([H])c3c(F)c([H])c(C([H])(N([H])C(=O)N4C([H])([H])C([H])([H])C([H])([H])C([H])(n5nc(-c6c([H])c([H])c(Oc7c([H])c([H])c(F)c([H])c7F)c([H])c6[H])c(C(=O)N([H])[H])c5N([H])[H])C4([H])[H])C([H])([H])F)c([H])c3F)c([H])c([H])c2C1([H])[H]

>  <smiles>  (11) 
[H]c1c([H])c([H])c2c(c1[H])C([H])([H])C([H])([H])C([H])([H])C2([H])N([H])C(=O)C1([H])N(C(=O)C([H])(N([H])C(=O)C([H])(N([H])C([H])([H])[H])C([H])([H])[H])C(C([H])([H])[H])(C([H])([H])[H])C([H])([H])[H])C([H])([H])c2c([H])c(OC([H])([H])c3c(F)c([H])c(C([H])(N([H])C(=O)N4C([H])([H])C([H])([H])C([H])([H])C([H])(n5nc(-c6c([H])c([H])c(Oc7c([H])c([H])c(F)c([H])c7F)c([H])c6[H])c(C(=O)N([H])[H])c5N([H])[H])C4([H])[H])C([H])([H])F)c([H])c3F)c([H])c([H])c2C1([H])[H]

$$$$
11:0:0
     RDKit          3D

 94102  0  0  1  0  0  0  0  0999 V2000
  -26.7610  -23.0620   21.9950 C   0  0  0  0  0  2  0  0  0  0  0  0
  -27.7610  -21.9330   22.3440 C   0  0  0  0  0  2  0  0  0  0  0  0
  -28.4290  -21.2620   21.1260 C   0  0  0  0  0  2  0  0  0  0  0  0
  -29.1870  -19.9510   21.4650 C   0  0  0  0  0  2  0  0  0  0  0  0
  -29.7490  -19.3210   20.2500 N   0  0  0  0  0  4  0  0  0  0  0  0
  -29.0110  -19.2040   19.5700 H   0  0  0  0  0  0  0  0  0  0  0  0
  -30.4100  -19.9700   19.8520 H   0  0  0  0  0  0  0  0  0  0  0  0
  -31.3460  -14.9650   19.9190 C   0  0  0  0  0  0  0  0  0  0  0  0
  -30.9560  -12.7690   18.8890 C   0  0  0  0  0  2  0  0  0  0  0  0
  -29.9610  -12.9440   17.7210 C   0  0  0  0  0  2  0  0  0  0  0  0
  -28.5060  -12.8580   18.2260 C   0  0  0  0  0  2  0  0  0  0  0  0
  -28.2420  -13.7470   19.4700 C   0  0  0  0  0  3  0  0  0  0  0  0
  -29.3500  -13.5540   20.5330 C   0  0  0  0  0  2  0  0  0  0  0  0
  -30.6390  -13.8070   19.8800 N   0  0  0  0  0  0  0  0  0  0  0  0
  -32.5100  -15.0430   19.5180 O   0  0  0  0  0  0  0  0  0  0  0  0
  -29.6620  -16.7720   20.7640 C   0  0  0  0  0  2  0  0  0  0  0  0
  -30.8880  -17.3420   19.1520 C   0  0  0  0  0  2  0  0  0  0  0  0
  -30.4680  -18.0340   20.4440 C   0  0  0  0  0  3  0  0  0  0  0  0
  -30.5850  -16.0820   19.8420 N   0  0  0  0  0  0  0  0  0  0  0  0
  -25.9330  -14.4400   20.3740 C   0  0  0  0  0  0  0  0  0  0  0  0
  -24.8460  -13.7070   20.7670 C   0  0  0  0  0  0  0  0  0  0  0  0
  -25.2190  -12.3370   20.6120 C   0  0  0  0  0  0  0  0  0  0  0  0
  -26.9070  -13.5200   20.0210 N   0  0  0  0  0  0  0  0  0  0  0  0
  -26.4840  -12.2450   20.2210 N   0  0  0  0  0  0  0  0  0  0  0  0
  -24.4280  -11.1080   20.7580 C   0  0  0  0  0  0  0  0  0  0  0  0
  -24.7850  -10.1120   21.6920 C   0  0  0  0  0  3  0  0  0  0  0  0
  -24.0010   -8.9460   21.8260 C   0  0  0  0  0  3  0  0  0  0  0  0
  -22.8470   -8.7720   21.0280 C   0  0  0  0  0  0  0  0  0  0  0  0
  -22.5090   -9.7580   20.0850 C   0  0  0  0  0  3  0  0  0  0  0  0
  -23.2930  -10.9150   19.9470 C   0  0  0  0  0  3  0  0  0  0  0  0
  -22.0390   -7.6610   21.0740 O   0  0  0  0  0  0  0  0  0  0  0  0
  -21.8140   -6.9830   22.2450 C   0  0  0  0  0  0  0  0  0  0  0  0
  -21.2700   -7.6190   23.3810 C   0  0  0  0  0  3  0  0  0  0  0  0
  -20.9920   -6.8700   24.5420 C   0  0  0  0  0  3  0  0  0  0  0  0
  -21.2470   -5.4860   24.5650 C   0  0  0  0  0  0  0  0  0  0  0  0
  -21.7820   -4.8500   23.4310 C   0  0  0  0  0  3  0  0  0  0  0  0
  -22.0610   -5.5960   22.2730 C   0  0  0  0  0  0  0  0  0  0  0  0
  -22.5590   -4.9740   21.1750 F   0  0  0  0  0  0  0  0  0  0  0  0
  -20.9710   -4.7640   25.6750 F   0  0  0  0  0  0  0  0  0  0  0  0
  -23.4990  -14.2440   21.1550 C   0  0  0  0  0  0  0  0  0  0  0  0
  -22.7960  -13.5530   22.0430 N   0  0  0  0  0  0  0  0  0  0  0  0
  -23.0830  -15.3130   20.7070 O   0  0  0  0  0  0  0  0  0  0  0  0
  -23.1480  -12.6920   22.4330 H   0  0  0  0  0  0  0  0  0  0  0  0
  -21.8910  -13.8920   22.3410 H   0  0  0  0  0  0  0  0  0  0  0  0
  -26.1640  -15.8070   20.2610 N   0  0  0  0  0  0  0  0  0  0  0  0
  -25.4050  -16.4710   20.3800 H   0  0  0  0  0  0  0  0  0  0  0  0
  -26.9400  -16.1800   19.7300 H   0  0  0  0  0  0  0  0  0  0  0  0
  -27.3780  -24.4620   21.7830 C   0  0  0  0  0  2  0  0  0  0  0  0
  -28.1900  -24.5470   20.5470 N   0  0  0  0  0  4  0  0  0  0  0  0
  -27.6120  -24.8720   19.7870 H   0  0  0  0  0  0  0  0  0  0  0  0
  -28.4890  -23.6170   20.3070 H   0  0  0  0  0  0  0  0  0  0  0  0
  -29.4070  -25.3920   20.6310 C   0  0  0  0  0  2  0  0  0  0  0  0
  -29.0970  -26.8950   20.5620 C   0  0  0  0  0  2  0  0  0  0  0  0
  -28.3860  -27.1300   19.3480 O   0  0  0  0  0  0  0  0  0  0  0  0
  -24.5070  -31.7550   23.1240 C   0  0  0  0  0  0  0  0  0  0  0  0
  -27.2100  -27.8200   19.4930 C   0  0  0  0  0  0  0  0  0  0  0  0
  -23.2860  -30.4550   21.4050 C   0  0  0  0  0  3  0  0  0  0  0  0
  -24.7410  -29.1530   19.7650 C   0  0  0  0  0  0  0  0  0  0  0  0
  -25.7710  -30.9810   21.1270 C   0  0  0  0  0  2  0  0  0  0  0  0
  -25.8940  -29.6890   20.3530 C   0  0  0  0  0  0  0  0  0  0  0  0
  -27.1320  -29.0270   20.2240 C   0  0  0  0  0  3  0  0  0  0  0  0
  -26.0520  -27.3000   18.8870 C   0  0  0  0  0  3  0  0  0  0  0  0
  -24.8140  -27.9550   19.0300 C   0  0  0  0  0  3  0  0  0  0  0  0
  -23.4570  -29.9260   19.9560 C   0  0  0  0  0  2  0  0  0  0  0  0
  -24.5420  -31.0710   21.9460 N   0  0  0  0  0  0  0  0  0  0  0  0
  -23.4440  -31.9120   23.7410 O   0  0  0  0  0  0  0  0  0  0  0  0
  -22.7420  -29.3120   22.2880 C   0  0  0  0  0  0  0  0  0  0  0  0
  -21.4360  -29.0330   22.1590 N   0  0  0  0  0  0  0  0  0  0  0  0
  -23.4910  -28.6800   23.0390 O   0  0  0  0  0  0  0  0  0  0  0  0
  -20.8940  -29.5950   21.5180 H   0  0  0  0  0  0  0  0  0  0  0  0
  -18.1940  -27.4830   22.5330 C   0  0  0  0  0  0  0  0  0  0  0  0
  -20.7110  -27.9720   22.8580 C   0  0  0  0  0  3  0  0  0  0  0  0
  -20.9610  -26.5970   22.1920 C   0  0  0  0  0  2  0  0  0  0  0  0
  -19.9010  -26.2270   21.1500 C   0  0  0  0  0  2  0  0  0  0  0  0
  -18.5100  -26.1990   21.7830 C   0  0  0  0  0  2  0  0  0  0  0  0
  -19.2290  -28.3220   23.0240 C   0  0  0  0  0  0  0  0  0  0  0  0
  -18.8840  -29.5170   23.6900 C   0  0  0  0  0  3  0  0  0  0  0  0
  -17.5370  -29.8820   23.8670 C   0  0  0  0  0  3  0  0  0  0  0  0
  -16.5150  -29.0420   23.3890 C   0  0  0  0  0  3  0  0  0  0  0  0
  -16.8450  -27.8440   22.7300 C   0  0  0  0  0  3  0  0  0  0  0  0
  -25.7950  -32.3880   23.7420 C   0  0  0  0  0  3  0  0  0  0  0  0
  -25.4670  -33.7650   24.1310 N   0  0  0  0  0  0  0  0  0  0  0  0
  -25.7870  -34.8520   23.4190 C   0  0  0  0  0  0  0  0  0  0  0  0
  -26.4620  -34.8020   22.3860 O   0  0  0  0  0  0  0  0  0  0  0  0
  -24.8720  -33.8760   24.9400 H   0  0  0  0  0  0  0  0  0  0  0  0
  -24.0460  -36.6410   23.1090 C   0  0  0  0  0  1  0  0  0  0  0  0
  -25.2750  -36.2130   23.9300 C   0  0  0  0  0  3  0  0  0  0  0  0
  -27.3820  -37.0730   24.8480 C   0  0  0  0  0  1  0  0  0  0  0  0
  -26.2970  -37.2790   23.8920 N   0  0  0  0  0  0  0  0  0  0  0  0
  -25.8800  -38.1860   24.0780 H   0  0  0  0  0  0  0  0  0  0  0  0
  -26.3590  -31.5780   24.9730 C   0  0  1  0  0  0  0  0  0  0  0  0
  -25.2920  -31.2630   26.0460 C   0  0  0  0  0  1  0  0  0  0  0  0
  -26.9790  -30.2380   24.5100 C   0  0  0  0  0  1  0  0  0  0  0  0
  -27.4970  -32.3770   25.6500 C   0  0  0  0  0  1  0  0  0  0  0  0
  1  2  1  0
  3  4  1  0
  3  2  1  0
  5  4  1  0
  6  5  1  0
  7  5  1  0
  9 14  1  0
 10 11  1  0
 10  9  1  0
 12 11  1  0
 12 23  1  0
 12 13  1  0
 14  8  1  0
 14 13  1  0
 15  8  2  0
 17 19  1  0
 17 18  1  0
 18  5  1  0
 18 16  1  0
 19  8  1  0
 19 16  1  0
 20 21  2  0
 21 40  1  0
 22 25  1  0
 22 21  1  0
 23 24  1  0
 23 20  1  0
 24 22  2  0
 25 26  1  0
 26 27  2  0
 28 31  1  0
 28 27  1  0
 29 28  2  0
 30 29  1  0
 30 25  2  0
 31 32  1  0
 32 37  2  0
 32 33  1  0
 33 34  2  0
 34 35  1  0
 35 39  1  0
 36 35  2  0
 37 36  1  0
 38 37  1  0
 40 41  1  0
 41 44  1  0
 41 43  1  0
 42 40  2  0
 45 20  1  0
 45 46  1  0
 47 45  1  0
 48  1  1  0
 49 52  1  0
 49 48  1  0
 50 49  1  0
 51 49  1  0
 53 52  1  0
 54 56  1  0
 54 53  1  0
 55 66  2  0
 56 61  1  0
 57 65  1  0
 57 67  1  0
 58 64  1  0
 58 60  1  0
 59 65  1  0
 60 59  1  0
 61 60  2  0
 62 63  1  0
 62 56  2  0
 63 58  2  0
 64 57  1  0
 65 55  1  0
 67 69  2  0
 68 67  1  0
 70 68  1  0
 71 80  2  0
 71 76  1  0
 72 68  1  0
 72 76  1  0
 73 72  1  0
 74 75  1  0
 74 73  1  0
 75 71  1  0
 76 77  2  0
 77 78  1  0
 79 78  2  0
 80 79  1  0
 81 55  1  0
 81 82  1  0
 81 91  1  0
 82 85  1  0
 83 87  1  0
 83 82  1  0
 84 83  2  0
 87 86  1  0
 89 87  1  0
 89 90  1  0
 89 88  1  0
 91 94  1  1
 91 92  1  0
 93 91  1  0
M  ISO  4   8 100  19 100  53 101  54 101
M  END
>  <TORSDO>  (12) 
F 24

>  <SCORE>  (12) 
-9.648

>  <name>  (12) 
11

>  <ligand_id>  (12) 
11

>  <original_smiles>  (12) 
[H]c1c([H])c([H])c2c(c1[H])C([H])([H])C([H])([H])C([H])([H])C2([H])N([H])C(=O)C1([H])N(C(=O)C([H])(N([H])C(=O)C([H])(N([H])C([H])([H])[H])C([H])([H])[H])C(C([H])([H])[H])(C([H])([H])[H])C([H])([H])[H])C([H])([H])c2c([H])c(OC([H])([H])C([H])([H])[N+]([H])([H])C([H])([H])C([H])([H])C([H])([H])C([H])([H])C([H])([H])[N+]([H])([H])C3([H])C([H])([H])N(C(=O)N4C([H])([H])C([H])([H])C([H])([H])C([H])(n5nc(-c6c([H])c([H])c(Oc7c([H])c([H])c(F)c([H])c7F)c([H])c6[H])c(C(=O)N([H])[H])c5N([H])[H])C4([H])[H])C3([H])[H])c([H])c([H])c2C1([H])[H]

>  <smiles>  (12) 
[H]c1c([H])c([H])c2c(c1[H])C([H])([H])C([H])([H])C([H])([H])C2([H])N([H])C(=O)C1([H])N(C(=O)C([H])(N([H])C(=O)C([H])(N([H])C([H])([H])[H])C([H])([H])[H])C(C([H])([H])[H])(C([H])([H])[H])C([H])([H])[H])C([H])([H])c2c([H])c(OC([H])([H])C([H])([H])[N+]([H])([H])C([H])([H])C([H])([H])C([H])([H])C([H])([H])C([H])([H])[N+]([H])([H])C3([H])C([H])([H])N(C(=O)N4C([H])([H])C([H])([H])C([H])([H])C([H])(n5nc(-c6c([H])c([H])c(Oc7c([H])c([H])c(F)c([H])c7F)c([H])c6[H])c(C(=O)N([H])[H])c5N([H])[H])C4([H])[H])C3([H])[H])c([H])c([H])c2C1([H])[H]

$$$$
12:0:0
     RDKit          3D

 96104  0  0  1  0  0  0  0  0999 V2000
  -29.9750  -22.3190   22.4010 N   0  0  0  0  0  4  0  0  0  0  0  0
  -30.3970  -22.1470   21.5020 H   0  0  0  0  0  0  0  0  0  0  0  0
  -30.4850  -23.0630   22.8510 H   0  0  0  0  0  0  0  0  0  0  0  0
  -30.0210  -21.1030   23.2460 C   0  0  0  0  0  2  0  0  0  0  0  0
  -31.4070  -20.4120   23.2350 C   0  0  0  0  0  2  0  0  0  0  0  0
  -31.8510  -19.7750   21.8920 C   0  0  0  0  0  2  0  0  0  0  0  0
  -31.5610  -14.3700   19.4820 C   0  0  0  0  0  0  0  0  0  0  0  0
  -31.0450  -12.1220   18.5850 C   0  0  0  0  0  2  0  0  0  0  0  0
  -29.9850  -12.1770   17.4690 C   0  0  0  0  0  2  0  0  0  0  0  0
  -28.5610  -12.1490   18.0550 C   0  0  0  0  0  2  0  0  0  0  0  0
  -28.3730  -13.1860   19.1920 C   0  0  0  0  0  3  0  0  0  0  0  0
  -29.5190  -13.0770   20.2180 C   0  0  0  0  0  2  0  0  0  0  0  0
  -30.8080  -13.2360   19.5160 N   0  0  0  0  0  0  0  0  0  0  0  0
  -32.4570  -14.5610   18.6510 O   0  0  0  0  0  0  0  0  0  0  0  0
  -30.8380  -16.1580   22.7480 C   0  0  0  0  0  2  0  0  0  0  0  0
  -31.5250  -15.1540   21.7980 C   0  0  0  0  0  2  0  0  0  0  0  0
  -30.8550  -16.6780   19.8880 C   0  0  0  0  0  2  0  0  0  0  0  0
  -31.5510  -17.5200   22.8420 C   0  0  0  0  0  2  0  0  0  0  0  0
  -31.7910  -17.7960   20.3910 C   0  0  0  0  0  2  0  0  0  0  0  0
  -31.2030  -15.3300   20.3690 N   0  0  0  0  0  0  0  0  0  0  0  0
  -31.3140  -18.3990   21.6670 N   0  0  2  0  0  4  0  0  0  0  0  0
  -30.3150  -18.4900   21.5670 H   0  0  0  0  0  0  0  0  0  0  0  0
  -26.2300  -14.0310   20.3480 C   0  0  0  0  0  0  0  0  0  0  0  0
  -25.1100  -13.3760   20.7840 C   0  0  0  0  0  0  0  0  0  0  0  0
  -25.3270  -11.9920   20.5030 C   0  0  0  0  0  0  0  0  0  0  0  0
  -27.0690  -13.0520   19.8370 N   0  0  0  0  0  0  0  0  0  0  0  0
  -26.5340  -11.8120   19.9830 N   0  0  0  0  0  0  0  0  0  0  0  0
  -24.4330  -10.8370   20.6440 C   0  0  0  0  0  0  0  0  0  0  0  0
  -24.7830   -9.7270   21.4450 C   0  0  0  0  0  3  0  0  0  0  0  0
  -23.9000   -8.6340   21.5800 C   0  0  0  0  0  3  0  0  0  0  0  0
  -22.6510   -8.6460   20.9140 C   0  0  0  0  0  0  0  0  0  0  0  0
  -22.3180   -9.7420   20.0990 C   0  0  0  0  0  3  0  0  0  0  0  0
  -23.2000  -10.8260   19.9610 C   0  0  0  0  0  3  0  0  0  0  0  0
  -21.7400   -7.6190   20.9650 O   0  0  0  0  0  0  0  0  0  0  0  0
  -21.5540   -6.8770   22.1030 C   0  0  0  0  0  0  0  0  0  0  0  0
  -21.2840   -7.4840   23.3510 C   0  0  0  0  0  3  0  0  0  0  0  0
  -21.0300   -6.6820   24.4820 C   0  0  0  0  0  3  0  0  0  0  0  0
  -21.0340   -5.2790   24.3670 C   0  0  0  0  0  0  0  0  0  0  0  0
  -21.2960   -4.6750   23.1250 C   0  0  0  0  0  3  0  0  0  0  0  0
  -21.5520   -5.4720   21.9960 C   0  0  0  0  0  0  0  0  0  0  0  0
  -21.7820   -4.8850   20.7970 F   0  0  0  0  0  0  0  0  0  0  0  0
  -20.7820   -4.5090   25.4520 F   0  0  0  0  0  0  0  0  0  0  0  0
  -23.8650  -14.0050   21.3390 C   0  0  0  0  0  0  0  0  0  0  0  0
  -23.2150  -13.3430   22.2910 N   0  0  0  0  0  0  0  0  0  0  0  0
  -23.4860  -15.1140   20.9650 O   0  0  0  0  0  0  0  0  0  0  0  0
  -23.5380  -12.4430   22.6150 H   0  0  0  0  0  0  0  0  0  0  0  0
  -22.3830  -13.7420   22.7010 H   0  0  0  0  0  0  0  0  0  0  0  0
  -26.5980  -15.3740   20.3280 N   0  0  0  0  0  0  0  0  0  0  0  0
  -25.9680  -16.1060   20.6400 H   0  0  0  0  0  0  0  0  0  0  0  0
  -27.4490  -15.7320   19.9140 H   0  0  0  0  0  0  0  0  0  0  0  0
  -28.6220  -22.8260   22.1000 C   0  0  0  0  0  2  0  0  0  0  0  0
  -28.6610  -23.6420   20.8000 C   0  0  0  0  0  3  0  0  0  0  0  0
  -28.8130  -22.7800   19.7920 F   0  0  0  0  0  0  0  0  0  0  0  0
  -27.4120  -24.5040   20.5680 C   0  0  0  0  0  2  0  0  0  0  0  0
  -27.4280  -25.2470   19.2140 C   0  0  0  0  0  2  0  0  0  0  0  0
  -27.5250  -26.6580   19.3800 O   0  0  0  0  0  0  0  0  0  0  0  0
  -24.4820  -31.8050   23.1800 C   0  0  0  0  0  0  0  0  0  0  0  0
  -26.3810  -27.4070   19.5510 C   0  0  0  0  0  0  0  0  0  0  0  0
  -22.9770  -30.6040   21.6250 C   0  0  0  0  0  3  0  0  0  0  0  0
  -24.1210  -29.0560   19.9540 C   0  0  0  0  0  0  0  0  0  0  0  0
  -25.4820  -30.7880   21.1410 C   0  0  0  0  0  2  0  0  0  0  0  0
  -25.3770  -29.4610   20.4220 C   0  0  0  0  0  0  0  0  0  0  0  0
  -26.5060  -28.6400   20.2220 C   0  0  0  0  0  3  0  0  0  0  0  0
  -25.1060  -27.0080   19.0820 C   0  0  0  0  0  3  0  0  0  0  0  0
  -23.9770  -27.8260   19.2880 C   0  0  0  0  0  3  0  0  0  0  0  0
  -22.9630  -29.9980   20.1960 C   0  0  0  0  0  2  0  0  0  0  0  0
  -24.3400  -31.0750   22.0370 N   0  0  0  0  0  0  0  0  0  0  0  0
  -23.5000  -32.1250   23.8630 O   0  0  0  0  0  0  0  0  0  0  0  0
  -22.3660  -29.5760   22.6020 C   0  0  0  0  0  0  0  0  0  0  0  0
  -21.0450  -29.3670   22.4960 N   0  0  0  0  0  0  0  0  0  0  0  0
  -23.0750  -28.9690   23.4100 O   0  0  0  0  0  0  0  0  0  0  0  0
  -20.5340  -29.9110   21.8140 H   0  0  0  0  0  0  0  0  0  0  0  0
  -17.7370  -27.9760   22.9140 C   0  0  0  0  0  0  0  0  0  0  0  0
  -20.2570  -28.4190   23.2830 C   0  0  0  0  0  3  0  0  0  0  0  0
  -20.4800  -26.9710   22.7920 C   0  0  0  0  0  2  0  0  0  0  0  0
  -19.4490  -26.5210   21.7520 C   0  0  0  0  0  2  0  0  0  0  0  0
  -18.0320  -26.6060   22.3270 C   0  0  0  0  0  2  0  0  0  0  0  0
  -18.7830  -28.8330   23.3480 C   0  0  0  0  0  0  0  0  0  0  0  0
  -18.4580  -30.1090   23.8570 C   0  0  0  0  0  3  0  0  0  0  0  0
  -17.1190  -30.5310   23.9410 C   0  0  0  0  0  3  0  0  0  0  0  0
  -16.0850  -29.6740   23.5250 C   0  0  0  0  0  3  0  0  0  0  0  0
  -16.3950  -28.4000   23.0160 C   0  0  0  0  0  3  0  0  0  0  0  0
  -25.8810  -32.2950   23.6700 C   0  0  0  0  0  3  0  0  0  0  0  0
  -26.4790  -31.4120   24.8330 C   0  0  1  0  0  0  0  0  0  0  0  0
  -25.5150  -31.2170   26.0260 C   0  0  0  0  0  1  0  0  0  0  0  0
  -26.8750  -30.0120   24.3080 C   0  0  0  0  0  1  0  0  0  0  0  0
  -27.7740  -32.0660   25.3750 C   0  0  0  0  0  1  0  0  0  0  0  0
  -25.7340  -33.6900   24.1010 N   0  0  0  0  0  0  0  0  0  0  0  0
  -26.1150  -34.7540   23.3800 C   0  0  0  0  0  0  0  0  0  0  0  0
  -26.7000  -34.6560   22.2980 O   0  0  0  0  0  0  0  0  0  0  0  0
  -25.2060  -33.8480   24.9480 H   0  0  0  0  0  0  0  0  0  0  0  0
  -24.5510  -36.7200   23.2550 C   0  0  0  0  0  1  0  0  0  0  0  0
  -25.7950  -36.1470   23.9520 C   0  0  0  0  0  3  0  0  0  0  0  0
  -28.0520  -36.7710   24.6890 C   0  0  0  0  0  1  0  0  0  0  0  0
  -26.9170  -37.1040   23.8320 N   0  0  0  0  0  0  0  0  0  0  0  0
  -26.6130  -38.0470   24.0590 H   0  0  0  0  0  0  0  0  0  0  0  0
  1  3  1  0
  1  4  1  0
  2  1  1  0
  5  4  1  0
  6  5  1  0
  7 13  1  0
  7 20  1  0
  8 13  1  0
  9 10  1  0
  9  8  1  0
 11 10  1  0
 11 26  1  0
 11 12  1  0
 13 12  1  0
 14  7  2  0
 15 18  1  0
 16 15  1  0
 17 20  1  0
 17 19  1  0
 19 21  1  0
 20 16  1  0
 21  6  1  0
 21 18  1  0
 21 22  1  6
 23 24  2  0
 24 43  1  0
 25 28  1  0
 25 24  1  0
 26 27  1  0
 26 23  1  0
 27 25  2  0
 28 29  1  0
 29 30  2  0
 31 34  1  0
 31 30  1  0
 32 31  2  0
 33 32  1  0
 33 28  2  0
 34 35  1  0
 35 36  1  0
 36 37  2  0
 38 37  1  0
 38 42  1  0
 39 38  2  0
 40 35  2  0
 40 39  1  0
 41 40  1  0
 43 44  1  0
 44 46  1  0
 44 47  1  0
 45 43  2  0
 48 23  1  0
 48 49  1  0
 50 48  1  0
 51  1  1  0
 52 53  1  0
 52 51  1  0
 54 52  1  0
 55 56  1  0
 55 54  1  0
 56 58  1  0
 57 68  2  0
 58 63  1  0
 59 67  1  0
 59 69  1  0
 60 66  1  0
 60 62  1  0
 61 67  1  0
 62 61  1  0
 63 62  2  0
 64 65  1  0
 64 58  2  0
 65 60  2  0
 66 59  1  0
 67 57  1  0
 69 71  2  0
 70 69  1  0
 72 70  1  0
 73 82  2  0
 73 78  1  0
 74 70  1  0
 74 78  1  0
 75 74  1  0
 76 77  1  0
 76 75  1  0
 77 73  1  0
 78 79  2  0
 79 80  1  0
 81 80  2  0
 82 81  1  0
 83 57  1  0
 83 88  1  0
 83 84  1  0
 84 87  1  1
 84 85  1  0
 86 84  1  0
 88 91  1  0
 89 93  1  0
 89 88  1  0
 90 89  2  0
 93 92  1  0
 95 93  1  0
 95 96  1  0
 95 94  1  0
M  ISO  4   7 100  20 100  55 101  56 101
M  END
>  <TORSDO>  (13) 
F 23

>  <SCORE>  (13) 
-9.742

>  <name>  (13) 
12

>  <ligand_id>  (13) 
12

>  <original_smiles>  (13) 
[H]c1c([H])c([H])c2c(c1[H])C([H])([H])C([H])([H])C([H])([H])C2([H])N([H])C(=O)C1([H])N(C(=O)C([H])(N([H])C(=O)C([H])(N([H])C([H])([H])[H])C([H])([H])[H])C(C([H])([H])[H])(C([H])([H])[H])C([H])([H])[H])C([H])([H])c2c([H])c(OC([H])([H])C([H])([H])C([H])(F)C([H])([H])[N+]([H])([H])C([H])([H])C([H])([H])C([H])([H])[N+]3([H])C([H])([H])C([H])([H])N(C(=O)N4C([H])([H])C([H])([H])C([H])([H])C([H])(n5nc(-c6c([H])c([H])c(Oc7c([H])c([H])c(F)c([H])c7F)c([H])c6[H])c(C(=O)N([H])[H])c5N([H])[H])C4([H])[H])C([H])([H])C([H])([H])C3([H])[H])c([H])c([H])c2C1([H])[H]

>  <smiles>  (13) 
[H]c1c([H])c([H])c2c(c1[H])C([H])([H])C([H])([H])C([H])([H])C2([H])N([H])C(=O)C1([H])N(C(=O)C([H])(N([H])C(=O)C([H])(N([H])C([H])([H])[H])C([H])([H])[H])C(C([H])([H])[H])(C([H])([H])[H])C([H])([H])[H])C([H])([H])c2c([H])c(OC([H])([H])C([H])([H])C([H])(F)C([H])([H])[N+]([H])([H])C([H])([H])C([H])([H])C([H])([H])[N+]3([H])C([H])([H])C([H])([H])N(C(=O)N4C([H])([H])C([H])([H])C([H])([H])C([H])(n5nc(-c6c([H])c([H])c(Oc7c([H])c([H])c(F)c([H])c7F)c([H])c6[H])c(C(=O)N([H])[H])c5N([H])[H])C4([H])[H])C([H])([H])C([H])([H])C3([H])[H])c([H])c([H])c2C1([H])[H]

$$$$
13:0:0
     RDKit          3D

 91 99  0  0  1  0  0  0  0  0999 V2000
  -28.1910  -18.7170   19.5370 C   0  0  0  0  0  2  0  0  0  0  0  0
  -28.9910  -20.8340   20.3600 C   0  0  0  0  0  2  0  0  0  0  0  0
  -28.5010  -19.4620   20.8280 C   0  0  0  0  0  3  0  0  0  0  0  0
  -29.3460  -19.1240   18.6180 C   0  0  0  0  0  3  0  0  0  0  0  0
  -29.5260  -20.6770   18.9740 N   0  0  1  0  0  4  0  0  0  0  0  0
  -29.4740  -18.8350   21.4940 F   0  0  0  0  0  0  0  0  0  0  0  0
  -30.5250  -20.7730   19.0730 H   0  0  0  0  0  0  0  0  0  0  0  0
  -29.1660  -21.9370   18.0450 C   0  0  0  0  0  2  0  0  0  0  0  0
  -28.1210  -23.2440   18.2480 C   0  0  0  0  0  0  0  0  0  0  0  0
  -26.9380  -23.0700   17.9150 O   0  0  0  0  0  0  0  0  0  0  0  0
  -28.4790  -24.7630   18.8430 C   0  0  0  0  0  2  0  0  0  0  0  0
  -28.1660  -26.2260   18.3630 O   0  0  0  0  0  0  0  0  0  0  0  0
  -24.6760  -31.1230   22.6890 C   0  0  0  0  0  0  0  0  0  0  0  0
  -27.0560  -27.0810   18.6940 C   0  0  0  0  0  0  0  0  0  0  0  0
  -23.3590  -30.0050   20.9290 C   0  0  0  0  0  3  0  0  0  0  0  0
  -24.7020  -28.7280   19.1470 C   0  0  0  0  0  0  0  0  0  0  0  0
  -25.8840  -30.3660   20.6060 C   0  0  0  0  0  2  0  0  0  0  0  0
  -25.9220  -29.1030   19.7270 C   0  0  0  0  0  0  0  0  0  0  0  0
  -27.0990  -28.3040   19.4780 C   0  0  0  0  0  3  0  0  0  0  0  0
  -25.8060  -26.8000   18.1030 C   0  0  0  0  0  3  0  0  0  0  0  0
  -24.6550  -27.5930   18.3200 C   0  0  0  0  0  3  0  0  0  0  0  0
  -23.4740  -29.5770   19.4410 C   0  0  0  0  0  2  0  0  0  0  0  0
  -24.6650  -30.5100   21.4640 N   0  0  0  0  0  0  0  0  0  0  0  0
  -23.6350  -31.2820   23.3450 O   0  0  0  0  0  0  0  0  0  0  0  0
  -22.7750  -28.8310   21.7530 C   0  0  0  0  0  0  0  0  0  0  0  0
  -21.4440  -28.6450   21.6990 N   0  0  0  0  0  0  0  0  0  0  0  0
  -23.5190  -28.0920   22.4020 O   0  0  0  0  0  0  0  0  0  0  0  0
  -20.8970  -29.2990   21.1570 H   0  0  0  0  0  0  0  0  0  0  0  0
  -18.1380  -27.2490   22.1950 C   0  0  0  0  0  0  0  0  0  0  0  0
  -20.7010  -27.5650   22.3530 C   0  0  0  0  0  3  0  0  0  0  0  0
  -20.8080  -26.2480   21.5480 C   0  0  0  0  0  2  0  0  0  0  0  0
  -19.6530  -26.0480   20.5610 C   0  0  0  0  0  2  0  0  0  0  0  0
  -18.3120  -26.0330   21.2990 C   0  0  0  0  0  2  0  0  0  0  0  0
  -19.2590  -27.9760   22.6770 C   0  0  0  0  0  0  0  0  0  0  0  0
  -19.0390  -29.1160   23.4800 C   0  0  0  0  0  3  0  0  0  0  0  0
  -17.7320  -29.5280   23.8040 C   0  0  0  0  0  3  0  0  0  0  0  0
  -16.6280  -28.7970   23.3340 C   0  0  0  0  0  3  0  0  0  0  0  0
  -16.8330  -27.6580   22.5350 C   0  0  0  0  0  3  0  0  0  0  0  0
  -25.9940  -31.6710   23.3150 C   0  0  0  0  0  3  0  0  0  0  0  0
  -26.6070  -30.7120   24.4100 C   0  0  1  0  0  0  0  0  0  0  0  0
  -25.6010  -30.2970   25.5100 C   0  0  0  0  0  1  0  0  0  0  0  0
  -27.1510  -29.4180   23.7600 C   0  0  0  0  0  1  0  0  0  0  0  0
  -27.8100  -31.4000   25.0970 C   0  0  0  0  0  1  0  0  0  0  0  0
  -25.7000  -32.9900   23.8980 N   0  0  0  0  0  0  0  0  0  0  0  0
  -26.0240  -34.1630   23.3370 C   0  0  0  0  0  0  0  0  0  0  0  0
  -26.6710  -34.2460   22.2900 O   0  0  0  0  0  0  0  0  0  0  0  0
  -25.1230  -32.9990   24.7270 H   0  0  0  0  0  0  0  0  0  0  0  0
  -24.3060  -36.0030   23.3620 C   0  0  0  0  0  1  0  0  0  0  0  0
  -25.5630  -35.4490   24.0530 C   0  0  0  0  0  3  0  0  0  0  0  0
  -27.7170  -36.1680   24.9890 C   0  0  0  0  0  1  0  0  0  0  0  0
  -26.6020  -36.5000   24.1040 N   0  0  0  0  0  0  0  0  0  0  0  0
  -26.2060  -37.3840   24.4120 H   0  0  0  0  0  0  0  0  0  0  0  0
  -30.5690  -17.9450   18.7980 C   0  0  0  0  0  2  0  0  0  0  0  0
  -31.1860  -15.2320   19.1240 C   0  0  0  0  0  0  0  0  0  0  0  0
  -31.1630  -12.7060   18.8320 C   0  0  0  0  0  2  0  0  0  0  0  0
  -30.1590  -12.2690   17.7400 C   0  0  0  0  0  2  0  0  0  0  0  0
  -28.7440  -12.1070   18.3290 C   0  0  0  0  0  2  0  0  0  0  0  0
  -28.3460  -13.2990   19.2370 C   0  0  0  0  0  3  0  0  0  0  0  0
  -29.4650  -13.6790   20.2300 C   0  0  0  0  0  2  0  0  0  0  0  0
  -30.6620  -13.9750   19.4330 N   0  0  0  0  0  0  0  0  0  0  0  0
  -32.3690  -15.2750   18.7690 O   0  0  0  0  0  0  0  0  0  0  0  0
  -30.3470  -16.3810   19.0300 N   0  0  0  0  0  0  0  0  0  0  0  0
  -29.3940  -16.1600   19.2740 H   0  0  0  0  0  0  0  0  0  0  0  0
  -26.1670  -14.0310   20.3630 C   0  0  0  0  0  0  0  0  0  0  0  0
  -25.0840  -13.3310   20.8230 C   0  0  0  0  0  0  0  0  0  0  0  0
  -25.3870  -11.9510   20.6110 C   0  0  0  0  0  0  0  0  0  0  0  0
  -27.0640  -13.0830   19.9000 N   0  0  0  0  0  0  0  0  0  0  0  0
  -26.6130  -11.8200   20.1130 N   0  0  0  0  0  0  0  0  0  0  0  0
  -24.5570  -10.7540   20.7960 C   0  0  0  0  0  0  0  0  0  0  0  0
  -24.9100   -9.7460   21.7180 C   0  0  0  0  0  3  0  0  0  0  0  0
  -24.0830   -8.6150   21.8940 C   0  0  0  0  0  3  0  0  0  0  0  0
  -22.8880   -8.4860   21.1470 C   0  0  0  0  0  0  0  0  0  0  0  0
  -22.5510   -9.4830   20.2150 C   0  0  0  0  0  3  0  0  0  0  0  0
  -23.3790  -10.6050   20.0360 C   0  0  0  0  0  3  0  0  0  0  0  0
  -22.0360   -7.4120   21.2340 O   0  0  0  0  0  0  0  0  0  0  0  0
  -21.8190   -6.7590   22.4200 C   0  0  0  0  0  0  0  0  0  0  0  0
  -21.2580   -7.4130   23.5400 C   0  0  0  0  0  3  0  0  0  0  0  0
  -20.9880   -6.6850   24.7170 C   0  0  0  0  0  3  0  0  0  0  0  0
  -21.2680   -5.3080   24.7750 C   0  0  0  0  0  0  0  0  0  0  0  0
  -21.8210   -4.6540   23.6600 C   0  0  0  0  0  3  0  0  0  0  0  0
  -22.0920   -5.3770   22.4850 C   0  0  0  0  0  0  0  0  0  0  0  0
  -22.6050   -4.7390   21.4060 F   0  0  0  0  0  0  0  0  0  0  0  0
  -21.0010   -4.6080   25.9020 F   0  0  0  0  0  0  0  0  0  0  0  0
  -23.7980  -13.9170   21.3270 C   0  0  0  0  0  0  0  0  0  0  0  0
  -23.1320  -13.2320   22.2510 N   0  0  0  0  0  0  0  0  0  0  0  0
  -23.3990  -15.0130   20.9360 O   0  0  0  0  0  0  0  0  0  0  0  0
  -23.4710  -12.3420   22.5860 H   0  0  0  0  0  0  0  0  0  0  0  0
  -22.2710  -13.6020   22.6270 H   0  0  0  0  0  0  0  0  0  0  0  0
  -26.4500  -15.3920   20.2740 N   0  0  0  0  0  0  0  0  0  0  0  0
  -25.7620  -16.0920   20.5260 H   0  0  0  0  0  0  0  0  0  0  0  0
  -27.2450  -15.7770   19.7830 H   0  0  0  0  0  0  0  0  0  0  0  0
  1  3  1  0
  2  3  1  0
  3  6  1  0
  4 53  1  0
  4  5  1  0
  4  1  1  0
  5  7  1  1
  5  2  1  0
  8  9  1  0
  8  5  1  0
  9 11  1  0
 10  9  2  0
 12 14  1  0
 12 11  1  0
 13 24  2  0
 14 19  1  0
 15 23  1  0
 15 25  1  0
 16 22  1  0
 16 18  1  0
 17 23  1  0
 18 17  1  0
 19 18  2  0
 20 21  1  0
 20 14  2  0
 21 16  2  0
 22 15  1  0
 23 13  1  0
 25 27  2  0
 26 25  1  0
 28 26  1  0
 29 38  2  0
 29 34  1  0
 30 26  1  0
 30 34  1  0
 31 30  1  0
 32 33  1  0
 32 31  1  0
 33 29  1  0
 34 35  2  0
 35 36  1  0
 37 36  2  0
 38 37  1  0
 39 13  1  0
 39 44  1  0
 39 40  1  0
 40 43  1  1
 40 41  1  0
 42 40  1  0
 44 47  1  0
 45 44  1  0
 45 49  1  0
 46 45  2  0
 49 48  1  0
 49 51  1  0
 51 52  1  0
 51 50  1  0
 53 62  1  0
 54 60  1  0
 55 60  1  0
 56 57  1  0
 56 55  1  0
 58 57  1  0
 58 67  1  0
 58 59  1  0
 60 59  1  0
 61 54  2  0
 62 54  1  0
 62 63  1  0
 64 65  2  0
 65 84  1  0
 66 69  1  0
 66 65  1  0
 67 68  1  0
 67 64  1  0
 68 66  2  0
 69 70  1  0
 70 71  2  0
 72 75  1  0
 72 71  1  0
 73 72  2  0
 74 73  1  0
 74 69  2  0
 75 76  1  0
 76 81  2  0
 76 77  1  0
 77 78  2  0
 78 79  1  0
 79 83  1  0
 80 79  2  0
 81 80  1  0
 82 81  1  0
 84 85  1  0
 85 87  1  0
 85 88  1  0
 86 84  2  0
 89 64  1  0
 89 90  1  0
 91 89  1  0
M  ISO  4  11 101  12 101  54 100  62 100
M  END
>  <TORSDO>  (14) 
F 20

>  <SCORE>  (14) 
-11.111

>  <name>  (14) 
13

>  <ligand_id>  (14) 
13

>  <original_smiles>  (14) 
[H]c1c([H])c([H])c2c(c1[H])C([H])([H])C([H])([H])C([H])([H])C2([H])N([H])C(=O)C1([H])N(C(=O)C([H])(N([H])C(=O)C([H])(N([H])C([H])([H])[H])C([H])([H])[H])C(C([H])([H])[H])(C([H])([H])[H])C([H])([H])[H])C([H])([H])c2c([H])c(OC([H])([H])C(=O)C([H])([H])[N+]3([H])C([H])([H])C([H])(F)C([H])([H])C3([H])C([H])([H])N([H])C(=O)N3C([H])([H])C([H])([H])C([H])([H])C([H])(n4nc(-c5c([H])c([H])c(Oc6c([H])c([H])c(F)c([H])c6F)c([H])c5[H])c(C(=O)N([H])[H])c4N([H])[H])C3([H])[H])c([H])c([H])c2C1([H])[H]

>  <smiles>  (14) 
[H]c1c([H])c([H])c2c(c1[H])C([H])([H])C([H])([H])C([H])([H])C2([H])N([H])C(=O)C1([H])N(C(=O)C([H])(N([H])C(=O)C([H])(N([H])C([H])([H])[H])C([H])([H])[H])C(C([H])([H])[H])(C([H])([H])[H])C([H])([H])[H])C([H])([H])c2c([H])c(OC([H])([H])C(=O)C([H])([H])[N+]3([H])C([H])([H])C([H])(F)C([H])([H])C3([H])C([H])([H])N([H])C(=O)N3C([H])([H])C([H])([H])C([H])([H])C([H])(n4nc(-c5c([H])c([H])c(Oc6c([H])c([H])c(F)c([H])c6F)c([H])c5[H])c(C(=O)N([H])[H])c4N([H])[H])C3([H])[H])c([H])c([H])c2C1([H])[H]

$$$$
14:0:0
     RDKit          3D

 99106  0  0  1  0  0  0  0  0999 V2000
  -25.9530  -20.5040   20.0270 C   0  0  0  0  0  2  0  0  0  0  0  0
  -26.8020  -19.1610   20.0450 C   0  0  0  0  0  2  0  0  0  0  0  0
  -27.3280  -19.3390   17.8060 C   0  0  0  0  0  2  0  0  0  0  0  0
  -25.2760  -20.9210   18.6720 C   0  0  0  0  0  3  0  0  0  0  0  0
  -26.5140  -20.7270   17.6860 C   0  0  0  0  0  3  0  0  0  0  0  0
  -27.9690  -19.0620   19.1190 N   0  0  0  0  0  0  0  0  0  0  0  0
  -26.1080  -20.9240   16.2850 N   0  0  0  0  0  4  0  0  0  0  0  0
  -25.4450  -20.2260   15.9970 H   0  0  0  0  0  0  0  0  0  0  0  0
  -26.9140  -20.8540   15.6870 H   0  0  0  0  0  0  0  0  0  0  0  0
  -25.7060  -21.8330   16.1470 H   0  0  0  0  0  0  0  0  0  0  0  0
  -24.5040  -22.3920   18.7040 C   0  0  0  0  0  2  0  0  0  0  0  0
  -23.0400  -22.7530   18.0310 C   0  0  0  0  0  2  0  0  0  0  0  0
  -22.1480  -23.8260   18.7260 N   0  0  0  0  0  4  0  0  0  0  0  0
  -22.7460  -24.5860   19.0100 H   0  0  0  0  0  0  0  0  0  0  0  0
  -21.8660  -23.3780   19.5850 H   0  0  0  0  0  0  0  0  0  0  0  0
  -20.8060  -24.4730   18.1950 C   0  0  0  0  0  2  0  0  0  0  0  0
  -20.5530  -26.0890   17.5910 C   0  0  0  0  0  3  0  0  0  0  0  0
  -22.9460  -27.6260   16.2940 C   0  0  0  0  0  1  0  0  0  0  0  0
  -24.9070  -27.1670   16.6530 O   0  0  0  0  0  1  0  0  0  0  0  0
  -25.3250  -27.9560   21.8650 C   0  0  0  0  0  0  0  0  0  0  0  0
  -26.4350  -27.3960   16.5630 C   0  0  0  0  0  3  0  0  0  0  0  0
  -24.4490  -28.8900   19.8120 C   0  0  0  0  0  3  0  0  0  0  0  0
  -26.0500  -29.4330   17.8620 C   0  0  0  0  0  3  0  0  0  0  0  0
  -26.9430  -28.5940   20.0520 C   0  0  0  0  0  2  0  0  0  0  0  0
  -26.9010  -28.5480   18.5350 C   0  0  0  0  0  3  0  0  0  0  0  0
  -27.2750  -27.4480   17.7490 C   0  0  0  0  0  2  0  0  0  0  0  0
  -26.7470  -28.4580   15.7510 C   0  0  0  0  0  2  0  0  0  0  0  0
  -26.1040  -29.4930   16.4350 C   0  0  0  0  0  2  0  0  0  0  0  0
  -24.8590  -29.8780   18.6520 C   0  0  0  0  0  2  0  0  0  0  0  0
  -25.5960  -28.5060   20.6520 N   0  0  0  0  0  0  0  0  0  0  0  0
  -24.1630  -27.8670   22.2960 O   0  0  0  0  0  0  0  0  0  0  0  0
  -23.7940  -27.5480   19.4290 C   0  0  0  0  0  0  0  0  0  0  0  0
  -22.5180  -27.4470   19.6080 N   0  0  0  0  0  0  0  0  0  0  0  0
  -24.3990  -26.5730   18.9930 O   0  0  0  0  0  0  0  0  0  0  0  0
  -21.9970  -28.1980   20.0420 H   0  0  0  0  0  0  0  0  0  0  0  0
  -19.0960  -27.2500   19.6060 C   0  0  0  0  0  0  0  0  0  0  0  0
  -21.7720  -26.4360   18.9030 C   0  0  0  0  0  3  0  0  0  0  0  0
  -21.7270  -26.2710   16.7960 C   0  0  0  0  0  2  0  0  0  0  0  0
  -19.7450  -27.4440   16.3170 C   0  0  0  0  0  1  0  0  0  0  0  0
  -18.7910  -27.8800   17.9800 C   0  0  0  0  0  2  0  0  0  0  0  0
  -20.4370  -26.7040   19.9810 C   0  0  0  0  0  0  0  0  0  0  0  0
  -20.6100  -26.2870   21.3550 C   0  0  0  0  0  3  0  0  0  0  0  0
  -19.5870  -26.2160   22.3320 C   0  0  0  0  0  3  0  0  0  0  0  0
  -18.2740  -26.4920   21.9320 C   0  0  0  0  0  3  0  0  0  0  0  0
  -18.0460  -26.9780   20.6030 C   0  0  0  0  0  3  0  0  0  0  0  0
  -26.4650  -27.4430   22.7670 C   0  0  0  0  0  3  0  0  0  0  0  0
  -26.2080  -25.9980   23.3420 C   0  0  1  0  0  0  0  0  0  0  0  0
  -24.8230  -25.8180   24.0080 C   0  0  0  0  0  1  0  0  0  0  0  0
  -26.3340  -24.9280   22.2340 C   0  0  0  0  0  1  0  0  0  0  0  0
  -27.2950  -25.6790   24.3900 C   0  0  0  0  0  1  0  0  0  0  0  0
  -26.5780  -28.4250   23.8470 N   0  0  0  0  0  0  0  0  0  0  0  0
  -27.4840  -29.4060   23.8750 C   0  0  0  0  0  0  0  0  0  0  0  0
  -28.3820  -29.5080   23.0350 O   0  0  0  0  0  0  0  0  0  0  0  0
  -25.8420  -28.4290   24.5380 H   0  0  0  0  0  0  0  0  0  0  0  0
  -26.8030  -31.7480   24.4950 C   0  0  0  0  0  1  0  0  0  0  0  0
  -27.3850  -30.4260   25.0220 C   0  0  0  0  0  3  0  0  0  0  0  0
  -29.1850  -29.5210   26.4220 C   0  0  0  0  0  1  0  0  0  0  0  0
  -28.6800  -30.6780   25.6890 N   0  0  0  0  0  0  0  0  0  0  0  0
  -28.6040  -31.4560   26.3390 H   0  0  0  0  0  0  0  0  0  0  0  0
  -28.7070  -17.7340   19.3550 C   0  0  0  0  0  3  0  0  0  0  0  0
  -30.2940  -17.3850   19.1490 C   0  0  0  0  0  3  0  0  0  0  0  0
  -31.8900  -15.2110   19.8070 C   0  0  0  0  0  0  0  0  0  0  0  0
  -32.3220  -12.7310   20.0450 C   0  0  0  0  0  2  0  0  0  0  0  0
  -31.5200  -11.9970   18.9390 C   0  0  0  0  0  2  0  0  0  0  0  0
  -30.0290  -11.8350   19.3160 C   0  0  0  0  0  2  0  0  0  0  0  0
  -29.4260  -13.1460   19.8790 C   0  0  0  0  0  3  0  0  0  0  0  0
  -30.3290  -13.6900   21.0010 C   0  0  0  0  0  2  0  0  0  0  0  0
  -31.6150  -13.9920   20.3690 N   0  0  0  0  0  0  0  0  0  0  0  0
  -33.0190  -15.4350   19.3380 O   0  0  0  0  0  0  0  0  0  0  0  0
  -30.7590  -16.0360   19.7180 N   0  0  0  0  0  0  0  0  0  0  0  0
  -29.9970  -15.5740   20.1900 H   0  0  0  0  0  0  0  0  0  0  0  0
  -27.1260  -13.9590   20.6650 C   0  0  0  0  0  0  0  0  0  0  0  0
  -25.9910  -13.2830   21.0110 C   0  0  0  0  0  0  0  0  0  0  0  0
  -26.3030  -11.8960   20.8680 C   0  0  0  0  0  0  0  0  0  0  0  0
  -28.0610  -12.9880   20.3450 N   0  0  0  0  0  0  0  0  0  0  0  0
  -27.5730  -11.7390   20.5250 N   0  0  0  0  0  0  0  0  0  0  0  0
  -25.4520  -10.7100   20.9730 C   0  0  0  0  0  0  0  0  0  0  0  0
  -25.6740   -9.7300   21.9650 C   0  0  0  0  0  3  0  0  0  0  0  0
  -24.8300   -8.6030   22.0530 C   0  0  0  0  0  3  0  0  0  0  0  0
  -23.7520   -8.4520   21.1490 C   0  0  0  0  0  0  0  0  0  0  0  0
  -23.5520   -9.4190   20.1490 C   0  0  0  0  0  3  0  0  0  0  0  0
  -24.3960  -10.5380   20.0580 C   0  0  0  0  0  3  0  0  0  0  0  0
  -22.8960   -7.3780   21.1450 O   0  0  0  0  0  0  0  0  0  0  0  0
  -22.5000   -6.7700   22.3080 C   0  0  0  0  0  0  0  0  0  0  0  0
  -21.7800   -7.4650   23.3040 C   0  0  0  0  0  3  0  0  0  0  0  0
  -21.3320   -6.7830   24.4530 C   0  0  0  0  0  3  0  0  0  0  0  0
  -21.5970   -5.4080   24.6050 C   0  0  0  0  0  0  0  0  0  0  0  0
  -22.3100   -4.7140   23.6120 C   0  0  0  0  0  3  0  0  0  0  0  0
  -22.7580   -5.3930   22.4650 C   0  0  0  0  0  0  0  0  0  0  0  0
  -23.4280   -4.7170   21.5010 F   0  0  0  0  0  0  0  0  0  0  0  0
  -21.1600   -4.7520   25.7050 F   0  0  0  0  0  0  0  0  0  0  0  0
  -24.6590  -13.8870   21.3480 C   0  0  0  0  0  0  0  0  0  0  0  0
  -23.8800  -13.2170   22.1890 N   0  0  0  0  0  0  0  0  0  0  0  0
  -24.3260  -14.9860   20.9040 O   0  0  0  0  0  0  0  0  0  0  0  0
  -24.1650  -12.3270   22.5670 H   0  0  0  0  0  0  0  0  0  0  0  0
  -22.9850  -13.6010   22.4570 H   0  0  0  0  0  0  0  0  0  0  0  0
  -27.4270  -15.3120   20.5650 N   0  0  0  0  0  0  0  0  0  0  0  0
  -26.6870  -15.9990   20.6420 H   0  0  0  0  0  0  0  0  0  0  0  0
  -28.2280  -15.6460   20.0480 H   0  0  0  0  0  0  0  0  0  0  0  0
  1  2  1  0
  3  6  1  0
  4 11  1  0
  4  1  1  0
  5  7  1  0
  5  3  1  0
  5  4  1  0
  6 60  1  0
  6  2  1  0
  8  7  1  0
  9  7  1  0
 10  7  1  0
 12 11  1  0
 12 13  1  0
 13 14  1  0
 13 15  1  0
 16 13  1  0
 17 38  1  0
 17 16  1  0
 17 37  1  0
 18 38  1  0
 20 31  2  0
 21 19  1  0
 21 26  1  0
 22 32  1  0
 22 30  1  0
 23 28  1  0
 23 25  1  0
 23 29  1  0
 24 30  1  0
 25 26  1  0
 25 24  1  0
 27 28  1  0
 27 21  1  0
 29 22  1  0
 30 20  1  0
 32 33  1  0
 33 35  1  0
 34 32  2  0
 36 41  2  0
 36 45  1  0
 37 33  1  0
 37 41  1  0
 39 40  1  0
 40 36  1  0
 41 42  1  0
 42 43  2  0
 44 43  1  0
 45 44  2  0
 46 20  1  0
 46 47  1  0
 46 51  1  0
 47 48  1  1
 47 50  1  0
 49 47  1  0
 51 52  1  0
 51 54  1  0
 52 56  1  0
 53 52  2  0
 56 55  1  0
 56 58  1  0
 58 59  1  0
 58 57  1  0
 61 60  2  0
 61 70  1  0
 62 68  1  0
 63 68  1  0
 64 65  1  0
 64 63  1  0
 66 65  1  0
 66 75  1  0
 66 67  1  0
 68 67  1  0
 69 62  2  0
 70 62  1  0
 70 71  1  0
 72 73  2  0
 73 92  1  0
 74 77  1  0
 74 73  1  0
 75 76  1  0
 75 72  1  0
 76 74  2  0
 77 78  1  0
 78 79  2  0
 80 79  1  0
 81 80  2  0
 82 81  1  0
 82 77  2  0
 83 80  1  0
 83 84  1  0
 84 89  2  0
 84 85  1  0
 85 86  2  0
 86 87  1  0
 87 91  1  0
 88 87  2  0
 89 88  1  0
 90 89  1  0
 92 93  1  0
 93 96  1  0
 93 95  1  0
 94 92  2  0
 97 98  1  0
 97 72  1  0
 99 97  1  0
M  ISO  4  18 101  19 101  62 100  70 100
M  END
>  <TORSDO>  (15) 
F 25

>  <SCORE>  (15) 
-2.717

>  <name>  (15) 
14

>  <ligand_id>  (15) 
14

>  <original_smiles>  (15) 
[H]c1c([H])c([H])c2c(c1[H])C([H])([H])C([H])([H])C([H])([H])C2([H])N([H])C(=O)C1([H])N(C(=O)C([H])(N([H])C(=O)C([H])(N([H])C([H])([H])[H])C([H])([H])[H])C(C([H])([H])[H])(C([H])([H])[H])C([H])([H])[H])C([H])([H])c2c([H])c(OC([H])([H])C([H])([H])C([H])([H])[N+]([H])([H])C([H])([H])C([H])([H])C3([H])C([H])([H])C([H])([H])N(C([H])([H])C([H])([H])N([H])C(=O)N4C([H])([H])C([H])([H])C([H])([H])C([H])(n5nc(-c6c([H])c([H])c(Oc7c([H])c([H])c(F)c([H])c7F)c([H])c6[H])c(C(=O)N([H])[H])c5N([H])[H])C4([H])[H])C([H])([H])C3([H])[N+]([H])([H])[H])c([H])c([H])c2C1([H])[H]

>  <smiles>  (15) 
[H]c1c([H])c([H])c2c(c1[H])C([H])([H])C([H])([H])C([H])([H])C2([H])N([H])C(=O)C1([H])N(C(=O)C([H])(N([H])C(=O)C([H])(N([H])C([H])([H])[H])C([H])([H])[H])C(C([H])([H])[H])(C([H])([H])[H])C([H])([H])[H])C([H])([H])c2c([H])c(OC([H])([H])C([H])([H])C([H])([H])[N+]([H])([H])C([H])([H])C([H])([H])C3([H])C([H])([H])C([H])([H])N(C([H])([H])C([H])([H])N([H])C(=O)N4C([H])([H])C([H])([H])C([H])([H])C([H])(n5nc(-c6c([H])c([H])c(Oc7c([H])c([H])c(F)c([H])c7F)c([H])c6[H])c(C(=O)N([H])[H])c5N([H])[H])C4([H])[H])C([H])([H])C3([H])[N+]([H])([H])[H])c([H])c([H])c2C1([H])[H]

$$$$
15:0:0
     RDKit          3D

 97106  0  0  1  0  0  0  0  0999 V2000
  -27.6460  -20.9070   21.6060 C   0  0  0  0  0  2  0  0  0  0  0  0
  -28.6540  -20.6020   20.5140 C   0  0  0  0  0  3  0  0  0  0  0  0
  -28.9160  -21.7260   21.4990 C   0  0  0  0  0  3  0  0  0  0  0  0
  -29.5680  -17.0310   19.4820 C   0  0  0  0  0  3  0  0  0  0  0  0
  -30.7320  -17.5180   21.5580 C   0  0  0  0  0  3  0  0  0  0  0  0
  -29.3370  -19.2490   20.5160 C   0  0  0  0  0  0  0  0  0  0  0  0
  -30.4000  -16.6000   20.5410 C   0  0  0  0  0  0  0  0  0  0  0  0
  -29.0410  -18.3360   19.4760 C   0  0  0  0  0  0  0  0  0  0  0  0
  -30.2200  -18.8290   21.5420 C   0  0  0  0  0  0  0  0  0  0  0  0
  -28.2100  -18.6940   18.4660 F   0  0  0  0  0  0  0  0  0  0  0  0
  -30.5650  -19.6680   22.5490 F   0  0  0  0  0  0  0  0  0  0  0  0
  -31.1950  -14.4210   19.7010 C   0  0  0  0  0  0  0  0  0  0  0  0
  -30.7870  -12.2160   18.6750 C   0  0  0  0  0  2  0  0  0  0  0  0
  -29.7100  -12.3360   17.5780 C   0  0  0  0  0  2  0  0  0  0  0  0
  -28.2980  -12.2070   18.1780 C   0  0  0  0  0  2  0  0  0  0  0  0
  -28.0870  -13.1370   19.4000 C   0  0  0  0  0  3  0  0  0  0  0  0
  -29.2530  -12.9880   20.4040 C   0  0  0  0  0  2  0  0  0  0  0  0
  -30.5270  -13.2400   19.6970 N   0  0  0  0  0  0  0  0  0  0  0  0
  -32.1060  -14.7010   18.9110 O   0  0  0  0  0  0  0  0  0  0  0  0
  -30.8370  -15.2540   20.6860 N   0  0  0  0  0  0  0  0  0  0  0  0
  -30.4320  -14.7740   21.4770 H   0  0  0  0  0  0  0  0  0  0  0  0
  -25.8600  -13.7970   20.5190 C   0  0  0  0  0  0  0  0  0  0  0  0
  -24.8010  -13.0490   20.9600 C   0  0  0  0  0  0  0  0  0  0  0  0
  -25.1520  -11.6870   20.7140 C   0  0  0  0  0  0  0  0  0  0  0  0
  -26.7930  -12.8920   20.0380 N   0  0  0  0  0  0  0  0  0  0  0  0
  -26.3760  -11.6110   20.2100 N   0  0  0  0  0  0  0  0  0  0  0  0
  -24.3710  -10.4530   20.8790 C   0  0  0  0  0  0  0  0  0  0  0  0
  -24.7610   -9.4480   21.7900 C   0  0  0  0  0  3  0  0  0  0  0  0
  -23.9850   -8.2780   21.9400 C   0  0  0  0  0  3  0  0  0  0  0  0
  -22.8050   -8.1060   21.1800 C   0  0  0  0  0  0  0  0  0  0  0  0
  -22.4320   -9.1010   20.2590 C   0  0  0  0  0  3  0  0  0  0  0  0
  -23.2090  -10.2620   20.1060 C   0  0  0  0  0  3  0  0  0  0  0  0
  -22.0020   -6.9930   21.2420 O   0  0  0  0  0  0  0  0  0  0  0  0
  -21.7740   -6.3340   22.4230 C   0  0  0  0  0  0  0  0  0  0  0  0
  -21.2220   -6.9890   23.5460 C   0  0  0  0  0  3  0  0  0  0  0  0
  -20.9410   -6.2570   24.7180 C   0  0  0  0  0  3  0  0  0  0  0  0
  -21.2010   -4.8740   24.7670 C   0  0  0  0  0  0  0  0  0  0  0  0
  -21.7450   -4.2210   23.6470 C   0  0  0  0  0  3  0  0  0  0  0  0
  -22.0280   -4.9490   22.4780 C   0  0  0  0  0  0  0  0  0  0  0  0
  -22.5330   -4.3100   21.3950 F   0  0  0  0  0  0  0  0  0  0  0  0
  -20.9230   -4.1710   25.8890 F   0  0  0  0  0  0  0  0  0  0  0  0
  -23.4970  -13.5700   21.4940 C   0  0  0  0  0  0  0  0  0  0  0  0
  -22.8730  -12.8420   22.4130 N   0  0  0  0  0  0  0  0  0  0  0  0
  -23.0460  -14.6560   21.1310 O   0  0  0  0  0  0  0  0  0  0  0  0
  -23.2500  -11.9600   22.7290 H   0  0  0  0  0  0  0  0  0  0  0  0
  -22.0060  -13.1740   22.8120 H   0  0  0  0  0  0  0  0  0  0  0  0
  -26.0960  -15.1670   20.4720 N   0  0  0  0  0  0  0  0  0  0  0  0
  -25.4050  -15.8430   20.7800 H   0  0  0  0  0  0  0  0  0  0  0  0
  -26.9330  -15.5990   20.1000 H   0  0  0  0  0  0  0  0  0  0  0  0
  -28.6030  -23.0870   21.0130 N   0  0  0  0  0  4  0  0  0  0  0  0
  -28.1160  -23.6010   21.7340 H   0  0  0  0  0  0  0  0  0  0  0  0
  -27.9820  -23.0190   20.2240 H   0  0  0  0  0  0  0  0  0  0  0  0
  -29.7710  -23.9090   20.6460 C   0  0  0  0  0  2  0  0  0  0  0  0
  -29.3570  -25.3660   20.3790 C   0  0  0  0  0  3  0  0  0  0  0  0
  -28.4760  -25.7300   21.3150 F   0  0  0  0  0  0  0  0  0  0  0  0
  -28.7730  -25.6140   18.9740 C   0  0  0  0  0  2  0  0  0  0  0  0
  -28.5900  -27.0140   18.7730 O   0  0  0  0  0  0  0  0  0  0  0  0
  -24.7390  -31.3140   22.9010 C   0  0  0  0  0  0  0  0  0  0  0  0
  -27.3520  -27.5680   19.0050 C   0  0  0  0  0  0  0  0  0  0  0  0
  -23.4710  -30.1010   21.1550 C   0  0  0  0  0  3  0  0  0  0  0  0
  -24.8800  -28.8720   19.4220 C   0  0  0  0  0  0  0  0  0  0  0  0
  -25.9500  -30.6410   20.8340 C   0  0  0  0  0  2  0  0  0  0  0  0
  -26.0510  -29.3870   19.9930 C   0  0  0  0  0  0  0  0  0  0  0  0
  -27.2860  -28.7430   19.7820 C   0  0  0  0  0  3  0  0  0  0  0  0
  -26.1630  -27.0560   18.4340 C   0  0  0  0  0  3  0  0  0  0  0  0
  -24.9300  -27.7040   18.6440 C   0  0  0  0  0  3  0  0  0  0  0  0
  -23.6010  -29.6350   19.6800 C   0  0  0  0  0  2  0  0  0  0  0  0
  -24.7420  -30.6930   21.6880 N   0  0  0  0  0  0  0  0  0  0  0  0
  -23.6940  -31.4400   23.5530 O   0  0  0  0  0  0  0  0  0  0  0  0
  -22.9480  -28.9150   21.9960 C   0  0  0  0  0  0  0  0  0  0  0  0
  -21.6450  -28.6220   21.8680 N   0  0  0  0  0  0  0  0  0  0  0  0
  -23.7100  -28.2650   22.7160 O   0  0  0  0  0  0  0  0  0  0  0  0
  -21.0850  -29.2070   21.2630 H   0  0  0  0  0  0  0  0  0  0  0  0
  -18.4400  -26.9850   22.1650 C   0  0  0  0  0  0  0  0  0  0  0  0
  -20.9410  -27.5230   22.5260 C   0  0  0  0  0  3  0  0  0  0  0  0
  -21.2290  -26.1750   21.8250 C   0  0  0  0  0  2  0  0  0  0  0  0
  -20.1900  -25.8170   20.7570 C   0  0  0  0  0  2  0  0  0  0  0  0
  -18.7910  -25.7340   21.3760 C   0  0  0  0  0  2  0  0  0  0  0  0
  -19.4490  -27.8330   22.6910 C   0  0  0  0  0  0  0  0  0  0  0  0
  -19.0680  -29.0040   23.3840 C   0  0  0  0  0  3  0  0  0  0  0  0
  -17.7100  -29.3260   23.5600 C   0  0  0  0  0  3  0  0  0  0  0  0
  -16.7140  -28.4740   23.0500 C   0  0  0  0  0  3  0  0  0  0  0  0
  -17.0790  -27.3060   22.3580 C   0  0  0  0  0  3  0  0  0  0  0  0
  -26.0410  -31.9180   23.5160 C   0  0  0  0  0  3  0  0  0  0  0  0
  -25.7020  -33.2410   24.0560 N   0  0  0  0  0  0  0  0  0  0  0  0
  -25.9590  -34.4020   23.4400 C   0  0  0  0  0  0  0  0  0  0  0  0
  -26.5810  -34.4730   22.3750 O   0  0  0  0  0  0  0  0  0  0  0  0
  -25.1460  -33.2550   24.8970 H   0  0  0  0  0  0  0  0  0  0  0  0
  -24.1580  -36.1560   23.4130 C   0  0  0  0  0  1  0  0  0  0  0  0
  -25.4460  -35.6910   24.1110 C   0  0  0  0  0  3  0  0  0  0  0  0
  -27.5840  -36.5310   24.9800 C   0  0  0  0  0  1  0  0  0  0  0  0
  -26.4360  -36.7890   24.1130 N   0  0  0  0  0  0  0  0  0  0  0  0
  -26.0060  -37.6620   24.4050 H   0  0  0  0  0  0  0  0  0  0  0  0
  -26.6850  -31.0050   24.6310 C   0  0  1  0  0  0  0  0  0  0  0  0
  -25.6870  -30.5710   25.7280 C   0  0  0  0  0  1  0  0  0  0  0  0
  -27.2940  -29.7260   24.0070 C   0  0  0  0  0  1  0  0  0  0  0  0
  -27.8510  -31.7580   25.3150 C   0  0  0  0  0  1  0  0  0  0  0  0
  2  6  1  0
  2  3  1  0
  2  1  1  0
  3 50  1  0
  3  1  1  0
  4  7  1  0
  6  9  2  0
  7 20  1  0
  7  5  2  0
  8  4  2  0
  8  6  1  0
  9  5  1  0
  9 11  1  0
 10  8  1  0
 12 20  1  0
 13 18  1  0
 14 15  1  0
 14 13  1  0
 16 15  1  0
 16 25  1  0
 16 17  1  0
 18 12  1  0
 18 17  1  0
 19 12  2  0
 20 21  1  0
 22 23  2  0
 23 42  1  0
 24 27  1  0
 24 23  1  0
 25 26  1  0
 25 22  1  0
 26 24  2  0
 27 28  1  0
 28 29  2  0
 30 33  1  0
 30 29  1  0
 31 30  2  0
 32 31  1  0
 32 27  2  0
 33 34  1  0
 34 39  2  0
 34 35  1  0
 35 36  2  0
 36 37  1  0
 37 41  1  0
 38 37  2  0
 39 38  1  0
 40 39  1  0
 42 43  1  0
 43 45  1  0
 43 46  1  0
 44 42  2  0
 47 22  1  0
 47 48  1  0
 49 47  1  0
 50 51  1  0
 52 50  1  0
 53 50  1  0
 54 53  1  0
 54 55  1  0
 56 54  1  0
 57 56  1  0
 57 59  1  0
 58 69  2  0
 59 64  1  0
 60 68  1  0
 60 70  1  0
 61 67  1  0
 61 63  1  0
 62 68  1  0
 63 62  1  0
 64 63  2  0
 65 66  1  0
 65 59  2  0
 66 61  2  0
 67 60  1  0
 68 58  1  0
 70 72  2  0
 71 70  1  0
 73 71  1  0
 74 83  2  0
 74 79  1  0
 75 71  1  0
 75 79  1  0
 76 75  1  0
 77 78  1  0
 77 76  1  0
 78 74  1  0
 79 80  2  0
 80 81  1  0
 82 81  2  0
 83 82  1  0
 84 58  1  0
 84 85  1  0
 84 94  1  0
 85 88  1  0
 86 85  1  0
 86 90  1  0
 87 86  2  0
 90 89  1  0
 90 92  1  0
 92 93  1  0
 92 91  1  0
 94 97  1  1
 94 95  1  0
 96 94  1  0
M  ISO  4  12 100  20 100  56 101  57 101
M  END
>  <TORSDO>  (16) 
F 21

>  <SCORE>  (16) 
-9.745

>  <name>  (16) 
15

>  <ligand_id>  (16) 
15

>  <original_smiles>  (16) 
[H]c1c([H])c([H])c2c(c1[H])C([H])([H])C([H])([H])C([H])([H])C2([H])N([H])C(=O)C1([H])N(C(=O)C([H])(N([H])C(=O)C([H])(N([H])C([H])([H])[H])C([H])([H])[H])C(C([H])([H])[H])(C([H])([H])[H])C([H])([H])[H])C([H])([H])c2c([H])c(OC([H])([H])C([H])(F)C([H])([H])[N+]([H])([H])C3([H])C([H])([H])C3([H])c3c(F)c([H])c(N([H])C(=O)N4C([H])([H])C([H])([H])C([H])([H])C([H])(n5nc(-c6c([H])c([H])c(Oc7c([H])c([H])c(F)c([H])c7F)c([H])c6[H])c(C(=O)N([H])[H])c5N([H])[H])C4([H])[H])c([H])c3F)c([H])c([H])c2C1([H])[H]

>  <smiles>  (16) 
[H]c1c([H])c([H])c2c(c1[H])C([H])([H])C([H])([H])C([H])([H])C2([H])N([H])C(=O)C1([H])N(C(=O)C([H])(N([H])C(=O)C([H])(N([H])C([H])([H])[H])C([H])([H])[H])C(C([H])([H])[H])(C([H])([H])[H])C([H])([H])[H])C([H])([H])c2c([H])c(OC([H])([H])C([H])(F)C([H])([H])[N+]([H])([H])C3([H])C([H])([H])C3([H])c3c(F)c([H])c(N([H])C(=O)N4C([H])([H])C([H])([H])C([H])([H])C([H])(n5nc(-c6c([H])c([H])c(Oc7c([H])c([H])c(F)c([H])c7F)c([H])c6[H])c(C(=O)N([H])[H])c5N([H])[H])C4([H])[H])c([H])c3F)c([H])c([H])c2C1([H])[H]

$$$$
16:0:0
     RDKit          3D

101110  0  0  1  0  0  0  0  0999 V2000
  -29.1340  -20.6140   16.1820 C   0  0  0  0  0  3  0  0  0  0  0  0
  -31.0940  -19.9310   14.9210 C   0  0  0  0  0  3  0  0  0  0  0  0
  -29.2190  -18.3920   15.1730 C   0  0  0  0  0  3  0  0  0  0  0  0
  -30.4250  -20.9140   15.6820 C   0  0  0  0  0  0  0  0  0  0  0  0
  -28.5260  -19.3560   15.9350 C   0  0  0  0  0  0  0  0  0  0  0  0
  -30.5070  -18.6790   14.6760 C   0  0  0  0  0  0  0  0  0  0  0  0
  -31.9830  -22.8690   14.9330 C   0  0  0  0  0  2  0  0  0  0  0  0
  -30.8240  -24.6030   16.0770 C   0  0  0  0  0  2  0  0  0  0  0  0
  -31.1420  -22.2230   16.0490 C   0  0  0  0  0  3  0  0  0  0  0  0
  -32.1880  -24.3120   15.4140 C   0  0  0  0  0  3  0  0  0  0  0  0
  -30.2550  -23.3050   16.5140 N   0  0  0  0  0  4  0  0  0  0  0  0
  -29.3310  -23.2060   16.1240 H   0  0  0  0  0  0  0  0  0  0  0  0
  -30.1840  -23.2670   17.5190 H   0  0  0  0  0  0  0  0  0  0  0  0
  -32.6580  -25.2900   14.2950 C   0  0  0  0  0  2  0  0  0  0  0  0
  -33.5960  -26.3000   14.7040 O   0  0  0  0  0  0  0  0  0  0  0  0
  -34.6710  -29.4320   20.9540 C   0  0  0  0  0  0  0  0  0  0  0  0
  -33.1820  -27.3170   15.5380 C   0  0  0  0  0  0  0  0  0  0  0  0
  -32.5900  -30.0790   19.7850 C   0  0  0  0  0  3  0  0  0  0  0  0
  -32.4160  -29.3500   17.3490 C   0  0  0  0  0  0  0  0  0  0  0  0
  -34.6550  -29.3370   18.4660 C   0  0  0  0  0  2  0  0  0  0  0  0
  -33.7060  -28.8130   17.4080 C   0  0  0  0  0  0  0  0  0  0  0  0
  -34.0900  -27.7930   16.5100 C   0  0  0  0  0  3  0  0  0  0  0  0
  -31.9010  -27.9070   15.4590 C   0  0  0  0  0  3  0  0  0  0  0  0
  -31.5070  -28.9000   16.3750 C   0  0  0  0  0  3  0  0  0  0  0  0
  -32.0650  -30.4160   18.3630 C   0  0  0  0  0  2  0  0  0  0  0  0
  -34.0060  -29.5840   19.7750 N   0  0  0  0  0  0  0  0  0  0  0  0
  -34.1450  -29.7460   22.0320 O   0  0  0  0  0  0  0  0  0  0  0  0
  -31.6040  -29.0970   20.4550 C   0  0  0  0  0  0  0  0  0  0  0  0
  -30.6490  -29.6450   21.2230 N   0  0  0  0  0  0  0  0  0  0  0  0
  -31.6910  -27.8810   20.2610 O   0  0  0  0  0  0  0  0  0  0  0  0
  -30.6460  -30.6500   21.3310 H   0  0  0  0  0  0  0  0  0  0  0  0
  -28.3730  -29.8190   24.0240 C   0  0  0  0  0  0  0  0  0  0  0  0
  -29.5870  -28.9230   21.9240 C   0  0  0  0  0  3  0  0  0  0  0  0
  -28.2320  -29.0830   21.1970 C   0  0  0  0  0  2  0  0  0  0  0  0
  -27.3950  -30.2490   21.7280 C   0  0  0  0  0  2  0  0  0  0  0  0
  -27.1060  -30.0690   23.2220 C   0  0  0  0  0  2  0  0  0  0  0  0
  -29.5430  -29.2970   23.4090 C   0  0  0  0  0  0  0  0  0  0  0  0
  -30.7040  -29.1150   24.1890 C   0  0  0  0  0  3  0  0  0  0  0  0
  -30.7150  -29.4490   25.5560 C   0  0  0  0  0  3  0  0  0  0  0  0
  -29.5490  -29.9480   26.1640 C   0  0  0  0  0  3  0  0  0  0  0  0
  -28.3800  -30.1230   25.4020 C   0  0  0  0  0  3  0  0  0  0  0  0
  -36.1340  -28.8920   21.0050 C   0  0  0  0  0  3  0  0  0  0  0  0
  -36.9010  -29.7710   21.8970 N   0  0  0  0  0  0  0  0  0  0  0  0
  -37.6530  -30.8020   21.4870 C   0  0  0  0  0  0  0  0  0  0  0  0
  -37.8340  -31.0630   20.2940 O   0  0  0  0  0  0  0  0  0  0  0  0
  -36.7560  -29.6460   22.8880 H   0  0  0  0  0  0  0  0  0  0  0  0
  -37.4930  -32.9590   22.7620 C   0  0  0  0  0  1  0  0  0  0  0  0
  -38.3130  -31.6750   22.5720 C   0  0  0  0  0  3  0  0  0  0  0  0
  -40.6240  -30.8770   22.3450 C   0  0  0  0  0  1  0  0  0  0  0  0
  -39.7190  -32.0210   22.2750 N   0  0  0  0  0  0  0  0  0  0  0  0
  -40.0590  -32.7330   22.9160 H   0  0  0  0  0  0  0  0  0  0  0  0
  -36.2270  -27.3910   21.4820 C   0  0  1  0  0  0  0  0  0  0  0  0
  -35.3850  -27.0860   22.7420 C   0  0  0  0  0  1  0  0  0  0  0  0
  -35.7770  -26.4350   20.3550 C   0  0  0  0  0  1  0  0  0  0  0  0
  -37.6990  -27.0330   21.7930 C   0  0  0  0  0  1  0  0  0  0  0  0
  -27.1420  -19.0520   16.5000 C   0  0  1  0  0  0  0  0  0  0  0  0
  -26.2490  -19.8740   15.9500 F   0  0  0  0  0  0  0  0  0  0  0  0
  -26.7580  -17.7950   16.2620 F   0  0  0  0  0  0  0  0  0  0  0  0
  -27.1430  -19.2450   17.8190 F   0  0  0  0  0  0  0  0  0  0  0  0
  -31.2420  -17.7280   13.9670 N   0  0  0  0  0  0  0  0  0  0  0  0
  -32.1410  -18.1140   13.6970 H   0  0  0  0  0  0  0  0  0  0  0  0
  -30.5570  -17.2760   12.7560 C   0  0  0  0  0  2  0  0  0  0  0  0
  -29.5010  -18.3010   12.3220 C   0  0  0  0  0  2  0  0  0  0  0  0
  -31.2460  -19.6300   11.1890 C   0  0  0  0  0  0  0  0  0  0  0  0
  -33.3930  -19.4970   10.0080 C   0  0  0  0  0  2  0  0  0  0  0  0
  -33.1230  -19.3130    8.5000 C   0  0  0  0  0  2  0  0  0  0  0  0
  -32.9530  -17.8220    8.1510 C   0  0  0  0  0  2  0  0  0  0  0  0
  -31.9740  -17.0850    9.1010 C   0  0  0  0  0  3  0  0  0  0  0  0
  -32.2960  -17.4100   10.5780 C   0  0  0  0  0  2  0  0  0  0  0  0
  -32.2800  -18.8760   10.7370 N   0  0  0  0  0  0  0  0  0  0  0  0
  -31.2810  -20.8560   11.2880 O   0  0  0  0  0  0  0  0  0  0  0  0
  -30.0550  -19.0310   11.1900 N   0  0  0  0  0  0  0  0  0  0  0  0
  -29.3620  -19.7160   10.9160 H   0  0  0  0  0  0  0  0  0  0  0  0
  -31.0040  -14.8610    8.2440 C   0  0  0  0  0  0  0  0  0  0  0  0
  -31.5250  -13.5950    8.1900 C   0  0  0  0  0  0  0  0  0  0  0  0
  -32.8240  -13.6760    8.7750 C   0  0  0  0  0  0  0  0  0  0  0  0
  -31.9770  -15.6450    8.8470 N   0  0  0  0  0  0  0  0  0  0  0  0
  -33.0580  -14.9080    9.2120 N   0  0  0  0  0  0  0  0  0  0  0  0
  -33.8820  -12.6640    8.8990 C   0  0  0  0  0  0  0  0  0  0  0  0
  -33.7360  -11.5490    9.7510 C   0  0  0  0  0  3  0  0  0  0  0  0
  -34.7590  -10.5790    9.8430 C   0  0  0  0  0  3  0  0  0  0  0  0
  -35.9370  -10.7150    9.0710 C   0  0  0  0  0  0  0  0  0  0  0  0
  -36.0850  -11.8370    8.2390 C   0  0  0  0  0  3  0  0  0  0  0  0
  -35.0700  -12.8050    8.1540 C   0  0  0  0  0  3  0  0  0  0  0  0
  -36.9930   -9.8360    9.1130 O   0  0  0  0  0  0  0  0  0  0  0  0
  -36.8730   -8.5440    8.6650 C   0  0  0  0  0  0  0  0  0  0  0  0
  -36.6250   -8.2460    7.3080 C   0  0  0  0  0  3  0  0  0  0  0  0
  -36.5810   -6.9030    6.8790 C   0  0  0  0  0  3  0  0  0  0  0  0
  -36.7920   -5.8590    7.8020 C   0  0  0  0  0  0  0  0  0  0  0  0
  -37.0460   -6.1550    9.1520 C   0  0  0  0  0  3  0  0  0  0  0  0
  -37.0910   -7.4940    9.5810 C   0  0  0  0  0  0  0  0  0  0  0  0
  -37.3570   -7.7730   10.8800 F   0  0  0  0  0  0  0  0  0  0  0  0
  -36.7530   -4.5710    7.3870 F   0  0  0  0  0  0  0  0  0  0  0  0
  -30.8910  -12.3950    7.5520 C   0  0  0  0  0  0  0  0  0  0  0  0
  -31.0130  -11.2260    8.1780 N   0  0  0  0  0  0  0  0  0  0  0  0
  -30.2480  -12.4920    6.5090 O   0  0  0  0  0  0  0  0  0  0  0  0
  -31.5240  -11.1500    9.0440 H   0  0  0  0  0  0  0  0  0  0  0  0
  -30.5790  -10.4030    7.7820 H   0  0  0  0  0  0  0  0  0  0  0  0
  -29.7960  -15.4130    7.8300 N   0  0  0  0  0  0  0  0  0  0  0  0
  -29.5390  -16.3830    7.9620 H   0  0  0  0  0  0  0  0  0  0  0  0
  -29.0430  -14.8440    7.4630 H   0  0  0  0  0  0  0  0  0  0  0  0
  2  4  1  0
  3  5  2  0
  4  1  2  0
  5  1  1  0
  5 56  1  0
  6  2  2  0
  6  3  1  0
  7 10  1  0
  7  9  1  0
  8 11  1  0
  9  4  1  0
  9 11  1  0
 10 14  1  0
 10  8  1  0
 11 13  1  0
 12 11  1  0
 14 15  1  0
 15 17  1  0
 16 27  2  0
 17 22  1  0
 18 28  1  0
 19 21  1  0
 19 25  1  0
 20 26  1  0
 21 20  1  0
 22 21  2  0
 23 17  2  0
 23 24  1  0
 24 19  2  0
 25 18  1  0
 26 18  1  0
 26 16  1  0
 28 29  1  0
 29 31  1  0
 30 28  2  0
 32 41  1  0
 33 29  1  0
 33 37  1  0
 34 35  1  0
 34 33  1  0
 35 36  1  0
 36 32  1  0
 37 32  2  0
 37 38  1  0
 38 39  2  0
 39 40  1  0
 41 40  2  0
 42 16  1  0
 42 52  1  0
 42 43  1  0
 43 46  1  0
 44 43  1  0
 44 48  1  0
 45 44  2  0
 48 47  1  0
 50 49  1  0
 50 48  1  0
 50 51  1  0
 52 55  1  1
 52 53  1  0
 54 52  1  0
 56 59  1  1
 57 56  1  0
 58 56  1  0
 60  6  1  0
 61 60  1  0
 62 60  1  0
 63 62  1  0
 64 72  1  0
 64 71  2  0
 65 70  1  0
 66 65  1  0
 67 66  1  0
 68 67  1  0
 68 69  1  0
 69 70  1  0
 70 64  1  0
 72 63  1  0
 73 72  1  0
 74 77  1  0
 75 74  2  0
 75 76  1  0
 76 79  1  0
 76 78  2  0
 77 68  1  0
 77 78  1  0
 79 80  1  0
 80 81  2  0
 82 85  1  0
 82 81  1  0
 83 82  2  0
 84 83  1  0
 84 79  2  0
 86 85  1  0
 86 91  1  0
 87 86  2  0
 88 87  1  0
 88 89  2  0
 89 90  1  0
 90 91  2  0
 91 92  1  0
 93 89  1  0
 94 95  1  0
 94 75  1  0
 95 97  1  0
 96 94  2  0
 98 95  1  0
 99100  1  0
 99 74  1  0
101 99  1  0
M  ISO  4  14 101  15 101  64 100  72 100
M  END
>  <TORSDO>  (17) 
F 22

>  <SCORE>  (17) 
0.929

>  <name>  (17) 
16

>  <ligand_id>  (17) 
16

>  <original_smiles>  (17) 
[H]c1c([H])c([H])c2c(c1[H])C([H])([H])C([H])([H])C([H])([H])C2([H])N([H])C(=O)C1([H])N(C(=O)C([H])(N([H])C(=O)C([H])(N([H])C([H])([H])[H])C([H])([H])[H])C(C([H])([H])[H])(C([H])([H])[H])C([H])([H])[H])C([H])([H])c2c([H])c(OC([H])([H])C3([H])C([H])([H])C([H])(c4c([H])c(N([H])C([H])([H])C([H])([H])N([H])C(=O)N5C([H])([H])C([H])([H])C([H])([H])C([H])(n6nc(-c7c([H])c([H])c(Oc8c([H])c([H])c(F)c([H])c8F)c([H])c7[H])c(C(=O)N([H])[H])c6N([H])[H])C5([H])[H])c([H])c(C(F)(F)F)c4[H])[N+]([H])([H])C3([H])[H])c([H])c([H])c2C1([H])[H]

>  <smiles>  (17) 
[H]c1c([H])c([H])c2c(c1[H])C([H])([H])C([H])([H])C([H])([H])C2([H])N([H])C(=O)C1([H])N(C(=O)C([H])(N([H])C(=O)C([H])(N([H])C([H])([H])[H])C([H])([H])[H])C(C([H])([H])[H])(C([H])([H])[H])C([H])([H])[H])C([H])([H])c2c([H])c(OC([H])([H])C3([H])C([H])([H])C([H])(c4c([H])c(N([H])C([H])([H])C([H])([H])N([H])C(=O)N5C([H])([H])C([H])([H])C([H])([H])C([H])(n6nc(-c7c([H])c([H])c(Oc8c([H])c([H])c(F)c([H])c8F)c([H])c7[H])c(C(=O)N([H])[H])c6N([H])[H])C5([H])[H])c([H])c(C(F)(F)F)c4[H])[N+]([H])([H])C3([H])[H])c([H])c([H])c2C1([H])[H]

$$$$
17:0:0
     RDKit          3D

 96104  0  0  1  0  0  0  0  0999 V2000
  -30.0340  -19.5400   22.0550 C   0  0  0  0  0  3  0  0  0  0  0  0
  -28.3750  -20.1570   20.3790 C   0  0  0  0  0  3  0  0  0  0  0  0
  -29.1290  -20.4830   21.5260 C   0  0  0  0  0  0  0  0  0  0  0  0
  -30.1840  -18.2720   21.4540 C   0  0  0  0  0  0  0  0  0  0  0  0
  -28.5310  -18.8980   19.7650 C   0  0  0  0  0  0  0  0  0  0  0  0
  -29.4320  -17.9530   20.3010 C   0  0  0  0  0  0  0  0  0  0  0  0
  -27.8070  -18.6000   18.6610 F   0  0  0  0  0  0  0  0  0  0  0  0
  -29.5700  -16.7420   19.7080 F   0  0  0  0  0  0  0  0  0  0  0  0
  -31.1410  -17.2630   22.0740 C   0  0  0  0  0  2  0  0  0  0  0  0
  -31.8360  -16.3460   21.0550 C   0  0  0  0  0  2  0  0  0  0  0  0
  -31.7250  -13.9540   20.3590 C   0  0  0  0  0  0  0  0  0  0  0  0
  -31.1550  -11.8100   19.2860 C   0  0  0  0  0  2  0  0  0  0  0  0
  -30.2580  -12.0790   18.0620 C   0  0  0  0  0  2  0  0  0  0  0  0
  -28.7760  -12.1520   18.4780 C   0  0  0  0  0  2  0  0  0  0  0  0
  -28.5380  -13.0870   19.6940 C   0  0  0  0  0  3  0  0  0  0  0  0
  -29.5440  -12.7800   20.8260 C   0  0  0  0  0  2  0  0  0  0  0  0
  -30.9030  -12.8770   20.2670 N   0  0  0  0  0  0  0  0  0  0  0  0
  -32.8360  -14.0020   19.8260 O   0  0  0  0  0  0  0  0  0  0  0  0
  -31.2070  -15.0240   20.9800 N   0  0  0  0  0  0  0  0  0  0  0  0
  -30.2790  -14.9310   21.3690 H   0  0  0  0  0  0  0  0  0  0  0  0
  -26.2450  -14.0240   20.3990 C   0  0  0  0  0  0  0  0  0  0  0  0
  -25.0770  -13.4090   20.7600 C   0  0  0  0  0  0  0  0  0  0  0  0
  -25.3400  -12.0060   20.7160 C   0  0  0  0  0  0  0  0  0  0  0  0
  -27.1560  -13.0060   20.1650 N   0  0  0  0  0  0  0  0  0  0  0  0
  -26.6120  -11.7860   20.4100 N   0  0  0  0  0  0  0  0  0  0  0  0
  -24.4410  -10.8580   20.8920 C   0  0  0  0  0  0  0  0  0  0  0  0
  -24.7570   -9.8000   21.7710 C   0  0  0  0  0  3  0  0  0  0  0  0
  -23.8670   -8.7160   21.9360 C   0  0  0  0  0  3  0  0  0  0  0  0
  -22.6460   -8.6860   21.2220 C   0  0  0  0  0  0  0  0  0  0  0  0
  -22.3470   -9.7310   20.3310 C   0  0  0  0  0  3  0  0  0  0  0  0
  -23.2350  -10.8060   20.1640 C   0  0  0  0  0  3  0  0  0  0  0  0
  -21.7330   -7.6620   21.3000 O   0  0  0  0  0  0  0  0  0  0  0  0
  -21.6200   -6.8820   22.4250 C   0  0  0  0  0  0  0  0  0  0  0  0
  -21.3620   -7.4400   23.6960 C   0  0  0  0  0  3  0  0  0  0  0  0
  -21.1840   -6.5970   24.8110 C   0  0  0  0  0  3  0  0  0  0  0  0
  -21.2530   -5.2000   24.6580 C   0  0  0  0  0  0  0  0  0  0  0  0
  -21.5020   -4.6430   23.3920 C   0  0  0  0  0  3  0  0  0  0  0  0
  -21.6830   -5.4810   22.2780 C   0  0  0  0  0  0  0  0  0  0  0  0
  -21.9030   -4.9380   21.0560 F   0  0  0  0  0  0  0  0  0  0  0  0
  -21.0730   -4.3910   25.7270 F   0  0  0  0  0  0  0  0  0  0  0  0
  -23.7610  -14.0790   21.0360 C   0  0  0  0  0  0  0  0  0  0  0  0
  -22.9520  -13.5010   21.9180 N   0  0  0  0  0  0  0  0  0  0  0  0
  -23.4620  -15.1480   20.5050 O   0  0  0  0  0  0  0  0  0  0  0  0
  -23.2040  -12.6350   22.3720 H   0  0  0  0  0  0  0  0  0  0  0  0
  -22.0670  -13.9310   22.1430 H   0  0  0  0  0  0  0  0  0  0  0  0
  -26.6040  -15.3590   20.2320 N   0  0  0  0  0  0  0  0  0  0  0  0
  -25.9530  -16.1190   20.3880 H   0  0  0  0  0  0  0  0  0  0  0  0
  -27.5290  -15.6750   19.9740 H   0  0  0  0  0  0  0  0  0  0  0  0
  -28.9830  -21.8410   22.1930 C   0  0  0  0  0  2  0  0  0  0  0  0
  -29.5430  -22.8920   21.3250 N   0  0  0  0  0  4  0  0  0  0  0  0
  -30.4600  -22.5920   21.0410 H   0  0  0  0  0  0  0  0  0  0  0  0
  -28.9720  -22.9590   20.4980 H   0  0  0  0  0  0  0  0  0  0  0  0
  -29.6450  -24.2250   21.9550 C   0  0  0  0  0  2  0  0  0  0  0  0
  -29.7610  -25.3440   20.9040 C   0  0  0  0  0  2  0  0  0  0  0  0
  -29.9050  -26.7360   21.5400 C   0  0  0  0  0  2  0  0  0  0  0  0
  -29.7180  -27.7370   20.5430 O   0  0  0  0  0  0  0  0  0  0  0  0
  -24.6940  -31.8460   23.4530 C   0  0  0  0  0  0  0  0  0  0  0  0
  -28.4370  -28.2220   20.4790 C   0  0  0  0  0  0  0  0  0  0  0  0
  -23.9490  -30.3450   21.6300 C   0  0  0  0  0  3  0  0  0  0  0  0
  -25.8050  -29.2070   20.3040 C   0  0  0  0  0  0  0  0  0  0  0  0
  -26.3530  -31.1980   21.7160 C   0  0  0  0  0  2  0  0  0  0  0  0
  -26.7690  -29.9130   21.0360 C   0  0  0  0  0  0  0  0  0  0  0  0
  -28.0880  -29.4230   21.1300 C   0  0  0  0  0  3  0  0  0  0  0  0
  -27.4670  -27.5220   19.7360 C   0  0  0  0  0  3  0  0  0  0  0  0
  -26.1460  -28.0030   19.6560 C   0  0  0  0  0  3  0  0  0  0  0  0
  -24.4170  -29.8060   20.2510 C   0  0  0  0  0  2  0  0  0  0  0  0
  -25.0070  -31.1430   22.3280 N   0  0  0  0  0  0  0  0  0  0  0  0
  -23.5350  -31.8750   23.8890 O   0  0  0  0  0  0  0  0  0  0  0  0
  -23.4240  -29.1600   22.4720 C   0  0  0  0  0  0  0  0  0  0  0  0
  -22.1810  -28.7330   22.1890 N   0  0  0  0  0  0  0  0  0  0  0  0
  -24.1330  -28.6340   23.3320 O   0  0  0  0  0  0  0  0  0  0  0  0
  -21.6620  -29.2280   21.4780 H   0  0  0  0  0  0  0  0  0  0  0  0
  -19.0830  -26.8790   22.2410 C   0  0  0  0  0  0  0  0  0  0  0  0
  -21.4930  -27.6080   22.8210 C   0  0  0  0  0  3  0  0  0  0  0  0
  -21.9410  -26.2630   22.2030 C   0  0  0  0  0  2  0  0  0  0  0  0
  -21.0400  -25.7960   21.0570 C   0  0  0  0  0  2  0  0  0  0  0  0
  -19.5960  -25.6320   21.5410 C   0  0  0  0  0  2  0  0  0  0  0  0
  -19.9740  -27.8140   22.8270 C   0  0  0  0  0  0  0  0  0  0  0  0
  -19.4490  -28.9740   23.4360 C   0  0  0  0  0  3  0  0  0  0  0  0
  -18.0610  -29.2040   23.4700 C   0  0  0  0  0  3  0  0  0  0  0  0
  -17.1800  -28.2660   22.9050 C   0  0  0  0  0  3  0  0  0  0  0  0
  -17.6910  -27.1060   22.2940 C   0  0  0  0  0  3  0  0  0  0  0  0
  -25.7720  -32.6660   24.2310 C   0  0  0  0  0  3  0  0  0  0  0  0
  -25.2750  -34.0420   24.3520 N   0  0  0  0  0  0  0  0  0  0  0  0
  -25.6250  -35.0500   23.5420 C   0  0  0  0  0  0  0  0  0  0  0  0
  -26.4660  -34.9290   22.6460 O   0  0  0  0  0  0  0  0  0  0  0  0
  -24.5400  -34.2010   25.0260 H   0  0  0  0  0  0  0  0  0  0  0  0
  -23.7890  -36.5710   22.7450 C   0  0  0  0  0  1  0  0  0  0  0  0
  -24.9330  -36.4080   23.7590 C   0  0  0  0  0  3  0  0  0  0  0  0
  -26.8280  -37.6130   24.7470 C   0  0  0  0  0  1  0  0  0  0  0  0
  -25.8530  -37.5610   23.6620 N   0  0  0  0  0  0  0  0  0  0  0  0
  -25.3340  -38.4360   23.6630 H   0  0  0  0  0  0  0  0  0  0  0  0
  -26.1090  -32.0640   25.6490 C   0  0  1  0  0  0  0  0  0  0  0  0
  -24.8600  -31.7720   26.5120 C   0  0  0  0  0  1  0  0  0  0  0  0
  -26.9060  -30.7430   25.5050 C   0  0  0  0  0  1  0  0  0  0  0  0
  -27.0140  -33.0420   26.4340 C   0  0  0  0  0  1  0  0  0  0  0  0
  2  3  2  0
  3  1  1  0
  3 49  1  0
  4  1  2  0
  4  9  1  0
  5  6  2  0
  5  2  1  0
  6  4  1  0
  7  5  1  0
  8  6  1  0
 10  9  1  0
 11 19  1  0
 12 17  1  0
 13 14  1  0
 13 12  1  0
 15 14  1  0
 15 24  1  0
 15 16  1  0
 17 11  1  0
 17 16  1  0
 18 11  2  0
 19 10  1  0
 19 20  1  0
 21 22  2  0
 22 41  1  0
 23 22  1  0
 23 26  1  0
 24 21  1  0
 24 25  1  0
 25 23  2  0
 26 27  1  0
 27 28  2  0
 29 32  1  0
 29 28  1  0
 30 29  2  0
 31 30  1  0
 31 26  2  0
 32 33  1  0
 33 34  1  0
 34 35  2  0
 36 35  1  0
 36 40  1  0
 37 36  2  0
 38 33  2  0
 38 37  1  0
 39 38  1  0
 41 42  1  0
 42 45  1  0
 42 44  1  0
 43 41  2  0
 46 47  1  0
 46 21  1  0
 48 46  1  0
 50 53  1  0
 50 49  1  0
 51 50  1  0
 52 50  1  0
 54 55  1  0
 54 53  1  0
 56 55  1  0
 57 68  2  0
 58 56  1  0
 58 63  1  0
 59 67  1  0
 59 69  1  0
 60 62  1  0
 61 67  1  0
 62 63  2  0
 62 61  1  0
 64 58  2  0
 65 64  1  0
 65 60  2  0
 66 60  1  0
 66 59  1  0
 67 57  1  0
 69 71  2  0
 70 69  1  0
 72 70  1  0
 73 82  2  0
 73 78  1  0
 74 70  1  0
 74 78  1  0
 75 74  1  0
 76 77  1  0
 76 75  1  0
 77 73  1  0
 78 79  2  0
 79 80  1  0
 81 80  2  0
 82 81  1  0
 83 57  1  0
 83 84  1  0
 83 93  1  0
 84 87  1  0
 85 89  1  0
 85 84  1  0
 86 85  2  0
 89 88  1  0
 91 92  1  0
 91 89  1  0
 91 90  1  0
 93 96  1  1
 93 94  1  0
 95 93  1  0
M  ISO  4  11 100  19 100  55 101  56 101
M  END
>  <TORSDO>  (18) 
F 23

>  <SCORE>  (18) 
-9.851

>  <name>  (18) 
17

>  <ligand_id>  (18) 
17

>  <original_smiles>  (18) 
[H]c1c([H])c([H])c2c(c1[H])C([H])([H])C([H])([H])C([H])([H])C2([H])N([H])C(=O)C1([H])N(C(=O)C([H])(N([H])C(=O)C([H])(N([H])C([H])([H])[H])C([H])([H])[H])C(C([H])([H])[H])(C([H])([H])[H])C([H])([H])[H])C([H])([H])c2c([H])c(OC([H])([H])C([H])([H])C([H])([H])[N+]([H])([H])C([H])([H])c3c([H])c(F)c(F)c(C([H])([H])C([H])([H])N([H])C(=O)N4C([H])([H])C([H])([H])C([H])([H])C([H])(n5nc(-c6c([H])c([H])c(Oc7c([H])c([H])c(F)c([H])c7F)c([H])c6[H])c(C(=O)N([H])[H])c5N([H])[H])C4([H])[H])c3[H])c([H])c([H])c2C1([H])[H]

>  <smiles>  (18) 
[H]c1c([H])c([H])c2c(c1[H])C([H])([H])C([H])([H])C([H])([H])C2([H])N([H])C(=O)C1([H])N(C(=O)C([H])(N([H])C(=O)C([H])(N([H])C([H])([H])[H])C([H])([H])[H])C(C([H])([H])[H])(C([H])([H])[H])C([H])([H])[H])C([H])([H])c2c([H])c(OC([H])([H])C([H])([H])C([H])([H])[N+]([H])([H])C([H])([H])c3c([H])c(F)c(F)c(C([H])([H])C([H])([H])N([H])C(=O)N4C([H])([H])C([H])([H])C([H])([H])C([H])(n5nc(-c6c([H])c([H])c(Oc7c([H])c([H])c(F)c([H])c7F)c([H])c6[H])c(C(=O)N([H])[H])c5N([H])[H])C4([H])[H])c3[H])c([H])c([H])c2C1([H])[H]

$$$$
18:0:0
     RDKit          3D

 94102  0  0  1  0  0  0  0  0999 V2000
  -29.6820  -18.8670   21.6370 C   0  0  0  0  0  2  0  0  0  0  0  0
  -30.9340  -19.3790   23.6210 C   0  0  0  0  0  2  0  0  0  0  0  0
  -30.1620  -17.5410   22.2890 C   0  0  0  0  0  3  0  0  0  0  0  0
  -30.5410  -19.9790   22.2660 C   0  0  0  0  0  3  0  0  0  0  0  0
  -31.0520  -17.9290   23.3970 N   0  0  0  0  0  4  0  0  0  0  0  0
  -30.8910  -17.3890   24.2300 H   0  0  0  0  0  0  0  0  0  0  0  0
  -31.9840  -17.7240   23.0610 H   0  0  0  0  0  0  0  0  0  0  0  0
  -31.0660  -14.5550   20.1750 C   0  0  0  0  0  0  0  0  0  0  0  0
  -30.6060  -12.4910   18.8970 C   0  0  0  0  0  2  0  0  0  0  0  0
  -29.5990  -12.7800   17.7660 C   0  0  0  0  0  2  0  0  0  0  0  0
  -28.1520  -12.6530   18.2810 C   0  0  0  0  0  2  0  0  0  0  0  0
  -27.9160  -13.4330   19.6020 C   0  0  0  0  0  3  0  0  0  0  0  0
  -29.0280  -13.1270   20.6300 C   0  0  0  0  0  2  0  0  0  0  0  0
  -30.3270  -13.4240   20.0010 N   0  0  0  0  0  0  0  0  0  0  0  0
  -32.1140  -14.7480   19.5500 O   0  0  0  0  0  0  0  0  0  0  0  0
  -31.0150  -16.6710   21.3600 C   0  0  0  0  0  0  0  0  0  0  0  0
  -30.5280  -15.4610   21.0160 N   0  0  0  0  0  0  0  0  0  0  0  0
  -32.1220  -17.1120   21.0300 O   0  0  0  0  0  0  0  0  0  0  0  0
  -29.6380  -15.1980   21.4060 H   0  0  0  0  0  0  0  0  0  0  0  0
  -25.5730  -14.0560   20.4710 C   0  0  0  0  0  0  0  0  0  0  0  0
  -24.5130  -13.2880   20.8750 C   0  0  0  0  0  0  0  0  0  0  0  0
  -24.9450  -11.9310   20.7660 C   0  0  0  0  0  0  0  0  0  0  0  0
  -26.5850  -13.1650   20.1480 N   0  0  0  0  0  0  0  0  0  0  0  0
  -26.2140  -11.8800   20.3810 N   0  0  0  0  0  0  0  0  0  0  0  0
  -24.2070  -10.6750   20.9530 C   0  0  0  0  0  0  0  0  0  0  0  0
  -24.6380   -9.6950   21.8750 C   0  0  0  0  0  3  0  0  0  0  0  0
  -23.9020   -8.5030   22.0490 C   0  0  0  0  0  3  0  0  0  0  0  0
  -22.7210   -8.2830   21.3020 C   0  0  0  0  0  0  0  0  0  0  0  0
  -22.3080   -9.2510   20.3690 C   0  0  0  0  0  3  0  0  0  0  0  0
  -23.0460  -10.4340   20.1930 C   0  0  0  0  0  3  0  0  0  0  0  0
  -21.9560   -7.1440   21.3860 O   0  0  0  0  0  0  0  0  0  0  0  0
  -21.8570   -6.4280   22.5510 C   0  0  0  0  0  0  0  0  0  0  0  0
  -21.3800   -7.0120   23.7460 C   0  0  0  0  0  3  0  0  0  0  0  0
  -21.2290   -6.2220   24.9030 C   0  0  0  0  0  3  0  0  0  0  0  0
  -21.5440   -4.8500   24.8670 C   0  0  0  0  0  0  0  0  0  0  0  0
  -22.0130   -4.2670   23.6770 C   0  0  0  0  0  3  0  0  0  0  0  0
  -22.1660   -5.0540   22.5220 C   0  0  0  0  0  0  0  0  0  0  0  0
  -22.5990   -4.4820   21.3730 F   0  0  0  0  0  0  0  0  0  0  0  0
  -21.3910   -4.0900   25.9760 F   0  0  0  0  0  0  0  0  0  0  0  0
  -23.1440  -13.7780   21.2490 C   0  0  0  0  0  0  0  0  0  0  0  0
  -22.4590  -13.0670   22.1380 N   0  0  0  0  0  0  0  0  0  0  0  0
  -22.6920  -14.8270   20.7890 O   0  0  0  0  0  0  0  0  0  0  0  0
  -22.8390  -12.2180   22.5310 H   0  0  0  0  0  0  0  0  0  0  0  0
  -21.5440  -13.3760   22.4310 H   0  0  0  0  0  0  0  0  0  0  0  0
  -25.7560  -15.4290   20.3330 N   0  0  0  0  0  0  0  0  0  0  0  0
  -25.0050  -16.0910   20.4980 H   0  0  0  0  0  0  0  0  0  0  0  0
  -26.5820  -15.8580   19.9370 H   0  0  0  0  0  0  0  0  0  0  0  0
  -29.8040  -21.2240   22.4770 N   0  0  0  0  0  0  0  0  0  0  0  0
  -30.3040  -21.7690   23.1770 H   0  0  0  0  0  0  0  0  0  0  0  0
  -29.7060  -22.0460   21.2750 C   0  0  0  0  0  2  0  0  0  0  0  0
  -29.1440  -23.4210   21.6840 C   0  0  0  0  0  2  0  0  0  0  0  0
  -29.0640  -24.4510   20.5410 C   0  0  0  0  0  2  0  0  0  0  0  0
  -28.5280  -25.8070   21.0370 C   0  0  0  0  0  2  0  0  0  0  0  0
  -28.4850  -26.7730   19.9840 O   0  0  0  0  0  0  0  0  0  0  0  0
  -24.6260  -31.8280   23.1640 C   0  0  0  0  0  0  0  0  0  0  0  0
  -27.3270  -27.5090   19.9920 C   0  0  0  0  0  0  0  0  0  0  0  0
  -23.4380  -30.4450   21.4930 C   0  0  0  0  0  3  0  0  0  0  0  0
  -24.9120  -28.9580   20.0360 C   0  0  0  0  0  0  0  0  0  0  0  0
  -25.9560  -30.8480   21.3010 C   0  0  0  0  0  2  0  0  0  0  0  0
  -26.0600  -29.4940   20.6340 C   0  0  0  0  0  0  0  0  0  0  0  0
  -27.2750  -28.7740   20.6120 C   0  0  0  0  0  3  0  0  0  0  0  0
  -26.1700  -26.9790   19.3910 C   0  0  0  0  0  3  0  0  0  0  0  0
  -24.9590  -27.6980   19.4130 C   0  0  0  0  0  3  0  0  0  0  0  0
  -23.6530  -29.7950   20.1010 C   0  0  0  0  0  2  0  0  0  0  0  0
  -24.6910  -31.0530   22.0450 N   0  0  0  0  0  0  0  0  0  0  0  0
  -23.5420  -32.0750   23.7120 O   0  0  0  0  0  0  0  0  0  0  0  0
  -22.8010  -29.3960   22.4330 C   0  0  0  0  0  0  0  0  0  0  0  0
  -21.4810  -29.1930   22.2970 N   0  0  0  0  0  0  0  0  0  0  0  0
  -23.4920  -28.7670   23.2400 O   0  0  0  0  0  0  0  0  0  0  0  0
  -20.9840  -29.7520   21.6160 H   0  0  0  0  0  0  0  0  0  0  0  0
  -18.1280  -27.9230   22.7380 C   0  0  0  0  0  0  0  0  0  0  0  0
  -20.6760  -28.2290   23.0460 C   0  0  0  0  0  3  0  0  0  0  0  0
  -20.8160  -26.8080   22.4530 C   0  0  0  0  0  2  0  0  0  0  0  0
  -19.7350  -26.4760   21.4200 C   0  0  0  0  0  2  0  0  0  0  0  0
  -18.3410  -26.5860   22.0470 C   0  0  0  0  0  2  0  0  0  0  0  0
  -19.2250  -28.7020   23.1920 C   0  0  0  0  0  0  0  0  0  0  0  0
  -18.9740  -29.9540   23.7940 C   0  0  0  0  0  3  0  0  0  0  0  0
  -17.6570  -30.4280   23.9480 C   0  0  0  0  0  3  0  0  0  0  0  0
  -16.5740  -29.6450   23.5120 C   0  0  0  0  0  3  0  0  0  0  0  0
  -16.8100  -28.3950   22.9130 C   0  0  0  0  0  3  0  0  0  0  0  0
  -25.9060  -32.4620   23.7950 C   0  0  0  0  0  3  0  0  0  0  0  0
  -25.5850  -33.8540   24.1370 N   0  0  0  0  0  0  0  0  0  0  0  0
  -25.9180  -34.9160   23.3900 C   0  0  0  0  0  0  0  0  0  0  0  0
  -26.5970  -34.8270   22.3630 O   0  0  0  0  0  0  0  0  0  0  0  0
  -24.9840  -33.9990   24.9350 H   0  0  0  0  0  0  0  0  0  0  0  0
  -24.1840  -36.7020   23.0320 C   0  0  0  0  0  1  0  0  0  0  0  0
  -25.4180  -36.2970   23.8560 C   0  0  0  0  0  3  0  0  0  0  0  0
  -27.5360  -37.1840   24.7220 C   0  0  0  0  0  1  0  0  0  0  0  0
  -26.4450  -37.3570   23.7670 N   0  0  0  0  0  0  0  0  0  0  0  0
  -26.0310  -38.2730   23.9190 H   0  0  0  0  0  0  0  0  0  0  0  0
  -26.4250  -31.6810   25.0650 C   0  0  1  0  0  0  0  0  0  0  0  0
  -25.3300  -31.4230   26.1250 C   0  0  0  0  0  1  0  0  0  0  0  0
  -27.0190  -30.3130   24.6560 C   0  0  0  0  0  1  0  0  0  0  0  0
  -27.5690  -32.4760   25.7380 C   0  0  0  0  0  1  0  0  0  0  0  0
  1  4  1  0
  1  3  1  0
  3 16  1  0
  3  5  1  0
  4 48  1  0
  4  2  1  0
  5  2  1  0
  5  6  1  0
  7  5  1  0
  8 17  1  0
  9 14  1  0
 10 11  1  0
 10  9  1  0
 12 11  1  0
 12 23  1  0
 12 13  1  0
 14  8  1  0
 14 13  1  0
 15  8  2  0
 17 16  1  0
 17 19  1  0
 18 16  2  0
 20 21  2  0
 21 40  1  0
 22 21  1  0
 22 25  1  0
 23 24  1  0
 23 20  1  0
 24 22  2  0
 25 26  1  0
 26 27  2  0
 28 31  1  0
 28 27  1  0
 29 28  2  0
 30 29  1  0
 30 25  2  0
 31 32  1  0
 32 33  1  0
 33 34  2  0
 35 34  1  0
 35 39  1  0
 36 35  2  0
 37 32  2  0
 37 36  1  0
 38 37  1  0
 40 41  1  0
 41 44  1  0
 41 43  1  0
 42 40  2  0
 45 20  1  0
 45 46  1  0
 47 45  1  0
 48 49  1  0
 50 51  1  0
 50 48  1  0
 52 53  1  0
 52 51  1  0
 54 56  1  0
 54 53  1  0
 55 66  2  0
 56 61  1  0
 57 65  1  0
 57 67  1  0
 58 64  1  0
 58 60  1  0
 59 65  1  0
 60 59  1  0
 61 60  2  0
 62 63  1  0
 62 56  2  0
 63 58  2  0
 64 57  1  0
 65 55  1  0
 67 69  2  0
 68 67  1  0
 70 68  1  0
 71 80  2  0
 71 76  1  0
 72 68  1  0
 72 76  1  0
 73 72  1  0
 74 75  1  0
 74 73  1  0
 75 71  1  0
 76 77  2  0
 77 78  1  0
 79 78  2  0
 80 79  1  0
 81 55  1  0
 81 82  1  0
 81 91  1  0
 82 85  1  0
 83 87  1  0
 83 82  1  0
 84 83  2  0
 87 86  1  0
 89 87  1  0
 89 90  1  0
 89 88  1  0
 91 94  1  1
 91 92  1  0
 93 91  1  0
M  ISO  4   8 100  17 100  53 101  54 101
M  END
>  <TORSDO>  (19) 
F 21

>  <SCORE>  (19) 
-12.380

>  <name>  (19) 
18

>  <ligand_id>  (19) 
18

>  <original_smiles>  (19) 
[H]c1c([H])c([H])c2c(c1[H])C([H])([H])C([H])([H])C([H])([H])C2([H])N([H])C(=O)C1([H])N(C(=O)C([H])(N([H])C(=O)C([H])(N([H])C([H])([H])[H])C([H])([H])[H])C(C([H])([H])[H])(C([H])([H])[H])C([H])([H])[H])C([H])([H])c2c([H])c(OC([H])([H])C([H])([H])C([H])([H])C([H])([H])N([H])C3([H])C([H])([H])C([H])(C(=O)N([H])C(=O)N4C([H])([H])C([H])([H])C([H])([H])C([H])(n5nc(-c6c([H])c([H])c(Oc7c([H])c([H])c(F)c([H])c7F)c([H])c6[H])c(C(=O)N([H])[H])c5N([H])[H])C4([H])[H])[N+]([H])([H])C3([H])[H])c([H])c([H])c2C1([H])[H]

>  <smiles>  (19) 
[H]c1c([H])c([H])c2c(c1[H])C([H])([H])C([H])([H])C([H])([H])C2([H])N([H])C(=O)C1([H])N(C(=O)C([H])(N([H])C(=O)C([H])(N([H])C([H])([H])[H])C([H])([H])[H])C(C([H])([H])[H])(C([H])([H])[H])C([H])([H])[H])C([H])([H])c2c([H])c(OC([H])([H])C([H])([H])C([H])([H])C([H])([H])N([H])C3([H])C([H])([H])C([H])(C(=O)N([H])C(=O)N4C([H])([H])C([H])([H])C([H])([H])C([H])(n5nc(-c6c([H])c([H])c(Oc7c([H])c([H])c(F)c([H])c7F)c([H])c6[H])c(C(=O)N([H])[H])c5N([H])[H])C4([H])[H])[N+]([H])([H])C3([H])[H])c([H])c([H])c2C1([H])[H]

$$$$
19:0:0
     RDKit          3D

 94102  0  0  1  0  0  0  0  0999 V2000
  -29.9600  -19.6870   19.6050 C   0  0  0  0  0  2  0  0  0  0  0  0
  -29.4810  -20.3580   21.8020 C   0  0  0  0  0  2  0  0  0  0  0  0
  -29.9100  -18.3710   20.4570 C   0  0  0  0  0  3  0  0  0  0  0  0
  -30.0920  -18.9620   21.8610 C   0  0  0  0  0  3  0  0  0  0  0  0
  -29.8250  -20.8750   20.4800 N   0  0  0  0  0  0  0  0  0  0  0  0
  -31.5210  -19.0880   22.1910 N   0  0  0  0  0  4  0  0  0  0  0  0
  -31.9720  -19.5790   21.4370 H   0  0  0  0  0  0  0  0  0  0  0  0
  -31.9310  -18.1770   22.2730 H   0  0  0  0  0  0  0  0  0  0  0  0
  -31.6480  -19.6170   23.0360 H   0  0  0  0  0  0  0  0  0  0  0  0
  -30.9340  -17.2160   20.0350 C   0  0  0  0  0  2  0  0  0  0  0  0
  -31.2670  -14.6900   19.8090 C   0  0  0  0  0  0  0  0  0  0  0  0
  -30.9560  -12.4350   18.8330 C   0  0  0  0  0  2  0  0  0  0  0  0
  -29.9070  -12.4940   17.6950 C   0  0  0  0  0  2  0  0  0  0  0  0
  -28.4720  -12.3840   18.2410 C   0  0  0  0  0  2  0  0  0  0  0  0
  -28.2420  -13.3090   19.4610 C   0  0  0  0  0  3  0  0  0  0  0  0
  -29.3620  -13.1730   20.5070 C   0  0  0  0  0  2  0  0  0  0  0  0
  -30.6260  -13.4830   19.8210 N   0  0  0  0  0  0  0  0  0  0  0  0
  -32.3690  -14.8240   19.2640 O   0  0  0  0  0  0  0  0  0  0  0  0
  -30.5580  -15.7770   20.2510 N   0  0  0  0  0  0  0  0  0  0  0  0
  -29.6750  -15.5730   20.7030 H   0  0  0  0  0  0  0  0  0  0  0  0
  -26.0090  -14.0360   20.4960 C   0  0  0  0  0  0  0  0  0  0  0  0
  -24.9320  -13.3210   20.9180 C   0  0  0  0  0  0  0  0  0  0  0  0
  -25.2710  -11.9430   20.7260 C   0  0  0  0  0  0  0  0  0  0  0  0
  -26.9370  -13.1040   20.0680 N   0  0  0  0  0  0  0  0  0  0  0  0
  -26.5080  -11.8330   20.2700 N   0  0  0  0  0  0  0  0  0  0  0  0
  -24.4720  -10.7300   20.8950 C   0  0  0  0  0  0  0  0  0  0  0  0
  -24.8630   -9.7100   21.7910 C   0  0  0  0  0  3  0  0  0  0  0  0
  -24.0700   -8.5550   21.9430 C   0  0  0  0  0  3  0  0  0  0  0  0
  -22.8730   -8.4110   21.2000 C   0  0  0  0  0  0  0  0  0  0  0  0
  -22.5080   -9.4180   20.2880 C   0  0  0  0  0  3  0  0  0  0  0  0
  -23.3000  -10.5660   20.1320 C   0  0  0  0  0  3  0  0  0  0  0  0
  -22.0510   -7.3130   21.2650 O   0  0  0  0  0  0  0  0  0  0  0  0
  -21.8850   -6.6070   22.4290 C   0  0  0  0  0  0  0  0  0  0  0  0
  -21.3700   -7.2100   23.5970 C   0  0  0  0  0  3  0  0  0  0  0  0
  -21.1470   -6.4310   24.7500 C   0  0  0  0  0  3  0  0  0  0  0  0
  -21.4280   -5.0520   24.7340 C   0  0  0  0  0  0  0  0  0  0  0  0
  -21.9340   -4.4500   23.5690 C   0  0  0  0  0  3  0  0  0  0  0  0
  -22.1580   -5.2260   22.4190 C   0  0  0  0  0  0  0  0  0  0  0  0
  -22.6260   -4.6380   21.2920 F   0  0  0  0  0  0  0  0  0  0  0  0
  -21.2060   -4.3010   25.8390 F   0  0  0  0  0  0  0  0  0  0  0  0
  -23.6120  -13.8700   21.3800 C   0  0  0  0  0  0  0  0  0  0  0  0
  -22.9400  -13.1640   22.2750 N   0  0  0  0  0  0  0  0  0  0  0  0
  -23.2010  -14.9640   20.9830 O   0  0  0  0  0  0  0  0  0  0  0  0
  -23.2920  -12.2770   22.6120 H   0  0  0  0  0  0  0  0  0  0  0  0
  -22.0530  -13.4990   22.6230 H   0  0  0  0  0  0  0  0  0  0  0  0
  -26.2700  -15.4060   20.4130 N   0  0  0  0  0  0  0  0  0  0  0  0
  -25.5610  -16.0860   20.6650 H   0  0  0  0  0  0  0  0  0  0  0  0
  -27.0750  -15.8200   19.9690 H   0  0  0  0  0  0  0  0  0  0  0  0
  -28.7820  -21.8570   20.1060 C   0  0  0  0  0  2  0  0  0  0  0  0
  -29.2750  -23.0640   19.2740 C   0  0  0  0  0  2  0  0  0  0  0  0
  -29.1730  -24.4200   20.0330 C   0  0  0  0  0  3  0  0  0  0  0  0
  -30.2810  -24.5720   20.7620 F   0  0  0  0  0  0  0  0  0  0  0  0
  -28.9760  -25.6710   19.1430 C   0  0  0  0  0  2  0  0  0  0  0  0
  -28.7310  -26.9050   19.8530 O   0  0  0  0  0  0  0  0  0  0  0  0
  -24.6420  -31.7160   23.0980 C   0  0  0  0  0  0  0  0  0  0  0  0
  -27.5000  -27.5480   19.8270 C   0  0  0  0  0  0  0  0  0  0  0  0
  -23.4940  -30.3290   21.3960 C   0  0  0  0  0  3  0  0  0  0  0  0
  -25.0330  -28.9480   19.8890 C   0  0  0  0  0  0  0  0  0  0  0  0
  -26.0090  -30.8250   21.2260 C   0  0  0  0  0  2  0  0  0  0  0  0
  -26.1660  -29.5030   20.5030 C   0  0  0  0  0  0  0  0  0  0  0  0
  -27.4000  -28.8090   20.4640 C   0  0  0  0  0  3  0  0  0  0  0  0
  -26.3380  -27.0020   19.2320 C   0  0  0  0  0  3  0  0  0  0  0  0
  -25.1190  -27.7090   19.2420 C   0  0  0  0  0  3  0  0  0  0  0  0
  -23.7290  -29.7130   19.9930 C   0  0  0  0  0  2  0  0  0  0  0  0
  -24.7300  -30.9670   21.9620 N   0  0  0  0  0  0  0  0  0  0  0  0
  -23.5520  -31.9100   23.6500 O   0  0  0  0  0  0  0  0  0  0  0  0
  -22.9100  -29.2300   22.3120 C   0  0  0  0  0  0  0  0  0  0  0  0
  -21.6070  -28.9580   22.1490 N   0  0  0  0  0  0  0  0  0  0  0  0
  -23.6190  -28.6210   23.1120 O   0  0  0  0  0  0  0  0  0  0  0  0
  -21.0970  -29.4500   21.4300 H   0  0  0  0  0  0  0  0  0  0  0  0
  -18.2890  -27.6220   22.6090 C   0  0  0  0  0  0  0  0  0  0  0  0
  -20.8360  -27.9630   22.9000 C   0  0  0  0  0  3  0  0  0  0  0  0
  -20.9910  -26.5680   22.2630 C   0  0  0  0  0  2  0  0  0  0  0  0
  -19.9200  -26.2730   21.2130 C   0  0  0  0  0  2  0  0  0  0  0  0
  -18.5270  -26.3260   21.8470 C   0  0  0  0  0  2  0  0  0  0  0  0
  -19.3800  -28.4050   23.0700 C   0  0  0  0  0  0  0  0  0  0  0  0
  -19.1070  -29.6340   23.7080 C   0  0  0  0  0  3  0  0  0  0  0  0
  -17.7840  -30.0730   23.8980 C   0  0  0  0  0  3  0  0  0  0  0  0
  -16.7090  -29.2780   23.4710 C   0  0  0  0  0  3  0  0  0  0  0  0
  -16.9630  -28.0490   22.8310 C   0  0  0  0  0  3  0  0  0  0  0  0
  -25.8960  -32.3740   23.7470 C   0  0  0  0  0  3  0  0  0  0  0  0
  -25.5360  -33.7520   24.1070 N   0  0  0  0  0  0  0  0  0  0  0  0
  -25.8370  -34.8310   23.3770 C   0  0  0  0  0  0  0  0  0  0  0  0
  -26.5290  -34.7770   22.3550 O   0  0  0  0  0  0  0  0  0  0  0  0
  -24.9190  -33.8680   24.8990 H   0  0  0  0  0  0  0  0  0  0  0  0
  -24.0400  -36.5490   23.0590 C   0  0  0  0  0  1  0  0  0  0  0  0
  -25.2950  -36.1870   23.8670 C   0  0  0  0  0  3  0  0  0  0  0  0
  -27.3830  -37.1440   24.7260 C   0  0  0  0  0  1  0  0  0  0  0  0
  -26.2800  -37.2850   23.7760 N   0  0  0  0  0  0  0  0  0  0  0  0
  -25.8360  -38.1860   23.9330 H   0  0  0  0  0  0  0  0  0  0  0  0
  -26.4370  -31.5870   25.0060 C   0  0  1  0  0  0  0  0  0  0  0  0
  -25.3330  -31.2360   26.0300 C   0  0  0  0  0  1  0  0  0  0  0  0
  -27.1280  -30.2680   24.5860 C   0  0  0  0  0  1  0  0  0  0  0  0
  -27.5150  -32.4300   25.7230 C   0  0  0  0  0  1  0  0  0  0  0  0
  1  3  1  0
  1  5  1  0
  2  4  1  0
  3 10  1  0
  3  4  1  0
  4  6  1  0
  5  2  1  0
  6  8  1  0
  6  9  1  0
  7  6  1  0
 10 19  1  0
 11 17  1  0
 11 19  1  0
 12 17  1  0
 13 14  1  0
 13 12  1  0
 15 14  1  0
 15 24  1  0
 15 16  1  0
 17 16  1  0
 18 11  2  0
 19 20  1  0
 21 22  2  0
 22 41  1  0
 23 26  1  0
 23 22  1  0
 24 25  1  0
 24 21  1  0
 25 23  2  0
 26 27  1  0
 27 28  2  0
 29 32  1  0
 29 28  1  0
 30 29  2  0
 31 30  1  0
 31 26  2  0
 32 33  1  0
 33 34  1  0
 34 35  2  0
 36 35  1  0
 36 40  1  0
 37 36  2  0
 38 33  2  0
 38 37  1  0
 39 38  1  0
 41 42  1  0
 42 44  1  0
 42 45  1  0
 43 41  2  0
 46 21  1  0
 46 47  1  0
 48 46  1  0
 49  5  1  0
 50 51  1  0
 50 49  1  0
 51 52  1  0
 53 54  1  0
 53 51  1  0
 55 66  2  0
 56 54  1  0
 56 61  1  0
 57 65  1  0
 57 67  1  0
 58 64  1  0
 58 60  1  0
 59 65  1  0
 60 59  1  0
 61 60  2  0
 62 63  1  0
 62 56  2  0
 63 58  2  0
 64 57  1  0
 65 55  1  0
 67 69  2  0
 68 67  1  0
 70 68  1  0
 71 80  2  0
 71 76  1  0
 72 68  1  0
 72 76  1  0
 73 72  1  0
 74 75  1  0
 74 73  1  0
 75 71  1  0
 76 77  2  0
 77 78  1  0
 79 78  2  0
 80 79  1  0
 81 55  1  0
 81 82  1  0
 81 91  1  0
 82 85  1  0
 83 87  1  0
 83 82  1  0
 84 83  2  0
 87 86  1  0
 89 87  1  0
 89 90  1  0
 89 88  1  0
 91 94  1  1
 91 92  1  0
 93 91  1  0
M  ISO  4  11 100  19 100  53 101  54 101
M  END
>  <TORSDO>  (20) 
F 22

>  <SCORE>  (20) 
-11.345

>  <name>  (20) 
19

>  <ligand_id>  (20) 
19

>  <original_smiles>  (20) 
[H]c1c([H])c([H])c2c(c1[H])C([H])([H])C([H])([H])C([H])([H])C2([H])N([H])C(=O)C1([H])N(C(=O)C([H])(N([H])C(=O)C([H])(N([H])C([H])([H])[H])C([H])([H])[H])C(C([H])([H])[H])(C([H])([H])[H])C([H])([H])[H])C([H])([H])c2c([H])c(OC([H])([H])C([H])(F)C([H])([H])C([H])([H])N3C([H])([H])C([H])(C([H])([H])N([H])C(=O)N4C([H])([H])C([H])([H])C([H])([H])C([H])(n5nc(-c6c([H])c([H])c(Oc7c([H])c([H])c(F)c([H])c7F)c([H])c6[H])c(C(=O)N([H])[H])c5N([H])[H])C4([H])[H])C([H])([N+]([H])([H])[H])C3([H])[H])c([H])c([H])c2C1([H])[H]

>  <smiles>  (20) 
[H]c1c([H])c([H])c2c(c1[H])C([H])([H])C([H])([H])C([H])([H])C2([H])N([H])C(=O)C1([H])N(C(=O)C([H])(N([H])C(=O)C([H])(N([H])C([H])([H])[H])C([H])([H])[H])C(C([H])([H])[H])(C([H])([H])[H])C([H])([H])[H])C([H])([H])c2c([H])c(OC([H])([H])C([H])(F)C([H])([H])C([H])([H])N3C([H])([H])C([H])(C([H])([H])N([H])C(=O)N4C([H])([H])C([H])([H])C([H])([H])C([H])(n5nc(-c6c([H])c([H])c(Oc7c([H])c([H])c(F)c([H])c7F)c([H])c6[H])c(C(=O)N([H])[H])c5N([H])[H])C4([H])[H])C([H])([N+]([H])([H])[H])C3([H])[H])c([H])c([H])c2C1([H])[H]

$$$$
20:0:0
     RDKit          3D

 99107  0  0  1  0  0  0  0  0999 V2000
  -32.1980  -21.5930   22.6100 C   0  0  0  0  0  2  0  0  0  0  0  0
  -30.5170  -19.8930   21.9310 C   0  0  0  0  0  0  0  0  0  0  0  0
  -31.7720  -20.2520   22.2200 N   0  0  0  0  0  0  0  0  0  0  0  0
  -29.5700  -20.6820   21.9590 O   0  0  0  0  0  0  0  0  0  0  0  0
  -32.4830  -19.5370   22.1540 H   0  0  0  0  0  0  0  0  0  0  0  0
  -31.3910  -17.5410   21.4790 C   0  0  0  0  0  3  0  0  0  0  0  0
  -31.1720  -16.1990   21.0990 C   0  0  0  0  0  3  0  0  0  0  0  0
  -29.0320  -18.0340   21.1200 C   0  0  0  0  0  3  0  0  0  0  0  0
  -30.3220  -18.4710   21.4890 C   0  0  0  0  0  0  0  0  0  0  0  0
  -29.8740  -15.7740   20.7360 C   0  0  0  0  0  0  0  0  0  0  0  0
  -28.8110  -16.6970   20.7510 C   0  0  0  0  0  0  0  0  0  0  0  0
  -27.5630  -16.2870   20.4180 F   0  0  0  0  0  0  0  0  0  0  0  0
  -30.0090  -13.5850   19.5000 C   0  0  0  0  0  0  0  0  0  0  0  0
  -29.7720  -11.2780   18.6410 C   0  0  0  0  0  2  0  0  0  0  0  0
  -28.6660  -11.1890   17.5710 C   0  0  0  0  0  2  0  0  0  0  0  0
  -27.2830  -10.9850   18.2220 C   0  0  0  0  0  2  0  0  0  0  0  0
  -27.0100  -12.0020   19.3610 C   0  0  0  0  0  3  0  0  0  0  0  0
  -28.2030  -12.0350   20.3380 C   0  0  0  0  0  2  0  0  0  0  0  0
  -29.4220  -12.3620   19.5680 N   0  0  0  0  0  0  0  0  0  0  0  0
  -30.9030  -13.8650   18.6960 O   0  0  0  0  0  0  0  0  0  0  0  0
  -29.5180  -14.4460   20.4000 N   0  0  0  0  0  0  0  0  0  0  0  0
  -28.7350  -14.0910   20.9280 H   0  0  0  0  0  0  0  0  0  0  0  0
  -24.7620  -12.5790   20.4830 C   0  0  0  0  0  0  0  0  0  0  0  0
  -23.7770  -11.7890   21.0140 C   0  0  0  0  0  0  0  0  0  0  0  0
  -24.2320  -10.4420   20.8690 C   0  0  0  0  0  0  0  0  0  0  0  0
  -25.7560  -11.7120   20.0540 N   0  0  0  0  0  0  0  0  0  0  0  0
  -25.4480  -10.4210   20.3390 N   0  0  0  0  0  0  0  0  0  0  0  0
  -23.5580   -9.1710   21.1540 C   0  0  0  0  0  0  0  0  0  0  0  0
  -24.1170   -8.2190   22.0340 C   0  0  0  0  0  3  0  0  0  0  0  0
  -23.4420   -7.0080   22.3040 C   0  0  0  0  0  3  0  0  0  0  0  0
  -22.1940   -6.7410   21.6920 C   0  0  0  0  0  0  0  0  0  0  0  0
  -21.6530   -7.6810   20.7980 C   0  0  0  0  0  3  0  0  0  0  0  0
  -22.3290   -8.8840   20.5280 C   0  0  0  0  0  3  0  0  0  0  0  0
  -21.4780   -5.5820   21.8750 O   0  0  0  0  0  0  0  0  0  0  0  0
  -21.4700   -4.9220   23.0770 C   0  0  0  0  0  0  0  0  0  0  0  0
  -21.0610   -5.5540   24.2710 C   0  0  0  0  0  3  0  0  0  0  0  0
  -21.0030   -4.8170   25.4720 C   0  0  0  0  0  3  0  0  0  0  0  0
  -21.3450   -3.4520   25.4780 C   0  0  0  0  0  0  0  0  0  0  0  0
  -21.7480   -2.8200   24.2880 C   0  0  0  0  0  3  0  0  0  0  0  0
  -21.8080   -3.5540   23.0910 C   0  0  0  0  0  0  0  0  0  0  0  0
  -22.1770   -2.9360   21.9430 F   0  0  0  0  0  0  0  0  0  0  0  0
  -21.2810   -2.7420   26.6290 F   0  0  0  0  0  0  0  0  0  0  0  0
  -22.4470  -12.2470   21.5390 C   0  0  0  0  0  0  0  0  0  0  0  0
  -21.8890  -11.5300   22.5090 N   0  0  0  0  0  0  0  0  0  0  0  0
  -21.9150  -13.2750   21.1220 O   0  0  0  0  0  0  0  0  0  0  0  0
  -22.3340  -10.6970   22.8660 H   0  0  0  0  0  0  0  0  0  0  0  0
  -21.0030  -11.8190   22.8990 H   0  0  0  0  0  0  0  0  0  0  0  0
  -24.8870  -13.9550   20.3150 N   0  0  0  0  0  0  0  0  0  0  0  0
  -24.1520  -14.6010   20.5820 H   0  0  0  0  0  0  0  0  0  0  0  0
  -25.6810  -14.4120   19.8820 H   0  0  0  0  0  0  0  0  0  0  0  0
  -31.6380  -22.6620   21.6580 C   0  0  0  0  0  2  0  0  0  0  0  0
  -30.9800  -22.0590   20.4020 C   0  0  0  0  0  2  0  0  0  0  0  0
  -30.3690  -23.1040   19.4540 C   0  0  0  0  0  2  0  0  0  0  0  0
  -28.9980  -23.4970   19.8440 N   0  0  0  0  0  4  0  0  0  0  0  0
  -29.0180  -23.8740   20.7800 H   0  0  0  0  0  0  0  0  0  0  0  0
  -28.4200  -22.6710   19.8550 H   0  0  0  0  0  0  0  0  0  0  0  0
  -28.3970  -24.4850   18.9190 C   0  0  0  0  0  2  0  0  0  0  0  0
  -26.9520  -24.8560   19.2810 C   0  0  0  0  0  2  0  0  0  0  0  0
  -26.5880  -25.9120   18.4070 O   0  0  0  0  0  0  0  0  0  0  0  0
  -24.9880  -30.5990   23.5140 C   0  0  0  0  0  0  0  0  0  0  0  0
  -25.6990  -26.8170   18.9170 C   0  0  0  0  0  0  0  0  0  0  0  0
  -23.2070  -30.1610   21.8510 C   0  0  0  0  0  3  0  0  0  0  0  0
  -23.9100  -28.7950   19.8160 C   0  0  0  0  0  0  0  0  0  0  0  0
  -25.6700  -29.8700   21.2340 C   0  0  0  0  0  2  0  0  0  0  0  0
  -25.2350  -28.7880   20.2710 C   0  0  0  0  0  0  0  0  0  0  0  0
  -26.1360  -27.8010   19.8250 C   0  0  0  0  0  3  0  0  0  0  0  0
  -24.3630  -26.8190   18.4700 C   0  0  0  0  0  3  0  0  0  0  0  0
  -23.4640  -27.8060   18.9200 C   0  0  0  0  0  3  0  0  0  0  0  0
  -23.0200  -29.9030   20.3320 C   0  0  0  0  0  2  0  0  0  0  0  0
  -24.6500  -30.2000   22.2560 N   0  0  0  0  0  0  0  0  0  0  0  0
  -24.1240  -30.9740   24.3200 O   0  0  0  0  0  0  0  0  0  0  0  0
  -22.3810  -29.1120   22.6290 C   0  0  0  0  0  0  0  0  0  0  0  0
  -21.0460  -29.2160   22.5360 N   0  0  0  0  0  0  0  0  0  0  0  0
  -22.9380  -28.2170   23.2690 O   0  0  0  0  0  0  0  0  0  0  0  0
  -20.6690  -29.9810   21.9960 H   0  0  0  0  0  0  0  0  0  0  0  0
  -17.5190  -28.4840   22.7690 C   0  0  0  0  0  0  0  0  0  0  0  0
  -20.0700  -28.3180   23.1490 C   0  0  0  0  0  3  0  0  0  0  0  0
  -19.9940  -26.9750   22.3880 C   0  0  0  0  0  2  0  0  0  0  0  0
  -18.9080  -26.9570   21.3080 C   0  0  0  0  0  2  0  0  0  0  0  0
  -17.5320  -27.2220   21.9230 C   0  0  0  0  0  2  0  0  0  0  0  0
  -18.7130  -29.0070   23.3310 C   0  0  0  0  0  0  0  0  0  0  0  0
  -18.6510  -30.2040   24.0780 C   0  0  0  0  0  3  0  0  0  0  0  0
  -17.4260  -30.8710   24.2710 C   0  0  0  0  0  3  0  0  0  0  0  0
  -16.2450  -30.3390   23.7240 C   0  0  0  0  0  3  0  0  0  0  0  0
  -16.2920  -29.1480   22.9790 C   0  0  0  0  0  3  0  0  0  0  0  0
  -26.4720  -30.6230   23.9960 C   0  0  0  0  0  3  0  0  0  0  0  0
  -26.6800  -31.8860   24.7170 N   0  0  0  0  0  0  0  0  0  0  0  0
  -27.3300  -32.9460   24.2180 C   0  0  0  0  0  0  0  0  0  0  0  0
  -27.8850  -32.9350   23.1150 O   0  0  0  0  0  0  0  0  0  0  0  0
  -26.2000  -31.9880   25.5990 H   0  0  0  0  0  0  0  0  0  0  0  0
  -26.3460  -35.2360   24.5410 C   0  0  0  0  0  1  0  0  0  0  0  0
  -27.3690  -34.2230   25.0780 C   0  0  0  0  0  3  0  0  0  0  0  0
  -29.6800  -34.0590   25.8900 C   0  0  0  0  0  1  0  0  0  0  0  0
  -28.7070  -34.8480   25.1400 N   0  0  0  0  0  0  0  0  0  0  0  0
  -28.6560  -35.7720   25.5620 H   0  0  0  0  0  0  0  0  0  0  0  0
  -26.8530  -29.3910   24.9050 C   0  0  1  0  0  0  0  0  0  0  0  0
  -25.8710  -29.1590   26.0760 C   0  0  0  0  0  1  0  0  0  0  0  0
  -26.9070  -28.0920   24.0660 C   0  0  0  0  0  1  0  0  0  0  0  0
  -28.2670  -29.5940   25.4980 C   0  0  0  0  0  1  0  0  0  0  0  0
  2  4  2  0
  2  3  1  0
  3  1  1  0
  5  3  1  0
  6  9  1  0
  7  6  2  0
  8  9  2  0
  9  2  1  0
 10 11  2  0
 10  7  1  0
 11  8  1  0
 12 11  1  0
 13 19  1  0
 13 21  1  0
 14 19  1  0
 15 16  1  0
 15 14  1  0
 17 16  1  0
 17 26  1  0
 17 18  1  0
 19 18  1  0
 20 13  2  0
 21 10  1  0
 21 22  1  0
 23 24  2  0
 24 43  1  0
 25 24  1  0
 25 28  1  0
 26 27  1  0
 26 23  1  0
 27 25  2  0
 28 29  1  0
 29 30  2  0
 31 34  1  0
 31 30  1  0
 32 31  2  0
 33 32  1  0
 33 28  2  0
 34 35  1  0
 35 40  2  0
 35 36  1  0
 36 37  2  0
 37 38  1  0
 38 42  1  0
 39 38  2  0
 40 39  1  0
 41 40  1  0
 43 44  1  0
 44 46  1  0
 44 47  1  0
 45 43  2  0
 48 23  1  0
 48 49  1  0
 50 48  1  0
 51  1  1  0
 52 51  1  0
 53 54  1  0
 53 52  1  0
 54 56  1  0
 54 55  1  0
 57 58  1  0
 57 54  1  0
 59 61  1  0
 59 58  1  0
 60 71  2  0
 61 66  1  0
 62 70  1  0
 62 72  1  0
 63 65  1  0
 63 69  1  0
 64 70  1  0
 65 64  1  0
 66 65  2  0
 67 61  2  0
 67 68  1  0
 68 63  2  0
 69 62  1  0
 70 60  1  0
 72 74  2  0
 73 72  1  0
 75 73  1  0
 76 85  2  0
 76 81  1  0
 77 73  1  0
 77 81  1  0
 78 77  1  0
 79 80  1  0
 79 78  1  0
 80 76  1  0
 81 82  2  0
 82 83  1  0
 84 83  2  0
 85 84  1  0
 86 60  1  0
 86 87  1  0
 86 96  1  0
 87 90  1  0
 88 87  1  0
 88 92  1  0
 89 88  2  0
 92 91  1  0
 92 94  1  0
 94 95  1  0
 94 93  1  0
 96 99  1  1
 96 97  1  0
 98 96  1  0
M  ISO  4  13 100  21 100  58 101  59 101
M  END
>  <TORSDO>  (21) 
F 24

>  <SCORE>  (21) 
-5.838

>  <name>  (21) 
20

>  <ligand_id>  (21) 
20

>  <original_smiles>  (21) 
[H]c1c([H])c([H])c2c(c1[H])C([H])([H])C([H])([H])C([H])([H])C2([H])N([H])C(=O)C1([H])N(C(=O)C([H])(N([H])C(=O)C([H])(N([H])C([H])([H])[H])C([H])([H])[H])C(C([H])([H])[H])(C([H])([H])[H])C([H])([H])[H])C([H])([H])c2c([H])c(OC([H])([H])C([H])([H])[N+]([H])([H])C([H])([H])C([H])([H])C([H])([H])C([H])([H])N([H])C(=O)c3c([H])c([H])c(N([H])C(=O)N4C([H])([H])C([H])([H])C([H])([H])C([H])(n5nc(-c6c([H])c([H])c(Oc7c([H])c([H])c(F)c([H])c7F)c([H])c6[H])c(C(=O)N([H])[H])c5N([H])[H])C4([H])[H])c(F)c3[H])c([H])c([H])c2C1([H])[H]

>  <smiles>  (21) 
[H]c1c([H])c([H])c2c(c1[H])C([H])([H])C([H])([H])C([H])([H])C2([H])N([H])C(=O)C1([H])N(C(=O)C([H])(N([H])C(=O)C([H])(N([H])C([H])([H])[H])C([H])([H])[H])C(C([H])([H])[H])(C([H])([H])[H])C([H])([H])[H])C([H])([H])c2c([H])c(OC([H])([H])C([H])([H])[N+]([H])([H])C([H])([H])C([H])([H])C([H])([H])C([H])([H])N([H])C(=O)c3c([H])c([H])c(N([H])C(=O)N4C([H])([H])C([H])([H])C([H])([H])C([H])(n5nc(-c6c([H])c([H])c(Oc7c([H])c([H])c(F)c([H])c7F)c([H])c6[H])c(C(=O)N([H])[H])c5N([H])[H])C4([H])[H])c(F)c3[H])c([H])c([H])c2C1([H])[H]

$$$$
21:0:0
     RDKit          3D

 94102  0  0  1  0  0  0  0  0999 V2000
  -28.0630  -18.3270   20.2350 C   0  0  0  0  0  2  0  0  0  0  0  0
  -28.1300  -19.0880   18.8990 C   0  0  0  0  0  2  0  0  0  0  0  0
  -30.5960  -18.8840   18.5020 C   0  0  0  0  0  2  0  0  0  0  0  0
  -28.5430  -16.8660   20.1310 C   0  0  0  0  0  2  0  0  0  0  0  0
  -30.7730  -17.7390   19.5210 C   0  0  0  0  0  2  0  0  0  0  0  0
  -29.4210  -19.7670   18.6800 N   0  0  0  0  0  0  0  0  0  0  0  0
  -29.7260  -16.7340   19.2460 N   0  0  1  0  0  4  0  0  0  0  0  0
  -29.3790  -17.0260   18.3460 H   0  0  0  0  0  0  0  0  0  0  0  0
  -29.2540  -20.5550   17.4500 C   0  0  0  0  0  2  0  0  0  0  0  0
  -30.0020  -21.8990   17.4430 C   0  0  0  0  0  2  0  0  0  0  0  0
  -29.6500  -22.7030   16.1830 C   0  0  0  0  0  2  0  0  0  0  0  0
  -29.8590  -24.2110   16.3500 C   0  0  0  0  0  2  0  0  0  0  0  0
  -29.3840  -25.0100   15.1250 C   0  0  0  0  0  2  0  0  0  0  0  0
  -29.0640  -26.3460   15.5050 O   0  0  0  0  0  0  0  0  0  0  0  0
  -25.5360  -27.4520   21.5610 C   0  0  0  0  0  0  0  0  0  0  0  0
  -27.8340  -26.6130   16.0710 C   0  0  0  0  0  0  0  0  0  0  0  0
  -24.1320  -27.2640   19.5330 C   0  0  0  0  0  3  0  0  0  0  0  0
  -25.3860  -27.2850   17.3180 C   0  0  0  0  0  0  0  0  0  0  0  0
  -26.5470  -28.0950   19.3780 C   0  0  0  0  0  2  0  0  0  0  0  0
  -26.5950  -27.5050   17.9860 C   0  0  0  0  0  0  0  0  0  0  0  0
  -27.8180  -27.1790   17.3640 C   0  0  0  0  0  3  0  0  0  0  0  0
  -26.6000  -26.3750   15.4180 C   0  0  0  0  0  3  0  0  0  0  0  0
  -25.3820  -26.7130   16.0350 C   0  0  0  0  0  3  0  0  0  0  0  0
  -24.1200  -27.6830   18.0390 C   0  0  0  0  0  2  0  0  0  0  0  0
  -25.4330  -27.5800   20.2080 N   0  0  0  0  0  0  0  0  0  0  0  0
  -24.5600  -27.1210   22.2480 O   0  0  0  0  0  0  0  0  0  0  0  0
  -23.7370  -25.7730   19.6280 C   0  0  0  0  0  0  0  0  0  0  0  0
  -22.4730  -25.4690   19.2960 N   0  0  0  0  0  0  0  0  0  0  0  0
  -24.5650  -24.9210   19.9630 O   0  0  0  0  0  0  0  0  0  0  0  0
  -21.8560  -26.2260   19.0380 H   0  0  0  0  0  0  0  0  0  0  0  0
  -19.5090  -23.6020   18.4150 C   0  0  0  0  0  0  0  0  0  0  0  0
  -21.8880  -24.1280   19.2730 C   0  0  0  0  0  3  0  0  0  0  0  0
  -22.3970  -23.3200   18.0570 C   0  0  0  0  0  2  0  0  0  0  0  0
  -21.4780  -23.4260   16.8360 C   0  0  0  0  0  2  0  0  0  0  0  0
  -20.0720  -22.9250   17.1750 C   0  0  0  0  0  2  0  0  0  0  0  0
  -20.3620  -24.1800   19.3910 C   0  0  0  0  0  0  0  0  0  0  0  0
  -19.7860  -24.8270   20.5060 C   0  0  0  0  0  3  0  0  0  0  0  0
  -18.3890  -24.9000   20.6550 C   0  0  0  0  0  3  0  0  0  0  0  0
  -17.5490  -24.3120   19.6930 C   0  0  0  0  0  3  0  0  0  0  0  0
  -18.1080  -23.6600   18.5790 C   0  0  0  0  0  3  0  0  0  0  0  0
  -26.8750  -27.7380   22.3100 C   0  0  0  0  0  3  0  0  0  0  0  0
  -26.5430  -28.4520   23.5490 N   0  0  0  0  0  0  0  0  0  0  0  0
  -26.7250  -29.7650   23.7430 C   0  0  0  0  0  0  0  0  0  0  0  0
  -27.2650  -30.4970   22.9080 O   0  0  0  0  0  0  0  0  0  0  0  0
  -26.0460  -27.9280   24.2540 H   0  0  0  0  0  0  0  0  0  0  0  0
  -24.8920  -31.0840   24.8500 C   0  0  0  0  0  1  0  0  0  0  0  0
  -26.2290  -30.3610   25.0740 C   0  0  0  0  0  3  0  0  0  0  0  0
  -28.3860  -30.6180   26.2200 C   0  0  0  0  0  1  0  0  0  0  0  0
  -27.1970  -31.2890   25.7000 N   0  0  0  0  0  0  0  0  0  0  0  0
  -26.7630  -31.8010   26.4630 H   0  0  0  0  0  0  0  0  0  0  0  0
  -27.7070  -26.4340   22.6200 C   0  0  1  0  0  0  0  0  0  0  0  0
  -26.8920  -25.3370   23.3440 C   0  0  0  0  0  1  0  0  0  0  0  0
  -28.2710  -25.8210   21.3180 C   0  0  0  0  0  1  0  0  0  0  0  0
  -28.9230  -26.7860   23.5080 C   0  0  0  0  0  1  0  0  0  0  0  0
  -30.1450  -15.3270   19.0180 C   0  0  0  0  0  2  0  0  0  0  0  0
  -31.6730  -15.0800   19.1440 C   0  0  0  0  0  2  0  0  0  0  0  0
  -32.7970  -13.0640   20.1260 C   0  0  0  0  0  0  0  0  0  0  0  0
  -32.7040  -10.8670   21.2290 C   0  0  0  0  0  2  0  0  0  0  0  0
  -32.0360   -9.8680   20.2570 C   0  0  0  0  0  2  0  0  0  0  0  0
  -30.4960   -9.9230   20.3650 C   0  0  0  0  0  2  0  0  0  0  0  0
  -29.9390  -11.3700   20.3230 C   0  0  0  0  0  3  0  0  0  0  0  0
  -30.7270  -12.2640   21.3090 C   0  0  0  0  0  2  0  0  0  0  0  0
  -32.1480  -12.1920   20.9370 N   0  0  0  0  0  0  0  0  0  0  0  0
  -34.0090  -13.0300   19.9080 O   0  0  0  0  0  0  0  0  0  0  0  0
  -31.9860  -13.6550   19.2420 N   0  0  0  0  0  0  0  0  0  0  0  0
  -32.1580  -13.2750   18.3210 H   0  0  0  0  0  0  0  0  0  0  0  0
  -27.5970  -12.4400   20.4110 C   0  0  0  0  0  0  0  0  0  0  0  0
  -26.3700  -11.9230   20.7310 C   0  0  0  0  0  0  0  0  0  0  0  0
  -26.5970  -10.5570   21.0810 C   0  0  0  0  0  0  0  0  0  0  0  0
  -28.5010  -11.4020   20.5810 N   0  0  0  0  0  0  0  0  0  0  0  0
  -27.8930  -10.2790   21.0370 N   0  0  0  0  0  0  0  0  0  0  0  0
  -25.6510   -9.4800   21.4000 C   0  0  0  0  0  0  0  0  0  0  0  0
  -25.4430   -9.0520   22.7310 C   0  0  0  0  0  3  0  0  0  0  0  0
  -24.5160   -8.0270   23.0160 C   0  0  0  0  0  3  0  0  0  0  0  0
  -23.7860   -7.4200   21.9670 C   0  0  0  0  0  0  0  0  0  0  0  0
  -24.0140   -7.8320   20.6430 C   0  0  0  0  0  3  0  0  0  0  0  0
  -24.9400   -8.8510   20.3600 C   0  0  0  0  0  3  0  0  0  0  0  0
  -22.8840   -6.3990   22.1460 O   0  0  0  0  0  0  0  0  0  0  0  0
  -21.9430   -6.4370   23.1430 C   0  0  0  0  0  0  0  0  0  0  0  0
  -20.9550   -7.4450   23.1960 C   0  0  0  0  0  3  0  0  0  0  0  0
  -19.9650   -7.4070   24.1980 C   0  0  0  0  0  3  0  0  0  0  0  0
  -19.9560   -6.3600   25.1410 C   0  0  0  0  0  0  0  0  0  0  0  0
  -20.9360   -5.3540   25.0850 C   0  0  0  0  0  3  0  0  0  0  0  0
  -21.9250   -5.3910   24.0870 C   0  0  0  0  0  0  0  0  0  0  0  0
  -22.8550   -4.4080   24.0260 F   0  0  0  0  0  0  0  0  0  0  0  0
  -19.0010   -6.3190   26.0990 F   0  0  0  0  0  0  0  0  0  0  0  0
  -25.0480  -12.6250   20.6270 C   0  0  0  0  0  0  0  0  0  0  0  0
  -24.0940  -12.2660   21.4790 N   0  0  0  0  0  0  0  0  0  0  0  0
  -24.8680  -13.5360   19.8180 O   0  0  0  0  0  0  0  0  0  0  0  0
  -24.2460  -11.5300   22.1530 H   0  0  0  0  0  0  0  0  0  0  0  0
  -23.2000  -12.7340   21.4550 H   0  0  0  0  0  0  0  0  0  0  0  0
  -28.0150  -13.6930   19.9690 N   0  0  0  0  0  0  0  0  0  0  0  0
  -27.3140  -14.3440   19.6300 H   0  0  0  0  0  0  0  0  0  0  0  0
  -28.8980  -13.7940   19.4840 H   0  0  0  0  0  0  0  0  0  0  0  0
  2  1  1  0
  3  6  1  0
  3  5  1  0
  4  1  1  0
  6  2  1  0
  7  5  1  0
  7  4  1  0
  7  8  1  6
  9  6  1  0
 10  9  1  0
 11 12  1  0
 11 10  1  0
 13 14  1  0
 13 12  1  0
 14 16  1  0
 15 26  2  0
 16 21  1  0
 17 27  1  0
 17 25  1  0
 18 20  1  0
 18 24  1  0
 19 25  1  0
 20 19  1  0
 21 20  2  0
 22 23  1  0
 22 16  2  0
 23 18  2  0
 24 17  1  0
 25 15  1  0
 27 29  2  0
 28 27  1  0
 30 28  1  0
 31 40  2  0
 31 36  1  0
 32 28  1  0
 32 36  1  0
 33 32  1  0
 34 35  1  0
 34 33  1  0
 35 31  1  0
 36 37  2  0
 37 38  1  0
 39 38  2  0
 40 39  1  0
 41 15  1  0
 41 51  1  0
 41 42  1  0
 42 43  1  0
 42 45  1  0
 43 47  1  0
 44 43  2  0
 47 46  1  0
 47 49  1  0
 49 48  1  0
 49 50  1  0
 51 52  1  1
 51 54  1  0
 53 51  1  0
 55 56  1  0
 55  7  1  0
 56 65  1  0
 57 63  1  0
 59 60  1  0
 59 58  1  0
 61 60  1  0
 61 70  1  0
 61 62  1  0
 63 58  1  0
 63 62  1  0
 64 57  2  0
 65 57  1  0
 66 65  1  0
 67 70  1  0
 67 68  2  0
 68 69  1  0
 69 72  1  0
 70 71  1  0
 71 69  2  0
 72 73  1  0
 73 74  2  0
 75 78  1  0
 75 74  1  0
 76 75  2  0
 77 76  1  0
 77 72  2  0
 78 79  1  0
 79 80  2  0
 79 84  1  0
 80 81  1  0
 81 82  2  0
 82 86  1  0
 83 82  1  0
 84 83  2  0
 85 84  1  0
 87 68  1  0
 87 88  1  0
 88 90  1  0
 89 87  2  0
 91 88  1  0
 92 67  1  0
 93 92  1  0
 94 92  1  0
M  ISO  4  13 101  14 101  57 100  65 100
M  END
>  <TORSDO>  (22) 
F 23

>  <SCORE>  (22) 
-6.275

>  <name>  (22) 
21

>  <ligand_id>  (22) 
21

>  <original_smiles>  (22) 
[H]c1c([H])c([H])c2c(c1[H])C([H])([H])C([H])([H])C([H])([H])C2([H])N([H])C(=O)C1([H])N(C(=O)C([H])(N([H])C(=O)C([H])(N([H])C([H])([H])[H])C([H])([H])[H])C(C([H])([H])[H])(C([H])([H])[H])C([H])([H])[H])C([H])([H])c2c([H])c(OC([H])([H])C([H])([H])C([H])([H])C([H])([H])C([H])([H])N3C([H])([H])C([H])([H])C([H])([H])[N+]([H])(C([H])([H])C([H])([H])N([H])C(=O)N4C([H])([H])C([H])([H])C([H])([H])C([H])(n5nc(-c6c([H])c([H])c(Oc7c([H])c([H])c(F)c([H])c7F)c([H])c6[H])c(C(=O)N([H])[H])c5N([H])[H])C4([H])[H])C([H])([H])C3([H])[H])c([H])c([H])c2C1([H])[H]

>  <smiles>  (22) 
[H]c1c([H])c([H])c2c(c1[H])C([H])([H])C([H])([H])C([H])([H])C2([H])N([H])C(=O)C1([H])N(C(=O)C([H])(N([H])C(=O)C([H])(N([H])C([H])([H])[H])C([H])([H])[H])C(C([H])([H])[H])(C([H])([H])[H])C([H])([H])[H])C([H])([H])c2c([H])c(OC([H])([H])C([H])([H])C([H])([H])C([H])([H])C([H])([H])N3C([H])([H])C([H])([H])C([H])([H])[N+]([H])(C([H])([H])C([H])([H])N([H])C(=O)N4C([H])([H])C([H])([H])C([H])([H])C([H])(n5nc(-c6c([H])c([H])c(Oc7c([H])c([H])c(F)c([H])c7F)c([H])c6[H])c(C(=O)N([H])[H])c5N([H])[H])C4([H])[H])C([H])([H])C3([H])[H])c([H])c([H])c2C1([H])[H]

$$$$
22:0:0
     RDKit          3D

 91 99  0  0  1  0  0  0  0  0999 V2000
  -28.7130  -21.0270   20.6610 C   0  0  0  0  0  3  0  0  0  0  0  0
  -28.8870  -19.4930   18.6780 C   0  0  0  0  0  2  0  0  0  0  0  0
  -28.0530  -18.3620   19.2730 C   0  0  0  0  0  3  0  0  0  0  0  0
  -29.0360  -18.3650   20.4400 C   0  0  0  0  0  3  0  0  0  0  0  0
  -29.3870  -19.8000   20.0230 N   0  0  2  0  0  4  0  0  0  0  0  0
  -26.8260  -18.7580   19.6250 F   0  0  0  0  0  0  0  0  0  0  0  0
  -30.3880  -19.9390   20.0140 H   0  0  0  0  0  0  0  0  0  0  0  0
  -30.2010  -17.2580   20.4150 C   0  0  0  0  0  2  0  0  0  0  0  0
  -30.6160  -14.6920   20.3580 C   0  0  0  0  0  0  0  0  0  0  0  0
  -30.4040  -12.4460   19.3140 C   0  0  0  0  0  2  0  0  0  0  0  0
  -29.4590  -12.5580   18.0960 C   0  0  0  0  0  2  0  0  0  0  0  0
  -27.9890  -12.3940   18.5300 C   0  0  0  0  0  2  0  0  0  0  0  0
  -27.6280  -13.2600   19.7660 C   0  0  0  0  0  3  0  0  0  0  0  0
  -28.6910  -13.1310   20.8800 C   0  0  0  0  0  2  0  0  0  0  0  0
  -29.9900  -13.4750   20.2920 N   0  0  0  0  0  0  0  0  0  0  0  0
  -31.7850  -14.8240   19.9880 O   0  0  0  0  0  0  0  0  0  0  0  0
  -29.8380  -15.7970   20.6260 N   0  0  0  0  0  0  0  0  0  0  0  0
  -28.8940  -15.6010   20.9180 H   0  0  0  0  0  0  0  0  0  0  0  0
  -25.2400  -13.8510   20.4980 C   0  0  0  0  0  0  0  0  0  0  0  0
  -24.1760  -13.0750   20.8690 C   0  0  0  0  0  0  0  0  0  0  0  0
  -24.6400  -11.7240   20.8320 C   0  0  0  0  0  0  0  0  0  0  0  0
  -26.2840  -12.9730   20.2580 N   0  0  0  0  0  0  0  0  0  0  0  0
  -25.9290  -11.6890   20.5200 N   0  0  0  0  0  0  0  0  0  0  0  0
  -23.9170  -10.4600   21.0190 C   0  0  0  0  0  0  0  0  0  0  0  0
  -24.3440   -9.4950   21.9580 C   0  0  0  0  0  3  0  0  0  0  0  0
  -23.6190   -8.2960   22.1330 C   0  0  0  0  0  3  0  0  0  0  0  0
  -22.4540   -8.0530   21.3670 C   0  0  0  0  0  0  0  0  0  0  0  0
  -22.0470   -9.0060   20.4170 C   0  0  0  0  0  3  0  0  0  0  0  0
  -22.7730  -10.1970   20.2410 C   0  0  0  0  0  3  0  0  0  0  0  0
  -21.7020   -6.9070   21.4490 O   0  0  0  0  0  0  0  0  0  0  0  0
  -21.6320   -6.1750   22.6080 C   0  0  0  0  0  0  0  0  0  0  0  0
  -21.1550   -6.7330   23.8140 C   0  0  0  0  0  3  0  0  0  0  0  0
  -21.0330   -5.9270   24.9640 C   0  0  0  0  0  3  0  0  0  0  0  0
  -21.3780   -4.5630   24.9070 C   0  0  0  0  0  0  0  0  0  0  0  0
  -21.8480   -4.0050   23.7060 C   0  0  0  0  0  3  0  0  0  0  0  0
  -21.9720   -4.8080   22.5590 C   0  0  0  0  0  0  0  0  0  0  0  0
  -22.4060   -4.2600   21.3970 F   0  0  0  0  0  0  0  0  0  0  0  0
  -21.2540   -3.7860   26.0080 F   0  0  0  0  0  0  0  0  0  0  0  0
  -22.7790  -13.5510   21.1470 C   0  0  0  0  0  0  0  0  0  0  0  0
  -22.0500  -12.8480   22.0060 N   0  0  0  0  0  0  0  0  0  0  0  0
  -22.3410  -14.5820   20.6370 O   0  0  0  0  0  0  0  0  0  0  0  0
  -22.4130  -12.0120   22.4410 H   0  0  0  0  0  0  0  0  0  0  0  0
  -21.1130  -13.1510   22.2330 H   0  0  0  0  0  0  0  0  0  0  0  0
  -25.4030  -15.2220   20.3240 N   0  0  0  0  0  0  0  0  0  0  0  0
  -24.6340  -15.8750   20.4350 H   0  0  0  0  0  0  0  0  0  0  0  0
  -26.2470  -15.6630   19.9890 H   0  0  0  0  0  0  0  0  0  0  0  0
  -28.9490  -22.4590   19.9520 C   0  0  0  0  0  3  0  0  0  0  0  0
  -28.2500  -23.8090   20.4930 C   0  0  0  0  0  2  0  0  0  0  0  0
  -28.3540  -25.1410   18.2330 C   0  0  0  0  0  1  0  0  0  0  0  0
  -28.6140  -25.1860   19.7500 C   0  0  0  0  0  3  0  0  0  0  0  0
  -28.3580  -26.5290   20.3410 O   0  0  0  0  0  0  0  0  0  0  0  0
  -24.5710  -31.9090   23.2360 C   0  0  0  0  0  0  0  0  0  0  0  0
  -27.2030  -27.3210   20.2280 C   0  0  0  0  0  0  0  0  0  0  0  0
  -23.5260  -30.2390   21.7410 C   0  0  0  0  0  3  0  0  0  0  0  0
  -24.8590  -28.9470   20.0990 C   0  0  0  0  0  0  0  0  0  0  0  0
  -25.9280  -30.8590   21.3760 C   0  0  0  0  0  2  0  0  0  0  0  0
  -26.0280  -29.4730   20.6900 C   0  0  0  0  0  0  0  0  0  0  0  0
  -27.1950  -28.6580   20.7430 C   0  0  0  0  0  3  0  0  0  0  0  0
  -26.0070  -26.8450   19.6530 C   0  0  0  0  0  3  0  0  0  0  0  0
  -24.8490  -27.6410   19.5870 C   0  0  0  0  0  3  0  0  0  0  0  0
  -23.5720  -29.7390   20.2780 C   0  0  0  0  0  2  0  0  0  0  0  0
  -24.6470  -31.1320   22.1170 N   0  0  0  0  0  0  0  0  0  0  0  0
  -23.4850  -32.1610   23.7760 O   0  0  0  0  0  0  0  0  0  0  0  0
  -22.6350  -29.4860   22.7540 C   0  0  0  0  0  0  0  0  0  0  0  0
  -21.3360  -29.3230   22.4880 N   0  0  0  0  0  0  0  0  0  0  0  0
  -23.1500  -28.9330   23.7400 O   0  0  0  0  0  0  0  0  0  0  0  0
  -20.9310  -29.7780   21.6810 H   0  0  0  0  0  0  0  0  0  0  0  0
  -17.9580  -28.1410   22.9840 C   0  0  0  0  0  0  0  0  0  0  0  0
  -20.4990  -28.4010   23.2560 C   0  0  0  0  0  3  0  0  0  0  0  0
  -20.6170  -26.9610   22.7050 C   0  0  0  0  0  2  0  0  0  0  0  0
  -19.5220  -26.6160   21.6950 C   0  0  0  0  0  2  0  0  0  0  0  0
  -18.1360  -26.7800   22.3280 C   0  0  0  0  0  2  0  0  0  0  0  0
  -19.0730  -28.9100   23.4010 C   0  0  0  0  0  0  0  0  0  0  0  0
  -18.8640  -30.1780   23.9800 C   0  0  0  0  0  3  0  0  0  0  0  0
  -17.5620  -30.6840   24.1440 C   0  0  0  0  0  3  0  0  0  0  0  0
  -16.4570  -29.9140   23.7410 C   0  0  0  0  0  3  0  0  0  0  0  0
  -16.6560  -28.6450   23.1670 C   0  0  0  0  0  3  0  0  0  0  0  0
  -25.8440  -32.5590   23.8600 C   0  0  0  0  0  3  0  0  0  0  0  0
  -25.5250  -33.9580   24.1760 N   0  0  0  0  0  0  0  0  0  0  0  0
  -25.8750  -35.0040   23.4170 C   0  0  0  0  0  0  0  0  0  0  0  0
  -26.5620  -34.8920   22.3980 O   0  0  0  0  0  0  0  0  0  0  0  0
  -24.9170  -34.1170   24.9660 H   0  0  0  0  0  0  0  0  0  0  0  0
  -24.1770  -36.8130   23.0030 C   0  0  0  0  0  1  0  0  0  0  0  0
  -25.3860  -36.3980   23.8570 C   0  0  0  0  0  3  0  0  0  0  0  0
  -27.4990  -37.2620   24.7610 C   0  0  0  0  0  1  0  0  0  0  0  0
  -26.4330  -37.4410   23.7790 N   0  0  0  0  0  0  0  0  0  0  0  0
  -26.0320  -38.3660   23.9120 H   0  0  0  0  0  0  0  0  0  0  0  0
  -26.3540  -31.8020   25.1470 C   0  0  1  0  0  0  0  0  0  0  0  0
  -25.2600  -31.5740   26.2160 C   0  0  0  0  0  1  0  0  0  0  0  0
  -26.9380  -30.4210   24.7690 C   0  0  0  0  0  1  0  0  0  0  0  0
  -27.5020  -32.6060   25.8050 C   0  0  0  0  0  1  0  0  0  0  0  0
  2  3  1  0
  2  5  1  0
  3  6  1  0
  3  4  1  0
  4  8  1  0
  5  4  1  0
  5  1  1  0
  5  7  1  6
  8 17  1  0
  9 17  1  0
 10 15  1  0
 11 12  1  0
 11 10  1  0
 13 12  1  0
 13 22  1  0
 13 14  1  0
 15  9  1  0
 15 14  1  0
 16  9  2  0
 17 18  1  0
 19 20  2  0
 20 39  1  0
 21 20  1  0
 21 24  1  0
 22 19  1  0
 22 23  1  0
 23 21  2  0
 24 25  1  0
 25 26  2  0
 27 30  1  0
 27 26  1  0
 28 27  2  0
 29 28  1  0
 29 24  2  0
 30 31  1  0
 31 32  1  0
 32 33  2  0
 34 33  1  0
 34 38  1  0
 35 34  2  0
 36 31  2  0
 36 35  1  0
 37 36  1  0
 39 40  1  0
 40 43  1  0
 40 42  1  0
 41 39  2  0
 44 45  1  0
 44 19  1  0
 46 44  1  0
 47 48  1  0
 47  1  2  0
 50 49  1  0
 50 51  1  0
 50 48  1  0
 52 63  2  0
 53 51  1  0
 53 58  1  0
 54 62  1  0
 54 64  1  0
 55 61  1  0
 55 57  1  0
 56 62  1  0
 57 58  2  0
 57 56  1  0
 59 53  2  0
 60 59  1  0
 60 55  2  0
 61 54  1  0
 62 52  1  0
 64 66  2  0
 65 64  1  0
 67 65  1  0
 68 77  2  0
 68 73  1  0
 69 65  1  0
 69 73  1  0
 70 69  1  0
 71 72  1  0
 71 70  1  0
 72 68  1  0
 73 74  2  0
 74 75  1  0
 76 75  2  0
 77 76  1  0
 78 52  1  0
 78 79  1  0
 78 88  1  0
 79 82  1  0
 80 84  1  0
 80 79  1  0
 81 80  2  0
 84 83  1  0
 86 84  1  0
 86 87  1  0
 86 85  1  0
 88 91  1  1
 88 89  1  0
 90 88  1  0
M  ISO  4   9 100  17 100  50 101  51 101
M  END
>  <TORSDO>  (23) 
F 21

>  <SCORE>  (23) 
-13.579

>  <name>  (23) 
22

>  <ligand_id>  (23) 
22

>  <original_smiles>  (23) 
[H]c1c([H])c([H])c2c(c1[H])C([H])([H])C([H])([H])C([H])([H])C2([H])N([H])C(=O)C1([H])N(C(=O)C([H])(N([H])C(=O)C([H])(N([H])C([H])([H])[H])C([H])([H])[H])C(C([H])([H])[H])(C([H])([H])[H])C([H])([H])[H])C([H])([H])c2c([H])c(OC([H])(C([H])([H])[H])C([H])([H])C([H])([H])C([H])([H])[N+]3([H])C([H])([H])C([H])(F)C3([H])C([H])([H])N([H])C(=O)N3C([H])([H])C([H])([H])C([H])([H])C([H])(n4nc(-c5c([H])c([H])c(Oc6c([H])c([H])c(F)c([H])c6F)c([H])c5[H])c(C(=O)N([H])[H])c4N([H])[H])C3([H])[H])c([H])c([H])c2C1([H])[H]

>  <smiles>  (23) 
[H]c1c([H])c([H])c2c(c1[H])C([H])([H])C([H])([H])C([H])([H])C2([H])N([H])C(=O)C1([H])N(C(=O)C([H])(N([H])C(=O)C([H])(N([H])C([H])([H])[H])C([H])([H])[H])C(C([H])([H])[H])(C([H])([H])[H])C([H])([H])[H])C([H])([H])c2c([H])c(OC([H])(C([H])([H])[H])C([H])([H])C([H])([H])C([H])([H])[N+]3([H])C([H])([H])C([H])(F)C3([H])C([H])([H])N([H])C(=O)N3C([H])([H])C([H])([H])C([H])([H])C([H])(n4nc(-c5c([H])c([H])c(Oc6c([H])c([H])c(F)c([H])c6F)c([H])c5[H])c(C(=O)N([H])[H])c4N([H])[H])C3([H])[H])c([H])c([H])c2C1([H])[H]

$$$$
23:0:0
     RDKit          3D

 91 99  0  0  1  0  0  0  0  0999 V2000
  -29.6190  -20.8920   21.2110 C   0  0  0  0  0  2  0  0  0  0  0  0
  -28.4600  -17.9810   19.9030 C   0  0  0  0  0  2  0  0  0  0  0  0
  -28.1900  -19.4710   19.7360 C   0  0  0  0  0  2  0  0  0  0  0  0
  -29.4940  -18.3900   20.9520 C   0  0  0  0  0  3  0  0  0  0  0  0
  -29.5130  -19.7170   20.3080 N   0  0  2  0  0  4  0  0  0  0  0  0
  -30.2080  -19.7440   19.5780 H   0  0  0  0  0  0  0  0  0  0  0  0
  -30.8730  -17.7150   20.9900 C   0  0  0  0  0  2  0  0  0  0  0  0
  -30.9480  -16.4520   21.8810 C   0  0  0  0  0  2  0  0  0  0  0  0
  -30.7260  -14.4220   20.4470 C   0  0  0  0  0  0  0  0  0  0  0  0
  -30.3290  -12.3460   19.1710 C   0  0  0  0  0  2  0  0  0  0  0  0
  -29.3690  -12.6040   17.9950 C   0  0  0  0  0  2  0  0  0  0  0  0
  -27.9010  -12.4750   18.4460 C   0  0  0  0  0  2  0  0  0  0  0  0
  -27.6020  -13.2780   19.7400 C   0  0  0  0  0  3  0  0  0  0  0  0
  -28.6690  -13.0010   20.8220 C   0  0  0  0  0  2  0  0  0  0  0  0
  -29.9940  -13.2930   20.2460 N   0  0  0  0  0  0  0  0  0  0  0  0
  -31.7750  -14.6630   19.8430 O   0  0  0  0  0  0  0  0  0  0  0  0
  -30.2390  -15.2810   21.3540 N   0  0  0  0  0  0  0  0  0  0  0  0
  -29.3730  -15.0230   21.8030 H   0  0  0  0  0  0  0  0  0  0  0  0
  -25.2130  -13.9000   20.4700 C   0  0  0  0  0  0  0  0  0  0  0  0
  -24.1440  -13.1340   20.8530 C   0  0  0  0  0  0  0  0  0  0  0  0
  -24.5970  -11.7800   20.8180 C   0  0  0  0  0  0  0  0  0  0  0  0
  -26.2510  -13.0120   20.2310 N   0  0  0  0  0  0  0  0  0  0  0  0
  -25.8830  -11.7310   20.4940 N   0  0  0  0  0  0  0  0  0  0  0  0
  -23.8650  -10.5230   21.0190 C   0  0  0  0  0  0  0  0  0  0  0  0
  -24.3120   -9.5460   21.9360 C   0  0  0  0  0  3  0  0  0  0  0  0
  -23.5800   -8.3530   22.1260 C   0  0  0  0  0  3  0  0  0  0  0  0
  -22.3880   -8.1290   21.3970 C   0  0  0  0  0  0  0  0  0  0  0  0
  -21.9590   -9.0940   20.4700 C   0  0  0  0  0  3  0  0  0  0  0  0
  -22.6910  -10.2790   20.2790 C   0  0  0  0  0  3  0  0  0  0  0  0
  -21.6270   -6.9880   21.4950 O   0  0  0  0  0  0  0  0  0  0  0  0
  -21.6130   -6.2290   22.6380 C   0  0  0  0  0  0  0  0  0  0  0  0
  -21.2540   -6.7730   23.8910 C   0  0  0  0  0  3  0  0  0  0  0  0
  -21.1850   -5.9410   25.0260 C   0  0  0  0  0  3  0  0  0  0  0  0
  -21.4670   -4.5670   24.9110 C   0  0  0  0  0  0  0  0  0  0  0  0
  -21.8200   -4.0230   23.6640 C   0  0  0  0  0  3  0  0  0  0  0  0
  -21.8900   -4.8500   22.5310 C   0  0  0  0  0  0  0  0  0  0  0  0
  -22.2110   -4.3170   21.3270 F   0  0  0  0  0  0  0  0  0  0  0  0
  -21.3930   -3.7660   26.0000 F   0  0  0  0  0  0  0  0  0  0  0  0
  -22.7530  -13.6210   21.1410 C   0  0  0  0  0  0  0  0  0  0  0  0
  -22.0310  -12.9310   22.0170 N   0  0  0  0  0  0  0  0  0  0  0  0
  -22.3140  -14.6480   20.6230 O   0  0  0  0  0  0  0  0  0  0  0  0
  -22.3980  -12.0990   22.4560 H   0  0  0  0  0  0  0  0  0  0  0  0
  -21.0980  -13.2400   22.2510 H   0  0  0  0  0  0  0  0  0  0  0  0
  -25.3820  -15.2690   20.2880 N   0  0  0  0  0  0  0  0  0  0  0  0
  -24.6160  -15.9250   20.4000 H   0  0  0  0  0  0  0  0  0  0  0  0
  -26.2280  -15.6990   19.9400 H   0  0  0  0  0  0  0  0  0  0  0  0
  -29.5520  -22.2470   20.4640 C   0  0  0  0  0  2  0  0  0  0  0  0
  -29.8100  -23.4450   21.4000 C   0  0  0  0  0  2  0  0  0  0  0  0
  -29.7610  -24.8380   20.7350 C   0  0  0  0  0  2  0  0  0  0  0  0
  -28.3470  -25.3740   20.4540 C   0  0  0  0  0  2  0  0  0  0  0  0
  -28.4270  -26.7770   20.1940 O   0  0  0  0  0  0  0  0  0  0  0  0
  -24.5850  -31.9260   23.2350 C   0  0  0  0  0  0  0  0  0  0  0  0
  -27.2390  -27.4720   20.1950 C   0  0  0  0  0  0  0  0  0  0  0  0
  -23.3810  -30.5140   21.5980 C   0  0  0  0  0  3  0  0  0  0  0  0
  -24.8380  -28.9620   20.1940 C   0  0  0  0  0  0  0  0  0  0  0  0
  -25.9060  -30.8740   21.4020 C   0  0  0  0  0  2  0  0  0  0  0  0
  -25.9930  -29.4980   20.7740 C   0  0  0  0  0  0  0  0  0  0  0  0
  -27.1970  -28.7610   20.7670 C   0  0  0  0  0  3  0  0  0  0  0  0
  -26.0630  -26.9400   19.6170 C   0  0  0  0  0  3  0  0  0  0  0  0
  -24.8660  -27.6820   19.6120 C   0  0  0  0  0  3  0  0  0  0  0  0
  -23.5930  -29.8200   20.2270 C   0  0  0  0  0  2  0  0  0  0  0  0
  -24.6420  -31.1200   22.1380 N   0  0  0  0  0  0  0  0  0  0  0  0
  -23.5030  -32.2040   23.7700 O   0  0  0  0  0  0  0  0  0  0  0  0
  -22.7260  -29.5020   22.5650 C   0  0  0  0  0  0  0  0  0  0  0  0
  -21.4010  -29.3240   22.4350 N   0  0  0  0  0  0  0  0  0  0  0  0
  -23.4060  -28.8780   23.3840 O   0  0  0  0  0  0  0  0  0  0  0  0
  -20.9140  -29.8800   21.7470 H   0  0  0  0  0  0  0  0  0  0  0  0
  -18.0210  -28.1530   22.9300 C   0  0  0  0  0  0  0  0  0  0  0  0
  -20.5780  -28.3960   23.2080 C   0  0  0  0  0  3  0  0  0  0  0  0
  -20.6730  -26.9610   22.6380 C   0  0  0  0  0  2  0  0  0  0  0  0
  -19.5720  -26.6420   21.6220 C   0  0  0  0  0  2  0  0  0  0  0  0
  -18.1890  -26.7990   22.2620 C   0  0  0  0  0  2  0  0  0  0  0  0
  -19.1420  -28.9090   23.3600 C   0  0  0  0  0  0  0  0  0  0  0  0
  -18.9310  -30.1780   23.9420 C   0  0  0  0  0  3  0  0  0  0  0  0
  -17.6290  -30.6890   24.1020 C   0  0  0  0  0  3  0  0  0  0  0  0
  -16.5200  -29.9290   23.6880 C   0  0  0  0  0  3  0  0  0  0  0  0
  -16.7180  -28.6630   23.1080 C   0  0  0  0  0  3  0  0  0  0  0  0
  -25.8710  -32.5570   23.8570 C   0  0  0  0  0  3  0  0  0  0  0  0
  -25.5660  -33.9570   24.1800 N   0  0  0  0  0  0  0  0  0  0  0  0
  -25.9070  -35.0050   23.4170 C   0  0  0  0  0  0  0  0  0  0  0  0
  -26.5820  -34.8940   22.3890 O   0  0  0  0  0  0  0  0  0  0  0  0
  -24.9730  -34.1180   24.9810 H   0  0  0  0  0  0  0  0  0  0  0  0
  -24.1830  -36.7940   23.0400 C   0  0  0  0  0  1  0  0  0  0  0  0
  -25.4180  -36.3950   23.8640 C   0  0  0  0  0  3  0  0  0  0  0  0
  -27.5530  -37.2740   24.7010 C   0  0  0  0  0  1  0  0  0  0  0  0
  -26.4530  -37.4470   23.7550 N   0  0  0  0  0  0  0  0  0  0  0  0
  -26.0470  -38.3660   23.9090 H   0  0  0  0  0  0  0  0  0  0  0  0
  -26.3870  -31.7880   25.1340 C   0  0  1  0  0  0  0  0  0  0  0  0
  -25.2940  -31.5490   26.2010 C   0  0  0  0  0  1  0  0  0  0  0  0
  -26.9730  -30.4130   24.7380 C   0  0  0  0  0  1  0  0  0  0  0  0
  -27.5380  -32.5840   25.7960 C   0  0  0  0  0  1  0  0  0  0  0  0
  2  4  1  0
  3  2  1  0
  3  5  1  0
  4  7  1  0
  5  4  1  0
  5  1  1  0
  5  6  1  6
  7  8  1  0
  9 17  1  0
 10 15  1  0
 11 12  1  0
 11 10  1  0
 13 12  1  0
 13 22  1  0
 13 14  1  0
 15  9  1  0
 15 14  1  0
 16  9  2  0
 17 18  1  0
 17  8  1  0
 19 20  2  0
 20 39  1  0
 21 20  1  0
 21 24  1  0
 22 19  1  0
 22 23  1  0
 23 21  2  0
 24 25  1  0
 25 26  2  0
 27 30  1  0
 27 26  1  0
 28 27  2  0
 29 28  1  0
 29 24  2  0
 30 31  1  0
 31 32  1  0
 32 33  2  0
 34 33  1  0
 34 38  1  0
 35 34  2  0
 36 31  2  0
 36 35  1  0
 37 36  1  0
 39 40  1  0
 40 43  1  0
 40 42  1  0
 41 39  2  0
 44 45  1  0
 44 19  1  0
 46 44  1  0
 47  1  1  0
 47 48  1  0
 49 48  1  0
 50 49  1  0
 51 53  1  0
 51 50  1  0
 52 63  2  0
 53 58  1  0
 54 62  1  0
 54 64  1  0
 55 61  1  0
 55 57  1  0
 56 62  1  0
 57 56  1  0
 58 57  2  0
 59 53  2  0
 60 59  1  0
 60 55  2  0
 61 54  1  0
 62 52  1  0
 64 66  2  0
 65 64  1  0
 67 65  1  0
 68 77  2  0
 68 73  1  0
 69 65  1  0
 69 73  1  0
 70 69  1  0
 71 72  1  0
 71 70  1  0
 72 68  1  0
 73 74  2  0
 74 75  1  0
 76 75  2  0
 77 76  1  0
 78 52  1  0
 78 79  1  0
 78 88  1  0
 79 82  1  0
 80 84  1  0
 80 79  1  0
 81 80  2  0
 84 83  1  0
 86 84  1  0
 86 87  1  0
 86 85  1  0
 88 91  1  1
 88 89  1  0
 90 88  1  0
M  ISO  4   9 100  17 100  50 101  51 101
M  END
>  <TORSDO>  (24) 
F 23

>  <SCORE>  (24) 
-13.011

>  <name>  (24) 
23

>  <ligand_id>  (24) 
23

>  <original_smiles>  (24) 
[H]c1c([H])c([H])c2c(c1[H])C([H])([H])C([H])([H])C([H])([H])C2([H])N([H])C(=O)C1([H])N(C(=O)C([H])(N([H])C(=O)C([H])(N([H])C([H])([H])[H])C([H])([H])[H])C(C([H])([H])[H])(C([H])([H])[H])C([H])([H])[H])C([H])([H])c2c([H])c(OC([H])([H])C([H])([H])C([H])([H])C([H])([H])C([H])([H])[N+]3([H])C([H])([H])C([H])([H])C3([H])C([H])([H])C([H])([H])N([H])C(=O)N3C([H])([H])C([H])([H])C([H])([H])C([H])(n4nc(-c5c([H])c([H])c(Oc6c([H])c([H])c(F)c([H])c6F)c([H])c5[H])c(C(=O)N([H])[H])c4N([H])[H])C3([H])[H])c([H])c([H])c2C1([H])[H]

>  <smiles>  (24) 
[H]c1c([H])c([H])c2c(c1[H])C([H])([H])C([H])([H])C([H])([H])C2([H])N([H])C(=O)C1([H])N(C(=O)C([H])(N([H])C(=O)C([H])(N([H])C([H])([H])[H])C([H])([H])[H])C(C([H])([H])[H])(C([H])([H])[H])C([H])([H])[H])C([H])([H])c2c([H])c(OC([H])([H])C([H])([H])C([H])([H])C([H])([H])C([H])([H])[N+]3([H])C([H])([H])C([H])([H])C3([H])C([H])([H])C([H])([H])N([H])C(=O)N3C([H])([H])C([H])([H])C([H])([H])C([H])(n4nc(-c5c([H])c([H])c(Oc6c([H])c([H])c(F)c([H])c6F)c([H])c5[H])c(C(=O)N([H])[H])c4N([H])[H])C3([H])[H])c([H])c([H])c2C1([H])[H]

$$$$
24:0:0
     RDKit          3D

 95103  0  0  1  0  0  0  0  0999 V2000
  -28.2210  -21.1700   22.5130 N   0  0  0  0  0  4  0  0  0  0  0  0
  -27.7210  -21.5260   23.3090 H   0  0  0  0  0  0  0  0  0  0  0  0
  -28.1450  -20.1670   22.5210 H   0  0  0  0  0  0  0  0  0  0  0  0
  -29.6520  -21.4990   22.6690 C   0  0  0  0  0  2  0  0  0  0  0  0
  -30.5500  -20.2500   22.5160 C   0  0  0  0  0  2  0  0  0  0  0  0
  -31.5380  -19.0930   19.5520 C   0  0  0  0  0  2  0  0  0  0  0  0
  -31.2520  -20.4430   20.2020 C   0  0  0  0  0  2  0  0  0  0  0  0
  -31.3110  -18.5060   20.9550 C   0  0  0  0  0  3  0  0  0  0  0  0
  -30.4600  -19.6840   21.1690 N   0  0  0  0  0  0  0  0  0  0  0  0
  -30.6020  -17.1560   21.1440 C   0  0  0  0  0  2  0  0  0  0  0  0
  -31.8640  -15.1660   20.3190 C   0  0  0  0  0  0  0  0  0  0  0  0
  -31.5890  -12.8820   19.4740 C   0  0  0  0  0  2  0  0  0  0  0  0
  -30.7120  -12.9520   18.2050 C   0  0  0  0  0  2  0  0  0  0  0  0
  -29.2140  -12.8910   18.5710 C   0  0  0  0  0  2  0  0  0  0  0  0
  -28.8310  -13.8790   19.7070 C   0  0  0  0  0  3  0  0  0  0  0  0
  -29.8320  -13.8000   20.8830 C   0  0  0  0  0  2  0  0  0  0  0  0
  -31.1830  -13.9940   20.3390 N   0  0  0  0  0  0  0  0  0  0  0  0
  -33.0450  -15.2580   19.9860 O   0  0  0  0  0  0  0  0  0  0  0  0
  -31.0870  -16.2360   20.1250 N   0  0  0  0  0  0  0  0  0  0  0  0
  -31.4580  -16.7790   19.3610 H   0  0  0  0  0  0  0  0  0  0  0  0
  -26.4630  -14.6140   20.3920 C   0  0  0  0  0  0  0  0  0  0  0  0
  -25.3410  -13.9000   20.7180 C   0  0  0  0  0  0  0  0  0  0  0  0
  -25.7200  -12.5240   20.6580 C   0  0  0  0  0  0  0  0  0  0  0  0
  -27.4560  -13.6770   20.1550 N   0  0  0  0  0  0  0  0  0  0  0  0
  -27.0110  -12.4130   20.3730 N   0  0  0  0  0  0  0  0  0  0  0  0
  -24.9150  -11.3040   20.7980 C   0  0  0  0  0  0  0  0  0  0  0  0
  -25.2240  -10.3220   21.7660 C   0  0  0  0  0  3  0  0  0  0  0  0
  -24.4270   -9.1650   21.8930 C   0  0  0  0  0  3  0  0  0  0  0  0
  -23.3030   -8.9820   21.0520 C   0  0  0  0  0  0  0  0  0  0  0  0
  -23.0120   -9.9500   20.0760 C   0  0  0  0  0  3  0  0  0  0  0  0
  -23.8120  -11.0990   19.9460 C   0  0  0  0  0  3  0  0  0  0  0  0
  -22.4840   -7.8800   21.0890 O   0  0  0  0  0  0  0  0  0  0  0  0
  -22.2250   -7.2150   22.2600 C   0  0  0  0  0  0  0  0  0  0  0  0
  -21.6420   -7.8630   23.3710 C   0  0  0  0  0  3  0  0  0  0  0  0
  -21.3280   -7.1250   24.5300 C   0  0  0  0  0  3  0  0  0  0  0  0
  -21.5840   -5.7420   24.5780 C   0  0  0  0  0  0  0  0  0  0  0  0
  -22.1580   -5.0950   23.4700 C   0  0  0  0  0  3  0  0  0  0  0  0
  -22.4750   -5.8280   22.3130 C   0  0  0  0  0  0  0  0  0  0  0  0
  -23.0090   -5.1960   21.2410 F   0  0  0  0  0  0  0  0  0  0  0  0
  -21.2750   -5.0310   25.6880 F   0  0  0  0  0  0  0  0  0  0  0  0
  -23.9700  -14.4530   20.9780 C   0  0  0  0  0  0  0  0  0  0  0  0
  -23.1920  -13.7920   21.8270 N   0  0  0  0  0  0  0  0  0  0  0  0
  -23.5980  -15.5070   20.4620 O   0  0  0  0  0  0  0  0  0  0  0  0
  -23.5050  -12.9400   22.2670 H   0  0  0  0  0  0  0  0  0  0  0  0
  -22.2690  -14.1440   22.0440 H   0  0  0  0  0  0  0  0  0  0  0  0
  -26.7170  -15.9760   20.2580 N   0  0  0  0  0  0  0  0  0  0  0  0
  -25.9910  -16.6780   20.3650 H   0  0  0  0  0  0  0  0  0  0  0  0
  -27.6050  -16.3620   19.9640 H   0  0  0  0  0  0  0  0  0  0  0  0
  -27.5570  -21.6610   21.2850 C   0  0  0  0  0  2  0  0  0  0  0  0
  -27.3150  -23.1890   21.2910 C   0  0  0  0  0  2  0  0  0  0  0  0
  -28.3130  -23.8970   20.4910 N   0  0  0  0  0  0  0  0  0  0  0  0
  -28.2030  -23.6050   19.5240 H   0  0  0  0  0  0  0  0  0  0  0  0
  -28.0780  -25.3390   20.5570 C   0  0  0  0  0  2  0  0  0  0  0  0
  -28.6720  -26.0480   19.3180 C   0  0  0  0  0  2  0  0  0  0  0  0
  -28.5620  -27.4690   19.4040 O   0  0  0  0  0  0  0  0  0  0  0  0
  -24.4430  -31.8750   23.1130 C   0  0  0  0  0  0  0  0  0  0  0  0
  -27.3110  -28.0370   19.4910 C   0  0  0  0  0  0  0  0  0  0  0  0
  -23.2810  -30.5310   21.3930 C   0  0  0  0  0  3  0  0  0  0  0  0
  -24.7880  -29.2830   19.7580 C   0  0  0  0  0  0  0  0  0  0  0  0
  -25.7460  -31.1520   21.1170 C   0  0  0  0  0  2  0  0  0  0  0  0
  -25.9200  -29.8630   20.3400 C   0  0  0  0  0  0  0  0  0  0  0  0
  -27.1820  -29.2480   20.2020 C   0  0  0  0  0  3  0  0  0  0  0  0
  -26.1580  -27.4670   18.8990 C   0  0  0  0  0  3  0  0  0  0  0  0
  -24.9010  -28.0840   19.0350 C   0  0  0  0  0  3  0  0  0  0  0  0
  -23.4750  -30.0080   19.9430 C   0  0  0  0  0  2  0  0  0  0  0  0
  -24.5100  -31.1960   21.9330 N   0  0  0  0  0  0  0  0  0  0  0  0
  -23.3730  -31.9900   23.7260 O   0  0  0  0  0  0  0  0  0  0  0  0
  -22.7760  -29.3650   22.2720 C   0  0  0  0  0  0  0  0  0  0  0  0
  -21.4770  -29.0500   22.1580 N   0  0  0  0  0  0  0  0  0  0  0  0
  -23.5510  -28.7500   23.0100 O   0  0  0  0  0  0  0  0  0  0  0  0
  -20.9090  -29.6060   21.5340 H   0  0  0  0  0  0  0  0  0  0  0  0
  -18.2730  -27.4430   22.5970 C   0  0  0  0  0  0  0  0  0  0  0  0
  -20.7890  -27.9670   22.8600 C   0  0  0  0  0  3  0  0  0  0  0  0
  -21.0420  -26.6080   22.1670 C   0  0  0  0  0  2  0  0  0  0  0  0
  -19.9630  -26.2440   21.1430 C   0  0  0  0  0  2  0  0  0  0  0  0
  -18.5870  -26.1800   21.8130 C   0  0  0  0  0  2  0  0  0  0  0  0
  -19.3070  -28.2890   23.0750 C   0  0  0  0  0  0  0  0  0  0  0  0
  -18.9600  -29.4690   23.7690 C   0  0  0  0  0  3  0  0  0  0  0  0
  -17.6120  -29.8050   23.9890 C   0  0  0  0  0  3  0  0  0  0  0  0
  -16.5920  -28.9550   23.5280 C   0  0  0  0  0  3  0  0  0  0  0  0
  -16.9230  -27.7760   22.8380 C   0  0  0  0  0  3  0  0  0  0  0  0
  -25.6990  -32.5610   23.7340 C   0  0  0  0  0  3  0  0  0  0  0  0
  -26.2760  -31.7880   24.9830 C   0  0  1  0  0  0  0  0  0  0  0  0
  -25.2140  -31.4590   26.0570 C   0  0  0  0  0  1  0  0  0  0  0  0
  -26.9310  -30.4560   24.5440 C   0  0  0  0  0  1  0  0  0  0  0  0
  -27.3880  -32.6290   25.6520 C   0  0  0  0  0  1  0  0  0  0  0  0
  -25.3190  -33.9320   24.1000 N   0  0  0  0  0  0  0  0  0  0  0  0
  -25.6060  -35.0190   23.3720 C   0  0  0  0  0  0  0  0  0  0  0  0
  -26.2900  -34.9770   22.3450 O   0  0  0  0  0  0  0  0  0  0  0  0
  -24.7100  -34.0360   24.8990 H   0  0  0  0  0  0  0  0  0  0  0  0
  -23.8000  -36.7370   23.0380 C   0  0  0  0  0  1  0  0  0  0  0  0
  -25.0450  -36.3690   23.8610 C   0  0  0  0  0  3  0  0  0  0  0  0
  -27.1200  -37.3300   24.7560 C   0  0  0  0  0  1  0  0  0  0  0  0
  -26.0270  -37.4720   23.7960 N   0  0  0  0  0  0  0  0  0  0  0  0
  -25.5760  -38.3670   23.9620 H   0  0  0  0  0  0  0  0  0  0  0  0
  1  3  1  0
  1  4  1  0
  1  2  1  0
  5  4  1  0
  6  7  1  0
  6  8  1  0
  7  9  1  0
  8 10  1  0
  8  9  1  0
  9  5  1  0
 11 17  1  0
 12 17  1  0
 13 14  1  0
 13 12  1  0
 15 14  1  0
 15 24  1  0
 15 16  1  0
 17 16  1  0
 18 11  2  0
 19 11  1  0
 19 10  1  0
 20 19  1  0
 21 22  2  0
 22 41  1  0
 23 22  1  0
 23 26  1  0
 24 25  1  0
 24 21  1  0
 25 23  2  0
 26 27  1  0
 27 28  2  0
 29 32  1  0
 29 28  1  0
 30 29  2  0
 31 30  1  0
 31 26  2  0
 32 33  1  0
 33 38  2  0
 33 34  1  0
 34 35  2  0
 35 36  1  0
 36 40  1  0
 37 36  2  0
 38 37  1  0
 39 38  1  0
 41 42  1  0
 42 45  1  0
 42 44  1  0
 43 41  2  0
 46 47  1  0
 46 21  1  0
 48 46  1  0
 49 50  1  0
 49  1  1  0
 51 53  1  0
 51 50  1  0
 52 51  1  0
 54 55  1  0
 54 53  1  0
 55 57  1  0
 56 67  2  0
 57 62  1  0
 58 66  1  0
 58 68  1  0
 59 65  1  0
 59 61  1  0
 60 66  1  0
 61 60  1  0
 62 61  2  0
 63 64  1  0
 63 57  2  0
 64 59  2  0
 65 58  1  0
 66 56  1  0
 68 70  2  0
 69 68  1  0
 71 69  1  0
 72 81  2  0
 72 77  1  0
 73 69  1  0
 73 77  1  0
 74 73  1  0
 75 76  1  0
 75 74  1  0
 76 72  1  0
 77 78  2  0
 78 79  1  0
 80 79  2  0
 81 80  1  0
 82 56  1  0
 82 87  1  0
 82 83  1  0
 83 86  1  1
 83 84  1  0
 85 83  1  0
 87 90  1  0
 88 92  1  0
 88 87  1  0
 89 88  2  0
 92 91  1  0
 94 92  1  0
 94 95  1  0
 94 93  1  0
M  ISO  4  11 100  19 100  54 101  55 101
M  END
>  <TORSDO>  (25) 
F 25

>  <SCORE>  (25) 
-8.822

>  <name>  (25) 
24

>  <ligand_id>  (25) 
24

>  <original_smiles>  (25) 
[H]c1c([H])c([H])c2c(c1[H])C([H])([H])C([H])([H])C([H])([H])C2([H])N([H])C(=O)C1([H])N(C(=O)C([H])(N([H])C(=O)C([H])(N([H])C([H])([H])[H])C([H])([H])[H])C(C([H])([H])[H])(C([H])([H])[H])C([H])([H])[H])C([H])([H])c2c([H])c(OC([H])([H])C([H])([H])N([H])C([H])([H])C([H])([H])[N+]([H])([H])C([H])([H])C([H])([H])N3C([H])([H])C([H])([H])C3([H])C([H])([H])N([H])C(=O)N3C([H])([H])C([H])([H])C([H])([H])C([H])(n4nc(-c5c([H])c([H])c(Oc6c([H])c([H])c(F)c([H])c6F)c([H])c5[H])c(C(=O)N([H])[H])c4N([H])[H])C3([H])[H])c([H])c([H])c2C1([H])[H]

>  <smiles>  (25) 
[H]c1c([H])c([H])c2c(c1[H])C([H])([H])C([H])([H])C([H])([H])C2([H])N([H])C(=O)C1([H])N(C(=O)C([H])(N([H])C(=O)C([H])(N([H])C([H])([H])[H])C([H])([H])[H])C(C([H])([H])[H])(C([H])([H])[H])C([H])([H])[H])C([H])([H])c2c([H])c(OC([H])([H])C([H])([H])N([H])C([H])([H])C([H])([H])[N+]([H])([H])C([H])([H])C([H])([H])N3C([H])([H])C([H])([H])C3([H])C([H])([H])N([H])C(=O)N3C([H])([H])C([H])([H])C([H])([H])C([H])(n4nc(-c5c([H])c([H])c(Oc6c([H])c([H])c(F)c([H])c6F)c([H])c5[H])c(C(=O)N([H])[H])c4N([H])[H])C3([H])[H])c([H])c([H])c2C1([H])[H]

$$$$
25:0:0
     RDKit          3D

 94102  0  0  1  0  0  0  0  0999 V2000
  -28.6690  -22.6070   21.0920 C   0  0  0  0  0  0  0  0  0  0  0  0
  -27.8440  -23.6120   21.3960 N   0  0  0  0  0  0  0  0  0  0  0  0
  -29.7750  -22.7760   20.5780 O   0  0  0  0  0  0  0  0  0  0  0  0
  -26.9510  -23.3600   21.7980 H   0  0  0  0  0  0  0  0  0  0  0  0
  -27.8870  -20.3010   20.2460 C   0  0  0  0  0  2  0  0  0  0  0  0
  -29.1570  -20.4970   22.4450 C   0  0  0  0  0  2  0  0  0  0  0  0
  -29.1380  -19.6260   19.6470 C   0  0  0  0  0  2  0  0  0  0  0  0
  -30.3710  -19.8570   21.7420 C   0  0  0  0  0  2  0  0  0  0  0  0
  -28.1840  -21.1970   21.4700 C   0  0  0  0  0  3  0  0  0  0  0  0
  -29.9080  -18.9080   20.6970 N   0  0  2  0  0  4  0  0  0  0  0  0
  -29.2520  -18.2850   21.1430 H   0  0  0  0  0  0  0  0  0  0  0  0
  -30.9610  -18.0200   20.1400 C   0  0  0  0  0  2  0  0  0  0  0  0
  -31.5470  -17.0400   21.1900 C   0  0  0  0  0  2  0  0  0  0  0  0
  -31.6890  -14.7730   20.1090 C   0  0  0  0  0  0  0  0  0  0  0  0
  -31.2660  -12.6330   18.9540 C   0  0  0  0  0  2  0  0  0  0  0  0
  -30.3030  -12.8500   17.7700 C   0  0  0  0  0  2  0  0  0  0  0  0
  -28.8310  -12.7970   18.2310 C   0  0  0  0  0  2  0  0  0  0  0  0
  -28.5630  -13.6880   19.4720 C   0  0  0  0  0  3  0  0  0  0  0  0
  -29.6190  -13.4090   20.5630 C   0  0  0  0  0  2  0  0  0  0  0  0
  -30.9590  -13.6360   19.9800 N   0  0  0  0  0  0  0  0  0  0  0  0
  -32.7250  -15.0100   19.4820 O   0  0  0  0  0  0  0  0  0  0  0  0
  -31.1460  -15.6590   20.9480 N   0  0  0  0  0  0  0  0  0  0  0  0
  -30.3190  -15.3350   21.4270 H   0  0  0  0  0  0  0  0  0  0  0  0
  -26.2340  -14.4570   20.2670 C   0  0  0  0  0  0  0  0  0  0  0  0
  -25.1220  -13.7550   20.6480 C   0  0  0  0  0  0  0  0  0  0  0  0
  -25.4780  -12.3760   20.5570 C   0  0  0  0  0  0  0  0  0  0  0  0
  -27.2030  -13.5080   19.9780 N   0  0  0  0  0  0  0  0  0  0  0  0
  -26.7510  -12.2490   20.2050 N   0  0  0  0  0  0  0  0  0  0  0  0
  -24.6640  -11.1640   20.7280 C   0  0  0  0  0  0  0  0  0  0  0  0
  -25.0000  -10.1800   21.6830 C   0  0  0  0  0  3  0  0  0  0  0  0
  -24.1940   -9.0320   21.8410 C   0  0  0  0  0  3  0  0  0  0  0  0
  -23.0380   -8.8620   21.0430 C   0  0  0  0  0  0  0  0  0  0  0  0
  -22.7210   -9.8350   20.0780 C   0  0  0  0  0  3  0  0  0  0  0  0
  -23.5270  -10.9740   19.9180 C   0  0  0  0  0  3  0  0  0  0  0  0
  -22.2090   -7.7680   21.1100 O   0  0  0  0  0  0  0  0  0  0  0  0
  -21.9860   -7.1050   22.2890 C   0  0  0  0  0  0  0  0  0  0  0  0
  -21.4620   -7.7600   23.4260 C   0  0  0  0  0  3  0  0  0  0  0  0
  -21.1830   -7.0260   24.5960 C   0  0  0  0  0  3  0  0  0  0  0  0
  -21.4170   -5.6390   24.6300 C   0  0  0  0  0  0  0  0  0  0  0  0
  -21.9320   -4.9830   23.4980 C   0  0  0  0  0  3  0  0  0  0  0  0
  -22.2130   -5.7150   22.3300 C   0  0  0  0  0  0  0  0  0  0  0  0
  -22.6910   -5.0740   21.2350 F   0  0  0  0  0  0  0  0  0  0  0  0
  -21.1410   -4.9310   25.7500 F   0  0  0  0  0  0  0  0  0  0  0  0
  -23.7730  -14.3250   20.9800 C   0  0  0  0  0  0  0  0  0  0  0  0
  -23.0290  -13.6660   21.8610 N   0  0  0  0  0  0  0  0  0  0  0  0
  -23.3910  -15.3890   20.4940 O   0  0  0  0  0  0  0  0  0  0  0  0
  -23.3500  -12.8050   22.2770 H   0  0  0  0  0  0  0  0  0  0  0  0
  -22.1240  -14.0280   22.1240 H   0  0  0  0  0  0  0  0  0  0  0  0
  -26.4940  -15.8160   20.1220 N   0  0  0  0  0  0  0  0  0  0  0  0
  -25.7610  -16.5080   20.2270 H   0  0  0  0  0  0  0  0  0  0  0  0
  -27.3300  -16.1860   19.6890 H   0  0  0  0  0  0  0  0  0  0  0  0
  -28.1360  -25.0400   21.3390 C   0  0  0  0  0  2  0  0  0  0  0  0
  -28.4470  -25.5520   19.9190 C   0  0  0  0  0  2  0  0  0  0  0  0
  -28.4440  -26.9800   19.9020 O   0  0  0  0  0  0  0  0  0  0  0  0
  -24.5870  -31.9430   23.2120 C   0  0  0  0  0  0  0  0  0  0  0  0
  -27.2340  -27.6370   19.9550 C   0  0  0  0  0  0  0  0  0  0  0  0
  -23.3660  -30.5700   21.5570 C   0  0  0  0  0  3  0  0  0  0  0  0
  -24.8110  -29.0890   20.0690 C   0  0  0  0  0  0  0  0  0  0  0  0
  -25.8830  -30.9700   21.3200 C   0  0  0  0  0  2  0  0  0  0  0  0
  -25.9730  -29.6200   20.6430 C   0  0  0  0  0  0  0  0  0  0  0  0
  -27.1860  -28.9020   20.5800 C   0  0  0  0  0  3  0  0  0  0  0  0
  -26.0490  -27.1120   19.3870 C   0  0  0  0  0  3  0  0  0  0  0  0
  -24.8410  -27.8320   19.4420 C   0  0  0  0  0  3  0  0  0  0  0  0
  -23.5580  -29.9270   20.1580 C   0  0  0  0  0  2  0  0  0  0  0  0
  -24.6320  -31.1740   22.0880 N   0  0  0  0  0  0  0  0  0  0  0  0
  -23.5130  -32.1870   23.7790 O   0  0  0  0  0  0  0  0  0  0  0  0
  -22.7470  -29.5140   22.5010 C   0  0  0  0  0  0  0  0  0  0  0  0
  -21.4290  -29.3010   22.3760 N   0  0  0  0  0  0  0  0  0  0  0  0
  -23.4510  -28.8920   23.3010 O   0  0  0  0  0  0  0  0  0  0  0  0
  -20.9200  -29.8590   21.7040 H   0  0  0  0  0  0  0  0  0  0  0  0
  -18.0910  -27.9950   22.8380 C   0  0  0  0  0  0  0  0  0  0  0  0
  -20.6370  -28.3280   23.1290 C   0  0  0  0  0  3  0  0  0  0  0  0
  -20.7890  -26.9080   22.5380 C   0  0  0  0  0  2  0  0  0  0  0  0
  -19.7030  -26.5610   21.5150 C   0  0  0  0  0  2  0  0  0  0  0  0
  -18.3150  -26.6580   22.1520 C   0  0  0  0  0  2  0  0  0  0  0  0
  -19.1840  -28.7870   23.2840 C   0  0  0  0  0  0  0  0  0  0  0  0
  -18.9240  -30.0380   23.8830 C   0  0  0  0  0  3  0  0  0  0  0  0
  -17.6030  -30.4990   24.0430 C   0  0  0  0  0  3  0  0  0  0  0  0
  -16.5250  -29.7040   23.6160 C   0  0  0  0  0  3  0  0  0  0  0  0
  -16.7700  -28.4540   23.0180 C   0  0  0  0  0  3  0  0  0  0  0  0
  -25.8790  -32.5720   23.8250 C   0  0  0  0  0  3  0  0  0  0  0  0
  -25.5700  -33.9670   24.1690 N   0  0  0  0  0  0  0  0  0  0  0  0
  -25.8970  -35.0250   23.4150 C   0  0  0  0  0  0  0  0  0  0  0  0
  -26.5630  -34.9300   22.3810 O   0  0  0  0  0  0  0  0  0  0  0  0
  -24.9800  -34.1140   24.9740 H   0  0  0  0  0  0  0  0  0  0  0  0
  -24.1630  -36.8140   23.0830 C   0  0  0  0  0  1  0  0  0  0  0  0
  -25.4090  -36.4090   23.8850 C   0  0  0  0  0  3  0  0  0  0  0  0
  -27.5460  -37.2920   24.7100 C   0  0  0  0  0  1  0  0  0  0  0  0
  -26.4380  -37.4650   23.7740 N   0  0  0  0  0  0  0  0  0  0  0  0
  -26.0300  -38.3830   23.9330 H   0  0  0  0  0  0  0  0  0  0  0  0
  -26.4130  -31.7900   25.0870 C   0  0  1  0  0  0  0  0  0  0  0  0
  -25.3320  -31.5310   26.1620 C   0  0  0  0  0  1  0  0  0  0  0  0
  -27.0020  -30.4220   24.6700 C   0  0  0  0  0  1  0  0  0  0  0  0
  -27.5620  -32.5860   25.7490 C   0  0  0  0  0  1  0  0  0  0  0  0
  1  2  1  0
  2  4  1  0
  3  1  2  0
  5  9  1  0
  7  5  1  0
  7 10  1  0
  8  6  1  0
  9  1  1  0
  9  6  1  0
 10 11  1  1
 10  8  1  0
 12 10  1  0
 12 13  1  0
 14 22  1  0
 15 20  1  0
 16 17  1  0
 16 15  1  0
 18 17  1  0
 18 27  1  0
 18 19  1  0
 20 14  1  0
 20 19  1  0
 21 14  2  0
 22 13  1  0
 22 23  1  0
 24 25  2  0
 25 44  1  0
 26 25  1  0
 26 29  1  0
 27 28  1  0
 27 24  1  0
 28 26  2  0
 29 30  1  0
 30 31  2  0
 32 35  1  0
 32 31  1  0
 33 32  2  0
 34 33  1  0
 34 29  2  0
 35 36  1  0
 36 41  2  0
 36 37  1  0
 37 38  2  0
 38 39  1  0
 39 43  1  0
 40 39  2  0
 41 40  1  0
 42 41  1  0
 44 45  1  0
 45 48  1  0
 45 47  1  0
 46 44  2  0
 49 50  1  0
 49 24  1  0
 51 49  1  0
 52  2  1  0
 53 52  1  0
 54 53  1  0
 54 56  1  0
 55 66  2  0
 56 61  1  0
 57 65  1  0
 57 67  1  0
 58 64  1  0
 58 60  1  0
 59 65  1  0
 60 59  1  0
 61 60  2  0
 62 63  1  0
 62 56  2  0
 63 58  2  0
 64 57  1  0
 65 55  1  0
 67 69  2  0
 68 67  1  0
 70 68  1  0
 71 80  2  0
 71 76  1  0
 72 68  1  0
 72 76  1  0
 73 72  1  0
 74 75  1  0
 74 73  1  0
 75 71  1  0
 76 77  2  0
 77 78  1  0
 79 78  2  0
 80 79  1  0
 81 55  1  0
 81 82  1  0
 81 91  1  0
 82 85  1  0
 83 87  1  0
 83 82  1  0
 84 83  2  0
 87 86  1  0
 89 87  1  0
 89 90  1  0
 89 88  1  0
 91 94  1  1
 91 92  1  0
 93 91  1  0
M  ISO  4  14 100  22 100  53 101  54 101
M  END
>  <TORSDO>  (26) 
F 21

>  <SCORE>  (26) 
-10.998

>  <name>  (26) 
25

>  <ligand_id>  (26) 
25

>  <original_smiles>  (26) 
[H]c1c([H])c([H])c2c(c1[H])C([H])([H])C([H])([H])C([H])([H])C2([H])N([H])C(=O)C1([H])N(C(=O)C([H])(N([H])C(=O)C([H])(N([H])C([H])([H])[H])C([H])([H])[H])C(C([H])([H])[H])(C([H])([H])[H])C([H])([H])[H])C([H])([H])c2c([H])c(OC([H])([H])C([H])([H])N([H])C(=O)C3([H])C([H])([H])C([H])([H])[N+]([H])(C([H])([H])C([H])([H])N([H])C(=O)N4C([H])([H])C([H])([H])C([H])([H])C([H])(n5nc(-c6c([H])c([H])c(Oc7c([H])c([H])c(F)c([H])c7F)c([H])c6[H])c(C(=O)N([H])[H])c5N([H])[H])C4([H])[H])C([H])([H])C3([H])[H])c([H])c([H])c2C1([H])[H]

>  <smiles>  (26) 
[H]c1c([H])c([H])c2c(c1[H])C([H])([H])C([H])([H])C([H])([H])C2([H])N([H])C(=O)C1([H])N(C(=O)C([H])(N([H])C(=O)C([H])(N([H])C([H])([H])[H])C([H])([H])[H])C(C([H])([H])[H])(C([H])([H])[H])C([H])([H])[H])C([H])([H])c2c([H])c(OC([H])([H])C([H])([H])N([H])C(=O)C3([H])C([H])([H])C([H])([H])[N+]([H])(C([H])([H])C([H])([H])N([H])C(=O)N4C([H])([H])C([H])([H])C([H])([H])C([H])(n5nc(-c6c([H])c([H])c(Oc7c([H])c([H])c(F)c([H])c7F)c([H])c6[H])c(C(=O)N([H])[H])c5N([H])[H])C4([H])[H])C([H])([H])C3([H])[H])c([H])c([H])c2C1([H])[H]

$$$$
26:0:0
     RDKit          3D

 95103  0  0  1  0  0  0  0  0999 V2000
  -31.4070  -20.7530   21.0220 C   0  0  0  0  0  3  0  0  0  0  0  0
  -29.7450  -18.6770   20.1440 C   0  0  0  0  0  3  0  0  0  0  0  0
  -31.5670  -19.4540   21.5570 C   0  0  0  0  0  0  0  0  0  0  0  0
  -30.4260  -21.0380   20.0520 C   0  0  0  0  0  0  0  0  0  0  0  0
  -30.7310  -18.3890   21.1190 C   0  0  0  0  0  0  0  0  0  0  0  0
  -29.5930  -19.9820   19.6120 C   0  0  0  0  0  0  0  0  0  0  0  0
  -28.6500  -20.2130   18.6680 F   0  0  0  0  0  0  0  0  0  0  0  0
  -32.6700  -19.2300   22.5840 C   0  0  0  0  0  3  0  0  0  0  0  0
  -32.8340  -20.3010   23.3630 F   0  0  0  0  0  0  0  0  0  0  0  0
  -33.8200  -18.9710   21.9620 F   0  0  0  0  0  0  0  0  0  0  0  0
  -30.3460  -22.4520   19.4620 C   0  0  0  0  0  2  0  0  0  0  0  0
  -29.1170  -23.2980   19.8840 C   0  0  0  0  0  2  0  0  0  0  0  0
  -29.2630  -24.8270   19.6300 C   0  0  0  0  0  3  0  0  0  0  0  0
  -29.7200  -25.0130   18.3900 F   0  0  0  0  0  0  0  0  0  0  0  0
  -27.9220  -25.5910   19.7600 C   0  0  0  0  0  2  0  0  0  0  0  0
  -28.0460  -27.0290   19.7920 O   0  0  0  0  0  0  0  0  0  0  0  0
  -24.4460  -32.1100   23.2960 C   0  0  0  0  0  0  0  0  0  0  0  0
  -26.8710  -27.7620   19.8920 C   0  0  0  0  0  0  0  0  0  0  0  0
  -23.1330  -30.7720   21.6870 C   0  0  0  0  0  3  0  0  0  0  0  0
  -24.4870  -29.2860   20.1190 C   0  0  0  0  0  0  0  0  0  0  0  0
  -25.6450  -31.1280   21.3450 C   0  0  0  0  0  2  0  0  0  0  0  0
  -25.6850  -29.7810   20.6480 C   0  0  0  0  0  0  0  0  0  0  0  0
  -26.8800  -29.0280   20.5280 C   0  0  0  0  0  3  0  0  0  0  0  0
  -25.6450  -27.2900   19.3620 C   0  0  0  0  0  3  0  0  0  0  0  0
  -24.4630  -28.0410   19.4750 C   0  0  0  0  0  3  0  0  0  0  0  0
  -23.2520  -30.1450   20.2730 C   0  0  0  0  0  2  0  0  0  0  0  0
  -24.4300  -31.3480   22.1660 N   0  0  0  0  0  0  0  0  0  0  0  0
  -23.4030  -32.3650   23.9130 O   0  0  0  0  0  0  0  0  0  0  0  0
  -22.5400  -29.7150   22.6470 C   0  0  0  0  0  0  0  0  0  0  0  0
  -21.2240  -29.4710   22.5310 N   0  0  0  0  0  0  0  0  0  0  0  0
  -23.2600  -29.1190   23.4540 O   0  0  0  0  0  0  0  0  0  0  0  0
  -20.7030  -30.0070   21.8510 H   0  0  0  0  0  0  0  0  0  0  0  0
  -17.9310  -28.0540   22.9850 C   0  0  0  0  0  0  0  0  0  0  0  0
  -20.4590  -28.4930   23.3030 C   0  0  0  0  0  3  0  0  0  0  0  0
  -20.6720  -27.0620   22.7570 C   0  0  0  0  0  2  0  0  0  0  0  0
  -19.6170  -26.6450   21.7280 C   0  0  0  0  0  2  0  0  0  0  0  0
  -18.2150  -26.7070   22.3410 C   0  0  0  0  0  2  0  0  0  0  0  0
  -18.9850  -28.9000   23.4220 C   0  0  0  0  0  0  0  0  0  0  0  0
  -18.6680  -30.1560   23.9810 C   0  0  0  0  0  3  0  0  0  0  0  0
  -17.3290  -30.5710   24.1070 C   0  0  0  0  0  3  0  0  0  0  0  0
  -16.2900  -29.7240   23.6880 C   0  0  0  0  0  3  0  0  0  0  0  0
  -16.5910  -28.4670   23.1320 C   0  0  0  0  0  3  0  0  0  0  0  0
  -25.7700  -32.7150   23.8570 C   0  0  0  0  0  3  0  0  0  0  0  0
  -25.5100  -34.1230   24.1800 N   0  0  0  0  0  0  0  0  0  0  0  0
  -25.8550  -35.1590   23.4020 C   0  0  0  0  0  0  0  0  0  0  0  0
  -26.4970  -35.0260   22.3570 O   0  0  0  0  0  0  0  0  0  0  0  0
  -24.9370  -34.3020   24.9920 H   0  0  0  0  0  0  0  0  0  0  0  0
  -24.1740  -36.9980   23.0630 C   0  0  0  0  0  1  0  0  0  0  0  0
  -25.4170  -36.5650   23.8560 C   0  0  0  0  0  3  0  0  0  0  0  0
  -27.5880  -37.3950   24.6470 C   0  0  0  0  0  1  0  0  0  0  0  0
  -26.4790  -37.5850   23.7160 N   0  0  0  0  0  0  0  0  0  0  0  0
  -26.1020  -38.5180   23.8560 H   0  0  0  0  0  0  0  0  0  0  0  0
  -26.3220  -31.9430   25.1170 C   0  0  1  0  0  0  0  0  0  0  0  0
  -25.2630  -31.7220   26.2230 C   0  0  0  0  0  1  0  0  0  0  0  0
  -26.8770  -30.5580   24.7100 C   0  0  0  0  0  1  0  0  0  0  0  0
  -27.5030  -32.7270   25.7360 C   0  0  0  0  0  1  0  0  0  0  0  0
  -30.8990  -16.9860   21.7360 C   0  0  0  0  0  2  0  0  0  0  0  0
  -30.8070  -14.8710   20.4140 C   0  0  0  0  0  0  0  0  0  0  0  0
  -30.5560  -12.6720   19.3080 C   0  0  0  0  0  2  0  0  0  0  0  0
  -29.5970  -12.7670   18.1070 C   0  0  0  0  0  2  0  0  0  0  0  0
  -28.1410  -12.5630   18.5620 C   0  0  0  0  0  2  0  0  0  0  0  0
  -27.7670  -13.4410   19.7870 C   0  0  0  0  0  3  0  0  0  0  0  0
  -28.8420  -13.3470   20.8910 C   0  0  0  0  0  2  0  0  0  0  0  0
  -30.1430  -13.6880   20.2920 N   0  0  0  0  0  0  0  0  0  0  0  0
  -31.8980  -15.0780   19.8810 O   0  0  0  0  0  0  0  0  0  0  0  0
  -30.2040  -15.8360   21.1330 N   0  0  0  0  0  0  0  0  0  0  0  0
  -29.2740  -15.6440   21.4700 H   0  0  0  0  0  0  0  0  0  0  0  0
  -25.3700  -13.9510   20.5730 C   0  0  0  0  0  0  0  0  0  0  0  0
  -24.3350  -13.1370   20.9430 C   0  0  0  0  0  0  0  0  0  0  0  0
  -24.8350  -11.8010   20.8600 C   0  0  0  0  0  0  0  0  0  0  0  0
  -26.4360  -13.1100   20.2910 N   0  0  0  0  0  0  0  0  0  0  0  0
  -26.1190  -11.8100   20.5230 N   0  0  0  0  0  0  0  0  0  0  0  0
  -24.1500  -10.5130   21.0280 C   0  0  0  0  0  0  0  0  0  0  0  0
  -24.5850   -9.5620   21.9760 C   0  0  0  0  0  3  0  0  0  0  0  0
  -23.8980   -8.3380   22.1320 C   0  0  0  0  0  3  0  0  0  0  0  0
  -22.7600   -8.0570   21.3380 C   0  0  0  0  0  0  0  0  0  0  0  0
  -22.3440   -8.9980   20.3800 C   0  0  0  0  0  3  0  0  0  0  0  0
  -23.0320  -10.2130   20.2220 C   0  0  0  0  0  3  0  0  0  0  0  0
  -22.0460   -6.8860   21.4030 O   0  0  0  0  0  0  0  0  0  0  0  0
  -21.9320   -6.1750   22.5700 C   0  0  0  0  0  0  0  0  0  0  0  0
  -21.3520   -6.7330   23.7290 C   0  0  0  0  0  3  0  0  0  0  0  0
  -21.1920   -5.9450   24.8860 C   0  0  0  0  0  3  0  0  0  0  0  0
  -21.6030   -4.5980   24.8850 C   0  0  0  0  0  0  0  0  0  0  0  0
  -22.1760   -4.0380   23.7290 C   0  0  0  0  0  3  0  0  0  0  0  0
  -22.3370   -4.8240   22.5740 C   0  0  0  0  0  0  0  0  0  0  0  0
  -22.8710   -4.2740   21.4570 F   0  0  0  0  0  0  0  0  0  0  0  0
  -21.4410   -3.8390   25.9930 F   0  0  0  0  0  0  0  0  0  0  0  0
  -22.9310  -13.5660   21.2600 C   0  0  0  0  0  0  0  0  0  0  0  0
  -22.2440  -12.8230   22.1220 N   0  0  0  0  0  0  0  0  0  0  0  0
  -22.4500  -14.5910   20.7800 O   0  0  0  0  0  0  0  0  0  0  0  0
  -22.6450  -11.9930   22.5330 H   0  0  0  0  0  0  0  0  0  0  0  0
  -21.3050  -13.0900   22.3780 H   0  0  0  0  0  0  0  0  0  0  0  0
  -25.4920  -15.3310   20.4340 N   0  0  0  0  0  0  0  0  0  0  0  0
  -24.7120  -15.9610   20.5860 H   0  0  0  0  0  0  0  0  0  0  0  0
  -26.3220  -15.8050   20.1010 H   0  0  0  0  0  0  0  0  0  0  0  0
  1  3  1  0
  2  5  1  0
  3  8  1  0
  4  1  2  0
  5  3  2  0
  5 57  1  0
  6  4  1  0
  6  2  2  0
  7  6  1  0
  8  9  1  0
 10  8  1  0
 11 12  1  0
 11  4  1  0
 13 14  1  0
 13 15  1  0
 13 12  1  0
 15 16  1  0
 16 18  1  0
 17 28  2  0
 18 23  1  0
 19 27  1  0
 19 29  1  0
 20 26  1  0
 20 22  1  0
 21 27  1  0
 22 21  1  0
 23 22  2  0
 24 25  1  0
 24 18  2  0
 25 20  2  0
 26 19  1  0
 27 17  1  0
 29 31  2  0
 30 29  1  0
 32 30  1  0
 33 42  2  0
 33 38  1  0
 34 30  1  0
 34 38  1  0
 35 34  1  0
 36 37  1  0
 36 35  1  0
 37 33  1  0
 38 39  2  0
 39 40  1  0
 41 40  2  0
 42 41  1  0
 43 17  1  0
 43 44  1  0
 43 53  1  0
 44 47  1  0
 45 49  1  0
 45 44  1  0
 46 45  2  0
 49 48  1  0
 51 52  1  0
 51 49  1  0
 51 50  1  0
 53 56  1  1
 53 54  1  0
 55 53  1  0
 58 66  1  0
 59 64  1  0
 60 61  1  0
 60 59  1  0
 62 61  1  0
 62 71  1  0
 62 63  1  0
 64 58  1  0
 64 63  1  0
 65 58  2  0
 66 67  1  0
 66 57  1  0
 68 69  2  0
 69 88  1  0
 70 69  1  0
 70 73  1  0
 71 72  1  0
 71 68  1  0
 72 70  2  0
 73 74  1  0
 74 75  2  0
 76 79  1  0
 76 75  1  0
 77 76  2  0
 78 77  1  0
 78 73  2  0
 79 80  1  0
 80 85  2  0
 80 81  1  0
 81 82  2  0
 83 82  1  0
 83 87  1  0
 84 83  2  0
 85 84  1  0
 86 85  1  0
 88 89  1  0
 89 92  1  0
 89 91  1  0
 90 88  2  0
 93 68  1  0
 93 94  1  0
 95 93  1  0
M  ISO  4  15 101  16 101  58 100  66 100
M  END
>  <TORSDO>  (27) 
F 22

>  <SCORE>  (27) 
-12.711

>  <name>  (27) 
26

>  <ligand_id>  (27) 
26

>  <original_smiles>  (27) 
[H]c1c([H])c([H])c2c(c1[H])C([H])([H])C([H])([H])C([H])([H])C2([H])N([H])C(=O)C1([H])N(C(=O)C([H])(N([H])C(=O)C([H])(N([H])C([H])([H])[H])C([H])([H])[H])C(C([H])([H])[H])(C([H])([H])[H])C([H])([H])[H])C([H])([H])c2c([H])c(OC([H])([H])C([H])(F)C([H])([H])C([H])([H])c3c([H])c(C([H])(F)F)c(C([H])([H])N([H])C(=O)N4C([H])([H])C([H])([H])C([H])([H])C([H])(n5nc(-c6c([H])c([H])c(Oc7c([H])c([H])c(F)c([H])c7F)c([H])c6[H])c(C(=O)N([H])[H])c5N([H])[H])C4([H])[H])c([H])c3F)c([H])c([H])c2C1([H])[H]

>  <smiles>  (27) 
[H]c1c([H])c([H])c2c(c1[H])C([H])([H])C([H])([H])C([H])([H])C2([H])N([H])C(=O)C1([H])N(C(=O)C([H])(N([H])C(=O)C([H])(N([H])C([H])([H])[H])C([H])([H])[H])C(C([H])([H])[H])(C([H])([H])[H])C([H])([H])[H])C([H])([H])c2c([H])c(OC([H])([H])C([H])(F)C([H])([H])C([H])([H])c3c([H])c(C([H])(F)F)c(C([H])([H])N([H])C(=O)N4C([H])([H])C([H])([H])C([H])([H])C([H])(n5nc(-c6c([H])c([H])c(Oc7c([H])c([H])c(F)c([H])c7F)c([H])c6[H])c(C(=O)N([H])[H])c5N([H])[H])C4([H])[H])c([H])c3F)c([H])c([H])c2C1([H])[H]

$$$$
27:0:0
     RDKit          3D

 98106  0  0  1  0  0  0  0  0999 V2000
  -28.2120  -19.3670   20.8610 C   0  0  0  0  0  2  0  0  0  0  0  0
  -29.1110  -20.5410   21.2690 C   0  0  0  0  0  2  0  0  0  0  0  0
  -28.3670  -21.8090   21.3500 N   0  0  0  0  0  4  0  0  0  0  0  0
  -27.4580  -21.6790   21.7660 H   0  0  0  0  0  0  0  0  0  0  0  0
  -28.8860  -22.4030   21.9760 H   0  0  0  0  0  0  0  0  0  0  0  0
  -28.2630  -22.5590   20.0820 C   0  0  0  0  0  2  0  0  0  0  0  0
  -28.3510  -24.0430   20.4290 C   0  0  0  0  0  2  0  0  0  0  0  0
  -28.4490  -25.0190   19.2610 C   0  0  0  0  0  2  0  0  0  0  0  0
  -28.6760  -26.4220   19.8430 C   0  0  0  0  0  2  0  0  0  0  0  0
  -28.2960  -27.4430   18.9440 O   0  0  0  0  0  0  0  0  0  0  0  0
  -24.4050  -31.7510   23.0850 C   0  0  0  0  0  0  0  0  0  0  0  0
  -27.0780  -28.0070   19.2190 C   0  0  0  0  0  0  0  0  0  0  0  0
  -23.1590  -30.4750   21.3690 C   0  0  0  0  0  3  0  0  0  0  0  0
  -24.5890  -29.2480   19.6540 C   0  0  0  0  0  0  0  0  0  0  0  0
  -25.6220  -31.0630   21.0290 C   0  0  0  0  0  2  0  0  0  0  0  0
  -25.7500  -29.7930   20.2170 C   0  0  0  0  0  0  0  0  0  0  0  0
  -26.9990  -29.1710   20.0110 C   0  0  0  0  0  3  0  0  0  0  0  0
  -25.9030  -27.4640   18.6600 C   0  0  0  0  0  3  0  0  0  0  0  0
  -24.6560  -28.0740   18.8830 C   0  0  0  0  0  3  0  0  0  0  0  0
  -23.2970  -29.9940   19.8990 C   0  0  0  0  0  2  0  0  0  0  0  0
  -24.4170  -31.1040   21.8870 N   0  0  0  0  0  0  0  0  0  0  0  0
  -23.3590  -31.8650   23.7380 O   0  0  0  0  0  0  0  0  0  0  0  0
  -22.6670  -29.2910   22.2300 C   0  0  0  0  0  0  0  0  0  0  0  0
  -21.3610  -28.9900   22.1440 N   0  0  0  0  0  0  0  0  0  0  0  0
  -23.4550  -28.6500   22.9330 O   0  0  0  0  0  0  0  0  0  0  0  0
  -20.7810  -29.5720   21.5550 H   0  0  0  0  0  0  0  0  0  0  0  0
  -18.1720  -27.3450   22.5540 C   0  0  0  0  0  0  0  0  0  0  0  0
  -20.6820  -27.8940   22.8350 C   0  0  0  0  0  3  0  0  0  0  0  0
  -20.9510  -26.5420   22.1360 C   0  0  0  0  0  2  0  0  0  0  0  0
  -19.8820  -26.1730   21.1030 C   0  0  0  0  0  2  0  0  0  0  0  0
  -18.5040  -26.0890   21.7660 C   0  0  0  0  0  2  0  0  0  0  0  0
  -19.1950  -28.2000   23.0430 C   0  0  0  0  0  0  0  0  0  0  0  0
  -18.8330  -29.3740   23.7400 C   0  0  0  0  0  3  0  0  0  0  0  0
  -17.4790  -29.6960   23.9530 C   0  0  0  0  0  3  0  0  0  0  0  0
  -16.4700  -28.8380   23.4790 C   0  0  0  0  0  3  0  0  0  0  0  0
  -16.8170  -27.6650   22.7870 C   0  0  0  0  0  3  0  0  0  0  0  0
  -25.6970  -32.3940   23.6810 C   0  0  0  0  0  3  0  0  0  0  0  0
  -26.2990  -31.5740   24.8870 C   0  0  1  0  0  0  0  0  0  0  0  0
  -25.2690  -31.2490   25.9930 C   0  0  0  0  0  1  0  0  0  0  0  0
  -26.8960  -30.2370   24.3900 C   0  0  0  0  0  1  0  0  0  0  0  0
  -27.4630  -32.3630   25.5300 C   0  0  0  0  0  1  0  0  0  0  0  0
  -25.3580  -33.7610   24.0960 N   0  0  0  0  0  0  0  0  0  0  0  0
  -25.6620  -34.8630   23.3960 C   0  0  0  0  0  0  0  0  0  0  0  0
  -26.3310  -34.8350   22.3590 O   0  0  0  0  0  0  0  0  0  0  0  0
  -24.7660  -33.8560   24.9070 H   0  0  0  0  0  0  0  0  0  0  0  0
  -23.9000  -36.6370   23.1290 C   0  0  0  0  0  1  0  0  0  0  0  0
  -25.1400  -36.2100   23.9310 C   0  0  0  0  0  3  0  0  0  0  0  0
  -27.2420  -37.0890   24.8470 C   0  0  0  0  0  1  0  0  0  0  0  0
  -26.1500  -37.2900   23.8970 N   0  0  0  0  0  0  0  0  0  0  0  0
  -25.7210  -38.1900   24.0930 H   0  0  0  0  0  0  0  0  0  0  0  0
  -28.8720  -17.9830   21.0080 C   0  0  0  0  0  2  0  0  0  0  0  0
  -29.8650  -18.0950   18.7280 C   0  0  0  0  0  2  0  0  0  0  0  0
  -31.3390  -18.1660   20.6830 C   0  0  0  0  0  2  0  0  0  0  0  0
  -30.8640  -17.2680   17.8940 C   0  0  0  0  0  2  0  0  0  0  0  0
  -32.4590  -18.0640   19.6070 C   0  0  0  0  0  2  0  0  0  0  0  0
  -30.0280  -17.7510   20.1420 N   0  0  0  0  0  0  0  0  0  0  0  0
  -32.1000  -16.9830   18.6630 N   0  0  2  0  0  4  0  0  0  0  0  0
  -31.8180  -16.2760   19.3360 H   0  0  0  0  0  0  0  0  0  0  0  0
  -33.1900  -16.3230   17.9120 C   0  0  0  0  0  2  0  0  0  0  0  0
  -33.6790  -15.0570   18.6540 C   0  0  0  0  0  2  0  0  0  0  0  0
  -31.8690  -14.0630   20.1000 C   0  0  0  0  0  0  0  0  0  0  0  0
  -30.9120  -12.0570   19.1820 C   0  0  0  0  0  2  0  0  0  0  0  0
  -30.0300  -12.5130   18.0170 C   0  0  0  0  0  2  0  0  0  0  0  0
  -28.5850  -12.5820   18.5160 C   0  0  0  0  0  2  0  0  0  0  0  0
  -28.4050  -13.3970   19.8290 C   0  0  0  0  0  3  0  0  0  0  0  0
  -29.5650  -13.1640   20.8650 C   0  0  0  0  0  2  0  0  0  0  0  0
  -30.8690  -13.1430   20.1480 N   0  0  0  0  0  0  0  0  0  0  0  0
  -32.1470  -14.9130   20.8940 O   0  0  0  0  0  0  0  0  0  0  0  0
  -32.5910  -14.1080   18.9630 N   0  0  0  0  0  0  0  0  0  0  0  0
  -32.3940  -13.3930   18.2770 H   0  0  0  0  0  0  0  0  0  0  0  0
  -26.0290  -14.0690   20.6040 C   0  0  0  0  0  0  0  0  0  0  0  0
  -24.9270  -13.3260   20.9490 C   0  0  0  0  0  0  0  0  0  0  0  0
  -25.3250  -11.9600   20.8590 C   0  0  0  0  0  0  0  0  0  0  0  0
  -27.0480  -13.1590   20.3580 N   0  0  0  0  0  0  0  0  0  0  0  0
  -26.6190  -11.8830   20.5640 N   0  0  0  0  0  0  0  0  0  0  0  0
  -24.5360  -10.7220   20.9900 C   0  0  0  0  0  0  0  0  0  0  0  0
  -24.8480   -9.7490   21.9650 C   0  0  0  0  0  3  0  0  0  0  0  0
  -24.0640   -8.5820   22.0930 C   0  0  0  0  0  3  0  0  0  0  0  0
  -22.9500   -8.3800   21.2450 C   0  0  0  0  0  0  0  0  0  0  0  0
  -22.6530   -9.3390   20.2620 C   0  0  0  0  0  3  0  0  0  0  0  0
  -23.4390  -10.4980   20.1330 C   0  0  0  0  0  3  0  0  0  0  0  0
  -22.1460   -7.2650   21.2810 O   0  0  0  0  0  0  0  0  0  0  0  0
  -21.8640   -6.6170   22.4570 C   0  0  0  0  0  0  0  0  0  0  0  0
  -21.2160   -7.2680   23.5290 C   0  0  0  0  0  3  0  0  0  0  0  0
  -20.8870   -6.5470   24.6960 C   0  0  0  0  0  3  0  0  0  0  0  0
  -21.1980   -5.1770   24.7920 C   0  0  0  0  0  0  0  0  0  0  0  0
  -21.8370   -4.5280   23.7210 C   0  0  0  0  0  3  0  0  0  0  0  0
  -22.1680   -5.2460   22.5580 C   0  0  0  0  0  0  0  0  0  0  0  0
  -22.7670   -4.6060   21.5230 F   0  0  0  0  0  0  0  0  0  0  0  0
  -20.8770   -4.4820   25.9080 F   0  0  0  0  0  0  0  0  0  0  0  0
  -23.5510  -13.8530   21.2480 C   0  0  0  0  0  0  0  0  0  0  0  0
  -22.8050  -13.1580   22.1030 N   0  0  0  0  0  0  0  0  0  0  0  0
  -23.1460  -14.9070   20.7620 O   0  0  0  0  0  0  0  0  0  0  0  0
  -23.1470  -12.3000   22.5100 H   0  0  0  0  0  0  0  0  0  0  0  0
  -21.8810  -13.4850   22.3450 H   0  0  0  0  0  0  0  0  0  0  0  0
  -26.2470  -15.4330   20.4570 N   0  0  0  0  0  0  0  0  0  0  0  0
  -25.5050  -16.1190   20.5470 H   0  0  0  0  0  0  0  0  0  0  0  0
  -27.1230  -15.8310   20.1440 H   0  0  0  0  0  0  0  0  0  0  0  0
  1 51  1  0
  1  2  1  0
  2  3  1  0
  3  4  1  0
  3  5  1  0
  6  7  1  0
  6  3  1  0
  8  9  1  0
  8  7  1  0
 10 12  1  0
 10  9  1  0
 11 22  2  0
 12 17  1  0
 13 21  1  0
 13 23  1  0
 14 20  1  0
 14 16  1  0
 15 21  1  0
 16 15  1  0
 17 16  2  0
 18 19  1  0
 18 12  2  0
 19 14  2  0
 20 13  1  0
 21 11  1  0
 23 25  2  0
 24 23  1  0
 26 24  1  0
 27 36  2  0
 27 32  1  0
 28 24  1  0
 28 32  1  0
 29 28  1  0
 30 31  1  0
 30 29  1  0
 31 27  1  0
 32 33  2  0
 33 34  1  0
 35 34  2  0
 36 35  1  0
 37 11  1  0
 37 42  1  0
 37 38  1  0
 38 41  1  1
 38 39  1  0
 40 38  1  0
 42 45  1  0
 43 47  1  0
 43 42  1  0
 44 43  2  0
 47 46  1  0
 49 47  1  0
 49 50  1  0
 49 48  1  0
 52 56  1  0
 54 57  1  0
 54 52  1  0
 55 53  1  0
 56 53  1  0
 56 51  1  0
 57 58  1  1
 57 55  1  0
 59 60  1  0
 59 57  1  0
 60 69  1  0
 61 67  1  0
 61 68  2  0
 62 67  1  0
 63 64  1  0
 63 62  1  0
 65 64  1  0
 65 74  1  0
 65 66  1  0
 67 66  1  0
 69 61  1  0
 70 69  1  0
 71 72  2  0
 72 91  1  0
 73 72  1  0
 73 76  1  0
 74 75  1  0
 74 71  1  0
 75 73  2  0
 76 77  1  0
 77 78  2  0
 79 82  1  0
 79 78  1  0
 80 79  2  0
 81 80  1  0
 81 76  2  0
 82 83  1  0
 83 88  2  0
 83 84  1  0
 84 85  2  0
 85 86  1  0
 86 90  1  0
 87 86  2  0
 88 87  1  0
 89 88  1  0
 91 92  1  0
 92 95  1  0
 92 94  1  0
 93 91  2  0
 96 97  1  0
 96 71  1  0
 98 96  1  0
M  ISO  4   9 101  10 101  61 100  69 100
M  END
>  <TORSDO>  (28) 
F 26

>  <SCORE>  (28) 
-9.906

>  <name>  (28) 
27

>  <ligand_id>  (28) 
27

>  <original_smiles>  (28) 
[H]c1c([H])c([H])c2c(c1[H])C([H])([H])C([H])([H])C([H])([H])C2([H])N([H])C(=O)C1([H])N(C(=O)C([H])(N([H])C(=O)C([H])(N([H])C([H])([H])[H])C([H])([H])[H])C(C([H])([H])[H])(C([H])([H])[H])C([H])([H])[H])C([H])([H])c2c([H])c(OC([H])([H])C([H])([H])C([H])([H])C([H])([H])[N+]([H])([H])C([H])([H])C([H])([H])C([H])([H])N3C([H])([H])C([H])([H])[N+]([H])(C([H])([H])C([H])([H])N([H])C(=O)N4C([H])([H])C([H])([H])C([H])([H])C([H])(n5nc(-c6c([H])c([H])c(Oc7c([H])c([H])c(F)c([H])c7F)c([H])c6[H])c(C(=O)N([H])[H])c5N([H])[H])C4([H])[H])C([H])([H])C3([H])[H])c([H])c([H])c2C1([H])[H]

>  <smiles>  (28) 
[H]c1c([H])c([H])c2c(c1[H])C([H])([H])C([H])([H])C([H])([H])C2([H])N([H])C(=O)C1([H])N(C(=O)C([H])(N([H])C(=O)C([H])(N([H])C([H])([H])[H])C([H])([H])[H])C(C([H])([H])[H])(C([H])([H])[H])C([H])([H])[H])C([H])([H])c2c([H])c(OC([H])([H])C([H])([H])C([H])([H])C([H])([H])[N+]([H])([H])C([H])([H])C([H])([H])C([H])([H])N3C([H])([H])C([H])([H])[N+]([H])(C([H])([H])C([H])([H])N([H])C(=O)N4C([H])([H])C([H])([H])C([H])([H])C([H])(n5nc(-c6c([H])c([H])c(Oc7c([H])c([H])c(F)c([H])c7F)c([H])c6[H])c(C(=O)N([H])[H])c5N([H])[H])C4([H])[H])C([H])([H])C3([H])[H])c([H])c([H])c2C1([H])[H]

$$$$
28:0:0
     RDKit          3D

 96104  0  0  1  0  0  0  0  0999 V2000
  -31.7900  -23.0270   19.1050 C   0  0  0  0  0  2  0  0  0  0  0  0
  -30.8410  -21.9370   19.6060 C   0  0  0  0  0  2  0  0  0  0  0  0
  -31.0960  -20.6220   18.8630 C   0  0  0  0  0  2  0  0  0  0  0  0
  -29.9330  -17.0090   18.9170 C   0  0  0  0  0  2  0  0  0  0  0  0
  -29.7410  -17.8780   21.2210 C   0  0  0  0  0  2  0  0  0  0  0  0
  -30.5690  -18.3120   18.4360 C   0  0  0  0  0  2  0  0  0  0  0  0
  -30.3720  -19.2130   20.7770 C   0  0  0  0  0  2  0  0  0  0  0  0
  -30.3440  -16.7610   20.3750 C   0  0  0  0  0  3  0  0  0  0  0  0
  -30.2580  -19.4810   19.3070 N   0  0  1  0  0  4  0  0  0  0  0  0
  -29.2940  -19.7250   19.1280 H   0  0  0  0  0  0  0  0  0  0  0  0
  -30.7030  -14.3560   20.4110 C   0  0  0  0  0  0  0  0  0  0  0  0
  -30.3340  -12.2490   19.2310 C   0  0  0  0  0  2  0  0  0  0  0  0
  -29.3920  -12.5360   18.0440 C   0  0  0  0  0  2  0  0  0  0  0  0
  -27.9200  -12.4180   18.4830 C   0  0  0  0  0  2  0  0  0  0  0  0
  -27.6130  -13.2200   19.7770 C   0  0  0  0  0  3  0  0  0  0  0  0
  -28.6730  -12.9460   20.8690 C   0  0  0  0  0  2  0  0  0  0  0  0
  -30.0010  -13.2060   20.2940 N   0  0  0  0  0  0  0  0  0  0  0  0
  -31.8380  -14.5080   19.9520 O   0  0  0  0  0  0  0  0  0  0  0  0
  -29.9820  -15.4130   20.8010 N   0  0  0  0  0  0  0  0  0  0  0  0
  -29.0500  -15.2420   21.1500 H   0  0  0  0  0  0  0  0  0  0  0  0
  -25.2160  -13.8340   20.4880 C   0  0  0  0  0  0  0  0  0  0  0  0
  -24.1510  -13.0620   20.8680 C   0  0  0  0  0  0  0  0  0  0  0  0
  -24.6130  -11.7110   20.8430 C   0  0  0  0  0  0  0  0  0  0  0  0
  -26.2610  -12.9510   20.2600 N   0  0  0  0  0  0  0  0  0  0  0  0
  -25.9010  -11.6710   20.5280 N   0  0  0  0  0  0  0  0  0  0  0  0
  -23.8900  -10.4480   21.0440 C   0  0  0  0  0  0  0  0  0  0  0  0
  -24.3410   -9.4790   21.9680 C   0  0  0  0  0  3  0  0  0  0  0  0
  -23.6190   -8.2800   22.1560 C   0  0  0  0  0  3  0  0  0  0  0  0
  -22.4340   -8.0420   21.4220 C   0  0  0  0  0  0  0  0  0  0  0  0
  -22.0030   -9.0010   20.4870 C   0  0  0  0  0  3  0  0  0  0  0  0
  -22.7250  -10.1910   20.2960 C   0  0  0  0  0  3  0  0  0  0  0  0
  -21.6810   -6.8980   21.5190 O   0  0  0  0  0  0  0  0  0  0  0  0
  -21.6660   -6.1420   22.6640 C   0  0  0  0  0  0  0  0  0  0  0  0
  -21.2820   -6.6860   23.9100 C   0  0  0  0  0  3  0  0  0  0  0  0
  -21.2130   -5.8580   25.0480 C   0  0  0  0  0  3  0  0  0  0  0  0
  -21.5190   -4.4880   24.9430 C   0  0  0  0  0  0  0  0  0  0  0  0
  -21.8980   -3.9440   23.7030 C   0  0  0  0  0  3  0  0  0  0  0  0
  -21.9690   -4.7690   22.5660 C   0  0  0  0  0  0  0  0  0  0  0  0
  -22.3130   -4.2360   21.3690 F   0  0  0  0  0  0  0  0  0  0  0  0
  -21.4470   -3.6900   26.0340 F   0  0  0  0  0  0  0  0  0  0  0  0
  -22.7550  -13.5380   21.1460 C   0  0  0  0  0  0  0  0  0  0  0  0
  -22.0340  -12.8460   22.0220 N   0  0  0  0  0  0  0  0  0  0  0  0
  -22.3110  -14.5600   20.6230 O   0  0  0  0  0  0  0  0  0  0  0  0
  -22.4060  -12.0200   22.4650 H   0  0  0  0  0  0  0  0  0  0  0  0
  -21.0970  -13.1470   22.2510 H   0  0  0  0  0  0  0  0  0  0  0  0
  -25.3790  -15.2040   20.3010 N   0  0  0  0  0  0  0  0  0  0  0  0
  -24.6130  -15.8590   20.4080 H   0  0  0  0  0  0  0  0  0  0  0  0
  -26.2250  -15.6380   19.9540 H   0  0  0  0  0  0  0  0  0  0  0  0
  -31.5480  -24.3430   19.8380 C   0  0  0  0  0  2  0  0  0  0  0  0
  -32.4620  -25.4700   19.3300 C   0  0  0  0  0  2  0  0  0  0  0  0
  -31.8940  -26.7840   19.6690 N   0  0  0  0  0  4  0  0  0  0  0  0
  -32.6070  -27.4870   19.5430 H   0  0  0  0  0  0  0  0  0  0  0  0
  -31.6520  -26.7820   20.6470 H   0  0  0  0  0  0  0  0  0  0  0  0
  -30.7170  -27.1500   18.8460 C   0  0  0  0  0  2  0  0  0  0  0  0
  -29.6120  -27.8000   19.6810 C   0  0  0  0  0  2  0  0  0  0  0  0
  -28.5640  -26.8770   20.0440 O   0  0  0  0  0  0  0  0  0  0  0  0
  -24.6230  -31.8810   23.2460 C   0  0  0  0  0  0  0  0  0  0  0  0
  -27.3470  -27.5030   20.1930 C   0  0  0  0  0  0  0  0  0  0  0  0
  -23.4280  -30.4610   21.6010 C   0  0  0  0  0  3  0  0  0  0  0  0
  -24.9010  -28.9120   20.2100 C   0  0  0  0  0  0  0  0  0  0  0  0
  -25.9400  -30.8500   21.4110 C   0  0  0  0  0  2  0  0  0  0  0  0
  -26.0360  -29.4720   20.8030 C   0  0  0  0  0  0  0  0  0  0  0  0
  -27.2490  -28.7680   20.8150 C   0  0  0  0  0  3  0  0  0  0  0  0
  -26.1880  -26.9210   19.6390 C   0  0  0  0  0  3  0  0  0  0  0  0
  -24.9630  -27.6240   19.6410 C   0  0  0  0  0  3  0  0  0  0  0  0
  -23.6480  -29.7570   20.2320 C   0  0  0  0  0  2  0  0  0  0  0  0
  -24.6800  -31.0790   22.1460 N   0  0  0  0  0  0  0  0  0  0  0  0
  -23.5390  -32.1500   23.7830 O   0  0  0  0  0  0  0  0  0  0  0  0
  -22.7790  -29.4460   22.5680 C   0  0  0  0  0  0  0  0  0  0  0  0
  -21.4570  -29.2610   22.4340 N   0  0  0  0  0  0  0  0  0  0  0  0
  -23.4640  -28.8260   23.3860 O   0  0  0  0  0  0  0  0  0  0  0  0
  -20.9680  -29.8130   21.7430 H   0  0  0  0  0  0  0  0  0  0  0  0
  -18.0810  -28.0900   22.9330 C   0  0  0  0  0  0  0  0  0  0  0  0
  -20.6380  -28.3270   23.2050 C   0  0  0  0  0  3  0  0  0  0  0  0
  -20.7320  -26.8980   22.6250 C   0  0  0  0  0  2  0  0  0  0  0  0
  -19.6270  -26.5850   21.6100 C   0  0  0  0  0  2  0  0  0  0  0  0
  -18.2460  -26.7410   22.2550 C   0  0  0  0  0  2  0  0  0  0  0  0
  -19.2040  -28.8420   23.3650 C   0  0  0  0  0  0  0  0  0  0  0  0
  -18.9960  -30.1080   23.9550 C   0  0  0  0  0  3  0  0  0  0  0  0
  -17.6960  -30.6190   24.1230 C   0  0  0  0  0  3  0  0  0  0  0  0
  -16.5850  -29.8630   23.7090 C   0  0  0  0  0  3  0  0  0  0  0  0
  -16.7790  -28.6000   23.1200 C   0  0  0  0  0  3  0  0  0  0  0  0
  -25.9070  -32.5150   23.8690 C   0  0  0  0  0  3  0  0  0  0  0  0
  -25.5980  -33.9140   24.1930 N   0  0  0  0  0  0  0  0  0  0  0  0
  -25.9370  -34.9630   23.4310 C   0  0  0  0  0  0  0  0  0  0  0  0
  -26.6170  -34.8570   22.4070 O   0  0  0  0  0  0  0  0  0  0  0  0
  -24.9990  -34.0720   24.9910 H   0  0  0  0  0  0  0  0  0  0  0  0
  -24.2120  -36.7520   23.0480 C   0  0  0  0  0  1  0  0  0  0  0  0
  -25.4410  -36.3500   23.8790 C   0  0  0  0  0  3  0  0  0  0  0  0
  -27.5640  -37.2370   24.7370 C   0  0  0  0  0  1  0  0  0  0  0  0
  -26.4740  -37.4050   23.7800 N   0  0  0  0  0  0  0  0  0  0  0  0
  -26.0650  -38.3240   23.9260 H   0  0  0  0  0  0  0  0  0  0  0  0
  -26.4300  -31.7470   25.1450 C   0  0  1  0  0  0  0  0  0  0  0  0
  -25.3390  -31.4960   26.2100 C   0  0  0  0  0  1  0  0  0  0  0  0
  -27.0250  -30.3750   24.7480 C   0  0  0  0  0  1  0  0  0  0  0  0
  -27.5730  -32.5490   25.8120 C   0  0  0  0  0  1  0  0  0  0  0  0
  1  2  1  0
  1 49  1  0
  3  9  1  0
  3  2  1  0
  4  8  1  0
  6  4  1  0
  6  9  1  0
  7  5  1  0
  8 19  1  0
  8  5  1  0
  9  7  1  0
  9 10  1  1
 11 19  1  0
 12 17  1  0
 13 14  1  0
 13 12  1  0
 15 14  1  0
 15 24  1  0
 15 16  1  0
 17 11  1  0
 17 16  1  0
 18 11  2  0
 19 20  1  0
 21 22  2  0
 22 41  1  0
 23 22  1  0
 23 26  1  0
 24 21  1  0
 24 25  1  0
 25 23  2  0
 26 27  1  0
 27 28  2  0
 29 32  1  0
 29 28  1  0
 30 29  2  0
 31 30  1  0
 31 26  2  0
 32 33  1  0
 33 34  1  0
 34 35  2  0
 36 35  1  0
 36 40  1  0
 37 36  2  0
 38 33  2  0
 38 37  1  0
 39 38  1  0
 41 42  1  0
 42 45  1  0
 42 44  1  0
 43 41  2  0
 46 47  1  0
 46 21  1  0
 48 46  1  0
 50 51  1  0
 50 49  1  0
 51 53  1  0
 52 51  1  0
 54 51  1  0
 54 55  1  0
 55 56  1  0
 56 58  1  0
 57 68  2  0
 58 63  1  0
 59 67  1  0
 59 69  1  0
 60 66  1  0
 60 62  1  0
 61 67  1  0
 62 63  2  0
 62 61  1  0
 64 65  1  0
 64 58  2  0
 65 60  2  0
 66 59  1  0
 67 57  1  0
 69 71  2  0
 70 69  1  0
 72 70  1  0
 73 82  2  0
 73 78  1  0
 74 70  1  0
 74 78  1  0
 75 74  1  0
 76 77  1  0
 76 75  1  0
 77 73  1  0
 78 79  2  0
 79 80  1  0
 81 80  2  0
 82 81  1  0
 83 57  1  0
 83 84  1  0
 83 93  1  0
 84 87  1  0
 85 89  1  0
 85 84  1  0
 86 85  2  0
 89 88  1  0
 91 89  1  0
 91 92  1  0
 91 90  1  0
 93 96  1  1
 93 94  1  0
 95 93  1  0
M  ISO  4  11 100  19 100  55 101  56 101
M  END
>  <TORSDO>  (29) 
F 24

>  <SCORE>  (29) 
-12.354

>  <name>  (29) 
28

>  <ligand_id>  (29) 
28

>  <original_smiles>  (29) 
[H]c1c([H])c([H])c2c(c1[H])C([H])([H])C([H])([H])C([H])([H])C2([H])N([H])C(=O)C1([H])N(C(=O)C([H])(N([H])C(=O)C([H])(N([H])C([H])([H])[H])C([H])([H])[H])C(C([H])([H])[H])(C([H])([H])[H])C([H])([H])[H])C([H])([H])c2c([H])c(OC([H])([H])C([H])([H])[N+]([H])([H])C([H])([H])C([H])([H])C([H])([H])C([H])([H])C([H])([H])[N+]3([H])C([H])([H])C([H])([H])C([H])(N([H])C(=O)N4C([H])([H])C([H])([H])C([H])([H])C([H])(n5nc(-c6c([H])c([H])c(Oc7c([H])c([H])c(F)c([H])c7F)c([H])c6[H])c(C(=O)N([H])[H])c5N([H])[H])C4([H])[H])C([H])([H])C3([H])[H])c([H])c([H])c2C1([H])[H]

>  <smiles>  (29) 
[H]c1c([H])c([H])c2c(c1[H])C([H])([H])C([H])([H])C([H])([H])C2([H])N([H])C(=O)C1([H])N(C(=O)C([H])(N([H])C(=O)C([H])(N([H])C([H])([H])[H])C([H])([H])[H])C(C([H])([H])[H])(C([H])([H])[H])C([H])([H])[H])C([H])([H])c2c([H])c(OC([H])([H])C([H])([H])[N+]([H])([H])C([H])([H])C([H])([H])C([H])([H])C([H])([H])C([H])([H])[N+]3([H])C([H])([H])C([H])([H])C([H])(N([H])C(=O)N4C([H])([H])C([H])([H])C([H])([H])C([H])(n5nc(-c6c([H])c([H])c(Oc7c([H])c([H])c(F)c([H])c7F)c([H])c6[H])c(C(=O)N([H])[H])c5N([H])[H])C4([H])[H])C([H])([H])C3([H])[H])c([H])c([H])c2C1([H])[H]

$$$$
29:0:0
     RDKit          3D

 98106  0  0  1  0  0  0  0  0999 V2000
  -30.1730  -19.2610   19.8070 C   0  0  0  0  0  3  0  0  0  0  0  0
  -30.7850  -19.2880   17.4450 C   0  0  0  0  0  3  0  0  0  0  0  0
  -31.2770  -17.3320   18.8010 C   0  0  0  0  0  3  0  0  0  0  0  0
  -30.2130  -19.9290   18.5630 C   0  0  0  0  0  0  0  0  0  0  0  0
  -30.6950  -17.9540   19.9350 C   0  0  0  0  0  0  0  0  0  0  0  0
  -31.3250  -17.9930   17.5560 C   0  0  0  0  0  0  0  0  0  0  0  0
  -31.9340  -17.3320   16.3270 C   0  0  1  0  0  0  0  0  0  0  0  0
  -32.8260  -18.1510   15.7700 F   0  0  0  0  0  0  0  0  0  0  0  0
  -32.5440  -16.1850   16.6260 F   0  0  0  0  0  0  0  0  0  0  0  0
  -30.9740  -17.0780   15.4380 F   0  0  0  0  0  0  0  0  0  0  0  0
  -29.6400  -21.3260   18.3930 C   0  0  0  0  0  2  0  0  0  0  0  0
  -30.7220  -22.3660   18.0500 C   0  0  0  0  0  2  0  0  0  0  0  0
  -30.1260  -23.6960   17.7990 N   0  0  0  0  0  4  0  0  0  0  0  0
  -29.2480  -23.7590   18.2860 H   0  0  0  0  0  0  0  0  0  0  0  0
  -29.9180  -23.7560   16.8130 H   0  0  0  0  0  0  0  0  0  0  0  0
  -30.9460  -24.8700   18.1590 C   0  0  0  0  0  2  0  0  0  0  0  0
  -30.3920  -25.5860   19.4040 C   0  0  0  0  0  2  0  0  0  0  0  0
  -28.9860  -26.1640   19.1820 C   0  0  0  0  0  2  0  0  0  0  0  0
  -28.6470  -26.9840   20.2870 O   0  0  0  0  0  0  0  0  0  0  0  0
  -24.7040  -31.9950   23.3490 C   0  0  0  0  0  0  0  0  0  0  0  0
  -27.4340  -27.6330   20.2600 C   0  0  0  0  0  0  0  0  0  0  0  0
  -23.5170  -30.5700   21.7080 C   0  0  0  0  0  3  0  0  0  0  0  0
  -24.9980  -29.0650   20.2790 C   0  0  0  0  0  0  0  0  0  0  0  0
  -26.0310  -30.9850   21.5020 C   0  0  0  0  0  2  0  0  0  0  0  0
  -26.1410  -29.6150   20.8700 C   0  0  0  0  0  0  0  0  0  0  0  0
  -27.3540  -28.9000   20.8730 C   0  0  0  0  0  3  0  0  0  0  0  0
  -26.2710  -27.0830   19.6710 C   0  0  0  0  0  3  0  0  0  0  0  0
  -25.0560  -27.7950   19.6780 C   0  0  0  0  0  3  0  0  0  0  0  0
  -23.7340  -29.8930   20.3270 C   0  0  0  0  0  2  0  0  0  0  0  0
  -24.7680  -31.1980   22.2460 N   0  0  0  0  0  0  0  0  0  0  0  0
  -23.6210  -32.2470   23.8940 O   0  0  0  0  0  0  0  0  0  0  0  0
  -22.8900  -29.5360   22.6700 C   0  0  0  0  0  0  0  0  0  0  0  0
  -21.5870  -29.2660   22.4890 N   0  0  0  0  0  0  0  0  0  0  0  0
  -23.5730  -28.9800   23.5350 O   0  0  0  0  0  0  0  0  0  0  0  0
  -21.0970  -29.7700   21.7630 H   0  0  0  0  0  0  0  0  0  0  0  0
  -18.2920  -27.8250   22.8170 C   0  0  0  0  0  0  0  0  0  0  0  0
  -20.7950  -28.3010   23.2500 C   0  0  0  0  0  3  0  0  0  0  0  0
  -21.0490  -26.8580   22.7560 C   0  0  0  0  0  2  0  0  0  0  0  0
  -20.0510  -26.4010   21.6870 C   0  0  0  0  0  2  0  0  0  0  0  0
  -18.6200  -26.4640   22.2280 C   0  0  0  0  0  2  0  0  0  0  0  0
  -19.3130  -28.6940   23.2820 C   0  0  0  0  0  0  0  0  0  0  0  0
  -18.9560  -29.9620   23.7880 C   0  0  0  0  0  3  0  0  0  0  0  0
  -17.6090  -30.3650   23.8350 C   0  0  0  0  0  3  0  0  0  0  0  0
  -16.5990  -29.4950   23.3880 C   0  0  0  0  0  3  0  0  0  0  0  0
  -16.9420  -28.2270   22.8840 C   0  0  0  0  0  3  0  0  0  0  0  0
  -25.9840  -32.6450   23.9640 C   0  0  0  0  0  3  0  0  0  0  0  0
  -25.6660  -34.0490   24.2540 N   0  0  0  0  0  0  0  0  0  0  0  0
  -26.0150  -35.0840   23.4780 C   0  0  0  0  0  0  0  0  0  0  0  0
  -26.7100  -34.9580   22.4660 O   0  0  0  0  0  0  0  0  0  0  0  0
  -25.0510  -34.2210   25.0360 H   0  0  0  0  0  0  0  0  0  0  0  0
  -24.2920  -36.8620   23.0400 C   0  0  0  0  0  1  0  0  0  0  0  0
  -25.5130  -36.4800   23.8910 C   0  0  0  0  0  3  0  0  0  0  0  0
  -27.6290  -37.3840   24.7500 C   0  0  0  0  0  1  0  0  0  0  0  0
  -26.5460  -37.5330   23.7800 N   0  0  0  0  0  0  0  0  0  0  0  0
  -26.1340  -38.4550   23.9030 H   0  0  0  0  0  0  0  0  0  0  0  0
  -26.4980  -31.9060   25.2580 C   0  0  1  0  0  0  0  0  0  0  0  0
  -25.3930  -31.6490   26.3070 C   0  0  0  0  0  1  0  0  0  0  0  0
  -27.1280  -30.5420   24.8920 C   0  0  0  0  0  1  0  0  0  0  0  0
  -27.6100  -32.7440   25.9330 C   0  0  0  0  0  1  0  0  0  0  0  0
  -30.6380  -17.2490   21.2930 C   0  0  0  0  0  2  0  0  0  0  0  0
  -30.9120  -14.8470   20.7090 C   0  0  0  0  0  0  0  0  0  0  0  0
  -30.5900  -12.8070   19.3820 C   0  0  0  0  0  2  0  0  0  0  0  0
  -29.6830  -13.1350   18.1800 C   0  0  0  0  0  2  0  0  0  0  0  0
  -28.1980  -12.9820   18.5620 C   0  0  0  0  0  2  0  0  0  0  0  0
  -27.8390  -13.7170   19.8800 C   0  0  0  0  0  3  0  0  0  0  0  0
  -28.8670  -13.4000   20.9930 C   0  0  0  0  0  2  0  0  0  0  0  0
  -30.2120  -13.7080   20.4770 N   0  0  0  0  0  0  0  0  0  0  0  0
  -32.0550  -15.0380   20.2910 O   0  0  0  0  0  0  0  0  0  0  0  0
  -30.2050  -15.8500   21.2380 N   0  0  0  0  0  0  0  0  0  0  0  0
  -29.2680  -15.6490   21.5490 H   0  0  0  0  0  0  0  0  0  0  0  0
  -25.4000  -14.2710   20.4880 C   0  0  0  0  0  0  0  0  0  0  0  0
  -24.3330  -13.4750   20.8140 C   0  0  0  0  0  0  0  0  0  0  0  0
  -24.8250  -12.1330   20.8020 C   0  0  0  0  0  0  0  0  0  0  0  0
  -26.4740  -13.4140   20.3040 N   0  0  0  0  0  0  0  0  0  0  0  0
  -26.1290  -12.1230   20.5520 N   0  0  0  0  0  0  0  0  0  0  0  0
  -24.1200  -10.8540   20.9640 C   0  0  0  0  0  0  0  0  0  0  0  0
  -24.5300   -9.9020   21.9230 C   0  0  0  0  0  3  0  0  0  0  0  0
  -23.8260   -8.6880   22.0730 C   0  0  0  0  0  3  0  0  0  0  0  0
  -22.6990   -8.4170   21.2610 C   0  0  0  0  0  0  0  0  0  0  0  0
  -22.3090   -9.3570   20.2920 C   0  0  0  0  0  3  0  0  0  0  0  0
  -23.0140  -10.5630   20.1400 C   0  0  0  0  0  3  0  0  0  0  0  0
  -21.9700   -7.2520   21.3170 O   0  0  0  0  0  0  0  0  0  0  0  0
  -21.8690   -6.5210   22.4750 C   0  0  0  0  0  0  0  0  0  0  0  0
  -21.3800   -7.0860   23.6730 C   0  0  0  0  0  3  0  0  0  0  0  0
  -21.2250   -6.2800   24.8180 C   0  0  0  0  0  3  0  0  0  0  0  0
  -21.5520   -4.9130   24.7680 C   0  0  0  0  0  0  0  0  0  0  0  0
  -22.0330   -4.3460   23.5740 C   0  0  0  0  0  3  0  0  0  0  0  0
  -22.1880   -5.1490   22.4300 C   0  0  0  0  0  0  0  0  0  0  0  0
  -22.6320   -4.5960   21.2760 F   0  0  0  0  0  0  0  0  0  0  0  0
  -21.3960   -4.1360   25.8670 F   0  0  0  0  0  0  0  0  0  0  0  0
  -22.9150  -13.9200   21.0270 C   0  0  0  0  0  0  0  0  0  0  0  0
  -22.1790  -13.2210   21.8820 N   0  0  0  0  0  0  0  0  0  0  0  0
  -22.4670  -14.9230   20.4700 O   0  0  0  0  0  0  0  0  0  0  0  0
  -22.5580  -12.4150   22.3530 H   0  0  0  0  0  0  0  0  0  0  0  0
  -21.2250  -13.4970   22.0700 H   0  0  0  0  0  0  0  0  0  0  0  0
  -25.5460  -15.6450   20.3160 N   0  0  0  0  0  0  0  0  0  0  0  0
  -24.7660  -16.2880   20.3980 H   0  0  0  0  0  0  0  0  0  0  0  0
  -26.4020  -16.0960   20.0200 H   0  0  0  0  0  0  0  0  0  0  0  0
  1  5  1  0
  2  6  2  0
  2  4  1  0
  3  5  2  0
  4  1  2  0
  5 60  1  0
  6  3  1  0
  7  9  1  1
  7  6  1  0
  8  7  1  0
 10  7  1  0
 11  4  1  0
 12 11  1  0
 13 12  1  0
 13 16  1  0
 13 14  1  0
 15 13  1  0
 16 17  1  0
 18 17  1  0
 18 19  1  0
 20 31  2  0
 21 19  1  0
 21 26  1  0
 22 30  1  0
 22 32  1  0
 23 29  1  0
 23 25  1  0
 24 30  1  0
 25 26  2  0
 25 24  1  0
 27 28  1  0
 27 21  2  0
 28 23  2  0
 29 22  1  0
 30 20  1  0
 32 34  2  0
 33 32  1  0
 35 33  1  0
 36 45  2  0
 36 41  1  0
 37 33  1  0
 37 41  1  0
 38 37  1  0
 39 40  1  0
 39 38  1  0
 40 36  1  0
 41 42  2  0
 42 43  1  0
 44 43  2  0
 45 44  1  0
 46 20  1  0
 46 47  1  0
 46 56  1  0
 47 50  1  0
 48 52  1  0
 48 47  1  0
 49 48  2  0
 52 51  1  0
 54 52  1  0
 54 55  1  0
 54 53  1  0
 56 59  1  1
 56 57  1  0
 58 56  1  0
 61 69  1  0
 62 67  1  0
 63 64  1  0
 63 62  1  0
 65 64  1  0
 65 74  1  0
 65 66  1  0
 67 61  1  0
 67 66  1  0
 68 61  2  0
 69 60  1  0
 69 70  1  0
 71 72  2  0
 72 91  1  0
 73 72  1  0
 73 76  1  0
 74 71  1  0
 74 75  1  0
 75 73  2  0
 76 77  1  0
 77 78  2  0
 79 82  1  0
 79 78  1  0
 80 79  2  0
 81 80  1  0
 81 76  2  0
 82 83  1  0
 83 84  1  0
 84 85  2  0
 86 85  1  0
 86 90  1  0
 87 86  2  0
 88 83  2  0
 88 87  1  0
 89 88  1  0
 91 92  1  0
 92 95  1  0
 92 94  1  0
 93 91  2  0
 96 97  1  0
 96 71  1  0
 98 96  1  0
M  ISO  4  18 101  19 101  61 100  69 100
M  END
>  <TORSDO>  (30) 
F 24

>  <SCORE>  (30) 
-12.212

>  <name>  (30) 
29

>  <ligand_id>  (30) 
29

>  <original_smiles>  (30) 
[H]c1c([H])c([H])c2c(c1[H])C([H])([H])C([H])([H])C([H])([H])C2([H])N([H])C(=O)C1([H])N(C(=O)C([H])(N([H])C(=O)C([H])(N([H])C([H])([H])[H])C([H])([H])[H])C(C([H])([H])[H])(C([H])([H])[H])C([H])([H])[H])C([H])([H])c2c([H])c(OC([H])([H])C([H])([H])C([H])([H])[N+]([H])([H])C([H])([H])C([H])([H])c3c([H])c(C(F)(F)F)c([H])c(C([H])([H])N([H])C(=O)N4C([H])([H])C([H])([H])C([H])([H])C([H])(n5nc(-c6c([H])c([H])c(Oc7c([H])c([H])c(F)c([H])c7F)c([H])c6[H])c(C(=O)N([H])[H])c5N([H])[H])C4([H])[H])c3[H])c([H])c([H])c2C1([H])[H]

>  <smiles>  (30) 
[H]c1c([H])c([H])c2c(c1[H])C([H])([H])C([H])([H])C([H])([H])C2([H])N([H])C(=O)C1([H])N(C(=O)C([H])(N([H])C(=O)C([H])(N([H])C([H])([H])[H])C([H])([H])[H])C(C([H])([H])[H])(C([H])([H])[H])C([H])([H])[H])C([H])([H])c2c([H])c(OC([H])([H])C([H])([H])C([H])([H])[N+]([H])([H])C([H])([H])C([H])([H])c3c([H])c(C(F)(F)F)c([H])c(C([H])([H])N([H])C(=O)N4C([H])([H])C([H])([H])C([H])([H])C([H])(n5nc(-c6c([H])c([H])c(Oc7c([H])c([H])c(F)c([H])c7F)c([H])c6[H])c(C(=O)N([H])[H])c5N([H])[H])C4([H])[H])c3[H])c([H])c([H])c2C1([H])[H]

$$$$
30:0:0
     RDKit          3D

 93101  0  0  1  0  0  0  0  0999 V2000
  -29.5000  -20.3330   20.9960 C   0  0  0  0  0  2  0  0  0  0  0  0
  -27.2630  -18.5440   22.9890 C   0  0  0  0  0  2  0  0  0  0  0  0
  -27.3100  -19.6230   21.8940 C   0  0  0  0  0  2  0  0  0  0  0  0
  -28.4980  -17.6920   22.7480 C   0  0  0  0  0  3  0  0  0  0  0  0
  -28.7100  -17.8270   21.2400 C   0  0  0  0  0  3  0  0  0  0  0  0
  -28.4140  -19.2880   20.9450 N   0  0  2  0  0  4  0  0  0  0  0  0
  -28.2860  -16.4350   23.1410 F   0  0  0  0  0  0  0  0  0  0  0  0
  -28.0430  -19.3230   20.0060 H   0  0  0  0  0  0  0  0  0  0  0  0
  -29.9820  -17.0630   20.7060 C   0  0  0  0  0  2  0  0  0  0  0  0
  -30.6450  -14.5650   20.5240 C   0  0  0  0  0  0  0  0  0  0  0  0
  -30.4360  -12.3520   19.4350 C   0  0  0  0  0  2  0  0  0  0  0  0
  -29.5020  -12.5050   18.2150 C   0  0  0  0  0  2  0  0  0  0  0  0
  -28.0240  -12.3560   18.6280 C   0  0  0  0  0  2  0  0  0  0  0  0
  -27.6600  -13.2080   19.8730 C   0  0  0  0  0  3  0  0  0  0  0  0
  -28.7050  -13.0210   20.9980 C   0  0  0  0  0  2  0  0  0  0  0  0
  -30.0280  -13.3500   20.4410 N   0  0  0  0  0  0  0  0  0  0  0  0
  -31.7790  -14.7650   20.0840 O   0  0  0  0  0  0  0  0  0  0  0  0
  -29.8510  -15.5880   20.9260 N   0  0  0  0  0  0  0  0  0  0  0  0
  -28.9740  -15.2920   21.3310 H   0  0  0  0  0  0  0  0  0  0  0  0
  -25.2590  -13.8150   20.5690 C   0  0  0  0  0  0  0  0  0  0  0  0
  -24.1850  -13.0430   20.9210 C   0  0  0  0  0  0  0  0  0  0  0  0
  -24.6400  -11.6900   20.8740 C   0  0  0  0  0  0  0  0  0  0  0  0
  -26.3020  -12.9310   20.3360 N   0  0  0  0  0  0  0  0  0  0  0  0
  -25.9330  -11.6480   20.5770 N   0  0  0  0  0  0  0  0  0  0  0  0
  -23.9060  -10.4280   21.0400 C   0  0  0  0  0  0  0  0  0  0  0  0
  -24.3610   -9.4200   21.9180 C   0  0  0  0  0  3  0  0  0  0  0  0
  -23.6290   -8.2240   22.0750 C   0  0  0  0  0  3  0  0  0  0  0  0
  -22.4270   -8.0270   21.3540 C   0  0  0  0  0  0  0  0  0  0  0  0
  -21.9910   -9.0240   20.4640 C   0  0  0  0  0  3  0  0  0  0  0  0
  -22.7230  -10.2130   20.3050 C   0  0  0  0  0  3  0  0  0  0  0  0
  -21.6640   -6.8870   21.4240 O   0  0  0  0  0  0  0  0  0  0  0  0
  -21.6850   -6.0730   22.5280 C   0  0  0  0  0  0  0  0  0  0  0  0
  -21.4010   -6.5640   23.8210 C   0  0  0  0  0  3  0  0  0  0  0  0
  -21.3660   -5.6790   24.9170 C   0  0  0  0  0  3  0  0  0  0  0  0
  -21.6040   -4.3050   24.7230 C   0  0  0  0  0  0  0  0  0  0  0  0
  -21.8820   -3.8150   23.4350 C   0  0  0  0  0  3  0  0  0  0  0  0
  -21.9190   -4.6960   22.3400 C   0  0  0  0  0  0  0  0  0  0  0  0
  -22.1660   -4.2140   21.0980 F   0  0  0  0  0  0  0  0  0  0  0  0
  -21.5630   -3.4540   25.7750 F   0  0  0  0  0  0  0  0  0  0  0  0
  -22.7870  -13.5230   21.1860 C   0  0  0  0  0  0  0  0  0  0  0  0
  -22.0500  -12.8220   22.0410 N   0  0  0  0  0  0  0  0  0  0  0  0
  -22.3550  -14.5540   20.6700 O   0  0  0  0  0  0  0  0  0  0  0  0
  -22.4120  -11.9890   22.4800 H   0  0  0  0  0  0  0  0  0  0  0  0
  -21.1120  -13.1230   22.2590 H   0  0  0  0  0  0  0  0  0  0  0  0
  -25.4310  -15.1860   20.4040 N   0  0  0  0  0  0  0  0  0  0  0  0
  -24.6520  -15.8310   20.4810 H   0  0  0  0  0  0  0  0  0  0  0  0
  -26.2560  -15.6020   19.9960 H   0  0  0  0  0  0  0  0  0  0  0  0
  -29.2780  -21.6510   20.1280 C   0  0  0  0  0  3  0  0  0  0  0  0
  -30.4080  -22.3570   20.1850 F   0  0  0  0  0  0  0  0  0  0  0  0
  -28.0820  -22.6560   20.3830 C   0  0  0  0  0  2  0  0  0  0  0  0
  -28.3370  -24.1620   20.7930 C   0  0  0  0  0  3  0  0  0  0  0  0
  -28.4880  -25.2410   19.6690 C   0  0  0  0  0  3  0  0  0  0  0  0
  -28.4160  -26.6280   20.1250 O   0  0  0  0  0  0  0  0  0  0  0  0
  -24.6210  -31.8610   23.2070 C   0  0  0  0  0  0  0  0  0  0  0  0
  -27.2340  -27.3690   20.1040 C   0  0  0  0  0  0  0  0  0  0  0  0
  -23.4100  -30.4870   21.5480 C   0  0  0  0  0  3  0  0  0  0  0  0
  -24.8540  -28.9420   20.1180 C   0  0  0  0  0  0  0  0  0  0  0  0
  -25.9450  -30.8100   21.3670 C   0  0  0  0  0  2  0  0  0  0  0  0
  -26.0190  -29.4390   20.7120 C   0  0  0  0  0  0  0  0  0  0  0  0
  -27.2070  -28.6630   20.6950 C   0  0  0  0  0  3  0  0  0  0  0  0
  -26.0350  -26.8950   19.5190 C   0  0  0  0  0  3  0  0  0  0  0  0
  -24.8600  -27.6700   19.5200 C   0  0  0  0  0  3  0  0  0  0  0  0
  -23.6210  -29.8190   20.1630 C   0  0  0  0  0  2  0  0  0  0  0  0
  -24.6770  -31.0680   22.0990 N   0  0  0  0  0  0  0  0  0  0  0  0
  -23.5390  -32.1390   23.7430 O   0  0  0  0  0  0  0  0  0  0  0  0
  -22.7420  -29.4660   22.4970 C   0  0  0  0  0  0  0  0  0  0  0  0
  -21.4150  -29.3040   22.3700 N   0  0  0  0  0  0  0  0  0  0  0  0
  -23.4170  -28.8190   23.3030 O   0  0  0  0  0  0  0  0  0  0  0  0
  -20.9320  -29.8690   21.6860 H   0  0  0  0  0  0  0  0  0  0  0  0
  -18.0290  -28.1350   22.8520 C   0  0  0  0  0  0  0  0  0  0  0  0
  -20.5870  -28.3700   23.1330 C   0  0  0  0  0  3  0  0  0  0  0  0
  -20.6780  -26.9420   22.5480 C   0  0  0  0  0  2  0  0  0  0  0  0
  -19.5790  -26.6400   21.5240 C   0  0  0  0  0  2  0  0  0  0  0  0
  -18.1960  -26.7920   22.1620 C   0  0  0  0  0  2  0  0  0  0  0  0
  -19.1530  -28.8840   23.2900 C   0  0  0  0  0  0  0  0  0  0  0  0
  -18.9450  -30.1460   23.8880 C   0  0  0  0  0  3  0  0  0  0  0  0
  -17.6440  -30.6590   24.0490 C   0  0  0  0  0  3  0  0  0  0  0  0
  -16.5340  -29.9050   23.6270 C   0  0  0  0  0  3  0  0  0  0  0  0
  -16.7270  -28.6440   23.0380 C   0  0  0  0  0  3  0  0  0  0  0  0
  -25.9070  -32.4780   23.8380 C   0  0  0  0  0  3  0  0  0  0  0  0
  -25.5900  -33.8580   24.2300 N   0  0  0  0  0  0  0  0  0  0  0  0
  -25.9040  -34.9460   23.5130 C   0  0  0  0  0  0  0  0  0  0  0  0
  -26.5600  -34.8910   22.4690 O   0  0  0  0  0  0  0  0  0  0  0  0
  -25.0040  -33.9730   25.0440 H   0  0  0  0  0  0  0  0  0  0  0  0
  -24.1480  -36.7310   23.2650 C   0  0  0  0  0  1  0  0  0  0  0  0
  -25.4110  -36.3090   24.0340 C   0  0  0  0  0  3  0  0  0  0  0  0
  -27.5570  -37.1820   24.8470 C   0  0  0  0  0  1  0  0  0  0  0  0
  -26.4290  -37.3780   23.9410 N   0  0  0  0  0  0  0  0  0  0  0  0
  -26.0180  -38.2860   24.1390 H   0  0  0  0  0  0  0  0  0  0  0  0
  -26.4480  -31.6590   25.0730 C   0  0  1  0  0  0  0  0  0  0  0  0
  -25.3770  -31.3670   26.1490 C   0  0  0  0  0  1  0  0  0  0  0  0
  -27.0330  -30.3030   24.6130 C   0  0  0  0  0  1  0  0  0  0  0  0
  -27.6040  -32.4320   25.7500 C   0  0  0  0  0  1  0  0  0  0  0  0
  3  2  1  0
  4  2  1  0
  4  7  1  0
  5  9  1  0
  5  4  1  0
  6  1  1  0
  6  5  1  0
  6  3  1  0
  6  8  1  6
  9 18  1  0
 10 18  1  0
 11 16  1  0
 12 13  1  0
 12 11  1  0
 14 13  1  0
 14 23  1  0
 14 15  1  0
 16 10  1  0
 16 15  1  0
 17 10  2  0
 18 19  1  0
 20 21  2  0
 21 40  1  0
 22 21  1  0
 22 25  1  0
 23 20  1  0
 23 24  1  0
 24 22  2  0
 25 26  1  0
 26 27  2  0
 28 31  1  0
 28 27  1  0
 29 28  2  0
 30 29  1  0
 30 25  2  0
 31 32  1  0
 32 33  1  0
 33 34  2  0
 35 34  1  0
 35 39  1  0
 36 35  2  0
 37 32  2  0
 37 36  1  0
 38 37  1  0
 40 41  1  0
 41 44  1  0
 41 43  1  0
 42 40  2  0
 45 46  1  0
 45 20  1  0
 47 45  1  0
 48 49  1  0
 48 50  1  0
 48  1  1  0
 50 51  1  0
 52 53  1  0
 52 51  2  0
 54 65  2  0
 55 53  1  0
 55 60  1  0
 56 64  1  0
 56 66  1  0
 57 63  1  0
 57 59  1  0
 58 64  1  0
 59 58  1  0
 60 59  2  0
 61 62  1  0
 61 55  2  0
 62 57  2  0
 63 56  1  0
 64 54  1  0
 66 68  2  0
 67 66  1  0
 69 67  1  0
 70 79  2  0
 70 75  1  0
 71 67  1  0
 71 75  1  0
 72 71  1  0
 73 74  1  0
 73 72  1  0
 74 70  1  0
 75 76  2  0
 76 77  1  0
 78 77  2  0
 79 78  1  0
 80 54  1  0
 80 81  1  0
 80 90  1  0
 81 84  1  0
 82 86  1  0
 82 81  1  0
 83 82  2  0
 86 85  1  0
 88 86  1  0
 88 89  1  0
 88 87  1  0
 90 93  1  1
 90 91  1  0
 92 90  1  0
M  ISO  4  10 100  18 100  52 101  53 101
M  END
>  <TORSDO>  (31) 
F 22

>  <SCORE>  (31) 
9.174

>  <name>  (31) 
30

>  <ligand_id>  (31) 
30

>  <original_smiles>  (31) 
[H]c1c([H])c([H])c2c(c1[H])C([H])([H])C([H])([H])C([H])([H])C2([H])N([H])C(=O)C1([H])N(C(=O)C([H])(N([H])C(=O)C([H])(N([H])C([H])([H])[H])C([H])([H])[H])C(C([H])([H])[H])(C([H])([H])[H])C([H])([H])[H])C([H])([H])c2c([H])c(OC([H])([H])C([H])([H])C([H])([H])C([H])(F)C([H])([H])[N+]3([H])C([H])([H])C([H])([H])C([H])(F)C3([H])C([H])([H])N([H])C(=O)N3C([H])([H])C([H])([H])C([H])([H])C([H])(n4nc(-c5c([H])c([H])c(Oc6c([H])c([H])c(F)c([H])c6F)c([H])c5[H])c(C(=O)N([H])[H])c4N([H])[H])C3([H])[H])c([H])c([H])c2C1([H])[H]

>  <smiles>  (31) 
[H]c1c([H])c([H])c2c(c1[H])C([H])([H])C([H])([H])C([H])([H])C2([H])N([H])C(=O)C1([H])N(C(=O)C([H])(N([H])C(=O)C([H])(N([H])C([H])([H])[H])C([H])([H])[H])C(C([H])([H])[H])(C([H])([H])[H])C([H])([H])[H])C([H])([H])c2c([H])c(OC([H])([H])C([H])([H])C([H])([H])C([H])(F)C([H])([H])[N+]3([H])C([H])([H])C([H])([H])C([H])(F)C3([H])C([H])([H])N([H])C(=O)N3C([H])([H])C([H])([H])C([H])([H])C([H])(n4nc(-c5c([H])c([H])c(Oc6c([H])c([H])c(F)c([H])c6F)c([H])c5[H])c(C(=O)N([H])[H])c4N([H])[H])C3([H])[H])c([H])c([H])c2C1([H])[H]

$$$$
31:0:0
     RDKit          3D

 92100  0  0  1  0  0  0  0  0999 V2000
  -27.5750  -20.3820   19.8350 C   0  0  0  0  0  3  0  0  0  0  0  0
  -27.1640  -19.0490   19.6200 C   0  0  0  0  0  3  0  0  0  0  0  0
  -29.7510  -19.5630   20.5370 C   0  0  0  0  0  3  0  0  0  0  0  0
  -29.3470  -18.2040   20.3590 C   0  0  0  0  0  0  0  0  0  0  0  0
  -28.8750  -20.6610   20.3020 C   0  0  0  0  0  0  0  0  0  0  0  0
  -28.0350  -17.9720   19.8860 C   0  0  0  0  0  0  0  0  0  0  0  0
  -27.5970  -16.7110   19.6690 F   0  0  0  0  0  0  0  0  0  0  0  0
  -29.3090  -22.0010   20.4810 N   0  0  0  0  0  0  0  0  0  0  0  0
  -30.2970  -22.0640   20.7150 H   0  0  0  0  0  0  0  0  0  0  0  0
  -28.4870  -22.9850   21.2220 C   0  0  0  0  0  2  0  0  0  0  0  0
  -27.7740  -24.1110   20.3910 C   0  0  0  0  0  2  0  0  0  0  0  0
  -28.6220  -25.3060   19.8370 C   0  0  0  0  0  2  0  0  0  0  0  0
  -28.4200  -26.6530   20.3540 O   0  0  0  0  0  0  0  0  0  0  0  0
  -24.5580  -31.8950   23.2290 C   0  0  0  0  0  0  0  0  0  0  0  0
  -27.2380  -27.3790   20.2420 C   0  0  0  0  0  0  0  0  0  0  0  0
  -23.3750  -30.4900   21.5690 C   0  0  0  0  0  3  0  0  0  0  0  0
  -24.8490  -28.9270   20.1890 C   0  0  0  0  0  0  0  0  0  0  0  0
  -25.9070  -30.8290   21.4170 C   0  0  0  0  0  2  0  0  0  0  0  0
  -26.0000  -29.4470   20.7900 C   0  0  0  0  0  0  0  0  0  0  0  0
  -27.1890  -28.6790   20.8110 C   0  0  0  0  0  3  0  0  0  0  0  0
  -26.0660  -26.8800   19.6280 C   0  0  0  0  0  3  0  0  0  0  0  0
  -24.8780  -27.6450   19.6070 C   0  0  0  0  0  3  0  0  0  0  0  0
  -23.6170  -29.8050   20.1970 C   0  0  0  0  0  2  0  0  0  0  0  0
  -24.6310  -31.0860   22.1330 N   0  0  0  0  0  0  0  0  0  0  0  0
  -23.4680  -32.1790   23.7470 O   0  0  0  0  0  0  0  0  0  0  0  0
  -22.6940  -29.4800   22.5210 C   0  0  0  0  0  0  0  0  0  0  0  0
  -21.3690  -29.3190   22.3840 N   0  0  0  0  0  0  0  0  0  0  0  0
  -23.3620  -28.8430   23.3430 O   0  0  0  0  0  0  0  0  0  0  0  0
  -20.8890  -29.8800   21.6940 H   0  0  0  0  0  0  0  0  0  0  0  0
  -17.9710  -28.2060   22.8830 C   0  0  0  0  0  0  0  0  0  0  0  0
  -20.5350  -28.3960   23.1540 C   0  0  0  0  0  3  0  0  0  0  0  0
  -20.6020  -26.9680   22.5660 C   0  0  0  0  0  2  0  0  0  0  0  0
  -19.4910  -26.6830   21.5500 C   0  0  0  0  0  2  0  0  0  0  0  0
  -18.1110  -26.8600   22.1910 C   0  0  0  0  0  2  0  0  0  0  0  0
  -19.1090  -28.9330   23.3210 C   0  0  0  0  0  0  0  0  0  0  0  0
  -18.9270  -30.1940   23.9240 C   0  0  0  0  0  3  0  0  0  0  0  0
  -17.6380  -30.7300   24.1010 C   0  0  0  0  0  3  0  0  0  0  0  0
  -16.5130  -29.9990   23.6820 C   0  0  0  0  0  3  0  0  0  0  0  0
  -16.6790  -28.7420   23.0770 C   0  0  0  0  0  3  0  0  0  0  0  0
  -25.8370  -32.5240   23.8660 C   0  0  0  0  0  3  0  0  0  0  0  0
  -25.5290  -33.9250   24.1800 N   0  0  0  0  0  0  0  0  0  0  0  0
  -25.8770  -34.9720   23.4200 C   0  0  0  0  0  0  0  0  0  0  0  0
  -26.5640  -34.8610   22.4010 O   0  0  0  0  0  0  0  0  0  0  0  0
  -24.9210  -34.0880   24.9690 H   0  0  0  0  0  0  0  0  0  0  0  0
  -24.1700  -36.7810   23.0170 C   0  0  0  0  0  1  0  0  0  0  0  0
  -25.3840  -36.3630   23.8630 C   0  0  0  0  0  3  0  0  0  0  0  0
  -27.4950  -37.2470   24.7540 C   0  0  0  0  0  1  0  0  0  0  0  0
  -26.4220  -37.4120   23.7770 N   0  0  0  0  0  0  0  0  0  0  0  0
  -26.0100  -38.3310   23.9140 H   0  0  0  0  0  0  0  0  0  0  0  0
  -26.3330  -31.7570   25.1550 C   0  0  1  0  0  0  0  0  0  0  0  0
  -25.2260  -31.5360   26.2070 C   0  0  0  0  0  1  0  0  0  0  0  0
  -26.9230  -30.3740   24.7840 C   0  0  0  0  0  1  0  0  0  0  0  0
  -27.4630  -32.5560   25.8460 C   0  0  0  0  0  1  0  0  0  0  0  0
  -30.3620  -17.0600   20.6510 C   0  0  0  0  0  2  0  0  0  0  0  0
  -30.6980  -14.5600   20.4470 C   0  0  0  0  0  0  0  0  0  0  0  0
  -30.4380  -12.3750   19.3270 C   0  0  0  0  0  2  0  0  0  0  0  0
  -29.4900  -12.6060   18.1340 C   0  0  0  0  0  2  0  0  0  0  0  0
  -28.0090  -12.4870   18.5520 C   0  0  0  0  0  2  0  0  0  0  0  0
  -27.6830  -13.2670   19.8510 C   0  0  0  0  0  3  0  0  0  0  0  0
  -28.7500  -13.0340   20.9390 C   0  0  0  0  0  2  0  0  0  0  0  0
  -30.0570  -13.3580   20.3560 N   0  0  0  0  0  0  0  0  0  0  0  0
  -31.8720  -14.7060   20.0960 O   0  0  0  0  0  0  0  0  0  0  0  0
  -29.9180  -15.6400   20.7140 N   0  0  0  0  0  0  0  0  0  0  0  0
  -28.9360  -15.4700   20.8780 H   0  0  0  0  0  0  0  0  0  0  0  0
  -25.2810  -13.8370   20.5720 C   0  0  0  0  0  0  0  0  0  0  0  0
  -24.2230  -13.0540   20.9470 C   0  0  0  0  0  0  0  0  0  0  0  0
  -24.6990  -11.7080   20.9050 C   0  0  0  0  0  0  0  0  0  0  0  0
  -26.3370  -12.9700   20.3340 N   0  0  0  0  0  0  0  0  0  0  0  0
  -25.9870  -11.6820   20.5850 N   0  0  0  0  0  0  0  0  0  0  0  0
  -23.9810  -10.4410   21.0870 C   0  0  0  0  0  0  0  0  0  0  0  0
  -24.4120   -9.4720   22.0190 C   0  0  0  0  0  3  0  0  0  0  0  0
  -23.6900   -8.2720   22.1940 C   0  0  0  0  0  3  0  0  0  0  0  0
  -22.5230   -8.0310   21.4310 C   0  0  0  0  0  0  0  0  0  0  0  0
  -22.1090   -8.9910   20.4910 C   0  0  0  0  0  3  0  0  0  0  0  0
  -22.8310  -10.1830   20.3150 C   0  0  0  0  0  3  0  0  0  0  0  0
  -21.7700   -6.8830   21.5100 O   0  0  0  0  0  0  0  0  0  0  0  0
  -21.7130   -6.1370   22.6600 C   0  0  0  0  0  0  0  0  0  0  0  0
  -21.2400   -6.6810   23.8740 C   0  0  0  0  0  3  0  0  0  0  0  0
  -21.1320   -5.8620   25.0160 C   0  0  0  0  0  3  0  0  0  0  0  0
  -21.4830   -4.5000   24.9440 C   0  0  0  0  0  0  0  0  0  0  0  0
  -21.9480   -3.9580   23.7340 C   0  0  0  0  0  3  0  0  0  0  0  0
  -22.0590   -4.7730   22.5950 C   0  0  0  0  0  0  0  0  0  0  0  0
  -22.4840   -4.2360   21.4270 F   0  0  0  0  0  0  0  0  0  0  0  0
  -21.3720   -3.7120   26.0390 F   0  0  0  0  0  0  0  0  0  0  0  0
  -22.8240  -13.5200   21.2260 C   0  0  0  0  0  0  0  0  0  0  0  0
  -22.1050  -12.8170   22.0940 N   0  0  0  0  0  0  0  0  0  0  0  0
  -22.3760  -14.5460   20.7130 O   0  0  0  0  0  0  0  0  0  0  0  0
  -22.4810  -11.9890   22.5310 H   0  0  0  0  0  0  0  0  0  0  0  0
  -21.1710  -13.1160   22.3260 H   0  0  0  0  0  0  0  0  0  0  0  0
  -25.4180  -15.2060   20.3910 N   0  0  0  0  0  0  0  0  0  0  0  0
  -24.6400  -15.8470   20.4870 H   0  0  0  0  0  0  0  0  0  0  0  0
  -26.2570  -15.6610   20.0390 H   0  0  0  0  0  0  0  0  0  0  0  0
  1  5  1  0
  2  1  2  0
  2  6  1  0
  4  3  1  0
  4 54  1  0
  5  8  1  0
  5  3  2  0
  6  4  2  0
  7  6  1  0
  8  9  1  0
  8 10  1  0
 11 10  1  0
 12 13  1  0
 12 11  1  0
 14 25  2  0
 15 13  1  0
 15 20  1  0
 16 24  1  0
 16 26  1  0
 17 23  1  0
 17 19  1  0
 18 24  1  0
 19 20  2  0
 19 18  1  0
 21 15  2  0
 22 21  1  0
 22 17  2  0
 23 16  1  0
 24 14  1  0
 26 28  2  0
 27 26  1  0
 29 27  1  0
 30 39  2  0
 30 35  1  0
 31 27  1  0
 31 35  1  0
 32 31  1  0
 33 34  1  0
 33 32  1  0
 34 30  1  0
 35 36  2  0
 36 37  1  0
 38 37  2  0
 39 38  1  0
 40 14  1  0
 40 41  1  0
 40 50  1  0
 41 44  1  0
 42 46  1  0
 42 41  1  0
 43 42  2  0
 46 45  1  0
 48 46  1  0
 48 49  1  0
 48 47  1  0
 50 53  1  1
 50 51  1  0
 52 50  1  0
 54 63  1  0
 55 63  1  0
 56 61  1  0
 57 58  1  0
 57 56  1  0
 59 58  1  0
 59 68  1  0
 59 60  1  0
 61 55  1  0
 61 60  1  0
 62 55  2  0
 63 64  1  0
 65 66  2  0
 66 85  1  0
 67 66  1  0
 67 70  1  0
 68 65  1  0
 68 69  1  0
 69 67  2  0
 70 71  1  0
 71 72  2  0
 73 76  1  0
 73 72  1  0
 74 73  2  0
 75 74  1  0
 75 70  2  0
 76 77  1  0
 77 78  1  0
 78 79  2  0
 80 79  1  0
 80 84  1  0
 81 80  2  0
 82 77  2  0
 82 81  1  0
 83 82  1  0
 85 86  1  0
 86 89  1  0
 86 88  1  0
 87 85  2  0
 90 91  1  0
 90 65  1  0
 92 90  1  0
M  ISO  4  12 101  13 101  55 100  63 100
M  END
>  <TORSDO>  (32) 
F 21

>  <SCORE>  (32) 
-13.574

>  <name>  (32) 
31

>  <ligand_id>  (32) 
31

>  <original_smiles>  (32) 
[H]c1c([H])c([H])c2c(c1[H])C([H])([H])C([H])([H])C([H])([H])C2([H])N([H])C(=O)C1([H])N(C(=O)C([H])(N([H])C(=O)C([H])(N([H])C([H])([H])[H])C([H])([H])[H])C(C([H])([H])[H])(C([H])([H])[H])C([H])([H])[H])C([H])([H])c2c([H])c(OC([H])([H])C([H])([H])C([H])([H])N([H])c3c([H])c([H])c(F)c(C([H])([H])N([H])C(=O)N4C([H])([H])C([H])([H])C([H])([H])C([H])(n5nc(-c6c([H])c([H])c(Oc7c([H])c([H])c(F)c([H])c7F)c([H])c6[H])c(C(=O)N([H])[H])c5N([H])[H])C4([H])[H])c3[H])c([H])c([H])c2C1([H])[H]

>  <smiles>  (32) 
[H]c1c([H])c([H])c2c(c1[H])C([H])([H])C([H])([H])C([H])([H])C2([H])N([H])C(=O)C1([H])N(C(=O)C([H])(N([H])C(=O)C([H])(N([H])C([H])([H])[H])C([H])([H])[H])C(C([H])([H])[H])(C([H])([H])[H])C([H])([H])[H])C([H])([H])c2c([H])c(OC([H])([H])C([H])([H])C([H])([H])N([H])c3c([H])c([H])c(F)c(C([H])([H])N([H])C(=O)N4C([H])([H])C([H])([H])C([H])([H])C([H])(n5nc(-c6c([H])c([H])c(Oc7c([H])c([H])c(F)c([H])c7F)c([H])c6[H])c(C(=O)N([H])[H])c5N([H])[H])C4([H])[H])c3[H])c([H])c([H])c2C1([H])[H]

$$$$
32:0:0
     RDKit          3D

101110  0  0  1  0  0  0  0  0999 V2000
  -28.9800  -20.7490   21.0830 C   0  0  0  0  0  2  0  0  0  0  0  0
  -29.0010  -19.3780   20.3730 C   0  0  0  0  0  2  0  0  0  0  0  0
  -30.5040  -21.8540   19.5910 C   0  0  0  0  0  2  0  0  0  0  0  0
  -30.8690  -19.3930   18.7560 C   0  0  0  0  0  3  0  0  0  0  0  0
  -30.5260  -20.8730   18.4000 C   0  0  0  0  0  3  0  0  0  0  0  0
  -29.1850  -21.9220   20.2260 N   0  0  0  0  0  0  0  0  0  0  0  0
  -30.3500  -18.8800   20.0470 N   0  0  0  0  0  0  0  0  0  0  0  0
  -35.1550  -18.6140   18.5050 C   0  0  0  0  0  3  0  0  0  0  0  0
  -34.3080  -18.2500   17.4410 C   0  0  0  0  0  3  0  0  0  0  0  0
  -34.6190  -19.2280   19.6530 C   0  0  0  0  0  3  0  0  0  0  0  0
  -32.9240  -18.5040   17.5220 C   0  0  0  0  0  3  0  0  0  0  0  0
  -33.2370  -19.4830   19.7340 C   0  0  0  0  0  3  0  0  0  0  0  0
  -32.3780  -19.1290   18.6670 C   0  0  0  0  0  0  0  0  0  0  0  0
  -31.3220  -21.3990   17.2760 N   0  0  0  0  0  4  0  0  0  0  0  0
  -32.2980  -21.4250   17.5150 H   0  0  0  0  0  0  0  0  0  0  0  0
  -31.0130  -22.3260   17.0420 H   0  0  0  0  0  0  0  0  0  0  0  0
  -31.2050  -20.8190   16.4650 H   0  0  0  0  0  0  0  0  0  0  0  0
  -28.9940  -23.1530   21.0010 C   0  0  0  0  0  2  0  0  0  0  0  0
  -28.8700  -24.4320   20.1500 C   0  0  0  0  0  2  0  0  0  0  0  0
  -28.4270  -25.6390   20.9800 C   0  0  0  0  0  2  0  0  0  0  0  0
  -28.4220  -26.8000   20.1580 O   0  0  0  0  0  0  0  0  0  0  0  0
  -24.5880  -31.9080   23.2480 C   0  0  0  0  0  0  0  0  0  0  0  0
  -27.2450  -27.4980   20.1760 C   0  0  0  0  0  0  0  0  0  0  0  0
  -23.3820  -30.4990   21.6100 C   0  0  0  0  0  3  0  0  0  0  0  0
  -24.8390  -28.9610   20.1900 C   0  0  0  0  0  0  0  0  0  0  0  0
  -25.9010  -30.8760   21.4020 C   0  0  0  0  0  2  0  0  0  0  0  0
  -25.9930  -29.5040   20.7700 C   0  0  0  0  0  0  0  0  0  0  0  0
  -27.2020  -28.7800   20.7590 C   0  0  0  0  0  3  0  0  0  0  0  0
  -26.0810  -26.9530   19.5990 C   0  0  0  0  0  3  0  0  0  0  0  0
  -24.8760  -27.6820   19.6040 C   0  0  0  0  0  3  0  0  0  0  0  0
  -23.5910  -29.8130   20.2330 C   0  0  0  0  0  2  0  0  0  0  0  0
  -24.6420  -31.1080   22.1460 N   0  0  0  0  0  0  0  0  0  0  0  0
  -23.5060  -32.1790   23.7900 O   0  0  0  0  0  0  0  0  0  0  0  0
  -22.7370  -29.4780   22.5750 C   0  0  0  0  0  0  0  0  0  0  0  0
  -21.4130  -29.2960   22.4510 N   0  0  0  0  0  0  0  0  0  0  0  0
  -23.4240  -28.8510   23.3860 O   0  0  0  0  0  0  0  0  0  0  0  0
  -20.9210  -29.8510   21.7660 H   0  0  0  0  0  0  0  0  0  0  0  0
  -18.0370  -28.1150   22.9550 C   0  0  0  0  0  0  0  0  0  0  0  0
  -20.5970  -28.3580   23.2200 C   0  0  0  0  0  3  0  0  0  0  0  0
  -20.6910  -26.9280   22.6390 C   0  0  0  0  0  2  0  0  0  0  0  0
  -19.5840  -26.6150   21.6280 C   0  0  0  0  0  2  0  0  0  0  0  0
  -18.2050  -26.7670   22.2750 C   0  0  0  0  0  2  0  0  0  0  0  0
  -19.1620  -28.8690   23.3840 C   0  0  0  0  0  0  0  0  0  0  0  0
  -18.9540  -30.1340   23.9760 C   0  0  0  0  0  3  0  0  0  0  0  0
  -17.6520  -30.6450   24.1450 C   0  0  0  0  0  3  0  0  0  0  0  0
  -16.5410  -29.8860   23.7350 C   0  0  0  0  0  3  0  0  0  0  0  0
  -16.7350  -28.6230   23.1450 C   0  0  0  0  0  3  0  0  0  0  0  0
  -25.8750  -32.5400   23.8660 C   0  0  0  0  0  3  0  0  0  0  0  0
  -26.3950  -31.7700   25.1400 C   0  0  1  0  0  0  0  0  0  0  0  0
  -25.3050  -31.5330   26.2120 C   0  0  0  0  0  1  0  0  0  0  0  0
  -26.9770  -30.3950   24.7400 C   0  0  0  0  0  1  0  0  0  0  0  0
  -27.5470  -32.5630   25.8010 C   0  0  0  0  0  1  0  0  0  0  0  0
  -25.5670  -33.9370   24.1950 N   0  0  0  0  0  0  0  0  0  0  0  0
  -25.9010  -34.9870   23.4330 C   0  0  0  0  0  0  0  0  0  0  0  0
  -26.5740  -34.8800   22.4050 O   0  0  0  0  0  0  0  0  0  0  0  0
  -24.9670  -34.0930   24.9930 H   0  0  0  0  0  0  0  0  0  0  0  0
  -24.1730  -36.7750   23.0660 C   0  0  0  0  0  1  0  0  0  0  0  0
  -25.4100  -36.3750   23.8850 C   0  0  0  0  0  3  0  0  0  0  0  0
  -27.5420  -37.2590   24.7190 C   0  0  0  0  0  1  0  0  0  0  0  0
  -26.4420  -37.4280   23.7740 N   0  0  0  0  0  0  0  0  0  0  0  0
  -26.0360  -38.3480   23.9230 H   0  0  0  0  0  0  0  0  0  0  0  0
  -30.3550  -17.4110   20.0250 C   0  0  0  0  0  2  0  0  0  0  0  0
  -30.4550  -16.7240   21.4030 C   0  0  0  0  0  2  0  0  0  0  0  0
  -30.7100  -14.3980   20.5410 C   0  0  0  0  0  0  0  0  0  0  0  0
  -30.3540  -12.3150   19.2770 C   0  0  0  0  0  2  0  0  0  0  0  0
  -29.4090  -12.5900   18.0890 C   0  0  0  0  0  2  0  0  0  0  0  0
  -27.9350  -12.4640   18.5190 C   0  0  0  0  0  2  0  0  0  0  0  0
  -27.6190  -13.2640   19.8100 C   0  0  0  0  0  3  0  0  0  0  0  0
  -28.6690  -12.9630   20.9050 C   0  0  0  0  0  2  0  0  0  0  0  0
  -30.0070  -13.2530   20.3540 N   0  0  0  0  0  0  0  0  0  0  0  0
  -31.7810  -14.6380   19.9770 O   0  0  0  0  0  0  0  0  0  0  0  0
  -30.1010  -15.3120   21.3060 N   0  0  0  0  0  0  0  0  0  0  0  0
  -29.2420  -15.0230   21.7500 H   0  0  0  0  0  0  0  0  0  0  0  0
  -25.2180  -13.8900   20.5010 C   0  0  0  0  0  0  0  0  0  0  0  0
  -24.1450  -13.1250   20.8720 C   0  0  0  0  0  0  0  0  0  0  0  0
  -24.6000  -11.7710   20.8500 C   0  0  0  0  0  0  0  0  0  0  0  0
  -26.2610  -13.0030   20.2820 N   0  0  0  0  0  0  0  0  0  0  0  0
  -25.8900  -11.7240   20.5460 N   0  0  0  0  0  0  0  0  0  0  0  0
  -23.8680  -10.5130   21.0460 C   0  0  0  0  0  0  0  0  0  0  0  0
  -24.3070   -9.5410   21.9720 C   0  0  0  0  0  3  0  0  0  0  0  0
  -23.5770   -8.3470   22.1570 C   0  0  0  0  0  3  0  0  0  0  0  0
  -22.3940   -8.1170   21.4140 C   0  0  0  0  0  0  0  0  0  0  0  0
  -21.9750   -9.0780   20.4760 C   0  0  0  0  0  3  0  0  0  0  0  0
  -22.7060  -10.2630   20.2900 C   0  0  0  0  0  3  0  0  0  0  0  0
  -21.6340   -6.9750   21.5070 O   0  0  0  0  0  0  0  0  0  0  0  0
  -21.6060   -6.2220   22.6530 C   0  0  0  0  0  0  0  0  0  0  0  0
  -21.2240   -6.7710   23.8970 C   0  0  0  0  0  3  0  0  0  0  0  0
  -21.1410   -5.9450   25.0360 C   0  0  0  0  0  3  0  0  0  0  0  0
  -21.4310   -4.5710   24.9320 C   0  0  0  0  0  0  0  0  0  0  0  0
  -21.8060   -4.0210   23.6940 C   0  0  0  0  0  3  0  0  0  0  0  0
  -21.8900   -4.8450   22.5570 C   0  0  0  0  0  0  0  0  0  0  0  0
  -22.2320   -4.3070   21.3610 F   0  0  0  0  0  0  0  0  0  0  0  0
  -21.3440   -3.7750   26.0230 F   0  0  0  0  0  0  0  0  0  0  0  0
  -22.7480  -13.6090   21.1390 C   0  0  0  0  0  0  0  0  0  0  0  0
  -22.0180  -12.9200   22.0100 N   0  0  0  0  0  0  0  0  0  0  0  0
  -22.3140  -14.6320   20.6130 O   0  0  0  0  0  0  0  0  0  0  0  0
  -22.3840  -12.0930   22.4570 H   0  0  0  0  0  0  0  0  0  0  0  0
  -21.0800  -13.2240   22.2320 H   0  0  0  0  0  0  0  0  0  0  0  0
  -25.3890  -15.2580   20.3130 N   0  0  0  0  0  0  0  0  0  0  0  0
  -24.6230  -15.9180   20.4060 H   0  0  0  0  0  0  0  0  0  0  0  0
  -26.2440  -15.6910   19.9880 H   0  0  0  0  0  0  0  0  0  0  0  0
  2  1  1  0
  3  6  1  0
  4 13  1  0
  4  7  1  0
  5 14  1  0
  5  4  1  0
  5  3  1  0
  6 18  1  0
  6  1  1  0
  7  2  1  0
  8 10  1  0
  9 11  1  0
  9  8  2  0
 10 12  2  0
 11 13  2  0
 13 12  1  0
 14 15  1  0
 16 14  1  0
 17 14  1  0
 19 20  1  0
 19 18  1  0
 21 23  1  0
 21 20  1  0
 22 33  2  0
 23 28  1  0
 24 32  1  0
 24 34  1  0
 25 31  1  0
 25 27  1  0
 26 32  1  0
 27 26  1  0
 28 27  2  0
 29 30  1  0
 29 23  2  0
 30 25  2  0
 31 24  1  0
 32 22  1  0
 34 36  2  0
 35 34  1  0
 37 35  1  0
 38 47  2  0
 38 43  1  0
 39 35  1  0
 39 43  1  0
 40 39  1  0
 41 42  1  0
 41 40  1  0
 42 38  1  0
 43 44  2  0
 44 45  1  0
 46 45  2  0
 47 46  1  0
 48 22  1  0
 48 53  1  0
 48 49  1  0
 49 52  1  1
 49 50  1  0
 51 49  1  0
 53 56  1  0
 54 58  1  0
 54 53  1  0
 55 54  2  0
 58 57  1  0
 60 58  1  0
 60 61  1  0
 60 59  1  0
 62  7  1  0
 62 63  1  0
 64 72  1  0
 65 70  1  0
 66 67  1  0
 66 65  1  0
 68 67  1  0
 68 77  1  0
 68 69  1  0
 70 64  1  0
 70 69  1  0
 71 64  2  0
 72 63  1  0
 72 73  1  0
 74 75  2  0
 75 94  1  0
 76 75  1  0
 76 79  1  0
 77 74  1  0
 77 78  1  0
 78 76  2  0
 79 80  1  0
 80 81  2  0
 82 85  1  0
 82 81  1  0
 83 82  2  0
 84 83  1  0
 84 79  2  0
 85 86  1  0
 86 87  1  0
 87 88  2  0
 89 88  1  0
 89 93  1  0
 90 89  2  0
 91 86  2  0
 91 90  1  0
 92 91  1  0
 94 95  1  0
 95 98  1  0
 95 97  1  0
 96 94  2  0
 99100  1  0
 99 74  1  0
101 99  1  0
M  ISO  4  20 101  21 101  64 100  72 100
M  END
>  <TORSDO>  (33) 
F 23

>  <SCORE>  (33) 
-13.316

>  <name>  (33) 
32

>  <ligand_id>  (33) 
32

>  <original_smiles>  (33) 
[H]c1c([H])c([H])c(C2([H])N(C([H])([H])C([H])([H])N([H])C(=O)N3C([H])([H])C([H])([H])C([H])([H])C([H])(n4nc(-c5c([H])c([H])c(Oc6c([H])c([H])c(F)c([H])c6F)c([H])c5[H])c(C(=O)N([H])[H])c4N([H])[H])C3([H])[H])C([H])([H])C([H])([H])N(C([H])([H])C([H])([H])C([H])([H])Oc3c([H])c([H])c4c(c3[H])C([H])([H])N(C(=O)C([H])(N([H])C(=O)C([H])(N([H])C([H])([H])[H])C([H])([H])[H])C(C([H])([H])[H])(C([H])([H])[H])C([H])([H])[H])C([H])(C(=O)N([H])C3([H])c5c([H])c([H])c([H])c([H])c5C([H])([H])C([H])([H])C3([H])[H])C4([H])[H])C([H])([H])C2([H])[N+]([H])([H])[H])c([H])c1[H]

>  <smiles>  (33) 
[H]c1c([H])c([H])c(C2([H])N(C([H])([H])C([H])([H])N([H])C(=O)N3C([H])([H])C([H])([H])C([H])([H])C([H])(n4nc(-c5c([H])c([H])c(Oc6c([H])c([H])c(F)c([H])c6F)c([H])c5[H])c(C(=O)N([H])[H])c4N([H])[H])C3([H])[H])C([H])([H])C([H])([H])N(C([H])([H])C([H])([H])C([H])([H])Oc3c([H])c([H])c4c(c3[H])C([H])([H])N(C(=O)C([H])(N([H])C(=O)C([H])(N([H])C([H])([H])[H])C([H])([H])[H])C(C([H])([H])[H])(C([H])([H])[H])C([H])([H])[H])C([H])(C(=O)N([H])C3([H])c5c([H])c([H])c([H])c([H])c5C([H])([H])C([H])([H])C3([H])[H])C4([H])[H])C([H])([H])C2([H])[N+]([H])([H])[H])c([H])c1[H]

$$$$
33:0:0
     RDKit          3D

 99107  0  0  1  0  0  0  0  0999 V2000
  -27.0560  -20.6050   19.5700 N   0  0  0  0  0  4  0  0  0  0  0  0
  -26.2750  -20.3990   18.9680 H   0  0  0  0  0  0  0  0  0  0  0  0
  -27.8660  -20.6860   18.9810 H   0  0  0  0  0  0  0  0  0  0  0  0
  -27.2930  -19.4500   20.4740 C   0  0  0  0  0  2  0  0  0  0  0  0
  -28.7070  -18.9310   20.2660 C   0  0  0  0  0  0  0  0  0  0  0  0
  -31.0560  -18.9490   20.1060 C   0  0  0  0  0  2  0  0  0  0  0  0
  -29.8830  -19.8580   20.4900 C   0  0  0  0  0  3  0  0  0  0  0  0
  -30.4100  -17.6610   19.5580 C   0  0  0  0  0  3  0  0  0  0  0  0
  -28.9830  -17.7710   19.8280 N   0  0  0  0  0  0  0  0  0  0  0  0
  -29.9950  -20.3490   21.8810 N   0  0  0  0  0  4  0  0  0  0  0  0
  -30.8440  -20.8790   21.9880 H   0  0  0  0  0  0  0  0  0  0  0  0
  -30.0210  -19.5870   22.5350 H   0  0  0  0  0  0  0  0  0  0  0  0
  -29.2370  -20.9670   22.1250 H   0  0  0  0  0  0  0  0  0  0  0  0
  -30.9900  -16.3520   20.1670 C   0  0  0  0  0  2  0  0  0  0  0  0
  -31.8190  -14.1730   19.3020 C   0  0  0  0  0  0  0  0  0  0  0  0
  -31.4200  -11.7780   18.9160 C   0  0  0  0  0  2  0  0  0  0  0  0
  -30.3960  -11.6320   17.7740 C   0  0  0  0  0  2  0  0  0  0  0  0
  -28.9530  -11.7130   18.3130 C   0  0  0  0  0  2  0  0  0  0  0  0
  -28.7360  -12.9200   19.2650 C   0  0  0  0  0  3  0  0  0  0  0  0
  -29.8560  -12.9820   20.3250 C   0  0  0  0  0  2  0  0  0  0  0  0
  -31.1360  -13.0390   19.6020 N   0  0  0  0  0  0  0  0  0  0  0  0
  -32.9500  -14.1650   18.8090 O   0  0  0  0  0  0  0  0  0  0  0  0
  -31.0460  -15.2690   19.1860 N   0  0  0  0  0  0  0  0  0  0  0  0
  -31.0570  -15.6570   18.2550 H   0  0  0  0  0  0  0  0  0  0  0  0
  -26.6220  -13.9480   20.3110 C   0  0  0  0  0  0  0  0  0  0  0  0
  -25.4440  -13.3850   20.7290 C   0  0  0  0  0  0  0  0  0  0  0  0
  -25.5930  -11.9770   20.5360 C   0  0  0  0  0  0  0  0  0  0  0  0
  -27.4130  -12.8930   19.8840 N   0  0  0  0  0  0  0  0  0  0  0  0
  -26.8020  -11.6980   20.0740 N   0  0  0  0  0  0  0  0  0  0  0  0
  -24.6320  -10.8820   20.7070 C   0  0  0  0  0  0  0  0  0  0  0  0
  -24.9210   -9.7600   21.5150 C   0  0  0  0  0  3  0  0  0  0  0  0
  -23.9730   -8.7280   21.6750 C   0  0  0  0  0  3  0  0  0  0  0  0
  -22.7170   -8.8120   21.0260 C   0  0  0  0  0  0  0  0  0  0  0  0
  -22.4450   -9.9180   20.2040 C   0  0  0  0  0  3  0  0  0  0  0  0
  -23.3920  -10.9420   20.0410 C   0  0  0  0  0  3  0  0  0  0  0  0
  -21.7410   -7.8500   21.1100 O   0  0  0  0  0  0  0  0  0  0  0  0
  -21.6090   -7.0550   22.2200 C   0  0  0  0  0  0  0  0  0  0  0  0
  -21.3700   -7.5960   23.5030 C   0  0  0  0  0  3  0  0  0  0  0  0
  -21.1720   -6.7340   24.6030 C   0  0  0  0  0  3  0  0  0  0  0  0
  -21.2020   -5.3410   24.4190 C   0  0  0  0  0  0  0  0  0  0  0  0
  -21.4370   -4.8010   23.1420 C   0  0  0  0  0  3  0  0  0  0  0  0
  -21.6370   -5.6590   22.0450 C   0  0  0  0  0  0  0  0  0  0  0  0
  -21.8420   -5.1350   20.8130 F   0  0  0  0  0  0  0  0  0  0  0  0
  -21.0030   -4.5130   25.4730 F   0  0  0  0  0  0  0  0  0  0  0  0
  -24.2220  -14.1120   21.2000 C   0  0  0  0  0  0  0  0  0  0  0  0
  -23.4750  -13.5130   22.1220 N   0  0  0  0  0  0  0  0  0  0  0  0
  -23.9460  -15.2390   20.7920 O   0  0  0  0  0  0  0  0  0  0  0  0
  -23.7040  -12.5910   22.4650 H   0  0  0  0  0  0  0  0  0  0  0  0
  -22.6520  -13.9760   22.4830 H   0  0  0  0  0  0  0  0  0  0  0  0
  -27.0790  -15.2630   20.2480 N   0  0  0  0  0  0  0  0  0  0  0  0
  -26.5000  -16.0570   20.5040 H   0  0  0  0  0  0  0  0  0  0  0  0
  -28.0290  -15.5210   20.0110 H   0  0  0  0  0  0  0  0  0  0  0  0
  -26.7680  -21.8810   20.2680 C   0  0  0  0  0  2  0  0  0  0  0  0
  -27.4830  -23.0850   19.6190 C   0  0  0  0  0  2  0  0  0  0  0  0
  -28.7210  -23.4130   20.3290 N   0  0  0  0  0  0  0  0  0  0  0  0
  -28.4990  -23.5510   21.3120 H   0  0  0  0  0  0  0  0  0  0  0  0
  -29.2560  -24.6880   19.8450 C   0  0  0  0  0  2  0  0  0  0  0  0
  -28.5400  -25.9040   20.4730 C   0  0  0  0  0  2  0  0  0  0  0  0
  -28.3590  -26.9430   19.5140 O   0  0  0  0  0  0  0  0  0  0  0  0
  -24.5120  -31.6880   23.1730 C   0  0  0  0  0  0  0  0  0  0  0  0
  -27.1750  -27.6220   19.6450 C   0  0  0  0  0  0  0  0  0  0  0  0
  -23.2880  -30.3950   21.4580 C   0  0  0  0  0  3  0  0  0  0  0  0
  -24.7320  -29.0120   19.8750 C   0  0  0  0  0  0  0  0  0  0  0  0
  -25.7890  -30.8570   21.1990 C   0  0  0  0  0  2  0  0  0  0  0  0
  -25.8940  -29.5390   20.4540 C   0  0  0  0  0  0  0  0  0  0  0  0
  -27.1220  -28.8530   20.3330 C   0  0  0  0  0  3  0  0  0  0  0  0
  -26.0040  -27.1080   19.0540 C   0  0  0  0  0  3  0  0  0  0  0  0
  -24.7770  -27.7910   19.1720 C   0  0  0  0  0  3  0  0  0  0  0  0
  -23.4690  -29.8270   20.0270 C   0  0  0  0  0  2  0  0  0  0  0  0
  -24.5540  -30.9870   22.0050 N   0  0  0  0  0  0  0  0  0  0  0  0
  -23.4420  -31.8830   23.7690 O   0  0  0  0  0  0  0  0  0  0  0  0
  -22.6920  -29.2830   22.3520 C   0  0  0  0  0  0  0  0  0  0  0  0
  -21.3730  -29.0700   22.2410 N   0  0  0  0  0  0  0  0  0  0  0  0
  -23.4100  -28.6070   23.0940 O   0  0  0  0  0  0  0  0  0  0  0  0
  -20.8550  -29.6840   21.6270 H   0  0  0  0  0  0  0  0  0  0  0  0
  -18.0740  -27.6250   22.6440 C   0  0  0  0  0  0  0  0  0  0  0  0
  -20.6080  -28.0310   22.9270 C   0  0  0  0  0  3  0  0  0  0  0  0
  -20.8090  -26.6490   22.2590 C   0  0  0  0  0  2  0  0  0  0  0  0
  -19.7190  -26.3080   21.2360 C   0  0  0  0  0  2  0  0  0  0  0  0
  -18.3240  -26.3430   21.8600 C   0  0  0  0  0  2  0  0  0  0  0  0
  -19.1450  -28.4310   23.1090 C   0  0  0  0  0  0  0  0  0  0  0  0
  -18.8560  -29.6490   23.7650 C   0  0  0  0  0  3  0  0  0  0  0  0
  -17.5240  -30.0620   23.9570 C   0  0  0  0  0  3  0  0  0  0  0  0
  -16.4650  -29.2440   23.5150 C   0  0  0  0  0  3  0  0  0  0  0  0
  -16.7420  -28.0250   22.8700 C   0  0  0  0  0  3  0  0  0  0  0  0
  -25.8010  -32.3000   23.8050 C   0  0  0  0  0  3  0  0  0  0  0  0
  -26.3160  -31.5000   25.0630 C   0  0  1  0  0  0  0  0  0  0  0  0
  -25.2290  -31.2650   26.1390 C   0  0  0  0  0  1  0  0  0  0  0  0
  -26.8770  -30.1200   24.6380 C   0  0  0  0  0  1  0  0  0  0  0  0
  -27.4810  -32.2670   25.7270 C   0  0  0  0  0  1  0  0  0  0  0  0
  -25.5050  -33.6940   24.1590 N   0  0  0  0  0  0  0  0  0  0  0  0
  -25.8860  -34.7560   23.4380 C   0  0  0  0  0  0  0  0  0  0  0  0
  -26.5990  -34.6650   22.4340 O   0  0  0  0  0  0  0  0  0  0  0  0
  -24.8770  -33.8420   24.9370 H   0  0  0  0  0  0  0  0  0  0  0  0
  -24.2260  -36.6020   23.0210 C   0  0  0  0  0  1  0  0  0  0  0  0
  -25.3980  -36.1400   23.9030 C   0  0  0  0  0  3  0  0  0  0  0  0
  -27.4920  -36.9390   24.9070 C   0  0  0  0  0  1  0  0  0  0  0  0
  -26.4620  -37.1680   23.8980 N   0  0  0  0  0  0  0  0  0  0  0  0
  -26.0680  -38.0910   24.0540 H   0  0  0  0  0  0  0  0  0  0  0  0
  1 53  1  0
  1  4  1  0
  2  1  1  0
  3  1  1  0
  5  4  1  0
  5  7  1  0
  6  7  1  0
  7 10  1  0
  8  9  1  0
  8  6  1  0
  8 14  1  0
  9  5  2  0
 10 11  1  0
 10 13  1  0
 10 12  1  0
 15 21  1  0
 16 21  1  0
 17 18  1  0
 17 16  1  0
 19 18  1  0
 19 28  1  0
 19 20  1  0
 21 20  1  0
 22 15  2  0
 23 15  1  0
 23 14  1  0
 24 23  1  0
 25 26  2  0
 26 45  1  0
 27 30  1  0
 27 26  1  0
 28 29  1  0
 28 25  1  0
 29 27  2  0
 30 31  1  0
 31 32  2  0
 33 36  1  0
 33 32  1  0
 34 33  2  0
 35 34  1  0
 35 30  2  0
 36 37  1  0
 37 38  1  0
 38 39  2  0
 40 39  1  0
 40 44  1  0
 41 40  2  0
 42 37  2  0
 42 41  1  0
 43 42  1  0
 45 46  1  0
 46 48  1  0
 46 49  1  0
 47 45  2  0
 50 25  1  0
 50 51  1  0
 52 50  1  0
 54 53  1  0
 54 55  1  0
 55 56  1  0
 57 55  1  0
 57 58  1  0
 59 61  1  0
 59 58  1  0
 60 71  2  0
 61 66  1  0
 62 70  1  0
 62 72  1  0
 63 69  1  0
 63 65  1  0
 64 70  1  0
 65 64  1  0
 66 65  2  0
 67 68  1  0
 67 61  2  0
 68 63  2  0
 69 62  1  0
 70 60  1  0
 72 74  2  0
 73 72  1  0
 75 73  1  0
 76 85  2  0
 76 81  1  0
 77 73  1  0
 77 81  1  0
 78 77  1  0
 79 80  1  0
 79 78  1  0
 80 76  1  0
 81 82  2  0
 82 83  1  0
 84 83  2  0
 85 84  1  0
 86 60  1  0
 86 91  1  0
 86 87  1  0
 87 90  1  1
 87 88  1  0
 89 87  1  0
 91 94  1  0
 92 96  1  0
 92 91  1  0
 93 92  2  0
 96 95  1  0
 98 96  1  0
 98 99  1  0
 98 97  1  0
M  ISO  4  15 100  23 100  58 101  59 101
M  END
>  <TORSDO>  (34) 
F 25

>  <SCORE>  (34) 
-10.405

>  <name>  (34) 
33

>  <ligand_id>  (34) 
33

>  <original_smiles>  (34) 
[H]c1c([H])c([H])c2c(c1[H])C([H])([H])C([H])([H])C([H])([H])C2([H])N([H])C(=O)C1([H])N(C(=O)C([H])(N([H])C(=O)C([H])(N([H])C([H])([H])[H])C([H])([H])[H])C(C([H])([H])[H])(C([H])([H])[H])C([H])([H])[H])C([H])([H])c2c([H])c(OC([H])([H])C([H])([H])N([H])C([H])([H])C([H])([H])[N+]([H])([H])C([H])([H])C3=NC([H])(C([H])([H])N([H])C(=O)N4C([H])([H])C([H])([H])C([H])([H])C([H])(n5nc(-c6c([H])c([H])c(Oc7c([H])c([H])c(F)c([H])c7F)c([H])c6[H])c(C(=O)N([H])[H])c5N([H])[H])C4([H])[H])C([H])([H])C3([H])[N+]([H])([H])[H])c([H])c([H])c2C1([H])[H]

>  <smiles>  (34) 
[H]c1c([H])c([H])c2c(c1[H])C([H])([H])C([H])([H])C([H])([H])C2([H])N([H])C(=O)C1([H])N(C(=O)C([H])(N([H])C(=O)C([H])(N([H])C([H])([H])[H])C([H])([H])[H])C(C([H])([H])[H])(C([H])([H])[H])C([H])([H])[H])C([H])([H])c2c([H])c(OC([H])([H])C([H])([H])N([H])C([H])([H])C([H])([H])[N+]([H])([H])C([H])([H])C3=NC([H])(C([H])([H])N([H])C(=O)N4C([H])([H])C([H])([H])C([H])([H])C([H])(n5nc(-c6c([H])c([H])c(Oc7c([H])c([H])c(F)c([H])c7F)c([H])c6[H])c(C(=O)N([H])[H])c5N([H])[H])C4([H])[H])C([H])([H])C3([H])[N+]([H])([H])[H])c([H])c([H])c2C1([H])[H]

$$$$
34:0:0
     RDKit          3D

 94103  0  0  1  0  0  0  0  0999 V2000
  -33.1350  -21.3460   20.8320 C   0  0  0  0  0  2  0  0  0  0  0  0
  -30.8980  -20.8530   21.2820 C   0  0  0  0  0  2  0  0  0  0  0  0
  -33.0680  -19.8970   21.3550 C   0  0  0  0  0  3  0  0  0  0  0  0
  -31.6000  -19.5030   21.1340 C   0  0  0  0  0  3  0  0  0  0  0  0
  -34.1040  -18.9700   20.6930 C   0  0  0  0  0  1  0  0  0  0  0  0
  -31.7620  -21.7080   20.4710 N   0  0  0  0  0  0  0  0  0  0  0  0
  -31.0940  -18.4630   22.0610 N   0  0  0  0  0  4  0  0  0  0  0  0
  -31.6670  -18.4490   22.8890 H   0  0  0  0  0  0  0  0  0  0  0  0
  -30.1630  -18.7170   22.3490 H   0  0  0  0  0  0  0  0  0  0  0  0
  -30.6010  -14.4670   20.2460 C   0  0  0  0  0  0  0  0  0  0  0  0
  -30.2070  -12.4160   18.9430 C   0  0  0  0  0  2  0  0  0  0  0  0
  -29.2040  -12.6960   17.8070 C   0  0  0  0  0  2  0  0  0  0  0  0
  -27.7550  -12.5410   18.3070 C   0  0  0  0  0  2  0  0  0  0  0  0
  -27.4890  -13.3060   19.6310 C   0  0  0  0  0  3  0  0  0  0  0  0
  -28.5940  -13.0040   20.6680 C   0  0  0  0  0  2  0  0  0  0  0  0
  -29.8950  -13.3250   20.0550 N   0  0  0  0  0  0  0  0  0  0  0  0
  -31.6530  -14.7190   19.6520 O   0  0  0  0  0  0  0  0  0  0  0  0
  -30.5990  -15.9270   22.2760 C   0  0  0  0  0  2  0  0  0  0  0  0
  -29.8360  -16.7920   20.5800 C   0  0  0  0  0  2  0  0  0  0  0  0
  -31.0520  -17.1180   21.4390 C   0  0  0  0  0  3  0  0  0  0  0  0
  -30.0030  -15.3930   21.0280 N   0  0  0  0  0  0  0  0  0  0  0  0
  -25.1110  -13.8730   20.4400 C   0  0  0  0  0  0  0  0  0  0  0  0
  -24.0680  -13.0810   20.8400 C   0  0  0  0  0  0  0  0  0  0  0  0
  -24.5460  -11.7350   20.7730 C   0  0  0  0  0  0  0  0  0  0  0  0
  -26.1590  -13.0090   20.1580 N   0  0  0  0  0  0  0  0  0  0  0  0
  -25.8220  -11.7190   20.4120 N   0  0  0  0  0  0  0  0  0  0  0  0
  -23.8460  -10.4610   20.9750 C   0  0  0  0  0  0  0  0  0  0  0  0
  -24.3130   -9.5020   21.9020 C   0  0  0  0  0  3  0  0  0  0  0  0
  -23.6140   -8.2900   22.0930 C   0  0  0  0  0  3  0  0  0  0  0  0
  -22.4340   -8.0300   21.3570 C   0  0  0  0  0  0  0  0  0  0  0  0
  -21.9860   -8.9780   20.4200 C   0  0  0  0  0  3  0  0  0  0  0  0
  -22.6850  -10.1800   20.2270 C   0  0  0  0  0  3  0  0  0  0  0  0
  -21.7030   -6.8700   21.4560 O   0  0  0  0  0  0  0  0  0  0  0  0
  -21.6720   -6.1370   22.6140 C   0  0  0  0  0  0  0  0  0  0  0  0
  -21.2380   -6.6950   23.8370 C   0  0  0  0  0  3  0  0  0  0  0  0
  -21.1540   -5.8860   24.9890 C   0  0  0  0  0  3  0  0  0  0  0  0
  -21.4950   -4.5220   24.9190 C   0  0  0  0  0  0  0  0  0  0  0  0
  -21.9230   -3.9640   23.7010 C   0  0  0  0  0  3  0  0  0  0  0  0
  -22.0080   -4.7690   22.5520 C   0  0  0  0  0  0  0  0  0  0  0  0
  -22.4000   -4.2220   21.3760 F   0  0  0  0  0  0  0  0  0  0  0  0
  -21.4090   -3.7440   26.0220 F   0  0  0  0  0  0  0  0  0  0  0  0
  -22.6760  -13.5320   21.1760 C   0  0  0  0  0  0  0  0  0  0  0  0
  -21.9940  -12.8140   22.0610 N   0  0  0  0  0  0  0  0  0  0  0  0
  -22.2030  -14.5600   20.6940 O   0  0  0  0  0  0  0  0  0  0  0  0
  -22.3890  -11.9810   22.4720 H   0  0  0  0  0  0  0  0  0  0  0  0
  -21.0630  -13.1010   22.3280 H   0  0  0  0  0  0  0  0  0  0  0  0
  -25.2520  -15.2480   20.2730 N   0  0  0  0  0  0  0  0  0  0  0  0
  -24.4820  -15.8940   20.4120 H   0  0  0  0  0  0  0  0  0  0  0  0
  -26.0950  -15.7000   19.9440 H   0  0  0  0  0  0  0  0  0  0  0  0
  -31.5120  -23.1400   20.6130 C   0  0  0  0  0  2  0  0  0  0  0  0
  -30.1310  -23.5360   20.0560 C   0  0  0  0  0  2  0  0  0  0  0  0
  -29.8990  -25.0490   20.1400 C   0  0  0  0  0  2  0  0  0  0  0  0
  -28.4620  -25.4790   19.8130 C   0  0  0  0  0  2  0  0  0  0  0  0
  -28.4000  -26.8680   20.0980 O   0  0  0  0  0  0  0  0  0  0  0  0
  -24.5250  -31.8950   23.2260 C   0  0  0  0  0  0  0  0  0  0  0  0
  -27.1830  -27.5060   20.1040 C   0  0  0  0  0  0  0  0  0  0  0  0
  -23.3170  -30.5020   21.5750 C   0  0  0  0  0  3  0  0  0  0  0  0
  -24.7700  -28.9730   20.1410 C   0  0  0  0  0  0  0  0  0  0  0  0
  -25.8370  -30.8740   21.3690 C   0  0  0  0  0  2  0  0  0  0  0  0
  -25.9220  -29.5090   20.7260 C   0  0  0  0  0  0  0  0  0  0  0  0
  -27.1280  -28.7810   20.7030 C   0  0  0  0  0  3  0  0  0  0  0  0
  -26.0100  -26.9670   19.5290 C   0  0  0  0  0  3  0  0  0  0  0  0
  -24.8060  -27.6990   19.5460 C   0  0  0  0  0  3  0  0  0  0  0  0
  -23.5230  -29.8270   20.1920 C   0  0  0  0  0  2  0  0  0  0  0  0
  -24.5780  -31.1050   22.1160 N   0  0  0  0  0  0  0  0  0  0  0  0
  -23.4450  -32.1610   23.7700 O   0  0  0  0  0  0  0  0  0  0  0  0
  -22.6710  -29.4740   22.5300 C   0  0  0  0  0  0  0  0  0  0  0  0
  -21.3480  -29.2870   22.3980 N   0  0  0  0  0  0  0  0  0  0  0  0
  -23.3570  -28.8480   23.3430 O   0  0  0  0  0  0  0  0  0  0  0  0
  -20.8580  -29.8460   21.7130 H   0  0  0  0  0  0  0  0  0  0  0  0
  -17.9780  -28.0830   22.8730 C   0  0  0  0  0  0  0  0  0  0  0  0
  -20.5330  -28.3430   23.1600 C   0  0  0  0  0  3  0  0  0  0  0  0
  -20.6410  -26.9160   22.5780 C   0  0  0  0  0  2  0  0  0  0  0  0
  -19.5460  -26.5960   21.5560 C   0  0  0  0  0  2  0  0  0  0  0  0
  -18.1600  -26.7370   22.1940 C   0  0  0  0  0  2  0  0  0  0  0  0
  -19.0930  -28.8450   23.3130 C   0  0  0  0  0  0  0  0  0  0  0  0
  -18.8700  -30.1070   23.9060 C   0  0  0  0  0  3  0  0  0  0  0  0
  -17.5640  -30.6060   24.0670 C   0  0  0  0  0  3  0  0  0  0  0  0
  -16.4630  -29.8410   23.6460 C   0  0  0  0  0  3  0  0  0  0  0  0
  -16.6700  -28.5830   23.0520 C   0  0  0  0  0  3  0  0  0  0  0  0
  -25.8140  -32.5210   23.8460 C   0  0  0  0  0  3  0  0  0  0  0  0
  -25.5100  -33.9190   24.1800 N   0  0  0  0  0  0  0  0  0  0  0  0
  -25.8480  -34.9720   23.4230 C   0  0  0  0  0  0  0  0  0  0  0  0
  -26.5180  -34.8680   22.3920 O   0  0  0  0  0  0  0  0  0  0  0  0
  -24.9130  -34.0730   24.9770 H   0  0  0  0  0  0  0  0  0  0  0  0
  -24.1230  -36.7660   23.0670 C   0  0  0  0  0  1  0  0  0  0  0  0
  -25.3610  -36.3590   23.8820 C   0  0  0  0  0  3  0  0  0  0  0  0
  -27.4940  -37.2380   24.7210 C   0  0  0  0  0  1  0  0  0  0  0  0
  -26.3950  -37.4100   23.7740 N   0  0  0  0  0  0  0  0  0  0  0  0
  -25.9900  -38.3300   23.9220 H   0  0  0  0  0  0  0  0  0  0  0  0
  -26.3330  -31.7440   25.1180 C   0  0  1  0  0  0  0  0  0  0  0  0
  -25.2400  -31.5040   26.1860 C   0  0  0  0  0  1  0  0  0  0  0  0
  -26.9140  -30.3700   24.7140 C   0  0  0  0  0  1  0  0  0  0  0  0
  -27.4830  -32.5350   25.7840 C   0  0  0  0  0  1  0  0  0  0  0  0
  1  3  1  0
  3  5  1  0
  4  2  1  0
  4  3  1  0
  4  7  1  0
  6 50  1  0
  6  1  1  0
  6  2  1  0
  7  9  1  0
  7  8  1  0
 10 21  1  0
 11 16  1  0
 12 13  1  0
 12 11  1  0
 14 13  1  0
 14 25  1  0
 14 15  1  0
 16 10  1  0
 16 15  1  0
 17 10  2  0
 19 21  1  0
 19 20  1  0
 20  7  1  0
 20 18  1  0
 21 18  1  0
 22 23  2  0
 23 42  1  0
 24 23  1  0
 24 27  1  0
 25 26  1  0
 25 22  1  0
 26 24  2  0
 27 28  1  0
 28 29  2  0
 30 33  1  0
 30 29  1  0
 31 30  2  0
 32 31  1  0
 32 27  2  0
 33 34  1  0
 34 35  1  0
 35 36  2  0
 37 36  1  0
 37 41  1  0
 38 37  2  0
 39 34  2  0
 39 38  1  0
 40 39  1  0
 42 43  1  0
 43 46  1  0
 43 45  1  0
 44 42  2  0
 47 48  1  0
 47 22  1  0
 49 47  1  0
 51 52  1  0
 51 50  1  0
 53 54  1  0
 53 52  1  0
 54 56  1  0
 55 66  2  0
 56 61  1  0
 57 65  1  0
 57 67  1  0
 58 64  1  0
 58 60  1  0
 59 65  1  0
 60 59  1  0
 61 60  2  0
 62 63  1  0
 62 56  2  0
 63 58  2  0
 64 57  1  0
 65 55  1  0
 67 69  2  0
 68 67  1  0
 70 68  1  0
 71 80  2  0
 71 76  1  0
 72 68  1  0
 72 76  1  0
 73 72  1  0
 74 75  1  0
 74 73  1  0
 75 71  1  0
 76 77  2  0
 77 78  1  0
 79 78  2  0
 80 79  1  0
 81 55  1  0
 81 82  1  0
 81 91  1  0
 82 85  1  0
 83 87  1  0
 83 82  1  0
 84 83  2  0
 87 86  1  0
 89 87  1  0
 89 90  1  0
 89 88  1  0
 91 94  1  1
 91 92  1  0
 93 91  1  0
M  ISO  4  10 100  21 100  53 101  54 101
M  END
>  <TORSDO>  (35) 
F 21

>  <SCORE>  (35) 
-13.457

>  <name>  (35) 
34

>  <ligand_id>  (35) 
34

>  <original_smiles>  (35) 
[H]c1c([H])c([H])c2c(c1[H])C([H])([H])C([H])([H])C([H])([H])C2([H])N([H])C(=O)C1([H])N(C(=O)C([H])(N([H])C(=O)C([H])(N([H])C([H])([H])[H])C([H])([H])[H])C(C([H])([H])[H])(C([H])([H])[H])C([H])([H])[H])C([H])([H])c2c([H])c(OC([H])([H])C([H])([H])C([H])([H])C([H])([H])N3C([H])([H])C([H])(C([H])([H])[H])C([H])([N+]([H])([H])C4([H])C([H])([H])N(C(=O)N5C([H])([H])C([H])([H])C([H])([H])C([H])(n6nc(-c7c([H])c([H])c(Oc8c([H])c([H])c(F)c([H])c8F)c([H])c7[H])c(C(=O)N([H])[H])c6N([H])[H])C5([H])[H])C4([H])[H])C3([H])[H])c([H])c([H])c2C1([H])[H]

>  <smiles>  (35) 
[H]c1c([H])c([H])c2c(c1[H])C([H])([H])C([H])([H])C([H])([H])C2([H])N([H])C(=O)C1([H])N(C(=O)C([H])(N([H])C(=O)C([H])(N([H])C([H])([H])[H])C([H])([H])[H])C(C([H])([H])[H])(C([H])([H])[H])C([H])([H])[H])C([H])([H])c2c([H])c(OC([H])([H])C([H])([H])C([H])([H])C([H])([H])N3C([H])([H])C([H])(C([H])([H])[H])C([H])([N+]([H])([H])C4([H])C([H])([H])N(C(=O)N5C([H])([H])C([H])([H])C([H])([H])C([H])(n6nc(-c7c([H])c([H])c(Oc8c([H])c([H])c(F)c([H])c8F)c([H])c7[H])c(C(=O)N([H])[H])c6N([H])[H])C5([H])[H])C4([H])[H])C3([H])[H])c([H])c([H])c2C1([H])[H]

$$$$
35:0:0
     RDKit          3D

 97105  0  0  1  0  0  0  0  0999 V2000
  -32.0370  -21.9400   21.9460 C   0  0  0  0  0  2  0  0  0  0  0  0
  -31.6200  -20.5990   21.2700 C   0  0  0  0  0  2  0  0  0  0  0  0
  -31.2970  -17.4380   23.4690 C   0  0  0  0  0  2  0  0  0  0  0  0
  -29.3600  -17.5630   21.9570 C   0  0  0  0  0  2  0  0  0  0  0  0
  -31.8980  -18.7300   22.8760 C   0  0  0  0  0  2  0  0  0  0  0  0
  -29.9150  -18.8480   21.3100 C   0  0  0  0  0  2  0  0  0  0  0  0
  -30.4740  -16.6280   22.4520 C   0  0  0  0  0  3  0  0  0  0  0  0
  -30.9260  -19.5900   22.1300 N   0  0  2  0  0  4  0  0  0  0  0  0
  -30.3890  -20.0810   22.8310 H   0  0  0  0  0  0  0  0  0  0  0  0
  -31.1830  -14.0830   19.8180 C   0  0  0  0  0  0  0  0  0  0  0  0
  -30.6350  -12.0550   18.5180 C   0  0  0  0  0  2  0  0  0  0  0  0
  -29.5920  -12.3530   17.4270 C   0  0  0  0  0  2  0  0  0  0  0  0
  -28.1570  -12.2770   17.9830 C   0  0  0  0  0  2  0  0  0  0  0  0
  -27.9810  -13.0820   19.2960 C   0  0  0  0  0  3  0  0  0  0  0  0
  -29.1080  -12.7230   20.2900 C   0  0  0  0  0  2  0  0  0  0  0  0
  -30.4050  -12.9830   19.6340 N   0  0  0  0  0  0  0  0  0  0  0  0
  -32.1690  -14.3250   19.1170 O   0  0  0  0  0  0  0  0  0  0  0  0
  -31.2710  -16.0150   21.2820 C   0  0  0  0  0  0  0  0  0  0  0  0
  -30.7690  -14.8580   20.8280 N   0  0  0  0  0  0  0  0  0  0  0  0
  -32.2600  -16.5890   20.8210 O   0  0  0  0  0  0  0  0  0  0  0  0
  -29.9430  -14.5340   21.2980 H   0  0  0  0  0  0  0  0  0  0  0  0
  -25.6690  -13.7890   20.1920 C   0  0  0  0  0  0  0  0  0  0  0  0
  -24.6000  -13.0610   20.6400 C   0  0  0  0  0  0  0  0  0  0  0  0
  -24.9970  -11.6900   20.5630 C   0  0  0  0  0  0  0  0  0  0  0  0
  -26.6570  -12.8680   19.8790 N   0  0  0  0  0  0  0  0  0  0  0  0
  -26.2560  -11.5990   20.1550 N   0  0  0  0  0  0  0  0  0  0  0  0
  -24.2360  -10.4570   20.7970 C   0  0  0  0  0  0  0  0  0  0  0  0
  -24.6440   -9.5100   21.7620 C   0  0  0  0  0  3  0  0  0  0  0  0
  -23.8860   -8.3390   21.9810 C   0  0  0  0  0  3  0  0  0  0  0  0
  -22.7050   -8.1050   21.2370 C   0  0  0  0  0  0  0  0  0  0  0  0
  -22.3170   -9.0430   20.2630 C   0  0  0  0  0  3  0  0  0  0  0  0
  -23.0750  -10.2060   20.0420 C   0  0  0  0  0  3  0  0  0  0  0  0
  -21.9180   -6.9870   21.3660 O   0  0  0  0  0  0  0  0  0  0  0  0
  -21.7610   -6.3530   22.5730 C   0  0  0  0  0  0  0  0  0  0  0  0
  -21.2750   -7.0300   23.7130 C   0  0  0  0  0  3  0  0  0  0  0  0
  -21.0640   -6.3240   24.9140 C   0  0  0  0  0  3  0  0  0  0  0  0
  -21.3270   -4.9420   24.9750 C   0  0  0  0  0  0  0  0  0  0  0  0
  -21.8080   -4.2660   23.8380 C   0  0  0  0  0  3  0  0  0  0  0  0
  -22.0210   -4.9700   22.6410 C   0  0  0  0  0  0  0  0  0  0  0  0
  -22.4610   -4.3090   21.5430 F   0  0  0  0  0  0  0  0  0  0  0  0
  -21.1190   -4.2600   26.1260 F   0  0  0  0  0  0  0  0  0  0  0  0
  -23.2450  -13.5930   21.0190 C   0  0  0  0  0  0  0  0  0  0  0  0
  -22.5700  -12.9530   21.9650 N   0  0  0  0  0  0  0  0  0  0  0  0
  -22.7950  -14.6180   20.5070 O   0  0  0  0  0  0  0  0  0  0  0  0
  -22.9400  -12.1290   22.4180 H   0  0  0  0  0  0  0  0  0  0  0  0
  -21.6620  -13.2970   22.2490 H   0  0  0  0  0  0  0  0  0  0  0  0
  -25.8890  -15.1510   20.0010 N   0  0  0  0  0  0  0  0  0  0  0  0
  -25.1930  -15.8630   20.1920 H   0  0  0  0  0  0  0  0  0  0  0  0
  -26.7310  -15.5230   19.5790 H   0  0  0  0  0  0  0  0  0  0  0  0
  -30.9070  -22.8730   22.4450 C   0  0  0  0  0  2  0  0  0  0  0  0
  -30.3760  -23.7480   21.3740 N   0  0  0  0  0  4  0  0  0  0  0  0
  -29.9200  -23.1790   20.6820 H   0  0  0  0  0  0  0  0  0  0  0  0
  -31.1470  -24.2200   20.9260 H   0  0  0  0  0  0  0  0  0  0  0  0
  -29.4130  -24.7720   21.8400 C   0  0  0  0  0  2  0  0  0  0  0  0
  -29.1160  -25.8140   20.7490 C   0  0  0  0  0  2  0  0  0  0  0  0
  -28.0870  -25.3220   19.7210 C   0  0  0  0  0  2  0  0  0  0  0  0
  -27.8800  -26.3290   18.7410 O   0  0  0  0  0  0  0  0  0  0  0  0
  -25.0550  -30.8940   23.3970 C   0  0  0  0  0  0  0  0  0  0  0  0
  -26.8600  -27.1820   19.0530 C   0  0  0  0  0  0  0  0  0  0  0  0
  -23.5950  -30.2170   21.5180 C   0  0  0  0  0  3  0  0  0  0  0  0
  -24.7380  -28.9300   19.6390 C   0  0  0  0  0  0  0  0  0  0  0  0
  -26.1400  -30.2310   21.2550 C   0  0  0  0  0  2  0  0  0  0  0  0
  -25.9810  -29.0990   20.2660 C   0  0  0  0  0  0  0  0  0  0  0  0
  -27.0490  -28.2280   19.9770 C   0  0  0  0  0  3  0  0  0  0  0  0
  -25.6080  -27.0090   18.4300 C   0  0  0  0  0  3  0  0  0  0  0  0
  -24.5420  -27.8820   18.7220 C   0  0  0  0  0  3  0  0  0  0  0  0
  -23.6590  -29.9260   19.9950 C   0  0  0  0  0  2  0  0  0  0  0  0
  -24.9520  -30.4400   22.1150 N   0  0  0  0  0  0  0  0  0  0  0  0
  -24.0480  -31.1710   24.0610 O   0  0  0  0  0  0  0  0  0  0  0  0
  -22.8040  -29.0810   22.2030 C   0  0  0  0  0  0  0  0  0  0  0  0
  -21.4670  -29.1290   22.0810 N   0  0  0  0  0  0  0  0  0  0  0  0
  -23.3860  -28.1730   22.8000 O   0  0  0  0  0  0  0  0  0  0  0  0
  -21.0630  -29.9110   21.5850 H   0  0  0  0  0  0  0  0  0  0  0  0
  -17.9560  -28.3410   22.3590 C   0  0  0  0  0  0  0  0  0  0  0  0
  -20.5210  -28.1490   22.6110 C   0  0  0  0  0  3  0  0  0  0  0  0
  -20.4180  -26.9160   21.6830 C   0  0  0  0  0  2  0  0  0  0  0  0
  -19.2860  -27.0270   20.6560 C   0  0  0  0  0  2  0  0  0  0  0  0
  -17.9370  -27.2010   21.3570 C   0  0  0  0  0  2  0  0  0  0  0  0
  -19.1710  -28.7960   22.9360 C   0  0  0  0  0  0  0  0  0  0  0  0
  -19.1370  -29.8880   23.8330 C   0  0  0  0  0  3  0  0  0  0  0  0
  -17.9180  -30.5110   24.1610 C   0  0  0  0  0  3  0  0  0  0  0  0
  -16.7170  -30.0460   23.5990 C   0  0  0  0  0  3  0  0  0  0  0  0
  -16.7380  -28.9620   22.7020 C   0  0  0  0  0  3  0  0  0  0  0  0
  -26.4430  -31.1100   24.0770 C   0  0  0  0  0  3  0  0  0  0  0  0
  -26.3610  -32.3560   24.8490 N   0  0  0  0  0  0  0  0  0  0  0  0
  -26.9190  -33.5170   24.4800 C   0  0  0  0  0  0  0  0  0  0  0  0
  -27.6240  -33.6330   23.4750 O   0  0  0  0  0  0  0  0  0  0  0  0
  -25.7380  -32.3550   25.6440 H   0  0  0  0  0  0  0  0  0  0  0  0
  -25.5970  -35.6450   24.7090 C   0  0  0  0  0  1  0  0  0  0  0  0
  -26.6530  -34.7450   25.3710 C   0  0  0  0  0  3  0  0  0  0  0  0
  -28.8130  -34.8480   26.5340 C   0  0  0  0  0  1  0  0  0  0  0  0
  -27.8680  -35.5370   25.6600 N   0  0  0  0  0  0  0  0  0  0  0  0
  -27.6250  -36.4250   26.0910 H   0  0  0  0  0  0  0  0  0  0  0  0
  -26.8810  -29.9030   24.9930 C   0  0  1  0  0  0  0  0  0  0  0  0
  -25.8030  -29.4820   26.0190 C   0  0  0  0  0  1  0  0  0  0  0  0
  -27.2270  -28.6640   24.1360 C   0  0  0  0  0  1  0  0  0  0  0  0
  -28.1670  -30.2740   25.7660 C   0  0  0  0  0  1  0  0  0  0  0  0
  1 50  1  0
  2  1  1  0
  2  8  1  0
  4  7  1  0
  5  3  1  0
  6  4  1  0
  6  8  1  0
  7 18  1  0
  7  3  1  0
  8  9  1  1
  8  5  1  0
 10 19  1  0
 11 16  1  0
 12 13  1  0
 12 11  1  0
 14 13  1  0
 14 25  1  0
 14 15  1  0
 16 10  1  0
 16 15  1  0
 17 10  2  0
 19 18  1  0
 19 21  1  0
 20 18  2  0
 22 23  2  0
 23 42  1  0
 24 23  1  0
 24 27  1  0
 25 26  1  0
 25 22  1  0
 26 24  2  0
 27 28  1  0
 28 29  2  0
 30 33  1  0
 30 29  1  0
 31 30  2  0
 32 31  1  0
 32 27  2  0
 33 34  1  0
 34 39  2  0
 34 35  1  0
 35 36  2  0
 36 37  1  0
 37 41  1  0
 38 37  2  0
 39 38  1  0
 40 39  1  0
 42 43  1  0
 43 46  1  0
 43 45  1  0
 44 42  2  0
 47 48  1  0
 47 22  1  0
 49 47  1  0
 51 54  1  0
 51 50  1  0
 52 51  1  0
 53 51  1  0
 55 54  1  0
 56 55  1  0
 57 59  1  0
 57 56  1  0
 58 69  2  0
 59 64  1  0
 60 68  1  0
 60 70  1  0
 61 67  1  0
 61 63  1  0
 62 68  1  0
 63 62  1  0
 64 63  2  0
 65 66  1  0
 65 59  2  0
 66 61  2  0
 67 60  1  0
 68 58  1  0
 70 72  2  0
 71 70  1  0
 73 71  1  0
 74 83  2  0
 74 79  1  0
 75 71  1  0
 75 79  1  0
 76 75  1  0
 77 78  1  0
 77 76  1  0
 78 74  1  0
 79 80  2  0
 80 81  1  0
 82 81  2  0
 83 82  1  0
 84 58  1  0
 84 85  1  0
 84 94  1  0
 85 88  1  0
 86 85  1  0
 86 90  1  0
 87 86  2  0
 90 89  1  0
 90 92  1  0
 92 93  1  0
 92 91  1  0
 94 97  1  1
 94 95  1  0
 96 94  1  0
M  ISO  4  10 100  19 100  56 101  57 101
M  END
>  <TORSDO>  (36) 
F 23

>  <SCORE>  (36) 
-8.502

>  <name>  (36) 
35

>  <ligand_id>  (36) 
35

>  <original_smiles>  (36) 
[H]c1c([H])c([H])c2c(c1[H])C([H])([H])C([H])([H])C([H])([H])C2([H])N([H])C(=O)C1([H])N(C(=O)C([H])(N([H])C(=O)C([H])(N([H])C([H])([H])[H])C([H])([H])[H])C(C([H])([H])[H])(C([H])([H])[H])C([H])([H])[H])C([H])([H])c2c([H])c(OC([H])([H])C([H])([H])C([H])([H])[N+]([H])([H])C([H])([H])C([H])([H])C([H])([H])[N+]3([H])C([H])([H])C([H])([H])C([H])(C(=O)N([H])C(=O)N4C([H])([H])C([H])([H])C([H])([H])C([H])(n5nc(-c6c([H])c([H])c(Oc7c([H])c([H])c(F)c([H])c7F)c([H])c6[H])c(C(=O)N([H])[H])c5N([H])[H])C4([H])[H])C([H])([H])C3([H])[H])c([H])c([H])c2C1([H])[H]

>  <smiles>  (36) 
[H]c1c([H])c([H])c2c(c1[H])C([H])([H])C([H])([H])C([H])([H])C2([H])N([H])C(=O)C1([H])N(C(=O)C([H])(N([H])C(=O)C([H])(N([H])C([H])([H])[H])C([H])([H])[H])C(C([H])([H])[H])(C([H])([H])[H])C([H])([H])[H])C([H])([H])c2c([H])c(OC([H])([H])C([H])([H])C([H])([H])[N+]([H])([H])C([H])([H])C([H])([H])C([H])([H])[N+]3([H])C([H])([H])C([H])([H])C([H])(C(=O)N([H])C(=O)N4C([H])([H])C([H])([H])C([H])([H])C([H])(n5nc(-c6c([H])c([H])c(Oc7c([H])c([H])c(F)c([H])c7F)c([H])c6[H])c(C(=O)N([H])[H])c5N([H])[H])C4([H])[H])C([H])([H])C3([H])[H])c([H])c([H])c2C1([H])[H]

$$$$
36:0:0
     RDKit          3D

 96104  0  0  1  0  0  0  0  0999 V2000
  -29.6350  -17.4610   21.9410 C   0  0  0  0  0  2  0  0  0  0  0  0
  -31.9540  -17.1180   20.8570 C   0  0  0  0  0  2  0  0  0  0  0  0
  -29.8570  -18.9040   22.4330 C   0  0  0  0  0  2  0  0  0  0  0  0
  -31.9510  -19.6270   21.5350 C   0  0  0  0  0  2  0  0  0  0  0  0
  -30.4230  -16.9650   20.7070 C   0  0  0  0  0  3  0  0  0  0  0  0
  -32.4750  -18.5470   20.5630 C   0  0  0  0  0  3  0  0  0  0  0  0
  -30.4930  -19.7880   21.4480 N   0  0  0  0  0  0  0  0  0  0  0  0
  -30.4560  -14.7350   19.5340 C   0  0  0  0  0  0  0  0  0  0  0  0
  -30.2390  -12.4460   18.6330 C   0  0  0  0  0  2  0  0  0  0  0  0
  -29.1620  -12.3570   17.5350 C   0  0  0  0  0  2  0  0  0  0  0  0
  -27.7700  -12.1260   18.1510 C   0  0  0  0  0  2  0  0  0  0  0  0
  -27.4560  -13.1270   19.2920 C   0  0  0  0  0  3  0  0  0  0  0  0
  -28.6240  -13.1830   20.3000 C   0  0  0  0  0  2  0  0  0  0  0  0
  -29.8650  -13.5140   19.5690 N   0  0  0  0  0  0  0  0  0  0  0  0
  -31.3230  -15.0560   18.7130 O   0  0  0  0  0  0  0  0  0  0  0  0
  -30.0640  -15.5590   20.5130 N   0  0  0  0  0  0  0  0  0  0  0  0
  -29.3910  -15.1690   21.1550 H   0  0  0  0  0  0  0  0  0  0  0  0
  -25.1650  -13.6440   20.3530 C   0  0  0  0  0  0  0  0  0  0  0  0
  -24.1850  -12.8300   20.8550 C   0  0  0  0  0  0  0  0  0  0  0  0
  -24.6770  -11.4960   20.7250 C   0  0  0  0  0  0  0  0  0  0  0  0
  -26.1920  -12.8040   19.9530 N   0  0  0  0  0  0  0  0  0  0  0  0
  -25.9070  -11.5050   20.2280 N   0  0  0  0  0  0  0  0  0  0  0  0
  -24.0250  -10.2060   20.9890 C   0  0  0  0  0  0  0  0  0  0  0  0
  -24.5580   -9.2860   21.9190 C   0  0  0  0  0  3  0  0  0  0  0  0
  -23.9030   -8.0600   22.1690 C   0  0  0  0  0  3  0  0  0  0  0  0
  -22.7040   -7.7450   21.4870 C   0  0  0  0  0  0  0  0  0  0  0  0
  -22.1910   -8.6540   20.5450 C   0  0  0  0  0  3  0  0  0  0  0  0
  -22.8460   -9.8710   20.2940 C   0  0  0  0  0  3  0  0  0  0  0  0
  -22.0140   -6.5670   21.6450 O   0  0  0  0  0  0  0  0  0  0  0  0
  -21.9910   -5.9030   22.8450 C   0  0  0  0  0  0  0  0  0  0  0  0
  -21.4950   -6.5060   24.0210 C   0  0  0  0  0  3  0  0  0  0  0  0
  -21.4240   -5.7630   25.2170 C   0  0  0  0  0  3  0  0  0  0  0  0
  -21.8390   -4.4180   25.2380 C   0  0  0  0  0  0  0  0  0  0  0  0
  -22.3300   -3.8160   24.0660 C   0  0  0  0  0  3  0  0  0  0  0  0
  -22.4030   -4.5560   22.8730 C   0  0  0  0  0  0  0  0  0  0  0  0
  -22.8560   -3.9630   21.7420 F   0  0  0  0  0  0  0  0  0  0  0  0
  -21.7650   -3.7030   26.3840 F   0  0  0  0  0  0  0  0  0  0  0  0
  -22.8300  -13.2540   21.3430 C   0  0  0  0  0  0  0  0  0  0  0  0
  -22.2680  -12.5260   22.3030 N   0  0  0  0  0  0  0  0  0  0  0  0
  -22.2810  -14.2650   20.9070 O   0  0  0  0  0  0  0  0  0  0  0  0
  -22.7260  -11.7080   22.6740 H   0  0  0  0  0  0  0  0  0  0  0  0
  -21.3650  -12.7930   22.6720 H   0  0  0  0  0  0  0  0  0  0  0  0
  -25.2600  -15.0240   20.1900 N   0  0  0  0  0  0  0  0  0  0  0  0
  -24.5010  -15.6510   20.4280 H   0  0  0  0  0  0  0  0  0  0  0  0
  -26.0490  -15.4980   19.7670 H   0  0  0  0  0  0  0  0  0  0  0  0
  -33.9480  -18.5730   20.5430 N   0  0  0  0  0  4  0  0  0  0  0  0
  -34.3260  -18.3310   21.4420 H   0  0  0  0  0  0  0  0  0  0  0  0
  -34.2780  -19.4910   20.3020 H   0  0  0  0  0  0  0  0  0  0  0  0
  -34.3070  -17.9290   19.8630 H   0  0  0  0  0  0  0  0  0  0  0  0
  -30.1300  -21.1850   21.7050 C   0  0  0  0  0  2  0  0  0  0  0  0
  -29.0420  -21.6520   20.7250 C   0  0  0  0  0  2  0  0  0  0  0  0
  -29.1110  -23.1590   20.4580 C   0  0  0  0  0  2  0  0  0  0  0  0
  -28.0340  -23.6070   19.4620 C   0  0  0  0  0  2  0  0  0  0  0  0
  -28.2020  -25.0680   19.0290 C   0  0  0  0  0  2  0  0  0  0  0  0
  -26.8920  -25.6540   18.5030 C   0  0  0  0  0  2  0  0  0  0  0  0
  -27.0190  -27.0710   18.4580 O   0  0  0  0  0  0  0  0  0  0  0  0
  -24.4580  -31.5760   23.2930 C   0  0  0  0  0  0  0  0  0  0  0  0
  -25.9270  -27.8070   18.8550 C   0  0  0  0  0  0  0  0  0  0  0  0
  -22.7950  -30.6380   21.7210 C   0  0  0  0  0  3  0  0  0  0  0  0
  -23.7470  -29.3780   19.7200 C   0  0  0  0  0  0  0  0  0  0  0  0
  -25.2420  -30.8990   21.0290 C   0  0  0  0  0  2  0  0  0  0  0  0
  -25.0490  -29.7020   20.1220 C   0  0  0  0  0  0  0  0  0  0  0  0
  -26.1420  -28.9240   19.6880 C   0  0  0  0  0  3  0  0  0  0  0  0
  -24.6070  -27.4940   18.4510 C   0  0  0  0  0  3  0  0  0  0  0  0
  -23.5190  -28.2710   18.8850 C   0  0  0  0  0  3  0  0  0  0  0  0
  -22.6370  -30.2730   20.2200 C   0  0  0  0  0  2  0  0  0  0  0  0
  -24.1970  -31.0360   22.0700 N   0  0  0  0  0  0  0  0  0  0  0  0
  -23.5510  -31.7810   24.1090 O   0  0  0  0  0  0  0  0  0  0  0  0
  -22.2620  -29.4640   22.5730 C   0  0  0  0  0  0  0  0  0  0  0  0
  -20.9440  -29.2210   22.4930 N   0  0  0  0  0  0  0  0  0  0  0  0
  -23.0260  -28.7830   23.2620 O   0  0  0  0  0  0  0  0  0  0  0  0
  -20.3860  -29.8330   21.9140 H   0  0  0  0  0  0  0  0  0  0  0  0
  -17.7380  -27.5780   22.7600 C   0  0  0  0  0  0  0  0  0  0  0  0
  -20.2240  -28.1480   23.1770 C   0  0  0  0  0  3  0  0  0  0  0  0
  -20.5400  -26.7730   22.5450 C   0  0  0  0  0  2  0  0  0  0  0  0
  -19.5370  -26.3630   21.4600 C   0  0  0  0  0  2  0  0  0  0  0  0
  -18.1200  -26.2970   22.0390 C   0  0  0  0  0  2  0  0  0  0  0  0
  -18.7270  -28.4550   23.2810 C   0  0  0  0  0  0  0  0  0  0  0  0
  -18.3200  -29.6500   23.9130 C   0  0  0  0  0  3  0  0  0  0  0  0
  -16.9550  -29.9720   24.0320 C   0  0  0  0  0  3  0  0  0  0  0  0
  -15.9790  -29.0940   23.5290 C   0  0  0  0  0  3  0  0  0  0  0  0
  -16.3710  -27.8990   22.8990 C   0  0  0  0  0  3  0  0  0  0  0  0
  -25.9060  -31.9810   23.7170 C   0  0  0  0  0  3  0  0  0  0  0  0
  -26.5830  -30.9410   24.6920 C   0  0  1  0  0  0  0  0  0  0  0  0
  -25.7040  -30.5690   25.9100 C   0  0  0  0  0  1  0  0  0  0  0  0
  -26.9280  -29.6360   23.9390 C   0  0  0  0  0  1  0  0  0  0  0  0
  -27.9170  -31.5130   25.2240 C   0  0  0  0  0  1  0  0  0  0  0  0
  -25.8270  -33.3060   24.3430 N   0  0  0  0  0  0  0  0  0  0  0  0
  -26.1730  -34.4520   23.7410 C   0  0  0  0  0  0  0  0  0  0  0  0
  -26.6660  -34.4940   22.6110 O   0  0  0  0  0  0  0  0  0  0  0  0
  -25.3840  -33.3540   25.2480 H   0  0  0  0  0  0  0  0  0  0  0  0
  -24.6560  -36.4420   23.9970 C   0  0  0  0  0  1  0  0  0  0  0  0
  -25.9330  -35.7610   24.5160 C   0  0  0  0  0  3  0  0  0  0  0  0
  -28.2540  -36.2450   25.1520 C   0  0  0  0  0  1  0  0  0  0  0  0
  -27.0670  -36.7070   24.4390 N   0  0  0  0  0  0  0  0  0  0  0  0
  -26.8050  -37.6150   24.8150 H   0  0  0  0  0  0  0  0  0  0  0  0
  1  3  1  0
  5 16  1  0
  5  2  1  0
  5  1  1  0
  6 46  1  0
  6  2  1  0
  6  4  1  0
  7  4  1  0
  7 50  1  0
  7  3  1  0
  8 14  1  0
  8 16  1  0
  9 14  1  0
 10 11  1  0
 10  9  1  0
 12 11  1  0
 12 21  1  0
 12 13  1  0
 14 13  1  0
 15  8  2  0
 16 17  1  0
 18 19  2  0
 19 38  1  0
 20 19  1  0
 20 23  1  0
 21 22  1  0
 21 18  1  0
 22 20  2  0
 23 24  1  0
 24 25  2  0
 26 29  1  0
 26 25  1  0
 27 26  2  0
 28 27  1  0
 28 23  2  0
 29 30  1  0
 30 35  2  0
 30 31  1  0
 31 32  2  0
 32 33  1  0
 33 37  1  0
 34 33  2  0
 35 34  1  0
 36 35  1  0
 38 39  1  0
 39 42  1  0
 39 41  1  0
 40 38  2  0
 43 18  1  0
 43 44  1  0
 45 43  1  0
 46 47  1  0
 48 46  1  0
 49 46  1  0
 51 50  1  0
 52 51  1  0
 53 52  1  0
 54 53  1  0
 55 54  1  0
 56 55  1  0
 56 58  1  0
 57 68  2  0
 58 63  1  0
 59 67  1  0
 59 69  1  0
 60 62  1  0
 60 66  1  0
 61 67  1  0
 62 61  1  0
 63 62  2  0
 64 58  2  0
 64 65  1  0
 65 60  2  0
 66 59  1  0
 67 57  1  0
 69 71  2  0
 70 69  1  0
 72 70  1  0
 73 82  2  0
 73 78  1  0
 74 70  1  0
 74 78  1  0
 75 74  1  0
 76 77  1  0
 76 75  1  0
 77 73  1  0
 78 79  2  0
 79 80  1  0
 81 80  2  0
 82 81  1  0
 83 57  1  0
 83 88  1  0
 83 84  1  0
 84 87  1  1
 84 85  1  0
 86 84  1  0
 88 91  1  0
 89 88  1  0
 89 93  1  0
 90 89  2  0
 93 92  1  0
 95 93  1  0
 95 96  1  0
 95 94  1  0
M  ISO  4   8 100  16 100  55 101  56 101
M  END
>  <TORSDO>  (37) 
F 23

>  <SCORE>  (37) 
-9.118

>  <name>  (37) 
36

>  <ligand_id>  (37) 
36

>  <original_smiles>  (37) 
[H]c1c([H])c([H])c2c(c1[H])C([H])([H])C([H])([H])C([H])([H])C2([H])N([H])C(=O)C1([H])N(C(=O)C([H])(N([H])C(=O)C([H])(N([H])C([H])([H])[H])C([H])([H])[H])C(C([H])([H])[H])(C([H])([H])[H])C([H])([H])[H])C([H])([H])c2c([H])c(OC([H])([H])C([H])([H])C([H])([H])C([H])([H])C([H])([H])C([H])([H])N3C([H])([H])C([H])([H])C([H])(N([H])C(=O)N4C([H])([H])C([H])([H])C([H])([H])C([H])(n5nc(-c6c([H])c([H])c(Oc7c([H])c([H])c(F)c([H])c7F)c([H])c6[H])c(C(=O)N([H])[H])c5N([H])[H])C4([H])[H])C([H])([H])C([H])([N+]([H])([H])[H])C3([H])[H])c([H])c([H])c2C1([H])[H]

>  <smiles>  (37) 
[H]c1c([H])c([H])c2c(c1[H])C([H])([H])C([H])([H])C([H])([H])C2([H])N([H])C(=O)C1([H])N(C(=O)C([H])(N([H])C(=O)C([H])(N([H])C([H])([H])[H])C([H])([H])[H])C(C([H])([H])[H])(C([H])([H])[H])C([H])([H])[H])C([H])([H])c2c([H])c(OC([H])([H])C([H])([H])C([H])([H])C([H])([H])C([H])([H])C([H])([H])N3C([H])([H])C([H])([H])C([H])(N([H])C(=O)N4C([H])([H])C([H])([H])C([H])([H])C([H])(n5nc(-c6c([H])c([H])c(Oc7c([H])c([H])c(F)c([H])c7F)c([H])c6[H])c(C(=O)N([H])[H])c5N([H])[H])C4([H])[H])C([H])([H])C([H])([N+]([H])([H])[H])C3([H])[H])c([H])c([H])c2C1([H])[H]

$$$$
37:0:0
     RDKit          3D

 97105  0  0  1  0  0  0  0  0999 V2000
  -30.7670  -20.2450   23.0690 C   0  0  0  0  0  2  0  0  0  0  0  0
  -33.1360  -20.0060   22.6230 C   0  0  0  0  0  1  0  0  0  0  0  0
  -31.7960  -19.5130   22.2920 N   0  0  0  0  0  0  0  0  0  0  0  0
  -31.7430  -18.0440   22.4770 C   0  0  0  0  0  2  0  0  0  0  0  0
  -29.5640  -16.5550   22.2600 C   0  0  0  0  0  2  0  0  0  0  0  0
  -29.5710  -16.2710   19.9080 C   0  0  0  0  0  2  0  0  0  0  0  0
  -30.6550  -17.4100   21.5760 C   0  0  0  0  0  3  0  0  0  0  0  0
  -31.0210  -16.6100   20.2900 C   0  0  0  0  0  3  0  0  0  0  0  0
  -28.9890  -15.7480   21.1580 N   0  0  0  0  0  4  0  0  0  0  0  0
  -27.9810  -15.7280   21.1340 H   0  0  0  0  0  0  0  0  0  0  0  0
  -29.3040  -14.7980   21.2760 H   0  0  0  0  0  0  0  0  0  0  0  0
  -32.0730  -14.4390   19.5330 C   0  0  0  0  0  0  0  0  0  0  0  0
  -31.6440  -12.0900   18.8040 C   0  0  0  0  0  2  0  0  0  0  0  0
  -30.6360  -12.0030   17.6350 C   0  0  0  0  0  2  0  0  0  0  0  0
  -29.1840  -12.0560   18.1510 C   0  0  0  0  0  2  0  0  0  0  0  0
  -28.9390  -13.2230   19.1460 C   0  0  0  0  0  3  0  0  0  0  0  0
  -30.0200  -13.1300   20.2490 C   0  0  0  0  0  2  0  0  0  0  0  0
  -31.3380  -13.2880   19.6140 N   0  0  0  0  0  0  0  0  0  0  0  0
  -33.0330  -14.5530   18.7610 O   0  0  0  0  0  0  0  0  0  0  0  0
  -31.8320  -15.3740   20.4930 N   0  0  0  0  0  0  0  0  0  0  0  0
  -32.6580  -15.5500   21.0530 H   0  0  0  0  0  0  0  0  0  0  0  0
  -26.7160  -14.2350   20.0070 C   0  0  0  0  0  0  0  0  0  0  0  0
  -25.5590  -13.6610   20.4450 C   0  0  0  0  0  0  0  0  0  0  0  0
  -25.7600  -12.2460   20.3570 C   0  0  0  0  0  0  0  0  0  0  0  0
  -27.5740  -13.1900   19.6920 N   0  0  0  0  0  0  0  0  0  0  0  0
  -26.9960  -11.9880   19.9430 N   0  0  0  0  0  0  0  0  0  0  0  0
  -24.8340  -11.1350   20.5920 C   0  0  0  0  0  0  0  0  0  0  0  0
  -25.1470  -10.0950   21.4950 C   0  0  0  0  0  3  0  0  0  0  0  0
  -24.2380   -9.0360   21.7100 C   0  0  0  0  0  3  0  0  0  0  0  0
  -23.0020   -9.0090   21.0210 C   0  0  0  0  0  0  0  0  0  0  0  0
  -22.7040  -10.0320   20.1020 C   0  0  0  0  0  3  0  0  0  0  0  0
  -23.6100  -11.0840   19.8890 C   0  0  0  0  0  3  0  0  0  0  0  0
  -22.0710   -8.0050   21.1410 O   0  0  0  0  0  0  0  0  0  0  0  0
  -21.9020   -7.3210   22.3180 C   0  0  0  0  0  0  0  0  0  0  0  0
  -21.6040   -7.9830   23.5260 C   0  0  0  0  0  3  0  0  0  0  0  0
  -21.3680   -7.2370   24.6980 C   0  0  0  0  0  3  0  0  0  0  0  0
  -21.4130   -5.8340   24.6660 C   0  0  0  0  0  0  0  0  0  0  0  0
  -21.7010   -5.1710   23.4620 C   0  0  0  0  0  3  0  0  0  0  0  0
  -21.9430   -5.9100   22.2910 C   0  0  0  0  0  0  0  0  0  0  0  0
  -22.2000   -5.2650   21.1280 F   0  0  0  0  0  0  0  0  0  0  0  0
  -21.1780   -5.1170   25.7920 F   0  0  0  0  0  0  0  0  0  0  0  0
  -24.2940  -14.3690   20.8360 C   0  0  0  0  0  0  0  0  0  0  0  0
  -23.5340  -13.7950   21.7580 N   0  0  0  0  0  0  0  0  0  0  0  0
  -23.9920  -15.4690   20.3680 O   0  0  0  0  0  0  0  0  0  0  0  0
  -23.7980  -12.9000   22.1550 H   0  0  0  0  0  0  0  0  0  0  0  0
  -22.6860  -14.2420   22.0760 H   0  0  0  0  0  0  0  0  0  0  0  0
  -27.1110  -15.5610   19.8360 N   0  0  0  0  0  0  0  0  0  0  0  0
  -26.4480  -16.3230   19.9500 H   0  0  0  0  0  0  0  0  0  0  0  0
  -27.9230  -15.8110   19.2890 H   0  0  0  0  0  0  0  0  0  0  0  0
  -29.8060  -21.1020   22.1910 C   0  0  0  0  0  2  0  0  0  0  0  0
  -30.0600  -22.5680   22.1910 N   0  0  0  0  0  4  0  0  0  0  0  0
  -30.0650  -22.9090   23.1370 H   0  0  0  0  0  0  0  0  0  0  0  0
  -30.9610  -22.7430   21.7880 H   0  0  0  0  0  0  0  0  0  0  0  0
  -29.0340  -23.3180   21.4130 C   0  0  0  0  0  2  0  0  0  0  0  0
  -29.3050  -24.8340   21.2340 C   0  0  0  0  0  2  0  0  0  0  0  0
  -28.2450  -25.4940   20.3330 C   0  0  0  0  0  2  0  0  0  0  0  0
  -28.4690  -26.9020   20.1650 O   0  0  0  0  0  0  0  0  0  0  0  0
  -24.6370  -31.9780   23.2710 C   0  0  0  0  0  0  0  0  0  0  0  0
  -27.3120  -27.6450   20.1030 C   0  0  0  0  0  0  0  0  0  0  0  0
  -23.4360  -30.5860   21.6220 C   0  0  0  0  0  3  0  0  0  0  0  0
  -24.8990  -29.1060   20.1460 C   0  0  0  0  0  0  0  0  0  0  0  0
  -25.9510  -31.0000   21.3930 C   0  0  0  0  0  2  0  0  0  0  0  0
  -26.0540  -29.6450   20.7280 C   0  0  0  0  0  0  0  0  0  0  0  0
  -27.2690  -28.9240   20.6990 C   0  0  0  0  0  3  0  0  0  0  0  0
  -26.1450  -27.1370   19.4870 C   0  0  0  0  0  3  0  0  0  0  0  0
  -24.9390  -27.8530   19.5190 C   0  0  0  0  0  3  0  0  0  0  0  0
  -23.6400  -29.9390   20.2270 C   0  0  0  0  0  2  0  0  0  0  0  0
  -24.6950  -31.1990   22.1540 N   0  0  0  0  0  0  0  0  0  0  0  0
  -23.5580  -32.2240   23.8270 O   0  0  0  0  0  0  0  0  0  0  0  0
  -22.8130  -29.5360   22.5690 C   0  0  0  0  0  0  0  0  0  0  0  0
  -21.5000  -29.3000   22.4180 N   0  0  0  0  0  0  0  0  0  0  0  0
  -23.5100  -28.9310   23.3890 O   0  0  0  0  0  0  0  0  0  0  0  0
  -21.0010  -29.8420   21.7260 H   0  0  0  0  0  0  0  0  0  0  0  0
  -18.1670  -27.9710   22.8360 C   0  0  0  0  0  0  0  0  0  0  0  0
  -20.7040  -28.3360   23.1750 C   0  0  0  0  0  3  0  0  0  0  0  0
  -20.8800  -26.9070   22.6100 C   0  0  0  0  0  2  0  0  0  0  0  0
  -19.8190  -26.5340   21.5700 C   0  0  0  0  0  2  0  0  0  0  0  0
  -18.4170  -26.6250   22.1770 C   0  0  0  0  0  2  0  0  0  0  0  0
  -19.2420  -28.7820   23.2900 C   0  0  0  0  0  0  0  0  0  0  0  0
  -18.9550  -30.0410   23.8630 C   0  0  0  0  0  3  0  0  0  0  0  0
  -17.6280  -30.4900   23.9900 C   0  0  0  0  0  3  0  0  0  0  0  0
  -16.5680  -29.6770   23.5530 C   0  0  0  0  0  3  0  0  0  0  0  0
  -16.8380  -28.4190   22.9840 C   0  0  0  0  0  3  0  0  0  0  0  0
  -25.9220  -32.6160   23.8870 C   0  0  0  0  0  3  0  0  0  0  0  0
  -25.6060  -34.0120   24.2170 N   0  0  0  0  0  0  0  0  0  0  0  0
  -25.9310  -35.0640   23.4570 C   0  0  0  0  0  0  0  0  0  0  0  0
  -26.6020  -34.9640   22.4250 O   0  0  0  0  0  0  0  0  0  0  0  0
  -25.0080  -34.1620   25.0170 H   0  0  0  0  0  0  0  0  0  0  0  0
  -24.1830  -36.8350   23.1030 C   0  0  0  0  0  1  0  0  0  0  0  0
  -25.4340  -36.4490   23.9100 C   0  0  0  0  0  3  0  0  0  0  0  0
  -27.5680  -37.3510   24.7190 C   0  0  0  0  0  1  0  0  0  0  0  0
  -26.4550  -37.5110   23.7870 N   0  0  0  0  0  0  0  0  0  0  0  0
  -26.0450  -38.4280   23.9370 H   0  0  0  0  0  0  0  0  0  0  0  0
  -26.4520  -31.8430   25.1550 C   0  0  1  0  0  0  0  0  0  0  0  0
  -25.3600  -31.5670   26.2150 C   0  0  0  0  0  1  0  0  0  0  0  0
  -27.0690  -30.4850   24.7470 C   0  0  0  0  0  1  0  0  0  0  0  0
  -27.5820  -32.6560   25.8280 C   0  0  0  0  0  1  0  0  0  0  0  0
  3  4  1  0
  3  2  1  0
  3  1  1  0
  6  8  1  0
  6  9  1  0
  7  5  1  0
  7  4  1  0
  8 20  1  0
  8  7  1  0
  9 11  1  0
  9  5  1  0
 10  9  1  0
 12 18  1  0
 12 20  1  0
 13 18  1  0
 14 15  1  0
 14 13  1  0
 16 15  1  0
 16 25  1  0
 16 17  1  0
 18 17  1  0
 19 12  2  0
 20 21  1  0
 22 23  2  0
 23 42  1  0
 24 23  1  0
 24 27  1  0
 25 26  1  0
 25 22  1  0
 26 24  2  0
 27 28  1  0
 28 29  2  0
 30 33  1  0
 30 29  1  0
 31 30  2  0
 32 31  1  0
 32 27  2  0
 33 34  1  0
 34 35  1  0
 35 36  2  0
 37 36  1  0
 37 41  1  0
 38 37  2  0
 39 34  2  0
 39 38  1  0
 40 39  1  0
 42 43  1  0
 43 46  1  0
 43 45  1  0
 44 42  2  0
 47 48  1  0
 47 22  1  0
 49 47  1  0
 50 51  1  0
 50  1  1  0
 51 52  1  0
 53 51  1  0
 54 51  1  0
 55 54  1  0
 56 55  1  0
 57 56  1  0
 58 69  2  0
 59 57  1  0
 59 64  1  0
 60 68  1  0
 60 70  1  0
 61 67  1  0
 61 63  1  0
 62 68  1  0
 63 62  1  0
 64 63  2  0
 65 66  1  0
 65 59  2  0
 66 61  2  0
 67 60  1  0
 68 58  1  0
 70 72  2  0
 71 70  1  0
 73 71  1  0
 74 83  2  0
 74 79  1  0
 75 71  1  0
 75 79  1  0
 76 75  1  0
 77 78  1  0
 77 76  1  0
 78 74  1  0
 79 80  2  0
 80 81  1  0
 82 81  2  0
 83 82  1  0
 84 58  1  0
 84 85  1  0
 84 94  1  0
 85 88  1  0
 86 90  1  0
 86 85  1  0
 87 86  2  0
 90 89  1  0
 92 90  1  0
 92 93  1  0
 92 91  1  0
 94 97  1  1
 94 95  1  0
 96 94  1  0
M  ISO  4  12 100  20 100  56 101  57 101
M  END
>  <TORSDO>  (38) 
F 24

>  <SCORE>  (38) 
-9.961

>  <name>  (38) 
37

>  <ligand_id>  (38) 
37

>  <original_smiles>  (38) 
[H]c1c([H])c([H])c2c(c1[H])C([H])([H])C([H])([H])C([H])([H])C2([H])N([H])C(=O)C1([H])N(C(=O)C([H])(N([H])C(=O)C([H])(N([H])C([H])([H])[H])C([H])([H])[H])C(C([H])([H])[H])(C([H])([H])[H])C([H])([H])[H])C([H])([H])c2c([H])c(OC([H])([H])C([H])([H])C([H])([H])[N+]([H])([H])C([H])([H])C([H])([H])N(C([H])([H])[H])C([H])([H])C3([H])C([H])(N([H])C(=O)N4C([H])([H])C([H])([H])C([H])([H])C([H])(n5nc(-c6c([H])c([H])c(Oc7c([H])c([H])c(F)c([H])c7F)c([H])c6[H])c(C(=O)N([H])[H])c5N([H])[H])C4([H])[H])C([H])([H])[N+]([H])([H])C3([H])[H])c([H])c([H])c2C1([H])[H]

>  <smiles>  (38) 
[H]c1c([H])c([H])c2c(c1[H])C([H])([H])C([H])([H])C([H])([H])C2([H])N([H])C(=O)C1([H])N(C(=O)C([H])(N([H])C(=O)C([H])(N([H])C([H])([H])[H])C([H])([H])[H])C(C([H])([H])[H])(C([H])([H])[H])C([H])([H])[H])C([H])([H])c2c([H])c(OC([H])([H])C([H])([H])C([H])([H])[N+]([H])([H])C([H])([H])C([H])([H])N(C([H])([H])[H])C([H])([H])C3([H])C([H])(N([H])C(=O)N4C([H])([H])C([H])([H])C([H])([H])C([H])(n5nc(-c6c([H])c([H])c(Oc7c([H])c([H])c(F)c([H])c7F)c([H])c6[H])c(C(=O)N([H])[H])c5N([H])[H])C4([H])[H])C([H])([H])[N+]([H])([H])C3([H])[H])c([H])c([H])c2C1([H])[H]

$$$$
38:0:0
     RDKit          3D

 93101  0  0  1  0  0  0  0  0999 V2000
  -28.1270  -20.0660   19.5590 N   0  0  0  0  0  0  0  0  0  0  0  0
  -28.0790  -20.7030   18.7690 H   0  0  0  0  0  0  0  0  0  0  0  0
  -31.6370  -19.0670   18.9030 C   0  0  0  0  0  3  0  0  0  0  0  0
  -31.8090  -18.0100   19.8150 C   0  0  0  0  0  3  0  0  0  0  0  0
  -30.4040  -19.7430   18.8330 C   0  0  0  0  0  3  0  0  0  0  0  0
  -29.5140  -18.3050   20.5890 C   0  0  0  0  0  3  0  0  0  0  0  0
  -30.7480  -17.6220   20.6590 C   0  0  0  0  0  0  0  0  0  0  0  0
  -29.3390  -19.3740   19.6780 C   0  0  0  0  0  0  0  0  0  0  0  0
  -30.9420  -16.4660   21.6290 C   0  0  0  0  0  2  0  0  0  0  0  0
  -30.8220  -14.3740   20.2700 C   0  0  0  0  0  0  0  0  0  0  0  0
  -30.3910  -12.3120   18.9830 C   0  0  0  0  0  2  0  0  0  0  0  0
  -29.4110  -12.5850   17.8260 C   0  0  0  0  0  2  0  0  0  0  0  0
  -27.9510  -12.4720   18.3050 C   0  0  0  0  0  2  0  0  0  0  0  0
  -27.6840  -13.2790   19.6020 C   0  0  0  0  0  3  0  0  0  0  0  0
  -28.7630  -12.9700   20.6630 C   0  0  0  0  0  2  0  0  0  0  0  0
  -30.0830  -13.2520   20.0710 N   0  0  0  0  0  0  0  0  0  0  0  0
  -31.8690  -14.6120   19.6600 O   0  0  0  0  0  0  0  0  0  0  0  0
  -30.3270  -15.2220   21.1800 N   0  0  0  0  0  0  0  0  0  0  0  0
  -29.4650  -14.9490   21.6280 H   0  0  0  0  0  0  0  0  0  0  0  0
  -25.3150  -13.9360   20.3700 C   0  0  0  0  0  0  0  0  0  0  0  0
  -24.2430  -13.1850   20.7710 C   0  0  0  0  0  0  0  0  0  0  0  0
  -24.6790  -11.8240   20.7330 C   0  0  0  0  0  0  0  0  0  0  0  0
  -26.3380  -13.0340   20.1160 N   0  0  0  0  0  0  0  0  0  0  0  0
  -25.9580  -11.7590   20.3890 N   0  0  0  0  0  0  0  0  0  0  0  0
  -23.9350  -10.5760   20.9490 C   0  0  0  0  0  0  0  0  0  0  0  0
  -24.3780   -9.6040   21.8740 C   0  0  0  0  0  3  0  0  0  0  0  0
  -23.6360   -8.4200   22.0760 C   0  0  0  0  0  3  0  0  0  0  0  0
  -22.4400   -8.2000   21.3540 C   0  0  0  0  0  0  0  0  0  0  0  0
  -22.0160   -9.1600   20.4190 C   0  0  0  0  0  3  0  0  0  0  0  0
  -22.7570  -10.3360   20.2140 C   0  0  0  0  0  3  0  0  0  0  0  0
  -21.6690   -7.0670   21.4670 O   0  0  0  0  0  0  0  0  0  0  0  0
  -21.6410   -6.3270   22.6220 C   0  0  0  0  0  0  0  0  0  0  0  0
  -21.2670   -6.8930   23.8600 C   0  0  0  0  0  3  0  0  0  0  0  0
  -21.1850   -6.0800   25.0090 C   0  0  0  0  0  3  0  0  0  0  0  0
  -21.4660   -4.7030   24.9200 C   0  0  0  0  0  0  0  0  0  0  0  0
  -21.8350   -4.1380   23.6860 C   0  0  0  0  0  3  0  0  0  0  0  0
  -21.9180   -4.9480   22.5400 C   0  0  0  0  0  0  0  0  0  0  0  0
  -22.2530   -4.3950   21.3490 F   0  0  0  0  0  0  0  0  0  0  0  0
  -21.3800   -3.9210   26.0210 F   0  0  0  0  0  0  0  0  0  0  0  0
  -22.8630  -13.6880   21.0830 C   0  0  0  0  0  0  0  0  0  0  0  0
  -22.1480  -13.0080   21.9720 N   0  0  0  0  0  0  0  0  0  0  0  0
  -22.4270  -14.7190   20.5720 O   0  0  0  0  0  0  0  0  0  0  0  0
  -22.5130  -12.1730   22.4070 H   0  0  0  0  0  0  0  0  0  0  0  0
  -21.2230  -13.3270   22.2230 H   0  0  0  0  0  0  0  0  0  0  0  0
  -25.5000  -15.3020   20.1840 N   0  0  0  0  0  0  0  0  0  0  0  0
  -24.7510  -15.9730   20.3120 H   0  0  0  0  0  0  0  0  0  0  0  0
  -26.3550  -15.7220   19.8380 H   0  0  0  0  0  0  0  0  0  0  0  0
  -27.4970  -20.5890   20.7670 C   0  0  0  0  0  2  0  0  0  0  0  0
  -28.1040  -21.9300   21.2240 C   0  0  0  0  0  2  0  0  0  0  0  0
  -28.1300  -23.0170   20.1280 C   0  0  0  0  0  2  0  0  0  0  0  0
  -28.2950  -24.4410   20.6880 C   0  0  0  0  0  2  0  0  0  0  0  0
  -28.6960  -25.4700   19.6120 C   0  0  0  0  0  2  0  0  0  0  0  0
  -28.5940  -26.8070   20.1070 O   0  0  0  0  0  0  0  0  0  0  0  0
  -24.6350  -31.8330   23.1890 C   0  0  0  0  0  0  0  0  0  0  0  0
  -27.3760  -27.4580   20.0990 C   0  0  0  0  0  0  0  0  0  0  0  0
  -23.4650  -30.4330   21.5190 C   0  0  0  0  0  3  0  0  0  0  0  0
  -24.9530  -28.9240   20.1050 C   0  0  0  0  0  0  0  0  0  0  0  0
  -25.9890  -30.8240   21.3570 C   0  0  0  0  0  2  0  0  0  0  0  0
  -26.0970  -29.4610   20.7070 C   0  0  0  0  0  0  0  0  0  0  0  0
  -27.3080  -28.7350   20.7000 C   0  0  0  0  0  3  0  0  0  0  0  0
  -26.2040  -26.9240   19.5110 C   0  0  0  0  0  3  0  0  0  0  0  0
  -25.0000  -27.6530   19.5080 C   0  0  0  0  0  3  0  0  0  0  0  0
  -23.7000  -29.7680   20.1370 C   0  0  0  0  0  2  0  0  0  0  0  0
  -24.7140  -31.0450   22.0800 N   0  0  0  0  0  0  0  0  0  0  0  0
  -23.5440  -32.0890   23.7170 O   0  0  0  0  0  0  0  0  0  0  0  0
  -22.8150  -29.3960   22.4610 C   0  0  0  0  0  0  0  0  0  0  0  0
  -21.4960  -29.1940   22.3100 N   0  0  0  0  0  0  0  0  0  0  0  0
  -23.4940  -28.7750   23.2840 O   0  0  0  0  0  0  0  0  0  0  0  0
  -21.0110  -29.7440   21.6160 H   0  0  0  0  0  0  0  0  0  0  0  0
  -18.1340  -27.9430   22.7310 C   0  0  0  0  0  0  0  0  0  0  0  0
  -20.6810  -28.2420   23.0600 C   0  0  0  0  0  3  0  0  0  0  0  0
  -20.8200  -26.8150   22.4820 C   0  0  0  0  0  2  0  0  0  0  0  0
  -19.7460  -26.4770   21.4440 C   0  0  0  0  0  2  0  0  0  0  0  0
  -18.3480  -26.5980   22.0570 C   0  0  0  0  0  2  0  0  0  0  0  0
  -19.2300  -28.7210   23.1880 C   0  0  0  0  0  0  0  0  0  0  0  0
  -18.9780  -29.9800   23.7760 C   0  0  0  0  0  3  0  0  0  0  0  0
  -17.6620  -30.4610   23.9150 C   0  0  0  0  0  3  0  0  0  0  0  0
  -16.5790  -29.6790   23.4750 C   0  0  0  0  0  3  0  0  0  0  0  0
  -16.8160  -28.4220   22.8880 C   0  0  0  0  0  3  0  0  0  0  0  0
  -25.9060  -32.4730   23.8300 C   0  0  0  0  0  3  0  0  0  0  0  0
  -25.5810  -33.8670   24.1610 N   0  0  0  0  0  0  0  0  0  0  0  0
  -25.9130  -34.9240   23.4100 C   0  0  0  0  0  0  0  0  0  0  0  0
  -26.6000  -34.8310   22.3880 O   0  0  0  0  0  0  0  0  0  0  0  0
  -24.9760  -34.0110   24.9570 H   0  0  0  0  0  0  0  0  0  0  0  0
  -24.1740  -36.7020   23.0320 C   0  0  0  0  0  1  0  0  0  0  0  0
  -25.4050  -36.3060   23.8640 C   0  0  0  0  0  3  0  0  0  0  0  0
  -27.5150  -37.2070   24.7360 C   0  0  0  0  0  1  0  0  0  0  0  0
  -26.4290  -37.3690   23.7740 N   0  0  0  0  0  0  0  0  0  0  0  0
  -26.0120  -38.2840   23.9190 H   0  0  0  0  0  0  0  0  0  0  0  0
  -26.4160  -31.7000   25.1080 C   0  0  1  0  0  0  0  0  0  0  0  0
  -25.3120  -31.4440   26.1620 C   0  0  0  0  0  1  0  0  0  0  0  0
  -27.0180  -30.3300   24.7140 C   0  0  0  0  0  1  0  0  0  0  0  0
  -27.5510  -32.5010   25.7890 C   0  0  0  0  0  1  0  0  0  0  0  0
  1  8  1  0
  1 48  1  0
  2  1  1  0
  3  4  1  0
  4  7  2  0
  5  3  2  0
  5  8  1  0
  6  7  1  0
  7  9  1  0
  8  6  2  0
 10 18  1  0
 11 16  1  0
 12 13  1  0
 12 11  1  0
 14 13  1  0
 14 23  1  0
 14 15  1  0
 16 10  1  0
 16 15  1  0
 17 10  2  0
 18 19  1  0
 18  9  1  0
 20 21  2  0
 21 40  1  0
 22 21  1  0
 22 25  1  0
 23 20  1  0
 23 24  1  0
 24 22  2  0
 25 26  1  0
 26 27  2  0
 28 31  1  0
 28 27  1  0
 29 28  2  0
 30 29  1  0
 30 25  2  0
 31 32  1  0
 32 33  1  0
 33 34  2  0
 35 34  1  0
 35 39  1  0
 36 35  2  0
 37 32  2  0
 37 36  1  0
 38 37  1  0
 40 41  1  0
 41 44  1  0
 41 43  1  0
 42 40  2  0
 45 46  1  0
 45 20  1  0
 47 45  1  0
 48 49  1  0
 50 51  1  0
 50 49  1  0
 52 53  1  0
 52 51  1  0
 54 65  2  0
 55 53  1  0
 55 60  1  0
 56 64  1  0
 56 66  1  0
 57 63  1  0
 57 59  1  0
 58 64  1  0
 59 58  1  0
 60 59  2  0
 61 55  2  0
 62 61  1  0
 62 57  2  0
 63 56  1  0
 64 54  1  0
 66 68  2  0
 67 66  1  0
 69 67  1  0
 70 79  2  0
 70 75  1  0
 71 67  1  0
 71 75  1  0
 72 71  1  0
 73 74  1  0
 73 72  1  0
 74 70  1  0
 75 76  2  0
 76 77  1  0
 78 77  2  0
 79 78  1  0
 80 54  1  0
 80 81  1  0
 80 90  1  0
 81 84  1  0
 82 86  1  0
 82 81  1  0
 83 82  2  0
 86 85  1  0
 88 86  1  0
 88 89  1  0
 88 87  1  0
 90 93  1  1
 90 91  1  0
 92 90  1  0
M  ISO  4  10 100  18 100  52 101  53 101
M  END
>  <TORSDO>  (39) 
F 23

>  <SCORE>  (39) 
-12.480

>  <name>  (39) 
38

>  <ligand_id>  (39) 
38

>  <original_smiles>  (39) 
[H]c1c([H])c(N([H])C([H])([H])C([H])([H])C([H])([H])C([H])([H])C([H])([H])Oc2c([H])c([H])c3c(c2[H])C([H])([H])N(C(=O)C([H])(N([H])C(=O)C([H])(N([H])C([H])([H])[H])C([H])([H])[H])C(C([H])([H])[H])(C([H])([H])[H])C([H])([H])[H])C([H])(C(=O)N([H])C2([H])c4c([H])c([H])c([H])c([H])c4C([H])([H])C([H])([H])C2([H])[H])C3([H])[H])c([H])c(C([H])([H])N([H])C(=O)N2C([H])([H])C([H])([H])C([H])([H])C([H])(n3nc(-c4c([H])c([H])c(Oc5c([H])c([H])c(F)c([H])c5F)c([H])c4[H])c(C(=O)N([H])[H])c3N([H])[H])C2([H])[H])c1[H]

>  <smiles>  (39) 
[H]c1c([H])c(N([H])C([H])([H])C([H])([H])C([H])([H])C([H])([H])C([H])([H])Oc2c([H])c([H])c3c(c2[H])C([H])([H])N(C(=O)C([H])(N([H])C(=O)C([H])(N([H])C([H])([H])[H])C([H])([H])[H])C(C([H])([H])[H])(C([H])([H])[H])C([H])([H])[H])C([H])(C(=O)N([H])C2([H])c4c([H])c([H])c([H])c([H])c4C([H])([H])C([H])([H])C2([H])[H])C3([H])[H])c([H])c(C([H])([H])N([H])C(=O)N2C([H])([H])C([H])([H])C([H])([H])C([H])(n3nc(-c4c([H])c([H])c(Oc5c([H])c([H])c(F)c([H])c5F)c([H])c4[H])c(C(=O)N([H])[H])c3N([H])[H])C2([H])[H])c1[H]

$$$$
39:0:0
     RDKit          3D

 99108  0  0  1  0  0  0  0  0999 V2000
  -32.1830  -21.1270   18.3330 C   0  0  0  0  0  2  0  0  0  0  0  0
  -31.7020  -22.1400   19.3640 C   0  0  0  0  0  2  0  0  0  0  0  0
  -31.8260  -20.1600   20.5360 C   0  0  0  0  0  3  0  0  0  0  0  0
  -32.2980  -19.8100   19.1040 C   0  0  0  0  0  3  0  0  0  0  0  0
  -30.9570  -21.3520   20.3470 N   0  0  0  0  0  0  0  0  0  0  0  0
  -31.1160  -17.6490   20.8810 C   0  0  0  0  0  3  0  0  0  0  0  0
  -31.1790  -19.1620   22.7890 C   0  0  0  0  0  3  0  0  0  0  0  0
  -30.5640  -16.8330   23.1150 C   0  0  0  0  0  3  0  0  0  0  0  0
  -31.3270  -18.9680   21.3950 C   0  0  0  0  0  0  0  0  0  0  0  0
  -30.7480  -16.5770   21.7420 C   0  0  0  0  0  0  0  0  0  0  0  0
  -30.7900  -18.1160   23.6390 C   0  0  0  0  0  0  0  0  0  0  0  0
  -30.6450  -18.3400   24.9670 F   0  0  0  0  0  0  0  0  0  0  0  0
  -31.0740  -14.4050   20.4640 C   0  0  0  0  0  0  0  0  0  0  0  0
  -30.7290  -12.3230   19.1620 C   0  0  0  0  0  2  0  0  0  0  0  0
  -29.7920  -12.6020   17.9670 C   0  0  0  0  0  2  0  0  0  0  0  0
  -28.3100  -12.5030   18.3830 C   0  0  0  0  0  2  0  0  0  0  0  0
  -28.0000  -13.3050   19.6750 C   0  0  0  0  0  3  0  0  0  0  0  0
  -29.0300  -12.9570   20.7720 C   0  0  0  0  0  2  0  0  0  0  0  0
  -30.3780  -13.2540   20.2440 N   0  0  0  0  0  0  0  0  0  0  0  0
  -32.1530  -14.6610   19.9190 O   0  0  0  0  0  0  0  0  0  0  0  0
  -30.4530  -15.2490   21.3110 N   0  0  0  0  0  0  0  0  0  0  0  0
  -29.6520  -14.8260   21.7540 H   0  0  0  0  0  0  0  0  0  0  0  0
  -25.6060  -14.0080   20.3180 C   0  0  0  0  0  0  0  0  0  0  0  0
  -24.5070  -13.2790   20.6840 C   0  0  0  0  0  0  0  0  0  0  0  0
  -24.9270  -11.9140   20.6940 C   0  0  0  0  0  0  0  0  0  0  0  0
  -26.6280  -13.0880   20.1290 N   0  0  0  0  0  0  0  0  0  0  0  0
  -26.2190  -11.8250   20.4090 N   0  0  0  0  0  0  0  0  0  0  0  0
  -24.1580  -10.6800   20.9020 C   0  0  0  0  0  0  0  0  0  0  0  0
  -24.5440   -9.7240   21.8690 C   0  0  0  0  0  3  0  0  0  0  0  0
  -23.7800   -8.5530   22.0620 C   0  0  0  0  0  3  0  0  0  0  0  0
  -22.6170   -8.3290   21.2890 C   0  0  0  0  0  0  0  0  0  0  0  0
  -22.2490   -9.2730   20.3140 C   0  0  0  0  0  3  0  0  0  0  0  0
  -23.0130  -10.4350   20.1180 C   0  0  0  0  0  3  0  0  0  0  0  0
  -21.8280   -7.2080   21.3880 O   0  0  0  0  0  0  0  0  0  0  0  0
  -21.7210   -6.5060   22.5620 C   0  0  0  0  0  0  0  0  0  0  0  0
  -21.2920   -7.1180   23.7600 C   0  0  0  0  0  3  0  0  0  0  0  0
  -21.1280   -6.3450   24.9260 C   0  0  0  0  0  3  0  0  0  0  0  0
  -21.3840   -4.9610   24.8950 C   0  0  0  0  0  0  0  0  0  0  0  0
  -21.8070   -4.3490   23.7030 C   0  0  0  0  0  3  0  0  0  0  0  0
  -21.9720   -5.1200   22.5390 C   0  0  0  0  0  0  0  0  0  0  0  0
  -22.3590   -4.5210   21.3870 F   0  0  0  0  0  0  0  0  0  0  0  0
  -21.2200   -4.2170   26.0140 F   0  0  0  0  0  0  0  0  0  0  0  0
  -23.1200  -13.8060   20.9230 C   0  0  0  0  0  0  0  0  0  0  0  0
  -22.3640  -13.1640   21.8060 N   0  0  0  0  0  0  0  0  0  0  0  0
  -22.7170  -14.8230   20.3600 O   0  0  0  0  0  0  0  0  0  0  0  0
  -22.7010  -12.3430   22.2860 H   0  0  0  0  0  0  0  0  0  0  0  0
  -21.4340  -13.5020   22.0090 H   0  0  0  0  0  0  0  0  0  0  0  0
  -25.8180  -15.3690   20.1130 N   0  0  0  0  0  0  0  0  0  0  0  0
  -25.0710  -16.0510   20.1930 H   0  0  0  0  0  0  0  0  0  0  0  0
  -26.6910  -15.7730   19.7990 H   0  0  0  0  0  0  0  0  0  0  0  0
  -33.6620  -19.2480   19.0710 N   0  0  0  0  0  4  0  0  0  0  0  0
  -34.3320  -19.8910   19.4560 H   0  0  0  0  0  0  0  0  0  0  0  0
  -33.9290  -19.0380   18.1260 H   0  0  0  0  0  0  0  0  0  0  0  0
  -33.7060  -18.3970   19.6010 H   0  0  0  0  0  0  0  0  0  0  0  0
  -30.6910  -22.1330   21.5710 C   0  0  0  0  0  2  0  0  0  0  0  0
  -30.4330  -23.6690   21.4640 C   0  0  0  0  0  2  0  0  0  0  0  0
  -29.1580  -24.1740   20.7380 C   0  0  0  0  0  2  0  0  0  0  0  0
  -28.6850  -25.5800   21.2210 C   0  0  0  0  0  2  0  0  0  0  0  0
  -28.6170  -26.5770   20.1900 O   0  0  0  0  0  0  0  0  0  0  0  0
  -24.6710  -31.7420   23.1660 C   0  0  0  0  0  0  0  0  0  0  0  0
  -27.4550  -27.3160   20.1860 C   0  0  0  0  0  0  0  0  0  0  0  0
  -23.5280  -30.3160   21.4980 C   0  0  0  0  0  3  0  0  0  0  0  0
  -25.0410  -28.7860   20.1240 C   0  0  0  0  0  0  0  0  0  0  0  0
  -26.0520  -30.7060   21.3680 C   0  0  0  0  0  2  0  0  0  0  0  0
  -26.1750  -29.3300   20.7420 C   0  0  0  0  0  0  0  0  0  0  0  0
  -27.3880  -28.6010   20.7710 C   0  0  0  0  0  3  0  0  0  0  0  0
  -26.3070  -26.7830   19.5680 C   0  0  0  0  0  3  0  0  0  0  0  0
  -25.1010  -27.5100   19.5360 C   0  0  0  0  0  3  0  0  0  0  0  0
  -23.7850  -29.6300   20.1300 C   0  0  0  0  0  2  0  0  0  0  0  0
  -24.7670  -30.9370   22.0700 N   0  0  0  0  0  0  0  0  0  0  0  0
  -23.5720  -32.0040   23.6750 O   0  0  0  0  0  0  0  0  0  0  0  0
  -22.8600  -29.2950   22.4470 C   0  0  0  0  0  0  0  0  0  0  0  0
  -21.5390  -29.1090   22.2950 N   0  0  0  0  0  0  0  0  0  0  0  0
  -23.5300  -28.6710   23.2750 O   0  0  0  0  0  0  0  0  0  0  0  0
  -21.0610  -29.6650   21.5990 H   0  0  0  0  0  0  0  0  0  0  0  0
  -18.1590  -27.9100   22.7300 C   0  0  0  0  0  0  0  0  0  0  0  0
  -20.7110  -28.1670   23.0480 C   0  0  0  0  0  3  0  0  0  0  0  0
  -20.8240  -26.7390   22.4690 C   0  0  0  0  0  2  0  0  0  0  0  0
  -19.7410  -26.4200   21.4340 C   0  0  0  0  0  2  0  0  0  0  0  0
  -18.3480  -26.5620   22.0550 C   0  0  0  0  0  2  0  0  0  0  0  0
  -19.2690  -28.6710   23.1820 C   0  0  0  0  0  0  0  0  0  0  0  0
  -19.0400  -29.9320   23.7730 C   0  0  0  0  0  3  0  0  0  0  0  0
  -17.7320  -30.4330   23.9170 C   0  0  0  0  0  3  0  0  0  0  0  0
  -16.6370  -29.6700   23.4820 C   0  0  0  0  0  3  0  0  0  0  0  0
  -16.8500  -28.4100   22.8950 C   0  0  0  0  0  3  0  0  0  0  0  0
  -25.9320  -32.3910   23.8180 C   0  0  0  0  0  3  0  0  0  0  0  0
  -25.5910  -33.7790   24.1560 N   0  0  0  0  0  0  0  0  0  0  0  0
  -25.9160  -34.8450   23.4110 C   0  0  0  0  0  0  0  0  0  0  0  0
  -26.6040  -34.7630   22.3900 O   0  0  0  0  0  0  0  0  0  0  0  0
  -24.9810  -33.9150   24.9490 H   0  0  0  0  0  0  0  0  0  0  0  0
  -24.1540  -36.6020   23.0460 C   0  0  0  0  0  1  0  0  0  0  0  0
  -25.3930  -36.2180   23.8710 C   0  0  0  0  0  3  0  0  0  0  0  0
  -27.5000  -37.1400   24.7340 C   0  0  0  0  0  1  0  0  0  0  0  0
  -26.4040  -37.2930   23.7790 N   0  0  0  0  0  0  0  0  0  0  0  0
  -25.9790  -38.2040   23.9310 H   0  0  0  0  0  0  0  0  0  0  0  0
  -26.4430  -31.6150   25.0940 C   0  0  1  0  0  0  0  0  0  0  0  0
  -25.3370  -31.3450   26.1410 C   0  0  0  0  0  1  0  0  0  0  0  0
  -27.0560  -30.2520   24.6930 C   0  0  0  0  0  1  0  0  0  0  0  0
  -27.5680  -32.4210   25.7830 C   0  0  0  0  0  1  0  0  0  0  0  0
  1  4  1  0
  1  2  1  0
  2  5  1  0
  3  9  1  0
  4 51  1  0
  4  3  1  0
  5  3  1  0
  5 55  1  0
  6  9  2  0
  6 10  1  0
  7 11  2  0
  8 11  1  0
  9  7  1  0
 10  8  2  0
 11 12  1  0
 13 21  1  0
 14 19  1  0
 15 16  1  0
 15 14  1  0
 17 16  1  0
 17 26  1  0
 17 18  1  0
 19 13  1  0
 19 18  1  0
 20 13  2  0
 21 10  1  0
 21 22  1  0
 23 24  2  0
 24 25  1  0
 24 43  1  0
 25 28  1  0
 26 23  1  0
 26 27  1  0
 27 25  2  0
 28 29  1  0
 29 30  2  0
 31 34  1  0
 31 30  1  0
 32 31  2  0
 33 32  1  0
 33 28  2  0
 34 35  1  0
 35 36  1  0
 36 37  2  0
 38 37  1  0
 38 42  1  0
 39 38  2  0
 40 35  2  0
 40 39  1  0
 41 40  1  0
 43 44  1  0
 44 47  1  0
 44 46  1  0
 45 43  2  0
 48 49  1  0
 48 23  1  0
 50 48  1  0
 51 52  1  0
 51 54  1  0
 53 51  1  0
 56 55  1  0
 57 58  1  0
 57 56  1  0
 59 58  1  0
 60 71  2  0
 61 59  1  0
 61 66  1  0
 62 70  1  0
 62 72  1  0
 63 69  1  0
 63 65  1  0
 64 70  1  0
 65 66  2  0
 65 64  1  0
 67 61  2  0
 68 67  1  0
 68 63  2  0
 69 62  1  0
 70 60  1  0
 72 74  2  0
 73 72  1  0
 75 73  1  0
 76 85  2  0
 76 81  1  0
 77 73  1  0
 77 81  1  0
 78 77  1  0
 79 80  1  0
 79 78  1  0
 80 76  1  0
 81 82  2  0
 82 83  1  0
 84 83  2  0
 85 84  1  0
 86 60  1  0
 86 87  1  0
 86 96  1  0
 87 90  1  0
 88 92  1  0
 88 87  1  0
 89 88  2  0
 92 91  1  0
 94 92  1  0
 94 95  1  0
 94 93  1  0
 96 99  1  1
 96 97  1  0
 98 96  1  0
M  ISO  4  13 100  21 100  58 101  59 101
M  END
>  <TORSDO>  (40) 
F 22

>  <SCORE>  (40) 
-12.124

>  <name>  (40) 
39

>  <ligand_id>  (40) 
39

>  <original_smiles>  (40) 
[H]c1c([H])c([H])c2c(c1[H])C([H])([H])C([H])([H])C([H])([H])C2([H])N([H])C(=O)C1([H])N(C(=O)C([H])(N([H])C(=O)C([H])(N([H])C([H])([H])[H])C([H])([H])[H])C(C([H])([H])[H])(C([H])([H])[H])C([H])([H])[H])C([H])([H])c2c([H])c(OC([H])([H])C([H])([H])C([H])([H])C([H])([H])N3C([H])([H])C([H])([H])C([H])([N+]([H])([H])[H])C3([H])c3c([H])c(F)c([H])c(N([H])C(=O)N4C([H])([H])C([H])([H])C([H])([H])C([H])(n5nc(-c6c([H])c([H])c(Oc7c([H])c([H])c(F)c([H])c7F)c([H])c6[H])c(C(=O)N([H])[H])c5N([H])[H])C4([H])[H])c3[H])c([H])c([H])c2C1([H])[H]

>  <smiles>  (40) 
[H]c1c([H])c([H])c2c(c1[H])C([H])([H])C([H])([H])C([H])([H])C2([H])N([H])C(=O)C1([H])N(C(=O)C([H])(N([H])C(=O)C([H])(N([H])C([H])([H])[H])C([H])([H])[H])C(C([H])([H])[H])(C([H])([H])[H])C([H])([H])[H])C([H])([H])c2c([H])c(OC([H])([H])C([H])([H])C([H])([H])C([H])([H])N3C([H])([H])C([H])([H])C([H])([N+]([H])([H])[H])C3([H])c3c([H])c(F)c([H])c(N([H])C(=O)N4C([H])([H])C([H])([H])C([H])([H])C([H])(n5nc(-c6c([H])c([H])c(Oc7c([H])c([H])c(F)c([H])c7F)c([H])c6[H])c(C(=O)N([H])[H])c5N([H])[H])C4([H])[H])c3[H])c([H])c([H])c2C1([H])[H]

$$$$
40:0:0
     RDKit          3D

 95103  0  0  1  0  0  0  0  0999 V2000
  -30.4970  -21.2860   21.8120 C   0  0  0  0  0  2  0  0  0  0  0  0
  -31.0000  -23.3780   23.0520 C   0  0  0  0  0  1  0  0  0  0  0  0
  -30.7120  -22.7550   21.7330 N   0  0  2  0  0  4  0  0  0  0  0  0
  -31.5280  -22.9030   21.1550 H   0  0  0  0  0  0  0  0  0  0  0  0
  -29.5550  -23.3700   21.0270 C   0  0  0  0  0  2  0  0  0  0  0  0
  -29.6580  -24.8820   20.7710 C   0  0  0  0  0  2  0  0  0  0  0  0
  -28.4120  -25.3940   20.0410 C   0  0  0  0  0  2  0  0  0  0  0  0
  -28.4440  -26.8120   20.0810 O   0  0  0  0  0  0  0  0  0  0  0  0
  -24.6100  -31.8680   23.2120 C   0  0  0  0  0  0  0  0  0  0  0  0
  -27.2430  -27.4780   20.0850 C   0  0  0  0  0  0  0  0  0  0  0  0
  -23.3950  -30.4910   21.5520 C   0  0  0  0  0  3  0  0  0  0  0  0
  -24.8420  -28.9600   20.1140 C   0  0  0  0  0  0  0  0  0  0  0  0
  -25.9170  -30.8490   21.3540 C   0  0  0  0  0  2  0  0  0  0  0  0
  -25.9970  -29.4850   20.7060 C   0  0  0  0  0  0  0  0  0  0  0  0
  -27.1980  -28.7490   20.6910 C   0  0  0  0  0  3  0  0  0  0  0  0
  -26.0700  -26.9550   19.4930 C   0  0  0  0  0  3  0  0  0  0  0  0
  -24.8700  -27.6920   19.5080 C   0  0  0  0  0  3  0  0  0  0  0  0
  -23.6000  -29.8200   20.1660 C   0  0  0  0  0  2  0  0  0  0  0  0
  -24.6600  -31.0810   22.1000 N   0  0  0  0  0  0  0  0  0  0  0  0
  -23.5310  -32.1400   23.7550 O   0  0  0  0  0  0  0  0  0  0  0  0
  -22.7390  -29.4630   22.5020 C   0  0  0  0  0  0  0  0  0  0  0  0
  -21.4120  -29.3000   22.3770 N   0  0  0  0  0  0  0  0  0  0  0  0
  -23.4190  -28.8170   23.3030 O   0  0  0  0  0  0  0  0  0  0  0  0
  -20.9260  -29.8720   21.7020 H   0  0  0  0  0  0  0  0  0  0  0  0
  -18.0260  -28.1380   22.8490 C   0  0  0  0  0  0  0  0  0  0  0  0
  -20.5850  -28.3610   23.1350 C   0  0  0  0  0  3  0  0  0  0  0  0
  -20.6750  -26.9360   22.5420 C   0  0  0  0  0  2  0  0  0  0  0  0
  -19.5730  -26.6380   21.5210 C   0  0  0  0  0  2  0  0  0  0  0  0
  -18.1900  -26.7930   22.1620 C   0  0  0  0  0  2  0  0  0  0  0  0
  -19.1510  -28.8810   23.2920 C   0  0  0  0  0  0  0  0  0  0  0  0
  -18.9450  -30.1440   23.8900 C   0  0  0  0  0  3  0  0  0  0  0  0
  -17.6460  -30.6580   24.0570 C   0  0  0  0  0  3  0  0  0  0  0  0
  -16.5340  -29.9080   23.6350 C   0  0  0  0  0  3  0  0  0  0  0  0
  -16.7250  -28.6520   23.0320 C   0  0  0  0  0  3  0  0  0  0  0  0
  -25.9010  -32.4820   23.8370 C   0  0  0  0  0  3  0  0  0  0  0  0
  -25.5880  -33.8610   24.2310 N   0  0  0  0  0  0  0  0  0  0  0  0
  -25.9020  -34.9470   23.5120 C   0  0  0  0  0  0  0  0  0  0  0  0
  -26.5580  -34.8930   22.4680 O   0  0  0  0  0  0  0  0  0  0  0  0
  -25.0070  -33.9780   25.0490 H   0  0  0  0  0  0  0  0  0  0  0  0
  -24.1480  -36.7280   23.2650 C   0  0  0  0  0  1  0  0  0  0  0  0
  -25.4100  -36.3090   24.0350 C   0  0  0  0  0  3  0  0  0  0  0  0
  -27.5560  -37.1810   24.8480 C   0  0  0  0  0  1  0  0  0  0  0  0
  -26.4270  -37.3780   23.9420 N   0  0  0  0  0  0  0  0  0  0  0  0
  -26.0140  -38.2850   24.1440 H   0  0  0  0  0  0  0  0  0  0  0  0
  -26.4470  -31.6590   25.0680 C   0  0  1  0  0  0  0  0  0  0  0  0
  -25.3750  -31.3640   26.1430 C   0  0  0  0  0  1  0  0  0  0  0  0
  -27.0340  -30.3080   24.5980 C   0  0  0  0  0  1  0  0  0  0  0  0
  -27.6020  -32.4310   25.7480 C   0  0  0  0  0  1  0  0  0  0  0  0
  -31.6620  -20.4760   22.4090 C   0  0  0  0  0  2  0  0  0  0  0  0
  -31.3390  -18.9780   22.3860 C   0  0  0  0  0  2  0  0  0  0  0  0
  -32.4750  -18.1070   22.9360 C   0  0  0  0  0  2  0  0  0  0  0  0
  -30.9450  -14.1450   20.8330 C   0  0  0  0  0  0  0  0  0  0  0  0
  -30.4040  -12.2640   19.3680 C   0  0  0  0  0  2  0  0  0  0  0  0
  -29.4720  -12.5460   18.1820 C   0  0  0  0  0  2  0  0  0  0  0  0
  -28.0080  -12.3690   18.6070 C   0  0  0  0  0  2  0  0  0  0  0  0
  -27.6690  -13.2080   19.8610 C   0  0  0  0  0  3  0  0  0  0  0  0
  -28.7040  -12.9990   20.9880 C   0  0  0  0  0  2  0  0  0  0  0  0
  -30.0840  -13.1550   20.4910 N   0  0  0  0  0  0  0  0  0  0  0  0
  -31.6400  -14.7360   20.0000 O   0  0  0  0  0  0  0  0  0  0  0  0
  -30.1710  -15.2970   23.8280 C   0  0  0  0  0  2  0  0  0  0  0  0
  -30.6530  -13.9180   23.3520 C   0  0  0  0  0  2  0  0  0  0  0  0
  -32.8560  -14.2930   22.3920 C   0  0  0  0  0  2  0  0  0  0  0  0
  -31.3270  -16.2710   24.1400 C   0  0  0  0  0  2  0  0  0  0  0  0
  -33.2200  -15.7870   22.5660 C   0  0  0  0  0  2  0  0  0  0  0  0
  -31.4280  -14.0440   22.1070 N   0  0  0  0  0  0  0  0  0  0  0  0
  -32.0810  -16.6780   22.9190 N   0  0  2  0  0  4  0  0  0  0  0  0
  -31.4420  -16.6100   22.1440 H   0  0  0  0  0  0  0  0  0  0  0  0
  -25.2620  -13.8170   20.5640 C   0  0  0  0  0  0  0  0  0  0  0  0
  -24.1860  -13.0440   20.9140 C   0  0  0  0  0  0  0  0  0  0  0  0
  -24.6430  -11.6910   20.8710 C   0  0  0  0  0  0  0  0  0  0  0  0
  -26.3080  -12.9360   20.3290 N   0  0  0  0  0  0  0  0  0  0  0  0
  -25.9360  -11.6520   20.5720 N   0  0  0  0  0  0  0  0  0  0  0  0
  -23.9090  -10.4300   21.0410 C   0  0  0  0  0  0  0  0  0  0  0  0
  -24.3620   -9.4210   21.9200 C   0  0  0  0  0  3  0  0  0  0  0  0
  -23.6280   -8.2260   22.0780 C   0  0  0  0  0  3  0  0  0  0  0  0
  -22.4270   -8.0290   21.3560 C   0  0  0  0  0  0  0  0  0  0  0  0
  -21.9910   -9.0270   20.4660 C   0  0  0  0  0  3  0  0  0  0  0  0
  -22.7260  -10.2130   20.3060 C   0  0  0  0  0  3  0  0  0  0  0  0
  -21.6640   -6.8880   21.4240 O   0  0  0  0  0  0  0  0  0  0  0  0
  -21.6840   -6.0740   22.5280 C   0  0  0  0  0  0  0  0  0  0  0  0
  -21.4020   -6.5650   23.8220 C   0  0  0  0  0  3  0  0  0  0  0  0
  -21.3660   -5.6800   24.9180 C   0  0  0  0  0  3  0  0  0  0  0  0
  -21.6030   -4.3060   24.7220 C   0  0  0  0  0  0  0  0  0  0  0  0
  -21.8820   -3.8150   23.4340 C   0  0  0  0  0  3  0  0  0  0  0  0
  -21.9190   -4.6970   22.3400 C   0  0  0  0  0  0  0  0  0  0  0  0
  -22.1660   -4.2160   21.0970 F   0  0  0  0  0  0  0  0  0  0  0  0
  -21.5610   -3.4550   25.7730 F   0  0  0  0  0  0  0  0  0  0  0  0
  -22.7880  -13.5240   21.1800 C   0  0  0  0  0  0  0  0  0  0  0  0
  -22.0490  -12.8250   22.0350 N   0  0  0  0  0  0  0  0  0  0  0  0
  -22.3570  -14.5550   20.6640 O   0  0  0  0  0  0  0  0  0  0  0  0
  -22.4050  -11.9910   22.4770 H   0  0  0  0  0  0  0  0  0  0  0  0
  -21.1110  -13.1310   22.2500 H   0  0  0  0  0  0  0  0  0  0  0  0
  -25.4310  -15.1900   20.4080 N   0  0  0  0  0  0  0  0  0  0  0  0
  -24.6580  -15.8380   20.5100 H   0  0  0  0  0  0  0  0  0  0  0  0
  -26.2890  -15.6390   20.1110 H   0  0  0  0  0  0  0  0  0  0  0  0
  1 49  1  0
  3  1  1  0
  3  2  1  0
  3  4  1  6
  5  3  1  0
  6  5  1  0
  7  8  1  0
  7  6  1  0
  8 10  1  0
  9 20  2  0
 10 15  1  0
 11 19  1  0
 11 21  1  0
 12 18  1  0
 12 14  1  0
 13 19  1  0
 14 13  1  0
 15 14  2  0
 16 17  1  0
 16 10  2  0
 17 12  2  0
 18 11  1  0
 19  9  1  0
 21 23  2  0
 22 21  1  0
 24 22  1  0
 25 34  2  0
 25 30  1  0
 26 22  1  0
 26 30  1  0
 27 26  1  0
 28 29  1  0
 28 27  1  0
 29 25  1  0
 30 31  2  0
 31 32  1  0
 33 32  2  0
 34 33  1  0
 35  9  1  0
 35 36  1  0
 35 45  1  0
 36 39  1  0
 37 41  1  0
 37 36  1  0
 38 37  2  0
 41 40  1  0
 43 41  1  0
 43 44  1  0
 43 42  1  0
 45 48  1  1
 45 46  1  0
 47 45  1  0
 50 49  1  0
 50 51  1  0
 52 65  1  0
 53 58  1  0
 54 55  1  0
 54 53  1  0
 56 55  1  0
 56 71  1  0
 56 57  1  0
 58 52  1  0
 58 57  1  0
 59 52  2  0
 60 63  1  0
 61 60  1  0
 62 64  1  0
 64 66  1  0
 65 62  1  0
 65 61  1  0
 66 51  1  0
 66 63  1  0
 66 67  1  6
 68 69  2  0
 69 88  1  0
 70 69  1  0
 70 73  1  0
 71 68  1  0
 71 72  1  0
 72 70  2  0
 73 74  1  0
 74 75  2  0
 76 79  1  0
 76 75  1  0
 77 76  2  0
 78 77  1  0
 78 73  2  0
 79 80  1  0
 80 81  1  0
 81 82  2  0
 83 82  1  0
 83 87  1  0
 84 83  2  0
 85 80  2  0
 85 84  1  0
 86 85  1  0
 88 89  1  0
 89 92  1  0
 89 91  1  0
 90 88  2  0
 93 94  1  0
 93 68  1  0
 95 93  1  0
M  ISO  4   7 101   8 101  52 100  65 100
M  END
>  <TORSDO>  (41) 
F 23

>  <SCORE>  (41) 
12.799

>  <name>  (41) 
40

>  <ligand_id>  (41) 
40

>  <original_smiles>  (41) 
[H]c1c([H])c([H])c2c(c1[H])C([H])([H])C([H])([H])C([H])([H])C2([H])N([H])C(=O)C1([H])N(C(=O)C([H])(N([H])C(=O)C([H])(N([H])C([H])([H])[H])C([H])([H])[H])C(C([H])([H])[H])(C([H])([H])[H])C([H])([H])[H])C([H])([H])c2c([H])c(OC([H])([H])C([H])([H])C([H])([H])[N+]([H])(C([H])([H])[H])C([H])([H])C([H])([H])C([H])([H])C([H])([H])[N+]3([H])C([H])([H])C([H])([H])N(C(=O)N4C([H])([H])C([H])([H])C([H])([H])C([H])(n5nc(-c6c([H])c([H])c(Oc7c([H])c([H])c(F)c([H])c7F)c([H])c6[H])c(C(=O)N([H])[H])c5N([H])[H])C4([H])[H])C([H])([H])C([H])([H])C3([H])[H])c([H])c([H])c2C1([H])[H]

>  <smiles>  (41) 
[H]c1c([H])c([H])c2c(c1[H])C([H])([H])C([H])([H])C([H])([H])C2([H])N([H])C(=O)C1([H])N(C(=O)C([H])(N([H])C(=O)C([H])(N([H])C([H])([H])[H])C([H])([H])[H])C(C([H])([H])[H])(C([H])([H])[H])C([H])([H])[H])C([H])([H])c2c([H])c(OC([H])([H])C([H])([H])C([H])([H])[N+]([H])(C([H])([H])[H])C([H])([H])C([H])([H])C([H])([H])C([H])([H])[N+]3([H])C([H])([H])C([H])([H])N(C(=O)N4C([H])([H])C([H])([H])C([H])([H])C([H])(n5nc(-c6c([H])c([H])c(Oc7c([H])c([H])c(F)c([H])c7F)c([H])c6[H])c(C(=O)N([H])[H])c5N([H])[H])C4([H])[H])C([H])([H])C([H])([H])C3([H])[H])c([H])c([H])c2C1([H])[H]

$$$$
41:0:0
     RDKit          3D

101109  0  0  1  0  0  0  0  0999 V2000
  -29.9330  -21.1110   21.2310 C   0  0  0  0  0  3  0  0  0  0  0  0
  -28.6690  -20.8970   20.3480 C   0  0  0  0  0  2  0  0  0  0  0  0
  -27.6840  -22.0870   20.2480 C   0  0  0  0  0  2  0  0  0  0  0  0
  -27.2160  -22.5720   21.5610 N   0  0  0  0  0  4  0  0  0  0  0  0
  -26.7310  -21.8510   22.0640 H   0  0  0  0  0  0  0  0  0  0  0  0
  -26.5690  -23.3300   21.4300 H   0  0  0  0  0  0  0  0  0  0  0  0
  -27.9710  -22.9170   22.1240 H   0  0  0  0  0  0  0  0  0  0  0  0
  -31.0060  -20.0100   21.0240 C   0  0  0  0  0  2  0  0  0  0  0  0
  -30.7880  -14.5440   20.0820 C   0  0  0  0  0  0  0  0  0  0  0  0
  -30.3300  -12.5180   18.7620 C   0  0  0  0  0  2  0  0  0  0  0  0
  -29.3090  -12.8240   17.6500 C   0  0  0  0  0  2  0  0  0  0  0  0
  -27.8670  -12.6700   18.1730 C   0  0  0  0  0  2  0  0  0  0  0  0
  -27.6320  -13.4350   19.5010 C   0  0  0  0  0  3  0  0  0  0  0  0
  -28.7530  -13.1170   20.5170 C   0  0  0  0  0  2  0  0  0  0  0  0
  -30.0520  -13.4200   19.8860 N   0  0  0  0  0  0  0  0  0  0  0  0
  -31.8100  -14.8180   19.4470 O   0  0  0  0  0  0  0  0  0  0  0  0
  -30.6800  -16.7830   23.0960 C   0  0  0  0  0  2  0  0  0  0  0  0
  -30.8800  -15.4640   22.3220 C   0  0  0  0  0  2  0  0  0  0  0  0
  -29.4830  -16.5420   20.4950 C   0  0  0  0  0  2  0  0  0  0  0  0
  -31.3520  -18.0160   22.4550 C   0  0  0  0  0  2  0  0  0  0  0  0
  -30.3310  -17.7920   20.2000 C   0  0  0  0  0  2  0  0  0  0  0  0
  -30.2840  -15.4100   20.9810 N   0  0  0  0  0  0  0  0  0  0  0  0
  -30.5250  -18.6500   21.3960 N   0  0  2  0  0  4  0  0  0  0  0  0
  -29.6150  -18.7900   21.8060 H   0  0  0  0  0  0  0  0  0  0  0  0
  -25.2770  -14.0420   20.3530 C   0  0  0  0  0  0  0  0  0  0  0  0
  -24.2310  -13.2650   20.7700 C   0  0  0  0  0  0  0  0  0  0  0  0
  -24.6870  -11.9130   20.6880 C   0  0  0  0  0  0  0  0  0  0  0  0
  -26.3070  -13.1620   20.0510 N   0  0  0  0  0  0  0  0  0  0  0  0
  -25.9560  -11.8760   20.3070 N   0  0  0  0  0  0  0  0  0  0  0  0
  -23.9700  -10.6480   20.8960 C   0  0  0  0  0  0  0  0  0  0  0  0
  -24.4350   -9.6820   21.8150 C   0  0  0  0  0  3  0  0  0  0  0  0
  -23.7230   -8.4800   22.0110 C   0  0  0  0  0  3  0  0  0  0  0  0
  -22.5300   -8.2370   21.2890 C   0  0  0  0  0  0  0  0  0  0  0  0
  -22.0850   -9.1920   20.3580 C   0  0  0  0  0  3  0  0  0  0  0  0
  -22.7990  -10.3850   20.1600 C   0  0  0  0  0  3  0  0  0  0  0  0
  -21.7840   -7.0900   21.3980 O   0  0  0  0  0  0  0  0  0  0  0  0
  -21.7460   -6.3640   22.5630 C   0  0  0  0  0  0  0  0  0  0  0  0
  -21.3360   -6.9380   23.7870 C   0  0  0  0  0  3  0  0  0  0  0  0
  -21.2460   -6.1380   24.9420 C   0  0  0  0  0  3  0  0  0  0  0  0
  -21.5500   -4.7660   24.8760 C   0  0  0  0  0  0  0  0  0  0  0  0
  -21.9500   -4.1910   23.6570 C   0  0  0  0  0  3  0  0  0  0  0  0
  -22.0440   -4.9880   22.5030 C   0  0  0  0  0  0  0  0  0  0  0  0
  -22.4100   -4.4260   21.3250 F   0  0  0  0  0  0  0  0  0  0  0  0
  -21.4540   -3.9940   25.9830 F   0  0  0  0  0  0  0  0  0  0  0  0
  -22.8520  -13.7380   21.1300 C   0  0  0  0  0  0  0  0  0  0  0  0
  -22.1800  -13.0370   22.0370 N   0  0  0  0  0  0  0  0  0  0  0  0
  -22.3820  -14.7660   20.6430 O   0  0  0  0  0  0  0  0  0  0  0  0
  -22.5770  -12.2090   22.4580 H   0  0  0  0  0  0  0  0  0  0  0  0
  -21.2560  -13.3330   22.3160 H   0  0  0  0  0  0  0  0  0  0  0  0
  -25.4310  -15.4150   20.1880 N   0  0  0  0  0  0  0  0  0  0  0  0
  -24.6660  -16.0600   20.3440 H   0  0  0  0  0  0  0  0  0  0  0  0
  -26.2510  -15.8610   19.7970 H   0  0  0  0  0  0  0  0  0  0  0  0
  -30.5610  -22.5210   21.0740 C   0  0  0  0  0  2  0  0  0  0  0  0
  -31.2760  -22.7870   19.7280 C   0  0  0  0  0  2  0  0  0  0  0  0
  -31.6810  -24.2610   19.5280 C   0  0  0  0  0  2  0  0  0  0  0  0
  -30.5150  -25.1110   19.2060 N   0  0  0  0  0  4  0  0  0  0  0  0
  -29.7920  -24.9480   19.8890 H   0  0  0  0  0  0  0  0  0  0  0  0
  -30.1500  -24.8440   18.3030 H   0  0  0  0  0  0  0  0  0  0  0  0
  -30.7800  -26.5670   19.2210 C   0  0  0  0  0  2  0  0  0  0  0  0
  -29.4770  -27.3600   19.0450 C   0  0  0  0  0  2  0  0  0  0  0  0
  -28.5500  -26.8830   20.0160 O   0  0  0  0  0  0  0  0  0  0  0  0
  -24.6820  -31.8800   23.2870 C   0  0  0  0  0  0  0  0  0  0  0  0
  -27.3800  -27.5920   20.0670 C   0  0  0  0  0  0  0  0  0  0  0  0
  -23.4820  -30.4990   21.6170 C   0  0  0  0  0  3  0  0  0  0  0  0
  -24.9510  -29.0170   20.1500 C   0  0  0  0  0  0  0  0  0  0  0  0
  -25.9960  -30.9090   21.4090 C   0  0  0  0  0  2  0  0  0  0  0  0
  -26.1010  -29.5570   20.7400 C   0  0  0  0  0  0  0  0  0  0  0  0
  -27.3200  -28.8500   20.7030 C   0  0  0  0  0  3  0  0  0  0  0  0
  -26.2160  -27.0420   19.4970 C   0  0  0  0  0  3  0  0  0  0  0  0
  -24.9990  -27.7530   19.5290 C   0  0  0  0  0  3  0  0  0  0  0  0
  -23.6920  -29.8490   20.2220 C   0  0  0  0  0  2  0  0  0  0  0  0
  -24.7380  -31.1090   22.1640 N   0  0  0  0  0  0  0  0  0  0  0  0
  -23.6010  -32.1240   23.8410 O   0  0  0  0  0  0  0  0  0  0  0  0
  -22.8530  -29.4480   22.5580 C   0  0  0  0  0  0  0  0  0  0  0  0
  -21.5320  -29.2460   22.4280 N   0  0  0  0  0  0  0  0  0  0  0  0
  -23.5490  -28.8180   23.3590 O   0  0  0  0  0  0  0  0  0  0  0  0
  -21.0320  -29.8080   21.7540 H   0  0  0  0  0  0  0  0  0  0  0  0
  -18.1810  -27.9780   22.8870 C   0  0  0  0  0  0  0  0  0  0  0  0
  -20.7310  -28.2780   23.1780 C   0  0  0  0  0  3  0  0  0  0  0  0
  -20.8640  -26.8610   22.5770 C   0  0  0  0  0  2  0  0  0  0  0  0
  -19.7740  -26.5350   21.5520 C   0  0  0  0  0  2  0  0  0  0  0  0
  -18.3860  -26.6440   22.1890 C   0  0  0  0  0  2  0  0  0  0  0  0
  -19.2830  -28.7540   23.3370 C   0  0  0  0  0  0  0  0  0  0  0  0
  -19.0370  -30.0020   23.9470 C   0  0  0  0  0  3  0  0  0  0  0  0
  -17.7240  -30.4770   24.1140 C   0  0  0  0  0  3  0  0  0  0  0  0
  -16.6350  -29.6980   23.6830 C   0  0  0  0  0  3  0  0  0  0  0  0
  -16.8650  -28.4510   23.0740 C   0  0  0  0  0  3  0  0  0  0  0  0
  -25.9650  -32.5100   23.9130 C   0  0  0  0  0  3  0  0  0  0  0  0
  -26.4940  -31.7240   25.1750 C   0  0  1  0  0  0  0  0  0  0  0  0
  -25.4050  -31.4580   26.2400 C   0  0  0  0  0  1  0  0  0  0  0  0
  -27.0900  -30.3600   24.7570 C   0  0  0  0  0  1  0  0  0  0  0  0
  -27.6380  -32.5200   25.8480 C   0  0  0  0  0  1  0  0  0  0  0  0
  -25.6500  -33.9020   24.2610 N   0  0  0  0  0  0  0  0  0  0  0  0
  -25.9810  -34.9650   23.5150 C   0  0  0  0  0  0  0  0  0  0  0  0
  -26.6550  -34.8780   22.4860 O   0  0  0  0  0  0  0  0  0  0  0  0
  -25.0530  -34.0440   25.0620 H   0  0  0  0  0  0  0  0  0  0  0  0
  -24.2400  -36.7470   23.1790 C   0  0  0  0  0  1  0  0  0  0  0  0
  -25.4820  -36.3450   23.9870 C   0  0  0  0  0  3  0  0  0  0  0  0
  -27.6160  -37.2260   24.8240 C   0  0  0  0  0  1  0  0  0  0  0  0
  -26.5070  -37.4070   23.8910 N   0  0  0  0  0  0  0  0  0  0  0  0
  -26.0940  -38.3190   24.0650 H   0  0  0  0  0  0  0  0  0  0  0  0
  1  2  1  0
  3  2  1  0
  3  4  1  0
  4  5  1  0
  4  7  1  0
  6  4  1  0
  8  1  1  0
  8 23  1  0
  9 22  1  0
 10 15  1  0
 11 12  1  0
 11 10  1  0
 13 12  1  0
 13 28  1  0
 13 14  1  0
 15  9  1  0
 15 14  1  0
 16  9  2  0
 18 17  1  0
 19 22  1  0
 20 17  1  0
 21 19  1  0
 21 23  1  0
 22 18  1  0
 23 24  1  1
 23 20  1  0
 25 26  2  0
 26 45  1  0
 27 26  1  0
 27 30  1  0
 28 29  1  0
 28 25  1  0
 29 27  2  0
 30 31  1  0
 31 32  2  0
 33 36  1  0
 33 32  1  0
 34 33  2  0
 35 34  1  0
 35 30  2  0
 36 37  1  0
 37 38  1  0
 38 39  2  0
 40 39  1  0
 40 44  1  0
 41 40  2  0
 42 37  2  0
 42 41  1  0
 43 42  1  0
 45 46  1  0
 46 49  1  0
 46 48  1  0
 47 45  2  0
 50 51  1  0
 50 25  1  0
 52 50  1  0
 53  1  1  0
 54 53  1  0
 55 54  1  0
 56 59  1  0
 56 55  1  0
 56 57  1  0
 58 56  1  0
 60 59  1  0
 60 61  1  0
 61 63  1  0
 62 73  2  0
 63 68  1  0
 64 72  1  0
 64 74  1  0
 65 71  1  0
 65 67  1  0
 66 72  1  0
 67 66  1  0
 68 67  2  0
 69 70  1  0
 69 63  2  0
 70 65  2  0
 71 64  1  0
 72 62  1  0
 74 76  2  0
 75 74  1  0
 77 75  1  0
 78 87  2  0
 78 83  1  0
 79 75  1  0
 79 83  1  0
 80 79  1  0
 81 82  1  0
 81 80  1  0
 82 78  1  0
 83 84  2  0
 84 85  1  0
 86 85  2  0
 87 86  1  0
 88 62  1  0
 88 93  1  0
 88 89  1  0
 89 92  1  1
 89 90  1  0
 91 89  1  0
 93 96  1  0
 94 98  1  0
 94 93  1  0
 95 94  2  0
 98 97  1  0
100 98  1  0
100101  1  0
100 99  1  0
M  ISO  4   9 100  22 100  60 101  61 101
M  END
>  <TORSDO>  (42) 
F 26

>  <SCORE>  (42) 
-11.243

>  <name>  (42) 
41

>  <ligand_id>  (42) 
41

>  <original_smiles>  (42) 
[H]c1c([H])c([H])c2c(c1[H])C([H])([H])C([H])([H])C([H])([H])C2([H])N([H])C(=O)C1([H])N(C(=O)C([H])(N([H])C(=O)C([H])(N([H])C([H])([H])[H])C([H])([H])[H])C(C([H])([H])[H])(C([H])([H])[H])C([H])([H])[H])C([H])([H])c2c([H])c(OC([H])([H])C([H])([H])[N+]([H])([H])C([H])([H])C([H])([H])C([H])([H])C([H])(C([H])([H])C([H])([H])[N+]([H])([H])[H])C([H])([H])[N+]3([H])C([H])([H])C([H])([H])N(C(=O)N4C([H])([H])C([H])([H])C([H])([H])C([H])(n5nc(-c6c([H])c([H])c(Oc7c([H])c([H])c(F)c([H])c7F)c([H])c6[H])c(C(=O)N([H])[H])c5N([H])[H])C4([H])[H])C([H])([H])C([H])([H])C3([H])[H])c([H])c([H])c2C1([H])[H]

>  <smiles>  (42) 
[H]c1c([H])c([H])c2c(c1[H])C([H])([H])C([H])([H])C([H])([H])C2([H])N([H])C(=O)C1([H])N(C(=O)C([H])(N([H])C(=O)C([H])(N([H])C([H])([H])[H])C([H])([H])[H])C(C([H])([H])[H])(C([H])([H])[H])C([H])([H])[H])C([H])([H])c2c([H])c(OC([H])([H])C([H])([H])[N+]([H])([H])C([H])([H])C([H])([H])C([H])([H])C([H])(C([H])([H])C([H])([H])[N+]([H])([H])[H])C([H])([H])[N+]3([H])C([H])([H])C([H])([H])N(C(=O)N4C([H])([H])C([H])([H])C([H])([H])C([H])(n5nc(-c6c([H])c([H])c(Oc7c([H])c([H])c(F)c([H])c7F)c([H])c6[H])c(C(=O)N([H])[H])c5N([H])[H])C4([H])[H])C([H])([H])C([H])([H])C3([H])[H])c([H])c([H])c2C1([H])[H]

$$$$
42:0:0
     RDKit          3D

 92100  0  0  1  0  0  0  0  0999 V2000
  -29.8350  -21.7890   20.7100 C   0  0  0  0  0  2  0  0  0  0  0  0
  -28.8080  -22.8480   20.4950 N   0  0  0  0  0  4  0  0  0  0  0  0
  -28.1030  -22.7390   21.2090 H   0  0  0  0  0  0  0  0  0  0  0  0
  -28.3630  -22.6590   19.6100 H   0  0  0  0  0  0  0  0  0  0  0  0
  -29.2700  -24.2740   20.5010 C   0  0  0  0  0  2  0  0  0  0  0  0
  -28.1440  -25.2270   20.0160 C   0  0  0  0  0  2  0  0  0  0  0  0
  -28.3480  -26.6520   20.1920 O   0  0  0  0  0  0  0  0  0  0  0  0
  -24.5850  -31.9050   23.2420 C   0  0  0  0  0  0  0  0  0  0  0  0
  -27.1990  -27.4340   20.1460 C   0  0  0  0  0  0  0  0  0  0  0  0
  -23.3710  -30.5110   21.6020 C   0  0  0  0  0  3  0  0  0  0  0  0
  -24.8140  -28.9790   20.1660 C   0  0  0  0  0  0  0  0  0  0  0  0
  -25.9020  -30.8540   21.4010 C   0  0  0  0  0  2  0  0  0  0  0  0
  -25.9810  -29.4850   20.7530 C   0  0  0  0  0  0  0  0  0  0  0  0
  -27.1750  -28.7210   20.7400 C   0  0  0  0  0  3  0  0  0  0  0  0
  -26.0090  -26.9660   19.5320 C   0  0  0  0  0  3  0  0  0  0  0  0
  -24.8250  -27.7200   19.5530 C   0  0  0  0  0  3  0  0  0  0  0  0
  -23.5750  -29.8440   20.2180 C   0  0  0  0  0  2  0  0  0  0  0  0
  -24.6380  -31.1040   22.1400 N   0  0  0  0  0  0  0  0  0  0  0  0
  -23.5060  -32.1790   23.7840 O   0  0  0  0  0  0  0  0  0  0  0  0
  -22.7190  -29.4860   22.5590 C   0  0  0  0  0  0  0  0  0  0  0  0
  -21.3940  -29.3070   22.4350 N   0  0  0  0  0  0  0  0  0  0  0  0
  -23.4030  -28.8560   23.3700 O   0  0  0  0  0  0  0  0  0  0  0  0
  -20.9020  -29.8670   21.7510 H   0  0  0  0  0  0  0  0  0  0  0  0
  -18.0170  -28.1250   22.9440 C   0  0  0  0  0  0  0  0  0  0  0  0
  -20.5760  -28.3700   23.2050 C   0  0  0  0  0  3  0  0  0  0  0  0
  -20.6700  -26.9400   22.6240 C   0  0  0  0  0  2  0  0  0  0  0  0
  -19.5630  -26.6260   21.6140 C   0  0  0  0  0  2  0  0  0  0  0  0
  -18.1840  -26.7770   22.2630 C   0  0  0  0  0  2  0  0  0  0  0  0
  -19.1410  -28.8790   23.3720 C   0  0  0  0  0  0  0  0  0  0  0  0
  -18.9310  -30.1430   23.9680 C   0  0  0  0  0  3  0  0  0  0  0  0
  -17.6300  -30.6510   24.1410 C   0  0  0  0  0  3  0  0  0  0  0  0
  -16.5200  -29.8920   23.7290 C   0  0  0  0  0  3  0  0  0  0  0  0
  -16.7140  -28.6320   23.1360 C   0  0  0  0  0  3  0  0  0  0  0  0
  -25.8740  -32.5310   23.8580 C   0  0  0  0  0  3  0  0  0  0  0  0
  -25.5720  -33.9300   24.1870 N   0  0  0  0  0  0  0  0  0  0  0  0
  -25.8990  -34.9800   23.4230 C   0  0  0  0  0  0  0  0  0  0  0  0
  -26.5610  -34.8730   22.3860 O   0  0  0  0  0  0  0  0  0  0  0  0
  -24.9840  -34.0870   24.9940 H   0  0  0  0  0  0  0  0  0  0  0  0
  -24.1710  -36.7730   23.0740 C   0  0  0  0  0  1  0  0  0  0  0  0
  -25.4160  -36.3690   23.8790 C   0  0  0  0  0  3  0  0  0  0  0  0
  -27.5560  -37.2520   24.6970 C   0  0  0  0  0  1  0  0  0  0  0  0
  -26.4500  -37.4200   23.7590 N   0  0  0  0  0  0  0  0  0  0  0  0
  -26.0470  -38.3410   23.9070 H   0  0  0  0  0  0  0  0  0  0  0  0
  -26.3930  -31.7560   25.1310 C   0  0  1  0  0  0  0  0  0  0  0  0
  -25.3040  -31.5220   26.2020 C   0  0  0  0  0  1  0  0  0  0  0  0
  -26.9720  -30.3780   24.7340 C   0  0  0  0  0  1  0  0  0  0  0  0
  -27.5490  -32.5480   25.7890 C   0  0  0  0  0  1  0  0  0  0  0  0
  -29.2130  -20.3490   20.7920 C   0  0  0  0  0  2  0  0  0  0  0  0
  -30.2700  -18.1210   18.1500 C   0  0  0  0  0  2  0  0  0  0  0  0
  -29.1540  -17.4590   18.9260 C   0  0  0  0  0  2  0  0  0  0  0  0
  -30.3390  -19.4820   18.8220 C   0  0  0  0  0  2  0  0  0  0  0  0
  -29.4210  -17.9080   20.3690 C   0  0  0  0  0  3  0  0  0  0  0  0
  -30.0430  -19.2520   20.2450 N   0  0  0  0  0  0  0  0  0  0  0  0
  -30.3740  -16.9370   21.1350 C   0  0  0  0  0  2  0  0  0  0  0  0
  -30.6500  -14.5050   20.5460 C   0  0  0  0  0  0  0  0  0  0  0  0
  -30.3590  -12.3540   19.3700 C   0  0  0  0  0  2  0  0  0  0  0  0
  -29.4390  -12.5740   18.1500 C   0  0  0  0  0  2  0  0  0  0  0  0
  -27.9580  -12.4370   18.5520 C   0  0  0  0  0  2  0  0  0  0  0  0
  -27.6020  -13.2670   19.8150 C   0  0  0  0  0  3  0  0  0  0  0  0
  -28.6360  -13.0340   20.9400 C   0  0  0  0  0  2  0  0  0  0  0  0
  -29.9720  -13.3330   20.3980 N   0  0  0  0  0  0  0  0  0  0  0  0
  -31.7800  -14.6800   20.0840 O   0  0  0  0  0  0  0  0  0  0  0  0
  -29.9540  -15.5220   21.0910 N   0  0  0  0  0  0  0  0  0  0  0  0
  -29.0290  -15.3060   21.4310 H   0  0  0  0  0  0  0  0  0  0  0  0
  -25.1890  -13.8810   20.4660 C   0  0  0  0  0  0  0  0  0  0  0  0
  -24.1140  -13.1110   20.8220 C   0  0  0  0  0  0  0  0  0  0  0  0
  -24.5760  -11.7600   20.8180 C   0  0  0  0  0  0  0  0  0  0  0  0
  -26.2400  -12.9970   20.2680 N   0  0  0  0  0  0  0  0  0  0  0  0
  -25.8730  -11.7180   20.5370 N   0  0  0  0  0  0  0  0  0  0  0  0
  -23.8460  -10.5000   21.0070 C   0  0  0  0  0  0  0  0  0  0  0  0
  -24.2630   -9.5430   21.9590 C   0  0  0  0  0  3  0  0  0  0  0  0
  -23.5350   -8.3460   22.1370 C   0  0  0  0  0  3  0  0  0  0  0  0
  -22.3760   -8.0990   21.3630 C   0  0  0  0  0  0  0  0  0  0  0  0
  -21.9790   -9.0450   20.4020 C   0  0  0  0  0  3  0  0  0  0  0  0
  -22.7070  -10.2320   20.2220 C   0  0  0  0  0  3  0  0  0  0  0  0
  -21.6210   -6.9550   21.4500 O   0  0  0  0  0  0  0  0  0  0  0  0
  -21.5550   -6.2200   22.6070 C   0  0  0  0  0  0  0  0  0  0  0  0
  -21.1080   -6.7850   23.8220 C   0  0  0  0  0  3  0  0  0  0  0  0
  -20.9880   -5.9770   24.9700 C   0  0  0  0  0  3  0  0  0  0  0  0
  -21.3070   -4.6070   24.9050 C   0  0  0  0  0  0  0  0  0  0  0  0
  -21.7480   -4.0440   23.6950 C   0  0  0  0  0  3  0  0  0  0  0  0
  -21.8690   -4.8490   22.5490 C   0  0  0  0  0  0  0  0  0  0  0  0
  -22.2730   -4.2950   21.3790 F   0  0  0  0  0  0  0  0  0  0  0  0
  -21.1850   -3.8300   26.0060 F   0  0  0  0  0  0  0  0  0  0  0  0
  -22.7100  -13.5910   21.0590 C   0  0  0  0  0  0  0  0  0  0  0  0
  -21.9640  -12.9050   21.9190 N   0  0  0  0  0  0  0  0  0  0  0  0
  -22.2820  -14.6110   20.5200 O   0  0  0  0  0  0  0  0  0  0  0  0
  -22.3210  -12.0810   22.3780 H   0  0  0  0  0  0  0  0  0  0  0  0
  -21.0220  -13.2100   22.1200 H   0  0  0  0  0  0  0  0  0  0  0  0
  -25.3560  -15.2490   20.2750 N   0  0  0  0  0  0  0  0  0  0  0  0
  -24.5830  -15.9010   20.3600 H   0  0  0  0  0  0  0  0  0  0  0  0
  -26.2060  -15.6860   19.9430 H   0  0  0  0  0  0  0  0  0  0  0  0
  1 48  1  0
  2  5  1  0
  2  1  1  0
  2  3  1  0
  4  2  1  0
  6  7  1  0
  6  5  1  0
  8 19  2  0
  9  7  1  0
  9 14  1  0
 10 18  1  0
 10 20  1  0
 11 17  1  0
 11 13  1  0
 12 18  1  0
 13 12  1  0
 14 13  2  0
 15 16  1  0
 15  9  2  0
 16 11  2  0
 17 10  1  0
 18  8  1  0
 20 22  2  0
 21 20  1  0
 23 21  1  0
 24 33  2  0
 24 29  1  0
 25 21  1  0
 25 29  1  0
 26 25  1  0
 27 28  1  0
 27 26  1  0
 28 24  1  0
 29 30  2  0
 30 31  1  0
 32 31  2  0
 33 32  1  0
 34  8  1  0
 34 35  1  0
 34 44  1  0
 35 38  1  0
 36 40  1  0
 36 35  1  0
 37 36  2  0
 40 39  1  0
 42 40  1  0
 42 43  1  0
 42 41  1  0
 44 47  1  1
 44 45  1  0
 46 44  1  0
 49 51  1  0
 49 50  1  0
 50 52  1  0
 51 53  1  0
 52 54  1  0
 53 52  1  0
 53 48  1  0
 55 63  1  0
 56 61  1  0
 57 58  1  0
 57 56  1  0
 59 58  1  0
 59 68  1  0
 59 60  1  0
 61 55  1  0
 61 60  1  0
 62 55  2  0
 63 54  1  0
 63 64  1  0
 65 66  2  0
 66 85  1  0
 67 66  1  0
 67 70  1  0
 68 65  1  0
 68 69  1  0
 69 67  2  0
 70 71  1  0
 71 72  2  0
 73 76  1  0
 73 72  1  0
 74 73  2  0
 75 74  1  0
 75 70  2  0
 76 77  1  0
 77 78  1  0
 78 79  2  0
 80 79  1  0
 80 84  1  0
 81 80  2  0
 82 77  2  0
 82 81  1  0
 83 82  1  0
 85 86  1  0
 86 89  1  0
 86 88  1  0
 87 85  2  0
 90 91  1  0
 90 65  1  0
 92 90  1  0
M  ISO  4   6 101   7 101  55 100  63 100
M  END
>  <TORSDO>  (43) 
F 22

>  <SCORE>  (43) 
-13.219

>  <name>  (43) 
42

>  <ligand_id>  (43) 
42

>  <original_smiles>  (43) 
[H]c1c([H])c([H])c2c(c1[H])C([H])([H])C([H])([H])C([H])([H])C2([H])N([H])C(=O)C1([H])N(C(=O)C([H])(N([H])C(=O)C([H])(N([H])C([H])([H])[H])C([H])([H])[H])C(C([H])([H])[H])(C([H])([H])[H])C([H])([H])[H])C([H])([H])c2c([H])c(OC([H])([H])C([H])([H])[N+]([H])([H])C([H])([H])C([H])([H])N3C([H])([H])C([H])([H])C([H])([H])C3([H])C([H])([H])N([H])C(=O)N3C([H])([H])C([H])([H])C([H])([H])C([H])(n4nc(-c5c([H])c([H])c(Oc6c([H])c([H])c(F)c([H])c6F)c([H])c5[H])c(C(=O)N([H])[H])c4N([H])[H])C3([H])[H])c([H])c([H])c2C1([H])[H]

>  <smiles>  (43) 
[H]c1c([H])c([H])c2c(c1[H])C([H])([H])C([H])([H])C([H])([H])C2([H])N([H])C(=O)C1([H])N(C(=O)C([H])(N([H])C(=O)C([H])(N([H])C([H])([H])[H])C([H])([H])[H])C(C([H])([H])[H])(C([H])([H])[H])C([H])([H])[H])C([H])([H])c2c([H])c(OC([H])([H])C([H])([H])[N+]([H])([H])C([H])([H])C([H])([H])N3C([H])([H])C([H])([H])C([H])([H])C3([H])C([H])([H])N([H])C(=O)N3C([H])([H])C([H])([H])C([H])([H])C([H])(n4nc(-c5c([H])c([H])c(Oc6c([H])c([H])c(F)c([H])c6F)c([H])c5[H])c(C(=O)N([H])[H])c4N([H])[H])C3([H])[H])c([H])c([H])c2C1([H])[H]

$$$$
43:0:0
     RDKit          3D

 95103  0  0  1  0  0  0  0  0999 V2000
  -29.9540  -23.2100   21.0170 C   0  0  0  0  0  3  0  0  0  0  0  0
  -31.3130  -23.1590   21.6040 N   0  0  0  0  0  4  0  0  0  0  0  0
  -32.0140  -23.1330   20.8820 H   0  0  0  0  0  0  0  0  0  0  0  0
  -31.4380  -22.3670   22.2080 H   0  0  0  0  0  0  0  0  0  0  0  0
  -31.4770  -23.9780   22.1630 H   0  0  0  0  0  0  0  0  0  0  0  0
  -29.7790  -21.9190   20.1420 C   0  0  0  0  0  0  0  0  0  0  0  0
  -29.5250  -21.9590   18.9340 O   0  0  0  0  0  0  0  0  0  0  0  0
  -29.9580  -20.5370   20.8320 C   0  0  0  0  0  2  0  0  0  0  0  0
  -30.0870  -19.4210   19.8470 N   0  0  0  0  0  4  0  0  0  0  0  0
  -29.2450  -19.3850   19.2930 H   0  0  0  0  0  0  0  0  0  0  0  0
  -30.8300  -19.6730   19.2120 H   0  0  0  0  0  0  0  0  0  0  0  0
  -31.0150  -14.5370   20.0710 C   0  0  0  0  0  0  0  0  0  0  0  0
  -30.6660  -12.3790   18.9250 C   0  0  0  0  0  2  0  0  0  0  0  0
  -29.6630  -12.5980   17.7710 C   0  0  0  0  0  2  0  0  0  0  0  0
  -28.2070  -12.4830   18.2720 C   0  0  0  0  0  2  0  0  0  0  0  0
  -27.9480  -13.2910   19.5740 C   0  0  0  0  0  3  0  0  0  0  0  0
  -29.0590  -13.0050   20.6100 C   0  0  0  0  0  2  0  0  0  0  0  0
  -30.3390  -13.3550   19.9790 N   0  0  0  0  0  0  0  0  0  0  0  0
  -32.1600  -14.6540   19.6170 O   0  0  0  0  0  0  0  0  0  0  0  0
  -29.3910  -17.5790   21.4740 C   0  0  0  0  0  2  0  0  0  0  0  0
  -29.6000  -16.0540   21.5020 C   0  0  0  0  0  2  0  0  0  0  0  0
  -30.4540  -16.9010   19.4520 C   0  0  0  0  0  2  0  0  0  0  0  0
  -30.3950  -18.0810   20.4440 C   0  0  0  0  0  3  0  0  0  0  0  0
  -30.2530  -15.6620   20.2400 N   0  0  0  0  0  0  0  0  0  0  0  0
  -25.6030  -13.9340   20.4140 C   0  0  0  0  0  0  0  0  0  0  0  0
  -24.5360  -13.1760   20.8170 C   0  0  0  0  0  0  0  0  0  0  0  0
  -24.9620  -11.8170   20.7280 C   0  0  0  0  0  0  0  0  0  0  0  0
  -26.6150  -13.0360   20.1130 N   0  0  0  0  0  0  0  0  0  0  0  0
  -26.2350  -11.7550   20.3550 N   0  0  0  0  0  0  0  0  0  0  0  0
  -24.2170  -10.5650   20.9220 C   0  0  0  0  0  0  0  0  0  0  0  0
  -24.6280   -9.6010   21.8680 C   0  0  0  0  0  3  0  0  0  0  0  0
  -23.8880   -8.4130   22.0500 C   0  0  0  0  0  3  0  0  0  0  0  0
  -22.7190   -8.1830   21.2860 C   0  0  0  0  0  0  0  0  0  0  0  0
  -22.3270   -9.1350   20.3300 C   0  0  0  0  0  3  0  0  0  0  0  0
  -23.0680  -10.3130   20.1460 C   0  0  0  0  0  3  0  0  0  0  0  0
  -21.9500   -7.0480   21.3770 O   0  0  0  0  0  0  0  0  0  0  0  0
  -21.8230   -6.3580   22.5550 C   0  0  0  0  0  0  0  0  0  0  0  0
  -21.3270   -6.9690   23.7270 C   0  0  0  0  0  3  0  0  0  0  0  0
  -21.1450   -6.2040   24.8970 C   0  0  0  0  0  3  0  0  0  0  0  0
  -21.4490   -4.8300   24.8960 C   0  0  0  0  0  0  0  0  0  0  0  0
  -21.9390   -4.2190   23.7280 C   0  0  0  0  0  3  0  0  0  0  0  0
  -22.1220   -4.9800   22.5600 C   0  0  0  0  0  0  0  0  0  0  0  0
  -22.5740   -4.3810   21.4320 F   0  0  0  0  0  0  0  0  0  0  0  0
  -21.2680   -4.0950   26.0180 F   0  0  0  0  0  0  0  0  0  0  0  0
  -23.1650  -13.6790   21.1700 C   0  0  0  0  0  0  0  0  0  0  0  0
  -22.4670  -12.9830   22.0600 N   0  0  0  0  0  0  0  0  0  0  0  0
  -22.7230  -14.7230   20.6910 O   0  0  0  0  0  0  0  0  0  0  0  0
  -22.8380  -12.1400   22.4740 H   0  0  0  0  0  0  0  0  0  0  0  0
  -21.5480  -13.3000   22.3350 H   0  0  0  0  0  0  0  0  0  0  0  0
  -25.7910  -15.3040   20.2610 N   0  0  0  0  0  0  0  0  0  0  0  0
  -25.0450  -15.9730   20.4170 H   0  0  0  0  0  0  0  0  0  0  0  0
  -26.6350  -15.7250   19.8940 H   0  0  0  0  0  0  0  0  0  0  0  0
  -29.7700  -24.5810   20.2670 C   0  0  0  0  0  2  0  0  0  0  0  0
  -28.3670  -25.2390   20.3170 C   0  0  0  0  0  2  0  0  0  0  0  0
  -28.4620  -26.6600   20.0640 O   0  0  0  0  0  0  0  0  0  0  0  0
  -24.6380  -31.8190   23.2060 C   0  0  0  0  0  0  0  0  0  0  0  0
  -27.2850  -27.3890   20.0850 C   0  0  0  0  0  0  0  0  0  0  0  0
  -23.4320  -30.4200   21.5630 C   0  0  0  0  0  3  0  0  0  0  0  0
  -24.8830  -28.8970   20.1230 C   0  0  0  0  0  0  0  0  0  0  0  0
  -25.9560  -30.7910   21.3510 C   0  0  0  0  0  2  0  0  0  0  0  0
  -26.0470  -29.4230   20.7020 C   0  0  0  0  0  0  0  0  0  0  0  0
  -27.2510  -28.6780   20.6730 C   0  0  0  0  0  3  0  0  0  0  0  0
  -26.1000  -26.8850   19.5010 C   0  0  0  0  0  3  0  0  0  0  0  0
  -24.9070  -27.6290   19.5210 C   0  0  0  0  0  3  0  0  0  0  0  0
  -23.6360  -29.7510   20.1790 C   0  0  0  0  0  2  0  0  0  0  0  0
  -24.6950  -31.0240   22.0980 N   0  0  0  0  0  0  0  0  0  0  0  0
  -23.5580  -32.0810   23.7520 O   0  0  0  0  0  0  0  0  0  0  0  0
  -22.7910  -29.3890   22.5200 C   0  0  0  0  0  0  0  0  0  0  0  0
  -21.4660  -29.2060   22.4030 N   0  0  0  0  0  0  0  0  0  0  0  0
  -23.4840  -28.7580   23.3230 O   0  0  0  0  0  0  0  0  0  0  0  0
  -20.9680  -29.7660   21.7260 H   0  0  0  0  0  0  0  0  0  0  0  0
  -18.0970  -28.0090   22.9260 C   0  0  0  0  0  0  0  0  0  0  0  0
  -20.6580  -28.2580   23.1720 C   0  0  0  0  0  3  0  0  0  0  0  0
  -20.7530  -26.8350   22.5750 C   0  0  0  0  0  2  0  0  0  0  0  0
  -19.6380  -26.5270   21.5710 C   0  0  0  0  0  2  0  0  0  0  0  0
  -18.2640  -26.6670   22.2330 C   0  0  0  0  0  2  0  0  0  0  0  0
  -19.2220  -28.7630   23.3530 C   0  0  0  0  0  0  0  0  0  0  0  0
  -19.0130  -30.0200   23.9610 C   0  0  0  0  0  3  0  0  0  0  0  0
  -17.7120  -30.5220   24.1480 C   0  0  0  0  0  3  0  0  0  0  0  0
  -16.6020  -29.7640   23.7380 C   0  0  0  0  0  3  0  0  0  0  0  0
  -16.7960  -28.5100   23.1320 C   0  0  0  0  0  3  0  0  0  0  0  0
  -25.9240  -32.4540   23.8210 C   0  0  0  0  0  3  0  0  0  0  0  0
  -25.6110  -33.8500   24.1500 N   0  0  0  0  0  0  0  0  0  0  0  0
  -25.9610  -34.9050   23.4000 C   0  0  0  0  0  0  0  0  0  0  0  0
  -26.6510  -34.8020   22.3810 O   0  0  0  0  0  0  0  0  0  0  0  0
  -24.9970  -34.0040   24.9360 H   0  0  0  0  0  0  0  0  0  0  0  0
  -24.2570  -36.7120   23.0020 C   0  0  0  0  0  1  0  0  0  0  0  0
  -25.4670  -36.2920   23.8510 C   0  0  0  0  0  3  0  0  0  0  0  0
  -27.5780  -37.1540   24.7620 C   0  0  0  0  0  1  0  0  0  0  0  0
  -26.5090  -37.3390   23.7840 N   0  0  0  0  0  0  0  0  0  0  0  0
  -26.1040  -38.2590   23.9280 H   0  0  0  0  0  0  0  0  0  0  0  0
  -26.4460  -31.6850   25.0970 C   0  0  1  0  0  0  0  0  0  0  0  0
  -25.3560  -31.4450   26.1670 C   0  0  0  0  0  1  0  0  0  0  0  0
  -27.0330  -30.3090   24.7050 C   0  0  0  0  0  1  0  0  0  0  0  0
  -27.5930  -32.4850   25.7580 C   0  0  0  0  0  1  0  0  0  0  0  0
  1 53  1  0
  1  2  1  0
  2  5  1  0
  2  4  1  0
  3  2  1  0
  6  8  1  0
  6  1  1  0
  7  6  2  0
  9  8  1  0
 10  9  1  0
 11  9  1  0
 12 24  1  0
 13 18  1  0
 14 15  1  0
 14 13  1  0
 16 15  1  0
 16 28  1  0
 16 17  1  0
 18 12  1  0
 18 17  1  0
 19 12  2  0
 20 21  1  0
 22 24  1  0
 22 23  1  0
 23  9  1  0
 23 20  1  0
 24 21  1  0
 25 26  2  0
 26 45  1  0
 27 26  1  0
 27 30  1  0
 28 29  1  0
 28 25  1  0
 29 27  2  0
 30 31  1  0
 31 32  2  0
 33 36  1  0
 33 32  1  0
 34 33  2  0
 35 34  1  0
 35 30  2  0
 36 37  1  0
 37 42  2  0
 37 38  1  0
 38 39  2  0
 40 39  1  0
 40 44  1  0
 41 40  2  0
 42 41  1  0
 43 42  1  0
 45 46  1  0
 46 49  1  0
 46 48  1  0
 47 45  2  0
 50 25  1  0
 50 51  1  0
 52 50  1  0
 53 54  1  0
 55 57  1  0
 55 54  1  0
 56 67  2  0
 57 62  1  0
 58 66  1  0
 58 68  1  0
 59 65  1  0
 59 61  1  0
 60 66  1  0
 61 60  1  0
 62 61  2  0
 63 64  1  0
 63 57  2  0
 64 59  2  0
 65 58  1  0
 66 56  1  0
 68 70  2  0
 69 68  1  0
 71 69  1  0
 72 81  2  0
 72 77  1  0
 73 69  1  0
 73 77  1  0
 74 73  1  0
 75 76  1  0
 75 74  1  0
 76 72  1  0
 77 78  2  0
 78 79  1  0
 80 79  2  0
 81 80  1  0
 82 56  1  0
 82 83  1  0
 82 92  1  0
 83 86  1  0
 84 88  1  0
 84 83  1  0
 85 84  2  0
 88 87  1  0
 90 88  1  0
 90 91  1  0
 90 89  1  0
 92 95  1  1
 92 93  1  0
 94 92  1  0
M  ISO  4  12 100  24 100  54 101  55 101
M  END
>  <TORSDO>  (44) 
F 22

>  <SCORE>  (44) 
-12.845

>  <name>  (44) 
43

>  <ligand_id>  (44) 
43

>  <original_smiles>  (44) 
[H]c1c([H])c([H])c2c(c1[H])C([H])([H])C([H])([H])C([H])([H])C2([H])N([H])C(=O)C1([H])N(C(=O)C([H])(N([H])C(=O)C([H])(N([H])C([H])([H])[H])C([H])([H])[H])C(C([H])([H])[H])(C([H])([H])[H])C([H])([H])[H])C([H])([H])c2c([H])c(OC([H])([H])C([H])([H])C([H])(C(=O)C([H])([H])[N+]([H])([H])C3([H])C([H])([H])N(C(=O)N4C([H])([H])C([H])([H])C([H])([H])C([H])(n5nc(-c6c([H])c([H])c(Oc7c([H])c([H])c(F)c([H])c7F)c([H])c6[H])c(C(=O)N([H])[H])c5N([H])[H])C4([H])[H])C([H])([H])C3([H])[H])[N+]([H])([H])[H])c([H])c([H])c2C1([H])[H]

>  <smiles>  (44) 
[H]c1c([H])c([H])c2c(c1[H])C([H])([H])C([H])([H])C([H])([H])C2([H])N([H])C(=O)C1([H])N(C(=O)C([H])(N([H])C(=O)C([H])(N([H])C([H])([H])[H])C([H])([H])[H])C(C([H])([H])[H])(C([H])([H])[H])C([H])([H])[H])C([H])([H])c2c([H])c(OC([H])([H])C([H])([H])C([H])(C(=O)C([H])([H])[N+]([H])([H])C3([H])C([H])([H])N(C(=O)N4C([H])([H])C([H])([H])C([H])([H])C([H])(n5nc(-c6c([H])c([H])c(Oc7c([H])c([H])c(F)c([H])c7F)c([H])c6[H])c(C(=O)N([H])[H])c5N([H])[H])C4([H])[H])C([H])([H])C3([H])[H])[N+]([H])([H])[H])c([H])c([H])c2C1([H])[H]

$$$$
44:0:0
     RDKit          3D

 98103  0  0  1  0  0  0  0  0999 V2000
  -23.1530  -22.9560   20.4420 C   0  0  0  0  0  2  0  0  0  0  0  0
  -24.6620  -23.8000   20.4300 C   0  0  0  0  0  2  0  0  0  0  0  0
  -27.7670  -23.8460   17.7200 C   0  0  0  0  0  2  0  0  0  0  0  0
  -29.2100  -24.3030   18.2370 C   0  0  0  0  0  2  0  0  0  0  0  0
  -28.8250  -22.7620   20.1190 C   0  0  0  0  0  2  0  0  0  0  0  0
  -26.4110  -24.2510   18.4630 C   0  0  0  0  0  2  0  0  0  0  0  0
  -27.3850  -23.5060   20.5380 C   0  0  0  0  0  2  0  0  0  0  0  0
  -30.0340  -23.2750   19.1030 C   0  0  0  0  0  3  0  0  0  0  0  0
  -26.0680  -23.4590   19.6900 N   0  0  1  0  0  4  0  0  0  0  0  0
  -25.9700  -22.5000   19.3930 H   0  0  0  0  0  0  0  0  0  0  0  0
  -33.8400  -22.5120   20.6780 C   0  0  0  0  0  0  0  0  0  0  0  0
  -35.0410  -20.3050   21.0970 C   0  0  0  0  0  2  0  0  0  0  0  0
  -35.0230  -19.3900   19.8530 C   0  0  0  0  0  2  0  0  0  0  0  0
  -33.6970  -18.6120   19.8010 C   0  0  0  0  0  2  0  0  0  0  0  0
  -32.4750  -19.5270   20.0800 C   0  0  0  0  0  3  0  0  0  0  0  0
  -32.6480  -20.3980   21.3270 C   0  0  0  0  0  2  0  0  0  0  0  0
  -33.8220  -21.1860   21.0570 N   0  0  0  0  0  0  0  0  0  0  0  0
  -34.9790  -23.0180   20.7210 O   0  0  0  0  0  0  0  0  0  0  0  0
  -31.5010  -23.8100   19.6930 C   0  0  0  0  0  0  0  0  0  0  0  0
  -32.7870  -23.3740   20.1960 N   0  0  0  0  0  0  0  0  0  0  0  0
  -31.4910  -25.0410   19.6540 O   0  0  0  0  0  0  0  0  0  0  0  0
  -33.2710  -24.2580   20.2080 H   0  0  0  0  0  0  0  0  0  0  0  0
  -29.9580  -19.2860   20.2720 C   0  0  0  0  0  0  0  0  0  0  0  0
  -29.1410  -18.1990   20.3220 C   0  0  0  0  0  0  0  0  0  0  0  0
  -29.9980  -17.0630   20.2180 C   0  0  0  0  0  0  0  0  0  0  0  0
  -31.2400  -18.7900   20.1780 N   0  0  0  0  0  0  0  0  0  0  0  0
  -31.2700  -17.4370   20.2060 N   0  0  0  0  0  0  0  0  0  0  0  0
  -29.6770  -15.6460   20.0530 C   0  0  0  0  0  0  0  0  0  0  0  0
  -29.8710  -14.7170   21.0970 C   0  0  0  0  0  3  0  0  0  0  0  0
  -29.5350  -13.3590   20.9130 C   0  0  0  0  0  3  0  0  0  0  0  0
  -28.9970  -12.9250   19.6780 C   0  0  0  0  0  0  0  0  0  0  0  0
  -28.8310  -13.8510   18.6340 C   0  0  0  0  0  3  0  0  0  0  0  0
  -29.1710  -15.2000   18.8170 C   0  0  0  0  0  3  0  0  0  0  0  0
  -28.6590  -11.6230   19.4020 O   0  0  0  0  0  0  0  0  0  0  0  0
  -27.8660  -10.8930   20.2490 C   0  0  0  0  0  0  0  0  0  0  0  0
  -26.5270  -11.2550   20.5140 C   0  0  0  0  0  3  0  0  0  0  0  0
  -25.7280  -10.4380   21.3370 C   0  0  0  0  0  3  0  0  0  0  0  0
  -26.2590   -9.2550   21.8860 C   0  0  0  0  0  0  0  0  0  0  0  0
  -27.5900   -8.8910   21.6180 C   0  0  0  0  0  3  0  0  0  0  0  0
  -28.3900   -9.7070   20.8000 C   0  0  0  0  0  0  0  0  0  0  0  0
  -29.6660   -9.3400   20.5270 F   0  0  0  0  0  0  0  0  0  0  0  0
  -25.4880   -8.4650   22.6680 F   0  0  0  0  0  0  0  0  0  0  0  0
  -27.6430  -18.2260   20.3350 C   0  0  0  0  0  0  0  0  0  0  0  0
  -27.0210  -17.2220   20.9410 N   0  0  0  0  0  0  0  0  0  0  0  0
  -27.0180  -19.1710   19.8530 O   0  0  0  0  0  0  0  0  0  0  0  0
  -27.5400  -16.4610   21.3550 H   0  0  0  0  0  0  0  0  0  0  0  0
  -26.0140  -17.2140   20.9930 H   0  0  0  0  0  0  0  0  0  0  0  0
  -29.7090  -20.6450   20.2460 N   0  0  0  0  0  0  0  0  0  0  0  0
  -28.7610  -20.9900   20.1630 H   0  0  0  0  0  0  0  0  0  0  0  0
  -30.4080  -21.3280   19.9860 H   0  0  0  0  0  0  0  0  0  0  0  0
  -21.6200  -23.7040   20.7070 C   0  0  0  0  0  2  0  0  0  0  0  0
  -20.2070  -23.6790   19.8430 N   0  0  0  0  0  4  0  0  0  0  0  0
  -19.5140  -23.4320   20.5320 H   0  0  0  0  0  0  0  0  0  0  0  0
  -20.2910  -22.8510   19.2760 H   0  0  0  0  0  0  0  0  0  0  0  0
  -19.3920  -24.7850   18.8290 C   0  0  0  0  0  2  0  0  0  0  0  0
  -20.7950  -26.5560   17.0340 C   0  0  0  0  0  1  0  0  0  0  0  0
  -22.8700  -26.6560   17.0570 C   0  0  0  0  0  1  0  0  0  0  0  0
  -24.4470  -26.5240   18.0120 O   0  0  0  0  0  0  0  0  0  0  0  0
  -24.3190  -29.4450   22.5500 C   0  0  0  0  0  0  0  0  0  0  0  0
  -25.8880  -26.7400   17.8330 C   0  0  0  0  0  3  0  0  0  0  0  0
  -23.4220  -29.4820   20.2870 C   0  0  0  0  0  3  0  0  0  0  0  0
  -25.0580  -29.0930   18.3190 C   0  0  0  0  0  3  0  0  0  0  0  0
  -25.9230  -29.2170   20.6510 C   0  0  0  0  0  2  0  0  0  0  0  0
  -25.9040  -28.5590   19.2930 C   0  0  0  0  0  3  0  0  0  0  0  0
  -26.5300  -27.3450   18.9610 C   0  0  0  0  0  2  0  0  0  0  0  0
  -25.9720  -27.5060   16.7050 C   0  0  0  0  0  2  0  0  0  0  0  0
  -25.2640  -28.6930   16.9610 C   0  0  0  0  0  2  0  0  0  0  0  0
  -23.8720  -29.8760   18.8320 C   0  0  0  0  0  2  0  0  0  0  0  0
  -24.5720  -29.4190   21.2160 N   0  0  0  0  0  0  0  0  0  0  0  0
  -23.1720  -29.6110   22.9900 O   0  0  0  0  0  0  0  0  0  0  0  0
  -22.6670  -28.1400   20.4570 C   0  0  0  0  0  0  0  0  0  0  0  0
  -21.4510  -28.1620   20.9230 N   0  0  0  0  0  0  0  0  0  0  0  0
  -23.1830  -27.0460   20.2700 O   0  0  0  0  0  0  0  0  0  0  0  0
  -21.0500  -29.0440   21.2080 H   0  0  0  0  0  0  0  0  0  0  0  0
  -17.8020  -28.1990   21.0600 C   0  0  0  0  0  0  0  0  0  0  0  0
  -20.5170  -27.0560   20.6930 C   0  0  0  0  0  2  0  0  0  0  0  0
  -20.3100  -26.3790   18.7510 C   0  0  0  0  0  2  0  0  0  0  0  0
  -18.3330  -27.1250   17.9200 C   0  0  0  0  0 15  0  0  0  0  0  0
  -17.2560  -28.0340   19.3520 C   0  0  0  0  0  1  0  0  0  0  0  0
  -19.1910  -27.8060   21.5860 C   0  0  0  0  0  0  0  0  0  0  0  0
  -19.4550  -28.0540   22.9830 C   0  0  0  0  0  3  0  0  0  0  0  0
  -18.4970  -28.4940   23.9230 C   0  0  0  0  0  3  0  0  0  0  0  0
  -17.1710  -28.6580   23.5010 C   0  0  0  0  0  3  0  0  0  0  0  0
  -16.8480  -28.5050   22.1180 C   0  0  0  0  0  3  0  0  0  0  0  0
  -25.4700  -29.2940   23.5740 C   0  0  0  0  0  3  0  0  0  0  0  0
  -25.4050  -30.4760   24.4370 N   0  0  0  0  0  0  0  0  0  0  0  0
  -26.2100  -31.5360   24.3200 C   0  0  0  0  0  0  0  0  0  0  0  0
  -27.1520  -31.5760   23.5240 O   0  0  0  0  0  0  0  0  0  0  0  0
  -24.6220  -30.5310   25.0720 H   0  0  0  0  0  0  0  0  0  0  0  0
  -25.2650  -33.8640   24.4270 C   0  0  0  0  0  1  0  0  0  0  0  0
  -25.9280  -32.7390   25.2370 C   0  0  0  0  0  3  0  0  0  0  0  0
  -27.7000  -32.3170   26.8820 C   0  0  0  0  0  1  0  0  0  0  0  0
  -27.1380  -33.2530   25.9120 N   0  0  0  0  0  0  0  0  0  0  0  0
  -26.9370  -34.1260   26.3930 H   0  0  0  0  0  0  0  0  0  0  0  0
  -25.3800  -27.9670   24.4190 C   0  0  1  0  0  0  0  0  0  0  0  0
  -23.9910  -27.7180   25.0510 C   0  0  0  0  0  1  0  0  0  0  0  0
  -25.7270  -26.7310   23.5570 C   0  0  0  0  0  1  0  0  0  0  0  0
  -26.4280  -28.0180   25.5540 C   0  0  0  0  0  1  0  0  0  0  0  0
  1 51  1  0
  2  1  1  0
  3  4  1  0
  3  6  1  0
  4  8  1  0
  5  7  1  0
  6  9  1  0
  8 19  1  0
  8  5  1  0
  9  2  1  0
  9  7  1  0
  9 10  1  6
 11 18  2  0
 11 17  1  0
 13 12  1  0
 14 13  1  0
 15 14  1  0
 15 26  1  0
 15 16  1  0
 17 12  1  0
 17 16  1  0
 19 20  1  0
 20 22  1  0
 20 11  1  0
 21 19  2  0
 23 24  2  0
 24 43  1  0
 25 24  1  0
 26 27  1  0
 26 23  1  0
 27 25  2  0
 28 25  1  0
 28 29  1  0
 30 29  2  0
 31 30  1  0
 32 33  1  0
 32 31  2  0
 33 28  2  0
 34 31  1  0
 34 35  1  0
 35 36  2  0
 35 40  1  0
 36 37  1  0
 37 38  2  0
 38 42  1  0
 39 38  1  0
 40 39  2  0
 41 40  1  0
 43 44  1  0
 44 47  1  0
 44 46  1  0
 45 43  2  0
 48 23  1  0
 49 48  1  0
 50 48  1  0
 52 53  1  0
 52 51  1  0
 54 52  1  0
 55 52  1  0
 56 77  1  0
 57 58  1  0
 59 70  2  0
 60 58  1  0
 60 65  1  0
 61 71  1  0
 61 69  1  0
 62 67  1  0
 62 68  1  0
 62 64  1  0
 63 69  1  0
 64 65  1  0
 64 63  1  0
 66 67  1  0
 66 60  1  0
 68 61  1  0
 69 59  1  0
 71 72  1  0
 72 74  1  0
 73 71  2  0
 75 80  2  0
 75 84  1  0
 76 72  1  0
 76 80  1  0
 77 55  1  0
 79 75  1  0
 80 81  1  0
 81 82  2  0
 83 82  1  0
 84 83  2  0
 85 59  1  0
 85 95  1  0
 85 86  1  0
 86 89  1  0
 87 86  1  0
 87 91  1  0
 88 87  2  0
 91 90  1  0
 91 93  1  0
 93 94  1  0
 93 92  1  0
 95 96  1  1
 95 98  1  0
 97 95  1  0
M  ISO  4  11 100  20 100  57 101  58 101
M  END
>  <TORSDO>  (45) 
F 23

>  <SCORE>  (45) 
-5.797

>  <name>  (45) 
44

>  <ligand_id>  (45) 
44

>  <original_smiles>  (45) 
[H]c1c([H])c([H])c2c(c1[H])C([H])([H])C([H])([H])C([H])([H])C2([H])N([H])C(=O)C1([H])N(C(=O)C([H])(N([H])C(=O)C([H])(N([H])C([H])([H])[H])C([H])([H])[H])C(C([H])([H])[H])(C([H])([H])[H])C([H])([H])[H])C([H])([H])c2c([H])c(OC([H])([H])C([H])([H])C([H])([H])[N+]([H])([H])C([H])([H])C([H])([H])C([H])([H])[N+]3([H])C([H])([H])C([H])([H])C([H])([H])C([H])(C(=O)N([H])C(=O)N4C([H])([H])C([H])([H])C([H])([H])C([H])(n5nc(-c6c([H])c([H])c(Oc7c([H])c([H])c(F)c([H])c7F)c([H])c6[H])c(C(=O)N([H])[H])c5N([H])[H])C4([H])[H])C([H])([H])C3([H])[H])c([H])c([H])c2C1([H])[H]

>  <smiles>  (45) 
[H]c1c([H])c([H])c2c(c1[H])C([H])([H])C([H])([H])C([H])([H])C2([H])N([H])C(=O)C1([H])N(C(=O)C([H])(N([H])C(=O)C([H])(N([H])C([H])([H])[H])C([H])([H])[H])C(C([H])([H])[H])(C([H])([H])[H])C([H])([H])[H])C([H])([H])c2c([H])c(OC([H])([H])C([H])([H])C([H])([H])[N+]([H])([H])C([H])([H])C([H])([H])C([H])([H])[N+]3([H])C([H])([H])C([H])([H])C([H])([H])C([H])(C(=O)N([H])C(=O)N4C([H])([H])C([H])([H])C([H])([H])C([H])(n5nc(-c6c([H])c([H])c(Oc7c([H])c([H])c(F)c([H])c7F)c([H])c6[H])c(C(=O)N([H])[H])c5N([H])[H])C4([H])[H])C([H])([H])C3([H])[H])c([H])c([H])c2C1([H])[H]

$$$$
45:0:0
     RDKit          3D

 97105  0  0  1  0  0  0  0  0999 V2000
  -32.7140  -17.7780   19.4290 C   0  0  0  0  0  2  0  0  0  0  0  0
  -31.9730  -18.1710   20.7300 C   0  0  0  0  0  2  0  0  0  0  0  0
  -31.2280  -19.2200   17.9310 C   0  0  0  0  0  2  0  0  0  0  0  0
  -30.5790  -20.1300   18.9940 C   0  0  0  0  0  2  0  0  0  0  0  0
  -32.6710  -18.8000   18.2790 C   0  0  0  0  0  3  0  0  0  0  0  0
  -30.4190  -18.1910   20.6920 C   0  0  0  0  0  3  0  0  0  0  0  0
  -29.8410  -19.4740   20.1160 N   0  0  1  0  0  4  0  0  0  0  0  0
  -28.9510  -19.1900   19.7350 H   0  0  0  0  0  0  0  0  0  0  0  0
  -33.3740  -18.2650   17.0930 N   0  0  0  0  0  4  0  0  0  0  0  0
  -32.9310  -17.4360   16.7380 H   0  0  0  0  0  0  0  0  0  0  0  0
  -34.3260  -18.0340   17.3170 H   0  0  0  0  0  0  0  0  0  0  0  0
  -33.4010  -18.9460   16.3540 H   0  0  0  0  0  0  0  0  0  0  0  0
  -29.7500  -16.9020   20.0880 C   0  0  0  0  0  2  0  0  0  0  0  0
  -30.6400  -14.5580   20.4570 C   0  0  0  0  0  0  0  0  0  0  0  0
  -30.3560  -12.3740   19.3570 C   0  0  0  0  0  2  0  0  0  0  0  0
  -29.4260  -12.5820   18.1410 C   0  0  0  0  0  2  0  0  0  0  0  0
  -27.9450  -12.4670   18.5580 C   0  0  0  0  0  2  0  0  0  0  0  0
  -27.6050  -13.3020   19.8230 C   0  0  0  0  0  3  0  0  0  0  0  0
  -28.6530  -13.0770   20.9400 C   0  0  0  0  0  2  0  0  0  0  0  0
  -29.9840  -13.3660   20.3820 N   0  0  0  0  0  0  0  0  0  0  0  0
  -31.7730  -14.7180   20.0040 O   0  0  0  0  0  0  0  0  0  0  0  0
  -29.8770  -15.6120   20.8190 N   0  0  0  0  0  0  0  0  0  0  0  0
  -29.0360  -15.3400   21.3090 H   0  0  0  0  0  0  0  0  0  0  0  0
  -25.2020  -13.9250   20.5010 C   0  0  0  0  0  0  0  0  0  0  0  0
  -24.1270  -13.1600   20.8660 C   0  0  0  0  0  0  0  0  0  0  0  0
  -24.5820  -11.8050   20.8470 C   0  0  0  0  0  0  0  0  0  0  0  0
  -26.2460  -13.0370   20.2890 N   0  0  0  0  0  0  0  0  0  0  0  0
  -25.8740  -11.7580   20.5530 N   0  0  0  0  0  0  0  0  0  0  0  0
  -23.8460  -10.5490   21.0360 C   0  0  0  0  0  0  0  0  0  0  0  0
  -24.2700   -9.5810   21.9720 C   0  0  0  0  0  3  0  0  0  0  0  0
  -23.5360   -8.3890   22.1510 C   0  0  0  0  0  3  0  0  0  0  0  0
  -22.3650   -8.1550   21.3910 C   0  0  0  0  0  0  0  0  0  0  0  0
  -21.9600   -9.1130   20.4440 C   0  0  0  0  0  3  0  0  0  0  0  0
  -22.6940  -10.2970   20.2650 C   0  0  0  0  0  3  0  0  0  0  0  0
  -21.6030   -7.0160   21.4790 O   0  0  0  0  0  0  0  0  0  0  0  0
  -21.5480   -6.2730   22.6310 C   0  0  0  0  0  0  0  0  0  0  0  0
  -21.1330   -6.8330   23.8600 C   0  0  0  0  0  3  0  0  0  0  0  0
  -21.0240   -6.0160   25.0030 C   0  0  0  0  0  3  0  0  0  0  0  0
  -21.3190   -4.6430   24.9200 C   0  0  0  0  0  0  0  0  0  0  0  0
  -21.7270   -4.0820   23.6970 C   0  0  0  0  0  3  0  0  0  0  0  0
  -21.8360   -4.8950   22.5550 C   0  0  0  0  0  0  0  0  0  0  0  0
  -22.2090   -4.3460   21.3730 F   0  0  0  0  0  0  0  0  0  0  0  0
  -21.2060   -3.8580   26.0180 F   0  0  0  0  0  0  0  0  0  0  0  0
  -22.7300  -13.6460   21.1270 C   0  0  0  0  0  0  0  0  0  0  0  0
  -21.9910  -12.9540   21.9880 N   0  0  0  0  0  0  0  0  0  0  0  0
  -22.3030  -14.6740   20.6060 O   0  0  0  0  0  0  0  0  0  0  0  0
  -22.3490  -12.1190   22.4290 H   0  0  0  0  0  0  0  0  0  0  0  0
  -21.0530  -13.2600   22.2060 H   0  0  0  0  0  0  0  0  0  0  0  0
  -25.3690  -15.2930   20.3110 N   0  0  0  0  0  0  0  0  0  0  0  0
  -24.5850  -15.9350   20.3720 H   0  0  0  0  0  0  0  0  0  0  0  0
  -26.2090  -15.7290   19.9540 H   0  0  0  0  0  0  0  0  0  0  0  0
  -29.4860  -20.4930   21.1710 C   0  0  0  0  0  2  0  0  0  0  0  0
  -28.4830  -21.6400   20.7800 C   0  0  0  0  0  2  0  0  0  0  0  0
  -29.0410  -22.9450   20.1270 C   0  0  0  0  0  2  0  0  0  0  0  0
  -28.2700  -24.2650   20.4690 C   0  0  0  0  0  2  0  0  0  0  0  0
  -28.6920  -25.4950   19.6100 C   0  0  0  0  0  2  0  0  0  0  0  0
  -28.5160  -26.7840   20.2300 O   0  0  0  0  0  0  0  0  0  0  0  0
  -24.6320  -31.9390   23.2290 C   0  0  0  0  0  0  0  0  0  0  0  0
  -27.3140  -27.4720   20.1870 C   0  0  0  0  0  0  0  0  0  0  0  0
  -23.4380  -30.5200   21.5900 C   0  0  0  0  0  3  0  0  0  0  0  0
  -24.9050  -28.9750   20.1800 C   0  0  0  0  0  0  0  0  0  0  0  0
  -25.9640  -30.8830   21.4020 C   0  0  0  0  0  2  0  0  0  0  0  0
  -26.0570  -29.5080   20.7700 C   0  0  0  0  0  0  0  0  0  0  0  0
  -27.2580  -28.7620   20.7710 C   0  0  0  0  0  3  0  0  0  0  0  0
  -26.1400  -26.9530   19.5960 C   0  0  0  0  0  3  0  0  0  0  0  0
  -24.9420  -27.6970   19.5920 C   0  0  0  0  0  3  0  0  0  0  0  0
  -23.6580  -29.8310   20.2150 C   0  0  0  0  0  2  0  0  0  0  0  0
  -24.6960  -31.1300   22.1310 N   0  0  0  0  0  0  0  0  0  0  0  0
  -23.5480  -32.2090   23.7640 O   0  0  0  0  0  0  0  0  0  0  0  0
  -22.7880  -29.5030   22.5560 C   0  0  0  0  0  0  0  0  0  0  0  0
  -21.4660  -29.3130   22.4260 N   0  0  0  0  0  0  0  0  0  0  0  0
  -23.4730  -28.8880   23.3780 O   0  0  0  0  0  0  0  0  0  0  0  0
  -20.9740  -29.8660   21.7380 H   0  0  0  0  0  0  0  0  0  0  0  0
  -18.0970  -28.1020   22.9240 C   0  0  0  0  0  0  0  0  0  0  0  0
  -20.6520  -28.3750   23.2000 C   0  0  0  0  0  3  0  0  0  0  0  0
  -20.7640  -26.9400   22.6330 C   0  0  0  0  0  2  0  0  0  0  0  0
  -19.6670  -26.6070   21.6170 C   0  0  0  0  0  2  0  0  0  0  0  0
  -18.2820  -26.7500   22.2560 C   0  0  0  0  0  2  0  0  0  0  0  0
  -19.2110  -28.8730   23.3530 C   0  0  0  0  0  0  0  0  0  0  0  0
  -18.9840  -30.1390   23.9350 C   0  0  0  0  0  3  0  0  0  0  0  0
  -17.6770  -30.6350   24.0920 C   0  0  0  0  0  3  0  0  0  0  0  0
  -16.5780  -29.8630   23.6780 C   0  0  0  0  0  3  0  0  0  0  0  0
  -16.7890  -28.5980   23.1000 C   0  0  0  0  0  3  0  0  0  0  0  0
  -25.9140  -32.5790   23.8480 C   0  0  0  0  0  3  0  0  0  0  0  0
  -26.4430  -31.8100   25.1200 C   0  0  1  0  0  0  0  0  0  0  0  0
  -25.3550  -31.5560   26.1900 C   0  0  0  0  0  1  0  0  0  0  0  0
  -27.0400  -30.4420   24.7210 C   0  0  0  0  0  1  0  0  0  0  0  0
  -27.5850  -32.6150   25.7840 C   0  0  0  0  0  1  0  0  0  0  0  0
  -25.5940  -33.9740   24.1810 N   0  0  0  0  0  0  0  0  0  0  0  0
  -25.9190  -35.0310   23.4240 C   0  0  0  0  0  0  0  0  0  0  0  0
  -26.5930  -34.9350   22.3940 O   0  0  0  0  0  0  0  0  0  0  0  0
  -24.9940  -34.1230   24.9790 H   0  0  0  0  0  0  0  0  0  0  0  0
  -24.1780  -36.8090   23.0710 C   0  0  0  0  0  1  0  0  0  0  0  0
  -25.4210  -36.4140   23.8840 C   0  0  0  0  0  3  0  0  0  0  0  0
  -27.5470  -37.3120   24.7220 C   0  0  0  0  0  1  0  0  0  0  0  0
  -26.4460  -37.4750   23.7770 N   0  0  0  0  0  0  0  0  0  0  0  0
  -26.0330  -38.3920   23.9250 H   0  0  0  0  0  0  0  0  0  0  0  0
  1  2  1  0
  3  5  1  0
  3  4  1  0
  4  7  1  0
  5  9  1  0
  5  1  1  0
  6 13  1  0
  6  2  1  0
  7  6  1  0
  7 52  1  0
  7  8  1  6
  9 11  1  0
 10  9  1  0
 12  9  1  0
 13 22  1  0
 14 22  1  0
 15 20  1  0
 16 17  1  0
 16 15  1  0
 18 17  1  0
 18 27  1  0
 18 19  1  0
 20 14  1  0
 20 19  1  0
 21 14  2  0
 22 23  1  0
 24 25  2  0
 25 44  1  0
 26 25  1  0
 26 29  1  0
 27 24  1  0
 27 28  1  0
 28 26  2  0
 29 30  1  0
 30 31  2  0
 32 35  1  0
 32 31  1  0
 33 32  2  0
 34 33  1  0
 34 29  2  0
 35 36  1  0
 36 37  1  0
 37 38  2  0
 39 38  1  0
 39 43  1  0
 40 39  2  0
 41 36  2  0
 41 40  1  0
 42 41  1  0
 44 45  1  0
 45 48  1  0
 45 47  1  0
 46 44  2  0
 49 50  1  0
 49 24  1  0
 51 49  1  0
 53 52  1  0
 54 55  1  0
 54 53  1  0
 56 57  1  0
 56 55  1  0
 58 69  2  0
 59 57  1  0
 59 64  1  0
 60 68  1  0
 60 70  1  0
 61 67  1  0
 61 63  1  0
 62 68  1  0
 63 64  2  0
 63 62  1  0
 65 59  2  0
 66 65  1  0
 66 61  2  0
 67 60  1  0
 68 58  1  0
 70 72  2  0
 71 70  1  0
 73 71  1  0
 74 83  2  0
 74 79  1  0
 75 71  1  0
 75 79  1  0
 76 75  1  0
 77 78  1  0
 77 76  1  0
 78 74  1  0
 79 80  2  0
 80 81  1  0
 82 81  2  0
 83 82  1  0
 84 58  1  0
 84 89  1  0
 84 85  1  0
 85 88  1  1
 85 86  1  0
 87 85  1  0
 89 92  1  0
 90 94  1  0
 90 89  1  0
 91 90  2  0
 94 93  1  0
 96 94  1  0
 96 97  1  0
 96 95  1  0
M  ISO  4  14 100  22 100  56 101  57 101
M  END
>  <TORSDO>  (46) 
F 23

>  <SCORE>  (46) 
-13.154

>  <name>  (46) 
45

>  <ligand_id>  (46) 
45

>  <original_smiles>  (46) 
[H]c1c([H])c([H])c2c(c1[H])C([H])([H])C([H])([H])C([H])([H])C2([H])N([H])C(=O)C1([H])N(C(=O)C([H])(N([H])C(=O)C([H])(N([H])C([H])([H])[H])C([H])([H])[H])C(C([H])([H])[H])(C([H])([H])[H])C([H])([H])[H])C([H])([H])c2c([H])c(OC([H])([H])C([H])([H])C([H])([H])C([H])([H])C([H])([H])[N+]3([H])C([H])([H])C([H])([H])C([H])([N+]([H])([H])[H])C([H])([H])C([H])([H])C3([H])C([H])([H])N([H])C(=O)N3C([H])([H])C([H])([H])C([H])([H])C([H])(n4nc(-c5c([H])c([H])c(Oc6c([H])c([H])c(F)c([H])c6F)c([H])c5[H])c(C(=O)N([H])[H])c4N([H])[H])C3([H])[H])c([H])c([H])c2C1([H])[H]

>  <smiles>  (46) 
[H]c1c([H])c([H])c2c(c1[H])C([H])([H])C([H])([H])C([H])([H])C2([H])N([H])C(=O)C1([H])N(C(=O)C([H])(N([H])C(=O)C([H])(N([H])C([H])([H])[H])C([H])([H])[H])C(C([H])([H])[H])(C([H])([H])[H])C([H])([H])[H])C([H])([H])c2c([H])c(OC([H])([H])C([H])([H])C([H])([H])C([H])([H])C([H])([H])[N+]3([H])C([H])([H])C([H])([H])C([H])([N+]([H])([H])[H])C([H])([H])C([H])([H])C3([H])C([H])([H])N([H])C(=O)N3C([H])([H])C([H])([H])C([H])([H])C([H])(n4nc(-c5c([H])c([H])c(Oc6c([H])c([H])c(F)c([H])c6F)c([H])c5[H])c(C(=O)N([H])[H])c4N([H])[H])C3([H])[H])c([H])c([H])c2C1([H])[H]

$$$$
46:0:0
     RDKit          3D

 92100  0  0  1  0  0  0  0  0999 V2000
  -29.3250  -22.1050   20.7750 C   0  0  0  0  0  2  0  0  0  0  0  0
  -28.8920  -23.3570   21.3870 N   0  0  0  0  0  0  0  0  0  0  0  0
  -29.5630  -23.6340   22.1000 H   0  0  0  0  0  0  0  0  0  0  0  0
  -28.7820  -24.4300   20.4040 C   0  0  0  0  0  2  0  0  0  0  0  0
  -28.4600  -25.7480   21.1280 C   0  0  0  0  0  2  0  0  0  0  0  0
  -28.4370  -26.8290   20.2020 O   0  0  0  0  0  0  0  0  0  0  0  0
  -24.6010  -31.9640   23.2720 C   0  0  0  0  0  0  0  0  0  0  0  0
  -27.2670  -27.5410   20.2200 C   0  0  0  0  0  0  0  0  0  0  0  0
  -23.3970  -30.5400   21.6440 C   0  0  0  0  0  3  0  0  0  0  0  0
  -24.8570  -28.9980   20.2330 C   0  0  0  0  0  0  0  0  0  0  0  0
  -25.9160  -30.9220   21.4330 C   0  0  0  0  0  2  0  0  0  0  0  0
  -26.0100  -29.5470   20.8090 C   0  0  0  0  0  0  0  0  0  0  0  0
  -27.2220  -28.8250   20.7990 C   0  0  0  0  0  3  0  0  0  0  0  0
  -26.1030  -26.9910   19.6480 C   0  0  0  0  0  3  0  0  0  0  0  0
  -24.8950  -27.7160   19.6530 C   0  0  0  0  0  3  0  0  0  0  0  0
  -23.6040  -29.8440   20.2730 C   0  0  0  0  0  2  0  0  0  0  0  0
  -24.6560  -31.1570   22.1750 N   0  0  0  0  0  0  0  0  0  0  0  0
  -23.5200  -32.2340   23.8140 O   0  0  0  0  0  0  0  0  0  0  0  0
  -22.7540  -29.5250   22.6160 C   0  0  0  0  0  0  0  0  0  0  0  0
  -21.4360  -29.3140   22.4720 N   0  0  0  0  0  0  0  0  0  0  0  0
  -23.4380  -28.9290   23.4520 O   0  0  0  0  0  0  0  0  0  0  0  0
  -20.9460  -29.8470   21.7660 H   0  0  0  0  0  0  0  0  0  0  0  0
  -18.0870  -28.0350   22.9070 C   0  0  0  0  0  0  0  0  0  0  0  0
  -20.6250  -28.3760   23.2460 C   0  0  0  0  0  3  0  0  0  0  0  0
  -20.7880  -26.9320   22.7160 C   0  0  0  0  0  2  0  0  0  0  0  0
  -19.7270  -26.5470   21.6810 C   0  0  0  0  0  2  0  0  0  0  0  0
  -18.3220  -26.6710   22.2800 C   0  0  0  0  0  2  0  0  0  0  0  0
  -19.1700  -28.8420   23.3460 C   0  0  0  0  0  0  0  0  0  0  0  0
  -18.8980  -30.1160   23.8890 C   0  0  0  0  0  3  0  0  0  0  0  0
  -17.5750  -30.5850   24.0000 C   0  0  0  0  0  3  0  0  0  0  0  0
  -16.5060  -29.7750   23.5790 C   0  0  0  0  0  3  0  0  0  0  0  0
  -16.7620  -28.5020   23.0380 C   0  0  0  0  0  3  0  0  0  0  0  0
  -25.8860  -32.6050   23.8840 C   0  0  0  0  0  3  0  0  0  0  0  0
  -26.4120  -31.8460   25.1650 C   0  0  1  0  0  0  0  0  0  0  0  0
  -25.3200  -31.5970   26.2300 C   0  0  0  0  0  1  0  0  0  0  0  0
  -27.0160  -30.4770   24.7770 C   0  0  0  0  0  1  0  0  0  0  0  0
  -27.5480  -32.6610   25.8260 C   0  0  0  0  0  1  0  0  0  0  0  0
  -25.5760  -34.0050   24.1980 N   0  0  0  0  0  0  0  0  0  0  0  0
  -25.9110  -35.0490   23.4280 C   0  0  0  0  0  0  0  0  0  0  0  0
  -26.5860  -34.9340   22.4000 O   0  0  0  0  0  0  0  0  0  0  0  0
  -24.9770  -34.1680   24.9940 H   0  0  0  0  0  0  0  0  0  0  0  0
  -24.1840  -36.8350   23.0390 C   0  0  0  0  0  1  0  0  0  0  0  0
  -25.4190  -36.4420   23.8650 C   0  0  0  0  0  3  0  0  0  0  0  0
  -27.5510  -37.3310   24.6990 C   0  0  0  0  0  1  0  0  0  0  0  0
  -26.4530  -37.4930   23.7500 N   0  0  0  0  0  0  0  0  0  0  0  0
  -26.0460  -38.4140   23.8910 H   0  0  0  0  0  0  0  0  0  0  0  0
  -29.4290  -21.0120   21.8590 C   0  0  0  0  0  2  0  0  0  0  0  0
  -30.1230  -19.7960   21.3840 N   0  0  0  0  0  4  0  0  0  0  0  0
  -29.6550  -19.4600   20.5580 H   0  0  0  0  0  0  0  0  0  0  0  0
  -31.0660  -20.0440   21.1310 H   0  0  0  0  0  0  0  0  0  0  0  0
  -30.1610  -18.7170   22.3960 C   0  0  0  0  0  2  0  0  0  0  0  0
  -30.9610  -14.5210   19.8430 C   0  0  0  0  0  0  0  0  0  0  0  0
  -30.4370  -12.5260   18.4850 C   0  0  0  0  0  2  0  0  0  0  0  0
  -29.3460  -12.8440   17.4440 C   0  0  0  0  0  2  0  0  0  0  0  0
  -27.9410  -12.6720   18.0530 C   0  0  0  0  0  2  0  0  0  0  0  0
  -27.7890  -13.4010   19.4140 C   0  0  0  0  0  3  0  0  0  0  0  0
  -28.9680  -13.0570   20.3480 C   0  0  0  0  0  2  0  0  0  0  0  0
  -30.2260  -13.3920   19.6530 N   0  0  0  0  0  0  0  0  0  0  0  0
  -31.8740  -14.8720   19.0870 O   0  0  0  0  0  0  0  0  0  0  0  0
  -30.9560  -16.3580   22.9910 C   0  0  0  0  0  2  0  0  0  0  0  0
  -31.1540  -15.0600   22.2070 C   0  0  0  0  0  2  0  0  0  0  0  0
  -30.2650  -16.7150   20.7270 C   0  0  0  0  0  2  0  0  0  0  0  0
  -30.8990  -17.4450   21.9210 C   0  0  0  0  0  3  0  0  0  0  0  0
  -30.5760  -15.2900   20.8820 N   0  0  0  0  0  0  0  0  0  0  0  0
  -25.5140  -13.9660   20.4860 C   0  0  0  0  0  0  0  0  0  0  0  0
  -24.4860  -13.1720   20.9200 C   0  0  0  0  0  0  0  0  0  0  0  0
  -24.9070  -11.8250   20.6980 C   0  0  0  0  0  0  0  0  0  0  0  0
  -26.5000  -13.1000   20.0380 N   0  0  0  0  0  0  0  0  0  0  0  0
  -26.1430  -11.8030   20.2160 N   0  0  0  0  0  0  0  0  0  0  0  0
  -24.1850  -10.5570   20.8640 C   0  0  0  0  0  0  0  0  0  0  0  0
  -24.6970   -9.5160   21.6700 C   0  0  0  0  0  3  0  0  0  0  0  0
  -23.9750   -8.3140   21.8290 C   0  0  0  0  0  3  0  0  0  0  0  0
  -22.7290   -8.1430   21.1800 C   0  0  0  0  0  0  0  0  0  0  0  0
  -22.2360   -9.1730   20.3610 C   0  0  0  0  0  3  0  0  0  0  0  0
  -22.9570  -10.3680   20.2000 C   0  0  0  0  0  3  0  0  0  0  0  0
  -21.9720   -6.9980   21.2550 O   0  0  0  0  0  0  0  0  0  0  0  0
  -21.9940   -6.1910   22.3640 C   0  0  0  0  0  0  0  0  0  0  0  0
  -21.6860   -6.6830   23.6500 C   0  0  0  0  0  3  0  0  0  0  0  0
  -21.6530   -5.8050   24.7510 C   0  0  0  0  0  3  0  0  0  0  0  0
  -21.9190   -4.4350   24.5680 C   0  0  0  0  0  0  0  0  0  0  0  0
  -22.2210   -3.9410   23.2860 C   0  0  0  0  0  3  0  0  0  0  0  0
  -22.2560   -4.8180   22.1870 C   0  0  0  0  0  0  0  0  0  0  0  0
  -22.5270   -4.3330   20.9510 F   0  0  0  0  0  0  0  0  0  0  0  0
  -21.8800   -3.5890   25.6230 F   0  0  0  0  0  0  0  0  0  0  0  0
  -23.1490  -13.6340   21.4250 C   0  0  0  0  0  0  0  0  0  0  0  0
  -22.5420  -12.8750   22.3310 N   0  0  0  0  0  0  0  0  0  0  0  0
  -22.6560  -14.6980   21.0510 O   0  0  0  0  0  0  0  0  0  0  0  0
  -22.9550  -12.0110   22.6500 H   0  0  0  0  0  0  0  0  0  0  0  0
  -21.6500  -13.1610   22.7100 H   0  0  0  0  0  0  0  0  0  0  0  0
  -25.6860  -15.3450   20.4170 N   0  0  0  0  0  0  0  0  0  0  0  0
  -24.9630  -16.0000   20.6920 H   0  0  0  0  0  0  0  0  0  0  0  0
  -26.5020  -15.7980   20.0240 H   0  0  0  0  0  0  0  0  0  0  0  0
  1  2  1  0
  1 47  1  0
  2  3  1  0
  4  5  1  0
  4  2  1  0
  6  8  1  0
  6  5  1  0
  7 18  2  0
  8 13  1  0
  9 17  1  0
  9 19  1  0
 10 16  1  0
 10 12  1  0
 11 17  1  0
 12 11  1  0
 13 12  2  0
 14 15  1  0
 14  8  2  0
 15 10  2  0
 16  9  1  0
 17  7  1  0
 19 21  2  0
 20 19  1  0
 22 20  1  0
 23 32  2  0
 23 28  1  0
 24 20  1  0
 24 28  1  0
 25 24  1  0
 26 27  1  0
 26 25  1  0
 27 23  1  0
 28 29  2  0
 29 30  1  0
 31 30  2  0
 32 31  1  0
 33  7  1  0
 33 38  1  0
 33 34  1  0
 34 37  1  1
 34 35  1  0
 36 34  1  0
 38 41  1  0
 39 43  1  0
 39 38  1  0
 40 39  2  0
 43 42  1  0
 45 43  1  0
 45 46  1  0
 45 44  1  0
 48 47  1  0
 48 51  1  0
 49 48  1  0
 50 48  1  0
 52 64  1  0
 53 58  1  0
 54 55  1  0
 54 53  1  0
 56 55  1  0
 56 68  1  0
 56 57  1  0
 58 52  1  0
 58 57  1  0
 59 52  2  0
 61 60  1  0
 62 64  1  0
 62 63  1  0
 63 51  1  0
 63 60  1  0
 64 61  1  0
 65 66  2  0
 66 85  1  0
 67 70  1  0
 67 66  1  0
 68 69  1  0
 68 65  1  0
 69 67  2  0
 70 71  1  0
 71 72  2  0
 73 76  1  0
 73 72  1  0
 74 73  2  0
 75 74  1  0
 75 70  2  0
 76 77  1  0
 77 78  1  0
 78 79  2  0
 80 79  1  0
 80 84  1  0
 81 80  2  0
 82 77  2  0
 82 81  1  0
 83 82  1  0
 85 86  1  0
 86 88  1  0
 86 89  1  0
 87 85  2  0
 90 65  1  0
 90 91  1  0
 92 90  1  0
M  ISO  4   5 101   6 101  52 100  64 100
M  END
>  <TORSDO>  (47) 
F 22

>  <SCORE>  (47) 
-10.231

>  <name>  (47) 
46

>  <ligand_id>  (47) 
46

>  <original_smiles>  (47) 
[H]c1c([H])c([H])c2c(c1[H])C([H])([H])C([H])([H])C([H])([H])C2([H])N([H])C(=O)C1([H])N(C(=O)C([H])(N([H])C(=O)C([H])(N([H])C([H])([H])[H])C([H])([H])[H])C(C([H])([H])[H])(C([H])([H])[H])C([H])([H])[H])C([H])([H])c2c([H])c(OC([H])([H])C([H])([H])N([H])C([H])([H])C([H])([H])[N+]([H])([H])C([H])([H])C3([H])C([H])([H])N(C(=O)N4C([H])([H])C([H])([H])C([H])([H])C([H])(n5nc(-c6c([H])c([H])c(Oc7c([H])c([H])c(F)c([H])c7F)c([H])c6[H])c(C(=O)N([H])[H])c5N([H])[H])C4([H])[H])C([H])([H])C3([H])[H])c([H])c([H])c2C1([H])[H]

>  <smiles>  (47) 
[H]c1c([H])c([H])c2c(c1[H])C([H])([H])C([H])([H])C([H])([H])C2([H])N([H])C(=O)C1([H])N(C(=O)C([H])(N([H])C(=O)C([H])(N([H])C([H])([H])[H])C([H])([H])[H])C(C([H])([H])[H])(C([H])([H])[H])C([H])([H])[H])C([H])([H])c2c([H])c(OC([H])([H])C([H])([H])N([H])C([H])([H])C([H])([H])[N+]([H])([H])C([H])([H])C3([H])C([H])([H])N(C(=O)N4C([H])([H])C([H])([H])C([H])([H])C([H])(n5nc(-c6c([H])c([H])c(Oc7c([H])c([H])c(F)c([H])c7F)c([H])c6[H])c(C(=O)N([H])[H])c5N([H])[H])C4([H])[H])C([H])([H])C3([H])[H])c([H])c([H])c2C1([H])[H]

$$$$
48:0:0
     RDKit          3D

 97105  0  0  1  0  0  0  0  0999 V2000
  -25.5470  -21.9190   19.8660 C   0  0  0  0  0  2  0  0  0  0  0  0
  -26.9680  -21.3520   19.6560 C   0  0  0  0  0  2  0  0  0  0  0  0
  -28.3590  -19.6850   20.7710 C   0  0  0  0  0  2  0  0  0  0  0  0
  -26.8710  -18.9610   19.0190 C   0  0  0  0  0  2  0  0  0  0  0  0
  -29.5490  -19.6260   19.7830 C   0  0  0  0  0  2  0  0  0  0  0  0
  -28.0650  -18.8360   18.0310 C   0  0  0  0  0  2  0  0  0  0  0  0
  -27.0850  -19.9550   20.0870 N   0  0  0  0  0  0  0  0  0  0  0  0
  -29.3450  -18.5900   18.7400 N   0  0  2  0  0  4  0  0  0  0  0  0
  -30.0860  -18.7370   18.0720 H   0  0  0  0  0  0  0  0  0  0  0  0
  -29.5220  -17.1960   19.2270 C   0  0  0  0  0  2  0  0  0  0  0  0
  -30.8500  -16.5500   18.7710 C   0  0  0  0  0  2  0  0  0  0  0  0
  -31.5130  -14.1450   18.9350 C   0  0  0  0  0  0  0  0  0  0  0  0
  -31.2390  -11.6940   18.8390 C   0  0  0  0  0  2  0  0  0  0  0  0
  -30.1440  -11.3380   17.8130 C   0  0  0  0  0  2  0  0  0  0  0  0
  -28.7460  -11.3910   18.4630 C   0  0  0  0  0  2  0  0  0  0  0  0
  -28.5020  -12.6990   19.2590 C   0  0  0  0  0  3  0  0  0  0  0  0
  -29.6910  -12.9670   20.2110 C   0  0  0  0  0  2  0  0  0  0  0  0
  -30.9310  -13.0120   19.4070 N   0  0  0  0  0  0  0  0  0  0  0  0
  -32.4060  -14.1690   18.0850 O   0  0  0  0  0  0  0  0  0  0  0  0
  -30.9720  -15.2580   19.4330 N   0  0  0  0  0  0  0  0  0  0  0  0
  -30.3690  -15.0980   20.2250 H   0  0  0  0  0  0  0  0  0  0  0  0
  -26.4790  -13.6910   20.5200 C   0  0  0  0  0  0  0  0  0  0  0  0
  -25.3460  -13.1140   21.0240 C   0  0  0  0  0  0  0  0  0  0  0  0
  -25.4500  -11.7200   20.7340 C   0  0  0  0  0  0  0  0  0  0  0  0
  -27.2260  -12.6560   19.9750 N   0  0  0  0  0  0  0  0  0  0  0  0
  -26.6120  -11.4580   20.1490 N   0  0  0  0  0  0  0  0  0  0  0  0
  -24.4890  -10.6270   20.9250 C   0  0  0  0  0  0  0  0  0  0  0  0
  -24.7960   -9.5070   21.7310 C   0  0  0  0  0  3  0  0  0  0  0  0
  -23.8510   -8.4740   21.9120 C   0  0  0  0  0  3  0  0  0  0  0  0
  -22.5820   -8.5580   21.2900 C   0  0  0  0  0  0  0  0  0  0  0  0
  -22.2900   -9.6640   20.4730 C   0  0  0  0  0  3  0  0  0  0  0  0
  -23.2340  -10.6860   20.2890 C   0  0  0  0  0  3  0  0  0  0  0  0
  -21.6080   -7.5950   21.3890 O   0  0  0  0  0  0  0  0  0  0  0  0
  -21.4610   -6.8380   22.5230 C   0  0  0  0  0  0  0  0  0  0  0  0
  -21.1700   -7.4210   23.7770 C   0  0  0  0  0  3  0  0  0  0  0  0
  -20.9570   -6.5990   24.9020 C   0  0  0  0  0  3  0  0  0  0  0  0
  -21.0280   -5.1990   24.7750 C   0  0  0  0  0  0  0  0  0  0  0  0
  -21.3140   -4.6180   23.5280 C   0  0  0  0  0  3  0  0  0  0  0  0
  -21.5270   -5.4360   22.4050 C   0  0  0  0  0  0  0  0  0  0  0  0
  -21.7810   -4.8700   21.2000 F   0  0  0  0  0  0  0  0  0  0  0  0
  -20.8140   -4.4110   25.8540 F   0  0  0  0  0  0  0  0  0  0  0  0
  -24.1780  -13.8250   21.6490 C   0  0  0  0  0  0  0  0  0  0  0  0
  -23.4850  -13.1710   22.5720 N   0  0  0  0  0  0  0  0  0  0  0  0
  -23.9020  -14.9870   21.3470 O   0  0  0  0  0  0  0  0  0  0  0  0
  -23.7200  -12.2220   22.8260 H   0  0  0  0  0  0  0  0  0  0  0  0
  -22.7070  -13.6220   23.0340 H   0  0  0  0  0  0  0  0  0  0  0  0
  -26.9300  -15.0080   20.4640 N   0  0  0  0  0  0  0  0  0  0  0  0
  -26.3380  -15.7750   20.7640 H   0  0  0  0  0  0  0  0  0  0  0  0
  -27.6810  -15.3040   19.8570 H   0  0  0  0  0  0  0  0  0  0  0  0
  -25.5070  -23.4640   19.8810 C   0  0  0  0  0  2  0  0  0  0  0  0
  -25.3850  -24.0630   18.5330 N   0  0  0  0  0  4  0  0  0  0  0  0
  -25.0150  -24.9930   18.6410 H   0  0  0  0  0  0  0  0  0  0  0  0
  -24.6860  -23.5350   18.0310 H   0  0  0  0  0  0  0  0  0  0  0  0
  -26.6240  -24.1170   17.7160 C   0  0  0  0  0  2  0  0  0  0  0  0
  -27.7390  -25.0160   18.3200 C   0  0  0  0  0  2  0  0  0  0  0  0
  -28.0150  -26.3030   17.4970 C   0  0  0  0  0  2  0  0  0  0  0  0
  -28.0160  -27.4940   18.2890 O   0  0  0  0  0  0  0  0  0  0  0  0
  -24.5200  -31.2300   23.1990 C   0  0  0  0  0  0  0  0  0  0  0  0
  -26.8130  -28.0780   18.6230 C   0  0  0  0  0  0  0  0  0  0  0  0
  -23.1240  -30.2590   21.4040 C   0  0  0  0  0  3  0  0  0  0  0  0
  -24.3860  -29.3110   19.4040 C   0  0  0  0  0  0  0  0  0  0  0  0
  -25.5730  -30.8490   20.9730 C   0  0  0  0  0  2  0  0  0  0  0  0
  -25.6010  -29.7300   19.9600 C   0  0  0  0  0  0  0  0  0  0  0  0
  -26.8120  -29.1150   19.5790 C   0  0  0  0  0  3  0  0  0  0  0  0
  -25.5760  -27.6820   18.0560 C   0  0  0  0  0  3  0  0  0  0  0  0
  -24.3690  -28.2800   18.4530 C   0  0  0  0  0  3  0  0  0  0  0  0
  -23.1340  -30.0150   19.8720 C   0  0  0  0  0  2  0  0  0  0  0  0
  -24.4310  -30.7810   21.9130 N   0  0  0  0  0  0  0  0  0  0  0  0
  -23.5250  -31.2580   23.9370 O   0  0  0  0  0  0  0  0  0  0  0  0
  -22.6630  -28.9620   22.1060 C   0  0  0  0  0  0  0  0  0  0  0  0
  -21.3760  -28.6190   21.9370 N   0  0  0  0  0  0  0  0  0  0  0  0
  -23.4560  -28.2760   22.7540 O   0  0  0  0  0  0  0  0  0  0  0  0
  -20.7900  -29.2330   21.3890 H   0  0  0  0  0  0  0  0  0  0  0  0
  -18.3080  -26.7120   21.9210 C   0  0  0  0  0  0  0  0  0  0  0  0
  -20.7320  -27.4200   22.4710 C   0  0  0  0  0  3  0  0  0  0  0  0
  -21.1720  -26.1600   21.6910 C   0  0  0  0  0  2  0  0  0  0  0  0
  -20.2260  -25.8030   20.5410 C   0  0  0  0  0  2  0  0  0  0  0  0
  -18.8090  -25.5600   21.0650 C   0  0  0  0  0  2  0  0  0  0  0  0
  -19.2110  -27.5950   22.5670 C   0  0  0  0  0  0  0  0  0  0  0  0
  -18.6970  -28.6740   23.3200 C   0  0  0  0  0  3  0  0  0  0  0  0
  -17.3090  -28.8740   23.4350 C   0  0  0  0  0  3  0  0  0  0  0  0
  -16.4180  -27.9870   22.8070 C   0  0  0  0  0  3  0  0  0  0  0  0
  -16.9180  -26.9070   22.0570 C   0  0  0  0  0  3  0  0  0  0  0  0
  -25.8660  -31.7500   23.7920 C   0  0  0  0  0  3  0  0  0  0  0  0
  -26.5020  -30.7710   24.8530 C   0  0  1  0  0  0  0  0  0  0  0  0
  -25.5240  -30.3490   25.9760 C   0  0  0  0  0  1  0  0  0  0  0  0
  -27.0160  -29.4830   24.1680 C   0  0  0  0  0  1  0  0  0  0  0  0
  -27.7320  -31.4410   25.5120 C   0  0  0  0  0  1  0  0  0  0  0  0
  -25.6010  -33.0640   24.3900 N   0  0  0  0  0  0  0  0  0  0  0  0
  -25.9210  -34.2370   23.8270 C   0  0  0  0  0  0  0  0  0  0  0  0
  -26.5480  -34.3200   22.7670 O   0  0  0  0  0  0  0  0  0  0  0  0
  -25.0440  -33.0710   25.2320 H   0  0  0  0  0  0  0  0  0  0  0  0
  -24.2500  -36.1180   23.8500 C   0  0  0  0  0  1  0  0  0  0  0  0
  -25.4790  -35.5220   24.5560 C   0  0  0  0  0  3  0  0  0  0  0  0
  -27.6410  -36.1550   25.5320 C   0  0  0  0  0  1  0  0  0  0  0  0
  -26.5460  -36.5430   24.6470 N   0  0  0  0  0  0  0  0  0  0  0  0
  -26.1730  -37.4290   24.9750 H   0  0  0  0  0  0  0  0  0  0  0  0
  1 50  1  0
  2  1  1  0
  2  7  1  0
  4  7  1  0
  5  3  1  0
  6  8  1  0
  6  4  1  0
  7  3  1  0
  8 10  1  0
  8  5  1  0
  8  9  1  6
 11 10  1  0
 11 20  1  0
 12 18  1  0
 12 20  1  0
 13 18  1  0
 14 15  1  0
 14 13  1  0
 16 15  1  0
 16 25  1  0
 16 17  1  0
 18 17  1  0
 19 12  2  0
 20 21  1  0
 22 23  2  0
 23 42  1  0
 24 27  1  0
 24 23  1  0
 25 26  1  0
 25 22  1  0
 26 24  2  0
 27 28  1  0
 28 29  2  0
 30 33  1  0
 30 29  1  0
 31 30  2  0
 32 31  1  0
 32 27  2  0
 33 34  1  0
 34 35  1  0
 35 36  2  0
 37 36  1  0
 37 41  1  0
 38 37  2  0
 39 34  2  0
 39 38  1  0
 40 39  1  0
 42 43  1  0
 43 45  1  0
 43 46  1  0
 44 42  2  0
 47 22  1  0
 47 48  1  0
 49 47  1  0
 51 52  1  0
 51 50  1  0
 53 51  1  0
 54 55  1  0
 54 51  1  0
 56 57  1  0
 56 55  1  0
 57 59  1  0
 58 69  2  0
 59 64  1  0
 60 68  1  0
 60 70  1  0
 61 67  1  0
 61 63  1  0
 62 68  1  0
 63 62  1  0
 64 63  2  0
 65 66  1  0
 65 59  2  0
 66 61  2  0
 67 60  1  0
 68 58  1  0
 70 72  2  0
 71 70  1  0
 73 71  1  0
 74 83  2  0
 74 79  1  0
 75 71  1  0
 75 79  1  0
 76 75  1  0
 77 78  1  0
 77 76  1  0
 78 74  1  0
 79 80  2  0
 80 81  1  0
 82 81  2  0
 83 82  1  0
 84 58  1  0
 84 89  1  0
 84 85  1  0
 85 88  1  1
 85 86  1  0
 87 85  1  0
 89 92  1  0
 90 89  1  0
 90 94  1  0
 91 90  2  0
 94 93  1  0
 94 96  1  0
 96 97  1  0
 96 95  1  0
M  ISO  4  12 100  20 100  56 101  57 101
M  END
>  <TORSDO>  (48) 
F 25

>  <SCORE>  (48) 
-7.093

>  <name>  (48) 
48

>  <ligand_id>  (48) 
48

>  <original_smiles>  (48) 
[H]c1c([H])c([H])c2c(c1[H])C([H])([H])C([H])([H])C([H])([H])C2([H])N([H])C(=O)C1([H])N(C(=O)C([H])(N([H])C(=O)C([H])(N([H])C([H])([H])[H])C([H])([H])[H])C(C([H])([H])[H])(C([H])([H])[H])C([H])([H])[H])C([H])([H])c2c([H])c(OC([H])([H])C([H])([H])C([H])([H])[N+]([H])([H])C([H])([H])C([H])([H])C([H])([H])N3C([H])([H])C([H])([H])[N+]([H])(C([H])([H])C([H])([H])N([H])C(=O)N4C([H])([H])C([H])([H])C([H])([H])C([H])(n5nc(-c6c([H])c([H])c(Oc7c([H])c([H])c(F)c([H])c7F)c([H])c6[H])c(C(=O)N([H])[H])c5N([H])[H])C4([H])[H])C([H])([H])C3([H])[H])c([H])c([H])c2C1([H])[H]

>  <smiles>  (48) 
[H]c1c([H])c([H])c2c(c1[H])C([H])([H])C([H])([H])C([H])([H])C2([H])N([H])C(=O)C1([H])N(C(=O)C([H])(N([H])C(=O)C([H])(N([H])C([H])([H])[H])C([H])([H])[H])C(C([H])([H])[H])(C([H])([H])[H])C([H])([H])[H])C([H])([H])c2c([H])c(OC([H])([H])C([H])([H])C([H])([H])[N+]([H])([H])C([H])([H])C([H])([H])C([H])([H])N3C([H])([H])C([H])([H])[N+]([H])(C([H])([H])C([H])([H])N([H])C(=O)N4C([H])([H])C([H])([H])C([H])([H])C([H])(n5nc(-c6c([H])c([H])c(Oc7c([H])c([H])c(F)c([H])c7F)c([H])c6[H])c(C(=O)N([H])[H])c5N([H])[H])C4([H])[H])C([H])([H])C3([H])[H])c([H])c([H])c2C1([H])[H]

$$$$
49:0:0
     RDKit          3D

 98106  0  0  1  0  0  0  0  0999 V2000
  -26.4900  -22.3760   20.6270 C   0  0  0  0  0  2  0  0  0  0  0  0
  -27.5030  -21.3000   21.0850 C   0  0  0  0  0  2  0  0  0  0  0  0
  -27.8640  -19.3610   17.6920 C   0  0  0  0  0  2  0  0  0  0  0  0
  -27.1430  -20.1410   18.7950 C   0  0  0  0  0  2  0  0  0  0  0  0
  -28.4230  -18.0530   18.2690 C   0  0  0  0  0  2  0  0  0  0  0  0
  -28.1240  -20.4490   19.9470 C   0  0  0  0  0  3  0  0  0  0  0  0
  -29.3290  -18.2780   19.5100 C   0  0  0  0  0  3  0  0  0  0  0  0
  -28.6810  -19.1830   20.4970 N   0  0  0  0  0  4  0  0  0  0  0  0
  -27.9400  -18.6830   20.9650 H   0  0  0  0  0  0  0  0  0  0  0  0
  -29.3710  -19.4150   21.1950 H   0  0  0  0  0  0  0  0  0  0  0  0
  -29.7230  -16.9370   20.1960 C   0  0  0  0  0  2  0  0  0  0  0  0
  -31.4070  -15.1050   19.6680 C   0  0  0  0  0  0  0  0  0  0  0  0
  -31.2240  -12.7400   19.0470 C   0  0  0  0  0  2  0  0  0  0  0  0
  -30.2870  -12.6350   17.8250 C   0  0  0  0  0  2  0  0  0  0  0  0
  -28.8120  -12.5500   18.2650 C   0  0  0  0  0  2  0  0  0  0  0  0
  -28.4290  -13.6180   19.3270 C   0  0  0  0  0  3  0  0  0  0  0  0
  -29.4830  -13.6650   20.4570 C   0  0  0  0  0  2  0  0  0  0  0  0
  -30.7840  -13.9070   19.8230 N   0  0  0  0  0  0  0  0  0  0  0  0
  -32.5790  -15.2010   19.3040 O   0  0  0  0  0  0  0  0  0  0  0  0
  -30.6140  -16.1450   19.3470 N   0  0  0  0  0  0  0  0  0  0  0  0
  -31.1190  -16.7470   18.7150 H   0  0  0  0  0  0  0  0  0  0  0  0
  -26.0760  -14.3240   20.0980 C   0  0  0  0  0  0  0  0  0  0  0  0
  -24.9930  -13.5980   20.5110 C   0  0  0  0  0  0  0  0  0  0  0  0
  -25.4080  -12.2320   20.4890 C   0  0  0  0  0  0  0  0  0  0  0  0
  -27.0830  -13.4040   19.8500 N   0  0  0  0  0  0  0  0  0  0  0  0
  -26.6840  -12.1410   20.1420 N   0  0  0  0  0  0  0  0  0  0  0  0
  -24.6460  -10.9990   20.7180 C   0  0  0  0  0  0  0  0  0  0  0  0
  -24.9720  -10.1140   21.7700 C   0  0  0  0  0  3  0  0  0  0  0  0
  -24.2110   -8.9470   21.9820 C   0  0  0  0  0  3  0  0  0  0  0  0
  -23.1090   -8.6520   21.1440 C   0  0  0  0  0  0  0  0  0  0  0  0
  -22.8020   -9.5240   20.0840 C   0  0  0  0  0  3  0  0  0  0  0  0
  -23.5640  -10.6860   19.8700 C   0  0  0  0  0  3  0  0  0  0  0  0
  -22.3310   -7.5260   21.2580 O   0  0  0  0  0  0  0  0  0  0  0  0
  -21.9800   -7.0170   22.4820 C   0  0  0  0  0  0  0  0  0  0  0  0
  -21.2640   -7.7810   23.4290 C   0  0  0  0  0  3  0  0  0  0  0  0
  -20.8600   -7.1970   24.6460 C   0  0  0  0  0  3  0  0  0  0  0  0
  -21.1650   -5.8490   24.9150 C   0  0  0  0  0  0  0  0  0  0  0  0
  -21.8730   -5.0850   23.9710 C   0  0  0  0  0  3  0  0  0  0  0  0
  -22.2760   -5.6670   22.7560 C   0  0  0  0  0  0  0  0  0  0  0  0
  -22.9410   -4.9210   21.8430 F   0  0  0  0  0  0  0  0  0  0  0  0
  -20.7710   -5.2850   26.0810 F   0  0  0  0  0  0  0  0  0  0  0  0
  -23.6230  -14.1290   20.8140 C   0  0  0  0  0  0  0  0  0  0  0  0
  -22.9160  -13.5060   21.7550 N   0  0  0  0  0  0  0  0  0  0  0  0
  -23.1880  -15.1330   20.2520 O   0  0  0  0  0  0  0  0  0  0  0  0
  -23.2780  -12.6970   22.2380 H   0  0  0  0  0  0  0  0  0  0  0  0
  -21.9990  -13.8490   22.0000 H   0  0  0  0  0  0  0  0  0  0  0  0
  -26.2760  -15.6840   19.8870 N   0  0  0  0  0  0  0  0  0  0  0  0
  -25.4730  -16.3030   19.8680 H   0  0  0  0  0  0  0  0  0  0  0  0
  -27.0280  -16.0040   19.2950 H   0  0  0  0  0  0  0  0  0  0  0  0
  -26.4980  -23.6470   21.5030 C   0  0  0  0  0  2  0  0  0  0  0  0
  -27.7540  -24.5230   21.3060 C   0  0  0  0  0  2  0  0  0  0  0  0
  -27.6730  -25.3220   20.0610 N   0  0  0  0  0  4  0  0  0  0  0  0
  -27.3270  -26.2380   20.3070 H   0  0  0  0  0  0  0  0  0  0  0  0
  -26.9920  -24.8970   19.4550 H   0  0  0  0  0  0  0  0  0  0  0  0
  -28.9540  -25.4630   19.3310 C   0  0  0  0  0  2  0  0  0  0  0  0
  -28.9720  -26.6830   18.3850 C   0  0  0  0  0  2  0  0  0  0  0  0
  -28.2230  -26.4650   17.0500 C   0  0  0  0  0  2  0  0  0  0  0  0
  -27.6190  -27.6780   16.5920 O   0  0  0  0  0  0  0  0  0  0  0  0
  -25.6160  -29.2960   23.1940 C   0  0  0  0  0  0  0  0  0  0  0  0
  -26.6110  -28.1460   17.3980 C   0  0  0  0  0  0  0  0  0  0  0  0
  -23.7980  -29.1980   21.5160 C   0  0  0  0  0  3  0  0  0  0  0  0
  -24.5470  -29.0690   19.0810 C   0  0  0  0  0  0  0  0  0  0  0  0
  -26.1800  -29.8170   20.8260 C   0  0  0  0  0  2  0  0  0  0  0  0
  -25.8860  -29.1950   19.4770 C   0  0  0  0  0  0  0  0  0  0  0  0
  -26.9230  -28.7490   18.6320 C   0  0  0  0  0  3  0  0  0  0  0  0
  -25.2620  -28.0300   17.0010 C   0  0  0  0  0  3  0  0  0  0  0  0
  -24.2270  -28.4870   17.8420 C   0  0  0  0  0  3  0  0  0  0  0  0
  -23.5030  -29.5870   20.0420 C   0  0  0  0  0  2  0  0  0  0  0  0
  -25.2350  -29.4080   21.8900 N   0  0  0  0  0  0  0  0  0  0  0  0
  -24.7850  -29.0680   24.0860 O   0  0  0  0  0  0  0  0  0  0  0  0
  -23.3090  -27.7500   21.7470 C   0  0  0  0  0  0  0  0  0  0  0  0
  -21.9960  -27.5280   21.5740 N   0  0  0  0  0  0  0  0  0  0  0  0
  -24.1040  -26.8550   22.0470 O   0  0  0  0  0  0  0  0  0  0  0  0
  -21.4140  -28.3150   21.3270 H   0  0  0  0  0  0  0  0  0  0  0  0
  -18.9050  -25.7880   20.9140 C   0  0  0  0  0  0  0  0  0  0  0  0
  -21.3200  -26.2390   21.7070 C   0  0  0  0  0  3  0  0  0  0  0  0
  -21.7580  -25.2560   20.6000 C   0  0  0  0  0  2  0  0  0  0  0  0
  -20.8480  -25.2860   19.3680 C   0  0  0  0  0  2  0  0  0  0  0  0
  -19.4070  -24.9380   19.7580 C   0  0  0  0  0  2  0  0  0  0  0  0
  -19.8040  -26.4110   21.8180 C   0  0  0  0  0  0  0  0  0  0  0  0
  -19.2850  -27.2140   22.8560 C   0  0  0  0  0  3  0  0  0  0  0  0
  -17.8970  -27.3980   22.9980 C   0  0  0  0  0  3  0  0  0  0  0  0
  -17.0090  -26.7690   22.1070 C   0  0  0  0  0  3  0  0  0  0  0  0
  -17.5130  -25.9620   21.0700 C   0  0  0  0  0  3  0  0  0  0  0  0
  -27.1050  -29.4690   23.6330 C   0  0  0  0  0  3  0  0  0  0  0  0
  -27.8040  -28.1030   24.0000 C   0  0  1  0  0  0  0  0  0  0  0  0
  -26.9980  -27.2480   25.0050 C   0  0  0  0  0  1  0  0  0  0  0  0
  -28.0340  -27.2530   22.7270 C   0  0  0  0  0  1  0  0  0  0  0  0
  -29.2000  -28.3730   24.6120 C   0  0  0  0  0  1  0  0  0  0  0  0
  -27.1220  -30.3890   24.7780 N   0  0  0  0  0  0  0  0  0  0  0  0
  -27.5720  -31.6500   24.7320 C   0  0  0  0  0  0  0  0  0  0  0  0
  -28.0880  -32.1400   23.7230 O   0  0  0  0  0  0  0  0  0  0  0  0
  -26.6680  -30.0720   25.6220 H   0  0  0  0  0  0  0  0  0  0  0  0
  -26.2810  -33.5130   25.8200 C   0  0  0  0  0  1  0  0  0  0  0  0
  -27.4260  -32.5050   26.0050 C   0  0  0  0  0  3  0  0  0  0  0  0
  -29.7300  -32.3320   26.8330 C   0  0  0  0  0  1  0  0  0  0  0  0
  -28.6650  -33.2200   26.3780 N   0  0  0  0  0  0  0  0  0  0  0  0
  -28.4830  -33.8980   27.1130 H   0  0  0  0  0  0  0  0  0  0  0  0
  1  2  1  0
  1 50  1  0
  3  5  1  0
  3  4  1  0
  4  6  1  0
  5  7  1  0
  6  8  1  0
  6  2  1  0
  7 11  1  0
  7  8  1  0
  8  9  1  0
  8 10  1  0
 12 18  1  0
 13 18  1  0
 14 15  1  0
 14 13  1  0
 16 15  1  0
 16 25  1  0
 16 17  1  0
 18 17  1  0
 19 12  2  0
 20 12  1  0
 20 11  1  0
 21 20  1  0
 22 23  2  0
 23 42  1  0
 24 23  1  0
 24 27  1  0
 25 22  1  0
 25 26  1  0
 26 24  2  0
 27 28  1  0
 28 29  2  0
 30 33  1  0
 30 29  1  0
 31 30  2  0
 32 31  1  0
 32 27  2  0
 33 34  1  0
 34 39  2  0
 34 35  1  0
 35 36  2  0
 36 37  1  0
 37 41  1  0
 38 37  2  0
 39 38  1  0
 40 39  1  0
 42 43  1  0
 43 46  1  0
 43 45  1  0
 44 42  2  0
 47 22  1  0
 48 47  1  0
 49 47  1  0
 51 50  1  0
 52 53  1  0
 52 51  1  0
 54 52  1  0
 55 52  1  0
 56 55  1  0
 57 56  1  0
 58 57  1  0
 58 60  1  0
 59 70  2  0
 60 65  1  0
 61 71  1  0
 61 69  1  0
 62 64  1  0
 62 68  1  0
 63 69  1  0
 64 63  1  0
 65 64  2  0
 66 60  2  0
 66 67  1  0
 67 62  2  0
 68 61  1  0
 69 59  1  0
 71 73  2  0
 72 71  1  0
 74 72  1  0
 75 84  2  0
 75 80  1  0
 76 72  1  0
 76 80  1  0
 77 76  1  0
 78 79  1  0
 78 77  1  0
 79 75  1  0
 80 81  2  0
 81 82  1  0
 83 82  2  0
 84 83  1  0
 85 59  1  0
 85 86  1  0
 85 90  1  0
 86 89  1  1
 86 87  1  0
 88 86  1  0
 90 93  1  0
 91 90  1  0
 91 95  1  0
 92 91  2  0
 95 94  1  0
 95 97  1  0
 97 96  1  0
 97 98  1  0
M  ISO  4  12 100  20 100  57 101  58 101
M  END
>  <TORSDO>  (49) 
F 25

>  <SCORE>  (49) 
-8.091

>  <name>  (49) 
49

>  <ligand_id>  (49) 
49

>  <original_smiles>  (49) 
[H]c1c([H])c([H])c2c(c1[H])C([H])([H])C([H])([H])C([H])([H])C2([H])N([H])C(=O)C1([H])N(C(=O)C([H])(N([H])C(=O)C([H])(N([H])C([H])([H])[H])C([H])([H])[H])C(C([H])([H])[H])(C([H])([H])[H])C([H])([H])[H])C([H])([H])c2c([H])c(OC([H])([H])C([H])([H])C([H])([H])[N+]([H])([H])C([H])([H])C([H])([H])C([H])([H])C([H])([H])C3([H])C([H])([H])C([H])([H])C([H])([H])C([H])(C([H])([H])N([H])C(=O)N4C([H])([H])C([H])([H])C([H])([H])C([H])(n5nc(-c6c([H])c([H])c(Oc7c([H])c([H])c(F)c([H])c7F)c([H])c6[H])c(C(=O)N([H])[H])c5N([H])[H])C4([H])[H])[N+]3([H])[H])c([H])c([H])c2C1([H])[H]

>  <smiles>  (49) 
[H]c1c([H])c([H])c2c(c1[H])C([H])([H])C([H])([H])C([H])([H])C2([H])N([H])C(=O)C1([H])N(C(=O)C([H])(N([H])C(=O)C([H])(N([H])C([H])([H])[H])C([H])([H])[H])C(C([H])([H])[H])(C([H])([H])[H])C([H])([H])[H])C([H])([H])c2c([H])c(OC([H])([H])C([H])([H])C([H])([H])[N+]([H])([H])C([H])([H])C([H])([H])C([H])([H])C([H])([H])C3([H])C([H])([H])C([H])([H])C([H])([H])C([H])(C([H])([H])N([H])C(=O)N4C([H])([H])C([H])([H])C([H])([H])C([H])(n5nc(-c6c([H])c([H])c(Oc7c([H])c([H])c(F)c([H])c7F)c([H])c6[H])c(C(=O)N([H])[H])c5N([H])[H])C4([H])[H])[N+]3([H])[H])c([H])c([H])c2C1([H])[H]

$$$$
50:0:0
     RDKit          3D

 94102  0  0  1  0  0  0  0  0999 V2000
  -29.9540  -22.7620   23.0450 C   0  0  0  0  0  2  0  0  0  0  0  0
  -30.0310  -21.4440   23.8390 C   0  0  0  0  0  2  0  0  0  0  0  0
  -30.4010  -20.2700   22.9160 C   0  0  0  0  0  2  0  0  0  0  0  0
  -30.4850  -18.8920   23.6080 C   0  0  0  0  0  2  0  0  0  0  0  0
  -31.0100  -14.5780   19.9790 C   0  0  0  0  0  0  0  0  0  0  0  0
  -30.4410  -12.5830   18.6490 C   0  0  0  0  0  2  0  0  0  0  0  0
  -29.4110  -12.9160   17.5530 C   0  0  0  0  0  2  0  0  0  0  0  0
  -27.9800  -12.7930   18.1050 C   0  0  0  0  0  2  0  0  0  0  0  0
  -27.7880  -13.5580   19.4400 C   0  0  0  0  0  3  0  0  0  0  0  0
  -28.9220  -13.2310   20.4390 C   0  0  0  0  0  2  0  0  0  0  0  0
  -30.2160  -13.4930   19.7840 N   0  0  0  0  0  0  0  0  0  0  0  0
  -32.0080  -14.8150   19.2900 O   0  0  0  0  0  0  0  0  0  0  0  0
  -29.9430  -16.6120   20.5890 C   0  0  0  0  0  2  0  0  0  0  0  0
  -31.7240  -15.6340   22.0120 C   0  0  0  0  0  2  0  0  0  0  0  0
  -29.5320  -17.5060   21.7690 C   0  0  0  0  0  2  0  0  0  0  0  0
  -31.2870  -16.5680   23.1580 C   0  0  0  0  0  2  0  0  0  0  0  0
  -30.6780  -15.4010   20.9970 N   0  0  0  0  0  0  0  0  0  0  0  0
  -30.7110  -17.8160   22.6080 N   0  0  2  0  0  4  0  0  0  0  0  0
  -31.4190  -18.1800   21.9900 H   0  0  0  0  0  0  0  0  0  0  0  0
  -25.4910  -14.2060   20.4060 C   0  0  0  0  0  0  0  0  0  0  0  0
  -24.4240  -13.4500   20.8120 C   0  0  0  0  0  0  0  0  0  0  0  0
  -24.8170  -12.0880   20.6370 C   0  0  0  0  0  0  0  0  0  0  0  0
  -26.4710  -13.3040   20.0170 N   0  0  0  0  0  0  0  0  0  0  0  0
  -26.0730  -12.0210   20.2110 N   0  0  0  0  0  0  0  0  0  0  0  0
  -24.0540  -10.8440   20.7960 C   0  0  0  0  0  0  0  0  0  0  0  0
  -24.5010   -9.8070   21.6430 C   0  0  0  0  0  3  0  0  0  0  0  0
  -23.7410   -8.6270   21.7930 C   0  0  0  0  0  3  0  0  0  0  0  0
  -22.5180   -8.4770   21.0960 C   0  0  0  0  0  0  0  0  0  0  0  0
  -22.0890   -9.5030   20.2360 C   0  0  0  0  0  3  0  0  0  0  0  0
  -22.8500  -10.6740   20.0830 C   0  0  0  0  0  3  0  0  0  0  0  0
  -21.7260   -7.3560   21.1610 O   0  0  0  0  0  0  0  0  0  0  0  0
  -21.6880   -6.5650   22.2810 C   0  0  0  0  0  0  0  0  0  0  0  0
  -21.3580   -7.0860   23.5510 C   0  0  0  0  0  3  0  0  0  0  0  0
  -21.2630   -6.2250   24.6630 C   0  0  0  0  0  3  0  0  0  0  0  0
  -21.4890   -4.8450   24.5050 C   0  0  0  0  0  0  0  0  0  0  0  0
  -21.8130   -4.3220   23.2410 C   0  0  0  0  0  3  0  0  0  0  0  0
  -21.9090   -5.1810   22.1310 C   0  0  0  0  0  0  0  0  0  0  0  0
  -22.2010   -4.6710   20.9100 F   0  0  0  0  0  0  0  0  0  0  0  0
  -21.3900   -4.0150   25.5710 F   0  0  0  0  0  0  0  0  0  0  0  0
  -23.0800  -13.9580   21.2450 C   0  0  0  0  0  0  0  0  0  0  0  0
  -22.4140  -13.2420   22.1450 N   0  0  0  0  0  0  0  0  0  0  0  0
  -22.6310  -15.0220   20.8200 O   0  0  0  0  0  0  0  0  0  0  0  0
  -22.7910  -12.3800   22.5080 H   0  0  0  0  0  0  0  0  0  0  0  0
  -21.5140  -13.5620   22.4740 H   0  0  0  0  0  0  0  0  0  0  0  0
  -25.7030  -15.5790   20.3160 N   0  0  0  0  0  0  0  0  0  0  0  0
  -24.9720  -16.2490   20.5250 H   0  0  0  0  0  0  0  0  0  0  0  0
  -26.5240  -16.0040   19.9050 H   0  0  0  0  0  0  0  0  0  0  0  0
  -29.5620  -23.9930   23.8880 C   0  0  0  0  0  2  0  0  0  0  0  0
  -29.7620  -25.2630   23.1530 N   0  0  0  0  0  4  0  0  0  0  0  0
  -30.7010  -25.2660   22.7850 H   0  0  0  0  0  0  0  0  0  0  0  0
  -29.7100  -26.0160   23.8230 H   0  0  0  0  0  0  0  0  0  0  0  0
  -28.7890  -25.5300   22.0630 C   0  0  0  0  0  2  0  0  0  0  0  0
  -29.2830  -26.6210   21.0960 C   0  0  0  0  0  2  0  0  0  0  0  0
  -28.4030  -26.6940   19.9730 O   0  0  0  0  0  0  0  0  0  0  0  0
  -24.6690  -31.8540   23.2200 C   0  0  0  0  0  0  0  0  0  0  0  0
  -27.2560  -27.4460   20.0840 C   0  0  0  0  0  0  0  0  0  0  0  0
  -23.4240  -30.4630   21.5930 C   0  0  0  0  0  3  0  0  0  0  0  0
  -24.8480  -28.9240   20.1410 C   0  0  0  0  0  0  0  0  0  0  0  0
  -25.9410  -30.8250   21.3450 C   0  0  0  0  0  2  0  0  0  0  0  0
  -26.0110  -29.4530   20.7130 C   0  0  0  0  0  0  0  0  0  0  0  0
  -27.2150  -28.7220   20.6900 C   0  0  0  0  0  3  0  0  0  0  0  0
  -26.0800  -26.9280   19.5010 C   0  0  0  0  0  3  0  0  0  0  0  0
  -24.8740  -27.6550   19.5350 C   0  0  0  0  0  3  0  0  0  0  0  0
  -23.6050  -29.7830   20.2080 C   0  0  0  0  0  2  0  0  0  0  0  0
  -24.6970  -31.0620   22.1110 N   0  0  0  0  0  0  0  0  0  0  0  0
  -23.6010  -32.1280   23.7840 O   0  0  0  0  0  0  0  0  0  0  0  0
  -22.7900  -29.4410   22.5630 C   0  0  0  0  0  0  0  0  0  0  0  0
  -21.4640  -29.2600   22.4530 N   0  0  0  0  0  0  0  0  0  0  0  0
  -23.4850  -28.8140   23.3660 O   0  0  0  0  0  0  0  0  0  0  0  0
  -20.9660  -29.8190   21.7750 H   0  0  0  0  0  0  0  0  0  0  0  0
  -18.0950  -28.0710   22.9820 C   0  0  0  0  0  0  0  0  0  0  0  0
  -20.6560  -28.3220   23.2310 C   0  0  0  0  0  3  0  0  0  0  0  0
  -20.7500  -26.8920   22.6500 C   0  0  0  0  0  2  0  0  0  0  0  0
  -19.6370  -26.5730   21.6480 C   0  0  0  0  0  2  0  0  0  0  0  0
  -18.2630  -26.7210   22.3060 C   0  0  0  0  0  2  0  0  0  0  0  0
  -19.2200  -28.8300   23.4020 C   0  0  0  0  0  0  0  0  0  0  0  0
  -19.0100  -30.0940   23.9930 C   0  0  0  0  0  3  0  0  0  0  0  0
  -17.7090  -30.5990   24.1700 C   0  0  0  0  0  3  0  0  0  0  0  0
  -16.5990  -29.8360   23.7690 C   0  0  0  0  0  3  0  0  0  0  0  0
  -16.7930  -28.5730   23.1800 C   0  0  0  0  0  3  0  0  0  0  0  0
  -25.9730  -32.4730   23.8170 C   0  0  0  0  0  3  0  0  0  0  0  0
  -26.5310  -31.6710   25.0560 C   0  0  1  0  0  0  0  0  0  0  0  0
  -25.4700  -31.3920   26.1440 C   0  0  0  0  0  1  0  0  0  0  0  0
  -27.1150  -30.3110   24.6040 C   0  0  0  0  0  1  0  0  0  0  0  0
  -27.6930  -32.4560   25.7090 C   0  0  0  0  0  1  0  0  0  0  0  0
  -25.6730  -33.8620   24.1870 N   0  0  0  0  0  0  0  0  0  0  0  0
  -25.9910  -34.9310   23.4450 C   0  0  0  0  0  0  0  0  0  0  0  0
  -26.6400  -34.8520   22.3990 O   0  0  0  0  0  0  0  0  0  0  0  0
  -25.0940  -33.9980   25.0030 H   0  0  0  0  0  0  0  0  0  0  0  0
  -24.2560  -36.7270   23.1640 C   0  0  0  0  0  1  0  0  0  0  0  0
  -25.5110  -36.3080   23.9430 C   0  0  0  0  0  3  0  0  0  0  0  0
  -27.6640  -37.1720   24.7490 C   0  0  0  0  0  1  0  0  0  0  0  0
  -26.5420  -37.3630   23.8340 N   0  0  0  0  0  0  0  0  0  0  0  0
  -26.1400  -38.2800   24.0130 H   0  0  0  0  0  0  0  0  0  0  0  0
  1  2  1  0
  1 48  1  0
  3  4  1  0
  3  2  1  0
  5 17  1  0
  6 11  1  0
  7  8  1  0
  7  6  1  0
  9  8  1  0
  9 23  1  0
  9 10  1  0
 11  5  1  0
 11 10  1  0
 12  5  2  0
 13 17  1  0
 13 15  1  0
 14 16  1  0
 15 18  1  0
 17 14  1  0
 18 16  1  0
 18  4  1  0
 18 19  1  6
 20 21  2  0
 21 40  1  0
 22 25  1  0
 22 21  1  0
 23 24  1  0
 23 20  1  0
 24 22  2  0
 25 26  1  0
 26 27  2  0
 28 31  1  0
 28 27  1  0
 29 28  2  0
 30 29  1  0
 30 25  2  0
 31 32  1  0
 32 33  1  0
 33 34  2  0
 35 34  1  0
 35 39  1  0
 36 35  2  0
 37 32  2  0
 37 36  1  0
 38 37  1  0
 40 41  1  0
 41 44  1  0
 41 43  1  0
 42 40  2  0
 45 20  1  0
 45 46  1  0
 47 45  1  0
 49 51  1  0
 49 48  1  0
 50 49  1  0
 52 49  1  0
 53 52  1  0
 54 56  1  0
 54 53  1  0
 55 66  2  0
 56 61  1  0
 57 65  1  0
 57 67  1  0
 58 64  1  0
 58 60  1  0
 59 65  1  0
 60 59  1  0
 61 60  2  0
 62 63  1  0
 62 56  2  0
 63 58  2  0
 64 57  1  0
 65 55  1  0
 67 69  2  0
 68 67  1  0
 70 68  1  0
 71 80  2  0
 71 76  1  0
 72 68  1  0
 72 76  1  0
 73 72  1  0
 74 75  1  0
 74 73  1  0
 75 71  1  0
 76 77  2  0
 77 78  1  0
 79 78  2  0
 80 79  1  0
 81 55  1  0
 81 86  1  0
 81 82  1  0
 82 85  1  1
 82 83  1  0
 84 82  1  0
 86 89  1  0
 87 91  1  0
 87 86  1  0
 88 87  2  0
 91 90  1  0
 93 91  1  0
 93 94  1  0
 93 92  1  0
M  ISO  4   5 100  17 100  53 101  54 101
M  END
>  <TORSDO>  (50) 
F 23

>  <SCORE>  (50) 
-9.230

>  <name>  (50) 
50

>  <ligand_id>  (50) 
50

>  <original_smiles>  (50) 
[H]c1c([H])c([H])c2c(c1[H])C([H])([H])C([H])([H])C([H])([H])C2([H])N([H])C(=O)C1([H])N(C(=O)C([H])(N([H])C(=O)C([H])(N([H])C([H])([H])[H])C([H])([H])[H])C(C([H])([H])[H])(C([H])([H])[H])C([H])([H])[H])C([H])([H])c2c([H])c(OC([H])([H])C([H])([H])[N+]([H])([H])C([H])([H])C([H])([H])C([H])([H])C([H])([H])C([H])([H])[N+]3([H])C([H])([H])C([H])([H])N(C(=O)N4C([H])([H])C([H])([H])C([H])([H])C([H])(n5nc(-c6c([H])c([H])c(Oc7c([H])c([H])c(F)c([H])c7F)c([H])c6[H])c(C(=O)N([H])[H])c5N([H])[H])C4([H])[H])C([H])([H])C3([H])[H])c([H])c([H])c2C1([H])[H]

>  <smiles>  (50) 
[H]c1c([H])c([H])c2c(c1[H])C([H])([H])C([H])([H])C([H])([H])C2([H])N([H])C(=O)C1([H])N(C(=O)C([H])(N([H])C(=O)C([H])(N([H])C([H])([H])[H])C([H])([H])[H])C(C([H])([H])[H])(C([H])([H])[H])C([H])([H])[H])C([H])([H])c2c([H])c(OC([H])([H])C([H])([H])[N+]([H])([H])C([H])([H])C([H])([H])C([H])([H])C([H])([H])C([H])([H])[N+]3([H])C([H])([H])C([H])([H])N(C(=O)N4C([H])([H])C([H])([H])C([H])([H])C([H])(n5nc(-c6c([H])c([H])c(Oc7c([H])c([H])c(F)c([H])c7F)c([H])c6[H])c(C(=O)N([H])[H])c5N([H])[H])C4([H])[H])C([H])([H])C3([H])[H])c([H])c([H])c2C1([H])[H]

$$$$
51:0:0
     RDKit          3D

 96104  0  0  1  0  0  0  0  0999 V2000
  -30.0680  -18.7220   21.9480 C   0  0  0  0  0  0  0  0  0  0  0  0
  -29.7040  -19.2330   20.5510 C   0  0  0  0  0  2  0  0  0  0  0  0
  -32.9020  -18.8320   20.3960 C   0  0  0  0  0  2  0  0  0  0  0  0
  -32.7920  -17.3160   20.6600 C   0  0  0  0  0  2  0  0  0  0  0  0
  -31.9090  -19.4030   19.3570 C   0  0  0  0  0  2  0  0  0  0  0  0
  -31.3880  -16.7960   21.0230 C   0  0  0  0  0  3  0  0  0  0  0  0
  -30.7960  -17.6070   22.0840 N   0  0  0  0  0  0  0  0  0  0  0  0
  -30.7470  -20.1180   19.9620 N   0  0  1  0  0  4  0  0  0  0  0  0
  -29.6950  -19.3520   22.9380 O   0  0  0  0  0  0  0  0  0  0  0  0
  -30.9830  -17.3050   23.0300 H   0  0  0  0  0  0  0  0  0  0  0  0
  -31.1220  -20.6540   20.7310 H   0  0  0  0  0  0  0  0  0  0  0  0
  -31.4430  -15.3300   21.4840 C   0  0  0  0  0  2  0  0  0  0  0  0
  -30.2260  -14.1450   19.6780 C   0  0  0  0  0  0  0  0  0  0  0  0
  -29.6770  -12.1060   18.4210 C   0  0  0  0  0  2  0  0  0  0  0  0
  -28.5470  -12.2650   17.3930 C   0  0  0  0  0  2  0  0  0  0  0  0
  -27.1820  -12.0390   18.0620 C   0  0  0  0  0  2  0  0  0  0  0  0
  -27.0050  -12.8990   19.3390 C   0  0  0  0  0  3  0  0  0  0  0  0
  -28.2210  -12.7580   20.2810 C   0  0  0  0  0  2  0  0  0  0  0  0
  -29.4530  -13.0460   19.5250 N   0  0  0  0  0  0  0  0  0  0  0  0
  -30.9660  -14.5940   18.7970 O   0  0  0  0  0  0  0  0  0  0  0  0
  -30.3350  -14.5430   20.9510 N   0  0  0  0  0  0  0  0  0  0  0  0
  -29.7300  -14.0860   21.6180 H   0  0  0  0  0  0  0  0  0  0  0  0
  -24.7560  -13.4240   20.4820 C   0  0  0  0  0  0  0  0  0  0  0  0
  -23.7720  -12.6130   20.9770 C   0  0  0  0  0  0  0  0  0  0  0  0
  -24.2290  -11.2740   20.7840 C   0  0  0  0  0  0  0  0  0  0  0  0
  -25.7530  -12.5770   20.0230 N   0  0  0  0  0  0  0  0  0  0  0  0
  -25.4470  -11.2750   20.2580 N   0  0  0  0  0  0  0  0  0  0  0  0
  -23.5540   -9.9900   21.0170 C   0  0  0  0  0  0  0  0  0  0  0  0
  -24.1060   -9.0090   21.8690 C   0  0  0  0  0  3  0  0  0  0  0  0
  -23.4300   -7.7910   22.0900 C   0  0  0  0  0  3  0  0  0  0  0  0
  -22.1880   -7.5420   21.4590 C   0  0  0  0  0  0  0  0  0  0  0  0
  -21.6540   -8.5140   20.5920 C   0  0  0  0  0  3  0  0  0  0  0  0
  -22.3310   -9.7240   20.3700 C   0  0  0  0  0  3  0  0  0  0  0  0
  -21.4730   -6.3770   21.5940 O   0  0  0  0  0  0  0  0  0  0  0  0
  -21.5240   -5.6290   22.7430 C   0  0  0  0  0  0  0  0  0  0  0  0
  -21.1430   -6.1610   23.9950 C   0  0  0  0  0  3  0  0  0  0  0  0
  -21.1450   -5.3380   25.1380 C   0  0  0  0  0  3  0  0  0  0  0  0
  -21.5180   -3.9840   25.0320 C   0  0  0  0  0  0  0  0  0  0  0  0
  -21.8930   -3.4520   23.7850 C   0  0  0  0  0  3  0  0  0  0  0  0
  -21.8930   -4.2730   22.6430 C   0  0  0  0  0  0  0  0  0  0  0  0
  -22.2340   -3.7500   21.4410 F   0  0  0  0  0  0  0  0  0  0  0  0
  -21.5130   -3.1900   26.1290 F   0  0  0  0  0  0  0  0  0  0  0  0
  -22.4380  -13.0490   21.5140 C   0  0  0  0  0  0  0  0  0  0  0  0
  -21.8780  -12.2940   22.4530 N   0  0  0  0  0  0  0  0  0  0  0  0
  -21.9080  -14.0930   21.1370 O   0  0  0  0  0  0  0  0  0  0  0  0
  -22.3210  -11.4470   22.7780 H   0  0  0  0  0  0  0  0  0  0  0  0
  -20.9900  -12.5660   22.8510 H   0  0  0  0  0  0  0  0  0  0  0  0
  -24.8790  -14.8060   20.3640 N   0  0  0  0  0  0  0  0  0  0  0  0
  -24.1410  -15.4430   20.6440 H   0  0  0  0  0  0  0  0  0  0  0  0
  -25.6670  -15.2770   19.9360 H   0  0  0  0  0  0  0  0  0  0  0  0
  -30.1390  -21.1160   19.0440 C   0  0  0  0  0  2  0  0  0  0  0  0
  -29.6970  -22.3780   19.8070 C   0  0  0  0  0  2  0  0  0  0  0  0
  -28.8160  -23.3130   18.9640 C   0  0  0  0  0  2  0  0  0  0  0  0
  -28.6410  -24.6930   19.6170 C   0  0  0  0  0  2  0  0  0  0  0  0
  -27.4530  -25.4810   19.0520 C   0  0  0  0  0  2  0  0  0  0  0  0
  -27.5760  -26.8210   19.5170 O   0  0  0  0  0  0  0  0  0  0  0  0
  -24.6760  -31.9180   23.4840 C   0  0  0  0  0  0  0  0  0  0  0  0
  -26.4500  -27.5900   19.7060 C   0  0  0  0  0  0  0  0  0  0  0  0
  -23.1340  -30.7940   21.9080 C   0  0  0  0  0  3  0  0  0  0  0  0
  -24.2310  -29.2770   20.1770 C   0  0  0  0  0  0  0  0  0  0  0  0
  -25.6360  -30.9450   21.4010 C   0  0  0  0  0  2  0  0  0  0  0  0
  -25.4980  -29.6410   20.6460 C   0  0  0  0  0  0  0  0  0  0  0  0
  -26.6060  -28.8010   20.4150 C   0  0  0  0  0  3  0  0  0  0  0  0
  -25.1640  -27.2400   19.2300 C   0  0  0  0  0  3  0  0  0  0  0  0
  -24.0560  -28.0750   19.4720 C   0  0  0  0  0  3  0  0  0  0  0  0
  -23.0960  -30.2340   20.4620 C   0  0  0  0  0  2  0  0  0  0  0  0
  -24.5100  -31.2270   22.3210 N   0  0  0  0  0  0  0  0  0  0  0  0
  -23.7050  -32.2330   24.1850 O   0  0  0  0  0  0  0  0  0  0  0  0
  -22.5110  -29.7470   22.8570 C   0  0  0  0  0  0  0  0  0  0  0  0
  -21.2050  -29.4890   22.6850 N   0  0  0  0  0  0  0  0  0  0  0  0
  -23.2000  -29.1690   23.7020 O   0  0  0  0  0  0  0  0  0  0  0  0
  -20.7080  -30.0070   21.9750 H   0  0  0  0  0  0  0  0  0  0  0  0
  -17.9650  -27.9040   22.8860 C   0  0  0  0  0  0  0  0  0  0  0  0
  -20.4150  -28.5150   23.4380 C   0  0  0  0  0  3  0  0  0  0  0  0
  -20.7630  -27.0690   23.0160 C   0  0  0  0  0  2  0  0  0  0  0  0
  -19.8510  -26.5260   21.9130 C   0  0  0  0  0  2  0  0  0  0  0  0
  -18.3890  -26.5400   22.3690 C   0  0  0  0  0  2  0  0  0  0  0  0
  -18.9180  -28.8380   23.3740 C   0  0  0  0  0  0  0  0  0  0  0  0
  -18.4740  -30.1050   23.8090 C   0  0  0  0  0  3  0  0  0  0  0  0
  -17.1090  -30.4440   23.7670 C   0  0  0  0  0  3  0  0  0  0  0  0
  -16.1680  -29.5110   23.2990 C   0  0  0  0  0  3  0  0  0  0  0  0
  -16.5960  -28.2430   22.8640 C   0  0  0  0  0  3  0  0  0  0  0  0
  -26.0890  -32.3660   23.9730 C   0  0  0  0  0  3  0  0  0  0  0  0
  -25.9820  -33.7650   24.4070 N   0  0  0  0  0  0  0  0  0  0  0  0
  -26.3510  -34.8200   23.6680 C   0  0  0  0  0  0  0  0  0  0  0  0
  -26.8920  -34.7090   22.5630 O   0  0  0  0  0  0  0  0  0  0  0  0
  -25.4970  -33.9340   25.2760 H   0  0  0  0  0  0  0  0  0  0  0  0
  -24.8120  -36.8070   23.5990 C   0  0  0  0  0  1  0  0  0  0  0  0
  -26.0770  -36.2220   24.2460 C   0  0  0  0  0  3  0  0  0  0  0  0
  -28.3730  -36.8180   24.8800 C   0  0  0  0  0  1  0  0  0  0  0  0
  -27.2070  -37.1610   24.0700 N   0  0  0  0  0  0  0  0  0  0  0  0
  -26.9270  -38.1090   24.3060 H   0  0  0  0  0  0  0  0  0  0  0  0
  -26.6630  -31.4630   25.1330 C   0  0  1  0  0  0  0  0  0  0  0  0
  -25.6690  -31.2380   26.2960 C   0  0  0  0  0  1  0  0  0  0  0  0
  -27.0740  -30.0740   24.5900 C   0  0  0  0  0  1  0  0  0  0  0  0
  -27.9430  -32.1070   25.7140 C   0  0  0  0  0  1  0  0  0  0  0  0
  1  7  1  0
  1  9  2  0
  2  1  1  0
  3  4  1  0
  4  6  1  0
  5  8  1  0
  5  3  1  0
  6 12  1  0
  6  7  1  0
  7 10  1  0
  8  2  1  0
  8 11  1  1
 13 21  1  0
 14 19  1  0
 15 16  1  0
 15 14  1  0
 17 16  1  0
 17 26  1  0
 17 18  1  0
 19 13  1  0
 19 18  1  0
 20 13  2  0
 21 12  1  0
 21 22  1  0
 23 24  2  0
 24 43  1  0
 25 24  1  0
 25 28  1  0
 26 27  1  0
 26 23  1  0
 27 25  2  0
 28 29  1  0
 29 30  2  0
 31 34  1  0
 31 30  1  0
 32 31  2  0
 33 32  1  0
 33 28  2  0
 34 35  1  0
 35 36  1  0
 36 37  2  0
 38 37  1  0
 38 42  1  0
 39 38  2  0
 40 35  2  0
 40 39  1  0
 41 40  1  0
 43 44  1  0
 44 46  1  0
 44 47  1  0
 45 43  2  0
 48 23  1  0
 48 49  1  0
 50 48  1  0
 51 52  1  0
 51  8  1  0
 53 54  1  0
 53 52  1  0
 55 56  1  0
 55 54  1  0
 56 58  1  0
 57 68  2  0
 58 63  1  0
 59 67  1  0
 59 69  1  0
 60 66  1  0
 60 62  1  0
 61 67  1  0
 62 61  1  0
 63 62  2  0
 64 65  1  0
 64 58  2  0
 65 60  2  0
 66 59  1  0
 67 57  1  0
 69 71  2  0
 70 69  1  0
 72 70  1  0
 73 78  1  0
 74 70  1  0
 75 74  1  0
 76 77  1  0
 76 75  1  0
 77 73  1  0
 78 74  1  0
 78 79  2  0
 80 79  1  0
 81 80  2  0
 82 73  2  0
 82 81  1  0
 83 57  1  0
 83 84  1  0
 83 93  1  0
 84 87  1  0
 85 89  1  0
 85 84  1  0
 86 85  2  0
 89 88  1  0
 91 89  1  0
 91 92  1  0
 91 90  1  0
 93 96  1  1
 93 94  1  0
 95 93  1  0
M  ISO  4  13 100  21 100  55 101  56 101
M  END
>  <TORSDO>  (51) 
F 22

>  <SCORE>  (51) 
-9.114

>  <name>  (51) 
51

>  <ligand_id>  (51) 
51

>  <original_smiles>  (51) 
[H]c1c([H])c([H])c2c(c1[H])C([H])([H])C([H])([H])C([H])([H])C2([H])N([H])C(=O)C1([H])N(C(=O)C([H])(N([H])C(=O)C([H])(N([H])C([H])([H])[H])C([H])([H])[H])C(C([H])([H])[H])(C([H])([H])[H])C([H])([H])[H])C([H])([H])c2c([H])c(OC([H])([H])C([H])([H])C([H])([H])C([H])([H])C([H])([H])[N+]3([H])C([H])([H])C(=O)N([H])C([H])(C([H])([H])N([H])C(=O)N4C([H])([H])C([H])([H])C([H])([H])C([H])(n5nc(-c6c([H])c([H])c(Oc7c([H])c([H])c(F)c([H])c7F)c([H])c6[H])c(C(=O)N([H])[H])c5N([H])[H])C4([H])[H])C([H])([H])C([H])([H])C3([H])[H])c([H])c([H])c2C1([H])[H]

>  <smiles>  (51) 
[H]c1c([H])c([H])c2c(c1[H])C([H])([H])C([H])([H])C([H])([H])C2([H])N([H])C(=O)C1([H])N(C(=O)C([H])(N([H])C(=O)C([H])(N([H])C([H])([H])[H])C([H])([H])[H])C(C([H])([H])[H])(C([H])([H])[H])C([H])([H])[H])C([H])([H])c2c([H])c(OC([H])([H])C([H])([H])C([H])([H])C([H])([H])C([H])([H])[N+]3([H])C([H])([H])C(=O)N([H])C([H])(C([H])([H])N([H])C(=O)N4C([H])([H])C([H])([H])C([H])([H])C([H])(n5nc(-c6c([H])c([H])c(Oc7c([H])c([H])c(F)c([H])c7F)c([H])c6[H])c(C(=O)N([H])[H])c5N([H])[H])C4([H])[H])C([H])([H])C([H])([H])C3([H])[H])c([H])c([H])c2C1([H])[H]

$$$$
52:0:0
     RDKit          3D

 97105  0  0  1  0  0  0  0  0999 V2000
  -28.6520  -20.3990   18.4230 C   0  0  0  0  0  2  0  0  0  0  0  0
  -28.6390  -21.7020   17.5930 C   0  0  0  0  0  2  0  0  0  0  0  0
  -31.1150  -22.0970   18.0480 C   0  0  0  0  0  2  0  0  0  0  0  0
  -30.0420  -20.1010   19.0500 C   0  0  0  0  0  3  0  0  0  0  0  0
  -30.0120  -21.9800   16.9480 C   0  0  0  0  0  3  0  0  0  0  0  0
  -30.8120  -21.3380   19.2830 N   0  0  0  0  0  4  0  0  0  0  0  0
  -30.3070  -21.9140   19.9380 H   0  0  0  0  0  0  0  0  0  0  0  0
  -31.6740  -21.0850   19.7410 H   0  0  0  0  0  0  0  0  0  0  0  0
  -29.9120  -19.3920   20.3990 C   0  0  0  0  0  0  0  0  0  0  0  0
  -29.4650  -19.9330   21.4160 O   0  0  0  0  0  0  0  0  0  0  0  0
  -30.2720  -17.9140   20.4280 C   0  0  0  0  0  2  0  0  0  0  0  0
  -31.2790  -16.3370   18.8470 C   0  0  0  0  0  0  0  0  0  0  0  0
  -32.5410  -14.9730   17.2440 C   0  0  0  0  0  2  0  0  0  0  0  0
  -34.0600  -15.0620   17.5000 C   0  0  0  0  0  2  0  0  0  0  0  0
  -34.6860  -16.2950   16.8110 C   0  0  0  0  0  2  0  0  0  0  0  0
  -33.8800  -17.5920   17.0680 C   0  0  0  0  0  3  0  0  0  0  0  0
  -32.3750  -17.3540   16.8140 C   0  0  0  0  0  2  0  0  0  0  0  0
  -31.9340  -16.2360   17.6660 N   0  0  0  0  0  0  0  0  0  0  0  0
  -31.0420  -15.3810   19.5910 O   0  0  0  0  0  0  0  0  0  0  0  0
  -30.9230  -17.5700   19.1770 N   0  0  0  0  0  0  0  0  0  0  0  0
  -31.1380  -18.3130   18.5260 H   0  0  0  0  0  0  0  0  0  0  0  0
  -35.1640  -19.7870   16.6660 C   0  0  0  0  0  0  0  0  0  0  0  0
  -35.4270  -20.4920   15.5170 C   0  0  0  0  0  0  0  0  0  0  0  0
  -34.7910  -19.7740   14.4590 C   0  0  0  0  0  0  0  0  0  0  0  0
  -34.3900  -18.7050   16.2710 N   0  0  0  0  0  0  0  0  0  0  0  0
  -34.1220  -18.7350   14.9410 N   0  0  0  0  0  0  0  0  0  0  0  0
  -34.8250  -19.9800   13.0060 C   0  0  0  0  0  0  0  0  0  0  0  0
  -34.2220  -21.1060   12.4080 C   0  0  0  0  0  3  0  0  0  0  0  0
  -34.2790  -21.2930   11.0110 C   0  0  0  0  0  3  0  0  0  0  0  0
  -34.9530  -20.3510   10.1970 C   0  0  0  0  0  0  0  0  0  0  0  0
  -35.5330  -19.2190   10.7960 C   0  0  0  0  0  3  0  0  0  0  0  0
  -35.4700  -19.0320   12.1870 C   0  0  0  0  0  3  0  0  0  0  0  0
  -35.0420  -20.4420    8.8290 O   0  0  0  0  0  0  0  0  0  0  0  0
  -35.5590  -21.5520    8.2120 C   0  0  0  0  0  0  0  0  0  0  0  0
  -36.9420  -21.6930    7.9640 C   0  0  0  0  0  3  0  0  0  0  0  0
  -37.4200  -22.8180    7.2600 C   0  0  0  0  0  3  0  0  0  0  0  0
  -36.5190  -23.7980    6.8010 C   0  0  0  0  0  0  0  0  0  0  0  0
  -35.1420  -23.6580    7.0490 C   0  0  0  0  0  3  0  0  0  0  0  0
  -34.6640  -22.5360    7.7470 C   0  0  0  0  0  0  0  0  0  0  0  0
  -33.3340  -22.3920    7.9600 F   0  0  0  0  0  0  0  0  0  0  0  0
  -36.9730  -24.8780    6.1240 F   0  0  0  0  0  0  0  0  0  0  0  0
  -36.3050  -21.7030   15.3900 C   0  0  0  0  0  0  0  0  0  0  0  0
  -35.7130  -22.8920   15.3370 N   0  0  0  0  0  0  0  0  0  0  0  0
  -37.5290  -21.6080   15.3800 O   0  0  0  0  0  0  0  0  0  0  0  0
  -34.7080  -22.9820   15.3550 H   0  0  0  0  0  0  0  0  0  0  0  0
  -36.2820  -23.7250   15.2600 H   0  0  0  0  0  0  0  0  0  0  0  0
  -35.5260  -19.9530   17.9990 N   0  0  0  0  0  0  0  0  0  0  0  0
  -36.1430  -20.6910   18.3210 H   0  0  0  0  0  0  0  0  0  0  0  0
  -35.3050  -19.2780   18.7220 H   0  0  0  0  0  0  0  0  0  0  0  0
  -30.3360  -20.9670   15.8190 C   0  0  0  0  0  2  0  0  0  0  0  0
  -30.9780  -21.6180   14.5760 C   0  0  0  0  0  2  0  0  0  0  0  0
  -30.7140  -20.8620   13.3320 N   0  0  0  0  0  4  0  0  0  0  0  0
  -29.8580  -20.3410   13.4370 H   0  0  0  0  0  0  0  0  0  0  0  0
  -31.4590  -20.1950   13.1980 H   0  0  0  0  0  0  0  0  0  0  0  0
  -30.6150  -21.7320   12.1370 C   0  0  0  0  0  2  0  0  0  0  0  0
  -29.5530  -21.2470   11.1310 C   0  0  0  0  0  2  0  0  0  0  0  0
  -29.4810  -22.1710   10.0490 O   0  0  0  0  0  0  0  0  0  0  0  0
  -25.9180  -27.7610    7.5270 C   0  0  0  0  0  0  0  0  0  0  0  0
  -28.2550  -22.6270    9.6140 C   0  0  0  0  0  0  0  0  0  0  0  0
  -24.5410  -25.7870    8.0890 C   0  0  0  0  0  3  0  0  0  0  0  0
  -25.8220  -23.6440    8.5930 C   0  0  0  0  0  0  0  0  0  0  0  0
  -26.9900  -25.5120    7.4130 C   0  0  0  0  0  2  0  0  0  0  0  0
  -27.0300  -24.2840    8.2940 C   0  0  0  0  0  0  0  0  0  0  0  0
  -28.2440  -23.7730    8.7950 C   0  0  0  0  0  3  0  0  0  0  0  0
  -27.0220  -21.9990    9.9230 C   0  0  0  0  0  3  0  0  0  0  0  0
  -25.8110  -22.5000    9.4090 C   0  0  0  0  0  3  0  0  0  0  0  0
  -24.5670  -24.2400    7.9950 C   0  0  0  0  0  2  0  0  0  0  0  0
  -25.8450  -26.4100    7.6930 N   0  0  0  0  0  0  0  0  0  0  0  0
  -24.9190  -28.4800    7.6600 O   0  0  0  0  0  0  0  0  0  0  0  0
  -24.0770  -26.1840    9.5070 C   0  0  0  0  0  0  0  0  0  0  0  0
  -22.7650  -26.0590    9.7600 N   0  0  0  0  0  0  0  0  0  0  0  0
  -24.8870  -26.5670   10.3570 O   0  0  0  0  0  0  0  0  0  0  0  0
  -22.1640  -25.7450    9.0100 H   0  0  0  0  0  0  0  0  0  0  0  0
  -19.5600  -26.6700   11.3060 C   0  0  0  0  0  0  0  0  0  0  0  0
  -22.1080  -26.3360   11.0370 C   0  0  0  0  0  3  0  0  0  0  0  0
  -21.9230  -25.0390   11.8590 C   0  0  0  0  0  2  0  0  0  0  0  0
  -20.5650  -24.3700   11.6300 C   0  0  0  0  0  2  0  0  0  0  0  0
  -19.4270  -25.3250   12.0010 C   0  0  0  0  0  2  0  0  0  0  0  0
  -20.8170  -27.1370   10.8400 C   0  0  0  0  0  0  0  0  0  0  0  0
  -20.8800  -28.3760   10.1670 C   0  0  0  0  0  3  0  0  0  0  0  0
  -19.7190  -29.1470    9.9670 C   0  0  0  0  0  3  0  0  0  0  0  0
  -18.4800  -28.6870   10.4420 C   0  0  0  0  0  3  0  0  0  0  0  0
  -18.4040  -27.4540   11.1130 C   0  0  0  0  0  3  0  0  0  0  0  0
  -27.2550  -28.4680    7.1430 C   0  0  0  0  0  3  0  0  0  0  0  0
  -26.9120  -29.7070    6.4350 N   0  0  0  0  0  0  0  0  0  0  0  0
  -27.1270  -29.9200    5.1300 C   0  0  0  0  0  0  0  0  0  0  0  0
  -27.7050  -29.1030    4.4060 O   0  0  0  0  0  0  0  0  0  0  0  0
  -26.3790  -30.3920    6.9510 H   0  0  0  0  0  0  0  0  0  0  0  0
  -25.7810  -30.9470    3.2710 C   0  0  0  0  0  1  0  0  0  0  0  0
  -26.6150  -31.2430    4.5290 C   0  0  0  0  0  3  0  0  0  0  0  0
  -28.2440  -32.8700    5.3770 C   0  0  0  0  0  1  0  0  0  0  0  0
  -27.6970  -32.1970    4.2010 N   0  0  0  0  0  0  0  0  0  0  0  0
  -27.3700  -32.9080    3.5530 H   0  0  0  0  0  0  0  0  0  0  0  0
  -28.1720  -28.7760    8.3910 C   0  0  1  0  0  0  0  0  0  0  0  0
  -28.6750  -30.2390    8.4460 C   0  0  0  0  0  1  0  0  0  0  0  0
  -27.4110  -28.4890    9.7050 C   0  0  0  0  0  1  0  0  0  0  0  0
  -29.4030  -27.8380    8.3820 C   0  0  0  0  0  1  0  0  0  0  0  0
  1  4  1  0
  2  1  1  0
  3  6  1  0
  4  6  1  0
  4  9  1  0
  5 50  1  0
  5  2  1  0
  5  3  1  0
  6  8  1  0
  6  7  1  0
  9 11  1  0
  9 10  2  0
 12 20  1  0
 12 19  2  0
 13 14  1  0
 13 18  1  0
 15 16  1  0
 15 14  1  0
 16 25  1  0
 17 16  1  0
 17 18  1  0
 18 12  1  0
 20 11  1  0
 21 20  1  0
 22 47  1  0
 23 22  2  0
 24 26  2  0
 24 23  1  0
 25 22  1  0
 26 25  1  0
 27 24  1  0
 28 27  1  0
 29 28  2  0
 30 31  2  0
 30 29  1  0
 31 32  1  0
 32 27  2  0
 33 30  1  0
 34 33  1  0
 35 34  1  0
 36 35  2  0
 37 38  2  0
 37 36  1  0
 38 39  1  0
 39 40  1  0
 39 34  2  0
 41 37  1  0
 42 23  1  0
 43 45  1  0
 43 42  1  0
 44 42  2  0
 46 43  1  0
 47 48  1  0
 47 49  1  0
 51 50  1  0
 52 53  1  0
 52 51  1  0
 54 52  1  0
 55 52  1  0
 56 55  1  0
 57 56  1  0
 58 69  2  0
 58 68  1  0
 59 65  1  0
 59 57  1  0
 60 70  1  0
 61 66  1  0
 62 68  1  0
 62 63  1  0
 63 61  2  0
 63 64  1  0
 64 59  2  0
 66 65  2  0
 67 60  1  0
 67 61  1  0
 68 60  1  0
 70 71  1  0
 70 72  2  0
 73 71  1  0
 74 78  1  0
 75 71  1  0
 75 76  1  0
 77 76  1  0
 77 78  1  0
 79 75  1  0
 79 74  2  0
 80 79  1  0
 81 80  2  0
 81 82  1  0
 82 83  2  0
 83 74  1  0
 84 58  1  0
 84 94  1  0
 85 88  1  0
 85 84  1  0
 86 85  1  0
 87 86  2  0
 90 89  1  0
 90 86  1  0
 92 90  1  0
 92 91  1  0
 93 92  1  0
 94 95  1  1
 94 96  1  0
 97 94  1  0
M  ISO  4  12 100  20 100  56 101  57 101
M  END
>  <TORSDO>  (52) 
F 23

>  <SCORE>  (52) 
-3.666

>  <name>  (52) 
52

>  <ligand_id>  (52) 
52

>  <original_smiles>  (52) 
[H]c1c([H])c([H])c2c(c1[H])C([H])([H])C([H])([H])C([H])([H])C2([H])N([H])C(=O)C1([H])N(C(=O)C([H])(N([H])C(=O)C([H])(N([H])C([H])([H])[H])C([H])([H])[H])C(C([H])([H])[H])(C([H])([H])[H])C([H])([H])[H])C([H])([H])c2c([H])c(OC([H])([H])C([H])([H])[N+]([H])([H])C([H])([H])C([H])([H])C3([H])C([H])([H])C([H])([H])C([H])(C(=O)C([H])([H])N([H])C(=O)N4C([H])([H])C([H])([H])C([H])([H])C([H])(n5nc(-c6c([H])c([H])c(Oc7c([H])c([H])c(F)c([H])c7F)c([H])c6[H])c(C(=O)N([H])[H])c5N([H])[H])C4([H])[H])[N+]([H])([H])C3([H])[H])c([H])c([H])c2C1([H])[H]

>  <smiles>  (52) 
[H]c1c([H])c([H])c2c(c1[H])C([H])([H])C([H])([H])C([H])([H])C2([H])N([H])C(=O)C1([H])N(C(=O)C([H])(N([H])C(=O)C([H])(N([H])C([H])([H])[H])C([H])([H])[H])C(C([H])([H])[H])(C([H])([H])[H])C([H])([H])[H])C([H])([H])c2c([H])c(OC([H])([H])C([H])([H])[N+]([H])([H])C([H])([H])C([H])([H])C3([H])C([H])([H])C([H])([H])C([H])(C(=O)C([H])([H])N([H])C(=O)N4C([H])([H])C([H])([H])C([H])([H])C([H])(n5nc(-c6c([H])c([H])c(Oc7c([H])c([H])c(F)c([H])c7F)c([H])c6[H])c(C(=O)N([H])[H])c5N([H])[H])C4([H])[H])[N+]([H])([H])C3([H])[H])c([H])c([H])c2C1([H])[H]

$$$$
53:0:0
     RDKit          3D

 97105  0  0  1  0  0  0  0  0999 V2000
  -26.8020  -22.2420   21.6460 C   0  0  0  0  0  2  0  0  0  0  0  0
  -28.0960  -24.2350   22.5350 C   0  0  0  0  0  2  0  0  0  0  0  0
  -26.1090  -23.3520   20.8150 C   0  0  0  0  0  2  0  0  0  0  0  0
  -27.8540  -25.0350   21.2330 C   0  0  0  0  0  2  0  0  0  0  0  0
  -28.1140  -22.6980   22.3440 C   0  0  0  0  0  3  0  0  0  0  0  0
  -27.1110  -24.2580   20.2020 N   0  0  2  0  0  4  0  0  0  0  0  0
  -27.7880  -23.6500   19.7660 H   0  0  0  0  0  0  0  0  0  0  0  0
  -29.3860  -22.1670   21.6260 C   0  0  0  0  0  2  0  0  0  0  0  0
  -29.5670  -20.6300   21.7310 C   0  0  0  0  0  2  0  0  0  0  0  0
  -30.6550  -20.1130   20.8700 N   0  0  0  0  0  4  0  0  0  0  0  0
  -31.4690  -20.6980   20.9630 H   0  0  0  0  0  0  0  0  0  0  0  0
  -30.3490  -20.1650   19.9110 H   0  0  0  0  0  0  0  0  0  0  0  0
  -31.0420  -18.7100   21.1500 C   0  0  0  0  0  2  0  0  0  0  0  0
  -31.9750  -18.1540   20.0540 C   0  0  0  0  0  2  0  0  0  0  0  0
  -32.5790  -16.7670   20.3460 C   0  0  0  0  0  2  0  0  0  0  0  0
  -31.8320  -14.7070   19.1410 C   0  0  0  0  0  0  0  0  0  0  0  0
  -31.4690  -12.2930   18.7840 C   0  0  0  0  0  2  0  0  0  0  0  0
  -30.4280  -11.9560   17.7020 C   0  0  0  0  0  2  0  0  0  0  0  0
  -29.0080  -11.9590   18.2930 C   0  0  0  0  0  2  0  0  0  0  0  0
  -28.7080  -13.2420   19.1070 C   0  0  0  0  0  3  0  0  0  0  0  0
  -29.8380  -13.5250   20.1180 C   0  0  0  0  0  2  0  0  0  0  0  0
  -31.1230  -13.5830   19.3920 N   0  0  0  0  0  0  0  0  0  0  0  0
  -32.6960  -14.7940   18.2590 O   0  0  0  0  0  0  0  0  0  0  0  0
  -31.6670  -15.6600   20.0660 N   0  0  0  0  0  0  0  0  0  0  0  0
  -30.9650  -15.4540   20.7610 H   0  0  0  0  0  0  0  0  0  0  0  0
  -26.5800  -14.1790   20.2140 C   0  0  0  0  0  0  0  0  0  0  0  0
  -25.4510  -13.5630   20.6900 C   0  0  0  0  0  0  0  0  0  0  0  0
  -25.6530  -12.1640   20.4940 C   0  0  0  0  0  0  0  0  0  0  0  0
  -27.4080  -13.1590   19.7670 N   0  0  0  0  0  0  0  0  0  0  0  0
  -26.8600  -11.9370   19.9920 N   0  0  0  0  0  0  0  0  0  0  0  0
  -24.7480  -11.0280   20.7080 C   0  0  0  0  0  0  0  0  0  0  0  0
  -25.0880   -9.9640   21.5740 C   0  0  0  0  0  3  0  0  0  0  0  0
  -24.1940   -8.8900   21.7750 C   0  0  0  0  0  3  0  0  0  0  0  0
  -22.9440   -8.8750   21.1120 C   0  0  0  0  0  0  0  0  0  0  0  0
  -22.6190   -9.9260   20.2360 C   0  0  0  0  0  3  0  0  0  0  0  0
  -23.5130  -10.9910   20.0330 C   0  0  0  0  0  3  0  0  0  0  0  0
  -22.0210   -7.8630   21.2270 O   0  0  0  0  0  0  0  0  0  0  0  0
  -21.8570   -7.1690   22.3980 C   0  0  0  0  0  0  0  0  0  0  0  0
  -21.5430   -7.8190   23.6120 C   0  0  0  0  0  3  0  0  0  0  0  0
  -21.3130   -7.0610   24.7780 C   0  0  0  0  0  3  0  0  0  0  0  0
  -21.3920   -5.6570   24.7320 C   0  0  0  0  0  0  0  0  0  0  0  0
  -21.7000   -5.0070   23.5240 C   0  0  0  0  0  3  0  0  0  0  0  0
  -21.9310   -5.7620   22.3610 C   0  0  0  0  0  0  0  0  0  0  0  0
  -22.2060   -5.1300   21.1940 F   0  0  0  0  0  0  0  0  0  0  0  0
  -21.1640   -4.9280   25.8500 F   0  0  0  0  0  0  0  0  0  0  0  0
  -24.2130  -14.2400   21.2030 C   0  0  0  0  0  0  0  0  0  0  0  0
  -23.5110  -13.6060   22.1370 N   0  0  0  0  0  0  0  0  0  0  0  0
  -23.8860  -15.3590   20.8130 O   0  0  0  0  0  0  0  0  0  0  0  0
  -23.7900  -12.6970   22.4730 H   0  0  0  0  0  0  0  0  0  0  0  0
  -22.6840  -14.0380   22.5220 H   0  0  0  0  0  0  0  0  0  0  0  0
  -26.9620  -15.5120   20.1080 N   0  0  0  0  0  0  0  0  0  0  0  0
  -26.3550  -16.2770   20.3840 H   0  0  0  0  0  0  0  0  0  0  0  0
  -27.8300  -15.8250   19.6880 H   0  0  0  0  0  0  0  0  0  0  0  0
  -26.5650  -25.1090   19.1130 C   0  0  0  0  0  2  0  0  0  0  0  0
  -27.2430  -24.8310   17.7600 C   0  0  0  0  0  2  0  0  0  0  0  0
  -27.4690  -26.1110   16.9420 C   0  0  0  0  0  2  0  0  0  0  0  0
  -26.2190  -26.5740   16.4290 O   0  0  0  0  0  0  0  0  0  0  0  0
  -25.5780  -29.7640   22.7510 C   0  0  0  0  0  0  0  0  0  0  0  0
  -25.5300  -27.4540   17.2270 C   0  0  0  0  0  0  0  0  0  0  0  0
  -23.6310  -29.9590   21.2370 C   0  0  0  0  0  3  0  0  0  0  0  0
  -24.0230  -29.2140   18.8310 C   0  0  0  0  0  0  0  0  0  0  0  0
  -25.9930  -29.7060   20.2960 C   0  0  0  0  0  2  0  0  0  0  0  0
  -25.3760  -28.9910   19.1150 C   0  0  0  0  0  0  0  0  0  0  0  0
  -26.1350  -28.1170   18.3150 C   0  0  0  0  0  3  0  0  0  0  0  0
  -24.1740  -27.6980   16.9350 C   0  0  0  0  0  3  0  0  0  0  0  0
  -23.4110  -28.5620   17.7440 C   0  0  0  0  0  3  0  0  0  0  0  0
  -23.2910  -30.1750   19.7390 C   0  0  0  0  0  2  0  0  0  0  0  0
  -25.0990  -29.7760   21.4750 N   0  0  0  0  0  0  0  0  0  0  0  0
  -24.8240  -29.9460   23.7170 O   0  0  0  0  0  0  0  0  0  0  0  0
  -22.7710  -28.7890   21.7670 C   0  0  0  0  0  0  0  0  0  0  0  0
  -21.4520  -29.0160   21.8580 N   0  0  0  0  0  0  0  0  0  0  0  0
  -23.2840  -27.7040   22.0520 O   0  0  0  0  0  0  0  0  0  0  0  0
  -21.1110  -29.9330   21.6080 H   0  0  0  0  0  0  0  0  0  0  0  0
  -17.8970  -28.4700   22.1710 C   0  0  0  0  0  0  0  0  0  0  0  0
  -20.4430  -28.0480   22.2910 C   0  0  0  0  0  3  0  0  0  0  0  0
  -20.2150  -26.9650   21.2110 C   0  0  0  0  0  2  0  0  0  0  0  0
  -19.0680  -27.2990   20.2530 C   0  0  0  0  0  2  0  0  0  0  0  0
  -17.7570  -27.4780   21.0270 C   0  0  0  0  0  2  0  0  0  0  0  0
  -19.1620  -28.7470   22.7520 C   0  0  0  0  0  0  0  0  0  0  0  0
  -19.2460  -29.7010   23.7880 C   0  0  0  0  0  3  0  0  0  0  0  0
  -18.0960  -30.3700   24.2460 C   0  0  0  0  0  3  0  0  0  0  0  0
  -16.8430  -30.0780   23.6810 C   0  0  0  0  0  3  0  0  0  0  0  0
  -16.7440  -29.1270   22.6500 C   0  0  0  0  0  3  0  0  0  0  0  0
  -27.0940  -29.5450   23.0570 C   0  0  0  0  0  3  0  0  0  0  0  0
  -27.4680  -28.0280   23.2870 C   0  0  1  0  0  0  0  0  0  0  0  0
  -26.5650  -27.3110   24.3160 C   0  0  0  0  0  1  0  0  0  0  0  0
  -27.3870  -27.2420   21.9580 C   0  0  0  0  0  1  0  0  0  0  0  0
  -28.9290  -27.9200   23.7840 C   0  0  0  0  0  1  0  0  0  0  0  0
  -27.4250  -30.3480   24.2400 N   0  0  0  0  0  0  0  0  0  0  0  0
  -28.1320  -31.4870   24.2110 C   0  0  0  0  0  0  0  0  0  0  0  0
  -28.6390  -31.9340   23.1780 O   0  0  0  0  0  0  0  0  0  0  0  0
  -26.9960  -30.0680   25.1090 H   0  0  0  0  0  0  0  0  0  0  0  0
  -27.3580  -33.4600   25.5650 C   0  0  0  0  0  1  0  0  0  0  0  0
  -28.3030  -32.2480   25.5370 C   0  0  0  0  0  3  0  0  0  0  0  0
  -30.6170  -31.5990   26.0370 C   0  0  0  0  0  1  0  0  0  0  0  0
  -29.6910  -32.6980   25.7800 N   0  0  0  0  0  0  0  0  0  0  0  0
  -29.7310  -33.3390   26.5680 H   0  0  0  0  0  0  0  0  0  0  0  0
  1  5  1  0
  3  1  1  0
  4  2  1  0
  5  8  1  0
  5  2  1  0
  6  3  1  0
  6  4  1  0
  6  7  1  6
  8  9  1  0
 10 11  1  0
 10 13  1  0
 10  9  1  0
 12 10  1  0
 14 15  1  0
 14 13  1  0
 16 22  1  0
 16 24  1  0
 17 22  1  0
 18 19  1  0
 18 17  1  0
 20 19  1  0
 20 29  1  0
 20 21  1  0
 22 21  1  0
 23 16  2  0
 24 15  1  0
 24 25  1  0
 26 27  2  0
 27 46  1  0
 28 27  1  0
 28 31  1  0
 29 30  1  0
 29 26  1  0
 30 28  2  0
 31 32  1  0
 32 33  2  0
 34 37  1  0
 34 33  1  0
 35 34  2  0
 36 35  1  0
 36 31  2  0
 37 38  1  0
 38 39  1  0
 39 40  2  0
 41 40  1  0
 41 45  1  0
 42 41  2  0
 43 38  2  0
 43 42  1  0
 44 43  1  0
 46 47  1  0
 47 49  1  0
 47 50  1  0
 48 46  2  0
 51 26  1  0
 51 52  1  0
 53 51  1  0
 54  6  1  0
 55 54  1  0
 56 55  1  0
 57 56  1  0
 57 59  1  0
 58 69  2  0
 59 64  1  0
 60 68  1  0
 60 70  1  0
 61 63  1  0
 61 67  1  0
 62 68  1  0
 63 62  1  0
 64 63  2  0
 65 59  2  0
 65 66  1  0
 66 61  2  0
 67 60  1  0
 68 58  1  0
 70 71  1  0
 70 72  2  0
 73 71  1  0
 74 83  2  0
 74 79  1  0
 75 71  1  0
 75 79  1  0
 76 75  1  0
 77 78  1  0
 77 76  1  0
 78 74  1  0
 79 80  2  0
 80 81  1  0
 82 81  2  0
 83 82  1  0
 84 58  1  0
 84 85  1  0
 84 89  1  0
 85 88  1  1
 85 86  1  0
 87 85  1  0
 89 92  1  0
 90 89  1  0
 90 94  1  0
 91 90  2  0
 94 93  1  0
 94 96  1  0
 96 95  1  0
 96 97  1  0
M  ISO  4  16 100  24 100  56 101  57 101
M  END
>  <TORSDO>  (53) 
F 25

>  <SCORE>  (53) 
-7.696

>  <name>  (53) 
53

>  <ligand_id>  (53) 
53

>  <original_smiles>  (53) 
[H]c1c([H])c([H])c2c(c1[H])C([H])([H])C([H])([H])C([H])([H])C2([H])N([H])C(=O)C1([H])N(C(=O)C([H])(N([H])C(=O)C([H])(N([H])C([H])([H])[H])C([H])([H])[H])C(C([H])([H])[H])(C([H])([H])[H])C([H])([H])[H])C([H])([H])c2c([H])c(OC([H])([H])C([H])([H])C([H])([H])[N+]3([H])C([H])([H])C([H])([H])C([H])(C([H])([H])C([H])([H])[N+]([H])([H])C([H])([H])C([H])([H])C([H])([H])N([H])C(=O)N4C([H])([H])C([H])([H])C([H])([H])C([H])(n5nc(-c6c([H])c([H])c(Oc7c([H])c([H])c(F)c([H])c7F)c([H])c6[H])c(C(=O)N([H])[H])c5N([H])[H])C4([H])[H])C([H])([H])C3([H])[H])c([H])c([H])c2C1([H])[H]

>  <smiles>  (53) 
[H]c1c([H])c([H])c2c(c1[H])C([H])([H])C([H])([H])C([H])([H])C2([H])N([H])C(=O)C1([H])N(C(=O)C([H])(N([H])C(=O)C([H])(N([H])C([H])([H])[H])C([H])([H])[H])C(C([H])([H])[H])(C([H])([H])[H])C([H])([H])[H])C([H])([H])c2c([H])c(OC([H])([H])C([H])([H])C([H])([H])[N+]3([H])C([H])([H])C([H])([H])C([H])(C([H])([H])C([H])([H])[N+]([H])([H])C([H])([H])C([H])([H])C([H])([H])N([H])C(=O)N4C([H])([H])C([H])([H])C([H])([H])C([H])(n5nc(-c6c([H])c([H])c(Oc7c([H])c([H])c(F)c([H])c7F)c([H])c6[H])c(C(=O)N([H])[H])c5N([H])[H])C4([H])[H])C([H])([H])C3([H])[H])c([H])c([H])c2C1([H])[H]

$$$$
54:0:0
     RDKit          3D

 96105  0  0  1  0  0  0  0  0999 V2000
  -30.3680  -22.0660   23.1000 C   0  0  0  0  0  2  0  0  0  0  0  0
  -31.4480  -21.7190   22.0730 C   0  0  0  0  0  2  0  0  0  0  0  0
  -29.4070  -23.0000   22.3450 C   0  0  0  0  0  2  0  0  0  0  0  0
  -30.7240  -21.7830   20.7120 C   0  0  0  0  0  3  0  0  0  0  0  0
  -29.6850  -22.8270   20.8980 N   0  0  2  0  0  4  0  0  0  0  0  0
  -28.8970  -22.3170   20.5110 H   0  0  0  0  0  0  0  0  0  0  0  0
  -29.9800  -20.4700   20.3360 C   0  0  0  0  0  0  0  0  0  0  0  0
  -30.5740  -19.2870   20.5900 N   0  0  0  0  0  0  0  0  0  0  0  0
  -28.8470  -20.5500   19.8510 O   0  0  0  0  0  0  0  0  0  0  0  0
  -31.5010  -19.3320   20.9960 H   0  0  0  0  0  0  0  0  0  0  0  0
  -30.9570  -14.4900   19.7550 C   0  0  0  0  0  0  0  0  0  0  0  0
  -30.3200  -12.4570   18.5130 C   0  0  0  0  0  2  0  0  0  0  0  0
  -29.2810  -12.7770   17.4200 C   0  0  0  0  0  2  0  0  0  0  0  0
  -27.8640  -12.5870   17.9880 C   0  0  0  0  0  2  0  0  0  0  0  0
  -27.6660  -13.3480   19.3260 C   0  0  0  0  0  3  0  0  0  0  0  0
  -28.8370  -13.1050   20.3010 C   0  0  0  0  0  2  0  0  0  0  0  0
  -30.1230  -13.4020   19.6300 N   0  0  0  0  0  0  0  0  0  0  0  0
  -31.9190  -14.6270   18.9990 O   0  0  0  0  0  0  0  0  0  0  0  0
  -28.9250  -16.1930   22.1130 C   0  0  0  0  0  2  0  0  0  0  0  0
  -29.0170  -17.6610   21.6430 C   0  0  0  0  0  2  0  0  0  0  0  0
  -30.2600  -15.4350   21.9770 C   0  0  0  0  0  2  0  0  0  0  0  0
  -31.1360  -16.9040   20.3190 C   0  0  0  0  0  2  0  0  0  0  0  0
  -29.9880  -17.9450   20.4520 C   0  0  0  0  0  3  0  0  0  0  0  0
  -30.6380  -15.5310   20.5710 N   0  0  0  0  0  0  0  0  0  0  0  0
  -25.3930  -13.8620   20.4180 C   0  0  0  0  0  0  0  0  0  0  0  0
  -24.3820  -13.0550   20.8600 C   0  0  0  0  0  0  0  0  0  0  0  0
  -24.8150  -11.7130   20.6340 C   0  0  0  0  0  0  0  0  0  0  0  0
  -26.3860  -13.0150   19.9530 N   0  0  0  0  0  0  0  0  0  0  0  0
  -26.0510  -11.7110   20.1460 N   0  0  0  0  0  0  0  0  0  0  0  0
  -24.1080  -10.4400   20.8050 C   0  0  0  0  0  0  0  0  0  0  0  0
  -24.6300   -9.4010   21.6060 C   0  0  0  0  0  3  0  0  0  0  0  0
  -23.9220   -8.1910   21.7670 C   0  0  0  0  0  3  0  0  0  0  0  0
  -22.6700   -8.0090   21.1250 C   0  0  0  0  0  0  0  0  0  0  0  0
  -22.1620   -9.0390   20.3130 C   0  0  0  0  0  3  0  0  0  0  0  0
  -22.8710  -10.2390   20.1520 C   0  0  0  0  0  3  0  0  0  0  0  0
  -21.9190   -6.8630   21.2040 O   0  0  0  0  0  0  0  0  0  0  0  0
  -21.9650   -6.0450   22.3050 C   0  0  0  0  0  0  0  0  0  0  0  0
  -21.6860   -6.5270   23.6030 C   0  0  0  0  0  3  0  0  0  0  0  0
  -21.6760   -5.6370   24.6950 C   0  0  0  0  0  3  0  0  0  0  0  0
  -21.9300   -4.2680   24.4920 C   0  0  0  0  0  0  0  0  0  0  0  0
  -22.1970   -3.7850   23.2000 C   0  0  0  0  0  3  0  0  0  0  0  0
  -22.2110   -4.6720   22.1090 C   0  0  0  0  0  0  0  0  0  0  0  0
  -22.4500   -4.1950   20.8610 F   0  0  0  0  0  0  0  0  0  0  0  0
  -21.9090   -3.4120   25.5430 F   0  0  0  0  0  0  0  0  0  0  0  0
  -23.0380  -13.4990   21.3610 C   0  0  0  0  0  0  0  0  0  0  0  0
  -22.4310  -12.7420   22.2660 N   0  0  0  0  0  0  0  0  0  0  0  0
  -22.5360  -14.5550   20.9780 O   0  0  0  0  0  0  0  0  0  0  0  0
  -22.8460  -11.8850   22.6030 H   0  0  0  0  0  0  0  0  0  0  0  0
  -21.5300  -13.0260   22.6230 H   0  0  0  0  0  0  0  0  0  0  0  0
  -25.5450  -15.2440   20.3470 N   0  0  0  0  0  0  0  0  0  0  0  0
  -24.8090  -15.8820   20.6280 H   0  0  0  0  0  0  0  0  0  0  0  0
  -26.3170  -15.7050   19.8800 H   0  0  0  0  0  0  0  0  0  0  0  0
  -29.7310  -24.0690   20.0700 C   0  0  0  0  0  2  0  0  0  0  0  0
  -30.5380  -25.2940   20.6100 C   0  0  0  0  0  2  0  0  0  0  0  0
  -29.7090  -26.6050   20.7810 C   0  0  0  0  0  2  0  0  0  0  0  0
  -28.7580  -26.6870   19.7300 O   0  0  0  0  0  0  0  0  0  0  0  0
  -24.7200  -31.6060   23.1190 C   0  0  0  0  0  0  0  0  0  0  0  0
  -27.5890  -27.3940   19.9050 C   0  0  0  0  0  0  0  0  0  0  0  0
  -23.5850  -30.1960   21.4340 C   0  0  0  0  0  3  0  0  0  0  0  0
  -25.1140  -28.7600   19.9840 C   0  0  0  0  0  0  0  0  0  0  0  0
  -26.0930  -30.6710   21.2610 C   0  0  0  0  0  2  0  0  0  0  0  0
  -26.2470  -29.3200   20.5960 C   0  0  0  0  0  0  0  0  0  0  0  0
  -27.4870  -28.6390   20.5680 C   0  0  0  0  0  3  0  0  0  0  0  0
  -26.4400  -26.8450   19.3000 C   0  0  0  0  0  3  0  0  0  0  0  0
  -25.2040  -27.5140   19.3430 C   0  0  0  0  0  3  0  0  0  0  0  0
  -23.8320  -29.5610   20.0400 C   0  0  0  0  0  2  0  0  0  0  0  0
  -24.8160  -30.8390   21.9960 N   0  0  0  0  0  0  0  0  0  0  0  0
  -23.6260  -31.8130   23.6610 O   0  0  0  0  0  0  0  0  0  0  0  0
  -22.9760  -29.1210   22.3620 C   0  0  0  0  0  0  0  0  0  0  0  0
  -21.6610  -28.8840   22.2250 N   0  0  0  0  0  0  0  0  0  0  0  0
  -23.6830  -28.5030   23.1610 O   0  0  0  0  0  0  0  0  0  0  0  0
  -21.1480  -29.4370   21.5530 H   0  0  0  0  0  0  0  0  0  0  0  0
  -18.3410  -27.5370   22.6790 C   0  0  0  0  0  0  0  0  0  0  0  0
  -20.8860  -27.8910   22.9650 C   0  0  0  0  0  3  0  0  0  0  0  0
  -21.0480  -26.4830   22.3470 C   0  0  0  0  0  2  0  0  0  0  0  0
  -19.9610  -26.1450   21.3210 C   0  0  0  0  0  2  0  0  0  0  0  0
  -18.5730  -26.2160   21.9650 C   0  0  0  0  0  2  0  0  0  0  0  0
  -19.4270  -28.3300   23.1350 C   0  0  0  0  0  0  0  0  0  0  0  0
  -19.1550  -29.5650   23.7620 C   0  0  0  0  0  3  0  0  0  0  0  0
  -17.8320  -30.0100   23.9360 C   0  0  0  0  0  3  0  0  0  0  0  0
  -16.7600  -29.2130   23.4980 C   0  0  0  0  0  3  0  0  0  0  0  0
  -17.0150  -27.9780   22.8750 C   0  0  0  0  0  3  0  0  0  0  0  0
  -25.9750  -32.2770   23.7590 C   0  0  0  0  0  3  0  0  0  0  0  0
  -26.5220  -31.4990   25.0180 C   0  0  1  0  0  0  0  0  0  0  0  0
  -25.4390  -31.1870   26.0750 C   0  0  0  0  0  1  0  0  0  0  0  0
  -27.1680  -30.1590   24.5940 C   0  0  0  0  0  1  0  0  0  0  0  0
  -27.6300  -32.3290   25.7050 C   0  0  0  0  0  1  0  0  0  0  0  0
  -25.6040  -33.6520   24.1180 N   0  0  0  0  0  0  0  0  0  0  0  0
  -25.8930  -34.7340   23.3820 C   0  0  0  0  0  0  0  0  0  0  0  0
  -26.5700  -34.6810   22.3510 O   0  0  0  0  0  0  0  0  0  0  0  0
  -25.0030  -33.7640   24.9200 H   0  0  0  0  0  0  0  0  0  0  0  0
  -24.0850  -36.4530   23.0560 C   0  0  0  0  0  1  0  0  0  0  0  0
  -25.3410  -36.0890   23.8640 C   0  0  0  0  0  3  0  0  0  0  0  0
  -27.4370  -37.0460   24.7140 C   0  0  0  0  0  1  0  0  0  0  0  0
  -26.3240  -37.1900   23.7790 N   0  0  0  0  0  0  0  0  0  0  0  0
  -25.8770  -38.0860   23.9570 H   0  0  0  0  0  0  0  0  0  0  0  0
  2  1  1  0
  3  1  1  0
  4  7  1  0
  4  5  1  0
  4  2  1  0
  5  3  1  0
  5  6  1  6
  7  8  1  0
  8 10  1  0
  9  7  2  0
 11 24  1  0
 12 17  1  0
 13 14  1  0
 13 12  1  0
 15 14  1  0
 15 28  1  0
 15 16  1  0
 17 11  1  0
 17 16  1  0
 18 11  2  0
 20 19  1  0
 21 19  1  0
 22 23  1  0
 22 24  1  0
 23  8  1  0
 23 20  1  0
 24 21  1  0
 25 26  2  0
 26 45  1  0
 27 30  1  0
 27 26  1  0
 28 29  1  0
 28 25  1  0
 29 27  2  0
 30 31  1  0
 31 32  2  0
 33 36  1  0
 33 32  1  0
 34 33  2  0
 35 34  1  0
 35 30  2  0
 36 37  1  0
 37 38  1  0
 38 39  2  0
 40 39  1  0
 40 44  1  0
 41 40  2  0
 42 37  2  0
 42 41  1  0
 43 42  1  0
 45 46  1  0
 46 48  1  0
 46 49  1  0
 47 45  2  0
 50 25  1  0
 50 51  1  0
 52 50  1  0
 53 54  1  0
 53  5  1  0
 54 55  1  0
 56 58  1  0
 56 55  1  0
 57 68  2  0
 58 63  1  0
 59 67  1  0
 59 69  1  0
 60 66  1  0
 60 62  1  0
 61 67  1  0
 62 61  1  0
 63 62  2  0
 64 65  1  0
 64 58  2  0
 65 60  2  0
 66 59  1  0
 67 57  1  0
 69 71  2  0
 70 69  1  0
 72 70  1  0
 73 82  2  0
 73 78  1  0
 74 70  1  0
 74 78  1  0
 75 74  1  0
 76 77  1  0
 76 75  1  0
 77 73  1  0
 78 79  2  0
 79 80  1  0
 81 80  2  0
 82 81  1  0
 83 57  1  0
 83 88  1  0
 83 84  1  0
 84 87  1  1
 84 85  1  0
 86 84  1  0
 88 91  1  0
 89 93  1  0
 89 88  1  0
 90 89  2  0
 93 92  1  0
 95 93  1  0
 95 96  1  0
 95 94  1  0
M  ISO  4  11 100  24 100  55 101  56 101
M  END
>  <TORSDO>  (54) 
F 20

>  <SCORE>  (54) 
-9.803

>  <name>  (54) 
54

>  <ligand_id>  (54) 
54

>  <original_smiles>  (54) 
[H]c1c([H])c([H])c2c(c1[H])C([H])([H])C([H])([H])C([H])([H])C2([H])N([H])C(=O)C1([H])N(C(=O)C([H])(N([H])C(=O)C([H])(N([H])C([H])([H])[H])C([H])([H])[H])C(C([H])([H])[H])(C([H])([H])[H])C([H])([H])[H])C([H])([H])c2c([H])c(OC([H])([H])C([H])([H])C([H])([H])[N+]3([H])C([H])([H])C([H])([H])C([H])([H])C3([H])C(=O)N([H])C3([H])C([H])([H])N(C(=O)N4C([H])([H])C([H])([H])C([H])([H])C([H])(n5nc(-c6c([H])c([H])c(Oc7c([H])c([H])c(F)c([H])c7F)c([H])c6[H])c(C(=O)N([H])[H])c5N([H])[H])C4([H])[H])C([H])([H])C([H])([H])C3([H])[H])c([H])c([H])c2C1([H])[H]

>  <smiles>  (54) 
[H]c1c([H])c([H])c2c(c1[H])C([H])([H])C([H])([H])C([H])([H])C2([H])N([H])C(=O)C1([H])N(C(=O)C([H])(N([H])C(=O)C([H])(N([H])C([H])([H])[H])C([H])([H])[H])C(C([H])([H])[H])(C([H])([H])[H])C([H])([H])[H])C([H])([H])c2c([H])c(OC([H])([H])C([H])([H])C([H])([H])[N+]3([H])C([H])([H])C([H])([H])C([H])([H])C3([H])C(=O)N([H])C3([H])C([H])([H])N(C(=O)N4C([H])([H])C([H])([H])C([H])([H])C([H])(n5nc(-c6c([H])c([H])c(Oc7c([H])c([H])c(F)c([H])c7F)c([H])c6[H])c(C(=O)N([H])[H])c5N([H])[H])C4([H])[H])C([H])([H])C([H])([H])C3([H])[H])c([H])c([H])c2C1([H])[H]

$$$$
55:0:0
     RDKit          3D

 97106  0  0  1  0  0  0  0  0999 V2000
  -31.6340  -20.7160   21.7750 C   0  0  0  0  0  2  0  0  0  0  0  0
  -30.5900  -20.5950   24.1500 C   0  0  0  0  0  2  0  0  0  0  0  0
  -31.6580  -22.2310   21.9610 C   0  0  0  0  0  2  0  0  0  0  0  0
  -30.6450  -22.1370   24.1610 C   0  0  0  0  0  2  0  0  0  0  0  0
  -31.5500  -19.9390   23.1100 C   0  0  0  0  0  3  0  0  0  0  0  0
  -30.4820  -22.6130   22.7700 N   0  0  1  0  0  4  0  0  0  0  0  0
  -29.7090  -22.0690   22.4170 H   0  0  0  0  0  0  0  0  0  0  0  0
  -32.1170  -17.7350   21.9920 C   0  0  0  0  0  3  0  0  0  0  0  0
  -29.9260  -17.9590   23.0330 C   0  0  0  0  0  3  0  0  0  0  0  0
  -31.7390  -16.4840   21.4670 C   0  0  0  0  0  3  0  0  0  0  0  0
  -29.5550  -16.7010   22.5320 C   0  0  0  0  0  3  0  0  0  0  0  0
  -31.2050  -18.4950   22.7550 C   0  0  0  0  0  0  0  0  0  0  0  0
  -30.4410  -15.9820   21.7120 C   0  0  0  0  0  0  0  0  0  0  0  0
  -30.1250  -14.3190   19.9230 C   0  0  0  0  0  0  0  0  0  0  0  0
  -29.6500  -12.3680   18.4880 C   0  0  0  0  0  2  0  0  0  0  0  0
  -28.5190  -12.6130   17.4760 C   0  0  0  0  0  2  0  0  0  0  0  0
  -27.1460  -12.3270   18.1130 C   0  0  0  0  0  2  0  0  0  0  0  0
  -26.9640  -13.0520   19.4700 C   0  0  0  0  0  3  0  0  0  0  0  0
  -28.1770  -12.7940   20.3870 C   0  0  0  0  0  2  0  0  0  0  0  0
  -29.4090  -13.1960   19.6770 N   0  0  0  0  0  0  0  0  0  0  0  0
  -30.9250  -14.8100   19.1170 O   0  0  0  0  0  0  0  0  0  0  0  0
  -29.9930  -14.7560   21.1820 N   0  0  0  0  0  0  0  0  0  0  0  0
  -29.2990  -14.2590   21.7200 H   0  0  0  0  0  0  0  0  0  0  0  0
  -24.6470  -13.4540   20.5300 C   0  0  0  0  0  0  0  0  0  0  0  0
  -23.7000  -12.5890   21.0090 C   0  0  0  0  0  0  0  0  0  0  0  0
  -24.2470  -11.2790   20.8520 C   0  0  0  0  0  0  0  0  0  0  0  0
  -25.7110  -12.6640   20.1160 N   0  0  0  0  0  0  0  0  0  0  0  0
  -25.4790  -11.3490   20.3630 N   0  0  0  0  0  0  0  0  0  0  0  0
  -23.6480   -9.9580   21.0830 C   0  0  0  0  0  0  0  0  0  0  0  0
  -24.1860   -9.0600   22.0310 C   0  0  0  0  0  3  0  0  0  0  0  0
  -23.5820   -7.8020   22.2480 C   0  0  0  0  0  3  0  0  0  0  0  0
  -22.4270   -7.4340   21.5170 C   0  0  0  0  0  0  0  0  0  0  0  0
  -21.9100   -8.3230   20.5580 C   0  0  0  0  0  3  0  0  0  0  0  0
  -22.5140   -9.5720   20.3400 C   0  0  0  0  0  3  0  0  0  0  0  0
  -21.7890   -6.2240   21.6430 O   0  0  0  0  0  0  0  0  0  0  0  0
  -21.7250   -5.5650   22.8440 C   0  0  0  0  0  0  0  0  0  0  0  0
  -21.1570   -6.1600   23.9910 C   0  0  0  0  0  3  0  0  0  0  0  0
  -21.0490   -5.4220   25.1870 C   0  0  0  0  0  3  0  0  0  0  0  0
  -21.4990   -4.0890   25.2360 C   0  0  0  0  0  0  0  0  0  0  0  0
  -22.0590   -3.4920   24.0930 C   0  0  0  0  0  3  0  0  0  0  0  0
  -22.1690   -4.2280   22.8990 C   0  0  0  0  0  0  0  0  0  0  0  0
  -22.6910   -3.6430   21.7950 F   0  0  0  0  0  0  0  0  0  0  0  0
  -21.3870   -3.3770   26.3810 F   0  0  0  0  0  0  0  0  0  0  0  0
  -22.3260  -12.9460   21.4980 C   0  0  0  0  0  0  0  0  0  0  0  0
  -21.7910  -12.1780   22.4400 N   0  0  0  0  0  0  0  0  0  0  0  0
  -21.7380  -13.9430   21.0790 O   0  0  0  0  0  0  0  0  0  0  0  0
  -22.2830  -11.3730   22.7980 H   0  0  0  0  0  0  0  0  0  0  0  0
  -20.8770  -12.3980   22.8090 H   0  0  0  0  0  0  0  0  0  0  0  0
  -24.6900  -14.8380   20.3950 N   0  0  0  0  0  0  0  0  0  0  0  0
  -23.9060  -15.4330   20.6410 H   0  0  0  0  0  0  0  0  0  0  0  0
  -25.4610  -15.3500   19.9840 H   0  0  0  0  0  0  0  0  0  0  0  0
  -30.0280  -24.0070   22.5730 C   0  0  0  0  0  2  0  0  0  0  0  0
  -29.1110  -24.0500   21.3330 C   0  0  0  0  0  2  0  0  0  0  0  0
  -28.7860  -25.4470   20.8020 C   0  0  0  0  0  3  0  0  0  0  0  0
  -28.1490  -26.1380   21.7510 F   0  0  0  0  0  0  0  0  0  0  0  0
  -27.9150  -25.3600   19.5360 C   0  0  0  0  0  2  0  0  0  0  0  0
  -27.8450  -26.6450   18.9380 O   0  0  0  0  0  0  0  0  0  0  0  0
  -24.6540  -31.4780   23.0230 C   0  0  0  0  0  0  0  0  0  0  0  0
  -26.7040  -27.3570   19.1890 C   0  0  0  0  0  0  0  0  0  0  0  0
  -23.2000  -30.3450   21.3690 C   0  0  0  0  0  3  0  0  0  0  0  0
  -24.4040  -28.9200   19.6330 C   0  0  0  0  0  0  0  0  0  0  0  0
  -25.7040  -30.6150   20.9400 C   0  0  0  0  0  2  0  0  0  0  0  0
  -25.6420  -29.3300   20.1460 C   0  0  0  0  0  0  0  0  0  0  0  0
  -26.7960  -28.5550   19.9190 C   0  0  0  0  0  3  0  0  0  0  0  0
  -25.4540  -26.9430   18.6800 C   0  0  0  0  0  3  0  0  0  0  0  0
  -24.3020  -27.7220   18.9020 C   0  0  0  0  0  3  0  0  0  0  0  0
  -23.2240  -29.8240   19.9060 C   0  0  0  0  0  2  0  0  0  0  0  0
  -24.5440  -30.8180   21.8360 N   0  0  0  0  0  0  0  0  0  0  0  0
  -23.6530  -31.7350   23.7060 O   0  0  0  0  0  0  0  0  0  0  0  0
  -22.5890  -29.2500   22.2710 C   0  0  0  0  0  0  0  0  0  0  0  0
  -21.2570  -29.0940   22.1990 N   0  0  0  0  0  0  0  0  0  0  0  0
  -23.3060  -28.5470   22.9870 O   0  0  0  0  0  0  0  0  0  0  0  0
  -20.7400  -29.7140   21.5910 H   0  0  0  0  0  0  0  0  0  0  0  0
  -17.9060  -27.8430   22.6940 C   0  0  0  0  0  0  0  0  0  0  0  0
  -20.4680  -28.1000   22.9250 C   0  0  0  0  0  3  0  0  0  0  0  0
  -20.5670  -26.7120   22.2520 C   0  0  0  0  0  2  0  0  0  0  0  0
  -19.4430  -26.4480   21.2450 C   0  0  0  0  0  2  0  0  0  0  0  0
  -18.0760  -26.5410   21.9300 C   0  0  0  0  0  2  0  0  0  0  0  0
  -19.0300  -28.5830   23.1480 C   0  0  0  0  0  0  0  0  0  0  0  0
  -18.8190  -29.8050   23.8220 C   0  0  0  0  0  3  0  0  0  0  0  0
  -17.5160  -30.2860   24.0490 C   0  0  0  0  0  3  0  0  0  0  0  0
  -16.4070  -29.5400   23.6150 C   0  0  0  0  0  3  0  0  0  0  0  0
  -16.6020  -28.3210   22.9420 C   0  0  0  0  0  3  0  0  0  0  0  0
  -26.0350  -31.9590   23.5680 C   0  0  0  0  0  3  0  0  0  0  0  0
  -25.8520  -33.3200   24.0890 N   0  0  0  0  0  0  0  0  0  0  0  0
  -26.2150  -34.4360   23.4430 C   0  0  0  0  0  0  0  0  0  0  0  0
  -26.8110  -34.4210   22.3610 O   0  0  0  0  0  0  0  0  0  0  0  0
  -25.3230  -33.4100   24.9440 H   0  0  0  0  0  0  0  0  0  0  0  0
  -24.6190  -36.3770   23.4140 C   0  0  0  0  0  1  0  0  0  0  0  0
  -25.8600  -35.7830   24.0990 C   0  0  0  0  0  3  0  0  0  0  0  0
  -28.0900  -36.3940   24.9200 C   0  0  0  0  0  1  0  0  0  0  0  0
  -26.9660  -36.7640   24.0650 N   0  0  0  0  0  0  0  0  0  0  0  0
  -26.6400  -37.6840   24.3490 H   0  0  0  0  0  0  0  0  0  0  0  0
  -26.6320  -31.0100   24.6780 C   0  0  1  0  0  0  0  0  0  0  0  0
  -25.6380  -30.6840   25.8170 C   0  0  0  0  0  1  0  0  0  0  0  0
  -27.0960  -29.6720   24.0570 C   0  0  0  0  0  1  0  0  0  0  0  0
  -27.8840  -31.6640   25.3100 C   0  0  0  0  0  1  0  0  0  0  0  0
  1  3  1  0
  1  5  1  0
  2  4  1  0
  3  6  1  0
  5 12  1  0
  5  2  1  0
  6  4  1  0
  6  7  1  6
  8 12  1  0
 10 13  1  0
 10  8  2  0
 11  9  1  0
 12  9  2  0
 13 11  2  0
 14 22  1  0
 15 20  1  0
 16 17  1  0
 16 15  1  0
 18 17  1  0
 18 27  1  0
 18 19  1  0
 20 14  1  0
 20 19  1  0
 21 14  2  0
 22 13  1  0
 22 23  1  0
 24 25  2  0
 25 44  1  0
 26 25  1  0
 26 29  1  0
 27 28  1  0
 27 24  1  0
 28 26  2  0
 29 30  1  0
 30 31  2  0
 32 35  1  0
 32 31  1  0
 33 32  2  0
 34 33  1  0
 34 29  2  0
 35 36  1  0
 36 41  2  0
 36 37  1  0
 37 38  2  0
 38 39  1  0
 39 43  1  0
 40 39  2  0
 41 40  1  0
 42 41  1  0
 44 45  1  0
 45 47  1  0
 45 48  1  0
 46 44  2  0
 49 24  1  0
 49 50  1  0
 51 49  1  0
 52  6  1  0
 53 52  1  0
 54 53  1  0
 54 55  1  0
 56 54  1  0
 57 59  1  0
 57 56  1  0
 58 69  2  0
 59 64  1  0
 60 68  1  0
 60 70  1  0
 61 67  1  0
 61 63  1  0
 62 68  1  0
 63 62  1  0
 64 63  2  0
 65 66  1  0
 65 59  2  0
 66 61  2  0
 67 60  1  0
 68 58  1  0
 70 72  2  0
 71 70  1  0
 73 71  1  0
 74 83  2  0
 74 79  1  0
 75 71  1  0
 75 79  1  0
 76 75  1  0
 77 78  1  0
 77 76  1  0
 78 74  1  0
 79 80  2  0
 80 81  1  0
 82 81  2  0
 83 82  1  0
 84 58  1  0
 84 85  1  0
 84 94  1  0
 85 88  1  0
 86 85  1  0
 86 90  1  0
 87 86  2  0
 90 89  1  0
 92 90  1  0
 92 93  1  0
 92 91  1  0
 94 97  1  1
 94 95  1  0
 96 94  1  0
M  ISO  4  14 100  22 100  56 101  57 101
M  END
>  <TORSDO>  (55) 
F 21

>  <SCORE>  (55) 
-7.972

>  <name>  (55) 
55

>  <ligand_id>  (55) 
55

>  <original_smiles>  (55) 
[H]c1c([H])c([H])c2c(c1[H])C([H])([H])C([H])([H])C([H])([H])C2([H])N([H])C(=O)C1([H])N(C(=O)C([H])(N([H])C(=O)C([H])(N([H])C([H])([H])[H])C([H])([H])[H])C(C([H])([H])[H])(C([H])([H])[H])C([H])([H])[H])C([H])([H])c2c([H])c(OC([H])([H])C([H])(F)C([H])([H])C([H])([H])[N+]3([H])C([H])([H])C([H])([H])C([H])(c4c([H])c([H])c(N([H])C(=O)N5C([H])([H])C([H])([H])C([H])([H])C([H])(n6nc(-c7c([H])c([H])c(Oc8c([H])c([H])c(F)c([H])c8F)c([H])c7[H])c(C(=O)N([H])[H])c6N([H])[H])C5([H])[H])c([H])c4[H])C([H])([H])C3([H])[H])c([H])c([H])c2C1([H])[H]

>  <smiles>  (55) 
[H]c1c([H])c([H])c2c(c1[H])C([H])([H])C([H])([H])C([H])([H])C2([H])N([H])C(=O)C1([H])N(C(=O)C([H])(N([H])C(=O)C([H])(N([H])C([H])([H])[H])C([H])([H])[H])C(C([H])([H])[H])(C([H])([H])[H])C([H])([H])[H])C([H])([H])c2c([H])c(OC([H])([H])C([H])(F)C([H])([H])C([H])([H])[N+]3([H])C([H])([H])C([H])([H])C([H])(c4c([H])c([H])c(N([H])C(=O)N5C([H])([H])C([H])([H])C([H])([H])C([H])(n6nc(-c7c([H])c([H])c(Oc8c([H])c([H])c(F)c([H])c8F)c([H])c7[H])c(C(=O)N([H])[H])c6N([H])[H])C5([H])[H])c([H])c4[H])C([H])([H])C3([H])[H])c([H])c([H])c2C1([H])[H]

$$$$
56:0:0
     RDKit          3D

100108  0  0  1  0  0  0  0  0999 V2000
  -28.7550  -18.5540   20.6230 C   0  0  0  0  0  2  0  0  0  0  0  0
  -28.3300  -20.0370   17.0470 C   0  0  0  0  0  2  0  0  0  0  0  0
  -30.4480  -18.6010   17.2570 C   0  0  0  0  0  2  0  0  0  0  0  0
  -27.8690  -19.5980   18.4680 C   0  0  0  0  0  2  0  0  0  0  0  0
  -29.8750  -20.0100   16.8930 C   0  0  0  0  0  3  0  0  0  0  0  0
  -29.5420  -17.8070   18.2460 C   0  0  0  0  0  3  0  0  0  0  0  0
  -28.9500  -18.8220   19.1730 N   0  0  2  0  0  4  0  0  0  0  0  0
  -29.7070  -19.4800   19.2350 H   0  0  0  0  0  0  0  0  0  0  0  0
  -30.3260  -20.5110   15.5720 N   0  0  0  0  0  4  0  0  0  0  0  0
  -30.1490  -19.8730   14.8150 H   0  0  0  0  0  0  0  0  0  0  0  0
  -31.3150  -20.7050   15.5850 H   0  0  0  0  0  0  0  0  0  0  0  0
  -29.8720  -21.3810   15.3660 H   0  0  0  0  0  0  0  0  0  0  0  0
  -30.1100  -16.3920   18.6740 C   0  0  0  0  0  2  0  0  0  0  0  0
  -31.0450  -14.8150   20.2490 C   0  0  0  0  0  0  0  0  0  0  0  0
  -30.7680  -12.5680   19.3220 C   0  0  0  0  0  2  0  0  0  0  0  0
  -29.8280  -12.6420   18.1050 C   0  0  0  0  0  2  0  0  0  0  0  0
  -28.3540  -12.5290   18.5450 C   0  0  0  0  0  2  0  0  0  0  0  0
  -27.9860  -13.4560   19.7380 C   0  0  0  0  0  3  0  0  0  0  0  0
  -29.0540  -13.3960   20.8540 C   0  0  0  0  0  2  0  0  0  0  0  0
  -30.3630  -13.6420   20.2350 N   0  0  0  0  0  0  0  0  0  0  0  0
  -32.2560  -14.8890   20.0420 O   0  0  0  0  0  0  0  0  0  0  0  0
  -30.3120  -15.9370   20.0710 N   0  0  0  0  0  0  0  0  0  0  0  0
  -30.7330  -16.6750   20.6240 H   0  0  0  0  0  0  0  0  0  0  0  0
  -25.5970  -14.0670   20.4500 C   0  0  0  0  0  0  0  0  0  0  0  0
  -24.5200  -13.3030   20.8220 C   0  0  0  0  0  0  0  0  0  0  0  0
  -24.9740  -11.9490   20.7850 C   0  0  0  0  0  0  0  0  0  0  0  0
  -26.6390  -13.1810   20.2290 N   0  0  0  0  0  0  0  0  0  0  0  0
  -26.2650  -11.9030   20.4890 N   0  0  0  0  0  0  0  0  0  0  0  0
  -24.2390  -10.6910   20.9680 C   0  0  0  0  0  0  0  0  0  0  0  0
  -24.6390   -9.7340   21.9280 C   0  0  0  0  0  3  0  0  0  0  0  0
  -23.9010   -8.5440   22.1040 C   0  0  0  0  0  3  0  0  0  0  0  0
  -22.7520   -8.2970   21.3180 C   0  0  0  0  0  0  0  0  0  0  0  0
  -22.3710   -9.2430   20.3470 C   0  0  0  0  0  3  0  0  0  0  0  0
  -23.1110  -10.4240   20.1700 C   0  0  0  0  0  3  0  0  0  0  0  0
  -21.9900   -7.1560   21.3980 O   0  0  0  0  0  0  0  0  0  0  0  0
  -21.8780   -6.4450   22.5650 C   0  0  0  0  0  0  0  0  0  0  0  0
  -21.3470   -7.0220   23.7400 C   0  0  0  0  0  3  0  0  0  0  0  0
  -21.1900   -6.2410   24.9010 C   0  0  0  0  0  3  0  0  0  0  0  0
  -21.5520   -4.8790   24.8890 C   0  0  0  0  0  0  0  0  0  0  0  0
  -22.0780   -4.3010   23.7200 C   0  0  0  0  0  3  0  0  0  0  0  0
  -22.2360   -5.0820   22.5610 C   0  0  0  0  0  0  0  0  0  0  0  0
  -22.7220   -4.5160   21.4310 F   0  0  0  0  0  0  0  0  0  0  0  0
  -21.3900   -4.1250   26.0010 F   0  0  0  0  0  0  0  0  0  0  0  0
  -23.1290  -13.7910   21.0890 C   0  0  0  0  0  0  0  0  0  0  0  0
  -22.3950  -13.0950   21.9550 N   0  0  0  0  0  0  0  0  0  0  0  0
  -22.7020  -14.8230   20.5720 O   0  0  0  0  0  0  0  0  0  0  0  0
  -22.7620  -12.2660   22.3990 H   0  0  0  0  0  0  0  0  0  0  0  0
  -21.4550  -13.3890   22.1710 H   0  0  0  0  0  0  0  0  0  0  0  0
  -25.7540  -15.4330   20.2620 N   0  0  0  0  0  0  0  0  0  0  0  0
  -24.9700  -16.0690   20.3500 H   0  0  0  0  0  0  0  0  0  0  0  0
  -26.5810  -15.8660   19.8740 H   0  0  0  0  0  0  0  0  0  0  0  0
  -28.5710  -19.8620   21.4490 C   0  0  0  0  0  2  0  0  0  0  0  0
  -29.5460  -21.0500   21.1300 C   0  0  0  0  0  2  0  0  0  0  0  0
  -28.9640  -22.3950   21.4110 N   0  0  0  0  0  4  0  0  0  0  0  0
  -28.7520  -22.4600   22.3930 H   0  0  0  0  0  0  0  0  0  0  0  0
  -28.0930  -22.4990   20.9150 H   0  0  0  0  0  0  0  0  0  0  0  0
  -29.8570  -23.5240   21.0340 C   0  0  0  0  0  2  0  0  0  0  0  0
  -29.2140  -24.9340   21.1700 C   0  0  0  0  0  2  0  0  0  0  0  0
  -28.8910  -25.6390   19.8290 C   0  0  0  0  0  2  0  0  0  0  0  0
  -28.7890  -27.0620   19.9990 O   0  0  0  0  0  0  0  0  0  0  0  0
  -24.6970  -31.8280   23.2800 C   0  0  0  0  0  0  0  0  0  0  0  0
  -27.5610  -27.6960   20.0010 C   0  0  0  0  0  0  0  0  0  0  0  0
  -23.5700  -30.4970   21.5240 C   0  0  0  0  0  3  0  0  0  0  0  0
  -25.1050  -29.1060   20.0380 C   0  0  0  0  0  0  0  0  0  0  0  0
  -26.0750  -30.9700   21.3910 C   0  0  0  0  0  2  0  0  0  0  0  0
  -26.2240  -29.6350   20.6920 C   0  0  0  0  0  0  0  0  0  0  0  0
  -27.4470  -28.9320   20.6760 C   0  0  0  0  0  3  0  0  0  0  0  0
  -26.4230  -27.1900   19.3280 C   0  0  0  0  0  3  0  0  0  0  0  0
  -25.1970  -27.8810   19.3570 C   0  0  0  0  0  3  0  0  0  0  0  0
  -23.8350  -29.9200   20.1040 C   0  0  0  0  0  2  0  0  0  0  0  0
  -24.7980  -31.1100   22.1270 N   0  0  0  0  0  0  0  0  0  0  0  0
  -23.5970  -32.0220   23.8150 O   0  0  0  0  0  0  0  0  0  0  0  0
  -22.9490  -29.3860   22.4010 C   0  0  0  0  0  0  0  0  0  0  0  0
  -21.6340  -29.1720   22.2470 N   0  0  0  0  0  0  0  0  0  0  0  0
  -23.6430  -28.7220   23.1750 O   0  0  0  0  0  0  0  0  0  0  0  0
  -21.1320  -29.7900   21.6260 H   0  0  0  0  0  0  0  0  0  0  0  0
  -18.2920  -27.8610   22.6200 C   0  0  0  0  0  0  0  0  0  0  0  0
  -20.8390  -28.1550   22.9300 C   0  0  0  0  0  3  0  0  0  0  0  0
  -20.9760  -26.7690   22.2560 C   0  0  0  0  0  2  0  0  0  0  0  0
  -19.8900  -26.5030   21.2080 C   0  0  0  0  0  2  0  0  0  0  0  0
  -18.5020  -26.5750   21.8450 C   0  0  0  0  0  2  0  0  0  0  0  0
  -19.3890  -28.6090   23.1170 C   0  0  0  0  0  0  0  0  0  0  0  0
  -19.1390  -29.8140   23.8060 C   0  0  0  0  0  3  0  0  0  0  0  0
  -17.8240  -30.2720   23.9980 C   0  0  0  0  0  3  0  0  0  0  0  0
  -16.7420  -29.5210   23.5140 C   0  0  0  0  0  3  0  0  0  0  0  0
  -16.9730  -28.3130   22.8340 C   0  0  0  0  0  3  0  0  0  0  0  0
  -25.9430  -32.4680   23.9640 C   0  0  0  0  0  3  0  0  0  0  0  0
  -26.4140  -31.6840   25.2490 C   0  0  1  0  0  0  0  0  0  0  0  0
  -25.2830  -31.4100   26.2670 C   0  0  0  0  0  1  0  0  0  0  0  0
  -27.0300  -30.3240   24.8530 C   0  0  0  0  0  1  0  0  0  0  0  0
  -27.5220  -32.4770   25.9780 C   0  0  0  0  0  1  0  0  0  0  0  0
  -25.6010  -33.8570   24.2970 N   0  0  0  0  0  0  0  0  0  0  0  0
  -25.9540  -34.9210   23.5650 C   0  0  0  0  0  0  0  0  0  0  0  0
  -26.6750  -34.8360   22.5660 O   0  0  0  0  0  0  0  0  0  0  0  0
  -24.9560  -33.9970   25.0600 H   0  0  0  0  0  0  0  0  0  0  0  0
  -24.2260  -36.7020   23.1560 C   0  0  0  0  0  1  0  0  0  0  0  0
  -25.4320  -36.3020   24.0180 C   0  0  0  0  0  3  0  0  0  0  0  0
  -27.5140  -37.2030   24.9600 C   0  0  0  0  0  1  0  0  0  0  0  0
  -26.4590  -37.3680   23.9610 N   0  0  0  0  0  0  0  0  0  0  0  0
  -26.0360  -38.2830   24.1020 H   0  0  0  0  0  0  0  0  0  0  0  0
  1 52  1  0
  2  4  1  0
  3  6  1  0
  4  7  1  0
  5  9  1  0
  5  2  1  0
  5  3  1  0
  6 13  1  0
  6  7  1  0
  7  8  1  1
  7  1  1  0
  9 11  1  0
 10  9  1  0
 12  9  1  0
 13 22  1  0
 15 20  1  0
 16 17  1  0
 16 15  1  0
 18 17  1  0
 18 27  1  0
 18 19  1  0
 20 14  1  0
 20 19  1  0
 21 14  2  0
 22 14  1  0
 22 23  1  0
 24 25  2  0
 25 44  1  0
 26 25  1  0
 26 29  1  0
 27 24  1  0
 27 28  1  0
 28 26  2  0
 29 30  1  0
 30 31  2  0
 32 35  1  0
 32 31  1  0
 33 32  2  0
 34 33  1  0
 34 29  2  0
 35 36  1  0
 36 37  1  0
 37 38  2  0
 39 38  1  0
 39 43  1  0
 40 39  2  0
 41 36  2  0
 41 40  1  0
 42 41  1  0
 44 45  1  0
 45 48  1  0
 45 47  1  0
 46 44  2  0
 49 50  1  0
 49 24  1  0
 51 49  1  0
 53 54  1  0
 53 52  1  0
 54 55  1  0
 56 54  1  0
 57 58  1  0
 57 54  1  0
 59 60  1  0
 59 58  1  0
 60 62  1  0
 61 72  2  0
 62 67  1  0
 63 71  1  0
 63 73  1  0
 64 70  1  0
 64 66  1  0
 65 71  1  0
 66 65  1  0
 67 66  2  0
 68 69  1  0
 68 62  2  0
 69 64  2  0
 70 63  1  0
 71 61  1  0
 73 75  2  0
 74 73  1  0
 76 74  1  0
 77 86  2  0
 77 82  1  0
 78 74  1  0
 78 82  1  0
 79 78  1  0
 80 81  1  0
 80 79  1  0
 81 77  1  0
 82 83  2  0
 83 84  1  0
 85 84  2  0
 86 85  1  0
 87 61  1  0
 87 92  1  0
 87 88  1  0
 88 91  1  1
 88 89  1  0
 90 88  1  0
 92 95  1  0
 93 97  1  0
 93 92  1  0
 94 93  2  0
 97 96  1  0
 99 97  1  0
 99100  1  0
 99 98  1  0
M  ISO  4  14 100  22 100  59 101  60 101
M  END
>  <TORSDO>  (56) 
F 25

>  <SCORE>  (56) 
-11.287

>  <name>  (56) 
56

>  <ligand_id>  (56) 
56

>  <original_smiles>  (56) 
[H]c1c([H])c([H])c2c(c1[H])C([H])([H])C([H])([H])C([H])([H])C2([H])N([H])C(=O)C1([H])N(C(=O)C([H])(N([H])C(=O)C([H])(N([H])C([H])([H])[H])C([H])([H])[H])C(C([H])([H])[H])(C([H])([H])[H])C([H])([H])[H])C([H])([H])c2c([H])c(OC([H])([H])C([H])([H])C([H])([H])[N+]([H])([H])C([H])([H])C([H])([H])C([H])([H])[N+]3([H])C([H])([H])C([H])([H])C([H])([N+]([H])([H])[H])C([H])([H])C3([H])C([H])([H])N([H])C(=O)N3C([H])([H])C([H])([H])C([H])([H])C([H])(n4nc(-c5c([H])c([H])c(Oc6c([H])c([H])c(F)c([H])c6F)c([H])c5[H])c(C(=O)N([H])[H])c4N([H])[H])C3([H])[H])c([H])c([H])c2C1([H])[H]

>  <smiles>  (56) 
[H]c1c([H])c([H])c2c(c1[H])C([H])([H])C([H])([H])C([H])([H])C2([H])N([H])C(=O)C1([H])N(C(=O)C([H])(N([H])C(=O)C([H])(N([H])C([H])([H])[H])C([H])([H])[H])C(C([H])([H])[H])(C([H])([H])[H])C([H])([H])[H])C([H])([H])c2c([H])c(OC([H])([H])C([H])([H])C([H])([H])[N+]([H])([H])C([H])([H])C([H])([H])C([H])([H])[N+]3([H])C([H])([H])C([H])([H])C([H])([N+]([H])([H])[H])C([H])([H])C3([H])C([H])([H])N([H])C(=O)N3C([H])([H])C([H])([H])C([H])([H])C([H])(n4nc(-c5c([H])c([H])c(Oc6c([H])c([H])c(F)c([H])c6F)c([H])c5[H])c(C(=O)N([H])[H])c4N([H])[H])C3([H])[H])c([H])c([H])c2C1([H])[H]

$$$$
57:0:0
     RDKit          3D

 97105  0  0  1  0  0  0  0  0999 V2000
  -26.5580  -21.7700   20.4400 C   0  0  0  0  0  1  0  0  0  0  0  0
  -26.9650  -19.7190   19.0990 C   0  0  0  0  0  1  0  0  0  0  0  0
  -27.6490  -20.9850   19.6700 C   0  0  2  0  0  0  0  0  0  0  0  0
  -28.7690  -20.5960   20.7040 C   0  0  0  0  0  2  0  0  0  0  0  0
  -30.2830  -17.3370   19.3420 C   0  0  0  0  0  2  0  0  0  0  0  0
  -30.5470  -17.3920   21.8560 C   0  0  0  0  0  2  0  0  0  0  0  0
  -29.9930  -18.8390   19.3960 C   0  0  0  0  0  2  0  0  0  0  0  0
  -30.1430  -18.8770   21.8220 C   0  0  0  0  0  2  0  0  0  0  0  0
  -31.1410  -16.8580   20.5320 C   0  0  0  0  0  3  0  0  0  0  0  0
  -29.2830  -19.1970   20.6500 N   0  0  1  0  0  4  0  0  0  0  0  0
  -28.4660  -18.6070   20.7250 H   0  0  0  0  0  0  0  0  0  0  0  0
  -31.6230  -14.4780   19.8170 C   0  0  0  0  0  0  0  0  0  0  0  0
  -31.2140  -12.2050   18.9490 C   0  0  0  0  0  2  0  0  0  0  0  0
  -30.2300  -12.2300   17.7630 C   0  0  0  0  0  2  0  0  0  0  0  0
  -28.7620  -12.2430   18.2360 C   0  0  0  0  0  2  0  0  0  0  0  0
  -28.4990  -13.3030   19.3360 C   0  0  0  0  0  3  0  0  0  0  0  0
  -29.5620  -13.1820   20.4480 C   0  0  0  0  0  2  0  0  0  0  0  0
  -30.9040  -13.3310   19.8380 N   0  0  0  0  0  0  0  0  0  0  0  0
  -32.6090  -14.6750   19.0960 O   0  0  0  0  0  0  0  0  0  0  0  0
  -31.1200  -15.4050   20.6360 N   0  0  0  0  0  0  0  0  0  0  0  0
  -30.4290  -15.0310   21.2690 H   0  0  0  0  0  0  0  0  0  0  0  0
  -26.2090  -14.1840   20.1400 C   0  0  0  0  0  0  0  0  0  0  0  0
  -25.0820  -13.5360   20.5700 C   0  0  0  0  0  0  0  0  0  0  0  0
  -25.3870  -12.1420   20.5200 C   0  0  0  0  0  0  0  0  0  0  0  0
  -27.1410  -13.1920   19.8700 N   0  0  0  0  0  0  0  0  0  0  0  0
  -26.6490  -11.9590   20.1510 N   0  0  0  0  0  0  0  0  0  0  0  0
  -24.5360  -10.9680   20.7490 C   0  0  0  0  0  0  0  0  0  0  0  0
  -24.8870   -9.9760   21.6920 C   0  0  0  0  0  3  0  0  0  0  0  0
  -24.0450   -8.8650   21.9080 C   0  0  0  0  0  3  0  0  0  0  0  0
  -22.8360   -8.7380   21.1830 C   0  0  0  0  0  0  0  0  0  0  0  0
  -22.5010   -9.7180   20.2330 C   0  0  0  0  0  3  0  0  0  0  0  0
  -23.3420  -10.8230   20.0140 C   0  0  0  0  0  3  0  0  0  0  0  0
  -21.9700   -7.6790   21.3110 O   0  0  0  0  0  0  0  0  0  0  0  0
  -21.8330   -6.9990   22.4950 C   0  0  0  0  0  0  0  0  0  0  0  0
  -21.4510   -7.6510   23.6880 C   0  0  0  0  0  3  0  0  0  0  0  0
  -21.2500   -6.9020   24.8640 C   0  0  0  0  0  3  0  0  0  0  0  0
  -21.4220   -5.5060   24.8490 C   0  0  0  0  0  0  0  0  0  0  0  0
  -21.7990   -4.8550   23.6610 C   0  0  0  0  0  3  0  0  0  0  0  0
  -22.0000   -5.6010   22.4870 C   0  0  0  0  0  0  0  0  0  0  0  0
  -22.3380   -4.9660   21.3370 F   0  0  0  0  0  0  0  0  0  0  0  0
  -21.2220   -4.7850   25.9770 F   0  0  0  0  0  0  0  0  0  0  0  0
  -23.7630  -14.1670   20.9100 C   0  0  0  0  0  0  0  0  0  0  0  0
  -23.0300  -13.5910   21.8590 N   0  0  0  0  0  0  0  0  0  0  0  0
  -23.3930  -15.2070   20.3680 O   0  0  0  0  0  0  0  0  0  0  0  0
  -23.3330  -12.7470   22.3200 H   0  0  0  0  0  0  0  0  0  0  0  0
  -22.1480  -14.0050   22.1260 H   0  0  0  0  0  0  0  0  0  0  0  0
  -26.5110  -15.5270   19.9360 N   0  0  0  0  0  0  0  0  0  0  0  0
  -25.7780  -16.2250   19.9960 H   0  0  0  0  0  0  0  0  0  0  0  0
  -27.3120  -15.8330   19.3980 H   0  0  0  0  0  0  0  0  0  0  0  0
  -28.1270  -21.8850   18.4810 C   0  0  0  0  0  2  0  0  0  0  0  0
  -29.0040  -23.0060   18.8940 N   0  0  0  0  0  4  0  0  0  0  0  0
  -28.4900  -23.5600   19.5570 H   0  0  0  0  0  0  0  0  0  0  0  0
  -29.8340  -22.6660   19.3540 H   0  0  0  0  0  0  0  0  0  0  0  0
  -29.4360  -23.9050   17.7980 C   0  0  0  0  0  2  0  0  0  0  0  0
  -29.4860  -25.3690   18.2690 C   0  0  0  0  0  2  0  0  0  0  0  0
  -28.0720  -25.9240   18.4830 C   0  0  0  0  0  2  0  0  0  0  0  0
  -28.0990  -27.1710   19.1580 O   0  0  0  0  0  0  0  0  0  0  0  0
  -24.4800  -31.7350   23.2140 C   0  0  0  0  0  0  0  0  0  0  0  0
  -26.8910  -27.8070   19.3580 C   0  0  0  0  0  0  0  0  0  0  0  0
  -23.1440  -30.5250   21.5200 C   0  0  0  0  0  3  0  0  0  0  0  0
  -24.4760  -29.2170   19.7910 C   0  0  0  0  0  0  0  0  0  0  0  0
  -25.6330  -30.9740   21.1410 C   0  0  0  0  0  2  0  0  0  0  0  0
  -25.6770  -29.6980   20.3270 C   0  0  0  0  0  0  0  0  0  0  0  0
  -26.8820  -29.0010   20.1090 C   0  0  0  0  0  3  0  0  0  0  0  0
  -25.6630  -27.3240   18.8370 C   0  0  0  0  0  3  0  0  0  0  0  0
  -24.4640  -28.0240   19.0510 C   0  0  0  0  0  3  0  0  0  0  0  0
  -23.2290  -30.0250   20.0550 C   0  0  0  0  0  2  0  0  0  0  0  0
  -24.4440  -31.0820   22.0170 N   0  0  0  0  0  0  0  0  0  0  0  0
  -23.4500  -31.9170   23.8760 O   0  0  0  0  0  0  0  0  0  0  0  0
  -22.5950  -29.3750   22.3930 C   0  0  0  0  0  0  0  0  0  0  0  0
  -21.2850  -29.1060   22.2700 N   0  0  0  0  0  0  0  0  0  0  0  0
  -23.3430  -28.7320   23.1340 O   0  0  0  0  0  0  0  0  0  0  0  0
  -20.7410  -29.6840   21.6450 H   0  0  0  0  0  0  0  0  0  0  0  0
  -18.0540  -27.5150   22.5700 C   0  0  0  0  0  0  0  0  0  0  0  0
  -20.5550  -28.0460   22.9630 C   0  0  0  0  0  3  0  0  0  0  0  0
  -20.8440  -26.6660   22.3320 C   0  0  0  0  0  2  0  0  0  0  0  0
  -19.8270  -26.2670   21.2580 C   0  0  0  0  0  2  0  0  0  0  0  0
  -18.4120  -26.2260   21.8460 C   0  0  0  0  0  2  0  0  0  0  0  0
  -19.0610  -28.3760   23.0780 C   0  0  0  0  0  0  0  0  0  0  0  0
  -18.6770  -29.5810   23.7080 C   0  0  0  0  0  3  0  0  0  0  0  0
  -17.3190  -29.9270   23.8300 C   0  0  0  0  0  3  0  0  0  0  0  0
  -16.3250  -29.0600   23.3450 C   0  0  0  0  0  3  0  0  0  0  0  0
  -16.6930  -27.8550   22.7210 C   0  0  0  0  0  3  0  0  0  0  0  0
  -25.8140  -32.3070   23.7910 C   0  0  0  0  0  3  0  0  0  0  0  0
  -25.5710  -33.7040   24.1630 N   0  0  0  0  0  0  0  0  0  0  0  0
  -25.9080  -34.7580   23.4100 C   0  0  0  0  0  0  0  0  0  0  0  0
  -26.5340  -34.6560   22.3520 O   0  0  0  0  0  0  0  0  0  0  0  0
  -25.0290  -33.8650   25.0000 H   0  0  0  0  0  0  0  0  0  0  0  0
  -24.2240  -36.6040   23.1600 C   0  0  0  0  0  1  0  0  0  0  0  0
  -25.4840  -36.1500   23.9130 C   0  0  0  0  0  3  0  0  0  0  0  0
  -27.6750  -36.9520   24.6780 C   0  0  0  0  0  1  0  0  0  0  0  0
  -26.5430  -37.1730   23.7790 N   0  0  0  0  0  0  0  0  0  0  0  0
  -26.1710  -38.1010   23.9600 H   0  0  0  0  0  0  0  0  0  0  0  0
  -26.3630  -31.4880   25.0240 C   0  0  1  0  0  0  0  0  0  0  0  0
  -25.3190  -31.2740   26.1430 C   0  0  0  0  0  1  0  0  0  0  0  0
  -26.8630  -30.0950   24.5730 C   0  0  0  0  0  1  0  0  0  0  0  0
  -27.5810  -32.2200   25.6390 C   0  0  0  0  0  1  0  0  0  0  0  0
  3  2  1  6
  3  1  1  0
  3  4  1  0
  5  7  1  0
  5  9  1  0
  7 10  1  0
  8  6  1  0
  9 20  1  0
  9  6  1  0
 10  4  1  0
 10 11  1  1
 10  8  1  0
 12 18  1  0
 12 20  1  0
 13 18  1  0
 14 15  1  0
 14 13  1  0
 16 15  1  0
 16 25  1  0
 16 17  1  0
 18 17  1  0
 19 12  2  0
 20 21  1  0
 22 23  2  0
 23 42  1  0
 24 23  1  0
 24 27  1  0
 25 22  1  0
 25 26  1  0
 26 24  2  0
 27 28  1  0
 28 29  2  0
 30 33  1  0
 30 29  1  0
 31 30  2  0
 32 31  1  0
 32 27  2  0
 33 34  1  0
 34 35  1  0
 35 36  2  0
 37 36  1  0
 37 41  1  0
 38 37  2  0
 39 34  2  0
 39 38  1  0
 40 39  1  0
 42 43  1  0
 43 46  1  0
 43 45  1  0
 44 42  2  0
 47 48  1  0
 47 22  1  0
 49 47  1  0
 50 51  1  0
 50  3  1  0
 51 53  1  0
 51 52  1  0
 54 55  1  0
 54 51  1  0
 55 56  1  0
 56 57  1  0
 57 59  1  0
 58 69  2  0
 59 64  1  0
 60 68  1  0
 60 70  1  0
 61 67  1  0
 61 63  1  0
 62 68  1  0
 63 62  1  0
 64 63  2  0
 65 66  1  0
 65 59  2  0
 66 61  2  0
 67 60  1  0
 68 58  1  0
 70 72  2  0
 71 70  1  0
 73 71  1  0
 74 83  2  0
 74 79  1  0
 75 71  1  0
 75 79  1  0
 76 75  1  0
 77 78  1  0
 77 76  1  0
 78 74  1  0
 79 80  2  0
 80 81  1  0
 82 81  2  0
 83 82  1  0
 84 58  1  0
 84 85  1  0
 84 94  1  0
 85 88  1  0
 86 90  1  0
 86 85  1  0
 87 86  2  0
 90 89  1  0
 92 90  1  0
 92 93  1  0
 92 91  1  0
 94 97  1  1
 94 95  1  0
 96 94  1  0
M  ISO  4  12 100  20 100  56 101  57 101
M  END
>  <TORSDO>  (57) 
F 23

>  <SCORE>  (57) 
-10.635

>  <name>  (57) 
57

>  <ligand_id>  (57) 
57

>  <original_smiles>  (57) 
[H]c1c([H])c([H])c2c(c1[H])C([H])([H])C([H])([H])C([H])([H])C2([H])N([H])C(=O)C1([H])N(C(=O)C([H])(N([H])C(=O)C([H])(N([H])C([H])([H])[H])C([H])([H])[H])C(C([H])([H])[H])(C([H])([H])[H])C([H])([H])[H])C([H])([H])c2c([H])c(OC([H])([H])C([H])([H])C([H])([H])[N+]([H])([H])C([H])([H])C(C([H])([H])[H])(C([H])([H])[H])C([H])([H])[N+]3([H])C([H])([H])C([H])([H])C([H])(N([H])C(=O)N4C([H])([H])C([H])([H])C([H])([H])C([H])(n5nc(-c6c([H])c([H])c(Oc7c([H])c([H])c(F)c([H])c7F)c([H])c6[H])c(C(=O)N([H])[H])c5N([H])[H])C4([H])[H])C([H])([H])C3([H])[H])c([H])c([H])c2C1([H])[H]

>  <smiles>  (57) 
[H]c1c([H])c([H])c2c(c1[H])C([H])([H])C([H])([H])C([H])([H])C2([H])N([H])C(=O)C1([H])N(C(=O)C([H])(N([H])C(=O)C([H])(N([H])C([H])([H])[H])C([H])([H])[H])C(C([H])([H])[H])(C([H])([H])[H])C([H])([H])[H])C([H])([H])c2c([H])c(OC([H])([H])C([H])([H])C([H])([H])[N+]([H])([H])C([H])([H])C(C([H])([H])[H])(C([H])([H])[H])C([H])([H])[N+]3([H])C([H])([H])C([H])([H])C([H])(N([H])C(=O)N4C([H])([H])C([H])([H])C([H])([H])C([H])(n5nc(-c6c([H])c([H])c(Oc7c([H])c([H])c(F)c([H])c7F)c([H])c6[H])c(C(=O)N([H])[H])c5N([H])[H])C4([H])[H])C([H])([H])C3([H])[H])c([H])c([H])c2C1([H])[H]

$$$$
58:0:0
     RDKit          3D

 92100  0  0  1  0  0  0  0  0999 V2000
  -30.7150  -22.1420   20.1520 C   0  0  0  0  0  2  0  0  0  0  0  0
  -29.4970  -23.0270   19.8540 C   0  0  0  0  0  0  0  0  0  0  0  0
  -28.4340  -22.5080   19.4980 O   0  0  0  0  0  0  0  0  0  0  0  0
  -29.6420  -24.5540   20.0180 C   0  0  0  0  0  2  0  0  0  0  0  0
  -28.3190  -25.3220   19.7820 C   0  0  0  0  0  2  0  0  0  0  0  0
  -28.3920  -26.7150   20.1330 O   0  0  0  0  0  0  0  0  0  0  0  0
  -24.5770  -31.8830   23.2370 C   0  0  0  0  0  0  0  0  0  0  0  0
  -27.2050  -27.4330   20.1330 C   0  0  0  0  0  0  0  0  0  0  0  0
  -23.3630  -30.4870   21.5970 C   0  0  0  0  0  3  0  0  0  0  0  0
  -24.8070  -28.9480   20.1680 C   0  0  0  0  0  0  0  0  0  0  0  0
  -25.8910  -30.8390   21.3910 C   0  0  0  0  0  2  0  0  0  0  0  0
  -25.9700  -29.4660   20.7510 C   0  0  0  0  0  0  0  0  0  0  0  0
  -27.1710  -28.7160   20.7300 C   0  0  0  0  0  3  0  0  0  0  0  0
  -26.0140  -26.9330   19.5500 C   0  0  0  0  0  3  0  0  0  0  0  0
  -24.8240  -27.6800   19.5670 C   0  0  0  0  0  3  0  0  0  0  0  0
  -23.5670  -29.8090   20.2170 C   0  0  0  0  0  2  0  0  0  0  0  0
  -24.6290  -31.0840   22.1330 N   0  0  0  0  0  0  0  0  0  0  0  0
  -23.4970  -32.1580   23.7780 O   0  0  0  0  0  0  0  0  0  0  0  0
  -22.7100  -29.4660   22.5570 C   0  0  0  0  0  0  0  0  0  0  0  0
  -21.3860  -29.2900   22.4350 N   0  0  0  0  0  0  0  0  0  0  0  0
  -23.3950  -28.8350   23.3680 O   0  0  0  0  0  0  0  0  0  0  0  0
  -20.8960  -29.8520   21.7530 H   0  0  0  0  0  0  0  0  0  0  0  0
  -18.0050  -28.1170   22.9450 C   0  0  0  0  0  0  0  0  0  0  0  0
  -20.5660  -28.3540   23.2050 C   0  0  0  0  0  3  0  0  0  0  0  0
  -20.6540  -26.9250   22.6210 C   0  0  0  0  0  2  0  0  0  0  0  0
  -19.5440  -26.6140   21.6120 C   0  0  0  0  0  2  0  0  0  0  0  0
  -18.1670  -26.7680   22.2650 C   0  0  0  0  0  2  0  0  0  0  0  0
  -19.1320  -28.8680   23.3720 C   0  0  0  0  0  0  0  0  0  0  0  0
  -18.9260  -30.1310   23.9690 C   0  0  0  0  0  3  0  0  0  0  0  0
  -17.6260  -30.6430   24.1430 C   0  0  0  0  0  3  0  0  0  0  0  0
  -16.5140  -29.8890   23.7320 C   0  0  0  0  0  3  0  0  0  0  0  0
  -16.7040  -28.6270   23.1390 C   0  0  0  0  0  3  0  0  0  0  0  0
  -25.8650  -32.5110   23.8550 C   0  0  0  0  0  3  0  0  0  0  0  0
  -25.5590  -33.9080   24.1900 N   0  0  0  0  0  0  0  0  0  0  0  0
  -25.8880  -34.9620   23.4320 C   0  0  0  0  0  0  0  0  0  0  0  0
  -26.5540  -34.8620   22.3980 O   0  0  0  0  0  0  0  0  0  0  0  0
  -24.9680  -34.0600   24.9950 H   0  0  0  0  0  0  0  0  0  0  0  0
  -24.1590  -36.7550   23.0880 C   0  0  0  0  0  1  0  0  0  0  0  0
  -25.4030  -36.3480   23.8950 C   0  0  0  0  0  3  0  0  0  0  0  0
  -27.5410  -37.2270   24.7220 C   0  0  0  0  0  1  0  0  0  0  0  0
  -26.4350  -37.4010   23.7840 N   0  0  0  0  0  0  0  0  0  0  0  0
  -26.0300  -38.3210   23.9360 H   0  0  0  0  0  0  0  0  0  0  0  0
  -26.3880  -31.7330   25.1250 C   0  0  1  0  0  0  0  0  0  0  0  0
  -25.3000  -31.4900   26.1960 C   0  0  0  0  0  1  0  0  0  0  0  0
  -26.9670  -30.3580   24.7190 C   0  0  0  0  0  1  0  0  0  0  0  0
  -27.5420  -32.5220   25.7840 C   0  0  0  0  0  1  0  0  0  0  0  0
  -30.4800  -21.1190   21.2970 C   0  0  0  0  0  2  0  0  0  0  0  0
  -31.5720  -17.3980   21.1180 C   0  0  0  0  0  2  0  0  0  0  0  0
  -29.1460  -17.5530   20.5870 C   0  0  0  0  0  2  0  0  0  0  0  0
  -31.5650  -18.8950   21.5250 C   0  0  0  0  0  2  0  0  0  0  0  0
  -29.1480  -19.0440   20.9960 C   0  0  0  0  0  2  0  0  0  0  0  0
  -30.1930  -16.7590   21.3850 C   0  0  0  0  0  3  0  0  0  0  0  0
  -30.4880  -19.6870   20.8580 N   0  0  1  0  0  4  0  0  0  0  0  0
  -30.7040  -19.6890   19.8720 H   0  0  0  0  0  0  0  0  0  0  0  0
  -30.6480  -14.4460   20.3250 C   0  0  0  0  0  0  0  0  0  0  0  0
  -30.2890  -12.3660   19.0430 C   0  0  0  0  0  2  0  0  0  0  0  0
  -29.2950  -12.6310   17.8940 C   0  0  0  0  0  2  0  0  0  0  0  0
  -27.8380  -12.4830   18.3770 C   0  0  0  0  0  2  0  0  0  0  0  0
  -27.5600  -13.2610   19.6890 C   0  0  0  0  0  3  0  0  0  0  0  0
  -28.6530  -12.9570   20.7400 C   0  0  0  0  0  2  0  0  0  0  0  0
  -29.9660  -13.2840   20.1470 N   0  0  0  0  0  0  0  0  0  0  0  0
  -31.6840  -14.7240   19.7170 O   0  0  0  0  0  0  0  0  0  0  0  0
  -30.0430  -15.3080   21.1600 N   0  0  0  0  0  0  0  0  0  0  0  0
  -29.2450  -14.8980   21.6250 H   0  0  0  0  0  0  0  0  0  0  0  0
  -25.1790  -13.8600   20.4730 C   0  0  0  0  0  0  0  0  0  0  0  0
  -24.1240  -13.0820   20.8670 C   0  0  0  0  0  0  0  0  0  0  0  0
  -24.5860  -11.7310   20.8100 C   0  0  0  0  0  0  0  0  0  0  0  0
  -26.2200  -12.9830   20.2040 N   0  0  0  0  0  0  0  0  0  0  0  0
  -25.8660  -11.6970   20.4590 N   0  0  0  0  0  0  0  0  0  0  0  0
  -23.8690  -10.4660   21.0100 C   0  0  0  0  0  0  0  0  0  0  0  0
  -24.3310   -9.4940   21.9240 C   0  0  0  0  0  3  0  0  0  0  0  0
  -23.6160   -8.2930   22.1140 C   0  0  0  0  0  3  0  0  0  0  0  0
  -22.4230   -8.0540   21.3900 C   0  0  0  0  0  0  0  0  0  0  0  0
  -21.9790   -9.0160   20.4650 C   0  0  0  0  0  3  0  0  0  0  0  0
  -22.6960  -10.2090   20.2740 C   0  0  0  0  0  3  0  0  0  0  0  0
  -21.6770   -6.9060   21.4900 O   0  0  0  0  0  0  0  0  0  0  0  0
  -21.6630   -6.1530   22.6370 C   0  0  0  0  0  0  0  0  0  0  0  0
  -21.2780   -6.6990   23.8810 C   0  0  0  0  0  3  0  0  0  0  0  0
  -21.2100   -5.8720   25.0210 C   0  0  0  0  0  3  0  0  0  0  0  0
  -21.5180   -4.5030   24.9190 C   0  0  0  0  0  0  0  0  0  0  0  0
  -21.8960   -3.9570   23.6800 C   0  0  0  0  0  3  0  0  0  0  0  0
  -21.9660   -4.7800   22.5420 C   0  0  0  0  0  0  0  0  0  0  0  0
  -22.3110   -4.2440   21.3470 F   0  0  0  0  0  0  0  0  0  0  0  0
  -21.4460   -3.7090   26.0120 F   0  0  0  0  0  0  0  0  0  0  0  0
  -22.7350  -13.5530   21.1890 C   0  0  0  0  0  0  0  0  0  0  0  0
  -22.0350  -12.8510   22.0730 N   0  0  0  0  0  0  0  0  0  0  0  0
  -22.2770  -14.5810   20.6900 O   0  0  0  0  0  0  0  0  0  0  0  0
  -22.4180  -12.0200   22.4990 H   0  0  0  0  0  0  0  0  0  0  0  0
  -21.1060  -13.1510   22.3290 H   0  0  0  0  0  0  0  0  0  0  0  0
  -25.3350  -15.2330   20.3020 N   0  0  0  0  0  0  0  0  0  0  0  0
  -24.5680  -15.8810   20.4400 H   0  0  0  0  0  0  0  0  0  0  0  0
  -26.1700  -15.6750   19.9430 H   0  0  0  0  0  0  0  0  0  0  0  0
  1 47  1  0
  2  4  1  0
  2  1  1  0
  3  2  2  0
  5  4  1  0
  5  6  1  0
  7 18  2  0
  8  6  1  0
  8 13  1  0
  9 17  1  0
  9 19  1  0
 10 16  1  0
 10 12  1  0
 11 17  1  0
 12 11  1  0
 13 12  2  0
 14 15  1  0
 14  8  2  0
 15 10  2  0
 16  9  1  0
 17  7  1  0
 19 21  2  0
 20 19  1  0
 22 20  1  0
 23 32  2  0
 23 28  1  0
 24 20  1  0
 24 28  1  0
 25 24  1  0
 26 27  1  0
 26 25  1  0
 27 23  1  0
 28 29  2  0
 29 30  1  0
 31 30  2  0
 32 31  1  0
 33  7  1  0
 33 34  1  0
 33 43  1  0
 34 37  1  0
 35 39  1  0
 35 34  1  0
 36 35  2  0
 39 38  1  0
 41 39  1  0
 41 42  1  0
 41 40  1  0
 43 46  1  1
 43 44  1  0
 45 43  1  0
 48 52  1  0
 48 50  1  0
 49 51  1  0
 49 52  1  0
 52 63  1  0
 53 51  1  0
 53 47  1  0
 53 50  1  0
 53 54  1  6
 55 63  1  0
 56 61  1  0
 57 58  1  0
 57 56  1  0
 59 58  1  0
 59 68  1  0
 59 60  1  0
 61 55  1  0
 61 60  1  0
 62 55  2  0
 63 64  1  0
 65 66  2  0
 66 85  1  0
 67 66  1  0
 67 70  1  0
 68 69  1  0
 68 65  1  0
 69 67  2  0
 70 71  1  0
 71 72  2  0
 73 76  1  0
 73 72  1  0
 74 73  2  0
 75 74  1  0
 75 70  2  0
 76 77  1  0
 77 78  1  0
 78 79  2  0
 80 79  1  0
 80 84  1  0
 81 80  2  0
 82 77  2  0
 82 81  1  0
 83 82  1  0
 85 86  1  0
 86 89  1  0
 86 88  1  0
 87 85  2  0
 90 91  1  0
 90 65  1  0
 92 90  1  0
M  ISO  4   5 101   6 101  55 100  63 100
M  END
>  <TORSDO>  (58) 
F 21

>  <SCORE>  (58) 
-13.524

>  <name>  (58) 
58

>  <ligand_id>  (58) 
58

>  <original_smiles>  (58) 
[H]c1c([H])c([H])c2c(c1[H])C([H])([H])C([H])([H])C([H])([H])C2([H])N([H])C(=O)C1([H])N(C(=O)C([H])(N([H])C(=O)C([H])(N([H])C([H])([H])[H])C([H])([H])[H])C(C([H])([H])[H])(C([H])([H])[H])C([H])([H])[H])C([H])([H])c2c([H])c(OC([H])([H])C([H])([H])C(=O)C([H])([H])C([H])([H])[N+]3([H])C([H])([H])C([H])([H])C([H])(N([H])C(=O)N4C([H])([H])C([H])([H])C([H])([H])C([H])(n5nc(-c6c([H])c([H])c(Oc7c([H])c([H])c(F)c([H])c7F)c([H])c6[H])c(C(=O)N([H])[H])c5N([H])[H])C4([H])[H])C([H])([H])C3([H])[H])c([H])c([H])c2C1([H])[H]

>  <smiles>  (58) 
[H]c1c([H])c([H])c2c(c1[H])C([H])([H])C([H])([H])C([H])([H])C2([H])N([H])C(=O)C1([H])N(C(=O)C([H])(N([H])C(=O)C([H])(N([H])C([H])([H])[H])C([H])([H])[H])C(C([H])([H])[H])(C([H])([H])[H])C([H])([H])[H])C([H])([H])c2c([H])c(OC([H])([H])C([H])([H])C(=O)C([H])([H])C([H])([H])[N+]3([H])C([H])([H])C([H])([H])C([H])(N([H])C(=O)N4C([H])([H])C([H])([H])C([H])([H])C([H])(n5nc(-c6c([H])c([H])c(Oc7c([H])c([H])c(F)c([H])c7F)c([H])c6[H])c(C(=O)N([H])[H])c5N([H])[H])C4([H])[H])C([H])([H])C3([H])[H])c([H])c([H])c2C1([H])[H]

$$$$
59:0:0
     RDKit          3D

 92100  0  0  1  0  0  0  0  0999 V2000
  -30.5570  -21.8490   20.4660 N   0  0  0  0  0  4  0  0  0  0  0  0
  -31.2060  -22.2490   19.8060 H   0  0  0  0  0  0  0  0  0  0  0  0
  -31.0180  -21.8360   21.3590 H   0  0  0  0  0  0  0  0  0  0  0  0
  -30.3150  -20.4420   20.0170 C   0  0  0  0  0  2  0  0  0  0  0  0
  -30.6410  -17.7940   22.3720 C   0  0  0  0  0  2  0  0  0  0  0  0
  -30.5210  -19.3190   22.4080 C   0  0  0  0  0  2  0  0  0  0  0  0
  -30.4920  -17.8600   20.8460 C   0  0  0  0  0  3  0  0  0  0  0  0
  -30.9390  -19.3580   20.9310 C   0  0  0  0  0  3  0  0  0  0  0  0
  -31.2650  -16.8270   20.0030 C   0  0  0  0  0  2  0  0  0  0  0  0
  -31.2770  -14.3760   19.5390 C   0  0  0  0  0  0  0  0  0  0  0  0
  -30.7820  -12.1490   18.5950 C   0  0  0  0  0  2  0  0  0  0  0  0
  -29.7310  -12.3000   17.4760 C   0  0  0  0  0  2  0  0  0  0  0  0
  -28.3060  -12.2440   18.0590 C   0  0  0  0  0  2  0  0  0  0  0  0
  -28.1240  -13.1850   19.2810 C   0  0  0  0  0  3  0  0  0  0  0  0
  -29.2810  -13.0170   20.2940 C   0  0  0  0  0  2  0  0  0  0  0  0
  -30.5490  -13.2240   19.5740 N   0  0  0  0  0  0  0  0  0  0  0  0
  -32.3360  -14.4720   18.9130 O   0  0  0  0  0  0  0  0  0  0  0  0
  -30.7190  -15.4600   20.1090 N   0  0  0  0  0  0  0  0  0  0  0  0
  -29.8480  -15.3320   20.6010 H   0  0  0  0  0  0  0  0  0  0  0  0
  -25.8850  -13.9470   20.2950 C   0  0  0  0  0  0  0  0  0  0  0  0
  -24.8040  -13.2470   20.7560 C   0  0  0  0  0  0  0  0  0  0  0  0
  -25.1390  -11.8650   20.6170 C   0  0  0  0  0  0  0  0  0  0  0  0
  -26.8170  -12.9970   19.9060 N   0  0  0  0  0  0  0  0  0  0  0  0
  -26.3760  -11.7360   20.1540 N   0  0  0  0  0  0  0  0  0  0  0  0
  -24.3330  -10.6590   20.8430 C   0  0  0  0  0  0  0  0  0  0  0  0
  -24.7080   -9.6890   21.7980 C   0  0  0  0  0  3  0  0  0  0  0  0
  -23.9070   -8.5470   22.0130 C   0  0  0  0  0  3  0  0  0  0  0  0
  -22.7150   -8.3670   21.2710 C   0  0  0  0  0  0  0  0  0  0  0  0
  -22.3580   -9.3240   20.3050 C   0  0  0  0  0  3  0  0  0  0  0  0
  -23.1590  -10.4580   20.0890 C   0  0  0  0  0  3  0  0  0  0  0  0
  -21.8880   -7.2770   21.3920 O   0  0  0  0  0  0  0  0  0  0  0  0
  -21.6960   -6.6490   22.5960 C   0  0  0  0  0  0  0  0  0  0  0  0
  -21.1930   -7.3350   23.7230 C   0  0  0  0  0  3  0  0  0  0  0  0
  -20.9460   -6.6350   24.9210 C   0  0  0  0  0  3  0  0  0  0  0  0
  -21.1930   -5.2510   24.9920 C   0  0  0  0  0  0  0  0  0  0  0  0
  -21.6900   -4.5650   23.8700 C   0  0  0  0  0  3  0  0  0  0  0  0
  -21.9380   -5.2620   22.6750 C   0  0  0  0  0  0  0  0  0  0  0  0
  -22.3970   -4.5920   21.5890 F   0  0  0  0  0  0  0  0  0  0  0  0
  -20.9480   -4.5770   26.1400 F   0  0  0  0  0  0  0  0  0  0  0  0
  -23.4960  -13.8220   21.2150 C   0  0  0  0  0  0  0  0  0  0  0  0
  -22.8310  -13.1600   22.1550 N   0  0  0  0  0  0  0  0  0  0  0  0
  -23.0790  -14.8930   20.7750 O   0  0  0  0  0  0  0  0  0  0  0  0
  -23.1840  -12.2930   22.5310 H   0  0  0  0  0  0  0  0  0  0  0  0
  -21.9570  -13.5270   22.5040 H   0  0  0  0  0  0  0  0  0  0  0  0
  -26.1480  -15.3070   20.1550 N   0  0  0  0  0  0  0  0  0  0  0  0
  -25.4640  -16.0160   20.3960 H   0  0  0  0  0  0  0  0  0  0  0  0
  -26.9960  -15.6920   19.7580 H   0  0  0  0  0  0  0  0  0  0  0  0
  -29.3720  -22.7590   20.5290 C   0  0  0  0  0  2  0  0  0  0  0  0
  -29.7010  -24.2820   20.3770 C   0  0  0  0  0  3  0  0  0  0  0  0
  -30.5600  -24.6520   21.3290 F   0  0  0  0  0  0  0  0  0  0  0  0
  -28.4380  -25.1870   20.4650 C   0  0  0  0  0  2  0  0  0  0  0  0
  -28.6090  -26.5540   20.0060 O   0  0  0  0  0  0  0  0  0  0  0  0
  -24.6260  -31.6230   23.0570 C   0  0  0  0  0  0  0  0  0  0  0  0
  -27.4380  -27.2930   19.9620 C   0  0  0  0  0  0  0  0  0  0  0  0
  -23.4790  -30.1920   21.4010 C   0  0  0  0  0  3  0  0  0  0  0  0
  -24.9940  -28.7290   19.9630 C   0  0  0  0  0  0  0  0  0  0  0  0
  -25.9930  -30.6450   21.2150 C   0  0  0  0  0  2  0  0  0  0  0  0
  -26.1330  -29.2870   20.5590 C   0  0  0  0  0  0  0  0  0  0  0  0
  -27.3610  -28.5780   20.5520 C   0  0  0  0  0  3  0  0  0  0  0  0
  -26.2850  -26.7680   19.3360 C   0  0  0  0  0  3  0  0  0  0  0  0
  -25.0680  -27.4710   19.3430 C   0  0  0  0  0  3  0  0  0  0  0  0
  -23.7140  -29.5320   20.0170 C   0  0  0  0  0  2  0  0  0  0  0  0
  -24.7160  -30.8350   21.9480 N   0  0  0  0  0  0  0  0  0  0  0  0
  -23.5350  -31.8480   23.5980 O   0  0  0  0  0  0  0  0  0  0  0  0
  -22.8610  -29.1400   22.3510 C   0  0  0  0  0  0  0  0  0  0  0  0
  -21.5460  -28.9040   22.2150 N   0  0  0  0  0  0  0  0  0  0  0  0
  -23.5660  -28.5340   23.1640 O   0  0  0  0  0  0  0  0  0  0  0  0
  -21.0340  -29.4440   21.5320 H   0  0  0  0  0  0  0  0  0  0  0  0
  -18.2250  -27.5520   22.6730 C   0  0  0  0  0  0  0  0  0  0  0  0
  -20.7660  -27.9280   22.9770 C   0  0  0  0  0  3  0  0  0  0  0  0
  -20.9410  -26.5040   22.4020 C   0  0  0  0  0  2  0  0  0  0  0  0
  -19.8680  -26.1320   21.3730 C   0  0  0  0  0  2  0  0  0  0  0  0
  -18.4730  -26.2140   21.9990 C   0  0  0  0  0  2  0  0  0  0  0  0
  -19.3030  -28.3650   23.1180 C   0  0  0  0  0  0  0  0  0  0  0  0
  -19.0190  -29.6180   23.7030 C   0  0  0  0  0  3  0  0  0  0  0  0
  -17.6910  -30.0590   23.8520 C   0  0  0  0  0  3  0  0  0  0  0  0
  -16.6290  -29.2440   23.4270 C   0  0  0  0  0  3  0  0  0  0  0  0
  -16.8970  -27.9940   22.8410 C   0  0  0  0  0  3  0  0  0  0  0  0
  -25.8850  -32.2980   23.6840 C   0  0  0  0  0  3  0  0  0  0  0  0
  -25.5270  -33.6870   24.0070 N   0  0  0  0  0  0  0  0  0  0  0  0
  -25.8530  -34.7490   23.2610 C   0  0  0  0  0  0  0  0  0  0  0  0
  -26.5560  -34.6680   22.2490 O   0  0  0  0  0  0  0  0  0  0  0  0
  -24.9040  -33.8200   24.7890 H   0  0  0  0  0  0  0  0  0  0  0  0
  -24.0950  -36.4990   22.8520 C   0  0  0  0  0  1  0  0  0  0  0  0
  -25.3130  -36.1200   23.7070 C   0  0  0  0  0  3  0  0  0  0  0  0
  -27.3910  -37.0520   24.6270 C   0  0  0  0  0  1  0  0  0  0  0  0
  -26.3210  -37.2000   23.6430 N   0  0  0  0  0  0  0  0  0  0  0  0
  -25.8870  -38.1090   23.7820 H   0  0  0  0  0  0  0  0  0  0  0  0
  -26.4210  -31.5470   24.9640 C   0  0  1  0  0  0  0  0  0  0  0  0
  -25.3310  -31.2710   26.0250 C   0  0  0  0  0  1  0  0  0  0  0  0
  -27.0550  -30.1910   24.5780 C   0  0  0  0  0  1  0  0  0  0  0  0
  -27.5350  -32.3850   25.6330 C   0  0  0  0  0  1  0  0  0  0  0  0
  1 48  1  0
  1  3  1  0
  2  1  1  0
  4  1  1  0
  5  6  1  0
  7  9  1  0
  7  8  1  0
  7  5  1  0
  8  4  1  0
  8  6  1  0
  9 18  1  0
 10 16  1  0
 10 18  1  0
 11 16  1  0
 12 13  1  0
 12 11  1  0
 14 13  1  0
 14 23  1  0
 14 15  1  0
 16 15  1  0
 17 10  2  0
 18 19  1  0
 20 21  2  0
 21 40  1  0
 22 21  1  0
 22 25  1  0
 23 24  1  0
 23 20  1  0
 24 22  2  0
 25 26  1  0
 26 27  2  0
 28 31  1  0
 28 27  1  0
 29 28  2  0
 30 29  1  0
 30 25  2  0
 31 32  1  0
 32 37  2  0
 32 33  1  0
 33 34  2  0
 34 35  1  0
 35 39  1  0
 36 35  2  0
 37 36  1  0
 38 37  1  0
 40 41  1  0
 41 44  1  0
 41 43  1  0
 42 40  2  0
 45 20  1  0
 45 46  1  0
 47 45  1  0
 49 51  1  0
 49 48  1  0
 49 50  1  0
 52 51  1  0
 53 64  2  0
 54 52  1  0
 54 59  1  0
 55 63  1  0
 55 65  1  0
 56 62  1  0
 56 58  1  0
 57 63  1  0
 58 57  1  0
 59 58  2  0
 60 61  1  0
 60 54  2  0
 61 56  2  0
 62 55  1  0
 63 53  1  0
 65 67  2  0
 66 65  1  0
 68 66  1  0
 69 78  2  0
 69 74  1  0
 70 66  1  0
 70 74  1  0
 71 70  1  0
 72 73  1  0
 72 71  1  0
 73 69  1  0
 74 75  2  0
 75 76  1  0
 77 76  2  0
 78 77  1  0
 79 53  1  0
 79 80  1  0
 79 89  1  0
 80 83  1  0
 81 85  1  0
 81 80  1  0
 82 81  2  0
 85 84  1  0
 87 85  1  0
 87 88  1  0
 87 86  1  0
 89 92  1  1
 89 90  1  0
 91 89  1  0
M  ISO  4  10 100  18 100  51 101  52 101
M  END
>  <TORSDO>  (59) 
F 22

>  <SCORE>  (59) 
-11.404

>  <name>  (59) 
59

>  <ligand_id>  (59) 
59

>  <original_smiles>  (59) 
[H]c1c([H])c([H])c2c(c1[H])C([H])([H])C([H])([H])C([H])([H])C2([H])N([H])C(=O)C1([H])N(C(=O)C([H])(N([H])C(=O)C([H])(N([H])C([H])([H])[H])C([H])([H])[H])C(C([H])([H])[H])(C([H])([H])[H])C([H])([H])[H])C([H])([H])c2c([H])c(OC([H])([H])C([H])(F)C([H])([H])[N+]([H])([H])C([H])([H])C3([H])C([H])([H])C([H])([H])C3([H])C([H])([H])N([H])C(=O)N3C([H])([H])C([H])([H])C([H])([H])C([H])(n4nc(-c5c([H])c([H])c(Oc6c([H])c([H])c(F)c([H])c6F)c([H])c5[H])c(C(=O)N([H])[H])c4N([H])[H])C3([H])[H])c([H])c([H])c2C1([H])[H]

>  <smiles>  (59) 
[H]c1c([H])c([H])c2c(c1[H])C([H])([H])C([H])([H])C([H])([H])C2([H])N([H])C(=O)C1([H])N(C(=O)C([H])(N([H])C(=O)C([H])(N([H])C([H])([H])[H])C([H])([H])[H])C(C([H])([H])[H])(C([H])([H])[H])C([H])([H])[H])C([H])([H])c2c([H])c(OC([H])([H])C([H])(F)C([H])([H])[N+]([H])([H])C([H])([H])C3([H])C([H])([H])C([H])([H])C3([H])C([H])([H])N([H])C(=O)N3C([H])([H])C([H])([H])C([H])([H])C([H])(n4nc(-c5c([H])c([H])c(Oc6c([H])c([H])c(F)c([H])c6F)c([H])c5[H])c(C(=O)N([H])[H])c4N([H])[H])C3([H])[H])c([H])c([H])c2C1([H])[H]

$$$$
60:0:0
     RDKit          3D

 98106  0  0  1  0  0  0  0  0999 V2000
  -30.2750  -21.7770   23.1760 N   0  0  0  0  0  0  0  0  0  0  0  0
  -30.3560  -20.5640   22.3300 C   0  0  0  0  0  2  0  0  0  0  0  0
  -30.3680  -19.1810   23.0160 C   0  0  0  0  0  0  0  0  0  0  0  0
  -30.0500  -19.0400   24.2010 O   0  0  0  0  0  0  0  0  0  0  0  0
  -31.3180  -14.5420   19.7750 C   0  0  0  0  0  0  0  0  0  0  0  0
  -30.7220  -12.5510   18.4620 C   0  0  0  0  0  2  0  0  0  0  0  0
  -29.6800  -12.9270   17.3920 C   0  0  0  0  0  2  0  0  0  0  0  0
  -28.2550  -12.8230   17.9670 C   0  0  0  0  0  2  0  0  0  0  0  0
  -28.1020  -13.5540   19.3280 C   0  0  0  0  0  3  0  0  0  0  0  0
  -29.2510  -13.1850   20.2930 C   0  0  0  0  0  2  0  0  0  0  0  0
  -30.5280  -13.4490   19.6100 N   0  0  0  0  0  0  0  0  0  0  0  0
  -32.3470  -14.7290   19.1140 O   0  0  0  0  0  0  0  0  0  0  0  0
  -30.7260  -16.6250   22.8280 C   0  0  0  0  0  2  0  0  0  0  0  0
  -31.3720  -15.5420   21.9420 C   0  0  0  0  0  2  0  0  0  0  0  0
  -30.7530  -16.8480   19.9150 C   0  0  0  0  0  2  0  0  0  0  0  0
  -30.8250  -18.0010   22.1470 C   0  0  0  0  0  3  0  0  0  0  0  0
  -30.1120  -17.9330   20.7890 C   0  0  0  0  0  3  0  0  0  0  0  0
  -30.8390  -15.5230   20.5670 N   0  0  0  0  0  0  0  0  0  0  0  0
  -28.8100  -17.6770   20.9370 F   0  0  0  0  0  0  0  0  0  0  0  0
  -25.7960  -14.1910   20.2810 C   0  0  0  0  0  0  0  0  0  0  0  0
  -24.7450  -13.4320   20.7210 C   0  0  0  0  0  0  0  0  0  0  0  0
  -25.1640  -12.0710   20.6000 C   0  0  0  0  0  0  0  0  0  0  0  0
  -26.7920  -13.2950   19.9250 N   0  0  0  0  0  0  0  0  0  0  0  0
  -26.4190  -12.0120   20.1710 N   0  0  0  0  0  0  0  0  0  0  0  0
  -24.4240  -10.8210   20.8140 C   0  0  0  0  0  0  0  0  0  0  0  0
  -24.8500   -9.8650   21.7620 C   0  0  0  0  0  3  0  0  0  0  0  0
  -24.1120   -8.6780   21.9640 C   0  0  0  0  0  3  0  0  0  0  0  0
  -22.9330   -8.4410   21.2170 C   0  0  0  0  0  0  0  0  0  0  0  0
  -22.5270   -9.3860   20.2580 C   0  0  0  0  0  3  0  0  0  0  0  0
  -23.2650  -10.5630   20.0560 C   0  0  0  0  0  3  0  0  0  0  0  0
  -22.1660   -7.3060   21.3270 O   0  0  0  0  0  0  0  0  0  0  0  0
  -22.0060   -6.6590   22.5260 C   0  0  0  0  0  0  0  0  0  0  0  0
  -21.5220   -7.3240   23.6730 C   0  0  0  0  0  3  0  0  0  0  0  0
  -21.3050   -6.6050   24.8650 C   0  0  0  0  0  3  0  0  0  0  0  0
  -21.5630   -5.2220   24.9110 C   0  0  0  0  0  0  0  0  0  0  0  0
  -22.0400   -4.5570   23.7680 C   0  0  0  0  0  3  0  0  0  0  0  0
  -22.2580   -5.2730   22.5780 C   0  0  0  0  0  0  0  0  0  0  0  0
  -22.6970   -4.6220   21.4730 F   0  0  0  0  0  0  0  0  0  0  0  0
  -21.3490   -4.5290   26.0540 F   0  0  0  0  0  0  0  0  0  0  0  0
  -23.3950  -13.9330   21.1430 C   0  0  0  0  0  0  0  0  0  0  0  0
  -22.7580  -13.2510   22.0900 N   0  0  0  0  0  0  0  0  0  0  0  0
  -22.9170  -14.9620   20.6700 O   0  0  0  0  0  0  0  0  0  0  0  0
  -23.1580  -12.4170   22.4930 H   0  0  0  0  0  0  0  0  0  0  0  0
  -21.8560  -13.5690   22.4160 H   0  0  0  0  0  0  0  0  0  0  0  0
  -25.9840  -15.5630   20.1390 N   0  0  0  0  0  0  0  0  0  0  0  0
  -25.2640  -16.2390   20.3660 H   0  0  0  0  0  0  0  0  0  0  0  0
  -26.8540  -15.9960   19.8550 H   0  0  0  0  0  0  0  0  0  0  0  0
  -30.5390  -22.9670   22.3490 C   0  0  0  0  0  2  0  0  0  0  0  0
  -29.3400  -23.3670   21.4670 C   0  0  0  0  0  2  0  0  0  0  0  0
  -29.5300  -24.7480   20.8120 C   0  0  0  0  0  2  0  0  0  0  0  0
  -28.3050  -25.1830   19.9990 C   0  0  0  0  0  2  0  0  0  0  0  0
  -28.4550  -26.5500   19.6040 O   0  0  0  0  0  0  0  0  0  0  0  0
  -25.0360  -31.5350   23.3130 C   0  0  0  0  0  0  0  0  0  0  0  0
  -27.3240  -27.3260   19.6940 C   0  0  0  0  0  0  0  0  0  0  0  0
  -23.6990  -30.3810   21.5810 C   0  0  0  0  0  3  0  0  0  0  0  0
  -25.0150  -28.9320   19.9490 C   0  0  0  0  0  0  0  0  0  0  0  0
  -26.2310  -30.6320   21.3240 C   0  0  0  0  0  2  0  0  0  0  0  0
  -26.2180  -29.3360   20.5420 C   0  0  0  0  0  0  0  0  0  0  0  0
  -27.3760  -28.5410   20.4110 C   0  0  0  0  0  3  0  0  0  0  0  0
  -26.1070  -26.9400   19.0880 C   0  0  0  0  0  3  0  0  0  0  0  0
  -24.9530  -27.7340   19.2180 C   0  0  0  0  0  3  0  0  0  0  0  0
  -23.8220  -29.8400   20.1320 C   0  0  0  0  0  2  0  0  0  0  0  0
  -25.0090  -30.8560   22.1320 N   0  0  0  0  0  0  0  0  0  0  0  0
  -23.9900  -31.8050   23.9200 O   0  0  0  0  0  0  0  0  0  0  0  0
  -23.0220  -29.3000   22.4540 C   0  0  0  0  0  0  0  0  0  0  0  0
  -21.6920  -29.1730   22.3260 N   0  0  0  0  0  0  0  0  0  0  0  0
  -23.6910  -28.5800   23.2010 O   0  0  0  0  0  0  0  0  0  0  0  0
  -21.2160  -29.8040   21.6970 H   0  0  0  0  0  0  0  0  0  0  0  0
  -18.2940  -28.0060   22.6910 C   0  0  0  0  0  0  0  0  0  0  0  0
  -20.8500  -28.2000   23.0190 C   0  0  0  0  0  3  0  0  0  0  0  0
  -20.9390  -26.8090   22.3490 C   0  0  0  0  0  2  0  0  0  0  0  0
  -19.8500  -26.5760   21.2980 C   0  0  0  0  0  2  0  0  0  0  0  0
  -18.4590  -26.7020   21.9280 C   0  0  0  0  0  2  0  0  0  0  0  0
  -19.4170  -28.7160   23.1890 C   0  0  0  0  0  0  0  0  0  0  0  0
  -19.2100  -29.9420   23.8600 C   0  0  0  0  0  3  0  0  0  0  0  0
  -17.9110  -30.4550   24.0380 C   0  0  0  0  0  3  0  0  0  0  0  0
  -16.8010  -29.7380   23.5560 C   0  0  0  0  0  3  0  0  0  0  0  0
  -16.9930  -28.5150   22.8900 C   0  0  0  0  0  3  0  0  0  0  0  0
  -26.3750  -32.0260   23.9450 C   0  0  0  0  0  3  0  0  0  0  0  0
  -26.9450  -31.0420   25.0390 C   0  0  1  0  0  0  0  0  0  0  0  0
  -25.9100  -30.6490   26.1190 C   0  0  0  0  0  1  0  0  0  0  0  0
  -27.4650  -29.7410   24.3860 C   0  0  0  0  0  1  0  0  0  0  0  0
  -28.1550  -31.6940   25.7520 C   0  0  0  0  0  1  0  0  0  0  0  0
  -26.1320  -33.3570   24.5170 N   0  0  0  0  0  0  0  0  0  0  0  0
  -26.4950  -34.5100   23.9400 C   0  0  0  0  0  0  0  0  0  0  0  0
  -27.1420  -34.5590   22.8910 O   0  0  0  0  0  0  0  0  0  0  0  0
  -25.5600  -33.3950   25.3480 H   0  0  0  0  0  0  0  0  0  0  0  0
  -24.8450  -36.4060   23.9270 C   0  0  0  0  0  1  0  0  0  0  0  0
  -26.0720  -35.8170   24.6380 C   0  0  0  0  0  3  0  0  0  0  0  0
  -28.2520  -36.4510   25.5730 C   0  0  0  0  0  1  0  0  0  0  0  0
  -27.1500  -36.8290   24.6930 N   0  0  0  0  0  0  0  0  0  0  0  0
  -26.7870  -37.7250   25.0050 H   0  0  0  0  0  0  0  0  0  0  0  0
  -31.2300  -21.7220   24.3020 C   0  0  0  0  0  2  0  0  0  0  0  0
  -31.0900  -22.9140   25.2800 C   0  0  0  0  0  2  0  0  0  0  0  0
  -31.9400  -22.7570   26.4710 N   0  0  0  0  0  4  0  0  0  0  0  0
  -31.6760  -21.9420   26.9950 H   0  0  0  0  0  0  0  0  0  0  0  0
  -31.8400  -23.5580   27.0680 H   0  0  0  0  0  0  0  0  0  0  0  0
  -32.9070  -22.6790   26.2120 H   0  0  0  0  0  0  0  0  0  0  0  0
  1 93  1  0
  2  3  1  0
  2  1  1  0
  3  4  2  0
  5 18  1  0
  6 11  1  0
  7  8  1  0
  7  6  1  0
  9  8  1  0
  9 23  1  0
  9 10  1  0
 11  5  1  0
 11 10  1  0
 12  5  2  0
 14 13  1  0
 15 18  1  0
 15 17  1  0
 16 13  1  0
 16  3  1  0
 17 19  1  0
 17 16  1  0
 18 14  1  0
 20 21  2  0
 21 40  1  0
 22 21  1  0
 22 25  1  0
 23 24  1  0
 23 20  1  0
 24 22  2  0
 25 26  1  0
 26 27  2  0
 28 31  1  0
 28 27  1  0
 29 28  2  0
 30 29  1  0
 30 25  2  0
 31 32  1  0
 32 37  2  0
 32 33  1  0
 33 34  2  0
 34 35  1  0
 35 39  1  0
 36 35  2  0
 37 36  1  0
 38 37  1  0
 40 41  1  0
 41 44  1  0
 41 43  1  0
 42 40  2  0
 45 20  1  0
 45 46  1  0
 47 45  1  0
 48  1  1  0
 49 48  1  0
 50 49  1  0
 51 50  1  0
 52 54  1  0
 52 51  1  0
 53 64  2  0
 54 59  1  0
 55 63  1  0
 55 65  1  0
 56 62  1  0
 56 58  1  0
 57 63  1  0
 58 57  1  0
 59 58  2  0
 60 61  1  0
 60 54  2  0
 61 56  2  0
 62 55  1  0
 63 53  1  0
 65 67  2  0
 66 65  1  0
 68 66  1  0
 69 78  2  0
 69 74  1  0
 70 66  1  0
 70 74  1  0
 71 70  1  0
 72 73  1  0
 72 71  1  0
 73 69  1  0
 74 75  2  0
 75 76  1  0
 77 76  2  0
 78 77  1  0
 79 53  1  0
 79 84  1  0
 79 80  1  0
 80 83  1  1
 80 81  1  0
 82 80  1  0
 84 87  1  0
 85 84  1  0
 85 89  1  0
 86 85  2  0
 89 88  1  0
 89 91  1  0
 91 92  1  0
 91 90  1  0
 93 94  1  0
 94 95  1  0
 95 96  1  0
 95 97  1  0
 98 95  1  0
M  ISO  4   5 100  18 100  51 101  52 101
M  END
>  <TORSDO>  (60) 
F 25

>  <SCORE>  (60) 
-5.651

>  <name>  (60) 
60

>  <ligand_id>  (60) 
60

>  <original_smiles>  (60) 
[H]c1c([H])c([H])c2c(c1[H])C([H])([H])C([H])([H])C([H])([H])C2([H])N([H])C(=O)C1([H])N(C(=O)C([H])(N([H])C(=O)C([H])(N([H])C([H])([H])[H])C([H])([H])[H])C(C([H])([H])[H])(C([H])([H])[H])C([H])([H])[H])C([H])([H])c2c([H])c(OC([H])([H])C([H])([H])C([H])([H])C([H])([H])N(C([H])([H])C(=O)C3([H])C([H])([H])C([H])([H])N(C(=O)N4C([H])([H])C([H])([H])C([H])([H])C([H])(n5nc(-c6c([H])c([H])c(Oc7c([H])c([H])c(F)c([H])c7F)c([H])c6[H])c(C(=O)N([H])[H])c5N([H])[H])C4([H])[H])C([H])([H])C3([H])F)C([H])([H])C([H])([H])[N+]([H])([H])[H])c([H])c([H])c2C1([H])[H]

>  <smiles>  (60) 
[H]c1c([H])c([H])c2c(c1[H])C([H])([H])C([H])([H])C([H])([H])C2([H])N([H])C(=O)C1([H])N(C(=O)C([H])(N([H])C(=O)C([H])(N([H])C([H])([H])[H])C([H])([H])[H])C(C([H])([H])[H])(C([H])([H])[H])C([H])([H])[H])C([H])([H])c2c([H])c(OC([H])([H])C([H])([H])C([H])([H])C([H])([H])N(C([H])([H])C(=O)C3([H])C([H])([H])C([H])([H])N(C(=O)N4C([H])([H])C([H])([H])C([H])([H])C([H])(n5nc(-c6c([H])c([H])c(Oc7c([H])c([H])c(F)c([H])c7F)c([H])c6[H])c(C(=O)N([H])[H])c5N([H])[H])C4([H])[H])C([H])([H])C3([H])F)C([H])([H])C([H])([H])[N+]([H])([H])[H])c([H])c([H])c2C1([H])[H]

$$$$
61:0:0
     RDKit          3D

 91 99  0  0  1  0  0  0  0  0999 V2000
  -29.6770  -21.0870   20.2620 C   0  0  0  0  0  3  0  0  0  0  0  0
  -28.5970  -19.5340   18.6460 C   0  0  0  0  0  2  0  0  0  0  0  0
  -28.9590  -18.0520   18.6700 C   0  0  0  0  0  3  0  0  0  0  0  0
  -29.9020  -18.3930   19.8230 C   0  0  0  0  0  3  0  0  0  0  0  0
  -29.5130  -17.3670   17.4230 C   0  0  0  0  0  1  0  0  0  0  0  0
  -29.0910  -19.6860   20.0210 N   0  0  1  0  0  4  0  0  0  0  0  0
  -28.3290  -19.5120   20.6590 H   0  0  0  0  0  0  0  0  0  0  0  0
  -30.0290  -17.3090   20.9940 C   0  0  0  0  0  2  0  0  0  0  0  0
  -30.6180  -14.7600   20.4430 C   0  0  0  0  0  0  0  0  0  0  0  0
  -30.4100  -12.5210   19.3580 C   0  0  0  0  0  2  0  0  0  0  0  0
  -29.4790  -12.6710   18.1340 C   0  0  0  0  0  2  0  0  0  0  0  0
  -28.0010  -12.5150   18.5460 C   0  0  0  0  0  2  0  0  0  0  0  0
  -27.6320  -13.3510   19.8020 C   0  0  0  0  0  3  0  0  0  0  0  0
  -28.6880  -13.1890   20.9180 C   0  0  0  0  0  2  0  0  0  0  0  0
  -29.9950  -13.5410   20.3410 N   0  0  0  0  0  0  0  0  0  0  0  0
  -31.8060  -14.9010   20.1490 O   0  0  0  0  0  0  0  0  0  0  0  0
  -29.7990  -15.8380   20.6850 N   0  0  0  0  0  0  0  0  0  0  0  0
  -28.8410  -15.5510   20.7980 H   0  0  0  0  0  0  0  0  0  0  0  0
  -25.2220  -13.9340   20.4700 C   0  0  0  0  0  0  0  0  0  0  0  0
  -24.1550  -13.1560   20.8290 C   0  0  0  0  0  0  0  0  0  0  0  0
  -24.6270  -11.8080   20.8230 C   0  0  0  0  0  0  0  0  0  0  0  0
  -26.2790  -13.0610   20.2680 N   0  0  0  0  0  0  0  0  0  0  0  0
  -25.9250  -11.7780   20.5380 N   0  0  0  0  0  0  0  0  0  0  0  0
  -23.9060  -10.5440   21.0150 C   0  0  0  0  0  0  0  0  0  0  0  0
  -24.3290   -9.5870   21.9630 C   0  0  0  0  0  3  0  0  0  0  0  0
  -23.6060   -8.3880   22.1440 C   0  0  0  0  0  3  0  0  0  0  0  0
  -22.4470   -8.1360   21.3740 C   0  0  0  0  0  0  0  0  0  0  0  0
  -22.0420   -9.0790   20.4130 C   0  0  0  0  0  3  0  0  0  0  0  0
  -22.7640  -10.2710   20.2330 C   0  0  0  0  0  3  0  0  0  0  0  0
  -21.6980   -6.9860   21.4590 O   0  0  0  0  0  0  0  0  0  0  0  0
  -21.6350   -6.2510   22.6160 C   0  0  0  0  0  0  0  0  0  0  0  0
  -21.1910   -6.8130   23.8330 C   0  0  0  0  0  3  0  0  0  0  0  0
  -21.0810   -6.0070   24.9840 C   0  0  0  0  0  3  0  0  0  0  0  0
  -21.4030   -4.6390   24.9170 C   0  0  0  0  0  0  0  0  0  0  0  0
  -21.8410   -4.0750   23.7060 C   0  0  0  0  0  3  0  0  0  0  0  0
  -21.9550   -4.8780   22.5580 C   0  0  0  0  0  0  0  0  0  0  0  0
  -22.3570   -4.3260   21.3890 F   0  0  0  0  0  0  0  0  0  0  0  0
  -21.2900   -3.8610   26.0200 F   0  0  0  0  0  0  0  0  0  0  0  0
  -22.7500  -13.6260   21.0710 C   0  0  0  0  0  0  0  0  0  0  0  0
  -22.0090  -12.9320   21.9270 N   0  0  0  0  0  0  0  0  0  0  0  0
  -22.3150  -14.6420   20.5310 O   0  0  0  0  0  0  0  0  0  0  0  0
  -22.3720  -12.1050   22.3750 H   0  0  0  0  0  0  0  0  0  0  0  0
  -21.0660  -13.2300   22.1370 H   0  0  0  0  0  0  0  0  0  0  0  0
  -25.3740  -15.3040   20.2760 N   0  0  0  0  0  0  0  0  0  0  0  0
  -24.5860  -15.9380   20.3540 H   0  0  0  0  0  0  0  0  0  0  0  0
  -26.1930  -15.7360   19.8680 H   0  0  0  0  0  0  0  0  0  0  0  0
  -28.6970  -22.3490   19.9710 C   0  0  0  0  0  3  0  0  0  0  0  0
  -29.1050  -23.8830   20.3000 C   0  0  0  0  0  2  0  0  0  0  0  0
  -28.3270  -25.1290   18.1890 C   0  0  0  0  0  1  0  0  0  0  0  0
  -28.1750  -25.0770   19.7260 C   0  0  0  0  0  3  0  0  0  0  0  0
  -28.3150  -26.4930   20.2130 O   0  0  0  0  0  0  0  0  0  0  0  0
  -24.5810  -31.9560   23.2540 C   0  0  0  0  0  0  0  0  0  0  0  0
  -27.1970  -27.3680   20.1820 C   0  0  0  0  0  0  0  0  0  0  0  0
  -23.3850  -30.5600   21.6150 C   0  0  0  0  0  3  0  0  0  0  0  0
  -24.8350  -29.0140   20.1920 C   0  0  0  0  0  0  0  0  0  0  0  0
  -25.9300  -30.8660   21.4390 C   0  0  0  0  0  2  0  0  0  0  0  0
  -26.0110  -29.4870   20.7890 C   0  0  0  0  0  0  0  0  0  0  0  0
  -27.1910  -28.6750   20.7790 C   0  0  0  0  0  3  0  0  0  0  0  0
  -25.9840  -26.9670   19.5650 C   0  0  0  0  0  3  0  0  0  0  0  0
  -24.8250  -27.7590   19.5760 C   0  0  0  0  0  3  0  0  0  0  0  0
  -23.6010  -29.8920   20.2350 C   0  0  0  0  0  2  0  0  0  0  0  0
  -24.6530  -31.1430   22.1600 N   0  0  0  0  0  0  0  0  0  0  0  0
  -23.4950  -32.2330   23.7830 O   0  0  0  0  0  0  0  0  0  0  0  0
  -22.7210  -29.5370   22.5670 C   0  0  0  0  0  0  0  0  0  0  0  0
  -21.3980  -29.3460   22.4260 N   0  0  0  0  0  0  0  0  0  0  0  0
  -23.3940  -28.9200   23.3950 O   0  0  0  0  0  0  0  0  0  0  0  0
  -20.9120  -29.8930   21.7300 H   0  0  0  0  0  0  0  0  0  0  0  0
  -18.0290  -28.1110   22.8820 C   0  0  0  0  0  0  0  0  0  0  0  0
  -20.5790  -28.4070   23.1940 C   0  0  0  0  0  3  0  0  0  0  0  0
  -20.7100  -26.9690   22.6380 C   0  0  0  0  0  2  0  0  0  0  0  0
  -19.6300  -26.6200   21.6090 C   0  0  0  0  0  2  0  0  0  0  0  0
  -18.2350  -26.7570   22.2250 C   0  0  0  0  0  2  0  0  0  0  0  0
  -19.1300  -28.8930   23.3220 C   0  0  0  0  0  0  0  0  0  0  0  0
  -18.8850  -30.1590   23.8950 C   0  0  0  0  0  3  0  0  0  0  0  0
  -17.5710  -30.6460   24.0310 C   0  0  0  0  0  3  0  0  0  0  0  0
  -16.4850  -29.8610   23.6070 C   0  0  0  0  0  3  0  0  0  0  0  0
  -16.7140  -28.5970   23.0390 C   0  0  0  0  0  3  0  0  0  0  0  0
  -25.8600  -32.5920   23.8800 C   0  0  0  0  0  3  0  0  0  0  0  0
  -25.5500  -33.9950   24.1910 N   0  0  0  0  0  0  0  0  0  0  0  0
  -25.8980  -35.0380   23.4250 C   0  0  0  0  0  0  0  0  0  0  0  0
  -26.5790  -34.9210   22.4020 O   0  0  0  0  0  0  0  0  0  0  0  0
  -24.9420  -34.1620   24.9790 H   0  0  0  0  0  0  0  0  0  0  0  0
  -24.1830  -36.8360   23.0270 C   0  0  0  0  0  1  0  0  0  0  0  0
  -25.4100  -36.4330   23.8610 C   0  0  0  0  0  3  0  0  0  0  0  0
  -27.5360  -37.3150   24.7170 C   0  0  0  0  0  1  0  0  0  0  0  0
  -26.4490  -37.4810   23.7560 N   0  0  0  0  0  0  0  0  0  0  0  0
  -26.0430  -38.4030   23.8940 H   0  0  0  0  0  0  0  0  0  0  0  0
  -26.3610  -31.8320   25.1680 C   0  0  1  0  0  0  0  0  0  0  0  0
  -25.2560  -31.6080   26.2260 C   0  0  0  0  0  1  0  0  0  0  0  0
  -26.9410  -30.4480   24.7970 C   0  0  0  0  0  1  0  0  0  0  0  0
  -27.5060  -32.6290   25.8370 C   0  0  0  0  0  1  0  0  0  0  0  0
  2  3  1  0
  2  6  1  0
  3  5  1  0
  3  4  1  0
  4  6  1  0
  4  8  1  0
  6  1  1  0
  6  7  1  1
  9 17  1  0
 10 15  1  0
 11 12  1  0
 11 10  1  0
 13 12  1  0
 13 22  1  0
 13 14  1  0
 15  9  1  0
 15 14  1  0
 16  9  2  0
 17 18  1  0
 17  8  1  0
 19 20  2  0
 20 39  1  0
 21 20  1  0
 21 24  1  0
 22 19  1  0
 22 23  1  0
 23 21  2  0
 24 25  1  0
 25 26  2  0
 27 30  1  0
 27 26  1  0
 28 27  2  0
 29 28  1  0
 29 24  2  0
 30 31  1  0
 31 32  1  0
 32 33  2  0
 34 33  1  0
 34 38  1  0
 35 34  2  0
 36 31  2  0
 36 35  1  0
 37 36  1  0
 39 40  1  0
 40 43  1  0
 40 42  1  0
 41 39  2  0
 44 45  1  0
 44 19  1  0
 46 44  1  0
 47  1  2  0
 47 48  1  0
 50 49  1  0
 50 51  1  0
 50 48  1  0
 52 63  2  0
 53 51  1  0
 53 58  1  0
 54 62  1  0
 54 64  1  0
 55 61  1  0
 55 57  1  0
 56 62  1  0
 57 56  1  0
 58 57  2  0
 59 60  1  0
 59 53  2  0
 60 55  2  0
 61 54  1  0
 62 52  1  0
 64 66  2  0
 65 64  1  0
 67 65  1  0
 68 77  2  0
 68 73  1  0
 69 65  1  0
 69 73  1  0
 70 69  1  0
 71 72  1  0
 71 70  1  0
 72 68  1  0
 73 74  2  0
 74 75  1  0
 76 75  2  0
 77 76  1  0
 78 52  1  0
 78 79  1  0
 78 88  1  0
 79 82  1  0
 80 84  1  0
 80 79  1  0
 81 80  2  0
 84 83  1  0
 86 84  1  0
 86 87  1  0
 86 85  1  0
 88 91  1  1
 88 89  1  0
 90 88  1  0
M  ISO  4   9 100  17 100  50 101  51 101
M  END
>  <TORSDO>  (61) 
F 21

>  <SCORE>  (61) 
-12.906

>  <name>  (61) 
61

>  <ligand_id>  (61) 
61

>  <original_smiles>  (61) 
[H]c1c([H])c([H])c2c(c1[H])C([H])([H])C([H])([H])C([H])([H])C2([H])N([H])C(=O)C1([H])N(C(=O)C([H])(N([H])C(=O)C([H])(N([H])C([H])([H])[H])C([H])([H])[H])C(C([H])([H])[H])(C([H])([H])[H])C([H])([H])[H])C([H])([H])c2c([H])c(OC([H])(C([H])([H])[H])C([H])([H])C([H])([H])C([H])([H])[N+]3([H])C([H])([H])C([H])(C([H])([H])[H])C3([H])C([H])([H])N([H])C(=O)N3C([H])([H])C([H])([H])C([H])([H])C([H])(n4nc(-c5c([H])c([H])c(Oc6c([H])c([H])c(F)c([H])c6F)c([H])c5[H])c(C(=O)N([H])[H])c4N([H])[H])C3([H])[H])c([H])c([H])c2C1([H])[H]

>  <smiles>  (61) 
[H]c1c([H])c([H])c2c(c1[H])C([H])([H])C([H])([H])C([H])([H])C2([H])N([H])C(=O)C1([H])N(C(=O)C([H])(N([H])C(=O)C([H])(N([H])C([H])([H])[H])C([H])([H])[H])C(C([H])([H])[H])(C([H])([H])[H])C([H])([H])[H])C([H])([H])c2c([H])c(OC([H])(C([H])([H])[H])C([H])([H])C([H])([H])C([H])([H])[N+]3([H])C([H])([H])C([H])(C([H])([H])[H])C3([H])C([H])([H])N([H])C(=O)N3C([H])([H])C([H])([H])C([H])([H])C([H])(n4nc(-c5c([H])c([H])c(Oc6c([H])c([H])c(F)c([H])c6F)c([H])c5[H])c(C(=O)N([H])[H])c4N([H])[H])C3([H])[H])c([H])c([H])c2C1([H])[H]

$$$$
62:0:0
     RDKit          3D

 94102  0  0  1  0  0  0  0  0999 V2000
  -31.2010  -19.1840   23.7440 C   0  0  0  0  0  2  0  0  0  0  0  0
  -30.6270  -18.3070   22.6300 C   0  0  0  0  0  2  0  0  0  0  0  0
  -31.3820  -21.0430   22.0840 C   0  0  0  0  0  2  0  0  0  0  0  0
  -30.8850  -20.6550   23.4820 C   0  0  0  0  0  3  0  0  0  0  0  0
  -31.0320  -18.7450   21.1960 C   0  0  0  0  0  3  0  0  0  0  0  0
  -30.7120  -20.2530   21.0330 N   0  0  0  0  0  0  0  0  0  0  0  0
  -29.4470  -20.9500   23.5830 N   0  0  0  0  0  4  0  0  0  0  0  0
  -28.9890  -20.5280   22.7930 H   0  0  0  0  0  0  0  0  0  0  0  0
  -29.2910  -21.9410   23.5390 H   0  0  0  0  0  0  0  0  0  0  0  0
  -29.0560  -20.5970   24.4380 H   0  0  0  0  0  0  0  0  0  0  0  0
  -30.5150  -17.5750   20.2000 C   0  0  0  0  0  2  0  0  0  0  0  0
  -31.3060  -15.0020   20.4010 C   0  0  0  0  0  0  0  0  0  0  0  0
  -31.1150  -12.7090   19.4240 C   0  0  0  0  0  2  0  0  0  0  0  0
  -30.1870  -12.7980   18.1890 C   0  0  0  0  0  2  0  0  0  0  0  0
  -28.7080  -12.6600   18.6010 C   0  0  0  0  0  2  0  0  0  0  0  0
  -28.3420  -13.5560   19.8140 C   0  0  0  0  0  3  0  0  0  0  0  0
  -29.3870  -13.4340   20.9480 C   0  0  0  0  0  2  0  0  0  0  0  0
  -30.6990  -13.7660   20.3760 N   0  0  0  0  0  0  0  0  0  0  0  0
  -32.4750  -15.1270   20.0250 O   0  0  0  0  0  0  0  0  0  0  0  0
  -30.4930  -16.0980   20.6430 N   0  0  0  0  0  0  0  0  0  0  0  0
  -29.5910  -15.8180   20.9980 H   0  0  0  0  0  0  0  0  0  0  0  0
  -25.9850  -14.2140   20.5860 C   0  0  0  0  0  0  0  0  0  0  0  0
  -24.8830  -13.4700   20.9120 C   0  0  0  0  0  0  0  0  0  0  0  0
  -25.2820  -12.1040   20.7920 C   0  0  0  0  0  0  0  0  0  0  0  0
  -26.9850  -13.3030   20.2890 N   0  0  0  0  0  0  0  0  0  0  0  0
  -26.5680  -12.0240   20.4760 N   0  0  0  0  0  0  0  0  0  0  0  0
  -24.4960  -10.8680   20.9060 C   0  0  0  0  0  0  0  0  0  0  0  0
  -24.8250   -9.8670   21.8460 C   0  0  0  0  0  3  0  0  0  0  0  0
  -24.0420   -8.6960   21.9470 C   0  0  0  0  0  3  0  0  0  0  0  0
  -22.9160   -8.5200   21.1080 C   0  0  0  0  0  0  0  0  0  0  0  0
  -22.6070   -9.5090   20.1580 C   0  0  0  0  0  3  0  0  0  0  0  0
  -23.3910  -10.6700   20.0540 C   0  0  0  0  0  3  0  0  0  0  0  0
  -22.1140   -7.4040   21.1200 O   0  0  0  0  0  0  0  0  0  0  0  0
  -21.8420   -6.7240   22.2800 C   0  0  0  0  0  0  0  0  0  0  0  0
  -21.2250   -7.3520   23.3840 C   0  0  0  0  0  3  0  0  0  0  0  0
  -20.9010   -6.5990   24.5310 C   0  0  0  0  0  3  0  0  0  0  0  0
  -21.1840   -5.2200   24.5720 C   0  0  0  0  0  0  0  0  0  0  0  0
  -21.7930   -4.5930   23.4710 C   0  0  0  0  0  3  0  0  0  0  0  0
  -22.1180   -5.3430   22.3270 C   0  0  0  0  0  0  0  0  0  0  0  0
  -22.6860   -4.7290   21.2610 F   0  0  0  0  0  0  0  0  0  0  0  0
  -20.8650   -4.4960   25.6700 F   0  0  0  0  0  0  0  0  0  0  0  0
  -23.5120  -13.9960   21.2200 C   0  0  0  0  0  0  0  0  0  0  0  0
  -22.7660  -13.2990   22.0710 N   0  0  0  0  0  0  0  0  0  0  0  0
  -23.1110  -15.0570   20.7440 O   0  0  0  0  0  0  0  0  0  0  0  0
  -23.1010  -12.4390   22.4770 H   0  0  0  0  0  0  0  0  0  0  0  0
  -21.8450  -13.6310   22.3190 H   0  0  0  0  0  0  0  0  0  0  0  0
  -26.2130  -15.5850   20.4940 N   0  0  0  0  0  0  0  0  0  0  0  0
  -25.4710  -16.2610   20.6400 H   0  0  0  0  0  0  0  0  0  0  0  0
  -27.0670  -16.0060   20.1550 H   0  0  0  0  0  0  0  0  0  0  0  0
  -30.8050  -21.0440   19.7410 C   0  0  0  0  0  2  0  0  0  0  0  0
  -30.9060  -22.6840   19.6130 C   0  0  0  0  0  2  0  0  0  0  0  0
  -29.8300  -23.8270   20.0550 C   0  0  0  0  0  2  0  0  0  0  0  0
  -29.9210  -25.3040   19.3630 C   0  0  0  0  0  2  0  0  0  0  0  0
  -29.6570  -26.6210   20.0400 O   0  0  0  0  0  0  0  0  0  0  0  0
  -25.2260  -31.2110   23.4560 C   0  0  0  0  0  0  0  0  0  0  0  0
  -28.4520  -27.3590   19.9880 C   0  0  0  0  0  0  0  0  0  0  0  0
  -24.2590  -29.9450   21.5690 C   0  0  0  0  0  3  0  0  0  0  0  0
  -25.9330  -28.7500   20.0390 C   0  0  0  0  0  0  0  0  0  0  0  0
  -26.7580  -30.5220   21.5920 C   0  0  0  0  0  2  0  0  0  0  0  0
  -27.0120  -29.2560   20.7710 C   0  0  0  0  0  0  0  0  0  0  0  0
  -28.2690  -28.5710   20.7380 C   0  0  0  0  0  3  0  0  0  0  0  0
  -27.3400  -26.9100   19.2420 C   0  0  0  0  0  3  0  0  0  0  0  0
  -26.1020  -27.5870   19.2650 C   0  0  0  0  0  3  0  0  0  0  0  0
  -24.6110  -29.4900   20.1270 C   0  0  0  0  0  2  0  0  0  0  0  0
  -25.4280  -30.5730   22.2660 N   0  0  0  0  0  0  0  0  0  0  0  0
  -24.0940  -31.3050   23.9540 O   0  0  0  0  0  0  0  0  0  0  0  0
  -23.6570  -28.7480   22.3440 C   0  0  0  0  0  0  0  0  0  0  0  0
  -22.3780  -28.4300   22.0730 N   0  0  0  0  0  0  0  0  0  0  0  0
  -24.3420  -28.1120   23.1490 O   0  0  0  0  0  0  0  0  0  0  0  0
  -21.8780  -29.0060   21.4100 H   0  0  0  0  0  0  0  0  0  0  0  0
  -19.1790  -26.7390   22.0580 C   0  0  0  0  0  0  0  0  0  0  0  0
  -21.6300  -27.3120   22.6520 C   0  0  0  0  0  3  0  0  0  0  0  0
  -22.0000  -25.9790   21.9630 C   0  0  0  0  0  2  0  0  0  0  0  0
  -21.0700  -25.6210   20.7990 C   0  0  0  0  0  2  0  0  0  0  0  0
  -19.6220  -25.5080   21.2850 C   0  0  0  0  0  2  0  0  0  0  0  0
  -20.1230  -27.5940   22.6860 C   0  0  0  0  0  0  0  0  0  0  0  0
  -19.6600  -28.7430   23.3630 C   0  0  0  0  0  3  0  0  0  0  0  0
  -18.2860  -29.0420   23.4190 C   0  0  0  0  0  3  0  0  0  0  0  0
  -17.3550  -28.1840   22.8070 C   0  0  0  0  0  3  0  0  0  0  0  0
  -17.8020  -27.0340   22.1330 C   0  0  0  0  0  3  0  0  0  0  0  0
  -26.4010  -31.8730   24.2400 C   0  0  0  0  0  3  0  0  0  0  0  0
  -25.9810  -33.2320   24.6120 N   0  0  0  0  0  0  0  0  0  0  0  0
  -26.3470  -34.3480   23.9660 C   0  0  0  0  0  0  0  0  0  0  0  0
  -27.1400  -34.3420   23.0200 O   0  0  0  0  0  0  0  0  0  0  0  0
  -25.2890  -33.3070   25.3430 H   0  0  0  0  0  0  0  0  0  0  0  0
  -24.5820  -36.0810   23.5150 C   0  0  0  0  0  1  0  0  0  0  0  0
  -25.7380  -35.6810   24.4440 C   0  0  0  0  0  3  0  0  0  0  0  0
  -27.7140  -36.6030   25.5740 C   0  0  0  0  0  1  0  0  0  0  0  0
  -26.7220  -36.7840   24.5180 N   0  0  0  0  0  0  0  0  0  0  0  0
  -26.2530  -37.6730   24.6700 H   0  0  0  0  0  0  0  0  0  0  0  0
  -26.8290  -31.0580   25.5220 C   0  0  1  0  0  0  0  0  0  0  0  0
  -25.6500  -30.7080   26.4590 C   0  0  0  0  0  1  0  0  0  0  0  0
  -27.5230  -29.7350   25.1210 C   0  0  0  0  0  1  0  0  0  0  0  0
  -27.8660  -31.8680   26.3360 C   0  0  0  0  0  1  0  0  0  0  0  0
  2  1  1  0
  3  4  1  0
  4  7  1  0
  4  1  1  0
  5 11  1  0
  5  2  1  0
  6  5  1  0
  6  3  1  0
  7 10  1  0
  8  7  1  0
  9  7  1  0
 11 20  1  0
 12 20  1  0
 13 18  1  0
 14 15  1  0
 14 13  1  0
 16 15  1  0
 16 25  1  0
 16 17  1  0
 18 12  1  0
 18 17  1  0
 19 12  2  0
 20 21  1  0
 22 23  2  0
 23 42  1  0
 24 27  1  0
 24 23  1  0
 25 26  1  0
 25 22  1  0
 26 24  2  0
 27 28  1  0
 28 29  2  0
 30 33  1  0
 30 29  1  0
 31 30  2  0
 32 31  1  0
 32 27  2  0
 33 34  1  0
 34 39  2  0
 34 35  1  0
 35 36  2  0
 36 37  1  0
 37 41  1  0
 38 37  2  0
 39 38  1  0
 40 39  1  0
 42 43  1  0
 43 46  1  0
 43 45  1  0
 44 42  2  0
 47 22  1  0
 47 48  1  0
 49 47  1  0
 50  6  1  0
 51 50  1  0
 51 52  1  0
 53 54  1  0
 53 52  1  0
 55 66  2  0
 56 54  1  0
 56 61  1  0
 57 65  1  0
 57 67  1  0
 58 64  1  0
 58 60  1  0
 59 65  1  0
 60 59  1  0
 61 60  2  0
 62 63  1  0
 62 56  2  0
 63 58  2  0
 64 57  1  0
 65 55  1  0
 67 69  2  0
 68 67  1  0
 70 68  1  0
 71 80  2  0
 71 76  1  0
 72 68  1  0
 72 76  1  0
 73 72  1  0
 74 75  1  0
 74 73  1  0
 75 71  1  0
 76 77  2  0
 77 78  1  0
 79 78  2  0
 80 79  1  0
 81 55  1  0
 81 82  1  0
 81 91  1  0
 82 85  1  0
 83 87  1  0
 83 82  1  0
 84 83  2  0
 87 86  1  0
 87 89  1  0
 89 90  1  0
 89 88  1  0
 91 94  1  1
 91 92  1  0
 93 91  1  0
M  ISO  4  12 100  20 100  53 101  54 101
M  END
>  <TORSDO>  (62) 
F 22

>  <SCORE>  (62) 
-9.594

>  <name>  (62) 
62

>  <ligand_id>  (62) 
62

>  <original_smiles>  (62) 
[H]c1c([H])c([H])c2c(c1[H])C([H])([H])C([H])([H])C([H])([H])C2([H])N([H])C(=O)C1([H])N(C(=O)C([H])(N([H])C(=O)C([H])(N([H])C([H])([H])[H])C([H])([H])[H])C(C([H])([H])[H])(C([H])([H])[H])C([H])([H])[H])C([H])([H])c2c([H])c(OC([H])([H])C([H])([H])C([H])([H])C([H])([H])N3C([H])([H])C([H])([N+]([H])([H])[H])C([H])([H])C([H])([H])C3([H])C([H])([H])N([H])C(=O)N3C([H])([H])C([H])([H])C([H])([H])C([H])(n4nc(-c5c([H])c([H])c(Oc6c([H])c([H])c(F)c([H])c6F)c([H])c5[H])c(C(=O)N([H])[H])c4N([H])[H])C3([H])[H])c([H])c([H])c2C1([H])[H]

>  <smiles>  (62) 
[H]c1c([H])c([H])c2c(c1[H])C([H])([H])C([H])([H])C([H])([H])C2([H])N([H])C(=O)C1([H])N(C(=O)C([H])(N([H])C(=O)C([H])(N([H])C([H])([H])[H])C([H])([H])[H])C(C([H])([H])[H])(C([H])([H])[H])C([H])([H])[H])C([H])([H])c2c([H])c(OC([H])([H])C([H])([H])C([H])([H])C([H])([H])N3C([H])([H])C([H])([N+]([H])([H])[H])C([H])([H])C([H])([H])C3([H])C([H])([H])N([H])C(=O)N3C([H])([H])C([H])([H])C([H])([H])C([H])(n4nc(-c5c([H])c([H])c(Oc6c([H])c([H])c(F)c([H])c6F)c([H])c5[H])c(C(=O)N([H])[H])c4N([H])[H])C3([H])[H])c([H])c([H])c2C1([H])[H]

$$$$
63:0:0
     RDKit          3D

 95104  0  0  1  0  0  0  0  0999 V2000
  -29.3900  -20.6760   19.4730 N   0  0  0  0  0  4  0  0  0  0  0  0
  -29.3510  -20.6390   18.4690 H   0  0  0  0  0  0  0  0  0  0  0  0
  -30.3540  -20.8440   19.7120 H   0  0  0  0  0  0  0  0  0  0  0  0
  -30.5740  -15.7780   20.6350 C   0  0  0  0  0  0  0  0  0  0  0  0
  -30.6910  -13.3280   20.1650 C   0  0  0  0  0  2  0  0  0  0  0  0
  -29.9150  -12.9740   18.8790 C   0  0  0  0  0  2  0  0  0  0  0  0
  -28.4410  -12.6700   19.2090 C   0  0  0  0  0  2  0  0  0  0  0  0
  -27.8030  -13.7510   20.1140 C   0  0  0  0  0  3  0  0  0  0  0  0
  -28.7180  -14.1420   21.3020 C   0  0  0  0  0  2  0  0  0  0  0  0
  -30.0340  -14.5130   20.7600 N   0  0  0  0  0  0  0  0  0  0  0  0
  -31.7940  -15.9010   20.5100 O   0  0  0  0  0  0  0  0  0  0  0  0
  -28.4450  -18.3460   18.9710 C   0  0  0  0  0  2  0  0  0  0  0  0
  -28.6090  -16.9330   19.5700 C   0  0  0  0  0  2  0  0  0  0  0  0
  -30.1950  -18.3440   20.5730 C   0  0  0  0  0  3  0  0  0  0  0  0
  -29.0410  -19.2830   20.0070 C   0  0  0  0  0  3  0  0  0  0  0  0
  -29.7550  -16.8990   20.4890 N   0  0  0  0  0  0  0  0  0  0  0  0
  -31.3240  -19.4940   24.6150 C   0  0  0  0  0  3  0  0  0  0  0  0
  -31.7290  -20.2790   23.5180 C   0  0  0  0  0  3  0  0  0  0  0  0
  -30.5550  -18.3340   24.4030 C   0  0  0  0  0  3  0  0  0  0  0  0
  -31.3630  -19.9070   22.2090 C   0  0  0  0  0  3  0  0  0  0  0  0
  -30.1900  -17.9600   23.0960 C   0  0  0  0  0  3  0  0  0  0  0  0
  -30.5910  -18.7460   21.9890 C   0  0  0  0  0  0  0  0  0  0  0  0
  -25.3840  -14.2590   20.7940 C   0  0  0  0  0  0  0  0  0  0  0  0
  -24.3190  -13.4420   21.0560 C   0  0  0  0  0  0  0  0  0  0  0  0
  -24.8120  -12.1070   20.9440 C   0  0  0  0  0  0  0  0  0  0  0  0
  -26.4530  -13.4140   20.5360 N   0  0  0  0  0  0  0  0  0  0  0  0
  -26.1140  -12.1100   20.6930 N   0  0  0  0  0  0  0  0  0  0  0  0
  -24.1090  -10.8230   21.0010 C   0  0  0  0  0  0  0  0  0  0  0  0
  -24.5330   -9.7900   21.8650 C   0  0  0  0  0  3  0  0  0  0  0  0
  -23.8310   -8.5680   21.9140 C   0  0  0  0  0  3  0  0  0  0  0  0
  -22.6910   -8.3720   21.0990 C   0  0  0  0  0  0  0  0  0  0  0  0
  -22.2880   -9.3950   20.2220 C   0  0  0  0  0  3  0  0  0  0  0  0
  -22.9920  -10.6080   20.1700 C   0  0  0  0  0  3  0  0  0  0  0  0
  -21.9600   -7.2100   21.0630 O   0  0  0  0  0  0  0  0  0  0  0  0
  -21.8710   -6.3850   22.1550 C   0  0  0  0  0  0  0  0  0  0  0  0
  -21.3680   -6.8390   23.3930 C   0  0  0  0  0  3  0  0  0  0  0  0
  -21.2290   -5.9390   24.4690 C   0  0  0  0  0  3  0  0  0  0  0  0
  -21.5810   -4.5860   24.3050 C   0  0  0  0  0  0  0  0  0  0  0  0
  -22.0770   -4.1310   23.0700 C   0  0  0  0  0  3  0  0  0  0  0  0
  -22.2190   -5.0290   21.9970 C   0  0  0  0  0  0  0  0  0  0  0  0
  -22.6780   -4.5820   20.8040 F   0  0  0  0  0  0  0  0  0  0  0  0
  -21.4390   -3.7190   25.3350 F   0  0  0  0  0  0  0  0  0  0  0  0
  -22.9010  -13.8760   21.2920 C   0  0  0  0  0  0  0  0  0  0  0  0
  -22.1610  -13.1290   22.1040 N   0  0  0  0  0  0  0  0  0  0  0  0
  -22.4560  -14.9080   20.7940 O   0  0  0  0  0  0  0  0  0  0  0  0
  -22.5340  -12.2940   22.5290 H   0  0  0  0  0  0  0  0  0  0  0  0
  -21.2100  -13.4030   22.3070 H   0  0  0  0  0  0  0  0  0  0  0  0
  -25.5170  -15.6420   20.7220 N   0  0  0  0  0  0  0  0  0  0  0  0
  -24.7200  -16.2580   20.8430 H   0  0  0  0  0  0  0  0  0  0  0  0
  -26.3520  -16.1300   20.4300 H   0  0  0  0  0  0  0  0  0  0  0  0
  -28.6250  -21.9120   19.9510 C   0  0  0  0  0  2  0  0  0  0  0  0
  -28.5710  -23.2000   18.9860 C   0  0  0  0  0  2  0  0  0  0  0  0
  -28.5060  -24.6940   19.5880 C   0  0  0  0  0  3  0  0  0  0  0  0
  -27.7660  -25.8420   18.7520 C   0  0  0  0  0  3  0  0  0  0  0  0
  -27.8690  -27.2800   19.1430 O   0  0  0  0  0  0  0  0  0  0  0  0
  -24.3030  -31.9520   23.3350 C   0  0  0  0  0  0  0  0  0  0  0  0
  -26.7310  -28.1030   19.2910 C   0  0  0  0  0  0  0  0  0  0  0  0
  -22.9940  -30.8480   21.5570 C   0  0  0  0  0  3  0  0  0  0  0  0
  -24.3490  -29.6380   19.7570 C   0  0  0  0  0  0  0  0  0  0  0  0
  -25.5080  -31.2630   21.2490 C   0  0  0  0  0  2  0  0  0  0  0  0
  -25.5540  -30.0310   20.3520 C   0  0  0  0  0  0  0  0  0  0  0  0
  -26.7410  -29.2740   20.1180 C   0  0  0  0  0  3  0  0  0  0  0  0
  -25.5030  -27.7930   18.6580 C   0  0  0  0  0  3  0  0  0  0  0  0
  -24.3270  -28.5280   18.9000 C   0  0  0  0  0  3  0  0  0  0  0  0
  -23.1070  -30.4500   20.0620 C   0  0  0  0  0  2  0  0  0  0  0  0
  -24.2910  -31.3630   22.1030 N   0  0  0  0  0  0  0  0  0  0  0  0
  -23.2610  -32.0950   23.9910 O   0  0  0  0  0  0  0  0  0  0  0  0
  -22.4260  -29.6490   22.3560 C   0  0  0  0  0  0  0  0  0  0  0  0
  -21.1180  -29.3850   22.2010 N   0  0  0  0  0  0  0  0  0  0  0  0
  -23.1630  -28.9670   23.0740 O   0  0  0  0  0  0  0  0  0  0  0  0
  -20.5790  -29.9960   21.6040 H   0  0  0  0  0  0  0  0  0  0  0  0
  -17.8830  -27.7770   22.4030 C   0  0  0  0  0  0  0  0  0  0  0  0
  -20.3830  -28.2830   22.8260 C   0  0  0  0  0  3  0  0  0  0  0  0
  -20.6700  -26.9450   22.1060 C   0  0  0  0  0  2  0  0  0  0  0  0
  -19.6520  -26.6200   21.0090 C   0  0  0  0  0  2  0  0  0  0  0  0
  -18.2390  -26.5390   21.5960 C   0  0  0  0  0  2  0  0  0  0  0  0
  -18.8910  -28.6040   22.9680 C   0  0  0  0  0  0  0  0  0  0  0  0
  -18.5080  -29.7610   23.6790 C   0  0  0  0  0  3  0  0  0  0  0  0
  -17.1490  -30.0950   23.8330 C   0  0  0  0  0  3  0  0  0  0  0  0
  -16.1550  -29.2630   23.2860 C   0  0  0  0  0  3  0  0  0  0  0  0
  -16.5230  -28.1060   22.5770 C   0  0  0  0  0  3  0  0  0  0  0  0
  -25.6230  -32.4960   23.9650 C   0  0  0  0  0  3  0  0  0  0  0  0
  -25.3680  -33.8750   24.4070 N   0  0  0  0  0  0  0  0  0  0  0  0
  -25.7720  -34.9720   23.7520 C   0  0  0  0  0  0  0  0  0  0  0  0
  -26.4680  -34.9250   22.7350 O   0  0  0  0  0  0  0  0  0  0  0  0
  -24.7570  -33.9890   25.2030 H   0  0  0  0  0  0  0  0  0  0  0  0
  -24.1610  -36.8860   23.4910 C   0  0  0  0  0  1  0  0  0  0  0  0
  -25.3360  -36.3390   24.3160 C   0  0  0  0  0  3  0  0  0  0  0  0
  -27.4700  -37.0180   25.3240 C   0  0  0  0  0  1  0  0  0  0  0  0
  -26.4260  -37.3370   24.3520 N   0  0  0  0  0  0  0  0  0  0  0  0
  -26.0620  -38.2610   24.5730 H   0  0  0  0  0  0  0  0  0  0  0  0
  -26.1480  -31.6150   25.1650 C   0  0  1  0  0  0  0  0  0  0  0  0
  -25.0780  -31.3350   26.2480 C   0  0  0  0  0  1  0  0  0  0  0  0
  -26.6680  -30.2500   24.6570 C   0  0  0  0  0  1  0  0  0  0  0  0
  -27.3440  -32.3180   25.8460 C   0  0  0  0  0  1  0  0  0  0  0  0
  1  3  1  0
  1 51  1  0
  2  1  1  0
  4 10  1  0
  5 10  1  0
  6  7  1  0
  6  5  1  0
  8  7  1  0
  8 26  1  0
  8  9  1  0
 10  9  1  0
 11  4  2  0
 12 13  1  0
 12 15  1  0
 13 16  1  0
 14 22  1  0
 15  1  1  0
 15 14  1  0
 16 14  1  0
 16  4  1  0
 18 17  2  0
 19 17  1  0
 20 18  1  0
 21 19  2  0
 22 20  2  0
 22 21  1  0
 23 24  2  0
 24 43  1  0
 25 28  1  0
 25 24  1  0
 26 27  1  0
 26 23  1  0
 27 25  2  0
 28 29  1  0
 29 30  2  0
 31 30  1  0
 32 31  2  0
 33 32  1  0
 33 28  2  0
 34 31  1  0
 34 35  1  0
 35 36  1  0
 36 37  2  0
 38 37  1  0
 38 42  1  0
 39 38  2  0
 40 35  2  0
 40 39  1  0
 41 40  1  0
 43 44  1  0
 44 47  1  0
 44 46  1  0
 45 43  2  0
 48 23  1  0
 48 49  1  0
 50 48  1  0
 52 53  1  0
 52 51  1  0
 54 55  1  0
 54 53  2  0
 55 57  1  0
 56 67  2  0
 57 62  1  0
 58 66  1  0
 58 68  1  0
 59 65  1  0
 59 61  1  0
 60 66  1  0
 61 60  1  0
 62 61  2  0
 63 64  1  0
 63 57  2  0
 64 59  2  0
 65 58  1  0
 66 56  1  0
 68 70  2  0
 69 68  1  0
 71 69  1  0
 72 81  2  0
 72 77  1  0
 73 69  1  0
 73 77  1  0
 74 73  1  0
 75 76  1  0
 75 74  1  0
 76 72  1  0
 77 78  2  0
 78 79  1  0
 80 79  2  0
 81 80  1  0
 82 56  1  0
 82 83  1  0
 82 92  1  0
 83 86  1  0
 84 88  1  0
 84 83  1  0
 85 84  2  0
 88 87  1  0
 88 90  1  0
 90 91  1  0
 90 89  1  0
 92 95  1  1
 92 93  1  0
 94 92  1  0
M  ISO  4   4 100  16 100  54 101  55 101
M  END
>  <TORSDO>  (63) 
F 21

>  <SCORE>  (63) 
-9.299

>  <name>  (63) 
63

>  <ligand_id>  (63) 
63

>  <original_smiles>  (63) 
[H]c1c([H])c([H])c(C2([H])N(C(=O)N3C([H])([H])C([H])([H])C([H])([H])C([H])(n4nc(-c5c([H])c([H])c(Oc6c([H])c([H])c(F)c([H])c6F)c([H])c5[H])c(C(=O)N([H])[H])c4N([H])[H])C3([H])[H])C([H])([H])C([H])([H])C2([H])[N+]([H])([H])C([H])([H])C([H])([H])C([H])([H])C([H])([H])Oc2c([H])c([H])c3c(c2[H])C([H])([H])N(C(=O)C([H])(N([H])C(=O)C([H])(N([H])C([H])([H])[H])C([H])([H])[H])C(C([H])([H])[H])(C([H])([H])[H])C([H])([H])[H])C([H])(C(=O)N([H])C2([H])c4c([H])c([H])c([H])c([H])c4C([H])([H])C([H])([H])C2([H])[H])C3([H])[H])c([H])c1[H]

>  <smiles>  (63) 
[H]c1c([H])c([H])c(C2([H])N(C(=O)N3C([H])([H])C([H])([H])C([H])([H])C([H])(n4nc(-c5c([H])c([H])c(Oc6c([H])c([H])c(F)c([H])c6F)c([H])c5[H])c(C(=O)N([H])[H])c4N([H])[H])C3([H])[H])C([H])([H])C([H])([H])C2([H])[N+]([H])([H])C([H])([H])C([H])([H])C([H])([H])C([H])([H])Oc2c([H])c([H])c3c(c2[H])C([H])([H])N(C(=O)C([H])(N([H])C(=O)C([H])(N([H])C([H])([H])[H])C([H])([H])[H])C(C([H])([H])[H])(C([H])([H])[H])C([H])([H])[H])C([H])(C(=O)N([H])C2([H])c4c([H])c([H])c([H])c([H])c4C([H])([H])C([H])([H])C2([H])[H])C3([H])[H])c([H])c1[H]

$$$$
64:0:0
     RDKit          3D

 99107  0  0  1  0  0  0  0  0999 V2000
  -31.5650  -20.9630   18.2480 N   0  0  0  0  0  4  0  0  0  0  0  0
  -30.6140  -20.9690   17.9180 H   0  0  0  0  0  0  0  0  0  0  0  0
  -32.1750  -20.9250   17.4460 H   0  0  0  0  0  0  0  0  0  0  0  0
  -31.7850  -19.7520   19.0700 C   0  0  0  0  0  2  0  0  0  0  0  0
  -31.1740  -16.0990   18.1190 C   0  0  0  0  0  2  0  0  0  0  0  0
  -31.9040  -18.1040   17.0640 C   0  0  0  0  0  2  0  0  0  0  0  0
  -31.3840  -17.1780   19.2020 C   0  0  0  0  0  3  0  0  0  0  0  0
  -31.2250  -18.4790   18.3930 C   0  0  0  0  0  3  0  0  0  0  0  0
  -31.5740  -16.6910   16.8300 N   0  0  0  0  0  4  0  0  0  0  0  0
  -30.8070  -16.6170   16.1780 H   0  0  0  0  0  0  0  0  0  0  0  0
  -32.3650  -16.2060   16.4350 H   0  0  0  0  0  0  0  0  0  0  0  0
  -30.4920  -17.0680   20.4800 C   0  0  0  0  0  2  0  0  0  0  0  0
  -30.9840  -14.6400   20.9880 C   0  0  0  0  0  0  0  0  0  0  0  0
  -30.7940  -12.4030   20.0210 C   0  0  0  0  0  2  0  0  0  0  0  0
  -29.9760  -12.5170   18.7140 C   0  0  0  0  0  2  0  0  0  0  0  0
  -28.4650  -12.4180   19.0010 C   0  0  0  0  0  2  0  0  0  0  0  0
  -28.0030  -13.3430   20.1600 C   0  0  0  0  0  3  0  0  0  0  0  0
  -28.9460  -13.2200   21.3820 C   0  0  0  0  0  2  0  0  0  0  0  0
  -30.3250  -13.4580   20.9240 N   0  0  0  0  0  0  0  0  0  0  0  0
  -32.1880  -14.7700   20.7700 O   0  0  0  0  0  0  0  0  0  0  0  0
  -30.1700  -15.7030   20.9280 N   0  0  0  0  0  0  0  0  0  0  0  0
  -29.1940  -15.5020   21.0870 H   0  0  0  0  0  0  0  0  0  0  0  0
  -25.5550  -13.9890   20.6340 C   0  0  0  0  0  0  0  0  0  0  0  0
  -24.4490  -13.2340   20.9180 C   0  0  0  0  0  0  0  0  0  0  0  0
  -24.8990  -11.8780   20.9610 C   0  0  0  0  0  0  0  0  0  0  0  0
  -26.6090  -13.0940   20.5210 N   0  0  0  0  0  0  0  0  0  0  0  0
  -26.2120  -11.8230   20.7800 N   0  0  0  0  0  0  0  0  0  0  0  0
  -24.1490  -10.6250   21.1110 C   0  0  0  0  0  0  0  0  0  0  0  0
  -24.5030   -9.6660   22.0850 C   0  0  0  0  0  3  0  0  0  0  0  0
  -23.7570   -8.4750   22.2210 C   0  0  0  0  0  3  0  0  0  0  0  0
  -22.6450   -8.2350   21.3800 C   0  0  0  0  0  0  0  0  0  0  0  0
  -22.3110   -9.1820   20.3960 C   0  0  0  0  0  3  0  0  0  0  0  0
  -23.0570  -10.3650   20.2590 C   0  0  0  0  0  3  0  0  0  0  0  0
  -21.8810   -7.0930   21.4210 O   0  0  0  0  0  0  0  0  0  0  0  0
  -21.7470   -6.3570   22.5700 C   0  0  0  0  0  0  0  0  0  0  0  0
  -21.2470   -6.9230   23.7640 C   0  0  0  0  0  3  0  0  0  0  0  0
  -21.0600   -6.1150   24.9030 C   0  0  0  0  0  3  0  0  0  0  0  0
  -21.3640   -4.7410   24.8490 C   0  0  0  0  0  0  0  0  0  0  0  0
  -21.8560   -4.1740   23.6610 C   0  0  0  0  0  3  0  0  0  0  0  0
  -22.0450   -4.9800   22.5240 C   0  0  0  0  0  0  0  0  0  0  0  0
  -22.5000   -4.4240   21.3750 F   0  0  0  0  0  0  0  0  0  0  0  0
  -21.1770   -3.9630   25.9410 F   0  0  0  0  0  0  0  0  0  0  0  0
  -23.0360  -13.7250   21.0430 C   0  0  0  0  0  0  0  0  0  0  0  0
  -22.2240  -13.0590   21.8560 N   0  0  0  0  0  0  0  0  0  0  0  0
  -22.6580  -14.7350   20.4520 O   0  0  0  0  0  0  0  0  0  0  0  0
  -22.5380  -12.2420   22.3570 H   0  0  0  0  0  0  0  0  0  0  0  0
  -21.2720  -13.3780   21.9800 H   0  0  0  0  0  0  0  0  0  0  0  0
  -25.7500  -15.3540   20.4410 N   0  0  0  0  0  0  0  0  0  0  0  0
  -24.9880  -16.0230   20.4660 H   0  0  0  0  0  0  0  0  0  0  0  0
  -26.6290  -15.7710   20.1610 H   0  0  0  0  0  0  0  0  0  0  0  0
  -31.8080  -22.2390   18.9550 C   0  0  0  0  0  2  0  0  0  0  0  0
  -31.7970  -23.4390   17.9880 C   0  0  0  0  0  2  0  0  0  0  0  0
  -31.9510  -24.7950   18.7060 C   0  0  0  0  0  2  0  0  0  0  0  0
  -30.6710  -25.5290   18.8290 N   0  0  0  0  0  4  0  0  0  0  0  0
  -29.9370  -24.9080   19.1360 H   0  0  0  0  0  0  0  0  0  0  0  0
  -30.4090  -25.8760   17.9180 H   0  0  0  0  0  0  0  0  0  0  0  0
  -30.7410  -26.6590   19.7790 C   0  0  0  0  0  2  0  0  0  0  0  0
  -29.5450  -27.6060   19.6490 C   0  0  0  0  0  2  0  0  0  0  0  0
  -28.3300  -26.8770   19.8400 O   0  0  0  0  0  0  0  0  0  0  0  0
  -24.5500  -31.9540   23.1420 C   0  0  0  0  0  0  0  0  0  0  0  0
  -27.1690  -27.6140   19.9380 C   0  0  0  0  0  0  0  0  0  0  0  0
  -23.3020  -30.5540   21.5210 C   0  0  0  0  0  3  0  0  0  0  0  0
  -24.7290  -29.0420   20.0430 C   0  0  0  0  0  0  0  0  0  0  0  0
  -25.8070  -30.9580   21.2420 C   0  0  0  0  0  2  0  0  0  0  0  0
  -25.8900  -29.5930   20.5970 C   0  0  0  0  0  0  0  0  0  0  0  0
  -27.1050  -28.8870   20.5520 C   0  0  0  0  0  3  0  0  0  0  0  0
  -25.9860  -27.0560   19.4070 C   0  0  0  0  0  3  0  0  0  0  0  0
  -24.7690  -27.7670   19.4500 C   0  0  0  0  0  3  0  0  0  0  0  0
  -23.4750  -29.8810   20.1310 C   0  0  0  0  0  2  0  0  0  0  0  0
  -24.5730  -31.1690   22.0290 N   0  0  0  0  0  0  0  0  0  0  0  0
  -23.4860  -32.2110   23.7210 O   0  0  0  0  0  0  0  0  0  0  0  0
  -22.6940  -29.5200   22.4940 C   0  0  0  0  0  0  0  0  0  0  0  0
  -21.3700  -29.3220   22.3980 N   0  0  0  0  0  0  0  0  0  0  0  0
  -23.4080  -28.8980   23.2850 O   0  0  0  0  0  0  0  0  0  0  0  0
  -20.8560  -29.8770   21.7280 H   0  0  0  0  0  0  0  0  0  0  0  0
  -18.0270  -28.0750   22.9530 C   0  0  0  0  0  0  0  0  0  0  0  0
  -20.5840  -28.3710   23.1830 C   0  0  0  0  0  3  0  0  0  0  0  0
  -20.7000  -26.9430   22.6020 C   0  0  0  0  0  2  0  0  0  0  0  0
  -19.5860  -26.6050   21.6060 C   0  0  0  0  0  2  0  0  0  0  0  0
  -18.2140  -26.7290   22.2730 C   0  0  0  0  0  2  0  0  0  0  0  0
  -19.1410  -28.8540   23.3650 C   0  0  0  0  0  0  0  0  0  0  0  0
  -18.9140  -30.1140   23.9590 C   0  0  0  0  0  3  0  0  0  0  0  0
  -17.6060  -30.5970   24.1450 C   0  0  0  0  0  3  0  0  0  0  0  0
  -16.5060  -29.8150   23.7500 C   0  0  0  0  0  3  0  0  0  0  0  0
  -16.7180  -28.5560   23.1590 C   0  0  0  0  0  3  0  0  0  0  0  0
  -25.8530  -32.5860   23.7270 C   0  0  0  0  0  3  0  0  0  0  0  0
  -26.4350  -31.7890   24.9580 C   0  0  1  0  0  0  0  0  0  0  0  0
  -25.3880  -31.4950   26.0580 C   0  0  0  0  0  1  0  0  0  0  0  0
  -27.0320  -30.4390   24.4990 C   0  0  0  0  0  1  0  0  0  0  0  0
  -27.5930  -32.5890   25.6020 C   0  0  0  0  0  1  0  0  0  0  0  0
  -25.5410  -33.9720   24.1030 N   0  0  0  0  0  0  0  0  0  0  0  0
  -25.8500  -35.0450   23.3640 C   0  0  0  0  0  0  0  0  0  0  0  0
  -26.4990  -34.9750   22.3170 O   0  0  0  0  0  0  0  0  0  0  0  0
  -24.9620  -34.1000   24.9190 H   0  0  0  0  0  0  0  0  0  0  0  0
  -24.1050  -36.8330   23.0830 C   0  0  0  0  0  1  0  0  0  0  0  0
  -25.3590  -36.4160   23.8670 C   0  0  0  0  0  3  0  0  0  0  0  0
  -27.5020  -37.2870   24.6900 C   0  0  0  0  0  1  0  0  0  0  0  0
  -26.3830  -37.4790   23.7720 N   0  0  0  0  0  0  0  0  0  0  0  0
  -25.9730  -38.3900   23.9590 H   0  0  0  0  0  0  0  0  0  0  0  0
  1 51  1  0
  1  4  1  0
  2  1  1  0
  3  1  1  0
  5  7  1  0
  6  8  1  0
  7 12  1  0
  8  4  1  0
  8  7  1  0
  9  6  1  0
  9  5  1  0
 10  9  1  0
 11  9  1  0
 12 21  1  0
 14 19  1  0
 15 16  1  0
 15 14  1  0
 17 16  1  0
 17 26  1  0
 17 18  1  0
 19 13  1  0
 19 18  1  0
 20 13  2  0
 21 13  1  0
 21 22  1  0
 23 24  2  0
 24 25  1  0
 24 43  1  0
 25 28  1  0
 26 23  1  0
 26 27  1  0
 27 25  2  0
 28 29  1  0
 29 30  2  0
 31 34  1  0
 31 30  1  0
 32 31  2  0
 33 32  1  0
 33 28  2  0
 34 35  1  0
 35 36  1  0
 36 37  2  0
 38 37  1  0
 38 42  1  0
 39 38  2  0
 40 35  2  0
 40 39  1  0
 41 40  1  0
 43 44  1  0
 44 47  1  0
 44 46  1  0
 45 43  2  0
 48 49  1  0
 48 23  1  0
 50 48  1  0
 52 53  1  0
 52 51  1  0
 53 54  1  0
 54 55  1  0
 54 57  1  0
 56 54  1  0
 58 57  1  0
 58 59  1  0
 59 61  1  0
 60 71  2  0
 61 66  1  0
 62 70  1  0
 62 72  1  0
 63 69  1  0
 63 65  1  0
 64 70  1  0
 65 64  1  0
 66 65  2  0
 67 68  1  0
 67 61  2  0
 68 63  2  0
 69 62  1  0
 70 60  1  0
 72 74  2  0
 73 72  1  0
 75 73  1  0
 76 85  2  0
 76 81  1  0
 77 73  1  0
 77 81  1  0
 78 77  1  0
 79 80  1  0
 79 78  1  0
 80 76  1  0
 81 82  2  0
 82 83  1  0
 84 83  2  0
 85 84  1  0
 86 60  1  0
 86 91  1  0
 86 87  1  0
 87 90  1  1
 87 88  1  0
 89 87  1  0
 91 94  1  0
 92 96  1  0
 92 91  1  0
 93 92  2  0
 96 95  1  0
 98 96  1  0
 98 99  1  0
 98 97  1  0
M  ISO  4  13 100  21 100  58 101  59 101
M  END
>  <TORSDO>  (64) 
F 25

>  <SCORE>  (64) 
-11.611

>  <name>  (64) 
64

>  <ligand_id>  (64) 
64

>  <original_smiles>  (64) 
[H]c1c([H])c([H])c2c(c1[H])C([H])([H])C([H])([H])C([H])([H])C2([H])N([H])C(=O)C1([H])N(C(=O)C([H])(N([H])C(=O)C([H])(N([H])C([H])([H])[H])C([H])([H])[H])C(C([H])([H])[H])(C([H])([H])[H])C([H])([H])[H])C([H])([H])c2c([H])c(OC([H])([H])C([H])([H])[N+]([H])([H])C([H])([H])C([H])([H])C([H])([H])[N+]([H])([H])C([H])([H])C3([H])C([H])(C([H])([H])N([H])C(=O)N4C([H])([H])C([H])([H])C([H])([H])C([H])(n5nc(-c6c([H])c([H])c(Oc7c([H])c([H])c(F)c([H])c7F)c([H])c6[H])c(C(=O)N([H])[H])c5N([H])[H])C4([H])[H])C([H])([H])[N+]([H])([H])C3([H])[H])c([H])c([H])c2C1([H])[H]

>  <smiles>  (64) 
[H]c1c([H])c([H])c2c(c1[H])C([H])([H])C([H])([H])C([H])([H])C2([H])N([H])C(=O)C1([H])N(C(=O)C([H])(N([H])C(=O)C([H])(N([H])C([H])([H])[H])C([H])([H])[H])C(C([H])([H])[H])(C([H])([H])[H])C([H])([H])[H])C([H])([H])c2c([H])c(OC([H])([H])C([H])([H])[N+]([H])([H])C([H])([H])C([H])([H])C([H])([H])[N+]([H])([H])C([H])([H])C3([H])C([H])(C([H])([H])N([H])C(=O)N4C([H])([H])C([H])([H])C([H])([H])C([H])(n5nc(-c6c([H])c([H])c(Oc7c([H])c([H])c(F)c([H])c7F)c([H])c6[H])c(C(=O)N([H])[H])c5N([H])[H])C4([H])[H])C([H])([H])[N+]([H])([H])C3([H])[H])c([H])c([H])c2C1([H])[H]

$$$$
65:0:0
     RDKit          3D

 92100  0  0  1  0  0  0  0  0999 V2000
  -30.2730  -20.9910   19.5380 C   0  0  0  0  0  3  0  0  0  0  0  0
  -28.4390  -20.4540   20.8120 C   0  0  0  0  0  3  0  0  0  0  0  0
  -29.6100  -19.8650   20.1900 C   0  0  0  0  0  0  0  0  0  0  0  0
  -29.8680  -22.4230   19.4710 C   0  0  0  0  0  0  0  0  0  0  0  0
  -28.6890  -23.0000   20.0960 C   0  0  0  0  0  0  0  0  0  0  0  0
  -28.0160  -21.8790   20.7590 C   0  0  0  0  0  0  0  0  0  0  0  0
  -26.8470  -22.1670   21.3810 F   0  0  0  0  0  0  0  0  0  0  0  0
  -30.7260  -23.3810   18.6530 C   0  0  1  0  0  0  0  0  0  0  0  0
  -31.8410  -22.8080   18.1950 F   0  0  0  0  0  0  0  0  0  0  0  0
  -30.0300  -23.8250   17.6070 F   0  0  0  0  0  0  0  0  0  0  0  0
  -31.0810  -24.4240   19.4030 F   0  0  0  0  0  0  0  0  0  0  0  0
  -30.3100  -18.2750   20.2500 C   0  0  0  0  0  2  0  0  0  0  0  0
  -30.5740  -15.4260   20.2250 C   0  0  0  0  0  0  0  0  0  0  0  0
  -30.5000  -13.0140   19.3100 C   0  0  0  0  0  2  0  0  0  0  0  0
  -29.5770  -12.8600   18.0780 C   0  0  0  0  0  2  0  0  0  0  0  0
  -28.1250  -12.6030   18.5160 C   0  0  0  0  0  2  0  0  0  0  0  0
  -27.6870  -13.5490   19.6640 C   0  0  0  0  0  3  0  0  0  0  0  0
  -28.7390  -13.6600   20.7870 C   0  0  0  0  0  2  0  0  0  0  0  0
  -29.9780  -14.1420   20.1600 N   0  0  0  0  0  0  0  0  0  0  0  0
  -31.7900  -15.4190   19.9900 O   0  0  0  0  0  0  0  0  0  0  0  0
  -29.8470  -16.7000   20.3430 N   0  0  0  0  0  0  0  0  0  0  0  0
  -28.8560  -16.5780   20.4840 H   0  0  0  0  0  0  0  0  0  0  0  0
  -25.3090  -14.0990   20.4030 C   0  0  0  0  0  0  0  0  0  0  0  0
  -24.2520  -13.3180   20.7750 C   0  0  0  0  0  0  0  0  0  0  0  0
  -24.7290  -11.9700   20.7560 C   0  0  0  0  0  0  0  0  0  0  0  0
  -26.3590  -13.2300   20.1710 N   0  0  0  0  0  0  0  0  0  0  0  0
  -26.0210  -11.9440   20.4510 N   0  0  0  0  0  0  0  0  0  0  0  0
  -24.0090  -10.7040   20.9510 C   0  0  0  0  0  0  0  0  0  0  0  0
  -24.4190   -9.7620   21.9200 C   0  0  0  0  0  3  0  0  0  0  0  0
  -23.6970   -8.5620   22.1020 C   0  0  0  0  0  3  0  0  0  0  0  0
  -22.5510   -8.2960   21.3160 C   0  0  0  0  0  0  0  0  0  0  0  0
  -22.1610   -9.2280   20.3380 C   0  0  0  0  0  3  0  0  0  0  0  0
  -22.8830  -10.4180   20.1520 C   0  0  0  0  0  3  0  0  0  0  0  0
  -21.8030   -7.1470   21.4060 O   0  0  0  0  0  0  0  0  0  0  0  0
  -21.7050   -6.4430   22.5790 C   0  0  0  0  0  0  0  0  0  0  0  0
  -21.1570   -7.0140   23.7480 C   0  0  0  0  0  3  0  0  0  0  0  0
  -21.0100   -6.2330   24.9120 C   0  0  0  0  0  3  0  0  0  0  0  0
  -21.4010   -4.8820   24.9080 C   0  0  0  0  0  0  0  0  0  0  0  0
  -21.9430   -4.3090   23.7430 C   0  0  0  0  0  3  0  0  0  0  0  0
  -22.0910   -5.0880   22.5810 C   0  0  0  0  0  0  0  0  0  0  0  0
  -22.5930   -4.5250   21.4550 F   0  0  0  0  0  0  0  0  0  0  0  0
  -21.2550   -4.1280   26.0230 F   0  0  0  0  0  0  0  0  0  0  0  0
  -22.8490  -13.7860   21.0300 C   0  0  0  0  0  0  0  0  0  0  0  0
  -22.1220  -13.0960   21.9020 N   0  0  0  0  0  0  0  0  0  0  0  0
  -22.4070  -14.8010   20.4930 O   0  0  0  0  0  0  0  0  0  0  0  0
  -22.4930  -12.2760   22.3580 H   0  0  0  0  0  0  0  0  0  0  0  0
  -21.1800  -13.3930   22.1160 H   0  0  0  0  0  0  0  0  0  0  0  0
  -25.4600  -15.4700   20.2140 N   0  0  0  0  0  0  0  0  0  0  0  0
  -24.6830  -16.1140   20.3130 H   0  0  0  0  0  0  0  0  0  0  0  0
  -26.2940  -15.9100   19.8500 H   0  0  0  0  0  0  0  0  0  0  0  0
  -27.9620  -24.5600   19.8550 C   0  0  0  0  0  2  0  0  0  0  0  0
  -28.3270  -26.1180   20.1410 O   0  0  0  0  0  0  0  0  0  0  0  0
  -24.6960  -31.9200   23.2600 C   0  0  0  0  0  0  0  0  0  0  0  0
  -27.3210  -27.2090   20.0930 C   0  0  0  0  0  0  0  0  0  0  0  0
  -23.5250  -30.5680   21.5690 C   0  0  0  0  0  3  0  0  0  0  0  0
  -24.9990  -29.0400   20.0990 C   0  0  0  0  0  0  0  0  0  0  0  0
  -26.0880  -30.8230   21.4430 C   0  0  0  0  0  2  0  0  0  0  0  0
  -26.1780  -29.4410   20.7390 C   0  0  0  0  0  0  0  0  0  0  0  0
  -27.3350  -28.5460   20.7160 C   0  0  0  0  0  3  0  0  0  0  0  0
  -26.1110  -26.9570   19.4040 C   0  0  0  0  0  3  0  0  0  0  0  0
  -24.9880  -27.8180   19.4130 C   0  0  0  0  0  3  0  0  0  0  0  0
  -23.7680  -29.9390   20.1710 C   0  0  0  0  0  2  0  0  0  0  0  0
  -24.7900  -31.1270   22.1450 N   0  0  0  0  0  0  0  0  0  0  0  0
  -23.6010  -32.1800   23.7860 O   0  0  0  0  0  0  0  0  0  0  0  0
  -22.8400  -29.5290   22.4960 C   0  0  0  0  0  0  0  0  0  0  0  0
  -21.5130  -29.3530   22.3570 N   0  0  0  0  0  0  0  0  0  0  0  0
  -23.5090  -28.8840   23.3070 O   0  0  0  0  0  0  0  0  0  0  0  0
  -21.0260  -29.9250   21.6810 H   0  0  0  0  0  0  0  0  0  0  0  0
  -18.1370  -28.1120   22.8260 C   0  0  0  0  0  0  0  0  0  0  0  0
  -20.6960  -28.3810   23.0920 C   0  0  0  0  0  3  0  0  0  0  0  0
  -20.8040  -26.9740   22.4620 C   0  0  0  0  0  2  0  0  0  0  0  0
  -19.7000  -26.6840   21.4380 C   0  0  0  0  0  2  0  0  0  0  0  0
  -18.3190  -26.7930   22.0920 C   0  0  0  0  0  2  0  0  0  0  0  0
  -19.2520  -28.8650   23.2810 C   0  0  0  0  0  0  0  0  0  0  0  0
  -19.0250  -30.0980   23.9300 C   0  0  0  0  0  3  0  0  0  0  0  0
  -17.7170  -30.5790   24.1260 C   0  0  0  0  0  3  0  0  0  0  0  0
  -16.6170  -29.8240   23.6830 C   0  0  0  0  0  3  0  0  0  0  0  0
  -16.8270  -28.5910   23.0400 C   0  0  0  0  0  3  0  0  0  0  0  0
  -25.9580  -32.5540   23.9190 C   0  0  0  0  0  3  0  0  0  0  0  0
  -26.4300  -31.7860   25.2160 C   0  0  1  0  0  0  0  0  0  0  0  0
  -25.3020  -31.5600   26.2510 C   0  0  0  0  0  1  0  0  0  0  0  0
  -27.0180  -30.4040   24.8580 C   0  0  0  0  0  1  0  0  0  0  0  0
  -27.5620  -32.5800   25.9100 C   0  0  0  0  0  1  0  0  0  0  0  0
  -25.6420  -33.9560   24.2450 N   0  0  0  0  0  0  0  0  0  0  0  0
  -25.9510  -35.0090   23.4780 C   0  0  0  0  0  0  0  0  0  0  0  0
  -26.5950  -34.9060   22.4310 O   0  0  0  0  0  0  0  0  0  0  0  0
  -25.0670  -34.1090   25.0600 H   0  0  0  0  0  0  0  0  0  0  0  0
  -24.1850  -36.7840   23.1970 C   0  0  0  0  0  1  0  0  0  0  0  0
  -25.4720  -36.4000   23.9450 C   0  0  0  0  0  3  0  0  0  0  0  0
  -27.6280  -37.3330   24.6650 C   0  0  0  0  0  1  0  0  0  0  0  0
  -26.4840  -37.4640   23.7660 N   0  0  0  0  0  0  0  0  0  0  0  0
  -26.0720  -38.3820   23.9100 H   0  0  0  0  0  0  0  0  0  0  0  0
  1  3  1  0
  3 12  1  0
  3  2  2  0
  4  1  2  0
  4  5  1  0
  5  6  2  0
  6  2  1  0
  6  7  1  0
  8 11  1  1
  8  4  1  0
  9  8  1  0
 10  8  1  0
 12 21  1  0
 13 21  1  0
 14 19  1  0
 15 16  1  0
 15 14  1  0
 17 16  1  0
 17 26  1  0
 17 18  1  0
 19 13  1  0
 19 18  1  0
 20 13  2  0
 21 22  1  0
 23 24  2  0
 24 43  1  0
 25 24  1  0
 25 28  1  0
 26 23  1  0
 26 27  1  0
 27 25  2  0
 28 29  1  0
 29 30  2  0
 31 34  1  0
 31 30  1  0
 32 31  2  0
 33 32  1  0
 33 28  2  0
 34 35  1  0
 35 40  2  0
 35 36  1  0
 36 37  2  0
 38 37  1  0
 38 42  1  0
 39 38  2  0
 40 39  1  0
 41 40  1  0
 43 44  1  0
 44 47  1  0
 44 46  1  0
 45 43  2  0
 48 49  1  0
 48 23  1  0
 50 48  1  0
 51  5  1  0
 51 52  1  0
 53 64  2  0
 54 52  1  0
 54 59  1  0
 55 63  1  0
 55 65  1  0
 56 62  1  0
 56 58  1  0
 57 63  1  0
 58 57  1  0
 59 58  2  0
 60 61  1  0
 60 54  2  0
 61 56  2  0
 62 55  1  0
 63 53  1  0
 65 67  2  0
 66 65  1  0
 68 66  1  0
 69 78  2  0
 69 74  1  0
 70 66  1  0
 70 74  1  0
 71 70  1  0
 72 73  1  0
 72 71  1  0
 73 69  1  0
 74 75  2  0
 75 76  1  0
 77 76  2  0
 78 77  1  0
 79 53  1  0
 79 84  1  0
 79 80  1  0
 80 83  1  1
 80 81  1  0
 82 80  1  0
 84 87  1  0
 85 89  1  0
 85 84  1  0
 86 85  2  0
 89 88  1  0
 91 92  1  0
 91 89  1  0
 91 90  1  0
M  ISO  4  13 100  21 100  51 101  52 101
M  END
>  <TORSDO>  (65) 
F 19

>  <SCORE>  (65) 
-15.388

>  <name>  (65) 
65

>  <ligand_id>  (65) 
65

>  <original_smiles>  (65) 
[H]c1c([H])c([H])c2c(c1[H])C([H])([H])C([H])([H])C([H])([H])C2([H])N([H])C(=O)C1([H])N(C(=O)C([H])(N([H])C(=O)C([H])(N([H])C([H])([H])[H])C([H])([H])[H])C(C([H])([H])[H])(C([H])([H])[H])C([H])([H])[H])C([H])([H])c2c([H])c(OC([H])([H])c3c(F)c([H])c(C([H])([H])N([H])C(=O)N4C([H])([H])C([H])([H])C([H])([H])C([H])(n5nc(-c6c([H])c([H])c(Oc7c([H])c([H])c(F)c([H])c7F)c([H])c6[H])c(C(=O)N([H])[H])c5N([H])[H])C4([H])[H])c([H])c3C(F)(F)F)c([H])c([H])c2C1([H])[H]

>  <smiles>  (65) 
[H]c1c([H])c([H])c2c(c1[H])C([H])([H])C([H])([H])C([H])([H])C2([H])N([H])C(=O)C1([H])N(C(=O)C([H])(N([H])C(=O)C([H])(N([H])C([H])([H])[H])C([H])([H])[H])C(C([H])([H])[H])(C([H])([H])[H])C([H])([H])[H])C([H])([H])c2c([H])c(OC([H])([H])c3c(F)c([H])c(C([H])([H])N([H])C(=O)N4C([H])([H])C([H])([H])C([H])([H])C([H])(n5nc(-c6c([H])c([H])c(Oc7c([H])c([H])c(F)c([H])c7F)c([H])c6[H])c(C(=O)N([H])[H])c5N([H])[H])C4([H])[H])c([H])c3C(F)(F)F)c([H])c([H])c2C1([H])[H]

$$$$
66:0:0
     RDKit          3D

 96104  0  0  1  0  0  0  0  0999 V2000
  -28.0320  -19.0260   18.8620 C   0  0  0  0  0  2  0  0  0  0  0  0
  -29.8020  -19.5180   20.7080 C   0  0  0  0  0  2  0  0  0  0  0  0
  -30.6760  -18.2690   20.5450 C   0  0  0  0  0  2  0  0  0  0  0  0
  -27.8410  -17.9960   21.2210 C   0  0  0  0  0  2  0  0  0  0  0  0
  -28.3260  -19.2050   20.3760 C   0  0  0  0  0  3  0  0  0  0  0  0
  -30.1470  -17.1220   21.4380 C   0  0  0  0  0  3  0  0  0  0  0  0
  -28.7370  -16.8200   21.0910 N   0  0  0  0  0  4  0  0  0  0  0  0
  -28.3900  -16.0960   21.7000 H   0  0  0  0  0  0  0  0  0  0  0  0
  -28.6740  -16.4550   20.1550 H   0  0  0  0  0  0  0  0  0  0  0  0
  -31.0410  -15.8690   21.3660 C   0  0  0  0  0  2  0  0  0  0  0  0
  -31.6560  -14.1460   19.7460 C   0  0  0  0  0  0  0  0  0  0  0  0
  -31.2540  -11.8600   18.9360 C   0  0  0  0  0  2  0  0  0  0  0  0
  -30.2400  -11.9140   17.7740 C   0  0  0  0  0  2  0  0  0  0  0  0
  -28.7930  -11.8940   18.3030 C   0  0  0  0  0  2  0  0  0  0  0  0
  -28.5520  -12.9070   19.4550 C   0  0  0  0  0  3  0  0  0  0  0  0
  -29.6670  -12.8050   20.5170 C   0  0  0  0  0  2  0  0  0  0  0  0
  -30.9590  -12.9840   19.8340 N   0  0  0  0  0  0  0  0  0  0  0  0
  -32.7320  -14.2590   19.1590 O   0  0  0  0  0  0  0  0  0  0  0  0
  -30.9590  -15.2450   20.0490 N   0  0  0  0  0  0  0  0  0  0  0  0
  -31.1460  -15.9410   19.3410 H   0  0  0  0  0  0  0  0  0  0  0  0
  -26.3010  -13.7090   20.4080 C   0  0  0  0  0  0  0  0  0  0  0  0
  -25.2020  -13.0250   20.8560 C   0  0  0  0  0  0  0  0  0  0  0  0
  -25.5260  -11.6380   20.7400 C   0  0  0  0  0  0  0  0  0  0  0  0
  -27.2280  -12.7440   20.0490 N   0  0  0  0  0  0  0  0  0  0  0  0
  -26.7710  -11.4920   20.3050 N   0  0  0  0  0  0  0  0  0  0  0  0
  -24.7090  -10.4390   20.9630 C   0  0  0  0  0  0  0  0  0  0  0  0
  -24.9630   -9.5610   22.0390 C   0  0  0  0  0  3  0  0  0  0  0  0
  -24.1520   -8.4240   22.2410 C   0  0  0  0  0  3  0  0  0  0  0  0
  -23.0710   -8.1570   21.3690 C   0  0  0  0  0  0  0  0  0  0  0  0
  -22.8380   -9.0220   20.2860 C   0  0  0  0  0  3  0  0  0  0  0  0
  -23.6480  -10.1510   20.0820 C   0  0  0  0  0  3  0  0  0  0  0  0
  -22.2470   -7.0640   21.4730 O   0  0  0  0  0  0  0  0  0  0  0  0
  -21.8110   -6.6050   22.6910 C   0  0  0  0  0  0  0  0  0  0  0  0
  -21.0650   -7.4180   23.5700 C   0  0  0  0  0  3  0  0  0  0  0  0
  -20.5810   -6.8860   24.7830 C   0  0  0  0  0  3  0  0  0  0  0  0
  -20.8330   -5.5410   25.1120 C   0  0  0  0  0  0  0  0  0  0  0  0
  -21.5690   -4.7270   24.2330 C   0  0  0  0  0  3  0  0  0  0  0  0
  -22.0560   -5.2580   23.0240 C   0  0  0  0  0  0  0  0  0  0  0  0
  -22.7500   -4.4650   22.1740 F   0  0  0  0  0  0  0  0  0  0  0  0
  -20.3600   -5.0250   26.2700 F   0  0  0  0  0  0  0  0  0  0  0  0
  -23.8870  -13.6160   21.2680 C   0  0  0  0  0  0  0  0  0  0  0  0
  -23.2340  -13.0190   22.2590 N   0  0  0  0  0  0  0  0  0  0  0  0
  -23.4550  -14.6410   20.7410 O   0  0  0  0  0  0  0  0  0  0  0  0
  -23.5990  -12.1890   22.7020 H   0  0  0  0  0  0  0  0  0  0  0  0
  -22.3530  -13.3970   22.5800 H   0  0  0  0  0  0  0  0  0  0  0  0
  -26.5850  -15.0650   20.2470 N   0  0  0  0  0  0  0  0  0  0  0  0
  -25.7640  -15.6590   20.3130 H   0  0  0  0  0  0  0  0  0  0  0  0
  -27.1210  -15.2780   19.4160 H   0  0  0  0  0  0  0  0  0  0  0  0
  -28.3530  -20.2460   17.9670 C   0  0  0  0  0  2  0  0  0  0  0  0
  -27.8270  -21.5140   18.5140 N   0  0  0  0  0  4  0  0  0  0  0  0
  -28.1350  -21.6040   19.4690 H   0  0  0  0  0  0  0  0  0  0  0  0
  -26.8180  -21.4850   18.5150 H   0  0  0  0  0  0  0  0  0  0  0  0
  -28.2720  -22.7230   17.7890 C   0  0  0  0  0  2  0  0  0  0  0  0
  -28.3090  -23.9520   18.7140 C   0  0  0  0  0  2  0  0  0  0  0  0
  -28.6970  -25.2460   17.9720 C   0  0  0  0  0  2  0  0  0  0  0  0
  -28.7030  -26.3700   18.8580 O   0  0  0  0  0  0  0  0  0  0  0  0
  -25.1010  -30.7510   23.1650 C   0  0  0  0  0  0  0  0  0  0  0  0
  -27.5250  -27.0620   19.0710 C   0  0  0  0  0  0  0  0  0  0  0  0
  -23.8120  -29.7960   21.2860 C   0  0  0  0  0  3  0  0  0  0  0  0
  -25.1790  -28.5830   19.5150 C   0  0  0  0  0  0  0  0  0  0  0  0
  -26.3460  -30.1140   21.1030 C   0  0  0  0  0  2  0  0  0  0  0  0
  -26.3680  -28.9220   20.1710 C   0  0  0  0  0  0  0  0  0  0  0  0
  -27.5410  -28.1650   19.9550 C   0  0  0  0  0  3  0  0  0  0  0  0
  -26.3050  -26.7220   18.4370 C   0  0  0  0  0  3  0  0  0  0  0  0
  -25.1380  -27.4750   18.6560 C   0  0  0  0  0  3  0  0  0  0  0  0
  -23.9710  -29.4500   19.7830 C   0  0  0  0  0  2  0  0  0  0  0  0
  -25.1070  -30.2180   21.9100 N   0  0  0  0  0  0  0  0  0  0  0  0
  -24.0390  -30.9260   23.7800 O   0  0  0  0  0  0  0  0  0  0  0  0
  -23.1480  -28.5980   22.0010 C   0  0  0  0  0  0  0  0  0  0  0  0
  -21.8220  -28.4600   21.8340 N   0  0  0  0  0  0  0  0  0  0  0  0
  -23.8210  -27.8050   22.6660 O   0  0  0  0  0  0  0  0  0  0  0  0
  -21.3380  -29.1520   21.2800 H   0  0  0  0  0  0  0  0  0  0  0  0
  -18.4390  -27.2170   22.0270 C   0  0  0  0  0  0  0  0  0  0  0  0
  -20.9930  -27.3920   22.3880 C   0  0  0  0  0  3  0  0  0  0  0  0
  -21.1010  -26.1070   21.5340 C   0  0  0  0  0  2  0  0  0  0  0  0
  -20.0150  -26.0060   20.4580 C   0  0  0  0  0  2  0  0  0  0  0  0
  -18.6230  -26.0300   21.0960 C   0  0  0  0  0  2  0  0  0  0  0  0
  -19.5540  -27.8660   22.6210 C   0  0  0  0  0  0  0  0  0  0  0  0
  -19.3310  -28.9890   23.4480 C   0  0  0  0  0  3  0  0  0  0  0  0
  -18.0260  -29.4580   23.6890 C   0  0  0  0  0  3  0  0  0  0  0  0
  -16.9250  -28.8000   23.1140 C   0  0  0  0  0  3  0  0  0  0  0  0
  -17.1340  -27.6810   22.2870 C   0  0  0  0  0  3  0  0  0  0  0  0
  -26.4190  -31.1900   23.8740 C   0  0  0  0  0  3  0  0  0  0  0  0
  -26.1560  -32.4700   24.5440 N   0  0  0  0  0  0  0  0  0  0  0  0
  -26.5310  -33.6660   24.0730 C   0  0  0  0  0  0  0  0  0  0  0  0
  -27.2050  -33.8010   23.0470 O   0  0  0  0  0  0  0  0  0  0  0  0
  -25.5650  -32.4420   25.3630 H   0  0  0  0  0  0  0  0  0  0  0  0
  -24.8820  -35.5590   24.1630 C   0  0  0  0  0  1  0  0  0  0  0  0
  -26.0870  -34.9110   24.8620 C   0  0  0  0  0  3  0  0  0  0  0  0
  -28.2230  -35.4690   25.9340 C   0  0  0  0  0  1  0  0  0  0  0  0
  -27.1590  -35.9120   25.0360 N   0  0  0  0  0  0  0  0  0  0  0  0
  -26.7840  -36.7850   25.3970 H   0  0  0  0  0  0  0  0  0  0  0  0
  -26.9550  -30.1210   24.9030 C   0  0  1  0  0  0  0  0  0  0  0  0
  -25.8900  -29.6430   25.9170 C   0  0  0  0  0  1  0  0  0  0  0  0
  -27.4890  -28.8750   24.1590 C   0  0  0  0  0  1  0  0  0  0  0  0
  -28.1450  -30.7050   25.6980 C   0  0  0  0  0  1  0  0  0  0  0  0
  3  2  1  0
  3  6  1  0
  5  1  1  0
  5  2  1  0
  5  4  1  0
  6 10  1  0
  7  4  1  0
  7  6  1  0
  7  8  1  0
  9  7  1  0
 11 17  1  0
 11 19  1  0
 12 17  1  0
 13 14  1  0
 13 12  1  0
 15 14  1  0
 15 24  1  0
 15 16  1  0
 17 16  1  0
 18 11  2  0
 19 10  1  0
 20 19  1  0
 21 22  2  0
 22 41  1  0
 23 22  1  0
 23 26  1  0
 24 25  1  0
 24 21  1  0
 25 23  2  0
 26 27  1  0
 27 28  2  0
 29 32  1  0
 29 28  1  0
 30 29  2  0
 31 30  1  0
 31 26  2  0
 32 33  1  0
 33 38  2  0
 33 34  1  0
 34 35  2  0
 35 36  1  0
 36 40  1  0
 37 36  2  0
 38 37  1  0
 39 38  1  0
 41 42  1  0
 42 45  1  0
 42 44  1  0
 43 41  2  0
 46 47  1  0
 46 21  1  0
 48 46  1  0
 49 50  1  0
 49  1  1  0
 50 52  1  0
 50 51  1  0
 53 50  1  0
 53 54  1  0
 55 54  1  0
 55 56  1  0
 56 58  1  0
 57 68  2  0
 58 63  1  0
 59 67  1  0
 59 69  1  0
 60 66  1  0
 60 62  1  0
 61 67  1  0
 62 61  1  0
 63 62  2  0
 64 65  1  0
 64 58  2  0
 65 60  2  0
 66 59  1  0
 67 57  1  0
 69 71  2  0
 70 69  1  0
 72 70  1  0
 73 82  2  0
 73 78  1  0
 74 70  1  0
 74 78  1  0
 75 74  1  0
 76 77  1  0
 76 75  1  0
 77 73  1  0
 78 79  2  0
 79 80  1  0
 81 80  2  0
 82 81  1  0
 83 57  1  0
 83 84  1  0
 83 93  1  0
 84 87  1  0
 85 84  1  0
 85 89  1  0
 86 85  2  0
 89 88  1  0
 89 91  1  0
 91 92  1  0
 91 90  1  0
 93 96  1  1
 93 94  1  0
 95 93  1  0
M  ISO  4  11 100  19 100  55 101  56 101
M  END
>  <TORSDO>  (66) 
F 23

>  <SCORE>  (66) 
-8.065

>  <name>  (66) 
66

>  <ligand_id>  (66) 
66

>  <original_smiles>  (66) 
[H]c1c([H])c([H])c2c(c1[H])C([H])([H])C([H])([H])C([H])([H])C2([H])N([H])C(=O)C1([H])N(C(=O)C([H])(N([H])C(=O)C([H])(N([H])C([H])([H])[H])C([H])([H])[H])C(C([H])([H])[H])(C([H])([H])[H])C([H])([H])[H])C([H])([H])c2c([H])c(OC([H])([H])C([H])([H])C([H])([H])[N+]([H])([H])C([H])([H])C([H])([H])C3([H])C([H])([H])C([H])([H])C([H])(C([H])([H])N([H])C(=O)N4C([H])([H])C([H])([H])C([H])([H])C([H])(n5nc(-c6c([H])c([H])c(Oc7c([H])c([H])c(F)c([H])c7F)c([H])c6[H])c(C(=O)N([H])[H])c5N([H])[H])C4([H])[H])[N+]([H])([H])C3([H])[H])c([H])c([H])c2C1([H])[H]

>  <smiles>  (66) 
[H]c1c([H])c([H])c2c(c1[H])C([H])([H])C([H])([H])C([H])([H])C2([H])N([H])C(=O)C1([H])N(C(=O)C([H])(N([H])C(=O)C([H])(N([H])C([H])([H])[H])C([H])([H])[H])C(C([H])([H])[H])(C([H])([H])[H])C([H])([H])[H])C([H])([H])c2c([H])c(OC([H])([H])C([H])([H])C([H])([H])[N+]([H])([H])C([H])([H])C([H])([H])C3([H])C([H])([H])C([H])([H])C([H])(C([H])([H])N([H])C(=O)N4C([H])([H])C([H])([H])C([H])([H])C([H])(n5nc(-c6c([H])c([H])c(Oc7c([H])c([H])c(F)c([H])c7F)c([H])c6[H])c(C(=O)N([H])[H])c5N([H])[H])C4([H])[H])[N+]([H])([H])C3([H])[H])c([H])c([H])c2C1([H])[H]

$$$$
67:0:0
     RDKit          3D

 94103  0  0  1  0  0  0  0  0999 V2000
  -30.0010  -18.5950   21.1260 C   0  0  0  0  0  2  0  0  0  0  0  0
  -30.7910  -19.8500   21.5050 C   0  0  0  0  0  2  0  0  0  0  0  0
  -33.2100  -19.9600   19.5630 C   0  0  0  0  0  2  0  0  0  0  0  0
  -31.0790  -18.6220   18.8230 C   0  0  0  0  0  2  0  0  0  0  0  0
  -33.3770  -21.3510   20.1980 C   0  0  0  0  0  2  0  0  0  0  0  0
  -31.7460  -19.9680   19.1370 C   0  0  0  0  0  3  0  0  0  0  0  0
  -30.7450  -17.7670   20.0610 C   0  0  0  0  0  3  0  0  0  0  0  0
  -31.0690  -20.7350   20.2700 C   0  0  0  0  0  3  0  0  0  0  0  0
  -32.0250  -21.8120   20.6210 N   0  0  2  0  0  4  0  0  0  0  0  0
  -32.0330  -21.8880   21.6280 H   0  0  0  0  0  0  0  0  0  0  0  0
  -29.8980  -16.5660   19.6190 C   0  0  0  0  0  2  0  0  0  0  0  0
  -30.6710  -14.4250   20.4430 C   0  0  0  0  0  0  0  0  0  0  0  0
  -30.3530  -12.2760   19.3330 C   0  0  0  0  0  2  0  0  0  0  0  0
  -29.4320  -12.5460   18.1240 C   0  0  0  0  0  2  0  0  0  0  0  0
  -27.9500  -12.4370   18.5350 C   0  0  0  0  0  2  0  0  0  0  0  0
  -27.6170  -13.2580   19.8110 C   0  0  0  0  0  3  0  0  0  0  0  0
  -28.6600  -12.9980   20.9270 C   0  0  0  0  0  2  0  0  0  0  0  0
  -30.0030  -13.2480   20.3760 N   0  0  0  0  0  0  0  0  0  0  0  0
  -31.8300  -14.5850   20.0540 O   0  0  0  0  0  0  0  0  0  0  0  0
  -29.8570  -15.4760   20.5880 N   0  0  0  0  0  0  0  0  0  0  0  0
  -28.9500  -15.2610   20.9710 H   0  0  0  0  0  0  0  0  0  0  0  0
  -25.2140  -13.8970   20.4780 C   0  0  0  0  0  0  0  0  0  0  0  0
  -24.1360  -13.1360   20.8440 C   0  0  0  0  0  0  0  0  0  0  0  0
  -24.5880  -11.7810   20.8350 C   0  0  0  0  0  0  0  0  0  0  0  0
  -26.2550  -13.0040   20.2730 N   0  0  0  0  0  0  0  0  0  0  0  0
  -25.8810  -11.7280   20.5430 N   0  0  0  0  0  0  0  0  0  0  0  0
  -23.8530  -10.5260   21.0330 C   0  0  0  0  0  0  0  0  0  0  0  0
  -24.2810   -9.5600   21.9690 C   0  0  0  0  0  3  0  0  0  0  0  0
  -23.5480   -8.3670   22.1530 C   0  0  0  0  0  3  0  0  0  0  0  0
  -22.3720   -8.1350   21.4010 C   0  0  0  0  0  0  0  0  0  0  0  0
  -21.9630   -9.0890   20.4540 C   0  0  0  0  0  3  0  0  0  0  0  0
  -22.6980  -10.2730   20.2680 C   0  0  0  0  0  3  0  0  0  0  0  0
  -21.6110   -6.9950   21.4930 O   0  0  0  0  0  0  0  0  0  0  0  0
  -21.5710   -6.2470   22.6430 C   0  0  0  0  0  0  0  0  0  0  0  0
  -21.1820   -6.8050   23.8810 C   0  0  0  0  0  3  0  0  0  0  0  0
  -21.0880   -5.9860   25.0240 C   0  0  0  0  0  3  0  0  0  0  0  0
  -21.3720   -4.6100   24.9290 C   0  0  0  0  0  0  0  0  0  0  0  0
  -21.7540   -4.0520   23.6960 C   0  0  0  0  0  3  0  0  0  0  0  0
  -21.8510   -4.8700   22.5560 C   0  0  0  0  0  0  0  0  0  0  0  0
  -22.1980   -4.3230   21.3660 F   0  0  0  0  0  0  0  0  0  0  0  0
  -21.2750   -3.8210   26.0240 F   0  0  0  0  0  0  0  0  0  0  0  0
  -22.7390  -13.6250   21.0940 C   0  0  0  0  0  0  0  0  0  0  0  0
  -21.9980  -12.9440   21.9620 N   0  0  0  0  0  0  0  0  0  0  0  0
  -22.3120  -14.6480   20.5600 O   0  0  0  0  0  0  0  0  0  0  0  0
  -22.3550  -12.1150   22.4140 H   0  0  0  0  0  0  0  0  0  0  0  0
  -21.0590  -13.2530   22.1740 H   0  0  0  0  0  0  0  0  0  0  0  0
  -25.3910  -15.2640   20.2850 N   0  0  0  0  0  0  0  0  0  0  0  0
  -24.6250  -15.9230   20.3700 H   0  0  0  0  0  0  0  0  0  0  0  0
  -26.2470  -15.6950   19.9580 H   0  0  0  0  0  0  0  0  0  0  0  0
  -31.6780  -23.1590   20.0960 C   0  0  0  0  0  2  0  0  0  0  0  0
  -30.2540  -23.6280   20.4620 C   0  0  0  0  0  2  0  0  0  0  0  0
  -30.0140  -25.1030   20.1450 C   0  0  0  0  0  2  0  0  0  0  0  0
  -28.5230  -25.4590   20.1450 C   0  0  0  0  0  2  0  0  0  0  0  0
  -28.4670  -26.8700   20.1480 O   0  0  0  0  0  0  0  0  0  0  0  0
  -24.5840  -31.9070   23.2370 C   0  0  0  0  0  0  0  0  0  0  0  0
  -27.2430  -27.4870   20.1750 C   0  0  0  0  0  0  0  0  0  0  0  0
  -23.3760  -30.4960   21.5980 C   0  0  0  0  0  3  0  0  0  0  0  0
  -24.8290  -28.9450   20.1910 C   0  0  0  0  0  0  0  0  0  0  0  0
  -25.8960  -30.8630   21.3980 C   0  0  0  0  0  2  0  0  0  0  0  0
  -25.9810  -29.4900   20.7700 C   0  0  0  0  0  0  0  0  0  0  0  0
  -27.1880  -28.7690   20.7540 C   0  0  0  0  0  3  0  0  0  0  0  0
  -26.0710  -26.9330   19.6110 C   0  0  0  0  0  3  0  0  0  0  0  0
  -24.8650  -27.6630   19.6130 C   0  0  0  0  0  3  0  0  0  0  0  0
  -23.5820  -29.7990   20.2260 C   0  0  0  0  0  2  0  0  0  0  0  0
  -24.6360  -31.1030   22.1370 N   0  0  0  0  0  0  0  0  0  0  0  0
  -23.5040  -32.1820   23.7750 O   0  0  0  0  0  0  0  0  0  0  0  0
  -22.7240  -29.4820   22.5650 C   0  0  0  0  0  0  0  0  0  0  0  0
  -21.3990  -29.3040   22.4360 N   0  0  0  0  0  0  0  0  0  0  0  0
  -23.4060  -28.8590   23.3830 O   0  0  0  0  0  0  0  0  0  0  0  0
  -20.9120  -29.8600   21.7480 H   0  0  0  0  0  0  0  0  0  0  0  0
  -18.0220  -28.1290   22.9290 C   0  0  0  0  0  0  0  0  0  0  0  0
  -20.5800  -28.3700   23.2070 C   0  0  0  0  0  3  0  0  0  0  0  0
  -20.6760  -26.9370   22.6360 C   0  0  0  0  0  2  0  0  0  0  0  0
  -19.5750  -26.6190   21.6180 C   0  0  0  0  0  2  0  0  0  0  0  0
  -18.1910  -26.7770   22.2560 C   0  0  0  0  0  2  0  0  0  0  0  0
  -19.1450  -28.8840   23.3600 C   0  0  0  0  0  0  0  0  0  0  0  0
  -18.9330  -30.1530   23.9450 C   0  0  0  0  0  3  0  0  0  0  0  0
  -17.6310  -30.6640   24.1050 C   0  0  0  0  0  3  0  0  0  0  0  0
  -16.5230  -29.9040   23.6930 C   0  0  0  0  0  3  0  0  0  0  0  0
  -16.7190  -28.6380   23.1120 C   0  0  0  0  0  3  0  0  0  0  0  0
  -25.8730  -32.5360   23.8550 C   0  0  0  0  0  3  0  0  0  0  0  0
  -25.5680  -33.9350   24.1840 N   0  0  0  0  0  0  0  0  0  0  0  0
  -25.9060  -34.9840   23.4240 C   0  0  0  0  0  0  0  0  0  0  0  0
  -26.5810  -34.8780   22.3960 O   0  0  0  0  0  0  0  0  0  0  0  0
  -24.9730  -34.0920   24.9830 H   0  0  0  0  0  0  0  0  0  0  0  0
  -24.1820  -36.7770   23.0540 C   0  0  0  0  0  1  0  0  0  0  0  0
  -25.4170  -36.3740   23.8750 C   0  0  0  0  0  3  0  0  0  0  0  0
  -27.5520  -37.2490   24.7160 C   0  0  0  0  0  1  0  0  0  0  0  0
  -26.4510  -37.4250   23.7710 N   0  0  0  0  0  0  0  0  0  0  0  0
  -26.0460  -38.3440   23.9270 H   0  0  0  0  0  0  0  0  0  0  0  0
  -26.3940  -31.7640   25.1280 C   0  0  1  0  0  0  0  0  0  0  0  0
  -25.3050  -31.5220   26.1990 C   0  0  0  0  0  1  0  0  0  0  0  0
  -26.9760  -30.3870   24.7300 C   0  0  0  0  0  1  0  0  0  0  0  0
  -27.5460  -32.5580   25.7890 C   0  0  0  0  0  1  0  0  0  0  0  0
  1  2  1  0
  3  5  1  0
  4  7  1  0
  5  9  1  0
  6  4  1  0
  6  3  1  0
  6  8  1  0
  7 11  1  0
  7  1  1  0
  8  9  1  0
  8  2  1  0
  9 10  1  1
 11 20  1  0
 12 20  1  0
 13 18  1  0
 14 15  1  0
 14 13  1  0
 16 15  1  0
 16 25  1  0
 16 17  1  0
 18 12  1  0
 18 17  1  0
 19 12  2  0
 20 21  1  0
 22 23  2  0
 23 42  1  0
 24 23  1  0
 24 27  1  0
 25 22  1  0
 25 26  1  0
 26 24  2  0
 27 28  1  0
 28 29  2  0
 30 33  1  0
 30 29  1  0
 31 30  2  0
 32 31  1  0
 32 27  2  0
 33 34  1  0
 34 35  1  0
 35 36  2  0
 37 36  1  0
 37 41  1  0
 38 37  2  0
 39 34  2  0
 39 38  1  0
 40 39  1  0
 42 43  1  0
 43 46  1  0
 43 45  1  0
 44 42  2  0
 47 48  1  0
 47 22  1  0
 49 47  1  0
 50 51  1  0
 50  9  1  0
 52 53  1  0
 52 51  1  0
 53 54  1  0
 54 56  1  0
 55 66  2  0
 56 61  1  0
 57 65  1  0
 57 67  1  0
 58 64  1  0
 58 60  1  0
 59 65  1  0
 60 59  1  0
 61 60  2  0
 62 63  1  0
 62 56  2  0
 63 58  2  0
 64 57  1  0
 65 55  1  0
 67 69  2  0
 68 67  1  0
 70 68  1  0
 71 80  2  0
 71 76  1  0
 72 68  1  0
 72 76  1  0
 73 72  1  0
 74 75  1  0
 74 73  1  0
 75 71  1  0
 76 77  2  0
 77 78  1  0
 79 78  2  0
 80 79  1  0
 81 55  1  0
 81 82  1  0
 81 91  1  0
 82 85  1  0
 83 87  1  0
 83 82  1  0
 84 83  2  0
 87 86  1  0
 89 87  1  0
 89 90  1  0
 89 88  1  0
 91 94  1  1
 91 92  1  0
 93 91  1  0
M  ISO  4  12 100  20 100  53 101  54 101
M  END
>  <TORSDO>  (67) 
F 21

>  <SCORE>  (67) 
-13.532

>  <name>  (67) 
67

>  <ligand_id>  (67) 
67

>  <original_smiles>  (67) 
[H]c1c([H])c([H])c2c(c1[H])C([H])([H])C([H])([H])C([H])([H])C2([H])N([H])C(=O)C1([H])N(C(=O)C([H])(N([H])C(=O)C([H])(N([H])C([H])([H])[H])C([H])([H])[H])C(C([H])([H])[H])(C([H])([H])[H])C([H])([H])[H])C([H])([H])c2c([H])c(OC([H])([H])C([H])([H])C([H])([H])C([H])([H])[N+]3([H])C([H])([H])C([H])([H])C4([H])C([H])([H])C([H])(C([H])([H])N([H])C(=O)N5C([H])([H])C([H])([H])C([H])([H])C([H])(n6nc(-c7c([H])c([H])c(Oc8c([H])c([H])c(F)c([H])c8F)c([H])c7[H])c(C(=O)N([H])[H])c6N([H])[H])C5([H])[H])C([H])([H])C([H])([H])C43[H])c([H])c([H])c2C1([H])[H]

>  <smiles>  (67) 
[H]c1c([H])c([H])c2c(c1[H])C([H])([H])C([H])([H])C([H])([H])C2([H])N([H])C(=O)C1([H])N(C(=O)C([H])(N([H])C(=O)C([H])(N([H])C([H])([H])[H])C([H])([H])[H])C(C([H])([H])[H])(C([H])([H])[H])C([H])([H])[H])C([H])([H])c2c([H])c(OC([H])([H])C([H])([H])C([H])([H])C([H])([H])[N+]3([H])C([H])([H])C([H])([H])C4([H])C([H])([H])C([H])(C([H])([H])N([H])C(=O)N5C([H])([H])C([H])([H])C([H])([H])C([H])(n6nc(-c7c([H])c([H])c(Oc8c([H])c([H])c(F)c([H])c8F)c([H])c7[H])c(C(=O)N([H])[H])c6N([H])[H])C5([H])[H])C([H])([H])C([H])([H])C43[H])c([H])c([H])c2C1([H])[H]

$$$$
68:0:0
     RDKit          3D

 95103  0  0  1  0  0  0  0  0999 V2000
  -30.0450  -22.8600   23.4780 C   0  0  0  0  0  2  0  0  0  0  0  0
  -30.9620  -20.5710   20.5430 C   0  0  0  0  0  3  0  0  0  0  0  0
  -30.7080  -21.7290   21.3010 C   0  0  0  0  0  3  0  0  0  0  0  0
  -30.7880  -19.2210   22.5720 C   0  0  0  0  0  3  0  0  0  0  0  0
  -30.9870  -19.3140   21.1790 C   0  0  0  0  0  0  0  0  0  0  0  0
  -30.4540  -21.6310   22.6850 C   0  0  0  0  0  0  0  0  0  0  0  0
  -30.5250  -20.3770   23.3250 C   0  0  0  0  0  0  0  0  0  0  0  0
  -30.2960  -20.2750   24.6550 F   0  0  0  0  0  0  0  0  0  0  0  0
  -31.1900  -18.0510   20.3800 C   0  0  0  0  0  2  0  0  0  0  0  0
  -32.2430  -17.1340   21.0150 C   0  0  0  0  0  2  0  0  0  0  0  0
  -32.1740  -14.8670   20.0170 C   0  0  0  0  0  0  0  0  0  0  0  0
  -31.7030  -12.6460   19.0830 C   0  0  0  0  0  2  0  0  0  0  0  0
  -30.7090  -12.7320   17.9110 C   0  0  0  0  0  2  0  0  0  0  0  0
  -29.2530  -12.7180   18.4160 C   0  0  0  0  0  2  0  0  0  0  0  0
  -29.0110  -13.7450   19.5520 C   0  0  0  0  0  3  0  0  0  0  0  0
  -30.0910  -13.6030   20.6450 C   0  0  0  0  0  2  0  0  0  0  0  0
  -31.4200  -13.7440   20.0110 N   0  0  0  0  0  0  0  0  0  0  0  0
  -33.1370  -15.0620   19.2680 O   0  0  0  0  0  0  0  0  0  0  0  0
  -31.8010  -15.7550   20.9330 N   0  0  0  0  0  0  0  0  0  0  0  0
  -31.0420  -15.4820   21.5420 H   0  0  0  0  0  0  0  0  0  0  0  0
  -26.7820  -14.6000   20.5260 C   0  0  0  0  0  0  0  0  0  0  0  0
  -25.6390  -13.9450   20.8980 C   0  0  0  0  0  0  0  0  0  0  0  0
  -25.8860  -12.5550   20.6680 C   0  0  0  0  0  0  0  0  0  0  0  0
  -27.6650  -13.6130   20.1060 N   0  0  0  0  0  0  0  0  0  0  0  0
  -27.1290  -12.3730   20.2430 N   0  0  0  0  0  0  0  0  0  0  0  0
  -24.9950  -11.3940   20.7770 C   0  0  0  0  0  0  0  0  0  0  0  0
  -25.3330  -10.2760   21.5720 C   0  0  0  0  0  3  0  0  0  0  0  0
  -24.4520   -9.1760   21.6730 C   0  0  0  0  0  3  0  0  0  0  0  0
  -23.2190   -9.1900   20.9800 C   0  0  0  0  0  0  0  0  0  0  0  0
  -22.8980  -10.2950   20.1700 C   0  0  0  0  0  3  0  0  0  0  0  0
  -23.7760  -11.3860   20.0670 C   0  0  0  0  0  3  0  0  0  0  0  0
  -22.3120   -8.1560   20.9990 O   0  0  0  0  0  0  0  0  0  0  0  0
  -22.1200   -7.3890   22.1200 C   0  0  0  0  0  0  0  0  0  0  0  0
  -21.7370   -7.9580   23.3550 C   0  0  0  0  0  3  0  0  0  0  0  0
  -21.4820   -7.1250   24.4640 C   0  0  0  0  0  3  0  0  0  0  0  0
  -21.5990   -5.7270   24.3370 C   0  0  0  0  0  0  0  0  0  0  0  0
  -21.9750   -5.1590   23.1080 C   0  0  0  0  0  3  0  0  0  0  0  0
  -22.2330   -5.9900   22.0010 C   0  0  0  0  0  0  0  0  0  0  0  0
  -22.5750   -5.4380   20.8130 F   0  0  0  0  0  0  0  0  0  0  0  0
  -21.3450   -4.9270   25.3990 F   0  0  0  0  0  0  0  0  0  0  0  0
  -24.3520  -14.5720   21.3510 C   0  0  0  0  0  0  0  0  0  0  0  0
  -23.6070  -13.8940   22.2170 N   0  0  0  0  0  0  0  0  0  0  0  0
  -24.0210  -15.6960   20.9720 O   0  0  0  0  0  0  0  0  0  0  0  0
  -23.8860  -12.9800   22.5460 H   0  0  0  0  0  0  0  0  0  0  0  0
  -22.7450  -14.2920   22.5610 H   0  0  0  0  0  0  0  0  0  0  0  0
  -27.1400  -15.9430   20.4930 N   0  0  0  0  0  0  0  0  0  0  0  0
  -26.4900  -16.6850   20.7310 H   0  0  0  0  0  0  0  0  0  0  0  0
  -28.0320  -16.2850   20.1550 H   0  0  0  0  0  0  0  0  0  0  0  0
  -28.6240  -23.1940   23.2310 N   0  0  0  0  0  4  0  0  0  0  0  0
  -28.3340  -23.8980   23.8920 H   0  0  0  0  0  0  0  0  0  0  0  0
  -28.0870  -22.3650   23.4280 H   0  0  0  0  0  0  0  0  0  0  0  0
  -28.2980  -23.6430   21.8560 C   0  0  0  0  0  2  0  0  0  0  0  0
  -28.5440  -25.1480   21.6510 C   0  0  0  0  0  2  0  0  0  0  0  0
  -28.6440  -25.5400   20.1670 C   0  0  0  0  0  2  0  0  0  0  0  0
  -28.6320  -26.9610   20.0420 O   0  0  0  0  0  0  0  0  0  0  0  0
  -24.5780  -31.8630   23.2140 C   0  0  0  0  0  0  0  0  0  0  0  0
  -27.4100  -27.5950   20.0620 C   0  0  0  0  0  0  0  0  0  0  0  0
  -23.4390  -30.4560   21.5300 C   0  0  0  0  0  3  0  0  0  0  0  0
  -24.9580  -28.9980   20.0950 C   0  0  0  0  0  0  0  0  0  0  0  0
  -25.9540  -30.9010   21.3760 C   0  0  0  0  0  2  0  0  0  0  0  0
  -26.0900  -29.5530   20.7020 C   0  0  0  0  0  0  0  0  0  0  0  0
  -27.3190  -28.8620   20.6760 C   0  0  0  0  0  3  0  0  0  0  0  0
  -26.2560  -27.0450   19.4560 C   0  0  0  0  0  3  0  0  0  0  0  0
  -25.0330  -27.7420   19.4710 C   0  0  0  0  0  3  0  0  0  0  0  0
  -23.6860  -29.8140   20.1400 C   0  0  0  0  0  2  0  0  0  0  0  0
  -24.6740  -31.0890   22.0990 N   0  0  0  0  0  0  0  0  0  0  0  0
  -23.4820  -32.0880   23.7450 O   0  0  0  0  0  0  0  0  0  0  0  0
  -22.8100  -29.3930   22.4580 C   0  0  0  0  0  0  0  0  0  0  0  0
  -21.4960  -29.1680   22.3020 N   0  0  0  0  0  0  0  0  0  0  0  0
  -23.5030  -28.7740   23.2700 O   0  0  0  0  0  0  0  0  0  0  0  0
  -21.0000  -29.7230   21.6180 H   0  0  0  0  0  0  0  0  0  0  0  0
  -18.1550  -27.8540   22.7050 C   0  0  0  0  0  0  0  0  0  0  0  0
  -20.6970  -28.1890   23.0370 C   0  0  0  0  0  3  0  0  0  0  0  0
  -20.8590  -26.7730   22.4360 C   0  0  0  0  0  2  0  0  0  0  0  0
  -19.7890  -26.4350   21.3930 C   0  0  0  0  0  2  0  0  0  0  0  0
  -18.3900  -26.5220   22.0110 C   0  0  0  0  0  2  0  0  0  0  0  0
  -19.2390  -28.6430   23.1720 C   0  0  0  0  0  0  0  0  0  0  0  0
  -18.9670  -29.8890   23.7790 C   0  0  0  0  0  3  0  0  0  0  0  0
  -17.6430  -30.3450   23.9260 C   0  0  0  0  0  3  0  0  0  0  0  0
  -16.5740  -29.5520   23.4770 C   0  0  0  0  0  3  0  0  0  0  0  0
  -16.8300  -28.3090   22.8720 C   0  0  0  0  0  3  0  0  0  0  0  0
  -25.8360  -32.5190   23.8640 C   0  0  0  0  0  3  0  0  0  0  0  0
  -25.4930  -33.9120   24.1730 N   0  0  0  0  0  0  0  0  0  0  0  0
  -25.8300  -34.9640   23.4150 C   0  0  0  0  0  0  0  0  0  0  0  0
  -26.5320  -34.8650   22.4040 O   0  0  0  0  0  0  0  0  0  0  0  0
  -24.8710  -34.0650   24.9540 H   0  0  0  0  0  0  0  0  0  0  0  0
  -24.0740  -36.7140   23.0040 C   0  0  0  0  0  1  0  0  0  0  0  0
  -25.3050  -36.3450   23.8470 C   0  0  0  0  0  3  0  0  0  0  0  0
  -27.3990  -37.2830   24.7180 C   0  0  0  0  0  1  0  0  0  0  0  0
  -26.3170  -37.4180   23.7470 N   0  0  0  0  0  0  0  0  0  0  0  0
  -25.8890  -38.3310   23.8740 H   0  0  0  0  0  0  0  0  0  0  0  0
  -26.3330  -31.7660   25.1580 C   0  0  1  0  0  0  0  0  0  0  0  0
  -25.2100  -31.4930   26.1850 C   0  0  0  0  0  1  0  0  0  0  0  0
  -26.9720  -30.4070   24.7890 C   0  0  0  0  0  1  0  0  0  0  0  0
  -27.4330  -32.5990   25.8560 C   0  0  0  0  0  1  0  0  0  0  0  0
  2  5  2  0
  2  3  1  0
  3  6  2  0
  4  7  2  0
  5  4  1  0
  6  7  1  0
  6  1  1  0
  7  8  1  0
  9 10  1  0
  9  5  1  0
 11 19  1  0
 12 17  1  0
 13 14  1  0
 13 12  1  0
 15 14  1  0
 15 24  1  0
 15 16  1  0
 17 11  1  0
 17 16  1  0
 18 11  2  0
 19 10  1  0
 19 20  1  0
 21 22  2  0
 22 41  1  0
 23 26  1  0
 23 22  1  0
 24 25  1  0
 24 21  1  0
 25 23  2  0
 26 27  1  0
 27 28  2  0
 29 32  1  0
 29 28  1  0
 30 29  2  0
 31 30  1  0
 31 26  2  0
 32 33  1  0
 33 34  1  0
 34 35  2  0
 36 35  1  0
 36 40  1  0
 37 36  2  0
 38 33  2  0
 38 37  1  0
 39 38  1  0
 41 42  1  0
 42 44  1  0
 42 45  1  0
 43 41  2  0
 46 21  1  0
 46 47  1  0
 48 46  1  0
 49 51  1  0
 49  1  1  0
 49 50  1  0
 52 49  1  0
 53 52  1  0
 54 53  1  0
 55 57  1  0
 55 54  1  0
 56 67  2  0
 57 62  1  0
 58 66  1  0
 58 68  1  0
 59 65  1  0
 59 61  1  0
 60 66  1  0
 61 60  1  0
 62 61  2  0
 63 64  1  0
 63 57  2  0
 64 59  2  0
 65 58  1  0
 66 56  1  0
 68 70  2  0
 69 68  1  0
 71 69  1  0
 72 81  2  0
 72 77  1  0
 73 69  1  0
 73 77  1  0
 74 73  1  0
 75 76  1  0
 75 74  1  0
 76 72  1  0
 77 78  2  0
 78 79  1  0
 80 79  2  0
 81 80  1  0
 82 56  1  0
 82 83  1  0
 82 92  1  0
 83 86  1  0
 84 88  1  0
 84 83  1  0
 85 84  2  0
 88 87  1  0
 90 88  1  0
 90 91  1  0
 90 89  1  0
 92 95  1  1
 92 93  1  0
 94 92  1  0
M  ISO  4  11 100  19 100  54 101  55 101
M  END
>  <TORSDO>  (68) 
F 23

>  <SCORE>  (68) 
-10.031

>  <name>  (68) 
68

>  <ligand_id>  (68) 
68

>  <original_smiles>  (68) 
[H]c1c([H])c([H])c2c(c1[H])C([H])([H])C([H])([H])C([H])([H])C2([H])N([H])C(=O)C1([H])N(C(=O)C([H])(N([H])C(=O)C([H])(N([H])C([H])([H])[H])C([H])([H])[H])C(C([H])([H])[H])(C([H])([H])[H])C([H])([H])[H])C([H])([H])c2c([H])c(OC([H])([H])C([H])([H])C([H])([H])[N+]([H])([H])C([H])([H])c3c([H])c([H])c(C([H])([H])C([H])([H])N([H])C(=O)N4C([H])([H])C([H])([H])C([H])([H])C([H])(n5nc(-c6c([H])c([H])c(Oc7c([H])c([H])c(F)c([H])c7F)c([H])c6[H])c(C(=O)N([H])[H])c5N([H])[H])C4([H])[H])c([H])c3F)c([H])c([H])c2C1([H])[H]

>  <smiles>  (68) 
[H]c1c([H])c([H])c2c(c1[H])C([H])([H])C([H])([H])C([H])([H])C2([H])N([H])C(=O)C1([H])N(C(=O)C([H])(N([H])C(=O)C([H])(N([H])C([H])([H])[H])C([H])([H])[H])C(C([H])([H])[H])(C([H])([H])[H])C([H])([H])[H])C([H])([H])c2c([H])c(OC([H])([H])C([H])([H])C([H])([H])[N+]([H])([H])C([H])([H])c3c([H])c([H])c(C([H])([H])C([H])([H])N([H])C(=O)N4C([H])([H])C([H])([H])C([H])([H])C([H])(n5nc(-c6c([H])c([H])c(Oc7c([H])c([H])c(F)c([H])c7F)c([H])c6[H])c(C(=O)N([H])[H])c5N([H])[H])C4([H])[H])c([H])c3F)c([H])c([H])c2C1([H])[H]

$$$$
69:0:0
     RDKit          3D

 97105  0  0  1  0  0  0  0  0999 V2000
  -30.0260  -18.8820   21.9210 C   0  0  0  0  0  3  0  0  0  0  0  0
  -30.6380  -18.0010   19.7350 C   0  0  0  0  0  3  0  0  0  0  0  0
  -29.8010  -20.2820   19.9410 C   0  0  0  0  0  3  0  0  0  0  0  0
  -30.5220  -17.8250   21.1300 C   0  0  0  0  0  0  0  0  0  0  0  0
  -29.6610  -20.1190   21.3400 C   0  0  0  0  0  0  0  0  0  0  0  0
  -30.2790  -19.2270   19.1350 C   0  0  0  0  0  0  0  0  0  0  0  0
  -30.4130  -19.4330   17.6300 C   0  0  1  0  0  0  0  0  0  0  0  0
  -30.8610  -18.3400   17.0100 F   0  0  0  0  0  0  0  0  0  0  0  0
  -29.2260  -19.7530   17.1140 F   0  0  0  0  0  0  0  0  0  0  0  0
  -31.2630  -20.4310   17.3900 F   0  0  0  0  0  0  0  0  0  0  0  0
  -30.9760  -16.5230   21.7830 C   0  0  0  0  0  2  0  0  0  0  0  0
  -30.7750  -14.5460   20.2630 C   0  0  0  0  0  0  0  0  0  0  0  0
  -30.3410  -12.5240   18.9140 C   0  0  0  0  0  2  0  0  0  0  0  0
  -29.3290  -12.8140   17.7890 C   0  0  0  0  0  2  0  0  0  0  0  0
  -27.8840  -12.6540   18.2980 C   0  0  0  0  0  2  0  0  0  0  0  0
  -27.6330  -13.4170   19.6250 C   0  0  0  0  0  3  0  0  0  0  0  0
  -28.7430  -13.1020   20.6520 C   0  0  0  0  0  2  0  0  0  0  0  0
  -30.0440  -13.4240   20.0390 N   0  0  0  0  0  0  0  0  0  0  0  0
  -31.7870  -14.8360   19.6170 O   0  0  0  0  0  0  0  0  0  0  0  0
  -30.3240  -15.3300   21.2510 N   0  0  0  0  0  0  0  0  0  0  0  0
  -29.4870  -15.0210   21.7210 H   0  0  0  0  0  0  0  0  0  0  0  0
  -25.2710  -14.0020   20.4690 C   0  0  0  0  0  0  0  0  0  0  0  0
  -24.2230  -13.2170   20.8710 C   0  0  0  0  0  0  0  0  0  0  0  0
  -24.6830  -11.8680   20.7780 C   0  0  0  0  0  0  0  0  0  0  0  0
  -26.3040  -13.1290   20.1620 N   0  0  0  0  0  0  0  0  0  0  0  0
  -25.9550  -11.8390   20.4030 N   0  0  0  0  0  0  0  0  0  0  0  0
  -23.9690  -10.5990   20.9720 C   0  0  0  0  0  0  0  0  0  0  0  0
  -24.4260   -9.6270   21.8890 C   0  0  0  0  0  3  0  0  0  0  0  0
  -23.7130   -8.4220   22.0690 C   0  0  0  0  0  3  0  0  0  0  0  0
  -22.5280   -8.1820   21.3320 C   0  0  0  0  0  0  0  0  0  0  0  0
  -22.0910   -9.1430   20.4050 C   0  0  0  0  0  3  0  0  0  0  0  0
  -22.8050  -10.3390   20.2220 C   0  0  0  0  0  3  0  0  0  0  0  0
  -21.7850   -7.0310   21.4230 O   0  0  0  0  0  0  0  0  0  0  0  0
  -21.7350   -6.2950   22.5800 C   0  0  0  0  0  0  0  0  0  0  0  0
  -21.2780   -6.8470   23.7960 C   0  0  0  0  0  3  0  0  0  0  0  0
  -21.1790   -6.0360   24.9450 C   0  0  0  0  0  3  0  0  0  0  0  0
  -21.5250   -4.6730   24.8770 C   0  0  0  0  0  0  0  0  0  0  0  0
  -21.9750   -4.1200   23.6650 C   0  0  0  0  0  3  0  0  0  0  0  0
  -22.0770   -4.9280   22.5190 C   0  0  0  0  0  0  0  0  0  0  0  0
  -22.4910   -4.3850   21.3490 F   0  0  0  0  0  0  0  0  0  0  0  0
  -21.4220   -3.8920   25.9770 F   0  0  0  0  0  0  0  0  0  0  0  0
  -22.8410  -13.6830   21.2300 C   0  0  0  0  0  0  0  0  0  0  0  0
  -22.1610  -12.9600   22.1130 N   0  0  0  0  0  0  0  0  0  0  0  0
  -22.3760  -14.7220   20.7640 O   0  0  0  0  0  0  0  0  0  0  0  0
  -22.5510  -12.1200   22.5110 H   0  0  0  0  0  0  0  0  0  0  0  0
  -21.2370  -13.2540   22.3950 H   0  0  0  0  0  0  0  0  0  0  0  0
  -25.4260  -15.3770   20.3210 N   0  0  0  0  0  0  0  0  0  0  0  0
  -24.6680  -16.0290   20.4900 H   0  0  0  0  0  0  0  0  0  0  0  0
  -26.2660  -15.8250   19.9780 H   0  0  0  0  0  0  0  0  0  0  0  0
  -29.1520  -21.2380   22.2540 C   0  0  0  0  0  2  0  0  0  0  0  0
  -28.4490  -22.3320   21.5490 N   0  0  0  0  0  4  0  0  0  0  0  0
  -27.5220  -22.3940   21.9380 H   0  0  0  0  0  0  0  0  0  0  0  0
  -28.3540  -22.0640   20.5850 H   0  0  0  0  0  0  0  0  0  0  0  0
  -29.1020  -23.6580   21.6600 C   0  0  0  0  0  2  0  0  0  0  0  0
  -28.4390  -24.7310   20.7710 C   0  0  0  0  0  2  0  0  0  0  0  0
  -29.0230  -26.1380   21.0040 C   0  0  0  0  0  2  0  0  0  0  0  0
  -28.6990  -27.0150   19.9300 O   0  0  0  0  0  0  0  0  0  0  0  0
  -24.6060  -31.8450   23.2060 C   0  0  0  0  0  0  0  0  0  0  0  0
  -27.4890  -27.6540   20.0210 C   0  0  0  0  0  0  0  0  0  0  0  0
  -23.4810  -30.4420   21.5050 C   0  0  0  0  0  3  0  0  0  0  0  0
  -25.0220  -29.0140   20.0570 C   0  0  0  0  0  0  0  0  0  0  0  0
  -25.9860  -30.9290   21.3470 C   0  0  0  0  0  2  0  0  0  0  0  0
  -26.1430  -29.5810   20.6780 C   0  0  0  0  0  0  0  0  0  0  0  0
  -27.3810  -28.9050   20.6640 C   0  0  0  0  0  3  0  0  0  0  0  0
  -26.3590  -27.0900   19.4000 C   0  0  0  0  0  3  0  0  0  0  0  0
  -25.1210  -27.7630   19.4210 C   0  0  0  0  0  3  0  0  0  0  0  0
  -23.7380  -29.8110   20.1100 C   0  0  0  0  0  2  0  0  0  0  0  0
  -24.7080  -31.0860   22.0790 N   0  0  0  0  0  0  0  0  0  0  0  0
  -23.5080  -32.0500   23.7430 O   0  0  0  0  0  0  0  0  0  0  0  0
  -22.8700  -29.3630   22.4260 C   0  0  0  0  0  0  0  0  0  0  0  0
  -21.5580  -29.1180   22.2700 N   0  0  0  0  0  0  0  0  0  0  0  0
  -23.5710  -28.7480   23.2330 O   0  0  0  0  0  0  0  0  0  0  0  0
  -21.0520  -29.6710   21.5930 H   0  0  0  0  0  0  0  0  0  0  0  0
  -18.2400  -27.7540   22.6780 C   0  0  0  0  0  0  0  0  0  0  0  0
  -20.7770  -28.1200   22.9980 C   0  0  0  0  0  3  0  0  0  0  0  0
  -20.9550  -26.7140   22.3780 C   0  0  0  0  0  2  0  0  0  0  0  0
  -19.8830  -26.3750   21.3370 C   0  0  0  0  0  2  0  0  0  0  0  0
  -18.4880  -26.4360   21.9640 C   0  0  0  0  0  2  0  0  0  0  0  0
  -19.3160  -28.5520   23.1500 C   0  0  0  0  0  0  0  0  0  0  0  0
  -19.0310  -29.7860   23.7740 C   0  0  0  0  0  3  0  0  0  0  0  0
  -17.7020  -30.2220   23.9350 C   0  0  0  0  0  3  0  0  0  0  0  0
  -16.6400  -29.4210   23.4810 C   0  0  0  0  0  3  0  0  0  0  0  0
  -16.9100  -28.1890   22.8580 C   0  0  0  0  0  3  0  0  0  0  0  0
  -25.8570  -32.5120   23.8600 C   0  0  0  0  0  3  0  0  0  0  0  0
  -25.5050  -33.9040   24.1680 N   0  0  0  0  0  0  0  0  0  0  0  0
  -25.8390  -34.9570   23.4110 C   0  0  0  0  0  0  0  0  0  0  0  0
  -26.5460  -34.8620   22.4040 O   0  0  0  0  0  0  0  0  0  0  0  0
  -24.8780  -34.0510   24.9460 H   0  0  0  0  0  0  0  0  0  0  0  0
  -24.0820  -36.7050   22.9770 C   0  0  0  0  0  1  0  0  0  0  0  0
  -25.3010  -36.3370   23.8370 C   0  0  0  0  0  3  0  0  0  0  0  0
  -27.3790  -37.2810   24.7420 C   0  0  0  0  0  1  0  0  0  0  0  0
  -26.3130  -37.4130   23.7540 N   0  0  0  0  0  0  0  0  0  0  0  0
  -25.8790  -38.3250   23.8730 H   0  0  0  0  0  0  0  0  0  0  0  0
  -26.3570  -31.7610   25.1550 C   0  0  1  0  0  0  0  0  0  0  0  0
  -25.2400  -31.5010   26.1920 C   0  0  0  0  0  1  0  0  0  0  0  0
  -26.9870  -30.3980   24.7850 C   0  0  0  0  0  1  0  0  0  0  0  0
  -27.4660  -32.5890   25.8460 C   0  0  0  0  0  1  0  0  0  0  0  0
  2  4  1  0
  3  5  2  0
  4 11  1  0
  4  1  2  0
  5  1  1  0
  5 50  1  0
  6  2  2  0
  6  3  1  0
  7  6  1  0
  7  8  1  6
  9  7  1  0
 10  7  1  0
 12 20  1  0
 13 18  1  0
 14 15  1  0
 14 13  1  0
 16 15  1  0
 16 25  1  0
 16 17  1  0
 18 12  1  0
 18 17  1  0
 19 12  2  0
 20 21  1  0
 20 11  1  0
 22 23  2  0
 23 42  1  0
 24 23  1  0
 24 27  1  0
 25 26  1  0
 25 22  1  0
 26 24  2  0
 27 28  1  0
 28 29  2  0
 30 33  1  0
 30 29  1  0
 31 30  2  0
 32 31  1  0
 32 27  2  0
 33 34  1  0
 34 35  1  0
 35 36  2  0
 37 36  1  0
 37 41  1  0
 38 37  2  0
 39 34  2  0
 39 38  1  0
 40 39  1  0
 42 43  1  0
 43 46  1  0
 43 45  1  0
 44 42  2  0
 47 22  1  0
 47 48  1  0
 49 47  1  0
 51 54  1  0
 51 52  1  0
 51 50  1  0
 53 51  1  0
 55 56  1  0
 55 54  1  0
 57 59  1  0
 57 56  1  0
 58 69  2  0
 59 64  1  0
 60 68  1  0
 60 70  1  0
 61 67  1  0
 61 63  1  0
 62 68  1  0
 63 62  1  0
 64 63  2  0
 65 66  1  0
 65 59  2  0
 66 61  2  0
 67 60  1  0
 68 58  1  0
 70 72  2  0
 71 70  1  0
 73 71  1  0
 74 83  2  0
 74 79  1  0
 75 71  1  0
 75 79  1  0
 76 75  1  0
 77 78  1  0
 77 76  1  0
 78 74  1  0
 79 80  2  0
 80 81  1  0
 82 81  2  0
 83 82  1  0
 84 58  1  0
 84 85  1  0
 84 94  1  0
 85 88  1  0
 86 90  1  0
 86 85  1  0
 87 86  2  0
 90 89  1  0
 92 90  1  0
 92 93  1  0
 92 91  1  0
 94 97  1  1
 94 95  1  0
 96 94  1  0
M  ISO  4  12 100  20 100  56 101  57 101
M  END
>  <TORSDO>  (69) 
F 23

>  <SCORE>  (69) 
-12.314

>  <name>  (69) 
69

>  <ligand_id>  (69) 
69

>  <original_smiles>  (69) 
[H]c1c([H])c([H])c2c(c1[H])C([H])([H])C([H])([H])C([H])([H])C2([H])N([H])C(=O)C1([H])N(C(=O)C([H])(N([H])C(=O)C([H])(N([H])C([H])([H])[H])C([H])([H])[H])C(C([H])([H])[H])(C([H])([H])[H])C([H])([H])[H])C([H])([H])c2c([H])c(OC([H])([H])C([H])([H])C([H])([H])[N+]([H])([H])C([H])([H])c3c([H])c(C(F)(F)F)c([H])c(C([H])([H])N([H])C(=O)N4C([H])([H])C([H])([H])C([H])([H])C([H])(n5nc(-c6c([H])c([H])c(Oc7c([H])c([H])c(F)c([H])c7F)c([H])c6[H])c(C(=O)N([H])[H])c5N([H])[H])C4([H])[H])c3[H])c([H])c([H])c2C1([H])[H]

>  <smiles>  (69) 
[H]c1c([H])c([H])c2c(c1[H])C([H])([H])C([H])([H])C([H])([H])C2([H])N([H])C(=O)C1([H])N(C(=O)C([H])(N([H])C(=O)C([H])(N([H])C([H])([H])[H])C([H])([H])[H])C(C([H])([H])[H])(C([H])([H])[H])C([H])([H])[H])C([H])([H])c2c([H])c(OC([H])([H])C([H])([H])C([H])([H])[N+]([H])([H])C([H])([H])c3c([H])c(C(F)(F)F)c([H])c(C([H])([H])N([H])C(=O)N4C([H])([H])C([H])([H])C([H])([H])C([H])(n5nc(-c6c([H])c([H])c(Oc7c([H])c([H])c(F)c([H])c7F)c([H])c6[H])c(C(=O)N([H])[H])c5N([H])[H])C4([H])[H])c3[H])c([H])c([H])c2C1([H])[H]

$$$$
70:0:0
     RDKit          3D

 95103  0  0  1  0  0  0  0  0999 V2000
  -30.5790  -23.4580   22.2360 N   0  0  0  0  0  4  0  0  0  0  0  0
  -30.8370  -23.5390   23.2070 H   0  0  0  0  0  0  0  0  0  0  0  0
  -31.4260  -23.3670   21.7000 H   0  0  0  0  0  0  0  0  0  0  0  0
  -29.9020  -24.7070   21.8180 C   0  0  0  0  0  2  0  0  0  0  0  0
  -30.8920  -25.8920   21.8270 C   0  0  0  0  0  2  0  0  0  0  0  0
  -30.2790  -27.2830   21.5670 C   0  0  0  0  0  2  0  0  0  0  0  0
  -29.7020  -27.4600   20.1590 C   0  0  0  0  0  2  0  0  0  0  0  0
  -28.4370  -26.8270   20.0640 O   0  0  0  0  0  0  0  0  0  0  0  0
  -24.6030  -31.9920   23.2490 C   0  0  0  0  0  0  0  0  0  0  0  0
  -27.3030  -27.6010   20.1590 C   0  0  0  0  0  0  0  0  0  0  0  0
  -23.4150  -30.5850   21.5960 C   0  0  0  0  0  3  0  0  0  0  0  0
  -24.8880  -29.0630   20.1790 C   0  0  0  0  0  0  0  0  0  0  0  0
  -25.9370  -30.9690   21.4120 C   0  0  0  0  0  2  0  0  0  0  0  0
  -26.0360  -29.6010   20.7750 C   0  0  0  0  0  0  0  0  0  0  0  0
  -27.2460  -28.8780   20.7680 C   0  0  0  0  0  3  0  0  0  0  0  0
  -26.1330  -27.0650   19.5860 C   0  0  0  0  0  3  0  0  0  0  0  0
  -24.9290  -27.7900   19.5840 C   0  0  0  0  0  3  0  0  0  0  0  0
  -23.6360  -29.9100   20.2170 C   0  0  0  0  0  2  0  0  0  0  0  0
  -24.6690  -31.1950   22.1450 N   0  0  0  0  0  0  0  0  0  0  0  0
  -23.5170  -32.2550   23.7830 O   0  0  0  0  0  0  0  0  0  0  0  0
  -22.7680  -29.5550   22.5500 C   0  0  0  0  0  0  0  0  0  0  0  0
  -21.4430  -29.3760   22.4210 N   0  0  0  0  0  0  0  0  0  0  0  0
  -23.4520  -28.9210   23.3570 O   0  0  0  0  0  0  0  0  0  0  0  0
  -20.9530  -29.9490   21.7480 H   0  0  0  0  0  0  0  0  0  0  0  0
  -18.0660  -28.1950   22.9190 C   0  0  0  0  0  0  0  0  0  0  0  0
  -20.6260  -28.4320   23.1830 C   0  0  0  0  0  3  0  0  0  0  0  0
  -20.7150  -27.0090   22.5860 C   0  0  0  0  0  2  0  0  0  0  0  0
  -19.6070  -26.7080   21.5720 C   0  0  0  0  0  2  0  0  0  0  0  0
  -18.2300  -26.8540   22.2250 C   0  0  0  0  0  2  0  0  0  0  0  0
  -19.1920  -28.9440   23.3540 C   0  0  0  0  0  0  0  0  0  0  0  0
  -18.9830  -30.2030   23.9600 C   0  0  0  0  0  3  0  0  0  0  0  0
  -17.6830  -30.7120   24.1330 C   0  0  0  0  0  3  0  0  0  0  0  0
  -16.5730  -29.9580   23.7160 C   0  0  0  0  0  3  0  0  0  0  0  0
  -16.7650  -28.7010   23.1170 C   0  0  0  0  0  3  0  0  0  0  0  0
  -25.8810  -32.6290   23.8760 C   0  0  0  0  0  3  0  0  0  0  0  0
  -25.5600  -34.0240   24.2080 N   0  0  0  0  0  0  0  0  0  0  0  0
  -25.8950  -35.0780   23.4520 C   0  0  0  0  0  0  0  0  0  0  0  0
  -26.5740  -34.9820   22.4260 O   0  0  0  0  0  0  0  0  0  0  0  0
  -24.9520  -34.1730   25.0000 H   0  0  0  0  0  0  0  0  0  0  0  0
  -24.1560  -36.8580   23.0880 C   0  0  0  0  0  1  0  0  0  0  0  0
  -25.3950  -36.4620   23.9060 C   0  0  0  0  0  3  0  0  0  0  0  0
  -27.5220  -37.3590   24.7470 C   0  0  0  0  0  1  0  0  0  0  0  0
  -26.4220  -37.5210   23.7990 N   0  0  0  0  0  0  0  0  0  0  0  0
  -26.0100  -38.4370   23.9500 H   0  0  0  0  0  0  0  0  0  0  0  0
  -26.4020  -31.8550   25.1490 C   0  0  1  0  0  0  0  0  0  0  0  0
  -25.3080  -31.5980   26.2110 C   0  0  0  0  0  1  0  0  0  0  0  0
  -26.9990  -30.4860   24.7490 C   0  0  0  0  0  1  0  0  0  0  0  0
  -27.5410  -32.6580   25.8210 C   0  0  0  0  0  1  0  0  0  0  0  0
  -29.7970  -22.2160   22.0610 C   0  0  0  0  0  2  0  0  0  0  0  0
  -30.6670  -20.9710   22.3650 C   0  0  0  0  0  2  0  0  0  0  0  0
  -29.4490  -17.9580   20.5950 C   0  0  0  0  0  2  0  0  0  0  0  0
  -29.5890  -19.4760   20.7420 C   0  0  0  0  0  2  0  0  0  0  0  0
  -30.9180  -18.5770   22.3920 C   0  0  0  0  0  2  0  0  0  0  0  0
  -30.2240  -17.3560   21.7710 C   0  0  0  0  0  3  0  0  0  0  0  0
  -29.9990  -19.6860   22.1290 N   0  0  0  0  0  0  0  0  0  0  0  0
  -32.0990  -15.7640   22.5160 C   0  0  0  0  0  1  0  0  0  0  0  0
  -31.1830  -16.2090   21.3630 C   0  0  0  0  0  3  0  0  0  0  0  0
  -30.6810  -14.3160   19.7930 C   0  0  0  0  0  0  0  0  0  0  0  0
  -30.1700  -12.2160   18.6000 C   0  0  0  0  0  2  0  0  0  0  0  0
  -29.1240  -12.4180   17.4890 C   0  0  0  0  0  2  0  0  0  0  0  0
  -27.7000  -12.2840   18.0590 C   0  0  0  0  0  2  0  0  0  0  0  0
  -27.4870  -13.1560   19.3240 C   0  0  0  0  0  3  0  0  0  0  0  0
  -28.6310  -12.9470   20.3400 C   0  0  0  0  0  2  0  0  0  0  0  0
  -29.9180  -13.2000   19.6630 N   0  0  0  0  0  0  0  0  0  0  0  0
  -31.6000  -14.6010   19.0220 O   0  0  0  0  0  0  0  0  0  0  0  0
  -30.4210  -15.0490   20.8860 N   0  0  0  0  0  0  0  0  0  0  0  0
  -29.6500  -14.7390   21.4560 H   0  0  0  0  0  0  0  0  0  0  0  0
  -25.1730  -13.8030   20.2510 C   0  0  0  0  0  0  0  0  0  0  0  0
  -24.1330  -13.0480   20.7250 C   0  0  0  0  0  0  0  0  0  0  0  0
  -24.5680  -11.6900   20.6570 C   0  0  0  0  0  0  0  0  0  0  0  0
  -26.1780  -12.9050   19.9270 N   0  0  0  0  0  0  0  0  0  0  0  0
  -25.8220  -11.6290   20.2250 N   0  0  0  0  0  0  0  0  0  0  0  0
  -23.8440  -10.4400   20.9240 C   0  0  0  0  0  0  0  0  0  0  0  0
  -24.3370   -9.4820   21.8370 C   0  0  0  0  0  3  0  0  0  0  0  0
  -23.6150   -8.2970   22.0910 C   0  0  0  0  0  3  0  0  0  0  0  0
  -22.3850   -8.0600   21.4310 C   0  0  0  0  0  0  0  0  0  0  0  0
  -21.9110   -9.0060   20.5050 C   0  0  0  0  0  3  0  0  0  0  0  0
  -22.6340  -10.1830   20.2500 C   0  0  0  0  0  3  0  0  0  0  0  0
  -21.6290   -6.9250   21.5940 O   0  0  0  0  0  0  0  0  0  0  0  0
  -21.6510   -6.2060   22.7620 C   0  0  0  0  0  0  0  0  0  0  0  0
  -21.3340   -6.7950   24.0070 C   0  0  0  0  0  3  0  0  0  0  0  0
  -21.3020   -6.0040   25.1720 C   0  0  0  0  0  3  0  0  0  0  0  0
  -21.5780   -4.6260   25.0970 C   0  0  0  0  0  0  0  0  0  0  0  0
  -21.8890   -4.0360   23.8590 C   0  0  0  0  0  3  0  0  0  0  0  0
  -21.9230   -4.8250   22.6950 C   0  0  0  0  0  0  0  0  0  0  0  0
  -22.2020   -4.2480   21.5010 F   0  0  0  0  0  0  0  0  0  0  0  0
  -21.5400   -3.8650   26.2160 F   0  0  0  0  0  0  0  0  0  0  0  0
  -22.7770  -13.5490   21.1320 C   0  0  0  0  0  0  0  0  0  0  0  0
  -22.1340  -12.8760   22.0800 N   0  0  0  0  0  0  0  0  0  0  0  0
  -22.3000  -14.5710   20.6420 O   0  0  0  0  0  0  0  0  0  0  0  0
  -22.5350  -12.0500   22.4970 H   0  0  0  0  0  0  0  0  0  0  0  0
  -21.2280  -13.1920   22.3930 H   0  0  0  0  0  0  0  0  0  0  0  0
  -25.3410  -15.1700   20.0540 N   0  0  0  0  0  0  0  0  0  0  0  0
  -24.6010  -15.8400   20.2350 H   0  0  0  0  0  0  0  0  0  0  0  0
  -26.1730  -15.5960   19.6640 H   0  0  0  0  0  0  0  0  0  0  0  0
  1  2  1  0
  3  1  1  0
  4  5  1  0
  4  1  1  0
  6  5  1  0
  7  6  1  0
  8 10  1  0
  8  7  1  0
  9 20  2  0
 10 15  1  0
 11 19  1  0
 11 21  1  0
 12 18  1  0
 12 14  1  0
 13 19  1  0
 14 13  1  0
 15 14  2  0
 16 10  2  0
 17 16  1  0
 17 12  2  0
 18 11  1  0
 19  9  1  0
 21 23  2  0
 22 21  1  0
 24 22  1  0
 25 34  2  0
 25 30  1  0
 26 22  1  0
 26 30  1  0
 27 26  1  0
 28 29  1  0
 28 27  1  0
 29 25  1  0
 30 31  2  0
 31 32  1  0
 33 32  2  0
 34 33  1  0
 35  9  1  0
 35 36  1  0
 35 45  1  0
 36 39  1  0
 37 41  1  0
 37 36  1  0
 38 37  2  0
 41 40  1  0
 43 41  1  0
 43 44  1  0
 43 42  1  0
 45 48  1  1
 45 46  1  0
 47 45  1  0
 49  1  1  0
 49 50  1  0
 51 52  1  0
 51 54  1  0
 52 55  1  0
 54 57  1  0
 54 53  1  0
 55 50  1  0
 55 53  1  0
 57 56  1  0
 58 66  1  0
 59 64  1  0
 60 61  1  0
 60 59  1  0
 62 61  1  0
 62 71  1  0
 62 63  1  0
 64 58  1  0
 64 63  1  0
 65 58  2  0
 66 57  1  0
 66 67  1  0
 68 69  2  0
 69 88  1  0
 70 69  1  0
 70 73  1  0
 71 72  1  0
 71 68  1  0
 72 70  2  0
 73 74  1  0
 74 75  2  0
 76 79  1  0
 76 75  1  0
 77 76  2  0
 78 77  1  0
 78 73  2  0
 79 80  1  0
 80 81  1  0
 81 82  2  0
 83 82  1  0
 83 87  1  0
 84 83  2  0
 85 80  2  0
 85 84  1  0
 86 85  1  0
 88 89  1  0
 89 92  1  0
 89 91  1  0
 90 88  2  0
 93 94  1  0
 93 68  1  0
 95 93  1  0
M  ISO  4   7 101   8 101  58 100  66 100
M  END
>  <TORSDO>  (70) 
F 24

>  <SCORE>  (70) 
-9.776

>  <name>  (70) 
70

>  <ligand_id>  (70) 
70

>  <original_smiles>  (70) 
[H]c1c([H])c([H])c2c(c1[H])C([H])([H])C([H])([H])C([H])([H])C2([H])N([H])C(=O)C1([H])N(C(=O)C([H])(N([H])C(=O)C([H])(N([H])C([H])([H])[H])C([H])([H])[H])C(C([H])([H])[H])(C([H])([H])[H])C([H])([H])[H])C([H])([H])c2c([H])c(OC([H])([H])C([H])([H])C([H])([H])C([H])([H])[N+]([H])([H])C([H])([H])C([H])([H])N3C([H])([H])C([H])([H])C([H])(C([H])(N([H])C(=O)N4C([H])([H])C([H])([H])C([H])([H])C([H])(n5nc(-c6c([H])c([H])c(Oc7c([H])c([H])c(F)c([H])c7F)c([H])c6[H])c(C(=O)N([H])[H])c5N([H])[H])C4([H])[H])C([H])([H])[H])C3([H])[H])c([H])c([H])c2C1([H])[H]

>  <smiles>  (70) 
[H]c1c([H])c([H])c2c(c1[H])C([H])([H])C([H])([H])C([H])([H])C2([H])N([H])C(=O)C1([H])N(C(=O)C([H])(N([H])C(=O)C([H])(N([H])C([H])([H])[H])C([H])([H])[H])C(C([H])([H])[H])(C([H])([H])[H])C([H])([H])[H])C([H])([H])c2c([H])c(OC([H])([H])C([H])([H])C([H])([H])C([H])([H])[N+]([H])([H])C([H])([H])C([H])([H])N3C([H])([H])C([H])([H])C([H])(C([H])(N([H])C(=O)N4C([H])([H])C([H])([H])C([H])([H])C([H])(n5nc(-c6c([H])c([H])c(Oc7c([H])c([H])c(F)c([H])c7F)c([H])c6[H])c(C(=O)N([H])[H])c5N([H])[H])C4([H])[H])C([H])([H])[H])C3([H])[H])c([H])c([H])c2C1([H])[H]

$$$$
71:0:0
     RDKit          3D

100108  0  0  1  0  0  0  0  0999 V2000
  -29.5860  -18.3220   20.0420 C   0  0  0  0  0  0  0  0  0  0  0  0
  -30.9730  -18.8320   22.5350 C   0  0  0  0  0  2  0  0  0  0  0  0
  -30.5500  -17.1760   20.6180 C   0  0  0  0  0  3  0  0  0  0  0  0
  -29.3330  -19.7070   20.8370 C   0  0  0  0  0  3  0  0  0  0  0  0
  -30.8010  -17.3550   22.1330 C   0  0  0  0  0  3  0  0  0  0  0  0
  -29.7210  -19.5690   22.2640 N   0  0  0  0  0  4  0  0  0  0  0  0
  -29.0020  -18.1150   18.9740 O   0  0  0  0  0  0  0  0  0  0  0  0
  -29.7920  -20.4840   22.6730 H   0  0  0  0  0  0  0  0  0  0  0  0
  -28.9780  -19.0890   22.7480 H   0  0  0  0  0  0  0  0  0  0  0  0
  -30.8030  -14.6580   19.9770 C   0  0  0  0  0  0  0  0  0  0  0  0
  -30.4580  -12.4400   18.9050 C   0  0  0  0  0  2  0  0  0  0  0  0
  -29.4490  -12.5840   17.7460 C   0  0  0  0  0  2  0  0  0  0  0  0
  -28.0010  -12.4500   18.2610 C   0  0  0  0  0  2  0  0  0  0  0  0
  -27.7300  -13.3210   19.5150 C   0  0  0  0  0  3  0  0  0  0  0  0
  -28.8490  -13.1570   20.5680 C   0  0  0  0  0  2  0  0  0  0  0  0
  -30.1260  -13.4680   19.9090 N   0  0  0  0  0  0  0  0  0  0  0  0
  -31.9510  -14.7700   19.5420 O   0  0  0  0  0  0  0  0  0  0  0  0
  -30.0950  -15.7510   20.3910 N   0  0  0  0  0  0  0  0  0  0  0  0
  -29.1380  -15.5590   20.6410 H   0  0  0  0  0  0  0  0  0  0  0  0
  -25.3920  -13.9630   20.3640 C   0  0  0  0  0  0  0  0  0  0  0  0
  -24.3340  -13.2100   20.7960 C   0  0  0  0  0  0  0  0  0  0  0  0
  -24.7700  -11.8500   20.7440 C   0  0  0  0  0  0  0  0  0  0  0  0
  -26.4070  -13.0640   20.0760 N   0  0  0  0  0  0  0  0  0  0  0  0
  -26.0410  -11.7880   20.3640 N   0  0  0  0  0  0  0  0  0  0  0  0
  -24.0340  -10.6010   20.9760 C   0  0  0  0  0  0  0  0  0  0  0  0
  -24.4850   -9.6400   21.9070 C   0  0  0  0  0  3  0  0  0  0  0  0
  -23.7490   -8.4550   22.1290 C   0  0  0  0  0  3  0  0  0  0  0  0
  -22.5470   -8.2240   21.4160 C   0  0  0  0  0  0  0  0  0  0  0  0
  -22.1150   -9.1720   20.4740 C   0  0  0  0  0  3  0  0  0  0  0  0
  -22.8520  -10.3480   20.2510 C   0  0  0  0  0  3  0  0  0  0  0  0
  -21.7810   -7.0910   21.5470 O   0  0  0  0  0  0  0  0  0  0  0  0
  -21.7500   -6.3720   22.7150 C   0  0  0  0  0  0  0  0  0  0  0  0
  -21.3290   -6.9490   23.9330 C   0  0  0  0  0  3  0  0  0  0  0  0
  -21.2470   -6.1560   25.0950 C   0  0  0  0  0  3  0  0  0  0  0  0
  -21.5750   -4.7880   25.0400 C   0  0  0  0  0  0  0  0  0  0  0  0
  -21.9900   -4.2110   23.8270 C   0  0  0  0  0  3  0  0  0  0  0  0
  -22.0740   -5.0010   22.6670 C   0  0  0  0  0  0  0  0  0  0  0  0
  -22.4540   -4.4360   21.4950 F   0  0  0  0  0  0  0  0  0  0  0  0
  -21.4890   -4.0250   26.1540 F   0  0  0  0  0  0  0  0  0  0  0  0
  -22.9630  -13.7110   21.1410 C   0  0  0  0  0  0  0  0  0  0  0  0
  -22.2730  -13.0360   22.0550 N   0  0  0  0  0  0  0  0  0  0  0  0
  -22.5110  -14.7380   20.6350 O   0  0  0  0  0  0  0  0  0  0  0  0
  -22.6520  -12.2040   22.4840 H   0  0  0  0  0  0  0  0  0  0  0  0
  -21.3550  -13.3550   22.3290 H   0  0  0  0  0  0  0  0  0  0  0  0
  -25.5680  -15.3300   20.1690 N   0  0  0  0  0  0  0  0  0  0  0  0
  -24.8050  -15.9870   20.2930 H   0  0  0  0  0  0  0  0  0  0  0  0
  -26.3720  -15.7400   19.7130 H   0  0  0  0  0  0  0  0  0  0  0  0
  -31.9480  -16.5660   22.5670 N   0  0  0  0  0  0  0  0  0  0  0  0
  -32.7690  -16.8150   22.0230 H   0  0  0  0  0  0  0  0  0  0  0  0
  -31.7930  -15.5890   22.3510 H   0  0  0  0  0  0  0  0  0  0  0  0
  -29.7740  -21.1220   20.2070 C   0  0  0  0  0  3  0  0  0  0  0  0
  -31.0860  -21.2970   20.3920 F   0  0  0  0  0  0  0  0  0  0  0  0
  -29.0060  -22.4360   20.7300 C   0  0  0  0  0  2  0  0  0  0  0  0
  -29.4110  -23.9290   20.2700 C   0  0  0  0  0  3  0  0  0  0  0  0
  -30.6770  -24.3360   20.9210 N   0  0  0  0  0  4  0  0  0  0  0  0
  -30.5950  -24.3590   21.9220 H   0  0  0  0  0  0  0  0  0  0  0  0
  -30.9380  -25.2600   20.6190 H   0  0  0  0  0  0  0  0  0  0  0  0
  -31.4240  -23.7070   20.6770 H   0  0  0  0  0  0  0  0  0  0  0  0
  -28.2990  -25.0560   20.5230 C   0  0  0  0  0  2  0  0  0  0  0  0
  -28.5460  -26.4860   20.1760 O   0  0  0  0  0  0  0  0  0  0  0  0
  -24.6870  -31.8150   23.1890 C   0  0  0  0  0  0  0  0  0  0  0  0
  -27.4230  -27.3350   20.1250 C   0  0  0  0  0  0  0  0  0  0  0  0
  -23.5350  -30.4230   21.5070 C   0  0  0  0  0  3  0  0  0  0  0  0
  -25.0370  -28.9180   20.0870 C   0  0  0  0  0  0  0  0  0  0  0  0
  -26.0720  -30.7830   21.3740 C   0  0  0  0  0  2  0  0  0  0  0  0
  -26.1870  -29.4140   20.7130 C   0  0  0  0  0  0  0  0  0  0  0  0
  -27.3860  -28.6360   20.7190 C   0  0  0  0  0  3  0  0  0  0  0  0
  -26.2550  -26.9070   19.4530 C   0  0  0  0  0  3  0  0  0  0  0  0
  -25.0730  -27.6710   19.4460 C   0  0  0  0  0  3  0  0  0  0  0  0
  -23.7850  -29.7730   20.1220 C   0  0  0  0  0  2  0  0  0  0  0  0
  -24.7830  -31.0240   22.0810 N   0  0  0  0  0  0  0  0  0  0  0  0
  -23.5900  -32.0680   23.7070 O   0  0  0  0  0  0  0  0  0  0  0  0
  -22.8720  -29.3820   22.4390 C   0  0  0  0  0  0  0  0  0  0  0  0
  -21.5490  -29.1960   22.2950 N   0  0  0  0  0  0  0  0  0  0  0  0
  -23.5470  -28.7430   23.2510 O   0  0  0  0  0  0  0  0  0  0  0  0
  -21.0620  -29.7660   21.6170 H   0  0  0  0  0  0  0  0  0  0  0  0
  -18.1690  -27.9940   22.7640 C   0  0  0  0  0  0  0  0  0  0  0  0
  -20.7280  -28.2370   23.0380 C   0  0  0  0  0  3  0  0  0  0  0  0
  -20.8250  -26.8220   22.4220 C   0  0  0  0  0  2  0  0  0  0  0  0
  -19.7220  -26.5340   21.3980 C   0  0  0  0  0  2  0  0  0  0  0  0
  -18.3390  -26.6660   22.0460 C   0  0  0  0  0  2  0  0  0  0  0  0
  -19.2900  -28.7390   23.2160 C   0  0  0  0  0  0  0  0  0  0  0  0
  -19.0760  -29.9830   23.8470 C   0  0  0  0  0  3  0  0  0  0  0  0
  -17.7720  -30.4840   24.0290 C   0  0  0  0  0  3  0  0  0  0  0  0
  -16.6650  -29.7340   23.5940 C   0  0  0  0  0  3  0  0  0  0  0  0
  -16.8640  -28.4910   22.9670 C   0  0  0  0  0  3  0  0  0  0  0  0
  -25.9480  -32.4570   23.8460 C   0  0  0  0  0  3  0  0  0  0  0  0
  -25.6150  -33.8500   24.1770 N   0  0  0  0  0  0  0  0  0  0  0  0
  -25.9500  -34.9110   23.4310 C   0  0  0  0  0  0  0  0  0  0  0  0
  -26.6380  -34.8180   22.4110 O   0  0  0  0  0  0  0  0  0  0  0  0
  -25.0080  -33.9970   24.9700 H   0  0  0  0  0  0  0  0  0  0  0  0
  -24.2080  -36.6860   23.0550 C   0  0  0  0  0  1  0  0  0  0  0  0
  -25.4390  -36.2910   23.8870 C   0  0  0  0  0  3  0  0  0  0  0  0
  -27.5450  -37.1980   24.7660 C   0  0  0  0  0  1  0  0  0  0  0  0
  -26.4630  -37.3560   23.7970 N   0  0  0  0  0  0  0  0  0  0  0  0
  -26.0440  -38.2710   23.9390 H   0  0  0  0  0  0  0  0  0  0  0  0
  -26.4440  -31.6840   25.1300 C   0  0  1  0  0  0  0  0  0  0  0  0
  -25.3290  -31.4230   26.1680 C   0  0  0  0  0  1  0  0  0  0  0  0
  -27.0560  -30.3190   24.7410 C   0  0  0  0  0  1  0  0  0  0  0  0
  -27.5670  -32.4910   25.8240 C   0  0  0  0  0  1  0  0  0  0  0  0
  1  3  1  0
  1  4  1  0
  3 18  1  0
  3  5  1  0
  4 51  1  0
  4  6  1  0
  5  2  1  0
  5 48  1  0
  6  2  1  0
  6  8  1  0
  6  9  1  0
  7  1  2  0
 10 18  1  0
 11 16  1  0
 12 13  1  0
 12 11  1  0
 14 13  1  0
 14 23  1  0
 14 15  1  0
 16 10  1  0
 16 15  1  0
 17 10  2  0
 18 19  1  0
 20 21  2  0
 21 40  1  0
 22 21  1  0
 22 25  1  0
 23 24  1  0
 23 20  1  0
 24 22  2  0
 25 26  1  0
 26 27  2  0
 28 31  1  0
 28 27  1  0
 29 28  2  0
 30 29  1  0
 30 25  2  0
 31 32  1  0
 32 33  1  0
 33 34  2  0
 35 34  1  0
 35 39  1  0
 36 35  2  0
 37 32  2  0
 37 36  1  0
 38 37  1  0
 40 41  1  0
 41 44  1  0
 41 43  1  0
 42 40  2  0
 45 46  1  0
 45 20  1  0
 47 45  1  0
 49 48  1  0
 50 48  1  0
 51 52  1  0
 51 53  1  0
 54 59  1  0
 54 53  1  0
 54 55  1  0
 55 56  1  0
 57 55  1  0
 58 55  1  0
 60 59  1  0
 61 72  2  0
 62 60  1  0
 62 67  1  0
 63 71  1  0
 63 73  1  0
 64 70  1  0
 64 66  1  0
 65 71  1  0
 66 67  2  0
 66 65  1  0
 68 62  2  0
 69 68  1  0
 69 64  2  0
 70 63  1  0
 71 61  1  0
 73 75  2  0
 74 73  1  0
 76 74  1  0
 77 86  2  0
 77 82  1  0
 78 74  1  0
 78 82  1  0
 79 78  1  0
 80 81  1  0
 80 79  1  0
 81 77  1  0
 82 83  2  0
 83 84  1  0
 85 84  2  0
 86 85  1  0
 87 61  1  0
 87 88  1  0
 87 97  1  0
 88 91  1  0
 89 93  1  0
 89 88  1  0
 90 89  2  0
 93 92  1  0
 95 93  1  0
 95 96  1  0
 95 94  1  0
 97100  1  1
 97 98  1  0
 99 97  1  0
M  ISO  4  10 100  18 100  59 101  60 101
M  END
>  <TORSDO>  (71) 
F 22

>  <SCORE>  (71) 
-11.814

>  <name>  (71) 
71

>  <ligand_id>  (71) 
71

>  <original_smiles>  (71) 
[H]c1c([H])c([H])c2c(c1[H])C([H])([H])C([H])([H])C([H])([H])C2([H])N([H])C(=O)C1([H])N(C(=O)C([H])(N([H])C(=O)C([H])(N([H])C([H])([H])[H])C([H])([H])[H])C(C([H])([H])[H])(C([H])([H])[H])C([H])([H])[H])C([H])([H])c2c([H])c(OC([H])([H])C([H])(C([H])([H])C([H])(F)C3([H])C(=O)C([H])(N([H])C(=O)N4C([H])([H])C([H])([H])C([H])([H])C([H])(n5nc(-c6c([H])c([H])c(Oc7c([H])c([H])c(F)c([H])c7F)c([H])c6[H])c(C(=O)N([H])[H])c5N([H])[H])C4([H])[H])C([H])(N([H])[H])C([H])([H])[N+]3([H])[H])[N+]([H])([H])[H])c([H])c([H])c2C1([H])[H]

>  <smiles>  (71) 
[H]c1c([H])c([H])c2c(c1[H])C([H])([H])C([H])([H])C([H])([H])C2([H])N([H])C(=O)C1([H])N(C(=O)C([H])(N([H])C(=O)C([H])(N([H])C([H])([H])[H])C([H])([H])[H])C(C([H])([H])[H])(C([H])([H])[H])C([H])([H])[H])C([H])([H])c2c([H])c(OC([H])([H])C([H])(C([H])([H])C([H])(F)C3([H])C(=O)C([H])(N([H])C(=O)N4C([H])([H])C([H])([H])C([H])([H])C([H])(n5nc(-c6c([H])c([H])c(Oc7c([H])c([H])c(F)c([H])c7F)c([H])c6[H])c(C(=O)N([H])[H])c5N([H])[H])C4([H])[H])C([H])(N([H])[H])C([H])([H])[N+]3([H])[H])[N+]([H])([H])[H])c([H])c([H])c2C1([H])[H]

$$$$
72:0:0
     RDKit          3D

 94102  0  0  1  0  0  0  0  0999 V2000
  -28.9990  -21.0260   21.1530 C   0  0  0  0  0  3  0  0  0  0  0  0
  -29.3940  -21.2990   18.8460 C   0  0  0  0  0  3  0  0  0  0  0  0
  -29.3560  -20.3600   19.9320 C   0  0  0  0  0  0  0  0  0  0  0  0
  -28.6340  -23.3430   20.1260 C   0  0  0  0  0  0  0  0  0  0  0  0
  -28.6450  -22.4370   21.2440 C   0  0  0  0  0  0  0  0  0  0  0  0
  -29.0600  -22.6990   18.9260 C   0  0  0  0  0  0  0  0  0  0  0  0
  -28.2300  -22.9040   22.4470 F   0  0  0  0  0  0  0  0  0  0  0  0
  -29.0630  -23.4100   17.7740 F   0  0  0  0  0  0  0  0  0  0  0  0
  -27.8010  -24.7480   20.0710 C   0  0  0  0  0  2  0  0  0  0  0  0
  -28.2260  -26.2180   20.2380 O   0  0  0  0  0  0  0  0  0  0  0  0
  -24.6180  -31.8910   23.2330 C   0  0  0  0  0  0  0  0  0  0  0  0
  -27.1780  -27.2060   20.1800 C   0  0  0  0  0  0  0  0  0  0  0  0
  -23.4060  -30.5000   21.6000 C   0  0  0  0  0  3  0  0  0  0  0  0
  -24.8450  -28.9380   20.1700 C   0  0  0  0  0  0  0  0  0  0  0  0
  -25.9610  -30.7670   21.4230 C   0  0  0  0  0  2  0  0  0  0  0  0
  -26.0310  -29.3810   20.7730 C   0  0  0  0  0  0  0  0  0  0  0  0
  -27.1980  -28.5310   20.7670 C   0  0  0  0  0  3  0  0  0  0  0  0
  -25.9610  -26.8720   19.5340 C   0  0  0  0  0  3  0  0  0  0  0  0
  -24.8210  -27.6940   19.5370 C   0  0  0  0  0  3  0  0  0  0  0  0
  -23.6200  -29.8310   20.2210 C   0  0  0  0  0  2  0  0  0  0  0  0
  -24.6820  -31.0730   22.1390 N   0  0  0  0  0  0  0  0  0  0  0  0
  -23.5370  -32.1760   23.7700 O   0  0  0  0  0  0  0  0  0  0  0  0
  -22.7300  -29.4890   22.5610 C   0  0  0  0  0  0  0  0  0  0  0  0
  -21.4020  -29.3200   22.4410 N   0  0  0  0  0  0  0  0  0  0  0  0
  -23.4050  -28.8590   23.3800 O   0  0  0  0  0  0  0  0  0  0  0  0
  -20.9110  -29.8820   21.7580 H   0  0  0  0  0  0  0  0  0  0  0  0
  -18.0250  -28.1250   22.9590 C   0  0  0  0  0  0  0  0  0  0  0  0
  -20.5840  -28.3860   23.2190 C   0  0  0  0  0  3  0  0  0  0  0  0
  -20.6820  -26.9510   22.6520 C   0  0  0  0  0  2  0  0  0  0  0  0
  -19.5780  -26.6220   21.6420 C   0  0  0  0  0  2  0  0  0  0  0  0
  -18.1980  -26.7720   22.2890 C   0  0  0  0  0  2  0  0  0  0  0  0
  -19.1430  -28.8890   23.3840 C   0  0  0  0  0  0  0  0  0  0  0  0
  -18.9270  -30.1520   23.9730 C   0  0  0  0  0  3  0  0  0  0  0  0
  -17.6230  -30.6550   24.1410 C   0  0  0  0  0  3  0  0  0  0  0  0
  -16.5170  -29.8880   23.7340 C   0  0  0  0  0  3  0  0  0  0  0  0
  -16.7180  -28.6260   23.1490 C   0  0  0  0  0  3  0  0  0  0  0  0
  -25.9030  -32.5250   23.8500 C   0  0  0  0  0  3  0  0  0  0  0  0
  -26.4220  -31.7570   25.1260 C   0  0  1  0  0  0  0  0  0  0  0  0
  -25.3350  -31.5250   26.2010 C   0  0  0  0  0  1  0  0  0  0  0  0
  -27.0010  -30.3760   24.7400 C   0  0  0  0  0  1  0  0  0  0  0  0
  -27.5770  -32.5500   25.7820 C   0  0  0  0  0  1  0  0  0  0  0  0
  -25.5950  -33.9240   24.1820 N   0  0  0  0  0  0  0  0  0  0  0  0
  -25.9190  -34.9780   23.4190 C   0  0  0  0  0  0  0  0  0  0  0  0
  -26.5750  -34.8740   22.3790 O   0  0  0  0  0  0  0  0  0  0  0  0
  -25.0200  -34.0780   24.9950 H   0  0  0  0  0  0  0  0  0  0  0  0
  -24.1910  -36.7780   23.0880 C   0  0  0  0  0  1  0  0  0  0  0  0
  -25.4390  -36.3670   23.8860 C   0  0  0  0  0  3  0  0  0  0  0  0
  -27.5830  -37.2490   24.6950 C   0  0  0  0  0  1  0  0  0  0  0  0
  -26.4700  -37.4200   23.7650 N   0  0  0  0  0  0  0  0  0  0  0  0
  -26.0650  -38.3380   23.9250 H   0  0  0  0  0  0  0  0  0  0  0  0
  -29.5310  -18.7390   19.6550 C   0  0  0  0  0  3  0  0  0  0  0  0
  -30.3600  -18.5340   18.4490 N   0  0  0  0  0  4  0  0  0  0  0  0
  -31.2780  -18.9220   18.5820 H   0  0  0  0  0  0  0  0  0  0  0  0
  -29.9410  -18.9700   17.6480 H   0  0  0  0  0  0  0  0  0  0  0  0
  -30.4580  -17.5550   18.2570 H   0  0  0  0  0  0  0  0  0  0  0  0
  -29.9690  -17.5650   20.7260 C   0  0  0  0  0  2  0  0  0  0  0  0
  -30.5520  -14.9000   20.3070 C   0  0  0  0  0  0  0  0  0  0  0  0
  -30.4100  -12.5780   19.3390 C   0  0  0  0  0  2  0  0  0  0  0  0
  -29.4600  -12.5500   18.1180 C   0  0  0  0  0  2  0  0  0  0  0  0
  -27.9990  -12.3510   18.5740 C   0  0  0  0  0  2  0  0  0  0  0  0
  -27.6070  -13.2850   19.7480 C   0  0  0  0  0  3  0  0  0  0  0  0
  -28.6710  -13.2730   20.8640 C   0  0  0  0  0  2  0  0  0  0  0  0
  -29.9470  -13.6570   20.2450 N   0  0  0  0  0  0  0  0  0  0  0  0
  -31.7560  -14.9950   20.0570 O   0  0  0  0  0  0  0  0  0  0  0  0
  -29.7430  -16.0400   20.4430 N   0  0  0  0  0  0  0  0  0  0  0  0
  -28.7720  -15.7780   20.5190 H   0  0  0  0  0  0  0  0  0  0  0  0
  -25.2270  -13.8740   20.4980 C   0  0  0  0  0  0  0  0  0  0  0  0
  -24.1630  -13.0990   20.8740 C   0  0  0  0  0  0  0  0  0  0  0  0
  -24.6310  -11.7470   20.8480 C   0  0  0  0  0  0  0  0  0  0  0  0
  -26.2690  -12.9950   20.2540 N   0  0  0  0  0  0  0  0  0  0  0  0
  -25.9180  -11.7120   20.5300 N   0  0  0  0  0  0  0  0  0  0  0  0
  -23.9080  -10.4840   21.0460 C   0  0  0  0  0  0  0  0  0  0  0  0
  -24.3480   -9.5180   21.9770 C   0  0  0  0  0  3  0  0  0  0  0  0
  -23.6240   -8.3200   22.1600 C   0  0  0  0  0  3  0  0  0  0  0  0
  -22.4450   -8.0840   21.4150 C   0  0  0  0  0  0  0  0  0  0  0  0
  -22.0230   -9.0390   20.4730 C   0  0  0  0  0  3  0  0  0  0  0  0
  -22.7490  -10.2280   20.2890 C   0  0  0  0  0  3  0  0  0  0  0  0
  -21.6920   -6.9360   21.5080 O   0  0  0  0  0  0  0  0  0  0  0  0
  -21.6600   -6.1910   22.6570 C   0  0  0  0  0  0  0  0  0  0  0  0
  -21.2510   -6.7400   23.8920 C   0  0  0  0  0  3  0  0  0  0  0  0
  -21.1670   -5.9200   25.0350 C   0  0  0  0  0  3  0  0  0  0  0  0
  -21.4810   -4.5500   24.9430 C   0  0  0  0  0  0  0  0  0  0  0  0
  -21.8810   -3.9990   23.7130 C   0  0  0  0  0  3  0  0  0  0  0  0
  -21.9670   -4.8170   22.5720 C   0  0  0  0  0  0  0  0  0  0  0  0
  -22.3370   -4.2790   21.3860 F   0  0  0  0  0  0  0  0  0  0  0  0
  -21.3900   -3.7590   26.0370 F   0  0  0  0  0  0  0  0  0  0  0  0
  -22.7660  -13.5750   21.1430 C   0  0  0  0  0  0  0  0  0  0  0  0
  -22.0350  -12.8860   22.0120 N   0  0  0  0  0  0  0  0  0  0  0  0
  -22.3270  -14.5980   20.6160 O   0  0  0  0  0  0  0  0  0  0  0  0
  -22.3970  -12.0620   22.4690 H   0  0  0  0  0  0  0  0  0  0  0  0
  -21.0980  -13.1940   22.2290 H   0  0  0  0  0  0  0  0  0  0  0  0
  -25.3830  -15.2440   20.3150 N   0  0  0  0  0  0  0  0  0  0  0  0
  -24.6050  -15.8840   20.4330 H   0  0  0  0  0  0  0  0  0  0  0  0
  -26.2100  -15.6910   19.9410 H   0  0  0  0  0  0  0  0  0  0  0  0
  1  5  1  0
  2  6  2  0
  2  3  1  0
  3  1  2  0
  4  5  2  0
  5  7  1  0
  6  4  1  0
  8  6  1  0
  9  4  1  0
  9 10  1  0
 11 22  2  0
 12 10  1  0
 12 17  1  0
 13 21  1  0
 13 23  1  0
 14 20  1  0
 14 16  1  0
 15 21  1  0
 16 15  1  0
 17 16  2  0
 18 19  1  0
 18 12  2  0
 19 14  2  0
 20 13  1  0
 21 11  1  0
 23 25  2  0
 24 23  1  0
 26 24  1  0
 27 36  2  0
 27 32  1  0
 28 24  1  0
 28 32  1  0
 29 28  1  0
 30 31  1  0
 30 29  1  0
 31 27  1  0
 32 33  2  0
 33 34  1  0
 35 34  2  0
 36 35  1  0
 37 11  1  0
 37 42  1  0
 37 38  1  0
 38 41  1  1
 38 39  1  0
 40 38  1  0
 42 45  1  0
 43 47  1  0
 43 42  1  0
 44 43  2  0
 47 46  1  0
 49 47  1  0
 49 50  1  0
 49 48  1  0
 51  3  1  0
 51 56  1  0
 52 53  1  0
 52 51  1  0
 54 52  1  0
 55 52  1  0
 57 65  1  0
 58 63  1  0
 59 60  1  0
 59 58  1  0
 61 60  1  0
 61 70  1  0
 61 62  1  0
 63 57  1  0
 63 62  1  0
 64 57  2  0
 65 66  1  0
 65 56  1  0
 67 68  2  0
 68 87  1  0
 69 68  1  0
 69 72  1  0
 70 67  1  0
 70 71  1  0
 71 69  2  0
 72 73  1  0
 73 74  2  0
 75 78  1  0
 75 74  1  0
 76 75  2  0
 77 76  1  0
 77 72  2  0
 78 79  1  0
 79 80  1  0
 80 81  2  0
 82 81  1  0
 82 86  1  0
 83 82  2  0
 84 79  2  0
 84 83  1  0
 85 84  1  0
 87 88  1  0
 88 91  1  0
 88 90  1  0
 89 87  2  0
 92 93  1  0
 92 67  1  0
 94 92  1  0
M  ISO  4   9 101  10 101  57 100  65 100
M  END
>  <TORSDO>  (72) 
F 20

>  <SCORE>  (72) 
-14.072

>  <name>  (72) 
72

>  <ligand_id>  (72) 
72

>  <original_smiles>  (72) 
[H]c1c([H])c([H])c2c(c1[H])C([H])([H])C([H])([H])C([H])([H])C2([H])N([H])C(=O)C1([H])N(C(=O)C([H])(N([H])C(=O)C([H])(N([H])C([H])([H])[H])C([H])([H])[H])C(C([H])([H])[H])(C([H])([H])[H])C([H])([H])[H])C([H])([H])c2c([H])c(OC([H])([H])c3c(F)c([H])c(C([H])(C([H])([H])N([H])C(=O)N4C([H])([H])C([H])([H])C([H])([H])C([H])(n5nc(-c6c([H])c([H])c(Oc7c([H])c([H])c(F)c([H])c7F)c([H])c6[H])c(C(=O)N([H])[H])c5N([H])[H])C4([H])[H])[N+]([H])([H])[H])c([H])c3F)c([H])c([H])c2C1([H])[H]

>  <smiles>  (72) 
[H]c1c([H])c([H])c2c(c1[H])C([H])([H])C([H])([H])C([H])([H])C2([H])N([H])C(=O)C1([H])N(C(=O)C([H])(N([H])C(=O)C([H])(N([H])C([H])([H])[H])C([H])([H])[H])C(C([H])([H])[H])(C([H])([H])[H])C([H])([H])[H])C([H])([H])c2c([H])c(OC([H])([H])c3c(F)c([H])c(C([H])(C([H])([H])N([H])C(=O)N4C([H])([H])C([H])([H])C([H])([H])C([H])(n5nc(-c6c([H])c([H])c(Oc7c([H])c([H])c(F)c([H])c7F)c([H])c6[H])c(C(=O)N([H])[H])c5N([H])[H])C4([H])[H])[N+]([H])([H])[H])c([H])c3F)c([H])c([H])c2C1([H])[H]

$$$$
73:0:0
     RDKit          3D

 96104  0  0  1  0  0  0  0  0999 V2000
  -28.8120  -22.5820   20.0790 C   0  0  0  0  0  0  0  0  0  0  0  0
  -27.9340  -22.3340   19.2480 O   0  0  0  0  0  0  0  0  0  0  0  0
  -29.5760  -21.3700   20.7100 C   0  0  0  0  0  2  0  0  0  0  0  0
  -28.9280  -20.0640   20.3280 N   0  0  0  0  0  4  0  0  0  0  0  0
  -28.0480  -19.9660   20.8040 H   0  0  0  0  0  0  0  0  0  0  0  0
  -28.7020  -20.1350   19.3420 H   0  0  0  0  0  0  0  0  0  0  0  0
  -30.7550  -14.5590   20.0450 C   0  0  0  0  0  0  0  0  0  0  0  0
  -30.3710  -12.3740   18.9640 C   0  0  0  0  0  2  0  0  0  0  0  0
  -29.3780  -12.5500   17.7990 C   0  0  0  0  0  2  0  0  0  0  0  0
  -27.9300  -12.4020   18.3030 C   0  0  0  0  0  2  0  0  0  0  0  0
  -27.6460  -13.2510   19.5740 C   0  0  0  0  0  3  0  0  0  0  0  0
  -28.7630  -13.0990   20.6300 C   0  0  0  0  0  2  0  0  0  0  0  0
  -30.0400  -13.3990   19.9690 N   0  0  0  0  0  0  0  0  0  0  0  0
  -31.9230  -14.6090   19.6520 O   0  0  0  0  0  0  0  0  0  0  0  0
  -29.5680  -18.0390   19.1100 C   0  0  0  0  0  0  0  0  0  0  0  0
  -30.2680  -16.6720   19.0050 C   0  0  0  0  0  2  0  0  0  0  0  0
  -29.2570  -17.7830   21.5130 C   0  0  0  0  0  2  0  0  0  0  0  0
  -30.0200  -16.4140   21.4730 C   0  0  0  0  0  2  0  0  0  0  0  0
  -29.7280  -18.7930   20.4320 C   0  0  0  0  0  3  0  0  0  0  0  0
  -30.0560  -15.7360   20.1500 N   0  0  0  0  0  0  0  0  0  0  0  0
  -28.9300  -18.4910   18.1540 O   0  0  0  0  0  0  0  0  0  0  0  0
  -25.2990  -13.8310   20.4420 C   0  0  0  0  0  0  0  0  0  0  0  0
  -24.2530  -13.0490   20.8530 C   0  0  0  0  0  0  0  0  0  0  0  0
  -24.7130  -11.6980   20.7710 C   0  0  0  0  0  0  0  0  0  0  0  0
  -26.3280  -12.9560   20.1320 N   0  0  0  0  0  0  0  0  0  0  0  0
  -25.9850  -11.6680   20.3900 N   0  0  0  0  0  0  0  0  0  0  0  0
  -23.9990  -10.4320   20.9760 C   0  0  0  0  0  0  0  0  0  0  0  0
  -24.4520   -9.4700   21.9060 C   0  0  0  0  0  3  0  0  0  0  0  0
  -23.7360   -8.2680   22.0980 C   0  0  0  0  0  3  0  0  0  0  0  0
  -22.5550   -8.0200   21.3600 C   0  0  0  0  0  0  0  0  0  0  0  0
  -22.1220   -8.9700   20.4180 C   0  0  0  0  0  3  0  0  0  0  0  0
  -22.8370  -10.1630   20.2240 C   0  0  0  0  0  3  0  0  0  0  0  0
  -21.8080   -6.8700   21.4630 O   0  0  0  0  0  0  0  0  0  0  0  0
  -21.7340   -6.1620   22.6360 C   0  0  0  0  0  0  0  0  0  0  0  0
  -21.2730   -6.7510   23.8340 C   0  0  0  0  0  3  0  0  0  0  0  0
  -21.1470   -5.9680   24.9990 C   0  0  0  0  0  3  0  0  0  0  0  0
  -21.4710   -4.5990   24.9680 C   0  0  0  0  0  0  0  0  0  0  0  0
  -21.9240   -4.0090   23.7750 C   0  0  0  0  0  3  0  0  0  0  0  0
  -22.0530   -4.7900   22.6120 C   0  0  0  0  0  0  0  0  0  0  0  0
  -22.4700   -4.2110   21.4580 F   0  0  0  0  0  0  0  0  0  0  0  0
  -21.3410   -3.8450   26.0850 F   0  0  0  0  0  0  0  0  0  0  0  0
  -22.8720  -13.5200   21.2050 C   0  0  0  0  0  0  0  0  0  0  0  0
  -22.1940  -12.8150   22.1030 N   0  0  0  0  0  0  0  0  0  0  0  0
  -22.4040  -14.5490   20.7190 O   0  0  0  0  0  0  0  0  0  0  0  0
  -22.5880  -11.9850   22.5220 H   0  0  0  0  0  0  0  0  0  0  0  0
  -21.2680  -13.1120   22.3780 H   0  0  0  0  0  0  0  0  0  0  0  0
  -25.4560  -15.2040   20.2840 N   0  0  0  0  0  0  0  0  0  0  0  0
  -24.6990  -15.8570   20.4530 H   0  0  0  0  0  0  0  0  0  0  0  0
  -26.2930  -15.6470   19.9300 H   0  0  0  0  0  0  0  0  0  0  0  0
  -29.2000  -24.0770   20.4320 C   0  0  0  0  0  3  0  0  0  0  0  0
  -30.4540  -24.4030   19.7130 N   0  0  0  0  0  4  0  0  0  0  0  0
  -30.3500  -24.2560   18.7240 H   0  0  0  0  0  0  0  0  0  0  0  0
  -31.2350  -23.8600   20.0380 H   0  0  0  0  0  0  0  0  0  0  0  0
  -30.6800  -25.3740   19.8540 H   0  0  0  0  0  0  0  0  0  0  0  0
  -28.0820  -25.1060   20.0330 C   0  0  0  0  0  2  0  0  0  0  0  0
  -28.3170  -26.5330   20.2950 O   0  0  0  0  0  0  0  0  0  0  0  0
  -24.5950  -31.8890   23.2990 C   0  0  0  0  0  0  0  0  0  0  0  0
  -27.1960  -27.3660   20.2290 C   0  0  0  0  0  0  0  0  0  0  0  0
  -23.3880  -30.5020   21.6530 C   0  0  0  0  0  3  0  0  0  0  0  0
  -24.8340  -28.9640   20.2230 C   0  0  0  0  0  0  0  0  0  0  0  0
  -25.9280  -30.8230   21.4730 C   0  0  0  0  0  2  0  0  0  0  0  0
  -26.0020  -29.4500   20.8230 C   0  0  0  0  0  0  0  0  0  0  0  0
  -27.1870  -28.6620   20.8210 C   0  0  0  0  0  3  0  0  0  0  0  0
  -26.0040  -26.9310   19.5970 C   0  0  0  0  0  3  0  0  0  0  0  0
  -24.8350  -27.7070   19.6020 C   0  0  0  0  0  3  0  0  0  0  0  0
  -23.6010  -29.8380   20.2690 C   0  0  0  0  0  2  0  0  0  0  0  0
  -24.6560  -31.0860   22.1990 N   0  0  0  0  0  0  0  0  0  0  0  0
  -23.5120  -32.1700   23.8330 O   0  0  0  0  0  0  0  0  0  0  0  0
  -22.7250  -29.4780   22.6040 C   0  0  0  0  0  0  0  0  0  0  0  0
  -21.3990  -29.3050   22.4710 N   0  0  0  0  0  0  0  0  0  0  0  0
  -23.3990  -28.8470   23.4220 O   0  0  0  0  0  0  0  0  0  0  0  0
  -20.9150  -29.8680   21.7850 H   0  0  0  0  0  0  0  0  0  0  0  0
  -18.0150  -28.1240   22.9520 C   0  0  0  0  0  0  0  0  0  0  0  0
  -20.5730  -28.3690   23.2350 C   0  0  0  0  0  3  0  0  0  0  0  0
  -20.6710  -26.9380   22.6580 C   0  0  0  0  0  2  0  0  0  0  0  0
  -19.5710  -26.6210   21.6380 C   0  0  0  0  0  2  0  0  0  0  0  0
  -18.1880  -26.7740   22.2760 C   0  0  0  0  0  2  0  0  0  0  0  0
  -19.1360  -28.8790   23.3890 C   0  0  0  0  0  0  0  0  0  0  0  0
  -18.9210  -30.1430   23.9800 C   0  0  0  0  0  3  0  0  0  0  0  0
  -17.6180  -30.6520   24.1380 C   0  0  0  0  0  3  0  0  0  0  0  0
  -16.5110  -29.8930   23.7190 C   0  0  0  0  0  3  0  0  0  0  0  0
  -16.7100  -28.6310   23.1320 C   0  0  0  0  0  3  0  0  0  0  0  0
  -25.8800  -32.5130   23.9260 C   0  0  0  0  0  3  0  0  0  0  0  0
  -25.5810  -33.9150   24.2470 N   0  0  0  0  0  0  0  0  0  0  0  0
  -25.9090  -34.9590   23.4740 C   0  0  0  0  0  0  0  0  0  0  0  0
  -26.5670  -34.8430   22.4370 O   0  0  0  0  0  0  0  0  0  0  0  0
  -24.9980  -34.0800   25.0550 H   0  0  0  0  0  0  0  0  0  0  0  0
  -24.1750  -36.7470   23.1290 C   0  0  0  0  0  1  0  0  0  0  0  0
  -25.4310  -36.3530   23.9240 C   0  0  0  0  0  3  0  0  0  0  0  0
  -27.5820  -37.2450   24.7020 C   0  0  0  0  0  1  0  0  0  0  0  0
  -26.4630  -37.4030   23.7780 N   0  0  0  0  0  0  0  0  0  0  0  0
  -26.0630  -38.3260   23.9180 H   0  0  0  0  0  0  0  0  0  0  0  0
  -26.3820  -31.7430   25.2090 C   0  0  1  0  0  0  0  0  0  0  0  0
  -25.2790  -31.5190   26.2710 C   0  0  0  0  0  1  0  0  0  0  0  0
  -26.9560  -30.3610   24.8260 C   0  0  0  0  0  1  0  0  0  0  0  0
  -27.5350  -32.5310   25.8730 C   0  0  0  0  0  1  0  0  0  0  0  0
  1 50  1  0
  1  3  1  0
  2  1  2  0
  4  3  1  0
  4  5  1  0
  6  4  1  0
  7 20  1  0
  8 13  1  0
  9 10  1  0
  9  8  1  0
 11 10  1  0
 11 25  1  0
 11 12  1  0
 13  7  1  0
 13 12  1  0
 14  7  2  0
 15 19  1  0
 16 15  1  0
 16 20  1  0
 18 17  1  0
 19  4  1  0
 19 17  1  0
 20 18  1  0
 21 15  2  0
 22 23  2  0
 23 42  1  0
 24 23  1  0
 24 27  1  0
 25 26  1  0
 25 22  1  0
 26 24  2  0
 27 28  1  0
 28 29  2  0
 30 33  1  0
 30 29  1  0
 31 30  2  0
 32 31  1  0
 32 27  2  0
 33 34  1  0
 34 35  1  0
 35 36  2  0
 37 36  1  0
 37 41  1  0
 38 37  2  0
 39 34  2  0
 39 38  1  0
 40 39  1  0
 42 43  1  0
 43 46  1  0
 43 45  1  0
 44 42  2  0
 47 22  1  0
 47 48  1  0
 49 47  1  0
 50 55  1  0
 51 54  1  0
 51 53  1  0
 51 50  1  0
 52 51  1  0
 55 56  1  0
 57 68  2  0
 58 56  1  0
 58 63  1  0
 59 67  1  0
 59 69  1  0
 60 66  1  0
 60 62  1  0
 61 67  1  0
 62 61  1  0
 63 62  2  0
 64 65  1  0
 64 58  2  0
 65 60  2  0
 66 59  1  0
 67 57  1  0
 69 71  2  0
 70 69  1  0
 72 70  1  0
 73 82  2  0
 73 78  1  0
 74 70  1  0
 74 78  1  0
 75 74  1  0
 76 77  1  0
 76 75  1  0
 77 73  1  0
 78 79  2  0
 79 80  1  0
 81 80  2  0
 82 81  1  0
 83 57  1  0
 83 84  1  0
 83 93  1  0
 84 87  1  0
 85 89  1  0
 85 84  1  0
 86 85  2  0
 89 88  1  0
 91 92  1  0
 91 89  1  0
 91 90  1  0
 93 96  1  1
 93 94  1  0
 95 93  1  0
M  ISO  4   7 100  20 100  55 101  56 101
M  END
>  <TORSDO>  (73) 
F 21

>  <SCORE>  (73) 
-13.334

>  <name>  (73) 
73

>  <ligand_id>  (73) 
73

>  <original_smiles>  (73) 
[H]c1c([H])c([H])c2c(c1[H])C([H])([H])C([H])([H])C([H])([H])C2([H])N([H])C(=O)C1([H])N(C(=O)C([H])(N([H])C(=O)C([H])(N([H])C([H])([H])[H])C([H])([H])[H])C(C([H])([H])[H])(C([H])([H])[H])C([H])([H])[H])C([H])([H])c2c([H])c(OC([H])([H])C([H])(C(=O)C([H])([H])[N+]([H])([H])C3([H])C(=O)C([H])([H])N(C(=O)N4C([H])([H])C([H])([H])C([H])([H])C([H])(n5nc(-c6c([H])c([H])c(Oc7c([H])c([H])c(F)c([H])c7F)c([H])c6[H])c(C(=O)N([H])[H])c5N([H])[H])C4([H])[H])C([H])([H])C3([H])[H])[N+]([H])([H])[H])c([H])c([H])c2C1([H])[H]

>  <smiles>  (73) 
[H]c1c([H])c([H])c2c(c1[H])C([H])([H])C([H])([H])C([H])([H])C2([H])N([H])C(=O)C1([H])N(C(=O)C([H])(N([H])C(=O)C([H])(N([H])C([H])([H])[H])C([H])([H])[H])C(C([H])([H])[H])(C([H])([H])[H])C([H])([H])[H])C([H])([H])c2c([H])c(OC([H])([H])C([H])(C(=O)C([H])([H])[N+]([H])([H])C3([H])C(=O)C([H])([H])N(C(=O)N4C([H])([H])C([H])([H])C([H])([H])C([H])(n5nc(-c6c([H])c([H])c(Oc7c([H])c([H])c(F)c([H])c7F)c([H])c6[H])c(C(=O)N([H])[H])c5N([H])[H])C4([H])[H])C([H])([H])C3([H])[H])[N+]([H])([H])[H])c([H])c([H])c2C1([H])[H]

$$$$
74:0:0
     RDKit          3D

 97106  0  0  1  0  0  0  0  0999 V2000
  -29.9710  -22.3580   17.1670 C   0  0  0  0  0  2  0  0  0  0  0  0
  -27.8030  -22.6580   18.4710 C   0  0  0  0  0  2  0  0  0  0  0  0
  -29.8180  -23.8080   16.6830 C   0  0  0  0  0  2  0  0  0  0  0  0
  -27.7220  -24.0710   17.8810 C   0  0  0  0  0  2  0  0  0  0  0  0
  -28.6270  -21.7040   17.5830 C   0  0  0  0  0  3  0  0  0  0  0  0
  -29.0890  -24.6050   17.6940 N   0  0  2  0  0  4  0  0  0  0  0  0
  -29.5520  -24.4560   18.5790 H   0  0  0  0  0  0  0  0  0  0  0  0
  -28.9200  -20.3830   18.3140 C   0  0  0  0  0  2  0  0  0  0  0  0
  -27.7050  -19.4680   18.6280 C   0  0  0  0  0  2  0  0  0  0  0  0
  -27.9700  -18.5360   19.7550 N   0  0  0  0  0  4  0  0  0  0  0  0
  -28.4150  -19.0460   20.5010 H   0  0  0  0  0  0  0  0  0  0  0  0
  -27.0680  -18.2480   20.1040 H   0  0  0  0  0  0  0  0  0  0  0  0
  -30.8280  -14.6050   20.8340 C   0  0  0  0  0  0  0  0  0  0  0  0
  -30.5550  -12.4440   19.7390 C   0  0  0  0  0  2  0  0  0  0  0  0
  -29.6800  -12.6450   18.4840 C   0  0  0  0  0  2  0  0  0  0  0  0
  -28.1870  -12.5170   18.8380 C   0  0  0  0  0  2  0  0  0  0  0  0
  -27.7750  -13.3580   20.0750 C   0  0  0  0  0  3  0  0  0  0  0  0
  -28.7830  -13.1870   21.2380 C   0  0  0  0  0  2  0  0  0  0  0  0
  -30.1290  -13.4500   20.7170 N   0  0  0  0  0  0  0  0  0  0  0  0
  -32.0590  -14.6280   20.8060 O   0  0  0  0  0  0  0  0  0  0  0  0
  -30.0700  -17.5190   18.7310 C   0  0  0  0  0  2  0  0  0  0  0  0
  -30.8800  -16.2740   19.0500 C   0  0  0  0  0  2  0  0  0  0  0  0
  -29.1680  -16.5090   20.6930 C   0  0  0  0  0  2  0  0  0  0  0  0
  -28.7390  -17.3060   19.4490 C   0  0  0  0  0  3  0  0  0  0  0  0
  -30.2170  -15.6220   20.1890 N   0  0  0  0  0  0  0  0  0  0  0  0
  -25.3340  -13.9430   20.6420 C   0  0  0  0  0  0  0  0  0  0  0  0
  -24.2570  -13.1600   20.9530 C   0  0  0  0  0  0  0  0  0  0  0  0
  -24.7410  -11.8160   20.9700 C   0  0  0  0  0  0  0  0  0  0  0  0
  -26.4040  -13.0750   20.4870 N   0  0  0  0  0  0  0  0  0  0  0  0
  -26.0480  -11.7930   20.7470 N   0  0  0  0  0  0  0  0  0  0  0  0
  -24.0270  -10.5450   21.1230 C   0  0  0  0  0  0  0  0  0  0  0  0
  -24.4170   -9.5900   22.0870 C   0  0  0  0  0  3  0  0  0  0  0  0
  -23.7030   -8.3830   22.2260 C   0  0  0  0  0  3  0  0  0  0  0  0
  -22.5820   -8.1200   21.4020 C   0  0  0  0  0  0  0  0  0  0  0  0
  -22.2130   -9.0620   20.4270 C   0  0  0  0  0  3  0  0  0  0  0  0
  -22.9310  -10.2620   20.2850 C   0  0  0  0  0  3  0  0  0  0  0  0
  -21.8410   -6.9650   21.4520 O   0  0  0  0  0  0  0  0  0  0  0  0
  -21.7230   -6.2360   22.6070 C   0  0  0  0  0  0  0  0  0  0  0  0
  -21.1670   -6.7860   23.7820 C   0  0  0  0  0  3  0  0  0  0  0  0
  -20.9970   -5.9790   24.9250 C   0  0  0  0  0  3  0  0  0  0  0  0
  -21.3790   -4.6240   24.8930 C   0  0  0  0  0  0  0  0  0  0  0  0
  -21.9300   -4.0740   23.7220 C   0  0  0  0  0  3  0  0  0  0  0  0
  -22.0970   -4.8780   22.5810 C   0  0  0  0  0  0  0  0  0  0  0  0
  -22.6070   -4.3370   21.4480 F   0  0  0  0  0  0  0  0  0  0  0  0
  -21.2100   -3.8460   25.9870 F   0  0  0  0  0  0  0  0  0  0  0  0
  -22.8360  -13.6140   21.1290 C   0  0  0  0  0  0  0  0  0  0  0  0
  -22.0660  -12.9110   21.9500 N   0  0  0  0  0  0  0  0  0  0  0  0
  -22.4180  -14.6300   20.5730 O   0  0  0  0  0  0  0  0  0  0  0  0
  -22.4160  -12.0890   22.4190 H   0  0  0  0  0  0  0  0  0  0  0  0
  -21.1110  -13.1950   22.1120 H   0  0  0  0  0  0  0  0  0  0  0  0
  -25.4860  -15.3130   20.4530 N   0  0  0  0  0  0  0  0  0  0  0  0
  -24.7010  -15.9530   20.4910 H   0  0  0  0  0  0  0  0  0  0  0  0
  -26.3410  -15.7330   20.1310 H   0  0  0  0  0  0  0  0  0  0  0  0
  -29.1750  -26.0690   17.4730 C   0  0  0  0  0  2  0  0  0  0  0  0
  -30.2310  -26.6920   18.4140 C   0  0  0  0  0  2  0  0  0  0  0  0
  -29.6310  -27.5630   19.5260 C   0  0  0  0  0  2  0  0  0  0  0  0
  -28.6400  -26.8320   20.2570 O   0  0  0  0  0  0  0  0  0  0  0  0
  -24.6110  -31.8790   23.3110 C   0  0  0  0  0  0  0  0  0  0  0  0
  -27.4450  -27.5010   20.3510 C   0  0  0  0  0  0  0  0  0  0  0  0
  -23.4850  -30.4430   21.6420 C   0  0  0  0  0  3  0  0  0  0  0  0
  -25.0110  -28.9160   20.2980 C   0  0  0  0  0  0  0  0  0  0  0  0
  -26.0030  -30.8550   21.5210 C   0  0  0  0  0  2  0  0  0  0  0  0
  -26.1370  -29.4810   20.9090 C   0  0  0  0  0  0  0  0  0  0  0  0
  -27.3600  -28.7820   20.9350 C   0  0  0  0  0  3  0  0  0  0  0  0
  -26.2900  -26.9220   19.7890 C   0  0  0  0  0  3  0  0  0  0  0  0
  -25.0770  -27.6290   19.7420 C   0  0  0  0  0  3  0  0  0  0  0  0
  -23.7500  -29.7460   20.2830 C   0  0  0  0  0  2  0  0  0  0  0  0
  -24.7150  -31.0730   22.2180 N   0  0  0  0  0  0  0  0  0  0  0  0
  -23.5080  -32.1400   23.8100 O   0  0  0  0  0  0  0  0  0  0  0  0
  -22.8160  -29.4210   22.5880 C   0  0  0  0  0  0  0  0  0  0  0  0
  -21.4940  -29.2450   22.4350 N   0  0  0  0  0  0  0  0  0  0  0  0
  -23.4840  -28.7870   23.4090 O   0  0  0  0  0  0  0  0  0  0  0  0
  -21.0190  -29.8060   21.7420 H   0  0  0  0  0  0  0  0  0  0  0  0
  -18.1010  -28.0930   22.8890 C   0  0  0  0  0  0  0  0  0  0  0  0
  -20.6600  -28.3080   23.1830 C   0  0  0  0  0  3  0  0  0  0  0  0
  -20.7460  -26.8860   22.5840 C   0  0  0  0  0  2  0  0  0  0  0  0
  -19.6470  -26.5940   21.5570 C   0  0  0  0  0  2  0  0  0  0  0  0
  -18.2640  -26.7520   22.1950 C   0  0  0  0  0  2  0  0  0  0  0  0
  -19.2280  -28.8320   23.3380 C   0  0  0  0  0  0  0  0  0  0  0  0
  -19.0250  -30.0910   23.9430 C   0  0  0  0  0  3  0  0  0  0  0  0
  -17.7280  -30.6120   24.1060 C   0  0  0  0  0  3  0  0  0  0  0  0
  -16.6150  -29.8690   23.6770 C   0  0  0  0  0  3  0  0  0  0  0  0
  -16.8030  -28.6130   23.0730 C   0  0  0  0  0  3  0  0  0  0  0  0
  -25.8670  -32.5310   23.9700 C   0  0  0  0  0  3  0  0  0  0  0  0
  -25.5400  -33.9350   24.2520 N   0  0  0  0  0  0  0  0  0  0  0  0
  -25.8950  -34.9690   23.4770 C   0  0  0  0  0  0  0  0  0  0  0  0
  -26.6040  -34.8430   22.4750 O   0  0  0  0  0  0  0  0  0  0  0  0
  -24.9140  -34.1100   25.0250 H   0  0  0  0  0  0  0  0  0  0  0  0
  -24.1760  -36.7430   22.9990 C   0  0  0  0  0  1  0  0  0  0  0  0
  -25.3790  -36.3620   23.8780 C   0  0  0  0  0  3  0  0  0  0  0  0
  -27.4610  -37.2860   24.7940 C   0  0  0  0  0  1  0  0  0  0  0  0
  -26.4090  -37.4190   23.7910 N   0  0  0  0  0  0  0  0  0  0  0  0
  -25.9900  -38.3390   23.8880 H   0  0  0  0  0  0  0  0  0  0  0  0
  -26.3400  -31.7890   25.2810 C   0  0  1  0  0  0  0  0  0  0  0  0
  -25.2070  -31.5580   26.3070 C   0  0  0  0  0  1  0  0  0  0  0  0
  -26.9520  -30.4100   24.9380 C   0  0  0  0  0  1  0  0  0  0  0  0
  -27.4520  -32.6080   25.9780 C   0  0  0  0  0  1  0  0  0  0  0  0
  1  5  1  0
  3  1  1  0
  3  6  1  0
  4  2  1  0
  5  8  1  0
  5  2  1  0
  6  4  1  0
  6  7  1  1
  8  9  1  0
  9 10  1  0
 10 12  1  0
 10 11  1  0
 14 19  1  0
 15 16  1  0
 15 14  1  0
 17 16  1  0
 17 29  1  0
 17 18  1  0
 19 13  1  0
 19 18  1  0
 20 13  2  0
 21 22  1  0
 21 24  1  0
 22 25  1  0
 24 10  1  0
 24 23  1  0
 25 23  1  0
 25 13  1  0
 26 27  2  0
 27 28  1  0
 27 46  1  0
 28 31  1  0
 29 26  1  0
 29 30  1  0
 30 28  2  0
 31 32  1  0
 32 33  2  0
 34 37  1  0
 34 33  1  0
 35 34  2  0
 36 35  1  0
 36 31  2  0
 37 38  1  0
 38 39  1  0
 39 40  2  0
 41 40  1  0
 41 45  1  0
 42 41  2  0
 43 38  2  0
 43 42  1  0
 44 43  1  0
 46 47  1  0
 47 50  1  0
 47 49  1  0
 48 46  2  0
 51 52  1  0
 51 26  1  0
 53 51  1  0
 54  6  1  0
 54 55  1  0
 55 56  1  0
 56 57  1  0
 57 59  1  0
 58 69  2  0
 59 64  1  0
 60 68  1  0
 60 70  1  0
 61 63  1  0
 62 68  1  0
 63 64  2  0
 63 62  1  0
 65 59  2  0
 66 65  1  0
 66 61  2  0
 67 61  1  0
 67 60  1  0
 68 58  1  0
 70 72  2  0
 71 70  1  0
 73 71  1  0
 74 83  2  0
 74 79  1  0
 75 71  1  0
 75 79  1  0
 76 75  1  0
 77 78  1  0
 77 76  1  0
 78 74  1  0
 79 80  2  0
 80 81  1  0
 82 81  2  0
 83 82  1  0
 84 58  1  0
 84 85  1  0
 84 94  1  0
 85 88  1  0
 86 90  1  0
 86 85  1  0
 87 86  2  0
 90 89  1  0
 92 90  1  0
 92 93  1  0
 92 91  1  0
 94 97  1  1
 94 95  1  0
 96 94  1  0
M  ISO  4  13 100  25 100  56 101  57 101
M  END
>  <TORSDO>  (74) 
F 22

>  <SCORE>  (74) 
-13.318

>  <name>  (74) 
74

>  <ligand_id>  (74) 
74

>  <original_smiles>  (74) 
[H]c1c([H])c([H])c2c(c1[H])C([H])([H])C([H])([H])C([H])([H])C2([H])N([H])C(=O)C1([H])N(C(=O)C([H])(N([H])C(=O)C([H])(N([H])C([H])([H])[H])C([H])([H])[H])C(C([H])([H])[H])(C([H])([H])[H])C([H])([H])[H])C([H])([H])c2c([H])c(OC([H])([H])C([H])([H])C([H])([H])[N+]3([H])C([H])([H])C([H])([H])C([H])(C([H])([H])C([H])([H])[N+]([H])([H])C4([H])C([H])([H])N(C(=O)N5C([H])([H])C([H])([H])C([H])([H])C([H])(n6nc(-c7c([H])c([H])c(Oc8c([H])c([H])c(F)c([H])c8F)c([H])c7[H])c(C(=O)N([H])[H])c6N([H])[H])C5([H])[H])C([H])([H])C4([H])[H])C([H])([H])C3([H])[H])c([H])c([H])c2C1([H])[H]

>  <smiles>  (74) 
[H]c1c([H])c([H])c2c(c1[H])C([H])([H])C([H])([H])C([H])([H])C2([H])N([H])C(=O)C1([H])N(C(=O)C([H])(N([H])C(=O)C([H])(N([H])C([H])([H])[H])C([H])([H])[H])C(C([H])([H])[H])(C([H])([H])[H])C([H])([H])[H])C([H])([H])c2c([H])c(OC([H])([H])C([H])([H])C([H])([H])[N+]3([H])C([H])([H])C([H])([H])C([H])(C([H])([H])C([H])([H])[N+]([H])([H])C4([H])C([H])([H])N(C(=O)N5C([H])([H])C([H])([H])C([H])([H])C([H])(n6nc(-c7c([H])c([H])c(Oc8c([H])c([H])c(F)c([H])c8F)c([H])c7[H])c(C(=O)N([H])[H])c6N([H])[H])C5([H])[H])C([H])([H])C4([H])[H])C([H])([H])C3([H])[H])c([H])c([H])c2C1([H])[H]

$$$$
75:0:0
     RDKit          3D

 97106  0  0  1  0  0  0  0  0999 V2000
  -24.5000  -23.0440   21.5590 C   0  0  0  0  0  2  0  0  0  0  0  0
  -24.8480  -22.7440   20.1010 C   0  0  0  0  0  2  0  0  0  0  0  0
  -25.8250  -23.4770   22.2050 C   0  0  0  0  0  2  0  0  0  0  0  0
  -26.3640  -22.4900   20.1080 C   0  0  0  0  0  3  0  0  0  0  0  0
  -26.8590  -23.4510   21.1350 N   0  0  1  0  0  4  0  0  0  0  0  0
  -27.7240  -23.1290   21.5410 H   0  0  0  0  0  0  0  0  0  0  0  0
  -26.6710  -21.0040   20.4670 C   0  0  0  0  0  2  0  0  0  0  0  0
  -28.0580  -20.4710   20.0240 C   0  0  0  0  0  2  0  0  0  0  0  0
  -28.3430  -19.1210   20.5880 N   0  0  0  0  0  4  0  0  0  0  0  0
  -27.5640  -18.5430   20.3220 H   0  0  0  0  0  0  0  0  0  0  0  0
  -28.3500  -19.1410   21.5960 H   0  0  0  0  0  0  0  0  0  0  0  0
  -31.2020  -15.2330   20.1780 C   0  0  0  0  0  0  0  0  0  0  0  0
  -30.9450  -12.9800   19.1770 C   0  0  0  0  0  2  0  0  0  0  0  0
  -29.9800  -13.0350   17.9750 C   0  0  0  0  0  2  0  0  0  0  0  0
  -28.5210  -12.8540   18.4420 C   0  0  0  0  0  2  0  0  0  0  0  0
  -28.1590  -13.7880   19.6220 C   0  0  0  0  0  3  0  0  0  0  0  0
  -29.2390  -13.7280   20.7290 C   0  0  0  0  0  2  0  0  0  0  0  0
  -30.5450  -14.0380   20.1180 N   0  0  0  0  0  0  0  0  0  0  0  0
  -32.3290  -15.3900   19.6940 O   0  0  0  0  0  0  0  0  0  0  0  0
  -31.2170  -17.3360   21.5220 C   0  0  0  0  0  2  0  0  0  0  0  0
  -29.3840  -16.8910   20.1220 C   0  0  0  0  0  2  0  0  0  0  0  0
  -30.8840  -18.6710   20.8340 C   0  0  0  0  0  3  0  0  0  0  0  0
  -29.5620  -18.4220   20.0880 C   0  0  0  0  0  3  0  0  0  0  0  0
  -30.9830  -19.9060   21.7450 C   0  0  0  0  0  1  0  0  0  0  0  0
  -30.5500  -16.2720   20.7620 N   0  0  0  0  0  0  0  0  0  0  0  0
  -25.8200  -14.4130   20.4890 C   0  0  0  0  0  0  0  0  0  0  0  0
  -24.7480  -13.6440   20.8550 C   0  0  0  0  0  0  0  0  0  0  0  0
  -25.1690  -12.2880   20.7030 C   0  0  0  0  0  0  0  0  0  0  0  0
  -26.8240  -13.5200   20.1450 N   0  0  0  0  0  0  0  0  0  0  0  0
  -26.4410  -12.2340   20.3340 N   0  0  0  0  0  0  0  0  0  0  0  0
  -24.4150  -11.0350   20.8320 C   0  0  0  0  0  0  0  0  0  0  0  0
  -24.7700  -10.0610   21.7890 C   0  0  0  0  0  3  0  0  0  0  0  0
  -24.0260   -8.8670   21.9040 C   0  0  0  0  0  3  0  0  0  0  0  0
  -22.9120   -8.6430   21.0590 C   0  0  0  0  0  0  0  0  0  0  0  0
  -22.5750   -9.6080   20.0940 C   0  0  0  0  0  3  0  0  0  0  0  0
  -23.3200  -10.7930   19.9780 C   0  0  0  0  0  3  0  0  0  0  0  0
  -22.1410   -7.5060   21.0900 O   0  0  0  0  0  0  0  0  0  0  0  0
  -21.8770   -6.8450   22.2610 C   0  0  0  0  0  0  0  0  0  0  0  0
  -21.2450   -7.4820   23.3510 C   0  0  0  0  0  3  0  0  0  0  0  0
  -20.9270   -6.7430   24.5090 C   0  0  0  0  0  3  0  0  0  0  0  0
  -21.2340   -5.3720   24.5790 C   0  0  0  0  0  0  0  0  0  0  0  0
  -21.8590   -4.7350   23.4910 C   0  0  0  0  0  3  0  0  0  0  0  0
  -22.1760   -5.4700   22.3350 C   0  0  0  0  0  0  0  0  0  0  0  0
  -22.7610   -4.8470   21.2820 F   0  0  0  0  0  0  0  0  0  0  0  0
  -20.9200   -4.6610   25.6860 F   0  0  0  0  0  0  0  0  0  0  0  0
  -23.3750  -14.1350   21.2180 C   0  0  0  0  0  0  0  0  0  0  0  0
  -22.6710  -13.4040   22.0780 N   0  0  0  0  0  0  0  0  0  0  0  0
  -22.9340  -15.1930   20.7760 O   0  0  0  0  0  0  0  0  0  0  0  0
  -23.0390  -12.5490   22.4670 H   0  0  0  0  0  0  0  0  0  0  0  0
  -21.7520  -13.7110   22.3620 H   0  0  0  0  0  0  0  0  0  0  0  0
  -26.0140  -15.7880   20.3860 N   0  0  0  0  0  0  0  0  0  0  0  0
  -25.2020  -16.3920   20.4550 H   0  0  0  0  0  0  0  0  0  0  0  0
  -26.7150  -16.1480   19.7550 H   0  0  0  0  0  0  0  0  0  0  0  0
  -27.1410  -24.8110   20.5880 C   0  0  0  0  0  2  0  0  0  0  0  0
  -28.6070  -25.0120   20.1430 C   0  0  0  0  0  2  0  0  0  0  0  0
  -29.2030  -26.3890   20.5310 C   0  0  0  0  0  2  0  0  0  0  0  0
  -28.8550  -27.4320   19.6250 O   0  0  0  0  0  0  0  0  0  0  0  0
  -25.0750  -31.9100   23.7190 C   0  0  0  0  0  0  0  0  0  0  0  0
  -27.6770  -28.0910   19.8700 C   0  0  0  0  0  0  0  0  0  0  0  0
  -23.8380  -30.7920   21.8900 C   0  0  0  0  0  3  0  0  0  0  0  0
  -25.2670  -29.5230   20.2050 C   0  0  0  0  0  0  0  0  0  0  0  0
  -26.3560  -31.2000   21.7060 C   0  0  0  0  0  2  0  0  0  0  0  0
  -26.4330  -29.9520   20.8520 C   0  0  0  0  0  0  0  0  0  0  0  0
  -27.6400  -29.2350   20.6970 C   0  0  0  0  0  3  0  0  0  0  0  0
  -26.5040  -27.6860   19.2040 C   0  0  0  0  0  3  0  0  0  0  0  0
  -25.2950  -28.3820   19.3830 C   0  0  0  0  0  3  0  0  0  0  0  0
  -24.0220  -30.3540   20.4120 C   0  0  0  0  0  2  0  0  0  0  0  0
  -25.1080  -31.3060   22.4990 N   0  0  0  0  0  0  0  0  0  0  0  0
  -24.0040  -32.0790   24.3180 O   0  0  0  0  0  0  0  0  0  0  0  0
  -23.2150  -29.6200   22.6780 C   0  0  0  0  0  0  0  0  0  0  0  0
  -21.9020  -29.4060   22.4860 N   0  0  0  0  0  0  0  0  0  0  0  0
  -23.9070  -28.9140   23.4180 O   0  0  0  0  0  0  0  0  0  0  0  0
  -21.4020  -30.0380   21.8740 H   0  0  0  0  0  0  0  0  0  0  0  0
  -18.5960  -27.9600   22.6380 C   0  0  0  0  0  0  0  0  0  0  0  0
  -21.1130  -28.3350   23.0920 C   0  0  0  0  0  3  0  0  0  0  0  0
  -21.3420  -26.9920   22.3600 C   0  0  0  0  0  2  0  0  0  0  0  0
  -20.3180  -26.7270   21.2520 C   0  0  0  0  0  2  0  0  0  0  0  0
  -18.8960  -26.7140   21.8230 C   0  0  0  0  0  2  0  0  0  0  0  0
  -19.6370  -28.7300   23.2200 C   0  0  0  0  0  0  0  0  0  0  0  0
  -19.3060  -29.9010   23.9360 C   0  0  0  0  0  3  0  0  0  0  0  0
  -17.9650  -30.3020   24.0800 C   0  0  0  0  0  3  0  0  0  0  0  0
  -16.9370  -29.5290   23.5150 C   0  0  0  0  0  3  0  0  0  0  0  0
  -17.2520  -28.3600   22.8000 C   0  0  0  0  0  3  0  0  0  0  0  0
  -26.3730  -32.4380   24.4060 C   0  0  0  0  0  3  0  0  0  0  0  0
  -26.1140  -33.8170   24.8420 N   0  0  0  0  0  0  0  0  0  0  0  0
  -26.5230  -34.9100   24.1850 C   0  0  0  0  0  0  0  0  0  0  0  0
  -27.2280  -34.8600   23.1720 O   0  0  0  0  0  0  0  0  0  0  0  0
  -25.4990  -33.9360   25.6350 H   0  0  0  0  0  0  0  0  0  0  0  0
  -24.8930  -36.8040   23.9160 C   0  0  0  0  0  1  0  0  0  0  0  0
  -26.0810  -36.2780   24.7370 C   0  0  0  0  0  3  0  0  0  0  0  0
  -28.2190  -36.9800   25.7170 C   0  0  0  0  0  1  0  0  0  0  0  0
  -27.1640  -37.2840   24.7530 N   0  0  0  0  0  0  0  0  0  0  0  0
  -26.7970  -38.2070   24.9670 H   0  0  0  0  0  0  0  0  0  0  0  0
  -26.8430  -31.5430   25.6190 C   0  0  1  0  0  0  0  0  0  0  0  0
  -25.7240  -31.2530   26.6450 C   0  0  0  0  0  1  0  0  0  0  0  0
  -27.3870  -30.1850   25.1200 C   0  0  0  0  0  1  0  0  0  0  0  0
  -28.0100  -32.2380   26.3600 C   0  0  0  0  0  1  0  0  0  0  0  0
  1  3  1  0
  2  4  1  0
  2  1  1  0
  4  7  1  0
  4  5  1  0
  5  6  1  1
  5  3  1  0
  8  7  1  0
  8  9  1  0
  9 11  1  0
 10  9  1  0
 12 25  1  0
 13 18  1  0
 14 15  1  0
 14 13  1  0
 16 15  1  0
 16 29  1  0
 16 17  1  0
 18 12  1  0
 18 17  1  0
 19 12  2  0
 21 25  1  0
 22 20  1  0
 22 24  1  0
 23 21  1  0
 23  9  1  0
 23 22  1  0
 25 20  1  0
 26 27  2  0
 27 46  1  0
 28 31  1  0
 28 27  1  0
 29 30  1  0
 29 26  1  0
 30 28  2  0
 31 32  1  0
 32 33  2  0
 34 37  1  0
 34 33  1  0
 35 34  2  0
 36 35  1  0
 36 31  2  0
 37 38  1  0
 38 43  2  0
 38 39  1  0
 39 40  2  0
 40 41  1  0
 41 45  1  0
 42 41  2  0
 43 42  1  0
 44 43  1  0
 46 47  1  0
 47 50  1  0
 47 49  1  0
 48 46  2  0
 51 52  1  0
 51 26  1  0
 53 51  1  0
 54  5  1  0
 55 56  1  0
 55 54  1  0
 57 59  1  0
 57 56  1  0
 58 69  2  0
 59 64  1  0
 60 68  1  0
 60 70  1  0
 61 67  1  0
 61 63  1  0
 62 68  1  0
 63 62  1  0
 64 63  2  0
 65 66  1  0
 65 59  2  0
 66 61  2  0
 67 60  1  0
 68 58  1  0
 70 72  2  0
 71 70  1  0
 73 71  1  0
 74 83  2  0
 74 79  1  0
 75 71  1  0
 75 79  1  0
 76 75  1  0
 77 78  1  0
 77 76  1  0
 78 74  1  0
 79 80  2  0
 80 81  1  0
 82 81  2  0
 83 82  1  0
 84 58  1  0
 84 85  1  0
 84 94  1  0
 85 88  1  0
 86 90  1  0
 86 85  1  0
 87 86  2  0
 90 89  1  0
 90 92  1  0
 92 93  1  0
 92 91  1  0
 94 97  1  1
 94 95  1  0
 96 94  1  0
M  ISO  4  12 100  25 100  56 101  57 101
M  END
>  <TORSDO>  (75) 
F 22

>  <SCORE>  (75) 
-9.004

>  <name>  (75) 
75

>  <ligand_id>  (75) 
75

>  <original_smiles>  (75) 
[H]c1c([H])c([H])c2c(c1[H])C([H])([H])C([H])([H])C([H])([H])C2([H])N([H])C(=O)C1([H])N(C(=O)C([H])(N([H])C(=O)C([H])(N([H])C([H])([H])[H])C([H])([H])[H])C(C([H])([H])[H])(C([H])([H])[H])C([H])([H])[H])C([H])([H])c2c([H])c(OC([H])([H])C([H])([H])C([H])([H])[N+]3([H])C([H])([H])C([H])([H])C([H])([H])C3([H])C([H])([H])C([H])([H])[N+]([H])([H])C3([H])C([H])([H])N(C(=O)N4C([H])([H])C([H])([H])C([H])([H])C([H])(n5nc(-c6c([H])c([H])c(Oc7c([H])c([H])c(F)c([H])c7F)c([H])c6[H])c(C(=O)N([H])[H])c5N([H])[H])C4([H])[H])C([H])([H])C3([H])C([H])([H])[H])c([H])c([H])c2C1([H])[H]

>  <smiles>  (75) 
[H]c1c([H])c([H])c2c(c1[H])C([H])([H])C([H])([H])C([H])([H])C2([H])N([H])C(=O)C1([H])N(C(=O)C([H])(N([H])C(=O)C([H])(N([H])C([H])([H])[H])C([H])([H])[H])C(C([H])([H])[H])(C([H])([H])[H])C([H])([H])[H])C([H])([H])c2c([H])c(OC([H])([H])C([H])([H])C([H])([H])[N+]3([H])C([H])([H])C([H])([H])C([H])([H])C3([H])C([H])([H])C([H])([H])[N+]([H])([H])C3([H])C([H])([H])N(C(=O)N4C([H])([H])C([H])([H])C([H])([H])C([H])(n5nc(-c6c([H])c([H])c(Oc7c([H])c([H])c(F)c([H])c7F)c([H])c6[H])c(C(=O)N([H])[H])c5N([H])[H])C4([H])[H])C([H])([H])C3([H])C([H])([H])[H])c([H])c([H])c2C1([H])[H]

$$$$
76:0:0
     RDKit          3D

 95103  0  0  1  0  0  0  0  0999 V2000
  -30.4330  -22.3260   22.6200 C   0  0  0  0  0  0  0  0  0  0  0  0
  -29.5960  -23.2250   23.1560 N   0  0  0  0  0  0  0  0  0  0  0  0
  -31.3540  -22.6510   21.8710 O   0  0  0  0  0  0  0  0  0  0  0  0
  -28.8750  -22.8850   23.7820 H   0  0  0  0  0  0  0  0  0  0  0  0
  -29.5590  -20.1330   21.7340 C   0  0  0  0  0  2  0  0  0  0  0  0
  -31.5030  -20.1240   23.3600 C   0  0  0  0  0  2  0  0  0  0  0  0
  -29.4300  -18.6130   21.9570 C   0  0  0  0  0  2  0  0  0  0  0  0
  -31.3140  -18.5980   23.5100 C   0  0  0  0  0  2  0  0  0  0  0  0
  -30.1930  -20.8420   22.9500 C   0  0  0  0  0  3  0  0  0  0  0  0
  -30.7420  -17.9850   22.2810 N   0  0  2  0  0  4  0  0  0  0  0  0
  -30.5490  -17.0220   22.5160 H   0  0  0  0  0  0  0  0  0  0  0  0
  -31.7190  -17.9310   21.1570 C   0  0  0  0  0  2  0  0  0  0  0  0
  -31.3690  -16.9160   20.0510 C   0  0  0  0  0  2  0  0  0  0  0  0
  -31.7720  -14.4810   20.2090 C   0  0  0  0  0  0  0  0  0  0  0  0
  -31.3470  -12.2620   19.2500 C   0  0  0  0  0  2  0  0  0  0  0  0
  -30.3960  -12.4350   18.0470 C   0  0  0  0  0  2  0  0  0  0  0  0
  -28.9230  -12.4250   18.5040 C   0  0  0  0  0  2  0  0  0  0  0  0
  -28.6580  -13.3800   19.6990 C   0  0  0  0  0  3  0  0  0  0  0  0
  -29.7150  -13.1660   20.8090 C   0  0  0  0  0  2  0  0  0  0  0  0
  -31.0480  -13.3350   20.2080 N   0  0  0  0  0  0  0  0  0  0  0  0
  -32.9030  -14.5780   19.7250 O   0  0  0  0  0  0  0  0  0  0  0  0
  -31.0730  -15.5720   20.5550 N   0  0  0  0  0  0  0  0  0  0  0  0
  -30.1440  -15.3970   20.9100 H   0  0  0  0  0  0  0  0  0  0  0  0
  -26.3690  -14.2090   20.5430 C   0  0  0  0  0  0  0  0  0  0  0  0
  -25.2320  -13.5380   20.9040 C   0  0  0  0  0  0  0  0  0  0  0  0
  -25.5330  -12.1480   20.7640 C   0  0  0  0  0  0  0  0  0  0  0  0
  -27.2980  -13.2320   20.2120 N   0  0  0  0  0  0  0  0  0  0  0  0
  -26.7980  -11.9850   20.3990 N   0  0  0  0  0  0  0  0  0  0  0  0
  -24.6740  -10.9650   20.8980 C   0  0  0  0  0  0  0  0  0  0  0  0
  -25.0050   -9.9090   21.7750 C   0  0  0  0  0  3  0  0  0  0  0  0
  -24.1550   -8.7890   21.9000 C   0  0  0  0  0  3  0  0  0  0  0  0
  -22.9590   -8.7190   21.1470 C   0  0  0  0  0  0  0  0  0  0  0  0
  -22.6450   -9.7630   20.2590 C   0  0  0  0  0  3  0  0  0  0  0  0
  -23.4950  -10.8740   20.1320 C   0  0  0  0  0  3  0  0  0  0  0  0
  -22.0850   -7.6600   21.1840 O   0  0  0  0  0  0  0  0  0  0  0  0
  -21.8680   -6.9470   22.3360 C   0  0  0  0  0  0  0  0  0  0  0  0
  -21.4150   -7.5660   23.5210 C   0  0  0  0  0  3  0  0  0  0  0  0
  -21.1370   -6.7850   24.6620 C   0  0  0  0  0  3  0  0  0  0  0  0
  -21.3030   -5.3890   24.6170 C   0  0  0  0  0  0  0  0  0  0  0  0
  -21.7500   -4.7700   23.4370 C   0  0  0  0  0  3  0  0  0  0  0  0
  -22.0290   -5.5470   22.2980 C   0  0  0  0  0  0  0  0  0  0  0  0
  -22.4380   -4.9430   21.1560 F   0  0  0  0  0  0  0  0  0  0  0  0
  -21.0300   -4.6370   25.7100 F   0  0  0  0  0  0  0  0  0  0  0  0
  -23.9080  -14.1480   21.2650 C   0  0  0  0  0  0  0  0  0  0  0  0
  -23.1500  -13.4960   22.1420 N   0  0  0  0  0  0  0  0  0  0  0  0
  -23.5580  -15.2350   20.8070 O   0  0  0  0  0  0  0  0  0  0  0  0
  -23.4460  -12.6140   22.5330 H   0  0  0  0  0  0  0  0  0  0  0  0
  -22.2620  -13.8850   22.4230 H   0  0  0  0  0  0  0  0  0  0  0  0
  -26.6860  -15.5610   20.4490 N   0  0  0  0  0  0  0  0  0  0  0  0
  -25.9940  -16.2850   20.6140 H   0  0  0  0  0  0  0  0  0  0  0  0
  -27.5490  -15.9200   20.0610 H   0  0  0  0  0  0  0  0  0  0  0  0
  -29.6450  -24.6680   22.9110 C   0  0  0  0  0  2  0  0  0  0  0  0
  -28.9480  -25.0560   21.5890 C   0  0  0  0  0  2  0  0  0  0  0  0
  -29.2000  -26.5170   21.1730 C   0  0  0  0  0  2  0  0  0  0  0  0
  -28.5450  -26.7830   19.9290 O   0  0  0  0  0  0  0  0  0  0  0  0
  -24.6340  -31.7690   23.1830 C   0  0  0  0  0  0  0  0  0  0  0  0
  -27.3750  -27.5030   19.9910 C   0  0  0  0  0  0  0  0  0  0  0  0
  -23.4480  -30.3840   21.5060 C   0  0  0  0  0  3  0  0  0  0  0  0
  -24.9350  -28.9230   20.0340 C   0  0  0  0  0  0  0  0  0  0  0  0
  -25.9560  -30.8240   21.2990 C   0  0  0  0  0  2  0  0  0  0  0  0
  -26.0740  -29.4700   20.6360 C   0  0  0  0  0  0  0  0  0  0  0  0
  -27.2970  -28.7670   20.6180 C   0  0  0  0  0  3  0  0  0  0  0  0
  -26.2270  -26.9700   19.3700 C   0  0  0  0  0  3  0  0  0  0  0  0
  -25.0020  -27.6680   19.4000 C   0  0  0  0  0  3  0  0  0  0  0  0
  -23.6660  -29.7430   20.1070 C   0  0  0  0  0  2  0  0  0  0  0  0
  -24.6980  -31.0060   22.0560 N   0  0  0  0  0  0  0  0  0  0  0  0
  -23.5510  -32.0000   23.7390 O   0  0  0  0  0  0  0  0  0  0  0  0
  -22.8290  -29.3230   22.4430 C   0  0  0  0  0  0  0  0  0  0  0  0
  -21.5100  -29.1110   22.3140 N   0  0  0  0  0  0  0  0  0  0  0  0
  -23.5310  -28.6920   23.2390 O   0  0  0  0  0  0  0  0  0  0  0  0
  -21.0050  -29.6770   21.6470 H   0  0  0  0  0  0  0  0  0  0  0  0
  -18.1630  -27.8430   22.7960 C   0  0  0  0  0  0  0  0  0  0  0  0
  -20.7170  -28.1320   23.0560 C   0  0  0  0  0  3  0  0  0  0  0  0
  -20.8380  -26.7250   22.4290 C   0  0  0  0  0  2  0  0  0  0  0  0
  -19.7330  -26.4210   21.4120 C   0  0  0  0  0  2  0  0  0  0  0  0
  -18.3550  -26.5210   22.0720 C   0  0  0  0  0  2  0  0  0  0  0  0
  -19.2730  -28.6080   23.2420 C   0  0  0  0  0  0  0  0  0  0  0  0
  -19.0400  -29.8480   23.8750 C   0  0  0  0  0  3  0  0  0  0  0  0
  -17.7290  -30.3230   24.0700 C   0  0  0  0  0  3  0  0  0  0  0  0
  -16.6330  -29.5530   23.6410 C   0  0  0  0  0  3  0  0  0  0  0  0
  -16.8510  -28.3160   23.0080 C   0  0  0  0  0  3  0  0  0  0  0  0
  -25.9110  -32.4080   23.8140 C   0  0  0  0  0  3  0  0  0  0  0  0
  -25.5780  -33.7870   24.1900 N   0  0  0  0  0  0  0  0  0  0  0  0
  -25.8860  -34.8670   23.4590 C   0  0  0  0  0  0  0  0  0  0  0  0
  -26.5520  -34.8090   22.4220 O   0  0  0  0  0  0  0  0  0  0  0  0
  -24.9850  -33.9050   24.9980 H   0  0  0  0  0  0  0  0  0  0  0  0
  -24.1140  -36.6270   23.1640 C   0  0  0  0  0  1  0  0  0  0  0  0
  -25.3700  -36.2300   23.9570 C   0  0  0  0  0  3  0  0  0  0  0  0
  -27.4860  -37.1450   24.8020 C   0  0  0  0  0  1  0  0  0  0  0  0
  -26.3780  -37.3090   23.8650 N   0  0  0  0  0  0  0  0  0  0  0  0
  -25.9510  -38.2160   24.0330 H   0  0  0  0  0  0  0  0  0  0  0  0
  -26.4580  -31.6060   25.0590 C   0  0  1  0  0  0  0  0  0  0  0  0
  -25.3800  -31.3050   26.1250 C   0  0  0  0  0  1  0  0  0  0  0  0
  -27.0720  -30.2600   24.6090 C   0  0  0  0  0  1  0  0  0  0  0  0
  -27.5930  -32.4060   25.7410 C   0  0  0  0  0  1  0  0  0  0  0  0
  1  2  1  0
  2  4  1  0
  3  1  2  0
  5  7  1  0
  5  9  1  0
  6  8  1  0
  7 10  1  0
  9  1  1  0
  9  6  1  0
 10 11  1  1
 10  8  1  0
 12 10  1  0
 13 22  1  0
 13 12  1  0
 14 22  1  0
 15 20  1  0
 16 17  1  0
 16 15  1  0
 18 17  1  0
 18 27  1  0
 18 19  1  0
 20 14  1  0
 20 19  1  0
 21 14  2  0
 22 23  1  0
 24 25  2  0
 25 44  1  0
 26 29  1  0
 26 25  1  0
 27 28  1  0
 27 24  1  0
 28 26  2  0
 29 30  1  0
 30 31  2  0
 32 35  1  0
 32 31  1  0
 33 32  2  0
 34 33  1  0
 34 29  2  0
 35 36  1  0
 36 37  1  0
 37 38  2  0
 39 38  1  0
 39 43  1  0
 40 39  2  0
 41 36  2  0
 41 40  1  0
 42 41  1  0
 44 45  1  0
 45 48  1  0
 45 47  1  0
 46 44  2  0
 49 24  1  0
 49 50  1  0
 51 49  1  0
 52  2  1  0
 53 52  1  0
 54 53  1  0
 55 57  1  0
 55 54  1  0
 56 67  2  0
 57 62  1  0
 58 66  1  0
 58 68  1  0
 59 65  1  0
 59 61  1  0
 60 66  1  0
 61 60  1  0
 62 61  2  0
 63 64  1  0
 63 57  2  0
 64 59  2  0
 65 58  1  0
 66 56  1  0
 68 70  2  0
 69 68  1  0
 71 69  1  0
 72 81  2  0
 72 77  1  0
 73 69  1  0
 73 77  1  0
 74 73  1  0
 75 76  1  0
 75 74  1  0
 76 72  1  0
 77 78  2  0
 78 79  1  0
 80 79  2  0
 81 80  1  0
 82 56  1  0
 82 83  1  0
 82 92  1  0
 83 86  1  0
 84 88  1  0
 84 83  1  0
 85 84  2  0
 88 87  1  0
 90 88  1  0
 90 91  1  0
 90 89  1  0
 92 95  1  1
 92 93  1  0
 94 92  1  0
M  ISO  4  14 100  22 100  54 101  55 101
M  END
>  <TORSDO>  (76) 
F 22

>  <SCORE>  (76) 
-10.607

>  <name>  (76) 
76

>  <ligand_id>  (76) 
76

>  <original_smiles>  (76) 
[H]c1c([H])c([H])c2c(c1[H])C([H])([H])C([H])([H])C([H])([H])C2([H])N([H])C(=O)C1([H])N(C(=O)C([H])(N([H])C(=O)C([H])(N([H])C([H])([H])[H])C([H])([H])[H])C(C([H])([H])[H])(C([H])([H])[H])C([H])([H])[H])C([H])([H])c2c([H])c(OC([H])([H])C([H])([H])C([H])([H])N([H])C(=O)C3([H])C([H])([H])C([H])([H])[N+]([H])(C([H])([H])C([H])([H])N([H])C(=O)N4C([H])([H])C([H])([H])C([H])([H])C([H])(n5nc(-c6c([H])c([H])c(Oc7c([H])c([H])c(F)c([H])c7F)c([H])c6[H])c(C(=O)N([H])[H])c5N([H])[H])C4([H])[H])C([H])([H])C3([H])[H])c([H])c([H])c2C1([H])[H]

>  <smiles>  (76) 
[H]c1c([H])c([H])c2c(c1[H])C([H])([H])C([H])([H])C([H])([H])C2([H])N([H])C(=O)C1([H])N(C(=O)C([H])(N([H])C(=O)C([H])(N([H])C([H])([H])[H])C([H])([H])[H])C(C([H])([H])[H])(C([H])([H])[H])C([H])([H])[H])C([H])([H])c2c([H])c(OC([H])([H])C([H])([H])C([H])([H])N([H])C(=O)C3([H])C([H])([H])C([H])([H])[N+]([H])(C([H])([H])C([H])([H])N([H])C(=O)N4C([H])([H])C([H])([H])C([H])([H])C([H])(n5nc(-c6c([H])c([H])c(Oc7c([H])c([H])c(F)c([H])c7F)c([H])c6[H])c(C(=O)N([H])[H])c5N([H])[H])C4([H])[H])C([H])([H])C3([H])[H])c([H])c([H])c2C1([H])[H]

$$$$
77:0:0
     RDKit          3D

 97105  0  0  1  0  0  0  0  0999 V2000
  -30.6510  -20.9450   19.3300 N   0  0  0  0  0  0  0  0  0  0  0  0
  -29.5450  -17.2300   19.3960 C   0  0  0  0  0  2  0  0  0  0  0  0
  -29.3830  -18.7470   19.1800 C   0  0  0  0  0  2  0  0  0  0  0  0
  -31.0450  -17.6860   21.4150 C   0  0  0  0  0  2  0  0  0  0  0  0
  -29.8290  -16.8910   20.8780 C   0  0  0  0  0  3  0  0  0  0  0  0
  -30.6350  -19.5030   19.6790 C   0  0  0  0  0  3  0  0  0  0  0  0
  -30.8740  -19.2180   21.1800 C   0  0  0  0  0  3  0  0  0  0  0  0
  -30.6260  -14.4790   20.5500 C   0  0  0  0  0  0  0  0  0  0  0  0
  -30.3780  -12.3310   19.3630 C   0  0  0  0  0  2  0  0  0  0  0  0
  -29.4450  -12.5630   18.1540 C   0  0  0  0  0  2  0  0  0  0  0  0
  -27.9630  -12.4270   18.5590 C   0  0  0  0  0  2  0  0  0  0  0  0
  -27.6170  -13.2400   19.8350 C   0  0  0  0  0  3  0  0  0  0  0  0
  -28.6540  -12.9640   20.9500 C   0  0  0  0  0  2  0  0  0  0  0  0
  -29.9920  -13.2820   20.4160 N   0  0  0  0  0  0  0  0  0  0  0  0
  -31.7270  -14.7240   20.0490 O   0  0  0  0  0  0  0  0  0  0  0  0
  -29.8630  -15.4350   21.1130 N   0  0  0  0  0  0  0  0  0  0  0  0
  -29.0290  -15.0660   21.5490 H   0  0  0  0  0  0  0  0  0  0  0  0
  -25.2050  -13.8620   20.4900 C   0  0  0  0  0  0  0  0  0  0  0  0
  -24.1280  -13.0960   20.8470 C   0  0  0  0  0  0  0  0  0  0  0  0
  -24.5860  -11.7430   20.8350 C   0  0  0  0  0  0  0  0  0  0  0  0
  -26.2520  -12.9760   20.2870 N   0  0  0  0  0  0  0  0  0  0  0  0
  -25.8800  -11.6980   20.5480 N   0  0  0  0  0  0  0  0  0  0  0  0
  -23.8550  -10.4840   21.0260 C   0  0  0  0  0  0  0  0  0  0  0  0
  -24.2700   -9.5260   21.9770 C   0  0  0  0  0  3  0  0  0  0  0  0
  -23.5410   -8.3310   22.1530 C   0  0  0  0  0  3  0  0  0  0  0  0
  -22.3820   -8.0850   21.3780 C   0  0  0  0  0  0  0  0  0  0  0  0
  -21.9870   -9.0310   20.4170 C   0  0  0  0  0  3  0  0  0  0  0  0
  -22.7170  -10.2180   20.2380 C   0  0  0  0  0  3  0  0  0  0  0  0
  -21.6260   -6.9410   21.4630 O   0  0  0  0  0  0  0  0  0  0  0  0
  -21.5540   -6.2100   22.6220 C   0  0  0  0  0  0  0  0  0  0  0  0
  -21.0940   -6.7760   23.8310 C   0  0  0  0  0  3  0  0  0  0  0  0
  -20.9700   -5.9700   24.9820 C   0  0  0  0  0  3  0  0  0  0  0  0
  -21.2950   -4.6020   24.9230 C   0  0  0  0  0  0  0  0  0  0  0  0
  -21.7480   -4.0360   23.7170 C   0  0  0  0  0  3  0  0  0  0  0  0
  -21.8740   -4.8390   22.5690 C   0  0  0  0  0  0  0  0  0  0  0  0
  -22.2900   -4.2840   21.4050 F   0  0  0  0  0  0  0  0  0  0  0  0
  -21.1680   -3.8270   26.0250 F   0  0  0  0  0  0  0  0  0  0  0  0
  -22.7270  -13.5790   21.0960 C   0  0  0  0  0  0  0  0  0  0  0  0
  -21.9840  -12.8870   21.9530 N   0  0  0  0  0  0  0  0  0  0  0  0
  -22.3000  -14.6050   20.5670 O   0  0  0  0  0  0  0  0  0  0  0  0
  -22.3420  -12.0560   22.4010 H   0  0  0  0  0  0  0  0  0  0  0  0
  -21.0440  -13.1900   22.1620 H   0  0  0  0  0  0  0  0  0  0  0  0
  -25.3760  -15.2310   20.3030 N   0  0  0  0  0  0  0  0  0  0  0  0
  -24.6090  -15.8880   20.3910 H   0  0  0  0  0  0  0  0  0  0  0  0
  -26.2340  -15.6650   19.9860 H   0  0  0  0  0  0  0  0  0  0  0  0
  -32.0600  -19.9680   21.6240 N   0  0  0  0  0  4  0  0  0  0  0  0
  -32.8990  -19.5950   21.2220 H   0  0  0  0  0  0  0  0  0  0  0  0
  -32.1390  -19.9760   22.6250 H   0  0  0  0  0  0  0  0  0  0  0  0
  -31.9480  -20.9110   21.2890 H   0  0  0  0  0  0  0  0  0  0  0  0
  -31.0640  -21.0890   17.9250 C   0  0  0  0  0  2  0  0  0  0  0  0
  -33.0620  -21.7110   16.4650 C   0  0  0  0  0  1  0  0  0  0  0  0
  -32.5130  -21.5960   17.8900 C   0  0  0  0  0  2  0  0  0  0  0  0
  -29.4690  -21.7640   19.6920 C   0  0  0  0  0  2  0  0  0  0  0  0
  -29.6640  -23.2770   19.3640 C   0  0  0  0  0  2  0  0  0  0  0  0
  -28.6710  -24.2800   20.0070 C   0  0  0  0  0  2  0  0  0  0  0  0
  -28.7510  -25.6810   19.3390 C   0  0  0  0  0  2  0  0  0  0  0  0
  -28.4640  -26.7730   20.2220 O   0  0  0  0  0  0  0  0  0  0  0  0
  -24.5800  -31.8950   23.2390 C   0  0  0  0  0  0  0  0  0  0  0  0
  -27.2600  -27.4500   20.1760 C   0  0  0  0  0  0  0  0  0  0  0  0
  -23.3850  -30.4890   21.5880 C   0  0  0  0  0  3  0  0  0  0  0  0
  -24.8510  -28.9460   20.1770 C   0  0  0  0  0  0  0  0  0  0  0  0
  -25.9110  -30.8490   21.4090 C   0  0  0  0  0  2  0  0  0  0  0  0
  -26.0000  -29.4740   20.7730 C   0  0  0  0  0  0  0  0  0  0  0  0
  -27.1990  -28.7290   20.7790 C   0  0  0  0  0  3  0  0  0  0  0  0
  -26.0870  -26.9280   19.5830 C   0  0  0  0  0  3  0  0  0  0  0  0
  -24.8880  -27.6700   19.5830 C   0  0  0  0  0  3  0  0  0  0  0  0
  -23.6050  -29.8030   20.2120 C   0  0  0  0  0  2  0  0  0  0  0  0
  -24.6430  -31.0930   22.1370 N   0  0  0  0  0  0  0  0  0  0  0  0
  -23.4950  -32.1670   23.7710 O   0  0  0  0  0  0  0  0  0  0  0  0
  -22.7270  -29.4720   22.5480 C   0  0  0  0  0  0  0  0  0  0  0  0
  -21.4020  -29.2980   22.4180 N   0  0  0  0  0  0  0  0  0  0  0  0
  -23.4050  -28.8420   23.3630 O   0  0  0  0  0  0  0  0  0  0  0  0
  -20.9150  -29.8570   21.7310 H   0  0  0  0  0  0  0  0  0  0  0  0
  -18.0180  -28.1380   22.9220 C   0  0  0  0  0  0  0  0  0  0  0  0
  -20.5800  -28.3620   23.1840 C   0  0  0  0  0  3  0  0  0  0  0  0
  -20.6630  -26.9360   22.5950 C   0  0  0  0  0  2  0  0  0  0  0  0
  -19.5520  -26.6350   21.5830 C   0  0  0  0  0  2  0  0  0  0  0  0
  -18.1760  -26.7910   22.2340 C   0  0  0  0  0  2  0  0  0  0  0  0
  -19.1480  -28.8810   23.3550 C   0  0  0  0  0  0  0  0  0  0  0  0
  -18.9470  -30.1420   23.9580 C   0  0  0  0  0  3  0  0  0  0  0  0
  -17.6500  -30.6580   24.1340 C   0  0  0  0  0  3  0  0  0  0  0  0
  -16.5340  -29.9110   23.7180 C   0  0  0  0  0  3  0  0  0  0  0  0
  -16.7190  -28.6520   23.1190 C   0  0  0  0  0  3  0  0  0  0  0  0
  -25.8620  -32.5260   23.8660 C   0  0  0  0  0  3  0  0  0  0  0  0
  -26.3680  -31.7610   25.1510 C   0  0  1  0  0  0  0  0  0  0  0  0
  -25.2670  -31.5310   26.2110 C   0  0  0  0  0  1  0  0  0  0  0  0
  -26.9510  -30.3810   24.7690 C   0  0  0  0  0  1  0  0  0  0  0  0
  -27.5140  -32.5580   25.8180 C   0  0  0  0  0  1  0  0  0  0  0  0
  -25.5540  -33.9280   24.1840 N   0  0  0  0  0  0  0  0  0  0  0  0
  -25.8980  -34.9740   23.4220 C   0  0  0  0  0  0  0  0  0  0  0  0
  -26.5800  -34.8610   22.3990 O   0  0  0  0  0  0  0  0  0  0  0  0
  -24.9490  -34.0900   24.9760 H   0  0  0  0  0  0  0  0  0  0  0  0
  -24.1850  -36.7730   23.0290 C   0  0  0  0  0  1  0  0  0  0  0  0
  -25.4100  -36.3660   23.8640 C   0  0  0  0  0  3  0  0  0  0  0  0
  -27.5330  -37.2460   24.7290 C   0  0  0  0  0  1  0  0  0  0  0  0
  -26.4490  -37.4140   23.7650 N   0  0  0  0  0  0  0  0  0  0  0  0
  -26.0440  -38.3370   23.9000 H   0  0  0  0  0  0  0  0  0  0  0  0
  1 53  1  0
  2  5  1  0
  3  2  1  0
  3  6  1  0
  5 16  1  0
  5  4  1  0
  6  1  1  0
  6  7  1  0
  7  4  1  0
  7 46  1  0
  8 16  1  0
  9 14  1  0
 10 11  1  0
 10  9  1  0
 12 11  1  0
 12 21  1  0
 12 13  1  0
 14  8  1  0
 14 13  1  0
 15  8  2  0
 16 17  1  0
 18 19  2  0
 19 38  1  0
 20 19  1  0
 20 23  1  0
 21 18  1  0
 21 22  1  0
 22 20  2  0
 23 24  1  0
 24 25  2  0
 26 29  1  0
 26 25  1  0
 27 26  2  0
 28 27  1  0
 28 23  2  0
 29 30  1  0
 30 31  1  0
 31 32  2  0
 33 32  1  0
 33 37  1  0
 34 33  2  0
 35 30  2  0
 35 34  1  0
 36 35  1  0
 38 39  1  0
 39 42  1  0
 39 41  1  0
 40 38  2  0
 43 44  1  0
 43 18  1  0
 45 43  1  0
 46 48  1  0
 47 46  1  0
 49 46  1  0
 50  1  1  0
 51 52  1  0
 52 50  1  0
 54 53  1  0
 54 55  1  0
 56 55  1  0
 56 57  1  0
 58 69  2  0
 59 57  1  0
 59 64  1  0
 60 68  1  0
 60 70  1  0
 61 67  1  0
 61 63  1  0
 62 68  1  0
 63 64  2  0
 63 62  1  0
 65 66  1  0
 65 59  2  0
 66 61  2  0
 67 60  1  0
 68 58  1  0
 70 72  2  0
 71 70  1  0
 73 71  1  0
 74 83  2  0
 74 79  1  0
 75 71  1  0
 75 79  1  0
 76 75  1  0
 77 78  1  0
 77 76  1  0
 78 74  1  0
 79 80  2  0
 80 81  1  0
 82 81  2  0
 83 82  1  0
 84 58  1  0
 84 89  1  0
 84 85  1  0
 85 88  1  1
 85 86  1  0
 87 85  1  0
 89 92  1  0
 90 94  1  0
 90 89  1  0
 91 90  2  0
 94 93  1  0
 96 94  1  0
 96 97  1  0
 96 95  1  0
M  ISO  4   8 100  16 100  56 101  57 101
M  END
>  <TORSDO>  (77) 
F 24

>  <SCORE>  (77) 
-12.857

>  <name>  (77) 
77

>  <ligand_id>  (77) 
77

>  <original_smiles>  (77) 
[H]c1c([H])c([H])c2c(c1[H])C([H])([H])C([H])([H])C([H])([H])C2([H])N([H])C(=O)C1([H])N(C(=O)C([H])(N([H])C(=O)C([H])(N([H])C([H])([H])[H])C([H])([H])[H])C(C([H])([H])[H])(C([H])([H])[H])C([H])([H])[H])C([H])([H])c2c([H])c(OC([H])([H])C([H])([H])C([H])([H])C([H])([H])N(C([H])([H])C([H])([H])C([H])([H])[H])C3([H])C([H])([H])C([H])([H])C([H])(N([H])C(=O)N4C([H])([H])C([H])([H])C([H])([H])C([H])(n5nc(-c6c([H])c([H])c(Oc7c([H])c([H])c(F)c([H])c7F)c([H])c6[H])c(C(=O)N([H])[H])c5N([H])[H])C4([H])[H])C([H])([H])C3([H])[N+]([H])([H])[H])c([H])c([H])c2C1([H])[H]

>  <smiles>  (77) 
[H]c1c([H])c([H])c2c(c1[H])C([H])([H])C([H])([H])C([H])([H])C2([H])N([H])C(=O)C1([H])N(C(=O)C([H])(N([H])C(=O)C([H])(N([H])C([H])([H])[H])C([H])([H])[H])C(C([H])([H])[H])(C([H])([H])[H])C([H])([H])[H])C([H])([H])c2c([H])c(OC([H])([H])C([H])([H])C([H])([H])C([H])([H])N(C([H])([H])C([H])([H])C([H])([H])[H])C3([H])C([H])([H])C([H])([H])C([H])(N([H])C(=O)N4C([H])([H])C([H])([H])C([H])([H])C([H])(n5nc(-c6c([H])c([H])c(Oc7c([H])c([H])c(F)c([H])c7F)c([H])c6[H])c(C(=O)N([H])[H])c5N([H])[H])C4([H])[H])C([H])([H])C3([H])[N+]([H])([H])[H])c([H])c([H])c2C1([H])[H]

$$$$
78:0:0
     RDKit          3D

 97106  0  0  1  0  0  0  0  0999 V2000
  -32.0840  -22.7460   19.7760 C   0  0  0  0  0  2  0  0  0  0  0  0
  -31.5180  -22.1090   21.0580 C   0  0  0  0  0  2  0  0  0  0  0  0
  -30.9620  -22.6050   18.7360 C   0  0  0  0  0  2  0  0  0  0  0  0
  -30.1450  -21.5360   20.6440 C   0  0  0  0  0  3  0  0  0  0  0  0
  -29.7190  -22.4770   19.5280 N   0  0  1  0  0  4  0  0  0  0  0  0
  -28.9950  -22.0270   18.9850 H   0  0  0  0  0  0  0  0  0  0  0  0
  -31.4640  -19.2380   20.5910 C   0  0  0  0  0  3  0  0  0  0  0  0
  -31.5230  -17.8130   20.6550 C   0  0  0  0  0  3  0  0  0  0  0  0
  -29.1770  -17.7280   20.1700 C   0  0  0  0  0  3  0  0  0  0  0  0
  -30.2490  -19.9660   20.3810 C   0  0  0  0  0  0  0  0  0  0  0  0
  -29.1010  -19.1560   20.1140 C   0  0  0  0  0  0  0  0  0  0  0  0
  -30.3640  -17.0170   20.4810 C   0  0  0  0  0  0  0  0  0  0  0  0
  -31.0700  -14.5320   20.1260 C   0  0  0  0  0  0  0  0  0  0  0  0
  -30.7780  -12.3150   19.0390 C   0  0  0  0  0  2  0  0  0  0  0  0
  -29.7930  -12.4840   17.8600 C   0  0  0  0  0  2  0  0  0  0  0  0
  -28.3290  -12.3770   18.3330 C   0  0  0  0  0  2  0  0  0  0  0  0
  -28.0430  -13.2450   19.5870 C   0  0  0  0  0  3  0  0  0  0  0  0
  -29.1250  -13.0120   20.6680 C   0  0  0  0  0  2  0  0  0  0  0  0
  -30.4330  -13.3220   20.0610 N   0  0  0  0  0  0  0  0  0  0  0  0
  -32.2080  -14.6880   19.6720 O   0  0  0  0  0  0  0  0  0  0  0  0
  -30.2960  -15.5610   20.5880 N   0  0  0  0  0  0  0  0  0  0  0  0
  -29.4380  -15.2180   20.9900 H   0  0  0  0  0  0  0  0  0  0  0  0
  -25.7090  -13.9520   20.4030 C   0  0  0  0  0  0  0  0  0  0  0  0
  -24.6110  -13.2270   20.7780 C   0  0  0  0  0  0  0  0  0  0  0  0
  -24.9940  -11.8540   20.6800 C   0  0  0  0  0  0  0  0  0  0  0  0
  -26.6940  -13.0240   20.1030 N   0  0  0  0  0  0  0  0  0  0  0  0
  -26.2690  -11.7550   20.3260 N   0  0  0  0  0  0  0  0  0  0  0  0
  -24.2020  -10.6270   20.8440 C   0  0  0  0  0  0  0  0  0  0  0  0
  -24.5760   -9.6290   21.7710 C   0  0  0  0  0  3  0  0  0  0  0  0
  -23.7900   -8.4670   21.9260 C   0  0  0  0  0  3  0  0  0  0  0  0
  -22.6170   -8.2950   21.1530 C   0  0  0  0  0  0  0  0  0  0  0  0
  -22.2630   -9.2820   20.2150 C   0  0  0  0  0  3  0  0  0  0  0  0
  -23.0490  -10.4360   20.0590 C   0  0  0  0  0  3  0  0  0  0  0  0
  -21.8070   -7.1860   21.2140 O   0  0  0  0  0  0  0  0  0  0  0  0
  -21.6550   -6.4720   22.3760 C   0  0  0  0  0  0  0  0  0  0  0  0
  -21.1980   -7.0760   23.5690 C   0  0  0  0  0  3  0  0  0  0  0  0
  -20.9900   -6.2910   24.7210 C   0  0  0  0  0  3  0  0  0  0  0  0
  -21.2270   -4.9030   24.6800 C   0  0  0  0  0  0  0  0  0  0  0  0
  -21.6770   -4.2990   23.4910 C   0  0  0  0  0  3  0  0  0  0  0  0
  -21.8870   -5.0820   22.3430 C   0  0  0  0  0  0  0  0  0  0  0  0
  -22.2980   -4.4930   21.1950 F   0  0  0  0  0  0  0  0  0  0  0  0
  -21.0200   -4.1480   25.7830 F   0  0  0  0  0  0  0  0  0  0  0  0
  -23.2520  -13.7700   21.1140 C   0  0  0  0  0  0  0  0  0  0  0  0
  -22.5200  -13.0930   21.9920 N   0  0  0  0  0  0  0  0  0  0  0  0
  -22.8500  -14.8290   20.6340 O   0  0  0  0  0  0  0  0  0  0  0  0
  -22.8560  -12.2340   22.4020 H   0  0  0  0  0  0  0  0  0  0  0  0
  -21.6100  -13.4420   22.2580 H   0  0  0  0  0  0  0  0  0  0  0  0
  -25.9460  -15.3180   20.2710 N   0  0  0  0  0  0  0  0  0  0  0  0
  -25.2110  -16.0020   20.4130 H   0  0  0  0  0  0  0  0  0  0  0  0
  -26.7880  -15.7190   19.8820 H   0  0  0  0  0  0  0  0  0  0  0  0
  -27.7430  -19.7930   19.8270 C   0  0  1  0  0  0  0  0  0  0  0  0
  -26.8750  -18.9060   19.3410 F   0  0  0  0  0  0  0  0  0  0  0  0
  -27.2490  -20.2880   20.9600 F   0  0  0  0  0  0  0  0  0  0  0  0
  -27.8560  -20.7770   18.9330 F   0  0  0  0  0  0  0  0  0  0  0  0
  -29.1900  -23.8510   19.9810 C   0  0  0  0  0  2  0  0  0  0  0  0
  -28.6860  -24.8850   18.8750 C   0  0  0  0  0  2  0  0  0  0  0  0
  -28.6230  -26.3190   19.2470 O   0  0  0  0  0  0  0  0  0  0  0  0
  -24.7290  -31.2720   22.7180 C   0  0  0  0  0  0  0  0  0  0  0  0
  -27.4370  -27.0730   19.2590 C   0  0  0  0  0  0  0  0  0  0  0  0
  -23.5330  -29.9490   21.0110 C   0  0  0  0  0  3  0  0  0  0  0  0
  -25.0020  -28.5750   19.4290 C   0  0  0  0  0  0  0  0  0  0  0  0
  -26.0500  -30.3860   20.7860 C   0  0  0  0  0  2  0  0  0  0  0  0
  -26.1620  -29.0610   20.0420 C   0  0  0  0  0  0  0  0  0  0  0  0
  -27.3740  -28.3170   19.9560 C   0  0  0  0  0  3  0  0  0  0  0  0
  -26.2520  -26.6440   18.6140 C   0  0  0  0  0  3  0  0  0  0  0  0
  -25.0510  -27.3740   18.7060 C   0  0  0  0  0  3  0  0  0  0  0  0
  -23.7330  -29.3870   19.5770 C   0  0  0  0  0  2  0  0  0  0  0  0
  -24.7910  -30.5520   21.5620 N   0  0  0  0  0  0  0  0  0  0  0  0
  -23.6520  -31.4630   23.3010 O   0  0  0  0  0  0  0  0  0  0  0  0
  -22.9420  -28.8390   21.9110 C   0  0  0  0  0  0  0  0  0  0  0  0
  -21.6160  -28.6350   21.8310 N   0  0  0  0  0  0  0  0  0  0  0  0
  -23.6740  -28.1640   22.6410 O   0  0  0  0  0  0  0  0  0  0  0  0
  -21.0840  -29.2350   21.2170 H   0  0  0  0  0  0  0  0  0  0  0  0
  -18.2910  -27.3220   22.3840 C   0  0  0  0  0  0  0  0  0  0  0  0
  -20.8540  -27.6180   22.5570 C   0  0  0  0  0  3  0  0  0  0  0  0
  -20.9570  -26.2410   21.8590 C   0  0  0  0  0  2  0  0  0  0  0  0
  -19.8140  -25.9770   20.8750 C   0  0  0  0  0  2  0  0  0  0  0  0
  -18.4610  -26.0370   21.5900 C   0  0  0  0  0  2  0  0  0  0  0  0
  -19.4140  -28.0710   22.8250 C   0  0  0  0  0  0  0  0  0  0  0  0
  -19.1980  -29.2760   23.5280 C   0  0  0  0  0  3  0  0  0  0  0  0
  -17.8930  -29.7310   23.7940 C   0  0  0  0  0  3  0  0  0  0  0  0
  -16.7860  -28.9760   23.3680 C   0  0  0  0  0  3  0  0  0  0  0  0
  -16.9850  -27.7740   22.6680 C   0  0  0  0  0  3  0  0  0  0  0  0
  -26.0040  -31.9100   23.3520 C   0  0  0  0  0  3  0  0  0  0  0  0
  -26.6560  -31.0140   24.4740 C   0  0  1  0  0  0  0  0  0  0  0  0
  -25.6590  -30.5520   25.5630 C   0  0  0  0  0  1  0  0  0  0  0  0
  -27.3000  -29.7520   23.8560 C   0  0  0  0  0  1  0  0  0  0  0  0
  -27.7920  -31.7960   25.1720 C   0  0  0  0  0  1  0  0  0  0  0  0
  -25.6210  -33.2210   23.8950 N   0  0  0  0  0  0  0  0  0  0  0  0
  -25.8880  -34.3950   23.3090 C   0  0  0  0  0  0  0  0  0  0  0  0
  -26.5510  -34.4920   22.2720 O   0  0  0  0  0  0  0  0  0  0  0  0
  -25.0250  -33.2150   24.7080 H   0  0  0  0  0  0  0  0  0  0  0  0
  -24.0600  -36.1210   23.2460 C   0  0  0  0  0  1  0  0  0  0  0  0
  -25.3320  -35.6660   23.9800 C   0  0  0  0  0  3  0  0  0  0  0  0
  -27.4220  -36.5280   24.9340 C   0  0  0  0  0  1  0  0  0  0  0  0
  -26.3030  -36.7800   24.0310 N   0  0  0  0  0  0  0  0  0  0  0  0
  -25.8470  -37.6400   24.3230 H   0  0  0  0  0  0  0  0  0  0  0  0
  1  2  1  0
  3  5  1  0
  3  1  1  0
  4 10  1  0
  4  2  1  0
  5 55  1  0
  5  4  1  0
  5  6  1  6
  7  8  1  0
  9 12  1  0
 10  7  2  0
 11  9  2  0
 11 10  1  0
 12 21  1  0
 12  8  2  0
 13 21  1  0
 14 19  1  0
 15 16  1  0
 15 14  1  0
 17 16  1  0
 17 26  1  0
 17 18  1  0
 19 13  1  0
 19 18  1  0
 20 13  2  0
 21 22  1  0
 23 24  2  0
 24 43  1  0
 25 24  1  0
 25 28  1  0
 26 27  1  0
 26 23  1  0
 27 25  2  0
 28 29  1  0
 29 30  2  0
 31 34  1  0
 31 30  1  0
 32 31  2  0
 33 32  1  0
 33 28  2  0
 34 35  1  0
 35 36  1  0
 36 37  2  0
 38 37  1  0
 38 42  1  0
 39 38  2  0
 40 35  2  0
 40 39  1  0
 41 40  1  0
 43 44  1  0
 44 47  1  0
 44 46  1  0
 45 43  2  0
 48 23  1  0
 48 49  1  0
 50 48  1  0
 51 11  1  0
 51 53  1  1
 52 51  1  0
 54 51  1  0
 56 57  1  0
 56 55  1  0
 57 59  1  0
 58 69  2  0
 59 64  1  0
 60 68  1  0
 60 70  1  0
 61 67  1  0
 61 63  1  0
 62 68  1  0
 63 62  1  0
 64 63  2  0
 65 66  1  0
 65 59  2  0
 66 61  2  0
 67 60  1  0
 68 58  1  0
 70 72  2  0
 71 70  1  0
 73 71  1  0
 74 83  2  0
 74 79  1  0
 75 71  1  0
 75 79  1  0
 76 75  1  0
 77 78  1  0
 77 76  1  0
 78 74  1  0
 79 80  2  0
 80 81  1  0
 82 81  2  0
 83 82  1  0
 84 58  1  0
 84 89  1  0
 84 85  1  0
 85 88  1  1
 85 86  1  0
 87 85  1  0
 89 92  1  0
 90 89  1  0
 90 94  1  0
 91 90  2  0
 94 93  1  0
 94 96  1  0
 96 97  1  0
 96 95  1  0
M  ISO  4  13 100  21 100  56 101  57 101
M  END
>  <TORSDO>  (78) 
F 20

>  <SCORE>  (78) 
-12.042

>  <name>  (78) 
78

>  <ligand_id>  (78) 
78

>  <original_smiles>  (78) 
[H]c1c([H])c([H])c2c(c1[H])C([H])([H])C([H])([H])C([H])([H])C2([H])N([H])C(=O)C1([H])N(C(=O)C([H])(N([H])C(=O)C([H])(N([H])C([H])([H])[H])C([H])([H])[H])C(C([H])([H])[H])(C([H])([H])[H])C([H])([H])[H])C([H])([H])c2c([H])c(OC([H])([H])C([H])([H])[N+]3([H])C([H])([H])C([H])([H])C([H])([H])C3([H])c3c([H])c([H])c(N([H])C(=O)N4C([H])([H])C([H])([H])C([H])([H])C([H])(n5nc(-c6c([H])c([H])c(Oc7c([H])c([H])c(F)c([H])c7F)c([H])c6[H])c(C(=O)N([H])[H])c5N([H])[H])C4([H])[H])c([H])c3C(F)(F)F)c([H])c([H])c2C1([H])[H]

>  <smiles>  (78) 
[H]c1c([H])c([H])c2c(c1[H])C([H])([H])C([H])([H])C([H])([H])C2([H])N([H])C(=O)C1([H])N(C(=O)C([H])(N([H])C(=O)C([H])(N([H])C([H])([H])[H])C([H])([H])[H])C(C([H])([H])[H])(C([H])([H])[H])C([H])([H])[H])C([H])([H])c2c([H])c(OC([H])([H])C([H])([H])[N+]3([H])C([H])([H])C([H])([H])C([H])([H])C3([H])c3c([H])c([H])c(N([H])C(=O)N4C([H])([H])C([H])([H])C([H])([H])C([H])(n5nc(-c6c([H])c([H])c(Oc7c([H])c([H])c(F)c([H])c7F)c([H])c6[H])c(C(=O)N([H])[H])c5N([H])[H])C4([H])[H])c([H])c3C(F)(F)F)c([H])c([H])c2C1([H])[H]

$$$$
79:0:0
     RDKit          3D

 99107  0  0  1  0  0  0  0  0999 V2000
  -30.1390  -21.0450   18.7780 C   0  0  0  0  0  2  0  0  0  0  0  0
  -30.4310  -19.6180   18.8490 N   0  0  0  0  0  0  0  0  0  0  0  0
  -29.8060  -19.1190   18.2140 H   0  0  0  0  0  0  0  0  0  0  0  0
  -29.8050  -17.5850   20.1330 C   0  0  0  0  0  0  0  0  0  0  0  0
  -31.2370  -17.0450   22.1970 C   0  0  0  0  0  2  0  0  0  0  0  0
  -31.5710  -19.1860   21.0310 C   0  0  0  0  0  2  0  0  0  0  0  0
  -29.9080  -16.7740   21.4490 C   0  0  0  0  0  3  0  0  0  0  0  0
  -30.2630  -19.0600   20.2060 C   0  0  0  0  0  3  0  0  0  0  0  0
  -31.4980  -18.4920   22.3360 N   0  0  0  0  0  4  0  0  0  0  0  0
  -29.3270  -17.1140   19.0950 O   0  0  0  0  0  0  0  0  0  0  0  0
  -32.3750  -18.6120   22.8170 H   0  0  0  0  0  0  0  0  0  0  0  0
  -30.7880  -18.9190   22.9100 H   0  0  0  0  0  0  0  0  0  0  0  0
  -30.3050  -14.5240   20.3700 C   0  0  0  0  0  0  0  0  0  0  0  0
  -30.0150  -12.4680   19.0410 C   0  0  0  0  0  2  0  0  0  0  0  0
  -28.9980  -12.7300   17.9100 C   0  0  0  0  0  2  0  0  0  0  0  0
  -27.5540  -12.5110   18.4080 C   0  0  0  0  0  2  0  0  0  0  0  0
  -27.2630  -13.2540   19.7400 C   0  0  0  0  0  3  0  0  0  0  0  0
  -28.3760  -12.9580   20.7700 C   0  0  0  0  0  2  0  0  0  0  0  0
  -29.6670  -13.3420   20.1690 N   0  0  0  0  0  0  0  0  0  0  0  0
  -31.3240  -14.8630   19.7640 O   0  0  0  0  0  0  0  0  0  0  0  0
  -29.6750  -15.3410   21.2270 N   0  0  0  0  0  0  0  0  0  0  0  0
  -28.8580  -14.9510   21.6720 H   0  0  0  0  0  0  0  0  0  0  0  0
  -24.8690  -13.7430   20.5560 C   0  0  0  0  0  0  0  0  0  0  0  0
  -23.8550  -12.9150   20.9600 C   0  0  0  0  0  0  0  0  0  0  0  0
  -24.3760  -11.5880   20.8850 C   0  0  0  0  0  0  0  0  0  0  0  0
  -25.9420  -12.9150   20.2640 N   0  0  0  0  0  0  0  0  0  0  0  0
  -25.6490  -11.6130   20.5120 N   0  0  0  0  0  0  0  0  0  0  0  0
  -23.7210  -10.2890   21.0850 C   0  0  0  0  0  0  0  0  0  0  0  0
  -24.2170   -9.3450   22.0100 C   0  0  0  0  0  3  0  0  0  0  0  0
  -23.5570   -8.1110   22.1970 C   0  0  0  0  0  3  0  0  0  0  0  0
  -22.3870   -7.8130   21.4570 C   0  0  0  0  0  0  0  0  0  0  0  0
  -21.9110   -8.7470   20.5190 C   0  0  0  0  0  3  0  0  0  0  0  0
  -22.5740   -9.9720   20.3310 C   0  0  0  0  0  3  0  0  0  0  0  0
  -21.6970   -6.6280   21.5520 O   0  0  0  0  0  0  0  0  0  0  0  0
  -21.6920   -5.8910   22.7080 C   0  0  0  0  0  0  0  0  0  0  0  0
  -21.2080   -6.4150   23.9290 C   0  0  0  0  0  3  0  0  0  0  0  0
  -21.1560   -5.5990   25.0750 C   0  0  0  0  0  3  0  0  0  0  0  0
  -21.5800   -4.2580   25.0050 C   0  0  0  0  0  0  0  0  0  0  0  0
  -22.0570   -3.7330   23.7910 C   0  0  0  0  0  3  0  0  0  0  0  0
  -22.1110   -4.5470   22.6470 C   0  0  0  0  0  0  0  0  0  0  0  0
  -22.5520   -4.0310   21.4750 F   0  0  0  0  0  0  0  0  0  0  0  0
  -21.5220   -3.4700   26.1040 F   0  0  0  0  0  0  0  0  0  0  0  0
  -22.4520  -13.3230   21.3080 C   0  0  0  0  0  0  0  0  0  0  0  0
  -21.7940  -12.5820   22.1910 N   0  0  0  0  0  0  0  0  0  0  0  0
  -21.9460  -14.3370   20.8280 O   0  0  0  0  0  0  0  0  0  0  0  0
  -22.2150  -11.7640   22.6100 H   0  0  0  0  0  0  0  0  0  0  0  0
  -20.8540  -12.8420   22.4590 H   0  0  0  0  0  0  0  0  0  0  0  0
  -24.9580  -15.1230   20.4000 N   0  0  0  0  0  0  0  0  0  0  0  0
  -24.1560  -15.7290   20.5370 H   0  0  0  0  0  0  0  0  0  0  0  0
  -25.7640  -15.6120   20.0310 H   0  0  0  0  0  0  0  0  0  0  0  0
  -30.5340  -21.5850   17.3900 C   0  0  0  0  0  2  0  0  0  0  0  0
  -29.9860  -22.9980   17.1020 C   0  0  0  0  0  2  0  0  0  0  0  0
  -30.5760  -24.0100   18.0020 N   0  0  0  0  0  4  0  0  0  0  0  0
  -31.5490  -24.1250   17.7740 H   0  0  0  0  0  0  0  0  0  0  0  0
  -30.5140  -23.6620   18.9440 H   0  0  0  0  0  0  0  0  0  0  0  0
  -29.9120  -25.3260   17.9930 C   0  0  0  0  0  2  0  0  0  0  0  0
  -30.4990  -26.2480   19.0820 C   0  0  0  0  0  2  0  0  0  0  0  0
  -29.5520  -27.3800   19.4900 C   0  0  0  0  0  2  0  0  0  0  0  0
  -28.4490  -26.7800   20.1530 O   0  0  0  0  0  0  0  0  0  0  0  0
  -24.5780  -31.9110   23.2470 C   0  0  0  0  0  0  0  0  0  0  0  0
  -27.3020  -27.5270   20.1800 C   0  0  0  0  0  0  0  0  0  0  0  0
  -23.4030  -30.5060   21.5850 C   0  0  0  0  0  3  0  0  0  0  0  0
  -24.8890  -28.9790   20.1820 C   0  0  0  0  0  0  0  0  0  0  0  0
  -25.9260  -30.8910   21.4200 C   0  0  0  0  0  2  0  0  0  0  0  0
  -26.0350  -29.5250   20.7770 C   0  0  0  0  0  0  0  0  0  0  0  0
  -27.2480  -28.8060   20.7750 C   0  0  0  0  0  3  0  0  0  0  0  0
  -26.1400  -26.9750   19.6100 C   0  0  0  0  0  3  0  0  0  0  0  0
  -24.9330  -27.7010   19.6010 C   0  0  0  0  0  3  0  0  0  0  0  0
  -23.6380  -29.8280   20.2090 C   0  0  0  0  0  2  0  0  0  0  0  0
  -24.6530  -31.1160   22.1430 N   0  0  0  0  0  0  0  0  0  0  0  0
  -23.4870  -32.1760   23.7720 O   0  0  0  0  0  0  0  0  0  0  0  0
  -22.7460  -29.4780   22.5320 C   0  0  0  0  0  0  0  0  0  0  0  0
  -21.4220  -29.3030   22.3960 N   0  0  0  0  0  0  0  0  0  0  0  0
  -23.4230  -28.8400   23.3430 O   0  0  0  0  0  0  0  0  0  0  0  0
  -20.9380  -29.8670   21.7100 H   0  0  0  0  0  0  0  0  0  0  0  0
  -18.0290  -28.1700   22.9000 C   0  0  0  0  0  0  0  0  0  0  0  0
  -20.5940  -28.3640   23.1510 C   0  0  0  0  0  3  0  0  0  0  0  0
  -20.6600  -26.9460   22.5370 C   0  0  0  0  0  2  0  0  0  0  0  0
  -19.5400  -26.6740   21.5270 C   0  0  0  0  0  2  0  0  0  0  0  0
  -18.1680  -26.8350   22.1910 C   0  0  0  0  0  2  0  0  0  0  0  0
  -19.1690  -28.8950   23.3360 C   0  0  0  0  0  0  0  0  0  0  0  0
  -18.9870  -30.1500   23.9560 C   0  0  0  0  0  3  0  0  0  0  0  0
  -17.6960  -30.6770   24.1470 C   0  0  0  0  0  3  0  0  0  0  0  0
  -16.5700  -29.9470   23.7310 C   0  0  0  0  0  3  0  0  0  0  0  0
  -16.7370  -28.6960   23.1120 C   0  0  0  0  0  3  0  0  0  0  0  0
  -25.8520  -32.5460   23.8870 C   0  0  0  0  0  3  0  0  0  0  0  0
  -25.5400  -33.9460   24.1980 N   0  0  0  0  0  0  0  0  0  0  0  0
  -25.8900  -34.9890   23.4330 C   0  0  0  0  0  0  0  0  0  0  0  0
  -26.5820  -34.8730   22.4170 O   0  0  0  0  0  0  0  0  0  0  0  0
  -24.9290  -34.1100   24.9840 H   0  0  0  0  0  0  0  0  0  0  0  0
  -24.1800  -36.7810   23.0040 C   0  0  0  0  0  1  0  0  0  0  0  0
  -25.3920  -36.3830   23.8610 C   0  0  0  0  0  3  0  0  0  0  0  0
  -27.4990  -37.2680   24.7610 C   0  0  0  0  0  1  0  0  0  0  0  0
  -26.4320  -37.4310   23.7740 N   0  0  0  0  0  0  0  0  0  0  0  0
  -26.0260  -38.3540   23.8970 H   0  0  0  0  0  0  0  0  0  0  0  0
  -26.3430  -31.7830   25.1780 C   0  0  1  0  0  0  0  0  0  0  0  0
  -25.2290  -31.5490   26.2250 C   0  0  0  0  0  1  0  0  0  0  0  0
  -26.9360  -30.4060   24.8020 C   0  0  0  0  0  1  0  0  0  0  0  0
  -27.4780  -32.5830   25.8610 C   0  0  0  0  0  1  0  0  0  0  0  0
  1  2  1  0
  3  2  1  0
  4  8  1  0
  4  7  1  0
  5  9  1  0
  6  9  1  0
  7 21  1  0
  7  5  1  0
  8  2  1  0
  8  6  1  0
  9 11  1  0
  9 12  1  0
 10  4  2  0
 13 21  1  0
 14 19  1  0
 15 16  1  0
 15 14  1  0
 17 16  1  0
 17 26  1  0
 17 18  1  0
 19 13  1  0
 19 18  1  0
 20 13  2  0
 21 22  1  0
 23 24  2  0
 24 43  1  0
 25 24  1  0
 25 28  1  0
 26 27  1  0
 26 23  1  0
 27 25  2  0
 28 29  1  0
 29 30  2  0
 31 34  1  0
 31 30  1  0
 32 31  2  0
 33 32  1  0
 33 28  2  0
 34 35  1  0
 35 36  1  0
 36 37  2  0
 38 37  1  0
 38 42  1  0
 39 38  2  0
 40 35  2  0
 40 39  1  0
 41 40  1  0
 43 44  1  0
 44 47  1  0
 44 46  1  0
 45 43  2  0
 48 49  1  0
 48 23  1  0
 50 48  1  0
 51  1  1  0
 52 51  1  0
 52 53  1  0
 53 55  1  0
 54 53  1  0
 56 53  1  0
 56 57  1  0
 57 58  1  0
 58 59  1  0
 59 61  1  0
 60 71  2  0
 61 66  1  0
 62 70  1  0
 62 72  1  0
 63 69  1  0
 63 65  1  0
 64 70  1  0
 65 64  1  0
 66 65  2  0
 67 61  2  0
 68 67  1  0
 68 63  2  0
 69 62  1  0
 70 60  1  0
 72 74  2  0
 73 72  1  0
 75 73  1  0
 76 85  2  0
 76 81  1  0
 77 73  1  0
 77 81  1  0
 78 77  1  0
 79 80  1  0
 79 78  1  0
 80 76  1  0
 81 82  2  0
 82 83  1  0
 84 83  2  0
 85 84  1  0
 86 60  1  0
 86 87  1  0
 86 96  1  0
 87 90  1  0
 88 92  1  0
 88 87  1  0
 89 88  2  0
 92 91  1  0
 94 92  1  0
 94 95  1  0
 94 93  1  0
 96 99  1  1
 96 97  1  0
 98 96  1  0
M  ISO  4  13 100  21 100  58 101  59 101
M  END
>  <TORSDO>  (79) 
F 24

>  <SCORE>  (79) 
-12.183

>  <name>  (79) 
79

>  <ligand_id>  (79) 
79

>  <original_smiles>  (79) 
[H]c1c([H])c([H])c2c(c1[H])C([H])([H])C([H])([H])C([H])([H])C2([H])N([H])C(=O)C1([H])N(C(=O)C([H])(N([H])C(=O)C([H])(N([H])C([H])([H])[H])C([H])([H])[H])C(C([H])([H])[H])(C([H])([H])[H])C([H])([H])[H])C([H])([H])c2c([H])c(OC([H])([H])C([H])([H])C([H])([H])[N+]([H])([H])C([H])([H])C([H])([H])C([H])([H])N([H])C3([H])C(=O)C([H])(N([H])C(=O)N4C([H])([H])C([H])([H])C([H])([H])C([H])(n5nc(-c6c([H])c([H])c(Oc7c([H])c([H])c(F)c([H])c7F)c([H])c6[H])c(C(=O)N([H])[H])c5N([H])[H])C4([H])[H])C([H])([H])[N+]([H])([H])C3([H])[H])c([H])c([H])c2C1([H])[H]

>  <smiles>  (79) 
[H]c1c([H])c([H])c2c(c1[H])C([H])([H])C([H])([H])C([H])([H])C2([H])N([H])C(=O)C1([H])N(C(=O)C([H])(N([H])C(=O)C([H])(N([H])C([H])([H])[H])C([H])([H])[H])C(C([H])([H])[H])(C([H])([H])[H])C([H])([H])[H])C([H])([H])c2c([H])c(OC([H])([H])C([H])([H])C([H])([H])[N+]([H])([H])C([H])([H])C([H])([H])C([H])([H])N([H])C3([H])C(=O)C([H])(N([H])C(=O)N4C([H])([H])C([H])([H])C([H])([H])C([H])(n5nc(-c6c([H])c([H])c(Oc7c([H])c([H])c(F)c([H])c7F)c([H])c6[H])c(C(=O)N([H])[H])c5N([H])[H])C4([H])[H])C([H])([H])[N+]([H])([H])C3([H])[H])c([H])c([H])c2C1([H])[H]

$$$$
80:0:0
     RDKit          3D

 97106  0  0  1  0  0  0  0  0999 V2000
  -31.7530  -21.9800   20.0160 C   0  0  0  0  0  2  0  0  0  0  0  0
  -29.3890  -21.2570   19.7670 C   0  0  0  0  0  2  0  0  0  0  0  0
  -31.5660  -22.9750   18.8560 C   0  0  0  0  0  2  0  0  0  0  0  0
  -29.2090  -22.2810   18.6190 C   0  0  0  0  0  2  0  0  0  0  0  0
  -30.8460  -20.7480   19.8470 C   0  0  0  0  0  3  0  0  0  0  0  0
  -30.1560  -23.4290   18.7170 N   0  0  2  0  0  4  0  0  0  0  0  0
  -29.9340  -23.9330   19.5650 H   0  0  0  0  0  0  0  0  0  0  0  0
  -31.1210  -19.6880   20.9570 C   0  0  0  0  0  2  0  0  0  0  0  0
  -30.5730  -14.5250   20.1640 C   0  0  0  0  0  0  0  0  0  0  0  0
  -30.2170  -12.4310   18.9270 C   0  0  0  0  0  2  0  0  0  0  0  0
  -29.2270  -12.7200   17.7800 C   0  0  0  0  0  2  0  0  0  0  0  0
  -27.7710  -12.5690   18.2630 C   0  0  0  0  0  2  0  0  0  0  0  0
  -27.4950  -13.3300   19.5870 C   0  0  0  0  0  3  0  0  0  0  0  0
  -28.5960  -13.0410   20.6350 C   0  0  0  0  0  2  0  0  0  0  0  0
  -29.8970  -13.3560   20.0230 N   0  0  0  0  0  0  0  0  0  0  0  0
  -31.6900  -14.7250   19.6810 O   0  0  0  0  0  0  0  0  0  0  0  0
  -29.4510  -16.5540   19.4370 C   0  0  0  0  0  2  0  0  0  0  0  0
  -29.7160  -16.1590   21.8220 C   0  0  0  0  0  2  0  0  0  0  0  0
  -30.3710  -17.7850   19.5080 C   0  0  0  0  0  2  0  0  0  0  0  0
  -30.5960  -17.4350   21.9630 C   0  0  0  0  0  3  0  0  0  0  0  0
  -32.0900  -17.0730   22.1250 C   0  0  0  0  0  1  0  0  0  0  0  0
  -29.7860  -15.5800   20.4770 N   0  0  0  0  0  0  0  0  0  0  0  0
  -30.3350  -18.4170   20.8550 N   0  0  1  0  0  4  0  0  0  0  0  0
  -29.3750  -18.6950   20.9940 H   0  0  0  0  0  0  0  0  0  0  0  0
  -25.1120  -13.9040   20.3680 C   0  0  0  0  0  0  0  0  0  0  0  0
  -24.0680  -13.1160   20.7710 C   0  0  0  0  0  0  0  0  0  0  0  0
  -24.5500  -11.7710   20.7280 C   0  0  0  0  0  0  0  0  0  0  0  0
  -26.1620  -13.0380   20.1070 N   0  0  0  0  0  0  0  0  0  0  0  0
  -25.8300  -11.7510   20.3790 N   0  0  0  0  0  0  0  0  0  0  0  0
  -23.8510  -10.4980   20.9440 C   0  0  0  0  0  0  0  0  0  0  0  0
  -24.3170   -9.5530   21.8840 C   0  0  0  0  0  3  0  0  0  0  0  0
  -23.6190   -8.3420   22.0880 C   0  0  0  0  0  3  0  0  0  0  0  0
  -22.4430   -8.0700   21.3500 C   0  0  0  0  0  0  0  0  0  0  0  0
  -21.9970   -9.0050   20.3990 C   0  0  0  0  0  3  0  0  0  0  0  0
  -22.6940  -10.2060   20.1940 C   0  0  0  0  0  3  0  0  0  0  0  0
  -21.7150   -6.9110   21.4610 O   0  0  0  0  0  0  0  0  0  0  0  0
  -21.6890   -6.1870   22.6260 C   0  0  0  0  0  0  0  0  0  0  0  0
  -21.2590   -6.7550   23.8450 C   0  0  0  0  0  3  0  0  0  0  0  0
  -21.1810   -5.9560   25.0040 C   0  0  0  0  0  3  0  0  0  0  0  0
  -21.5210   -4.5910   24.9450 C   0  0  0  0  0  0  0  0  0  0  0  0
  -21.9420   -4.0230   23.7290 C   0  0  0  0  0  3  0  0  0  0  0  0
  -22.0220   -4.8190   22.5730 C   0  0  0  0  0  0  0  0  0  0  0  0
  -22.4090   -4.2610   21.4000 F   0  0  0  0  0  0  0  0  0  0  0  0
  -21.4380   -3.8220   26.0550 F   0  0  0  0  0  0  0  0  0  0  0  0
  -22.6730  -13.5710   21.0870 C   0  0  0  0  0  0  0  0  0  0  0  0
  -21.9840  -12.8600   21.9730 N   0  0  0  0  0  0  0  0  0  0  0  0
  -22.2040  -14.5910   20.5840 O   0  0  0  0  0  0  0  0  0  0  0  0
  -22.3760  -12.0310   22.3950 H   0  0  0  0  0  0  0  0  0  0  0  0
  -21.0510  -13.1480   22.2310 H   0  0  0  0  0  0  0  0  0  0  0  0
  -25.2500  -15.2760   20.1820 N   0  0  0  0  0  0  0  0  0  0  0  0
  -24.4760  -15.9200   20.3100 H   0  0  0  0  0  0  0  0  0  0  0  0
  -26.0820  -15.7240   19.8240 H   0  0  0  0  0  0  0  0  0  0  0  0
  -30.0210  -24.4030   17.5980 C   0  0  0  0  0  2  0  0  0  0  0  0
  -28.7170  -25.2320   17.6280 C   0  0  0  0  0  2  0  0  0  0  0  0
  -28.9450  -26.7520   17.7500 C   0  0  0  0  0  2  0  0  0  0  0  0
  -29.3490  -27.2020   19.1660 C   0  0  0  0  0  2  0  0  0  0  0  0
  -28.3800  -26.7800   20.1160 O   0  0  0  0  0  0  0  0  0  0  0  0
  -24.5680  -31.9100   23.2290 C   0  0  0  0  0  0  0  0  0  0  0  0
  -27.2220  -27.5150   20.1300 C   0  0  0  0  0  0  0  0  0  0  0  0
  -23.3580  -30.5030   21.5910 C   0  0  0  0  0  3  0  0  0  0  0  0
  -24.8120  -28.9720   20.1630 C   0  0  0  0  0  0  0  0  0  0  0  0
  -25.8760  -30.8850   21.3770 C   0  0  0  0  0  2  0  0  0  0  0  0
  -25.9690  -29.5170   20.7390 C   0  0  0  0  0  0  0  0  0  0  0  0
  -27.1790  -28.7930   20.7260 C   0  0  0  0  0  3  0  0  0  0  0  0
  -26.0520  -26.9680   19.5710 C   0  0  0  0  0  3  0  0  0  0  0  0
  -24.8470  -27.6950   19.5760 C   0  0  0  0  0  3  0  0  0  0  0  0
  -23.5620  -29.8190   20.2120 C   0  0  0  0  0  2  0  0  0  0  0  0
  -24.6180  -31.1120   22.1250 N   0  0  0  0  0  0  0  0  0  0  0  0
  -23.4900  -32.1760   23.7760 O   0  0  0  0  0  0  0  0  0  0  0  0
  -22.7170  -29.4800   22.5560 C   0  0  0  0  0  0  0  0  0  0  0  0
  -21.3930  -29.2890   22.4340 N   0  0  0  0  0  0  0  0  0  0  0  0
  -23.4080  -28.8580   23.3680 O   0  0  0  0  0  0  0  0  0  0  0  0
  -20.8960  -29.8410   21.7490 H   0  0  0  0  0  0  0  0  0  0  0  0
  -18.0270  -28.0870   22.9520 C   0  0  0  0  0  0  0  0  0  0  0  0
  -20.5850  -28.3490   23.2100 C   0  0  0  0  0  3  0  0  0  0  0  0
  -20.6880  -26.9190   22.6300 C   0  0  0  0  0  2  0  0  0  0  0  0
  -19.5810  -26.5960   21.6220 C   0  0  0  0  0  2  0  0  0  0  0  0
  -18.2020  -26.7390   22.2720 C   0  0  0  0  0  2  0  0  0  0  0  0
  -19.1480  -28.8500   23.3760 C   0  0  0  0  0  0  0  0  0  0  0  0
  -18.9330  -30.1120   23.9700 C   0  0  0  0  0  3  0  0  0  0  0  0
  -17.6280  -30.6150   24.1420 C   0  0  0  0  0  3  0  0  0  0  0  0
  -16.5220  -29.8490   23.7330 C   0  0  0  0  0  3  0  0  0  0  0  0
  -16.7220  -28.5870   23.1460 C   0  0  0  0  0  3  0  0  0  0  0  0
  -25.8560  -32.5440   23.8400 C   0  0  0  0  0  3  0  0  0  0  0  0
  -25.5460  -33.9420   24.1690 N   0  0  0  0  0  0  0  0  0  0  0  0
  -25.8870  -34.9950   23.4130 C   0  0  0  0  0  0  0  0  0  0  0  0
  -26.5690  -34.8910   22.3890 O   0  0  0  0  0  0  0  0  0  0  0  0
  -24.9380  -34.0960   24.9610 H   0  0  0  0  0  0  0  0  0  0  0  0
  -24.1720  -36.7930   23.0290 C   0  0  0  0  0  1  0  0  0  0  0  0
  -25.3950  -36.3830   23.8640 C   0  0  0  0  0  3  0  0  0  0  0  0
  -27.5160  -37.2540   24.7410 C   0  0  0  0  0  1  0  0  0  0  0  0
  -26.4330  -37.4330   23.7770 N   0  0  0  0  0  0  0  0  0  0  0  0
  -26.0280  -38.3530   23.9250 H   0  0  0  0  0  0  0  0  0  0  0  0
  -26.3860  -31.7740   25.1110 C   0  0  1  0  0  0  0  0  0  0  0  0
  -25.3010  -31.5320   26.1870 C   0  0  0  0  0  1  0  0  0  0  0  0
  -26.9710  -30.3980   24.7130 C   0  0  0  0  0  1  0  0  0  0  0  0
  -27.5390  -32.5710   25.7650 C   0  0  0  0  0  1  0  0  0  0  0  0
  2  5  1  0
  3  1  1  0
  4  6  1  0
  4  2  1  0
  5  1  1  0
  5  8  1  0
  6  3  1  0
  6  7  1  1
  9 22  1  0
 10 15  1  0
 11 12  1  0
 11 10  1  0
 13 12  1  0
 13 28  1  0
 13 14  1  0
 15  9  1  0
 15 14  1  0
 16  9  2  0
 17 19  1  0
 17 22  1  0
 18 20  1  0
 19 23  1  0
 20 21  1  0
 22 18  1  0
 23  8  1  0
 23 24  1  1
 23 20  1  0
 25 26  2  0
 26 45  1  0
 27 26  1  0
 27 30  1  0
 28 25  1  0
 28 29  1  0
 29 27  2  0
 30 31  1  0
 31 32  2  0
 33 36  1  0
 33 32  1  0
 34 33  2  0
 35 34  1  0
 35 30  2  0
 36 37  1  0
 37 38  1  0
 38 39  2  0
 40 39  1  0
 40 44  1  0
 41 40  2  0
 42 37  2  0
 42 41  1  0
 43 42  1  0
 45 46  1  0
 46 49  1  0
 46 48  1  0
 47 45  2  0
 50 51  1  0
 50 25  1  0
 52 50  1  0
 53 54  1  0
 53  6  1  0
 54 55  1  0
 55 56  1  0
 56 57  1  0
 57 59  1  0
 58 69  2  0
 59 64  1  0
 60 68  1  0
 60 70  1  0
 61 67  1  0
 61 63  1  0
 62 68  1  0
 63 62  1  0
 64 63  2  0
 65 66  1  0
 65 59  2  0
 66 61  2  0
 67 60  1  0
 68 58  1  0
 70 72  2  0
 71 70  1  0
 73 71  1  0
 74 83  2  0
 74 79  1  0
 75 71  1  0
 75 79  1  0
 76 75  1  0
 77 78  1  0
 77 76  1  0
 78 74  1  0
 79 80  2  0
 80 81  1  0
 82 81  2  0
 83 82  1  0
 84 58  1  0
 84 85  1  0
 84 94  1  0
 85 88  1  0
 86 90  1  0
 86 85  1  0
 87 86  2  0
 90 89  1  0
 92 90  1  0
 92 93  1  0
 92 91  1  0
 94 97  1  1
 94 95  1  0
 96 94  1  0
M  ISO  4   9 100  22 100  56 101  57 101
M  END
>  <TORSDO>  (80) 
F 21

>  <SCORE>  (80) 
-12.043

>  <name>  (80) 
80

>  <ligand_id>  (80) 
80

>  <original_smiles>  (80) 
[H]c1c([H])c([H])c2c(c1[H])C([H])([H])C([H])([H])C([H])([H])C2([H])N([H])C(=O)C1([H])N(C(=O)C([H])(N([H])C(=O)C([H])(N([H])C([H])([H])[H])C([H])([H])[H])C(C([H])([H])[H])(C([H])([H])[H])C([H])([H])[H])C([H])([H])c2c([H])c(OC([H])([H])C([H])([H])C([H])([H])C([H])([H])[N+]3([H])C([H])([H])C([H])([H])C([H])(C([H])([H])[N+]4([H])C([H])([H])C([H])([H])N(C(=O)N5C([H])([H])C([H])([H])C([H])([H])C([H])(n6nc(-c7c([H])c([H])c(Oc8c([H])c([H])c(F)c([H])c8F)c([H])c7[H])c(C(=O)N([H])[H])c6N([H])[H])C5([H])[H])C([H])([H])C4([H])C([H])([H])[H])C([H])([H])C3([H])[H])c([H])c([H])c2C1([H])[H]

>  <smiles>  (80) 
[H]c1c([H])c([H])c2c(c1[H])C([H])([H])C([H])([H])C([H])([H])C2([H])N([H])C(=O)C1([H])N(C(=O)C([H])(N([H])C(=O)C([H])(N([H])C([H])([H])[H])C([H])([H])[H])C(C([H])([H])[H])(C([H])([H])[H])C([H])([H])[H])C([H])([H])c2c([H])c(OC([H])([H])C([H])([H])C([H])([H])C([H])([H])[N+]3([H])C([H])([H])C([H])([H])C([H])(C([H])([H])[N+]4([H])C([H])([H])C([H])([H])N(C(=O)N5C([H])([H])C([H])([H])C([H])([H])C([H])(n6nc(-c7c([H])c([H])c(Oc8c([H])c([H])c(F)c([H])c8F)c([H])c7[H])c(C(=O)N([H])[H])c6N([H])[H])C5([H])[H])C([H])([H])C4([H])C([H])([H])[H])C([H])([H])C3([H])[H])c([H])c([H])c2C1([H])[H]

$$$$
81:0:0
     RDKit          3D

 97106  0  0  1  0  0  0  0  0999 V2000
  -28.2210  -21.6810   17.5730 C   0  0  0  0  0  2  0  0  0  0  0  0
  -30.6590  -19.8870   15.9920 C   0  0  0  0  0  2  0  0  0  0  0  0
  -30.6530  -18.9960   17.2250 C   0  0  0  0  0  2  0  0  0  0  0  0
  -29.1780  -20.2080   15.8180 C   0  0  0  0  0  2  0  0  0  0  0  0
  -29.5480  -19.5930   18.1160 C   0  0  0  0  0  3  0  0  0  0  0  0
  -28.6000  -20.2900   17.1880 N   0  0  1  0  0  4  0  0  0  0  0  0
  -27.7450  -19.7560   17.1390 H   0  0  0  0  0  0  0  0  0  0  0  0
  -28.8410  -18.5390   19.0090 C   0  0  0  0  0  2  0  0  0  0  0  0
  -30.7610  -14.3990   20.5010 C   0  0  0  0  0  0  0  0  0  0  0  0
  -30.3990  -12.2450   19.3600 C   0  0  0  0  0  2  0  0  0  0  0  0
  -29.4660  -12.4650   18.1550 C   0  0  0  0  0  2  0  0  0  0  0  0
  -27.9900  -12.3510   18.5790 C   0  0  0  0  0  2  0  0  0  0  0  0
  -27.6620  -13.1810   19.8460 C   0  0  0  0  0  3  0  0  0  0  0  0
  -28.7220  -12.9810   20.9560 C   0  0  0  0  0  2  0  0  0  0  0  0
  -30.0480  -13.2470   20.3750 N   0  0  0  0  0  0  0  0  0  0  0  0
  -31.9350  -14.5020   20.1240 O   0  0  0  0  0  0  0  0  0  0  0  0
  -30.2070  -17.9060   21.1550 C   0  0  0  0  0  2  0  0  0  0  0  0
  -30.7040  -16.5590   21.7090 C   0  0  0  0  0  2  0  0  0  0  0  0
  -29.2130  -16.1670   19.9290 C   0  0  0  0  0  2  0  0  0  0  0  0
  -29.8010  -17.5590   19.7340 C   0  0  0  0  0  3  0  0  0  0  0  0
  -30.0700  -15.4890   20.9110 N   0  0  0  0  0  0  0  0  0  0  0  0
  -25.2850  -13.8400   20.5520 C   0  0  0  0  0  0  0  0  0  0  0  0
  -24.2030  -13.0880   20.9140 C   0  0  0  0  0  0  0  0  0  0  0  0
  -24.6410  -11.7280   20.8850 C   0  0  0  0  0  0  0  0  0  0  0  0
  -26.3110  -12.9350   20.3240 N   0  0  0  0  0  0  0  0  0  0  0  0
  -25.9290  -11.6630   20.5850 N   0  0  0  0  0  0  0  0  0  0  0  0
  -23.8970  -10.4790   21.0650 C   0  0  0  0  0  0  0  0  0  0  0  0
  -24.3160   -9.5120   22.0030 C   0  0  0  0  0  3  0  0  0  0  0  0
  -23.5800   -8.3200   22.1720 C   0  0  0  0  0  3  0  0  0  0  0  0
  -22.4140   -8.0930   21.4020 C   0  0  0  0  0  0  0  0  0  0  0  0
  -22.0160   -9.0500   20.4520 C   0  0  0  0  0  3  0  0  0  0  0  0
  -22.7510  -10.2340   20.2810 C   0  0  0  0  0  3  0  0  0  0  0  0
  -21.6510   -6.9550   21.4790 O   0  0  0  0  0  0  0  0  0  0  0  0
  -21.5750   -6.2150   22.6320 C   0  0  0  0  0  0  0  0  0  0  0  0
  -21.1010   -6.7670   23.8410 C   0  0  0  0  0  3  0  0  0  0  0  0
  -20.9710   -5.9540   24.9830 C   0  0  0  0  0  3  0  0  0  0  0  0
  -21.3060   -4.5890   24.9190 C   0  0  0  0  0  0  0  0  0  0  0  0
  -21.7750   -4.0350   23.7150 C   0  0  0  0  0  3  0  0  0  0  0  0
  -21.9040   -4.8450   22.5730 C   0  0  0  0  0  0  0  0  0  0  0  0
  -22.3360   -4.3030   21.4100 F   0  0  0  0  0  0  0  0  0  0  0  0
  -21.1720   -3.8040   26.0140 F   0  0  0  0  0  0  0  0  0  0  0  0
  -22.8150  -13.5880   21.1830 C   0  0  0  0  0  0  0  0  0  0  0  0
  -22.0770  -12.8930   22.0400 N   0  0  0  0  0  0  0  0  0  0  0  0
  -22.3950  -14.6230   20.6670 O   0  0  0  0  0  0  0  0  0  0  0  0
  -22.4390  -12.0560   22.4730 H   0  0  0  0  0  0  0  0  0  0  0  0
  -21.1400  -13.2000   22.2640 H   0  0  0  0  0  0  0  0  0  0  0  0
  -25.4730  -15.2090   20.3800 N   0  0  0  0  0  0  0  0  0  0  0  0
  -24.7140  -15.8700   20.4910 H   0  0  0  0  0  0  0  0  0  0  0  0
  -26.3290  -15.6400   20.0570 H   0  0  0  0  0  0  0  0  0  0  0  0
  -27.2180  -21.7870   18.7510 C   0  0  0  0  0  2  0  0  0  0  0  0
  -27.8370  -21.8350   20.1770 C   0  0  0  0  0  2  0  0  0  0  0  0
  -27.6480  -23.1360   20.8630 N   0  0  0  0  0  4  0  0  0  0  0  0
  -27.9630  -23.0230   21.8140 H   0  0  0  0  0  0  0  0  0  0  0  0
  -26.6590  -23.3320   20.9100 H   0  0  0  0  0  0  0  0  0  0  0  0
  -28.3840  -24.2850   20.2640 C   0  0  0  0  0  2  0  0  0  0  0  0
  -28.2930  -25.5540   21.1320 C   0  0  0  0  0  2  0  0  0  0  0  0
  -28.3950  -26.7120   20.2990 O   0  0  0  0  0  0  0  0  0  0  0  0
  -24.5310  -31.8620   23.2390 C   0  0  0  0  0  0  0  0  0  0  0  0
  -27.2340  -27.4360   20.2370 C   0  0  0  0  0  0  0  0  0  0  0  0
  -23.3510  -30.4480   21.5820 C   0  0  0  0  0  3  0  0  0  0  0  0
  -24.8300  -28.9000   20.1990 C   0  0  0  0  0  0  0  0  0  0  0  0
  -25.8740  -30.8230   21.4160 C   0  0  0  0  0  2  0  0  0  0  0  0
  -25.9740  -29.4450   20.7970 C   0  0  0  0  0  0  0  0  0  0  0  0
  -27.1820  -28.7210   20.8140 C   0  0  0  0  0  3  0  0  0  0  0  0
  -26.0810  -26.8970   19.6290 C   0  0  0  0  0  3  0  0  0  0  0  0
  -24.8750  -27.6220   19.6150 C   0  0  0  0  0  3  0  0  0  0  0  0
  -23.5830  -29.7550   20.2120 C   0  0  0  0  0  2  0  0  0  0  0  0
  -24.6020  -31.0580   22.1400 N   0  0  0  0  0  0  0  0  0  0  0  0
  -23.4410  -32.1370   23.7610 O   0  0  0  0  0  0  0  0  0  0  0  0
  -22.6820  -29.4360   22.5400 C   0  0  0  0  0  0  0  0  0  0  0  0
  -21.3570  -29.2780   22.4110 N   0  0  0  0  0  0  0  0  0  0  0  0
  -23.3550  -28.7980   23.3530 O   0  0  0  0  0  0  0  0  0  0  0  0
  -20.8750  -29.8490   21.7290 H   0  0  0  0  0  0  0  0  0  0  0  0
  -17.9570  -28.1700   22.9250 C   0  0  0  0  0  0  0  0  0  0  0  0
  -20.5210  -28.3520   23.1760 C   0  0  0  0  0  3  0  0  0  0  0  0
  -20.5800  -26.9260   22.5810 C   0  0  0  0  0  2  0  0  0  0  0  0
  -19.4600  -26.6490   21.5730 C   0  0  0  0  0  2  0  0  0  0  0  0
  -18.0900  -26.8250   22.2310 C   0  0  0  0  0  2  0  0  0  0  0  0
  -19.1000  -28.8940   23.3560 C   0  0  0  0  0  0  0  0  0  0  0  0
  -18.9230  -30.1550   23.9650 C   0  0  0  0  0  3  0  0  0  0  0  0
  -17.6340  -30.6910   24.1480 C   0  0  0  0  0  3  0  0  0  0  0  0
  -16.5040  -29.9630   23.7360 C   0  0  0  0  0  3  0  0  0  0  0  0
  -16.6680  -28.7040   23.1280 C   0  0  0  0  0  3  0  0  0  0  0  0
  -25.8100  -32.4930   23.8760 C   0  0  0  0  0  3  0  0  0  0  0  0
  -25.5070  -33.8950   24.1860 N   0  0  0  0  0  0  0  0  0  0  0  0
  -25.8640  -34.9360   23.4200 C   0  0  0  0  0  0  0  0  0  0  0  0
  -26.5510  -34.8120   22.4030 O   0  0  0  0  0  0  0  0  0  0  0  0
  -24.9050  -34.0680   24.9770 H   0  0  0  0  0  0  0  0  0  0  0  0
  -24.1700  -36.7430   22.9890 C   0  0  0  0  0  1  0  0  0  0  0  0
  -25.3760  -36.3320   23.8500 C   0  0  0  0  0  3  0  0  0  0  0  0
  -27.4840  -37.2020   24.7580 C   0  0  0  0  0  1  0  0  0  0  0  0
  -26.4220  -37.3730   23.7690 N   0  0  0  0  0  0  0  0  0  0  0  0
  -26.0210  -38.2980   23.8910 H   0  0  0  0  0  0  0  0  0  0  0  0
  -26.3050  -31.7280   25.1640 C   0  0  1  0  0  0  0  0  0  0  0  0
  -25.1980  -31.4960   26.2190 C   0  0  0  0  0  1  0  0  0  0  0  0
  -26.8890  -30.3480   24.7840 C   0  0  0  0  0  1  0  0  0  0  0  0
  -27.4480  -32.5220   25.8390 C   0  0  0  0  0  1  0  0  0  0  0  0
  1 50  1  0
  2  3  1  0
  3  5  1  0
  4  2  1  0
  4  6  1  0
  5  8  1  0
  6  1  1  0
  6  5  1  0
  6  7  1  6
  9 21  1  0
 10 15  1  0
 11 12  1  0
 11 10  1  0
 13 12  1  0
 13 25  1  0
 13 14  1  0
 15  9  1  0
 15 14  1  0
 16  9  2  0
 17 18  1  0
 19 21  1  0
 20  8  1  0
 20 19  1  0
 20 17  1  0
 21 18  1  0
 22 23  2  0
 23 42  1  0
 24 23  1  0
 24 27  1  0
 25 22  1  0
 25 26  1  0
 26 24  2  0
 27 28  1  0
 28 29  2  0
 30 33  1  0
 30 29  1  0
 31 30  2  0
 32 31  1  0
 32 27  2  0
 33 34  1  0
 34 35  1  0
 35 36  2  0
 37 36  1  0
 37 41  1  0
 38 37  2  0
 39 34  2  0
 39 38  1  0
 40 39  1  0
 42 43  1  0
 43 46  1  0
 43 45  1  0
 44 42  2  0
 47 48  1  0
 47 22  1  0
 49 47  1  0
 50 51  1  0
 51 52  1  0
 52 54  1  0
 52 53  1  0
 55 52  1  0
 55 56  1  0
 57 56  1  0
 58 69  2  0
 59 57  1  0
 59 64  1  0
 60 68  1  0
 60 70  1  0
 61 67  1  0
 61 63  1  0
 62 68  1  0
 63 64  2  0
 63 62  1  0
 65 59  2  0
 66 65  1  0
 66 61  2  0
 67 60  1  0
 68 58  1  0
 70 72  2  0
 71 70  1  0
 73 71  1  0
 74 83  2  0
 74 79  1  0
 75 71  1  0
 75 79  1  0
 76 75  1  0
 77 78  1  0
 77 76  1  0
 78 74  1  0
 79 80  2  0
 80 81  1  0
 82 81  2  0
 83 82  1  0
 84 58  1  0
 84 85  1  0
 84 94  1  0
 85 88  1  0
 86 90  1  0
 86 85  1  0
 87 86  2  0
 90 89  1  0
 92 90  1  0
 92 93  1  0
 92 91  1  0
 94 97  1  1
 94 95  1  0
 96 94  1  0
M  ISO  4   9 100  21 100  56 101  57 101
M  END
>  <TORSDO>  (81) 
F 23

>  <SCORE>  (81) 
-13.057

>  <name>  (81) 
81

>  <ligand_id>  (81) 
81

>  <original_smiles>  (81) 
[H]c1c([H])c([H])c2c(c1[H])C([H])([H])C([H])([H])C([H])([H])C2([H])N([H])C(=O)C1([H])N(C(=O)C([H])(N([H])C(=O)C([H])(N([H])C([H])([H])[H])C([H])([H])[H])C(C([H])([H])[H])(C([H])([H])[H])C([H])([H])[H])C([H])([H])c2c([H])c(OC([H])([H])C([H])([H])[N+]([H])([H])C([H])([H])C([H])([H])C([H])([H])[N+]3([H])C([H])([H])C([H])([H])C([H])([H])C3([H])C([H])([H])C3([H])C([H])([H])N(C(=O)N4C([H])([H])C([H])([H])C([H])([H])C([H])(n5nc(-c6c([H])c([H])c(Oc7c([H])c([H])c(F)c([H])c7F)c([H])c6[H])c(C(=O)N([H])[H])c5N([H])[H])C4([H])[H])C([H])([H])C3([H])[H])c([H])c([H])c2C1([H])[H]

>  <smiles>  (81) 
[H]c1c([H])c([H])c2c(c1[H])C([H])([H])C([H])([H])C([H])([H])C2([H])N([H])C(=O)C1([H])N(C(=O)C([H])(N([H])C(=O)C([H])(N([H])C([H])([H])[H])C([H])([H])[H])C(C([H])([H])[H])(C([H])([H])[H])C([H])([H])[H])C([H])([H])c2c([H])c(OC([H])([H])C([H])([H])[N+]([H])([H])C([H])([H])C([H])([H])C([H])([H])[N+]3([H])C([H])([H])C([H])([H])C([H])([H])C3([H])C([H])([H])C3([H])C([H])([H])N(C(=O)N4C([H])([H])C([H])([H])C([H])([H])C([H])(n5nc(-c6c([H])c([H])c(Oc7c([H])c([H])c(F)c([H])c7F)c([H])c6[H])c(C(=O)N([H])[H])c5N([H])[H])C4([H])[H])C([H])([H])C3([H])[H])c([H])c([H])c2C1([H])[H]

$$$$
82:0:0
     RDKit          3D

 96104  0  0  1  0  0  0  0  0999 V2000
  -26.6540  -22.1750   19.4890 C   0  0  0  0  0  2  0  0  0  0  0  0
  -27.0690  -20.9830   20.3890 C   0  0  0  0  0  2  0  0  0  0  0  0
  -29.1430  -18.8050   18.0170 C   0  0  0  0  0  2  0  0  0  0  0  0
  -30.2120  -18.8120   20.3280 C   0  0  0  0  0  2  0  0  0  0  0  0
  -27.8520  -19.3220   18.6750 C   0  0  0  0  0  2  0  0  0  0  0  0
  -28.8780  -19.3500   20.8800 C   0  0  0  0  0  2  0  0  0  0  0  0
  -30.0500  -18.0360   19.0010 C   0  0  0  0  0  3  0  0  0  0  0  0
  -28.1910  -20.1640   19.8490 N   0  0  2  0  0  4  0  0  0  0  0  0
  -28.8920  -20.8160   19.5330 H   0  0  0  0  0  0  0  0  0  0  0  0
  -31.4260  -17.7650   18.3560 C   0  0  0  0  0  2  0  0  0  0  0  0
  -32.3930  -16.9500   19.2360 C   0  0  0  0  0  2  0  0  0  0  0  0
  -32.2320  -14.4820   18.9460 C   0  0  0  0  0  0  0  0  0  0  0  0
  -31.9180  -12.0390   18.8780 C   0  0  0  0  0  2  0  0  0  0  0  0
  -30.8850  -11.6260   17.8140 C   0  0  0  0  0  2  0  0  0  0  0  0
  -29.4560  -11.6810   18.3840 C   0  0  0  0  0  2  0  0  0  0  0  0
  -29.1550  -13.0190   19.1060 C   0  0  0  0  0  3  0  0  0  0  0  0
  -30.2850  -13.3720   20.0990 C   0  0  0  0  0  2  0  0  0  0  0  0
  -31.5680  -13.3780   19.3700 N   0  0  0  0  0  0  0  0  0  0  0  0
  -33.1490  -14.4500   18.1170 O   0  0  0  0  0  0  0  0  0  0  0  0
  -31.8580  -15.6240   19.5340 N   0  0  0  0  0  0  0  0  0  0  0  0
  -31.1430  -15.5560   20.2440 H   0  0  0  0  0  0  0  0  0  0  0  0
  -27.0580  -14.0310   20.2090 C   0  0  0  0  0  0  0  0  0  0  0  0
  -25.9110  -13.4580   20.6910 C   0  0  0  0  0  0  0  0  0  0  0  0
  -26.0650  -12.0500   20.5020 C   0  0  0  0  0  0  0  0  0  0  0  0
  -27.8500  -12.9820   19.7660 N   0  0  0  0  0  0  0  0  0  0  0  0
  -27.2600  -11.7810   19.9940 N   0  0  0  0  0  0  0  0  0  0  0  0
  -25.1210  -10.9470   20.7240 C   0  0  0  0  0  0  0  0  0  0  0  0
  -25.3940   -9.9140   21.6500 C   0  0  0  0  0  3  0  0  0  0  0  0
  -24.4620   -8.8750   21.8580 C   0  0  0  0  0  3  0  0  0  0  0  0
  -23.2430   -8.8600   21.1410 C   0  0  0  0  0  0  0  0  0  0  0  0
  -22.9860   -9.8770   20.2040 C   0  0  0  0  0  3  0  0  0  0  0  0
  -23.9170  -10.9090   19.9940 C   0  0  0  0  0  3  0  0  0  0  0  0
  -22.2900   -7.8770   21.2580 O   0  0  0  0  0  0  0  0  0  0  0  0
  -22.0430   -7.2530   22.4550 C   0  0  0  0  0  0  0  0  0  0  0  0
  -21.6280   -7.9710   23.5980 C   0  0  0  0  0  3  0  0  0  0  0  0
  -21.3180   -7.2820   24.7880 C   0  0  0  0  0  3  0  0  0  0  0  0
  -21.4150   -5.8790   24.8340 C   0  0  0  0  0  0  0  0  0  0  0  0
  -21.8250   -5.1630   23.6960 C   0  0  0  0  0  3  0  0  0  0  0  0
  -22.1360   -5.8480   22.5090 C   0  0  0  0  0  0  0  0  0  0  0  0
  -22.5080   -5.1500   21.4090 F   0  0  0  0  0  0  0  0  0  0  0  0
  -21.1100   -5.2160   25.9750 F   0  0  0  0  0  0  0  0  0  0  0  0
  -24.7000  -14.1770   21.2090 C   0  0  0  0  0  0  0  0  0  0  0  0
  -24.0030  -13.5860   22.1730 N   0  0  0  0  0  0  0  0  0  0  0  0
  -24.3930  -15.2930   20.7930 O   0  0  0  0  0  0  0  0  0  0  0  0
  -24.2670  -12.6790   22.5270 H   0  0  0  0  0  0  0  0  0  0  0  0
  -23.1940  -14.0490   22.5640 H   0  0  0  0  0  0  0  0  0  0  0  0
  -27.4850  -15.3500   20.0930 N   0  0  0  0  0  0  0  0  0  0  0  0
  -26.8900  -16.1340   20.3380 H   0  0  0  0  0  0  0  0  0  0  0  0
  -28.3480  -15.6250   19.6440 H   0  0  0  0  0  0  0  0  0  0  0  0
  -27.7290  -23.2680   19.2720 C   0  0  0  0  0  2  0  0  0  0  0  0
  -27.7730  -24.3020   20.3330 N   0  0  0  0  0  4  0  0  0  0  0  0
  -27.5320  -23.9210   21.2350 H   0  0  0  0  0  0  0  0  0  0  0  0
  -27.0730  -24.9960   20.1150 H   0  0  0  0  0  0  0  0  0  0  0  0
  -29.0850  -24.9890   20.4350 C   0  0  0  0  0  2  0  0  0  0  0  0
  -28.9280  -26.4840   20.7420 C   0  0  0  0  0  2  0  0  0  0  0  0
  -28.4680  -27.1080   19.5460 O   0  0  0  0  0  0  0  0  0  0  0  0
  -24.4720  -31.8020   23.1000 C   0  0  0  0  0  0  0  0  0  0  0  0
  -27.2750  -27.7670   19.6640 C   0  0  0  0  0  0  0  0  0  0  0  0
  -23.2990  -30.4470   21.3920 C   0  0  0  0  0  3  0  0  0  0  0  0
  -24.7990  -29.0950   19.8340 C   0  0  0  0  0  0  0  0  0  0  0  0
  -25.7890  -30.9680   21.1620 C   0  0  0  0  0  2  0  0  0  0  0  0
  -25.9350  -29.6490   20.4380 C   0  0  0  0  0  0  0  0  0  0  0  0
  -27.1770  -28.9880   20.3640 C   0  0  0  0  0  3  0  0  0  0  0  0
  -26.1340  -27.2240   19.0410 C   0  0  0  0  0  3  0  0  0  0  0  0
  -24.8900  -27.8760   19.1380 C   0  0  0  0  0  3  0  0  0  0  0  0
  -23.5080  -29.8690   19.9660 C   0  0  0  0  0  2  0  0  0  0  0  0
  -24.5380  -31.0850   21.9430 N   0  0  0  0  0  0  0  0  0  0  0  0
  -23.3940  -31.9760   23.6830 O   0  0  0  0  0  0  0  0  0  0  0  0
  -22.7360  -29.3270   22.2960 C   0  0  0  0  0  0  0  0  0  0  0  0
  -21.4210  -29.0750   22.1840 N   0  0  0  0  0  0  0  0  0  0  0  0
  -23.4760  -28.6880   23.0480 O   0  0  0  0  0  0  0  0  0  0  0  0
  -20.8840  -29.6490   21.5470 H   0  0  0  0  0  0  0  0  0  0  0  0
  -18.1370  -27.6440   22.6420 C   0  0  0  0  0  0  0  0  0  0  0  0
  -20.6760  -28.0460   22.9040 C   0  0  0  0  0  3  0  0  0  0  0  0
  -20.8620  -26.6610   22.2420 C   0  0  0  0  0  2  0  0  0  0  0  0
  -19.7690  -26.3290   21.2200 C   0  0  0  0  0  2  0  0  0  0  0  0
  -18.3900  -26.3500   21.8860 C   0  0  0  0  0  2  0  0  0  0  0  0
  -19.2120  -28.4480   23.1050 C   0  0  0  0  0  0  0  0  0  0  0  0
  -18.9240  -29.6590   23.7700 C   0  0  0  0  0  3  0  0  0  0  0  0
  -17.5930  -30.0700   23.9770 C   0  0  0  0  0  3  0  0  0  0  0  0
  -16.5330  -29.2620   23.5310 C   0  0  0  0  0  3  0  0  0  0  0  0
  -16.8060  -28.0500   22.8700 C   0  0  0  0  0  3  0  0  0  0  0  0
  -25.7400  -32.4590   23.7300 C   0  0  0  0  0  3  0  0  0  0  0  0
  -25.3860  -33.8360   24.0990 N   0  0  0  0  0  0  0  0  0  0  0  0
  -25.6860  -34.9180   23.3680 C   0  0  0  0  0  0  0  0  0  0  0  0
  -26.3630  -34.8650   22.3380 O   0  0  0  0  0  0  0  0  0  0  0  0
  -24.7910  -33.9500   24.9060 H   0  0  0  0  0  0  0  0  0  0  0  0
  -23.9090  -36.6660   23.0440 C   0  0  0  0  0  1  0  0  0  0  0  0
  -25.1520  -36.2760   23.8600 C   0  0  0  0  0  3  0  0  0  0  0  0
  -27.2470  -37.1990   24.7490 C   0  0  0  0  0  1  0  0  0  0  0  0
  -26.1520  -37.3640   23.7940 N   0  0  0  0  0  0  0  0  0  0  0  0
  -25.7150  -38.2630   23.9720 H   0  0  0  0  0  0  0  0  0  0  0  0
  -26.2950  -31.6710   24.9790 C   0  0  1  0  0  0  0  0  0  0  0  0
  -25.2240  -31.3660   26.0500 C   0  0  0  0  0  1  0  0  0  0  0  0
  -26.9200  -30.3240   24.5400 C   0  0  0  0  0  1  0  0  0  0  0  0
  -27.4230  -32.4850   25.6560 C   0  0  0  0  0  1  0  0  0  0  0  0
  1  2  1  0
  3  5  1  0
  3  7  1  0
  4  6  1  0
  5  8  1  0
  7 10  1  0
  7  4  1  0
  8  2  1  0
  8  6  1  0
  8  9  1  6
 10 11  1  0
 11 20  1  0
 12 18  1  0
 12 20  1  0
 13 18  1  0
 14 15  1  0
 14 13  1  0
 16 15  1  0
 16 25  1  0
 16 17  1  0
 18 17  1  0
 19 12  2  0
 20 21  1  0
 22 23  2  0
 23 42  1  0
 24 23  1  0
 24 27  1  0
 25 26  1  0
 25 22  1  0
 26 24  2  0
 27 28  1  0
 28 29  2  0
 30 33  1  0
 30 29  1  0
 31 30  2  0
 32 31  1  0
 32 27  2  0
 33 34  1  0
 34 39  2  0
 34 35  1  0
 35 36  2  0
 36 37  1  0
 37 41  1  0
 38 37  2  0
 39 38  1  0
 40 39  1  0
 42 43  1  0
 43 45  1  0
 43 46  1  0
 44 42  2  0
 47 22  1  0
 47 48  1  0
 49 47  1  0
 50  1  1  0
 50 51  1  0
 51 54  1  0
 51 52  1  0
 53 51  1  0
 54 55  1  0
 56 58  1  0
 56 55  1  0
 57 68  2  0
 58 63  1  0
 59 67  1  0
 59 69  1  0
 60 66  1  0
 60 62  1  0
 61 67  1  0
 62 61  1  0
 63 62  2  0
 64 65  1  0
 64 58  2  0
 65 60  2  0
 66 59  1  0
 67 57  1  0
 69 71  2  0
 70 69  1  0
 72 70  1  0
 73 82  2  0
 73 78  1  0
 74 70  1  0
 74 78  1  0
 75 74  1  0
 76 77  1  0
 76 75  1  0
 77 73  1  0
 78 79  2  0
 79 80  1  0
 81 80  2  0
 82 81  1  0
 83 57  1  0
 83 84  1  0
 83 93  1  0
 84 87  1  0
 85 89  1  0
 85 84  1  0
 86 85  2  0
 89 88  1  0
 91 89  1  0
 91 92  1  0
 91 90  1  0
 93 96  1  1
 93 94  1  0
 95 93  1  0
M  ISO  4  12 100  20 100  55 101  56 101
M  END
>  <TORSDO>  (82) 
F 24

>  <SCORE>  (82) 
-9.712

>  <name>  (82) 
82

>  <ligand_id>  (82) 
82

>  <original_smiles>  (82) 
[H]c1c([H])c([H])c2c(c1[H])C([H])([H])C([H])([H])C([H])([H])C2([H])N([H])C(=O)C1([H])N(C(=O)C([H])(N([H])C(=O)C([H])(N([H])C([H])([H])[H])C([H])([H])[H])C(C([H])([H])[H])(C([H])([H])[H])C([H])([H])[H])C([H])([H])c2c([H])c(OC([H])([H])C([H])([H])[N+]([H])([H])C([H])([H])C([H])([H])C([H])([H])[N+]3([H])C([H])([H])C([H])([H])C([H])(C([H])([H])C([H])([H])N([H])C(=O)N4C([H])([H])C([H])([H])C([H])([H])C([H])(n5nc(-c6c([H])c([H])c(Oc7c([H])c([H])c(F)c([H])c7F)c([H])c6[H])c(C(=O)N([H])[H])c5N([H])[H])C4([H])[H])C([H])([H])C3([H])[H])c([H])c([H])c2C1([H])[H]

>  <smiles>  (82) 
[H]c1c([H])c([H])c2c(c1[H])C([H])([H])C([H])([H])C([H])([H])C2([H])N([H])C(=O)C1([H])N(C(=O)C([H])(N([H])C(=O)C([H])(N([H])C([H])([H])[H])C([H])([H])[H])C(C([H])([H])[H])(C([H])([H])[H])C([H])([H])[H])C([H])([H])c2c([H])c(OC([H])([H])C([H])([H])[N+]([H])([H])C([H])([H])C([H])([H])C([H])([H])[N+]3([H])C([H])([H])C([H])([H])C([H])(C([H])([H])C([H])([H])N([H])C(=O)N4C([H])([H])C([H])([H])C([H])([H])C([H])(n5nc(-c6c([H])c([H])c(Oc7c([H])c([H])c(F)c([H])c7F)c([H])c6[H])c(C(=O)N([H])[H])c5N([H])[H])C4([H])[H])C([H])([H])C3([H])[H])c([H])c([H])c2C1([H])[H]

$$$$
83:0:0
     RDKit          3D

 94102  0  0  1  0  0  0  0  0999 V2000
  -29.7270  -22.0880   20.0350 C   0  0  0  0  0  0  0  0  0  0  0  0
  -30.4200  -21.0020   19.6710 N   0  0  0  0  0  0  0  0  0  0  0  0
  -28.8050  -22.0490   20.8490 O   0  0  0  0  0  0  0  0  0  0  0  0
  -31.1700  -21.1540   19.0060 H   0  0  0  0  0  0  0  0  0  0  0  0
  -30.1240  -23.3960   19.3380 C   0  0  0  0  0  2  0  0  0  0  0  0
  -29.7730  -24.7000   20.0900 C   0  0  0  0  0  2  0  0  0  0  0  0
  -28.3680  -25.2580   19.8080 C   0  0  0  0  0  2  0  0  0  0  0  0
  -28.3770  -26.6440   20.1390 O   0  0  0  0  0  0  0  0  0  0  0  0
  -24.6530  -31.8180   23.2370 C   0  0  0  0  0  0  0  0  0  0  0  0
  -27.1880  -27.3420   20.1310 C   0  0  0  0  0  0  0  0  0  0  0  0
  -23.4040  -30.4440   21.6020 C   0  0  0  0  0  3  0  0  0  0  0  0
  -24.8130  -28.8780   20.1650 C   0  0  0  0  0  0  0  0  0  0  0  0
  -25.9320  -30.7570   21.3800 C   0  0  0  0  0  2  0  0  0  0  0  0
  -25.9830  -29.3850   20.7430 C   0  0  0  0  0  0  0  0  0  0  0  0
  -27.1710  -28.6240   20.7210 C   0  0  0  0  0  3  0  0  0  0  0  0
  -25.9960  -26.8410   19.5550 C   0  0  0  0  0  3  0  0  0  0  0  0
  -24.8140  -27.6050   19.5700 C   0  0  0  0  0  3  0  0  0  0  0  0
  -23.5880  -29.7610   20.2190 C   0  0  0  0  0  2  0  0  0  0  0  0
  -24.6830  -31.0210   22.1320 N   0  0  0  0  0  0  0  0  0  0  0  0
  -23.5820  -32.1100   23.7870 O   0  0  0  0  0  0  0  0  0  0  0  0
  -22.7410  -29.4360   22.5660 C   0  0  0  0  0  0  0  0  0  0  0  0
  -21.4270  -29.2200   22.3940 N   0  0  0  0  0  0  0  0  0  0  0  0
  -23.4080  -28.8460   23.4220 O   0  0  0  0  0  0  0  0  0  0  0  0
  -20.9500  -29.7490   21.6770 H   0  0  0  0  0  0  0  0  0  0  0  0
  -18.0650  -27.9650   22.7910 C   0  0  0  0  0  0  0  0  0  0  0  0
  -20.6020  -28.2850   23.1580 C   0  0  0  0  0  3  0  0  0  0  0  0
  -20.7590  -26.8420   22.6250 C   0  0  0  0  0  2  0  0  0  0  0  0
  -19.7050  -26.4680   21.5780 C   0  0  0  0  0  2  0  0  0  0  0  0
  -18.2970  -26.6010   22.1620 C   0  0  0  0  0  2  0  0  0  0  0  0
  -19.1490  -28.7630   23.2440 C   0  0  0  0  0  0  0  0  0  0  0  0
  -18.8800  -30.0380   23.7870 C   0  0  0  0  0  3  0  0  0  0  0  0
  -17.5590  -30.5160   23.8850 C   0  0  0  0  0  3  0  0  0  0  0  0
  -16.4890  -29.7150   23.4490 C   0  0  0  0  0  3  0  0  0  0  0  0
  -16.7430  -28.4420   22.9060 C   0  0  0  0  0  3  0  0  0  0  0  0
  -25.9590  -32.4200   23.8490 C   0  0  0  0  0  3  0  0  0  0  0  0
  -25.6750  -33.8150   24.2110 N   0  0  0  0  0  0  0  0  0  0  0  0
  -26.0310  -34.8770   23.4780 C   0  0  0  0  0  0  0  0  0  0  0  0
  -26.7030  -34.7850   22.4470 O   0  0  0  0  0  0  0  0  0  0  0  0
  -25.0820  -33.9640   25.0140 H   0  0  0  0  0  0  0  0  0  0  0  0
  -24.3560  -36.7210   23.1350 C   0  0  0  0  0  1  0  0  0  0  0  0
  -25.5650  -36.2620   23.9650 C   0  0  0  0  0  3  0  0  0  0  0  0
  -27.6950  -37.0720   24.8810 C   0  0  0  0  0  1  0  0  0  0  0  0
  -26.6250  -37.2930   23.9110 N   0  0  0  0  0  0  0  0  0  0  0  0
  -26.2370  -38.2180   24.0710 H   0  0  0  0  0  0  0  0  0  0  0  0
  -26.4900  -31.6160   25.0980 C   0  0  1  0  0  0  0  0  0  0  0  0
  -25.3970  -31.3090   26.1500 C   0  0  0  0  0  1  0  0  0  0  0  0
  -27.1110  -30.2710   24.6530 C   0  0  0  0  0  1  0  0  0  0  0  0
  -27.6140  -32.4150   25.7990 C   0  0  0  0  0  1  0  0  0  0  0  0
  -30.1420  -19.6070   20.0280 C   0  0  0  0  0  2  0  0  0  0  0  0
  -31.4070  -18.7400   19.8230 C   0  0  0  0  0  2  0  0  0  0  0  0
  -30.9220  -13.9110   19.2520 C   0  0  0  0  0  0  0  0  0  0  0  0
  -30.1700  -11.8390   18.1640 C   0  0  0  0  0  2  0  0  0  0  0  0
  -29.0220  -12.0450   17.1580 C   0  0  0  0  0  2  0  0  0  0  0  0
  -27.6700  -11.9100   17.8690 C   0  0  0  0  0  2  0  0  0  0  0  0
  -27.5870  -12.8130   19.1190 C   0  0  0  0  0  3  0  0  0  0  0  0
  -28.8300  -12.6720   20.0200 C   0  0  0  0  0  2  0  0  0  0  0  0
  -30.0850  -12.8320   19.2540 N   0  0  0  0  0  0  0  0  0  0  0  0
  -31.5020  -14.2580   18.2180 O   0  0  0  0  0  0  0  0  0  0  0  0
  -29.9440  -15.8180   21.8110 C   0  0  0  0  0  2  0  0  0  0  0  0
  -30.7710  -14.5190   21.7510 C   0  0  0  0  0  2  0  0  0  0  0  0
  -32.6920  -15.1340   20.4370 C   0  0  0  0  0  2  0  0  0  0  0  0
  -30.7730  -17.1190   21.6280 C   0  0  0  0  0  2  0  0  0  0  0  0
  -32.5660  -16.5990   19.9460 C   0  0  0  0  0  2  0  0  0  0  0  0
  -31.4180  -14.3860   20.4370 N   0  0  0  0  0  0  0  0  0  0  0  0
  -31.2810  -17.3110   20.2370 N   0  0  2  0  0  4  0  0  0  0  0  0
  -30.5890  -16.9210   19.6170 H   0  0  0  0  0  0  0  0  0  0  0  0
  -25.4630  -13.4850   20.4170 C   0  0  0  0  0  0  0  0  0  0  0  0
  -24.4560  -12.7430   20.9730 C   0  0  0  0  0  0  0  0  0  0  0  0
  -24.7990  -11.3760   20.7410 C   0  0  0  0  0  0  0  0  0  0  0  0
  -26.3590  -12.5720   19.8800 N   0  0  0  0  0  0  0  0  0  0  0  0
  -25.9760  -11.2940   20.1330 N   0  0  0  0  0  0  0  0  0  0  0  0
  -24.0470  -10.1430   21.0110 C   0  0  0  0  0  0  0  0  0  0  0  0
  -24.5160   -9.1760   21.9290 C   0  0  0  0  0  3  0  0  0  0  0  0
  -23.7670   -8.0080   22.1840 C   0  0  0  0  0  3  0  0  0  0  0  0
  -22.5330   -7.7970   21.5220 C   0  0  0  0  0  0  0  0  0  0  0  0
  -22.0810   -8.7510   20.5930 C   0  0  0  0  0  3  0  0  0  0  0  0
  -22.8310   -9.9110   20.3370 C   0  0  0  0  0  3  0  0  0  0  0  0
  -21.7500   -6.6780   21.6860 O   0  0  0  0  0  0  0  0  0  0  0  0
  -21.7070   -6.0000   22.8770 C   0  0  0  0  0  0  0  0  0  0  0  0
  -21.2790   -6.6170   24.0720 C   0  0  0  0  0  3  0  0  0  0  0  0
  -21.1820   -5.8630   25.2580 C   0  0  0  0  0  3  0  0  0  0  0  0
  -21.5030   -4.4930   25.2510 C   0  0  0  0  0  0  0  0  0  0  0  0
  -21.9250   -3.8740   24.0610 C   0  0  0  0  0  3  0  0  0  0  0  0
  -22.0230   -4.6250   22.8760 C   0  0  0  0  0  0  0  0  0  0  0  0
  -22.4080   -4.0200   21.7270 F   0  0  0  0  0  0  0  0  0  0  0  0
  -21.4040   -3.7660   26.3890 F   0  0  0  0  0  0  0  0  0  0  0  0
  -23.1970  -13.2700   21.5990 C   0  0  0  0  0  0  0  0  0  0  0  0
  -22.6770  -12.5800   22.6080 N   0  0  0  0  0  0  0  0  0  0  0  0
  -22.6900  -14.3260   21.2240 O   0  0  0  0  0  0  0  0  0  0  0  0
  -23.1050  -11.7260   22.9310 H   0  0  0  0  0  0  0  0  0  0  0  0
  -21.8410  -12.9130   23.0660 H   0  0  0  0  0  0  0  0  0  0  0  0
  -25.6840  -14.8550   20.3040 N   0  0  0  0  0  0  0  0  0  0  0  0
  -25.0110  -15.5370   20.6350 H   0  0  0  0  0  0  0  0  0  0  0  0
  -26.4590  -15.2710   19.8050 H   0  0  0  0  0  0  0  0  0  0  0  0
  1  3  2  0
  2 49  1  0
  2  1  1  0
  4  2  1  0
  5  1  1  0
  5  6  1  0
  7  6  1  0
  7  8  1  0
  9 20  2  0
 10  8  1  0
 10 15  1  0
 11 19  1  0
 11 21  1  0
 12 18  1  0
 12 14  1  0
 13 19  1  0
 14 13  1  0
 15 14  2  0
 16 17  1  0
 16 10  2  0
 17 12  2  0
 18 11  1  0
 19  9  1  0
 21 23  2  0
 22 21  1  0
 24 22  1  0
 25 34  2  0
 25 30  1  0
 26 22  1  0
 26 30  1  0
 27 26  1  0
 28 29  1  0
 28 27  1  0
 29 25  1  0
 30 31  2  0
 31 32  1  0
 33 32  2  0
 34 33  1  0
 35  9  1  0
 35 36  1  0
 35 45  1  0
 36 39  1  0
 37 41  1  0
 37 36  1  0
 38 37  2  0
 41 40  1  0
 43 41  1  0
 43 44  1  0
 43 42  1  0
 45 48  1  1
 45 46  1  0
 47 45  1  0
 50 49  1  0
 50 65  1  0
 51 57  1  0
 51 64  1  0
 52 57  1  0
 53 54  1  0
 53 52  1  0
 55 54  1  0
 55 70  1  0
 55 56  1  0
 57 56  1  0
 58 51  2  0
 60 59  1  0
 61 64  1  0
 62 59  1  0
 63 65  1  0
 63 61  1  0
 64 60  1  0
 65 62  1  0
 65 66  1  6
 67 68  2  0
 68 87  1  0
 69 68  1  0
 69 72  1  0
 70 71  1  0
 70 67  1  0
 71 69  2  0
 72 73  1  0
 73 74  2  0
 75 78  1  0
 75 74  1  0
 76 75  2  0
 77 76  1  0
 77 72  2  0
 78 79  1  0
 79 80  1  0
 80 81  2  0
 82 81  1  0
 82 86  1  0
 83 82  2  0
 84 79  2  0
 84 83  1  0
 85 84  1  0
 87 88  1  0
 88 90  1  0
 88 91  1  0
 89 87  2  0
 92 67  1  0
 92 93  1  0
 94 92  1  0
M  ISO  4   7 101   8 101  51 100  64 100
M  END
>  <TORSDO>  (83) 
F 21

>  <SCORE>  (83) 
-11.006

>  <name>  (83) 
83

>  <ligand_id>  (83) 
83

>  <original_smiles>  (83) 
[H]c1c([H])c([H])c2c(c1[H])C([H])([H])C([H])([H])C([H])([H])C2([H])N([H])C(=O)C1([H])N(C(=O)C([H])(N([H])C(=O)C([H])(N([H])C([H])([H])[H])C([H])([H])[H])C(C([H])([H])[H])(C([H])([H])[H])C([H])([H])[H])C([H])([H])c2c([H])c(OC([H])([H])C([H])([H])C([H])([H])C(=O)N([H])C([H])([H])C([H])([H])[N+]3([H])C([H])([H])C([H])([H])N(C(=O)N4C([H])([H])C([H])([H])C([H])([H])C([H])(n5nc(-c6c([H])c([H])c(Oc7c([H])c([H])c(F)c([H])c7F)c([H])c6[H])c(C(=O)N([H])[H])c5N([H])[H])C4([H])[H])C([H])([H])C([H])([H])C3([H])[H])c([H])c([H])c2C1([H])[H]

>  <smiles>  (83) 
[H]c1c([H])c([H])c2c(c1[H])C([H])([H])C([H])([H])C([H])([H])C2([H])N([H])C(=O)C1([H])N(C(=O)C([H])(N([H])C(=O)C([H])(N([H])C([H])([H])[H])C([H])([H])[H])C(C([H])([H])[H])(C([H])([H])[H])C([H])([H])[H])C([H])([H])c2c([H])c(OC([H])([H])C([H])([H])C([H])([H])C(=O)N([H])C([H])([H])C([H])([H])[N+]3([H])C([H])([H])C([H])([H])N(C(=O)N4C([H])([H])C([H])([H])C([H])([H])C([H])(n5nc(-c6c([H])c([H])c(Oc7c([H])c([H])c(F)c([H])c7F)c([H])c6[H])c(C(=O)N([H])[H])c5N([H])[H])C4([H])[H])C([H])([H])C([H])([H])C3([H])[H])c([H])c([H])c2C1([H])[H]

$$$$
84:0:0
     RDKit          3D

 95103  0  0  1  0  0  0  0  0999 V2000
  -27.3330  -20.6410   18.3230 C   0  0  0  0  0  2  0  0  0  0  0  0
  -28.3020  -19.4520   18.5810 C   0  0  0  0  0  2  0  0  0  0  0  0
  -26.4830  -16.9440   20.7320 C   0  0  0  0  0  2  0  0  0  0  0  0
  -27.9300  -16.4370   20.8370 C   0  0  0  0  0  2  0  0  0  0  0  0
  -26.5090  -17.9970   19.6220 C   0  0  0  0  0  2  0  0  0  0  0  0
  -28.7110  -17.2620   19.8010 C   0  0  0  0  0  3  0  0  0  0  0  0
  -27.9000  -18.5030   19.6590 N   0  0  1  0  0  4  0  0  0  0  0  0
  -27.9940  -18.9950   20.5340 H   0  0  0  0  0  0  0  0  0  0  0  0
  -30.2100  -17.4890   20.1230 C   0  0  0  0  0  2  0  0  0  0  0  0
  -30.9060  -16.3830   20.9570 C   0  0  0  0  0  2  0  0  0  0  0  0
  -30.9760  -14.0690   19.9870 C   0  0  0  0  0  0  0  0  0  0  0  0
  -30.6080  -11.8630   18.9540 C   0  0  0  0  0  2  0  0  0  0  0  0
  -29.6290  -11.9880   17.7710 C   0  0  0  0  0  2  0  0  0  0  0  0
  -28.1630  -11.9210   18.2500 C   0  0  0  0  0  2  0  0  0  0  0  0
  -27.8790  -12.8510   19.4580 C   0  0  0  0  0  3  0  0  0  0  0  0
  -28.9600  -12.6560   20.5470 C   0  0  0  0  0  2  0  0  0  0  0  0
  -30.2750  -12.9070   19.9300 N   0  0  0  0  0  0  0  0  0  0  0  0
  -32.0330  -14.2620   19.3790 O   0  0  0  0  0  0  0  0  0  0  0  0
  -30.3970  -15.0310   20.7140 N   0  0  0  0  0  0  0  0  0  0  0  0
  -29.5490  -14.7670   21.1920 H   0  0  0  0  0  0  0  0  0  0  0  0
  -25.5090  -13.5690   20.1690 C   0  0  0  0  0  0  0  0  0  0  0  0
  -24.4300  -12.8500   20.6180 C   0  0  0  0  0  0  0  0  0  0  0  0
  -24.8580  -11.4880   20.6580 C   0  0  0  0  0  0  0  0  0  0  0  0
  -26.5280  -12.6470   19.9810 N   0  0  0  0  0  0  0  0  0  0  0  0
  -26.1400  -11.3940   20.3260 N   0  0  0  0  0  0  0  0  0  0  0  0
  -24.1060  -10.2590   20.9400 C   0  0  0  0  0  0  0  0  0  0  0  0
  -24.5320   -9.3420   21.9240 C   0  0  0  0  0  3  0  0  0  0  0  0
  -23.7840   -8.1740   22.1900 C   0  0  0  0  0  3  0  0  0  0  0  0
  -22.5940   -7.9150   21.4710 C   0  0  0  0  0  0  0  0  0  0  0  0
  -22.1860   -8.8190   20.4740 C   0  0  0  0  0  3  0  0  0  0  0  0
  -22.9350   -9.9780   20.2070 C   0  0  0  0  0  3  0  0  0  0  0  0
  -21.8190   -6.7940   21.6420 O   0  0  0  0  0  0  0  0  0  0  0  0
  -21.7730   -6.1280   22.8400 C   0  0  0  0  0  0  0  0  0  0  0  0
  -21.3930   -6.7740   24.0350 C   0  0  0  0  0  3  0  0  0  0  0  0
  -21.2890   -6.0390   25.2310 C   0  0  0  0  0  3  0  0  0  0  0  0
  -21.5570   -4.6570   25.2360 C   0  0  0  0  0  0  0  0  0  0  0  0
  -21.9300   -4.0090   24.0450 C   0  0  0  0  0  3  0  0  0  0  0  0
  -22.0350   -4.7410   22.8490 C   0  0  0  0  0  0  0  0  0  0  0  0
  -22.3740   -4.1080   21.7010 F   0  0  0  0  0  0  0  0  0  0  0  0
  -21.4510   -3.9490   26.3850 F   0  0  0  0  0  0  0  0  0  0  0  0
  -23.0500  -13.3790   20.8850 C   0  0  0  0  0  0  0  0  0  0  0  0
  -22.3240  -12.7630   21.8130 N   0  0  0  0  0  0  0  0  0  0  0  0
  -22.6230  -14.3760   20.3050 O   0  0  0  0  0  0  0  0  0  0  0  0
  -22.6770  -11.9580   22.3070 H   0  0  0  0  0  0  0  0  0  0  0  0
  -21.4020  -13.1090   22.0350 H   0  0  0  0  0  0  0  0  0  0  0  0
  -25.7000  -14.9150   19.8780 N   0  0  0  0  0  0  0  0  0  0  0  0
  -24.8930  -15.5240   19.8320 H   0  0  0  0  0  0  0  0  0  0  0  0
  -26.4360  -15.1840   19.2410 H   0  0  0  0  0  0  0  0  0  0  0  0
  -27.1120  -21.7220   19.4170 C   0  0  0  0  0  2  0  0  0  0  0  0
  -28.1940  -22.7350   19.5800 N   0  0  0  0  0  4  0  0  0  0  0  0
  -28.7980  -22.7210   18.7720 H   0  0  0  0  0  0  0  0  0  0  0  0
  -28.7540  -22.4880   20.3810 H   0  0  0  0  0  0  0  0  0  0  0  0
  -27.6720  -24.1250   19.7280 C   0  0  0  0  0  2  0  0  0  0  0  0
  -28.5190  -25.0840   20.5990 C   0  0  0  0  0  2  0  0  0  0  0  0
  -28.4390  -26.5000   20.3030 O   0  0  0  0  0  0  0  0  0  0  0  0
  -24.5860  -31.7630   23.2550 C   0  0  0  0  0  0  0  0  0  0  0  0
  -27.2430  -27.1930   20.3420 C   0  0  0  0  0  0  0  0  0  0  0  0
  -23.4000  -30.3380   21.6180 C   0  0  0  0  0  3  0  0  0  0  0  0
  -24.8670  -28.7450   20.2850 C   0  0  0  0  0  0  0  0  0  0  0  0
  -25.9420  -30.6500   21.4840 C   0  0  0  0  0  2  0  0  0  0  0  0
  -26.0230  -29.2580   20.8880 C   0  0  0  0  0  0  0  0  0  0  0  0
  -27.2110  -28.4850   20.9200 C   0  0  0  0  0  3  0  0  0  0  0  0
  -26.0720  -26.7210   19.7090 C   0  0  0  0  0  3  0  0  0  0  0  0
  -24.8870  -27.4720   19.6970 C   0  0  0  0  0  3  0  0  0  0  0  0
  -23.6400  -29.6250   20.2640 C   0  0  0  0  0  2  0  0  0  0  0  0
  -24.6580  -30.9340   22.1760 N   0  0  0  0  0  0  0  0  0  0  0  0
  -23.4950  -32.0640   23.7580 O   0  0  0  0  0  0  0  0  0  0  0  0
  -22.7070  -29.3530   22.5890 C   0  0  0  0  0  0  0  0  0  0  0  0
  -21.3830  -29.1810   22.4320 N   0  0  0  0  0  0  0  0  0  0  0  0
  -23.3590  -28.7410   23.4380 O   0  0  0  0  0  0  0  0  0  0  0  0
  -20.9310  -29.6900   21.6840 H   0  0  0  0  0  0  0  0  0  0  0  0
  -17.9740  -28.0660   22.9060 C   0  0  0  0  0  0  0  0  0  0  0  0
  -20.5360  -28.2750   23.2090 C   0  0  0  0  0  3  0  0  0  0  0  0
  -20.6180  -26.8260   22.6720 C   0  0  0  0  0  2  0  0  0  0  0  0
  -19.5140  -26.4940   21.6560 C   0  0  0  0  0  2  0  0  0  0  0  0
  -18.1250  -26.6980   22.2660 C   0  0  0  0  0  2  0  0  0  0  0  0
  -19.1030  -28.8120   23.3340 C   0  0  0  0  0  0  0  0  0  0  0  0
  -18.9070  -30.0920   23.8910 C   0  0  0  0  0  3  0  0  0  0  0  0
  -17.6150  -30.6320   24.0220 C   0  0  0  0  0  3  0  0  0  0  0  0
  -16.4990  -29.8860   23.6050 C   0  0  0  0  0  3  0  0  0  0  0  0
  -16.6790  -28.6040   23.0560 C   0  0  0  0  0  3  0  0  0  0  0  0
  -25.8670  -32.3910   23.8920 C   0  0  0  0  0  3  0  0  0  0  0  0
  -25.5560  -33.7930   24.2030 N   0  0  0  0  0  0  0  0  0  0  0  0
  -25.9010  -34.8350   23.4340 C   0  0  0  0  0  0  0  0  0  0  0  0
  -26.5880  -34.7170   22.4160 O   0  0  0  0  0  0  0  0  0  0  0  0
  -24.9520  -33.9590   24.9950 H   0  0  0  0  0  0  0  0  0  0  0  0
  -24.1830  -36.6250   23.0370 C   0  0  0  0  0  1  0  0  0  0  0  0
  -25.4150  -36.2320   23.8680 C   0  0  0  0  0  3  0  0  0  0  0  0
  -27.5460  -37.1180   24.7040 C   0  0  0  0  0  1  0  0  0  0  0  0
  -26.4520  -37.2800   23.7490 N   0  0  0  0  0  0  0  0  0  0  0  0
  -26.0480  -38.2040   23.8860 H   0  0  0  0  0  0  0  0  0  0  0  0
  -26.3550  -31.6260   25.1830 C   0  0  1  0  0  0  0  0  0  0  0  0
  -25.2400  -31.4050   26.2320 C   0  0  0  0  0  1  0  0  0  0  0  0
  -26.9420  -30.2440   24.8140 C   0  0  0  0  0  1  0  0  0  0  0  0
  -27.4980  -32.4220   25.8580 C   0  0  0  0  0  1  0  0  0  0  0  0
  1  2  1  0
  1 49  1  0
  2  7  1  0
  3  4  1  0
  5  7  1  0
  5  3  1  0
  6  9  1  0
  6  4  1  0
  7  6  1  0
  7  8  1  1
  9 10  1  0
 11 19  1  0
 12 17  1  0
 13 14  1  0
 13 12  1  0
 15 14  1  0
 15 24  1  0
 15 16  1  0
 17 11  1  0
 17 16  1  0
 18 11  2  0
 19 10  1  0
 19 20  1  0
 21 22  2  0
 22 23  1  0
 22 41  1  0
 23 26  1  0
 24 21  1  0
 24 25  1  0
 25 23  2  0
 26 27  1  0
 27 28  2  0
 29 32  1  0
 29 28  1  0
 30 29  2  0
 31 30  1  0
 31 26  2  0
 32 33  1  0
 33 38  2  0
 33 34  1  0
 34 35  2  0
 35 36  1  0
 36 40  1  0
 37 36  2  0
 38 37  1  0
 39 38  1  0
 41 42  1  0
 42 45  1  0
 42 44  1  0
 43 41  2  0
 46 21  1  0
 47 46  1  0
 48 46  1  0
 49 50  1  0
 50 53  1  0
 50 52  1  0
 51 50  1  0
 53 54  1  0
 55 57  1  0
 55 54  1  0
 56 67  2  0
 57 62  1  0
 58 66  1  0
 58 68  1  0
 59 61  1  0
 60 66  1  0
 61 62  2  0
 61 60  1  0
 63 57  2  0
 64 63  1  0
 64 59  2  0
 65 59  1  0
 65 58  1  0
 66 56  1  0
 68 70  2  0
 69 68  1  0
 71 69  1  0
 72 81  2  0
 72 77  1  0
 73 69  1  0
 73 77  1  0
 74 73  1  0
 75 76  1  0
 75 74  1  0
 76 72  1  0
 77 78  2  0
 78 79  1  0
 80 79  2  0
 81 80  1  0
 82 56  1  0
 82 83  1  0
 82 92  1  0
 83 86  1  0
 84 88  1  0
 84 83  1  0
 85 84  2  0
 88 87  1  0
 90 88  1  0
 90 91  1  0
 90 89  1  0
 92 95  1  1
 92 93  1  0
 94 92  1  0
M  ISO  4  11 100  19 100  54 101  55 101
M  END
>  <TORSDO>  (84) 
F 24

>  <SCORE>  (84) 
-11.193

>  <name>  (84) 
84

>  <ligand_id>  (84) 
84

>  <original_smiles>  (84) 
[H]c1c([H])c([H])c2c(c1[H])C([H])([H])C([H])([H])C([H])([H])C2([H])N([H])C(=O)C1([H])N(C(=O)C([H])(N([H])C(=O)C([H])(N([H])C([H])([H])[H])C([H])([H])[H])C(C([H])([H])[H])(C([H])([H])[H])C([H])([H])[H])C([H])([H])c2c([H])c(OC([H])([H])C([H])([H])[N+]([H])([H])C([H])([H])C([H])([H])C([H])([H])[N+]3([H])C([H])([H])C([H])([H])C([H])([H])C3([H])C([H])([H])C([H])([H])N([H])C(=O)N3C([H])([H])C([H])([H])C([H])([H])C([H])(n4nc(-c5c([H])c([H])c(Oc6c([H])c([H])c(F)c([H])c6F)c([H])c5[H])c(C(=O)N([H])[H])c4N([H])[H])C3([H])[H])c([H])c([H])c2C1([H])[H]

>  <smiles>  (84) 
[H]c1c([H])c([H])c2c(c1[H])C([H])([H])C([H])([H])C([H])([H])C2([H])N([H])C(=O)C1([H])N(C(=O)C([H])(N([H])C(=O)C([H])(N([H])C([H])([H])[H])C([H])([H])[H])C(C([H])([H])[H])(C([H])([H])[H])C([H])([H])[H])C([H])([H])c2c([H])c(OC([H])([H])C([H])([H])[N+]([H])([H])C([H])([H])C([H])([H])C([H])([H])[N+]3([H])C([H])([H])C([H])([H])C([H])([H])C3([H])C([H])([H])C([H])([H])N([H])C(=O)N3C([H])([H])C([H])([H])C([H])([H])C([H])(n4nc(-c5c([H])c([H])c(Oc6c([H])c([H])c(F)c([H])c6F)c([H])c5[H])c(C(=O)N([H])[H])c4N([H])[H])C3([H])[H])c([H])c([H])c2C1([H])[H]

$$$$
85:0:0
     RDKit          3D

 92100  0  0  1  0  0  0  0  0999 V2000
  -30.0180  -21.9560   20.2440 C   0  0  0  0  0  2  0  0  0  0  0  0
  -29.6160  -23.2610   20.8250 N   0  0  0  0  0  4  0  0  0  0  0  0
  -30.3210  -23.5320   21.4940 H   0  0  0  0  0  0  0  0  0  0  0  0
  -28.7690  -23.0940   21.3460 H   0  0  0  0  0  0  0  0  0  0  0  0
  -29.3560  -24.3930   19.9010 C   0  0  0  0  0  2  0  0  0  0  0  0
  -28.5930  -25.5230   20.6320 C   0  0  0  0  0  2  0  0  0  0  0  0
  -28.5690  -26.7360   19.8740 O   0  0  0  0  0  0  0  0  0  0  0  0
  -24.5350  -31.6940   23.0260 C   0  0  0  0  0  0  0  0  0  0  0  0
  -27.3740  -27.4130   19.9070 C   0  0  0  0  0  0  0  0  0  0  0  0
  -23.3950  -30.2660   21.3520 C   0  0  0  0  0  3  0  0  0  0  0  0
  -24.9210  -28.8080   19.9180 C   0  0  0  0  0  0  0  0  0  0  0  0
  -25.9040  -30.7350   21.1740 C   0  0  0  0  0  2  0  0  0  0  0  0
  -26.0510  -29.3750   20.5200 C   0  0  0  0  0  0  0  0  0  0  0  0
  -27.2840  -28.6880   20.5060 C   0  0  0  0  0  3  0  0  0  0  0  0
  -26.2280  -26.8470   19.3100 C   0  0  0  0  0  3  0  0  0  0  0  0
  -25.0030  -27.5440   19.3060 C   0  0  0  0  0  3  0  0  0  0  0  0
  -23.6410  -29.6120   19.9650 C   0  0  0  0  0  2  0  0  0  0  0  0
  -24.6280  -30.9130   21.9090 N   0  0  0  0  0  0  0  0  0  0  0  0
  -23.4410  -31.9140   23.5640 O   0  0  0  0  0  0  0  0  0  0  0  0
  -22.7800  -29.2080   22.2950 C   0  0  0  0  0  0  0  0  0  0  0  0
  -21.4610  -28.9900   22.1730 N   0  0  0  0  0  0  0  0  0  0  0  0
  -23.4880  -28.5840   23.0920 O   0  0  0  0  0  0  0  0  0  0  0  0
  -20.9500  -29.5490   21.5030 H   0  0  0  0  0  0  0  0  0  0  0  0
  -18.1220  -27.7090   22.6800 C   0  0  0  0  0  0  0  0  0  0  0  0
  -20.6770  -28.0140   22.9280 C   0  0  0  0  0  3  0  0  0  0  0  0
  -20.8020  -26.6010   22.3120 C   0  0  0  0  0  2  0  0  0  0  0  0
  -19.6930  -26.2840   21.3030 C   0  0  0  0  0  2  0  0  0  0  0  0
  -18.3170  -26.3820   21.9680 C   0  0  0  0  0  2  0  0  0  0  0  0
  -19.2300  -28.4830   23.1190 C   0  0  0  0  0  0  0  0  0  0  0  0
  -18.9900  -29.7260   23.7430 C   0  0  0  0  0  3  0  0  0  0  0  0
  -17.6760  -30.1930   23.9390 C   0  0  0  0  0  3  0  0  0  0  0  0
  -16.5840  -29.4160   23.5170 C   0  0  0  0  0  3  0  0  0  0  0  0
  -16.8070  -28.1770   22.8910 C   0  0  0  0  0  3  0  0  0  0  0  0
  -25.7930  -32.3650   23.6620 C   0  0  0  0  0  3  0  0  0  0  0  0
  -25.4100  -33.7230   24.0740 N   0  0  0  0  0  0  0  0  0  0  0  0
  -25.6640  -34.8310   23.3660 C   0  0  0  0  0  0  0  0  0  0  0  0
  -26.3170  -34.8220   22.3180 O   0  0  0  0  0  0  0  0  0  0  0  0
  -24.8290  -33.7990   24.8960 H   0  0  0  0  0  0  0  0  0  0  0  0
  -23.8310  -36.5360   23.1300 C   0  0  0  0  0  1  0  0  0  0  0  0
  -25.1050  -36.1620   23.9040 C   0  0  0  0  0  3  0  0  0  0  0  0
  -27.1930  -37.1250   24.7670 C   0  0  0  0  0  1  0  0  0  0  0  0
  -26.0750  -37.2780   23.8400 N   0  0  0  0  0  0  0  0  0  0  0  0
  -25.6190  -38.1650   24.0380 H   0  0  0  0  0  0  0  0  0  0  0  0
  -26.3810  -31.5550   24.8820 C   0  0  1  0  0  0  0  0  0  0  0  0
  -25.3250  -31.1800   25.9500 C   0  0  0  0  0  1  0  0  0  0  0  0
  -27.0450  -30.2460   24.3970 C   0  0  0  0  0  1  0  0  0  0  0  0
  -27.4910  -32.3820   25.5740 C   0  0  0  0  0  1  0  0  0  0  0  0
  -29.4020  -20.8400   21.1180 C   0  0  0  0  0  2  0  0  0  0  0  0
  -31.0070  -18.9380   20.3540 C   0  0  0  0  0  3  0  0  0  0  0  0
  -28.8330  -18.4150   21.3160 C   0  0  0  0  0  3  0  0  0  0  0  0
  -31.2930  -17.5540   20.2650 C   0  0  0  0  0  3  0  0  0  0  0  0
  -29.1290  -17.0450   21.2580 C   0  0  0  0  0  3  0  0  0  0  0  0
  -29.7690  -19.3760   20.8840 C   0  0  0  0  0  0  0  0  0  0  0  0
  -30.3610  -16.5990   20.7410 C   0  0  0  0  0  0  0  0  0  0  0  0
  -30.9760  -14.4060   19.7680 C   0  0  0  0  0  0  0  0  0  0  0  0
  -30.4630  -12.3310   18.5250 C   0  0  0  0  0  2  0  0  0  0  0  0
  -29.4120  -12.6430   17.4410 C   0  0  0  0  0  2  0  0  0  0  0  0
  -27.9910  -12.5100   18.0260 C   0  0  0  0  0  2  0  0  0  0  0  0
  -27.8130  -13.2850   19.3620 C   0  0  0  0  0  3  0  0  0  0  0  0
  -28.9770  -12.9800   20.3320 C   0  0  0  0  0  2  0  0  0  0  0  0
  -30.2540  -13.2610   19.6450 N   0  0  0  0  0  0  0  0  0  0  0  0
  -31.9420  -14.6840   19.0540 O   0  0  0  0  0  0  0  0  0  0  0  0
  -30.5710  -15.1960   20.7710 N   0  0  0  0  0  0  0  0  0  0  0  0
  -29.9720  -14.7050   21.4170 H   0  0  0  0  0  0  0  0  0  0  0  0
  -25.5350  -13.8850   20.4110 C   0  0  0  0  0  0  0  0  0  0  0  0
  -24.4920  -13.1050   20.8420 C   0  0  0  0  0  0  0  0  0  0  0  0
  -24.9100  -11.7520   20.6500 C   0  0  0  0  0  0  0  0  0  0  0  0
  -26.5190  -13.0030   19.9830 N   0  0  0  0  0  0  0  0  0  0  0  0
  -26.1530  -11.7110   20.1850 N   0  0  0  0  0  0  0  0  0  0  0  0
  -24.1770  -10.4920   20.8290 C   0  0  0  0  0  0  0  0  0  0  0  0
  -24.5990   -9.5160   21.7580 C   0  0  0  0  0  3  0  0  0  0  0  0
  -23.8650   -8.3220   21.9250 C   0  0  0  0  0  3  0  0  0  0  0  0
  -22.6930   -8.0980   21.1650 C   0  0  0  0  0  0  0  0  0  0  0  0
  -22.2870   -9.0650   20.2290 C   0  0  0  0  0  3  0  0  0  0  0  0
  -23.0220  -10.2490   20.0590 C   0  0  0  0  0  3  0  0  0  0  0  0
  -21.9320   -6.9550   21.2390 O   0  0  0  0  0  0  0  0  0  0  0  0
  -21.7570   -6.2820   22.4220 C   0  0  0  0  0  0  0  0  0  0  0  0
  -21.1780   -6.9000   23.5520 C   0  0  0  0  0  3  0  0  0  0  0  0
  -20.9540   -6.1520   24.7250 C   0  0  0  0  0  3  0  0  0  0  0  0
  -21.2950   -4.7870   24.7670 C   0  0  0  0  0  0  0  0  0  0  0  0
  -21.8660   -4.1680   23.6410 C   0  0  0  0  0  3  0  0  0  0  0  0
  -22.0910   -4.9120   22.4700 C   0  0  0  0  0  0  0  0  0  0  0  0
  -22.6210   -4.3060   21.3810 F   0  0  0  0  0  0  0  0  0  0  0  0
  -21.0750   -4.0680   25.8920 F   0  0  0  0  0  0  0  0  0  0  0  0
  -23.1520  -13.5860   21.3190 C   0  0  0  0  0  0  0  0  0  0  0  0
  -22.5260  -12.8550   22.2350 N   0  0  0  0  0  0  0  0  0  0  0  0
  -22.6720  -14.6460   20.9170 O   0  0  0  0  0  0  0  0  0  0  0  0
  -22.9310  -12.0060   22.6040 H   0  0  0  0  0  0  0  0  0  0  0  0
  -21.6310  -13.1620   22.5890 H   0  0  0  0  0  0  0  0  0  0  0  0
  -25.7210  -15.2610   20.3350 N   0  0  0  0  0  0  0  0  0  0  0  0
  -25.0070  -15.9270   20.6100 H   0  0  0  0  0  0  0  0  0  0  0  0
  -26.5680  -15.7090   20.0070 H   0  0  0  0  0  0  0  0  0  0  0  0
  1  2  1  0
  1 48  1  0
  2  4  1  0
  2  3  1  0
  5  6  1  0
  5  2  1  0
  7  9  1  0
  7  6  1  0
  8 19  2  0
  9 14  1  0
 10 18  1  0
 10 20  1  0
 11 17  1  0
 11 13  1  0
 12 18  1  0
 13 12  1  0
 14 13  2  0
 15  9  2  0
 16 15  1  0
 16 11  2  0
 17 10  1  0
 18  8  1  0
 20 22  2  0
 21 20  1  0
 23 21  1  0
 24 33  2  0
 24 29  1  0
 25 21  1  0
 25 29  1  0
 26 25  1  0
 27 28  1  0
 27 26  1  0
 28 24  1  0
 29 30  2  0
 30 31  1  0
 32 31  2  0
 33 32  1  0
 34  8  1  0
 34 35  1  0
 34 44  1  0
 35 38  1  0
 36 40  1  0
 36 35  1  0
 37 36  2  0
 40 39  1  0
 42 40  1  0
 42 43  1  0
 42 41  1  0
 44 47  1  1
 44 45  1  0
 46 44  1  0
 49 53  1  0
 51 49  2  0
 51 54  1  0
 52 50  1  0
 53 48  1  0
 53 50  2  0
 54 63  1  0
 54 52  2  0
 55 63  1  0
 56 61  1  0
 57 58  1  0
 57 56  1  0
 59 58  1  0
 59 68  1  0
 59 60  1  0
 61 55  1  0
 61 60  1  0
 62 55  2  0
 63 64  1  0
 65 66  2  0
 66 85  1  0
 67 70  1  0
 67 66  1  0
 68 69  1  0
 68 65  1  0
 69 67  2  0
 70 71  1  0
 71 72  2  0
 73 76  1  0
 73 72  1  0
 74 73  2  0
 75 74  1  0
 75 70  2  0
 76 77  1  0
 77 82  2  0
 77 78  1  0
 78 79  2  0
 79 80  1  0
 80 84  1  0
 81 80  2  0
 82 81  1  0
 83 82  1  0
 85 86  1  0
 86 89  1  0
 86 88  1  0
 87 85  2  0
 90 65  1  0
 90 91  1  0
 92 90  1  0
M  ISO  4   6 101   7 101  55 100  63 100
M  END
>  <TORSDO>  (85) 
F 21

>  <SCORE>  (85) 
-11.583

>  <name>  (85) 
85

>  <ligand_id>  (85) 
85

>  <original_smiles>  (85) 
[H]c1c([H])c([H])c2c(c1[H])C([H])([H])C([H])([H])C([H])([H])C2([H])N([H])C(=O)C1([H])N(C(=O)C([H])(N([H])C(=O)C([H])(N([H])C([H])([H])[H])C([H])([H])[H])C(C([H])([H])[H])(C([H])([H])[H])C([H])([H])[H])C([H])([H])c2c([H])c(OC([H])([H])C([H])([H])[N+]([H])([H])C([H])([H])C([H])([H])c3c([H])c([H])c(N([H])C(=O)N4C([H])([H])C([H])([H])C([H])([H])C([H])(n5nc(-c6c([H])c([H])c(Oc7c([H])c([H])c(F)c([H])c7F)c([H])c6[H])c(C(=O)N([H])[H])c5N([H])[H])C4([H])[H])c([H])c3[H])c([H])c([H])c2C1([H])[H]

>  <smiles>  (85) 
[H]c1c([H])c([H])c2c(c1[H])C([H])([H])C([H])([H])C([H])([H])C2([H])N([H])C(=O)C1([H])N(C(=O)C([H])(N([H])C(=O)C([H])(N([H])C([H])([H])[H])C([H])([H])[H])C(C([H])([H])[H])(C([H])([H])[H])C([H])([H])[H])C([H])([H])c2c([H])c(OC([H])([H])C([H])([H])[N+]([H])([H])C([H])([H])C([H])([H])c3c([H])c([H])c(N([H])C(=O)N4C([H])([H])C([H])([H])C([H])([H])C([H])(n5nc(-c6c([H])c([H])c(Oc7c([H])c([H])c(F)c([H])c7F)c([H])c6[H])c(C(=O)N([H])[H])c5N([H])[H])C4([H])[H])c([H])c3[H])c([H])c([H])c2C1([H])[H]

$$$$
86:0:0
     RDKit          3D

 93101  0  0  1  0  0  0  0  0999 V2000
  -30.1800  -20.0760   19.0690 C   0  0  0  0  0  3  0  0  0  0  0  0
  -29.9560  -21.4720   19.0330 C   0  0  0  0  0  3  0  0  0  0  0  0
  -29.2750  -19.2130   19.7270 C   0  0  0  0  0  0  0  0  0  0  0  0
  -28.8210  -22.0440   19.6610 C   0  0  0  0  0  0  0  0  0  0  0  0
  -28.1650  -19.7830   20.3880 C   0  0  0  0  0  0  0  0  0  0  0  0
  -27.9420  -21.1790   20.3570 C   0  0  0  0  0  0  0  0  0  0  0  0
  -27.2750  -18.9830   21.0240 F   0  0  0  0  0  0  0  0  0  0  0  0
  -26.8430  -21.6850   20.9660 F   0  0  0  0  0  0  0  0  0  0  0  0
  -29.4150  -17.6880   19.6160 C   0  0  0  0  0  2  0  0  0  0  0  0
  -30.1970  -16.9770   20.7490 C   0  0  0  0  0  2  0  0  0  0  0  0
  -30.6540  -14.5620   20.1030 C   0  0  0  0  0  0  0  0  0  0  0  0
  -30.3080  -12.4320   18.9050 C   0  0  0  0  0  2  0  0  0  0  0  0
  -29.2900  -12.6650   17.7680 C   0  0  0  0  0  2  0  0  0  0  0  0
  -27.8430  -12.5260   18.2820 C   0  0  0  0  0  2  0  0  0  0  0  0
  -27.5890  -13.3320   19.5840 C   0  0  0  0  0  3  0  0  0  0  0  0
  -28.7030  -13.0520   20.6180 C   0  0  0  0  0  2  0  0  0  0  0  0
  -29.9960  -13.3770   19.9870 N   0  0  0  0  0  0  0  0  0  0  0  0
  -31.7340  -14.7940   19.5530 O   0  0  0  0  0  0  0  0  0  0  0  0
  -29.9570  -15.5240   20.7350 N   0  0  0  0  0  0  0  0  0  0  0  0
  -29.0930  -15.2140   21.1550 H   0  0  0  0  0  0  0  0  0  0  0  0
  -25.2390  -13.9510   20.4360 C   0  0  0  0  0  0  0  0  0  0  0  0
  -24.1860  -13.1810   20.8530 C   0  0  0  0  0  0  0  0  0  0  0  0
  -24.6310  -11.8270   20.7710 C   0  0  0  0  0  0  0  0  0  0  0  0
  -26.2620  -13.0640   20.1310 N   0  0  0  0  0  0  0  0  0  0  0  0
  -25.9010  -11.7810   20.3890 N   0  0  0  0  0  0  0  0  0  0  0  0
  -23.9060  -10.5670   20.9800 C   0  0  0  0  0  0  0  0  0  0  0  0
  -24.3730   -9.5900   21.8850 C   0  0  0  0  0  3  0  0  0  0  0  0
  -23.6500   -8.3930   22.0820 C   0  0  0  0  0  3  0  0  0  0  0  0
  -22.4470   -8.1680   21.3730 C   0  0  0  0  0  0  0  0  0  0  0  0
  -21.9990   -9.1330   20.4540 C   0  0  0  0  0  3  0  0  0  0  0  0
  -22.7220  -10.3210   20.2560 C   0  0  0  0  0  3  0  0  0  0  0  0
  -21.6920   -7.0240   21.4810 O   0  0  0  0  0  0  0  0  0  0  0  0
  -21.6750   -6.2790   22.6320 C   0  0  0  0  0  0  0  0  0  0  0  0
  -21.2810   -6.8280   23.8710 C   0  0  0  0  0  3  0  0  0  0  0  0
  -21.2110   -6.0100   25.0150 C   0  0  0  0  0  3  0  0  0  0  0  0
  -21.5270   -4.6400   24.9220 C   0  0  0  0  0  0  0  0  0  0  0  0
  -21.9140   -4.0890   23.6880 C   0  0  0  0  0  3  0  0  0  0  0  0
  -21.9850   -4.9060   22.5450 C   0  0  0  0  0  0  0  0  0  0  0  0
  -22.3390   -4.3660   21.3550 F   0  0  0  0  0  0  0  0  0  0  0  0
  -21.4520   -3.8510   26.0190 F   0  0  0  0  0  0  0  0  0  0  0  0
  -22.8120  -13.6650   21.2140 C   0  0  0  0  0  0  0  0  0  0  0  0
  -22.1280  -12.9580   22.1080 N   0  0  0  0  0  0  0  0  0  0  0  0
  -22.3540  -14.7040   20.7400 O   0  0  0  0  0  0  0  0  0  0  0  0
  -22.5120  -12.1160   22.5120 H   0  0  0  0  0  0  0  0  0  0  0  0
  -21.2080  -13.2620   22.3910 H   0  0  0  0  0  0  0  0  0  0  0  0
  -25.4090  -15.3230   20.2730 N   0  0  0  0  0  0  0  0  0  0  0  0
  -24.6590  -15.9850   20.4410 H   0  0  0  0  0  0  0  0  0  0  0  0
  -26.2430  -15.7570   19.9000 H   0  0  0  0  0  0  0  0  0  0  0  0
  -28.4580  -23.5410   19.5430 C   0  0  0  0  0  2  0  0  0  0  0  0
  -30.5960  -24.6250   20.4580 C   0  0  0  0  0  1  0  0  0  0  0  0
  -29.6030  -24.5550   19.2840 C   0  0  0  0  0  3  0  0  0  0  0  0
  -29.1080  -25.9700   18.8610 C   0  0  0  0  0  2  0  0  0  0  0  0
  -28.7150  -26.8050   19.9630 O   0  0  0  0  0  0  0  0  0  0  0  0
  -24.6590  -31.7290   23.1250 C   0  0  0  0  0  0  0  0  0  0  0  0
  -27.5070  -27.4770   19.9320 C   0  0  0  0  0  0  0  0  0  0  0  0
  -23.5260  -30.3380   21.4220 C   0  0  0  0  0  3  0  0  0  0  0  0
  -25.0520  -28.8960   19.9710 C   0  0  0  0  0  0  0  0  0  0  0  0
  -26.0400  -30.7870   21.2750 C   0  0  0  0  0  2  0  0  0  0  0  0
  -26.1820  -29.4390   20.5950 C   0  0  0  0  0  0  0  0  0  0  0  0
  -27.4060  -28.7320   20.5810 C   0  0  0  0  0  3  0  0  0  0  0  0
  -26.3490  -26.9390   19.3270 C   0  0  0  0  0  3  0  0  0  0  0  0
  -25.1290  -27.6430   19.3400 C   0  0  0  0  0  3  0  0  0  0  0  0
  -23.7770  -29.7090   20.0250 C   0  0  0  0  0  2  0  0  0  0  0  0
  -24.7590  -30.9650   22.0000 N   0  0  0  0  0  0  0  0  0  0  0  0
  -23.5600  -31.9470   23.6560 O   0  0  0  0  0  0  0  0  0  0  0  0
  -22.8970  -29.2650   22.3410 C   0  0  0  0  0  0  0  0  0  0  0  0
  -21.5770  -29.0570   22.2010 N   0  0  0  0  0  0  0  0  0  0  0  0
  -23.5930  -28.6260   23.1340 O   0  0  0  0  0  0  0  0  0  0  0  0
  -21.0760  -29.6270   21.5350 H   0  0  0  0  0  0  0  0  0  0  0  0
  -18.2260  -27.7880   22.6610 C   0  0  0  0  0  0  0  0  0  0  0  0
  -20.7820  -28.0710   22.9310 C   0  0  0  0  0  3  0  0  0  0  0  0
  -20.9020  -26.6710   22.2860 C   0  0  0  0  0  2  0  0  0  0  0  0
  -19.7990  -26.3800   21.2640 C   0  0  0  0  0  2  0  0  0  0  0  0
  -18.4190  -26.4750   21.9220 C   0  0  0  0  0  2  0  0  0  0  0  0
  -19.3370  -28.5460   23.1220 C   0  0  0  0  0  0  0  0  0  0  0  0
  -19.1040  -29.7770   23.7720 C   0  0  0  0  0  3  0  0  0  0  0  0
  -17.7930  -30.2510   23.9680 C   0  0  0  0  0  3  0  0  0  0  0  0
  -16.6970  -29.4910   23.5250 C   0  0  0  0  0  3  0  0  0  0  0  0
  -16.9150  -28.2610   22.8780 C   0  0  0  0  0  3  0  0  0  0  0  0
  -25.9130  -32.3850   23.7820 C   0  0  0  0  0  3  0  0  0  0  0  0
  -25.5600  -33.7690   24.1260 N   0  0  0  0  0  0  0  0  0  0  0  0
  -25.8830  -34.8410   23.3890 C   0  0  0  0  0  0  0  0  0  0  0  0
  -26.5790  -34.7700   22.3730 O   0  0  0  0  0  0  0  0  0  0  0  0
  -24.9430  -33.8960   24.9140 H   0  0  0  0  0  0  0  0  0  0  0  0
  -24.1130  -36.5890   23.0200 C   0  0  0  0  0  1  0  0  0  0  0  0
  -25.3470  -36.2080   23.8530 C   0  0  0  0  0  3  0  0  0  0  0  0
  -27.4350  -37.1410   24.7440 C   0  0  0  0  0  1  0  0  0  0  0  0
  -26.3520  -37.2910   23.7760 N   0  0  0  0  0  0  0  0  0  0  0  0
  -25.9170  -38.1970   23.9250 H   0  0  0  0  0  0  0  0  0  0  0  0
  -26.4240  -31.6070   25.0580 C   0  0  1  0  0  0  0  0  0  0  0  0
  -25.3160  -31.3240   26.0980 C   0  0  0  0  0  1  0  0  0  0  0  0
  -27.0520  -30.2530   24.6540 C   0  0  0  0  0  1  0  0  0  0  0  0
  -27.5390  -32.4210   25.7550 C   0  0  0  0  0  1  0  0  0  0  0  0
  1  3  1  0
  2  1  2  0
  2  4  1  0
  3  5  2  0
  4  6  2  0
  5  7  1  0
  6  5  1  0
  6  8  1  0
  9  3  1  0
  9 10  1  0
 11 19  1  0
 12 17  1  0
 13 14  1  0
 13 12  1  0
 15 14  1  0
 15 24  1  0
 15 16  1  0
 17 11  1  0
 17 16  1  0
 18 11  2  0
 19 10  1  0
 19 20  1  0
 21 22  2  0
 22 41  1  0
 23 22  1  0
 23 26  1  0
 24 25  1  0
 24 21  1  0
 25 23  2  0
 26 27  1  0
 27 28  2  0
 29 32  1  0
 29 28  1  0
 30 29  2  0
 31 30  1  0
 31 26  2  0
 32 33  1  0
 33 34  1  0
 34 35  2  0
 36 35  1  0
 36 40  1  0
 37 36  2  0
 38 33  2  0
 38 37  1  0
 39 38  1  0
 41 42  1  0
 42 45  1  0
 42 44  1  0
 43 41  2  0
 46 21  1  0
 46 47  1  0
 48 46  1  0
 49  4  1  0
 51 49  1  0
 51 50  1  0
 52 51  1  0
 52 53  1  0
 54 65  2  0
 55 53  1  0
 55 60  1  0
 56 64  1  0
 56 66  1  0
 57 63  1  0
 57 59  1  0
 58 64  1  0
 59 58  1  0
 60 59  2  0
 61 62  1  0
 61 55  2  0
 62 57  2  0
 63 56  1  0
 64 54  1  0
 66 68  2  0
 67 66  1  0
 69 67  1  0
 70 79  2  0
 70 75  1  0
 71 67  1  0
 71 75  1  0
 72 71  1  0
 73 74  1  0
 73 72  1  0
 74 70  1  0
 75 76  2  0
 76 77  1  0
 78 77  2  0
 79 78  1  0
 80 54  1  0
 80 81  1  0
 80 90  1  0
 81 84  1  0
 82 86  1  0
 82 81  1  0
 83 82  2  0
 86 85  1  0
 88 86  1  0
 88 89  1  0
 88 87  1  0
 90 93  1  1
 90 91  1  0
 92 90  1  0
M  ISO  4  11 100  19 100  52 101  53 101
M  END
>  <TORSDO>  (86) 
F 21

>  <SCORE>  (86) 
-12.587

>  <name>  (86) 
86

>  <ligand_id>  (86) 
86

>  <original_smiles>  (86) 
[H]c1c([H])c([H])c2c(c1[H])C([H])([H])C([H])([H])C([H])([H])C2([H])N([H])C(=O)C1([H])N(C(=O)C([H])(N([H])C(=O)C([H])(N([H])C([H])([H])[H])C([H])([H])[H])C(C([H])([H])[H])(C([H])([H])[H])C([H])([H])[H])C([H])([H])c2c([H])c(OC([H])([H])C([H])(C([H])([H])[H])C([H])([H])c3c([H])c([H])c(C([H])([H])C([H])([H])N([H])C(=O)N4C([H])([H])C([H])([H])C([H])([H])C([H])(n5nc(-c6c([H])c([H])c(Oc7c([H])c([H])c(F)c([H])c7F)c([H])c6[H])c(C(=O)N([H])[H])c5N([H])[H])C4([H])[H])c(F)c3F)c([H])c([H])c2C1([H])[H]

>  <smiles>  (86) 
[H]c1c([H])c([H])c2c(c1[H])C([H])([H])C([H])([H])C([H])([H])C2([H])N([H])C(=O)C1([H])N(C(=O)C([H])(N([H])C(=O)C([H])(N([H])C([H])([H])[H])C([H])([H])[H])C(C([H])([H])[H])(C([H])([H])[H])C([H])([H])[H])C([H])([H])c2c([H])c(OC([H])([H])C([H])(C([H])([H])[H])C([H])([H])c3c([H])c([H])c(C([H])([H])C([H])([H])N([H])C(=O)N4C([H])([H])C([H])([H])C([H])([H])C([H])(n5nc(-c6c([H])c([H])c(Oc7c([H])c([H])c(F)c([H])c7F)c([H])c6[H])c(C(=O)N([H])[H])c5N([H])[H])C4([H])[H])c(F)c3F)c([H])c([H])c2C1([H])[H]

$$$$
87:0:0
     RDKit          3D

 91 99  0  0  1  0  0  0  0  0999 V2000
  -29.3080  -20.8880   19.4250 C   0  0  0  0  0  3  0  0  0  0  0  0
  -28.8470  -22.2490   19.1890 C   0  0  0  0  0  3  0  0  0  0  0  0
  -29.8910  -21.5260   21.6120 C   0  0  0  0  0  3  0  0  0  0  0  0
  -29.8120  -20.4200   20.6760 C   0  0  0  0  0  0  0  0  0  0  0  0
  -28.8510  -23.3190   20.1590 C   0  0  0  0  0  0  0  0  0  0  0  0
  -29.4450  -22.8890   21.3810 C   0  0  0  0  0  0  0  0  0  0  0  0
  -29.5440  -23.7790   22.3980 F   0  0  0  0  0  0  0  0  0  0  0  0
  -27.9900  -24.6990   19.9200 C   0  0  0  0  0  2  0  0  0  0  0  0
  -28.2330  -26.1520   20.3880 O   0  0  0  0  0  0  0  0  0  0  0  0
  -24.5930  -31.8750   23.2360 C   0  0  0  0  0  0  0  0  0  0  0  0
  -27.1850  -27.1400   20.2700 C   0  0  0  0  0  0  0  0  0  0  0  0
  -23.4000  -30.4720   21.5960 C   0  0  0  0  0  3  0  0  0  0  0  0
  -24.8580  -28.8880   20.1870 C   0  0  0  0  0  0  0  0  0  0  0  0
  -25.9570  -30.7200   21.4650 C   0  0  0  0  0  2  0  0  0  0  0  0
  -26.0230  -29.3250   20.8280 C   0  0  0  0  0  0  0  0  0  0  0  0
  -27.1820  -28.4640   20.8640 C   0  0  0  0  0  3  0  0  0  0  0  0
  -26.0040  -26.8170   19.5630 C   0  0  0  0  0  3  0  0  0  0  0  0
  -24.8650  -27.6530   19.5270 C   0  0  0  0  0  3  0  0  0  0  0  0
  -23.6280  -29.7850   20.2220 C   0  0  0  0  0  2  0  0  0  0  0  0
  -24.6680  -31.0480   22.1520 N   0  0  0  0  0  0  0  0  0  0  0  0
  -23.5040  -32.1700   23.7540 O   0  0  0  0  0  0  0  0  0  0  0  0
  -22.7150  -29.4760   22.5630 C   0  0  0  0  0  0  0  0  0  0  0  0
  -21.3950  -29.2860   22.4090 N   0  0  0  0  0  0  0  0  0  0  0  0
  -23.3720  -28.8770   23.4190 O   0  0  0  0  0  0  0  0  0  0  0  0
  -20.9280  -29.8140   21.6860 H   0  0  0  0  0  0  0  0  0  0  0  0
  -18.0180  -28.0190   22.8070 C   0  0  0  0  0  0  0  0  0  0  0  0
  -20.5570  -28.3600   23.1780 C   0  0  0  0  0  3  0  0  0  0  0  0
  -20.7200  -26.9090   22.6680 C   0  0  0  0  0  2  0  0  0  0  0  0
  -19.6720  -26.5180   21.6210 C   0  0  0  0  0  2  0  0  0  0  0  0
  -18.2580  -26.6520   22.1920 C   0  0  0  0  0  2  0  0  0  0  0  0
  -19.0970  -28.8280   23.2570 C   0  0  0  0  0  0  0  0  0  0  0  0
  -18.8170  -30.1050   23.7930 C   0  0  0  0  0  3  0  0  0  0  0  0
  -17.4940  -30.5730   23.8830 C   0  0  0  0  0  3  0  0  0  0  0  0
  -16.4310  -29.7620   23.4490 C   0  0  0  0  0  3  0  0  0  0  0  0
  -16.6940  -28.4880   22.9190 C   0  0  0  0  0  3  0  0  0  0  0  0
  -25.8710  -32.5100   23.8680 C   0  0  0  0  0  3  0  0  0  0  0  0
  -26.3640  -31.7520   25.1630 C   0  0  1  0  0  0  0  0  0  0  0  0
  -25.2530  -31.5300   26.2190 C   0  0  0  0  0  1  0  0  0  0  0  0
  -26.9460  -30.3670   24.7990 C   0  0  0  0  0  1  0  0  0  0  0  0
  -27.5180  -32.5430   25.8270 C   0  0  0  0  0  1  0  0  0  0  0  0
  -25.5590  -33.9120   24.1890 N   0  0  0  0  0  0  0  0  0  0  0  0
  -25.8960  -34.9630   23.4290 C   0  0  0  0  0  0  0  0  0  0  0  0
  -26.5680  -34.8550   22.3990 O   0  0  0  0  0  0  0  0  0  0  0  0
  -24.9710  -34.0710   24.9920 H   0  0  0  0  0  0  0  0  0  0  0  0
  -24.1700  -36.7590   23.0670 C   0  0  0  0  0  1  0  0  0  0  0  0
  -25.4070  -36.3530   23.8820 C   0  0  0  0  0  3  0  0  0  0  0  0
  -27.5390  -37.2380   24.7200 C   0  0  0  0  0  1  0  0  0  0  0  0
  -26.4380  -37.4090   23.7740 N   0  0  0  0  0  0  0  0  0  0  0  0
  -26.0320  -38.3270   23.9260 H   0  0  0  0  0  0  0  0  0  0  0  0
  -30.1470  -18.8470   21.0980 C   0  0  0  0  0  3  0  0  0  0  0  0
  -31.4230  -18.7660   21.9790 C   0  0  0  0  0  2  0  0  0  0  0  0
  -31.2790  -19.3490   23.1720 F   0  0  0  0  0  0  0  0  0  0  0  0
  -30.2420  -17.5350   20.0730 C   0  0  0  0  0  2  0  0  0  0  0  0
  -30.8150  -14.8830   20.1680 C   0  0  0  0  0  0  0  0  0  0  0  0
  -30.5920  -12.5440   19.2280 C   0  0  0  0  0  2  0  0  0  0  0  0
  -29.6710  -12.6160   17.9870 C   0  0  0  0  0  2  0  0  0  0  0  0
  -28.1900  -12.4870   18.4060 C   0  0  0  0  0  2  0  0  0  0  0  0
  -27.8380  -13.3590   19.6460 C   0  0  0  0  0  3  0  0  0  0  0  0
  -28.9050  -13.2710   20.7610 C   0  0  0  0  0  2  0  0  0  0  0  0
  -30.1960  -13.6360   20.1650 N   0  0  0  0  0  0  0  0  0  0  0  0
  -31.9420  -14.9710   19.6700 O   0  0  0  0  0  0  0  0  0  0  0  0
  -30.1150  -16.0430   20.5530 N   0  0  0  0  0  0  0  0  0  0  0  0
  -29.2880  -15.8560   21.1050 H   0  0  0  0  0  0  0  0  0  0  0  0
  -25.4770  -13.9600   20.4320 C   0  0  0  0  0  0  0  0  0  0  0  0
  -24.4110  -13.1950   20.8190 C   0  0  0  0  0  0  0  0  0  0  0  0
  -24.8560  -11.8370   20.7630 C   0  0  0  0  0  0  0  0  0  0  0  0
  -26.5020  -13.0710   20.1570 N   0  0  0  0  0  0  0  0  0  0  0  0
  -26.1380  -11.7870   20.4170 N   0  0  0  0  0  0  0  0  0  0  0  0
  -24.1150  -10.5820   20.9640 C   0  0  0  0  0  0  0  0  0  0  0  0
  -24.5440   -9.6170   21.9010 C   0  0  0  0  0  3  0  0  0  0  0  0
  -23.8080   -8.4280   22.0900 C   0  0  0  0  0  3  0  0  0  0  0  0
  -22.6280   -8.1970   21.3420 C   0  0  0  0  0  0  0  0  0  0  0  0
  -22.2150   -9.1550   20.4010 C   0  0  0  0  0  3  0  0  0  0  0  0
  -22.9520  -10.3350   20.2070 C   0  0  0  0  0  3  0  0  0  0  0  0
  -21.8610   -7.0630   21.4400 O   0  0  0  0  0  0  0  0  0  0  0  0
  -21.7900   -6.3350   22.6030 C   0  0  0  0  0  0  0  0  0  0  0  0
  -21.3470   -6.9080   23.8160 C   0  0  0  0  0  3  0  0  0  0  0  0
  -21.2270   -6.1080   24.9700 C   0  0  0  0  0  3  0  0  0  0  0  0
  -21.5430   -4.7360   24.9110 C   0  0  0  0  0  0  0  0  0  0  0  0
  -21.9840   -4.1660   23.7060 C   0  0  0  0  0  3  0  0  0  0  0  0
  -22.1070   -4.9630   22.5560 C   0  0  0  0  0  0  0  0  0  0  0  0
  -22.5080   -4.4030   21.3870 F   0  0  0  0  0  0  0  0  0  0  0  0
  -21.4220   -3.9660   26.0160 F   0  0  0  0  0  0  0  0  0  0  0  0
  -23.0320  -13.6920   21.1390 C   0  0  0  0  0  0  0  0  0  0  0  0
  -22.3190  -12.9950   22.0180 N   0  0  0  0  0  0  0  0  0  0  0  0
  -22.5950  -14.7310   20.6430 O   0  0  0  0  0  0  0  0  0  0  0  0
  -22.6830  -12.1500   22.4350 H   0  0  0  0  0  0  0  0  0  0  0  0
  -21.3940  -13.3060   22.2760 H   0  0  0  0  0  0  0  0  0  0  0  0
  -25.6580  -15.3290   20.2660 N   0  0  0  0  0  0  0  0  0  0  0  0
  -24.9000  -15.9920   20.3830 H   0  0  0  0  0  0  0  0  0  0  0  0
  -26.5190  -15.7580   19.9490 H   0  0  0  0  0  0  0  0  0  0  0  0
  1  4  1  0
  2  1  2  0
  2  5  1  0
  4 50  1  0
  4  3  2  0
  5  6  2  0
  6  3  1  0
  6  7  1  0
  8  5  1  0
  8  9  1  0
 10 21  2  0
 11  9  1  0
 11 16  1  0
 12 20  1  0
 12 22  1  0
 13 19  1  0
 13 15  1  0
 14 20  1  0
 15 16  2  0
 15 14  1  0
 17 11  2  0
 18 17  1  0
 18 13  2  0
 19 12  1  0
 20 10  1  0
 22 24  2  0
 23 22  1  0
 25 23  1  0
 26 35  2  0
 26 31  1  0
 27 23  1  0
 27 31  1  0
 28 27  1  0
 29 30  1  0
 29 28  1  0
 30 26  1  0
 31 32  2  0
 32 33  1  0
 34 33  2  0
 35 34  1  0
 36 10  1  0
 36 41  1  0
 36 37  1  0
 37 40  1  1
 37 38  1  0
 39 37  1  0
 41 44  1  0
 42 46  1  0
 42 41  1  0
 43 42  2  0
 46 45  1  0
 48 46  1  0
 48 49  1  0
 48 47  1  0
 50 53  1  0
 50 51  1  0
 51 52  1  0
 53 62  1  0
 54 62  1  0
 55 60  1  0
 56 57  1  0
 56 55  1  0
 58 57  1  0
 58 67  1  0
 58 59  1  0
 60 54  1  0
 60 59  1  0
 61 54  2  0
 62 63  1  0
 64 65  2  0
 65 84  1  0
 66 65  1  0
 66 69  1  0
 67 68  1  0
 67 64  1  0
 68 66  2  0
 69 70  1  0
 70 71  2  0
 72 75  1  0
 72 71  1  0
 73 72  2  0
 74 73  1  0
 74 69  2  0
 75 76  1  0
 76 77  1  0
 77 78  2  0
 79 78  1  0
 79 83  1  0
 80 79  2  0
 81 76  2  0
 81 80  1  0
 82 81  1  0
 84 85  1  0
 85 88  1  0
 85 87  1  0
 86 84  2  0
 89 90  1  0
 89 64  1  0
 91 89  1  0
M  ISO  4   8 101   9 101  54 100  62 100
M  END
>  <TORSDO>  (87) 
F 20

>  <SCORE>  (87) 
-13.945

>  <name>  (87) 
87

>  <ligand_id>  (87) 
87

>  <original_smiles>  (87) 
[H]c1c([H])c([H])c2c(c1[H])C([H])([H])C([H])([H])C([H])([H])C2([H])N([H])C(=O)C1([H])N(C(=O)C([H])(N([H])C(=O)C([H])(N([H])C([H])([H])[H])C([H])([H])[H])C(C([H])([H])[H])(C([H])([H])[H])C([H])([H])[H])C([H])([H])c2c([H])c(OC([H])([H])c3c([H])c([H])c(C([H])(C([H])([H])F)C([H])([H])N([H])C(=O)N4C([H])([H])C([H])([H])C([H])([H])C([H])(n5nc(-c6c([H])c([H])c(Oc7c([H])c([H])c(F)c([H])c7F)c([H])c6[H])c(C(=O)N([H])[H])c5N([H])[H])C4([H])[H])c([H])c3F)c([H])c([H])c2C1([H])[H]

>  <smiles>  (87) 
[H]c1c([H])c([H])c2c(c1[H])C([H])([H])C([H])([H])C([H])([H])C2([H])N([H])C(=O)C1([H])N(C(=O)C([H])(N([H])C(=O)C([H])(N([H])C([H])([H])[H])C([H])([H])[H])C(C([H])([H])[H])(C([H])([H])[H])C([H])([H])[H])C([H])([H])c2c([H])c(OC([H])([H])c3c([H])c([H])c(C([H])(C([H])([H])F)C([H])([H])N([H])C(=O)N4C([H])([H])C([H])([H])C([H])([H])C([H])(n5nc(-c6c([H])c([H])c(Oc7c([H])c([H])c(F)c([H])c7F)c([H])c6[H])c(C(=O)N([H])[H])c5N([H])[H])C4([H])[H])c([H])c3F)c([H])c([H])c2C1([H])[H]

$$$$
88:0:0
     RDKit          3D

 95103  0  0  1  0  0  0  0  0999 V2000
  -31.1080  -19.2590   19.3970 C   0  0  0  0  0  3  0  0  0  0  0  0
  -28.9750  -18.5210   20.3090 C   0  0  0  0  0  3  0  0  0  0  0  0
  -30.2450  -18.2060   19.7790 C   0  0  0  0  0  0  0  0  0  0  0  0
  -29.4090  -20.9160   19.9510 C   0  0  0  0  0  0  0  0  0  0  0  0
  -30.6960  -20.5980   19.4760 C   0  0  0  0  0  0  0  0  0  0  0  0
  -28.5600  -19.8720   20.3920 C   0  0  0  0  0  0  0  0  0  0  0  0
  -31.5300  -21.5820   19.0630 F   0  0  0  0  0  0  0  0  0  0  0  0
  -27.3220  -20.1600   20.8600 F   0  0  0  0  0  0  0  0  0  0  0  0
  -30.4530  -16.5040   17.9710 C   0  0  0  0  0  1  0  0  0  0  0  0
  -30.7090  -16.7860   19.4640 C   0  0  0  0  0  3  0  0  0  0  0  0
  -30.8930  -14.5240   20.3810 C   0  0  0  0  0  0  0  0  0  0  0  0
  -30.5480  -12.3490   19.3310 C   0  0  0  0  0  2  0  0  0  0  0  0
  -29.6360  -12.5440   18.1030 C   0  0  0  0  0  2  0  0  0  0  0  0
  -28.1570  -12.4240   18.5140 C   0  0  0  0  0  2  0  0  0  0  0  0
  -27.7990  -13.2850   19.7570 C   0  0  0  0  0  3  0  0  0  0  0  0
  -28.8450  -13.1320   20.8860 C   0  0  0  0  0  2  0  0  0  0  0  0
  -30.1730  -13.3770   20.3130 N   0  0  0  0  0  0  0  0  0  0  0  0
  -32.1030  -14.5530   20.1540 O   0  0  0  0  0  0  0  0  0  0  0  0
  -30.1850  -15.6670   20.2760 N   0  0  0  0  0  0  0  0  0  0  0  0
  -29.1890  -15.6170   20.4250 H   0  0  0  0  0  0  0  0  0  0  0  0
  -25.3890  -13.8760   20.4270 C   0  0  0  0  0  0  0  0  0  0  0  0
  -24.3220  -13.0970   20.7880 C   0  0  0  0  0  0  0  0  0  0  0  0
  -24.7970  -11.7500   20.7850 C   0  0  0  0  0  0  0  0  0  0  0  0
  -26.4460  -13.0020   20.2270 N   0  0  0  0  0  0  0  0  0  0  0  0
  -26.0930  -11.7200   20.5040 N   0  0  0  0  0  0  0  0  0  0  0  0
  -24.0790  -10.4830   20.9780 C   0  0  0  0  0  0  0  0  0  0  0  0
  -24.4950   -9.5360   21.9380 C   0  0  0  0  0  3  0  0  0  0  0  0
  -23.7770   -8.3330   22.1180 C   0  0  0  0  0  3  0  0  0  0  0  0
  -22.6280   -8.0700   21.3350 C   0  0  0  0  0  0  0  0  0  0  0  0
  -22.2300   -9.0060   20.3640 C   0  0  0  0  0  3  0  0  0  0  0  0
  -22.9500  -10.1990   20.1840 C   0  0  0  0  0  3  0  0  0  0  0  0
  -21.8820   -6.9190   21.4230 O   0  0  0  0  0  0  0  0  0  0  0  0
  -21.8060   -6.1990   22.5880 C   0  0  0  0  0  0  0  0  0  0  0  0
  -21.3240   -6.7700   23.7860 C   0  0  0  0  0  3  0  0  0  0  0  0
  -21.1950   -5.9750   24.9420 C   0  0  0  0  0  3  0  0  0  0  0  0
  -21.5390   -4.6100   24.9010 C   0  0  0  0  0  0  0  0  0  0  0  0
  -22.0130   -4.0380   23.7070 C   0  0  0  0  0  3  0  0  0  0  0  0
  -22.1430   -4.8310   22.5530 C   0  0  0  0  0  0  0  0  0  0  0  0
  -22.5810   -4.2700   21.4000 F   0  0  0  0  0  0  0  0  0  0  0  0
  -21.4070   -3.8440   26.0100 F   0  0  0  0  0  0  0  0  0  0  0  0
  -22.9150  -13.5640   21.0250 C   0  0  0  0  0  0  0  0  0  0  0  0
  -22.1750  -12.8730   21.8850 N   0  0  0  0  0  0  0  0  0  0  0  0
  -22.4780  -14.5780   20.4820 O   0  0  0  0  0  0  0  0  0  0  0  0
  -22.5420  -12.0530   22.3450 H   0  0  0  0  0  0  0  0  0  0  0  0
  -21.2310  -13.1700   22.0880 H   0  0  0  0  0  0  0  0  0  0  0  0
  -25.5400  -15.2450   20.2300 N   0  0  0  0  0  0  0  0  0  0  0  0
  -24.7590  -15.8860   20.3050 H   0  0  0  0  0  0  0  0  0  0  0  0
  -26.3780  -15.6860   19.8740 H   0  0  0  0  0  0  0  0  0  0  0  0
  -28.9340  -22.3640   19.8770 C   0  0  0  0  0  2  0  0  0  0  0  0
  -29.5080  -23.2310   20.9340 N   0  0  0  0  0  4  0  0  0  0  0  0
  -30.4450  -22.9060   21.1180 H   0  0  0  0  0  0  0  0  0  0  0  0
  -28.9810  -23.0980   21.7830 H   0  0  0  0  0  0  0  0  0  0  0  0
  -29.6070  -24.6820   20.6050 C   0  0  0  0  0  2  0  0  0  0  0  0
  -28.2640  -25.3420   20.2430 C   0  0  0  0  0  2  0  0  0  0  0  0
  -28.4010  -26.7660   20.1800 O   0  0  0  0  0  0  0  0  0  0  0  0
  -24.5740  -31.8990   23.2620 C   0  0  0  0  0  0  0  0  0  0  0  0
  -27.2240  -27.4850   20.1580 C   0  0  0  0  0  0  0  0  0  0  0  0
  -23.3690  -30.5080   21.6100 C   0  0  0  0  0  3  0  0  0  0  0  0
  -24.8240  -28.9840   20.1770 C   0  0  0  0  0  0  0  0  0  0  0  0
  -25.8950  -30.8730   21.4150 C   0  0  0  0  0  2  0  0  0  0  0  0
  -25.9830  -29.5080   20.7660 C   0  0  0  0  0  0  0  0  0  0  0  0
  -27.1860  -28.7680   20.7470 C   0  0  0  0  0  3  0  0  0  0  0  0
  -26.0460  -26.9760   19.5600 C   0  0  0  0  0  3  0  0  0  0  0  0
  -24.8510  -27.7160   19.5720 C   0  0  0  0  0  3  0  0  0  0  0  0
  -23.5790  -29.8370   20.2280 C   0  0  0  0  0  2  0  0  0  0  0  0
  -24.6310  -31.1060   22.1540 N   0  0  0  0  0  0  0  0  0  0  0  0
  -23.4910  -32.1660   23.8020 O   0  0  0  0  0  0  0  0  0  0  0  0
  -22.7200  -29.4770   22.5630 C   0  0  0  0  0  0  0  0  0  0  0  0
  -21.3950  -29.2990   22.4390 N   0  0  0  0  0  0  0  0  0  0  0  0
  -23.4060  -28.8420   23.3680 O   0  0  0  0  0  0  0  0  0  0  0  0
  -20.9020  -29.8640   21.7620 H   0  0  0  0  0  0  0  0  0  0  0  0
  -18.0180  -28.1150   22.9380 C   0  0  0  0  0  0  0  0  0  0  0  0
  -20.5780  -28.3570   23.2030 C   0  0  0  0  0  3  0  0  0  0  0  0
  -20.6710  -26.9310   22.6110 C   0  0  0  0  0  2  0  0  0  0  0  0
  -19.5640  -26.6240   21.5990 C   0  0  0  0  0  2  0  0  0  0  0  0
  -18.1850  -26.7700   22.2490 C   0  0  0  0  0  2  0  0  0  0  0  0
  -19.1430  -28.8670   23.3720 C   0  0  0  0  0  0  0  0  0  0  0  0
  -18.9340  -30.1260   23.9750 C   0  0  0  0  0  3  0  0  0  0  0  0
  -17.6320  -30.6330   24.1470 C   0  0  0  0  0  3  0  0  0  0  0  0
  -16.5230  -29.8790   23.7310 C   0  0  0  0  0  3  0  0  0  0  0  0
  -16.7160  -28.6210   23.1330 C   0  0  0  0  0  3  0  0  0  0  0  0
  -25.8590  -32.5250   23.8860 C   0  0  0  0  0  3  0  0  0  0  0  0
  -25.5600  -33.9290   24.1930 N   0  0  0  0  0  0  0  0  0  0  0  0
  -25.9160  -34.9670   23.4240 C   0  0  0  0  0  0  0  0  0  0  0  0
  -26.6020  -34.8420   22.4060 O   0  0  0  0  0  0  0  0  0  0  0  0
  -24.9530  -34.1000   24.9810 H   0  0  0  0  0  0  0  0  0  0  0  0
  -24.2230  -36.7780   23.0020 C   0  0  0  0  0  1  0  0  0  0  0  0
  -25.4350  -36.3660   23.8530 C   0  0  0  0  0  3  0  0  0  0  0  0
  -27.5540  -37.2340   24.7410 C   0  0  0  0  0  1  0  0  0  0  0  0
  -26.4850  -37.4040   23.7600 N   0  0  0  0  0  0  0  0  0  0  0  0
  -26.0860  -38.3310   23.8820 H   0  0  0  0  0  0  0  0  0  0  0  0
  -26.3600  -31.7630   25.1740 C   0  0  1  0  0  0  0  0  0  0  0  0
  -25.2580  -31.5450   26.2370 C   0  0  0  0  0  1  0  0  0  0  0  0
  -26.9370  -30.3770   24.7990 C   0  0  0  0  0  1  0  0  0  0  0  0
  -27.5100  -32.5590   25.8360 C   0  0  0  0  0  1  0  0  0  0  0  0
  1  5  2  0
  1  3  1  0
  2  6  1  0
  3  2  2  0
  4  6  2  0
  5  4  1  0
  6  8  1  0
  7  5  1  0
 10  9  1  0
 10  3  1  0
 10 19  1  0
 12 17  1  0
 13 14  1  0
 13 12  1  0
 15 14  1  0
 15 24  1  0
 15 16  1  0
 17 11  1  0
 17 16  1  0
 18 11  2  0
 19 11  1  0
 19 20  1  0
 21 22  2  0
 22 41  1  0
 23 22  1  0
 23 26  1  0
 24 21  1  0
 24 25  1  0
 25 23  2  0
 26 27  1  0
 27 28  2  0
 29 32  1  0
 29 28  1  0
 30 29  2  0
 31 30  1  0
 31 26  2  0
 32 33  1  0
 33 34  1  0
 34 35  2  0
 36 35  1  0
 36 40  1  0
 37 36  2  0
 38 33  2  0
 38 37  1  0
 39 38  1  0
 41 42  1  0
 42 45  1  0
 42 44  1  0
 43 41  2  0
 46 47  1  0
 46 21  1  0
 48 46  1  0
 49  4  1  0
 49 50  1  0
 50 51  1  0
 50 52  1  0
 53 50  1  0
 54 53  1  0
 55 54  1  0
 56 67  2  0
 57 55  1  0
 57 62  1  0
 58 66  1  0
 58 68  1  0
 59 65  1  0
 59 61  1  0
 60 66  1  0
 61 60  1  0
 62 61  2  0
 63 64  1  0
 63 57  2  0
 64 59  2  0
 65 58  1  0
 66 56  1  0
 68 70  2  0
 69 68  1  0
 71 69  1  0
 72 81  2  0
 72 77  1  0
 73 69  1  0
 73 77  1  0
 74 73  1  0
 75 76  1  0
 75 74  1  0
 76 72  1  0
 77 78  2  0
 78 79  1  0
 80 79  2  0
 81 80  1  0
 82 56  1  0
 82 83  1  0
 82 92  1  0
 83 86  1  0
 84 88  1  0
 84 83  1  0
 85 84  2  0
 88 87  1  0
 90 88  1  0
 90 91  1  0
 90 89  1  0
 92 95  1  1
 92 93  1  0
 94 92  1  0
M  ISO  4  11 100  19 100  54 101  55 101
M  END
>  <TORSDO>  (88) 
F 21

>  <SCORE>  (88) 
-12.866

>  <name>  (88) 
88

>  <ligand_id>  (88) 
88

>  <original_smiles>  (88) 
[H]c1c([H])c([H])c2c(c1[H])C([H])([H])C([H])([H])C([H])([H])C2([H])N([H])C(=O)C1([H])N(C(=O)C([H])(N([H])C(=O)C([H])(N([H])C([H])([H])[H])C([H])([H])[H])C(C([H])([H])[H])(C([H])([H])[H])C([H])([H])[H])C([H])([H])c2c([H])c(OC([H])([H])C([H])([H])[N+]([H])([H])C([H])([H])c3c(F)c([H])c(C([H])(N([H])C(=O)N4C([H])([H])C([H])([H])C([H])([H])C([H])(n5nc(-c6c([H])c([H])c(Oc7c([H])c([H])c(F)c([H])c7F)c([H])c6[H])c(C(=O)N([H])[H])c5N([H])[H])C4([H])[H])C([H])([H])[H])c([H])c3F)c([H])c([H])c2C1([H])[H]

>  <smiles>  (88) 
[H]c1c([H])c([H])c2c(c1[H])C([H])([H])C([H])([H])C([H])([H])C2([H])N([H])C(=O)C1([H])N(C(=O)C([H])(N([H])C(=O)C([H])(N([H])C([H])([H])[H])C([H])([H])[H])C(C([H])([H])[H])(C([H])([H])[H])C([H])([H])[H])C([H])([H])c2c([H])c(OC([H])([H])C([H])([H])[N+]([H])([H])C([H])([H])c3c(F)c([H])c(C([H])(N([H])C(=O)N4C([H])([H])C([H])([H])C([H])([H])C([H])(n5nc(-c6c([H])c([H])c(Oc7c([H])c([H])c(F)c([H])c7F)c([H])c6[H])c(C(=O)N([H])[H])c5N([H])[H])C4([H])[H])C([H])([H])[H])c([H])c3F)c([H])c([H])c2C1([H])[H]

$$$$
89:0:0
     RDKit          3D

 95103  0  0  1  0  0  0  0  0999 V2000
  -30.0060  -18.9930   21.7390 C   0  0  0  0  0  2  0  0  0  0  0  0
  -29.0280  -20.1610   21.3970 C   0  0  0  0  0  2  0  0  0  0  0  0
  -30.3200  -20.8030   19.4550 C   0  0  0  0  0  2  0  0  0  0  0  0
  -30.7800  -18.3820   20.5420 C   0  0  0  0  0  3  0  0  0  0  0  0
  -31.3130  -19.5920   19.6690 C   0  0  0  0  0  3  0  0  0  0  0  0
  -29.6730  -21.3230   20.7020 N   0  0  1  0  0  4  0  0  0  0  0  0
  -30.3960  -21.6550   21.3240 H   0  0  0  0  0  0  0  0  0  0  0  0
  -30.0790  -17.1460   19.8220 C   0  0  0  0  0  2  0  0  0  0  0  0
  -30.7910  -14.7070   20.2310 C   0  0  0  0  0  0  0  0  0  0  0  0
  -30.5150  -12.4810   19.1860 C   0  0  0  0  0  2  0  0  0  0  0  0
  -29.5570  -12.6430   17.9850 C   0  0  0  0  0  2  0  0  0  0  0  0
  -28.0940  -12.4850   18.4370 C   0  0  0  0  0  2  0  0  0  0  0  0
  -27.7640  -13.3350   19.6940 C   0  0  0  0  0  3  0  0  0  0  0  0
  -28.8430  -13.1810   20.7920 C   0  0  0  0  0  2  0  0  0  0  0  0
  -30.1480  -13.4970   20.1920 N   0  0  0  0  0  0  0  0  0  0  0  0
  -31.9380  -14.8420   19.7980 O   0  0  0  0  0  0  0  0  0  0  0  0
  -30.0250  -15.8060   20.5090 N   0  0  0  0  0  0  0  0  0  0  0  0
  -29.1380  -15.5910   20.9400 H   0  0  0  0  0  0  0  0  0  0  0  0
  -25.3790  -13.9300   20.4440 C   0  0  0  0  0  0  0  0  0  0  0  0
  -24.3170  -13.1570   20.8250 C   0  0  0  0  0  0  0  0  0  0  0  0
  -24.7800  -11.8040   20.7840 C   0  0  0  0  0  0  0  0  0  0  0  0
  -26.4220  -13.0520   20.1960 N   0  0  0  0  0  0  0  0  0  0  0  0
  -26.0660  -11.7690   20.4610 N   0  0  0  0  0  0  0  0  0  0  0  0
  -24.0550  -10.5420   20.9810 C   0  0  0  0  0  0  0  0  0  0  0  0
  -24.4950   -9.5750   21.9120 C   0  0  0  0  0  3  0  0  0  0  0  0
  -23.7710   -8.3770   22.0950 C   0  0  0  0  0  3  0  0  0  0  0  0
  -22.5930   -8.1370   21.3460 C   0  0  0  0  0  0  0  0  0  0  0  0
  -22.1740   -9.0930   20.4030 C   0  0  0  0  0  3  0  0  0  0  0  0
  -22.8990  -10.2810   20.2190 C   0  0  0  0  0  3  0  0  0  0  0  0
  -21.8400   -6.9920   21.4400 O   0  0  0  0  0  0  0  0  0  0  0  0
  -21.7860   -6.2590   22.5980 C   0  0  0  0  0  0  0  0  0  0  0  0
  -21.3300   -6.8170   23.8130 C   0  0  0  0  0  3  0  0  0  0  0  0
  -21.2230   -6.0100   24.9630 C   0  0  0  0  0  3  0  0  0  0  0  0
  -21.5630   -4.6450   24.8990 C   0  0  0  0  0  0  0  0  0  0  0  0
  -22.0120   -4.0860   23.6890 C   0  0  0  0  0  3  0  0  0  0  0  0
  -22.1200   -4.8910   22.5410 C   0  0  0  0  0  0  0  0  0  0  0  0
  -22.5330   -4.3430   21.3730 F   0  0  0  0  0  0  0  0  0  0  0  0
  -21.4540   -3.8660   26.0020 F   0  0  0  0  0  0  0  0  0  0  0  0
  -22.9250  -13.6300   21.1200 C   0  0  0  0  0  0  0  0  0  0  0  0
  -22.2120  -12.9300   21.9930 N   0  0  0  0  0  0  0  0  0  0  0  0
  -22.4780  -14.6590   20.6120 O   0  0  0  0  0  0  0  0  0  0  0  0
  -22.5890  -12.0980   22.4230 H   0  0  0  0  0  0  0  0  0  0  0  0
  -21.2780  -13.2280   22.2380 H   0  0  0  0  0  0  0  0  0  0  0  0
  -25.5420  -15.3020   20.2650 N   0  0  0  0  0  0  0  0  0  0  0  0
  -24.7660  -15.9490   20.3520 H   0  0  0  0  0  0  0  0  0  0  0  0
  -26.3810  -15.7340   19.9010 H   0  0  0  0  0  0  0  0  0  0  0  0
  -31.9760  -19.1160   18.3410 C   0  0  0  0  0  2  0  0  0  0  0  0
  -32.8860  -20.0990   17.7160 N   0  0  0  0  0  4  0  0  0  0  0  0
  -32.3850  -20.8410   17.2600 H   0  0  0  0  0  0  0  0  0  0  0  0
  -33.4300  -19.6350   17.0060 H   0  0  0  0  0  0  0  0  0  0  0  0
  -33.5320  -20.4870   18.3780 H   0  0  0  0  0  0  0  0  0  0  0  0
  -28.7010  -22.4820   20.4820 C   0  0  0  0  0  2  0  0  0  0  0  0
  -29.2200  -23.9910   20.4750 C   0  0  0  0  0  2  0  0  0  0  0  0
  -28.0890  -25.0610   20.1420 C   0  0  0  0  0  2  0  0  0  0  0  0
  -28.3610  -26.5180   20.2100 O   0  0  0  0  0  0  0  0  0  0  0  0
  -24.6350  -31.9030   23.2240 C   0  0  0  0  0  0  0  0  0  0  0  0
  -27.2530  -27.3790   20.1390 C   0  0  0  0  0  0  0  0  0  0  0  0
  -23.4360  -30.5160   21.5700 C   0  0  0  0  0  3  0  0  0  0  0  0
  -24.8950  -28.9970   20.1220 C   0  0  0  0  0  0  0  0  0  0  0  0
  -25.9730  -30.8470   21.3930 C   0  0  0  0  0  2  0  0  0  0  0  0
  -26.0580  -29.4760   20.7350 C   0  0  0  0  0  0  0  0  0  0  0  0
  -27.2420  -28.6780   20.7370 C   0  0  0  0  0  3  0  0  0  0  0  0
  -26.0680  -26.9630   19.4880 C   0  0  0  0  0  3  0  0  0  0  0  0
  -24.9020  -27.7480   19.4860 C   0  0  0  0  0  3  0  0  0  0  0  0
  -23.6550  -29.8660   20.1800 C   0  0  0  0  0  2  0  0  0  0  0  0
  -24.6990  -31.1040   22.1200 N   0  0  0  0  0  0  0  0  0  0  0  0
  -23.5500  -32.1710   23.7610 O   0  0  0  0  0  0  0  0  0  0  0  0
  -22.7790  -29.4830   22.5180 C   0  0  0  0  0  0  0  0  0  0  0  0
  -21.4560  -29.2920   22.3830 N   0  0  0  0  0  0  0  0  0  0  0  0
  -23.4600  -28.8580   23.3360 O   0  0  0  0  0  0  0  0  0  0  0  0
  -20.9660  -29.8550   21.7010 H   0  0  0  0  0  0  0  0  0  0  0  0
  -18.0820  -28.0710   22.8560 C   0  0  0  0  0  0  0  0  0  0  0  0
  -20.6390  -28.3430   23.1420 C   0  0  0  0  0  3  0  0  0  0  0  0
  -20.7500  -26.9150   22.5580 C   0  0  0  0  0  2  0  0  0  0  0  0
  -19.6550  -26.5940   21.5350 C   0  0  0  0  0  2  0  0  0  0  0  0
  -18.2700  -26.7250   22.1750 C   0  0  0  0  0  2  0  0  0  0  0  0
  -19.1950  -28.8360   23.2960 C   0  0  0  0  0  0  0  0  0  0  0  0
  -18.9660  -30.0920   23.8980 C   0  0  0  0  0  3  0  0  0  0  0  0
  -17.6570  -30.5880   24.0590 C   0  0  0  0  0  3  0  0  0  0  0  0
  -16.5590  -29.8200   23.6340 C   0  0  0  0  0  3  0  0  0  0  0  0
  -16.7730  -28.5630   23.0400 C   0  0  0  0  0  3  0  0  0  0  0  0
  -25.9160  -32.5340   23.8500 C   0  0  0  0  0  3  0  0  0  0  0  0
  -25.6070  -33.9320   24.1810 N   0  0  0  0  0  0  0  0  0  0  0  0
  -25.9290  -34.9840   23.4140 C   0  0  0  0  0  0  0  0  0  0  0  0
  -26.5900  -34.8780   22.3780 O   0  0  0  0  0  0  0  0  0  0  0  0
  -25.0190  -34.0870   24.9870 H   0  0  0  0  0  0  0  0  0  0  0  0
  -24.1980  -36.7730   23.0630 C   0  0  0  0  0  1  0  0  0  0  0  0
  -25.4440  -36.3730   23.8690 C   0  0  0  0  0  3  0  0  0  0  0  0
  -27.5770  -37.2660   24.6910 C   0  0  0  0  0  1  0  0  0  0  0  0
  -26.4750  -37.4270   23.7470 N   0  0  0  0  0  0  0  0  0  0  0  0
  -26.0680  -38.3480   23.8910 H   0  0  0  0  0  0  0  0  0  0  0  0
  -26.4250  -31.7600   25.1260 C   0  0  1  0  0  0  0  0  0  0  0  0
  -25.3260  -31.5140   26.1880 C   0  0  0  0  0  1  0  0  0  0  0  0
  -27.0130  -30.3860   24.7300 C   0  0  0  0  0  1  0  0  0  0  0  0
  -27.5750  -32.5480   25.7970 C   0  0  0  0  0  1  0  0  0  0  0  0
  2  1  1  0
  3  5  1  0
  3  6  1  0
  4  8  1  0
  4  1  1  0
  5 47  1  0
  5  4  1  0
  6  7  1  1
  6  2  1  0
  8 17  1  0
  9 17  1  0
 10 15  1  0
 11 12  1  0
 11 10  1  0
 13 12  1  0
 13 22  1  0
 13 14  1  0
 15  9  1  0
 15 14  1  0
 16  9  2  0
 17 18  1  0
 19 20  2  0
 20 39  1  0
 21 20  1  0
 21 24  1  0
 22 19  1  0
 22 23  1  0
 23 21  2  0
 24 25  1  0
 25 26  2  0
 27 30  1  0
 27 26  1  0
 28 27  2  0
 29 28  1  0
 29 24  2  0
 30 31  1  0
 31 32  1  0
 32 33  2  0
 34 33  1  0
 34 38  1  0
 35 34  2  0
 36 31  2  0
 36 35  1  0
 37 36  1  0
 39 40  1  0
 40 43  1  0
 40 42  1  0
 41 39  2  0
 44 45  1  0
 44 19  1  0
 46 44  1  0
 48 47  1  0
 48 51  1  0
 49 48  1  0
 50 48  1  0
 52  6  1  0
 53 52  1  0
 54 55  1  0
 54 53  1  0
 56 67  2  0
 57 55  1  0
 57 62  1  0
 58 66  1  0
 58 68  1  0
 59 65  1  0
 59 61  1  0
 60 66  1  0
 61 62  2  0
 61 60  1  0
 63 57  2  0
 64 63  1  0
 64 59  2  0
 65 58  1  0
 66 56  1  0
 68 70  2  0
 69 68  1  0
 71 69  1  0
 72 81  2  0
 72 77  1  0
 73 69  1  0
 73 77  1  0
 74 73  1  0
 75 76  1  0
 75 74  1  0
 76 72  1  0
 77 78  2  0
 78 79  1  0
 80 79  2  0
 81 80  1  0
 82 56  1  0
 82 83  1  0
 82 92  1  0
 83 86  1  0
 84 88  1  0
 84 83  1  0
 85 84  2  0
 88 87  1  0
 90 88  1  0
 90 91  1  0
 90 89  1  0
 92 95  1  1
 92 93  1  0
 94 92  1  0
M  ISO  4   9 100  17 100  54 101  55 101
M  END
>  <TORSDO>  (89) 
F 22

>  <SCORE>  (89) 
-12.664

>  <name>  (89) 
89

>  <ligand_id>  (89) 
89

>  <original_smiles>  (89) 
[H]c1c([H])c([H])c2c(c1[H])C([H])([H])C([H])([H])C([H])([H])C2([H])N([H])C(=O)C1([H])N(C(=O)C([H])(N([H])C(=O)C([H])(N([H])C([H])([H])[H])C([H])([H])[H])C(C([H])([H])[H])(C([H])([H])[H])C([H])([H])[H])C([H])([H])c2c([H])c(OC([H])([H])C([H])([H])C([H])([H])[N+]3([H])C([H])([H])C([H])([H])C([H])(C([H])([H])N([H])C(=O)N4C([H])([H])C([H])([H])C([H])([H])C([H])(n5nc(-c6c([H])c([H])c(Oc7c([H])c([H])c(F)c([H])c7F)c([H])c6[H])c(C(=O)N([H])[H])c5N([H])[H])C4([H])[H])C([H])(C([H])([H])[N+]([H])([H])[H])C3([H])[H])c([H])c([H])c2C1([H])[H]

>  <smiles>  (89) 
[H]c1c([H])c([H])c2c(c1[H])C([H])([H])C([H])([H])C([H])([H])C2([H])N([H])C(=O)C1([H])N(C(=O)C([H])(N([H])C(=O)C([H])(N([H])C([H])([H])[H])C([H])([H])[H])C(C([H])([H])[H])(C([H])([H])[H])C([H])([H])[H])C([H])([H])c2c([H])c(OC([H])([H])C([H])([H])C([H])([H])[N+]3([H])C([H])([H])C([H])([H])C([H])(C([H])([H])N([H])C(=O)N4C([H])([H])C([H])([H])C([H])([H])C([H])(n5nc(-c6c([H])c([H])c(Oc7c([H])c([H])c(F)c([H])c7F)c([H])c6[H])c(C(=O)N([H])[H])c5N([H])[H])C4([H])[H])C([H])(C([H])([H])[N+]([H])([H])[H])C3([H])[H])c([H])c([H])c2C1([H])[H]

$$$$
90:0:0
     RDKit          3D

 91 98  0  0  1  0  0  0  0  0999 V2000
  -28.8160  -22.2830   20.7140 N   0  0  0  0  0  0  0  0  0  0  0  0
  -28.4840  -22.1070   21.6600 H   0  0  0  0  0  0  0  0  0  0  0  0
  -28.4840  -23.6750   20.3910 C   0  0  0  0  0  2  0  0  0  0  0  0
  -29.3240  -24.6740   21.2150 C   0  0  0  0  0  2  0  0  0  0  0  0
  -28.6480  -26.0480   21.4130 C   0  0  0  0  0  2  0  0  0  0  0  0
  -28.4130  -26.7180   20.1750 O   0  0  0  0  0  0  0  0  0  0  0  0
  -24.6000  -31.8930   23.2600 C   0  0  0  0  0  0  0  0  0  0  0  0
  -27.2670  -27.4750   20.1850 C   0  0  0  0  0  0  0  0  0  0  0  0
  -23.4000  -30.4860   21.6130 C   0  0  0  0  0  3  0  0  0  0  0  0
  -24.8650  -28.9530   20.1910 C   0  0  0  0  0  0  0  0  0  0  0  0
  -25.9230  -30.8570   21.4210 C   0  0  0  0  0  2  0  0  0  0  0  0
  -26.0170  -29.4870   20.7850 C   0  0  0  0  0  0  0  0  0  0  0  0
  -27.2230  -28.7510   20.7870 C   0  0  0  0  0  3  0  0  0  0  0  0
  -26.1070  -26.9510   19.5830 C   0  0  0  0  0  3  0  0  0  0  0  0
  -24.9030  -27.6830   19.5900 C   0  0  0  0  0  3  0  0  0  0  0  0
  -23.6150  -29.8040   20.2350 C   0  0  0  0  0  2  0  0  0  0  0  0
  -24.6590  -31.0930   22.1560 N   0  0  0  0  0  0  0  0  0  0  0  0
  -23.5180  -32.1640   23.7980 O   0  0  0  0  0  0  0  0  0  0  0  0
  -22.7500  -29.4640   22.5730 C   0  0  0  0  0  0  0  0  0  0  0  0
  -21.4260  -29.2840   22.4460 N   0  0  0  0  0  0  0  0  0  0  0  0
  -23.4340  -28.8370   23.3850 O   0  0  0  0  0  0  0  0  0  0  0  0
  -20.9370  -29.8430   21.7630 H   0  0  0  0  0  0  0  0  0  0  0  0
  -18.0500  -28.1020   22.9480 C   0  0  0  0  0  0  0  0  0  0  0  0
  -20.6090  -28.3460   23.2150 C   0  0  0  0  0  3  0  0  0  0  0  0
  -20.7030  -26.9170   22.6320 C   0  0  0  0  0  2  0  0  0  0  0  0
  -19.5970  -26.6040   21.6190 C   0  0  0  0  0  2  0  0  0  0  0  0
  -18.2170  -26.7550   22.2670 C   0  0  0  0  0  2  0  0  0  0  0  0
  -19.1730  -28.8560   23.3790 C   0  0  0  0  0  0  0  0  0  0  0  0
  -18.9640  -30.1180   23.9750 C   0  0  0  0  0  3  0  0  0  0  0  0
  -17.6620  -30.6260   24.1460 C   0  0  0  0  0  3  0  0  0  0  0  0
  -16.5520  -29.8690   23.7310 C   0  0  0  0  0  3  0  0  0  0  0  0
  -16.7470  -28.6090   23.1400 C   0  0  0  0  0  3  0  0  0  0  0  0
  -25.8840  -32.5260   23.8800 C   0  0  0  0  0  3  0  0  0  0  0  0
  -26.4000  -31.7590   25.1600 C   0  0  1  0  0  0  0  0  0  0  0  0
  -25.3040  -31.5240   26.2260 C   0  0  0  0  0  1  0  0  0  0  0  0
  -26.9840  -30.3810   24.7690 C   0  0  0  0  0  1  0  0  0  0  0  0
  -27.5490  -32.5550   25.8210 C   0  0  0  0  0  1  0  0  0  0  0  0
  -25.5760  -33.9250   24.2020 N   0  0  0  0  0  0  0  0  0  0  0  0
  -25.9130  -34.9730   23.4380 C   0  0  0  0  0  0  0  0  0  0  0  0
  -26.5870  -34.8630   22.4100 O   0  0  0  0  0  0  0  0  0  0  0  0
  -24.9780  -34.0840   25.0010 H   0  0  0  0  0  0  0  0  0  0  0  0
  -24.1880  -36.7630   23.0600 C   0  0  0  0  0  1  0  0  0  0  0  0
  -25.4230  -36.3640   23.8830 C   0  0  0  0  0  3  0  0  0  0  0  0
  -27.5520  -37.2490   24.7240 C   0  0  0  0  0  1  0  0  0  0  0  0
  -26.4570  -37.4140   23.7730 N   0  0  0  0  0  0  0  0  0  0  0  0
  -26.0510  -38.3360   23.9120 H   0  0  0  0  0  0  0  0  0  0  0  0
  -28.1190  -21.3920   19.7840 C   0  0  0  0  0  2  0  0  0  0  0  0
  -27.9340  -19.9570   20.3320 C   0  0  0  0  0  2  0  0  0  0  0  0
  -29.1880  -19.1720   20.3880 N   0  0  0  0  0  4  0  0  0  0  0  0
  -29.6730  -19.2860   19.5130 H   0  0  0  0  0  0  0  0  0  0  0  0
  -29.7690  -19.5660   21.1110 H   0  0  0  0  0  0  0  0  0  0  0  0
  -28.9620  -17.7240   20.6390 C   0  0  0  0  0  2  0  0  0  0  0  0
  -30.2600  -16.9070   20.8590 C   0  0  0  0  0  2  0  0  0  0  0  0
  -30.6880  -14.4670   20.4810 C   0  0  0  0  0  0  0  0  0  0  0  0
  -30.3990  -12.3110   19.3280 C   0  0  0  0  0  2  0  0  0  0  0  0
  -29.4710  -12.5310   18.1140 C   0  0  0  0  0  2  0  0  0  0  0  0
  -27.9910  -12.4080   18.5250 C   0  0  0  0  0  2  0  0  0  0  0  0
  -27.6470  -13.2430   19.7870 C   0  0  0  0  0  3  0  0  0  0  0  0
  -28.6850  -12.9990   20.9070 C   0  0  0  0  0  2  0  0  0  0  0  0
  -30.0220  -13.2890   20.3580 N   0  0  0  0  0  0  0  0  0  0  0  0
  -31.8070  -14.6670   20.0010 O   0  0  0  0  0  0  0  0  0  0  0  0
  -29.9650  -15.4730   20.9990 N   0  0  0  0  0  0  0  0  0  0  0  0
  -29.0710  -15.2150   21.3900 H   0  0  0  0  0  0  0  0  0  0  0  0
  -25.2370  -13.8730   20.4400 C   0  0  0  0  0  0  0  0  0  0  0  0
  -24.1600  -13.1120   20.8040 C   0  0  0  0  0  0  0  0  0  0  0  0
  -24.6150  -11.7580   20.8020 C   0  0  0  0  0  0  0  0  0  0  0  0
  -26.2830  -12.9840   20.2430 N   0  0  0  0  0  0  0  0  0  0  0  0
  -25.9110  -11.7080   20.5160 N   0  0  0  0  0  0  0  0  0  0  0  0
  -23.8820  -10.5020   21.0000 C   0  0  0  0  0  0  0  0  0  0  0  0
  -24.3020   -9.5420   21.9480 C   0  0  0  0  0  3  0  0  0  0  0  0
  -23.5700   -8.3480   22.1310 C   0  0  0  0  0  3  0  0  0  0  0  0
  -22.4030   -8.1070   21.3650 C   0  0  0  0  0  0  0  0  0  0  0  0
  -22.0020   -9.0550   20.4080 C   0  0  0  0  0  3  0  0  0  0  0  0
  -22.7350  -10.2390   20.2230 C   0  0  0  0  0  3  0  0  0  0  0  0
  -21.6450   -6.9660   21.4580 O   0  0  0  0  0  0  0  0  0  0  0  0
  -21.5860   -6.2320   22.6150 C   0  0  0  0  0  0  0  0  0  0  0  0
  -21.1590   -6.7990   23.8360 C   0  0  0  0  0  3  0  0  0  0  0  0
  -21.0480   -5.9910   24.9860 C   0  0  0  0  0  3  0  0  0  0  0  0
  -21.3540   -4.6190   24.9160 C   0  0  0  0  0  0  0  0  0  0  0  0
  -21.7760   -4.0520   23.7000 C   0  0  0  0  0  3  0  0  0  0  0  0
  -21.8890   -4.8570   22.5530 C   0  0  0  0  0  0  0  0  0  0  0  0
  -22.2750   -4.3010   21.3790 F   0  0  0  0  0  0  0  0  0  0  0  0
  -21.2400   -3.8410   26.0180 F   0  0  0  0  0  0  0  0  0  0  0  0
  -22.7600  -13.5990   21.0470 C   0  0  0  0  0  0  0  0  0  0  0  0
  -22.0170  -12.9190   21.9140 N   0  0  0  0  0  0  0  0  0  0  0  0
  -22.3330  -14.6180   20.5050 O   0  0  0  0  0  0  0  0  0  0  0  0
  -22.3750  -12.0950   22.3760 H   0  0  0  0  0  0  0  0  0  0  0  0
  -21.0790  -13.2310   22.1220 H   0  0  0  0  0  0  0  0  0  0  0  0
  -25.4130  -15.2390   20.2440 N   0  0  0  0  0  0  0  0  0  0  0  0
  -24.6420  -15.8930   20.3110 H   0  0  0  0  0  0  0  0  0  0  0  0
  -26.2600  -15.6560   19.8810 H   0  0  0  0  0  0  0  0  0  0  0  0
  1  2  1  0
  3  1  1  0
  3  4  1  0
  4  5  1  0
  6  8  1  0
  6  5  1  0
  7 18  2  0
  8 13  1  0
  9 17  1  0
  9 19  1  0
 10 16  1  0
 10 12  1  0
 11 17  1  0
 12 13  2  0
 12 11  1  0
 14 15  1  0
 14  8  2  0
 15 10  2  0
 16  9  1  0
 17  7  1  0
 19 21  2  0
 20 19  1  0
 22 20  1  0
 23 32  2  0
 23 28  1  0
 24 20  1  0
 24 28  1  0
 25 24  1  0
 26 27  1  0
 26 25  1  0
 27 23  1  0
 28 29  2  0
 29 30  1  0
 31 30  2  0
 32 31  1  0
 33  7  1  0
 33 38  1  0
 33 34  1  0
 34 37  1  1
 34 35  1  0
 36 34  1  0
 38 41  1  0
 39 43  1  0
 39 38  1  0
 40 39  2  0
 43 42  1  0
 45 43  1  0
 45 46  1  0
 45 44  1  0
 47 48  1  0
 47  1  1  0
 48 49  1  0
 49 52  1  0
 49 51  1  0
 50 49  1  0
 52 53  1  0
 53 62  1  0
 54 62  1  0
 55 60  1  0
 56 57  1  0
 56 55  1  0
 58 57  1  0
 58 67  1  0
 58 59  1  0
 60 54  1  0
 60 59  1  0
 61 54  2  0
 62 63  1  0
 64 65  2  0
 65 84  1  0
 66 65  1  0
 66 69  1  0
 67 64  1  0
 67 68  1  0
 68 66  2  0
 69 70  1  0
 70 71  2  0
 72 75  1  0
 72 71  1  0
 73 72  2  0
 74 73  1  0
 74 69  2  0
 75 76  1  0
 76 77  1  0
 77 78  2  0
 79 78  1  0
 79 83  1  0
 80 79  2  0
 81 76  2  0
 81 80  1  0
 82 81  1  0
 84 85  1  0
 85 88  1  0
 85 87  1  0
 86 84  2  0
 89 90  1  0
 89 64  1  0
 91 89  1  0
M  ISO  4   5 101   6 101  54 100  62 100
M  END
>  <TORSDO>  (90) 
F 24

>  <SCORE>  (90) 
-12.334

>  <name>  (90) 
90

>  <ligand_id>  (90) 
90

>  <original_smiles>  (90) 
[H]c1c([H])c([H])c2c(c1[H])C([H])([H])C([H])([H])C([H])([H])C2([H])N([H])C(=O)C1([H])N(C(=O)C([H])(N([H])C(=O)C([H])(N([H])C([H])([H])[H])C([H])([H])[H])C(C([H])([H])[H])(C([H])([H])[H])C([H])([H])[H])C([H])([H])c2c([H])c(OC([H])([H])C([H])([H])C([H])([H])N([H])C([H])([H])C([H])([H])[N+]([H])([H])C([H])([H])C([H])([H])N([H])C(=O)N3C([H])([H])C([H])([H])C([H])([H])C([H])(n4nc(-c5c([H])c([H])c(Oc6c([H])c([H])c(F)c([H])c6F)c([H])c5[H])c(C(=O)N([H])[H])c4N([H])[H])C3([H])[H])c([H])c([H])c2C1([H])[H]

>  <smiles>  (90) 
[H]c1c([H])c([H])c2c(c1[H])C([H])([H])C([H])([H])C([H])([H])C2([H])N([H])C(=O)C1([H])N(C(=O)C([H])(N([H])C(=O)C([H])(N([H])C([H])([H])[H])C([H])([H])[H])C(C([H])([H])[H])(C([H])([H])[H])C([H])([H])[H])C([H])([H])c2c([H])c(OC([H])([H])C([H])([H])C([H])([H])N([H])C([H])([H])C([H])([H])[N+]([H])([H])C([H])([H])C([H])([H])N([H])C(=O)N3C([H])([H])C([H])([H])C([H])([H])C([H])(n4nc(-c5c([H])c([H])c(Oc6c([H])c([H])c(F)c([H])c6F)c([H])c5[H])c(C(=O)N([H])[H])c4N([H])[H])C3([H])[H])c([H])c([H])c2C1([H])[H]

$$$$
91:0:0
     RDKit          3D

 94103  0  0  1  0  0  0  0  0999 V2000
  -32.5480  -15.4030   18.9660 C   0  0  0  0  0  0  0  0  0  0  0  0
  -32.4990  -12.9300   19.5340 C   0  0  0  0  0  2  0  0  0  0  0  0
  -31.6330  -12.1430   18.5230 C   0  0  0  0  0  2  0  0  0  0  0  0
  -30.1500  -12.1640   18.9430 C   0  0  0  0  0  2  0  0  0  0  0  0
  -29.6690  -13.5770   19.3670 C   0  0  0  0  0  3  0  0  0  0  0  0
  -30.6660  -14.2780   20.3100 C   0  0  0  0  0  2  0  0  0  0  0  0
  -31.9520  -14.3140   19.6050 N   0  0  0  0  0  0  0  0  0  0  0  0
  -33.7820  -15.3780   18.8730 O   0  0  0  0  0  0  0  0  0  0  0  0
  -31.4140  -17.2320   15.8490 C   0  0  0  0  0  2  0  0  0  0  0  0
  -31.3350  -16.0020   16.8340 C   0  0  0  0  0  2  0  0  0  0  0  0
  -31.9250  -17.8960   18.0370 C   0  0  0  0  0  3  0  0  0  0  0  0
  -31.1800  -18.4920   16.6880 C   0  0  0  0  0  3  0  0  0  0  0  0
  -31.7810  -16.3540   18.2070 N   0  0  0  0  0  0  0  0  0  0  0  0
  -30.4730  -19.9130   21.6060 C   0  0  0  0  0  3  0  0  0  0  0  0
  -31.4500  -20.5260   20.8010 C   0  0  0  0  0  3  0  0  0  0  0  0
  -29.9560  -18.6530   21.2470 C   0  0  0  0  0  3  0  0  0  0  0  0
  -31.9180  -19.8800   19.6390 C   0  0  0  0  0  3  0  0  0  0  0  0
  -30.4220  -18.0070   20.0880 C   0  0  0  0  0  3  0  0  0  0  0  0
  -31.4140  -18.6110   19.2820 C   0  0  0  0  0  0  0  0  0  0  0  0
  -27.5010  -14.6420   20.1990 C   0  0  0  0  0  0  0  0  0  0  0  0
  -26.2960  -14.1130   20.5680 C   0  0  0  0  0  0  0  0  0  0  0  0
  -26.4430  -12.6940   20.4800 C   0  0  0  0  0  0  0  0  0  0  0  0
  -28.3130  -13.5630   19.9000 N   0  0  0  0  0  0  0  0  0  0  0  0
  -27.6870  -12.3810   20.1350 N   0  0  0  0  0  0  0  0  0  0  0  0
  -25.4540  -11.6220   20.6460 C   0  0  0  0  0  0  0  0  0  0  0  0
  -25.6680  -10.5510   21.5420 C   0  0  0  0  0  3  0  0  0  0  0  0
  -24.6930   -9.5430   21.6980 C   0  0  0  0  0  3  0  0  0  0  0  0
  -23.4880   -9.6000   20.9580 C   0  0  0  0  0  0  0  0  0  0  0  0
  -23.2890  -10.6550   20.0510 C   0  0  0  0  0  3  0  0  0  0  0  0
  -24.2630  -11.6560   19.8930 C   0  0  0  0  0  3  0  0  0  0  0  0
  -22.4960   -8.6520   21.0270 O   0  0  0  0  0  0  0  0  0  0  0  0
  -22.3360   -7.8560   22.1320 C   0  0  0  0  0  0  0  0  0  0  0  0
  -21.9630   -8.3860   23.3860 C   0  0  0  0  0  3  0  0  0  0  0  0
  -21.7430   -7.5240   24.4780 C   0  0  0  0  0  3  0  0  0  0  0  0
  -21.8850   -6.1330   24.3180 C   0  0  0  0  0  0  0  0  0  0  0  0
  -22.2510   -5.6020   23.0690 C   0  0  0  0  0  3  0  0  0  0  0  0
  -22.4740   -6.4610   21.9780 C   0  0  0  0  0  0  0  0  0  0  0  0
  -22.8040   -5.9420   20.7710 F   0  0  0  0  0  0  0  0  0  0  0  0
  -21.6670   -5.3040   25.3650 F   0  0  0  0  0  0  0  0  0  0  0  0
  -25.0470  -14.8820   20.8880 C   0  0  0  0  0  0  0  0  0  0  0  0
  -24.2360  -14.3760   21.8100 N   0  0  0  0  0  0  0  0  0  0  0  0
  -24.8080  -15.9630   20.3530 O   0  0  0  0  0  0  0  0  0  0  0  0
  -24.4440  -13.4990   22.2650 H   0  0  0  0  0  0  0  0  0  0  0  0
  -23.3960  -14.8750   22.0680 H   0  0  0  0  0  0  0  0  0  0  0  0
  -27.9650  -15.9480   20.0620 N   0  0  0  0  0  0  0  0  0  0  0  0
  -27.3640  -16.7510   20.2040 H   0  0  0  0  0  0  0  0  0  0  0  0
  -28.8760  -16.1930   19.6970 H   0  0  0  0  0  0  0  0  0  0  0  0
  -31.4910  -19.9190   16.0370 N   0  0  0  0  0  4  0  0  0  0  0  0
  -31.9840  -19.7480   15.1760 H   0  0  0  0  0  0  0  0  0  0  0  0
  -32.1610  -20.3390   16.6620 H   0  0  0  0  0  0  0  0  0  0  0  0
  -30.4280  -21.0730   15.7470 C   0  0  0  0  0  2  0  0  0  0  0  0
  -30.7110  -22.7370   15.9890 C   0  0  0  0  0  2  0  0  0  0  0  0
  -29.5360  -23.9450   16.2140 C   0  0  0  0  0  2  0  0  0  0  0  0
  -29.6290  -25.3120   16.9790 O   0  0  0  0  0  0  0  0  0  0  0  0
  -25.2820  -28.2680   22.1720 C   0  0  0  0  0  0  0  0  0  0  0  0
  -28.4600  -26.0840   17.3460 C   0  0  0  0  0  0  0  0  0  0  0  0
  -24.2810  -27.7950   19.9700 C   0  0  0  0  0  3  0  0  0  0  0  0
  -25.9290  -27.3430   18.0480 C   0  0  0  0  0  0  0  0  0  0  0  0
  -26.7810  -28.3780   20.1430 C   0  0  0  0  0  2  0  0  0  0  0  0
  -27.0390  -27.5360   18.8790 C   0  0  0  0  0  0  0  0  0  0  0  0
  -28.3040  -26.9310   18.5190 C   0  0  0  0  0  3  0  0  0  0  0  0
  -27.3080  -25.9990   16.5320 C   0  0  0  0  0  3  0  0  0  0  0  0
  -26.0750  -26.5990   16.8700 C   0  0  0  0  0  3  0  0  0  0  0  0
  -24.5960  -27.9510   18.4600 C   0  0  0  0  0  2  0  0  0  0  0  0
  -25.4650  -28.1400   20.8210 N   0  0  0  0  0  0  0  0  0  0  0  0
  -24.1640  -28.1230   22.6910 O   0  0  0  0  0  0  0  0  0  0  0  0
  -23.7300  -26.3710   20.2350 C   0  0  0  0  0  0  0  0  0  0  0  0
  -22.4950  -26.0940   19.7800 N   0  0  0  0  0  0  0  0  0  0  0  0
  -24.4230  -25.5320   20.8160 O   0  0  0  0  0  0  0  0  0  0  0  0
  -21.9800  -26.8360   19.3250 H   0  0  0  0  0  0  0  0  0  0  0  0
  -19.5120  -24.2720   18.8280 C   0  0  0  0  0  0  0  0  0  0  0  0
  -21.8140  -24.7990   19.8800 C   0  0  0  0  0  3  0  0  0  0  0  0
  -22.3920  -23.7860   18.8630 C   0  0  0  0  0  2  0  0  0  0  0  0
  -21.6270  -23.7570   17.5370 C   0  0  0  0  0  2  0  0  0  0  0  0
  -20.1580  -23.3910   17.7730 C   0  0  0  0  0  2  0  0  0  0  0  0
  -20.2900  -24.9450   19.8070 C   0  0  0  0  0  0  0  0  0  0  0  0
  -19.6390  -25.7770   20.7440 C   0  0  0  0  0  3  0  0  0  0  0  0
  -18.2420  -25.9400   20.7130 C   0  0  0  0  0  3  0  0  0  0  0  0
  -17.4750  -25.2630   19.7490 C   0  0  0  0  0  3  0  0  0  0  0  0
  -18.1100  -24.4260   18.8130 C   0  0  0  0  0  3  0  0  0  0  0  0
  -26.4620  -28.6240   23.1270 C   0  0  0  0  0  3  0  0  0  0  0  0
  -26.8910  -27.4230   24.0560 C   0  0  1  0  0  0  0  0  0  0  0  0
  -25.7170  -26.7950   24.8430 C   0  0  0  0  0  1  0  0  0  0  0  0
  -27.5570  -26.2970   23.2320 C   0  0  0  0  0  1  0  0  0  0  0  0
  -27.9500  -27.9040   25.0770 C   0  0  0  0  0  1  0  0  0  0  0  0
  -26.0460  -29.7770   23.9420 N   0  0  0  0  0  0  0  0  0  0  0  0
  -26.3760  -31.0510   23.6880 C   0  0  0  0  0  0  0  0  0  0  0  0
  -27.1250  -31.3740   22.7630 O   0  0  0  0  0  0  0  0  0  0  0  0
  -25.3830  -29.5930   24.6800 H   0  0  0  0  0  0  0  0  0  0  0  0
  -24.5690  -32.7920   23.9210 C   0  0  0  0  0  1  0  0  0  0  0  0
  -25.7810  -32.1390   24.6060 C   0  0  0  0  0  3  0  0  0  0  0  0
  -27.7990  -32.7070   25.8870 C   0  0  0  0  0  1  0  0  0  0  0  0
  -26.7550  -33.1860   24.9850 N   0  0  0  0  0  0  0  0  0  0  0  0
  -26.2870  -33.9690   25.4330 H   0  0  0  0  0  0  0  0  0  0  0  0
  1  7  1  0
  2  7  1  0
  3  4  1  0
  3  2  1  0
  5  4  1  0
  5 23  1  0
  5  6  1  0
  7  6  1  0
  8  1  2  0
  9 12  1  0
  9 10  1  0
 10 13  1  0
 11 13  1  0
 11 19  1  0
 12 48  1  0
 12 11  1  0
 13  1  1  0
 15 14  2  0
 16 14  1  0
 17 15  1  0
 18 16  2  0
 19 17  2  0
 19 18  1  0
 20 21  2  0
 21 40  1  0
 22 21  1  0
 22 25  1  0
 23 24  1  0
 23 20  1  0
 24 22  2  0
 25 26  1  0
 26 27  2  0
 28 31  1  0
 28 27  1  0
 29 28  2  0
 30 29  1  0
 30 25  2  0
 31 32  1  0
 32 33  1  0
 33 34  2  0
 35 34  1  0
 35 39  1  0
 36 35  2  0
 37 32  2  0
 37 36  1  0
 38 37  1  0
 40 41  1  0
 41 44  1  0
 41 43  1  0
 42 40  2  0
 45 20  1  0
 45 46  1  0
 47 45  1  0
 48 50  1  0
 49 48  1  0
 51 52  1  0
 51 48  1  0
 52 53  1  0
 53 54  1  0
 54 56  1  0
 55 66  2  0
 56 61  1  0
 57 67  1  0
 57 65  1  0
 58 64  1  0
 58 60  1  0
 59 65  1  0
 60 59  1  0
 61 60  2  0
 62 63  1  0
 62 56  2  0
 63 58  2  0
 64 57  1  0
 65 55  1  0
 67 69  2  0
 68 67  1  0
 70 68  1  0
 71 76  1  0
 72 68  1  0
 73 72  1  0
 74 75  1  0
 74 73  1  0
 75 71  1  0
 76 72  1  0
 76 77  2  0
 78 77  1  0
 79 78  2  0
 80 71  2  0
 80 79  1  0
 81 55  1  0
 81 86  1  0
 81 82  1  0
 82 83  1  1
 82 85  1  0
 84 82  1  0
 86 89  1  0
 87 86  1  0
 87 91  1  0
 88 87  2  0
 91 90  1  0
 91 93  1  0
 93 94  1  0
 93 92  1  0
M  ISO  4   1 100  13 100  53 101  54 101
M  END
>  <TORSDO>  (91) 
F 20

>  <SCORE>  (91) 
-7.934

>  <name>  (91) 
91

>  <ligand_id>  (91) 
91

>  <original_smiles>  (91) 
[H]c1c([H])c([H])c(C2([H])N(C(=O)N3C([H])([H])C([H])([H])C([H])([H])C([H])(n4nc(-c5c([H])c([H])c(Oc6c([H])c([H])c(F)c([H])c6F)c([H])c5[H])c(C(=O)N([H])[H])c4N([H])[H])C3([H])[H])C([H])([H])C([H])([H])C2([H])[N+]([H])([H])C([H])([H])C([H])([H])C([H])([H])Oc2c([H])c([H])c3c(c2[H])C([H])([H])N(C(=O)C([H])(N([H])C(=O)C([H])(N([H])C([H])([H])[H])C([H])([H])[H])C(C([H])([H])[H])(C([H])([H])[H])C([H])([H])[H])C([H])(C(=O)N([H])C2([H])c4c([H])c([H])c([H])c([H])c4C([H])([H])C([H])([H])C2([H])[H])C3([H])[H])c([H])c1[H]

>  <smiles>  (91) 
[H]c1c([H])c([H])c(C2([H])N(C(=O)N3C([H])([H])C([H])([H])C([H])([H])C([H])(n4nc(-c5c([H])c([H])c(Oc6c([H])c([H])c(F)c([H])c6F)c([H])c5[H])c(C(=O)N([H])[H])c4N([H])[H])C3([H])[H])C([H])([H])C([H])([H])C2([H])[N+]([H])([H])C([H])([H])C([H])([H])C([H])([H])Oc2c([H])c([H])c3c(c2[H])C([H])([H])N(C(=O)C([H])(N([H])C(=O)C([H])(N([H])C([H])([H])[H])C([H])([H])[H])C(C([H])([H])[H])(C([H])([H])[H])C([H])([H])[H])C([H])(C(=O)N([H])C2([H])c4c([H])c([H])c([H])c([H])c4C([H])([H])C([H])([H])C2([H])[H])C3([H])[H])c([H])c1[H]

$$$$
92:0:0
     RDKit          3D

 94103  0  0  1  0  0  0  0  0999 V2000
  -30.4760  -22.4410   21.5830 C   0  0  0  0  0  2  0  0  0  0  0  0
  -30.0310  -23.9110   21.4310 C   0  0  0  0  0  2  0  0  0  0  0  0
  -29.2840  -21.6190   21.0510 C   0  0  0  0  0  3  0  0  0  0  0  0
  -29.1350  -23.9330   20.1800 C   0  0  0  0  0  3  0  0  0  0  0  0
  -28.7310  -22.4870   19.9670 N   0  0  0  0  0  4  0  0  0  0  0  0
  -27.7300  -22.3650   19.8970 H   0  0  0  0  0  0  0  0  0  0  0  0
  -29.1390  -22.1750   19.1010 H   0  0  0  0  0  0  0  0  0  0  0  0
  -28.3590  -19.1990   20.7740 C   0  0  0  0  0  3  0  0  0  0  0  0
  -28.4860  -17.7870   20.6350 C   0  0  0  0  0  3  0  0  0  0  0  0
  -30.8680  -18.0010   20.4460 C   0  0  0  0  0  3  0  0  0  0  0  0
  -29.4860  -20.0670   20.7730 C   0  0  0  0  0  0  0  0  0  0  0  0
  -29.7400  -17.1410   20.4910 C   0  0  0  0  0  0  0  0  0  0  0  0
  -30.7500  -19.4200   20.5930 C   0  0  0  0  0  0  0  0  0  0  0  0
  -31.8910  -20.1430   20.5670 F   0  0  0  0  0  0  0  0  0  0  0  0
  -30.6180  -14.6980   20.0630 C   0  0  0  0  0  0  0  0  0  0  0  0
  -30.3990  -12.5110   18.9060 C   0  0  0  0  0  2  0  0  0  0  0  0
  -29.3760  -12.7120   17.7680 C   0  0  0  0  0  2  0  0  0  0  0  0
  -27.9240  -12.5350   18.2640 C   0  0  0  0  0  2  0  0  0  0  0  0
  -27.6440  -13.3050   19.5830 C   0  0  0  0  0  3  0  0  0  0  0  0
  -28.7700  -13.0830   20.6170 C   0  0  0  0  0  2  0  0  0  0  0  0
  -30.0420  -13.4590   19.9790 N   0  0  0  0  0  0  0  0  0  0  0  0
  -31.7640  -14.9170   19.6600 O   0  0  0  0  0  0  0  0  0  0  0  0
  -29.7320  -15.6810   20.4130 N   0  0  0  0  0  0  0  0  0  0  0  0
  -28.8310  -15.2710   20.6170 H   0  0  0  0  0  0  0  0  0  0  0  0
  -25.2960  -13.8780   20.4510 C   0  0  0  0  0  0  0  0  0  0  0  0
  -24.2540  -13.0950   20.8670 C   0  0  0  0  0  0  0  0  0  0  0  0
  -24.7140  -11.7440   20.7670 C   0  0  0  0  0  0  0  0  0  0  0  0
  -26.3250  -13.0060   20.1340 N   0  0  0  0  0  0  0  0  0  0  0  0
  -25.9840  -11.7150   20.3800 N   0  0  0  0  0  0  0  0  0  0  0  0
  -24.0020  -10.4760   20.9580 C   0  0  0  0  0  0  0  0  0  0  0  0
  -24.4380   -9.5170   21.8990 C   0  0  0  0  0  3  0  0  0  0  0  0
  -23.7230   -8.3140   22.0790 C   0  0  0  0  0  3  0  0  0  0  0  0
  -22.5580   -8.0590   21.3180 C   0  0  0  0  0  0  0  0  0  0  0  0
  -22.1390   -9.0080   20.3690 C   0  0  0  0  0  3  0  0  0  0  0  0
  -22.8550  -10.2030   20.1870 C   0  0  0  0  0  3  0  0  0  0  0  0
  -21.8130   -6.9080   21.4070 O   0  0  0  0  0  0  0  0  0  0  0  0
  -21.6920   -6.2190   22.5880 C   0  0  0  0  0  0  0  0  0  0  0  0
  -21.1510   -6.8170   23.7450 C   0  0  0  0  0  3  0  0  0  0  0  0
  -20.9800   -6.0540   24.9180 C   0  0  0  0  0  3  0  0  0  0  0  0
  -21.3350   -4.6910   24.9290 C   0  0  0  0  0  0  0  0  0  0  0  0
  -21.8620   -4.0920   23.7730 C   0  0  0  0  0  3  0  0  0  0  0  0
  -22.0370   -4.8530   22.6040 C   0  0  0  0  0  0  0  0  0  0  0  0
  -22.5260   -4.2630   21.4870 F   0  0  0  0  0  0  0  0  0  0  0  0
  -21.1630   -3.9550   26.0530 F   0  0  0  0  0  0  0  0  0  0  0  0
  -22.8740  -13.5610   21.2300 C   0  0  0  0  0  0  0  0  0  0  0  0
  -22.2000  -12.8420   22.1210 N   0  0  0  0  0  0  0  0  0  0  0  0
  -22.4040  -14.5960   20.7570 O   0  0  0  0  0  0  0  0  0  0  0  0
  -22.5910  -12.0030   22.5280 H   0  0  0  0  0  0  0  0  0  0  0  0
  -21.2750  -13.1350   22.4010 H   0  0  0  0  0  0  0  0  0  0  0  0
  -25.4380  -15.2540   20.2860 N   0  0  0  0  0  0  0  0  0  0  0  0
  -24.6310  -15.8640   20.3740 H   0  0  0  0  0  0  0  0  0  0  0  0
  -26.1740  -15.6720   19.7310 H   0  0  0  0  0  0  0  0  0  0  0  0
  -27.9650  -25.0040   20.2060 C   0  0  0  0  0  2  0  0  0  0  0  0
  -28.2950  -26.4560   20.1160 O   0  0  0  0  0  0  0  0  0  0  0  0
  -24.6510  -31.8570   23.2250 C   0  0  0  0  0  0  0  0  0  0  0  0
  -27.2140  -27.3490   20.0680 C   0  0  0  0  0  0  0  0  0  0  0  0
  -23.4430  -30.5080   21.5510 C   0  0  0  0  0  3  0  0  0  0  0  0
  -24.8810  -28.9960   20.0890 C   0  0  0  0  0  0  0  0  0  0  0  0
  -25.9890  -30.8180   21.3780 C   0  0  0  0  0  2  0  0  0  0  0  0
  -26.0560  -29.4550   20.7010 C   0  0  0  0  0  0  0  0  0  0  0  0
  -27.2310  -28.6430   20.6780 C   0  0  0  0  0  3  0  0  0  0  0  0
  -26.0190  -26.9610   19.4180 C   0  0  0  0  0  3  0  0  0  0  0  0
  -24.8650  -27.7590   19.4400 C   0  0  0  0  0  3  0  0  0  0  0  0
  -23.6550  -29.8770   20.1540 C   0  0  0  0  0  2  0  0  0  0  0  0
  -24.7160  -31.0810   22.1060 N   0  0  0  0  0  0  0  0  0  0  0  0
  -23.5650  -32.1200   23.7620 O   0  0  0  0  0  0  0  0  0  0  0  0
  -22.7790  -29.4640   22.4830 C   0  0  0  0  0  0  0  0  0  0  0  0
  -21.4540  -29.2890   22.3480 N   0  0  0  0  0  0  0  0  0  0  0  0
  -23.4570  -28.8150   23.2850 O   0  0  0  0  0  0  0  0  0  0  0  0
  -20.9680  -29.8710   21.6830 H   0  0  0  0  0  0  0  0  0  0  0  0
  -18.0650  -28.1050   22.8400 C   0  0  0  0  0  0  0  0  0  0  0  0
  -20.6300  -28.3310   23.0920 C   0  0  0  0  0  3  0  0  0  0  0  0
  -20.7080  -26.9170   22.4720 C   0  0  0  0  0  2  0  0  0  0  0  0
  -19.5920  -26.6380   21.4590 C   0  0  0  0  0  2  0  0  0  0  0  0
  -18.2180  -26.7760   22.1190 C   0  0  0  0  0  2  0  0  0  0  0  0
  -19.1950  -28.8430   23.2850 C   0  0  0  0  0  0  0  0  0  0  0  0
  -18.9920  -30.0860   23.9200 C   0  0  0  0  0  3  0  0  0  0  0  0
  -17.6940  -30.5970   24.1060 C   0  0  0  0  0  3  0  0  0  0  0  0
  -16.5800  -29.8560   23.6730 C   0  0  0  0  0  3  0  0  0  0  0  0
  -16.7670  -28.6090   23.0510 C   0  0  0  0  0  3  0  0  0  0  0  0
  -25.9310  -32.4720   23.8650 C   0  0  0  0  0  3  0  0  0  0  0  0
  -25.6270  -33.8670   24.2080 N   0  0  0  0  0  0  0  0  0  0  0  0
  -25.9380  -34.9230   23.4460 C   0  0  0  0  0  0  0  0  0  0  0  0
  -26.5800  -34.8220   22.3960 O   0  0  0  0  0  0  0  0  0  0  0  0
  -25.0440  -34.0130   25.0200 H   0  0  0  0  0  0  0  0  0  0  0  0
  -24.1840  -36.7050   23.1640 C   0  0  0  0  0  1  0  0  0  0  0  0
  -25.4660  -36.3140   23.9190 C   0  0  0  0  0  3  0  0  0  0  0  0
  -27.6330  -37.2170   24.6410 C   0  0  0  0  0  1  0  0  0  0  0  0
  -26.4870  -37.3710   23.7470 N   0  0  0  0  0  0  0  0  0  0  0  0
  -26.0860  -38.2950   23.8930 H   0  0  0  0  0  0  0  0  0  0  0  0
  -26.4240  -31.6810   25.1380 C   0  0  1  0  0  0  0  0  0  0  0  0
  -25.3130  -31.4350   26.1890 C   0  0  0  0  0  1  0  0  0  0  0  0
  -27.0030  -30.3050   24.7370 C   0  0  0  0  0  1  0  0  0  0  0  0
  -27.5730  -32.4600   25.8180 C   0  0  0  0  0  1  0  0  0  0  0  0
  2  1  1  0
  3 11  1  0
  3  1  1  0
  4 53  1  0
  4  2  1  0
  5  4  1  0
  5  3  1  0
  6  5  1  0
  7  5  1  0
  9  8  2  0
 10 12  2  0
 10 13  1  0
 11  8  1  0
 12  9  1  0
 13 11  2  0
 14 13  1  0
 15 23  1  0
 16 21  1  0
 17 18  1  0
 17 16  1  0
 19 18  1  0
 19 28  1  0
 19 20  1  0
 21 15  1  0
 21 20  1  0
 22 15  2  0
 23 12  1  0
 23 24  1  0
 25 26  2  0
 26 45  1  0
 27 26  1  0
 27 30  1  0
 28 29  1  0
 28 25  1  0
 29 27  2  0
 30 31  1  0
 31 32  2  0
 33 36  1  0
 33 32  1  0
 34 33  2  0
 35 34  1  0
 35 30  2  0
 36 37  1  0
 37 42  2  0
 37 38  1  0
 38 39  2  0
 39 40  1  0
 40 44  1  0
 41 40  2  0
 42 41  1  0
 43 42  1  0
 45 46  1  0
 46 49  1  0
 46 48  1  0
 47 45  2  0
 50 51  1  0
 50 25  1  0
 52 50  1  0
 54 53  1  0
 55 66  2  0
 56 54  1  0
 56 61  1  0
 57 65  1  0
 57 67  1  0
 58 64  1  0
 58 60  1  0
 59 65  1  0
 60 59  1  0
 61 60  2  0
 62 63  1  0
 62 56  2  0
 63 58  2  0
 64 57  1  0
 65 55  1  0
 67 69  2  0
 68 67  1  0
 70 68  1  0
 71 80  2  0
 71 76  1  0
 72 68  1  0
 72 76  1  0
 73 72  1  0
 74 75  1  0
 74 73  1  0
 75 71  1  0
 76 77  2  0
 77 78  1  0
 79 78  2  0
 80 79  1  0
 81 55  1  0
 81 82  1  0
 81 91  1  0
 82 85  1  0
 83 87  1  0
 83 82  1  0
 84 83  2  0
 87 86  1  0
 89 90  1  0
 89 87  1  0
 89 88  1  0
 91 94  1  1
 91 92  1  0
 93 91  1  0
M  ISO  4  15 100  23 100  53 101  54 101
M  END
>  <TORSDO>  (92) 
F 18

>  <SCORE>  (92) 
-14.553

>  <name>  (92) 
92

>  <ligand_id>  (92) 
92

>  <original_smiles>  (92) 
[H]c1c([H])c([H])c2c(c1[H])C([H])([H])C([H])([H])C([H])([H])C2([H])N([H])C(=O)C1([H])N(C(=O)C([H])(N([H])C(=O)C([H])(N([H])C([H])([H])[H])C([H])([H])[H])C(C([H])([H])[H])(C([H])([H])[H])C([H])([H])[H])C([H])([H])c2c([H])c(OC([H])([H])C3([H])C([H])([H])C([H])([H])C([H])(c4c([H])c([H])c(N([H])C(=O)N5C([H])([H])C([H])([H])C([H])([H])C([H])(n6nc(-c7c([H])c([H])c(Oc8c([H])c([H])c(F)c([H])c8F)c([H])c7[H])c(C(=O)N([H])[H])c6N([H])[H])C5([H])[H])c([H])c4F)[N+]3([H])[H])c([H])c([H])c2C1([H])[H]

>  <smiles>  (92) 
[H]c1c([H])c([H])c2c(c1[H])C([H])([H])C([H])([H])C([H])([H])C2([H])N([H])C(=O)C1([H])N(C(=O)C([H])(N([H])C(=O)C([H])(N([H])C([H])([H])[H])C([H])([H])[H])C(C([H])([H])[H])(C([H])([H])[H])C([H])([H])[H])C([H])([H])c2c([H])c(OC([H])([H])C3([H])C([H])([H])C([H])([H])C([H])(c4c([H])c([H])c(N([H])C(=O)N5C([H])([H])C([H])([H])C([H])([H])C([H])(n6nc(-c7c([H])c([H])c(Oc8c([H])c([H])c(F)c([H])c8F)c([H])c7[H])c(C(=O)N([H])[H])c6N([H])[H])C5([H])[H])c([H])c4F)[N+]3([H])[H])c([H])c([H])c2C1([H])[H]

$$$$
93:0:0
     RDKit          3D

 98106  0  0  1  0  0  0  0  0999 V2000
  -31.8500  -22.4670   16.0320 C   0  0  0  0  0  2  0  0  0  0  0  0
  -31.0650  -21.8310   17.2010 C   0  0  0  0  0  2  0  0  0  0  0  0
  -31.0120  -20.3860   17.0160 N   0  0  0  0  0  0  0  0  0  0  0  0
  -30.4940  -20.2050   16.1570 H   0  0  0  0  0  0  0  0  0  0  0  0
  -30.2640  -19.8200   18.1400 C   0  0  0  0  0  2  0  0  0  0  0  0
  -30.7950  -14.5890   20.6910 C   0  0  0  0  0  0  0  0  0  0  0  0
  -30.4650  -12.3600   19.8020 C   0  0  0  0  0  2  0  0  0  0  0  0
  -29.6180  -12.4390   18.5210 C   0  0  0  0  0  2  0  0  0  0  0  0
  -28.1300  -12.3040   18.8900 C   0  0  0  0  0  2  0  0  0  0  0  0
  -27.6750  -13.2780   20.0110 C   0  0  0  0  0  3  0  0  0  0  0  0
  -28.6750  -13.3100   21.1940 C   0  0  0  0  0  2  0  0  0  0  0  0
  -30.0310  -13.4720   20.6510 N   0  0  0  0  0  0  0  0  0  0  0  0
  -31.9520  -14.5570   21.0830 O   0  0  0  0  0  0  0  0  0  0  0  0
  -29.6550  -17.7350   19.4010 C   0  0  0  0  0  2  0  0  0  0  0  0
  -29.3930  -16.2190   19.4450 C   0  0  0  0  0  2  0  0  0  0  0  0
  -31.7750  -15.4930   18.6950 C   0  0  0  0  0  2  0  0  0  0  0  0
  -31.7100  -16.3970   17.4650 C   0  0  0  0  0  2  0  0  0  0  0  0
  -30.2390  -18.2840   18.0810 C   0  0  0  0  0  3  0  0  0  0  0  0
  -30.6030  -15.3950   19.6140 N   0  0  0  0  0  0  0  0  0  0  0  0
  -31.6100  -17.8150   17.8420 N   0  0  0  0  0  4  0  0  0  0  0  0
  -31.9370  -18.3860   17.0730 H   0  0  0  0  0  0  0  0  0  0  0  0
  -32.2060  -18.0330   18.6220 H   0  0  0  0  0  0  0  0  0  0  0  0
  -25.2460  -13.8890   20.5950 C   0  0  0  0  0  0  0  0  0  0  0  0
  -24.1650  -13.1170   20.9150 C   0  0  0  0  0  0  0  0  0  0  0  0
  -24.6390  -11.7670   20.9540 C   0  0  0  0  0  0  0  0  0  0  0  0
  -26.3100  -13.0090   20.4450 N   0  0  0  0  0  0  0  0  0  0  0  0
  -25.9440  -11.7330   20.7280 N   0  0  0  0  0  0  0  0  0  0  0  0
  -23.9150  -10.5020   21.1290 C   0  0  0  0  0  0  0  0  0  0  0  0
  -24.3230   -9.5440   22.0840 C   0  0  0  0  0  3  0  0  0  0  0  0
  -23.6010   -8.3420   22.2470 C   0  0  0  0  0  3  0  0  0  0  0  0
  -22.4590   -8.0870   21.4510 C   0  0  0  0  0  0  0  0  0  0  0  0
  -22.0680   -9.0360   20.4910 C   0  0  0  0  0  3  0  0  0  0  0  0
  -22.7900  -10.2300   20.3270 C   0  0  0  0  0  3  0  0  0  0  0  0
  -21.7140   -6.9340   21.5190 O   0  0  0  0  0  0  0  0  0  0  0  0
  -21.6580   -6.1780   22.6630 C   0  0  0  0  0  0  0  0  0  0  0  0
  -21.2400   -6.7230   23.8960 C   0  0  0  0  0  3  0  0  0  0  0  0
  -21.1290   -5.8950   25.0320 C   0  0  0  0  0  3  0  0  0  0  0  0
  -21.4290   -4.5230   24.9360 C   0  0  0  0  0  0  0  0  0  0  0  0
  -21.8420   -3.9770   23.7080 C   0  0  0  0  0  3  0  0  0  0  0  0
  -21.9530   -4.8020   22.5740 C   0  0  0  0  0  0  0  0  0  0  0  0
  -22.3300   -4.2660   21.3880 F   0  0  0  0  0  0  0  0  0  0  0  0
  -21.3180   -3.7260   26.0250 F   0  0  0  0  0  0  0  0  0  0  0  0
  -22.7480  -13.5820   21.0820 C   0  0  0  0  0  0  0  0  0  0  0  0
  -21.9710  -12.9060   21.9170 N   0  0  0  0  0  0  0  0  0  0  0  0
  -22.3360  -14.5880   20.5030 O   0  0  0  0  0  0  0  0  0  0  0  0
  -22.3110  -12.0920   22.4070 H   0  0  0  0  0  0  0  0  0  0  0  0
  -21.0210  -13.2150   22.0740 H   0  0  0  0  0  0  0  0  0  0  0  0
  -25.4160  -15.2590   20.3970 N   0  0  0  0  0  0  0  0  0  0  0  0
  -24.6430  -15.9130   20.4700 H   0  0  0  0  0  0  0  0  0  0  0  0
  -26.2840  -15.7070   20.1310 H   0  0  0  0  0  0  0  0  0  0  0  0
  -31.7760  -24.0050   15.8630 C   0  0  0  0  0  2  0  0  0  0  0  0
  -31.6650  -24.7760   17.1200 N   0  0  0  0  0  4  0  0  0  0  0  0
  -32.1230  -25.6580   16.9670 H   0  0  0  0  0  0  0  0  0  0  0  0
  -32.1580  -24.3110   17.8670 H   0  0  0  0  0  0  0  0  0  0  0  0
  -30.2650  -25.0670   17.4870 C   0  0  0  0  0  2  0  0  0  0  0  0
  -30.1110  -25.6400   18.8990 C   0  0  0  0  0  2  0  0  0  0  0  0
  -28.6350  -25.7000   19.2840 C   0  0  0  0  0  2  0  0  0  0  0  0
  -28.4770  -26.8290   20.1200 O   0  0  0  0  0  0  0  0  0  0  0  0
  -24.6500  -31.8990   23.2160 C   0  0  0  0  0  0  0  0  0  0  0  0
  -27.2680  -27.4830   20.1070 C   0  0  0  0  0  0  0  0  0  0  0  0
  -23.4270  -30.4840   21.5960 C   0  0  0  0  0  3  0  0  0  0  0  0
  -24.8640  -28.9540   20.1550 C   0  0  0  0  0  0  0  0  0  0  0  0
  -25.9450  -30.8630   21.3570 C   0  0  0  0  0  2  0  0  0  0  0  0
  -26.0260  -29.4910   20.7210 C   0  0  0  0  0  0  0  0  0  0  0  0
  -27.2290  -28.7590   20.6990 C   0  0  0  0  0  3  0  0  0  0  0  0
  -26.0830  -26.9400   19.5510 C   0  0  0  0  0  3  0  0  0  0  0  0
  -24.8830  -27.6770   19.5690 C   0  0  0  0  0  3  0  0  0  0  0  0
  -23.6180  -29.8070   20.2150 C   0  0  0  0  0  2  0  0  0  0  0  0
  -24.6940  -31.0960   22.1160 N   0  0  0  0  0  0  0  0  0  0  0  0
  -23.5750  -32.1770   23.7620 O   0  0  0  0  0  0  0  0  0  0  0  0
  -22.7960  -29.4620   22.5700 C   0  0  0  0  0  0  0  0  0  0  0  0
  -21.4720  -29.2700   22.4490 N   0  0  0  0  0  0  0  0  0  0  0  0
  -23.4930  -28.8430   23.3780 O   0  0  0  0  0  0  0  0  0  0  0  0
  -20.9770  -29.8100   21.7520 H   0  0  0  0  0  0  0  0  0  0  0  0
  -18.1130  -28.0440   22.9600 C   0  0  0  0  0  0  0  0  0  0  0  0
  -20.6680  -28.3270   23.2270 C   0  0  0  0  0  3  0  0  0  0  0  0
  -20.7830  -26.8940   22.6510 C   0  0  0  0  0  2  0  0  0  0  0  0
  -19.6800  -26.5570   21.6440 C   0  0  0  0  0  2  0  0  0  0  0  0
  -18.3000  -26.6940   22.2890 C   0  0  0  0  0  2  0  0  0  0  0  0
  -19.2270  -28.8190   23.3810 C   0  0  0  0  0  0  0  0  0  0  0  0
  -18.9990  -30.0850   23.9640 C   0  0  0  0  0  3  0  0  0  0  0  0
  -17.6920  -30.5760   24.1360 C   0  0  0  0  0  3  0  0  0  0  0  0
  -16.5920  -29.8000   23.7270 C   0  0  0  0  0  3  0  0  0  0  0  0
  -16.8040  -28.5350   23.1460 C   0  0  0  0  0  3  0  0  0  0  0  0
  -25.9430  -32.5300   23.8210 C   0  0  0  0  0  3  0  0  0  0  0  0
  -26.4940  -31.7490   25.0760 C   0  0  1  0  0  0  0  0  0  0  0  0
  -25.4220  -31.4840   26.1610 C   0  0  0  0  0  1  0  0  0  0  0  0
  -27.0770  -30.3810   24.6480 C   0  0  0  0  0  1  0  0  0  0  0  0
  -27.6590  -32.5410   25.7180 C   0  0  0  0  0  1  0  0  0  0  0  0
  -25.6310  -33.9230   24.1700 N   0  0  0  0  0  0  0  0  0  0  0  0
  -25.9390  -34.9820   23.4140 C   0  0  0  0  0  0  0  0  0  0  0  0
  -26.5880  -34.8960   22.3670 O   0  0  0  0  0  0  0  0  0  0  0  0
  -25.0610  -34.0640   24.9910 H   0  0  0  0  0  0  0  0  0  0  0  0
  -24.1880  -36.7560   23.1050 C   0  0  0  0  0  1  0  0  0  0  0  0
  -25.4450  -36.3590   23.8920 C   0  0  0  0  0  3  0  0  0  0  0  0
  -27.5890  -37.2490   24.6860 C   0  0  0  0  0  1  0  0  0  0  0  0
  -26.4650  -37.4240   23.7720 N   0  0  0  0  0  0  0  0  0  0  0  0
  -26.0550  -38.3390   23.9420 H   0  0  0  0  0  0  0  0  0  0  0  0
  1  2  1  0
  3  2  1  0
  3  5  1  0
  4  3  1  0
  6 13  2  0
  7 12  1  0
  8  9  1  0
  8  7  1  0
 10  9  1  0
 10 26  1  0
 10 11  1  0
 12  6  1  0
 12 11  1  0
 14 15  1  0
 15 19  1  0
 16 19  1  0
 17 20  1  0
 17 16  1  0
 18  5  1  0
 18 14  1  0
 19  6  1  0
 20 18  1  0
 20 22  1  0
 21 20  1  0
 23 24  2  0
 24 25  1  0
 24 43  1  0
 25 28  1  0
 26 23  1  0
 26 27  1  0
 27 25  2  0
 28 29  1  0
 29 30  2  0
 31 34  1  0
 31 30  1  0
 32 31  2  0
 33 32  1  0
 33 28  2  0
 34 35  1  0
 35 36  1  0
 36 37  2  0
 38 37  1  0
 38 42  1  0
 39 38  2  0
 40 35  2  0
 40 39  1  0
 41 40  1  0
 43 44  1  0
 44 47  1  0
 44 46  1  0
 45 43  2  0
 48 49  1  0
 48 23  1  0
 50 48  1  0
 51  1  1  0
 51 52  1  0
 52 55  1  0
 52 54  1  0
 53 52  1  0
 55 56  1  0
 56 57  1  0
 57 58  1  0
 59 70  2  0
 60 58  1  0
 60 65  1  0
 61 69  1  0
 61 71  1  0
 62 68  1  0
 62 64  1  0
 63 69  1  0
 64 63  1  0
 65 64  2  0
 66 67  1  0
 66 60  2  0
 67 62  2  0
 68 61  1  0
 69 59  1  0
 71 73  2  0
 72 71  1  0
 74 72  1  0
 75 84  2  0
 75 80  1  0
 76 72  1  0
 76 80  1  0
 77 76  1  0
 78 79  1  0
 78 77  1  0
 79 75  1  0
 80 81  2  0
 81 82  1  0
 83 82  2  0
 84 83  1  0
 85 59  1  0
 85 90  1  0
 85 86  1  0
 86 89  1  1
 86 87  1  0
 88 86  1  0
 90 93  1  0
 91 95  1  0
 91 90  1  0
 92 91  2  0
 95 94  1  0
 97 95  1  0
 97 98  1  0
 97 96  1  0
M  ISO  4   6 100  19 100  57 101  58 101
M  END
>  <TORSDO>  (93) 
F 24

>  <SCORE>  (93) 
-12.140

>  <name>  (93) 
93

>  <ligand_id>  (93) 
93

>  <original_smiles>  (93) 
[H]c1c([H])c([H])c2c(c1[H])C([H])([H])C([H])([H])C([H])([H])C2([H])N([H])C(=O)C1([H])N(C(=O)C([H])(N([H])C(=O)C([H])(N([H])C([H])([H])[H])C([H])([H])[H])C(C([H])([H])[H])(C([H])([H])[H])C([H])([H])[H])C([H])([H])c2c([H])c(OC([H])([H])C([H])([H])C([H])([H])[N+]([H])([H])C([H])([H])C([H])([H])C([H])([H])N([H])C([H])([H])C3([H])C([H])([H])C([H])([H])N(C(=O)N4C([H])([H])C([H])([H])C([H])([H])C([H])(n5nc(-c6c([H])c([H])c(Oc7c([H])c([H])c(F)c([H])c7F)c([H])c6[H])c(C(=O)N([H])[H])c5N([H])[H])C4([H])[H])C([H])([H])C([H])([H])[N+]3([H])[H])c([H])c([H])c2C1([H])[H]

>  <smiles>  (93) 
[H]c1c([H])c([H])c2c(c1[H])C([H])([H])C([H])([H])C([H])([H])C2([H])N([H])C(=O)C1([H])N(C(=O)C([H])(N([H])C(=O)C([H])(N([H])C([H])([H])[H])C([H])([H])[H])C(C([H])([H])[H])(C([H])([H])[H])C([H])([H])[H])C([H])([H])c2c([H])c(OC([H])([H])C([H])([H])C([H])([H])[N+]([H])([H])C([H])([H])C([H])([H])C([H])([H])N([H])C([H])([H])C3([H])C([H])([H])C([H])([H])N(C(=O)N4C([H])([H])C([H])([H])C([H])([H])C([H])(n5nc(-c6c([H])c([H])c(Oc7c([H])c([H])c(F)c([H])c7F)c([H])c6[H])c(C(=O)N([H])[H])c5N([H])[H])C4([H])[H])C([H])([H])C([H])([H])[N+]3([H])[H])c([H])c([H])c2C1([H])[H]

$$$$
94:0:0
     RDKit          3D

 98106  0  0  1  0  0  0  0  0999 V2000
  -31.0440  -20.7600   21.1400 C   0  0  0  0  0  2  0  0  0  0  0  0
  -29.9740  -21.8390   20.8750 C   0  0  0  0  0  2  0  0  0  0  0  0
  -30.5640  -23.0910   20.1990 C   0  0  0  0  0  2  0  0  0  0  0  0
  -29.5230  -24.0980   19.9120 N   0  0  0  0  0  4  0  0  0  0  0  0
  -29.1470  -24.4440   20.7820 H   0  0  0  0  0  0  0  0  0  0  0  0
  -28.7700  -23.6490   19.4140 H   0  0  0  0  0  0  0  0  0  0  0  0
  -29.9950  -25.2540   19.1160 C   0  0  0  0  0  2  0  0  0  0  0  0
  -28.8450  -26.2250   18.8260 C   0  0  0  0  0  2  0  0  0  0  0  0
  -28.4230  -26.7750   20.0720 O   0  0  0  0  0  0  0  0  0  0  0  0
  -24.6110  -31.8700   23.2130 C   0  0  0  0  0  0  0  0  0  0  0  0
  -27.2410  -27.4750   20.0700 C   0  0  0  0  0  0  0  0  0  0  0  0
  -23.3970  -30.4940   21.5530 C   0  0  0  0  0  3  0  0  0  0  0  0
  -24.8430  -28.9630   20.1160 C   0  0  0  0  0  0  0  0  0  0  0  0
  -25.9220  -30.8430   21.3630 C   0  0  0  0  0  2  0  0  0  0  0  0
  -25.9990  -29.4790   20.7150 C   0  0  0  0  0  0  0  0  0  0  0  0
  -27.1960  -28.7340   20.7050 C   0  0  0  0  0  3  0  0  0  0  0  0
  -26.0620  -26.9550   19.4890 C   0  0  0  0  0  3  0  0  0  0  0  0
  -24.8660  -27.6960   19.5090 C   0  0  0  0  0  3  0  0  0  0  0  0
  -23.6030  -29.8260   20.1670 C   0  0  0  0  0  2  0  0  0  0  0  0
  -24.6610  -31.0830   22.1020 N   0  0  0  0  0  0  0  0  0  0  0  0
  -23.5310  -32.1450   23.7540 O   0  0  0  0  0  0  0  0  0  0  0  0
  -22.7380  -29.4670   22.5010 C   0  0  0  0  0  0  0  0  0  0  0  0
  -21.4120  -29.3030   22.3750 N   0  0  0  0  0  0  0  0  0  0  0  0
  -23.4170  -28.8210   23.3040 O   0  0  0  0  0  0  0  0  0  0  0  0
  -20.9270  -29.8760   21.6980 H   0  0  0  0  0  0  0  0  0  0  0  0
  -18.0270  -28.1370   22.8490 C   0  0  0  0  0  0  0  0  0  0  0  0
  -20.5850  -28.3650   23.1330 C   0  0  0  0  0  3  0  0  0  0  0  0
  -20.6750  -26.9390   22.5420 C   0  0  0  0  0  2  0  0  0  0  0  0
  -19.5730  -26.6390   21.5210 C   0  0  0  0  0  2  0  0  0  0  0  0
  -18.1910  -26.7920   22.1620 C   0  0  0  0  0  2  0  0  0  0  0  0
  -19.1510  -28.8830   23.2910 C   0  0  0  0  0  0  0  0  0  0  0  0
  -18.9450  -30.1440   23.8920 C   0  0  0  0  0  3  0  0  0  0  0  0
  -17.6450  -30.6580   24.0570 C   0  0  0  0  0  3  0  0  0  0  0  0
  -16.5340  -29.9090   23.6330 C   0  0  0  0  0  3  0  0  0  0  0  0
  -16.7260  -28.6500   23.0350 C   0  0  0  0  0  3  0  0  0  0  0  0
  -25.9010  -32.4840   23.8410 C   0  0  0  0  0  3  0  0  0  0  0  0
  -25.5880  -33.8630   24.2350 N   0  0  0  0  0  0  0  0  0  0  0  0
  -25.9030  -34.9480   23.5140 C   0  0  0  0  0  0  0  0  0  0  0  0
  -26.5600  -34.8930   22.4700 O   0  0  0  0  0  0  0  0  0  0  0  0
  -25.0030  -33.9800   25.0490 H   0  0  0  0  0  0  0  0  0  0  0  0
  -24.1480  -36.7320   23.2640 C   0  0  0  0  0  1  0  0  0  0  0  0
  -25.4100  -36.3120   24.0340 C   0  0  0  0  0  3  0  0  0  0  0  0
  -27.5580  -37.1810   24.8460 C   0  0  0  0  0  1  0  0  0  0  0  0
  -26.4290  -37.3800   23.9420 N   0  0  0  0  0  0  0  0  0  0  0  0
  -26.0180  -38.2880   24.1430 H   0  0  0  0  0  0  0  0  0  0  0  0
  -26.4460  -31.6600   25.0720 C   0  0  1  0  0  0  0  0  0  0  0  0
  -25.3740  -31.3690   26.1480 C   0  0  0  0  0  1  0  0  0  0  0  0
  -27.0280  -30.3050   24.6070 C   0  0  0  0  0  1  0  0  0  0  0  0
  -27.6050  -32.4310   25.7480 C   0  0  0  0  0  1  0  0  0  0  0  0
  -30.5650  -19.4550   21.8310 C   0  0  0  0  0  3  0  0  0  0  0  0
  -29.5600  -18.6630   20.9660 C   0  0  0  0  0  0  0  0  0  0  0  0
  -28.0990  -19.0900   20.9840 C   0  0  0  0  0  1  0  0  0  0  0  0
  -29.9100  -17.6680   20.3270 O   0  0  0  0  0  0  0  0  0  0  0  0
  -31.8100  -18.6200   22.2680 C   0  0  0  0  0  2  0  0  0  0  0  0
  -30.9090  -14.2200   20.8030 C   0  0  0  0  0  0  0  0  0  0  0  0
  -30.4010  -12.2750   19.3980 C   0  0  0  0  0  2  0  0  0  0  0  0
  -29.4800  -12.5410   18.1960 C   0  0  0  0  0  2  0  0  0  0  0  0
  -28.0140  -12.3570   18.6080 C   0  0  0  0  0  2  0  0  0  0  0  0
  -27.6620  -13.2080   19.8480 C   0  0  0  0  0  3  0  0  0  0  0  0
  -28.6870  -13.0310   20.9860 C   0  0  0  0  0  2  0  0  0  0  0  0
  -30.0750  -13.1880   20.5070 N   0  0  0  0  0  0  0  0  0  0  0  0
  -31.6560  -14.7130   19.9510 O   0  0  0  0  0  0  0  0  0  0  0  0
  -29.7700  -15.7290   23.5410 C   0  0  0  0  0  2  0  0  0  0  0  0
  -30.4080  -14.3440   23.3130 C   0  0  0  0  0  2  0  0  0  0  0  0
  -32.6250  -14.8290   22.4600 C   0  0  0  0  0  2  0  0  0  0  0  0
  -30.8010  -16.8670   23.7430 C   0  0  0  0  0  2  0  0  0  0  0  0
  -32.8070  -16.3600   22.3260 C   0  0  0  0  0  2  0  0  0  0  0  0
  -31.2670  -14.3560   22.1170 N   0  0  0  0  0  0  0  0  0  0  0  0
  -31.5650  -17.1670   22.4990 N   0  0  2  0  0  4  0  0  0  0  0  0
  -30.9680  -16.9230   21.7160 H   0  0  0  0  0  0  0  0  0  0  0  0
  -25.2610  -13.8170   20.5620 C   0  0  0  0  0  0  0  0  0  0  0  0
  -24.1870  -13.0450   20.9160 C   0  0  0  0  0  0  0  0  0  0  0  0
  -24.6420  -11.6910   20.8700 C   0  0  0  0  0  0  0  0  0  0  0  0
  -26.3030  -12.9350   20.3190 N   0  0  0  0  0  0  0  0  0  0  0  0
  -25.9330  -11.6510   20.5660 N   0  0  0  0  0  0  0  0  0  0  0  0
  -23.9080  -10.4300   21.0400 C   0  0  0  0  0  0  0  0  0  0  0  0
  -24.3630   -9.4210   21.9180 C   0  0  0  0  0  3  0  0  0  0  0  0
  -23.6300   -8.2250   22.0760 C   0  0  0  0  0  3  0  0  0  0  0  0
  -22.4280   -8.0280   21.3550 C   0  0  0  0  0  0  0  0  0  0  0  0
  -21.9910   -9.0260   20.4650 C   0  0  0  0  0  3  0  0  0  0  0  0
  -22.7250  -10.2140   20.3060 C   0  0  0  0  0  3  0  0  0  0  0  0
  -21.6650   -6.8880   21.4240 O   0  0  0  0  0  0  0  0  0  0  0  0
  -21.6860   -6.0730   22.5280 C   0  0  0  0  0  0  0  0  0  0  0  0
  -21.4020   -6.5640   23.8210 C   0  0  0  0  0  3  0  0  0  0  0  0
  -21.3660   -5.6790   24.9180 C   0  0  0  0  0  3  0  0  0  0  0  0
  -21.6040   -4.3050   24.7230 C   0  0  0  0  0  0  0  0  0  0  0  0
  -21.8820   -3.8140   23.4350 C   0  0  0  0  0  3  0  0  0  0  0  0
  -21.9200   -4.6960   22.3410 C   0  0  0  0  0  0  0  0  0  0  0  0
  -22.1660   -4.2140   21.0980 F   0  0  0  0  0  0  0  0  0  0  0  0
  -21.5630   -3.4540   25.7740 F   0  0  0  0  0  0  0  0  0  0  0  0
  -22.7880  -13.5240   21.1840 C   0  0  0  0  0  0  0  0  0  0  0  0
  -22.0530  -12.8230   22.0400 N   0  0  0  0  0  0  0  0  0  0  0  0
  -22.3550  -14.5530   20.6690 O   0  0  0  0  0  0  0  0  0  0  0  0
  -22.4130  -11.9890   22.4790 H   0  0  0  0  0  0  0  0  0  0  0  0
  -21.1140  -13.1250   22.2590 H   0  0  0  0  0  0  0  0  0  0  0  0
  -25.4330  -15.1900   20.4060 N   0  0  0  0  0  0  0  0  0  0  0  0
  -24.6680  -15.8460   20.5140 H   0  0  0  0  0  0  0  0  0  0  0  0
  -26.2880  -15.6260   20.0830 H   0  0  0  0  0  0  0  0  0  0  0  0
  2  1  1  0
  3  2  1  0
  4  3  1  0
  4  5  1  0
  6  4  1  0
  7  4  1  0
  8  7  1  0
  8  9  1  0
 10 21  2  0
 11  9  1  0
 11 16  1  0
 12 20  1  0
 12 22  1  0
 13 19  1  0
 13 15  1  0
 14 20  1  0
 15 14  1  0
 16 15  2  0
 17 18  1  0
 17 11  2  0
 18 13  2  0
 19 12  1  0
 20 10  1  0
 22 24  2  0
 23 22  1  0
 25 23  1  0
 26 35  2  0
 26 31  1  0
 27 23  1  0
 27 31  1  0
 28 27  1  0
 29 30  1  0
 29 28  1  0
 30 26  1  0
 31 32  2  0
 32 33  1  0
 34 33  2  0
 35 34  1  0
 36 10  1  0
 36 37  1  0
 36 46  1  0
 37 40  1  0
 38 42  1  0
 38 37  1  0
 39 38  2  0
 42 41  1  0
 44 42  1  0
 44 45  1  0
 44 43  1  0
 46 49  1  1
 46 47  1  0
 48 46  1  0
 50  1  1  0
 50 54  1  0
 51 52  1  0
 51 50  1  0
 53 51  2  0
 54 69  1  0
 55 68  1  0
 56 61  1  0
 57 58  1  0
 57 56  1  0
 59 58  1  0
 59 74  1  0
 59 60  1  0
 61 55  1  0
 61 60  1  0
 62 55  2  0
 63 66  1  0
 64 63  1  0
 67 65  1  0
 67 69  1  0
 68 65  1  0
 68 64  1  0
 69 66  1  0
 69 70  1  6
 71 72  2  0
 72 91  1  0
 73 72  1  0
 73 76  1  0
 74 71  1  0
 74 75  1  0
 75 73  2  0
 76 77  1  0
 77 78  2  0
 79 82  1  0
 79 78  1  0
 80 79  2  0
 81 80  1  0
 81 76  2  0
 82 83  1  0
 83 84  1  0
 84 85  2  0
 86 85  1  0
 86 90  1  0
 87 86  2  0
 88 83  2  0
 88 87  1  0
 89 88  1  0
 91 92  1  0
 92 95  1  0
 92 94  1  0
 93 91  2  0
 96 97  1  0
 96 71  1  0
 98 96  1  0
M  ISO  4   8 101   9 101  55 100  68 100
M  END
>  <TORSDO>  (94) 
F 24

>  <SCORE>  (94) 
5.108

>  <name>  (94) 
94

>  <ligand_id>  (94) 
94

>  <original_smiles>  (94) 
[H]c1c([H])c([H])c2c(c1[H])C([H])([H])C([H])([H])C([H])([H])C2([H])N([H])C(=O)C1([H])N(C(=O)C([H])(N([H])C(=O)C([H])(N([H])C([H])([H])[H])C([H])([H])[H])C(C([H])([H])[H])(C([H])([H])[H])C([H])([H])[H])C([H])([H])c2c([H])c(OC([H])([H])C([H])([H])[N+]([H])([H])C([H])([H])C([H])([H])C([H])([H])C([H])(C(=O)C([H])([H])[H])C([H])([H])[N+]3([H])C([H])([H])C([H])([H])N(C(=O)N4C([H])([H])C([H])([H])C([H])([H])C([H])(n5nc(-c6c([H])c([H])c(Oc7c([H])c([H])c(F)c([H])c7F)c([H])c6[H])c(C(=O)N([H])[H])c5N([H])[H])C4([H])[H])C([H])([H])C([H])([H])C3([H])[H])c([H])c([H])c2C1([H])[H]

>  <smiles>  (94) 
[H]c1c([H])c([H])c2c(c1[H])C([H])([H])C([H])([H])C([H])([H])C2([H])N([H])C(=O)C1([H])N(C(=O)C([H])(N([H])C(=O)C([H])(N([H])C([H])([H])[H])C([H])([H])[H])C(C([H])([H])[H])(C([H])([H])[H])C([H])([H])[H])C([H])([H])c2c([H])c(OC([H])([H])C([H])([H])[N+]([H])([H])C([H])([H])C([H])([H])C([H])([H])C([H])(C(=O)C([H])([H])[H])C([H])([H])[N+]3([H])C([H])([H])C([H])([H])N(C(=O)N4C([H])([H])C([H])([H])C([H])([H])C([H])(n5nc(-c6c([H])c([H])c(Oc7c([H])c([H])c(F)c([H])c7F)c([H])c6[H])c(C(=O)N([H])[H])c5N([H])[H])C4([H])[H])C([H])([H])C([H])([H])C3([H])[H])c([H])c([H])c2C1([H])[H]

$$$$
95:0:0
     RDKit          3D

 94102  0  0  1  0  0  0  0  0999 V2000
  -27.0890  -20.2510   19.8340 C   0  0  0  0  0  2  0  0  0  0  0  0
  -28.7970  -18.8730   18.4950 C   0  0  0  0  0  2  0  0  0  0  0  0
  -28.2350  -20.5150   20.8520 C   0  0  0  0  0  2  0  0  0  0  0  0
  -27.5420  -19.7620   18.4300 C   0  0  0  0  0  3  0  0  0  0  0  0
  -29.9210  -19.3580   19.4550 C   0  0  0  0  0  3  0  0  0  0  0  0
  -29.5410  -20.7380   20.1890 N   0  0  1  0  0  4  0  0  0  0  0  0
  -30.2250  -20.8250   20.9220 H   0  0  0  0  0  0  0  0  0  0  0  0
  -26.4410  -19.1170   17.6830 N   0  0  0  0  0  4  0  0  0  0  0  0
  -26.1080  -18.2900   18.1400 H   0  0  0  0  0  0  0  0  0  0  0  0
  -26.7430  -18.8590   16.7600 H   0  0  0  0  0  0  0  0  0  0  0  0
  -25.6640  -19.7460   17.5870 H   0  0  0  0  0  0  0  0  0  0  0  0
  -30.5330  -18.0030   20.2990 C   0  0  0  0  0  2  0  0  0  0  0  0
  -30.9640  -15.2490   19.9340 C   0  0  0  0  0  0  0  0  0  0  0  0
  -30.7410  -12.9120   18.9670 C   0  0  0  0  0  2  0  0  0  0  0  0
  -29.7460  -12.9230   17.7860 C   0  0  0  0  0  2  0  0  0  0  0  0
  -28.2960  -12.7470   18.2770 C   0  0  0  0  0  2  0  0  0  0  0  0
  -27.9690  -13.6320   19.5100 C   0  0  0  0  0  3  0  0  0  0  0  0
  -29.0890  -13.6030   20.5720 C   0  0  0  0  0  2  0  0  0  0  0  0
  -30.3300  -14.0060   19.8930 N   0  0  0  0  0  0  0  0  0  0  0  0
  -32.1670  -15.2820   19.6660 O   0  0  0  0  0  0  0  0  0  0  0  0
  -30.2140  -16.4540   20.0590 N   0  0  0  0  0  0  0  0  0  0  0  0
  -29.2360  -16.2410   20.1890 H   0  0  0  0  0  0  0  0  0  0  0  0
  -25.6470  -14.2270   20.4000 C   0  0  0  0  0  0  0  0  0  0  0  0
  -24.5800  -13.4640   20.7710 C   0  0  0  0  0  0  0  0  0  0  0  0
  -25.0020  -12.1040   20.6540 C   0  0  0  0  0  0  0  0  0  0  0  0
  -26.6530  -13.3370   20.0670 N   0  0  0  0  0  0  0  0  0  0  0  0
  -26.2770  -12.0490   20.2830 N   0  0  0  0  0  0  0  0  0  0  0  0
  -24.2440  -10.8570   20.8190 C   0  0  0  0  0  0  0  0  0  0  0  0
  -24.6460   -9.8610   21.7360 C   0  0  0  0  0  3  0  0  0  0  0  0
  -23.8850   -8.6820   21.8920 C   0  0  0  0  0  3  0  0  0  0  0  0
  -22.7080   -8.4890   21.1300 C   0  0  0  0  0  0  0  0  0  0  0  0
  -22.3240   -9.4740   20.2040 C   0  0  0  0  0  3  0  0  0  0  0  0
  -23.0860  -10.6430   20.0470 C   0  0  0  0  0  3  0  0  0  0  0  0
  -21.9260   -7.3590   21.1910 O   0  0  0  0  0  0  0  0  0  0  0  0
  -21.8090   -6.6270   22.3450 C   0  0  0  0  0  0  0  0  0  0  0  0
  -21.2800   -7.1840   23.5290 C   0  0  0  0  0  3  0  0  0  0  0  0
  -21.1130   -6.3780   24.6720 C   0  0  0  0  0  3  0  0  0  0  0  0
  -21.4640   -5.0150   24.6310 C   0  0  0  0  0  0  0  0  0  0  0  0
  -21.9860   -4.4560   23.4510 C   0  0  0  0  0  3  0  0  0  0  0  0
  -22.1550   -5.2600   22.3090 C   0  0  0  0  0  0  0  0  0  0  0  0
  -22.6380   -4.7140   21.1680 F   0  0  0  0  0  0  0  0  0  0  0  0
  -21.2970   -4.2380   25.7270 F   0  0  0  0  0  0  0  0  0  0  0  0
  -23.2120  -13.9670   21.1340 C   0  0  0  0  0  0  0  0  0  0  0  0
  -22.5160  -13.2630   22.0160 N   0  0  0  0  0  0  0  0  0  0  0  0
  -22.7780  -15.0220   20.6740 O   0  0  0  0  0  0  0  0  0  0  0  0
  -22.8820  -12.4060   22.4060 H   0  0  0  0  0  0  0  0  0  0  0  0
  -21.6020  -13.5830   22.3050 H   0  0  0  0  0  0  0  0  0  0  0  0
  -25.8400  -15.6020   20.2920 N   0  0  0  0  0  0  0  0  0  0  0  0
  -25.1060  -16.2530   20.5500 H   0  0  0  0  0  0  0  0  0  0  0  0
  -26.7190  -16.0470   20.0750 H   0  0  0  0  0  0  0  0  0  0  0  0
  -29.5410  -22.1940   19.5140 C   0  0  0  0  0  2  0  0  0  0  0  0
  -29.1630  -23.6310   20.3340 C   0  0  0  0  0  3  0  0  0  0  0  0
  -28.7800  -25.1110   19.6200 C   0  0  0  0  0  3  0  0  0  0  0  0
  -28.5950  -26.4980   20.3020 O   0  0  0  0  0  0  0  0  0  0  0  0
  -24.6830  -31.9740   23.2810 C   0  0  0  0  0  0  0  0  0  0  0  0
  -27.4650  -27.3900   20.2150 C   0  0  0  0  0  0  0  0  0  0  0  0
  -23.5430  -30.5630   21.6090 C   0  0  0  0  0  3  0  0  0  0  0  0
  -25.0610  -29.0440   20.1870 C   0  0  0  0  0  0  0  0  0  0  0  0
  -26.0890  -30.9070   21.4810 C   0  0  0  0  0  2  0  0  0  0  0  0
  -26.2170  -29.5250   20.8160 C   0  0  0  0  0  0  0  0  0  0  0  0
  -27.4090  -28.7110   20.8190 C   0  0  0  0  0  3  0  0  0  0  0  0
  -26.2700  -26.9950   19.5710 C   0  0  0  0  0  3  0  0  0  0  0  0
  -25.1000  -27.7910   19.5570 C   0  0  0  0  0  3  0  0  0  0  0  0
  -23.8000  -29.8960   20.2310 C   0  0  0  0  0  2  0  0  0  0  0  0
  -24.7900  -31.1670   22.1800 N   0  0  0  0  0  0  0  0  0  0  0  0
  -23.5820  -32.2270   23.7930 O   0  0  0  0  0  0  0  0  0  0  0  0
  -22.8760  -29.5310   22.5540 C   0  0  0  0  0  0  0  0  0  0  0  0
  -21.5620  -29.2990   22.3800 N   0  0  0  0  0  0  0  0  0  0  0  0
  -23.5460  -28.9380   23.4020 O   0  0  0  0  0  0  0  0  0  0  0  0
  -21.0750  -29.8240   21.6690 H   0  0  0  0  0  0  0  0  0  0  0  0
  -18.2310  -27.9290   22.7410 C   0  0  0  0  0  0  0  0  0  0  0  0
  -20.7570  -28.3290   23.1280 C   0  0  0  0  0  3  0  0  0  0  0  0
  -20.9630  -26.8970   22.5800 C   0  0  0  0  0  2  0  0  0  0  0  0
  -19.9310  -26.5050   21.5200 C   0  0  0  0  0  2  0  0  0  0  0  0
  -18.5130  -26.5840   22.0920 C   0  0  0  0  0  2  0  0  0  0  0  0
  -19.2840  -28.7550   23.2140 C   0  0  0  0  0  0  0  0  0  0  0  0
  -18.9690  -30.0120   23.7760 C   0  0  0  0  0  3  0  0  0  0  0  0
  -17.6320  -30.4420   23.8690 C   0  0  0  0  0  3  0  0  0  0  0  0
  -16.5930  -29.6130   23.4150 C   0  0  0  0  0  3  0  0  0  0  0  0
  -16.8920  -28.3580   22.8570 C   0  0  0  0  0  3  0  0  0  0  0  0
  -25.9350  -32.6320   23.9350 C   0  0  0  0  0  3  0  0  0  0  0  0
  -25.5980  -34.0320   24.2380 N   0  0  0  0  0  0  0  0  0  0  0  0
  -25.9290  -35.0790   23.4720 C   0  0  0  0  0  0  0  0  0  0  0  0
  -26.6160  -34.9700   22.4530 O   0  0  0  0  0  0  0  0  0  0  0  0
  -24.9820  -34.1910   25.0220 H   0  0  0  0  0  0  0  0  0  0  0  0
  -24.1790  -36.8420   23.0730 C   0  0  0  0  0  1  0  0  0  0  0  0
  -25.4150  -36.4670   23.9040 C   0  0  0  0  0  3  0  0  0  0  0  0
  -27.5190  -37.4030   24.7590 C   0  0  0  0  0  1  0  0  0  0  0  0
  -26.4350  -37.5320   23.7890 N   0  0  0  0  0  0  0  0  0  0  0  0
  -26.0120  -38.4490   23.9100 H   0  0  0  0  0  0  0  0  0  0  0  0
  -26.4190  -31.8850   25.2390 C   0  0  1  0  0  0  0  0  0  0  0  0
  -25.2870  -31.6370   26.2640 C   0  0  0  0  0  1  0  0  0  0  0  0
  -27.0430  -30.5140   24.8890 C   0  0  0  0  0  1  0  0  0  0  0  0
  -27.5340  -32.7060   25.9300 C   0  0  0  0  0  1  0  0  0  0  0  0
  1  3  1  0
  2  5  1  0
  4  8  1  0
  4  2  1  0
  4  1  1  0
  5  6  1  0
  5 12  1  0
  6  3  1  0
  6  7  1  1
  8  9  1  0
 10  8  1  0
 11  8  1  0
 13 21  1  0
 14 19  1  0
 15 16  1  0
 15 14  1  0
 17 16  1  0
 17 26  1  0
 17 18  1  0
 19 13  1  0
 19 18  1  0
 20 13  2  0
 21 22  1  0
 21 12  1  0
 23 24  2  0
 24 43  1  0
 25 24  1  0
 25 28  1  0
 26 27  1  0
 26 23  1  0
 27 25  2  0
 28 29  1  0
 29 30  2  0
 31 34  1  0
 31 30  1  0
 32 31  2  0
 33 32  1  0
 33 28  2  0
 34 35  1  0
 35 36  1  0
 36 37  2  0
 38 37  1  0
 38 42  1  0
 39 38  2  0
 40 35  2  0
 40 39  1  0
 41 40  1  0
 43 44  1  0
 44 47  1  0
 44 46  1  0
 45 43  2  0
 48 23  1  0
 48 49  1  0
 50 48  1  0
 51  6  1  0
 51 52  1  0
 53 54  1  0
 53 52  2  0
 55 66  2  0
 56 54  1  0
 56 61  1  0
 57 65  1  0
 57 67  1  0
 58 64  1  0
 58 60  1  0
 59 65  1  0
 60 61  2  0
 60 59  1  0
 62 56  2  0
 63 62  1  0
 63 58  2  0
 64 57  1  0
 65 55  1  0
 67 69  2  0
 68 67  1  0
 70 68  1  0
 71 80  2  0
 71 76  1  0
 72 68  1  0
 72 76  1  0
 73 72  1  0
 74 75  1  0
 74 73  1  0
 75 71  1  0
 76 77  2  0
 77 78  1  0
 79 78  2  0
 80 79  1  0
 81 55  1  0
 81 82  1  0
 81 91  1  0
 82 85  1  0
 83 87  1  0
 83 82  1  0
 84 83  2  0
 87 86  1  0
 89 87  1  0
 89 90  1  0
 89 88  1  0
 91 94  1  1
 91 92  1  0
 93 91  1  0
M  ISO  4  13 100  21 100  53 101  54 101
M  END
>  <TORSDO>  (95) 
F 21

>  <SCORE>  (95) 
-13.336

>  <name>  (95) 
95

>  <ligand_id>  (95) 
95

>  <original_smiles>  (95) 
[H]c1c([H])c([H])c2c(c1[H])C([H])([H])C([H])([H])C([H])([H])C2([H])N([H])C(=O)C1([H])N(C(=O)C([H])(N([H])C(=O)C([H])(N([H])C([H])([H])[H])C([H])([H])[H])C(C([H])([H])[H])(C([H])([H])[H])C([H])([H])[H])C([H])([H])c2c([H])c(OC([H])([H])C([H])([H])C([H])([H])[N+]3([H])C([H])([H])C([H])([H])C([H])([N+]([H])([H])[H])C([H])([H])C3([H])C([H])([H])N([H])C(=O)N3C([H])([H])C([H])([H])C([H])([H])C([H])(n4nc(-c5c([H])c([H])c(Oc6c([H])c([H])c(F)c([H])c6F)c([H])c5[H])c(C(=O)N([H])[H])c4N([H])[H])C3([H])[H])c([H])c([H])c2C1([H])[H]

>  <smiles>  (95) 
[H]c1c([H])c([H])c2c(c1[H])C([H])([H])C([H])([H])C([H])([H])C2([H])N([H])C(=O)C1([H])N(C(=O)C([H])(N([H])C(=O)C([H])(N([H])C([H])([H])[H])C([H])([H])[H])C(C([H])([H])[H])(C([H])([H])[H])C([H])([H])[H])C([H])([H])c2c([H])c(OC([H])([H])C([H])([H])C([H])([H])[N+]3([H])C([H])([H])C([H])([H])C([H])([N+]([H])([H])[H])C([H])([H])C3([H])C([H])([H])N([H])C(=O)N3C([H])([H])C([H])([H])C([H])([H])C([H])(n4nc(-c5c([H])c([H])c(Oc6c([H])c([H])c(F)c([H])c6F)c([H])c5[H])c(C(=O)N([H])[H])c4N([H])[H])C3([H])[H])c([H])c([H])c2C1([H])[H]

$$$$
96:0:0
     RDKit          3D

 96105  0  0  1  0  0  0  0  0999 V2000
  -31.2680  -15.2500   19.6560 C   0  0  0  0  0  0  0  0  0  0  0  0
  -31.2230  -12.7360   19.2990 C   0  0  0  0  0  2  0  0  0  0  0  0
  -30.2980  -12.3410   18.1260 C   0  0  0  0  0  2  0  0  0  0  0  0
  -28.8460  -12.1780   18.6100 C   0  0  0  0  0  2  0  0  0  0  0  0
  -28.3920  -13.3470   19.5200 C   0  0  0  0  0  3  0  0  0  0  0  0
  -29.4410  -13.7000   20.5950 C   0  0  0  0  0  2  0  0  0  0  0  0
  -30.6890  -14.0000   19.8840 N   0  0  0  0  0  0  0  0  0  0  0  0
  -32.4950  -15.2640   19.5010 O   0  0  0  0  0  0  0  0  0  0  0  0
  -29.6320  -18.0210   17.6300 C   0  0  0  0  0  2  0  0  0  0  0  0
  -29.6100  -16.5570   18.2210 C   0  0  0  0  0  2  0  0  0  0  0  0
  -30.8010  -17.9400   19.6570 C   0  0  0  0  0  3  0  0  0  0  0  0
  -29.8230  -18.9700   18.8150 C   0  0  0  0  0  3  0  0  0  0  0  0
  -30.4860  -16.4340   19.4130 N   0  0  0  0  0  0  0  0  0  0  0  0
  -30.2310  -17.3250   22.0600 C   0  0  0  0  0  3  0  0  0  0  0  0
  -30.1690  -17.6270   23.4340 C   0  0  0  0  0  3  0  0  0  0  0  0
  -31.1850  -19.5250   21.6170 C   0  0  0  0  0  3  0  0  0  0  0  0
  -30.7450  -18.2700   21.1430 C   0  0  0  0  0  0  0  0  0  0  0  0
  -30.6130  -18.8790   23.9010 C   0  0  0  0  0  0  0  0  0  0  0  0
  -31.1200  -19.8280   22.9910 C   0  0  0  0  0  0  0  0  0  0  0  0
  -30.5500  -19.1700   25.2220 F   0  0  0  0  0  0  0  0  0  0  0  0
  -31.5410  -21.0360   23.4360 F   0  0  0  0  0  0  0  0  0  0  0  0
  -26.1310  -14.0800   20.4630 C   0  0  0  0  0  0  0  0  0  0  0  0
  -25.0160  -13.3790   20.8300 C   0  0  0  0  0  0  0  0  0  0  0  0
  -25.3450  -11.9990   20.6610 C   0  0  0  0  0  0  0  0  0  0  0  0
  -27.0660  -13.1320   20.0850 N   0  0  0  0  0  0  0  0  0  0  0  0
  -26.6080  -11.8690   20.2720 N   0  0  0  0  0  0  0  0  0  0  0  0
  -24.5100  -10.7980   20.7890 C   0  0  0  0  0  0  0  0  0  0  0  0
  -24.9500   -9.6660   21.5080 C   0  0  0  0  0  3  0  0  0  0  0  0
  -24.1200   -8.5310   21.6330 C   0  0  0  0  0  3  0  0  0  0  0  0
  -22.8350   -8.5230   21.0400 C   0  0  0  0  0  0  0  0  0  0  0  0
  -22.4120   -9.6440   20.3050 C   0  0  0  0  0  3  0  0  0  0  0  0
  -23.2410  -10.7710   20.1770 C   0  0  0  0  0  3  0  0  0  0  0  0
  -21.9700   -7.4560   21.0890 O   0  0  0  0  0  0  0  0  0  0  0  0
  -22.1140   -6.4560   22.0170 C   0  0  0  0  0  0  0  0  0  0  0  0
  -22.0740   -6.7160   23.4040 C   0  0  0  0  0  3  0  0  0  0  0  0
  -22.1550   -5.6490   24.3220 C   0  0  0  0  0  3  0  0  0  0  0  0
  -22.2670   -4.3250   23.8560 C   0  0  0  0  0  0  0  0  0  0  0  0
  -22.3010   -4.0640   22.4750 C   0  0  0  0  0  3  0  0  0  0  0  0
  -22.2210   -5.1270   21.5590 C   0  0  0  0  0  0  0  0  0  0  0  0
  -22.2340   -4.8700   20.2290 F   0  0  0  0  0  0  0  0  0  0  0  0
  -22.3360   -3.3000   24.7380 F   0  0  0  0  0  0  0  0  0  0  0  0
  -23.6890  -13.9590   21.2190 C   0  0  0  0  0  0  0  0  0  0  0  0
  -22.9470  -13.2700   22.0780 N   0  0  0  0  0  0  0  0  0  0  0  0
  -23.3240  -15.0560   20.7990 O   0  0  0  0  0  0  0  0  0  0  0  0
  -23.2580  -12.3790   22.4370 H   0  0  0  0  0  0  0  0  0  0  0  0
  -22.0570  -13.6360   22.3810 H   0  0  0  0  0  0  0  0  0  0  0  0
  -26.4180  -15.4400   20.3930 N   0  0  0  0  0  0  0  0  0  0  0  0
  -25.7230  -16.1480   20.6040 H   0  0  0  0  0  0  0  0  0  0  0  0
  -27.2870  -15.8260   20.0520 H   0  0  0  0  0  0  0  0  0  0  0  0
  -30.1570  -20.5090   18.5420 N   0  0  0  0  0  4  0  0  0  0  0  0
  -30.7160  -20.5440   17.7060 H   0  0  0  0  0  0  0  0  0  0  0  0
  -30.7730  -20.7740   19.2930 H   0  0  0  0  0  0  0  0  0  0  0  0
  -29.0990  -21.6990   18.4460 C   0  0  0  0  0  2  0  0  0  0  0  0
  -29.4830  -23.3540   18.5910 C   0  0  0  0  0  3  0  0  0  0  0  0
  -28.3800  -24.6470   18.6360 C   0  0  0  0  0  3  0  0  0  0  0  0
  -28.6220  -26.1670   18.9340 O   0  0  0  0  0  0  0  0  0  0  0  0
  -24.9230  -31.1920   22.8930 C   0  0  0  0  0  0  0  0  0  0  0  0
  -27.5390  -27.1200   19.0560 C   0  0  0  0  0  0  0  0  0  0  0  0
  -23.7140  -30.0480   21.0760 C   0  0  0  0  0  3  0  0  0  0  0  0
  -25.1620  -28.7770   19.3730 C   0  0  0  0  0  0  0  0  0  0  0  0
  -26.2540  -30.4180   20.8920 C   0  0  0  0  0  2  0  0  0  0  0  0
  -26.3470  -29.1540   20.0170 C   0  0  0  0  0  0  0  0  0  0  0  0
  -27.5350  -28.3460   19.8410 C   0  0  0  0  0  3  0  0  0  0  0  0
  -26.3200  -26.8510   18.3930 C   0  0  0  0  0  3  0  0  0  0  0  0
  -25.1620  -27.6440   18.5470 C   0  0  0  0  0  3  0  0  0  0  0  0
  -23.9120  -29.6150   19.5990 C   0  0  0  0  0  2  0  0  0  0  0  0
  -24.9850  -30.5660   21.6780 N   0  0  0  0  0  0  0  0  0  0  0  0
  -23.8460  -31.3510   23.4880 O   0  0  0  0  0  0  0  0  0  0  0  0
  -23.0930  -28.8750   21.8750 C   0  0  0  0  0  0  0  0  0  0  0  0
  -21.7700  -28.6720   21.7400 N   0  0  0  0  0  0  0  0  0  0  0  0
  -23.8020  -28.1540   22.5810 O   0  0  0  0  0  0  0  0  0  0  0  0
  -21.2490  -29.3110   21.1540 H   0  0  0  0  0  0  0  0  0  0  0  0
  -18.4720  -27.1890   21.9830 C   0  0  0  0  0  0  0  0  0  0  0  0
  -20.9980  -27.5930   22.3630 C   0  0  0  0  0  3  0  0  0  0  0  0
  -21.2160  -26.2530   21.6220 C   0  0  0  0  0  2  0  0  0  0  0  0
  -20.1650  -25.9840   20.5410 C   0  0  0  0  0  2  0  0  0  0  0  0
  -18.7610  -25.9510   21.1520 C   0  0  0  0  0  2  0  0  0  0  0  0
  -19.5220  -27.9690   22.5380 C   0  0  0  0  0  0  0  0  0  0  0  0
  -19.1980  -29.1280   23.2760 C   0  0  0  0  0  3  0  0  0  0  0  0
  -17.8550  -29.5110   23.4630 C   0  0  0  0  0  3  0  0  0  0  0  0
  -16.8200  -28.7290   22.9220 C   0  0  0  0  0  3  0  0  0  0  0  0
  -17.1280  -27.5690   22.1880 C   0  0  0  0  0  3  0  0  0  0  0  0
  -26.2010  -31.7560   23.5860 C   0  0  0  0  0  3  0  0  0  0  0  0
  -26.7550  -30.8160   24.7270 C   0  0  1  0  0  0  0  0  0  0  0  0
  -25.6880  -30.4140   25.7720 C   0  0  0  0  0  1  0  0  0  0  0  0
  -27.3440  -29.5160   24.1330 C   0  0  0  0  0  1  0  0  0  0  0  0
  -27.9120  -31.5240   25.4710 C   0  0  0  0  0  1  0  0  0  0  0  0
  -25.8670  -33.0820   24.1330 N   0  0  0  0  0  0  0  0  0  0  0  0
  -26.2380  -34.2490   23.5890 C   0  0  0  0  0  0  0  0  0  0  0  0
  -26.9630  -34.3200   22.5940 O   0  0  0  0  0  0  0  0  0  0  0  0
  -25.2280  -33.1000   24.9140 H   0  0  0  0  0  0  0  0  0  0  0  0
  -24.5510  -36.1120   23.4430 C   0  0  0  0  0  1  0  0  0  0  0  0
  -25.7260  -35.5420   24.2550 C   0  0  0  0  0  3  0  0  0  0  0  0
  -27.7950  -36.2230   25.3870 C   0  0  0  0  0  1  0  0  0  0  0  0
  -26.7690  -36.5780   24.4100 N   0  0  0  0  0  0  0  0  0  0  0  0
  -26.3580  -37.4640   24.6910 H   0  0  0  0  0  0  0  0  0  0  0  0
  1  7  1  0
  2  7  1  0
  3  4  1  0
  3  2  1  0
  5  4  1  0
  5 25  1  0
  5  6  1  0
  7  6  1  0
  8  1  2  0
  9 10  1  0
  9 12  1  0
 10 13  1  0
 11 17  1  0
 12 50  1  0
 12 11  1  0
 13  1  1  0
 13 11  1  0
 14 15  1  0
 15 18  2  0
 16 19  2  0
 17 16  1  0
 17 14  2  0
 18 20  1  0
 19 21  1  0
 19 18  1  0
 22 23  2  0
 23 42  1  0
 24 27  1  0
 24 23  1  0
 25 26  1  0
 25 22  1  0
 26 24  2  0
 27 28  1  0
 28 29  2  0
 30 33  1  0
 30 29  1  0
 31 30  2  0
 32 31  1  0
 32 27  2  0
 33 34  1  0
 34 35  1  0
 35 36  2  0
 37 36  1  0
 37 41  1  0
 38 37  2  0
 39 34  2  0
 39 38  1  0
 40 39  1  0
 42 43  1  0
 43 46  1  0
 43 45  1  0
 44 42  2  0
 47 22  1  0
 47 48  1  0
 49 47  1  0
 50 52  1  0
 51 50  1  0
 53 50  1  0
 53 54  1  0
 54 55  2  0
 55 56  1  0
 56 58  1  0
 57 68  2  0
 58 63  1  0
 59 67  1  0
 59 69  1  0
 60 66  1  0
 60 62  1  0
 61 67  1  0
 62 61  1  0
 63 62  2  0
 64 65  1  0
 64 58  2  0
 65 60  2  0
 66 59  1  0
 67 57  1  0
 69 71  2  0
 70 69  1  0
 72 70  1  0
 73 82  2  0
 73 78  1  0
 74 70  1  0
 74 78  1  0
 75 74  1  0
 76 77  1  0
 76 75  1  0
 77 73  1  0
 78 79  2  0
 79 80  1  0
 81 80  2  0
 82 81  1  0
 83 57  1  0
 83 88  1  0
 83 84  1  0
 84 87  1  1
 84 85  1  0
 86 84  1  0
 88 91  1  0
 89 88  1  0
 89 93  1  0
 90 89  2  0
 93 92  1  0
 93 95  1  0
 95 96  1  0
 95 94  1  0
M  ISO  4   1 100  13 100  55 101  56 101
M  END
>  <TORSDO>  (96) 
F 20

>  <SCORE>  (96) 
-9.244

>  <name>  (96) 
96

>  <ligand_id>  (96) 
96

>  <original_smiles>  (96) 
[H]c1c([H])c([H])c2c(c1[H])C([H])([H])C([H])([H])C([H])([H])C2([H])N([H])C(=O)C1([H])N(C(=O)C([H])(N([H])C(=O)C([H])(N([H])C([H])([H])[H])C([H])([H])[H])C(C([H])([H])[H])(C([H])([H])[H])C([H])([H])[H])C([H])([H])c2c([H])c(OC([H])([H])C([H])([H])C([H])([H])[N+]([H])([H])C3([H])C([H])(c4c([H])c([H])c(F)c(F)c4[H])N(C(=O)N4C([H])([H])C([H])([H])C([H])([H])C([H])(n5nc(-c6c([H])c([H])c(Oc7c([H])c([H])c(F)c([H])c7F)c([H])c6[H])c(C(=O)N([H])[H])c5N([H])[H])C4([H])[H])C([H])([H])C3([H])[H])c([H])c([H])c2C1([H])[H]

>  <smiles>  (96) 
[H]c1c([H])c([H])c2c(c1[H])C([H])([H])C([H])([H])C([H])([H])C2([H])N([H])C(=O)C1([H])N(C(=O)C([H])(N([H])C(=O)C([H])(N([H])C([H])([H])[H])C([H])([H])[H])C(C([H])([H])[H])(C([H])([H])[H])C([H])([H])[H])C([H])([H])c2c([H])c(OC([H])([H])C([H])([H])C([H])([H])[N+]([H])([H])C3([H])C([H])(c4c([H])c([H])c(F)c(F)c4[H])N(C(=O)N4C([H])([H])C([H])([H])C([H])([H])C([H])(n5nc(-c6c([H])c([H])c(Oc7c([H])c([H])c(F)c([H])c7F)c([H])c6[H])c(C(=O)N([H])[H])c5N([H])[H])C4([H])[H])C([H])([H])C3([H])[H])c([H])c([H])c2C1([H])[H]

$$$$
97:0:0
     RDKit          3D

 98106  0  0  1  0  0  0  0  0999 V2000
  -30.0040  -24.2370   20.6630 C   0  0  0  0  0  2  0  0  0  0  0  0
  -30.0060  -22.8540   21.3290 C   0  0  0  0  0  2  0  0  0  0  0  0
  -29.2740  -20.6010   21.2250 C   0  0  0  0  0  2  0  0  0  0  0  0
  -30.6830  -21.4740   19.4600 C   0  0  0  0  0  2  0  0  0  0  0  0
  -28.8560  -19.4360   20.3150 C   0  0  0  0  0  2  0  0  0  0  0  0
  -30.3870  -20.2090   18.6150 C   0  0  0  0  0  2  0  0  0  0  0  0
  -29.5990  -21.7860   20.4120 N   0  0  0  0  0  0  0  0  0  0  0  0
  -30.0270  -19.0770   19.4940 N   0  0  2  0  0  4  0  0  0  0  0  0
  -30.7800  -18.9760   20.1550 H   0  0  0  0  0  0  0  0  0  0  0  0
  -29.9050  -17.7670   18.8200 C   0  0  0  0  0  2  0  0  0  0  0  0
  -30.8400  -16.7390   19.4690 C   0  0  0  0  0  2  0  0  0  0  0  0
  -30.7730  -14.4120   20.2240 C   0  0  0  0  0  0  0  0  0  0  0  0
  -30.3500  -12.2550   19.2100 C   0  0  0  0  0  2  0  0  0  0  0  0
  -29.4250  -12.4950   18.0030 C   0  0  0  0  0  2  0  0  0  0  0  0
  -27.9430  -12.4460   18.4310 C   0  0  0  0  0  2  0  0  0  0  0  0
  -27.6220  -13.2810   19.7040 C   0  0  0  0  0  3  0  0  0  0  0  0
  -28.6940  -13.0910   20.8000 C   0  0  0  0  0  2  0  0  0  0  0  0
  -30.0150  -13.2930   20.1840 N   0  0  0  0  0  0  0  0  0  0  0  0
  -31.9930  -14.4130   20.0660 O   0  0  0  0  0  0  0  0  0  0  0  0
  -30.1240  -15.5480   19.9670 N   0  0  0  0  0  0  0  0  0  0  0  0
  -29.1200  -15.4890   19.8930 H   0  0  0  0  0  0  0  0  0  0  0  0
  -25.2190  -13.8880   20.4110 C   0  0  0  0  0  0  0  0  0  0  0  0
  -24.1450  -13.1240   20.7830 C   0  0  0  0  0  0  0  0  0  0  0  0
  -24.5980  -11.7740   20.7710 C   0  0  0  0  0  0  0  0  0  0  0  0
  -26.2660  -13.0030   20.1970 N   0  0  0  0  0  0  0  0  0  0  0  0
  -25.8920  -11.7230   20.4700 N   0  0  0  0  0  0  0  0  0  0  0  0
  -23.8560  -10.5200   20.9750 C   0  0  0  0  0  0  0  0  0  0  0  0
  -24.2890   -9.5540   21.9080 C   0  0  0  0  0  3  0  0  0  0  0  0
  -23.5560   -8.3620   22.1030 C   0  0  0  0  0  3  0  0  0  0  0  0
  -22.3700   -8.1330   21.3650 C   0  0  0  0  0  0  0  0  0  0  0  0
  -21.9580   -9.0850   20.4160 C   0  0  0  0  0  3  0  0  0  0  0  0
  -22.6930  -10.2670   20.2190 C   0  0  0  0  0  3  0  0  0  0  0  0
  -21.6140   -6.9890   21.4660 O   0  0  0  0  0  0  0  0  0  0  0  0
  -21.5870   -6.2420   22.6160 C   0  0  0  0  0  0  0  0  0  0  0  0
  -21.2070   -6.7930   23.8590 C   0  0  0  0  0  3  0  0  0  0  0  0
  -21.1320   -5.9730   25.0020 C   0  0  0  0  0  3  0  0  0  0  0  0
  -21.4150   -4.5990   24.9000 C   0  0  0  0  0  0  0  0  0  0  0  0
  -21.7840   -4.0460   23.6630 C   0  0  0  0  0  3  0  0  0  0  0  0
  -21.8660   -4.8650   22.5230 C   0  0  0  0  0  0  0  0  0  0  0  0
  -22.2050   -4.3190   21.3310 F   0  0  0  0  0  0  0  0  0  0  0  0
  -21.3340   -3.8100   25.9970 F   0  0  0  0  0  0  0  0  0  0  0  0
  -22.7460  -13.6150   21.0280 C   0  0  0  0  0  0  0  0  0  0  0  0
  -22.0000  -12.9420   21.9000 N   0  0  0  0  0  0  0  0  0  0  0  0
  -22.3230  -14.6320   20.4840 O   0  0  0  0  0  0  0  0  0  0  0  0
  -22.3570  -12.1330   22.3780 H   0  0  0  0  0  0  0  0  0  0  0  0
  -21.0530  -13.2410   22.0840 H   0  0  0  0  0  0  0  0  0  0  0  0
  -25.3800  -15.2520   20.2120 N   0  0  0  0  0  0  0  0  0  0  0  0
  -24.6000  -15.8980   20.2700 H   0  0  0  0  0  0  0  0  0  0  0  0
  -26.2310  -15.6890   19.8850 H   0  0  0  0  0  0  0  0  0  0  0  0
  -31.4180  -24.7970   20.4280 C   0  0  0  0  0  2  0  0  0  0  0  0
  -31.3840  -26.2290   20.0570 N   0  0  0  0  0  4  0  0  0  0  0  0
  -32.2360  -26.6580   20.3840 H   0  0  0  0  0  0  0  0  0  0  0  0
  -30.6150  -26.6900   20.5230 H   0  0  0  0  0  0  0  0  0  0  0  0
  -31.2980  -26.5040   18.6080 C   0  0  0  0  0  2  0  0  0  0  0  0
  -30.3100  -27.6320   18.2970 C   0  0  0  0  0  3  0  0  0  0  0  0
  -30.5860  -28.7230   19.0180 F   0  0  0  0  0  0  0  0  0  0  0  0
  -28.8340  -27.2350   18.4610 C   0  0  0  0  0  2  0  0  0  0  0  0
  -28.4950  -26.9160   19.8260 O   0  0  0  0  0  0  0  0  0  0  0  0
  -24.6650  -31.8870   23.2250 C   0  0  0  0  0  0  0  0  0  0  0  0
  -27.2900  -27.4870   20.1080 C   0  0  0  0  0  0  0  0  0  0  0  0
  -23.4460  -30.4760   21.6000 C   0  0  0  0  0  3  0  0  0  0  0  0
  -24.8830  -28.9240   20.1900 C   0  0  0  0  0  0  0  0  0  0  0  0
  -25.9620  -30.8440   21.3730 C   0  0  0  0  0  2  0  0  0  0  0  0
  -26.0390  -29.4640   20.7630 C   0  0  0  0  0  0  0  0  0  0  0  0
  -27.2500  -28.7450   20.7340 C   0  0  0  0  0  3  0  0  0  0  0  0
  -26.1140  -26.9270   19.5690 C   0  0  0  0  0  3  0  0  0  0  0  0
  -24.9060  -27.6430   19.6090 C   0  0  0  0  0  3  0  0  0  0  0  0
  -23.6410  -29.7830   20.2270 C   0  0  0  0  0  2  0  0  0  0  0  0
  -24.7110  -31.0860   22.1250 N   0  0  0  0  0  0  0  0  0  0  0  0
  -23.5890  -32.1580   23.7740 O   0  0  0  0  0  0  0  0  0  0  0  0
  -22.8080  -29.4540   22.5700 C   0  0  0  0  0  0  0  0  0  0  0  0
  -21.4840  -29.2680   22.4490 N   0  0  0  0  0  0  0  0  0  0  0  0
  -23.5000  -28.8320   23.3810 O   0  0  0  0  0  0  0  0  0  0  0  0
  -20.9890  -29.8220   21.7640 H   0  0  0  0  0  0  0  0  0  0  0  0
  -18.1170  -28.0760   22.9640 C   0  0  0  0  0  0  0  0  0  0  0  0
  -20.6750  -28.3290   23.2240 C   0  0  0  0  0  3  0  0  0  0  0  0
  -20.7740  -26.8990   22.6440 C   0  0  0  0  0  2  0  0  0  0  0  0
  -19.6670  -26.5790   21.6380 C   0  0  0  0  0  2  0  0  0  0  0  0
  -18.2890  -26.7260   22.2900 C   0  0  0  0  0  2  0  0  0  0  0  0
  -19.2380  -28.8370   23.3880 C   0  0  0  0  0  0  0  0  0  0  0  0
  -19.0250  -30.1040   23.9750 C   0  0  0  0  0  3  0  0  0  0  0  0
  -17.7220  -30.6080   24.1470 C   0  0  0  0  0  3  0  0  0  0  0  0
  -16.6150  -29.8410   23.7420 C   0  0  0  0  0  3  0  0  0  0  0  0
  -16.8140  -28.5790   23.1560 C   0  0  0  0  0  3  0  0  0  0  0  0
  -25.9570  -32.5190   23.8320 C   0  0  0  0  0  3  0  0  0  0  0  0
  -26.4950  -31.7420   25.0950 C   0  0  1  0  0  0  0  0  0  0  0  0
  -25.4220  -31.4930   26.1790 C   0  0  0  0  0  1  0  0  0  0  0  0
  -27.0750  -30.3710   24.6790 C   0  0  0  0  0  1  0  0  0  0  0  0
  -27.6510  -32.5380   25.7460 C   0  0  0  0  0  1  0  0  0  0  0  0
  -25.6440  -33.9120   24.1710 N   0  0  0  0  0  0  0  0  0  0  0  0
  -25.9680  -34.9690   23.4160 C   0  0  0  0  0  0  0  0  0  0  0  0
  -26.6330  -34.8760   22.3810 O   0  0  0  0  0  0  0  0  0  0  0  0
  -25.0540  -34.0600   24.9760 H   0  0  0  0  0  0  0  0  0  0  0  0
  -24.2270  -36.7550   23.0780 C   0  0  0  0  0  1  0  0  0  0  0  0
  -25.4750  -36.3530   23.8830 C   0  0  0  0  0  3  0  0  0  0  0  0
  -27.6160  -37.2350   24.7000 C   0  0  0  0  0  1  0  0  0  0  0  0
  -26.4990  -37.4140   23.7760 N   0  0  0  0  0  0  0  0  0  0  0  0
  -26.0890  -38.3260   23.9530 H   0  0  0  0  0  0  0  0  0  0  0  0
  1  2  1  0
  4  7  1  0
  5  3  1  0
  6  4  1  0
  6  8  1  0
  7  3  1  0
  7  2  1  0
  8  9  1  1
  8  5  1  0
 10 11  1  0
 10  8  1  0
 11 20  1  0
 13 18  1  0
 14 15  1  0
 14 13  1  0
 16 15  1  0
 16 25  1  0
 16 17  1  0
 18 12  1  0
 18 17  1  0
 19 12  2  0
 20 12  1  0
 21 20  1  0
 22 23  2  0
 23 42  1  0
 24 23  1  0
 24 27  1  0
 25 22  1  0
 25 26  1  0
 26 24  2  0
 27 28  1  0
 28 29  2  0
 30 33  1  0
 30 29  1  0
 31 30  2  0
 32 31  1  0
 32 27  2  0
 33 34  1  0
 34 35  1  0
 35 36  2  0
 37 36  1  0
 37 41  1  0
 38 37  2  0
 39 34  2  0
 39 38  1  0
 40 39  1  0
 42 43  1  0
 43 46  1  0
 43 45  1  0
 44 42  2  0
 47 48  1  0
 47 22  1  0
 49 47  1  0
 50  1  1  0
 51 52  1  0
 51 50  1  0
 51 53  1  0
 54 51  1  0
 55 57  1  0
 55 54  1  0
 55 56  1  0
 57 58  1  0
 58 60  1  0
 59 70  2  0
 60 65  1  0
 61 69  1  0
 61 71  1  0
 62 68  1  0
 62 64  1  0
 63 69  1  0
 64 63  1  0
 65 64  2  0
 66 67  1  0
 66 60  2  0
 67 62  2  0
 68 61  1  0
 69 59  1  0
 71 73  2  0
 72 71  1  0
 74 72  1  0
 75 84  2  0
 75 80  1  0
 76 72  1  0
 76 80  1  0
 77 76  1  0
 78 79  1  0
 78 77  1  0
 79 75  1  0
 80 81  2  0
 81 82  1  0
 83 82  2  0
 84 83  1  0
 85 59  1  0
 85 90  1  0
 85 86  1  0
 86 89  1  1
 86 87  1  0
 88 86  1  0
 90 93  1  0
 91 95  1  0
 91 90  1  0
 92 91  2  0
 95 94  1  0
 97 95  1  0
 97 98  1  0
 97 96  1  0
M  ISO  4  12 100  20 100  57 101  58 101
M  END
>  <TORSDO>  (97) 
F 25

>  <SCORE>  (97) 
-12.188

>  <name>  (97) 
97

>  <ligand_id>  (97) 
97

>  <original_smiles>  (97) 
[H]c1c([H])c([H])c2c(c1[H])C([H])([H])C([H])([H])C([H])([H])C2([H])N([H])C(=O)C1([H])N(C(=O)C([H])(N([H])C(=O)C([H])(N([H])C([H])([H])[H])C([H])([H])[H])C(C([H])([H])[H])(C([H])([H])[H])C([H])([H])[H])C([H])([H])c2c([H])c(OC([H])([H])C([H])(F)C([H])([H])[N+]([H])([H])C([H])([H])C([H])([H])C([H])([H])N3C([H])([H])C([H])([H])[N+]([H])(C([H])([H])C([H])([H])N([H])C(=O)N4C([H])([H])C([H])([H])C([H])([H])C([H])(n5nc(-c6c([H])c([H])c(Oc7c([H])c([H])c(F)c([H])c7F)c([H])c6[H])c(C(=O)N([H])[H])c5N([H])[H])C4([H])[H])C([H])([H])C3([H])[H])c([H])c([H])c2C1([H])[H]

>  <smiles>  (97) 
[H]c1c([H])c([H])c2c(c1[H])C([H])([H])C([H])([H])C([H])([H])C2([H])N([H])C(=O)C1([H])N(C(=O)C([H])(N([H])C(=O)C([H])(N([H])C([H])([H])[H])C([H])([H])[H])C(C([H])([H])[H])(C([H])([H])[H])C([H])([H])[H])C([H])([H])c2c([H])c(OC([H])([H])C([H])(F)C([H])([H])[N+]([H])([H])C([H])([H])C([H])([H])C([H])([H])N3C([H])([H])C([H])([H])[N+]([H])(C([H])([H])C([H])([H])N([H])C(=O)N4C([H])([H])C([H])([H])C([H])([H])C([H])(n5nc(-c6c([H])c([H])c(Oc7c([H])c([H])c(F)c([H])c7F)c([H])c6[H])c(C(=O)N([H])[H])c5N([H])[H])C4([H])[H])C([H])([H])C3([H])[H])c([H])c([H])c2C1([H])[H]

$$$$
