0:0:0
     RDKit          3D

 90 91  0  0  1  0  0  0  0  0999 V2000
  -21.6620  -24.6450   22.3660 C   0  0  0  0  0  1  0  0  0  0  0  0
  -23.1560  -23.8910   21.6960 N   0  0  0  0  0  4  0  0  0  0  0  0
  -23.1740  -24.2120   20.7410 H   0  0  0  0  0  0  0  0  0  0  0  0
  -23.8820  -24.4120   22.1610 H   0  0  0  0  0  0  0  0  0  0  0  0
  -23.9080  -22.2660   21.5770 C   0  0  0  0  0  1  0  0  0  0  0  0
  -25.4220  -21.3730   20.6650 C   0  0  0  0  0 15  0  0  0  0  0  0
  -26.3260  -19.6240   20.4340 C   0  0  0  0  0 15  0  0  0  0  0  0
  -27.9400  -18.7740   19.6710 C   0  0  0  0  0  1  0  0  0  0  0  0
  -30.1290  -16.3800   19.2340 C   0  0  0  0  0  0  0  0  0  0  0  0
  -31.0140  -13.9240   18.5400 C   0  0  0  0  0  2  0  0  0  0  0  0
  -30.0990  -13.2360   17.4720 C   0  0  0  0  0  2  0  0  0  0  0  0
  -28.7670  -12.7740   18.0920 C   0  0  0  0  0  2  0  0  0  0  0  0
  -28.2570  -13.8390   19.0850 C   0  0  0  0  0  3  0  0  0  0  0  0
  -29.3030  -14.2010   20.1370 C   0  0  0  0  0  2  0  0  0  0  0  0
  -30.2320  -14.9580   19.3610 N   0  0  0  0  0  0  0  0  0  0  0  0
  -31.1880  -16.7450   18.6490 O   0  0  0  0  0  0  0  0  0  0  0  0
  -28.8540  -17.2180   19.6710 N   0  0  0  0  0  0  0  0  0  0  0  0
  -28.2720  -16.5580   20.1720 H   0  0  0  0  0  0  0  0  0  0  0  0
  -26.1990  -14.3730   20.4200 C   0  0  0  0  0  0  0  0  0  0  0  0
  -25.2080  -13.5810   20.9100 C   0  0  0  0  0  0  0  0  0  0  0  0
  -25.5520  -12.2410   20.5420 C   0  0  0  0  0  0  0  0  0  0  0  0
  -27.0500  -13.5080   19.7640 N   0  0  0  0  0  0  0  0  0  0  0  0
  -26.7110  -12.2120   19.9100 N   0  0  0  0  0  0  0  0  0  0  0  0
  -24.8150  -10.9870   20.6850 C   0  0  0  0  0  0  0  0  0  0  0  0
  -25.2580   -9.9680   21.5560 C   0  0  0  0  0  3  0  0  0  0  0  0
  -24.5200   -8.7740   21.6880 C   0  0  0  0  0  3  0  0  0  0  0  0
  -23.3290   -8.5930   20.9450 C   0  0  0  0  0  0  0  0  0  0  0  0
  -22.9100   -9.6010   20.0590 C   0  0  0  0  0  3  0  0  0  0  0  0
  -23.6470  -10.7870   19.9250 C   0  0  0  0  0  3  0  0  0  0  0  0
  -22.5550   -7.4610   20.9910 O   0  0  0  0  0  0  0  0  0  0  0  0
  -22.2670   -6.8330   22.1750 C   0  0  0  0  0  0  0  0  0  0  0  0
  -21.6430   -7.5100   23.2450 C   0  0  0  0  0  3  0  0  0  0  0  0
  -21.3050   -6.8090   24.4190 C   0  0  0  0  0  3  0  0  0  0  0  0
  -21.5790   -5.4320   24.5210 C   0  0  0  0  0  0  0  0  0  0  0  0
  -22.1930   -4.7550   23.4540 C   0  0  0  0  0  3  0  0  0  0  0  0
  -22.5360   -5.4530   22.2840 C   0  0  0  0  0  0  0  0  0  0  0  0
  -23.1110   -4.7930   21.2490 F   0  0  0  0  0  0  0  0  0  0  0  0
  -21.2450   -4.7560   25.6450 F   0  0  0  0  0  0  0  0  0  0  0  0
  -23.9540  -14.0470   21.5810 C   0  0  0  0  0  0  0  0  0  0  0  0
  -23.4150  -13.2380   22.4820 N   0  0  0  0  0  0  0  0  0  0  0  0
  -23.4710  -15.1530   21.3360 O   0  0  0  0  0  0  0  0  0  0  0  0
  -23.8200  -12.3360   22.6920 H   0  0  0  0  0  0  0  0  0  0  0  0
  -22.5690  -13.5170   22.9570 H   0  0  0  0  0  0  0  0  0  0  0  0
  -26.4520  -15.7440   20.4460 N   0  0  0  0  0  0  0  0  0  0  0  0
  -25.9050  -16.4020   20.9860 H   0  0  0  0  0  0  0  0  0  0  0  0
  -27.0920  -16.2000   19.8060 H   0  0  0  0  0  0  0  0  0  0  0  0
  -20.5040  -26.3340   22.0910 C   0  0  0  0  0  1  0  0  0  0  0  0
  -21.1480  -27.8990   19.7410 C   0  0  0  0  0  2  0  0  0  0  0  0
  -23.1090  -27.9210   19.1340 C   0  0  0  0  0  1  0  0  0  0  0  0
  -24.8660  -27.8690   19.6680 O   0  0  0  0  0  0  0  0  0  0  0  0
  -24.6970  -32.0800   23.1770 C   0  0  0  0  0  0  0  0  0  0  0  0
  -26.1720  -28.2900   19.1790 C   0  0  0  0  0  3  0  0  0  0  0  0
  -23.4820  -31.1980   21.2570 C   0  0  0  0  0  3  0  0  0  0  0  0
  -24.8750  -30.4910   19.1800 C   0  0  0  0  0  3  0  0  0  0  0  0
  -26.0110  -31.4960   21.1450 C   0  0  0  0  0  2  0  0  0  0  0  0
  -25.9460  -30.4400   20.0720 C   0  0  0  0  0  3  0  0  0  0  0  0
  -26.7860  -29.3190   19.9630 C   0  0  0  0  0  2  0  0  0  0  0  0
  -25.8980  -28.6780   17.9000 C   0  0  0  0  0  2  0  0  0  0  0  0
  -24.9910  -29.7500   17.9650 C   0  0  0  0  0  2  0  0  0  0  0  0
  -23.6220  -31.1810   19.6860 C   0  0  0  0  0  2  0  0  0  0  0  0
  -24.7430  -31.6480   21.8920 N   0  0  0  0  0  0  0  0  0  0  0  0
  -23.6190  -32.1960   23.7830 O   0  0  0  0  0  0  0  0  0  0  0  0
  -23.1100  -29.8610   21.9600 C   0  0  0  0  0  0  0  0  0  0  0  0
  -21.9220  -29.6790   22.4710 N   0  0  0  0  0  0  0  0  0  0  0  0
  -23.9230  -28.9680   22.1510 O   0  0  0  0  0  0  0  0  0  0  0  0
  -21.2520  -30.4350   22.4330 H   0  0  0  0  0  0  0  0  0  0  0  0
  -18.4810  -28.6130   22.2150 C   0  0  0  0  0  0  0  0  0  0  0  0
  -21.3630  -28.3130   22.6690 C   0  0  0  0  0  2  0  0  0  0  0  0
  -21.8670  -26.9110   21.2060 C   0  0  0  0  0  2  0  0  0  0  0  0
  -19.9400  -26.6140   19.8670 C   0  0  0  0  0  1  0  0  0  0  0  0
  -18.4060  -27.6400   20.7230 C   0  0  0  0  0  1  0  0  0  0  0  0
  -19.7430  -28.9180   22.9850 C   0  0  0  0  0  0  0  0  0  0  0  0
  -19.6160  -29.9290   24.0400 C   0  0  0  0  0  3  0  0  0  0  0  0
  -18.4150  -30.5390   24.4940 C   0  0  0  0  0  3  0  0  0  0  0  0
  -17.2140  -30.1170   23.9170 C   0  0  0  0  0  3  0  0  0  0  0  0
  -17.2650  -29.1920   22.8210 C   0  0  0  0  0  3  0  0  0  0  0  0
  -25.9960  -32.4650   23.9270 C   0  0  0  0  0  3  0  0  0  0  0  0
  -26.4520  -31.3830   24.9780 C   0  0  1  0  0  0  0  0  0  0  0  0
  -25.3290  -30.9280   25.9380 C   0  0  0  0  0  1  0  0  0  0  0  0
  -27.0040  -30.1200   24.2780 C   0  0  0  0  0  1  0  0  0  0  0  0
  -27.6090  -31.9560   25.8270 C   0  0  0  0  0  1  0  0  0  0  0  0
  -25.7260  -33.7490   24.5770 N   0  0  0  0  0  0  0  0  0  0  0  0
  -26.0920  -34.9370   24.0800 C   0  0  0  0  0  0  0  0  0  0  0  0
  -26.7820  -35.0530   23.0630 O   0  0  0  0  0  0  0  0  0  0  0  0
  -25.1200  -33.7320   25.3840 H   0  0  0  0  0  0  0  0  0  0  0  0
  -24.4320  -36.8260   24.1090 C   0  0  0  0  0  1  0  0  0  0  0  0
  -25.6270  -36.1920   24.8400 C   0  0  0  0  0  3  0  0  0  0  0  0
  -27.7580  -36.7540   25.9190 C   0  0  0  0  0  1  0  0  0  0  0  0
  -26.6950  -37.1960   25.0190 N   0  0  0  0  0  0  0  0  0  0  0  0
  -26.3130  -38.0640   25.3840 H   0  0  0  0  0  0  0  0  0  0  0  0
  2  4  1  0
  2  1  1  0
  3  2  1  0
  5  2  1  0
  8 17  1  0
  9 15  1  0
  9 17  1  0
 10 15  1  0
 11 12  1  0
 11 10  1  0
 13 12  1  0
 13 22  1  0
 13 14  1  0
 15 14  1  0
 16  9  2  0
 17 18  1  0
 19 44  1  0
 19 20  2  0
 20 39  1  0
 21 24  1  0
 21 20  1  0
 22 23  1  0
 22 19  1  0
 23 21  2  0
 24 25  1  0
 25 26  2  0
 27 30  1  0
 27 26  1  0
 28 27  2  0
 29 28  1  0
 29 24  2  0
 30 31  1  0
 31 36  2  0
 31 32  1  0
 32 33  2  0
 33 34  1  0
 34 38  1  0
 35 34  2  0
 36 35  1  0
 37 36  1  0
 39 40  1  0
 40 42  1  0
 40 43  1  0
 41 39  2  0
 44 45  1  0
 46 44  1  0
 48 70  1  0
 48 69  1  0
 49 50  1  0
 51 62  2  0
 52 50  1  0
 52 57  1  0
 53 61  1  0
 53 63  1  0
 54 59  1  0
 54 60  1  0
 54 56  1  0
 55 61  1  0
 56 57  1  0
 56 55  1  0
 58 59  1  0
 58 52  1  0
 60 53  1  0
 61 51  1  0
 63 65  2  0
 63 64  1  0
 64 68  1  0
 66 64  1  0
 67 76  2  0
 67 72  1  0
 68 72  1  0
 69 47  1  0
 71 67  1  0
 72 73  2  0
 73 74  1  0
 75 74  2  0
 76 75  1  0
 77 51  1  0
 77 82  1  0
 77 78  1  0
 78 81  1  1
 78 79  1  0
 80 78  1  0
 82 85  1  0
 83 82  1  0
 83 87  1  0
 84 83  2  0
 87 86  1  0
 87 89  1  0
 89 90  1  0
 89 88  1  0
M  ISO  4   9 100  17 100  49 101  50 101
M  END
>  <TORSDO>  (1) 
F 24

>  <SCORE>  (1) 
1.555

>  <name>  (1) 
0

>  <ligand_id>  (1) 
0

>  <original_smiles>  (1) 
[H]c1c([H])c([H])c2c(c1[H])C([H])([H])C([H])([H])C([H])([H])C2([H])N([H])C(=O)C1([H])N(C(=O)C([H])(N([H])C(=O)C([H])(N([H])C([H])([H])[H])C([H])([H])[H])C(C([H])([H])[H])(C([H])([H])[H])C([H])([H])[H])C([H])([H])c2c([H])c(OC([H])([H])C([H])([H])C([H])([H])C([H])([H])[N+]([H])([H])C([H])([H])C([H])([H])C([H])([H])C([H])([H])N([H])C(=O)N3C([H])([H])C([H])([H])C([H])([H])C([H])(n4nc(-c5c([H])c([H])c(Oc6c([H])c([H])c(F)c([H])c6F)c([H])c5[H])c(C(=O)N([H])[H])c4N([H])[H])C3([H])[H])c([H])c([H])c2C1([H])[H]

>  <smiles>  (1) 
[H]c1c([H])c([H])c2c(c1[H])C([H])([H])C([H])([H])C([H])([H])C2([H])N([H])C(=O)C1([H])N(C(=O)C([H])(N([H])C(=O)C([H])(N([H])C([H])([H])[H])C([H])([H])[H])C(C([H])([H])[H])(C([H])([H])[H])C([H])([H])[H])C([H])([H])c2c([H])c(OC([H])([H])C([H])([H])C([H])([H])C([H])([H])[N+]([H])([H])C([H])([H])C([H])([H])C([H])([H])C([H])([H])N([H])C(=O)N3C([H])([H])C([H])([H])C([H])([H])C([H])(n4nc(-c5c([H])c([H])c(Oc6c([H])c([H])c(F)c([H])c6F)c([H])c5[H])c(C(=O)N([H])[H])c4N([H])[H])C3([H])[H])c([H])c([H])c2C1([H])[H]

$$$$
1:0:0
     RDKit          3D

 91 99  0  0  1  0  0  0  0  0999 V2000
  -29.5450  -21.1070   20.8070 C   0  0  0  0  0  3  0  0  0  0  0  0
  -32.0160  -19.2940   19.6560 C   0  0  0  0  0  2  0  0  0  0  0  0
  -31.5510  -18.6250   20.9610 C   0  0  0  0  0  2  0  0  0  0  0  0
  -30.7460  -19.8870   19.0150 C   0  0  0  0  0  2  0  0  0  0  0  0
  -30.0320  -18.5060   20.8040 C   0  0  0  0  0  3  0  0  0  0  0  0
  -29.6770  -19.7850   20.0330 N   0  0  1  0  0  4  0  0  0  0  0  0
  -28.7890  -19.6380   19.5740 H   0  0  0  0  0  0  0  0  0  0  0  0
  -29.7010  -17.1200   20.0470 C   0  0  0  0  0  2  0  0  0  0  0  0
  -30.5910  -14.6870   20.3890 C   0  0  0  0  0  0  0  0  0  0  0  0
  -30.3820  -12.4320   19.3640 C   0  0  0  0  0  2  0  0  0  0  0  0
  -29.4400  -12.5580   18.1450 C   0  0  0  0  0  2  0  0  0  0  0  0
  -27.9630  -12.4110   18.5630 C   0  0  0  0  0  2  0  0  0  0  0  0
  -27.6090  -13.2630   19.8110 C   0  0  0  0  0  3  0  0  0  0  0  0
  -28.6710  -13.1150   20.9270 C   0  0  0  0  0  2  0  0  0  0  0  0
  -29.9810  -13.4560   20.3530 N   0  0  0  0  0  0  0  0  0  0  0  0
  -31.7260  -14.8460   19.9340 O   0  0  0  0  0  0  0  0  0  0  0  0
  -29.8100  -15.7670   20.7310 N   0  0  0  0  0  0  0  0  0  0  0  0
  -28.9700  -15.4960   21.2210 H   0  0  0  0  0  0  0  0  0  0  0  0
  -25.2180  -13.8610   20.5300 C   0  0  0  0  0  0  0  0  0  0  0  0
  -24.1510  -13.0910   20.9040 C   0  0  0  0  0  0  0  0  0  0  0  0
  -24.6100  -11.7380   20.8720 C   0  0  0  0  0  0  0  0  0  0  0  0
  -26.2600  -12.9790   20.2960 N   0  0  0  0  0  0  0  0  0  0  0  0
  -25.9010  -11.6980   20.5610 N   0  0  0  0  0  0  0  0  0  0  0  0
  -23.8830  -10.4770   21.0670 C   0  0  0  0  0  0  0  0  0  0  0  0
  -24.3300   -9.4980   21.9810 C   0  0  0  0  0  3  0  0  0  0  0  0
  -23.6020   -8.3030   22.1640 C   0  0  0  0  0  3  0  0  0  0  0  0
  -22.4130   -8.0780   21.4300 C   0  0  0  0  0  0  0  0  0  0  0  0
  -21.9820   -9.0460   20.5060 C   0  0  0  0  0  3  0  0  0  0  0  0
  -22.7110  -10.2330   20.3210 C   0  0  0  0  0  3  0  0  0  0  0  0
  -21.6540   -6.9340   21.5190 O   0  0  0  0  0  0  0  0  0  0  0  0
  -21.6400   -6.1670   22.6560 C   0  0  0  0  0  0  0  0  0  0  0  0
  -21.2730   -6.7030   23.9110 C   0  0  0  0  0  3  0  0  0  0  0  0
  -21.2060   -5.8650   25.0420 C   0  0  0  0  0  3  0  0  0  0  0  0
  -21.4950   -4.4920   24.9200 C   0  0  0  0  0  0  0  0  0  0  0  0
  -21.8550   -3.9560   23.6710 C   0  0  0  0  0  3  0  0  0  0  0  0
  -21.9240   -4.7910   22.5420 C   0  0  0  0  0  0  0  0  0  0  0  0
  -22.2510   -4.2660   21.3360 F   0  0  0  0  0  0  0  0  0  0  0  0
  -21.4250   -3.6850   26.0050 F   0  0  0  0  0  0  0  0  0  0  0  0
  -22.7550  -13.5700   21.1810 C   0  0  0  0  0  0  0  0  0  0  0  0
  -22.0300  -12.8780   22.0520 N   0  0  0  0  0  0  0  0  0  0  0  0
  -22.3160  -14.5950   20.6600 O   0  0  0  0  0  0  0  0  0  0  0  0
  -22.3980  -12.0530   22.4990 H   0  0  0  0  0  0  0  0  0  0  0  0
  -21.0910  -13.1810   22.2730 H   0  0  0  0  0  0  0  0  0  0  0  0
  -25.3870  -15.2310   20.3480 N   0  0  0  0  0  0  0  0  0  0  0  0
  -24.6250  -15.8920   20.4580 H   0  0  0  0  0  0  0  0  0  0  0  0
  -26.2310  -15.6600   19.9950 H   0  0  0  0  0  0  0  0  0  0  0  0
  -28.8550  -22.3590   20.0640 C   0  0  0  0  0  3  0  0  0  0  0  0
  -29.0490  -23.8570   20.6150 C   0  0  0  0  0  3  0  0  0  0  0  0
  -28.8510  -23.8270   21.9340 F   0  0  0  0  0  0  0  0  0  0  0  0
  -28.0940  -24.9910   20.0110 C   0  0  0  0  0  2  0  0  0  0  0  0
  -28.2950  -26.4420   20.2890 O   0  0  0  0  0  0  0  0  0  0  0  0
  -24.5970  -31.8880   23.2590 C   0  0  0  0  0  0  0  0  0  0  0  0
  -27.1870  -27.3090   20.2070 C   0  0  0  0  0  0  0  0  0  0  0  0
  -23.3840  -30.4900   21.6250 C   0  0  0  0  0  3  0  0  0  0  0  0
  -24.8260  -28.9360   20.1930 C   0  0  0  0  0  0  0  0  0  0  0  0
  -25.9230  -30.7990   21.4340 C   0  0  0  0  0  2  0  0  0  0  0  0
  -25.9970  -29.4170   20.7920 C   0  0  0  0  0  0  0  0  0  0  0  0
  -27.1770  -28.6150   20.7950 C   0  0  0  0  0  3  0  0  0  0  0  0
  -25.9970  -26.8980   19.5600 C   0  0  0  0  0  3  0  0  0  0  0  0
  -24.8290  -27.6810   19.5680 C   0  0  0  0  0  3  0  0  0  0  0  0
  -23.5920  -29.8150   20.2440 C   0  0  0  0  0  2  0  0  0  0  0  0
  -24.6540  -31.0760   22.1630 N   0  0  0  0  0  0  0  0  0  0  0  0
  -23.5160  -32.1700   23.7960 O   0  0  0  0  0  0  0  0  0  0  0  0
  -22.7220  -29.4770   22.5890 C   0  0  0  0  0  0  0  0  0  0  0  0
  -21.3960  -29.3000   22.4630 N   0  0  0  0  0  0  0  0  0  0  0  0
  -23.3990  -28.8530   23.4100 O   0  0  0  0  0  0  0  0  0  0  0  0
  -20.9080  -29.8580   21.7750 H   0  0  0  0  0  0  0  0  0  0  0  0
  -18.0170  -28.0980   22.9550 C   0  0  0  0  0  0  0  0  0  0  0  0
  -20.5740  -28.3670   23.2350 C   0  0  0  0  0  3  0  0  0  0  0  0
  -20.6830  -26.9310   22.6730 C   0  0  0  0  0  2  0  0  0  0  0  0
  -19.5870  -26.5960   21.6570 C   0  0  0  0  0  2  0  0  0  0  0  0
  -18.2000  -26.7440   22.2910 C   0  0  0  0  0  2  0  0  0  0  0  0
  -19.1320  -28.8670   23.3840 C   0  0  0  0  0  0  0  0  0  0  0  0
  -18.9060  -30.1340   23.9650 C   0  0  0  0  0  3  0  0  0  0  0  0
  -17.5990  -30.6320   24.1200 C   0  0  0  0  0  3  0  0  0  0  0  0
  -16.4990  -29.8610   23.7060 C   0  0  0  0  0  3  0  0  0  0  0  0
  -16.7090  -28.5960   23.1300 C   0  0  0  0  0  3  0  0  0  0  0  0
  -25.8840  -32.5170   23.8780 C   0  0  0  0  0  3  0  0  0  0  0  0
  -25.5800  -33.9170   24.2070 N   0  0  0  0  0  0  0  0  0  0  0  0
  -25.9060  -34.9670   23.4400 C   0  0  0  0  0  0  0  0  0  0  0  0
  -26.5620  -34.8580   22.4020 O   0  0  0  0  0  0  0  0  0  0  0  0
  -24.9970  -34.0760   25.0160 H   0  0  0  0  0  0  0  0  0  0  0  0
  -24.1710  -36.7590   23.1060 C   0  0  0  0  0  1  0  0  0  0  0  0
  -25.4260  -36.3580   23.8980 C   0  0  0  0  0  3  0  0  0  0  0  0
  -27.5770  -37.2460   24.6830 C   0  0  0  0  0  1  0  0  0  0  0  0
  -26.4570  -37.4100   23.7600 N   0  0  0  0  0  0  0  0  0  0  0  0
  -26.0550  -38.3320   23.9100 H   0  0  0  0  0  0  0  0  0  0  0  0
  -26.4000  -31.7450   25.1540 C   0  0  1  0  0  0  0  0  0  0  0  0
  -25.3090  -31.5140   26.2260 C   0  0  0  0  0  1  0  0  0  0  0  0
  -26.9750  -30.3650   24.7630 C   0  0  0  0  0  1  0  0  0  0  0  0
  -27.5580  -32.5340   25.8090 C   0  0  0  0  0  1  0  0  0  0  0  0
  2  3  1  0
  4  2  1  0
  4  6  1  0
  5  8  1  0
  5  3  1  0
  6  5  1  0
  6  1  1  0
  6  7  1  6
  8 17  1  0
  9 17  1  0
 10 15  1  0
 11 12  1  0
 11 10  1  0
 13 12  1  0
 13 22  1  0
 13 14  1  0
 15  9  1  0
 15 14  1  0
 16  9  2  0
 17 18  1  0
 19 20  2  0
 20 39  1  0
 21 20  1  0
 21 24  1  0
 22 19  1  0
 22 23  1  0
 23 21  2  0
 24 25  1  0
 25 26  2  0
 27 30  1  0
 27 26  1  0
 28 27  2  0
 29 28  1  0
 29 24  2  0
 30 31  1  0
 31 32  1  0
 32 33  2  0
 34 33  1  0
 34 38  1  0
 35 34  2  0
 36 31  2  0
 36 35  1  0
 37 36  1  0
 39 40  1  0
 40 43  1  0
 40 42  1  0
 41 39  2  0
 44 45  1  0
 44 19  1  0
 46 44  1  0
 47 48  1  0
 47  1  2  0
 48 49  1  0
 50 51  1  0
 50 48  1  0
 52 63  2  0
 53 51  1  0
 53 58  1  0
 54 62  1  0
 54 64  1  0
 55 61  1  0
 55 57  1  0
 56 62  1  0
 57 58  2  0
 57 56  1  0
 59 60  1  0
 59 53  2  0
 60 55  2  0
 61 54  1  0
 62 52  1  0
 64 66  2  0
 65 64  1  0
 67 65  1  0
 68 77  2  0
 68 73  1  0
 69 65  1  0
 69 73  1  0
 70 69  1  0
 71 72  1  0
 71 70  1  0
 72 68  1  0
 73 74  2  0
 74 75  1  0
 76 75  2  0
 77 76  1  0
 78 52  1  0
 78 79  1  0
 78 88  1  0
 79 82  1  0
 80 84  1  0
 80 79  1  0
 81 80  2  0
 84 83  1  0
 86 84  1  0
 86 87  1  0
 86 85  1  0
 88 91  1  1
 88 89  1  0
 90 88  1  0
M  ISO  4   9 100  17 100  50 101  51 101
M  END
>  <TORSDO>  (2) 
F 21

>  <SCORE>  (2) 
-13.530

>  <name>  (2) 
1

>  <ligand_id>  (2) 
1

>  <original_smiles>  (2) 
[H]c1c([H])c([H])c2c(c1[H])C([H])([H])C([H])([H])C([H])([H])C2([H])N([H])C(=O)C1([H])N(C(=O)C([H])(N([H])C(=O)C([H])(N([H])C([H])([H])[H])C([H])([H])[H])C(C([H])([H])[H])(C([H])([H])[H])C([H])([H])[H])C([H])([H])c2c([H])c(OC([H])([H])C([H])(F)C([H])([H])C([H])([H])[N+]3([H])C([H])([H])C([H])([H])C([H])([H])C3([H])C([H])([H])N([H])C(=O)N3C([H])([H])C([H])([H])C([H])([H])C([H])(n4nc(-c5c([H])c([H])c(Oc6c([H])c([H])c(F)c([H])c6F)c([H])c5[H])c(C(=O)N([H])[H])c4N([H])[H])C3([H])[H])c([H])c([H])c2C1([H])[H]

>  <smiles>  (2) 
[H]c1c([H])c([H])c2c(c1[H])C([H])([H])C([H])([H])C([H])([H])C2([H])N([H])C(=O)C1([H])N(C(=O)C([H])(N([H])C(=O)C([H])(N([H])C([H])([H])[H])C([H])([H])[H])C(C([H])([H])[H])(C([H])([H])[H])C([H])([H])[H])C([H])([H])c2c([H])c(OC([H])([H])C([H])(F)C([H])([H])C([H])([H])[N+]3([H])C([H])([H])C([H])([H])C([H])([H])C3([H])C([H])([H])N([H])C(=O)N3C([H])([H])C([H])([H])C([H])([H])C([H])(n4nc(-c5c([H])c([H])c(Oc6c([H])c([H])c(F)c([H])c6F)c([H])c5[H])c(C(=O)N([H])[H])c4N([H])[H])C3([H])[H])c([H])c([H])c2C1([H])[H]

$$$$
2:0:0
     RDKit          3D

 95103  0  0  1  0  0  0  0  0999 V2000
  -30.8240  -23.3240   20.3980 C   0  0  0  0  0  2  0  0  0  0  0  0
  -31.7910  -24.4180   20.1870 N   0  0  0  0  0  4  0  0  0  0  0  0
  -32.3260  -24.2430   19.3510 H   0  0  0  0  0  0  0  0  0  0  0  0
  -32.4400  -24.4150   20.9570 H   0  0  0  0  0  0  0  0  0  0  0  0
  -31.1930  -25.7710   20.1260 C   0  0  0  0  0  2  0  0  0  0  0  0
  -30.2760  -26.0020   18.9000 C   0  0  0  0  0  2  0  0  0  0  0  0
  -28.7610  -25.9140   19.1790 C   0  0  0  0  0  2  0  0  0  0  0  0
  -28.4520  -26.8760   20.1800 O   0  0  0  0  0  0  0  0  0  0  0  0
  -24.5700  -31.9300   23.2470 C   0  0  0  0  0  0  0  0  0  0  0  0
  -27.2330  -27.5110   20.1670 C   0  0  0  0  0  0  0  0  0  0  0  0
  -23.3580  -30.5120   21.6150 C   0  0  0  0  0  3  0  0  0  0  0  0
  -24.8110  -28.9660   20.1970 C   0  0  0  0  0  0  0  0  0  0  0  0
  -25.8750  -30.8850   21.4030 C   0  0  0  0  0  2  0  0  0  0  0  0
  -25.9610  -29.5080   20.7830 C   0  0  0  0  0  0  0  0  0  0  0  0
  -27.1650  -28.7770   20.7830 C   0  0  0  0  0  3  0  0  0  0  0  0
  -26.0640  -26.9660   19.5860 C   0  0  0  0  0  3  0  0  0  0  0  0
  -24.8550  -27.6890   19.6050 C   0  0  0  0  0  3  0  0  0  0  0  0
  -23.5630  -29.8170   20.2400 C   0  0  0  0  0  2  0  0  0  0  0  0
  -24.6180  -31.1250   22.1470 N   0  0  0  0  0  0  0  0  0  0  0  0
  -23.4920  -32.2040   23.7900 O   0  0  0  0  0  0  0  0  0  0  0  0
  -22.7150  -29.4970   22.5870 C   0  0  0  0  0  0  0  0  0  0  0  0
  -21.3890  -29.3160   22.4670 N   0  0  0  0  0  0  0  0  0  0  0  0
  -23.4030  -28.8770   23.4010 O   0  0  0  0  0  0  0  0  0  0  0  0
  -20.8970  -29.8710   21.7820 H   0  0  0  0  0  0  0  0  0  0  0  0
  -18.0180  -28.1280   22.9750 C   0  0  0  0  0  0  0  0  0  0  0  0
  -20.5760  -28.3810   23.2430 C   0  0  0  0  0  3  0  0  0  0  0  0
  -20.6760  -26.9490   22.6690 C   0  0  0  0  0  2  0  0  0  0  0  0
  -19.5710  -26.6260   21.6580 C   0  0  0  0  0  2  0  0  0  0  0  0
  -18.1910  -26.7750   22.3050 C   0  0  0  0  0  2  0  0  0  0  0  0
  -19.1380  -28.8890   23.4000 C   0  0  0  0  0  0  0  0  0  0  0  0
  -18.9260  -30.1570   23.9850 C   0  0  0  0  0  3  0  0  0  0  0  0
  -17.6210  -30.6620   24.1500 C   0  0  0  0  0  3  0  0  0  0  0  0
  -16.5150  -29.8960   23.7440 C   0  0  0  0  0  3  0  0  0  0  0  0
  -16.7140  -28.6320   23.1620 C   0  0  0  0  0  3  0  0  0  0  0  0
  -25.8610  -32.5630   23.8570 C   0  0  0  0  0  3  0  0  0  0  0  0
  -26.3890  -31.7950   25.1300 C   0  0  1  0  0  0  0  0  0  0  0  0
  -25.3060  -31.5570   26.2070 C   0  0  0  0  0  1  0  0  0  0  0  0
  -26.9710  -30.4180   24.7310 C   0  0  0  0  0  1  0  0  0  0  0  0
  -27.5440  -32.5920   25.7830 C   0  0  0  0  0  1  0  0  0  0  0  0
  -25.5550  -33.9620   24.1820 N   0  0  0  0  0  0  0  0  0  0  0  0
  -25.8870  -35.0120   23.4170 C   0  0  0  0  0  0  0  0  0  0  0  0
  -26.5560  -34.9020   22.3860 O   0  0  0  0  0  0  0  0  0  0  0  0
  -24.9630  -34.1200   24.9840 H   0  0  0  0  0  0  0  0  0  0  0  0
  -24.1590  -36.8010   23.0530 C   0  0  0  0  0  1  0  0  0  0  0  0
  -25.3990  -36.4000   23.8690 C   0  0  0  0  0  3  0  0  0  0  0  0
  -27.5330  -37.2850   24.6970 C   0  0  0  0  0  1  0  0  0  0  0  0
  -26.4310  -37.4530   23.7530 N   0  0  0  0  0  0  0  0  0  0  0  0
  -26.0240  -38.3730   23.9010 H   0  0  0  0  0  0  0  0  0  0  0  0
  -31.4860  -22.0530   20.9500 C   0  0  0  0  0  2  0  0  0  0  0  0
  -30.4980  -20.8740   20.9560 C   0  0  0  0  0  2  0  0  0  0  0  0
  -30.7850  -14.3990   20.0640 C   0  0  0  0  0  0  0  0  0  0  0  0
  -30.2980  -12.2800   18.9210 C   0  0  0  0  0  2  0  0  0  0  0  0
  -29.3170  -12.5270   17.7610 C   0  0  0  0  0  2  0  0  0  0  0  0
  -27.8690  -12.3680   18.2620 C   0  0  0  0  0  2  0  0  0  0  0  0
  -27.5860  -13.2070   19.5330 C   0  0  0  0  0  3  0  0  0  0  0  0
  -28.7040  -13.0350   20.5970 C   0  0  0  0  0  2  0  0  0  0  0  0
  -30.0110  -13.2820   19.9600 N   0  0  0  0  0  0  0  0  0  0  0  0
  -31.9160  -14.4690   19.5740 O   0  0  0  0  0  0  0  0  0  0  0  0
  -30.9660  -19.6320   21.7270 C   0  0  0  0  0  0  0  0  0  0  0  0
  -29.0790  -17.6520   19.7640 C   0  0  0  0  0  2  0  0  0  0  0  0
  -28.8730  -18.4380   21.0650 C   0  0  0  0  0  2  0  0  0  0  0  0
  -29.1020  -16.1240   19.9600 C   0  0  0  0  0  2  0  0  0  0  0  0
  -30.5390  -17.2860   22.3960 C   0  0  0  0  0  2  0  0  0  0  0  0
  -31.2040  -16.4040   21.3270 C   0  0  0  0  0  2  0  0  0  0  0  0
  -30.1470  -18.5510   21.7750 N   0  0  0  0  0  0  0  0  0  0  0  0
  -30.2540  -15.4990   20.6530 N   0  0  0  0  0  0  0  0  0  0  0  0
  -32.0730  -19.6500   22.2730 O   0  0  0  0  0  0  0  0  0  0  0  0
  -25.2450  -13.8600   20.3690 C   0  0  0  0  0  0  0  0  0  0  0  0
  -24.1820  -13.1060   20.7840 C   0  0  0  0  0  0  0  0  0  0  0  0
  -24.6220  -11.7490   20.7290 C   0  0  0  0  0  0  0  0  0  0  0  0
  -26.2610  -12.9590   20.0830 N   0  0  0  0  0  0  0  0  0  0  0  0
  -25.8940  -11.6840   20.3560 N   0  0  0  0  0  0  0  0  0  0  0  0
  -23.8910  -10.4970   20.9460 C   0  0  0  0  0  0  0  0  0  0  0  0
  -24.3360   -9.5370   21.8800 C   0  0  0  0  0  3  0  0  0  0  0  0
  -23.6080   -8.3450   22.0820 C   0  0  0  0  0  3  0  0  0  0  0  0
  -22.4220   -8.1060   21.3460 C   0  0  0  0  0  0  0  0  0  0  0  0
  -21.9980   -9.0560   20.4000 C   0  0  0  0  0  3  0  0  0  0  0  0
  -22.7270  -10.2400   20.1970 C   0  0  0  0  0  3  0  0  0  0  0  0
  -21.6650   -6.9660   21.4560 O   0  0  0  0  0  0  0  0  0  0  0  0
  -21.6070   -6.2510   22.6260 C   0  0  0  0  0  0  0  0  0  0  0  0
  -21.1880   -6.8400   23.8390 C   0  0  0  0  0  3  0  0  0  0  0  0
  -21.0720   -6.0520   25.0000 C   0  0  0  0  0  3  0  0  0  0  0  0
  -21.3680   -4.6760   24.9510 C   0  0  0  0  0  0  0  0  0  0  0  0
  -21.7830   -4.0880   23.7430 C   0  0  0  0  0  3  0  0  0  0  0  0
  -21.8990   -4.8730   22.5840 C   0  0  0  0  0  0  0  0  0  0  0  0
  -22.2750   -4.2980   21.4160 F   0  0  0  0  0  0  0  0  0  0  0  0
  -21.2540   -3.9170   26.0650 F   0  0  0  0  0  0  0  0  0  0  0  0
  -22.8050  -13.6020   21.1190 C   0  0  0  0  0  0  0  0  0  0  0  0
  -22.1110  -12.9180   22.0210 N   0  0  0  0  0  0  0  0  0  0  0  0
  -22.3570  -14.6330   20.6220 O   0  0  0  0  0  0  0  0  0  0  0  0
  -22.4920  -12.0870   22.4480 H   0  0  0  0  0  0  0  0  0  0  0  0
  -21.1890  -13.2310   22.2860 H   0  0  0  0  0  0  0  0  0  0  0  0
  -25.4210  -15.2290   20.1930 N   0  0  0  0  0  0  0  0  0  0  0  0
  -24.6680  -15.8910   20.3430 H   0  0  0  0  0  0  0  0  0  0  0  0
  -26.2560  -15.6580   19.8160 H   0  0  0  0  0  0  0  0  0  0  0  0
  1 49  1  0
  2  1  1  0
  2  4  1  0
  3  2  1  0
  5  2  1  0
  6  7  1  0
  6  5  1  0
  7  8  1  0
  9 20  2  0
 10  8  1  0
 10 15  1  0
 11 19  1  0
 11 21  1  0
 12 18  1  0
 12 14  1  0
 13 19  1  0
 14 13  1  0
 15 14  2  0
 16 17  1  0
 16 10  2  0
 17 12  2  0
 18 11  1  0
 19  9  1  0
 21 23  2  0
 22 21  1  0
 24 22  1  0
 25 34  2  0
 25 30  1  0
 26 22  1  0
 26 30  1  0
 27 26  1  0
 28 29  1  0
 28 27  1  0
 29 25  1  0
 30 31  2  0
 31 32  1  0
 33 32  2  0
 34 33  1  0
 35  9  1  0
 35 40  1  0
 35 36  1  0
 36 39  1  1
 36 37  1  0
 38 36  1  0
 40 43  1  0
 41 45  1  0
 41 40  1  0
 42 41  2  0
 45 44  1  0
 47 45  1  0
 47 48  1  0
 47 46  1  0
 49 50  1  0
 50 59  1  0
 51 66  1  0
 52 57  1  0
 53 54  1  0
 53 52  1  0
 55 54  1  0
 55 71  1  0
 55 56  1  0
 57 51  1  0
 57 56  1  0
 58 51  2  0
 59 65  1  0
 59 67  2  0
 60 62  1  0
 60 61  1  0
 61 65  1  0
 62 66  1  0
 64 63  1  0
 65 63  1  0
 66 64  1  0
 68 69  2  0
 69 88  1  0
 70 69  1  0
 70 73  1  0
 71 72  1  0
 71 68  1  0
 72 70  2  0
 73 74  1  0
 74 75  2  0
 76 79  1  0
 76 75  1  0
 77 76  2  0
 78 77  1  0
 78 73  2  0
 79 80  1  0
 80 81  1  0
 81 82  2  0
 83 82  1  0
 83 87  1  0
 84 83  2  0
 85 80  2  0
 85 84  1  0
 86 85  1  0
 88 89  1  0
 89 92  1  0
 89 91  1  0
 90 88  2  0
 93 94  1  0
 93 68  1  0
 95 93  1  0
M  ISO  4   7 101   8 101  51 100  66 100
M  END
>  <TORSDO>  (3) 
F 22

>  <SCORE>  (3) 
-12.837

>  <name>  (3) 
2

>  <ligand_id>  (3) 
2

>  <original_smiles>  (3) 
[H]c1c([H])c([H])c2c(c1[H])C([H])([H])C([H])([H])C([H])([H])C2([H])N([H])C(=O)C1([H])N(C(=O)C([H])(N([H])C(=O)C([H])(N([H])C([H])([H])[H])C([H])([H])[H])C(C([H])([H])[H])(C([H])([H])[H])C([H])([H])[H])C([H])([H])c2c([H])c(OC([H])([H])C([H])([H])C([H])([H])[N+]([H])([H])C([H])([H])C([H])([H])C([H])([H])C(=O)N3C([H])([H])C([H])([H])N(C(=O)N4C([H])([H])C([H])([H])C([H])([H])C([H])(n5nc(-c6c([H])c([H])c(Oc7c([H])c([H])c(F)c([H])c7F)c([H])c6[H])c(C(=O)N([H])[H])c5N([H])[H])C4([H])[H])C([H])([H])C([H])([H])C3([H])[H])c([H])c([H])c2C1([H])[H]

>  <smiles>  (3) 
[H]c1c([H])c([H])c2c(c1[H])C([H])([H])C([H])([H])C([H])([H])C2([H])N([H])C(=O)C1([H])N(C(=O)C([H])(N([H])C(=O)C([H])(N([H])C([H])([H])[H])C([H])([H])[H])C(C([H])([H])[H])(C([H])([H])[H])C([H])([H])[H])C([H])([H])c2c([H])c(OC([H])([H])C([H])([H])C([H])([H])[N+]([H])([H])C([H])([H])C([H])([H])C([H])([H])C(=O)N3C([H])([H])C([H])([H])N(C(=O)N4C([H])([H])C([H])([H])C([H])([H])C([H])(n5nc(-c6c([H])c([H])c(Oc7c([H])c([H])c(F)c([H])c7F)c([H])c6[H])c(C(=O)N([H])[H])c5N([H])[H])C4([H])[H])C([H])([H])C([H])([H])C3([H])[H])c([H])c([H])c2C1([H])[H]

$$$$
3:0:0
     RDKit          3D

101111  0  0  1  0  0  0  0  0999 V2000
  -25.4690  -20.0460   18.4360 C   0  0  0  0  0  2  0  0  0  0  0  0
  -27.3170  -21.0990   19.9170 C   0  0  0  0  0  2  0  0  0  0  0  0
  -24.7160  -21.3890   18.5430 C   0  0  0  0  0  2  0  0  0  0  0  0
  -26.4560  -22.3640   19.9290 C   0  0  0  0  0  2  0  0  0  0  0  0
  -26.5300  -19.8260   19.5490 C   0  0  0  0  0  3  0  0  0  0  0  0
  -25.7250  -22.4650   18.6460 N   0  0  2  0  0  4  0  0  0  0  0  0
  -26.3890  -22.2280   17.9360 H   0  0  0  0  0  0  0  0  0  0  0  0
  -25.2910  -23.8320   18.2730 C   0  0  0  0  0  2  0  0  0  0  0  0
  -26.1840  -24.4270   17.1480 C   0  0  0  0  0  3  0  0  0  0  0  0
  -27.7320  -24.5880   17.3700 C   0  0  0  0  0  2  0  0  0  0  0  0
  -28.6560  -23.6720   16.6170 N   0  0  0  0  0  4  0  0  0  0  0  0
  -28.2560  -23.2200   15.8030 H   0  0  0  0  0  0  0  0  0  0  0  0
  -28.9630  -22.9470   17.2570 H   0  0  0  0  0  0  0  0  0  0  0  0
  -29.9310  -24.2860   16.1620 C   0  0  0  0  0  2  0  0  0  0  0  0
  -29.6910  -25.3220   15.0460 C   0  0  0  0  0  2  0  0  0  0  0  0
  -30.8090  -26.3910   14.9020 C   0  0  0  0  0  2  0  0  0  0  0  0
  -30.4600  -27.4570   13.9930 O   0  0  0  0  0  0  0  0  0  0  0  0
  -25.1300  -28.2020   18.5650 C   0  0  0  0  0  0  0  0  0  0  0  0
  -29.1510  -27.8300   14.1420 C   0  0  0  0  0  0  0  0  0  0  0  0
  -24.4960  -27.9760   16.1830 C   0  0  0  0  0  3  0  0  0  0  0  0
  -26.3930  -28.2420   14.5030 C   0  0  0  0  0  0  0  0  0  0  0  0
  -26.7210  -29.0440   16.8510 C   0  0  0  0  0  2  0  0  0  0  0  0
  -27.2880  -28.5340   15.5450 C   0  0  0  0  0  0  0  0  0  0  0  0
  -28.6720  -28.3220   15.3740 C   0  0  0  0  0  3  0  0  0  0  0  0
  -28.2480  -27.5950   13.0850 C   0  0  0  0  0  3  0  0  0  0  0  0
  -26.8690  -27.7660   13.2700 C   0  0  0  0  0  3  0  0  0  0  0  0
  -24.9250  -28.4680   14.7760 C   0  0  0  0  0  2  0  0  0  0  0  0
  -25.4590  -28.3860   17.2560 N   0  0  0  0  0  0  0  0  0  0  0  0
  -24.0230  -27.7550   18.8890 O   0  0  0  0  0  0  0  0  0  0  0  0
  -24.2420  -26.4520   16.1300 C   0  0  0  0  0  3  0  0  0  0  0  0
  -23.1790  -26.0470   15.4130 N   0  0  0  0  0  0  0  0  0  0  0  0
  -25.0020  -25.6620   16.6930 O   0  0  0  0  0  0  0  0  0  0  0  0
  -22.6150  -26.7560   14.9680 H   0  0  0  0  0  0  0  0  0  0  0  0
  -20.8740  -23.9480   13.5910 C   0  0  0  0  0  0  0  0  0  0  0  0
  -22.7670  -24.6610   15.1990 C   0  0  0  0  0  3  0  0  0  0  0  0
  -23.7270  -23.9320   14.2370 C   0  0  0  0  0  2  0  0  0  0  0  0
  -23.2720  -24.0020   12.7780 C   0  0  0  0  0  2  0  0  0  0  0  0
  -21.8870  -23.3650   12.6200 C   0  0  0  0  0  2  0  0  0  0  0  0
  -21.2880  -24.5690   14.7990 C   0  0  0  0  0  0  0  0  0  0  0  0
  -20.3140  -25.1200   15.6610 C   0  0  0  0  0  3  0  0  0  0  0  0
  -18.9470  -25.0550   15.3300 C   0  0  0  0  0  3  0  0  0  0  0  0
  -18.5380  -24.4240   14.1430 C   0  0  0  0  0  3  0  0  0  0  0  0
  -19.4990  -23.8700   13.2780 C   0  0  0  0  0  3  0  0  0  0  0  0
  -26.1080  -28.5820   19.7180 C   0  0  0  0  0  3  0  0  0  0  0  0
  -27.1030  -27.4170   20.0930 C   0  0  1  0  0  0  0  0  0  0  0  0
  -26.4050  -26.0700   20.3940 C   0  0  0  0  0  1  0  0  0  0  0  0
  -28.1170  -27.1800   18.9520 C   0  0  0  0  0  1  0  0  0  0  0  0
  -27.9340  -27.8180   21.3370 C   0  0  0  0  0  1  0  0  0  0  0  0
  -25.2980  -28.9780   20.8780 N   0  0  0  0  0  0  0  0  0  0  0  0
  -25.1810  -30.2350   21.3290 C   0  0  0  0  0  0  0  0  0  0  0  0
  -25.8060  -31.1800   20.8450 O   0  0  0  0  0  0  0  0  0  0  0  0
  -24.7100  -28.2650   21.2830 H   0  0  0  0  0  0  0  0  0  0  0  0
  -22.8920  -31.0530   21.9650 C   0  0  0  0  0  1  0  0  0  0  0  0
  -24.2120  -30.4790   22.5010 C   0  0  0  0  0  3  0  0  0  0  0  0
  -25.8640  -30.7880   24.2920 C   0  0  0  0  0  1  0  0  0  0  0  0
  -24.7630  -31.3780   23.5360 N   0  0  0  0  0  0  0  0  0  0  0  0
  -24.0400  -31.6560   24.1950 H   0  0  0  0  0  0  0  0  0  0  0  0
  -27.4390  -18.8920   18.9950 O   0  0  0  0  0  0  0  0  0  0  0  0
  -28.2420  -18.1340   19.8930 C   0  0  0  0  0  2  0  0  0  0  0  0
  -31.5600  -14.4130   19.5270 C   0  0  0  0  0  0  0  0  0  0  0  0
  -31.2250  -11.9990   19.1740 C   0  0  0  0  0  2  0  0  0  0  0  0
  -30.2750  -11.8340   17.9740 C   0  0  0  0  0  2  0  0  0  0  0  0
  -28.8150  -11.8130   18.4570 C   0  0  0  0  0  2  0  0  0  0  0  0
  -28.4790  -13.0030   19.4020 C   0  0  0  0  0  3  0  0  0  0  0  0
  -29.5620  -13.1880   20.4900 C   0  0  0  0  0  2  0  0  0  0  0  0
  -30.8760  -13.2740   19.8240 N   0  0  0  0  0  0  0  0  0  0  0  0
  -32.6830  -14.4010   19.0140 O   0  0  0  0  0  0  0  0  0  0  0  0
  -29.7530  -17.3060   18.0530 C   0  0  0  0  0  2  0  0  0  0  0  0
  -30.7520  -17.9130   20.3290 C   0  0  0  0  0  2  0  0  0  0  0  0
  -30.8580  -16.2480   18.1810 C   0  0  0  0  0  2  0  0  0  0  0  0
  -30.8030  -16.4150   20.6770 C   0  0  0  0  0  2  0  0  0  0  0  0
  -29.6530  -18.2190   19.2970 C   0  0  0  0  0  3  0  0  0  0  0  0
  -30.8280  -15.5480   19.4810 N   0  0  0  0  0  0  0  0  0  0  0  0
  -26.2380  -13.8560   20.3260 C   0  0  0  0  0  0  0  0  0  0  0  0
  -25.1160  -13.2010   20.7660 C   0  0  0  0  0  0  0  0  0  0  0  0
  -25.4110  -11.8070   20.6540 C   0  0  0  0  0  0  0  0  0  0  0  0
  -27.1480  -12.8650   19.9860 N   0  0  0  0  0  0  0  0  0  0  0  0
  -26.6550  -11.6260   20.2320 N   0  0  0  0  0  0  0  0  0  0  0  0
  -24.5570  -10.6310   20.8760 C   0  0  0  0  0  0  0  0  0  0  0  0
  -24.9400   -9.5940   21.7580 C   0  0  0  0  0  3  0  0  0  0  0  0
  -24.1000   -8.4780   21.9630 C   0  0  0  0  0  3  0  0  0  0  0  0
  -22.8570   -8.3940   21.2890 C   0  0  0  0  0  0  0  0  0  0  0  0
  -22.4960   -9.4140   20.3940 C   0  0  0  0  0  3  0  0  0  0  0  0
  -23.3370  -10.5220   20.1840 C   0  0  0  0  0  3  0  0  0  0  0  0
  -21.9860   -7.3320   21.3880 O   0  0  0  0  0  0  0  0  0  0  0  0
  -21.8650   -6.6180   22.5440 C   0  0  0  0  0  0  0  0  0  0  0  0
  -21.4980   -7.2300   23.7640 C   0  0  0  0  0  3  0  0  0  0  0  0
  -21.3160   -6.4470   24.9210 C   0  0  0  0  0  3  0  0  0  0  0  0
  -21.5010   -5.0490   24.8630 C   0  0  0  0  0  0  0  0  0  0  0  0
  -21.8630   -4.4370   23.6480 C   0  0  0  0  0  3  0  0  0  0  0  0
  -22.0440   -5.2180   22.4930 C   0  0  0  0  0  0  0  0  0  0  0  0
  -22.3710   -4.6200   21.3220 F   0  0  0  0  0  0  0  0  0  0  0  0
  -21.3170   -4.2990   25.9750 F   0  0  0  0  0  0  0  0  0  0  0  0
  -23.8100  -13.8310   21.1690 C   0  0  0  0  0  0  0  0  0  0  0  0
  -23.0970  -13.2250   22.1140 N   0  0  0  0  0  0  0  0  0  0  0  0
  -23.4370  -14.9000   20.6890 O   0  0  0  0  0  0  0  0  0  0  0  0
  -23.4010  -12.3570   22.5270 H   0  0  0  0  0  0  0  0  0  0  0  0
  -22.2360  -13.6410   22.4360 H   0  0  0  0  0  0  0  0  0  0  0  0
  -26.5440  -15.2010   20.1820 N   0  0  0  0  0  0  0  0  0  0  0  0
  -25.8430  -15.9140   20.3220 H   0  0  0  0  0  0  0  0  0  0  0  0
  -27.4130  -15.5630   19.8070 H   0  0  0  0  0  0  0  0  0  0  0  0
  1  3  1  0
  1  5  1  0
  2  4  1  0
  3  6  1  0
  5 58  1  0
  5  2  1  0
  6  4  1  0
  6  7  1  6
  8  6  1  0
  9 10  1  0
  9  8  1  0
 11 13  1  0
 11 10  1  0
 12 11  1  0
 14 11  1  0
 15 14  1  0
 16 15  1  0
 17 19  1  0
 17 16  1  0
 18 29  2  0
 19 24  1  0
 20 27  1  0
 20 28  1  0
 21 27  1  0
 21 23  1  0
 22 28  1  0
 23 22  1  0
 24 23  2  0
 25 26  1  0
 25 19  2  0
 26 21  2  0
 28 18  1  0
 30 31  1  0
 30 20  1  0
 30 32  1  0
 32  9  1  0
 33 31  1  0
 34 39  1  0
 35 31  1  0
 36 35  1  0
 37 36  1  0
 38 37  1  0
 38 34  1  0
 39 35  1  0
 39 40  2  0
 41 40  1  0
 42 41  2  0
 43 34  2  0
 43 42  1  0
 44 18  1  0
 44 45  1  0
 44 49  1  0
 45 46  1  1
 45 48  1  0
 47 45  1  0
 49 52  1  0
 49 50  1  0
 50 54  1  0
 51 50  2  0
 54 53  1  0
 54 56  1  0
 56 57  1  0
 56 55  1  0
 58 59  1  0
 60 66  1  0
 61 66  1  0
 62 63  1  0
 62 61  1  0
 64 63  1  0
 64 77  1  0
 64 65  1  0
 66 65  1  0
 67 60  2  0
 68 70  1  0
 68 72  1  0
 69 71  1  0
 70 73  1  0
 72 59  1  0
 72 69  1  0
 73 60  1  0
 73 71  1  0
 74 75  2  0
 75 94  1  0
 76 75  1  0
 76 79  1  0
 77 78  1  0
 77 74  1  0
 78 76  2  0
 79 80  1  0
 80 81  2  0
 82 85  1  0
 82 81  1  0
 83 82  2  0
 84 83  1  0
 84 79  2  0
 85 86  1  0
 86 87  1  0
 87 88  2  0
 89 88  1  0
 89 93  1  0
 90 89  2  0
 91 86  2  0
 91 90  1  0
 92 91  1  0
 94 95  1  0
 95 98  1  0
 95 97  1  0
 96 94  2  0
 99100  1  0
 99 74  1  0
101 99  1  0
M  ISO  4  16 101  17 101  60 100  73 100
M  END
>  <TORSDO>  (4) 
F 25

>  <SCORE>  (4) 
-6.376

>  <name>  (4) 
3

>  <ligand_id>  (4) 
3

>  <original_smiles>  (4) 
[H]c1c([H])c([H])c2c(c1[H])C([H])([H])C([H])([H])C([H])([H])C2([H])N([H])C(=O)C1([H])N(C(=O)C([H])(N([H])C(=O)C([H])(N([H])C([H])([H])[H])C([H])([H])[H])C(C([H])([H])[H])(C([H])([H])[H])C([H])([H])[H])C([H])([H])c2c([H])c(OC([H])([H])C([H])([H])C([H])([H])[N+]([H])([H])C([H])([H])C([H])([H])C([H])([H])[N+]3([H])C([H])([H])C([H])([H])C([H])(OC([H])([H])C4([H])C([H])([H])C([H])([H])N(C(=O)N5C([H])([H])C([H])([H])C([H])([H])C([H])(n6nc(-c7c([H])c([H])c(Oc8c([H])c([H])c(F)c([H])c8F)c([H])c7[H])c(C(=O)N([H])[H])c6N([H])[H])C5([H])[H])C([H])([H])C4([H])[H])C([H])([H])C3([H])[H])c([H])c([H])c2C1([H])[H]

>  <smiles>  (4) 
[H]c1c([H])c([H])c2c(c1[H])C([H])([H])C([H])([H])C([H])([H])C2([H])N([H])C(=O)C1([H])N(C(=O)C([H])(N([H])C(=O)C([H])(N([H])C([H])([H])[H])C([H])([H])[H])C(C([H])([H])[H])(C([H])([H])[H])C([H])([H])[H])C([H])([H])c2c([H])c(OC([H])([H])C([H])([H])C([H])([H])[N+]([H])([H])C([H])([H])C([H])([H])C([H])([H])[N+]3([H])C([H])([H])C([H])([H])C([H])(OC([H])([H])C4([H])C([H])([H])C([H])([H])N(C(=O)N5C([H])([H])C([H])([H])C([H])([H])C([H])(n6nc(-c7c([H])c([H])c(Oc8c([H])c([H])c(F)c([H])c8F)c([H])c7[H])c(C(=O)N([H])[H])c6N([H])[H])C5([H])[H])C([H])([H])C4([H])[H])C([H])([H])C3([H])[H])c([H])c([H])c2C1([H])[H]

$$$$
4:0:0
     RDKit          3D

 93101  0  0  1  0  0  0  0  0999 V2000
  -27.9280  -18.6280   18.5570 C   0  0  0  0  0  2  0  0  0  0  0  0
  -27.4950  -19.6840   19.5910 C   0  0  0  0  0  2  0  0  0  0  0  0
  -29.5210  -19.2840   20.9710 C   0  0  0  0  0  2  0  0  0  0  0  0
  -29.2540  -17.7900   20.5890 C   0  0  0  0  0  3  0  0  0  0  0  0
  -29.0280  -17.6760   19.0650 C   0  0  0  0  0  3  0  0  0  0  0  0
  -28.6720  -20.2980   20.2600 N   0  0  2  0  0  4  0  0  0  0  0  0
  -28.6810  -16.4370   18.7190 F   0  0  0  0  0  0  0  0  0  0  0  0
  -29.2550  -20.6610   19.5210 H   0  0  0  0  0  0  0  0  0  0  0  0
  -30.3770  -16.8480   21.1230 C   0  0  0  0  0  2  0  0  0  0  0  0
  -30.7530  -14.4600   20.3650 C   0  0  0  0  0  0  0  0  0  0  0  0
  -30.4450  -12.3330   19.1470 C   0  0  0  0  0  2  0  0  0  0  0  0
  -29.4880  -12.5810   17.9620 C   0  0  0  0  0  2  0  0  0  0  0  0
  -28.0180  -12.4410   18.4030 C   0  0  0  0  0  2  0  0  0  0  0  0
  -27.7050  -13.2450   19.6920 C   0  0  0  0  0  3  0  0  0  0  0  0
  -28.7660  -12.9690   20.7800 C   0  0  0  0  0  2  0  0  0  0  0  0
  -30.0880  -13.2840   20.2110 N   0  0  0  0  0  0  0  0  0  0  0  0
  -31.8590  -14.6830   19.8630 O   0  0  0  0  0  0  0  0  0  0  0  0
  -30.0540  -15.4160   21.0030 N   0  0  0  0  0  0  0  0  0  0  0  0
  -29.1560  -15.1280   21.3650 H   0  0  0  0  0  0  0  0  0  0  0  0
  -25.3150  -13.8720   20.4080 C   0  0  0  0  0  0  0  0  0  0  0  0
  -24.2460  -13.1080   20.7920 C   0  0  0  0  0  0  0  0  0  0  0  0
  -24.6990  -11.7540   20.7650 C   0  0  0  0  0  0  0  0  0  0  0  0
  -26.3530  -12.9830   20.1770 N   0  0  0  0  0  0  0  0  0  0  0  0
  -25.9860  -11.7040   20.4470 N   0  0  0  0  0  0  0  0  0  0  0  0
  -23.9700  -10.4980   20.9680 C   0  0  0  0  0  0  0  0  0  0  0  0
  -24.4060   -9.5360   21.9060 C   0  0  0  0  0  3  0  0  0  0  0  0
  -23.6790   -8.3410   22.0950 C   0  0  0  0  0  3  0  0  0  0  0  0
  -22.5020   -8.1000   21.3470 C   0  0  0  0  0  0  0  0  0  0  0  0
  -22.0860   -9.0510   20.3970 C   0  0  0  0  0  3  0  0  0  0  0  0
  -22.8130  -10.2380   20.2070 C   0  0  0  0  0  3  0  0  0  0  0  0
  -21.7450   -6.9580   21.4460 O   0  0  0  0  0  0  0  0  0  0  0  0
  -21.6940   -6.2270   22.6050 C   0  0  0  0  0  0  0  0  0  0  0  0
  -21.2610   -6.7920   23.8240 C   0  0  0  0  0  3  0  0  0  0  0  0
  -21.1590   -5.9870   24.9770 C   0  0  0  0  0  3  0  0  0  0  0  0
  -21.4780   -4.6180   24.9110 C   0  0  0  0  0  0  0  0  0  0  0  0
  -21.9040   -4.0520   23.6960 C   0  0  0  0  0  3  0  0  0  0  0  0
  -22.0080   -4.8540   22.5460 C   0  0  0  0  0  0  0  0  0  0  0  0
  -22.3990   -4.3000   21.3730 F   0  0  0  0  0  0  0  0  0  0  0  0
  -21.3730   -3.8420   26.0140 F   0  0  0  0  0  0  0  0  0  0  0  0
  -22.8540  -13.5930   21.0730 C   0  0  0  0  0  0  0  0  0  0  0  0
  -22.1310  -12.9020   21.9480 N   0  0  0  0  0  0  0  0  0  0  0  0
  -22.4150  -14.6180   20.5530 O   0  0  0  0  0  0  0  0  0  0  0  0
  -22.4980  -12.0710   22.3870 H   0  0  0  0  0  0  0  0  0  0  0  0
  -21.1950  -13.2060   22.1790 H   0  0  0  0  0  0  0  0  0  0  0  0
  -25.4910  -15.2400   20.2210 N   0  0  0  0  0  0  0  0  0  0  0  0
  -24.7290  -15.9030   20.3170 H   0  0  0  0  0  0  0  0  0  0  0  0
  -26.3370  -15.6530   19.8500 H   0  0  0  0  0  0  0  0  0  0  0  0
  -28.3410  -21.4680   21.1310 C   0  0  0  0  0  2  0  0  0  0  0  0
  -27.7680  -22.7270   20.4110 C   0  0  0  0  0  2  0  0  0  0  0  0
  -28.8040  -23.6700   19.7550 C   0  0  0  0  0  2  0  0  0  0  0  0
  -29.5340  -24.6300   20.7240 C   0  0  0  0  0  2  0  0  0  0  0  0
  -28.7090  -25.8490   21.1900 C   0  0  0  0  0  2  0  0  0  0  0  0
  -28.5700  -26.8020   20.1390 O   0  0  0  0  0  0  0  0  0  0  0  0
  -24.6410  -31.8940   23.2280 C   0  0  0  0  0  0  0  0  0  0  0  0
  -27.3960  -27.5140   20.1770 C   0  0  0  0  0  0  0  0  0  0  0  0
  -23.4770  -30.4810   21.5590 C   0  0  0  0  0  3  0  0  0  0  0  0
  -24.9770  -28.9610   20.1620 C   0  0  0  0  0  0  0  0  0  0  0  0
  -25.9990  -30.8800   21.4020 C   0  0  0  0  0  2  0  0  0  0  0  0
  -26.1170  -29.5090   20.7680 C   0  0  0  0  0  0  0  0  0  0  0  0
  -27.3330  -28.7920   20.7720 C   0  0  0  0  0  3  0  0  0  0  0  0
  -26.2450  -26.9680   19.5750 C   0  0  0  0  0  3  0  0  0  0  0  0
  -25.0330  -27.6870   19.5680 C   0  0  0  0  0  3  0  0  0  0  0  0
  -23.7190  -29.8020   20.1850 C   0  0  0  0  0  2  0  0  0  0  0  0
  -24.7230  -31.0980   22.1230 N   0  0  0  0  0  0  0  0  0  0  0  0
  -23.5480  -32.1530   23.7510 O   0  0  0  0  0  0  0  0  0  0  0  0
  -22.8210  -29.4530   22.5090 C   0  0  0  0  0  0  0  0  0  0  0  0
  -21.4970  -29.2810   22.3790 N   0  0  0  0  0  0  0  0  0  0  0  0
  -23.5010  -28.8150   23.3160 O   0  0  0  0  0  0  0  0  0  0  0  0
  -21.0090  -29.8470   21.6990 H   0  0  0  0  0  0  0  0  0  0  0  0
  -18.1160  -28.1060   22.8660 C   0  0  0  0  0  0  0  0  0  0  0  0
  -20.6770  -28.3330   23.1330 C   0  0  0  0  0  3  0  0  0  0  0  0
  -20.7650  -26.9130   22.5260 C   0  0  0  0  0  2  0  0  0  0  0  0
  -19.6550  -26.6220   21.5110 C   0  0  0  0  0  2  0  0  0  0  0  0
  -18.2780  -26.7660   22.1670 C   0  0  0  0  0  2  0  0  0  0  0  0
  -19.2430  -28.8480   23.3050 C   0  0  0  0  0  0  0  0  0  0  0  0
  -19.0400  -30.1040   23.9190 C   0  0  0  0  0  3  0  0  0  0  0  0
  -17.7420  -30.6160   24.0970 C   0  0  0  0  0  3  0  0  0  0  0  0
  -16.6280  -29.8680   23.6750 C   0  0  0  0  0  3  0  0  0  0  0  0
  -16.8160  -28.6150   23.0650 C   0  0  0  0  0  3  0  0  0  0  0  0
  -25.9100  -32.5360   23.8710 C   0  0  0  0  0  3  0  0  0  0  0  0
  -25.5820  -33.9300   24.1980 N   0  0  0  0  0  0  0  0  0  0  0  0
  -25.9130  -34.9850   23.4410 C   0  0  0  0  0  0  0  0  0  0  0  0
  -26.5950  -34.8890   22.4170 O   0  0  0  0  0  0  0  0  0  0  0  0
  -24.9740  -34.0790   24.9890 H   0  0  0  0  0  0  0  0  0  0  0  0
  -24.1690  -36.7570   23.0640 C   0  0  0  0  0  1  0  0  0  0  0  0
  -25.4050  -36.3680   23.8890 C   0  0  0  0  0  3  0  0  0  0  0  0
  -27.5180  -37.2780   24.7450 C   0  0  0  0  0  1  0  0  0  0  0  0
  -26.4260  -37.4320   23.7870 N   0  0  0  0  0  0  0  0  0  0  0  0
  -26.0090  -38.3480   23.9260 H   0  0  0  0  0  0  0  0  0  0  0  0
  -26.4160  -31.7650   25.1520 C   0  0  1  0  0  0  0  0  0  0  0  0
  -25.3090  -31.5140   26.2030 C   0  0  0  0  0  1  0  0  0  0  0  0
  -27.0160  -30.3940   24.7620 C   0  0  0  0  0  1  0  0  0  0  0  0
  -27.5490  -32.5690   25.8340 C   0  0  0  0  0  1  0  0  0  0  0  0
  1  5  1  0
  1  2  1  0
  2  6  1  0
  4  3  1  0
  4  9  1  0
  5  7  1  0
  5  4  1  0
  6  3  1  0
  6 48  1  0
  6  8  1  6
 10 18  1  0
 11 16  1  0
 12 13  1  0
 12 11  1  0
 14 13  1  0
 14 23  1  0
 14 15  1  0
 16 10  1  0
 16 15  1  0
 17 10  2  0
 18  9  1  0
 18 19  1  0
 20 21  2  0
 21 40  1  0
 22 21  1  0
 22 25  1  0
 23 20  1  0
 23 24  1  0
 24 22  2  0
 25 26  1  0
 26 27  2  0
 28 31  1  0
 28 27  1  0
 29 28  2  0
 30 29  1  0
 30 25  2  0
 31 32  1  0
 32 33  1  0
 33 34  2  0
 35 34  1  0
 35 39  1  0
 36 35  2  0
 37 32  2  0
 37 36  1  0
 38 37  1  0
 40 41  1  0
 41 44  1  0
 41 43  1  0
 42 40  2  0
 45 46  1  0
 45 20  1  0
 47 45  1  0
 49 48  1  0
 50 49  1  0
 50 51  1  0
 51 52  1  0
 53 55  1  0
 53 52  1  0
 54 65  2  0
 55 60  1  0
 56 64  1  0
 56 66  1  0
 57 63  1  0
 57 59  1  0
 58 64  1  0
 59 60  2  0
 59 58  1  0
 61 55  2  0
 62 61  1  0
 62 57  2  0
 63 56  1  0
 64 54  1  0
 66 68  2  0
 67 66  1  0
 69 67  1  0
 70 79  2  0
 70 75  1  0
 71 67  1  0
 71 75  1  0
 72 71  1  0
 73 74  1  0
 73 72  1  0
 74 70  1  0
 75 76  2  0
 76 77  1  0
 78 77  2  0
 79 78  1  0
 80 54  1  0
 80 81  1  0
 80 90  1  0
 81 84  1  0
 82 86  1  0
 82 81  1  0
 83 82  2  0
 86 85  1  0
 88 86  1  0
 88 89  1  0
 88 87  1  0
 90 93  1  1
 90 91  1  0
 92 90  1  0
M  ISO  4  10 100  18 100  52 101  53 101
M  END
>  <TORSDO>  (5) 
F 22

>  <SCORE>  (5) 
-13.355

>  <name>  (5) 
4

>  <ligand_id>  (5) 
4

>  <original_smiles>  (5) 
[H]c1c([H])c([H])c2c(c1[H])C([H])([H])C([H])([H])C([H])([H])C2([H])N([H])C(=O)C1([H])N(C(=O)C([H])(N([H])C(=O)C([H])(N([H])C([H])([H])[H])C([H])([H])[H])C(C([H])([H])[H])(C([H])([H])[H])C([H])([H])[H])C([H])([H])c2c([H])c(OC([H])([H])C([H])([H])C([H])([H])C([H])([H])C([H])([H])[N+]3([H])C([H])([H])C([H])([H])C([H])(F)C([H])(C([H])([H])N([H])C(=O)N4C([H])([H])C([H])([H])C([H])([H])C([H])(n5nc(-c6c([H])c([H])c(Oc7c([H])c([H])c(F)c([H])c7F)c([H])c6[H])c(C(=O)N([H])[H])c5N([H])[H])C4([H])[H])C3([H])[H])c([H])c([H])c2C1([H])[H]

>  <smiles>  (5) 
[H]c1c([H])c([H])c2c(c1[H])C([H])([H])C([H])([H])C([H])([H])C2([H])N([H])C(=O)C1([H])N(C(=O)C([H])(N([H])C(=O)C([H])(N([H])C([H])([H])[H])C([H])([H])[H])C(C([H])([H])[H])(C([H])([H])[H])C([H])([H])[H])C([H])([H])c2c([H])c(OC([H])([H])C([H])([H])C([H])([H])C([H])([H])C([H])([H])[N+]3([H])C([H])([H])C([H])([H])C([H])(F)C([H])(C([H])([H])N([H])C(=O)N4C([H])([H])C([H])([H])C([H])([H])C([H])(n5nc(-c6c([H])c([H])c(Oc7c([H])c([H])c(F)c([H])c7F)c([H])c6[H])c(C(=O)N([H])[H])c5N([H])[H])C4([H])[H])C3([H])[H])c([H])c([H])c2C1([H])[H]

$$$$
5:0:0
     RDKit          3D

 92100  0  0  1  0  0  0  0  0999 V2000
  -29.2230  -21.8360   20.8570 N   0  0  0  0  0  4  0  0  0  0  0  0
  -28.9560  -21.5230   19.9390 H   0  0  0  0  0  0  0  0  0  0  0  0
  -30.2010  -22.0750   20.8250 H   0  0  0  0  0  0  0  0  0  0  0  0
  -29.0140  -20.7160   21.8210 C   0  0  0  0  0  2  0  0  0  0  0  0
  -30.2990  -19.9230   22.1790 C   0  0  0  0  0  2  0  0  0  0  0  0
  -30.9370  -16.1210   22.0120 C   0  0  0  0  0  3  0  0  0  0  0  0
  -30.6860  -16.9560   19.7450 C   0  0  0  0  0  3  0  0  0  0  0  0
  -30.6630  -17.4190   22.5030 C   0  0  0  0  0  3  0  0  0  0  0  0
  -30.4180  -18.2530   20.2340 C   0  0  0  0  0  3  0  0  0  0  0  0
  -30.9680  -15.8790   20.6210 C   0  0  0  0  0  0  0  0  0  0  0  0
  -30.4310  -18.5020   21.6220 C   0  0  0  0  0  0  0  0  0  0  0  0
  -31.4850  -14.5880   20.0280 C   0  0  0  0  0  0  0  0  0  0  0  0
  -30.9740  -12.4510   18.9290 C   0  0  0  0  0  2  0  0  0  0  0  0
  -30.0010  -12.7160   17.7630 C   0  0  0  0  0  2  0  0  0  0  0  0
  -28.5440  -12.6560   18.2570 C   0  0  0  0  0  2  0  0  0  0  0  0
  -28.3090  -13.5130   19.5300 C   0  0  0  0  0  3  0  0  0  0  0  0
  -29.4030  -13.2600   20.5910 C   0  0  0  0  0  2  0  0  0  0  0  0
  -30.7160  -13.4650   19.9670 N   0  0  0  0  0  0  0  0  0  0  0  0
  -32.5770  -14.6660   19.4600 O   0  0  0  0  0  0  0  0  0  0  0  0
  -26.0110  -14.2320   20.4360 C   0  0  0  0  0  0  0  0  0  0  0  0
  -24.9120  -13.5130   20.8190 C   0  0  0  0  0  0  0  0  0  0  0  0
  -25.2670  -12.1370   20.6680 C   0  0  0  0  0  0  0  0  0  0  0  0
  -26.9710  -13.2990   20.0770 N   0  0  0  0  0  0  0  0  0  0  0  0
  -26.5300  -12.0300   20.2750 N   0  0  0  0  0  0  0  0  0  0  0  0
  -24.4600  -10.9190   20.8210 C   0  0  0  0  0  0  0  0  0  0  0  0
  -24.8020   -9.9180   21.7560 C   0  0  0  0  0  3  0  0  0  0  0  0
  -24.0000   -8.7650   21.8950 C   0  0  0  0  0  3  0  0  0  0  0  0
  -22.8410   -8.6060   21.1000 C   0  0  0  0  0  0  0  0  0  0  0  0
  -22.5170   -9.5950   20.1530 C   0  0  0  0  0  3  0  0  0  0  0  0
  -23.3200  -10.7400   20.0120 C   0  0  0  0  0  3  0  0  0  0  0  0
  -22.0150   -7.5080   21.1480 O   0  0  0  0  0  0  0  0  0  0  0  0
  -21.7920   -6.8270   22.3180 C   0  0  0  0  0  0  0  0  0  0  0  0
  -21.2750   -7.4660   23.4670 C   0  0  0  0  0  3  0  0  0  0  0  0
  -20.9960   -6.7150   24.6250 C   0  0  0  0  0  3  0  0  0  0  0  0
  -21.2220   -5.3260   24.6360 C   0  0  0  0  0  0  0  0  0  0  0  0
  -21.7310   -4.6860   23.4920 C   0  0  0  0  0  3  0  0  0  0  0  0
  -22.0120   -5.4350   22.3350 C   0  0  0  0  0  0  0  0  0  0  0  0
  -22.4830   -4.8110   21.2280 F   0  0  0  0  0  0  0  0  0  0  0  0
  -20.9470   -4.6010   25.7460 F   0  0  0  0  0  0  0  0  0  0  0  0
  -23.5730  -14.0670   21.2150 C   0  0  0  0  0  0  0  0  0  0  0  0
  -22.8650  -13.3820   22.1060 N   0  0  0  0  0  0  0  0  0  0  0  0
  -23.1690  -15.1410   20.7690 O   0  0  0  0  0  0  0  0  0  0  0  0
  -23.2060  -12.5130   22.4870 H   0  0  0  0  0  0  0  0  0  0  0  0
  -21.9690  -13.7350   22.4130 H   0  0  0  0  0  0  0  0  0  0  0  0
  -26.2710  -15.5970   20.3420 N   0  0  0  0  0  0  0  0  0  0  0  0
  -25.5730  -16.3000   20.5550 H   0  0  0  0  0  0  0  0  0  0  0  0
  -27.1530  -15.9900   20.0380 H   0  0  0  0  0  0  0  0  0  0  0  0
  -28.4720  -23.0770   21.1960 C   0  0  0  0  0  2  0  0  0  0  0  0
  -28.7670  -24.2930   20.2760 C   0  0  0  0  0  3  0  0  0  0  0  0
  -30.0900  -24.4420   20.1620 F   0  0  0  0  0  0  0  0  0  0  0  0
  -28.1550  -25.6020   20.8380 C   0  0  0  0  0  2  0  0  0  0  0  0
  -28.2920  -26.7530   19.9800 O   0  0  0  0  0  0  0  0  0  0  0  0
  -24.5490  -31.8810   23.1890 C   0  0  0  0  0  0  0  0  0  0  0  0
  -27.1600  -27.5330   19.9670 C   0  0  0  0  0  0  0  0  0  0  0  0
  -23.3250  -30.5200   21.5250 C   0  0  0  0  0  3  0  0  0  0  0  0
  -24.7660  -29.0280   20.0370 C   0  0  0  0  0  0  0  0  0  0  0  0
  -25.8470  -30.8940   21.3050 C   0  0  0  0  0  2  0  0  0  0  0  0
  -25.9290  -29.5410   20.6250 C   0  0  0  0  0  0  0  0  0  0  0  0
  -27.1340  -28.8020   20.5870 C   0  0  0  0  0  3  0  0  0  0  0  0
  -25.9860  -27.0330   19.3660 C   0  0  0  0  0  3  0  0  0  0  0  0
  -24.7900  -27.7740   19.4010 C   0  0  0  0  0  3  0  0  0  0  0  0
  -23.5180  -29.8780   20.1240 C   0  0  0  0  0  2  0  0  0  0  0  0
  -24.5930  -31.1110   22.0660 N   0  0  0  0  0  0  0  0  0  0  0  0
  -23.4750  -32.1380   23.7500 O   0  0  0  0  0  0  0  0  0  0  0  0
  -22.6880  -29.4720   22.4670 C   0  0  0  0  0  0  0  0  0  0  0  0
  -21.3680  -29.2690   22.3310 N   0  0  0  0  0  0  0  0  0  0  0  0
  -23.3800  -28.8450   23.2740 O   0  0  0  0  0  0  0  0  0  0  0  0
  -20.8720  -29.8300   21.6510 H   0  0  0  0  0  0  0  0  0  0  0  0
  -18.0240  -27.9610   22.7390 C   0  0  0  0  0  0  0  0  0  0  0  0
  -20.5630  -28.3060   23.0810 C   0  0  0  0  0  3  0  0  0  0  0  0
  -20.7300  -26.8780   22.5120 C   0  0  0  0  0  2  0  0  0  0  0  0
  -19.6680  -26.5160   21.4690 C   0  0  0  0  0  2  0  0  0  0  0  0
  -18.2650  -26.6170   22.0740 C   0  0  0  0  0  2  0  0  0  0  0  0
  -19.1040  -28.7610   23.1980 C   0  0  0  0  0  0  0  0  0  0  0  0
  -18.8280  -30.0190   23.7770 C   0  0  0  0  0  3  0  0  0  0  0  0
  -17.5040  -30.4770   23.9040 C   0  0  0  0  0  3  0  0  0  0  0  0
  -16.4370  -29.6750   23.4630 C   0  0  0  0  0  3  0  0  0  0  0  0
  -16.6980  -28.4190   22.8870 C   0  0  0  0  0  3  0  0  0  0  0  0
  -25.8430  -32.4970   23.8100 C   0  0  0  0  0  3  0  0  0  0  0  0
  -25.5460  -33.8930   24.1540 N   0  0  0  0  0  0  0  0  0  0  0  0
  -25.8930  -34.9500   23.4080 C   0  0  0  0  0  0  0  0  0  0  0  0
  -26.5670  -34.8530   22.3790 O   0  0  0  0  0  0  0  0  0  0  0  0
  -24.9470  -34.0440   24.9530 H   0  0  0  0  0  0  0  0  0  0  0  0
  -24.1840  -36.7620   23.0600 C   0  0  0  0  0  1  0  0  0  0  0  0
  -25.4140  -36.3380   23.8770 C   0  0  0  0  0  3  0  0  0  0  0  0
  -27.5510  -37.1900   24.7330 C   0  0  0  0  0  1  0  0  0  0  0  0
  -26.4580  -37.3820   23.7850 N   0  0  0  0  0  0  0  0  0  0  0  0
  -26.0600  -38.3040   23.9410 H   0  0  0  0  0  0  0  0  0  0  0  0
  -26.3640  -31.7070   25.0730 C   0  0  1  0  0  0  0  0  0  0  0  0
  -25.2740  -31.4590   26.1430 C   0  0  0  0  0  1  0  0  0  0  0  0
  -26.9410  -30.3340   24.6580 C   0  0  0  0  0  1  0  0  0  0  0  0
  -27.5190  -32.4900   25.7400 C   0  0  0  0  0  1  0  0  0  0  0  0
  1 48  1  0
  1  4  1  0
  2  1  1  0
  3  1  1  0
  4  5  1  0
  6  8  1  0
  7  9  2  0
  7 10  1  0
  9 11  1  0
 10  6  2  0
 11  5  1  0
 11  8  2  0
 12 10  1  0
 13 18  1  0
 14 15  1  0
 14 13  1  0
 16 15  1  0
 16 23  1  0
 16 17  1  0
 18 12  1  0
 18 17  1  0
 19 12  2  0
 20 21  2  0
 21 40  1  0
 22 21  1  0
 22 25  1  0
 23 24  1  0
 23 20  1  0
 24 22  2  0
 25 26  1  0
 26 27  2  0
 28 31  1  0
 28 27  1  0
 29 28  2  0
 30 29  1  0
 30 25  2  0
 31 32  1  0
 32 37  2  0
 32 33  1  0
 33 34  2  0
 34 35  1  0
 35 39  1  0
 36 35  2  0
 37 36  1  0
 38 37  1  0
 40 41  1  0
 41 44  1  0
 41 43  1  0
 42 40  2  0
 45 20  1  0
 45 46  1  0
 47 45  1  0
 49 50  1  0
 49 51  1  0
 49 48  1  0
 52 51  1  0
 53 64  2  0
 54 52  1  0
 54 59  1  0
 55 63  1  0
 55 65  1  0
 56 62  1  0
 56 58  1  0
 57 63  1  0
 58 57  1  0
 59 58  2  0
 60 61  1  0
 60 54  2  0
 61 56  2  0
 62 55  1  0
 63 53  1  0
 65 67  2  0
 66 65  1  0
 68 66  1  0
 69 78  2  0
 69 74  1  0
 70 66  1  0
 70 74  1  0
 71 70  1  0
 72 73  1  0
 72 71  1  0
 73 69  1  0
 74 75  2  0
 75 76  1  0
 77 76  2  0
 78 77  1  0
 79 53  1  0
 79 80  1  0
 79 89  1  0
 80 83  1  0
 81 85  1  0
 81 80  1  0
 82 81  2  0
 85 84  1  0
 87 85  1  0
 87 88  1  0
 87 86  1  0
 89 92  1  1
 89 90  1  0
 91 89  1  0
M  ISO  4  10 100  12 100  51 101  52 101
M  END
>  <TORSDO>  (6) 
F 22

>  <SCORE>  (6) 
-11.578

>  <name>  (6) 
5

>  <ligand_id>  (6) 
5

>  <original_smiles>  (6) 
[H]c1c([H])c([H])c2c(c1[H])C([H])([H])C([H])([H])C([H])([H])C2([H])N([H])C(=O)C1([H])N(C(=O)C([H])(N([H])C(=O)C([H])(N([H])C([H])([H])[H])C([H])([H])[H])C(C([H])([H])[H])(C([H])([H])[H])C([H])([H])[H])C([H])([H])c2c([H])c(OC([H])([H])C([H])(F)C([H])([H])[N+]([H])([H])C([H])([H])C([H])([H])c3c([H])c([H])c(C(=O)N4C([H])([H])C([H])([H])C([H])([H])C([H])(n5nc(-c6c([H])c([H])c(Oc7c([H])c([H])c(F)c([H])c7F)c([H])c6[H])c(C(=O)N([H])[H])c5N([H])[H])C4([H])[H])c([H])c3[H])c([H])c([H])c2C1([H])[H]

>  <smiles>  (6) 
[H]c1c([H])c([H])c2c(c1[H])C([H])([H])C([H])([H])C([H])([H])C2([H])N([H])C(=O)C1([H])N(C(=O)C([H])(N([H])C(=O)C([H])(N([H])C([H])([H])[H])C([H])([H])[H])C(C([H])([H])[H])(C([H])([H])[H])C([H])([H])[H])C([H])([H])c2c([H])c(OC([H])([H])C([H])(F)C([H])([H])[N+]([H])([H])C([H])([H])C([H])([H])c3c([H])c([H])c(C(=O)N4C([H])([H])C([H])([H])C([H])([H])C([H])(n5nc(-c6c([H])c([H])c(Oc7c([H])c([H])c(F)c([H])c7F)c([H])c6[H])c(C(=O)N([H])[H])c5N([H])[H])C4([H])[H])c([H])c3[H])c([H])c([H])c2C1([H])[H]

$$$$
6:0:0
     RDKit          3D

 95103  0  0  1  0  0  0  0  0999 V2000
  -27.2040  -21.0140   18.8580 N   0  0  0  0  0  4  0  0  0  0  0  0
  -26.5990  -21.0130   19.6630 H   0  0  0  0  0  0  0  0  0  0  0  0
  -26.6860  -20.6150   18.0920 H   0  0  0  0  0  0  0  0  0  0  0  0
  -28.3990  -20.1800   19.1010 C   0  0  0  0  0  2  0  0  0  0  0  0
  -28.0990  -18.9210   19.9390 C   0  0  0  0  0  2  0  0  0  0  0  0
  -30.7540  -14.7850   21.0410 C   0  0  0  0  0  0  0  0  0  0  0  0
  -30.5350  -12.6000   19.9880 C   0  0  0  0  0  2  0  0  0  0  0  0
  -29.7000  -12.7650   18.7010 C   0  0  0  0  0  2  0  0  0  0  0  0
  -28.1970  -12.6230   19.0070 C   0  0  0  0  0  2  0  0  0  0  0  0
  -27.7370  -13.4910   20.2080 C   0  0  0  0  0  3  0  0  0  0  0  0
  -28.7050  -13.3680   21.4100 C   0  0  0  0  0  2  0  0  0  0  0  0
  -30.0680  -13.6220   20.9290 N   0  0  0  0  0  0  0  0  0  0  0  0
  -31.9850  -14.8220   21.0620 O   0  0  0  0  0  0  0  0  0  0  0  0
  -29.1700  -16.7260   20.8910 C   0  0  0  0  0  2  0  0  0  0  0  0
  -30.8640  -16.4040   19.2230 C   0  0  0  0  0  2  0  0  0  0  0  0
  -29.3390  -18.0120   20.0590 C   0  0  0  0  0  3  0  0  0  0  0  0
  -29.9970  -17.5590   18.7440 C   0  0  0  0  0  3  0  0  0  0  0  0
  -30.1540  -15.7820   20.3520 N   0  0  0  0  0  0  0  0  0  0  0  0
  -25.2790  -14.0780   20.6920 C   0  0  0  0  0  0  0  0  0  0  0  0
  -24.1930  -13.2940   20.9710 C   0  0  0  0  0  0  0  0  0  0  0  0
  -24.6780  -11.9520   21.0180 C   0  0  0  0  0  0  0  0  0  0  0  0
  -26.3540  -13.2100   20.5810 N   0  0  0  0  0  0  0  0  0  0  0  0
  -25.9920  -11.9290   20.8430 N   0  0  0  0  0  0  0  0  0  0  0  0
  -23.9600  -10.6800   21.1590 C   0  0  0  0  0  0  0  0  0  0  0  0
  -24.3350   -9.7270   22.1330 C   0  0  0  0  0  3  0  0  0  0  0  0
  -23.6200   -8.5180   22.2620 C   0  0  0  0  0  3  0  0  0  0  0  0
  -22.5160   -8.2520   21.4170 C   0  0  0  0  0  0  0  0  0  0  0  0
  -22.1610   -9.1940   20.4350 C   0  0  0  0  0  3  0  0  0  0  0  0
  -22.8770  -10.3950   20.3050 C   0  0  0  0  0  3  0  0  0  0  0  0
  -21.7780   -7.0930   21.4540 O   0  0  0  0  0  0  0  0  0  0  0  0
  -21.6460   -6.3620   22.6070 C   0  0  0  0  0  0  0  0  0  0  0  0
  -21.0850   -6.9150   23.7790 C   0  0  0  0  0  3  0  0  0  0  0  0
  -20.9040   -6.1090   24.9210 C   0  0  0  0  0  3  0  0  0  0  0  0
  -21.2720   -4.7510   24.8900 C   0  0  0  0  0  0  0  0  0  0  0  0
  -21.8250   -4.1970   23.7210 C   0  0  0  0  0  3  0  0  0  0  0  0
  -22.0080   -5.0010   22.5830 C   0  0  0  0  0  0  0  0  0  0  0  0
  -22.5220   -4.4580   21.4520 F   0  0  0  0  0  0  0  0  0  0  0  0
  -21.0910   -3.9740   25.9840 F   0  0  0  0  0  0  0  0  0  0  0  0
  -22.7680  -13.7490   21.0920 C   0  0  0  0  0  0  0  0  0  0  0  0
  -21.9760  -13.0680   21.9150 N   0  0  0  0  0  0  0  0  0  0  0  0
  -22.3600  -14.7430   20.4940 O   0  0  0  0  0  0  0  0  0  0  0  0
  -22.3170  -12.2630   22.4200 H   0  0  0  0  0  0  0  0  0  0  0  0
  -21.0180  -13.3580   22.0420 H   0  0  0  0  0  0  0  0  0  0  0  0
  -25.4330  -15.4480   20.5010 N   0  0  0  0  0  0  0  0  0  0  0  0
  -24.6460  -16.0860   20.5380 H   0  0  0  0  0  0  0  0  0  0  0  0
  -26.3100  -15.9100   20.3060 H   0  0  0  0  0  0  0  0  0  0  0  0
  -29.0510  -17.1010   17.7050 N   0  0  0  0  0  4  0  0  0  0  0  0
  -28.4860  -16.3330   18.0210 H   0  0  0  0  0  0  0  0  0  0  0  0
  -29.5660  -16.7930   16.8970 H   0  0  0  0  0  0  0  0  0  0  0  0
  -28.4450  -17.8380   17.3940 H   0  0  0  0  0  0  0  0  0  0  0  0
  -27.5240  -22.4110   18.5000 C   0  0  0  0  0  2  0  0  0  0  0  0
  -27.9420  -23.2420   19.7260 C   0  0  0  0  0  2  0  0  0  0  0  0
  -28.3840  -24.6610   19.3420 C   0  0  0  0  0  2  0  0  0  0  0  0
  -28.3940  -25.6100   20.5470 C   0  0  0  0  0  2  0  0  0  0  0  0
  -28.4630  -26.9660   20.1180 O   0  0  0  0  0  0  0  0  0  0  0  0
  -24.6880  -31.9760   23.4030 C   0  0  0  0  0  0  0  0  0  0  0  0
  -27.2750  -27.6590   20.1460 C   0  0  0  0  0  0  0  0  0  0  0  0
  -23.4460  -30.6160   21.7510 C   0  0  0  0  0  3  0  0  0  0  0  0
  -24.8690  -29.1300   20.2510 C   0  0  0  0  0  0  0  0  0  0  0  0
  -25.9630  -30.9990   21.5020 C   0  0  0  0  0  2  0  0  0  0  0  0
  -26.0370  -29.6520   20.8210 C   0  0  0  0  0  0  0  0  0  0  0  0
  -27.2450  -28.9260   20.7580 C   0  0  0  0  0  3  0  0  0  0  0  0
  -26.0850  -27.1380   19.5850 C   0  0  0  0  0  3  0  0  0  0  0  0
  -24.8870  -27.8700   19.6310 C   0  0  0  0  0  3  0  0  0  0  0  0
  -23.6230  -29.9780   20.3490 C   0  0  0  0  0  2  0  0  0  0  0  0
  -24.7170  -31.2100   22.2770 N   0  0  0  0  0  0  0  0  0  0  0  0
  -23.6200  -32.2290   23.9770 O   0  0  0  0  0  0  0  0  0  0  0  0
  -22.8240  -29.5640   22.6960 C   0  0  0  0  0  0  0  0  0  0  0  0
  -21.5090  -29.3320   22.5480 N   0  0  0  0  0  0  0  0  0  0  0  0
  -23.5190  -28.9610   23.5170 O   0  0  0  0  0  0  0  0  0  0  0  0
  -21.0080  -29.8750   21.8570 H   0  0  0  0  0  0  0  0  0  0  0  0
  -18.1860  -27.9710   22.9420 C   0  0  0  0  0  0  0  0  0  0  0  0
  -20.7160  -28.3630   23.3020 C   0  0  0  0  0  3  0  0  0  0  0  0
  -20.9120  -26.9330   22.7490 C   0  0  0  0  0  2  0  0  0  0  0  0
  -19.8650  -26.5420   21.7000 C   0  0  0  0  0  2  0  0  0  0  0  0
  -18.4560  -26.6240   22.2920 C   0  0  0  0  0  2  0  0  0  0  0  0
  -19.2480  -28.7940   23.4010 C   0  0  0  0  0  0  0  0  0  0  0  0
  -18.9460  -30.0530   23.9650 C   0  0  0  0  0  3  0  0  0  0  0  0
  -17.6120  -30.4890   24.0760 C   0  0  0  0  0  3  0  0  0  0  0  0
  -16.5640  -29.6640   23.6350 C   0  0  0  0  0  3  0  0  0  0  0  0
  -16.8510  -28.4070   23.0740 C   0  0  0  0  0  3  0  0  0  0  0  0
  -25.9890  -32.5920   24.0090 C   0  0  0  0  0  3  0  0  0  0  0  0
  -25.7070  -33.9990   24.3200 N   0  0  0  0  0  0  0  0  0  0  0  0
  -26.0690  -35.0340   23.5500 C   0  0  0  0  0  0  0  0  0  0  0  0
  -26.7460  -34.9050   22.5270 O   0  0  0  0  0  0  0  0  0  0  0  0
  -25.1100  -34.1760   25.1160 H   0  0  0  0  0  0  0  0  0  0  0  0
  -24.3870  -36.8590   23.1450 C   0  0  0  0  0  1  0  0  0  0  0  0
  -25.6030  -36.4370   23.9850 C   0  0  0  0  0  3  0  0  0  0  0  0
  -27.7400  -37.2810   24.8500 C   0  0  0  0  0  1  0  0  0  0  0  0
  -26.6610  -37.4650   23.8830 N   0  0  0  0  0  0  0  0  0  0  0  0
  -26.2730  -38.3950   24.0150 H   0  0  0  0  0  0  0  0  0  0  0  0
  -26.5020  -31.8270   25.2900 C   0  0  1  0  0  0  0  0  0  0  0  0
  -25.4100  -31.6040   26.3620 C   0  0  0  0  0  1  0  0  0  0  0  0
  -27.0760  -30.4420   24.9070 C   0  0  0  0  0  1  0  0  0  0  0  0
  -27.6580  -32.6190   25.9450 C   0  0  0  0  0  1  0  0  0  0  0  0
  1  4  1  0
  1  2  1  0
  3  1  1  0
  4  5  1  0
  6 13  2  0
  7 12  1  0
  8  9  1  0
  8  7  1  0
 10  9  1  0
 10 22  1  0
 10 11  1  0
 12  6  1  0
 12 11  1  0
 15 18  1  0
 16  5  1  0
 16 14  1  0
 17 47  1  0
 17 15  1  0
 17 16  1  0
 18 14  1  0
 18  6  1  0
 19 20  2  0
 20 21  1  0
 20 39  1  0
 21 24  1  0
 22 19  1  0
 22 23  1  0
 23 21  2  0
 24 25  1  0
 25 26  2  0
 27 30  1  0
 27 26  1  0
 28 27  2  0
 29 28  1  0
 29 24  2  0
 30 31  1  0
 31 32  1  0
 32 33  2  0
 34 33  1  0
 34 38  1  0
 35 34  2  0
 36 31  2  0
 36 35  1  0
 37 36  1  0
 39 40  1  0
 40 43  1  0
 40 42  1  0
 41 39  2  0
 44 45  1  0
 44 19  1  0
 46 44  1  0
 47 48  1  0
 49 47  1  0
 50 47  1  0
 51  1  1  0
 51 52  1  0
 53 52  1  0
 53 54  1  0
 55 57  1  0
 55 54  1  0
 56 67  2  0
 57 62  1  0
 58 66  1  0
 58 68  1  0
 59 65  1  0
 59 61  1  0
 60 66  1  0
 61 60  1  0
 62 61  2  0
 63 64  1  0
 63 57  2  0
 64 59  2  0
 65 58  1  0
 66 56  1  0
 68 70  2  0
 69 68  1  0
 71 69  1  0
 72 81  2  0
 72 77  1  0
 73 69  1  0
 73 77  1  0
 74 73  1  0
 75 76  1  0
 75 74  1  0
 76 72  1  0
 77 78  2  0
 78 79  1  0
 80 79  2  0
 81 80  1  0
 82 56  1  0
 82 83  1  0
 82 92  1  0
 83 86  1  0
 84 88  1  0
 84 83  1  0
 85 84  2  0
 88 87  1  0
 90 88  1  0
 90 91  1  0
 90 89  1  0
 92 95  1  1
 92 93  1  0
 94 92  1  0
M  ISO  4   6 100  18 100  54 101  55 101
M  END
>  <TORSDO>  (7) 
F 23

>  <SCORE>  (7) 
-12.524

>  <name>  (7) 
6

>  <ligand_id>  (7) 
6

>  <original_smiles>  (7) 
[H]c1c([H])c([H])c2c(c1[H])C([H])([H])C([H])([H])C([H])([H])C2([H])N([H])C(=O)C1([H])N(C(=O)C([H])(N([H])C(=O)C([H])(N([H])C([H])([H])[H])C([H])([H])[H])C(C([H])([H])[H])(C([H])([H])[H])C([H])([H])[H])C([H])([H])c2c([H])c(OC([H])([H])C([H])([H])C([H])([H])C([H])([H])[N+]([H])([H])C([H])([H])C([H])([H])C3([H])C([H])([H])N(C(=O)N4C([H])([H])C([H])([H])C([H])([H])C([H])(n5nc(-c6c([H])c([H])c(Oc7c([H])c([H])c(F)c([H])c7F)c([H])c6[H])c(C(=O)N([H])[H])c5N([H])[H])C4([H])[H])C([H])([H])C3([H])[N+]([H])([H])[H])c([H])c([H])c2C1([H])[H]

>  <smiles>  (7) 
[H]c1c([H])c([H])c2c(c1[H])C([H])([H])C([H])([H])C([H])([H])C2([H])N([H])C(=O)C1([H])N(C(=O)C([H])(N([H])C(=O)C([H])(N([H])C([H])([H])[H])C([H])([H])[H])C(C([H])([H])[H])(C([H])([H])[H])C([H])([H])[H])C([H])([H])c2c([H])c(OC([H])([H])C([H])([H])C([H])([H])C([H])([H])[N+]([H])([H])C([H])([H])C([H])([H])C3([H])C([H])([H])N(C(=O)N4C([H])([H])C([H])([H])C([H])([H])C([H])(n5nc(-c6c([H])c([H])c(Oc7c([H])c([H])c(F)c([H])c7F)c([H])c6[H])c(C(=O)N([H])[H])c5N([H])[H])C4([H])[H])C([H])([H])C3([H])[N+]([H])([H])[H])c([H])c([H])c2C1([H])[H]

$$$$
7:0:0
     RDKit          3D

 94102  0  0  1  0  0  0  0  0999 V2000
  -29.4560  -20.3450   19.8300 N   0  0  1  0  0  4  0  0  0  0  0  0
  -30.3470  -20.8100   19.9370 H   0  0  0  0  0  0  0  0  0  0  0  0
  -30.2870  -20.7810   17.5240 C   0  0  0  0  0  0  0  0  0  0  0  0
  -29.7010  -20.7340   16.1230 C   0  0  0  0  0  2  0  0  0  0  0  0
  -28.5930  -19.6680   16.2050 C   0  0  0  0  0  2  0  0  0  0  0  0
  -28.2570  -19.4800   17.6950 C   0  0  0  0  0  2  0  0  0  0  0  0
  -29.5700  -19.7960   18.4390 C   0  0  0  0  0  3  0  0  0  0  0  0
  -31.2080  -21.5370   17.8450 O   0  0  0  0  0  0  0  0  0  0  0  0
  -28.4290  -21.4490   19.9800 C   0  0  0  0  0  2  0  0  0  0  0  0
  -28.9350  -22.7790   20.6250 C   0  0  0  0  0  2  0  0  0  0  0  0
  -28.1580  -24.0620   20.1660 C   0  0  0  0  0  2  0  0  0  0  0  0
  -28.3890  -25.3360   21.0300 C   0  0  0  0  0  2  0  0  0  0  0  0
  -28.3420  -26.6010   20.3390 O   0  0  0  0  0  0  0  0  0  0  0  0
  -24.5420  -31.8620   23.3580 C   0  0  0  0  0  0  0  0  0  0  0  0
  -27.1730  -27.3350   20.3760 C   0  0  0  0  0  0  0  0  0  0  0  0
  -23.3520  -30.4800   21.6850 C   0  0  0  0  0  3  0  0  0  0  0  0
  -24.8110  -28.8980   20.3140 C   0  0  0  0  0  0  0  0  0  0  0  0
  -25.8890  -30.7810   21.5560 C   0  0  0  0  0  2  0  0  0  0  0  0
  -25.9640  -29.4020   20.9290 C   0  0  0  0  0  0  0  0  0  0  0  0
  -27.1490  -28.6290   20.9510 C   0  0  0  0  0  3  0  0  0  0  0  0
  -26.0030  -26.8450   19.7610 C   0  0  0  0  0  3  0  0  0  0  0  0
  -24.8260  -27.6190   19.7270 C   0  0  0  0  0  3  0  0  0  0  0  0
  -23.5860  -29.7870   20.3160 C   0  0  0  0  0  2  0  0  0  0  0  0
  -24.6120  -31.0570   22.2590 N   0  0  0  0  0  0  0  0  0  0  0  0
  -23.4520  -32.1590   23.8670 O   0  0  0  0  0  0  0  0  0  0  0  0
  -22.6500  -29.4800   22.6310 C   0  0  0  0  0  0  0  0  0  0  0  0
  -21.3250  -29.3300   22.4700 N   0  0  0  0  0  0  0  0  0  0  0  0
  -23.2970  -28.8390   23.4650 O   0  0  0  0  0  0  0  0  0  0  0  0
  -20.8670  -29.8960   21.7710 H   0  0  0  0  0  0  0  0  0  0  0  0
  -17.9050  -28.2470   22.9070 C   0  0  0  0  0  0  0  0  0  0  0  0
  -20.4660  -28.4130   23.2190 C   0  0  0  0  0  3  0  0  0  0  0  0
  -20.5290  -26.9850   22.6280 C   0  0  0  0  0  2  0  0  0  0  0  0
  -19.4320  -26.7120   21.5950 C   0  0  0  0  0  2  0  0  0  0  0  0
  -18.0460  -26.8990   22.2200 C   0  0  0  0  0  2  0  0  0  0  0  0
  -19.0430  -28.9650   23.3620 C   0  0  0  0  0  0  0  0  0  0  0  0
  -18.8600  -30.2290   23.9630 C   0  0  0  0  0  3  0  0  0  0  0  0
  -17.5710  -30.7740   24.1130 C   0  0  0  0  0  3  0  0  0  0  0  0
  -16.4470  -30.0530   23.6760 C   0  0  0  0  0  3  0  0  0  0  0  0
  -16.6150  -28.7900   23.0790 C   0  0  0  0  0  3  0  0  0  0  0  0
  -25.8240  -32.4660   24.0120 C   0  0  0  0  0  3  0  0  0  0  0  0
  -25.5630  -33.8890   24.2650 N   0  0  0  0  0  0  0  0  0  0  0  0
  -25.9880  -34.8910   23.4830 C   0  0  0  0  0  0  0  0  0  0  0  0
  -26.7080  -34.7110   22.4990 O   0  0  0  0  0  0  0  0  0  0  0  0
  -24.9320  -34.1060   25.0230 H   0  0  0  0  0  0  0  0  0  0  0  0
  -24.3870  -36.7510   22.9320 C   0  0  0  0  0  1  0  0  0  0  0  0
  -25.5400  -36.3180   23.8530 C   0  0  0  0  0  3  0  0  0  0  0  0
  -27.6360  -37.1420   24.8290 C   0  0  0  0  0  1  0  0  0  0  0  0
  -26.6310  -37.3130   23.7840 N   0  0  0  0  0  0  0  0  0  0  0  0
  -26.2630  -38.2580   23.8490 H   0  0  0  0  0  0  0  0  0  0  0  0
  -26.2480  -31.7320   25.3430 C   0  0  1  0  0  0  0  0  0  0  0  0
  -25.0960  -31.5800   26.3640 C   0  0  0  0  0  1  0  0  0  0  0  0
  -26.7940  -30.3180   25.0350 C   0  0  0  0  0  1  0  0  0  0  0  0
  -27.3960  -32.5090   26.0280 C   0  0  0  0  0  1  0  0  0  0  0  0
  -29.4240  -19.2920   20.9150 C   0  0  0  0  0  3  0  0  0  0  0  0
  -30.0190  -17.8710   20.5790 C   0  0  0  0  0  3  0  0  0  0  0  0
  -30.2060  -16.9050   21.7910 C   0  0  0  0  0  2  0  0  0  0  0  0
  -30.7250  -14.5150   20.9890 C   0  0  0  0  0  0  0  0  0  0  0  0
  -30.5550  -12.3550   19.7920 C   0  0  0  0  0  2  0  0  0  0  0  0
  -29.6590  -12.5430   18.5480 C   0  0  0  0  0  2  0  0  0  0  0  0
  -28.1680  -12.3790   18.9070 C   0  0  0  0  0  2  0  0  0  0  0  0
  -27.7610  -13.2010   20.1590 C   0  0  0  0  0  3  0  0  0  0  0  0
  -28.7640  -12.9650   21.3100 C   0  0  0  0  0  2  0  0  0  0  0  0
  -30.1060  -13.3140   20.8120 N   0  0  0  0  0  0  0  0  0  0  0  0
  -31.8700  -14.7480   20.5940 O   0  0  0  0  0  0  0  0  0  0  0  0
  -29.9300  -15.4800   21.5020 N   0  0  0  0  0  0  0  0  0  0  0  0
  -29.0100  -15.1570   21.7600 H   0  0  0  0  0  0  0  0  0  0  0  0
  -25.3280  -13.7900   20.7580 C   0  0  0  0  0  0  0  0  0  0  0  0
  -24.2480  -13.0080   21.0670 C   0  0  0  0  0  0  0  0  0  0  0  0
  -24.7190  -11.6600   21.0440 C   0  0  0  0  0  0  0  0  0  0  0  0
  -26.3880  -12.9160   20.5680 N   0  0  0  0  0  0  0  0  0  0  0  0
  -26.0220  -11.6290   20.7970 N   0  0  0  0  0  0  0  0  0  0  0  0
  -23.9920  -10.3910   21.1850 C   0  0  0  0  0  0  0  0  0  0  0  0
  -24.3740   -9.4250   22.1420 C   0  0  0  0  0  3  0  0  0  0  0  0
  -23.6490   -8.2200   22.2700 C   0  0  0  0  0  3  0  0  0  0  0  0
  -22.5280   -7.9750   21.4430 C   0  0  0  0  0  0  0  0  0  0  0  0
  -22.1660   -8.9300   20.4760 C   0  0  0  0  0  3  0  0  0  0  0  0
  -22.8920  -10.1260   20.3450 C   0  0  0  0  0  3  0  0  0  0  0  0
  -21.7790   -6.8220   21.4780 O   0  0  0  0  0  0  0  0  0  0  0  0
  -21.6490   -6.0850   22.6280 C   0  0  0  0  0  0  0  0  0  0  0  0
  -21.0440   -6.6160   23.7880 C   0  0  0  0  0  3  0  0  0  0  0  0
  -20.8680   -5.8020   24.9260 C   0  0  0  0  0  3  0  0  0  0  0  0
  -21.2850   -4.4570   24.9010 C   0  0  0  0  0  0  0  0  0  0  0  0
  -21.8820   -3.9270   23.7450 C   0  0  0  0  0  3  0  0  0  0  0  0
  -22.0610   -4.7380   22.6100 C   0  0  0  0  0  0  0  0  0  0  0  0
  -22.6180   -4.2150   21.4910 F   0  0  0  0  0  0  0  0  0  0  0  0
  -21.1080   -3.6730   25.9890 F   0  0  0  0  0  0  0  0  0  0  0  0
  -22.8370  -13.4750   21.2780 C   0  0  0  0  0  0  0  0  0  0  0  0
  -22.0750  -12.7690   22.1080 N   0  0  0  0  0  0  0  0  0  0  0  0
  -22.4150  -14.5000   20.7450 O   0  0  0  0  0  0  0  0  0  0  0  0
  -22.4270  -11.9400   22.5620 H   0  0  0  0  0  0  0  0  0  0  0  0
  -21.1260  -13.0630   22.2900 H   0  0  0  0  0  0  0  0  0  0  0  0
  -25.4940  -15.1630   20.6030 N   0  0  0  0  0  0  0  0  0  0  0  0
  -24.7170  -15.8100   20.6770 H   0  0  0  0  0  0  0  0  0  0  0  0
  -26.3530  -15.6080   20.3090 H   0  0  0  0  0  0  0  0  0  0  0  0
  1  2  1  1
  1  9  1  0
  1 54  1  0
  3  8  2  0
  3  7  1  0
  4  5  1  0
  4  3  1  0
  5  6  1  0
  6  7  1  0
  7  1  1  0
  9 10  1  0
 11 10  1  0
 11 12  1  0
 13 15  1  0
 13 12  1  0
 14 25  2  0
 15 20  1  0
 16 24  1  0
 16 26  1  0
 17 23  1  0
 17 19  1  0
 18 24  1  0
 19 20  2  0
 19 18  1  0
 21 15  2  0
 22 21  1  0
 22 17  2  0
 23 16  1  0
 24 14  1  0
 26 28  2  0
 27 26  1  0
 29 27  1  0
 30 39  2  0
 30 35  1  0
 31 27  1  0
 31 35  1  0
 32 31  1  0
 33 34  1  0
 33 32  1  0
 34 30  1  0
 35 36  2  0
 36 37  1  0
 38 37  2  0
 39 38  1  0
 40 14  1  0
 40 41  1  0
 40 50  1  0
 41 44  1  0
 42 46  1  0
 42 41  1  0
 43 42  2  0
 46 45  1  0
 48 49  1  0
 48 46  1  0
 48 47  1  0
 50 53  1  1
 50 51  1  0
 52 50  1  0
 55 54  2  0
 55 56  1  0
 57 65  1  0
 58 63  1  0
 59 60  1  0
 59 58  1  0
 61 60  1  0
 61 70  1  0
 61 62  1  0
 63 57  1  0
 63 62  1  0
 64 57  2  0
 65 66  1  0
 65 56  1  0
 67 68  2  0
 68 87  1  0
 69 68  1  0
 69 72  1  0
 70 67  1  0
 70 71  1  0
 71 69  2  0
 72 73  1  0
 73 74  2  0
 75 78  1  0
 75 74  1  0
 76 75  2  0
 77 76  1  0
 77 72  2  0
 78 79  1  0
 79 80  1  0
 80 81  2  0
 82 81  1  0
 82 86  1  0
 83 82  2  0
 84 79  2  0
 84 83  1  0
 85 84  1  0
 87 88  1  0
 88 91  1  0
 88 90  1  0
 89 87  2  0
 92 93  1  0
 92 67  1  0
 94 92  1  0
M  ISO  4  12 101  13 101  57 100  65 100
M  END
>  <TORSDO>  (8) 
F 24

>  <SCORE>  (8) 
-12.184

>  <name>  (8) 
7

>  <ligand_id>  (8) 
7

>  <original_smiles>  (8) 
[H]c1c([H])c([H])c2c(c1[H])C([H])([H])C([H])([H])C([H])([H])C2([H])N([H])C(=O)C1([H])N(C(=O)C([H])(N([H])C(=O)C([H])(N([H])C([H])([H])[H])C([H])([H])[H])C(C([H])([H])[H])(C([H])([H])[H])C([H])([H])[H])C([H])([H])c2c([H])c(OC([H])([H])C([H])([H])C([H])([H])C([H])([H])[N+]([H])(C([H])([H])C([H])([H])C([H])([H])N([H])C(=O)N3C([H])([H])C([H])([H])C([H])([H])C([H])(n4nc(-c5c([H])c([H])c(Oc6c([H])c([H])c(F)c([H])c6F)c([H])c5[H])c(C(=O)N([H])[H])c4N([H])[H])C3([H])[H])C3([H])C(=O)C([H])([H])C([H])([H])C3([H])[H])c([H])c([H])c2C1([H])[H]

>  <smiles>  (8) 
[H]c1c([H])c([H])c2c(c1[H])C([H])([H])C([H])([H])C([H])([H])C2([H])N([H])C(=O)C1([H])N(C(=O)C([H])(N([H])C(=O)C([H])(N([H])C([H])([H])[H])C([H])([H])[H])C(C([H])([H])[H])(C([H])([H])[H])C([H])([H])[H])C([H])([H])c2c([H])c(OC([H])([H])C([H])([H])C([H])([H])C([H])([H])[N+]([H])(C([H])([H])C([H])([H])C([H])([H])N([H])C(=O)N3C([H])([H])C([H])([H])C([H])([H])C([H])(n4nc(-c5c([H])c([H])c(Oc6c([H])c([H])c(F)c([H])c6F)c([H])c5[H])c(C(=O)N([H])[H])c4N([H])[H])C3([H])[H])C3([H])C(=O)C([H])([H])C([H])([H])C3([H])[H])c([H])c([H])c2C1([H])[H]

$$$$
8:0:0
     RDKit          3D

 93101  0  0  1  0  0  0  0  0999 V2000
  -29.7220  -20.6680   20.1510 C   0  0  0  0  0  3  0  0  0  0  0  0
  -29.6350  -22.0770   20.1040 C   0  0  0  0  0  3  0  0  0  0  0  0
  -27.3080  -20.5170   19.8840 C   0  0  0  0  0  3  0  0  0  0  0  0
  -28.5560  -19.8790   20.0360 C   0  0  0  0  0  0  0  0  0  0  0  0
  -28.3820  -22.7050   19.9280 C   0  0  0  0  0  0  0  0  0  0  0  0
  -27.2160  -21.9190   19.8260 C   0  0  0  0  0  0  0  0  0  0  0  0
  -26.0050  -22.4990   19.6440 F   0  0  0  0  0  0  0  0  0  0  0  0
  -28.5900  -18.3560   20.0240 C   0  0  0  0  0  2  0  0  0  0  0  0
  -29.9170  -17.6800   20.4130 C   0  0  0  0  0  2  0  0  0  0  0  0
  -29.6770  -16.1950   20.7390 C   0  0  0  0  0  2  0  0  0  0  0  0
  -31.2370  -14.4520   19.8680 C   0  0  0  0  0  0  0  0  0  0  0  0
  -30.8290  -12.1890   18.9570 C   0  0  0  0  0  2  0  0  0  0  0  0
  -29.8540  -12.2290   17.7670 C   0  0  0  0  0  2  0  0  0  0  0  0
  -28.3940  -12.1600   18.2540 C   0  0  0  0  0  2  0  0  0  0  0  0
  -28.1030  -13.1740   19.3910 C   0  0  0  0  0  3  0  0  0  0  0  0
  -29.1870  -13.0880   20.4900 C   0  0  0  0  0  2  0  0  0  0  0  0
  -30.5020  -13.3060   19.8620 N   0  0  0  0  0  0  0  0  0  0  0  0
  -32.2660  -14.5870   19.2040 O   0  0  0  0  0  0  0  0  0  0  0  0
  -30.9110  -15.4040   20.7570 N   0  0  0  0  0  0  0  0  0  0  0  0
  -31.7130  -15.9660   20.9950 H   0  0  0  0  0  0  0  0  0  0  0  0
  -25.8020  -13.9560   20.2510 C   0  0  0  0  0  0  0  0  0  0  0  0
  -24.7030  -13.2620   20.6720 C   0  0  0  0  0  0  0  0  0  0  0  0
  -25.0590  -11.8790   20.6010 C   0  0  0  0  0  0  0  0  0  0  0  0
  -26.7620  -13.0040   19.9430 N   0  0  0  0  0  0  0  0  0  0  0  0
  -26.3210  -11.7490   20.2120 N   0  0  0  0  0  0  0  0  0  0  0  0
  -24.2560  -10.6710   20.8220 C   0  0  0  0  0  0  0  0  0  0  0  0
  -24.6370   -9.6920   21.7660 C   0  0  0  0  0  3  0  0  0  0  0  0
  -23.8380   -8.5460   21.9740 C   0  0  0  0  0  3  0  0  0  0  0  0
  -22.6450   -8.3690   21.2340 C   0  0  0  0  0  0  0  0  0  0  0  0
  -22.2810   -9.3360   20.2790 C   0  0  0  0  0  3  0  0  0  0  0  0
  -23.0810  -10.4730   20.0700 C   0  0  0  0  0  3  0  0  0  0  0  0
  -21.8230   -7.2760   21.3490 O   0  0  0  0  0  0  0  0  0  0  0  0
  -21.7070   -6.5820   22.5260 C   0  0  0  0  0  0  0  0  0  0  0  0
  -21.2780   -7.2040   23.7180 C   0  0  0  0  0  3  0  0  0  0  0  0
  -21.1060   -6.4380   24.8890 C   0  0  0  0  0  3  0  0  0  0  0  0
  -21.3550   -5.0520   24.8680 C   0  0  0  0  0  0  0  0  0  0  0  0
  -21.7790   -4.4320   23.6800 C   0  0  0  0  0  3  0  0  0  0  0  0
  -21.9530   -5.1950   22.5120 C   0  0  0  0  0  0  0  0  0  0  0  0
  -22.3410   -4.5870   21.3650 F   0  0  0  0  0  0  0  0  0  0  0  0
  -21.1820   -4.3160   25.9900 F   0  0  0  0  0  0  0  0  0  0  0  0
  -23.3620  -13.8360   21.0330 C   0  0  0  0  0  0  0  0  0  0  0  0
  -22.6380  -13.1860   21.9370 N   0  0  0  0  0  0  0  0  0  0  0  0
  -22.9680  -14.8930   20.5440 O   0  0  0  0  0  0  0  0  0  0  0  0
  -22.9670  -12.3270   22.3510 H   0  0  0  0  0  0  0  0  0  0  0  0
  -21.7410  -13.5560   22.2180 H   0  0  0  0  0  0  0  0  0  0  0  0
  -26.0600  -15.3140   20.0780 N   0  0  0  0  0  0  0  0  0  0  0  0
  -25.3540  -16.0220   20.2420 H   0  0  0  0  0  0  0  0  0  0  0  0
  -26.9090  -15.6860   19.6750 H   0  0  0  0  0  0  0  0  0  0  0  0
  -28.3030  -24.2150   19.7720 C   0  0  0  0  0  2  0  0  0  0  0  0
  -26.9140  -25.0760   21.7460 C   0  0  0  0  0  1  0  0  0  0  0  0
  -28.3100  -25.0110   21.0960 C   0  0  0  0  0  3  0  0  0  0  0  0
  -28.9670  -26.4060   20.9260 C   0  0  0  0  0  2  0  0  0  0  0  0
  -28.5760  -27.0870   19.7310 O   0  0  0  0  0  0  0  0  0  0  0  0
  -24.5280  -31.8340   23.1400 C   0  0  0  0  0  0  0  0  0  0  0  0
  -27.3920  -27.7660   19.8060 C   0  0  0  0  0  0  0  0  0  0  0  0
  -23.3990  -30.4920   21.3920 C   0  0  0  0  0  3  0  0  0  0  0  0
  -24.9330  -29.1300   19.8830 C   0  0  0  0  0  0  0  0  0  0  0  0
  -25.8990  -30.9930   21.2410 C   0  0  0  0  0  2  0  0  0  0  0  0
  -26.0560  -29.6730   20.5220 C   0  0  0  0  0  0  0  0  0  0  0  0
  -27.2890  -28.9900   20.4960 C   0  0  0  0  0  3  0  0  0  0  0  0
  -26.2640  -27.2380   19.1470 C   0  0  0  0  0  3  0  0  0  0  0  0
  -25.0280  -27.9040   19.2020 C   0  0  0  0  0  3  0  0  0  0  0  0
  -23.6500  -29.9220   19.9690 C   0  0  0  0  0  2  0  0  0  0  0  0
  -24.6250  -31.1190   21.9840 N   0  0  0  0  0  0  0  0  0  0  0  0
  -23.4320  -32.0220   23.6890 O   0  0  0  0  0  0  0  0  0  0  0  0
  -22.7960  -29.3740   22.2740 C   0  0  0  0  0  0  0  0  0  0  0  0
  -21.4750  -29.1690   22.1530 N   0  0  0  0  0  0  0  0  0  0  0  0
  -23.5090  -28.6990   23.0210 O   0  0  0  0  0  0  0  0  0  0  0  0
  -20.9610  -29.7750   21.5300 H   0  0  0  0  0  0  0  0  0  0  0  0
  -18.1350  -27.8890   22.6570 C   0  0  0  0  0  0  0  0  0  0  0  0
  -20.6980  -28.1420   22.8490 C   0  0  0  0  0  3  0  0  0  0  0  0
  -20.7880  -26.7890   22.1080 C   0  0  0  0  0  2  0  0  0  0  0  0
  -19.6440  -26.5780   21.1120 C   0  0  0  0  0  2  0  0  0  0  0  0
  -18.2950  -26.6190   21.8360 C   0  0  0  0  0  2  0  0  0  0  0  0
  -19.2660  -28.6140   23.1180 C   0  0  0  0  0  0  0  0  0  0  0  0
  -19.0660  -29.8080   23.8440 C   0  0  0  0  0  3  0  0  0  0  0  0
  -17.7680  -30.2820   24.1050 C   0  0  0  0  0  3  0  0  0  0  0  0
  -16.6520  -29.5510   23.6640 C   0  0  0  0  0  3  0  0  0  0  0  0
  -16.8370  -28.3550   22.9480 C   0  0  0  0  0  3  0  0  0  0  0  0
  -25.7830  -32.4780   23.8070 C   0  0  0  0  0  3  0  0  0  0  0  0
  -25.4360  -33.8640   24.1440 N   0  0  0  0  0  0  0  0  0  0  0  0
  -25.7730  -34.9340   23.4100 C   0  0  0  0  0  0  0  0  0  0  0  0
  -26.4780  -34.8580   22.4000 O   0  0  0  0  0  0  0  0  0  0  0  0
  -24.8110  -33.9930   24.9260 H   0  0  0  0  0  0  0  0  0  0  0  0
  -24.0180  -36.6940   23.0170 C   0  0  0  0  0  1  0  0  0  0  0  0
  -25.2360  -36.3030   23.8690 C   0  0  0  0  0  3  0  0  0  0  0  0
  -27.3170  -37.2240   24.7930 C   0  0  0  0  0  1  0  0  0  0  0  0
  -26.2490  -37.3780   23.8100 N   0  0  0  0  0  0  0  0  0  0  0  0
  -25.8150  -38.2870   23.9520 H   0  0  0  0  0  0  0  0  0  0  0  0
  -26.2820  -31.6960   25.0830 C   0  0  1  0  0  0  0  0  0  0  0  0
  -25.1630  -31.4110   26.1110 C   0  0  0  0  0  1  0  0  0  0  0  0
  -26.9100  -30.3400   24.6820 C   0  0  0  0  0  1  0  0  0  0  0  0
  -27.3870  -32.5070   25.7990 C   0  0  0  0  0  1  0  0  0  0  0  0
  2  1  1  0
  3  4  1  0
  4  1  2  0
  5  2  2  0
  6  3  2  0
  6  5  1  0
  7  6  1  0
  8  4  1  0
  8  9  1  0
  9 10  1  0
 10 19  1  0
 11 19  1  0
 12 17  1  0
 13 14  1  0
 13 12  1  0
 15 14  1  0
 15 24  1  0
 15 16  1  0
 17 11  1  0
 17 16  1  0
 18 11  2  0
 19 20  1  0
 21 22  2  0
 22 41  1  0
 23 22  1  0
 23 26  1  0
 24 25  1  0
 24 21  1  0
 25 23  2  0
 26 27  1  0
 27 28  2  0
 29 32  1  0
 29 28  1  0
 30 29  2  0
 31 30  1  0
 31 26  2  0
 32 33  1  0
 33 34  1  0
 34 35  2  0
 36 35  1  0
 36 40  1  0
 37 36  2  0
 38 33  2  0
 38 37  1  0
 39 38  1  0
 41 42  1  0
 42 45  1  0
 42 44  1  0
 43 41  2  0
 46 47  1  0
 46 21  1  0
 48 46  1  0
 49  5  1  0
 49 51  1  0
 51 50  1  0
 52 51  1  0
 53 55  1  0
 53 52  1  0
 54 65  2  0
 55 60  1  0
 56 64  1  0
 56 66  1  0
 57 63  1  0
 57 59  1  0
 58 64  1  0
 59 58  1  0
 60 59  2  0
 61 62  1  0
 61 55  2  0
 62 57  2  0
 63 56  1  0
 64 54  1  0
 66 68  2  0
 67 66  1  0
 69 67  1  0
 70 79  2  0
 70 75  1  0
 71 67  1  0
 71 75  1  0
 72 71  1  0
 73 74  1  0
 73 72  1  0
 74 70  1  0
 75 76  2  0
 76 77  1  0
 78 77  2  0
 79 78  1  0
 80 54  1  0
 80 81  1  0
 80 90  1  0
 81 84  1  0
 82 86  1  0
 82 81  1  0
 83 82  2  0
 86 85  1  0
 88 86  1  0
 88 89  1  0
 88 87  1  0
 90 93  1  1
 90 91  1  0
 92 90  1  0
M  ISO  4  11 100  19 100  52 101  53 101
M  END
>  <TORSDO>  (9) 
F 22

>  <SCORE>  (9) 
-12.436

>  <name>  (9) 
8

>  <ligand_id>  (9) 
8

>  <original_smiles>  (9) 
[H]c1c([H])c([H])c2c(c1[H])C([H])([H])C([H])([H])C([H])([H])C2([H])N([H])C(=O)C1([H])N(C(=O)C([H])(N([H])C(=O)C([H])(N([H])C([H])([H])[H])C([H])([H])[H])C(C([H])([H])[H])(C([H])([H])[H])C([H])([H])[H])C([H])([H])c2c([H])c(OC([H])([H])C([H])(C([H])([H])[H])C([H])([H])c3c([H])c([H])c(C([H])([H])C([H])([H])C([H])([H])N([H])C(=O)N4C([H])([H])C([H])([H])C([H])([H])C([H])(n5nc(-c6c([H])c([H])c(Oc7c([H])c([H])c(F)c([H])c7F)c([H])c6[H])c(C(=O)N([H])[H])c5N([H])[H])C4([H])[H])c([H])c3F)c([H])c([H])c2C1([H])[H]

>  <smiles>  (9) 
[H]c1c([H])c([H])c2c(c1[H])C([H])([H])C([H])([H])C([H])([H])C2([H])N([H])C(=O)C1([H])N(C(=O)C([H])(N([H])C(=O)C([H])(N([H])C([H])([H])[H])C([H])([H])[H])C(C([H])([H])[H])(C([H])([H])[H])C([H])([H])[H])C([H])([H])c2c([H])c(OC([H])([H])C([H])(C([H])([H])[H])C([H])([H])c3c([H])c([H])c(C([H])([H])C([H])([H])C([H])([H])N([H])C(=O)N4C([H])([H])C([H])([H])C([H])([H])C([H])(n5nc(-c6c([H])c([H])c(Oc7c([H])c([H])c(F)c([H])c7F)c([H])c6[H])c(C(=O)N([H])[H])c5N([H])[H])C4([H])[H])c([H])c3F)c([H])c([H])c2C1([H])[H]

$$$$
9:0:0
     RDKit          3D

 94102  0  0  1  0  0  0  0  0999 V2000
  -31.1980  -21.4410   21.2310 C   0  0  0  0  0  0  0  0  0  0  0  0
  -31.0180  -22.7040   20.8200 N   0  0  0  0  0  0  0  0  0  0  0  0
  -30.2570  -20.6460   21.2980 O   0  0  0  0  0  0  0  0  0  0  0  0
  -31.8230  -23.3230   20.7920 H   0  0  0  0  0  0  0  0  0  0  0  0
  -32.6240  -20.9840   21.5740 C   0  0  0  0  0  2  0  0  0  0  0  0
  -32.7950  -19.4960   22.0120 C   0  0  0  0  0  2  0  0  0  0  0  0
  -31.5910  -14.2880   19.8780 C   0  0  0  0  0  0  0  0  0  0  0  0
  -31.1450  -12.0990   18.7980 C   0  0  0  0  0  2  0  0  0  0  0  0
  -30.1800  -12.3010   17.6090 C   0  0  0  0  0  2  0  0  0  0  0  0
  -28.7050  -12.2720   18.0660 C   0  0  0  0  0  2  0  0  0  0  0  0
  -28.4620  -13.1580   19.3200 C   0  0  0  0  0  3  0  0  0  0  0  0
  -29.5270  -12.8390   20.3910 C   0  0  0  0  0  2  0  0  0  0  0  0
  -30.8400  -13.1420   19.8020 N   0  0  0  0  0  0  0  0  0  0  0  0
  -32.7030  -14.3330   19.3360 O   0  0  0  0  0  0  0  0  0  0  0  0
  -29.7490  -17.1130   21.8440 C   0  0  0  0  0  2  0  0  0  0  0  0
  -30.0410  -15.6660   21.3750 C   0  0  0  0  0  2  0  0  0  0  0  0
  -31.4640  -16.7350   19.6440 C   0  0  0  0  0  2  0  0  0  0  0  0
  -30.9310  -17.9180   22.4220 C   0  0  0  0  0  2  0  0  0  0  0  0
  -32.4830  -17.5220   20.5080 C   0  0  0  0  0  2  0  0  0  0  0  0
  -31.0020  -15.4730   20.2640 N   0  0  0  0  0  0  0  0  0  0  0  0
  -31.8370  -18.5160   21.4040 N   0  0  2  0  0  4  0  0  0  0  0  0
  -31.2560  -19.1090   20.8130 H   0  0  0  0  0  0  0  0  0  0  0  0
  -26.1470  -13.9770   20.0950 C   0  0  0  0  0  0  0  0  0  0  0  0
  -25.0350  -13.3050   20.5200 C   0  0  0  0  0  0  0  0  0  0  0  0
  -25.3810  -11.9180   20.4940 C   0  0  0  0  0  0  0  0  0  0  0  0
  -27.1070  -13.0070   19.8430 N   0  0  0  0  0  0  0  0  0  0  0  0
  -26.6480  -11.7630   20.1340 N   0  0  0  0  0  0  0  0  0  0  0  0
  -24.5650  -10.7230   20.7350 C   0  0  0  0  0  0  0  0  0  0  0  0
  -24.9020   -9.7840   21.7340 C   0  0  0  0  0  3  0  0  0  0  0  0
  -24.0910   -8.6510   21.9550 C   0  0  0  0  0  3  0  0  0  0  0  0
  -22.9260   -8.4480   21.1770 C   0  0  0  0  0  0  0  0  0  0  0  0
  -22.6070   -9.3740   20.1670 C   0  0  0  0  0  3  0  0  0  0  0  0
  -23.4190  -10.4990   19.9450 C   0  0  0  0  0  3  0  0  0  0  0  0
  -22.0940   -7.3620   21.3030 O   0  0  0  0  0  0  0  0  0  0  0  0
  -21.8570   -6.7750   22.5210 C   0  0  0  0  0  0  0  0  0  0  0  0
  -21.3290   -7.5030   23.6110 C   0  0  0  0  0  3  0  0  0  0  0  0
  -21.0370   -6.8430   24.8210 C   0  0  0  0  0  3  0  0  0  0  0  0
  -21.2600   -5.4590   24.9410 C   0  0  0  0  0  0  0  0  0  0  0  0
  -21.7810   -4.7320   23.8560 C   0  0  0  0  0  3  0  0  0  0  0  0
  -22.0760   -5.3890   22.6480 C   0  0  0  0  0  0  0  0  0  0  0  0
  -22.5570   -4.6790   21.5990 F   0  0  0  0  0  0  0  0  0  0  0  0
  -20.9740   -4.8240   26.1010 F   0  0  0  0  0  0  0  0  0  0  0  0
  -23.6930  -13.8970   20.8390 C   0  0  0  0  0  0  0  0  0  0  0  0
  -22.9580  -13.2940   21.7650 N   0  0  0  0  0  0  0  0  0  0  0  0
  -23.3060  -14.9320   20.2980 O   0  0  0  0  0  0  0  0  0  0  0  0
  -23.2810  -12.4580   22.2300 H   0  0  0  0  0  0  0  0  0  0  0  0
  -22.0530  -13.6730   22.0100 H   0  0  0  0  0  0  0  0  0  0  0  0
  -26.4200  -15.3260   19.8830 N   0  0  0  0  0  0  0  0  0  0  0  0
  -25.7100  -16.0420   19.9750 H   0  0  0  0  0  0  0  0  0  0  0  0
  -27.2880  -15.6760   19.5020 H   0  0  0  0  0  0  0  0  0  0  0  0
  -29.7330  -23.2200   20.3360 C   0  0  0  0  0  2  0  0  0  0  0  0
  -29.5810  -24.7360   20.5420 C   0  0  0  0  0  2  0  0  0  0  0  0
  -28.2580  -25.2830   19.9870 C   0  0  0  0  0  2  0  0  0  0  0  0
  -28.2260  -26.6720   20.2880 O   0  0  0  0  0  0  0  0  0  0  0  0
  -24.5620  -31.9610   23.2380 C   0  0  0  0  0  0  0  0  0  0  0  0
  -27.0300  -27.3540   20.2700 C   0  0  0  0  0  0  0  0  0  0  0  0
  -23.2840  -30.5220   21.6830 C   0  0  0  0  0  3  0  0  0  0  0  0
  -24.6660  -28.9010   20.2840 C   0  0  0  0  0  0  0  0  0  0  0  0
  -25.8080  -30.8220   21.4000 C   0  0  0  0  0  2  0  0  0  0  0  0
  -25.8460  -29.4230   20.8250 C   0  0  0  0  0  0  0  0  0  0  0  0
  -27.0290  -28.6550   20.8150 C   0  0  0  0  0  3  0  0  0  0  0  0
  -25.8300  -26.8340   19.7280 C   0  0  0  0  0  3  0  0  0  0  0  0
  -24.6520  -27.6050   19.7360 C   0  0  0  0  0  3  0  0  0  0  0  0
  -23.4410  -29.7820   20.3270 C   0  0  0  0  0  2  0  0  0  0  0  0
  -24.5740  -31.1190   22.1650 N   0  0  0  0  0  0  0  0  0  0  0  0
  -23.4990  -32.2820   23.7880 O   0  0  0  0  0  0  0  0  0  0  0  0
  -22.6340  -29.5540   22.6970 C   0  0  0  0  0  0  0  0  0  0  0  0
  -21.3220  -29.3130   22.5360 N   0  0  0  0  0  0  0  0  0  0  0  0
  -23.3060  -29.0200   23.5830 O   0  0  0  0  0  0  0  0  0  0  0  0
  -20.8440  -29.8040   21.7930 H   0  0  0  0  0  0  0  0  0  0  0  0
  -17.9900  -27.9670   22.9060 C   0  0  0  0  0  0  0  0  0  0  0  0
  -20.4990  -28.4070   23.3400 C   0  0  0  0  0  3  0  0  0  0  0  0
  -20.7260  -26.9330   22.9290 C   0  0  0  0  0  2  0  0  0  0  0  0
  -19.7280  -26.4420   21.8770 C   0  0  0  0  0  2  0  0  0  0  0  0
  -18.2930  -26.5670   22.3980 C   0  0  0  0  0  2  0  0  0  0  0  0
  -19.0290  -28.8360   23.3320 C   0  0  0  0  0  0  0  0  0  0  0  0
  -18.6930  -30.1390   23.7560 C   0  0  0  0  0  3  0  0  0  0  0  0
  -17.3530  -30.5710   23.7690 C   0  0  0  0  0  3  0  0  0  0  0  0
  -16.3280  -29.6960   23.3690 C   0  0  0  0  0  3  0  0  0  0  0  0
  -16.6490  -28.3980   22.9360 C   0  0  0  0  0  3  0  0  0  0  0  0
  -25.8740  -32.5800   23.8090 C   0  0  0  0  0  3  0  0  0  0  0  0
  -25.5990  -33.9850   24.1310 N   0  0  0  0  0  0  0  0  0  0  0  0
  -25.9190  -35.0210   23.3440 C   0  0  0  0  0  0  0  0  0  0  0  0
  -26.5490  -34.8920   22.2910 O   0  0  0  0  0  0  0  0  0  0  0  0
  -25.0300  -34.1590   24.9470 H   0  0  0  0  0  0  0  0  0  0  0  0
  -24.1970  -36.8270   23.0350 C   0  0  0  0  0  1  0  0  0  0  0  0
  -25.4680  -36.4230   23.7980 C   0  0  0  0  0  3  0  0  0  0  0  0
  -27.6450  -37.2960   24.5220 C   0  0  0  0  0  1  0  0  0  0  0  0
  -26.5070  -37.4600   23.6220 N   0  0  0  0  0  0  0  0  0  0  0  0
  -26.1190  -38.3890   23.7690 H   0  0  0  0  0  0  0  0  0  0  0  0
  -26.4270  -31.8120   25.0710 C   0  0  1  0  0  0  0  0  0  0  0  0
  -25.3590  -31.5520   26.1610 C   0  0  0  0  0  1  0  0  0  0  0  0
  -27.0180  -30.4460   24.6470 C   0  0  0  0  0  1  0  0  0  0  0  0
  -27.5810  -32.6200   25.7130 C   0  0  0  0  0  1  0  0  0  0  0  0
  1  3  2  0
  1  5  1  0
  2  1  1  0
  4  2  1  0
  5  6  1  0
  7 20  1  0
  8 13  1  0
  9 10  1  0
  9  8  1  0
 11 10  1  0
 11 26  1  0
 11 12  1  0
 13  7  1  0
 13 12  1  0
 14  7  2  0
 15 18  1  0
 16 15  1  0
 17 20  1  0
 17 19  1  0
 19 21  1  0
 20 16  1  0
 21  6  1  0
 21 18  1  0
 21 22  1  6
 23 24  2  0
 24 43  1  0
 25 24  1  0
 25 28  1  0
 26 23  1  0
 26 27  1  0
 27 25  2  0
 28 29  1  0
 29 30  2  0
 31 34  1  0
 31 30  1  0
 32 31  2  0
 33 32  1  0
 33 28  2  0
 34 35  1  0
 35 40  2  0
 35 36  1  0
 36 37  2  0
 37 38  1  0
 38 42  1  0
 39 38  2  0
 40 39  1  0
 41 40  1  0
 43 44  1  0
 44 47  1  0
 44 46  1  0
 45 43  2  0
 48 49  1  0
 48 23  1  0
 50 48  1  0
 51 52  1  0
 51  2  1  0
 53 54  1  0
 53 52  1  0
 55 66  2  0
 56 54  1  0
 56 61  1  0
 57 65  1  0
 57 67  1  0
 58 64  1  0
 58 60  1  0
 59 65  1  0
 60 59  1  0
 61 60  2  0
 62 63  1  0
 62 56  2  0
 63 58  2  0
 64 57  1  0
 65 55  1  0
 67 69  2  0
 68 67  1  0
 70 68  1  0
 71 80  2  0
 71 76  1  0
 72 68  1  0
 73 72  1  0
 74 75  1  0
 74 73  1  0
 75 71  1  0
 76 72  1  0
 76 77  2  0
 77 78  1  0
 79 78  2  0
 80 79  1  0
 81 55  1  0
 81 82  1  0
 81 91  1  0
 82 85  1  0
 83 87  1  0
 83 82  1  0
 84 83  2  0
 87 86  1  0
 89 90  1  0
 89 87  1  0
 89 88  1  0
 91 94  1  1
 91 92  1  0
 93 91  1  0
M  ISO  4   7 100  20 100  53 101  54 101
M  END
>  <TORSDO>  (10) 
F 21

>  <SCORE>  (10) 
-12.159

>  <name>  (10) 
9

>  <ligand_id>  (10) 
9

>  <original_smiles>  (10) 
[H]c1c([H])c([H])c2c(c1[H])C([H])([H])C([H])([H])C([H])([H])C2([H])N([H])C(=O)C1([H])N(C(=O)C([H])(N([H])C(=O)C([H])(N([H])C([H])([H])[H])C([H])([H])[H])C(C([H])([H])[H])(C([H])([H])[H])C([H])([H])[H])C([H])([H])c2c([H])c(OC([H])([H])C([H])([H])C([H])([H])N([H])C(=O)C([H])([H])C([H])([H])[N+]3([H])C([H])([H])C([H])([H])N(C(=O)N4C([H])([H])C([H])([H])C([H])([H])C([H])(n5nc(-c6c([H])c([H])c(Oc7c([H])c([H])c(F)c([H])c7F)c([H])c6[H])c(C(=O)N([H])[H])c5N([H])[H])C4([H])[H])C([H])([H])C([H])([H])C3([H])[H])c([H])c([H])c2C1([H])[H]

>  <smiles>  (10) 
[H]c1c([H])c([H])c2c(c1[H])C([H])([H])C([H])([H])C([H])([H])C2([H])N([H])C(=O)C1([H])N(C(=O)C([H])(N([H])C(=O)C([H])(N([H])C([H])([H])[H])C([H])([H])[H])C(C([H])([H])[H])(C([H])([H])[H])C([H])([H])[H])C([H])([H])c2c([H])c(OC([H])([H])C([H])([H])C([H])([H])N([H])C(=O)C([H])([H])C([H])([H])[N+]3([H])C([H])([H])C([H])([H])N(C(=O)N4C([H])([H])C([H])([H])C([H])([H])C([H])(n5nc(-c6c([H])c([H])c(Oc7c([H])c([H])c(F)c([H])c7F)c([H])c6[H])c(C(=O)N([H])[H])c5N([H])[H])C4([H])[H])C([H])([H])C([H])([H])C3([H])[H])c([H])c([H])c2C1([H])[H]

$$$$
10:0:0
     RDKit          3D

 91 99  0  0  1  0  0  0  0  0999 V2000
  -28.7000  -21.3550   21.9550 C   0  0  0  0  0  2  0  0  0  0  0  0
  -28.9560  -18.9750   21.1640 C   0  0  0  0  0  0  0  0  0  0  0  0
  -29.4500  -20.1860   21.4850 N   0  0  0  0  0  0  0  0  0  0  0  0
  -27.7630  -18.6870   21.2620 O   0  0  0  0  0  0  0  0  0  0  0  0
  -30.4510  -20.3000   21.3970 H   0  0  0  0  0  0  0  0  0  0  0  0
  -30.8780  -14.6070   19.5150 C   0  0  0  0  0  0  0  0  0  0  0  0
  -30.4210  -12.3680   18.6080 C   0  0  0  0  0  2  0  0  0  0  0  0
  -29.3640  -12.4610   17.4910 C   0  0  0  0  0  2  0  0  0  0  0  0
  -27.9530  -12.3180   18.0940 C   0  0  0  0  0  2  0  0  0  0  0  0
  -27.7230  -13.2620   19.3060 C   0  0  0  0  0  3  0  0  0  0  0  0
  -28.8990  -13.2120   20.3040 C   0  0  0  0  0  2  0  0  0  0  0  0
  -30.1380  -13.4640   19.5540 N   0  0  0  0  0  0  0  0  0  0  0  0
  -32.0230  -14.5920   19.0580 O   0  0  0  0  0  0  0  0  0  0  0  0
  -30.3130  -18.2130   19.1880 C   0  0  0  0  0  2  0  0  0  0  0  0
  -30.6820  -16.8620   18.5940 C   0  0  0  0  0  2  0  0  0  0  0  0
  -29.5900  -16.4420   20.6760 C   0  0  0  0  0  2  0  0  0  0  0  0
  -29.9880  -17.9450   20.6550 C   0  0  0  0  0  3  0  0  0  0  0  0
  -30.2120  -15.7980   19.5070 N   0  0  0  0  0  0  0  0  0  0  0  0
  -25.4610  -13.8820   20.3520 C   0  0  0  0  0  0  0  0  0  0  0  0
  -24.4330  -13.1190   20.8320 C   0  0  0  0  0  0  0  0  0  0  0  0
  -24.8530  -11.7590   20.6950 C   0  0  0  0  0  0  0  0  0  0  0  0
  -26.4460  -12.9910   19.9600 N   0  0  0  0  0  0  0  0  0  0  0  0
  -26.0940  -11.7060   20.2280 N   0  0  0  0  0  0  0  0  0  0  0  0
  -24.1240  -10.5050   20.9310 C   0  0  0  0  0  0  0  0  0  0  0  0
  -24.5900   -9.5380   21.8500 C   0  0  0  0  0  3  0  0  0  0  0  0
  -23.8620   -8.3500   22.0750 C   0  0  0  0  0  3  0  0  0  0  0  0
  -22.6500   -8.1180   21.3810 C   0  0  0  0  0  0  0  0  0  0  0  0
  -22.2020   -9.0710   20.4480 C   0  0  0  0  0  3  0  0  0  0  0  0
  -22.9310  -10.2510   20.2220 C   0  0  0  0  0  3  0  0  0  0  0  0
  -21.8890   -6.9820   21.5130 O   0  0  0  0  0  0  0  0  0  0  0  0
  -21.7980   -6.3120   22.7070 C   0  0  0  0  0  0  0  0  0  0  0  0
  -21.3410   -6.9470   23.8810 C   0  0  0  0  0  3  0  0  0  0  0  0
  -21.1970   -6.2050   25.0710 C   0  0  0  0  0  3  0  0  0  0  0  0
  -21.5010   -4.8300   25.0850 C   0  0  0  0  0  0  0  0  0  0  0  0
  -21.9500   -4.1950   23.9140 C   0  0  0  0  0  3  0  0  0  0  0  0
  -22.0950   -4.9360   22.7270 C   0  0  0  0  0  0  0  0  0  0  0  0
  -22.5090   -4.3160   21.5960 F   0  0  0  0  0  0  0  0  0  0  0  0
  -21.3550   -4.1140   26.2260 F   0  0  0  0  0  0  0  0  0  0  0  0
  -23.0950  -13.6110   21.3040 C   0  0  0  0  0  0  0  0  0  0  0  0
  -22.4790  -12.9040   22.2470 N   0  0  0  0  0  0  0  0  0  0  0  0
  -22.6100  -14.6530   20.8660 O   0  0  0  0  0  0  0  0  0  0  0  0
  -22.8820  -12.0520   22.6080 H   0  0  0  0  0  0  0  0  0  0  0  0
  -21.5890  -13.2150   22.6080 H   0  0  0  0  0  0  0  0  0  0  0  0
  -25.6350  -15.2530   20.1900 N   0  0  0  0  0  0  0  0  0  0  0  0
  -24.9080  -15.9300   20.3910 H   0  0  0  0  0  0  0  0  0  0  0  0
  -26.4580  -15.6740   19.7740 H   0  0  0  0  0  0  0  0  0  0  0  0
  -28.5480  -22.4530   20.8760 C   0  0  0  0  0  2  0  0  0  0  0  0
  -29.8150  -23.2880   20.5560 C   0  0  0  0  0  2  0  0  0  0  0  0
  -29.6820  -24.8320   20.6450 C   0  0  0  0  0  2  0  0  0  0  0  0
  -28.5730  -25.4690   19.7800 C   0  0  0  0  0  2  0  0  0  0  0  0
  -28.5880  -26.9060   19.8860 O   0  0  0  0  0  0  0  0  0  0  0  0
  -24.3770  -31.5960   23.1750 C   0  0  0  0  0  0  0  0  0  0  0  0
  -27.3650  -27.5480   19.8740 C   0  0  0  0  0  0  0  0  0  0  0  0
  -23.2850  -30.1850   21.4630 C   0  0  0  0  0  3  0  0  0  0  0  0
  -24.8530  -28.8600   19.9540 C   0  0  0  0  0  0  0  0  0  0  0  0
  -25.7710  -30.7650   21.2820 C   0  0  0  0  0  2  0  0  0  0  0  0
  -25.9680  -29.4450   20.5630 C   0  0  0  0  0  0  0  0  0  0  0  0
  -27.2290  -28.8020   20.5130 C   0  0  0  0  0  3  0  0  0  0  0  0
  -26.2290  -26.9870   19.2450 C   0  0  0  0  0  3  0  0  0  0  0  0
  -24.9790  -27.6290   19.2880 C   0  0  0  0  0  3  0  0  0  0  0  0
  -23.5420  -29.6070   20.0490 C   0  0  0  0  0  2  0  0  0  0  0  0
  -24.4950  -30.8610   22.0330 N   0  0  0  0  0  0  0  0  0  0  0  0
  -23.2820  -31.7430   23.7310 O   0  0  0  0  0  0  0  0  0  0  0  0
  -22.7330  -29.0620   22.3700 C   0  0  0  0  0  0  0  0  0  0  0  0
  -21.4380  -28.7460   22.2090 N   0  0  0  0  0  0  0  0  0  0  0  0
  -23.4660  -28.4810   23.1740 O   0  0  0  0  0  0  0  0  0  0  0  0
  -20.8980  -29.2780   21.5390 H   0  0  0  0  0  0  0  0  0  0  0  0
  -18.2020  -27.1770   22.5700 C   0  0  0  0  0  0  0  0  0  0  0  0
  -20.7110  -27.6970   22.9230 C   0  0  0  0  0  3  0  0  0  0  0  0
  -20.9810  -26.3100   22.2920 C   0  0  0  0  0  2  0  0  0  0  0  0
  -19.9410  -25.9160   21.2380 C   0  0  0  0  0  2  0  0  0  0  0  0
  -18.5390  -25.8830   21.8500 C   0  0  0  0  0  2  0  0  0  0  0  0
  -19.2230  -28.0350   23.0600 C   0  0  0  0  0  0  0  0  0  0  0  0
  -18.8540  -29.2460   23.6860 C   0  0  0  0  0  3  0  0  0  0  0  0
  -17.5000  -29.6030   23.8250 C   0  0  0  0  0  3  0  0  0  0  0  0
  -16.4960  -28.7410   23.3500 C   0  0  0  0  0  3  0  0  0  0  0  0
  -16.8460  -27.5250   22.7320 C   0  0  0  0  0  3  0  0  0  0  0  0
  -25.6090  -32.2980   23.8250 C   0  0  0  0  0  3  0  0  0  0  0  0
  -25.2080  -33.6730   24.1490 N   0  0  0  0  0  0  0  0  0  0  0  0
  -25.4860  -34.7430   23.3960 C   0  0  0  0  0  0  0  0  0  0  0  0
  -26.1730  -34.6820   22.3720 O   0  0  0  0  0  0  0  0  0  0  0  0
  -24.5870  -33.7880   24.9360 H   0  0  0  0  0  0  0  0  0  0  0  0
  -23.6420  -36.4140   23.0250 C   0  0  0  0  0  1  0  0  0  0  0  0
  -24.9040  -36.0970   23.8420 C   0  0  0  0  0  3  0  0  0  0  0  0
  -26.9690  -37.1280   24.6790 C   0  0  0  0  0  1  0  0  0  0  0  0
  -25.8640  -37.2160   23.7290 N   0  0  0  0  0  0  0  0  0  0  0  0
  -25.3970  -38.1100   23.8610 H   0  0  0  0  0  0  0  0  0  0  0  0
  -26.1440  -31.5530   25.1090 C   0  0  1  0  0  0  0  0  0  0  0  0
  -25.0390  -31.2340   26.1450 C   0  0  0  0  0  1  0  0  0  0  0  0
  -26.8310  -30.2220   24.7230 C   0  0  0  0  0  1  0  0  0  0  0  0
  -27.2220  -32.4180   25.8040 C   0  0  0  0  0  1  0  0  0  0  0  0
  2  4  2  0
  2  3  1  0
  3  1  1  0
  5  3  1  0
  6 12  1  0
  7 12  1  0
  8  9  1  0
  8  7  1  0
 10  9  1  0
 10 22  1  0
 10 11  1  0
 12 11  1  0
 13  6  2  0
 14 17  1  0
 15 14  1  0
 15 18  1  0
 17 16  1  0
 17  2  1  0
 18  6  1  0
 18 16  1  0
 19 20  2  0
 20 39  1  0
 21 20  1  0
 21 24  1  0
 22 23  1  0
 22 19  1  0
 23 21  2  0
 24 25  1  0
 25 26  2  0
 27 30  1  0
 27 26  1  0
 28 27  2  0
 29 28  1  0
 29 24  2  0
 30 31  1  0
 31 36  2  0
 31 32  1  0
 32 33  2  0
 33 34  1  0
 34 38  1  0
 35 34  2  0
 36 35  1  0
 37 36  1  0
 39 40  1  0
 40 42  1  0
 40 43  1  0
 41 39  2  0
 44 19  1  0
 44 45  1  0
 46 44  1  0
 47  1  1  0
 48 49  1  0
 48 47  1  0
 50 51  1  0
 50 49  1  0
 52 63  2  0
 53 51  1  0
 53 58  1  0
 54 62  1  0
 54 64  1  0
 55 61  1  0
 55 57  1  0
 56 62  1  0
 57 56  1  0
 58 57  2  0
 59 60  1  0
 59 53  2  0
 60 55  2  0
 61 54  1  0
 62 52  1  0
 64 66  2  0
 65 64  1  0
 67 65  1  0
 68 77  2  0
 68 73  1  0
 69 65  1  0
 69 73  1  0
 70 69  1  0
 71 72  1  0
 71 70  1  0
 72 68  1  0
 73 74  2  0
 74 75  1  0
 76 75  2  0
 77 76  1  0
 78 52  1  0
 78 79  1  0
 78 88  1  0
 79 82  1  0
 80 84  1  0
 80 79  1  0
 81 80  2  0
 84 83  1  0
 86 84  1  0
 86 87  1  0
 86 85  1  0
 88 91  1  1
 88 89  1  0
 90 88  1  0
M  ISO  4   6 100  18 100  50 101  51 101
M  END
>  <TORSDO>  (11) 
F 21

>  <SCORE>  (11) 
-11.093

>  <name>  (11) 
10

>  <ligand_id>  (11) 
10

>  <original_smiles>  (11) 
[H]c1c([H])c([H])c2c(c1[H])C([H])([H])C([H])([H])C([H])([H])C2([H])N([H])C(=O)C1([H])N(C(=O)C([H])(N([H])C(=O)C([H])(N([H])C([H])([H])[H])C([H])([H])[H])C(C([H])([H])[H])(C([H])([H])[H])C([H])([H])[H])C([H])([H])c2c([H])c(OC([H])([H])C([H])([H])C([H])([H])C([H])([H])C([H])([H])N([H])C(=O)C3([H])C([H])([H])N(C(=O)N4C([H])([H])C([H])([H])C([H])([H])C([H])(n5nc(-c6c([H])c([H])c(Oc7c([H])c([H])c(F)c([H])c7F)c([H])c6[H])c(C(=O)N([H])[H])c5N([H])[H])C4([H])[H])C([H])([H])C3([H])[H])c([H])c([H])c2C1([H])[H]

>  <smiles>  (11) 
[H]c1c([H])c([H])c2c(c1[H])C([H])([H])C([H])([H])C([H])([H])C2([H])N([H])C(=O)C1([H])N(C(=O)C([H])(N([H])C(=O)C([H])(N([H])C([H])([H])[H])C([H])([H])[H])C(C([H])([H])[H])(C([H])([H])[H])C([H])([H])[H])C([H])([H])c2c([H])c(OC([H])([H])C([H])([H])C([H])([H])C([H])([H])C([H])([H])N([H])C(=O)C3([H])C([H])([H])N(C(=O)N4C([H])([H])C([H])([H])C([H])([H])C([H])(n5nc(-c6c([H])c([H])c(Oc7c([H])c([H])c(F)c([H])c7F)c([H])c6[H])c(C(=O)N([H])[H])c5N([H])[H])C4([H])[H])C([H])([H])C3([H])[H])c([H])c([H])c2C1([H])[H]

$$$$
11:0:0
     RDKit          3D

 91 99  0  0  1  0  0  0  0  0999 V2000
  -30.4970  -21.2050   20.2500 C   0  0  0  0  0  2  0  0  0  0  0  0
  -30.9590  -19.1800   21.6220 C   0  0  0  0  0  0  0  0  0  0  0  0
  -30.9790  -17.6390   21.7760 C   0  0  0  0  0  2  0  0  0  0  0  0
  -29.9270  -17.4580   19.5110 C   0  0  0  0  0  2  0  0  0  0  0  0
  -29.6460  -18.9770   19.5040 C   0  0  0  0  0  2  0  0  0  0  0  0
  -29.8940  -16.9270   20.9500 C   0  0  0  0  0  3  0  0  0  0  0  0
  -30.3850  -19.7500   20.5250 N   0  0  0  0  0  0  0  0  0  0  0  0
  -31.5120  -19.8540   22.4960 O   0  0  0  0  0  0  0  0  0  0  0  0
  -30.6330  -14.4950   20.5010 C   0  0  0  0  0  0  0  0  0  0  0  0
  -30.3800  -12.3430   19.3150 C   0  0  0  0  0  2  0  0  0  0  0  0
  -29.4290  -12.5640   18.1180 C   0  0  0  0  0  2  0  0  0  0  0  0
  -27.9530  -12.4210   18.5460 C   0  0  0  0  0  2  0  0  0  0  0  0
  -27.6210  -13.2340   19.8260 C   0  0  0  0  0  3  0  0  0  0  0  0
  -28.6750  -12.9670   20.9240 C   0  0  0  0  0  2  0  0  0  0  0  0
  -30.0030  -13.2950   20.3700 N   0  0  0  0  0  0  0  0  0  0  0  0
  -31.7370  -14.7380   20.0060 O   0  0  0  0  0  0  0  0  0  0  0  0
  -29.8620  -15.4520   21.0560 N   0  0  0  0  0  0  0  0  0  0  0  0
  -29.0110  -15.0840   21.4560 H   0  0  0  0  0  0  0  0  0  0  0  0
  -25.2170  -13.8500   20.5210 C   0  0  0  0  0  0  0  0  0  0  0  0
  -24.1480  -13.0790   20.8900 C   0  0  0  0  0  0  0  0  0  0  0  0
  -24.6080  -11.7270   20.8640 C   0  0  0  0  0  0  0  0  0  0  0  0
  -26.2640  -12.9660   20.2970 N   0  0  0  0  0  0  0  0  0  0  0  0
  -25.8980  -11.6850   20.5580 N   0  0  0  0  0  0  0  0  0  0  0  0
  -23.8810  -10.4650   21.0580 C   0  0  0  0  0  0  0  0  0  0  0  0
  -24.3200   -9.4950   21.9850 C   0  0  0  0  0  3  0  0  0  0  0  0
  -23.5950   -8.2980   22.1650 C   0  0  0  0  0  3  0  0  0  0  0  0
  -22.4170   -8.0630   21.4190 C   0  0  0  0  0  0  0  0  0  0  0  0
  -21.9960   -9.0220   20.4810 C   0  0  0  0  0  3  0  0  0  0  0  0
  -22.7220  -10.2110   20.2980 C   0  0  0  0  0  3  0  0  0  0  0  0
  -21.6630   -6.9170   21.5090 O   0  0  0  0  0  0  0  0  0  0  0  0
  -21.6320   -6.1640   22.6550 C   0  0  0  0  0  0  0  0  0  0  0  0
  -21.2370   -6.7110   23.8950 C   0  0  0  0  0  3  0  0  0  0  0  0
  -21.1530   -5.8850   25.0330 C   0  0  0  0  0  3  0  0  0  0  0  0
  -21.4520   -4.5130   24.9340 C   0  0  0  0  0  0  0  0  0  0  0  0
  -21.8410   -3.9660   23.6980 C   0  0  0  0  0  3  0  0  0  0  0  0
  -21.9270   -4.7890   22.5610 C   0  0  0  0  0  0  0  0  0  0  0  0
  -22.2810   -4.2530   21.3690 F   0  0  0  0  0  0  0  0  0  0  0  0
  -21.3640   -3.7180   26.0250 F   0  0  0  0  0  0  0  0  0  0  0  0
  -22.7500  -13.5580   21.1600 C   0  0  0  0  0  0  0  0  0  0  0  0
  -22.0200  -12.8630   22.0260 N   0  0  0  0  0  0  0  0  0  0  0  0
  -22.3130  -14.5820   20.6390 O   0  0  0  0  0  0  0  0  0  0  0  0
  -22.3870  -12.0340   22.4710 H   0  0  0  0  0  0  0  0  0  0  0  0
  -21.0820  -13.1660   22.2500 H   0  0  0  0  0  0  0  0  0  0  0  0
  -25.3830  -15.2190   20.3400 N   0  0  0  0  0  0  0  0  0  0  0  0
  -24.6160  -15.8740   20.4420 H   0  0  0  0  0  0  0  0  0  0  0  0
  -26.2340  -15.6560   20.0060 H   0  0  0  0  0  0  0  0  0  0  0  0
  -29.3970  -22.0780   20.9140 C   0  0  0  0  0  2  0  0  0  0  0  0
  -29.5760  -23.6050   20.6700 C   0  0  0  0  0  2  0  0  0  0  0  0
  -28.4890  -24.4900   21.3390 C   0  0  0  0  0  2  0  0  0  0  0  0
  -28.7670  -26.0190   21.3580 C   0  0  0  0  0  2  0  0  0  0  0  0
  -28.4200  -26.6890   20.1400 O   0  0  0  0  0  0  0  0  0  0  0  0
  -24.6120  -31.8930   23.2400 C   0  0  0  0  0  0  0  0  0  0  0  0
  -27.2660  -27.4400   20.1850 C   0  0  0  0  0  0  0  0  0  0  0  0
  -23.4070  -30.4800   21.6040 C   0  0  0  0  0  3  0  0  0  0  0  0
  -24.8650  -28.9350   20.1890 C   0  0  0  0  0  0  0  0  0  0  0  0
  -25.9310  -30.8430   21.4050 C   0  0  0  0  0  2  0  0  0  0  0  0
  -26.0200  -29.4660   20.7780 C   0  0  0  0  0  0  0  0  0  0  0  0
  -27.2250  -28.7230   20.7810 C   0  0  0  0  0  3  0  0  0  0  0  0
  -26.1000  -26.9240   19.5870 C   0  0  0  0  0  3  0  0  0  0  0  0
  -24.8990  -27.6610   19.5930 C   0  0  0  0  0  3  0  0  0  0  0  0
  -23.6190  -29.7900   20.2290 C   0  0  0  0  0  2  0  0  0  0  0  0
  -24.6680  -31.0870   22.1410 N   0  0  0  0  0  0  0  0  0  0  0  0
  -23.5310  -32.1650   23.7800 O   0  0  0  0  0  0  0  0  0  0  0  0
  -22.7580  -29.4640   22.5710 C   0  0  0  0  0  0  0  0  0  0  0  0
  -21.4330  -29.2770   22.4440 N   0  0  0  0  0  0  0  0  0  0  0  0
  -23.4410  -28.8460   23.3920 O   0  0  0  0  0  0  0  0  0  0  0  0
  -20.9420  -29.8270   21.7530 H   0  0  0  0  0  0  0  0  0  0  0  0
  -18.0650  -28.0640   22.9330 C   0  0  0  0  0  0  0  0  0  0  0  0
  -20.6190  -28.3410   23.2180 C   0  0  0  0  0  3  0  0  0  0  0  0
  -20.7350  -26.9060   22.6570 C   0  0  0  0  0  2  0  0  0  0  0  0
  -19.6420  -26.5650   21.6390 C   0  0  0  0  0  2  0  0  0  0  0  0
  -18.2550  -26.7090   22.2730 C   0  0  0  0  0  2  0  0  0  0  0  0
  -19.1760  -28.8370   23.3630 C   0  0  0  0  0  0  0  0  0  0  0  0
  -18.9460  -30.1050   23.9390 C   0  0  0  0  0  3  0  0  0  0  0  0
  -17.6370  -30.6010   24.0890 C   0  0  0  0  0  3  0  0  0  0  0  0
  -16.5410  -29.8250   23.6760 C   0  0  0  0  0  3  0  0  0  0  0  0
  -16.7550  -28.5580   23.1040 C   0  0  0  0  0  3  0  0  0  0  0  0
  -25.8980  -32.5280   23.8550 C   0  0  0  0  0  3  0  0  0  0  0  0
  -25.5860  -33.9250   24.1880 N   0  0  0  0  0  0  0  0  0  0  0  0
  -25.9130  -34.9790   23.4270 C   0  0  0  0  0  0  0  0  0  0  0  0
  -26.5810  -34.8780   22.3950 O   0  0  0  0  0  0  0  0  0  0  0  0
  -24.9930  -34.0760   24.9900 H   0  0  0  0  0  0  0  0  0  0  0  0
  -24.1790  -36.7650   23.0760 C   0  0  0  0  0  1  0  0  0  0  0  0
  -25.4210  -36.3640   23.8870 C   0  0  0  0  0  3  0  0  0  0  0  0
  -27.5560  -37.2530   24.7130 C   0  0  0  0  0  1  0  0  0  0  0  0
  -26.4500  -37.4210   23.7740 N   0  0  0  0  0  0  0  0  0  0  0  0
  -26.0420  -38.3390   23.9260 H   0  0  0  0  0  0  0  0  0  0  0  0
  -26.4280  -31.7560   25.1250 C   0  0  1  0  0  0  0  0  0  0  0  0
  -25.3430  -31.5090   26.1990 C   0  0  0  0  0  1  0  0  0  0  0  0
  -27.0150  -30.3830   24.7230 C   0  0  0  0  0  1  0  0  0  0  0  0
  -27.5790  -32.5550   25.7820 C   0  0  0  0  0  1  0  0  0  0  0  0
  1  7  1  0
  1 47  1  0
  2  3  1  0
  2  8  2  0
  4  6  1  0
  5  4  1  0
  5  7  1  0
  6 17  1  0
  6  3  1  0
  7  2  1  0
  9 17  1  0
 10 15  1  0
 11 12  1  0
 11 10  1  0
 13 12  1  0
 13 22  1  0
 13 14  1  0
 15  9  1  0
 15 14  1  0
 16  9  2  0
 17 18  1  0
 19 20  2  0
 20 39  1  0
 21 20  1  0
 21 24  1  0
 22 19  1  0
 22 23  1  0
 23 21  2  0
 24 25  1  0
 25 26  2  0
 27 30  1  0
 27 26  1  0
 28 27  2  0
 29 28  1  0
 29 24  2  0
 30 31  1  0
 31 32  1  0
 32 33  2  0
 34 33  1  0
 34 38  1  0
 35 34  2  0
 36 31  2  0
 36 35  1  0
 37 36  1  0
 39 40  1  0
 40 43  1  0
 40 42  1  0
 41 39  2  0
 44 45  1  0
 44 19  1  0
 46 44  1  0
 48 47  1  0
 48 49  1  0
 49 50  1  0
 51 53  1  0
 51 50  1  0
 52 63  2  0
 53 58  1  0
 54 62  1  0
 54 64  1  0
 55 61  1  0
 55 57  1  0
 56 62  1  0
 57 58  2  0
 57 56  1  0
 59 60  1  0
 59 53  2  0
 60 55  2  0
 61 54  1  0
 62 52  1  0
 64 66  2  0
 65 64  1  0
 67 65  1  0
 68 77  2  0
 68 73  1  0
 69 65  1  0
 69 73  1  0
 70 69  1  0
 71 72  1  0
 71 70  1  0
 72 68  1  0
 73 74  2  0
 74 75  1  0
 76 75  2  0
 77 76  1  0
 78 52  1  0
 78 79  1  0
 78 88  1  0
 79 82  1  0
 80 84  1  0
 80 79  1  0
 81 80  2  0
 84 83  1  0
 86 84  1  0
 86 87  1  0
 86 85  1  0
 88 91  1  1
 88 89  1  0
 90 88  1  0
M  ISO  4   9 100  17 100  50 101  51 101
M  END
>  <TORSDO>  (12) 
F 21

>  <SCORE>  (12) 
-13.794

>  <name>  (12) 
11

>  <ligand_id>  (12) 
11

>  <original_smiles>  (12) 
[H]c1c([H])c([H])c2c(c1[H])C([H])([H])C([H])([H])C([H])([H])C2([H])N([H])C(=O)C1([H])N(C(=O)C([H])(N([H])C(=O)C([H])(N([H])C([H])([H])[H])C([H])([H])[H])C(C([H])([H])[H])(C([H])([H])[H])C([H])([H])[H])C([H])([H])c2c([H])c(OC([H])([H])C([H])([H])C([H])([H])C([H])([H])C([H])([H])N3C(=O)C([H])([H])C([H])(N([H])C(=O)N4C([H])([H])C([H])([H])C([H])([H])C([H])(n5nc(-c6c([H])c([H])c(Oc7c([H])c([H])c(F)c([H])c7F)c([H])c6[H])c(C(=O)N([H])[H])c5N([H])[H])C4([H])[H])C([H])([H])C3([H])[H])c([H])c([H])c2C1([H])[H]

>  <smiles>  (12) 
[H]c1c([H])c([H])c2c(c1[H])C([H])([H])C([H])([H])C([H])([H])C2([H])N([H])C(=O)C1([H])N(C(=O)C([H])(N([H])C(=O)C([H])(N([H])C([H])([H])[H])C([H])([H])[H])C(C([H])([H])[H])(C([H])([H])[H])C([H])([H])[H])C([H])([H])c2c([H])c(OC([H])([H])C([H])([H])C([H])([H])C([H])([H])C([H])([H])N3C(=O)C([H])([H])C([H])(N([H])C(=O)N4C([H])([H])C([H])([H])C([H])([H])C([H])(n5nc(-c6c([H])c([H])c(Oc7c([H])c([H])c(F)c([H])c7F)c([H])c6[H])c(C(=O)N([H])[H])c5N([H])[H])C4([H])[H])C([H])([H])C3([H])[H])c([H])c([H])c2C1([H])[H]

$$$$
12:0:0
     RDKit          3D

 95102  0  0  1  0  0  0  0  0999 V2000
  -28.7060  -20.6010   20.0030 C   0  0  0  0  0  2  0  0  0  0  0  0
  -28.7820  -21.8900   20.7460 N   0  0  0  0  0  4  0  0  0  0  0  0
  -28.0620  -21.9100   21.4500 H   0  0  0  0  0  0  0  0  0  0  0  0
  -29.6700  -21.9440   21.2180 H   0  0  0  0  0  0  0  0  0  0  0  0
  -28.6700  -23.0890   19.8690 C   0  0  0  0  0  2  0  0  0  0  0  0
  -28.4440  -24.4270   20.6170 C   0  0  0  0  0  2  0  0  0  0  0  0
  -28.6550  -25.6460   19.6860 C   0  0  0  0  0  2  0  0  0  0  0  0
  -28.4780  -26.9040   20.3470 O   0  0  0  0  0  0  0  0  0  0  0  0
  -24.5620  -31.9960   23.3610 C   0  0  0  0  0  0  0  0  0  0  0  0
  -27.2640  -27.5610   20.3170 C   0  0  0  0  0  0  0  0  0  0  0  0
  -23.3740  -30.5810   21.7150 C   0  0  0  0  0  3  0  0  0  0  0  0
  -24.8470  -29.0470   20.3070 C   0  0  0  0  0  0  0  0  0  0  0  0
  -25.8980  -30.9570   21.5300 C   0  0  0  0  0  2  0  0  0  0  0  0
  -25.9960  -29.5840   20.9000 C   0  0  0  0  0  0  0  0  0  0  0  0
  -27.2010  -28.8460   20.9030 C   0  0  0  0  0  3  0  0  0  0  0  0
  -26.0880  -27.0320   19.7300 C   0  0  0  0  0  3  0  0  0  0  0  0
  -24.8890  -27.7700   19.7190 C   0  0  0  0  0  3  0  0  0  0  0  0
  -23.5960  -29.8960   20.3400 C   0  0  0  0  0  2  0  0  0  0  0  0
  -24.6290  -31.1940   22.2610 N   0  0  0  0  0  0  0  0  0  0  0  0
  -23.4760  -32.2640   23.8930 O   0  0  0  0  0  0  0  0  0  0  0  0
  -22.7230  -29.5610   22.6760 C   0  0  0  0  0  0  0  0  0  0  0  0
  -21.4050  -29.3520   22.5240 N   0  0  0  0  0  0  0  0  0  0  0  0
  -23.4010  -28.9590   23.5110 O   0  0  0  0  0  0  0  0  0  0  0  0
  -20.9200  -29.8880   21.8190 H   0  0  0  0  0  0  0  0  0  0  0  0
  -18.0470  -28.0950   22.9620 C   0  0  0  0  0  0  0  0  0  0  0  0
  -20.5910  -28.4090   23.2910 C   0  0  0  0  0  3  0  0  0  0  0  0
  -20.7370  -26.9710   22.7420 C   0  0  0  0  0  2  0  0  0  0  0  0
  -19.6660  -26.6110   21.7070 C   0  0  0  0  0  2  0  0  0  0  0  0
  -18.2670  -26.7390   22.3140 C   0  0  0  0  0  2  0  0  0  0  0  0
  -19.1390  -28.8860   23.4070 C   0  0  0  0  0  0  0  0  0  0  0  0
  -18.8820  -30.1530   23.9710 C   0  0  0  0  0  3  0  0  0  0  0  0
  -17.5640  -30.6330   24.0950 C   0  0  0  0  0  3  0  0  0  0  0  0
  -16.4860  -29.8400   23.6680 C   0  0  0  0  0  3  0  0  0  0  0  0
  -16.7270  -28.5740   23.1080 C   0  0  0  0  0  3  0  0  0  0  0  0
  -25.8400  -32.6390   23.9840 C   0  0  0  0  0  3  0  0  0  0  0  0
  -25.5340  -34.0450   24.2730 N   0  0  0  0  0  0  0  0  0  0  0  0
  -25.8900  -35.0770   23.4950 C   0  0  0  0  0  0  0  0  0  0  0  0
  -26.5840  -34.9430   22.4840 O   0  0  0  0  0  0  0  0  0  0  0  0
  -24.9200  -34.2230   25.0540 H   0  0  0  0  0  0  0  0  0  0  0  0
  -24.1920  -36.8730   23.0390 C   0  0  0  0  0  1  0  0  0  0  0  0
  -25.3990  -36.4770   23.9040 C   0  0  0  0  0  3  0  0  0  0  0  0
  -27.5060  -37.3650   24.7950 C   0  0  0  0  0  1  0  0  0  0  0  0
  -26.4440  -37.5190   23.8050 N   0  0  0  0  0  0  0  0  0  0  0  0
  -26.0410  -38.4460   23.9170 H   0  0  0  0  0  0  0  0  0  0  0  0
  -26.3370  -31.8970   25.2860 C   0  0  1  0  0  0  0  0  0  0  0  0
  -25.2260  -31.6800   26.3370 C   0  0  0  0  0  1  0  0  0  0  0  0
  -26.9320  -30.5130   24.9350 C   0  0  0  0  0  1  0  0  0  0  0  0
  -27.4710  -32.7090   25.9510 C   0  0  0  0  0  1  0  0  0  0  0  0
  -29.4500  -19.4260   20.7080 C   0  0  0  0  0  2  0  0  0  0  0  0
  -29.4000  -18.0180   20.0130 C   0  0  0  0  0  3  0  0  0  0  0  0
  -30.7180  -14.6210   20.5140 C   0  0  0  0  0  0  0  0  0  0  0  0
  -30.4850  -12.4700   19.3450 C   0  0  0  0  0  2  0  0  0  0  0  0
  -29.5440  -12.6640   18.1380 C   0  0  0  0  0  2  0  0  0  0  0  0
  -28.0660  -12.5020   18.5590 C   0  0  0  0  0  2  0  0  0  0  0  0
  -27.7060  -13.3260   19.8250 C   0  0  0  0  0  3  0  0  0  0  0  0
  -28.7580  -13.0960   20.9350 C   0  0  0  0  0  2  0  0  0  0  0  0
  -30.0740  -13.4320   20.3740 N   0  0  0  0  0  0  0  0  0  0  0  0
  -31.9010  -14.7710   20.1880 O   0  0  0  0  0  0  0  0  0  0  0  0
  -30.2520  -16.9690   20.7860 C   0  0  0  0  0  0  0  0  0  0  0  0
  -29.8890  -15.6720   20.7130 N   0  0  0  0  0  0  0  0  0  0  0  0
  -31.2540  -17.3500   21.4030 O   0  0  0  0  0  0  0  0  0  0  0  0
  -28.9080  -15.4630   20.6220 H   0  0  0  0  0  0  0  0  0  0  0  0
  -25.2950  -13.9110   20.5090 C   0  0  0  0  0  0  0  0  0  0  0  0
  -24.2310  -13.1250   20.8670 C   0  0  0  0  0  0  0  0  0  0  0  0
  -24.7100  -11.7800   20.8460 C   0  0  0  0  0  0  0  0  0  0  0  0
  -26.3530  -13.0400   20.2920 N   0  0  0  0  0  0  0  0  0  0  0  0
  -26.0030  -11.7570   20.5520 N   0  0  0  0  0  0  0  0  0  0  0  0
  -24.0010  -10.5070   21.0290 C   0  0  0  0  0  0  0  0  0  0  0  0
  -24.4320   -9.5570   21.9790 C   0  0  0  0  0  3  0  0  0  0  0  0
  -23.7250   -8.3480   22.1500 C   0  0  0  0  0  3  0  0  0  0  0  0
  -22.5740   -8.0830   21.3720 C   0  0  0  0  0  0  0  0  0  0  0  0
  -22.1640   -9.0230   20.4100 C   0  0  0  0  0  3  0  0  0  0  0  0
  -22.8710  -10.2240   20.2370 C   0  0  0  0  0  3  0  0  0  0  0  0
  -21.8400   -6.9250   21.4510 O   0  0  0  0  0  0  0  0  0  0  0  0
  -21.7680   -6.1960   22.6120 C   0  0  0  0  0  0  0  0  0  0  0  0
  -21.2670   -6.7520   23.8100 C   0  0  0  0  0  3  0  0  0  0  0  0
  -21.1460   -5.9490   24.9610 C   0  0  0  0  0  3  0  0  0  0  0  0
  -21.5170   -4.5910   24.9150 C   0  0  0  0  0  0  0  0  0  0  0  0
  -22.0110   -4.0350   23.7210 C   0  0  0  0  0  3  0  0  0  0  0  0
  -22.1320   -4.8360   22.5730 C   0  0  0  0  0  0  0  0  0  0  0  0
  -22.5900   -4.2920   21.4200 F   0  0  0  0  0  0  0  0  0  0  0  0
  -21.3930   -3.8160   26.0170 F   0  0  0  0  0  0  0  0  0  0  0  0
  -22.8240  -13.5860   21.1190 C   0  0  0  0  0  0  0  0  0  0  0  0
  -22.0910  -12.8800   21.9740 N   0  0  0  0  0  0  0  0  0  0  0  0
  -22.3810  -14.6060   20.5910 O   0  0  0  0  0  0  0  0  0  0  0  0
  -22.4590  -12.0560   22.4270 H   0  0  0  0  0  0  0  0  0  0  0  0
  -21.1460  -13.1730   22.1800 H   0  0  0  0  0  0  0  0  0  0  0  0
  -25.4430  -15.2820   20.3310 N   0  0  0  0  0  0  0  0  0  0  0  0
  -24.6660  -15.9240   20.4550 H   0  0  0  0  0  0  0  0  0  0  0  0
  -26.2740  -15.7390   19.9870 H   0  0  0  0  0  0  0  0  0  0  0  0
  -29.9060  -18.0650   18.5310 C   0  0  0  0  0  2  0  0  0  0  0  0
  -28.9160  -17.6030   17.5330 N   0  0  0  0  0  4  0  0  0  0  0  0
  -28.6940  -16.6290   17.6300 H   0  0  0  0  0  0  0  0  0  0  0  0
  -29.2880  -17.7320   16.6070 H   0  0  0  0  0  0  0  0  0  0  0  0
  -28.0670  -18.1370   17.5800 H   0  0  0  0  0  0  0  0  0  0  0  0
  1 49  1  0
  1  2  1  0
  2  4  1  0
  2  3  1  0
  5  6  1  0
  5  2  1  0
  7  8  1  0
  7  6  1  0
  9 20  2  0
 10  8  1  0
 10 15  1  0
 11 19  1  0
 11 21  1  0
 12 18  1  0
 12 14  1  0
 13 19  1  0
 14 15  2  0
 14 13  1  0
 16 10  2  0
 17 16  1  0
 17 12  2  0
 18 11  1  0
 19  9  1  0
 21 23  2  0
 22 21  1  0
 24 22  1  0
 25 34  2  0
 25 30  1  0
 26 22  1  0
 26 30  1  0
 27 26  1  0
 28 29  1  0
 28 27  1  0
 29 25  1  0
 30 31  2  0
 31 32  1  0
 33 32  2  0
 34 33  1  0
 35  9  1  0
 35 36  1  0
 35 45  1  0
 36 39  1  0
 37 41  1  0
 37 36  1  0
 38 37  2  0
 41 40  1  0
 43 41  1  0
 43 44  1  0
 43 42  1  0
 45 48  1  1
 45 46  1  0
 47 45  1  0
 50 91  1  0
 50 49  1  0
 50 59  1  0
 51 60  1  0
 52 57  1  0
 53 54  1  0
 53 52  1  0
 55 54  1  0
 55 66  1  0
 55 56  1  0
 57 51  1  0
 57 56  1  0
 58 51  2  0
 59 61  2  0
 60 59  1  0
 62 60  1  0
 63 64  2  0
 64 83  1  0
 65 64  1  0
 65 68  1  0
 66 63  1  0
 66 67  1  0
 67 65  2  0
 68 69  1  0
 69 70  2  0
 71 74  1  0
 71 70  1  0
 72 71  2  0
 73 72  1  0
 73 68  2  0
 74 75  1  0
 75 76  1  0
 76 77  2  0
 78 77  1  0
 78 82  1  0
 79 78  2  0
 80 75  2  0
 80 79  1  0
 81 80  1  0
 83 84  1  0
 84 87  1  0
 84 86  1  0
 85 83  2  0
 88 89  1  0
 88 63  1  0
 90 88  1  0
 92 95  1  0
 92 93  1  0
 92 91  1  0
 94 92  1  0
M  ISO  4   7 101   8 101  51 100  60 100
M  END
>  <TORSDO>  (13) 
F 24

>  <SCORE>  (13) 
-12.596

>  <name>  (13) 
12

>  <ligand_id>  (13) 
12

>  <original_smiles>  (13) 
[H]c1c([H])c([H])c2c(c1[H])C([H])([H])C([H])([H])C([H])([H])C2([H])N([H])C(=O)C1([H])N(C(=O)C([H])(N([H])C(=O)C([H])(N([H])C([H])([H])[H])C([H])([H])[H])C(C([H])([H])[H])(C([H])([H])[H])C([H])([H])[H])C([H])([H])c2c([H])c(OC([H])([H])C([H])([H])C([H])([H])[N+]([H])([H])C([H])([H])C([H])([H])C([H])(C(=O)N([H])C(=O)N3C([H])([H])C([H])([H])C([H])([H])C([H])(n4nc(-c5c([H])c([H])c(Oc6c([H])c([H])c(F)c([H])c6F)c([H])c5[H])c(C(=O)N([H])[H])c4N([H])[H])C3([H])[H])C([H])([H])[N+]([H])([H])[H])c([H])c([H])c2C1([H])[H]

>  <smiles>  (13) 
[H]c1c([H])c([H])c2c(c1[H])C([H])([H])C([H])([H])C([H])([H])C2([H])N([H])C(=O)C1([H])N(C(=O)C([H])(N([H])C(=O)C([H])(N([H])C([H])([H])[H])C([H])([H])[H])C(C([H])([H])[H])(C([H])([H])[H])C([H])([H])[H])C([H])([H])c2c([H])c(OC([H])([H])C([H])([H])C([H])([H])[N+]([H])([H])C([H])([H])C([H])([H])C([H])(C(=O)N([H])C(=O)N3C([H])([H])C([H])([H])C([H])([H])C([H])(n4nc(-c5c([H])c([H])c(Oc6c([H])c([H])c(F)c([H])c6F)c([H])c5[H])c(C(=O)N([H])[H])c4N([H])[H])C3([H])[H])C([H])([H])[N+]([H])([H])[H])c([H])c([H])c2C1([H])[H]

$$$$
13:0:0
     RDKit          3D

 94102  0  0  1  0  0  0  0  0999 V2000
  -27.5120  -22.2900   18.8710 C   0  0  0  0  0  0  0  0  0  0  0  0
  -27.9450  -23.5120   18.5440 N   0  0  0  0  0  0  0  0  0  0  0  0
  -27.0380  -21.5500   18.0110 O   0  0  0  0  0  0  0  0  0  0  0  0
  -27.8460  -23.7870   17.5750 H   0  0  0  0  0  0  0  0  0  0  0  0
  -27.6290  -21.7900   20.3210 C   0  0  0  0  0  2  0  0  0  0  0  0
  -27.8060  -20.2620   20.4310 C   0  0  0  0  0  2  0  0  0  0  0  0
  -29.1410  -19.7520   19.8460 C   0  0  0  0  0  2  0  0  0  0  0  0
  -31.1890  -14.1600   19.4970 C   0  0  0  0  0  0  0  0  0  0  0  0
  -30.6620  -11.9740   18.4980 C   0  0  0  0  0  2  0  0  0  0  0  0
  -29.5740  -12.1650   17.4230 C   0  0  0  0  0  2  0  0  0  0  0  0
  -28.1690  -12.0930   18.0550 C   0  0  0  0  0  2  0  0  0  0  0  0
  -28.0290  -12.9990   19.3060 C   0  0  0  0  0  3  0  0  0  0  0  0
  -29.2160  -12.7940   20.2730 C   0  0  0  0  0  2  0  0  0  0  0  0
  -30.4610  -13.0130   19.5170 N   0  0  0  0  0  0  0  0  0  0  0  0
  -32.2440  -14.2790   18.8660 O   0  0  0  0  0  0  0  0  0  0  0  0
  -29.5770  -16.5030   21.8810 C   0  0  0  0  0  2  0  0  0  0  0  0
  -30.7720  -15.7230   21.2990 C   0  0  0  0  0  2  0  0  0  0  0  0
  -30.1780  -16.2560   18.8960 C   0  0  0  0  0  2  0  0  0  0  0  0
  -29.5730  -18.0090   21.5440 C   0  0  0  0  0  2  0  0  0  0  0  0
  -30.4340  -17.7330   19.2400 C   0  0  0  0  0  2  0  0  0  0  0  0
  -30.5290  -15.2580   19.9260 N   0  0  0  0  0  0  0  0  0  0  0  0
  -29.3640  -18.3030   20.1020 N   0  0  2  0  0  4  0  0  0  0  0  0
  -28.5080  -17.8520   19.8150 H   0  0  0  0  0  0  0  0  0  0  0  0
  -25.8400  -13.7310   20.4440 C   0  0  0  0  0  0  0  0  0  0  0  0
  -24.7720  -13.0150   20.9170 C   0  0  0  0  0  0  0  0  0  0  0  0
  -25.0900  -11.6400   20.6920 C   0  0  0  0  0  0  0  0  0  0  0  0
  -26.7460  -12.7940   19.9730 N   0  0  0  0  0  0  0  0  0  0  0  0
  -26.3050  -11.5270   20.1740 N   0  0  0  0  0  0  0  0  0  0  0  0
  -24.2850  -10.4280   20.8880 C   0  0  0  0  0  0  0  0  0  0  0  0
  -24.6730   -9.4220   21.8010 C   0  0  0  0  0  3  0  0  0  0  0  0
  -23.8730   -8.2750   21.9830 C   0  0  0  0  0  3  0  0  0  0  0  0
  -22.6690   -8.1260   21.2520 C   0  0  0  0  0  0  0  0  0  0  0  0
  -22.3000   -9.1200   20.3290 C   0  0  0  0  0  3  0  0  0  0  0  0
  -23.1010  -10.2580   20.1450 C   0  0  0  0  0  3  0  0  0  0  0  0
  -21.8420   -7.0320   21.3450 O   0  0  0  0  0  0  0  0  0  0  0  0
  -21.6660   -6.3630   22.5300 C   0  0  0  0  0  0  0  0  0  0  0  0
  -21.1700   -7.0070   23.6840 C   0  0  0  0  0  3  0  0  0  0  0  0
  -20.9390   -6.2650   24.8590 C   0  0  0  0  0  3  0  0  0  0  0  0
  -21.1950   -4.8810   24.8800 C   0  0  0  0  0  0  0  0  0  0  0  0
  -21.6850   -4.2380   23.7310 C   0  0  0  0  0  3  0  0  0  0  0  0
  -21.9170   -4.9750   22.5570 C   0  0  0  0  0  0  0  0  0  0  0  0
  -22.3680   -4.3470   21.4460 F   0  0  0  0  0  0  0  0  0  0  0  0
  -20.9670   -4.1660   26.0070 F   0  0  0  0  0  0  0  0  0  0  0  0
  -23.4870  -13.5750   21.4540 C   0  0  0  0  0  0  0  0  0  0  0  0
  -22.8590  -12.8750   22.3920 N   0  0  0  0  0  0  0  0  0  0  0  0
  -23.0550  -14.6630   21.0730 O   0  0  0  0  0  0  0  0  0  0  0  0
  -23.2230  -11.9900   22.7130 H   0  0  0  0  0  0  0  0  0  0  0  0
  -22.0010  -13.2270   22.7940 H   0  0  0  0  0  0  0  0  0  0  0  0
  -26.1050  -15.0930   20.3530 N   0  0  0  0  0  0  0  0  0  0  0  0
  -25.4030  -15.7850   20.5930 H   0  0  0  0  0  0  0  0  0  0  0  0
  -26.8780  -15.4730   19.8250 H   0  0  0  0  0  0  0  0  0  0  0  0
  -28.4730  -24.5240   19.4540 C   0  0  0  0  0  2  0  0  0  0  0  0
  -28.7430  -25.8380   18.7020 C   0  0  0  0  0  2  0  0  0  0  0  0
  -28.5720  -26.9600   19.5630 O   0  0  0  0  0  0  0  0  0  0  0  0
  -24.5380  -31.6470   23.0520 C   0  0  0  0  0  0  0  0  0  0  0  0
  -27.3320  -27.5610   19.6350 C   0  0  0  0  0  0  0  0  0  0  0  0
  -23.3670  -30.2950   21.3460 C   0  0  0  0  0  3  0  0  0  0  0  0
  -24.8610  -28.9260   19.8020 C   0  0  0  0  0  0  0  0  0  0  0  0
  -25.8680  -30.7860   21.1320 C   0  0  0  0  0  2  0  0  0  0  0  0
  -26.0010  -29.4650   20.4080 C   0  0  0  0  0  0  0  0  0  0  0  0
  -27.2340  -28.7830   20.3340 C   0  0  0  0  0  3  0  0  0  0  0  0
  -26.1650  -27.0260   19.0360 C   0  0  0  0  0  3  0  0  0  0  0  0
  -24.9360  -27.7020   19.1160 C   0  0  0  0  0  3  0  0  0  0  0  0
  -23.5780  -29.7170   19.9210 C   0  0  0  0  0  2  0  0  0  0  0  0
  -24.6100  -30.9210   21.9020 N   0  0  0  0  0  0  0  0  0  0  0  0
  -23.4550  -31.8330   23.6240 O   0  0  0  0  0  0  0  0  0  0  0  0
  -22.7840  -29.1830   22.2460 C   0  0  0  0  0  0  0  0  0  0  0  0
  -21.4710  -28.9400   22.1170 N   0  0  0  0  0  0  0  0  0  0  0  0
  -23.5080  -28.5480   23.0190 O   0  0  0  0  0  0  0  0  0  0  0  0
  -20.9440  -29.5100   21.4700 H   0  0  0  0  0  0  0  0  0  0  0  0
  -18.1780  -27.5160   22.5370 C   0  0  0  0  0  0  0  0  0  0  0  0
  -20.7120  -27.9130   22.8320 C   0  0  0  0  0  3  0  0  0  0  0  0
  -20.9040  -26.5250   22.1760 C   0  0  0  0  0  2  0  0  0  0  0  0
  -19.8240  -26.1990   21.1410 C   0  0  0  0  0  2  0  0  0  0  0  0
  -18.4390  -26.2150   21.7950 C   0  0  0  0  0  2  0  0  0  0  0  0
  -19.2470  -28.3220   23.0090 C   0  0  0  0  0  0  0  0  0  0  0  0
  -18.9510  -29.5410   23.6570 C   0  0  0  0  0  3  0  0  0  0  0  0
  -17.6190  -29.9550   23.8410 C   0  0  0  0  0  3  0  0  0  0  0  0
  -16.5630  -29.1450   23.3860 C   0  0  0  0  0  3  0  0  0  0  0  0
  -16.8440  -27.9290   22.7400 C   0  0  0  0  0  3  0  0  0  0  0  0
  -25.8050  -32.2980   23.6890 C   0  0  0  0  0  3  0  0  0  0  0  0
  -25.4530  -33.6710   24.0680 N   0  0  0  0  0  0  0  0  0  0  0  0
  -25.7570  -34.7590   23.3470 C   0  0  0  0  0  0  0  0  0  0  0  0
  -26.4350  -34.7130   22.3160 O   0  0  0  0  0  0  0  0  0  0  0  0
  -24.8500  -33.7810   24.8710 H   0  0  0  0  0  0  0  0  0  0  0  0
  -23.9760  -36.5070   23.0410 C   0  0  0  0  0  1  0  0  0  0  0  0
  -25.2240  -36.1150   23.8480 C   0  0  0  0  0  3  0  0  0  0  0  0
  -27.3220  -37.0360   24.7300 C   0  0  0  0  0  1  0  0  0  0  0  0
  -26.2250  -37.2010   23.7800 N   0  0  0  0  0  0  0  0  0  0  0  0
  -25.7900  -38.1040   23.9510 H   0  0  0  0  0  0  0  0  0  0  0  0
  -26.3540  -31.4970   24.9340 C   0  0  1  0  0  0  0  0  0  0  0  0
  -25.2780  -31.1860   26.0000 C   0  0  0  0  0  1  0  0  0  0  0  0
  -26.9750  -30.1530   24.4830 C   0  0  0  0  0  1  0  0  0  0  0  0
  -27.4880  -32.3000   25.6140 C   0  0  0  0  0  1  0  0  0  0  0  0
  1  5  1  0
  2  1  1  0
  2 52  1  0
  3  1  2  0
  4  2  1  0
  5  6  1  0
  7 22  1  0
  7  6  1  0
  8 14  1  0
  8 21  1  0
  9 14  1  0
 10 11  1  0
 10  9  1  0
 12 11  1  0
 12 27  1  0
 12 13  1  0
 14 13  1  0
 15  8  2  0
 17 16  1  0
 18 20  1  0
 18 21  1  0
 19 16  1  0
 20 22  1  0
 21 17  1  0
 22 19  1  0
 22 23  1  6
 24 25  2  0
 25 44  1  0
 26 29  1  0
 26 25  1  0
 27 28  1  0
 27 24  1  0
 28 26  2  0
 29 30  1  0
 30 31  2  0
 32 35  1  0
 32 31  1  0
 33 32  2  0
 34 33  1  0
 34 29  2  0
 35 36  1  0
 36 41  2  0
 36 37  1  0
 37 38  2  0
 38 39  1  0
 39 43  1  0
 40 39  2  0
 41 40  1  0
 42 41  1  0
 44 45  1  0
 45 47  1  0
 45 48  1  0
 46 44  2  0
 49 24  1  0
 49 50  1  0
 51 49  1  0
 53 52  1  0
 53 54  1  0
 54 56  1  0
 55 66  2  0
 56 61  1  0
 57 65  1  0
 57 67  1  0
 58 64  1  0
 58 60  1  0
 59 65  1  0
 60 59  1  0
 61 60  2  0
 62 63  1  0
 62 56  2  0
 63 58  2  0
 64 57  1  0
 65 55  1  0
 67 69  2  0
 68 67  1  0
 70 68  1  0
 71 80  2  0
 71 76  1  0
 72 68  1  0
 72 76  1  0
 73 72  1  0
 74 75  1  0
 74 73  1  0
 75 71  1  0
 76 77  2  0
 77 78  1  0
 79 78  2  0
 80 79  1  0
 81 55  1  0
 81 82  1  0
 81 91  1  0
 82 85  1  0
 83 87  1  0
 83 82  1  0
 84 83  2  0
 87 86  1  0
 89 87  1  0
 89 90  1  0
 89 88  1  0
 91 94  1  1
 91 92  1  0
 93 91  1  0
M  ISO  4   8 100  21 100  53 101  54 101
M  END
>  <TORSDO>  (14) 
F 21

>  <SCORE>  (14) 
-11.278

>  <name>  (14) 
13

>  <ligand_id>  (14) 
13

>  <original_smiles>  (14) 
[H]c1c([H])c([H])c2c(c1[H])C([H])([H])C([H])([H])C([H])([H])C2([H])N([H])C(=O)C1([H])N(C(=O)C([H])(N([H])C(=O)C([H])(N([H])C([H])([H])[H])C([H])([H])[H])C(C([H])([H])[H])(C([H])([H])[H])C([H])([H])[H])C([H])([H])c2c([H])c(OC([H])([H])C([H])([H])N([H])C(=O)C([H])([H])C([H])([H])C([H])([H])[N+]3([H])C([H])([H])C([H])([H])N(C(=O)N4C([H])([H])C([H])([H])C([H])([H])C([H])(n5nc(-c6c([H])c([H])c(Oc7c([H])c([H])c(F)c([H])c7F)c([H])c6[H])c(C(=O)N([H])[H])c5N([H])[H])C4([H])[H])C([H])([H])C([H])([H])C3([H])[H])c([H])c([H])c2C1([H])[H]

>  <smiles>  (14) 
[H]c1c([H])c([H])c2c(c1[H])C([H])([H])C([H])([H])C([H])([H])C2([H])N([H])C(=O)C1([H])N(C(=O)C([H])(N([H])C(=O)C([H])(N([H])C([H])([H])[H])C([H])([H])[H])C(C([H])([H])[H])(C([H])([H])[H])C([H])([H])[H])C([H])([H])c2c([H])c(OC([H])([H])C([H])([H])N([H])C(=O)C([H])([H])C([H])([H])C([H])([H])[N+]3([H])C([H])([H])C([H])([H])N(C(=O)N4C([H])([H])C([H])([H])C([H])([H])C([H])(n5nc(-c6c([H])c([H])c(Oc7c([H])c([H])c(F)c([H])c7F)c([H])c6[H])c(C(=O)N([H])[H])c5N([H])[H])C4([H])[H])C([H])([H])C([H])([H])C3([H])[H])c([H])c([H])c2C1([H])[H]

$$$$
14:0:0
     RDKit          3D

 91 99  0  0  1  0  0  0  0  0999 V2000
  -29.1400  -21.2760   17.1440 C   0  0  0  0  0  2  0  0  0  0  0  0
  -29.2390  -20.0230   18.0020 C   0  0  0  0  0  2  0  0  0  0  0  0
  -28.8920  -22.4150   18.1400 C   0  0  0  0  0  2  0  0  0  0  0  0
  -29.7770  -20.5340   19.3430 C   0  0  0  0  0  3  0  0  0  0  0  0
  -29.0940  -21.8720   19.5110 N   0  0  1  0  0  4  0  0  0  0  0  0
  -28.1610  -21.6550   19.8270 H   0  0  0  0  0  0  0  0  0  0  0  0
  -29.6130  -19.4680   20.4890 C   0  0  0  0  0  3  0  0  0  0  0  0
  -29.9040  -17.9720   20.0800 C   0  0  0  0  0  3  0  0  0  0  0  0
  -30.1910  -16.9660   21.2440 C   0  0  0  0  0  2  0  0  0  0  0  0
  -30.6160  -14.5290   20.5120 C   0  0  0  0  0  0  0  0  0  0  0  0
  -30.3700  -12.3450   19.3700 C   0  0  0  0  0  2  0  0  0  0  0  0
  -29.4280  -12.5210   18.1600 C   0  0  0  0  0  2  0  0  0  0  0  0
  -27.9510  -12.3760   18.5810 C   0  0  0  0  0  2  0  0  0  0  0  0
  -27.6010  -13.2200   19.8350 C   0  0  0  0  0  3  0  0  0  0  0  0
  -28.6510  -13.0080   20.9490 C   0  0  0  0  0  2  0  0  0  0  0  0
  -29.9720  -13.3340   20.3850 N   0  0  0  0  0  0  0  0  0  0  0  0
  -31.7640  -14.7160   20.1010 O   0  0  0  0  0  0  0  0  0  0  0  0
  -29.8500  -15.5470   20.9740 N   0  0  0  0  0  0  0  0  0  0  0  0
  -28.9140  -15.2730   21.2320 H   0  0  0  0  0  0  0  0  0  0  0  0
  -25.1990  -13.8340   20.5230 C   0  0  0  0  0  0  0  0  0  0  0  0
  -24.1270  -13.0660   20.8890 C   0  0  0  0  0  0  0  0  0  0  0  0
  -24.5860  -11.7130   20.8700 C   0  0  0  0  0  0  0  0  0  0  0  0
  -26.2450  -12.9500   20.3060 N   0  0  0  0  0  0  0  0  0  0  0  0
  -25.8790  -11.6700   20.5740 N   0  0  0  0  0  0  0  0  0  0  0  0
  -23.8570  -10.4540   21.0610 C   0  0  0  0  0  0  0  0  0  0  0  0
  -24.2920   -9.4820   21.9890 C   0  0  0  0  0  3  0  0  0  0  0  0
  -23.5640   -8.2860   22.1670 C   0  0  0  0  0  3  0  0  0  0  0  0
  -22.3850   -8.0540   21.4190 C   0  0  0  0  0  0  0  0  0  0  0  0
  -21.9680   -9.0150   20.4810 C   0  0  0  0  0  3  0  0  0  0  0  0
  -22.6980  -10.2020   20.3000 C   0  0  0  0  0  3  0  0  0  0  0  0
  -21.6280   -6.9110   21.5080 O   0  0  0  0  0  0  0  0  0  0  0  0
  -21.5970   -6.1550   22.6520 C   0  0  0  0  0  0  0  0  0  0  0  0
  -21.2100   -6.7010   23.8950 C   0  0  0  0  0  3  0  0  0  0  0  0
  -21.1260   -5.8710   25.0320 C   0  0  0  0  0  3  0  0  0  0  0  0
  -21.4170   -4.4980   24.9260 C   0  0  0  0  0  0  0  0  0  0  0  0
  -21.7970   -3.9520   23.6870 C   0  0  0  0  0  3  0  0  0  0  0  0
  -21.8840   -4.7780   22.5530 C   0  0  0  0  0  0  0  0  0  0  0  0
  -22.2300   -4.2440   21.3570 F   0  0  0  0  0  0  0  0  0  0  0  0
  -21.3290   -3.6990   26.0150 F   0  0  0  0  0  0  0  0  0  0  0  0
  -22.7280  -13.5470   21.1470 C   0  0  0  0  0  0  0  0  0  0  0  0
  -21.9920  -12.8570   22.0110 N   0  0  0  0  0  0  0  0  0  0  0  0
  -22.2950  -14.5690   20.6150 O   0  0  0  0  0  0  0  0  0  0  0  0
  -22.3530  -12.0310   22.4630 H   0  0  0  0  0  0  0  0  0  0  0  0
  -21.0530  -13.1630   22.2250 H   0  0  0  0  0  0  0  0  0  0  0  0
  -25.3680  -15.2040   20.3370 N   0  0  0  0  0  0  0  0  0  0  0  0
  -24.6000  -15.8590   20.4320 H   0  0  0  0  0  0  0  0  0  0  0  0
  -26.2170  -15.6370   19.9990 H   0  0  0  0  0  0  0  0  0  0  0  0
  -29.6440  -22.8370   20.5320 C   0  0  0  0  0  2  0  0  0  0  0  0
  -29.6000  -24.4000   20.2610 C   0  0  0  0  0  2  0  0  0  0  0  0
  -28.2360  -25.1500   20.1430 C   0  0  0  0  0  2  0  0  0  0  0  0
  -28.3680  -26.6020   20.1680 O   0  0  0  0  0  0  0  0  0  0  0  0
  -24.6010  -31.8690   23.2360 C   0  0  0  0  0  0  0  0  0  0  0  0
  -27.2050  -27.3670   20.1530 C   0  0  0  0  0  0  0  0  0  0  0  0
  -23.3820  -30.4700   21.6040 C   0  0  0  0  0  3  0  0  0  0  0  0
  -24.8210  -28.9240   20.1730 C   0  0  0  0  0  0  0  0  0  0  0  0
  -25.9140  -30.8070   21.3940 C   0  0  0  0  0  2  0  0  0  0  0  0
  -25.9900  -29.4320   20.7510 C   0  0  0  0  0  0  0  0  0  0  0  0
  -27.1850  -28.6660   20.7310 C   0  0  0  0  0  3  0  0  0  0  0  0
  -26.0090  -26.8870   19.5690 C   0  0  0  0  0  3  0  0  0  0  0  0
  -24.8290  -27.6530   19.5760 C   0  0  0  0  0  3  0  0  0  0  0  0
  -23.5820  -29.7900   20.2240 C   0  0  0  0  0  2  0  0  0  0  0  0
  -24.6520  -31.0640   22.1360 N   0  0  0  0  0  0  0  0  0  0  0  0
  -23.5230  -32.1460   23.7810 O   0  0  0  0  0  0  0  0  0  0  0  0
  -22.7300  -29.4530   22.5700 C   0  0  0  0  0  0  0  0  0  0  0  0
  -21.4040  -29.2760   22.4500 N   0  0  0  0  0  0  0  0  0  0  0  0
  -23.4150  -28.8260   23.3820 O   0  0  0  0  0  0  0  0  0  0  0  0
  -20.9120  -29.8330   21.7660 H   0  0  0  0  0  0  0  0  0  0  0  0
  -18.0280  -28.0880   22.9640 C   0  0  0  0  0  0  0  0  0  0  0  0
  -20.5870  -28.3410   23.2260 C   0  0  0  0  0  3  0  0  0  0  0  0
  -20.6850  -26.9080   22.6530 C   0  0  0  0  0  2  0  0  0  0  0  0
  -19.5790  -26.5850   21.6440 C   0  0  0  0  0  2  0  0  0  0  0  0
  -18.2000  -26.7350   22.2920 C   0  0  0  0  0  2  0  0  0  0  0  0
  -19.1500  -28.8480   23.3880 C   0  0  0  0  0  0  0  0  0  0  0  0
  -18.9370  -30.1140   23.9770 C   0  0  0  0  0  3  0  0  0  0  0  0
  -17.6340  -30.6190   24.1440 C   0  0  0  0  0  3  0  0  0  0  0  0
  -16.5260  -29.8560   23.7370 C   0  0  0  0  0  3  0  0  0  0  0  0
  -16.7250  -28.5930   23.1520 C   0  0  0  0  0  3  0  0  0  0  0  0
  -25.8910  -32.4970   23.8480 C   0  0  0  0  0  3  0  0  0  0  0  0
  -25.5870  -33.8940   24.1840 N   0  0  0  0  0  0  0  0  0  0  0  0
  -25.9150  -34.9490   23.4250 C   0  0  0  0  0  0  0  0  0  0  0  0
  -26.5780  -34.8470   22.3890 O   0  0  0  0  0  0  0  0  0  0  0  0
  -24.9990  -34.0480   24.9900 H   0  0  0  0  0  0  0  0  0  0  0  0
  -24.1870  -36.7430   23.0860 C   0  0  0  0  0  1  0  0  0  0  0  0
  -25.4330  -36.3360   23.8900 C   0  0  0  0  0  3  0  0  0  0  0  0
  -27.5750  -37.2130   24.7060 C   0  0  0  0  0  1  0  0  0  0  0  0
  -26.4660  -37.3880   23.7730 N   0  0  0  0  0  0  0  0  0  0  0  0
  -26.0630  -38.3080   23.9290 H   0  0  0  0  0  0  0  0  0  0  0  0
  -26.4190  -31.7210   25.1170 C   0  0  1  0  0  0  0  0  0  0  0  0
  -25.3370  -31.4820   26.1940 C   0  0  0  0  0  1  0  0  0  0  0  0
  -26.9960  -30.3440   24.7140 C   0  0  0  0  0  1  0  0  0  0  0  0
  -27.5780  -32.5110   25.7700 C   0  0  0  0  0  1  0  0  0  0  0  0
  1  2  1  0
  1  3  1  0
  2  4  1  0
  3  5  1  0
  4  5  1  0
  4  7  1  0
  5  6  1  1
  5 48  1  0
  8  7  2  0
  8  9  1  0
 10 18  1  0
 11 16  1  0
 12 13  1  0
 12 11  1  0
 14 13  1  0
 14 23  1  0
 14 15  1  0
 16 10  1  0
 16 15  1  0
 17 10  2  0
 18 19  1  0
 18  9  1  0
 20 21  2  0
 21 40  1  0
 22 21  1  0
 22 25  1  0
 23 20  1  0
 23 24  1  0
 24 22  2  0
 25 26  1  0
 26 27  2  0
 28 31  1  0
 28 27  1  0
 29 28  2  0
 30 29  1  0
 30 25  2  0
 31 32  1  0
 32 33  1  0
 33 34  2  0
 35 34  1  0
 35 39  1  0
 36 35  2  0
 37 32  2  0
 37 36  1  0
 38 37  1  0
 40 41  1  0
 41 44  1  0
 41 43  1  0
 42 40  2  0
 45 46  1  0
 45 20  1  0
 47 45  1  0
 49 48  1  0
 50 51  1  0
 50 49  1  0
 52 63  2  0
 53 51  1  0
 53 58  1  0
 54 62  1  0
 54 64  1  0
 55 61  1  0
 55 57  1  0
 56 62  1  0
 57 56  1  0
 58 57  2  0
 59 60  1  0
 59 53  2  0
 60 55  2  0
 61 54  1  0
 62 52  1  0
 64 66  2  0
 65 64  1  0
 67 65  1  0
 68 77  2  0
 68 73  1  0
 69 65  1  0
 69 73  1  0
 70 69  1  0
 71 72  1  0
 71 70  1  0
 72 68  1  0
 73 74  2  0
 74 75  1  0
 76 75  2  0
 77 76  1  0
 78 52  1  0
 78 79  1  0
 78 88  1  0
 79 82  1  0
 80 84  1  0
 80 79  1  0
 81 80  2  0
 84 83  1  0
 86 84  1  0
 86 87  1  0
 86 85  1  0
 88 91  1  1
 88 89  1  0
 90 88  1  0
M  ISO  4  10 100  18 100  50 101  51 101
M  END
>  <TORSDO>  (15) 
F 22

>  <SCORE>  (15) 
-13.093

>  <name>  (15) 
14

>  <ligand_id>  (15) 
14

>  <original_smiles>  (15) 
[H]c1c([H])c([H])c2c(c1[H])C([H])([H])C([H])([H])C([H])([H])C2([H])N([H])C(=O)C1([H])N(C(=O)C([H])(N([H])C(=O)C([H])(N([H])C([H])([H])[H])C([H])([H])[H])C(C([H])([H])[H])(C([H])([H])[H])C([H])([H])[H])C([H])([H])c2c([H])c(OC([H])([H])C([H])([H])C([H])([H])[N+]3([H])C([H])([H])C([H])([H])C([H])([H])C3([H])C([H])([H])C([H])([H])C([H])([H])N([H])C(=O)N3C([H])([H])C([H])([H])C([H])([H])C([H])(n4nc(-c5c([H])c([H])c(Oc6c([H])c([H])c(F)c([H])c6F)c([H])c5[H])c(C(=O)N([H])[H])c4N([H])[H])C3([H])[H])c([H])c([H])c2C1([H])[H]

>  <smiles>  (15) 
[H]c1c([H])c([H])c2c(c1[H])C([H])([H])C([H])([H])C([H])([H])C2([H])N([H])C(=O)C1([H])N(C(=O)C([H])(N([H])C(=O)C([H])(N([H])C([H])([H])[H])C([H])([H])[H])C(C([H])([H])[H])(C([H])([H])[H])C([H])([H])[H])C([H])([H])c2c([H])c(OC([H])([H])C([H])([H])C([H])([H])[N+]3([H])C([H])([H])C([H])([H])C([H])([H])C3([H])C([H])([H])C([H])([H])C([H])([H])N([H])C(=O)N3C([H])([H])C([H])([H])C([H])([H])C([H])(n4nc(-c5c([H])c([H])c(Oc6c([H])c([H])c(F)c([H])c6F)c([H])c5[H])c(C(=O)N([H])[H])c4N([H])[H])C3([H])[H])c([H])c([H])c2C1([H])[H]

$$$$
15:0:0
     RDKit          3D

 91 99  0  0  1  0  0  0  0  0999 V2000
  -29.1120  -20.4390   21.1110 N   0  0  0  0  0  4  0  0  0  0  0  0
  -29.2410  -20.6010   22.0980 H   0  0  0  0  0  0  0  0  0  0  0  0
  -28.1430  -20.2030   20.9700 H   0  0  0  0  0  0  0  0  0  0  0  0
  -30.4080  -17.4120   19.2360 C   0  0  0  0  0  2  0  0  0  0  0  0
  -29.8330  -18.8370   19.2740 C   0  0  0  0  0  2  0  0  0  0  0  0
  -29.7080  -17.9750   21.5060 C   0  0  0  0  0  2  0  0  0  0  0  0
  -30.4910  -16.9170   20.7000 C   0  0  0  0  0  3  0  0  0  0  0  0
  -29.9740  -19.2850   20.7330 C   0  0  0  0  0  3  0  0  0  0  0  0
  -30.7060  -14.4630   20.3950 C   0  0  0  0  0  0  0  0  0  0  0  0
  -30.3680  -12.3150   19.2480 C   0  0  0  0  0  2  0  0  0  0  0  0
  -29.4240  -12.5450   18.0510 C   0  0  0  0  0  2  0  0  0  0  0  0
  -27.9530  -12.4120   18.4910 C   0  0  0  0  0  2  0  0  0  0  0  0
  -27.6290  -13.2400   19.7640 C   0  0  0  0  0  3  0  0  0  0  0  0
  -28.6920  -13.0160   20.8640 C   0  0  0  0  0  2  0  0  0  0  0  0
  -30.0120  -13.3000   20.2820 N   0  0  0  0  0  0  0  0  0  0  0  0
  -31.8420  -14.6090   19.9370 O   0  0  0  0  0  0  0  0  0  0  0  0
  -30.0150  -15.5270   20.8480 N   0  0  0  0  0  0  0  0  0  0  0  0
  -29.0800  -15.3670   21.1920 H   0  0  0  0  0  0  0  0  0  0  0  0
  -25.2340  -13.8430   20.4850 C   0  0  0  0  0  0  0  0  0  0  0  0
  -24.1690  -13.0690   20.8620 C   0  0  0  0  0  0  0  0  0  0  0  0
  -24.6320  -11.7180   20.8300 C   0  0  0  0  0  0  0  0  0  0  0  0
  -26.2790  -12.9640   20.2510 N   0  0  0  0  0  0  0  0  0  0  0  0
  -25.9210  -11.6800   20.5160 N   0  0  0  0  0  0  0  0  0  0  0  0
  -23.9090  -10.4540   21.0260 C   0  0  0  0  0  0  0  0  0  0  0  0
  -24.3510   -9.4860   21.9540 C   0  0  0  0  0  3  0  0  0  0  0  0
  -23.6290   -8.2880   22.1370 C   0  0  0  0  0  3  0  0  0  0  0  0
  -22.4490   -8.0490   21.3920 C   0  0  0  0  0  0  0  0  0  0  0  0
  -22.0260   -9.0060   20.4540 C   0  0  0  0  0  3  0  0  0  0  0  0
  -22.7490  -10.1960   20.2680 C   0  0  0  0  0  3  0  0  0  0  0  0
  -21.6970   -6.9030   21.4860 O   0  0  0  0  0  0  0  0  0  0  0  0
  -21.6640   -6.1540   22.6350 C   0  0  0  0  0  0  0  0  0  0  0  0
  -21.2540   -6.7040   23.8700 C   0  0  0  0  0  3  0  0  0  0  0  0
  -21.1690   -5.8820   25.0110 C   0  0  0  0  0  3  0  0  0  0  0  0
  -21.4840   -4.5120   24.9200 C   0  0  0  0  0  0  0  0  0  0  0  0
  -21.8870   -3.9630   23.6900 C   0  0  0  0  0  3  0  0  0  0  0  0
  -21.9740   -4.7820   22.5500 C   0  0  0  0  0  0  0  0  0  0  0  0
  -22.3420   -4.2440   21.3630 F   0  0  0  0  0  0  0  0  0  0  0  0
  -21.3940   -3.7220   26.0150 F   0  0  0  0  0  0  0  0  0  0  0  0
  -22.7730  -13.5450   21.1410 C   0  0  0  0  0  0  0  0  0  0  0  0
  -22.0500  -12.8470   22.0120 N   0  0  0  0  0  0  0  0  0  0  0  0
  -22.3310  -14.5700   20.6240 O   0  0  0  0  0  0  0  0  0  0  0  0
  -22.4200  -12.0180   22.4520 H   0  0  0  0  0  0  0  0  0  0  0  0
  -21.1140  -13.1470   22.2410 H   0  0  0  0  0  0  0  0  0  0  0  0
  -25.3960  -15.2130   20.3050 N   0  0  0  0  0  0  0  0  0  0  0  0
  -24.6260  -15.8650   20.4120 H   0  0  0  0  0  0  0  0  0  0  0  0
  -26.2400  -15.6500   19.9570 H   0  0  0  0  0  0  0  0  0  0  0  0
  -29.4150  -21.7120   20.4010 C   0  0  0  0  0  2  0  0  0  0  0  0
  -28.7060  -22.9390   21.0260 C   0  0  0  0  0  2  0  0  0  0  0  0
  -28.9400  -24.2730   20.2700 C   0  0  0  0  0  2  0  0  0  0  0  0
  -28.3000  -25.4840   20.9850 C   0  0  0  0  0  2  0  0  0  0  0  0
  -28.4210  -26.7040   20.2370 O   0  0  0  0  0  0  0  0  0  0  0  0
  -24.5950  -31.8970   23.2480 C   0  0  0  0  0  0  0  0  0  0  0  0
  -27.2680  -27.4550   20.2100 C   0  0  0  0  0  0  0  0  0  0  0  0
  -23.4000  -30.4820   21.6080 C   0  0  0  0  0  3  0  0  0  0  0  0
  -24.8680  -28.9440   20.1950 C   0  0  0  0  0  0  0  0  0  0  0  0
  -25.9250  -30.8540   21.4160 C   0  0  0  0  0  2  0  0  0  0  0  0
  -26.0210  -29.4800   20.7840 C   0  0  0  0  0  0  0  0  0  0  0  0
  -27.2270  -28.7450   20.7850 C   0  0  0  0  0  3  0  0  0  0  0  0
  -26.1030  -26.9320   19.6100 C   0  0  0  0  0  3  0  0  0  0  0  0
  -24.9040  -27.6690   19.6030 C   0  0  0  0  0  3  0  0  0  0  0  0
  -23.6190  -29.7940   20.2320 C   0  0  0  0  0  2  0  0  0  0  0  0
  -24.6580  -31.0920   22.1500 N   0  0  0  0  0  0  0  0  0  0  0  0
  -23.5100  -32.1670   23.7830 O   0  0  0  0  0  0  0  0  0  0  0  0
  -22.7500  -29.4630   22.5710 C   0  0  0  0  0  0  0  0  0  0  0  0
  -21.4260  -29.2750   22.4370 N   0  0  0  0  0  0  0  0  0  0  0  0
  -23.4330  -28.8440   23.3920 O   0  0  0  0  0  0  0  0  0  0  0  0
  -20.9380  -29.8250   21.7450 H   0  0  0  0  0  0  0  0  0  0  0  0
  -18.0560  -28.0660   22.9140 C   0  0  0  0  0  0  0  0  0  0  0  0
  -20.6090  -28.3380   23.2070 C   0  0  0  0  0  3  0  0  0  0  0  0
  -20.7240  -26.9040   22.6420 C   0  0  0  0  0  2  0  0  0  0  0  0
  -19.6330  -26.5680   21.6210 C   0  0  0  0  0  2  0  0  0  0  0  0
  -18.2450  -26.7120   22.2510 C   0  0  0  0  0  2  0  0  0  0  0  0
  -19.1670  -28.8360   23.3490 C   0  0  0  0  0  0  0  0  0  0  0  0
  -18.9370  -30.1040   23.9260 C   0  0  0  0  0  3  0  0  0  0  0  0
  -17.6280  -30.6010   24.0750 C   0  0  0  0  0  3  0  0  0  0  0  0
  -16.5310  -29.8270   23.6580 C   0  0  0  0  0  3  0  0  0  0  0  0
  -16.7460  -28.5620   23.0840 C   0  0  0  0  0  3  0  0  0  0  0  0
  -25.8760  -32.5350   23.8700 C   0  0  0  0  0  3  0  0  0  0  0  0
  -25.5640  -33.9350   24.1870 N   0  0  0  0  0  0  0  0  0  0  0  0
  -25.9020  -34.9810   23.4210 C   0  0  0  0  0  0  0  0  0  0  0  0
  -26.5810  -34.8690   22.3970 O   0  0  0  0  0  0  0  0  0  0  0  0
  -24.9620  -34.0950   24.9820 H   0  0  0  0  0  0  0  0  0  0  0  0
  -24.1780  -36.7690   23.0320 C   0  0  0  0  0  1  0  0  0  0  0  0
  -25.4090  -36.3720   23.8620 C   0  0  0  0  0  3  0  0  0  0  0  0
  -27.5330  -37.2610   24.7110 C   0  0  0  0  0  1  0  0  0  0  0  0
  -26.4430  -37.4240   23.7550 N   0  0  0  0  0  0  0  0  0  0  0  0
  -26.0350  -38.3450   23.8910 H   0  0  0  0  0  0  0  0  0  0  0  0
  -26.3910  -31.7720   25.1520 C   0  0  1  0  0  0  0  0  0  0  0  0
  -25.2950  -31.5390   26.2180 C   0  0  0  0  0  1  0  0  0  0  0  0
  -26.9780  -30.3940   24.7680 C   0  0  0  0  0  1  0  0  0  0  0  0
  -27.5380  -32.5730   25.8140 C   0  0  0  0  0  1  0  0  0  0  0  0
  1  2  1  0
  3  1  1  0
  4  5  1  0
  4  7  1  0
  5  8  1  0
  7 17  1  0
  7  6  1  0
  8  1  1  0
  8  6  1  0
  9 17  1  0
 10 15  1  0
 11 12  1  0
 11 10  1  0
 13 12  1  0
 13 22  1  0
 13 14  1  0
 15  9  1  0
 15 14  1  0
 16  9  2  0
 17 18  1  0
 19 20  2  0
 20 39  1  0
 21 20  1  0
 21 24  1  0
 22 19  1  0
 22 23  1  0
 23 21  2  0
 24 25  1  0
 25 26  2  0
 27 30  1  0
 27 26  1  0
 28 27  2  0
 29 28  1  0
 29 24  2  0
 30 31  1  0
 31 32  1  0
 32 33  2  0
 34 33  1  0
 34 38  1  0
 35 34  2  0
 36 31  2  0
 36 35  1  0
 37 36  1  0
 39 40  1  0
 40 43  1  0
 40 42  1  0
 41 39  2  0
 44 45  1  0
 44 19  1  0
 46 44  1  0
 47 48  1  0
 47  1  1  0
 49 50  1  0
 49 48  1  0
 51 50  1  0
 52 63  2  0
 53 51  1  0
 53 58  1  0
 54 62  1  0
 54 64  1  0
 55 61  1  0
 55 57  1  0
 56 62  1  0
 57 58  2  0
 57 56  1  0
 59 53  2  0
 60 59  1  0
 60 55  2  0
 61 54  1  0
 62 52  1  0
 64 66  2  0
 65 64  1  0
 67 65  1  0
 68 77  2  0
 68 73  1  0
 69 65  1  0
 69 73  1  0
 70 69  1  0
 71 72  1  0
 71 70  1  0
 72 68  1  0
 73 74  2  0
 74 75  1  0
 76 75  2  0
 77 76  1  0
 78 52  1  0
 78 79  1  0
 78 88  1  0
 79 82  1  0
 80 84  1  0
 80 79  1  0
 81 80  2  0
 84 83  1  0
 86 84  1  0
 86 87  1  0
 86 85  1  0
 88 91  1  1
 88 89  1  0
 90 88  1  0
M  ISO  4   9 100  17 100  50 101  51 101
M  END
>  <TORSDO>  (16) 
F 21

>  <SCORE>  (16) 
-13.397

>  <name>  (16) 
15

>  <ligand_id>  (16) 
15

>  <original_smiles>  (16) 
[H]c1c([H])c([H])c2c(c1[H])C([H])([H])C([H])([H])C([H])([H])C2([H])N([H])C(=O)C1([H])N(C(=O)C([H])(N([H])C(=O)C([H])(N([H])C([H])([H])[H])C([H])([H])[H])C(C([H])([H])[H])(C([H])([H])[H])C([H])([H])[H])C([H])([H])c2c([H])c(OC([H])([H])C([H])([H])C([H])([H])C([H])([H])[N+]([H])([H])C3([H])C([H])([H])C([H])([H])C([H])(N([H])C(=O)N4C([H])([H])C([H])([H])C([H])([H])C([H])(n5nc(-c6c([H])c([H])c(Oc7c([H])c([H])c(F)c([H])c7F)c([H])c6[H])c(C(=O)N([H])[H])c5N([H])[H])C4([H])[H])C3([H])[H])c([H])c([H])c2C1([H])[H]

>  <smiles>  (16) 
[H]c1c([H])c([H])c2c(c1[H])C([H])([H])C([H])([H])C([H])([H])C2([H])N([H])C(=O)C1([H])N(C(=O)C([H])(N([H])C(=O)C([H])(N([H])C([H])([H])[H])C([H])([H])[H])C(C([H])([H])[H])(C([H])([H])[H])C([H])([H])[H])C([H])([H])c2c([H])c(OC([H])([H])C([H])([H])C([H])([H])C([H])([H])[N+]([H])([H])C3([H])C([H])([H])C([H])([H])C([H])(N([H])C(=O)N4C([H])([H])C([H])([H])C([H])([H])C([H])(n5nc(-c6c([H])c([H])c(Oc7c([H])c([H])c(F)c([H])c7F)c([H])c6[H])c(C(=O)N([H])[H])c5N([H])[H])C4([H])[H])C3([H])[H])c([H])c([H])c2C1([H])[H]

$$$$
16:0:0
     RDKit          3D

 92100  0  0  1  0  0  0  0  0999 V2000
  -29.6950  -20.5410   20.2600 N   0  0  0  0  0  4  0  0  0  0  0  0
  -30.4250  -20.7450   19.5960 H   0  0  0  0  0  0  0  0  0  0  0  0
  -30.1200  -20.6510   21.1670 H   0  0  0  0  0  0  0  0  0  0  0  0
  -30.6880  -15.1080   20.0930 C   0  0  0  0  0  0  0  0  0  0  0  0
  -30.5150  -12.7730   19.1010 C   0  0  0  0  0  2  0  0  0  0  0  0
  -29.5510  -12.7210   17.8950 C   0  0  0  0  0  2  0  0  0  0  0  0
  -28.1040  -12.4840   18.3650 C   0  0  0  0  0  2  0  0  0  0  0  0
  -27.7220  -13.3820   19.5700 C   0  0  0  0  0  3  0  0  0  0  0  0
  -28.8140  -13.3950   20.6610 C   0  0  0  0  0  2  0  0  0  0  0  0
  -30.0510  -13.8620   20.0150 N   0  0  0  0  0  0  0  0  0  0  0  0
  -31.8800  -15.1140   19.7650 O   0  0  0  0  0  0  0  0  0  0  0  0
  -28.6530  -18.2520   21.2390 C   0  0  0  0  0  2  0  0  0  0  0  0
  -28.7900  -16.6920   21.0040 C   0  0  0  0  0  2  0  0  0  0  0  0
  -30.5060  -17.8020   19.8750 C   0  0  0  0  0  3  0  0  0  0  0  0
  -29.3670  -18.9790   20.0840 C   0  0  0  0  0  3  0  0  0  0  0  0
  -30.0060  -16.3720   20.2250 N   0  0  0  0  0  0  0  0  0  0  0  0
  -25.3570  -13.9150   20.3840 C   0  0  0  0  0  0  0  0  0  0  0  0
  -24.3150  -13.1210   20.7750 C   0  0  0  0  0  0  0  0  0  0  0  0
  -24.7970  -11.7780   20.7120 C   0  0  0  0  0  0  0  0  0  0  0  0
  -26.4060  -13.0570   20.1050 N   0  0  0  0  0  0  0  0  0  0  0  0
  -26.0810  -11.7650   20.3670 N   0  0  0  0  0  0  0  0  0  0  0  0
  -24.0920  -10.5050   20.9010 C   0  0  0  0  0  0  0  0  0  0  0  0
  -24.5120   -9.5640   21.8670 C   0  0  0  0  0  3  0  0  0  0  0  0
  -23.8040   -8.3550   22.0440 C   0  0  0  0  0  3  0  0  0  0  0  0
  -22.6590   -8.0810   21.2560 C   0  0  0  0  0  0  0  0  0  0  0  0
  -22.2590   -9.0110   20.2810 C   0  0  0  0  0  3  0  0  0  0  0  0
  -22.9700  -10.2110   20.1020 C   0  0  0  0  0  3  0  0  0  0  0  0
  -21.9240   -6.9240   21.3420 O   0  0  0  0  0  0  0  0  0  0  0  0
  -21.7770   -6.2510   22.5280 C   0  0  0  0  0  0  0  0  0  0  0  0
  -21.1980   -6.8590   23.6630 C   0  0  0  0  0  3  0  0  0  0  0  0
  -21.0020   -6.1100   24.8400 C   0  0  0  0  0  3  0  0  0  0  0  0
  -21.3750   -4.7530   24.8820 C   0  0  0  0  0  0  0  0  0  0  0  0
  -21.9460   -4.1430   23.7510 C   0  0  0  0  0  3  0  0  0  0  0  0
  -22.1440   -4.8900   22.5770 C   0  0  0  0  0  0  0  0  0  0  0  0
  -22.6750   -4.2930   21.4830 F   0  0  0  0  0  0  0  0  0  0  0  0
  -21.1790   -4.0310   26.0110 F   0  0  0  0  0  0  0  0  0  0  0  0
  -22.9200  -13.5770   21.0880 C   0  0  0  0  0  0  0  0  0  0  0  0
  -22.2280  -12.8680   21.9710 N   0  0  0  0  0  0  0  0  0  0  0  0
  -22.4550  -14.6010   20.5850 O   0  0  0  0  0  0  0  0  0  0  0  0
  -22.6190  -12.0420   22.3980 H   0  0  0  0  0  0  0  0  0  0  0  0
  -21.2920  -13.1560   22.2240 H   0  0  0  0  0  0  0  0  0  0  0  0
  -25.4840  -15.2890   20.2130 N   0  0  0  0  0  0  0  0  0  0  0  0
  -24.7000  -15.9170   20.3430 H   0  0  0  0  0  0  0  0  0  0  0  0
  -26.2930  -15.7430   19.8110 H   0  0  0  0  0  0  0  0  0  0  0  0
  -31.0970  -17.8290   18.4720 C   0  0  0  0  0  0  0  0  0  0  0  0
  -32.2620  -18.2460   18.2180 N   0  0  0  0  0  0  0  0  0  0  0  0
  -30.3440  -17.3850   17.4510 F   0  0  0  0  0  0  0  0  0  0  0  0
  -32.7450  -18.5380   19.0590 H   0  0  0  0  0  0  0  0  0  0  0  0
  -28.6680  -21.7480   20.0880 C   0  0  0  0  0  2  0  0  0  0  0  0
  -29.0680  -23.3930   20.2810 C   0  0  0  0  0  3  0  0  0  0  0  0
  -28.0370  -24.7200   20.0430 C   0  0  0  0  0  3  0  0  0  0  0  0
  -28.2980  -26.2490   20.2720 O   0  0  0  0  0  0  0  0  0  0  0  0
  -24.6570  -31.9200   23.2950 C   0  0  0  0  0  0  0  0  0  0  0  0
  -27.2400  -27.2340   20.2160 C   0  0  0  0  0  0  0  0  0  0  0  0
  -23.4580  -30.5390   21.6450 C   0  0  0  0  0  3  0  0  0  0  0  0
  -24.9060  -28.9800   20.2020 C   0  0  0  0  0  0  0  0  0  0  0  0
  -26.0120  -30.8090   21.4780 C   0  0  0  0  0  2  0  0  0  0  0  0
  -26.0860  -29.4230   20.8120 C   0  0  0  0  0  0  0  0  0  0  0  0
  -27.2540  -28.5670   20.7990 C   0  0  0  0  0  3  0  0  0  0  0  0
  -26.0290  -26.8960   19.5700 C   0  0  0  0  0  3  0  0  0  0  0  0
  -24.8890  -27.7300   19.5670 C   0  0  0  0  0  3  0  0  0  0  0  0
  -23.6780  -29.8760   20.2590 C   0  0  0  0  0  2  0  0  0  0  0  0
  -24.7280  -31.1120   22.1940 N   0  0  0  0  0  0  0  0  0  0  0  0
  -23.5710  -32.1980   23.8280 O   0  0  0  0  0  0  0  0  0  0  0  0
  -22.7810  -29.5220   22.5980 C   0  0  0  0  0  0  0  0  0  0  0  0
  -21.4550  -29.3430   22.4620 N   0  0  0  0  0  0  0  0  0  0  0  0
  -23.4520  -28.8980   23.4230 O   0  0  0  0  0  0  0  0  0  0  0  0
  -20.9710  -29.8990   21.7720 H   0  0  0  0  0  0  0  0  0  0  0  0
  -18.0790  -28.1170   22.9420 C   0  0  0  0  0  0  0  0  0  0  0  0
  -20.6350  -28.3960   23.2240 C   0  0  0  0  0  3  0  0  0  0  0  0
  -20.7500  -26.9680   22.6430 C   0  0  0  0  0  2  0  0  0  0  0  0
  -19.6560  -26.6420   21.6220 C   0  0  0  0  0  2  0  0  0  0  0  0
  -18.2690  -26.7730   22.2600 C   0  0  0  0  0  2  0  0  0  0  0  0
  -19.1910  -28.8850   23.3810 C   0  0  0  0  0  0  0  0  0  0  0  0
  -18.9570  -30.1420   23.9820 C   0  0  0  0  0  3  0  0  0  0  0  0
  -17.6480  -30.6290   24.1480 C   0  0  0  0  0  3  0  0  0  0  0  0
  -16.5520  -29.8590   23.7240 C   0  0  0  0  0  3  0  0  0  0  0  0
  -16.7680  -28.6040   23.1260 C   0  0  0  0  0  3  0  0  0  0  0  0
  -25.9350  -32.5530   23.9280 C   0  0  0  0  0  3  0  0  0  0  0  0
  -26.4250  -31.7950   25.2240 C   0  0  1  0  0  0  0  0  0  0  0  0
  -25.3130  -31.5810   26.2780 C   0  0  0  0  0  1  0  0  0  0  0  0
  -27.0040  -30.4070   24.8640 C   0  0  0  0  0  1  0  0  0  0  0  0
  -27.5700  -32.5900   25.8920 C   0  0  0  0  0  1  0  0  0  0  0  0
  -25.6310  -33.9580   24.2420 N   0  0  0  0  0  0  0  0  0  0  0  0
  -25.9380  -35.0010   23.4590 C   0  0  0  0  0  0  0  0  0  0  0  0
  -26.5750  -34.8810   22.4090 O   0  0  0  0  0  0  0  0  0  0  0  0
  -25.0630  -34.1240   25.0600 H   0  0  0  0  0  0  0  0  0  0  0  0
  -24.1790  -36.7760   23.1660 C   0  0  0  0  0  1  0  0  0  0  0  0
  -25.4700  -36.3980   23.9120 C   0  0  0  0  0  3  0  0  0  0  0  0
  -27.6360  -37.3250   24.6020 C   0  0  0  0  0  1  0  0  0  0  0  0
  -26.4850  -37.4550   23.7130 N   0  0  0  0  0  0  0  0  0  0  0  0
  -26.0790  -38.3760   23.8510 H   0  0  0  0  0  0  0  0  0  0  0  0
  1  3  1  0
  2  1  1  0
  4 16  1  0
  5 10  1  0
  6  7  1  0
  6  5  1  0
  8  7  1  0
  8 20  1  0
  8  9  1  0
 10  4  1  0
 10  9  1  0
 11  4  2  0
 13 12  1  0
 14 45  1  0
 14 15  1  0
 14 16  1  0
 15  1  1  0
 15 12  1  0
 16 13  1  0
 17 18  2  0
 18 37  1  0
 19 18  1  0
 19 22  1  0
 20 21  1  0
 20 17  1  0
 21 19  2  0
 22 23  1  0
 23 24  2  0
 25 28  1  0
 25 24  1  0
 26 25  2  0
 27 26  1  0
 27 22  2  0
 28 29  1  0
 29 34  2  0
 29 30  1  0
 30 31  2  0
 31 32  1  0
 32 36  1  0
 33 32  2  0
 34 33  1  0
 35 34  1  0
 37 38  1  0
 38 41  1  0
 38 40  1  0
 39 37  2  0
 42 43  1  0
 42 17  1  0
 44 42  1  0
 46 45  2  0
 46 48  1  0
 47 45  1  0
 49  1  1  0
 49 50  1  0
 51 52  1  0
 51 50  2  0
 53 64  2  0
 54 52  1  0
 54 59  1  0
 55 63  1  0
 55 65  1  0
 56 62  1  0
 56 58  1  0
 57 63  1  0
 58 57  1  0
 59 58  2  0
 60 54  2  0
 61 60  1  0
 61 56  2  0
 62 55  1  0
 63 53  1  0
 65 67  2  0
 66 65  1  0
 68 66  1  0
 69 78  2  0
 69 74  1  0
 70 66  1  0
 70 74  1  0
 71 70  1  0
 72 73  1  0
 72 71  1  0
 73 69  1  0
 74 75  2  0
 75 76  1  0
 77 76  2  0
 78 77  1  0
 79 53  1  0
 79 84  1  0
 79 80  1  0
 80 83  1  1
 80 81  1  0
 82 80  1  0
 84 87  1  0
 85 89  1  0
 85 84  1  0
 86 85  2  0
 89 88  1  0
 91 92  1  0
 91 89  1  0
 91 90  1  0
M  ISO  4   4 100  16 100  51 101  52 101
M  END
>  <TORSDO>  (17) 
F 20

>  <SCORE>  (17) 
-13.991

>  <name>  (17) 
16

>  <ligand_id>  (17) 
16

>  <original_smiles>  (17) 
[H]N=C(F)C1([H])N(C(=O)N2C([H])([H])C([H])([H])C([H])([H])C([H])(n3nc(-c4c([H])c([H])c(Oc5c([H])c([H])c(F)c([H])c5F)c([H])c4[H])c(C(=O)N([H])[H])c3N([H])[H])C2([H])[H])C([H])([H])C([H])([H])C1([H])[N+]([H])([H])C([H])([H])C([H])([H])C([H])([H])Oc1c([H])c([H])c2c(c1[H])C([H])([H])N(C(=O)C([H])(N([H])C(=O)C([H])(N([H])C([H])([H])[H])C([H])([H])[H])C(C([H])([H])[H])(C([H])([H])[H])C([H])([H])[H])C([H])(C(=O)N([H])C1([H])c3c([H])c([H])c([H])c([H])c3C([H])([H])C([H])([H])C1([H])[H])C2([H])[H]

>  <smiles>  (17) 
[H]N=C(F)C1([H])N(C(=O)N2C([H])([H])C([H])([H])C([H])([H])C([H])(n3nc(-c4c([H])c([H])c(Oc5c([H])c([H])c(F)c([H])c5F)c([H])c4[H])c(C(=O)N([H])[H])c3N([H])[H])C2([H])[H])C([H])([H])C([H])([H])C1([H])[N+]([H])([H])C([H])([H])C([H])([H])C([H])([H])Oc1c([H])c([H])c2c(c1[H])C([H])([H])N(C(=O)C([H])(N([H])C(=O)C([H])(N([H])C([H])([H])[H])C([H])([H])[H])C(C([H])([H])[H])(C([H])([H])[H])C([H])([H])[H])C([H])(C(=O)N([H])C1([H])c3c([H])c([H])c([H])c([H])c3C([H])([H])C([H])([H])C1([H])[H])C2([H])[H]

$$$$
17:0:0
     RDKit          3D

 93101  0  0  1  0  0  0  0  0999 V2000
  -31.1550  -22.8360   18.9180 C   0  0  0  0  0  1  0  0  0  0  0  0
  -29.7360  -22.2470   19.0880 C   0  0  0  0  0  3  0  0  0  0  0  0
  -28.8650  -23.0860   20.0400 C   0  0  0  0  0  2  0  0  0  0  0  0
  -28.5810  -24.4960   19.5380 C   0  0  0  0  0  0  0  0  0  0  0  0
  -28.4840  -24.7570   18.3330 O   0  0  0  0  0  0  0  0  0  0  0  0
  -28.4060  -25.5560   20.6170 C   0  0  0  0  0  2  0  0  0  0  0  0
  -28.4190  -26.8500   20.0370 O   0  0  0  0  0  0  0  0  0  0  0  0
  -24.6060  -31.8870   23.1920 C   0  0  0  0  0  0  0  0  0  0  0  0
  -27.2200  -27.5060   20.0630 C   0  0  0  0  0  0  0  0  0  0  0  0
  -23.3730  -30.4840   21.5670 C   0  0  0  0  0  3  0  0  0  0  0  0
  -24.8070  -28.9530   20.1190 C   0  0  0  0  0  0  0  0  0  0  0  0
  -25.8860  -30.8680   21.3170 C   0  0  0  0  0  2  0  0  0  0  0  0
  -25.9670  -29.5000   20.6810 C   0  0  0  0  0  0  0  0  0  0  0  0
  -27.1780  -28.7850   20.6460 C   0  0  0  0  0  3  0  0  0  0  0  0
  -26.0460  -26.9530   19.5060 C   0  0  0  0  0  3  0  0  0  0  0  0
  -24.8380  -27.6760   19.5290 C   0  0  0  0  0  3  0  0  0  0  0  0
  -23.5580  -29.8010   20.1840 C   0  0  0  0  0  2  0  0  0  0  0  0
  -24.6410  -31.0930   22.0850 N   0  0  0  0  0  0  0  0  0  0  0  0
  -23.5340  -32.1550   23.7520 O   0  0  0  0  0  0  0  0  0  0  0  0
  -22.7440  -29.4590   22.5370 C   0  0  0  0  0  0  0  0  0  0  0  0
  -21.4190  -29.2740   22.4290 N   0  0  0  0  0  0  0  0  0  0  0  0
  -23.4440  -28.8320   23.3370 O   0  0  0  0  0  0  0  0  0  0  0  0
  -20.9190  -29.8330   21.7520 H   0  0  0  0  0  0  0  0  0  0  0  0
  -18.0540  -28.0760   22.9640 C   0  0  0  0  0  0  0  0  0  0  0  0
  -20.6140  -28.3360   23.2090 C   0  0  0  0  0  3  0  0  0  0  0  0
  -20.7120  -26.9060   22.6300 C   0  0  0  0  0  2  0  0  0  0  0  0
  -19.5990  -26.5820   21.6280 C   0  0  0  0  0  2  0  0  0  0  0  0
  -18.2250  -26.7270   22.2870 C   0  0  0  0  0  2  0  0  0  0  0  0
  -19.1760  -28.8390   23.3810 C   0  0  0  0  0  0  0  0  0  0  0  0
  -18.9630  -30.1050   23.9700 C   0  0  0  0  0  3  0  0  0  0  0  0
  -17.6600  -30.6050   24.1490 C   0  0  0  0  0  3  0  0  0  0  0  0
  -16.5530  -29.8380   23.7480 C   0  0  0  0  0  3  0  0  0  0  0  0
  -16.7510  -28.5760   23.1600 C   0  0  0  0  0  3  0  0  0  0  0  0
  -25.9030  -32.5160   23.7910 C   0  0  0  0  0  3  0  0  0  0  0  0
  -25.5940  -33.9060   24.1500 N   0  0  0  0  0  0  0  0  0  0  0  0
  -25.9070  -34.9710   23.4000 C   0  0  0  0  0  0  0  0  0  0  0  0
  -26.5600  -34.8870   22.3560 O   0  0  0  0  0  0  0  0  0  0  0  0
  -25.0110  -34.0450   24.9630 H   0  0  0  0  0  0  0  0  0  0  0  0
  -24.1620  -36.7560   23.1000 C   0  0  0  0  0  1  0  0  0  0  0  0
  -25.4180  -36.3470   23.8860 C   0  0  0  0  0  3  0  0  0  0  0  0
  -27.5620  -37.2280   24.6950 C   0  0  0  0  0  1  0  0  0  0  0  0
  -26.4420  -37.4100   23.7760 N   0  0  0  0  0  0  0  0  0  0  0  0
  -26.0320  -38.3240   23.9500 H   0  0  0  0  0  0  0  0  0  0  0  0
  -26.4590  -31.7270   25.0400 C   0  0  1  0  0  0  0  0  0  0  0  0
  -25.3960  -31.4570   26.1300 C   0  0  0  0  0  1  0  0  0  0  0  0
  -27.0420  -30.3630   24.6010 C   0  0  0  0  0  1  0  0  0  0  0  0
  -27.6210  -32.5180   25.6860 C   0  0  0  0  0  1  0  0  0  0  0  0
  -29.7930  -20.7910   19.5750 C   0  0  0  0  0  2  0  0  0  0  0  0
  -30.0880  -19.8330   18.4150 C   0  0  0  0  0  2  0  0  0  0  0  0
  -30.7540  -14.5030   20.7150 C   0  0  0  0  0  0  0  0  0  0  0  0
  -30.4830  -12.2590   19.8160 C   0  0  0  0  0  2  0  0  0  0  0  0
  -29.6080  -12.3150   18.5420 C   0  0  0  0  0  2  0  0  0  0  0  0
  -28.1140  -12.2570   18.8930 C   0  0  0  0  0  2  0  0  0  0  0  0
  -27.6990  -13.2090   20.0460 C   0  0  0  0  0  3  0  0  0  0  0  0
  -28.6950  -13.1440   21.2280 C   0  0  0  0  0  2  0  0  0  0  0  0
  -30.0500  -13.3460   20.6990 N   0  0  0  0  0  0  0  0  0  0  0  0
  -31.9770  -14.5370   20.8340 O   0  0  0  0  0  0  0  0  0  0  0  0
  -31.9620  -16.5390   18.3760 C   0  0  0  0  0  2  0  0  0  0  0  0
  -30.9030  -15.4440   18.4900 C   0  0  0  0  0  2  0  0  0  0  0  0
  -29.4460  -16.5350   20.2500 C   0  0  0  0  0  2  0  0  0  0  0  0
  -31.3600  -17.8490   17.8900 C   0  0  0  0  0  2  0  0  0  0  0  0
  -29.2230  -17.6510   19.1930 C   0  0  0  0  0  2  0  0  0  0  0  0
  -30.2540  -15.3840   19.8170 N   0  0  0  0  0  0  0  0  0  0  0  0
  -30.4360  -18.4670   18.8730 N   0  0  2  0  0  4  0  0  0  0  0  0
  -30.9610  -18.5840   19.7270 H   0  0  0  0  0  0  0  0  0  0  0  0
  -25.2640  -13.8330   20.6050 C   0  0  0  0  0  0  0  0  0  0  0  0
  -24.1750  -13.0650   20.9190 C   0  0  0  0  0  0  0  0  0  0  0  0
  -24.6410  -11.7160   20.9590 C   0  0  0  0  0  0  0  0  0  0  0  0
  -26.3240  -12.9500   20.4680 N   0  0  0  0  0  0  0  0  0  0  0  0
  -25.9490  -11.6750   20.7480 N   0  0  0  0  0  0  0  0  0  0  0  0
  -23.9090  -10.4540   21.1250 C   0  0  0  0  0  0  0  0  0  0  0  0
  -24.3020   -9.4950   22.0850 C   0  0  0  0  0  3  0  0  0  0  0  0
  -23.5720   -8.2970   22.2410 C   0  0  0  0  0  3  0  0  0  0  0  0
  -22.4340   -8.0500   21.4370 C   0  0  0  0  0  0  0  0  0  0  0  0
  -22.0620   -8.9970   20.4660 C   0  0  0  0  0  3  0  0  0  0  0  0
  -22.7940  -10.1860   20.3080 C   0  0  0  0  0  3  0  0  0  0  0  0
  -21.6790   -6.9050   21.5010 O   0  0  0  0  0  0  0  0  0  0  0  0
  -21.6010   -6.1580   22.6490 C   0  0  0  0  0  0  0  0  0  0  0  0
  -21.1620   -6.7130   23.8720 C   0  0  0  0  0  3  0  0  0  0  0  0
  -21.0320   -5.8930   25.0110 C   0  0  0  0  0  3  0  0  0  0  0  0
  -21.3290   -4.5200   24.9280 C   0  0  0  0  0  0  0  0  0  0  0  0
  -21.7610   -3.9640   23.7110 C   0  0  0  0  0  3  0  0  0  0  0  0
  -21.8930   -4.7810   22.5750 C   0  0  0  0  0  0  0  0  0  0  0  0
  -22.2900   -4.2360   21.3990 F   0  0  0  0  0  0  0  0  0  0  0  0
  -21.1960   -3.7300   26.0200 F   0  0  0  0  0  0  0  0  0  0  0  0
  -22.7600  -13.5410   21.0750 C   0  0  0  0  0  0  0  0  0  0  0  0
  -21.9740  -12.8650   21.9070 N   0  0  0  0  0  0  0  0  0  0  0  0
  -22.3560  -14.5480   20.4960 O   0  0  0  0  0  0  0  0  0  0  0  0
  -22.3130  -12.0510   22.3980 H   0  0  0  0  0  0  0  0  0  0  0  0
  -21.0210  -13.1660   22.0520 H   0  0  0  0  0  0  0  0  0  0  0  0
  -25.4380  -15.1980   20.3980 N   0  0  0  0  0  0  0  0  0  0  0  0
  -24.6620  -15.8500   20.4310 H   0  0  0  0  0  0  0  0  0  0  0  0
  -26.3070  -15.6280   20.1120 H   0  0  0  0  0  0  0  0  0  0  0  0
  2  1  1  0
  2 48  1  0
  2  3  1  0
  4  3  1  0
  4  6  1  0
  5  4  2  0
  7  9  1  0
  7  6  1  0
  8 19  2  0
  9 14  1  0
 10 18  1  0
 10 20  1  0
 11 17  1  0
 11 13  1  0
 12 18  1  0
 13 12  1  0
 14 13  2  0
 15 16  1  0
 15  9  2  0
 16 11  2  0
 17 10  1  0
 18  8  1  0
 20 22  2  0
 21 20  1  0
 23 21  1  0
 24 33  2  0
 24 29  1  0
 25 21  1  0
 25 29  1  0
 26 25  1  0
 27 28  1  0
 27 26  1  0
 28 24  1  0
 29 30  2  0
 30 31  1  0
 32 31  2  0
 33 32  1  0
 34  8  1  0
 34 35  1  0
 34 44  1  0
 35 38  1  0
 36 40  1  0
 36 35  1  0
 37 36  2  0
 40 39  1  0
 42 40  1  0
 42 43  1  0
 42 41  1  0
 44 47  1  1
 44 45  1  0
 46 44  1  0
 49 64  1  0
 49 48  1  0
 50 57  2  0
 51 56  1  0
 52 53  1  0
 52 51  1  0
 54 53  1  0
 54 69  1  0
 54 55  1  0
 56 50  1  0
 56 55  1  0
 58 59  1  0
 59 63  1  0
 61 58  1  0
 61 64  1  0
 62 60  1  0
 63 60  1  0
 63 50  1  0
 64 62  1  0
 64 65  1  1
 66 67  2  0
 67 68  1  0
 67 86  1  0
 68 71  1  0
 69 66  1  0
 69 70  1  0
 70 68  2  0
 71 72  1  0
 72 73  2  0
 74 77  1  0
 74 73  1  0
 75 74  2  0
 76 75  1  0
 76 71  2  0
 77 78  1  0
 78 79  1  0
 79 80  2  0
 81 80  1  0
 81 85  1  0
 82 81  2  0
 83 78  2  0
 83 82  1  0
 84 83  1  0
 86 87  1  0
 87 90  1  0
 87 89  1  0
 88 86  2  0
 91 92  1  0
 91 66  1  0
 93 91  1  0
M  ISO  4   6 101   7 101  50 100  63 100
M  END
>  <TORSDO>  (18) 
F 21

>  <SCORE>  (18) 
-13.180

>  <name>  (18) 
17

>  <ligand_id>  (18) 
17

>  <original_smiles>  (18) 
[H]c1c([H])c([H])c2c(c1[H])C([H])([H])C([H])([H])C([H])([H])C2([H])N([H])C(=O)C1([H])N(C(=O)C([H])(N([H])C(=O)C([H])(N([H])C([H])([H])[H])C([H])([H])[H])C(C([H])([H])[H])(C([H])([H])[H])C([H])([H])[H])C([H])([H])c2c([H])c(OC([H])([H])C(=O)C([H])([H])C([H])(C([H])([H])[H])C([H])([H])C([H])([H])[N+]3([H])C([H])([H])C([H])([H])N(C(=O)N4C([H])([H])C([H])([H])C([H])([H])C([H])(n5nc(-c6c([H])c([H])c(Oc7c([H])c([H])c(F)c([H])c7F)c([H])c6[H])c(C(=O)N([H])[H])c5N([H])[H])C4([H])[H])C([H])([H])C([H])([H])C3([H])[H])c([H])c([H])c2C1([H])[H]

>  <smiles>  (18) 
[H]c1c([H])c([H])c2c(c1[H])C([H])([H])C([H])([H])C([H])([H])C2([H])N([H])C(=O)C1([H])N(C(=O)C([H])(N([H])C(=O)C([H])(N([H])C([H])([H])[H])C([H])([H])[H])C(C([H])([H])[H])(C([H])([H])[H])C([H])([H])[H])C([H])([H])c2c([H])c(OC([H])([H])C(=O)C([H])([H])C([H])(C([H])([H])[H])C([H])([H])C([H])([H])[N+]3([H])C([H])([H])C([H])([H])N(C(=O)N4C([H])([H])C([H])([H])C([H])([H])C([H])(n5nc(-c6c([H])c([H])c(Oc7c([H])c([H])c(F)c([H])c7F)c([H])c6[H])c(C(=O)N([H])[H])c5N([H])[H])C4([H])[H])C([H])([H])C([H])([H])C3([H])[H])c([H])c([H])c2C1([H])[H]

$$$$
18:0:0
     RDKit          3D

 95103  0  0  1  0  0  0  0  0999 V2000
  -31.2090  -23.1140   22.6530 C   0  0  0  0  0  2  0  0  0  0  0  0
  -32.2390  -20.8060   22.9870 C   0  0  0  0  0  2  0  0  0  0  0  0
  -30.0040  -20.9890   21.8640 C   0  0  0  0  0  2  0  0  0  0  0  0
  -31.9920  -19.2920   23.1720 C   0  0  0  0  0  2  0  0  0  0  0  0
  -29.8050  -19.4770   22.0880 C   0  0  0  0  0  2  0  0  0  0  0  0
  -30.9270  -21.6170   22.9310 C   0  0  0  0  0  3  0  0  0  0  0  0
  -31.1070  -18.7580   22.1030 N   0  0  2  0  0  4  0  0  0  0  0  0
  -31.5730  -18.9600   21.2310 H   0  0  0  0  0  0  0  0  0  0  0  0
  -30.9680  -17.2760   22.1470 C   0  0  0  0  0  2  0  0  0  0  0  0
  -30.3880  -16.7070   20.8340 C   0  0  0  0  0  2  0  0  0  0  0  0
  -30.7590  -14.3410   20.1400 C   0  0  0  0  0  0  0  0  0  0  0  0
  -30.3830  -12.2360   18.9170 C   0  0  0  0  0  2  0  0  0  0  0  0
  -29.3770  -12.4820   17.7740 C   0  0  0  0  0  2  0  0  0  0  0  0
  -27.9270  -12.3410   18.2770 C   0  0  0  0  0  2  0  0  0  0  0  0
  -27.6630  -13.1500   19.5750 C   0  0  0  0  0  3  0  0  0  0  0  0
  -28.7690  -12.8700   20.6190 C   0  0  0  0  0  2  0  0  0  0  0  0
  -30.0740  -13.1760   20.0030 N   0  0  0  0  0  0  0  0  0  0  0  0
  -31.8030  -14.5960   19.5340 O   0  0  0  0  0  0  0  0  0  0  0  0
  -30.1450  -15.2660   20.8900 N   0  0  0  0  0  0  0  0  0  0  0  0
  -29.3080  -14.9600   21.3670 H   0  0  0  0  0  0  0  0  0  0  0  0
  -25.2880  -13.7570   20.3680 C   0  0  0  0  0  0  0  0  0  0  0  0
  -24.2430  -12.9840   20.7990 C   0  0  0  0  0  0  0  0  0  0  0  0
  -24.7140  -11.6370   20.7730 C   0  0  0  0  0  0  0  0  0  0  0  0
  -26.3310  -12.8800   20.1110 N   0  0  0  0  0  0  0  0  0  0  0  0
  -25.9880  -11.6000   20.4090 N   0  0  0  0  0  0  0  0  0  0  0  0
  -24.0080  -10.3720   21.0190 C   0  0  0  0  0  0  0  0  0  0  0  0
  -24.4320   -9.4730   22.0220 C   0  0  0  0  0  3  0  0  0  0  0  0
  -23.7280   -8.2710   22.2510 C   0  0  0  0  0  3  0  0  0  0  0  0
  -22.5850   -7.9620   21.4780 C   0  0  0  0  0  0  0  0  0  0  0  0
  -22.1790   -8.8490   20.4660 C   0  0  0  0  0  3  0  0  0  0  0  0
  -22.8850  -10.0420   20.2350 C   0  0  0  0  0  3  0  0  0  0  0  0
  -21.8520   -6.8060   21.6130 O   0  0  0  0  0  0  0  0  0  0  0  0
  -21.7210   -6.1750   22.8240 C   0  0  0  0  0  0  0  0  0  0  0  0
  -21.1620   -6.8240   23.9460 C   0  0  0  0  0  3  0  0  0  0  0  0
  -20.9820   -6.1160   25.1510 C   0  0  0  0  0  3  0  0  0  0  0  0
  -21.3500   -4.7600   25.2340 C   0  0  0  0  0  0  0  0  0  0  0  0
  -21.9020   -4.1100   24.1160 C   0  0  0  0  0  3  0  0  0  0  0  0
  -22.0850   -4.8160   22.9130 C   0  0  0  0  0  0  0  0  0  0  0  0
  -22.5970   -4.1800   21.8330 F   0  0  0  0  0  0  0  0  0  0  0  0
  -21.1700   -4.0780   26.3890 F   0  0  0  0  0  0  0  0  0  0  0  0
  -22.8550  -13.4560   21.1250 C   0  0  0  0  0  0  0  0  0  0  0  0
  -22.1700  -12.7640   22.0290 N   0  0  0  0  0  0  0  0  0  0  0  0
  -22.3880  -14.4720   20.6140 O   0  0  0  0  0  0  0  0  0  0  0  0
  -22.5600  -11.9410   22.4640 H   0  0  0  0  0  0  0  0  0  0  0  0
  -21.2390  -13.0600   22.2870 H   0  0  0  0  0  0  0  0  0  0  0  0
  -25.4340  -15.1250   20.1570 N   0  0  0  0  0  0  0  0  0  0  0  0
  -24.6660  -15.7770   20.2830 H   0  0  0  0  0  0  0  0  0  0  0  0
  -26.2640  -15.5620   19.7770 H   0  0  0  0  0  0  0  0  0  0  0  0
  -29.9760  -23.9320   22.6620 N   0  0  0  0  0  4  0  0  0  0  0  0
  -29.6210  -23.9810   23.6030 H   0  0  0  0  0  0  0  0  0  0  0  0
  -29.2920  -23.4590   22.0970 H   0  0  0  0  0  0  0  0  0  0  0  0
  -30.1570  -25.3070   22.1430 C   0  0  0  0  0  2  0  0  0  0  0  0
  -28.8160  -26.0320   21.8970 C   0  0  0  0  0  2  0  0  0  0  0  0
  -28.0650  -25.5460   20.6390 C   0  0  0  0  0  2  0  0  0  0  0  0
  -27.9430  -26.6030   19.6930 O   0  0  0  0  0  0  0  0  0  0  0  0
  -24.3690  -31.7310   23.0820 C   0  0  0  0  0  0  0  0  0  0  0  0
  -26.7900  -27.3360   19.8000 C   0  0  0  0  0  0  0  0  0  0  0  0
  -23.0700  -30.4180   21.4310 C   0  0  0  0  0  3  0  0  0  0  0  0
  -24.4360  -28.8770   19.9280 C   0  0  0  0  0  0  0  0  0  0  0  0
  -25.5950  -30.7150   21.1700 C   0  0  0  0  0  2  0  0  0  0  0  0
  -25.6230  -29.3600   20.4950 C   0  0  0  0  0  0  0  0  0  0  0  0
  -26.8040  -28.5960   20.4300 C   0  0  0  0  0  3  0  0  0  0  0  0
  -25.5930  -26.8510   19.2370 C   0  0  0  0  0  3  0  0  0  0  0  0
  -24.4120  -27.6180   19.2980 C   0  0  0  0  0  3  0  0  0  0  0  0
  -23.2200  -29.7690   20.0290 C   0  0  0  0  0  2  0  0  0  0  0  0
  -24.3650  -30.9660   21.9530 N   0  0  0  0  0  0  0  0  0  0  0  0
  -23.3130  -32.0220   23.6610 O   0  0  0  0  0  0  0  0  0  0  0  0
  -22.4140  -29.3910   22.3800 C   0  0  0  0  0  0  0  0  0  0  0  0
  -21.0830  -29.2460   22.2720 N   0  0  0  0  0  0  0  0  0  0  0  0
  -23.0960  -28.7280   23.1660 O   0  0  0  0  0  0  0  0  0  0  0  0
  -20.5970  -29.8320   21.6090 H   0  0  0  0  0  0  0  0  0  0  0  0
  -17.6910  -28.1170   22.7800 C   0  0  0  0  0  0  0  0  0  0  0  0
  -20.2550  -28.3110   23.0320 C   0  0  0  0  0  3  0  0  0  0  0  0
  -20.3200  -26.8900   22.4250 C   0  0  0  0  0  2  0  0  0  0  0  0
  -19.2010  -26.6140   21.4150 C   0  0  0  0  0  2  0  0  0  0  0  0
  -17.8300  -26.7770   22.0770 C   0  0  0  0  0  2  0  0  0  0  0  0
  -18.8300  -28.8440   23.2140 C   0  0  0  0  0  0  0  0  0  0  0  0
  -18.6480  -30.1020   23.8290 C   0  0  0  0  0  3  0  0  0  0  0  0
  -17.3560  -30.6300   24.0160 C   0  0  0  0  0  3  0  0  0  0  0  0
  -16.2310  -29.8990   23.6000 C   0  0  0  0  0  3  0  0  0  0  0  0
  -16.3990  -28.6440   22.9880 C   0  0  0  0  0  3  0  0  0  0  0  0
  -25.6930  -32.2970   23.6840 C   0  0  0  0  0  3  0  0  0  0  0  0
  -25.4460  -33.6950   24.0600 N   0  0  0  0  0  0  0  0  0  0  0  0
  -25.8180  -34.7550   23.3300 C   0  0  0  0  0  0  0  0  0  0  0  0
  -26.4780  -34.6550   22.2910 O   0  0  0  0  0  0  0  0  0  0  0  0
  -24.8650  -33.8500   24.8710 H   0  0  0  0  0  0  0  0  0  0  0  0
  -24.1790  -36.6350   23.0220 C   0  0  0  0  0  1  0  0  0  0  0  0
  -25.3900  -36.1470   23.8310 C   0  0  0  0  0  3  0  0  0  0  0  0
  -27.5510  -36.9060   24.7180 C   0  0  0  0  0  1  0  0  0  0  0  0
  -26.4720  -37.1540   23.7650 N   0  0  0  0  0  0  0  0  0  0  0  0
  -26.1060  -38.0860   23.9360 H   0  0  0  0  0  0  0  0  0  0  0  0
  -26.2180  -31.4690   24.9200 C   0  0  1  0  0  0  0  0  0  0  0  0
  -25.1480  -31.2330   26.0100 C   0  0  0  0  0  1  0  0  0  0  0  0
  -26.7440  -30.0870   24.4630 C   0  0  0  0  0  1  0  0  0  0  0  0
  -27.4130  -32.2040   25.5750 C   0  0  0  0  0  1  0  0  0  0  0  0
  1 49  1  0
  2  4  1  0
  3  5  1  0
  3  6  1  0
  5  7  1  0
  6  1  1  0
  6  2  1  0
  7  9  1  0
  7  4  1  0
  7  8  1  6
 10 19  1  0
 10  9  1  0
 11 19  1  0
 12 17  1  0
 13 14  1  0
 13 12  1  0
 15 14  1  0
 15 24  1  0
 15 16  1  0
 17 11  1  0
 17 16  1  0
 18 11  2  0
 19 20  1  0
 21 22  2  0
 22 41  1  0
 23 22  1  0
 23 26  1  0
 24 21  1  0
 24 25  1  0
 25 23  2  0
 26 27  1  0
 27 28  2  0
 29 32  1  0
 29 28  1  0
 30 29  2  0
 31 30  1  0
 31 26  2  0
 32 33  1  0
 33 38  2  0
 33 34  1  0
 34 35  2  0
 35 36  1  0
 36 40  1  0
 37 36  2  0
 38 37  1  0
 39 38  1  0
 41 42  1  0
 42 45  1  0
 42 44  1  0
 43 41  2  0
 46 47  1  0
 46 21  1  0
 48 46  1  0
 49 50  1  0
 51 49  1  0
 52 49  1  0
 53 52  1  0
 54 53  1  0
 55 57  1  0
 55 54  1  0
 56 67  2  0
 57 62  1  0
 58 66  1  0
 58 68  1  0
 59 65  1  0
 59 61  1  0
 60 66  1  0
 61 60  1  0
 62 61  2  0
 63 64  1  0
 63 57  2  0
 64 59  2  0
 65 58  1  0
 66 56  1  0
 68 70  2  0
 69 68  1  0
 71 69  1  0
 72 81  2  0
 72 77  1  0
 73 69  1  0
 73 77  1  0
 74 73  1  0
 75 76  1  0
 75 74  1  0
 76 72  1  0
 77 78  2  0
 78 79  1  0
 80 79  2  0
 81 80  1  0
 82 56  1  0
 82 83  1  0
 82 92  1  0
 83 86  1  0
 84 88  1  0
 84 83  1  0
 85 84  2  0
 88 87  1  0
 90 88  1  0
 90 91  1  0
 90 89  1  0
 92 95  1  1
 92 93  1  0
 94 92  1  0
M  ISO  4  11 100  19 100  54 101  55 101
M  END
>  <TORSDO>  (19) 
F 23

>  <SCORE>  (19) 
-10.727

>  <name>  (19) 
18

>  <ligand_id>  (19) 
18

>  <original_smiles>  (19) 
[H]c1c([H])c([H])c2c(c1[H])C([H])([H])C([H])([H])C([H])([H])C2([H])N([H])C(=O)C1([H])N(C(=O)C([H])(N([H])C(=O)C([H])(N([H])C([H])([H])[H])C([H])([H])[H])C(C([H])([H])[H])(C([H])([H])[H])C([H])([H])[H])C([H])([H])c2c([H])c(OC([H])([H])C([H])([H])C([H])([H])[N+]([H])([H])C([H])([H])C3([H])C([H])([H])C([H])([H])[N+]([H])(C([H])([H])C([H])([H])N([H])C(=O)N4C([H])([H])C([H])([H])C([H])([H])C([H])(n5nc(-c6c([H])c([H])c(Oc7c([H])c([H])c(F)c([H])c7F)c([H])c6[H])c(C(=O)N([H])[H])c5N([H])[H])C4([H])[H])C([H])([H])C3([H])[H])c([H])c([H])c2C1([H])[H]

>  <smiles>  (19) 
[H]c1c([H])c([H])c2c(c1[H])C([H])([H])C([H])([H])C([H])([H])C2([H])N([H])C(=O)C1([H])N(C(=O)C([H])(N([H])C(=O)C([H])(N([H])C([H])([H])[H])C([H])([H])[H])C(C([H])([H])[H])(C([H])([H])[H])C([H])([H])[H])C([H])([H])c2c([H])c(OC([H])([H])C([H])([H])C([H])([H])[N+]([H])([H])C([H])([H])C3([H])C([H])([H])C([H])([H])[N+]([H])(C([H])([H])C([H])([H])N([H])C(=O)N4C([H])([H])C([H])([H])C([H])([H])C([H])(n5nc(-c6c([H])c([H])c(Oc7c([H])c([H])c(F)c([H])c7F)c([H])c6[H])c(C(=O)N([H])[H])c5N([H])[H])C4([H])[H])C([H])([H])C3([H])[H])c([H])c([H])c2C1([H])[H]

$$$$
19:0:0
     RDKit          3D

 94102  0  0  1  0  0  0  0  0999 V2000
  -28.6090  -19.3660   20.0780 C   0  0  0  0  0  2  0  0  0  0  0  0
  -28.9350  -18.0380   20.7960 C   0  0  0  0  0  2  0  0  0  0  0  0
  -30.8070  -20.2890   20.8850 C   0  0  0  0  0  2  0  0  0  0  0  0
  -29.2850  -20.5560   20.7870 C   0  0  0  0  0  3  0  0  0  0  0  0
  -30.4590  -17.8100   20.9330 C   0  0  0  0  0  3  0  0  0  0  0  0
  -31.0930  -18.9990   21.5580 N   0  0  0  0  0  4  0  0  0  0  0  0
  -30.7930  -19.0720   22.5170 H   0  0  0  0  0  0  0  0  0  0  0  0
  -32.0920  -18.8700   21.5670 H   0  0  0  0  0  0  0  0  0  0  0  0
  -29.0110  -21.7840   20.0330 N   0  0  0  0  0  0  0  0  0  0  0  0
  -28.1000  -21.7150   19.5870 H   0  0  0  0  0  0  0  0  0  0  0  0
  -28.9640  -22.9750   20.8910 C   0  0  0  0  0  2  0  0  0  0  0  0
  -28.6530  -24.2580   20.0760 C   0  0  0  0  0  3  0  0  0  0  0  0
  -27.5650  -24.0270   19.3380 F   0  0  0  0  0  0  0  0  0  0  0  0
  -28.4150  -25.4990   20.9730 C   0  0  0  0  0  2  0  0  0  0  0  0
  -28.4550  -26.7470   20.2630 O   0  0  0  0  0  0  0  0  0  0  0  0
  -24.5670  -31.9050   23.2710 C   0  0  0  0  0  0  0  0  0  0  0  0
  -27.2810  -27.4650   20.2620 C   0  0  0  0  0  0  0  0  0  0  0  0
  -23.3930  -30.4890   21.6170 C   0  0  0  0  0  3  0  0  0  0  0  0
  -24.8770  -28.9480   20.2270 C   0  0  0  0  0  0  0  0  0  0  0  0
  -25.9180  -30.8620   21.4540 C   0  0  0  0  0  2  0  0  0  0  0  0
  -26.0220  -29.4870   20.8260 C   0  0  0  0  0  0  0  0  0  0  0  0
  -27.2310  -28.7540   20.8370 C   0  0  0  0  0  3  0  0  0  0  0  0
  -26.1200  -26.9320   19.6640 C   0  0  0  0  0  3  0  0  0  0  0  0
  -24.9200  -27.6690   19.6440 C   0  0  0  0  0  3  0  0  0  0  0  0
  -23.6270  -29.8000   20.2460 C   0  0  0  0  0  2  0  0  0  0  0  0
  -24.6430  -31.1000   22.1730 N   0  0  0  0  0  0  0  0  0  0  0  0
  -23.4750  -32.1740   23.7930 O   0  0  0  0  0  0  0  0  0  0  0  0
  -22.7300  -29.4710   22.5730 C   0  0  0  0  0  0  0  0  0  0  0  0
  -21.4090  -29.2830   22.4220 N   0  0  0  0  0  0  0  0  0  0  0  0
  -23.4010  -28.8530   23.4020 O   0  0  0  0  0  0  0  0  0  0  0  0
  -20.9290  -29.8330   21.7230 H   0  0  0  0  0  0  0  0  0  0  0  0
  -18.0280  -28.0930   22.8760 C   0  0  0  0  0  0  0  0  0  0  0  0
  -20.5820  -28.3460   23.1820 C   0  0  0  0  0  3  0  0  0  0  0  0
  -20.6900  -26.9150   22.6060 C   0  0  0  0  0  2  0  0  0  0  0  0
  -19.6000  -26.5950   21.5780 C   0  0  0  0  0  2  0  0  0  0  0  0
  -18.2110  -26.7430   22.2040 C   0  0  0  0  0  2  0  0  0  0  0  0
  -19.1420  -28.8530   23.3210 C   0  0  0  0  0  0  0  0  0  0  0  0
  -18.9180  -30.1180   23.9080 C   0  0  0  0  0  3  0  0  0  0  0  0
  -17.6130  -30.6220   24.0550 C   0  0  0  0  0  3  0  0  0  0  0  0
  -16.5130  -29.8580   23.6280 C   0  0  0  0  0  3  0  0  0  0  0  0
  -16.7210  -28.5950   23.0450 C   0  0  0  0  0  3  0  0  0  0  0  0
  -25.8400  -32.5430   23.9100 C   0  0  0  0  0  3  0  0  0  0  0  0
  -25.5250  -33.9430   24.2200 N   0  0  0  0  0  0  0  0  0  0  0  0
  -25.8760  -34.9890   23.4580 C   0  0  0  0  0  0  0  0  0  0  0  0
  -26.5720  -34.8740   22.4450 O   0  0  0  0  0  0  0  0  0  0  0  0
  -24.9080  -34.1050   25.0030 H   0  0  0  0  0  0  0  0  0  0  0  0
  -24.1650  -36.7820   23.0350 C   0  0  0  0  0  1  0  0  0  0  0  0
  -25.3770  -36.3800   23.8900 C   0  0  0  0  0  3  0  0  0  0  0  0
  -27.4840  -37.2670   24.7880 C   0  0  0  0  0  1  0  0  0  0  0  0
  -26.4160  -37.4310   23.8050 N   0  0  0  0  0  0  0  0  0  0  0  0
  -26.0070  -38.3520   23.9310 H   0  0  0  0  0  0  0  0  0  0  0  0
  -26.3380  -31.7830   25.2000 C   0  0  1  0  0  0  0  0  0  0  0  0
  -25.2260  -31.5460   26.2500 C   0  0  0  0  0  1  0  0  0  0  0  0
  -26.9330  -30.4060   24.8250 C   0  0  0  0  0  1  0  0  0  0  0  0
  -27.4720  -32.5870   25.8770 C   0  0  0  0  0  1  0  0  0  0  0  0
  -30.8160  -16.5330   21.7450 C   0  0  0  0  0  2  0  0  0  0  0  0
  -30.7290  -14.4380   20.3700 C   0  0  0  0  0  0  0  0  0  0  0  0
  -30.3500  -12.3660   19.0770 C   0  0  0  0  0  2  0  0  0  0  0  0
  -29.3750  -12.6250   17.9130 C   0  0  0  0  0  2  0  0  0  0  0  0
  -27.9130  -12.4810   18.3790 C   0  0  0  0  0  2  0  0  0  0  0  0
  -27.6210  -13.2760   19.6790 C   0  0  0  0  0  3  0  0  0  0  0  0
  -28.6990  -12.9860   20.7470 C   0  0  0  0  0  2  0  0  0  0  0  0
  -30.0170  -13.2990   20.1640 N   0  0  0  0  0  0  0  0  0  0  0  0
  -31.7800  -14.6970   19.7790 O   0  0  0  0  0  0  0  0  0  0  0  0
  -30.1990  -15.2950   21.2540 N   0  0  0  0  0  0  0  0  0  0  0  0
  -29.3280  -15.0140   21.6820 H   0  0  0  0  0  0  0  0  0  0  0  0
  -25.2370  -13.8890   20.4350 C   0  0  0  0  0  0  0  0  0  0  0  0
  -24.1740  -13.1180   20.8200 C   0  0  0  0  0  0  0  0  0  0  0  0
  -24.6300  -11.7650   20.7720 C   0  0  0  0  0  0  0  0  0  0  0  0
  -26.2760  -13.0060   20.1800 N   0  0  0  0  0  0  0  0  0  0  0  0
  -25.9140  -11.7230   20.4390 N   0  0  0  0  0  0  0  0  0  0  0  0
  -23.9050  -10.5040   20.9690 C   0  0  0  0  0  0  0  0  0  0  0  0
  -24.3430   -9.5370   21.9010 C   0  0  0  0  0  3  0  0  0  0  0  0
  -23.6180   -8.3410   22.0870 C   0  0  0  0  0  3  0  0  0  0  0  0
  -22.4400   -8.1020   21.3390 C   0  0  0  0  0  0  0  0  0  0  0  0
  -22.0210   -9.0570   20.3950 C   0  0  0  0  0  3  0  0  0  0  0  0
  -22.7470  -10.2460   20.2090 C   0  0  0  0  0  3  0  0  0  0  0  0
  -21.6850   -6.9580   21.4320 O   0  0  0  0  0  0  0  0  0  0  0  0
  -21.6310   -6.2250   22.5900 C   0  0  0  0  0  0  0  0  0  0  0  0
  -21.1850   -6.7840   23.8070 C   0  0  0  0  0  3  0  0  0  0  0  0
  -21.0790   -5.9770   24.9570 C   0  0  0  0  0  3  0  0  0  0  0  0
  -21.4090   -4.6100   24.8910 C   0  0  0  0  0  0  0  0  0  0  0  0
  -21.8490   -4.0500   23.6790 C   0  0  0  0  0  3  0  0  0  0  0  0
  -21.9560   -4.8540   22.5310 C   0  0  0  0  0  0  0  0  0  0  0  0
  -22.3600   -4.3040   21.3600 F   0  0  0  0  0  0  0  0  0  0  0  0
  -21.3010   -3.8320   25.9930 F   0  0  0  0  0  0  0  0  0  0  0  0
  -22.7840  -13.5990   21.1240 C   0  0  0  0  0  0  0  0  0  0  0  0
  -22.0720  -12.8960   21.9980 N   0  0  0  0  0  0  0  0  0  0  0  0
  -22.3400  -14.6300   20.6230 O   0  0  0  0  0  0  0  0  0  0  0  0
  -22.4450  -12.0600   22.4230 H   0  0  0  0  0  0  0  0  0  0  0  0
  -21.1400  -13.1990   22.2450 H   0  0  0  0  0  0  0  0  0  0  0  0
  -25.4040  -15.2600   20.2630 N   0  0  0  0  0  0  0  0  0  0  0  0
  -24.6410  -15.9180   20.3830 H   0  0  0  0  0  0  0  0  0  0  0  0
  -26.2490  -15.6950   19.9150 H   0  0  0  0  0  0  0  0  0  0  0  0
  1  4  1  0
  1  2  1  0
  2  5  1  0
  3  6  1  0
  4  9  1  0
  4  3  1  0
  5  6  1  0
  5 56  1  0
  6  8  1  0
  6  7  1  0
  9 11  1  0
 10  9  1  0
 12 13  1  0
 12 11  1  0
 12 14  1  0
 15 14  1  0
 16 27  2  0
 17 15  1  0
 17 22  1  0
 18 26  1  0
 18 28  1  0
 19 25  1  0
 19 21  1  0
 20 26  1  0
 21 22  2  0
 21 20  1  0
 23 17  2  0
 24 23  1  0
 24 19  2  0
 25 18  1  0
 26 16  1  0
 28 30  2  0
 29 28  1  0
 31 29  1  0
 32 41  2  0
 32 37  1  0
 33 29  1  0
 33 37  1  0
 34 33  1  0
 35 36  1  0
 35 34  1  0
 36 32  1  0
 37 38  2  0
 38 39  1  0
 40 39  2  0
 41 40  1  0
 42 16  1  0
 42 43  1  0
 42 52  1  0
 43 46  1  0
 44 48  1  0
 44 43  1  0
 45 44  2  0
 48 47  1  0
 50 48  1  0
 50 51  1  0
 50 49  1  0
 52 55  1  1
 52 53  1  0
 54 52  1  0
 57 65  1  0
 58 63  1  0
 59 60  1  0
 59 58  1  0
 61 60  1  0
 61 70  1  0
 61 62  1  0
 63 57  1  0
 63 62  1  0
 64 57  2  0
 65 66  1  0
 65 56  1  0
 67 68  2  0
 68 87  1  0
 69 68  1  0
 69 72  1  0
 70 67  1  0
 70 71  1  0
 71 69  2  0
 72 73  1  0
 73 74  2  0
 75 78  1  0
 75 74  1  0
 76 75  2  0
 77 76  1  0
 77 72  2  0
 78 79  1  0
 79 80  1  0
 80 81  2  0
 82 81  1  0
 82 86  1  0
 83 82  2  0
 84 79  2  0
 84 83  1  0
 85 84  1  0
 87 88  1  0
 88 91  1  0
 88 90  1  0
 89 87  2  0
 92 93  1  0
 92 67  1  0
 94 92  1  0
M  ISO  4  14 101  15 101  57 100  65 100
M  END
>  <TORSDO>  (20) 
F 21

>  <SCORE>  (20) 
-13.778

>  <name>  (20) 
19

>  <ligand_id>  (20) 
19

>  <original_smiles>  (20) 
[H]c1c([H])c([H])c2c(c1[H])C([H])([H])C([H])([H])C([H])([H])C2([H])N([H])C(=O)C1([H])N(C(=O)C([H])(N([H])C(=O)C([H])(N([H])C([H])([H])[H])C([H])([H])[H])C(C([H])([H])[H])(C([H])([H])[H])C([H])([H])[H])C([H])([H])c2c([H])c(OC([H])([H])C([H])(F)C([H])([H])N([H])C3([H])C([H])([H])C([H])([H])C([H])(C([H])([H])N([H])C(=O)N4C([H])([H])C([H])([H])C([H])([H])C([H])(n5nc(-c6c([H])c([H])c(Oc7c([H])c([H])c(F)c([H])c7F)c([H])c6[H])c(C(=O)N([H])[H])c5N([H])[H])C4([H])[H])[N+]([H])([H])C3([H])[H])c([H])c([H])c2C1([H])[H]

>  <smiles>  (20) 
[H]c1c([H])c([H])c2c(c1[H])C([H])([H])C([H])([H])C([H])([H])C2([H])N([H])C(=O)C1([H])N(C(=O)C([H])(N([H])C(=O)C([H])(N([H])C([H])([H])[H])C([H])([H])[H])C(C([H])([H])[H])(C([H])([H])[H])C([H])([H])[H])C([H])([H])c2c([H])c(OC([H])([H])C([H])(F)C([H])([H])N([H])C3([H])C([H])([H])C([H])([H])C([H])(C([H])([H])N([H])C(=O)N4C([H])([H])C([H])([H])C([H])([H])C([H])(n5nc(-c6c([H])c([H])c(Oc7c([H])c([H])c(F)c([H])c7F)c([H])c6[H])c(C(=O)N([H])[H])c5N([H])[H])C4([H])[H])[N+]([H])([H])C3([H])[H])c([H])c([H])c2C1([H])[H]

$$$$
20:0:0
     RDKit          3D

 93101  0  0  1  0  0  0  0  0999 V2000
  -30.9570  -20.9170   22.5510 C   0  0  0  0  0  2  0  0  0  0  0  0
  -31.5140  -17.3510   23.9550 C   0  0  0  0  0  2  0  0  0  0  0  0
  -30.4890  -16.4910   23.1900 C   0  0  0  0  0  2  0  0  0  0  0  0
  -30.7100  -17.6360   20.8870 C   0  0  0  0  0  2  0  0  0  0  0  0
  -31.2910  -18.8800   23.9130 C   0  0  0  0  0  2  0  0  0  0  0  0
  -31.5640  -18.7960   21.4250 C   0  0  0  0  0  2  0  0  0  0  0  0
  -30.8390  -16.3260   21.6940 C   0  0  0  0  0  3  0  0  0  0  0  0
  -30.8990  -19.4350   22.5900 N   0  0  2  0  0  4  0  0  0  0  0  0
  -29.9190  -19.2160   22.4960 H   0  0  0  0  0  0  0  0  0  0  0  0
  -30.1940  -14.7170   19.9060 C   0  0  0  0  0  0  0  0  0  0  0  0
  -29.7070  -12.7770   18.4700 C   0  0  0  0  0  2  0  0  0  0  0  0
  -28.5880  -13.0630   17.4540 C   0  0  0  0  0  2  0  0  0  0  0  0
  -27.2100  -12.7770   18.0760 C   0  0  0  0  0  2  0  0  0  0  0  0
  -27.0280  -13.4640   19.4540 C   0  0  0  0  0  3  0  0  0  0  0  0
  -28.2390  -13.1910   20.3730 C   0  0  0  0  0  2  0  0  0  0  0  0
  -29.4710  -13.5950   19.6670 N   0  0  0  0  0  0  0  0  0  0  0  0
  -31.0450  -15.1540   19.1250 O   0  0  0  0  0  0  0  0  0  0  0  0
  -30.0080  -15.2710   21.1110 N   0  0  0  0  0  0  0  0  0  0  0  0
  -29.3130  -14.8380   21.7000 H   0  0  0  0  0  0  0  0  0  0  0  0
  -24.6850  -13.8390   20.4560 C   0  0  0  0  0  0  0  0  0  0  0  0
  -23.7440  -12.9660   20.9340 C   0  0  0  0  0  0  0  0  0  0  0  0
  -24.3210  -11.6640   20.8180 C   0  0  0  0  0  0  0  0  0  0  0  0
  -25.7720  -13.0630   20.0840 N   0  0  0  0  0  0  0  0  0  0  0  0
  -25.5610  -11.7490   20.3550 N   0  0  0  0  0  0  0  0  0  0  0  0
  -23.7410  -10.3370   21.0660 C   0  0  0  0  0  0  0  0  0  0  0  0
  -24.2930   -9.4580   22.0240 C   0  0  0  0  0  3  0  0  0  0  0  0
  -23.7080   -8.1960   22.2590 C   0  0  0  0  0  3  0  0  0  0  0  0
  -22.5580   -7.8010   21.5340 C   0  0  0  0  0  0  0  0  0  0  0  0
  -22.0260   -8.6700   20.5660 C   0  0  0  0  0  3  0  0  0  0  0  0
  -22.6130   -9.9250   20.3300 C   0  0  0  0  0  3  0  0  0  0  0  0
  -21.9370   -6.5840   21.6760 O   0  0  0  0  0  0  0  0  0  0  0  0
  -21.9140   -5.9240   22.8790 C   0  0  0  0  0  0  0  0  0  0  0  0
  -21.3560   -6.5060   24.0380 C   0  0  0  0  0  3  0  0  0  0  0  0
  -21.2910   -5.7660   25.2350 C   0  0  0  0  0  3  0  0  0  0  0  0
  -21.7700   -4.4430   25.2730 C   0  0  0  0  0  0  0  0  0  0  0  0
  -22.3210   -3.8600   24.1190 C   0  0  0  0  0  3  0  0  0  0  0  0
  -22.3890   -4.5970   22.9240 C   0  0  0  0  0  0  0  0  0  0  0  0
  -22.9010   -4.0230   21.8090 F   0  0  0  0  0  0  0  0  0  0  0  0
  -21.7010   -3.7290   26.4210 F   0  0  0  0  0  0  0  0  0  0  0  0
  -22.3530  -13.3080   21.3860 C   0  0  0  0  0  0  0  0  0  0  0  0
  -21.8160  -12.5530   22.3370 N   0  0  0  0  0  0  0  0  0  0  0  0
  -21.7520  -14.2790   20.9290 O   0  0  0  0  0  0  0  0  0  0  0  0
  -22.3150  -11.7660   22.7240 H   0  0  0  0  0  0  0  0  0  0  0  0
  -20.8900  -12.7630   22.6820 H   0  0  0  0  0  0  0  0  0  0  0  0
  -24.7020  -15.2210   20.2900 N   0  0  0  0  0  0  0  0  0  0  0  0
  -23.9010  -15.8060   20.5050 H   0  0  0  0  0  0  0  0  0  0  0  0
  -25.4730  -15.7390   19.8850 H   0  0  0  0  0  0  0  0  0  0  0  0
  -30.0280  -21.4940   21.4640 C   0  0  0  0  0  2  0  0  0  0  0  0
  -30.2050  -23.0040   21.2530 C   0  0  0  0  0  2  0  0  0  0  0  0
  -29.2830  -23.5320   20.1460 C   0  0  0  0  0  2  0  0  0  0  0  0
  -29.3890  -25.0510   19.9550 C   0  0  0  0  0  2  0  0  0  0  0  0
  -28.2750  -25.5940   19.0540 C   0  0  0  0  0  2  0  0  0  0  0  0
  -28.2750  -27.0130   19.1480 O   0  0  0  0  0  0  0  0  0  0  0  0
  -24.5020  -31.5860   23.0280 C   0  0  0  0  0  0  0  0  0  0  0  0
  -27.0580  -27.6340   19.3010 C   0  0  0  0  0  0  0  0  0  0  0  0
  -23.2170  -30.2960   21.3530 C   0  0  0  0  0  3  0  0  0  0  0  0
  -24.6040  -28.9840   19.6650 C   0  0  0  0  0  0  0  0  0  0  0  0
  -25.6950  -30.8060   20.9860 C   0  0  0  0  0  2  0  0  0  0  0  0
  -25.7820  -29.5140   20.2050 C   0  0  0  0  0  0  0  0  0  0  0  0
  -27.0100  -28.8450   20.0200 C   0  0  0  0  0  3  0  0  0  0  0  0
  -25.8610  -27.1120   18.7550 C   0  0  0  0  0  3  0  0  0  0  0  0
  -24.6360  -27.7810   18.9390 C   0  0  0  0  0  3  0  0  0  0  0  0
  -23.3330  -29.7660   19.8980 C   0  0  0  0  0  2  0  0  0  0  0  0
  -24.4940  -30.9050   21.8470 N   0  0  0  0  0  0  0  0  0  0  0  0
  -23.4620  -31.7490   23.6800 O   0  0  0  0  0  0  0  0  0  0  0  0
  -22.6950  -29.1530   22.2530 C   0  0  0  0  0  0  0  0  0  0  0  0
  -21.3850  -28.8710   22.1600 N   0  0  0  0  0  0  0  0  0  0  0  0
  -23.4620  -28.5260   22.9880 O   0  0  0  0  0  0  0  0  0  0  0  0
  -20.8230  -29.4360   21.5400 H   0  0  0  0  0  0  0  0  0  0  0  0
  -18.1510  -27.3390   22.6440 C   0  0  0  0  0  0  0  0  0  0  0  0
  -20.6800  -27.8140   22.8830 C   0  0  0  0  0  3  0  0  0  0  0  0
  -20.8980  -26.4380   22.2090 C   0  0  0  0  0  2  0  0  0  0  0  0
  -19.8040  -26.0840   21.1970 C   0  0  0  0  0  2  0  0  0  0  0  0
  -18.4310  -26.0590   21.8750 C   0  0  0  0  0  2  0  0  0  0  0  0
  -19.2060  -28.1710   23.1030 C   0  0  0  0  0  0  0  0  0  0  0  0
  -18.8900  -29.3680   23.7800 C   0  0  0  0  0  3  0  0  0  0  0  0
  -17.5500  -29.7370   24.0040 C   0  0  0  0  0  3  0  0  0  0  0  0
  -16.5090  -28.9030   23.5630 C   0  0  0  0  0  3  0  0  0  0  0  0
  -16.8100  -27.7060   22.8880 C   0  0  0  0  0  3  0  0  0  0  0  0
  -25.8120  -32.2130   23.6020 C   0  0  0  0  0  3  0  0  0  0  0  0
  -25.4930  -33.5790   24.0380 N   0  0  0  0  0  0  0  0  0  0  0  0
  -25.7400  -34.6840   23.3210 C   0  0  0  0  0  0  0  0  0  0  0  0
  -26.3330  -34.6610   22.2380 O   0  0  0  0  0  0  0  0  0  0  0  0
  -24.9560  -33.6690   24.8880 H   0  0  0  0  0  0  0  0  0  0  0  0
  -23.9370  -36.4330   23.2000 C   0  0  0  0  0  1  0  0  0  0  0  0
  -25.2470  -36.0260   23.8930 C   0  0  0  0  0  3  0  0  0  0  0  0
  -27.4100  -36.9340   24.6190 C   0  0  0  0  0  1  0  0  0  0  0  0
  -26.2360  -37.1190   23.7690 N   0  0  0  0  0  0  0  0  0  0  0  0
  -25.8150  -38.0140   24.0020 H   0  0  0  0  0  0  0  0  0  0  0  0
  -26.4340  -31.3790   24.7880 C   0  0  1  0  0  0  0  0  0  0  0  0
  -25.4100  -30.9970   25.8820 C   0  0  0  0  0  1  0  0  0  0  0  0
  -27.0700  -30.0720   24.2580 C   0  0  0  0  0  1  0  0  0  0  0  0
  -27.5710  -32.1860   25.4570 C   0  0  0  0  0  1  0  0  0  0  0  0
  1  8  1  0
  3  2  1  0
  4  6  1  0
  4  7  1  0
  5  2  1  0
  6  8  1  0
  7 18  1  0
  7  3  1  0
  8  5  1  0
  8  9  1  6
 10 18  1  0
 11 16  1  0
 12 13  1  0
 12 11  1  0
 14 13  1  0
 14 23  1  0
 14 15  1  0
 16 10  1  0
 16 15  1  0
 17 10  2  0
 18 19  1  0
 20 21  2  0
 21 40  1  0
 22 21  1  0
 22 25  1  0
 23 24  1  0
 23 20  1  0
 24 22  2  0
 25 26  1  0
 26 27  2  0
 28 31  1  0
 28 27  1  0
 29 28  2  0
 30 29  1  0
 30 25  2  0
 31 32  1  0
 32 37  2  0
 32 33  1  0
 33 34  2  0
 34 35  1  0
 35 39  1  0
 36 35  2  0
 37 36  1  0
 38 37  1  0
 40 41  1  0
 41 44  1  0
 41 43  1  0
 42 40  2  0
 45 20  1  0
 45 46  1  0
 47 45  1  0
 48  1  1  0
 49 48  1  0
 50 49  1  0
 51 50  1  0
 52 53  1  0
 52 51  1  0
 53 55  1  0
 54 65  2  0
 55 60  1  0
 56 64  1  0
 56 66  1  0
 57 63  1  0
 57 59  1  0
 58 64  1  0
 59 58  1  0
 60 59  2  0
 61 62  1  0
 61 55  2  0
 62 57  2  0
 63 56  1  0
 64 54  1  0
 66 68  2  0
 67 66  1  0
 69 67  1  0
 70 79  2  0
 70 75  1  0
 71 67  1  0
 71 75  1  0
 72 71  1  0
 73 74  1  0
 73 72  1  0
 74 70  1  0
 75 76  2  0
 76 77  1  0
 78 77  2  0
 79 78  1  0
 80 54  1  0
 80 81  1  0
 80 90  1  0
 81 84  1  0
 82 86  1  0
 82 81  1  0
 83 82  2  0
 86 85  1  0
 88 86  1  0
 88 89  1  0
 88 87  1  0
 90 93  1  1
 90 91  1  0
 92 90  1  0
M  ISO  4  10 100  18 100  52 101  53 101
M  END
>  <TORSDO>  (21) 
F 22

>  <SCORE>  (21) 
-7.872

>  <name>  (21) 
20

>  <ligand_id>  (21) 
20

>  <original_smiles>  (21) 
[H]c1c([H])c([H])c2c(c1[H])C([H])([H])C([H])([H])C([H])([H])C2([H])N([H])C(=O)C1([H])N(C(=O)C([H])(N([H])C(=O)C([H])(N([H])C([H])([H])[H])C([H])([H])[H])C(C([H])([H])[H])(C([H])([H])[H])C([H])([H])[H])C([H])([H])c2c([H])c(OC([H])([H])C([H])([H])C([H])([H])C([H])([H])C([H])([H])C([H])([H])[N+]3([H])C([H])([H])C([H])([H])C([H])([H])C([H])(N([H])C(=O)N4C([H])([H])C([H])([H])C([H])([H])C([H])(n5nc(-c6c([H])c([H])c(Oc7c([H])c([H])c(F)c([H])c7F)c([H])c6[H])c(C(=O)N([H])[H])c5N([H])[H])C4([H])[H])C([H])([H])C3([H])[H])c([H])c([H])c2C1([H])[H]

>  <smiles>  (21) 
[H]c1c([H])c([H])c2c(c1[H])C([H])([H])C([H])([H])C([H])([H])C2([H])N([H])C(=O)C1([H])N(C(=O)C([H])(N([H])C(=O)C([H])(N([H])C([H])([H])[H])C([H])([H])[H])C(C([H])([H])[H])(C([H])([H])[H])C([H])([H])[H])C([H])([H])c2c([H])c(OC([H])([H])C([H])([H])C([H])([H])C([H])([H])C([H])([H])C([H])([H])[N+]3([H])C([H])([H])C([H])([H])C([H])([H])C([H])(N([H])C(=O)N4C([H])([H])C([H])([H])C([H])([H])C([H])(n5nc(-c6c([H])c([H])c(Oc7c([H])c([H])c(F)c([H])c7F)c([H])c6[H])c(C(=O)N([H])[H])c5N([H])[H])C4([H])[H])C([H])([H])C3([H])[H])c([H])c([H])c2C1([H])[H]

$$$$
21:0:0
     RDKit          3D

 93101  0  0  1  0  0  0  0  0999 V2000
  -28.0570  -21.7620   20.6040 C   0  0  0  0  0  2  0  0  0  0  0  0
  -29.2860  -18.1340   20.0070 C   0  0  0  0  0  2  0  0  0  0  0  0
  -30.7430  -19.2390   21.7270 C   0  0  0  0  0  2  0  0  0  0  0  0
  -28.3000  -19.3240   20.1170 C   0  0  0  0  0  2  0  0  0  0  0  0
  -29.7200  -20.3890   21.8280 C   0  0  0  0  0  2  0  0  0  0  0  0
  -30.1000  -17.9030   21.2990 C   0  0  0  0  0  3  0  0  0  0  0  0
  -28.9670  -20.5810   20.5590 N   0  0  2  0  0  4  0  0  0  0  0  0
  -29.6400  -20.8440   19.8450 H   0  0  0  0  0  0  0  0  0  0  0  0
  -31.1780  -16.7970   21.1370 C   0  0  0  0  0  2  0  0  0  0  0  0
  -31.1690  -14.5240   20.0540 C   0  0  0  0  0  0  0  0  0  0  0  0
  -30.7920  -12.3420   18.9520 C   0  0  0  0  0  2  0  0  0  0  0  0
  -29.8110  -12.4790   17.7710 C   0  0  0  0  0  2  0  0  0  0  0  0
  -28.3560  -12.3740   18.2620 C   0  0  0  0  0  2  0  0  0  0  0  0
  -28.0640  -13.2990   19.4740 C   0  0  0  0  0  3  0  0  0  0  0  0
  -29.1420  -13.1140   20.5630 C   0  0  0  0  0  2  0  0  0  0  0  0
  -30.4570  -13.3700   19.9510 N   0  0  0  0  0  0  0  0  0  0  0  0
  -32.2290  -14.7130   19.4520 O   0  0  0  0  0  0  0  0  0  0  0  0
  -30.6140  -15.4770   20.8260 N   0  0  0  0  0  0  0  0  0  0  0  0
  -29.7450  -15.2340   21.2770 H   0  0  0  0  0  0  0  0  0  0  0  0
  -25.7260  -13.9980   20.2910 C   0  0  0  0  0  0  0  0  0  0  0  0
  -24.6450  -13.2650   20.7000 C   0  0  0  0  0  0  0  0  0  0  0  0
  -25.0480  -11.8980   20.6380 C   0  0  0  0  0  0  0  0  0  0  0  0
  -26.7220  -13.0760   20.0060 N   0  0  0  0  0  0  0  0  0  0  0  0
  -26.3180  -11.8070   20.2700 N   0  0  0  0  0  0  0  0  0  0  0  0
  -24.2820  -10.6630   20.8480 C   0  0  0  0  0  0  0  0  0  0  0  0
  -24.6770   -9.7020   21.8050 C   0  0  0  0  0  3  0  0  0  0  0  0
  -23.9120   -8.5310   22.0010 C   0  0  0  0  0  3  0  0  0  0  0  0
  -22.7390   -8.3150   21.2400 C   0  0  0  0  0  0  0  0  0  0  0  0
  -22.3630   -9.2640   20.2740 C   0  0  0  0  0  3  0  0  0  0  0  0
  -23.1270  -10.4260   20.0770 C   0  0  0  0  0  3  0  0  0  0  0  0
  -21.9480   -7.1950   21.3450 O   0  0  0  0  0  0  0  0  0  0  0  0
  -21.8180   -6.5160   22.5290 C   0  0  0  0  0  0  0  0  0  0  0  0
  -21.3290   -7.1420   23.6980 C   0  0  0  0  0  3  0  0  0  0  0  0
  -21.1430   -6.3880   24.8740 C   0  0  0  0  0  3  0  0  0  0  0  0
  -21.4370   -5.0110   24.8820 C   0  0  0  0  0  0  0  0  0  0  0  0
  -21.9170   -4.3850   23.7180 C   0  0  0  0  0  3  0  0  0  0  0  0
  -22.1030   -5.1360   22.5440 C   0  0  0  0  0  0  0  0  0  0  0  0
  -22.5470   -4.5250   21.4190 F   0  0  0  0  0  0  0  0  0  0  0  0
  -21.2500   -4.2850   26.0090 F   0  0  0  0  0  0  0  0  0  0  0  0
  -23.2810  -13.7960   21.0400 C   0  0  0  0  0  0  0  0  0  0  0  0
  -22.5680  -13.1210   21.9360 N   0  0  0  0  0  0  0  0  0  0  0  0
  -22.8590  -14.8400   20.5430 O   0  0  0  0  0  0  0  0  0  0  0  0
  -22.9250  -12.2770   22.3580 H   0  0  0  0  0  0  0  0  0  0  0  0
  -21.6530  -13.4540   22.2030 H   0  0  0  0  0  0  0  0  0  0  0  0
  -25.9430  -15.3610   20.1190 N   0  0  0  0  0  0  0  0  0  0  0  0
  -25.2100  -16.0490   20.2540 H   0  0  0  0  0  0  0  0  0  0  0  0
  -26.8010  -15.7590   19.7600 H   0  0  0  0  0  0  0  0  0  0  0  0
  -28.8570  -23.0080   20.1890 C   0  0  0  0  0  0  0  0  0  0  0  0
  -29.8970  -22.8800   19.5330 O   0  0  0  0  0  0  0  0  0  0  0  0
  -29.1730  -24.7900   21.9130 C   0  0  0  0  0  1  0  0  0  0  0  0
  -28.3750  -24.4030   20.6520 C   0  0  0  0  0  3  0  0  0  0  0  0
  -28.5370  -25.4870   19.5470 C   0  0  0  0  0  2  0  0  0  0  0  0
  -28.3980  -26.8320   20.0390 O   0  0  0  0  0  0  0  0  0  0  0  0
  -24.5760  -31.8990   23.2210 C   0  0  0  0  0  0  0  0  0  0  0  0
  -27.1850  -27.4900   20.0540 C   0  0  0  0  0  0  0  0  0  0  0  0
  -23.3460  -30.5150   21.5770 C   0  0  0  0  0  3  0  0  0  0  0  0
  -24.7800  -28.9880   20.1160 C   0  0  0  0  0  0  0  0  0  0  0  0
  -25.8670  -30.8730   21.3490 C   0  0  0  0  0  2  0  0  0  0  0  0
  -25.9430  -29.5100   20.6950 C   0  0  0  0  0  0  0  0  0  0  0  0
  -27.1440  -28.7660   20.6600 C   0  0  0  0  0  3  0  0  0  0  0  0
  -25.9970  -26.9710   19.4870 C   0  0  0  0  0  3  0  0  0  0  0  0
  -24.8010  -27.7170   19.5140 C   0  0  0  0  0  3  0  0  0  0  0  0
  -23.5360  -29.8450   20.1890 C   0  0  0  0  0  2  0  0  0  0  0  0
  -24.6160  -31.1100   22.1090 N   0  0  0  0  0  0  0  0  0  0  0  0
  -23.5020  -32.1650   23.7790 O   0  0  0  0  0  0  0  0  0  0  0  0
  -22.7090  -29.4840   22.5330 C   0  0  0  0  0  0  0  0  0  0  0  0
  -21.3870  -29.2890   22.4030 N   0  0  0  0  0  0  0  0  0  0  0  0
  -23.4010  -28.8630   23.3440 O   0  0  0  0  0  0  0  0  0  0  0  0
  -20.8920  -29.8380   21.7140 H   0  0  0  0  0  0  0  0  0  0  0  0
  -18.0310  -28.0410   22.8790 C   0  0  0  0  0  0  0  0  0  0  0  0
  -20.5820  -28.3380   23.1680 C   0  0  0  0  0  3  0  0  0  0  0  0
  -20.7140  -26.9090   22.5930 C   0  0  0  0  0  2  0  0  0  0  0  0
  -19.6240  -26.5710   21.5710 C   0  0  0  0  0  2  0  0  0  0  0  0
  -18.2330  -26.6950   22.2050 C   0  0  0  0  0  2  0  0  0  0  0  0
  -19.1340  -28.8200   23.3180 C   0  0  0  0  0  0  0  0  0  0  0  0
  -18.8970  -30.0810   23.9070 C   0  0  0  0  0  3  0  0  0  0  0  0
  -17.5840  -30.5660   24.0610 C   0  0  0  0  0  3  0  0  0  0  0  0
  -16.4930  -29.7820   23.6420 C   0  0  0  0  0  3  0  0  0  0  0  0
  -16.7180  -28.5220   23.0580 C   0  0  0  0  0  3  0  0  0  0  0  0
  -25.8710  -32.5190   23.8280 C   0  0  0  0  0  3  0  0  0  0  0  0
  -25.5760  -33.9180   24.1700 N   0  0  0  0  0  0  0  0  0  0  0  0
  -25.9090  -34.9720   23.4120 C   0  0  0  0  0  0  0  0  0  0  0  0
  -26.5690  -34.8710   22.3740 O   0  0  0  0  0  0  0  0  0  0  0  0
  -25.0000  -34.0720   24.9840 H   0  0  0  0  0  0  0  0  0  0  0  0
  -24.1930  -36.7750   23.0690 C   0  0  0  0  0  1  0  0  0  0  0  0
  -25.4320  -36.3590   23.8760 C   0  0  0  0  0  3  0  0  0  0  0  0
  -27.5710  -37.2270   24.7130 C   0  0  0  0  0  1  0  0  0  0  0  0
  -26.4710  -37.4040   23.7690 N   0  0  0  0  0  0  0  0  0  0  0  0
  -26.0710  -38.3260   23.9250 H   0  0  0  0  0  0  0  0  0  0  0  0
  -26.4050  -31.7370   25.0920 C   0  0  1  0  0  0  0  0  0  0  0  0
  -25.3250  -31.4930   26.1700 C   0  0  0  0  0  1  0  0  0  0  0  0
  -26.9820  -30.3610   24.6800 C   0  0  0  0  0  1  0  0  0  0  0  0
  -27.5640  -32.5240   25.7490 C   0  0  0  0  0  1  0  0  0  0  0  0
  2  4  1  0
  2  6  1  0
  3  5  1  0
  4  7  1  0
  6  9  1  0
  6  3  1  0
  7  1  1  0
  7  5  1  0
  7  8  1  6
 10 18  1  0
 11 16  1  0
 12 13  1  0
 12 11  1  0
 14 13  1  0
 14 23  1  0
 14 15  1  0
 16 10  1  0
 16 15  1  0
 17 10  2  0
 18  9  1  0
 18 19  1  0
 20 21  2  0
 21 40  1  0
 22 21  1  0
 22 25  1  0
 23 24  1  0
 23 20  1  0
 24 22  2  0
 25 26  1  0
 26 27  2  0
 28 31  1  0
 28 27  1  0
 29 28  2  0
 30 29  1  0
 30 25  2  0
 31 32  1  0
 32 37  2  0
 32 33  1  0
 33 34  2  0
 34 35  1  0
 35 39  1  0
 36 35  2  0
 37 36  1  0
 38 37  1  0
 40 41  1  0
 41 44  1  0
 41 43  1  0
 42 40  2  0
 45 46  1  0
 45 20  1  0
 47 45  1  0
 48  1  1  0
 48 51  1  0
 49 48  2  0
 51 50  1  0
 52 53  1  0
 52 51  1  0
 53 55  1  0
 54 65  2  0
 55 60  1  0
 56 64  1  0
 56 66  1  0
 57 63  1  0
 57 59  1  0
 58 64  1  0
 59 58  1  0
 60 59  2  0
 61 62  1  0
 61 55  2  0
 62 57  2  0
 63 56  1  0
 64 54  1  0
 66 68  2  0
 67 66  1  0
 69 67  1  0
 70 79  2  0
 70 75  1  0
 71 67  1  0
 71 75  1  0
 72 71  1  0
 73 74  1  0
 73 72  1  0
 74 70  1  0
 75 76  2  0
 76 77  1  0
 78 77  2  0
 79 78  1  0
 80 54  1  0
 80 81  1  0
 80 90  1  0
 81 84  1  0
 82 86  1  0
 82 81  1  0
 83 82  2  0
 86 85  1  0
 88 86  1  0
 88 89  1  0
 88 87  1  0
 90 93  1  1
 90 91  1  0
 92 90  1  0
M  ISO  4  10 100  18 100  52 101  53 101
M  END
>  <TORSDO>  (22) 
F 21

>  <SCORE>  (22) 
-13.199

>  <name>  (22) 
21

>  <ligand_id>  (22) 
21

>  <original_smiles>  (22) 
[H]c1c([H])c([H])c2c(c1[H])C([H])([H])C([H])([H])C([H])([H])C2([H])N([H])C(=O)C1([H])N(C(=O)C([H])(N([H])C(=O)C([H])(N([H])C([H])([H])[H])C([H])([H])[H])C(C([H])([H])[H])(C([H])([H])[H])C([H])([H])[H])C([H])([H])c2c([H])c(OC([H])([H])C([H])(C(=O)C([H])([H])[N+]3([H])C([H])([H])C([H])([H])C([H])(C([H])([H])N([H])C(=O)N4C([H])([H])C([H])([H])C([H])([H])C([H])(n5nc(-c6c([H])c([H])c(Oc7c([H])c([H])c(F)c([H])c7F)c([H])c6[H])c(C(=O)N([H])[H])c5N([H])[H])C4([H])[H])C([H])([H])C3([H])[H])C([H])([H])[H])c([H])c([H])c2C1([H])[H]

>  <smiles>  (22) 
[H]c1c([H])c([H])c2c(c1[H])C([H])([H])C([H])([H])C([H])([H])C2([H])N([H])C(=O)C1([H])N(C(=O)C([H])(N([H])C(=O)C([H])(N([H])C([H])([H])[H])C([H])([H])[H])C(C([H])([H])[H])(C([H])([H])[H])C([H])([H])[H])C([H])([H])c2c([H])c(OC([H])([H])C([H])(C(=O)C([H])([H])[N+]3([H])C([H])([H])C([H])([H])C([H])(C([H])([H])N([H])C(=O)N4C([H])([H])C([H])([H])C([H])([H])C([H])(n5nc(-c6c([H])c([H])c(Oc7c([H])c([H])c(F)c([H])c7F)c([H])c6[H])c(C(=O)N([H])[H])c5N([H])[H])C4([H])[H])C([H])([H])C3([H])[H])C([H])([H])[H])c([H])c([H])c2C1([H])[H]

$$$$
22:0:0
     RDKit          3D

 91 99  0  0  1  0  0  0  0  0999 V2000
  -30.0200  -21.8860   20.9030 C   0  0  0  0  0  3  0  0  0  0  0  0
  -29.6180  -23.2180   21.2060 C   0  0  0  0  0  3  0  0  0  0  0  0
  -28.2550  -21.7140   19.2760 C   0  0  0  0  0  3  0  0  0  0  0  0
  -29.3480  -21.0950   19.9330 C   0  0  0  0  0  0  0  0  0  0  0  0
  -28.5380  -23.8470   20.5320 C   0  0  0  0  0  0  0  0  0  0  0  0
  -27.8550  -23.0510   19.5670 C   0  0  0  0  0  0  0  0  0  0  0  0
  -26.7830  -23.5650   18.9190 F   0  0  0  0  0  0  0  0  0  0  0  0
  -29.9040  -19.6940   19.4960 C   0  0  0  0  0  3  0  0  0  0  0  0
  -31.2180  -19.7160   19.7280 F   0  0  0  0  0  0  0  0  0  0  0  0
  -29.3410  -18.3390   20.1170 C   0  0  0  0  0  2  0  0  0  0  0  0
  -30.2310  -17.0600   19.8060 C   0  0  0  0  0  2  0  0  0  0  0  0
  -30.6110  -14.6090   20.3260 C   0  0  0  0  0  0  0  0  0  0  0  0
  -30.3450  -12.3580   19.3600 C   0  0  0  0  0  2  0  0  0  0  0  0
  -29.4270  -12.5270   18.1280 C   0  0  0  0  0  2  0  0  0  0  0  0
  -27.9470  -12.4010   18.5500 C   0  0  0  0  0  2  0  0  0  0  0  0
  -27.5930  -13.2620   19.7940 C   0  0  0  0  0  3  0  0  0  0  0  0
  -28.6530  -13.1340   20.9150 C   0  0  0  0  0  2  0  0  0  0  0  0
  -29.9660  -13.4110   20.3200 N   0  0  0  0  0  0  0  0  0  0  0  0
  -31.8060  -14.7060   20.0320 O   0  0  0  0  0  0  0  0  0  0  0  0
  -29.8250  -15.7250   20.3550 N   0  0  0  0  0  0  0  0  0  0  0  0
  -28.8400  -15.5700   20.5190 H   0  0  0  0  0  0  0  0  0  0  0  0
  -25.2020  -13.8630   20.5150 C   0  0  0  0  0  0  0  0  0  0  0  0
  -24.1340  -13.0880   20.8820 C   0  0  0  0  0  0  0  0  0  0  0  0
  -24.6000  -11.7380   20.8590 C   0  0  0  0  0  0  0  0  0  0  0  0
  -26.2470  -12.9810   20.2840 N   0  0  0  0  0  0  0  0  0  0  0  0
  -25.8890  -11.6970   20.5530 N   0  0  0  0  0  0  0  0  0  0  0  0
  -23.8740  -10.4750   21.0560 C   0  0  0  0  0  0  0  0  0  0  0  0
  -24.3110   -9.5090   21.9860 C   0  0  0  0  0  3  0  0  0  0  0  0
  -23.5890   -8.3110   22.1680 C   0  0  0  0  0  3  0  0  0  0  0  0
  -22.4110   -8.0720   21.4200 C   0  0  0  0  0  0  0  0  0  0  0  0
  -21.9920   -9.0270   20.4770 C   0  0  0  0  0  3  0  0  0  0  0  0
  -22.7170  -10.2170   20.2930 C   0  0  0  0  0  3  0  0  0  0  0  0
  -21.6560   -6.9280   21.5140 O   0  0  0  0  0  0  0  0  0  0  0  0
  -21.6260   -6.1740   22.6600 C   0  0  0  0  0  0  0  0  0  0  0  0
  -21.2280   -6.7200   23.9000 C   0  0  0  0  0  3  0  0  0  0  0  0
  -21.1470   -5.8960   25.0400 C   0  0  0  0  0  3  0  0  0  0  0  0
  -21.4520   -4.5260   24.9400 C   0  0  0  0  0  0  0  0  0  0  0  0
  -21.8440   -3.9780   23.7070 C   0  0  0  0  0  3  0  0  0  0  0  0
  -21.9280   -4.8010   22.5690 C   0  0  0  0  0  0  0  0  0  0  0  0
  -22.2840   -4.2650   21.3780 F   0  0  0  0  0  0  0  0  0  0  0  0
  -21.3670   -3.7300   26.0330 F   0  0  0  0  0  0  0  0  0  0  0  0
  -22.7360  -13.5650   21.1470 C   0  0  0  0  0  0  0  0  0  0  0  0
  -22.0030  -12.8670   22.0080 N   0  0  0  0  0  0  0  0  0  0  0  0
  -22.3000  -14.5880   20.6240 O   0  0  0  0  0  0  0  0  0  0  0  0
  -22.3640  -12.0320   22.4440 H   0  0  0  0  0  0  0  0  0  0  0  0
  -21.0630  -13.1640   22.2260 H   0  0  0  0  0  0  0  0  0  0  0  0
  -25.3690  -15.2330   20.3370 N   0  0  0  0  0  0  0  0  0  0  0  0
  -24.6160  -15.8960   20.4800 H   0  0  0  0  0  0  0  0  0  0  0  0
  -26.2250  -15.6720   20.0230 H   0  0  0  0  0  0  0  0  0  0  0  0
  -27.9910  -25.2450   20.9900 C   0  0  0  0  0  2  0  0  0  0  0  0
  -28.3060  -26.4890   20.2580 O   0  0  0  0  0  0  0  0  0  0  0  0
  -24.6060  -31.8950   23.2470 C   0  0  0  0  0  0  0  0  0  0  0  0
  -27.2310  -27.3750   20.1910 C   0  0  0  0  0  0  0  0  0  0  0  0
  -23.4050  -30.4910   21.6050 C   0  0  0  0  0  3  0  0  0  0  0  0
  -24.8620  -28.9560   20.1750 C   0  0  0  0  0  0  0  0  0  0  0  0
  -25.9410  -30.8280   21.4210 C   0  0  0  0  0  2  0  0  0  0  0  0
  -26.0280  -29.4530   20.7740 C   0  0  0  0  0  0  0  0  0  0  0  0
  -27.2190  -28.6740   20.7770 C   0  0  0  0  0  3  0  0  0  0  0  0
  -26.0580  -26.9340   19.5450 C   0  0  0  0  0  3  0  0  0  0  0  0
  -24.8770  -27.6990   19.5510 C   0  0  0  0  0  3  0  0  0  0  0  0
  -23.6210  -29.8250   20.2210 C   0  0  0  0  0  2  0  0  0  0  0  0
  -24.6670  -31.0890   22.1450 N   0  0  0  0  0  0  0  0  0  0  0  0
  -23.5230  -32.1660   23.7870 O   0  0  0  0  0  0  0  0  0  0  0  0
  -22.7500  -29.4740   22.5700 C   0  0  0  0  0  0  0  0  0  0  0  0
  -21.4260  -29.2870   22.4420 N   0  0  0  0  0  0  0  0  0  0  0  0
  -23.4330  -28.8540   23.3900 O   0  0  0  0  0  0  0  0  0  0  0  0
  -20.9380  -29.8450   21.7580 H   0  0  0  0  0  0  0  0  0  0  0  0
  -18.0540  -28.0820   22.9410 C   0  0  0  0  0  0  0  0  0  0  0  0
  -20.6120  -28.3490   23.2180 C   0  0  0  0  0  3  0  0  0  0  0  0
  -20.7180  -26.9170   22.6470 C   0  0  0  0  0  2  0  0  0  0  0  0
  -19.6180  -26.5880   21.6320 C   0  0  0  0  0  2  0  0  0  0  0  0
  -18.2330  -26.7320   22.2710 C   0  0  0  0  0  2  0  0  0  0  0  0
  -19.1700  -28.8490   23.3700 C   0  0  0  0  0  0  0  0  0  0  0  0
  -18.9470  -30.1130   23.9570 C   0  0  0  0  0  3  0  0  0  0  0  0
  -17.6410  -30.6100   24.1190 C   0  0  0  0  0  3  0  0  0  0  0  0
  -16.5390  -29.8420   23.7070 C   0  0  0  0  0  3  0  0  0  0  0  0
  -16.7460  -28.5800   23.1220 C   0  0  0  0  0  3  0  0  0  0  0  0
  -25.8900  -32.5320   23.8620 C   0  0  0  0  0  3  0  0  0  0  0  0
  -26.4090  -31.7680   25.1410 C   0  0  1  0  0  0  0  0  0  0  0  0
  -25.3170  -31.5360   26.2100 C   0  0  0  0  0  1  0  0  0  0  0  0
  -26.9930  -30.3890   24.7520 C   0  0  0  0  0  1  0  0  0  0  0  0
  -27.5580  -32.5660   25.8010 C   0  0  0  0  0  1  0  0  0  0  0  0
  -25.5780  -33.9290   24.1900 N   0  0  0  0  0  0  0  0  0  0  0  0
  -25.9130  -34.9820   23.4300 C   0  0  0  0  0  0  0  0  0  0  0  0
  -26.5860  -34.8780   22.4000 O   0  0  0  0  0  0  0  0  0  0  0  0
  -24.9850  -34.0840   24.9930 H   0  0  0  0  0  0  0  0  0  0  0  0
  -24.1810  -36.7650   23.0710 C   0  0  0  0  0  1  0  0  0  0  0  0
  -25.4220  -36.3690   23.8870 C   0  0  0  0  0  3  0  0  0  0  0  0
  -27.5510  -37.2520   24.7270 C   0  0  0  0  0  1  0  0  0  0  0  0
  -26.4530  -37.4230   23.7770 N   0  0  0  0  0  0  0  0  0  0  0  0
  -26.0480  -38.3420   23.9250 H   0  0  0  0  0  0  0  0  0  0  0  0
  1  2  1  0
  3  6  2  0
  3  4  1  0
  4  1  2  0
  5 50  1  0
  5  2  2  0
  6  5  1  0
  7  6  1  0
  8  9  1  0
  8  4  1  0
  8 10  1  0
 11 10  1  0
 11 20  1  0
 12 20  1  0
 13 18  1  0
 14 15  1  0
 14 13  1  0
 16 15  1  0
 16 25  1  0
 16 17  1  0
 18 12  1  0
 18 17  1  0
 19 12  2  0
 20 21  1  0
 22 23  2  0
 23 42  1  0
 24 23  1  0
 24 27  1  0
 25 22  1  0
 25 26  1  0
 26 24  2  0
 27 28  1  0
 28 29  2  0
 30 33  1  0
 30 29  1  0
 31 30  2  0
 32 31  1  0
 32 27  2  0
 33 34  1  0
 34 35  1  0
 35 36  2  0
 37 36  1  0
 37 41  1  0
 38 37  2  0
 39 34  2  0
 39 38  1  0
 40 39  1  0
 42 43  1  0
 43 46  1  0
 43 45  1  0
 44 42  2  0
 47 48  1  0
 47 22  1  0
 49 47  1  0
 51 50  1  0
 52 63  2  0
 53 51  1  0
 53 58  1  0
 54 62  1  0
 54 64  1  0
 55 61  1  0
 55 57  1  0
 56 62  1  0
 57 58  2  0
 57 56  1  0
 59 60  1  0
 59 53  2  0
 60 55  2  0
 61 54  1  0
 62 52  1  0
 64 66  2  0
 65 64  1  0
 67 65  1  0
 68 77  2  0
 68 73  1  0
 69 65  1  0
 69 73  1  0
 70 69  1  0
 71 72  1  0
 71 70  1  0
 72 68  1  0
 73 74  2  0
 74 75  1  0
 76 75  2  0
 77 76  1  0
 78 52  1  0
 78 83  1  0
 78 79  1  0
 79 82  1  1
 79 80  1  0
 81 79  1  0
 83 86  1  0
 84 88  1  0
 84 83  1  0
 85 84  2  0
 88 87  1  0
 90 88  1  0
 90 91  1  0
 90 89  1  0
M  ISO  4  12 100  20 100  50 101  51 101
M  END
>  <TORSDO>  (23) 
F 20

>  <SCORE>  (23) 
-13.890

>  <name>  (23) 
22

>  <ligand_id>  (23) 
22

>  <original_smiles>  (23) 
[H]c1c([H])c([H])c2c(c1[H])C([H])([H])C([H])([H])C([H])([H])C2([H])N([H])C(=O)C1([H])N(C(=O)C([H])(N([H])C(=O)C([H])(N([H])C([H])([H])[H])C([H])([H])[H])C(C([H])([H])[H])(C([H])([H])[H])C([H])([H])[H])C([H])([H])c2c([H])c(OC([H])([H])c3c([H])c([H])c(C([H])(F)C([H])([H])C([H])([H])N([H])C(=O)N4C([H])([H])C([H])([H])C([H])([H])C([H])(n5nc(-c6c([H])c([H])c(Oc7c([H])c([H])c(F)c([H])c7F)c([H])c6[H])c(C(=O)N([H])[H])c5N([H])[H])C4([H])[H])c([H])c3F)c([H])c([H])c2C1([H])[H]

>  <smiles>  (23) 
[H]c1c([H])c([H])c2c(c1[H])C([H])([H])C([H])([H])C([H])([H])C2([H])N([H])C(=O)C1([H])N(C(=O)C([H])(N([H])C(=O)C([H])(N([H])C([H])([H])[H])C([H])([H])[H])C(C([H])([H])[H])(C([H])([H])[H])C([H])([H])[H])C([H])([H])c2c([H])c(OC([H])([H])c3c([H])c([H])c(C([H])(F)C([H])([H])C([H])([H])N([H])C(=O)N4C([H])([H])C([H])([H])C([H])([H])C([H])(n5nc(-c6c([H])c([H])c(Oc7c([H])c([H])c(F)c([H])c7F)c([H])c6[H])c(C(=O)N([H])[H])c5N([H])[H])C4([H])[H])c([H])c3F)c([H])c([H])c2C1([H])[H]

$$$$
23:0:0
     RDKit          3D

 91 98  0  0  1  0  0  0  0  0999 V2000
  -31.3710  -22.3450   21.7640 C   0  0  0  0  0  1  0  0  0  0  0  0
  -30.0340  -21.7730   21.2520 C   0  0  0  0  0  3  0  0  0  0  0  0
  -29.3450  -22.7670   20.2370 C   0  0  0  0  0  2  0  0  0  0  0  0
  -29.3470  -24.3050   20.6020 C   0  0  0  0  0  3  0  0  0  0  0  0
  -30.5550  -24.8000   20.3260 F   0  0  0  0  0  0  0  0  0  0  0  0
  -28.2950  -25.1980   19.8700 C   0  0  0  0  0  2  0  0  0  0  0  0
  -28.3810  -26.6210   20.1750 O   0  0  0  0  0  0  0  0  0  0  0  0
  -24.6160  -31.8790   23.2260 C   0  0  0  0  0  0  0  0  0  0  0  0
  -27.2240  -27.3930   20.1270 C   0  0  0  0  0  0  0  0  0  0  0  0
  -23.3970  -30.4820   21.5930 C   0  0  0  0  0  3  0  0  0  0  0  0
  -24.8390  -28.9450   20.1500 C   0  0  0  0  0  0  0  0  0  0  0  0
  -25.9270  -30.8240   21.3820 C   0  0  0  0  0  2  0  0  0  0  0  0
  -26.0050  -29.4510   20.7350 C   0  0  0  0  0  0  0  0  0  0  0  0
  -27.1980  -28.6830   20.7200 C   0  0  0  0  0  3  0  0  0  0  0  0
  -26.0370  -26.9260   19.5110 C   0  0  0  0  0  3  0  0  0  0  0  0
  -24.8520  -27.6850   19.5330 C   0  0  0  0  0  3  0  0  0  0  0  0
  -23.5980  -29.8080   20.2090 C   0  0  0  0  0  2  0  0  0  0  0  0
  -24.6660  -31.0770   22.1240 N   0  0  0  0  0  0  0  0  0  0  0  0
  -23.5390  -32.1520   23.7730 O   0  0  0  0  0  0  0  0  0  0  0  0
  -22.7510  -29.4590   22.5550 C   0  0  0  0  0  0  0  0  0  0  0  0
  -21.4240  -29.2800   22.4400 N   0  0  0  0  0  0  0  0  0  0  0  0
  -23.4390  -28.8310   23.3640 O   0  0  0  0  0  0  0  0  0  0  0  0
  -20.9290  -29.8380   21.7590 H   0  0  0  0  0  0  0  0  0  0  0  0
  -18.0540  -28.0780   22.9580 C   0  0  0  0  0  0  0  0  0  0  0  0
  -20.6120  -28.3410   23.2160 C   0  0  0  0  0  3  0  0  0  0  0  0
  -20.7150  -26.9100   22.6410 C   0  0  0  0  0  2  0  0  0  0  0  0
  -19.6080  -26.5840   21.6330 C   0  0  0  0  0  2  0  0  0  0  0  0
  -18.2290  -26.7280   22.2830 C   0  0  0  0  0  2  0  0  0  0  0  0
  -19.1740  -28.8430   23.3820 C   0  0  0  0  0  0  0  0  0  0  0  0
  -18.9560  -30.1070   23.9720 C   0  0  0  0  0  3  0  0  0  0  0  0
  -17.6520  -30.6070   24.1420 C   0  0  0  0  0  3  0  0  0  0  0  0
  -16.5460  -29.8410   23.7340 C   0  0  0  0  0  3  0  0  0  0  0  0
  -16.7490  -28.5780   23.1490 C   0  0  0  0  0  3  0  0  0  0  0  0
  -25.9070  -32.5090   23.8370 C   0  0  0  0  0  3  0  0  0  0  0  0
  -26.4410  -31.7300   25.1010 C   0  0  1  0  0  0  0  0  0  0  0  0
  -25.3620  -31.4840   26.1810 C   0  0  0  0  0  1  0  0  0  0  0  0
  -27.0210  -30.3550   24.6920 C   0  0  0  0  0  1  0  0  0  0  0  0
  -27.6000  -32.5210   25.7530 C   0  0  0  0  0  1  0  0  0  0  0  0
  -25.5970  -33.9050   24.1790 N   0  0  0  0  0  0  0  0  0  0  0  0
  -25.9130  -34.9620   23.4200 C   0  0  0  0  0  0  0  0  0  0  0  0
  -26.5680  -34.8660   22.3790 O   0  0  0  0  0  0  0  0  0  0  0  0
  -25.0150  -34.0530   24.9910 H   0  0  0  0  0  0  0  0  0  0  0  0
  -24.1670  -36.7460   23.1100 C   0  0  0  0  0  1  0  0  0  0  0  0
  -25.4280  -36.3460   23.8930 C   0  0  0  0  0  3  0  0  0  0  0  0
  -27.5760  -37.2370   24.6790 C   0  0  0  0  0  1  0  0  0  0  0  0
  -26.4510  -37.4050   23.7630 N   0  0  0  0  0  0  0  0  0  0  0  0
  -26.0440  -38.3220   23.9250 H   0  0  0  0  0  0  0  0  0  0  0  0
  -30.3090  -20.2990   20.7530 C   0  0  0  0  0  2  0  0  0  0  0  0
  -29.1180  -19.4140   20.6120 N   0  0  0  0  0  4  0  0  0  0  0  0
  -28.3720  -19.8420   21.1360 H   0  0  0  0  0  0  0  0  0  0  0  0
  -28.8270  -19.4130   19.6490 H   0  0  0  0  0  0  0  0  0  0  0  0
  -29.2080  -17.9960   21.1030 C   0  0  0  0  0  2  0  0  0  0  0  0
  -30.1130  -17.0090   20.2900 C   0  0  0  0  0  2  0  0  0  0  0  0
  -30.6340  -14.5350   20.1710 C   0  0  0  0  0  0  0  0  0  0  0  0
  -30.3040  -12.3650   19.0370 C   0  0  0  0  0  2  0  0  0  0  0  0
  -29.3220  -12.5860   17.8680 C   0  0  0  0  0  2  0  0  0  0  0  0
  -27.8610  -12.4540   18.3450 C   0  0  0  0  0  2  0  0  0  0  0  0
  -27.5750  -13.2740   19.6310 C   0  0  0  0  0  3  0  0  0  0  0  0
  -28.6690  -13.0410   20.6990 C   0  0  0  0  0  2  0  0  0  0  0  0
  -29.9730  -13.3440   20.0880 N   0  0  0  0  0  0  0  0  0  0  0  0
  -31.7450  -14.7140   19.6680 O   0  0  0  0  0  0  0  0  0  0  0  0
  -29.9060  -15.5760   20.6360 N   0  0  0  0  0  0  0  0  0  0  0  0
  -29.0200  -15.3300   21.0530 H   0  0  0  0  0  0  0  0  0  0  0  0
  -25.2060  -13.8930   20.4220 C   0  0  0  0  0  0  0  0  0  0  0  0
  -24.1470  -13.1260   20.8280 C   0  0  0  0  0  0  0  0  0  0  0  0
  -24.5990  -11.7720   20.7790 C   0  0  0  0  0  0  0  0  0  0  0  0
  -26.2370  -13.0060   20.1550 N   0  0  0  0  0  0  0  0  0  0  0  0
  -25.8780  -11.7250   20.4260 N   0  0  0  0  0  0  0  0  0  0  0  0
  -23.8710  -10.5140   20.9930 C   0  0  0  0  0  0  0  0  0  0  0  0
  -24.3380   -9.5350   21.8980 C   0  0  0  0  0  3  0  0  0  0  0  0
  -23.6120   -8.3420   22.1010 C   0  0  0  0  0  3  0  0  0  0  0  0
  -22.4040   -8.1180   21.3970 C   0  0  0  0  0  0  0  0  0  0  0  0
  -21.9550   -9.0860   20.4810 C   0  0  0  0  0  3  0  0  0  0  0  0
  -22.6820  -10.2710   20.2770 C   0  0  0  0  0  3  0  0  0  0  0  0
  -21.6470   -6.9770   21.5090 O   0  0  0  0  0  0  0  0  0  0  0  0
  -21.6550   -6.2180   22.6520 C   0  0  0  0  0  0  0  0  0  0  0  0
  -21.3190   -6.7620   23.9110 C   0  0  0  0  0  3  0  0  0  0  0  0
  -21.2720   -5.9300   25.0470 C   0  0  0  0  0  3  0  0  0  0  0  0
  -21.5510   -4.5550   24.9260 C   0  0  0  0  0  0  0  0  0  0  0  0
  -21.8790   -4.0110   23.6730 C   0  0  0  0  0  3  0  0  0  0  0  0
  -21.9290   -4.8390   22.5380 C   0  0  0  0  0  0  0  0  0  0  0  0
  -22.2250   -4.3060   21.3280 F   0  0  0  0  0  0  0  0  0  0  0  0
  -21.4970   -3.7550   26.0150 F   0  0  0  0  0  0  0  0  0  0  0  0
  -22.7630  -13.6130   21.1470 C   0  0  0  0  0  0  0  0  0  0  0  0
  -22.0620  -12.9220   22.0400 N   0  0  0  0  0  0  0  0  0  0  0  0
  -22.3110  -14.6380   20.6400 O   0  0  0  0  0  0  0  0  0  0  0  0
  -22.4400  -12.0920   22.4740 H   0  0  0  0  0  0  0  0  0  0  0  0
  -21.1330  -13.2280   22.2950 H   0  0  0  0  0  0  0  0  0  0  0  0
  -25.3730  -15.2630   20.2370 N   0  0  0  0  0  0  0  0  0  0  0  0
  -24.6040  -15.9150   20.3490 H   0  0  0  0  0  0  0  0  0  0  0  0
  -26.1970  -15.6870   19.8310 H   0  0  0  0  0  0  0  0  0  0  0  0
  2  1  1  0
  3  4  1  0
  3  2  1  0
  4  5  1  0
  6  7  1  0
  6  4  1  0
  8 19  2  0
  9  7  1  0
  9 14  1  0
 10 18  1  0
 10 20  1  0
 11 17  1  0
 11 13  1  0
 12 18  1  0
 13 12  1  0
 14 13  2  0
 15 16  1  0
 15  9  2  0
 16 11  2  0
 17 10  1  0
 18  8  1  0
 20 22  2  0
 21 20  1  0
 23 21  1  0
 24 33  2  0
 24 29  1  0
 25 21  1  0
 25 29  1  0
 26 25  1  0
 27 28  1  0
 27 26  1  0
 28 24  1  0
 29 30  2  0
 30 31  1  0
 32 31  2  0
 33 32  1  0
 34  8  1  0
 34 39  1  0
 34 35  1  0
 35 38  1  1
 35 36  1  0
 37 35  1  0
 39 42  1  0
 40 44  1  0
 40 39  1  0
 41 40  2  0
 44 43  1  0
 46 44  1  0
 46 47  1  0
 46 45  1  0
 48  2  1  0
 49 48  1  0
 49 52  1  0
 49 50  1  0
 51 49  1  0
 53 62  1  0
 53 52  1  0
 54 62  1  0
 55 60  1  0
 56 57  1  0
 56 55  1  0
 58 57  1  0
 58 67  1  0
 58 59  1  0
 60 54  1  0
 60 59  1  0
 61 54  2  0
 62 63  1  0
 64 65  2  0
 65 84  1  0
 66 65  1  0
 66 69  1  0
 67 64  1  0
 67 68  1  0
 68 66  2  0
 69 70  1  0
 70 71  2  0
 72 75  1  0
 72 71  1  0
 73 72  2  0
 74 73  1  0
 74 69  2  0
 75 76  1  0
 76 77  1  0
 77 78  2  0
 79 78  1  0
 79 83  1  0
 80 79  2  0
 81 76  2  0
 81 80  1  0
 82 81  1  0
 84 85  1  0
 85 88  1  0
 85 87  1  0
 86 84  2  0
 89 90  1  0
 89 64  1  0
 91 89  1  0
M  ISO  4   6 101   7 101  54 100  62 100
M  END
>  <TORSDO>  (24) 
F 23

>  <SCORE>  (24) 
-12.454

>  <name>  (24) 
23

>  <ligand_id>  (24) 
23

>  <original_smiles>  (24) 
[H]c1c([H])c([H])c2c(c1[H])C([H])([H])C([H])([H])C([H])([H])C2([H])N([H])C(=O)C1([H])N(C(=O)C([H])(N([H])C(=O)C([H])(N([H])C([H])([H])[H])C([H])([H])[H])C(C([H])([H])[H])(C([H])([H])[H])C([H])([H])[H])C([H])([H])c2c([H])c(OC([H])([H])C([H])(F)C([H])([H])C([H])(C([H])([H])[H])C([H])([H])[N+]([H])([H])C([H])([H])C([H])([H])N([H])C(=O)N3C([H])([H])C([H])([H])C([H])([H])C([H])(n4nc(-c5c([H])c([H])c(Oc6c([H])c([H])c(F)c([H])c6F)c([H])c5[H])c(C(=O)N([H])[H])c4N([H])[H])C3([H])[H])c([H])c([H])c2C1([H])[H]

>  <smiles>  (24) 
[H]c1c([H])c([H])c2c(c1[H])C([H])([H])C([H])([H])C([H])([H])C2([H])N([H])C(=O)C1([H])N(C(=O)C([H])(N([H])C(=O)C([H])(N([H])C([H])([H])[H])C([H])([H])[H])C(C([H])([H])[H])(C([H])([H])[H])C([H])([H])[H])C([H])([H])c2c([H])c(OC([H])([H])C([H])(F)C([H])([H])C([H])(C([H])([H])[H])C([H])([H])[N+]([H])([H])C([H])([H])C([H])([H])N([H])C(=O)N3C([H])([H])C([H])([H])C([H])([H])C([H])(n4nc(-c5c([H])c([H])c(Oc6c([H])c([H])c(F)c([H])c6F)c([H])c5[H])c(C(=O)N([H])[H])c4N([H])[H])C3([H])[H])c([H])c([H])c2C1([H])[H]

$$$$
24:0:0
     RDKit          3D

 94102  0  0  1  0  0  0  0  0999 V2000
  -29.1850  -20.3900   21.1120 N   0  0  0  0  0  4  0  0  0  0  0  0
  -29.1160  -20.4320   22.1150 H   0  0  0  0  0  0  0  0  0  0  0  0
  -28.2650  -20.2590   20.7110 H   0  0  0  0  0  0  0  0  0  0  0  0
  -30.7090  -14.5490   20.2220 C   0  0  0  0  0  0  0  0  0  0  0  0
  -30.3770  -12.3740   19.1120 C   0  0  0  0  0  2  0  0  0  0  0  0
  -29.4030  -12.5520   17.9280 C   0  0  0  0  0  2  0  0  0  0  0  0
  -27.9390  -12.4190   18.3990 C   0  0  0  0  0  2  0  0  0  0  0  0
  -27.6270  -13.2520   19.6700 C   0  0  0  0  0  3  0  0  0  0  0  0
  -28.7220  -13.0810   20.7480 C   0  0  0  0  0  2  0  0  0  0  0  0
  -30.0200  -13.3760   20.1260 N   0  0  0  0  0  0  0  0  0  0  0  0
  -31.8910  -14.6550   19.8880 O   0  0  0  0  0  0  0  0  0  0  0  0
  -29.9910  -17.5100   18.6740 C   0  0  0  0  0  2  0  0  0  0  0  0
  -29.5160  -17.9360   21.6360 C   0  0  0  0  0  2  0  0  0  0  0  0
  -29.2920  -16.2650   19.2690 C   0  0  0  0  0  2  0  0  0  0  0  0
  -30.3780  -16.6390   21.4850 C   0  0  0  0  0  2  0  0  0  0  0  0
  -29.5130  -18.8630   19.2310 C   0  0  0  0  0  3  0  0  0  0  0  0
  -29.8810  -19.1360   20.7040 C   0  0  0  0  0  3  0  0  0  0  0  0
  -29.9670  -15.6720   20.4400 N   0  0  0  0  0  0  0  0  0  0  0  0
  -25.2530  -13.8580   20.4470 C   0  0  0  0  0  0  0  0  0  0  0  0
  -24.1940  -13.0810   20.8320 C   0  0  0  0  0  0  0  0  0  0  0  0
  -24.6570  -11.7310   20.7840 C   0  0  0  0  0  0  0  0  0  0  0  0
  -26.2920  -12.9760   20.1890 N   0  0  0  0  0  0  0  0  0  0  0  0
  -25.9400  -11.6930   20.4510 N   0  0  0  0  0  0  0  0  0  0  0  0
  -23.9370  -10.4680   20.9770 C   0  0  0  0  0  0  0  0  0  0  0  0
  -24.3790   -9.5020   21.9090 C   0  0  0  0  0  3  0  0  0  0  0  0
  -23.6600   -8.3020   22.0900 C   0  0  0  0  0  3  0  0  0  0  0  0
  -22.4850   -8.0590   21.3390 C   0  0  0  0  0  0  0  0  0  0  0  0
  -22.0630   -9.0130   20.3970 C   0  0  0  0  0  3  0  0  0  0  0  0
  -22.7840  -10.2050   20.2140 C   0  0  0  0  0  3  0  0  0  0  0  0
  -21.7360   -6.9100   21.4310 O   0  0  0  0  0  0  0  0  0  0  0  0
  -21.6810   -6.1800   22.5900 C   0  0  0  0  0  0  0  0  0  0  0  0
  -21.2210   -6.7400   23.8030 C   0  0  0  0  0  3  0  0  0  0  0  0
  -21.1120   -5.9340   24.9540 C   0  0  0  0  0  3  0  0  0  0  0  0
  -21.4560   -4.5710   24.8940 C   0  0  0  0  0  0  0  0  0  0  0  0
  -21.9100   -4.0100   23.6870 C   0  0  0  0  0  3  0  0  0  0  0  0
  -22.0200   -4.8120   22.5380 C   0  0  0  0  0  0  0  0  0  0  0  0
  -22.4380   -4.2640   21.3710 F   0  0  0  0  0  0  0  0  0  0  0  0
  -21.3450   -3.7940   25.9970 F   0  0  0  0  0  0  0  0  0  0  0  0
  -22.8040  -13.5570   21.1370 C   0  0  0  0  0  0  0  0  0  0  0  0
  -22.0940  -12.8510   22.0100 N   0  0  0  0  0  0  0  0  0  0  0  0
  -22.3570  -14.5880   20.6360 O   0  0  0  0  0  0  0  0  0  0  0  0
  -22.4700  -12.0180   22.4350 H   0  0  0  0  0  0  0  0  0  0  0  0
  -21.1620  -13.1530   22.2600 H   0  0  0  0  0  0  0  0  0  0  0  0
  -25.4090  -15.2290   20.2760 N   0  0  0  0  0  0  0  0  0  0  0  0
  -24.6400  -15.8780   20.4110 H   0  0  0  0  0  0  0  0  0  0  0  0
  -26.2550  -15.6760   19.9510 H   0  0  0  0  0  0  0  0  0  0  0  0
  -28.0710  -19.0110   19.0590 N   0  0  0  0  0  0  0  0  0  0  0  0
  -27.6040  -18.2000   19.4490 H   0  0  0  0  0  0  0  0  0  0  0  0
  -27.8510  -18.9590   18.0680 H   0  0  0  0  0  0  0  0  0  0  0  0
  -29.7080  -21.6850   20.5870 C   0  0  0  0  0  2  0  0  0  0  0  0
  -28.8290  -22.8900   21.0250 C   0  0  0  0  0  2  0  0  0  0  0  0
  -29.1830  -24.2690   20.3970 C   0  0  0  0  0  2  0  0  0  0  0  0
  -28.2790  -25.4070   20.9390 C   0  0  0  0  0  2  0  0  0  0  0  0
  -28.4690  -26.6830   20.2910 O   0  0  0  0  0  0  0  0  0  0  0  0
  -24.6450  -31.9140   23.2680 C   0  0  0  0  0  0  0  0  0  0  0  0
  -27.3270  -27.4580   20.2440 C   0  0  0  0  0  0  0  0  0  0  0  0
  -23.4620  -30.5050   21.6150 C   0  0  0  0  0  3  0  0  0  0  0  0
  -24.9370  -28.9700   20.2090 C   0  0  0  0  0  0  0  0  0  0  0  0
  -25.9900  -30.8670   21.4490 C   0  0  0  0  0  2  0  0  0  0  0  0
  -26.0880  -29.4950   20.8120 C   0  0  0  0  0  0  0  0  0  0  0  0
  -27.2900  -28.7470   20.8240 C   0  0  0  0  0  3  0  0  0  0  0  0
  -26.1640  -26.9570   19.6200 C   0  0  0  0  0  3  0  0  0  0  0  0
  -24.9700  -27.7000   19.6090 C   0  0  0  0  0  3  0  0  0  0  0  0
  -23.6890  -29.8250   20.2400 C   0  0  0  0  0  2  0  0  0  0  0  0
  -24.7160  -31.1110   22.1690 N   0  0  0  0  0  0  0  0  0  0  0  0
  -23.5560  -32.1840   23.7940 O   0  0  0  0  0  0  0  0  0  0  0  0
  -22.8010  -29.4840   22.5710 C   0  0  0  0  0  0  0  0  0  0  0  0
  -21.4760  -29.3100   22.4370 N   0  0  0  0  0  0  0  0  0  0  0  0
  -23.4770  -28.8540   23.3870 O   0  0  0  0  0  0  0  0  0  0  0  0
  -20.9920  -29.8690   21.7500 H   0  0  0  0  0  0  0  0  0  0  0  0
  -18.0900  -28.1480   22.9340 C   0  0  0  0  0  0  0  0  0  0  0  0
  -20.6510  -28.3750   23.2020 C   0  0  0  0  0  3  0  0  0  0  0  0
  -20.7360  -26.9480   22.6150 C   0  0  0  0  0  2  0  0  0  0  0  0
  -19.6290  -26.6450   21.6010 C   0  0  0  0  0  2  0  0  0  0  0  0
  -18.2500  -26.8020   22.2470 C   0  0  0  0  0  2  0  0  0  0  0  0
  -19.2180  -28.8940   23.3680 C   0  0  0  0  0  0  0  0  0  0  0  0
  -19.0150  -30.1560   23.9690 C   0  0  0  0  0  3  0  0  0  0  0  0
  -17.7170  -30.6710   24.1400 C   0  0  0  0  0  3  0  0  0  0  0  0
  -16.6030  -29.9220   23.7230 C   0  0  0  0  0  3  0  0  0  0  0  0
  -16.7900  -28.6630   23.1260 C   0  0  0  0  0  3  0  0  0  0  0  0
  -25.9220  -32.5500   23.9010 C   0  0  0  0  0  3  0  0  0  0  0  0
  -25.6070  -33.9490   24.2180 N   0  0  0  0  0  0  0  0  0  0  0  0
  -25.9520  -34.9980   23.4570 C   0  0  0  0  0  0  0  0  0  0  0  0
  -26.6400  -34.8890   22.4380 O   0  0  0  0  0  0  0  0  0  0  0  0
  -24.9990  -34.1090   25.0080 H   0  0  0  0  0  0  0  0  0  0  0  0
  -24.2360  -36.7910   23.0550 C   0  0  0  0  0  1  0  0  0  0  0  0
  -25.4560  -36.3880   23.8990 C   0  0  0  0  0  3  0  0  0  0  0  0
  -27.5690  -37.2700   24.7820 C   0  0  0  0  0  1  0  0  0  0  0  0
  -26.4930  -37.4390   23.8100 N   0  0  0  0  0  0  0  0  0  0  0  0
  -26.0850  -38.3590   23.9470 H   0  0  0  0  0  0  0  0  0  0  0  0
  -26.4260  -31.7860   25.1870 C   0  0  1  0  0  0  0  0  0  0  0  0
  -25.3210  -31.5440   26.2410 C   0  0  0  0  0  1  0  0  0  0  0  0
  -27.0220  -30.4110   24.8060 C   0  0  0  0  0  1  0  0  0  0  0  0
  -27.5650  -32.5880   25.8600 C   0  0  0  0  0  1  0  0  0  0  0  0
  1  2  1  0
  3  1  1  0
  4 18  1  0
  5 10  1  0
  6  7  1  0
  6  5  1  0
  8  7  1  0
  8 22  1  0
  8  9  1  0
 10  4  1  0
 10  9  1  0
 11  4  2  0
 12 16  1  0
 12 14  1  0
 14 18  1  0
 15 13  1  0
 16 47  1  0
 16 17  1  0
 17  1  1  0
 17 13  1  0
 18 15  1  0
 19 20  2  0
 20 39  1  0
 21 20  1  0
 21 24  1  0
 22 19  1  0
 22 23  1  0
 23 21  2  0
 24 25  1  0
 25 26  2  0
 27 30  1  0
 27 26  1  0
 28 27  2  0
 29 28  1  0
 29 24  2  0
 30 31  1  0
 31 32  1  0
 32 33  2  0
 34 33  1  0
 34 38  1  0
 35 34  2  0
 36 31  2  0
 36 35  1  0
 37 36  1  0
 39 40  1  0
 40 43  1  0
 40 42  1  0
 41 39  2  0
 44 45  1  0
 44 19  1  0
 46 44  1  0
 47 48  1  0
 49 47  1  0
 50 51  1  0
 50  1  1  0
 52 53  1  0
 52 51  1  0
 54 53  1  0
 55 66  2  0
 56 54  1  0
 56 61  1  0
 57 65  1  0
 57 67  1  0
 58 64  1  0
 58 60  1  0
 59 65  1  0
 60 61  2  0
 60 59  1  0
 62 56  2  0
 63 62  1  0
 63 58  2  0
 64 57  1  0
 65 55  1  0
 67 69  2  0
 68 67  1  0
 70 68  1  0
 71 80  2  0
 71 76  1  0
 72 68  1  0
 72 76  1  0
 73 72  1  0
 74 75  1  0
 74 73  1  0
 75 71  1  0
 76 77  2  0
 77 78  1  0
 79 78  2  0
 80 79  1  0
 81 55  1  0
 81 82  1  0
 81 91  1  0
 82 85  1  0
 83 87  1  0
 83 82  1  0
 84 83  2  0
 87 86  1  0
 89 87  1  0
 89 90  1  0
 89 88  1  0
 91 94  1  1
 91 92  1  0
 93 91  1  0
M  ISO  4   4 100  18 100  53 101  54 101
M  END
>  <TORSDO>  (25) 
F 21

>  <SCORE>  (25) 
-13.568

>  <name>  (25) 
24

>  <ligand_id>  (25) 
24

>  <original_smiles>  (25) 
[H]c1c([H])c([H])c2c(c1[H])C([H])([H])C([H])([H])C([H])([H])C2([H])N([H])C(=O)C1([H])N(C(=O)C([H])(N([H])C(=O)C([H])(N([H])C([H])([H])[H])C([H])([H])[H])C(C([H])([H])[H])(C([H])([H])[H])C([H])([H])[H])C([H])([H])c2c([H])c(OC([H])([H])C([H])([H])C([H])([H])C([H])([H])[N+]([H])([H])C3([H])C([H])([H])C([H])([H])N(C(=O)N4C([H])([H])C([H])([H])C([H])([H])C([H])(n5nc(-c6c([H])c([H])c(Oc7c([H])c([H])c(F)c([H])c7F)c([H])c6[H])c(C(=O)N([H])[H])c5N([H])[H])C4([H])[H])C([H])([H])C([H])([H])C3([H])N([H])[H])c([H])c([H])c2C1([H])[H]

>  <smiles>  (25) 
[H]c1c([H])c([H])c2c(c1[H])C([H])([H])C([H])([H])C([H])([H])C2([H])N([H])C(=O)C1([H])N(C(=O)C([H])(N([H])C(=O)C([H])(N([H])C([H])([H])[H])C([H])([H])[H])C(C([H])([H])[H])(C([H])([H])[H])C([H])([H])[H])C([H])([H])c2c([H])c(OC([H])([H])C([H])([H])C([H])([H])C([H])([H])[N+]([H])([H])C3([H])C([H])([H])C([H])([H])N(C(=O)N4C([H])([H])C([H])([H])C([H])([H])C([H])(n5nc(-c6c([H])c([H])c(Oc7c([H])c([H])c(F)c([H])c7F)c([H])c6[H])c(C(=O)N([H])[H])c5N([H])[H])C4([H])[H])C([H])([H])C([H])([H])C3([H])N([H])[H])c([H])c([H])c2C1([H])[H]

$$$$
25:0:0
     RDKit          3D

 98106  0  0  1  0  0  0  0  0999 V2000
  -29.0580  -23.3050   17.1660 C   0  0  0  0  0  2  0  0  0  0  0  0
  -29.3610  -24.7760   17.4650 C   0  0  0  0  0  0  0  0  0  0  0  0
  -30.5520  -25.0380   18.0170 N   0  0  0  0  0  0  0  0  0  0  0  0
  -28.5380  -25.6480   17.1840 O   0  0  0  0  0  0  0  0  0  0  0  0
  -31.1800  -24.2560   18.1550 H   0  0  0  0  0  0  0  0  0  0  0  0
  -31.0190  -26.3370   18.4920 C   0  0  0  0  0  2  0  0  0  0  0  0
  -30.8530  -26.4800   20.0190 C   0  0  0  0  0  2  0  0  0  0  0  0
  -29.6500  -27.3370   20.4430 C   0  0  0  0  0  2  0  0  0  0  0  0
  -28.4230  -26.6840   20.1300 O   0  0  0  0  0  0  0  0  0  0  0  0
  -24.5880  -31.8680   23.2140 C   0  0  0  0  0  0  0  0  0  0  0  0
  -27.2700  -27.4360   20.1900 C   0  0  0  0  0  0  0  0  0  0  0  0
  -23.3840  -30.4470   21.5790 C   0  0  0  0  0  3  0  0  0  0  0  0
  -24.8460  -28.8940   20.1810 C   0  0  0  0  0  0  0  0  0  0  0  0
  -25.9010  -30.8210   21.3790 C   0  0  0  0  0  2  0  0  0  0  0  0
  -25.9920  -29.4410   20.7660 C   0  0  0  0  0  0  0  0  0  0  0  0
  -27.2000  -28.7210   20.7790 C   0  0  0  0  0  3  0  0  0  0  0  0
  -26.1040  -26.8880   19.6170 C   0  0  0  0  0  3  0  0  0  0  0  0
  -24.8920  -27.6090   19.6060 C   0  0  0  0  0  3  0  0  0  0  0  0
  -23.5970  -29.7460   20.2090 C   0  0  0  0  0  2  0  0  0  0  0  0
  -24.6420  -31.0590   22.1170 N   0  0  0  0  0  0  0  0  0  0  0  0
  -23.5070  -32.1440   23.7500 O   0  0  0  0  0  0  0  0  0  0  0  0
  -22.7320  -29.4370   22.5500 C   0  0  0  0  0  0  0  0  0  0  0  0
  -21.4100  -29.2510   22.4150 N   0  0  0  0  0  0  0  0  0  0  0  0
  -23.4130  -28.8230   23.3760 O   0  0  0  0  0  0  0  0  0  0  0  0
  -20.9240  -29.7980   21.7170 H   0  0  0  0  0  0  0  0  0  0  0  0
  -18.0350  -28.0580   22.8920 C   0  0  0  0  0  0  0  0  0  0  0  0
  -20.5900  -28.3210   23.1890 C   0  0  0  0  0  3  0  0  0  0  0  0
  -20.7000  -26.8840   22.6310 C   0  0  0  0  0  2  0  0  0  0  0  0
  -19.6090  -26.5470   21.6090 C   0  0  0  0  0  2  0  0  0  0  0  0
  -18.2200  -26.7000   22.2370 C   0  0  0  0  0  2  0  0  0  0  0  0
  -19.1490  -28.8260   23.3240 C   0  0  0  0  0  0  0  0  0  0  0  0
  -18.9230  -30.0980   23.8940 C   0  0  0  0  0  3  0  0  0  0  0  0
  -17.6170  -30.6020   24.0380 C   0  0  0  0  0  3  0  0  0  0  0  0
  -16.5180  -29.8310   23.6240 C   0  0  0  0  0  3  0  0  0  0  0  0
  -16.7270  -28.5600   23.0560 C   0  0  0  0  0  3  0  0  0  0  0  0
  -25.8760  -32.4990   23.8300 C   0  0  0  0  0  3  0  0  0  0  0  0
  -25.5670  -33.8970   24.1600 N   0  0  0  0  0  0  0  0  0  0  0  0
  -25.9080  -34.9490   23.4030 C   0  0  0  0  0  0  0  0  0  0  0  0
  -26.5870  -34.8440   22.3770 O   0  0  0  0  0  0  0  0  0  0  0  0
  -24.9670  -34.0520   24.9560 H   0  0  0  0  0  0  0  0  0  0  0  0
  -24.1920  -36.7460   23.0220 C   0  0  0  0  0  1  0  0  0  0  0  0
  -25.4170  -36.3360   23.8560 C   0  0  0  0  0  3  0  0  0  0  0  0
  -27.5410  -37.2100   24.7250 C   0  0  0  0  0  1  0  0  0  0  0  0
  -26.4540  -37.3860   23.7650 N   0  0  0  0  0  0  0  0  0  0  0  0
  -26.0480  -38.3070   23.9110 H   0  0  0  0  0  0  0  0  0  0  0  0
  -26.4020  -31.7270   25.1020 C   0  0  1  0  0  0  0  0  0  0  0  0
  -25.3120  -31.4780   26.1710 C   0  0  0  0  0  1  0  0  0  0  0  0
  -26.9930  -30.3560   24.6990 C   0  0  0  0  0  1  0  0  0  0  0  0
  -27.5480  -32.5270   25.7650 C   0  0  0  0  0  1  0  0  0  0  0  0
  -27.7600  -22.7760   19.3180 C   0  0  0  0  0  1  0  0  0  0  0  0
  -28.9710  -22.4130   18.4310 C   0  0  0  0  0  3  0  0  0  0  0  0
  -28.9480  -20.9190   18.0270 C   0  0  0  0  0  2  0  0  0  0  0  0
  -30.8570  -19.0010   20.7670 C   0  0  0  0  0  2  0  0  0  0  0  0
  -28.8580  -17.6700   20.0770 C   0  0  0  0  0  2  0  0  0  0  0  0
  -30.6340  -19.9290   19.5600 C   0  0  0  0  0  2  0  0  0  0  0  0
  -28.6520  -18.6300   18.8890 C   0  0  0  0  0  2  0  0  0  0  0  0
  -30.3440  -17.5810   20.4780 C   0  0  0  0  0  3  0  0  0  0  0  0
  -29.2000  -19.9870   19.1600 N   0  0  2  0  0  4  0  0  0  0  0  0
  -28.6800  -20.3500   19.9460 H   0  0  0  0  0  0  0  0  0  0  0  0
  -30.5970  -16.6310   21.6710 C   0  0  0  0  0  2  0  0  0  0  0  0
  -30.6980  -14.3900   20.5850 C   0  0  0  0  0  0  0  0  0  0  0  0
  -30.3530  -12.3020   19.3220 C   0  0  0  0  0  2  0  0  0  0  0  0
  -29.4130  -12.5560   18.1290 C   0  0  0  0  0  2  0  0  0  0  0  0
  -27.9370  -12.4210   18.5540 C   0  0  0  0  0  2  0  0  0  0  0  0
  -27.6100  -13.2300   19.8370 C   0  0  0  0  0  3  0  0  0  0  0  0
  -28.6560  -12.9520   20.9390 C   0  0  0  0  0  2  0  0  0  0  0  0
  -29.9940  -13.2460   20.3900 N   0  0  0  0  0  0  0  0  0  0  0  0
  -31.7610  -14.6420   20.0100 O   0  0  0  0  0  0  0  0  0  0  0  0
  -30.1240  -15.2750   21.4090 N   0  0  0  0  0  0  0  0  0  0  0  0
  -29.2650  -14.9880   21.8550 H   0  0  0  0  0  0  0  0  0  0  0  0
  -25.2040  -13.8470   20.5200 C   0  0  0  0  0  0  0  0  0  0  0  0
  -24.1320  -13.0780   20.8850 C   0  0  0  0  0  0  0  0  0  0  0  0
  -24.5910  -11.7260   20.8630 C   0  0  0  0  0  0  0  0  0  0  0  0
  -26.2510  -12.9630   20.3030 N   0  0  0  0  0  0  0  0  0  0  0  0
  -25.8830  -11.6830   20.5630 N   0  0  0  0  0  0  0  0  0  0  0  0
  -23.8630  -10.4650   21.0560 C   0  0  0  0  0  0  0  0  0  0  0  0
  -24.2970   -9.4960   21.9870 C   0  0  0  0  0  3  0  0  0  0  0  0
  -23.5700   -8.3000   22.1660 C   0  0  0  0  0  3  0  0  0  0  0  0
  -22.3950   -8.0640   21.4140 C   0  0  0  0  0  0  0  0  0  0  0  0
  -21.9800   -9.0210   20.4720 C   0  0  0  0  0  3  0  0  0  0  0  0
  -22.7080  -10.2090   20.2900 C   0  0  0  0  0  3  0  0  0  0  0  0
  -21.6390   -6.9200   21.5030 O   0  0  0  0  0  0  0  0  0  0  0  0
  -21.6000   -6.1700   22.6510 C   0  0  0  0  0  0  0  0  0  0  0  0
  -21.1900   -6.7180   23.8850 C   0  0  0  0  0  3  0  0  0  0  0  0
  -21.0990   -5.8940   25.0260 C   0  0  0  0  0  3  0  0  0  0  0  0
  -21.4070   -4.5240   24.9320 C   0  0  0  0  0  0  0  0  0  0  0  0
  -21.8110   -3.9760   23.7020 C   0  0  0  0  0  3  0  0  0  0  0  0
  -21.9040   -4.7960   22.5640 C   0  0  0  0  0  0  0  0  0  0  0  0
  -22.2730   -4.2580   21.3760 F   0  0  0  0  0  0  0  0  0  0  0  0
  -21.3120   -3.7310   26.0250 F   0  0  0  0  0  0  0  0  0  0  0  0
  -22.7330  -13.5580   21.1480 C   0  0  0  0  0  0  0  0  0  0  0  0
  -22.0000  -12.8650   22.0130 N   0  0  0  0  0  0  0  0  0  0  0  0
  -22.2990  -14.5830   20.6240 O   0  0  0  0  0  0  0  0  0  0  0  0
  -22.3640  -12.0360   22.4590 H   0  0  0  0  0  0  0  0  0  0  0  0
  -21.0620  -13.1690   22.2320 H   0  0  0  0  0  0  0  0  0  0  0  0
  -25.3710  -15.2170   20.3360 N   0  0  0  0  0  0  0  0  0  0  0  0
  -24.6060  -15.8740   20.4380 H   0  0  0  0  0  0  0  0  0  0  0  0
  -26.2290  -15.6510   20.0220 H   0  0  0  0  0  0  0  0  0  0  0  0
  1  2  1  0
  1 51  1  0
  2  3  1  0
  3  5  1  0
  3  6  1  0
  4  2  2  0
  6  7  1  0
  7  8  1  0
  9 11  1  0
  9  8  1  0
 10 21  2  0
 11 16  1  0
 12 20  1  0
 12 22  1  0
 13 19  1  0
 13 15  1  0
 14 20  1  0
 15 16  2  0
 15 14  1  0
 17 11  2  0
 18 17  1  0
 18 13  2  0
 19 12  1  0
 20 10  1  0
 22 24  2  0
 23 22  1  0
 25 23  1  0
 26 35  2  0
 26 31  1  0
 27 23  1  0
 27 31  1  0
 28 27  1  0
 29 30  1  0
 29 28  1  0
 30 26  1  0
 31 32  2  0
 32 33  1  0
 34 33  2  0
 35 34  1  0
 36 10  1  0
 36 37  1  0
 36 46  1  0
 37 40  1  0
 38 42  1  0
 38 37  1  0
 39 38  2  0
 42 41  1  0
 44 42  1  0
 44 45  1  0
 44 43  1  0
 46 49  1  1
 46 47  1  0
 48 46  1  0
 51 50  1  0
 52 51  1  0
 52 58  1  0
 54 57  1  0
 55 53  1  0
 56 58  1  0
 56 54  1  0
 57 53  1  0
 57 60  1  0
 58 55  1  0
 58 59  1  1
 61 69  1  0
 62 67  1  0
 63 64  1  0
 63 62  1  0
 65 64  1  0
 65 74  1  0
 65 66  1  0
 67 61  1  0
 67 66  1  0
 68 61  2  0
 69 60  1  0
 69 70  1  0
 71 72  2  0
 72 91  1  0
 73 72  1  0
 73 76  1  0
 74 71  1  0
 74 75  1  0
 75 73  2  0
 76 77  1  0
 77 78  2  0
 79 82  1  0
 79 78  1  0
 80 79  2  0
 81 80  1  0
 81 76  2  0
 82 83  1  0
 83 84  1  0
 84 85  2  0
 86 85  1  0
 86 90  1  0
 87 86  2  0
 88 83  2  0
 88 87  1  0
 89 88  1  0
 91 92  1  0
 92 95  1  0
 92 94  1  0
 93 91  2  0
 96 97  1  0
 96 71  1  0
 98 96  1  0
M  ISO  4   8 101   9 101  61 100  69 100
M  END
>  <TORSDO>  (26) 
F 24

>  <SCORE>  (26) 
-12.747

>  <name>  (26) 
25

>  <ligand_id>  (26) 
25

>  <original_smiles>  (26) 
[H]c1c([H])c([H])c2c(c1[H])C([H])([H])C([H])([H])C([H])([H])C2([H])N([H])C(=O)C1([H])N(C(=O)C([H])(N([H])C(=O)C([H])(N([H])C([H])([H])[H])C([H])([H])[H])C(C([H])([H])[H])(C([H])([H])[H])C([H])([H])[H])C([H])([H])c2c([H])c(OC([H])([H])C([H])([H])C([H])([H])N([H])C(=O)C([H])([H])C([H])(C([H])([H])[H])C([H])([H])[N+]3([H])C([H])([H])C([H])([H])C([H])(C([H])([H])N([H])C(=O)N4C([H])([H])C([H])([H])C([H])([H])C([H])(n5nc(-c6c([H])c([H])c(Oc7c([H])c([H])c(F)c([H])c7F)c([H])c6[H])c(C(=O)N([H])[H])c5N([H])[H])C4([H])[H])C([H])([H])C3([H])[H])c([H])c([H])c2C1([H])[H]

>  <smiles>  (26) 
[H]c1c([H])c([H])c2c(c1[H])C([H])([H])C([H])([H])C([H])([H])C2([H])N([H])C(=O)C1([H])N(C(=O)C([H])(N([H])C(=O)C([H])(N([H])C([H])([H])[H])C([H])([H])[H])C(C([H])([H])[H])(C([H])([H])[H])C([H])([H])[H])C([H])([H])c2c([H])c(OC([H])([H])C([H])([H])C([H])([H])N([H])C(=O)C([H])([H])C([H])(C([H])([H])[H])C([H])([H])[N+]3([H])C([H])([H])C([H])([H])C([H])(C([H])([H])N([H])C(=O)N4C([H])([H])C([H])([H])C([H])([H])C([H])(n5nc(-c6c([H])c([H])c(Oc7c([H])c([H])c(F)c([H])c7F)c([H])c6[H])c(C(=O)N([H])[H])c5N([H])[H])C4([H])[H])C([H])([H])C3([H])[H])c([H])c([H])c2C1([H])[H]

$$$$
26:0:0
     RDKit          3D

 90 97  0  0  1  0  0  0  0  0999 V2000
  -28.9970  -22.7270   19.5430 C   0  0  0  0  0  2  0  0  0  0  0  0
  -29.3490  -21.5140   20.3480 N   0  0  0  0  0  4  0  0  0  0  0  0
  -28.7040  -21.4730   21.1180 H   0  0  0  0  0  0  0  0  0  0  0  0
  -30.2730  -21.6370   20.7310 H   0  0  0  0  0  0  0  0  0  0  0  0
  -29.3110  -20.2110   19.6080 C   0  0  0  0  0  2  0  0  0  0  0  0
  -28.7850  -18.9980   20.4390 C   0  0  0  0  0  2  0  0  0  0  0  0
  -29.8180  -18.0720   21.1490 C   0  0  0  0  0  2  0  0  0  0  0  0
  -30.4800  -16.9660   20.2720 C   0  0  0  0  0  2  0  0  0  0  0  0
  -30.6950  -14.4710   20.1180 C   0  0  0  0  0  0  0  0  0  0  0  0
  -30.2940  -12.3070   19.0080 C   0  0  0  0  0  2  0  0  0  0  0  0
  -29.3180  -12.5260   17.8360 C   0  0  0  0  0  2  0  0  0  0  0  0
  -27.8670  -12.3920   18.3350 C   0  0  0  0  0  2  0  0  0  0  0  0
  -27.5870  -13.2460   19.6020 C   0  0  0  0  0  3  0  0  0  0  0  0
  -28.6840  -13.0380   20.6710 C   0  0  0  0  0  2  0  0  0  0  0  0
  -29.9860  -13.3100   20.0400 N   0  0  0  0  0  0  0  0  0  0  0  0
  -31.8300  -14.5780   19.6520 O   0  0  0  0  0  0  0  0  0  0  0  0
  -30.0220  -15.5730   20.5230 N   0  0  0  0  0  0  0  0  0  0  0  0
  -29.0780  -15.4290   20.8530 H   0  0  0  0  0  0  0  0  0  0  0  0
  -25.2310  -13.8820   20.4070 C   0  0  0  0  0  0  0  0  0  0  0  0
  -24.1670  -13.1260   20.8160 C   0  0  0  0  0  0  0  0  0  0  0  0
  -24.6100  -11.7670   20.7700 C   0  0  0  0  0  0  0  0  0  0  0  0
  -26.2530  -12.9860   20.1350 N   0  0  0  0  0  0  0  0  0  0  0  0
  -25.8860  -11.7080   20.4130 N   0  0  0  0  0  0  0  0  0  0  0  0
  -23.8760  -10.5170   20.9870 C   0  0  0  0  0  0  0  0  0  0  0  0
  -24.3400   -9.5370   21.8920 C   0  0  0  0  0  3  0  0  0  0  0  0
  -23.6050   -8.3480   22.0970 C   0  0  0  0  0  3  0  0  0  0  0  0
  -22.3940   -8.1330   21.4000 C   0  0  0  0  0  0  0  0  0  0  0  0
  -21.9500   -9.1030   20.4820 C   0  0  0  0  0  3  0  0  0  0  0  0
  -22.6840  -10.2820   20.2750 C   0  0  0  0  0  3  0  0  0  0  0  0
  -21.6310   -6.9960   21.5140 O   0  0  0  0  0  0  0  0  0  0  0  0
  -21.6400   -6.2350   22.6570 C   0  0  0  0  0  0  0  0  0  0  0  0
  -21.3120   -6.7800   23.9160 C   0  0  0  0  0  3  0  0  0  0  0  0
  -21.2590   -5.9460   25.0520 C   0  0  0  0  0  3  0  0  0  0  0  0
  -21.5310   -4.5700   24.9310 C   0  0  0  0  0  0  0  0  0  0  0  0
  -21.8570   -4.0260   23.6770 C   0  0  0  0  0  3  0  0  0  0  0  0
  -21.9070   -4.8560   22.5420 C   0  0  0  0  0  0  0  0  0  0  0  0
  -22.1980   -4.3190   21.3320 F   0  0  0  0  0  0  0  0  0  0  0  0
  -21.4770   -3.7690   26.0220 F   0  0  0  0  0  0  0  0  0  0  0  0
  -22.7900  -13.6210   21.1440 C   0  0  0  0  0  0  0  0  0  0  0  0
  -22.0850  -12.9370   22.0370 N   0  0  0  0  0  0  0  0  0  0  0  0
  -22.3440  -14.6520   20.6420 O   0  0  0  0  0  0  0  0  0  0  0  0
  -22.4490  -12.0970   22.4670 H   0  0  0  0  0  0  0  0  0  0  0  0
  -21.1650  -13.2600   22.2940 H   0  0  0  0  0  0  0  0  0  0  0  0
  -25.4090  -15.2530   20.2300 N   0  0  0  0  0  0  0  0  0  0  0  0
  -24.6740  -15.9270   20.4190 H   0  0  0  0  0  0  0  0  0  0  0  0
  -26.2590  -15.6870   19.8940 H   0  0  0  0  0  0  0  0  0  0  0  0
  -28.9780  -24.0740   20.3480 C   0  0  0  0  0  3  0  0  0  0  0  0
  -28.1750  -23.8960   21.4030 F   0  0  0  0  0  0  0  0  0  0  0  0
  -28.4610  -25.2900   19.5100 C   0  0  0  0  0  2  0  0  0  0  0  0
  -28.3700  -26.5830   20.1890 O   0  0  0  0  0  0  0  0  0  0  0  0
  -24.6050  -31.8630   23.2700 C   0  0  0  0  0  0  0  0  0  0  0  0
  -27.2020  -27.3490   20.1610 C   0  0  0  0  0  0  0  0  0  0  0  0
  -23.3890  -30.4740   21.6320 C   0  0  0  0  0  3  0  0  0  0  0  0
  -24.8270  -28.9330   20.1960 C   0  0  0  0  0  0  0  0  0  0  0  0
  -25.9270  -30.7920   21.4430 C   0  0  0  0  0  2  0  0  0  0  0  0
  -25.9970  -29.4220   20.7870 C   0  0  0  0  0  0  0  0  0  0  0  0
  -27.1830  -28.6380   20.7690 C   0  0  0  0  0  3  0  0  0  0  0  0
  -25.9960  -26.9020   19.5650 C   0  0  0  0  0  3  0  0  0  0  0  0
  -24.8240  -27.6740   19.5870 C   0  0  0  0  0  3  0  0  0  0  0  0
  -23.5940  -29.8090   20.2490 C   0  0  0  0  0  2  0  0  0  0  0  0
  -24.6580  -31.0590   22.1710 N   0  0  0  0  0  0  0  0  0  0  0  0
  -23.5240  -32.1410   23.8110 O   0  0  0  0  0  0  0  0  0  0  0  0
  -22.7330  -29.4500   22.5870 C   0  0  0  0  0  0  0  0  0  0  0  0
  -21.4070  -29.2710   22.4590 N   0  0  0  0  0  0  0  0  0  0  0  0
  -23.4130  -28.8230   23.4040 O   0  0  0  0  0  0  0  0  0  0  0  0
  -20.9160  -29.8290   21.7740 H   0  0  0  0  0  0  0  0  0  0  0  0
  -18.0350  -28.0690   22.9520 C   0  0  0  0  0  0  0  0  0  0  0  0
  -20.5910  -28.3350   23.2320 C   0  0  0  0  0  3  0  0  0  0  0  0
  -20.6970  -26.9010   22.6650 C   0  0  0  0  0  2  0  0  0  0  0  0
  -19.5990  -26.5690   21.6490 C   0  0  0  0  0  2  0  0  0  0  0  0
  -18.2160  -26.7160   22.2860 C   0  0  0  0  0  2  0  0  0  0  0  0
  -19.1500  -28.8350   23.3840 C   0  0  0  0  0  0  0  0  0  0  0  0
  -18.9260  -30.1010   23.9670 C   0  0  0  0  0  3  0  0  0  0  0  0
  -17.6190  -30.6010   24.1240 C   0  0  0  0  0  3  0  0  0  0  0  0
  -16.5180  -29.8310   23.7080 C   0  0  0  0  0  3  0  0  0  0  0  0
  -16.7270  -28.5670   23.1290 C   0  0  0  0  0  3  0  0  0  0  0  0
  -25.8960  -32.4880   23.8870 C   0  0  0  0  0  3  0  0  0  0  0  0
  -26.4120  -31.7150   25.1610 C   0  0  1  0  0  0  0  0  0  0  0  0
  -25.3200  -31.4860   26.2320 C   0  0  0  0  0  1  0  0  0  0  0  0
  -26.9870  -30.3330   24.7730 C   0  0  0  0  0  1  0  0  0  0  0  0
  -27.5690  -32.5060   25.8170 C   0  0  0  0  0  1  0  0  0  0  0  0
  -25.5930  -33.8880   24.2140 N   0  0  0  0  0  0  0  0  0  0  0  0
  -25.9230  -34.9360   23.4480 C   0  0  0  0  0  0  0  0  0  0  0  0
  -26.5860  -34.8270   22.4130 O   0  0  0  0  0  0  0  0  0  0  0  0
  -25.0050  -34.0470   25.0180 H   0  0  0  0  0  0  0  0  0  0  0  0
  -24.1940  -36.7290   23.1060 C   0  0  0  0  0  1  0  0  0  0  0  0
  -25.4440  -36.3270   23.9060 C   0  0  0  0  0  3  0  0  0  0  0  0
  -27.5890  -37.2110   24.7080 C   0  0  0  0  0  1  0  0  0  0  0  0
  -26.4770  -37.3770   23.7760 N   0  0  0  0  0  0  0  0  0  0  0  0
  -26.0750  -38.2990   23.9240 H   0  0  0  0  0  0  0  0  0  0  0  0
  1  2  1  0
  1 47  1  0
  2  4  1  0
  2  3  1  0
  5  2  1  0
  5  6  1  0
  6  7  1  0
  8 17  1  0
  8  7  1  0
  9 17  1  0
 10 15  1  0
 11 12  1  0
 11 10  1  0
 13 12  1  0
 13 22  1  0
 13 14  1  0
 15  9  1  0
 15 14  1  0
 16  9  2  0
 17 18  1  0
 19 20  2  0
 20 39  1  0
 21 20  1  0
 21 24  1  0
 22 19  1  0
 22 23  1  0
 23 21  2  0
 24 25  1  0
 25 26  2  0
 27 30  1  0
 27 26  1  0
 28 27  2  0
 29 28  1  0
 29 24  2  0
 30 31  1  0
 31 32  1  0
 32 33  2  0
 34 33  1  0
 34 38  1  0
 35 34  2  0
 36 31  2  0
 36 35  1  0
 37 36  1  0
 39 40  1  0
 40 43  1  0
 40 42  1  0
 41 39  2  0
 44 19  1  0
 44 45  1  0
 46 44  1  0
 47 48  1  0
 49 50  1  0
 49 47  1  0
 51 62  2  0
 52 50  1  0
 52 57  1  0
 53 61  1  0
 53 63  1  0
 54 60  1  0
 54 56  1  0
 55 61  1  0
 56 55  1  0
 57 56  2  0
 58 59  1  0
 58 52  2  0
 59 54  2  0
 60 53  1  0
 61 51  1  0
 63 65  2  0
 64 63  1  0
 66 64  1  0
 67 76  2  0
 67 72  1  0
 68 64  1  0
 68 72  1  0
 69 68  1  0
 70 71  1  0
 70 69  1  0
 71 67  1  0
 72 73  2  0
 73 74  1  0
 75 74  2  0
 76 75  1  0
 77 51  1  0
 77 82  1  0
 77 78  1  0
 78 81  1  1
 78 79  1  0
 80 78  1  0
 82 85  1  0
 83 87  1  0
 83 82  1  0
 84 83  2  0
 87 86  1  0
 89 87  1  0
 89 90  1  0
 89 88  1  0
M  ISO  4   9 100  17 100  49 101  50 101
M  END
>  <TORSDO>  (27) 
F 23

>  <SCORE>  (27) 
-12.445

>  <name>  (27) 
26

>  <ligand_id>  (27) 
26

>  <original_smiles>  (27) 
[H]c1c([H])c([H])c2c(c1[H])C([H])([H])C([H])([H])C([H])([H])C2([H])N([H])C(=O)C1([H])N(C(=O)C([H])(N([H])C(=O)C([H])(N([H])C([H])([H])[H])C([H])([H])[H])C(C([H])([H])[H])(C([H])([H])[H])C([H])([H])[H])C([H])([H])c2c([H])c(OC([H])([H])C([H])(F)C([H])([H])[N+]([H])([H])C([H])([H])C([H])([H])C([H])([H])C([H])([H])N([H])C(=O)N3C([H])([H])C([H])([H])C([H])([H])C([H])(n4nc(-c5c([H])c([H])c(Oc6c([H])c([H])c(F)c([H])c6F)c([H])c5[H])c(C(=O)N([H])[H])c4N([H])[H])C3([H])[H])c([H])c([H])c2C1([H])[H]

>  <smiles>  (27) 
[H]c1c([H])c([H])c2c(c1[H])C([H])([H])C([H])([H])C([H])([H])C2([H])N([H])C(=O)C1([H])N(C(=O)C([H])(N([H])C(=O)C([H])(N([H])C([H])([H])[H])C([H])([H])[H])C(C([H])([H])[H])(C([H])([H])[H])C([H])([H])[H])C([H])([H])c2c([H])c(OC([H])([H])C([H])(F)C([H])([H])[N+]([H])([H])C([H])([H])C([H])([H])C([H])([H])C([H])([H])N([H])C(=O)N3C([H])([H])C([H])([H])C([H])([H])C([H])(n4nc(-c5c([H])c([H])c(Oc6c([H])c([H])c(F)c([H])c6F)c([H])c5[H])c(C(=O)N([H])[H])c4N([H])[H])C3([H])[H])c([H])c([H])c2C1([H])[H]

$$$$
27:0:0
     RDKit          3D

 96104  0  0  1  0  0  0  0  0999 V2000
  -27.3200  -25.8350   18.3010 C   0  0  0  0  0  0  0  0  0  0  0  0
  -28.2300  -26.2000   17.5480 O   0  0  0  0  0  0  0  0  0  0  0  0
  -27.2490  -24.0160   18.4380 C   0  0  0  0  0  2  0  0  0  0  0  0
  -30.2020  -21.9140   20.3780 C   0  0  0  0  0  3  0  0  0  0  0  0
  -29.3580  -22.9110   19.8040 C   0  0  0  0  0  3  0  0  0  0  0  0
  -30.0890  -20.5040   20.1860 C   0  0  0  0  0  3  0  0  0  0  0  0
  -28.2320  -21.0550   18.7590 C   0  0  0  0  0  3  0  0  0  0  0  0
  -28.2670  -22.6200   18.9550 C   0  0  0  0  0  0  0  0  0  0  0  0
  -29.1260  -19.8990   19.3490 C   0  0  0  0  0  0  0  0  0  0  0  0
  -29.3420  -18.1370   19.0380 C   0  0  0  0  0  2  0  0  0  0  0  0
  -30.4330  -15.3560   19.8220 C   0  0  0  0  0  0  0  0  0  0  0  0
  -30.4840  -12.8350   19.1560 C   0  0  0  0  0  2  0  0  0  0  0  0
  -29.5180  -12.5390   17.9820 C   0  0  0  0  0  2  0  0  0  0  0  0
  -28.1010  -12.2540   18.5080 C   0  0  0  0  0  2  0  0  0  0  0  0
  -27.6810  -13.2600   19.6060 C   0  0  0  0  0  3  0  0  0  0  0  0
  -28.7740  -13.4850   20.6690 C   0  0  0  0  0  2  0  0  0  0  0  0
  -29.9420  -14.0130   19.9440 N   0  0  0  0  0  0  0  0  0  0  0  0
  -31.6420  -15.3470   19.5360 O   0  0  0  0  0  0  0  0  0  0  0  0
  -29.6050  -16.6320   19.8370 N   0  0  0  0  0  0  0  0  0  0  0  0
  -28.7520  -16.4050   20.3280 H   0  0  0  0  0  0  0  0  0  0  0  0
  -25.3750  -13.8400   20.5130 C   0  0  0  0  0  0  0  0  0  0  0  0
  -24.3170  -13.0750   20.9120 C   0  0  0  0  0  0  0  0  0  0  0  0
  -24.7530  -11.7170   20.8210 C   0  0  0  0  0  0  0  0  0  0  0  0
  -26.3830  -12.9510   20.1890 N   0  0  0  0  0  0  0  0  0  0  0  0
  -26.0280  -11.6660   20.4460 N   0  0  0  0  0  0  0  0  0  0  0  0
  -24.0100  -10.4640   21.0090 C   0  0  0  0  0  0  0  0  0  0  0  0
  -24.4390   -9.4800   21.9250 C   0  0  0  0  0  3  0  0  0  0  0  0
  -23.6930   -8.2940   22.1040 C   0  0  0  0  0  3  0  0  0  0  0  0
  -22.5060   -8.0850   21.3640 C   0  0  0  0  0  0  0  0  0  0  0  0
  -22.0970   -9.0580   20.4340 C   0  0  0  0  0  3  0  0  0  0  0  0
  -22.8420  -10.2340   20.2550 C   0  0  0  0  0  3  0  0  0  0  0  0
  -21.7320   -6.9530   21.4520 O   0  0  0  0  0  0  0  0  0  0  0  0
  -21.6620   -6.2170   22.6080 C   0  0  0  0  0  0  0  0  0  0  0  0
  -21.2140   -6.7790   23.8230 C   0  0  0  0  0  3  0  0  0  0  0  0
  -21.0930   -5.9690   24.9710 C   0  0  0  0  0  3  0  0  0  0  0  0
  -21.4090   -4.6000   24.9030 C   0  0  0  0  0  0  0  0  0  0  0  0
  -21.8500   -4.0370   23.6920 C   0  0  0  0  0  3  0  0  0  0  0  0
  -21.9730   -4.8430   22.5470 C   0  0  0  0  0  0  0  0  0  0  0  0
  -22.3790   -4.2920   21.3780 F   0  0  0  0  0  0  0  0  0  0  0  0
  -21.2850   -3.8200   26.0020 F   0  0  0  0  0  0  0  0  0  0  0  0
  -22.9440  -13.5720   21.2540 C   0  0  0  0  0  0  0  0  0  0  0  0
  -22.2370  -12.8670   22.1300 N   0  0  0  0  0  0  0  0  0  0  0  0
  -22.5100  -14.6220   20.7820 O   0  0  0  0  0  0  0  0  0  0  0  0
  -22.6010  -12.0180   22.5340 H   0  0  0  0  0  0  0  0  0  0  0  0
  -21.3160  -13.1840   22.3990 H   0  0  0  0  0  0  0  0  0  0  0  0
  -25.5570  -15.2130   20.3590 N   0  0  0  0  0  0  0  0  0  0  0  0
  -24.8060  -15.8750   20.5200 H   0  0  0  0  0  0  0  0  0  0  0  0
  -26.3740  -15.6340   19.9370 H   0  0  0  0  0  0  0  0  0  0  0  0
  -26.3540  -27.3220   19.0400 C   0  0  0  0  0  1  0  0  0  0  0  0
  -25.4830  -27.4010   21.8070 N   0  0  0  0  0  4  0  0  0  0  0  0
  -24.4860  -27.2840   21.7190 H   0  0  0  0  0  0  0  0  0  0  0  0
  -25.6260  -28.3680   22.0410 H   0  0  0  0  0  0  0  0  0  0  0  0
  -25.8620  -26.5530   23.0500 C   0  0  0  0  0  2  0  0  0  0  0  0
  -27.3700  -26.5520   23.5210 C   0  0  0  0  0  2  0  0  0  0  0  0
  -28.4190  -25.7820   22.6220 C   0  0  0  0  0  2  0  0  0  0  0  0
  -28.6550  -26.3350   21.3140 O   0  0  0  0  0  0  0  0  0  0  0  0
  -24.5800  -31.9080   23.2580 C   0  0  0  0  0  0  0  0  0  0  0  0
  -27.5280  -26.9210   21.0030 C   0  0  0  0  0  0  0  0  0  0  0  0
  -23.3670  -30.4920   21.6300 C   0  0  0  0  0  3  0  0  0  0  0  0
  -24.6540  -28.7820   20.1170 C   0  0  0  0  0  0  0  0  0  0  0  0
  -25.8990  -30.9420   21.2330 C   0  0  0  0  0  2  0  0  0  0  0  0
  -26.1220  -29.5770   20.4460 C   0  0  0  0  0  0  0  0  0  0  0  0
  -27.5660  -28.6910   20.8260 C   0  0  0  0  0  3  0  0  0  0  0  0
  -25.9000  -26.0190   20.7410 C   0  0  0  0  0  0  0  0  0  0  0  0
  -24.4730  -27.0340   20.2450 C   0  0  0  0  0  3  0  0  0  0  0  0
  -23.4820  -29.7470   20.2460 C   0  0  0  0  0  2  0  0  0  0  0  0
  -24.6630  -31.1010   22.1230 N   0  0  0  0  0  0  0  0  0  0  0  0
  -23.4910  -32.1660   23.8000 O   0  0  0  0  0  0  0  0  0  0  0  0
  -22.6720  -29.5510   22.6490 C   0  0  0  0  0  0  0  0  0  0  0  0
  -21.3440  -29.3720   22.5250 N   0  0  0  0  0  0  0  0  0  0  0  0
  -23.3480  -28.9430   23.4840 O   0  0  0  0  0  0  0  0  0  0  0  0
  -20.8550  -29.9110   21.8240 H   0  0  0  0  0  0  0  0  0  0  0  0
  -17.9830  -28.0950   22.9370 C   0  0  0  0  0  0  0  0  0  0  0  0
  -20.5230  -28.4360   23.2980 C   0  0  0  0  0  3  0  0  0  0  0  0
  -20.6840  -26.9890   22.7760 C   0  0  0  0  0  2  0  0  0  0  0  0
  -19.6330  -26.6040   21.7290 C   0  0  0  0  0  2  0  0  0  0  0  0
  -18.2210  -26.7320   22.3090 C   0  0  0  0  0  2  0  0  0  0  0  0
  -19.0630  -28.9000   23.3880 C   0  0  0  0  0  0  0  0  0  0  0  0
  -18.7870  -30.1720   23.9330 C   0  0  0  0  0  3  0  0  0  0  0  0
  -17.4630  -30.6430   24.0290 C   0  0  0  0  0  3  0  0  0  0  0  0
  -16.3970  -29.8360   23.5950 C   0  0  0  0  0  3  0  0  0  0  0  0
  -16.6570  -28.5640   23.0550 C   0  0  0  0  0  3  0  0  0  0  0  0
  -25.8220  -32.5770   23.9410 C   0  0  0  0  0  3  0  0  0  0  0  0
  -25.5020  -33.9900   24.2220 N   0  0  0  0  0  0  0  0  0  0  0  0
  -25.8920  -35.0310   23.4730 C   0  0  0  0  0  0  0  0  0  0  0  0
  -26.5990  -34.8960   22.4720 O   0  0  0  0  0  0  0  0  0  0  0  0
  -24.8770  -34.1630   24.9960 H   0  0  0  0  0  0  0  0  0  0  0  0
  -24.2000  -36.8450   23.0460 C   0  0  0  0  0  1  0  0  0  0  0  0
  -25.4220  -36.4410   23.8890 C   0  0  0  0  0  3  0  0  0  0  0  0
  -27.5510  -37.3300   24.7350 C   0  0  0  0  0  1  0  0  0  0  0  0
  -26.4720  -37.4770   23.7610 N   0  0  0  0  0  0  0  0  0  0  0  0
  -26.0760  -38.4070   23.8670 H   0  0  0  0  0  0  0  0  0  0  0  0
  -26.2700  -31.8670   25.2830 C   0  0  1  0  0  0  0  0  0  0  0  0
  -25.1340  -31.6730   26.3170 C   0  0  0  0  0  1  0  0  0  0  0  0
  -26.8630  -30.4810   24.9600 C   0  0  0  0  0  1  0  0  0  0  0  0
  -27.3850  -32.6860   25.9760 C   0  0  0  0  0  1  0  0  0  0  0  0
  1  3  1  0
  1 49  1  0
  2  1  2  0
  3  8  1  0
  5  4  2  0
  6  4  1  0
  7  8  2  0
  7  9  1  0
  8  5  1  0
  9  6  2  0
 10  9  1  0
 10 19  1  0
 11 19  1  0
 11 17  1  0
 12 17  1  0
 13 14  1  0
 13 12  1  0
 15 14  1  0
 15 24  1  0
 15 16  1  0
 17 16  1  0
 18 11  2  0
 19 20  1  0
 21 22  2  0
 22 41  1  0
 23 22  1  0
 23 26  1  0
 24 25  1  0
 24 21  1  0
 25 23  2  0
 26 27  1  0
 27 28  2  0
 29 32  1  0
 29 28  1  0
 30 29  2  0
 31 30  1  0
 31 26  2  0
 32 33  1  0
 33 34  1  0
 34 35  2  0
 36 35  1  0
 36 40  1  0
 37 36  2  0
 38 33  2  0
 38 37  1  0
 39 38  1  0
 41 42  1  0
 42 45  1  0
 42 44  1  0
 43 41  2  0
 46 21  1  0
 46 47  1  0
 48 46  1  0
 50 52  1  0
 50 53  1  0
 51 50  1  0
 53 54  1  0
 55 54  1  0
 56 55  1  0
 57 68  2  0
 58 56  1  0
 59 67  1  0
 59 69  1  0
 60 65  2  0
 60 66  1  0
 60 62  1  0
 61 67  1  0
 62 63  2  0
 62 61  1  0
 63 58  1  0
 64 58  2  3
 64 50  1  0
 65 64  1  0
 66 59  1  0
 67 57  1  0
 69 71  2  0
 70 69  1  0
 72 70  1  0
 73 82  2  0
 73 78  1  0
 74 70  1  0
 74 78  1  0
 75 74  1  0
 76 77  1  0
 76 75  1  0
 77 73  1  0
 78 79  2  0
 79 80  1  0
 81 80  2  0
 82 81  1  0
 83 57  1  0
 83 84  1  0
 83 93  1  0
 84 87  1  0
 85 89  1  0
 85 84  1  0
 86 85  2  0
 89 88  1  0
 91 92  1  0
 91 89  1  0
 91 90  1  0
 93 96  1  1
 93 94  1  0
 95 93  1  0
M  ISO  4  11 100  19 100  55 101  56 101
M  END
>  <TORSDO>  (28) 
F 24

>  <SCORE>  (28) 
-15.001

>  <name>  (28) 
27

>  <ligand_id>  (28) 
27

>  <original_smiles>  (28) 
[H]c1c([H])c(C([H])([H])C(=O)C([H])([H])[N+]([H])([H])C([H])([H])C([H])([H])C([H])([H])Oc2c([H])c([H])c3c(c2[H])C([H])([H])N(C(=O)C([H])(N([H])C(=O)C([H])(N([H])C([H])([H])[H])C([H])([H])[H])C(C([H])([H])[H])(C([H])([H])[H])C([H])([H])[H])C([H])(C(=O)N([H])C2([H])c4c([H])c([H])c([H])c([H])c4C([H])([H])C([H])([H])C2([H])[H])C3([H])[H])c([H])c(C([H])([H])N([H])C(=O)N2C([H])([H])C([H])([H])C([H])([H])C([H])(n3nc(-c4c([H])c([H])c(Oc5c([H])c([H])c(F)c([H])c5F)c([H])c4[H])c(C(=O)N([H])[H])c3N([H])[H])C2([H])[H])c1[H]

>  <smiles>  (28) 
[H]c1c([H])c(C([H])([H])C(=O)C([H])([H])[N+]([H])([H])C([H])([H])C([H])([H])C([H])([H])Oc2c([H])c([H])c3c(c2[H])C([H])([H])N(C(=O)C([H])(N([H])C(=O)C([H])(N([H])C([H])([H])[H])C([H])([H])[H])C(C([H])([H])[H])(C([H])([H])[H])C([H])([H])[H])C([H])(C(=O)N([H])C2([H])c4c([H])c([H])c([H])c([H])c4C([H])([H])C([H])([H])C2([H])[H])C3([H])[H])c([H])c(C([H])([H])N([H])C(=O)N2C([H])([H])C([H])([H])C([H])([H])C([H])(n3nc(-c4c([H])c([H])c(Oc5c([H])c([H])c(F)c([H])c5F)c([H])c4[H])c(C(=O)N([H])[H])c3N([H])[H])C2([H])[H])c1[H]

$$$$
28:0:0
     RDKit          3D

 96104  0  0  1  0  0  0  0  0999 V2000
  -29.3070  -21.9680   18.6610 C   0  0  0  0  0  0  0  0  0  0  0  0
  -28.8690  -22.4700   19.7030 O   0  0  0  0  0  0  0  0  0  0  0  0
  -29.9890  -22.8220   17.5860 C   0  0  0  0  0  2  0  0  0  0  0  0
  -30.8020  -24.0050   18.1560 C   0  0  0  0  0  2  0  0  0  0  0  0
  -29.9560  -25.1660   18.5100 N   0  0  0  0  0  4  0  0  0  0  0  0
  -29.1400  -24.8420   19.0090 H   0  0  0  0  0  0  0  0  0  0  0  0
  -29.6350  -25.6160   17.6670 H   0  0  0  0  0  0  0  0  0  0  0  0
  -30.6020  -26.1710   19.3900 C   0  0  0  0  0  2  0  0  0  0  0  0
  -29.6220  -27.3080   19.7190 C   0  0  0  0  0  2  0  0  0  0  0  0
  -28.4200  -26.6810   20.1500 O   0  0  0  0  0  0  0  0  0  0  0  0
  -24.6090  -31.8700   23.2310 C   0  0  0  0  0  0  0  0  0  0  0  0
  -27.2880  -27.4550   20.1740 C   0  0  0  0  0  0  0  0  0  0  0  0
  -23.4130  -30.4580   21.5890 C   0  0  0  0  0  3  0  0  0  0  0  0
  -24.8780  -28.9210   20.1800 C   0  0  0  0  0  0  0  0  0  0  0  0
  -25.9340  -30.8370   21.3930 C   0  0  0  0  0  2  0  0  0  0  0  0
  -26.0300  -29.4650   20.7610 C   0  0  0  0  0  0  0  0  0  0  0  0
  -27.2420  -28.7420   20.7580 C   0  0  0  0  0  3  0  0  0  0  0  0
  -26.1170  -26.9080   19.6150 C   0  0  0  0  0  3  0  0  0  0  0  0
  -24.9130  -27.6380   19.6050 C   0  0  0  0  0  3  0  0  0  0  0  0
  -23.6270  -29.7690   20.2140 C   0  0  0  0  0  2  0  0  0  0  0  0
  -24.6700  -31.0680   22.1300 N   0  0  0  0  0  0  0  0  0  0  0  0
  -23.5270  -32.1410   23.7680 O   0  0  0  0  0  0  0  0  0  0  0  0
  -22.7610  -29.4410   22.5510 C   0  0  0  0  0  0  0  0  0  0  0  0
  -21.4360  -29.2590   22.4210 N   0  0  0  0  0  0  0  0  0  0  0  0
  -23.4420  -28.8170   23.3680 O   0  0  0  0  0  0  0  0  0  0  0  0
  -20.9480  -29.8150   21.7330 H   0  0  0  0  0  0  0  0  0  0  0  0
  -18.0590  -28.0790   22.9160 C   0  0  0  0  0  0  0  0  0  0  0  0
  -20.6170  -28.3240   23.1900 C   0  0  0  0  0  3  0  0  0  0  0  0
  -20.7140  -26.8930   22.6140 C   0  0  0  0  0  2  0  0  0  0  0  0
  -19.6110  -26.5770   21.5990 C   0  0  0  0  0  2  0  0  0  0  0  0
  -18.2300  -26.7290   22.2420 C   0  0  0  0  0  2  0  0  0  0  0  0
  -19.1810  -28.8360   23.3480 C   0  0  0  0  0  0  0  0  0  0  0  0
  -18.9690  -30.1010   23.9360 C   0  0  0  0  0  3  0  0  0  0  0  0
  -17.6660  -30.6100   24.1010 C   0  0  0  0  0  3  0  0  0  0  0  0
  -16.5580  -29.8510   23.6870 C   0  0  0  0  0  3  0  0  0  0  0  0
  -16.7560  -28.5880   23.1010 C   0  0  0  0  0  3  0  0  0  0  0  0
  -25.8930  -32.5050   23.8540 C   0  0  0  0  0  3  0  0  0  0  0  0
  -25.5810  -33.9010   24.1850 N   0  0  0  0  0  0  0  0  0  0  0  0
  -25.9150  -34.9540   23.4290 C   0  0  0  0  0  0  0  0  0  0  0  0
  -26.5920  -34.8530   22.4010 O   0  0  0  0  0  0  0  0  0  0  0  0
  -24.9810  -34.0530   24.9830 H   0  0  0  0  0  0  0  0  0  0  0  0
  -24.1870  -36.7420   23.0620 C   0  0  0  0  0  1  0  0  0  0  0  0
  -25.4210  -36.3400   23.8840 C   0  0  0  0  0  3  0  0  0  0  0  0
  -27.5490  -37.2240   24.7330 C   0  0  0  0  0  1  0  0  0  0  0  0
  -26.4520  -37.3950   23.7830 N   0  0  0  0  0  0  0  0  0  0  0  0
  -26.0430  -38.3140   23.9330 H   0  0  0  0  0  0  0  0  0  0  0  0
  -26.4160  -31.7310   25.1260 C   0  0  1  0  0  0  0  0  0  0  0  0
  -25.3250  -31.4760   26.1910 C   0  0  0  0  0  1  0  0  0  0  0  0
  -27.0110  -30.3610   24.7230 C   0  0  0  0  0  1  0  0  0  0  0  0
  -27.5580  -32.5310   25.7950 C   0  0  0  0  0  1  0  0  0  0  0  0
  -29.2120  -20.4690   18.3890 C   0  0  0  0  0  2  0  0  0  0  0  0
  -28.7930  -19.7710   19.6260 N   0  0  0  0  0  4  0  0  0  0  0  0
  -29.0270  -20.4090   20.3730 H   0  0  0  0  0  0  0  0  0  0  0  0
  -27.7910  -19.6730   19.6290 H   0  0  0  0  0  0  0  0  0  0  0  0
  -30.7050  -14.4390   20.3200 C   0  0  0  0  0  0  0  0  0  0  0  0
  -30.3580  -12.2660   19.2460 C   0  0  0  0  0  2  0  0  0  0  0  0
  -29.4200  -12.4660   18.0400 C   0  0  0  0  0  2  0  0  0  0  0  0
  -27.9420  -12.3850   18.4720 C   0  0  0  0  0  2  0  0  0  0  0  0
  -27.6190  -13.2330   19.7360 C   0  0  0  0  0  3  0  0  0  0  0  0
  -28.6830  -13.0370   20.8390 C   0  0  0  0  0  2  0  0  0  0  0  0
  -30.0010  -13.2840   20.2400 N   0  0  0  0  0  0  0  0  0  0  0  0
  -31.9080  -14.5080   20.0510 O   0  0  0  0  0  0  0  0  0  0  0  0
  -29.2310  -17.4730   18.7030 C   0  0  0  0  0  2  0  0  0  0  0  0
  -29.0710  -17.7620   21.1450 C   0  0  0  0  0  2  0  0  0  0  0  0
  -30.1320  -16.2530   18.9000 C   0  0  0  0  0  2  0  0  0  0  0  0
  -29.8810  -16.4590   21.3720 C   0  0  0  0  0  2  0  0  0  0  0  0
  -29.4780  -18.4710   19.8410 C   0  0  0  0  0  3  0  0  0  0  0  0
  -29.9550  -15.5630   20.2000 N   0  0  0  0  0  0  0  0  0  0  0  0
  -25.2290  -13.8460   20.4590 C   0  0  0  0  0  0  0  0  0  0  0  0
  -24.1590  -13.0770   20.8310 C   0  0  0  0  0  0  0  0  0  0  0  0
  -24.6180  -11.7240   20.8080 C   0  0  0  0  0  0  0  0  0  0  0  0
  -26.2710  -12.9620   20.2300 N   0  0  0  0  0  0  0  0  0  0  0  0
  -25.9090  -11.6810   20.5010 N   0  0  0  0  0  0  0  0  0  0  0  0
  -23.8890  -10.4660   21.0040 C   0  0  0  0  0  0  0  0  0  0  0  0
  -24.3220   -9.5000   21.9390 C   0  0  0  0  0  3  0  0  0  0  0  0
  -23.5940   -8.3060   22.1220 C   0  0  0  0  0  3  0  0  0  0  0  0
  -22.4180   -8.0690   21.3710 C   0  0  0  0  0  0  0  0  0  0  0  0
  -22.0040   -9.0230   20.4260 C   0  0  0  0  0  3  0  0  0  0  0  0
  -22.7320  -10.2100   20.2420 C   0  0  0  0  0  3  0  0  0  0  0  0
  -21.6610   -6.9260   21.4640 O   0  0  0  0  0  0  0  0  0  0  0  0
  -21.6190   -6.1830   22.6170 C   0  0  0  0  0  0  0  0  0  0  0  0
  -21.2100   -6.7400   23.8490 C   0  0  0  0  0  3  0  0  0  0  0  0
  -21.1170   -5.9240   24.9940 C   0  0  0  0  0  3  0  0  0  0  0  0
  -21.4190   -4.5520   24.9090 C   0  0  0  0  0  0  0  0  0  0  0  0
  -21.8200   -3.9940   23.6820 C   0  0  0  0  0  3  0  0  0  0  0  0
  -21.9170   -4.8070   22.5390 C   0  0  0  0  0  0  0  0  0  0  0  0
  -22.2830   -4.2600   21.3550 F   0  0  0  0  0  0  0  0  0  0  0  0
  -21.3240   -3.7670   26.0080 F   0  0  0  0  0  0  0  0  0  0  0  0
  -22.7630  -13.5580   21.1010 C   0  0  0  0  0  0  0  0  0  0  0  0
  -22.0330  -12.8720   21.9730 N   0  0  0  0  0  0  0  0  0  0  0  0
  -22.3260  -14.5790   20.5690 O   0  0  0  0  0  0  0  0  0  0  0  0
  -22.3980  -12.0460   22.4250 H   0  0  0  0  0  0  0  0  0  0  0  0
  -21.0960  -13.1770   22.1950 H   0  0  0  0  0  0  0  0  0  0  0  0
  -25.3970  -15.2160   20.2770 N   0  0  0  0  0  0  0  0  0  0  0  0
  -24.6430  -15.8800   20.4060 H   0  0  0  0  0  0  0  0  0  0  0  0
  -26.2650  -15.6500   19.9920 H   0  0  0  0  0  0  0  0  0  0  0  0
  1  2  2  0
  3  4  1  0
  3  1  1  0
  4  5  1  0
  5  6  1  0
  5  8  1  0
  7  5  1  0
  8  9  1  0
  9 10  1  0
 10 12  1  0
 11 22  2  0
 12 17  1  0
 13 21  1  0
 13 23  1  0
 14 20  1  0
 14 16  1  0
 15 21  1  0
 16 15  1  0
 17 16  2  0
 18 12  2  0
 19 18  1  0
 19 14  2  0
 20 13  1  0
 21 11  1  0
 23 25  2  0
 24 23  1  0
 26 24  1  0
 27 36  2  0
 27 32  1  0
 28 24  1  0
 28 32  1  0
 29 28  1  0
 30 31  1  0
 30 29  1  0
 31 27  1  0
 32 33  2  0
 33 34  1  0
 35 34  2  0
 36 35  1  0
 37 11  1  0
 37 38  1  0
 37 47  1  0
 38 41  1  0
 39 43  1  0
 39 38  1  0
 40 39  2  0
 43 42  1  0
 45 43  1  0
 45 46  1  0
 45 44  1  0
 47 50  1  1
 47 48  1  0
 49 47  1  0
 51  1  1  0
 51 52  1  0
 52 54  1  0
 52 53  1  0
 56 61  1  0
 57 58  1  0
 57 56  1  0
 59 58  1  0
 59 72  1  0
 59 60  1  0
 61 55  1  0
 61 60  1  0
 62 55  2  0
 63 65  1  0
 63 67  1  0
 64 66  1  0
 65 68  1  0
 67 52  1  0
 67 64  1  0
 68 55  1  0
 68 66  1  0
 69 70  2  0
 70 89  1  0
 71 70  1  0
 71 74  1  0
 72 69  1  0
 72 73  1  0
 73 71  2  0
 74 75  1  0
 75 76  2  0
 77 80  1  0
 77 76  1  0
 78 77  2  0
 79 78  1  0
 79 74  2  0
 80 81  1  0
 81 82  1  0
 82 83  2  0
 84 83  1  0
 84 88  1  0
 85 84  2  0
 86 81  2  0
 86 85  1  0
 87 86  1  0
 89 90  1  0
 90 93  1  0
 90 92  1  0
 91 89  2  0
 94 95  1  0
 94 69  1  0
 96 94  1  0
M  ISO  4   9 101  10 101  55 100  68 100
M  END
>  <TORSDO>  (29) 
F 23

>  <SCORE>  (29) 
-12.569

>  <name>  (29) 
28

>  <ligand_id>  (29) 
28

>  <original_smiles>  (29) 
[H]c1c([H])c([H])c2c(c1[H])C([H])([H])C([H])([H])C([H])([H])C2([H])N([H])C(=O)C1([H])N(C(=O)C([H])(N([H])C(=O)C([H])(N([H])C([H])([H])[H])C([H])([H])[H])C(C([H])([H])[H])(C([H])([H])[H])C([H])([H])[H])C([H])([H])c2c([H])c(OC([H])([H])C([H])([H])[N+]([H])([H])C([H])([H])C([H])([H])C(=O)C([H])([H])[N+]([H])([H])C3([H])C([H])([H])C([H])([H])N(C(=O)N4C([H])([H])C([H])([H])C([H])([H])C([H])(n5nc(-c6c([H])c([H])c(Oc7c([H])c([H])c(F)c([H])c7F)c([H])c6[H])c(C(=O)N([H])[H])c5N([H])[H])C4([H])[H])C([H])([H])C3([H])[H])c([H])c([H])c2C1([H])[H]

>  <smiles>  (29) 
[H]c1c([H])c([H])c2c(c1[H])C([H])([H])C([H])([H])C([H])([H])C2([H])N([H])C(=O)C1([H])N(C(=O)C([H])(N([H])C(=O)C([H])(N([H])C([H])([H])[H])C([H])([H])[H])C(C([H])([H])[H])(C([H])([H])[H])C([H])([H])[H])C([H])([H])c2c([H])c(OC([H])([H])C([H])([H])[N+]([H])([H])C([H])([H])C([H])([H])C(=O)C([H])([H])[N+]([H])([H])C3([H])C([H])([H])C([H])([H])N(C(=O)N4C([H])([H])C([H])([H])C([H])([H])C([H])(n5nc(-c6c([H])c([H])c(Oc7c([H])c([H])c(F)c([H])c7F)c([H])c6[H])c(C(=O)N([H])[H])c5N([H])[H])C4([H])[H])C([H])([H])C3([H])[H])c([H])c([H])c2C1([H])[H]

$$$$
29:0:0
     RDKit          3D

 96104  0  0  1  0  0  0  0  0999 V2000
  -29.5680  -19.6130   19.7530 C   0  0  0  0  0  2  0  0  0  0  0  0
  -29.1950  -18.3890   20.4700 N   0  0  0  0  0  0  0  0  0  0  0  0
  -28.4520  -18.5930   21.1310 H   0  0  0  0  0  0  0  0  0  0  0  0
  -30.6970  -16.1920   23.2250 C   0  0  0  0  0  2  0  0  0  0  0  0
  -31.4050  -17.3510   23.9350 C   0  0  0  0  0  2  0  0  0  0  0  0
  -31.1280  -18.8050   21.9720 C   0  0  0  0  0  2  0  0  0  0  0  0
  -29.6760  -16.6900   22.1740 C   0  0  0  0  0  3  0  0  0  0  0  0
  -30.2990  -17.7350   21.1880 C   0  0  0  0  0  3  0  0  0  0  0  0
  -32.0700  -18.2110   22.9410 N   0  0  0  0  0  4  0  0  0  0  0  0
  -32.7690  -17.6790   22.4470 H   0  0  0  0  0  0  0  0  0  0  0  0
  -32.5510  -18.9540   23.4230 H   0  0  0  0  0  0  0  0  0  0  0  0
  -29.4180  -14.8790   20.4260 C   0  0  0  0  0  0  0  0  0  0  0  0
  -29.3130  -12.7430   19.1850 C   0  0  0  0  0  2  0  0  0  0  0  0
  -28.2110  -12.7410   18.1110 C   0  0  0  0  0  2  0  0  0  0  0  0
  -26.8600  -12.3200   18.7140 C   0  0  0  0  0  2  0  0  0  0  0  0
  -26.5190  -13.0980   20.0100 C   0  0  0  0  0  3  0  0  0  0  0  0
  -27.7150  -13.0960   20.9870 C   0  0  0  0  0  2  0  0  0  0  0  0
  -28.8930  -13.6330   20.2780 N   0  0  0  0  0  0  0  0  0  0  0  0
  -30.2820  -15.3350   19.6710 O   0  0  0  0  0  0  0  0  0  0  0  0
  -29.0180  -15.5460   21.5200 N   0  0  0  0  0  0  0  0  0  0  0  0
  -28.2690  -15.1130   22.0400 H   0  0  0  0  0  0  0  0  0  0  0  0
  -24.1950  -13.2630   21.1080 C   0  0  0  0  0  0  0  0  0  0  0  0
  -23.3140  -12.3060   21.5320 C   0  0  0  0  0  0  0  0  0  0  0  0
  -23.9470  -11.0480   21.2850 C   0  0  0  0  0  0  0  0  0  0  0  0
  -25.3050  -12.5780   20.6380 N   0  0  0  0  0  0  0  0  0  0  0  0
  -25.1670  -11.2360   20.7960 N   0  0  0  0  0  0  0  0  0  0  0  0
  -23.4400   -9.6780   21.4330 C   0  0  0  0  0  0  0  0  0  0  0  0
  -24.0060   -8.7770   22.3620 C   0  0  0  0  0  3  0  0  0  0  0  0
  -23.4910   -7.4690   22.5000 C   0  0  0  0  0  3  0  0  0  0  0  0
  -22.3970   -7.0530   21.7060 C   0  0  0  0  0  0  0  0  0  0  0  0
  -21.8500   -7.9450   20.7660 C   0  0  0  0  0  3  0  0  0  0  0  0
  -22.3690   -9.2440   20.6270 C   0  0  0  0  0  3  0  0  0  0  0  0
  -21.8470   -5.7940   21.7520 O   0  0  0  0  0  0  0  0  0  0  0  0
  -21.7680   -5.0860   22.9230 C   0  0  0  0  0  0  0  0  0  0  0  0
  -21.0670   -5.5790   24.0450 C   0  0  0  0  0  3  0  0  0  0  0  0
  -20.9510   -4.7890   25.2060 C   0  0  0  0  0  3  0  0  0  0  0  0
  -21.5250   -3.5030   25.2440 C   0  0  0  0  0  0  0  0  0  0  0  0
  -22.2160   -3.0070   24.1250 C   0  0  0  0  0  3  0  0  0  0  0  0
  -22.3340   -3.7960   22.9660 C   0  0  0  0  0  0  0  0  0  0  0  0
  -22.9840   -3.3060   21.8830 F   0  0  0  0  0  0  0  0  0  0  0  0
  -21.4060   -2.7400   26.3560 F   0  0  0  0  0  0  0  0  0  0  0  0
  -21.9230  -12.5340   22.0510 C   0  0  0  0  0  0  0  0  0  0  0  0
  -21.4530  -11.6740   22.9470 N   0  0  0  0  0  0  0  0  0  0  0  0
  -21.2630  -13.5110   21.6980 O   0  0  0  0  0  0  0  0  0  0  0  0
  -21.9990  -10.8810   23.2490 H   0  0  0  0  0  0  0  0  0  0  0  0
  -20.5290  -11.8090   23.3330 H   0  0  0  0  0  0  0  0  0  0  0  0
  -24.1400  -14.6540   21.0640 N   0  0  0  0  0  0  0  0  0  0  0  0
  -23.3200  -15.1770   21.3490 H   0  0  0  0  0  0  0  0  0  0  0  0
  -24.8770  -15.2470   20.7010 H   0  0  0  0  0  0  0  0  0  0  0  0
  -28.5370  -20.7290   20.0330 C   0  0  0  0  0  2  0  0  0  0  0  0
  -28.9070  -22.1030   19.4260 C   0  0  0  0  0  2  0  0  0  0  0  0
  -28.0200  -23.2600   19.9550 C   0  0  0  0  0  2  0  0  0  0  0  0
  -28.3300  -24.6550   19.3790 C   0  0  0  0  0  0  0  0  0  0  0  0
  -28.8710  -24.7940   18.2770 O   0  0  0  0  0  0  0  0  0  0  0  0
  -27.9190  -25.8620   20.2440 C   0  0  0  0  0  2  0  0  0  0  0  0
  -27.9630  -27.1060   19.5190 O   0  0  0  0  0  0  0  0  0  0  0  0
  -24.5810  -32.0390   23.3850 C   0  0  0  0  0  0  0  0  0  0  0  0
  -26.8320  -27.8720   19.6820 C   0  0  0  0  0  0  0  0  0  0  0  0
  -23.1990  -30.8130   21.7400 C   0  0  0  0  0  3  0  0  0  0  0  0
  -24.4830  -29.3980   20.0500 C   0  0  0  0  0  0  0  0  0  0  0  0
  -25.7020  -31.1590   21.3400 C   0  0  0  0  0  2  0  0  0  0  0  0
  -25.7020  -29.8540   20.5710 C   0  0  0  0  0  0  0  0  0  0  0  0
  -26.8820  -29.1010   20.3810 C   0  0  0  0  0  3  0  0  0  0  0  0
  -25.6000  -27.4320   19.1550 C   0  0  0  0  0  3  0  0  0  0  0  0
  -24.4270  -28.1870   19.3380 C   0  0  0  0  0  3  0  0  0  0  0  0
  -23.2650  -30.2610   20.2910 C   0  0  0  0  0  2  0  0  0  0  0  0
  -24.5190  -31.3460   22.2130 N   0  0  0  0  0  0  0  0  0  0  0  0
  -23.5590  -32.2730   24.0450 O   0  0  0  0  0  0  0  0  0  0  0  0
  -22.6150  -29.7150   22.6580 C   0  0  0  0  0  0  0  0  0  0  0  0
  -21.3030  -29.4610   22.5270 N   0  0  0  0  0  0  0  0  0  0  0  0
  -23.3390  -29.0970   23.4430 O   0  0  0  0  0  0  0  0  0  0  0  0
  -20.7770  -30.0190   21.8680 H   0  0  0  0  0  0  0  0  0  0  0  0
  -18.0310  -27.9730   22.8930 C   0  0  0  0  0  0  0  0  0  0  0  0
  -20.5460  -28.4460   23.2560 C   0  0  0  0  0  3  0  0  0  0  0  0
  -20.7910  -27.0370   22.6650 C   0  0  0  0  0  2  0  0  0  0  0  0
  -19.7550  -26.6380   21.6090 C   0  0  0  0  0  2  0  0  0  0  0  0
  -18.3460  -26.6540   22.2080 C   0  0  0  0  0  2  0  0  0  0  0  0
  -19.0640  -28.8230   23.3690 C   0  0  0  0  0  0  0  0  0  0  0  0
  -18.7180  -30.0550   23.9630 C   0  0  0  0  0  3  0  0  0  0  0  0
  -17.3700  -30.4410   24.0880 C   0  0  0  0  0  3  0  0  0  0  0  0
  -16.3500  -29.5900   23.6280 C   0  0  0  0  0  3  0  0  0  0  0  0
  -16.6810  -28.3580   23.0370 C   0  0  0  0  0  3  0  0  0  0  0  0
  -25.9310  -32.5890   23.9410 C   0  0  0  0  0  3  0  0  0  0  0  0
  -25.7120  -33.9880   24.3330 N   0  0  0  0  0  0  0  0  0  0  0  0
  -26.0510  -35.0480   23.5870 C   0  0  0  0  0  0  0  0  0  0  0  0
  -26.6550  -34.9490   22.5160 O   0  0  0  0  0  0  0  0  0  0  0  0
  -25.1740  -34.1420   25.1720 H   0  0  0  0  0  0  0  0  0  0  0  0
  -24.3830  -36.9200   23.3990 C   0  0  0  0  0  1  0  0  0  0  0  0
  -25.6570  -36.4400   24.1140 C   0  0  0  0  0  3  0  0  0  0  0  0
  -27.8760  -37.2100   24.8300 C   0  0  0  0  0  1  0  0  0  0  0  0
  -26.7250  -37.4530   23.9650 N   0  0  0  0  0  0  0  0  0  0  0  0
  -26.3690  -38.3830   24.1690 H   0  0  0  0  0  0  0  0  0  0  0  0
  -26.4950  -31.7480   25.1520 C   0  0  1  0  0  0  0  0  0  0  0  0
  -25.4490  -31.4660   26.2560 C   0  0  0  0  0  1  0  0  0  0  0  0
  -27.0380  -30.3860   24.6610 C   0  0  0  0  0  1  0  0  0  0  0  0
  -27.6860  -32.4920   25.7980 C   0  0  0  0  0  1  0  0  0  0  0  0
  1 50  1  0
  1  2  1  0
  2  3  1  0
  4  5  1  0
  6  9  1  0
  7 20  1  0
  7  4  1  0
  8  2  1  0
  8  6  1  0
  8  7  1  0
  9 11  1  0
  9  5  1  0
 10  9  1  0
 12 20  1  0
 13 18  1  0
 14 15  1  0
 14 13  1  0
 16 15  1  0
 16 25  1  0
 16 17  1  0
 18 12  1  0
 18 17  1  0
 19 12  2  0
 20 21  1  0
 22 23  2  0
 23 42  1  0
 24 27  1  0
 24 23  1  0
 25 26  1  0
 25 22  1  0
 26 24  2  0
 27 28  1  0
 28 29  2  0
 30 33  1  0
 30 29  1  0
 31 30  2  0
 32 31  1  0
 32 27  2  0
 33 34  1  0
 34 39  2  0
 34 35  1  0
 35 36  2  0
 36 37  1  0
 37 41  1  0
 38 37  2  0
 39 38  1  0
 40 39  1  0
 42 43  1  0
 43 45  1  0
 43 46  1  0
 44 42  2  0
 47 22  1  0
 47 48  1  0
 49 47  1  0
 51 52  1  0
 51 50  1  0
 53 52  1  0
 53 55  1  0
 54 53  2  0
 56 58  1  0
 56 55  1  0
 57 68  2  0
 58 63  1  0
 59 67  1  0
 59 69  1  0
 60 66  1  0
 60 62  1  0
 61 67  1  0
 62 61  1  0
 63 62  2  0
 64 65  1  0
 64 58  2  0
 65 60  2  0
 66 59  1  0
 67 57  1  0
 69 71  2  0
 70 69  1  0
 72 70  1  0
 73 82  2  0
 73 78  1  0
 74 70  1  0
 74 78  1  0
 75 74  1  0
 76 77  1  0
 76 75  1  0
 77 73  1  0
 78 79  2  0
 79 80  1  0
 81 80  2  0
 82 81  1  0
 83 57  1  0
 83 84  1  0
 83 93  1  0
 84 87  1  0
 85 89  1  0
 85 84  1  0
 86 85  2  0
 89 88  1  0
 91 89  1  0
 91 92  1  0
 91 90  1  0
 93 96  1  1
 93 94  1  0
 95 93  1  0
M  ISO  4  12 100  20 100  55 101  56 101
M  END
>  <TORSDO>  (30) 
F 23

>  <SCORE>  (30) 
-5.733

>  <name>  (30) 
29

>  <ligand_id>  (30) 
29

>  <original_smiles>  (30) 
[H]c1c([H])c([H])c2c(c1[H])C([H])([H])C([H])([H])C([H])([H])C2([H])N([H])C(=O)C1([H])N(C(=O)C([H])(N([H])C(=O)C([H])(N([H])C([H])([H])[H])C([H])([H])[H])C(C([H])([H])[H])(C([H])([H])[H])C([H])([H])[H])C([H])([H])c2c([H])c(OC([H])([H])C(=O)C([H])([H])C([H])([H])C([H])([H])C([H])([H])N([H])C3([H])C([H])(N([H])C(=O)N4C([H])([H])C([H])([H])C([H])([H])C([H])(n5nc(-c6c([H])c([H])c(Oc7c([H])c([H])c(F)c([H])c7F)c([H])c6[H])c(C(=O)N([H])[H])c5N([H])[H])C4([H])[H])C([H])([H])C([H])([H])[N+]([H])([H])C3([H])[H])c([H])c([H])c2C1([H])[H]

>  <smiles>  (30) 
[H]c1c([H])c([H])c2c(c1[H])C([H])([H])C([H])([H])C([H])([H])C2([H])N([H])C(=O)C1([H])N(C(=O)C([H])(N([H])C(=O)C([H])(N([H])C([H])([H])[H])C([H])([H])[H])C(C([H])([H])[H])(C([H])([H])[H])C([H])([H])[H])C([H])([H])c2c([H])c(OC([H])([H])C(=O)C([H])([H])C([H])([H])C([H])([H])C([H])([H])N([H])C3([H])C([H])(N([H])C(=O)N4C([H])([H])C([H])([H])C([H])([H])C([H])(n5nc(-c6c([H])c([H])c(Oc7c([H])c([H])c(F)c([H])c7F)c([H])c6[H])c(C(=O)N([H])[H])c5N([H])[H])C4([H])[H])C([H])([H])C([H])([H])[N+]([H])([H])C3([H])[H])c([H])c([H])c2C1([H])[H]

$$$$
30:0:0
     RDKit          3D

 93101  0  0  1  0  0  0  0  0999 V2000
  -31.4610  -21.2110   21.8880 C   0  0  0  0  0  2  0  0  0  0  0  0
  -30.5080  -22.4050   22.0170 C   0  0  0  0  0  2  0  0  0  0  0  0
  -31.0490  -23.6680   21.3330 C   0  0  0  0  0  2  0  0  0  0  0  0
  -29.9780  -24.7610   21.2340 C   0  0  0  0  0  2  0  0  0  0  0  0
  -30.4340  -25.9740   20.4100 C   0  0  0  0  0  2  0  0  0  0  0  0
  -29.3820  -27.0890   20.4010 C   0  0  0  0  0  2  0  0  0  0  0  0
  -28.2170  -26.6360   19.7150 O   0  0  0  0  0  0  0  0  0  0  0  0
  -24.4970  -31.7330   23.0540 C   0  0  0  0  0  0  0  0  0  0  0  0
  -27.0760  -27.4010   19.8110 C   0  0  0  0  0  0  0  0  0  0  0  0
  -23.2420  -30.3740   21.4050 C   0  0  0  0  0  3  0  0  0  0  0  0
  -24.6580  -28.8660   19.9130 C   0  0  0  0  0  0  0  0  0  0  0  0
  -25.7540  -30.7480   21.1480 C   0  0  0  0  0  2  0  0  0  0  0  0
  -25.8230  -29.3920   20.4830 C   0  0  0  0  0  0  0  0  0  0  0  0
  -27.0290  -28.6710   20.4340 C   0  0  0  0  0  3  0  0  0  0  0  0
  -25.8950  -26.8790   19.2440 C   0  0  0  0  0  3  0  0  0  0  0  0
  -24.6860  -27.6050   19.2900 C   0  0  0  0  0  3  0  0  0  0  0  0
  -23.4130  -29.7190   20.0070 C   0  0  0  0  0  2  0  0  0  0  0  0
  -24.5160  -30.9630   21.9290 N   0  0  0  0  0  0  0  0  0  0  0  0
  -23.4320  -31.9960   23.6280 O   0  0  0  0  0  0  0  0  0  0  0  0
  -22.6120  -29.3340   22.3570 C   0  0  0  0  0  0  0  0  0  0  0  0
  -21.2910  -29.1290   22.2250 N   0  0  0  0  0  0  0  0  0  0  0  0
  -23.3070  -28.7140   23.1670 O   0  0  0  0  0  0  0  0  0  0  0  0
  -20.7930  -29.6830   21.5430 H   0  0  0  0  0  0  0  0  0  0  0  0
  -17.9440  -27.8560   22.6780 C   0  0  0  0  0  0  0  0  0  0  0  0
  -20.4900  -28.1720   22.9850 C   0  0  0  0  0  3  0  0  0  0  0  0
  -20.6340  -26.7440   22.4090 C   0  0  0  0  0  2  0  0  0  0  0  0
  -19.5560  -26.3970   21.3790 C   0  0  0  0  0  2  0  0  0  0  0  0
  -18.1610  -26.5110   22.0030 C   0  0  0  0  0  2  0  0  0  0  0  0
  -19.0380  -28.6430   23.1240 C   0  0  0  0  0  0  0  0  0  0  0  0
  -18.7830  -29.9010   23.7110 C   0  0  0  0  0  3  0  0  0  0  0  0
  -17.4650  -30.3740   23.8560 C   0  0  0  0  0  3  0  0  0  0  0  0
  -16.3840  -29.5830   23.4280 C   0  0  0  0  0  3  0  0  0  0  0  0
  -16.6240  -28.3250   22.8450 C   0  0  0  0  0  3  0  0  0  0  0  0
  -25.8040  -32.3380   23.6560 C   0  0  0  0  0  3  0  0  0  0  0  0
  -26.3620  -31.5190   24.8830 C   0  0  1  0  0  0  0  0  0  0  0  0
  -25.2950  -31.2000   25.9560 C   0  0  0  0  0  1  0  0  0  0  0  0
  -26.9730  -30.1790   24.4090 C   0  0  0  0  0  1  0  0  0  0  0  0
  -27.5040  -32.3080   25.5670 C   0  0  0  0  0  1  0  0  0  0  0  0
  -25.5110  -33.7240   24.0450 N   0  0  0  0  0  0  0  0  0  0  0  0
  -25.8550  -34.8020   23.3280 C   0  0  0  0  0  0  0  0  0  0  0  0
  -26.5230  -34.7340   22.2930 O   0  0  0  0  0  0  0  0  0  0  0  0
  -24.9240  -33.8520   24.8550 H   0  0  0  0  0  0  0  0  0  0  0  0
  -24.1550  -36.6290   23.0310 C   0  0  0  0  0  1  0  0  0  0  0  0
  -25.3780  -36.1740   23.8410 C   0  0  0  0  0  3  0  0  0  0  0  0
  -27.5130  -36.9910   24.7380 C   0  0  0  0  0  1  0  0  0  0  0  0
  -26.4270  -37.2170   23.7880 N   0  0  0  0  0  0  0  0  0  0  0  0
  -26.0300  -38.1350   23.9720 H   0  0  0  0  0  0  0  0  0  0  0  0
  -30.7830  -19.8810   22.2520 C   0  0  0  0  0  2  0  0  0  0  0  0
  -31.4450  -18.7440   21.5750 N   0  0  0  0  0  4  0  0  0  0  0  0
  -31.3940  -18.8880   20.5800 H   0  0  0  0  0  0  0  0  0  0  0  0
  -32.4190  -18.7610   21.8330 H   0  0  0  0  0  0  0  0  0  0  0  0
  -30.1860  -14.2510   19.6100 C   0  0  0  0  0  0  0  0  0  0  0  0
  -29.6140  -12.2920   18.2200 C   0  0  0  0  0  2  0  0  0  0  0  0
  -28.4660  -12.5780   17.2350 C   0  0  0  0  0  2  0  0  0  0  0  0
  -27.0990  -12.3540   17.9080 C   0  0  0  0  0  2  0  0  0  0  0  0
  -26.9860  -13.0770   19.2750 C   0  0  0  0  0  3  0  0  0  0  0  0
  -28.2170  -12.7600   20.1530 C   0  0  0  0  0  2  0  0  0  0  0  0
  -29.4330  -13.1380   19.4090 N   0  0  0  0  0  0  0  0  0  0  0  0
  -31.0280  -14.6510   18.7980 O   0  0  0  0  0  0  0  0  0  0  0  0
  -31.9480  -16.3250   21.5280 C   0  0  0  0  0  2  0  0  0  0  0  0
  -29.5750  -17.1290   21.1290 C   0  0  0  0  0  2  0  0  0  0  0  0
  -31.3810  -14.8980   21.6610 C   0  0  0  0  0  2  0  0  0  0  0  0
  -29.1020  -15.6740   21.2910 C   0  0  0  0  0  2  0  0  0  0  0  0
  -30.9020  -17.4020   21.8830 C   0  0  0  0  0  3  0  0  0  0  0  0
  -30.1530  -14.7410   20.8700 N   0  0  0  0  0  0  0  0  0  0  0  0
  -24.7110  -13.5670   20.3790 C   0  0  0  0  0  0  0  0  0  0  0  0
  -23.7470  -12.7380   20.8910 C   0  0  0  0  0  0  0  0  0  0  0  0
  -24.2490  -11.4100   20.7400 C   0  0  0  0  0  0  0  0  0  0  0  0
  -25.7380  -12.7370   19.9550 N   0  0  0  0  0  0  0  0  0  0  0  0
  -25.4690  -11.4340   20.2230 N   0  0  0  0  0  0  0  0  0  0  0  0
  -23.6120  -10.1120   21.0040 C   0  0  0  0  0  0  0  0  0  0  0  0
  -24.1640   -9.1940   21.9240 C   0  0  0  0  0  3  0  0  0  0  0  0
  -23.5260   -7.9600   22.1740 C   0  0  0  0  0  3  0  0  0  0  0  0
  -22.3220   -7.6360   21.5050 C   0  0  0  0  0  0  0  0  0  0  0  0
  -21.7890   -8.5440   20.5730 C   0  0  0  0  0  3  0  0  0  0  0  0
  -22.4290   -9.7690   20.3210 C   0  0  0  0  0  3  0  0  0  0  0  0
  -21.6450   -6.4510   21.6660 O   0  0  0  0  0  0  0  0  0  0  0  0
  -21.6600   -5.7690   22.8570 C   0  0  0  0  0  0  0  0  0  0  0  0
  -21.2090   -6.3600   24.0570 C   0  0  0  0  0  3  0  0  0  0  0  0
  -21.1760   -5.6010   25.2450 C   0  0  0  0  0  3  0  0  0  0  0  0
  -21.5830   -4.2530   25.2320 C   0  0  0  0  0  0  0  0  0  0  0  0
  -22.0270   -3.6620   24.0360 C   0  0  0  0  0  3  0  0  0  0  0  0
  -22.0620   -4.4190   22.8510 C   0  0  0  0  0  0  0  0  0  0  0  0
  -22.4710   -3.8390   21.6960 F   0  0  0  0  0  0  0  0  0  0  0  0
  -21.5440   -3.5220   26.3700 F   0  0  0  0  0  0  0  0  0  0  0  0
  -22.3960  -13.1470   21.4040 C   0  0  0  0  0  0  0  0  0  0  0  0
  -21.8680  -12.4200   22.3830 N   0  0  0  0  0  0  0  0  0  0  0  0
  -21.8220  -14.1440   20.9710 O   0  0  0  0  0  0  0  0  0  0  0  0
  -22.3480  -11.6130   22.7520 H   0  0  0  0  0  0  0  0  0  0  0  0
  -20.9700  -12.6750   22.7680 H   0  0  0  0  0  0  0  0  0  0  0  0
  -24.7910  -14.9480   20.2220 N   0  0  0  0  0  0  0  0  0  0  0  0
  -24.0270  -15.5650   20.4730 H   0  0  0  0  0  0  0  0  0  0  0  0
  -25.5580  -15.4300   19.7710 H   0  0  0  0  0  0  0  0  0  0  0  0
  1  2  1  0
  1 48  1  0
  3  2  1  0
  4  3  1  0
  5  4  1  0
  6  5  1  0
  7  9  1  0
  7  6  1  0
  8 19  2  0
  9 14  1  0
 10 18  1  0
 10 20  1  0
 11 17  1  0
 11 13  1  0
 12 18  1  0
 13 12  1  0
 14 13  2  0
 15 16  1  0
 15  9  2  0
 16 11  2  0
 17 10  1  0
 18  8  1  0
 20 22  2  0
 21 20  1  0
 23 21  1  0
 24 33  2  0
 24 29  1  0
 25 21  1  0
 25 29  1  0
 26 25  1  0
 27 28  1  0
 27 26  1  0
 28 24  1  0
 29 30  2  0
 30 31  1  0
 32 31  2  0
 33 32  1  0
 34  8  1  0
 34 39  1  0
 34 35  1  0
 35 38  1  1
 35 36  1  0
 37 35  1  0
 39 42  1  0
 40 44  1  0
 40 39  1  0
 41 40  2  0
 44 43  1  0
 46 44  1  0
 46 47  1  0
 46 45  1  0
 49 51  1  0
 49 48  1  0
 50 49  1  0
 52 65  1  0
 53 58  1  0
 54 55  1  0
 54 53  1  0
 56 55  1  0
 56 69  1  0
 56 57  1  0
 58 52  1  0
 58 57  1  0
 59 52  2  0
 60 62  1  0
 60 64  1  0
 61 63  1  0
 61 64  1  0
 64 49  1  0
 65 63  1  0
 65 62  1  0
 66 67  2  0
 67 86  1  0
 68 67  1  0
 68 71  1  0
 69 70  1  0
 69 66  1  0
 70 68  2  0
 71 72  1  0
 72 73  2  0
 74 77  1  0
 74 73  1  0
 75 74  2  0
 76 75  1  0
 76 71  2  0
 77 78  1  0
 78 79  1  0
 79 80  2  0
 81 80  1  0
 81 85  1  0
 82 81  2  0
 83 78  2  0
 83 82  1  0
 84 83  1  0
 86 87  1  0
 87 89  1  0
 87 90  1  0
 88 86  2  0
 91 66  1  0
 91 92  1  0
 93 91  1  0
M  ISO  4   6 101   7 101  52 100  65 100
M  END
>  <TORSDO>  (31) 
F 23

>  <SCORE>  (31) 
-10.195

>  <name>  (31) 
30

>  <ligand_id>  (31) 
30

>  <original_smiles>  (31) 
[H]c1c([H])c([H])c2c(c1[H])C([H])([H])C([H])([H])C([H])([H])C2([H])N([H])C(=O)C1([H])N(C(=O)C([H])(N([H])C(=O)C([H])(N([H])C([H])([H])[H])C([H])([H])[H])C(C([H])([H])[H])(C([H])([H])[H])C([H])([H])[H])C([H])([H])c2c([H])c(OC([H])([H])C([H])([H])C([H])([H])C([H])([H])C([H])([H])C([H])([H])C([H])([H])[N+]([H])([H])C3([H])C([H])([H])C([H])([H])N(C(=O)N4C([H])([H])C([H])([H])C([H])([H])C([H])(n5nc(-c6c([H])c([H])c(Oc7c([H])c([H])c(F)c([H])c7F)c([H])c6[H])c(C(=O)N([H])[H])c5N([H])[H])C4([H])[H])C([H])([H])C3([H])[H])c([H])c([H])c2C1([H])[H]

>  <smiles>  (31) 
[H]c1c([H])c([H])c2c(c1[H])C([H])([H])C([H])([H])C([H])([H])C2([H])N([H])C(=O)C1([H])N(C(=O)C([H])(N([H])C(=O)C([H])(N([H])C([H])([H])[H])C([H])([H])[H])C(C([H])([H])[H])(C([H])([H])[H])C([H])([H])[H])C([H])([H])c2c([H])c(OC([H])([H])C([H])([H])C([H])([H])C([H])([H])C([H])([H])C([H])([H])C([H])([H])[N+]([H])([H])C3([H])C([H])([H])C([H])([H])N(C(=O)N4C([H])([H])C([H])([H])C([H])([H])C([H])(n5nc(-c6c([H])c([H])c(Oc7c([H])c([H])c(F)c([H])c7F)c([H])c6[H])c(C(=O)N([H])[H])c5N([H])[H])C4([H])[H])C([H])([H])C3([H])[H])c([H])c([H])c2C1([H])[H]

$$$$
31:0:0
     RDKit          3D

 90 98  0  0  1  0  0  0  0  0999 V2000
  -29.3560  -21.8430   20.0710 C   0  0  0  0  0  2  0  0  0  0  0  0
  -28.8920  -20.3150   20.1050 N   0  0  0  0  0  4  0  0  0  0  0  0
  -28.1760  -20.2500   20.8120 H   0  0  0  0  0  0  0  0  0  0  0  0
  -28.4090  -20.1680   19.2330 H   0  0  0  0  0  0  0  0  0  0  0  0
  -30.6470  -14.9880   19.8890 C   0  0  0  0  0  0  0  0  0  0  0  0
  -30.4320  -12.6590   18.8850 C   0  0  0  0  0  2  0  0  0  0  0  0
  -29.3990  -12.6490   17.7330 C   0  0  0  0  0  2  0  0  0  0  0  0
  -27.9790  -12.4310   18.2850 C   0  0  0  0  0  2  0  0  0  0  0  0
  -27.6810  -13.3280   19.5120 C   0  0  0  0  0  3  0  0  0  0  0  0
  -28.8220  -13.2910   20.5490 C   0  0  0  0  0  2  0  0  0  0  0  0
  -30.0450  -13.7260   19.8620 N   0  0  0  0  0  0  0  0  0  0  0  0
  -31.7510  -15.0810   19.3370 O   0  0  0  0  0  0  0  0  0  0  0  0
  -30.2080  -17.6990   22.4390 C   0  0  0  0  0  3  0  0  0  0  0  0
  -30.1650  -18.8800   21.7880 C   0  0  0  0  0  3  0  0  0  0  0  0
  -29.9770  -16.2960   21.8670 C   0  0  0  0  0  2  0  0  0  0  0  0
  -29.5170  -17.5100   19.7120 C   0  0  0  0  0  2  0  0  0  0  0  0
  -29.8400  -19.0470   20.3200 C   0  0  0  0  0  3  0  0  0  0  0  0
  -29.9860  -16.1610   20.3950 N   0  0  0  0  0  0  0  0  0  0  0  0
  -25.3920  -13.9050   20.4980 C   0  0  0  0  0  0  0  0  0  0  0  0
  -24.3490  -13.1280   20.9210 C   0  0  0  0  0  0  0  0  0  0  0  0
  -24.7800  -11.7740   20.7750 C   0  0  0  0  0  0  0  0  0  0  0  0
  -26.3880  -13.0240   20.1120 N   0  0  0  0  0  0  0  0  0  0  0  0
  -26.0350  -11.7340   20.3440 N   0  0  0  0  0  0  0  0  0  0  0  0
  -24.0480  -10.5140   20.9620 C   0  0  0  0  0  0  0  0  0  0  0  0
  -24.4720   -9.5440   21.8960 C   0  0  0  0  0  3  0  0  0  0  0  0
  -23.7390   -8.3500   22.0710 C   0  0  0  0  0  3  0  0  0  0  0  0
  -22.5670   -8.1190   21.3130 C   0  0  0  0  0  0  0  0  0  0  0  0
  -22.1610   -9.0780   20.3680 C   0  0  0  0  0  3  0  0  0  0  0  0
  -22.8960  -10.2630   20.1910 C   0  0  0  0  0  3  0  0  0  0  0  0
  -21.8060   -6.9790   21.3970 O   0  0  0  0  0  0  0  0  0  0  0  0
  -21.6720   -6.2890   22.5750 C   0  0  0  0  0  0  0  0  0  0  0  0
  -21.1320   -6.8900   23.7330 C   0  0  0  0  0  3  0  0  0  0  0  0
  -20.9500   -6.1250   24.9030 C   0  0  0  0  0  3  0  0  0  0  0  0
  -21.2930   -4.7600   24.9130 C   0  0  0  0  0  0  0  0  0  0  0  0
  -21.8250   -4.1580   23.7590 C   0  0  0  0  0  3  0  0  0  0  0  0
  -22.0100   -4.9210   22.5930 C   0  0  0  0  0  0  0  0  0  0  0  0
  -22.5030   -4.3320   21.4760 F   0  0  0  0  0  0  0  0  0  0  0  0
  -21.1100   -4.0230   26.0330 F   0  0  0  0  0  0  0  0  0  0  0  0
  -22.9930  -13.6120   21.3440 C   0  0  0  0  0  0  0  0  0  0  0  0
  -22.3500  -12.9040   22.2660 N   0  0  0  0  0  0  0  0  0  0  0  0
  -22.5150  -14.6530   20.8920 O   0  0  0  0  0  0  0  0  0  0  0  0
  -22.7510  -12.0610   22.6510 H   0  0  0  0  0  0  0  0  0  0  0  0
  -21.4430  -13.2080   22.5900 H   0  0  0  0  0  0  0  0  0  0  0  0
  -25.5710  -15.2800   20.3800 N   0  0  0  0  0  0  0  0  0  0  0  0
  -24.8380  -15.9470   20.5980 H   0  0  0  0  0  0  0  0  0  0  0  0
  -26.4070  -15.7160   20.0110 H   0  0  0  0  0  0  0  0  0  0  0  0
  -28.3580  -23.1940   20.3570 C   0  0  0  0  0  3  0  0  0  0  0  0
  -27.1270  -22.8090   20.0140 F   0  0  0  0  0  0  0  0  0  0  0  0
  -28.5350  -24.7580   19.7030 C   0  0  0  0  0  2  0  0  0  0  0  0
  -28.3740  -26.1990   20.2940 O   0  0  0  0  0  0  0  0  0  0  0  0
  -24.5650  -31.7800   23.1670 C   0  0  0  0  0  0  0  0  0  0  0  0
  -27.2850  -27.1340   20.1540 C   0  0  0  0  0  0  0  0  0  0  0  0
  -23.4240  -30.3720   21.4980 C   0  0  0  0  0  3  0  0  0  0  0  0
  -24.9250  -28.8340   20.0820 C   0  0  0  0  0  0  0  0  0  0  0  0
  -25.9710  -30.6890   21.3770 C   0  0  0  0  0  2  0  0  0  0  0  0
  -26.0790  -29.3020   20.7170 C   0  0  0  0  0  0  0  0  0  0  0  0
  -27.2570  -28.4660   20.7360 C   0  0  0  0  0  3  0  0  0  0  0  0
  -26.1020  -26.7580   19.4850 C   0  0  0  0  0  3  0  0  0  0  0  0
  -24.9480  -27.5770   19.4530 C   0  0  0  0  0  3  0  0  0  0  0  0
  -23.6800  -29.7070   20.1170 C   0  0  0  0  0  2  0  0  0  0  0  0
  -24.6720  -30.9690   22.0690 N   0  0  0  0  0  0  0  0  0  0  0  0
  -23.4640  -32.0370   23.6780 O   0  0  0  0  0  0  0  0  0  0  0  0
  -22.7490  -29.3460   22.4450 C   0  0  0  0  0  0  0  0  0  0  0  0
  -21.4220  -29.1660   22.3130 N   0  0  0  0  0  0  0  0  0  0  0  0
  -23.4240  -28.7130   23.2600 O   0  0  0  0  0  0  0  0  0  0  0  0
  -20.9360  -29.7280   21.6280 H   0  0  0  0  0  0  0  0  0  0  0  0
  -18.0450  -27.9530   22.8130 C   0  0  0  0  0  0  0  0  0  0  0  0
  -20.6070  -28.2120   23.0690 C   0  0  0  0  0  3  0  0  0  0  0  0
  -20.7060  -26.7940   22.4610 C   0  0  0  0  0  2  0  0  0  0  0  0
  -19.5970  -26.4920   21.4470 C   0  0  0  0  0  2  0  0  0  0  0  0
  -18.2180  -26.6210   22.1010 C   0  0  0  0  0  2  0  0  0  0  0  0
  -19.1660  -28.7070   23.2530 C   0  0  0  0  0  0  0  0  0  0  0  0
  -18.9480  -29.9540   23.8780 C   0  0  0  0  0  3  0  0  0  0  0  0
  -17.6430  -30.4460   24.0690 C   0  0  0  0  0  3  0  0  0  0  0  0
  -16.5370  -29.6900   23.6410 C   0  0  0  0  0  3  0  0  0  0  0  0
  -16.7390  -28.4440   23.0200 C   0  0  0  0  0  3  0  0  0  0  0  0
  -25.8180  -32.4400   23.8200 C   0  0  0  0  0  3  0  0  0  0  0  0
  -26.3100  -31.6850   25.1160 C   0  0  1  0  0  0  0  0  0  0  0  0
  -25.1920  -31.4390   26.1560 C   0  0  0  0  0  1  0  0  0  0  0  0
  -26.9280  -30.3150   24.7530 C   0  0  0  0  0  1  0  0  0  0  0  0
  -27.4310  -32.5020   25.8020 C   0  0  0  0  0  1  0  0  0  0  0  0
  -25.4760  -33.8350   24.1420 N   0  0  0  0  0  0  0  0  0  0  0  0
  -25.8130  -34.8960   23.3970 C   0  0  0  0  0  0  0  0  0  0  0  0
  -26.5110  -34.8050   22.3830 O   0  0  0  0  0  0  0  0  0  0  0  0
  -24.8630  -33.9780   24.9300 H   0  0  0  0  0  0  0  0  0  0  0  0
  -24.0870  -36.6790   22.9880 C   0  0  0  0  0  1  0  0  0  0  0  0
  -25.2980  -36.2780   23.8460 C   0  0  0  0  0  3  0  0  0  0  0  0
  -27.3870  -37.1790   24.7690 C   0  0  0  0  0  1  0  0  0  0  0  0
  -26.3240  -37.3410   23.7790 N   0  0  0  0  0  0  0  0  0  0  0  0
  -25.9050  -38.2560   23.9110 H   0  0  0  0  0  0  0  0  0  0  0  0
  1  2  1  0
  1 47  1  0
  2  3  1  0
  4  2  1  0
  5 18  1  0
  6 11  1  0
  7  8  1  0
  7  6  1  0
  9  8  1  0
  9 22  1  0
  9 10  1  0
 11  5  1  0
 11 10  1  0
 12  5  2  0
 14 13  2  0
 15 13  1  0
 16 17  1  0
 16 18  1  0
 17  2  1  0
 17 14  1  0
 18 15  1  0
 19 20  2  0
 20 39  1  0
 21 20  1  0
 21 24  1  0
 22 23  1  0
 22 19  1  0
 23 21  2  0
 24 25  1  0
 25 26  2  0
 27 30  1  0
 27 26  1  0
 28 27  2  0
 29 28  1  0
 29 24  2  0
 30 31  1  0
 31 36  2  0
 31 32  1  0
 32 33  2  0
 33 34  1  0
 34 38  1  0
 35 34  2  0
 36 35  1  0
 37 36  1  0
 39 40  1  0
 40 43  1  0
 40 42  1  0
 41 39  2  0
 44 19  1  0
 44 45  1  0
 46 44  1  0
 47 48  1  0
 49 50  1  0
 49 47  1  0
 51 62  2  0
 52 50  1  0
 52 57  1  0
 53 61  1  0
 53 63  1  0
 54 60  1  0
 54 56  1  0
 55 61  1  0
 56 57  2  0
 56 55  1  0
 58 52  2  0
 59 58  1  0
 59 54  2  0
 60 53  1  0
 61 51  1  0
 63 65  2  0
 64 63  1  0
 66 64  1  0
 67 76  2  0
 67 72  1  0
 68 64  1  0
 68 72  1  0
 69 68  1  0
 70 71  1  0
 70 69  1  0
 71 67  1  0
 72 73  2  0
 73 74  1  0
 75 74  2  0
 76 75  1  0
 77 51  1  0
 77 82  1  0
 77 78  1  0
 78 81  1  1
 78 79  1  0
 80 78  1  0
 82 85  1  0
 83 87  1  0
 83 82  1  0
 84 83  2  0
 87 86  1  0
 89 87  1  0
 89 90  1  0
 89 88  1  0
M  ISO  4   5 100  18 100  49 101  50 101
M  END
>  <TORSDO>  (32) 
F 19

>  <SCORE>  (32) 
-14.395

>  <name>  (32) 
31

>  <ligand_id>  (32) 
31

>  <original_smiles>  (32) 
[H]C1=C([H])C([H])([N+]([H])([H])C([H])([H])C([H])(F)C([H])([H])Oc2c([H])c([H])c3c(c2[H])C([H])([H])N(C(=O)C([H])(N([H])C(=O)C([H])(N([H])C([H])([H])[H])C([H])([H])[H])C(C([H])([H])[H])(C([H])([H])[H])C([H])([H])[H])C([H])(C(=O)N([H])C2([H])c4c([H])c([H])c([H])c([H])c4C([H])([H])C([H])([H])C2([H])[H])C3([H])[H])C([H])([H])N(C(=O)N2C([H])([H])C([H])([H])C([H])([H])C([H])(n3nc(-c4c([H])c([H])c(Oc5c([H])c([H])c(F)c([H])c5F)c([H])c4[H])c(C(=O)N([H])[H])c3N([H])[H])C2([H])[H])C1([H])[H]

>  <smiles>  (32) 
[H]C1=C([H])C([H])([N+]([H])([H])C([H])([H])C([H])(F)C([H])([H])Oc2c([H])c([H])c3c(c2[H])C([H])([H])N(C(=O)C([H])(N([H])C(=O)C([H])(N([H])C([H])([H])[H])C([H])([H])[H])C(C([H])([H])[H])(C([H])([H])[H])C([H])([H])[H])C([H])(C(=O)N([H])C2([H])c4c([H])c([H])c([H])c([H])c4C([H])([H])C([H])([H])C2([H])[H])C3([H])[H])C([H])([H])N(C(=O)N2C([H])([H])C([H])([H])C([H])([H])C([H])(n3nc(-c4c([H])c([H])c(Oc5c([H])c([H])c(F)c([H])c5F)c([H])c4[H])c(C(=O)N([H])[H])c3N([H])[H])C2([H])[H])C1([H])[H]

$$$$
32:0:0
     RDKit          3D

 94102  0  0  1  0  0  0  0  0999 V2000
  -25.9840  -21.8630   20.6680 C   0  0  0  0  0  2  0  0  0  0  0  0
  -27.1840  -21.3630   21.4640 C   0  0  0  0  0  2  0  0  0  0  0  0
  -26.4450  -23.2340   20.1890 C   0  0  0  0  0  2  0  0  0  0  0  0
  -28.4060  -21.9450   20.7260 C   0  0  0  0  0  3  0  0  0  0  0  0
  -27.9150  -23.1450   19.9920 N   0  0  2  0  0  4  0  0  0  0  0  0
  -28.0890  -22.9050   19.0210 H   0  0  0  0  0  0  0  0  0  0  0  0
  -29.0130  -20.9070   19.7700 C   0  0  0  0  0  0  0  0  0  0  0  0
  -29.6150  -19.8460   20.3310 N   0  0  0  0  0  0  0  0  0  0  0  0
  -28.9000  -21.0520   18.5500 O   0  0  0  0  0  0  0  0  0  0  0  0
  -29.7110  -19.8350   21.3380 H   0  0  0  0  0  0  0  0  0  0  0  0
  -30.0720  -18.6650   19.6080 C   0  0  0  0  0  2  0  0  0  0  0  0
  -30.3230  -17.4570   20.5410 C   0  0  0  0  0  2  0  0  0  0  0  0
  -31.6690  -15.3930   20.2050 C   0  0  0  0  0  0  0  0  0  0  0  0
  -31.4500  -13.0940   19.4070 C   0  0  0  0  0  2  0  0  0  0  0  0
  -30.5690  -13.1350   18.1410 C   0  0  0  0  0  2  0  0  0  0  0  0
  -29.0770  -13.0240   18.5200 C   0  0  0  0  0  2  0  0  0  0  0  0
  -28.6580  -14.0040   19.6510 C   0  0  0  0  0  3  0  0  0  0  0  0
  -29.6750  -13.9910   20.8180 C   0  0  0  0  0  2  0  0  0  0  0  0
  -31.0160  -14.2070   20.2580 N   0  0  0  0  0  0  0  0  0  0  0  0
  -32.8690  -15.5020   19.9700 O   0  0  0  0  0  0  0  0  0  0  0  0
  -30.9060  -16.3870   19.7470 N   0  0  0  0  0  0  0  0  0  0  0  0
  -31.3660  -16.7830   18.9390 H   0  0  0  0  0  0  0  0  0  0  0  0
  -26.2590  -14.6410   20.3350 C   0  0  0  0  0  0  0  0  0  0  0  0
  -25.1690  -13.8810   20.6720 C   0  0  0  0  0  0  0  0  0  0  0  0
  -25.6100  -12.5240   20.6360 C   0  0  0  0  0  0  0  0  0  0  0  0
  -27.2940  -13.7460   20.1110 N   0  0  0  0  0  0  0  0  0  0  0  0
  -26.9060  -12.4670   20.3550 N   0  0  0  0  0  0  0  0  0  0  0  0
  -24.8590  -11.2720   20.8020 C   0  0  0  0  0  0  0  0  0  0  0  0
  -25.1530  -10.3710   21.8500 C   0  0  0  0  0  3  0  0  0  0  0  0
  -24.4070   -9.1820   22.0030 C   0  0  0  0  0  3  0  0  0  0  0  0
  -23.3520   -8.8870   21.1060 C   0  0  0  0  0  0  0  0  0  0  0  0
  -23.0790   -9.7750   20.0510 C   0  0  0  0  0  3  0  0  0  0  0  0
  -23.8250  -10.9560   19.8970 C   0  0  0  0  0  3  0  0  0  0  0  0
  -22.5910   -7.7440   21.1610 O   0  0  0  0  0  0  0  0  0  0  0  0
  -22.2430   -7.1680   22.3580 C   0  0  0  0  0  0  0  0  0  0  0  0
  -21.5100   -7.8710   23.3390 C   0  0  0  0  0  3  0  0  0  0  0  0
  -21.1140   -7.2170   24.5230 C   0  0  0  0  0  3  0  0  0  0  0  0
  -21.4400   -5.8630   24.7250 C   0  0  0  0  0  0  0  0  0  0  0  0
  -22.1630   -5.1600   23.7450 C   0  0  0  0  0  3  0  0  0  0  0  0
  -22.5620   -5.8110   22.5640 C   0  0  0  0  0  0  0  0  0  0  0  0
  -23.2410   -5.1230   21.6140 F   0  0  0  0  0  0  0  0  0  0  0  0
  -21.0510   -5.2330   25.8570 F   0  0  0  0  0  0  0  0  0  0  0  0
  -23.7730  -14.3780   20.9130 C   0  0  0  0  0  0  0  0  0  0  0  0
  -23.0210  -13.6970   21.7730 N   0  0  0  0  0  0  0  0  0  0  0  0
  -23.3560  -15.4000   20.3740 O   0  0  0  0  0  0  0  0  0  0  0  0
  -23.3710  -12.8700   22.2320 H   0  0  0  0  0  0  0  0  0  0  0  0
  -22.0810  -14.0100   21.9730 H   0  0  0  0  0  0  0  0  0  0  0  0
  -26.4500  -16.0090   20.1860 N   0  0  0  0  0  0  0  0  0  0  0  0
  -25.7050  -16.6790   20.3460 H   0  0  0  0  0  0  0  0  0  0  0  0
  -27.3330  -16.4430   19.9470 H   0  0  0  0  0  0  0  0  0  0  0  0
  -28.6620  -24.3890   20.3310 C   0  0  0  0  0  2  0  0  0  0  0  0
  -27.9560  -25.7220   19.9810 C   0  0  0  0  0  2  0  0  0  0  0  0
  -28.0510  -26.1610   18.5060 C   0  0  0  0  0  2  0  0  0  0  0  0
  -27.9210  -27.5790   18.3800 O   0  0  0  0  0  0  0  0  0  0  0  0
  -24.4280  -31.7060   22.9620 C   0  0  0  0  0  0  0  0  0  0  0  0
  -26.7170  -28.1750   18.6790 C   0  0  0  0  0  0  0  0  0  0  0  0
  -23.0280  -30.6030   21.2400 C   0  0  0  0  0  3  0  0  0  0  0  0
  -24.3010  -29.4860   19.3370 C   0  0  0  0  0  0  0  0  0  0  0  0
  -25.4820  -31.1550   20.7760 C   0  0  0  0  0  2  0  0  0  0  0  0
  -25.5150  -29.9550   19.8540 C   0  0  0  0  0  0  0  0  0  0  0  0
  -26.7240  -29.3110   19.5180 C   0  0  0  0  0  3  0  0  0  0  0  0
  -25.4850  -27.7140   18.1630 C   0  0  0  0  0  3  0  0  0  0  0  0
  -24.2830  -28.3680   18.4860 C   0  0  0  0  0  3  0  0  0  0  0  0
  -23.0500  -30.2350   19.7340 C   0  0  0  0  0  2  0  0  0  0  0  0
  -24.3380  -31.1570   21.7170 N   0  0  0  0  0  0  0  0  0  0  0  0
  -23.4320  -31.8010   23.6930 O   0  0  0  0  0  0  0  0  0  0  0  0
  -22.5560  -29.3720   22.0430 C   0  0  0  0  0  0  0  0  0  0  0  0
  -21.2410  -29.1000   22.0100 N   0  0  0  0  0  0  0  0  0  0  0  0
  -23.3650  -28.6670   22.6540 O   0  0  0  0  0  0  0  0  0  0  0  0
  -20.6390  -29.7320   21.4990 H   0  0  0  0  0  0  0  0  0  0  0  0
  -18.0490  -27.4790   22.4780 C   0  0  0  0  0  0  0  0  0  0  0  0
  -20.5800  -27.9690   22.6590 C   0  0  0  0  0  3  0  0  0  0  0  0
  -20.7850  -26.6650   21.8520 C   0  0  0  0  0  2  0  0  0  0  0  0
  -19.6540  -26.3870   20.8560 C   0  0  0  0  0  2  0  0  0  0  0  0
  -18.3120  -26.2780   21.5850 C   0  0  0  0  0  2  0  0  0  0  0  0
  -19.1120  -28.2810   22.9700 C   0  0  0  0  0  0  0  0  0  0  0  0
  -18.8100  -29.4080   23.7660 C   0  0  0  0  0  3  0  0  0  0  0  0
  -17.4760  -29.7330   24.0760 C   0  0  0  0  0  3  0  0  0  0  0  0
  -16.4270  -28.9260   23.6000 C   0  0  0  0  0  3  0  0  0  0  0  0
  -16.7160  -27.8000   22.8070 C   0  0  0  0  0  3  0  0  0  0  0  0
  -25.7770  -32.2640   23.5160 C   0  0  0  0  0  3  0  0  0  0  0  0
  -25.5030  -33.5740   24.1210 N   0  0  0  0  0  0  0  0  0  0  0  0
  -25.7580  -34.7490   23.5310 C   0  0  0  0  0  0  0  0  0  0  0  0
  -26.3230  -34.8430   22.4380 O   0  0  0  0  0  0  0  0  0  0  0  0
  -24.9960  -33.5810   24.9930 H   0  0  0  0  0  0  0  0  0  0  0  0
  -24.0110  -36.5510   23.6420 C   0  0  0  0  0  1  0  0  0  0  0  0
  -25.3100  -36.0230   24.2690 C   0  0  0  0  0  3  0  0  0  0  0  0
  -27.5040  -36.7690   25.0800 C   0  0  0  0  0  1  0  0  0  0  0  0
  -26.3330  -37.0920   24.2680 N   0  0  0  0  0  0  0  0  0  0  0  0
  -25.9400  -37.9630   24.6120 H   0  0  0  0  0  0  0  0  0  0  0  0
  -26.4760  -31.3010   24.5550 C   0  0  1  0  0  0  0  0  0  0  0  0
  -25.5460  -30.8500   25.7040 C   0  0  0  0  0  1  0  0  0  0  0  0
  -27.0100  -30.0290   23.8550 C   0  0  0  0  0  1  0  0  0  0  0  0
  -27.7050  -32.0030   25.1780 C   0  0  0  0  0  1  0  0  0  0  0  0
  1  2  1  0
  3  1  1  0
  4  7  1  0
  4  2  1  0
  5  3  1  0
  5 51  1  0
  5  4  1  0
  5  6  1  6
  7  8  1  0
  8 10  1  0
  9  7  2  0
 11  8  1  0
 11 12  1  0
 13 19  1  0
 14 19  1  0
 15 16  1  0
 15 14  1  0
 17 16  1  0
 17 26  1  0
 17 18  1  0
 19 18  1  0
 20 13  2  0
 21 13  1  0
 21 12  1  0
 22 21  1  0
 23 24  2  0
 24 43  1  0
 25 24  1  0
 25 28  1  0
 26 23  1  0
 26 27  1  0
 27 25  2  0
 28 29  1  0
 29 30  2  0
 31 34  1  0
 31 30  1  0
 32 31  2  0
 33 32  1  0
 33 28  2  0
 34 35  1  0
 35 40  2  0
 35 36  1  0
 36 37  2  0
 37 38  1  0
 38 42  1  0
 39 38  2  0
 40 39  1  0
 41 40  1  0
 43 44  1  0
 44 47  1  0
 44 46  1  0
 45 43  2  0
 48 23  1  0
 48 49  1  0
 50 48  1  0
 52 51  1  0
 53 52  1  0
 54 53  1  0
 54 56  1  0
 55 66  2  0
 56 61  1  0
 57 65  1  0
 57 67  1  0
 58 64  1  0
 58 60  1  0
 59 65  1  0
 60 59  1  0
 61 60  2  0
 62 63  1  0
 62 56  2  0
 63 58  2  0
 64 57  1  0
 65 55  1  0
 67 69  2  0
 68 67  1  0
 70 68  1  0
 71 80  2  0
 71 76  1  0
 72 68  1  0
 72 76  1  0
 73 72  1  0
 74 75  1  0
 74 73  1  0
 75 71  1  0
 76 77  2  0
 77 78  1  0
 79 78  2  0
 80 79  1  0
 81 55  1  0
 81 82  1  0
 81 91  1  0
 82 85  1  0
 83 82  1  0
 83 87  1  0
 84 83  2  0
 87 86  1  0
 89 87  1  0
 89 90  1  0
 89 88  1  0
 91 94  1  1
 91 92  1  0
 93 91  1  0
M  ISO  4  13 100  21 100  53 101  54 101
M  END
>  <TORSDO>  (33) 
F 22

>  <SCORE>  (33) 
-7.015

>  <name>  (33) 
32

>  <ligand_id>  (33) 
32

>  <original_smiles>  (33) 
[H]c1c([H])c([H])c2c(c1[H])C([H])([H])C([H])([H])C([H])([H])C2([H])N([H])C(=O)C1([H])N(C(=O)C([H])(N([H])C(=O)C([H])(N([H])C([H])([H])[H])C([H])([H])[H])C(C([H])([H])[H])(C([H])([H])[H])C([H])([H])[H])C([H])([H])c2c([H])c(OC([H])([H])C([H])([H])C([H])([H])[N+]3([H])C([H])([H])C([H])([H])C([H])([H])C3([H])C(=O)N([H])C([H])([H])C([H])([H])N([H])C(=O)N3C([H])([H])C([H])([H])C([H])([H])C([H])(n4nc(-c5c([H])c([H])c(Oc6c([H])c([H])c(F)c([H])c6F)c([H])c5[H])c(C(=O)N([H])[H])c4N([H])[H])C3([H])[H])c([H])c([H])c2C1([H])[H]

>  <smiles>  (33) 
[H]c1c([H])c([H])c2c(c1[H])C([H])([H])C([H])([H])C([H])([H])C2([H])N([H])C(=O)C1([H])N(C(=O)C([H])(N([H])C(=O)C([H])(N([H])C([H])([H])[H])C([H])([H])[H])C(C([H])([H])[H])(C([H])([H])[H])C([H])([H])[H])C([H])([H])c2c([H])c(OC([H])([H])C([H])([H])C([H])([H])[N+]3([H])C([H])([H])C([H])([H])C([H])([H])C3([H])C(=O)N([H])C([H])([H])C([H])([H])N([H])C(=O)N3C([H])([H])C([H])([H])C([H])([H])C([H])(n4nc(-c5c([H])c([H])c(Oc6c([H])c([H])c(F)c([H])c6F)c([H])c5[H])c(C(=O)N([H])[H])c4N([H])[H])C3([H])[H])c([H])c([H])c2C1([H])[H]

$$$$
33:0:0
     RDKit          3D

 93100  0  0  1  0  0  0  0  0999 V2000
  -28.6160  -21.3100   21.6470 C   0  0  0  0  0  0  0  0  0  0  0  0
  -27.6290  -22.1590   21.3390 N   0  0  0  0  0  0  0  0  0  0  0  0
  -29.4790  -21.5530   22.4950 O   0  0  0  0  0  0  0  0  0  0  0  0
  -26.9680  -21.8550   20.6350 H   0  0  0  0  0  0  0  0  0  0  0  0
  -28.6210  -19.9800   20.8990 C   0  0  0  0  0  2  0  0  0  0  0  0
  -29.8680  -19.2200   21.1290 N   0  0  0  0  0  4  0  0  0  0  0  0
  -30.1090  -19.3280   22.1020 H   0  0  0  0  0  0  0  0  0  0  0  0
  -30.6020  -19.6520   20.5940 H   0  0  0  0  0  0  0  0  0  0  0  0
  -29.7550  -17.7860   20.7890 C   0  0  0  0  0  2  0  0  0  0  0  0
  -31.0700  -17.0030   20.9760 C   0  0  0  0  0  2  0  0  0  0  0  0
  -31.3560  -14.6430   20.1470 C   0  0  0  0  0  0  0  0  0  0  0  0
  -31.0330  -12.4000   19.1650 C   0  0  0  0  0  2  0  0  0  0  0  0
  -30.0820  -12.4740   17.9550 C   0  0  0  0  0  2  0  0  0  0  0  0
  -28.6090  -12.3880   18.4040 C   0  0  0  0  0  2  0  0  0  0  0  0
  -28.2830  -13.3710   19.5600 C   0  0  0  0  0  3  0  0  0  0  0  0
  -29.3340  -13.2390   20.6850 C   0  0  0  0  0  2  0  0  0  0  0  0
  -30.6720  -13.4710   20.1030 N   0  0  0  0  0  0  0  0  0  0  0  0
  -32.3780  -14.8700   19.4920 O   0  0  0  0  0  0  0  0  0  0  0  0
  -30.7990  -15.5660   20.9400 N   0  0  0  0  0  0  0  0  0  0  0  0
  -30.0210  -15.2350   21.4910 H   0  0  0  0  0  0  0  0  0  0  0  0
  -25.9310  -14.1030   20.3210 C   0  0  0  0  0  0  0  0  0  0  0  0
  -24.8360  -13.3830   20.7140 C   0  0  0  0  0  0  0  0  0  0  0  0
  -25.2250  -12.0100   20.6630 C   0  0  0  0  0  0  0  0  0  0  0  0
  -26.9250  -13.1700   20.0630 N   0  0  0  0  0  0  0  0  0  0  0  0
  -26.5040  -11.9060   20.3240 N   0  0  0  0  0  0  0  0  0  0  0  0
  -24.4430  -10.7840   20.8640 C   0  0  0  0  0  0  0  0  0  0  0  0
  -24.8110   -9.8230   21.8300 C   0  0  0  0  0  3  0  0  0  0  0  0
  -24.0290   -8.6620   22.0200 C   0  0  0  0  0  3  0  0  0  0  0  0
  -22.8690   -8.4520   21.2360 C   0  0  0  0  0  0  0  0  0  0  0  0
  -22.5210   -9.4020   20.2590 C   0  0  0  0  0  3  0  0  0  0  0  0
  -23.3020  -10.5540   20.0700 C   0  0  0  0  0  3  0  0  0  0  0  0
  -22.0690   -7.3390   21.3270 O   0  0  0  0  0  0  0  0  0  0  0  0
  -21.9010   -6.6700   22.5130 C   0  0  0  0  0  0  0  0  0  0  0  0
  -21.3870   -7.3110   23.6610 C   0  0  0  0  0  3  0  0  0  0  0  0
  -21.1630   -6.5710   24.8390 C   0  0  0  0  0  3  0  0  0  0  0  0
  -21.4410   -5.1920   24.8700 C   0  0  0  0  0  0  0  0  0  0  0  0
  -21.9490   -4.5510   23.7250 C   0  0  0  0  0  3  0  0  0  0  0  0
  -22.1740   -5.2870   22.5500 C   0  0  0  0  0  0  0  0  0  0  0  0
  -22.6410   -4.6610   21.4430 F   0  0  0  0  0  0  0  0  0  0  0  0
  -21.2180   -4.4790   25.9990 F   0  0  0  0  0  0  0  0  0  0  0  0
  -23.4700  -13.9270   21.0240 C   0  0  0  0  0  0  0  0  0  0  0  0
  -22.7360  -13.2690   21.9120 N   0  0  0  0  0  0  0  0  0  0  0  0
  -23.0690  -14.9710   20.5140 O   0  0  0  0  0  0  0  0  0  0  0  0
  -23.0740  -12.4230   22.3450 H   0  0  0  0  0  0  0  0  0  0  0  0
  -21.8220  -13.6170   22.1670 H   0  0  0  0  0  0  0  0  0  0  0  0
  -26.1650  -15.4630   20.1430 N   0  0  0  0  0  0  0  0  0  0  0  0
  -25.4400  -16.1620   20.2780 H   0  0  0  0  0  0  0  0  0  0  0  0
  -27.0170  -15.8430   19.7520 H   0  0  0  0  0  0  0  0  0  0  0  0
  -27.3750  -23.4600   21.9540 C   0  0  0  0  0  2  0  0  0  0  0  0
  -27.4530  -24.6030   20.9250 C   0  0  0  0  0  2  0  0  0  0  0  0
  -28.8620  -24.8070   20.3430 C   0  0  0  0  0  2  0  0  0  0  0  0
  -28.9890  -25.9420   19.3100 C   0  0  0  0  0  2  0  0  0  0  0  0
  -28.7990  -27.2280   19.9050 O   0  0  0  0  0  0  0  0  0  0  0  0
  -24.6410  -31.9210   23.2410 C   0  0  0  0  0  0  0  0  0  0  0  0
  -27.5540  -27.8250   19.9260 C   0  0  0  0  0  0  0  0  0  0  0  0
  -23.5290  -30.5560   21.5060 C   0  0  0  0  0  3  0  0  0  0  0  0
  -25.0730  -29.1860   20.0140 C   0  0  0  0  0  0  0  0  0  0  0  0
  -26.0340  -31.0590   21.3620 C   0  0  0  0  0  2  0  0  0  0  0  0
  -26.1940  -29.7360   20.6420 C   0  0  0  0  0  0  0  0  0  0  0  0
  -27.4330  -29.0610   20.5990 C   0  0  0  0  0  3  0  0  0  0  0  0
  -26.4030  -27.2780   19.3070 C   0  0  0  0  0  3  0  0  0  0  0  0
  -25.1700  -27.9530   19.3460 C   0  0  0  0  0  3  0  0  0  0  0  0
  -23.7860  -29.9730   20.0930 C   0  0  0  0  0  2  0  0  0  0  0  0
  -24.7530  -31.1910   22.0960 N   0  0  0  0  0  0  0  0  0  0  0  0
  -23.5420  -32.1010   23.7810 O   0  0  0  0  0  0  0  0  0  0  0  0
  -22.9260  -29.4430   22.3960 C   0  0  0  0  0  0  0  0  0  0  0  0
  -21.6170  -29.1960   22.2370 N   0  0  0  0  0  0  0  0  0  0  0  0
  -23.6340  -28.8100   23.1830 O   0  0  0  0  0  0  0  0  0  0  0  0
  -21.1050  -29.7570   21.5710 H   0  0  0  0  0  0  0  0  0  0  0  0
  -18.3060  -27.8080   22.6210 C   0  0  0  0  0  0  0  0  0  0  0  0
  -20.8440  -28.1730   22.9400 C   0  0  0  0  0  3  0  0  0  0  0  0
  -21.0250  -26.7880   22.2750 C   0  0  0  0  0  2  0  0  0  0  0  0
  -19.9490  -26.4750   21.2310 C   0  0  0  0  0  2  0  0  0  0  0  0
  -18.5560  -26.5130   21.8670 C   0  0  0  0  0  2  0  0  0  0  0  0
  -19.3800  -28.5960   23.1110 C   0  0  0  0  0  0  0  0  0  0  0  0
  -19.0930  -29.8080   23.7730 C   0  0  0  0  0  3  0  0  0  0  0  0
  -17.7630  -30.2340   23.9530 C   0  0  0  0  0  3  0  0  0  0  0  0
  -16.7030  -29.4400   23.4810 C   0  0  0  0  0  3  0  0  0  0  0  0
  -16.9750  -28.2300   22.8180 C   0  0  0  0  0  3  0  0  0  0  0  0
  -25.8860  -32.5820   23.9110 C   0  0  0  0  0  3  0  0  0  0  0  0
  -25.5300  -33.9700   24.2330 N   0  0  0  0  0  0  0  0  0  0  0  0
  -25.8580  -35.0310   23.4840 C   0  0  0  0  0  0  0  0  0  0  0  0
  -26.5650  -34.9470   22.4750 O   0  0  0  0  0  0  0  0  0  0  0  0
  -24.9040  -34.1080   25.0130 H   0  0  0  0  0  0  0  0  0  0  0  0
  -24.0880  -36.7690   23.0770 C   0  0  0  0  0  1  0  0  0  0  0  0
  -25.3180  -36.4040   23.9250 C   0  0  0  0  0  3  0  0  0  0  0  0
  -27.3980  -37.3530   24.8160 C   0  0  0  0  0  1  0  0  0  0  0  0
  -26.3200  -37.4870   23.8390 N   0  0  0  0  0  0  0  0  0  0  0  0
  -25.8830  -38.3950   23.9710 H   0  0  0  0  0  0  0  0  0  0  0  0
  -26.3750  -31.8180   25.2020 C   0  0  1  0  0  0  0  0  0  0  0  0
  -25.2450  -31.5310   26.2180 C   0  0  0  0  0  1  0  0  0  0  0  0
  -27.0180  -30.4650   24.8190 C   0  0  0  0  0  1  0  0  0  0  0  0
  -27.4730  -32.6420   25.9150 C   0  0  0  0  0  1  0  0  0  0  0  0
  1  3  2  0
  2  1  1  0
  2 49  1  0
  4  2  1  0
  5  6  1  0
  5  1  1  0
  6  7  1  0
  8  6  1  0
  9 10  1  0
  9  6  1  0
 11 19  1  0
 12 17  1  0
 13 14  1  0
 13 12  1  0
 15 14  1  0
 15 24  1  0
 15 16  1  0
 17 11  1  0
 17 16  1  0
 18 11  2  0
 19 10  1  0
 19 20  1  0
 21 22  2  0
 22 41  1  0
 23 22  1  0
 23 26  1  0
 24 21  1  0
 24 25  1  0
 25 23  2  0
 26 27  1  0
 27 28  2  0
 29 32  1  0
 29 28  1  0
 30 29  2  0
 31 30  1  0
 31 26  2  0
 32 33  1  0
 33 38  2  0
 33 34  1  0
 34 35  2  0
 35 36  1  0
 36 40  1  0
 37 36  2  0
 38 37  1  0
 39 38  1  0
 41 42  1  0
 42 45  1  0
 42 44  1  0
 43 41  2  0
 46 47  1  0
 46 21  1  0
 48 46  1  0
 50 49  1  0
 51 50  1  0
 52 53  1  0
 52 51  1  0
 53 55  1  0
 54 65  2  0
 55 60  1  0
 56 64  1  0
 56 66  1  0
 57 63  1  0
 57 59  1  0
 58 64  1  0
 59 58  1  0
 60 59  2  0
 61 62  1  0
 61 55  2  0
 62 57  2  0
 63 56  1  0
 64 54  1  0
 66 68  2  0
 67 66  1  0
 69 67  1  0
 70 79  2  0
 70 75  1  0
 71 67  1  0
 71 75  1  0
 72 71  1  0
 73 74  1  0
 73 72  1  0
 74 70  1  0
 75 76  2  0
 76 77  1  0
 78 77  2  0
 79 78  1  0
 80 54  1  0
 80 81  1  0
 80 90  1  0
 81 84  1  0
 82 86  1  0
 82 81  1  0
 83 82  2  0
 86 85  1  0
 88 86  1  0
 88 89  1  0
 88 87  1  0
 90 93  1  1
 90 91  1  0
 92 90  1  0
M  ISO  4  11 100  19 100  52 101  53 101
M  END
>  <TORSDO>  (34) 
F 24

>  <SCORE>  (34) 
-11.747

>  <name>  (34) 
33

>  <ligand_id>  (34) 
33

>  <original_smiles>  (34) 
[H]c1c([H])c([H])c2c(c1[H])C([H])([H])C([H])([H])C([H])([H])C2([H])N([H])C(=O)C1([H])N(C(=O)C([H])(N([H])C(=O)C([H])(N([H])C([H])([H])[H])C([H])([H])[H])C(C([H])([H])[H])(C([H])([H])[H])C([H])([H])[H])C([H])([H])c2c([H])c(OC([H])([H])C([H])([H])C([H])([H])C([H])([H])N([H])C(=O)C([H])([H])[N+]([H])([H])C([H])([H])C([H])([H])N([H])C(=O)N3C([H])([H])C([H])([H])C([H])([H])C([H])(n4nc(-c5c([H])c([H])c(Oc6c([H])c([H])c(F)c([H])c6F)c([H])c5[H])c(C(=O)N([H])[H])c4N([H])[H])C3([H])[H])c([H])c([H])c2C1([H])[H]

>  <smiles>  (34) 
[H]c1c([H])c([H])c2c(c1[H])C([H])([H])C([H])([H])C([H])([H])C2([H])N([H])C(=O)C1([H])N(C(=O)C([H])(N([H])C(=O)C([H])(N([H])C([H])([H])[H])C([H])([H])[H])C(C([H])([H])[H])(C([H])([H])[H])C([H])([H])[H])C([H])([H])c2c([H])c(OC([H])([H])C([H])([H])C([H])([H])C([H])([H])N([H])C(=O)C([H])([H])[N+]([H])([H])C([H])([H])C([H])([H])N([H])C(=O)N3C([H])([H])C([H])([H])C([H])([H])C([H])(n4nc(-c5c([H])c([H])c(Oc6c([H])c([H])c(F)c([H])c6F)c([H])c5[H])c(C(=O)N([H])[H])c4N([H])[H])C3([H])[H])c([H])c([H])c2C1([H])[H]

$$$$
34:0:0
     RDKit          3D

102111  0  0  1  0  0  0  0  0999 V2000
  -28.6850  -18.6880   20.9280 N   0  0  0  0  0  4  0  0  0  0  0  0
  -27.9740  -18.4470   21.5990 H   0  0  0  0  0  0  0  0  0  0  0  0
  -28.2820  -18.5760   20.0120 H   0  0  0  0  0  0  0  0  0  0  0  0
  -30.6590  -14.6140   19.1460 C   0  0  0  0  0  0  0  0  0  0  0  0
  -29.8790  -12.6180   17.9200 C   0  0  0  0  0  2  0  0  0  0  0  0
  -28.5970  -12.9260   17.1250 C   0  0  0  0  0  2  0  0  0  0  0  0
  -27.3470  -12.7220   18.0020 C   0  0  0  0  0  2  0  0  0  0  0  0
  -27.4600  -13.4390   19.3750 C   0  0  0  0  0  3  0  0  0  0  0  0
  -28.8170  -13.1340   20.0490 C   0  0  0  0  0  2  0  0  0  0  0  0
  -29.8980  -13.4860   19.1060 N   0  0  0  0  0  0  0  0  0  0  0  0
  -31.4680  -14.9210   18.2650 O   0  0  0  0  0  0  0  0  0  0  0  0
  -31.0290  -16.0300   22.5450 C   0  0  0  0  0  2  0  0  0  0  0  0
  -31.5720  -15.6330   21.1570 C   0  0  0  0  0  2  0  0  0  0  0  0
  -29.5570  -16.5580   20.0450 C   0  0  0  0  0  2  0  0  0  0  0  0
  -29.9100  -17.1010   22.4840 C   0  0  0  0  0  3  0  0  0  0  0  0
  -29.7920  -17.7080   21.0550 C   0  0  0  0  0  3  0  0  0  0  0  0
  -30.4700  -15.4120   20.2150 N   0  0  0  0  0  0  0  0  0  0  0  0
  -31.0750  -19.1000   23.5870 C   0  0  0  0  0  3  0  0  0  0  0  0
  -31.1370  -20.0920   24.5860 C   0  0  0  0  0  3  0  0  0  0  0  0
  -29.1000  -18.1520   24.6580 C   0  0  0  0  0  3  0  0  0  0  0  0
  -30.0390  -18.1360   23.6030 C   0  0  0  0  0  0  0  0  0  0  0  0
  -30.1780  -20.1190   25.6180 C   0  0  0  0  0  0  0  0  0  0  0  0
  -29.1680  -19.1390   25.6590 C   0  0  0  0  0  0  0  0  0  0  0  0
  -30.2260  -21.0870   26.5640 F   0  0  0  0  0  0  0  0  0  0  0  0
  -28.2490  -19.1520   26.6550 F   0  0  0  0  0  0  0  0  0  0  0  0
  -25.6010  -13.9340   21.0870 C   0  0  0  0  0  0  0  0  0  0  0  0
  -24.6210  -13.1450   21.6240 C   0  0  0  0  0  0  0  0  0  0  0  0
  -24.8080  -11.8450   21.0600 C   0  0  0  0  0  0  0  0  0  0  0  0
  -26.3360  -13.1100   20.2460 N   0  0  0  0  0  0  0  0  0  0  0  0
  -25.8790  -11.8320   20.2760 N   0  0  0  0  0  0  0  0  0  0  0  0
  -23.9960  -10.6270   21.1750 C   0  0  0  0  0  0  0  0  0  0  0  0
  -24.5480   -9.4170   21.6470 C   0  0  0  0  0  3  0  0  0  0  0  0
  -23.7490   -8.2600   21.7660 C   0  0  0  0  0  3  0  0  0  0  0  0
  -22.3800   -8.3090   21.4170 C   0  0  0  0  0  0  0  0  0  0  0  0
  -21.8360   -9.5090   20.9260 C   0  0  0  0  0  3  0  0  0  0  0  0
  -22.6360  -10.6590   20.8040 C   0  0  0  0  0  3  0  0  0  0  0  0
  -21.5310   -7.2310   21.4760 O   0  0  0  0  0  0  0  0  0  0  0  0
  -21.6920   -6.2340   22.4060 C   0  0  0  0  0  0  0  0  0  0  0  0
  -21.7140   -6.5030   23.7920 C   0  0  0  0  0  3  0  0  0  0  0  0
  -21.8140   -5.4410   24.7130 C   0  0  0  0  0  3  0  0  0  0  0  0
  -21.8840   -4.1130   24.2510 C   0  0  0  0  0  0  0  0  0  0  0  0
  -21.8580   -3.8440   22.8720 C   0  0  0  0  0  3  0  0  0  0  0  0
  -21.7580   -4.9010   21.9510 C   0  0  0  0  0  0  0  0  0  0  0  0
  -21.7110   -4.6350   20.6240 F   0  0  0  0  0  0  0  0  0  0  0  0
  -21.9710   -3.0920   25.1360 F   0  0  0  0  0  0  0  0  0  0  0  0
  -23.5090  -13.5900   22.5300 C   0  0  0  0  0  0  0  0  0  0  0  0
  -23.0390  -12.7060   23.4040 N   0  0  0  0  0  0  0  0  0  0  0  0
  -23.0800  -14.7430   22.4980 O   0  0  0  0  0  0  0  0  0  0  0  0
  -23.4070  -11.7670   23.4450 H   0  0  0  0  0  0  0  0  0  0  0  0
  -22.3020  -12.9720   24.0420 H   0  0  0  0  0  0  0  0  0  0  0  0
  -25.9170  -15.2820   21.2260 N   0  0  0  0  0  0  0  0  0  0  0  0
  -25.3140  -15.9130   21.7420 H   0  0  0  0  0  0  0  0  0  0  0  0
  -26.5460  -15.7630   20.5990 H   0  0  0  0  0  0  0  0  0  0  0  0
  -29.0390  -20.1200   21.0660 C   0  0  0  0  0  2  0  0  0  0  0  0
  -27.9480  -20.8850   21.8400 C   0  0  0  0  0  2  0  0  0  0  0  0
  -28.2300  -22.3860   22.0690 C   0  0  0  0  0  2  0  0  0  0  0  0
  -27.7660  -23.2560   20.9610 N   0  0  0  0  0  4  0  0  0  0  0  0
  -26.8660  -22.9330   20.6410 H   0  0  0  0  0  0  0  0  0  0  0  0
  -28.4100  -23.1790   20.1860 H   0  0  0  0  0  0  0  0  0  0  0  0
  -27.6490  -24.6890   21.3260 C   0  0  0  0  0  2  0  0  0  0  0  0
  -26.9200  -25.5020   20.2350 C   0  0  0  0  0  2  0  0  0  0  0  0
  -26.9950  -26.9050   20.4780 O   0  0  0  0  0  0  0  0  0  0  0  0
  -27.3420  -32.2030   25.1570 C   0  0  0  0  0  0  0  0  0  0  0  0
  -26.4450  -27.4330   21.6260 C   0  0  0  0  0  0  0  0  0  0  0  0
  -25.8290  -30.3450   25.7740 C   0  0  0  0  0  3  0  0  0  0  0  0
  -25.3560  -28.6470   23.9340 C   0  0  0  0  0  0  0  0  0  0  0  0
  -26.2980  -30.8810   23.3190 C   0  0  0  0  0  2  0  0  0  0  0  0
  -26.1010  -29.4100   23.0260 C   0  0  0  0  0  0  0  0  0  0  0  0
  -26.6400  -28.8080   21.8700 C   0  0  0  0  0  3  0  0  0  0  0  0
  -25.6870  -26.6760   22.5530 C   0  0  0  0  0  3  0  0  0  0  0  0
  -25.1480  -27.2770   23.7040 C   0  0  0  0  0  3  0  0  0  0  0  0
  -24.8010  -29.3670   25.1400 C   0  0  0  0  0  2  0  0  0  0  0  0
  -26.5480  -31.1720   24.7500 N   0  0  0  0  0  0  0  0  0  0  0  0
  -27.4440  -32.4990   26.3560 O   0  0  0  0  0  0  0  0  0  0  0  0
  -26.7800  -29.5310   26.6790 C   0  0  0  0  0  0  0  0  0  0  0  0
  -26.3840  -29.3450   27.9480 N   0  0  0  0  0  0  0  0  0  0  0  0
  -27.8290  -29.0570   26.2320 O   0  0  0  0  0  0  0  0  0  0  0  0
  -25.5190  -29.7800   28.2400 H   0  0  0  0  0  0  0  0  0  0  0  0
  -26.3540  -28.4190   31.4400 C   0  0  0  0  0  0  0  0  0  0  0  0
  -27.0950  -28.5780   28.9700 C   0  0  0  0  0  3  0  0  0  0  0  0
  -26.7540  -27.0730   28.8760 C   0  0  0  0  0  2  0  0  0  0  0  0
  -25.5950  -26.6590   29.7880 C   0  0  0  0  0  2  0  0  0  0  0  0
  -25.9210  -26.9740   31.2520 C   0  0  0  0  0  2  0  0  0  0  0  0
  -26.8890  -29.1750   30.3650 C   0  0  0  0  0  0  0  0  0  0  0  0
  -27.2440  -30.5240   30.5860 C   0  0  0  0  0  3  0  0  0  0  0  0
  -27.0690  -31.1160   31.8510 C   0  0  0  0  0  3  0  0  0  0  0  0
  -26.5500  -30.3590   32.9160 C   0  0  0  0  0  3  0  0  0  0  0  0
  -26.1990  -29.0120   32.7110 C   0  0  0  0  0  3  0  0  0  0  0  0
  -28.1360  -33.0760   24.1370 C   0  0  0  0  0  3  0  0  0  0  0  0
  -28.0090  -34.4780   24.5640 N   0  0  0  0  0  0  0  0  0  0  0  0
  -27.1490  -35.3580   24.0330 C   0  0  0  0  0  0  0  0  0  0  0  0
  -26.4250  -35.0900   23.0720 O   0  0  0  0  0  0  0  0  0  0  0  0
  -28.5300  -34.7500   25.3840 H   0  0  0  0  0  0  0  0  0  0  0  0
  -25.8690  -36.8480   25.6040 C   0  0  0  0  0  1  0  0  0  0  0  0
  -27.0850  -36.7610   24.6690 C   0  0  0  0  0  3  0  0  0  0  0  0
  -28.2640  -38.0080   22.9120 C   0  0  0  0  0  1  0  0  0  0  0  0
  -27.0280  -37.8540   23.6740 N   0  0  0  0  0  0  0  0  0  0  0  0
  -26.8240  -38.7420   24.1270 H   0  0  0  0  0  0  0  0  0  0  0  0
  -29.6540  -32.6630   24.0150 C   0  0  1  0  0  0  0  0  0  0  0  0
  -30.3790  -32.5560   25.3760 C   0  0  0  0  0  1  0  0  0  0  0  0
  -29.7880  -31.3010   23.2960 C   0  0  0  0  0  1  0  0  0  0  0  0
  -30.4100  -33.6990   23.1530 C   0  0  0  0  0  1  0  0  0  0  0  0
  1 54  1  0
  1  2  1  0
  3  1  1  0
  4 17  1  0
  5 10  1  0
  6  5  1  0
  6  7  1  0
  8  7  1  0
  8  9  1  0
  8 29  1  0
 10  4  1  0
 10  9  1  0
 11  4  2  0
 13 12  1  0
 14 17  1  0
 14 16  1  0
 15 12  1  0
 15 21  1  0
 16  1  1  0
 16 15  1  0
 17 13  1  0
 18 21  2  0
 18 19  1  0
 19 22  2  0
 20 23  2  0
 21 20  1  0
 22 23  1  0
 22 24  1  0
 23 25  1  0
 26 51  1  0
 26 27  2  0
 27 46  1  0
 28 31  1  0
 28 27  1  0
 29 30  1  0
 29 26  1  0
 30 28  2  0
 31 32  1  0
 32 33  2  0
 34 37  1  0
 34 33  1  0
 35 34  2  0
 36 35  1  0
 36 31  2  0
 37 38  1  0
 38 39  1  0
 39 40  2  0
 41 40  1  0
 41 45  1  0
 42 41  2  0
 43 38  2  0
 43 42  1  0
 44 43  1  0
 46 47  1  0
 47 49  1  0
 47 50  1  0
 48 46  2  0
 51 52  1  0
 53 51  1  0
 54 55  1  0
 55 56  1  0
 57 60  1  0
 57 56  1  0
 58 57  1  0
 59 57  1  0
 61 62  1  0
 61 60  1  0
 62 64  1  0
 63 74  2  0
 64 69  2  0
 64 70  1  0
 65 75  1  0
 66 72  1  0
 67 73  1  0
 68 67  1  0
 68 66  2  0
 69 68  1  0
 70 71  2  0
 71 66  1  0
 72 65  1  0
 73 63  1  0
 73 65  1  0
 75 76  1  0
 76 78  1  0
 77 75  2  0
 79 88  1  0
 80 76  1  0
 80 84  1  0
 81 80  1  0
 81 82  1  0
 82 83  1  0
 83 79  1  0
 84 85  1  0
 84 79  2  0
 85 86  2  0
 86 87  1  0
 88 87  2  0
 89 90  1  0
 89 63  1  0
 90 93  1  0
 91 90  1  0
 91 95  1  0
 92 91  2  0
 95 94  1  0
 96 97  1  0
 97 98  1  0
 97 95  1  0
 99 89  1  0
 99100  1  1
101 99  1  0
102 99  1  0
M  ISO  4   4 100  17 100  61 101  62 101
M  END
>  <TORSDO>  (35) 
F 23

>  <SCORE>  (35) 
9.542

>  <name>  (35) 
34

>  <ligand_id>  (35) 
34

>  <original_smiles>  (35) 
[H]c1c([H])c([H])c2c(c1[H])C([H])([H])C([H])([H])C([H])([H])C2([H])N([H])C(=O)C1([H])N(C(=O)C([H])(N([H])C(=O)C([H])(N([H])C([H])([H])[H])C([H])([H])[H])C(C([H])([H])[H])(C([H])([H])[H])C([H])([H])[H])C([H])([H])c2c([H])c(OC([H])([H])C([H])([H])[N+]([H])([H])C([H])([H])C([H])([H])C([H])([H])[N+]([H])([H])C3([H])C([H])([H])N(C(=O)N4C([H])([H])C([H])([H])C([H])([H])C([H])(n5nc(-c6c([H])c([H])c(Oc7c([H])c([H])c(F)c([H])c7F)c([H])c6[H])c(C(=O)N([H])[H])c5N([H])[H])C4([H])[H])C([H])([H])C([H])([H])C3([H])c3c([H])c([H])c(F)c(F)c3[H])c([H])c([H])c2C1([H])[H]

>  <smiles>  (35) 
[H]c1c([H])c([H])c2c(c1[H])C([H])([H])C([H])([H])C([H])([H])C2([H])N([H])C(=O)C1([H])N(C(=O)C([H])(N([H])C(=O)C([H])(N([H])C([H])([H])[H])C([H])([H])[H])C(C([H])([H])[H])(C([H])([H])[H])C([H])([H])[H])C([H])([H])c2c([H])c(OC([H])([H])C([H])([H])[N+]([H])([H])C([H])([H])C([H])([H])C([H])([H])[N+]([H])([H])C3([H])C([H])([H])N(C(=O)N4C([H])([H])C([H])([H])C([H])([H])C([H])(n5nc(-c6c([H])c([H])c(Oc7c([H])c([H])c(F)c([H])c7F)c([H])c6[H])c(C(=O)N([H])[H])c5N([H])[H])C4([H])[H])C([H])([H])C([H])([H])C3([H])c3c([H])c([H])c(F)c(F)c3[H])c([H])c([H])c2C1([H])[H]

$$$$
35:0:0
     RDKit          3D

 95103  0  0  1  0  0  0  0  0999 V2000
  -32.5330  -23.0240   19.9650 C   0  0  0  0  0  2  0  0  0  0  0  0
  -31.7550  -23.9610   20.8140 N   0  0  0  0  0  4  0  0  0  0  0  0
  -32.3230  -24.7860   20.9370 H   0  0  0  0  0  0  0  0  0  0  0  0
  -31.6280  -23.5680   21.7320 H   0  0  0  0  0  0  0  0  0  0  0  0
  -30.4520  -24.4070   20.2700 C   0  0  0  0  0  2  0  0  0  0  0  0
  -29.6270  -25.1590   21.3290 C   0  0  0  0  0  2  0  0  0  0  0  0
  -28.2410  -25.6030   20.8410 C   0  0  0  0  0  2  0  0  0  0  0  0
  -28.3340  -26.8110   20.0880 O   0  0  0  0  0  0  0  0  0  0  0  0
  -24.5470  -31.9300   23.2120 C   0  0  0  0  0  0  0  0  0  0  0  0
  -27.1670  -27.5310   20.0850 C   0  0  0  0  0  0  0  0  0  0  0  0
  -23.3200  -30.5280   21.5810 C   0  0  0  0  0  3  0  0  0  0  0  0
  -24.7600  -28.9990   20.1340 C   0  0  0  0  0  0  0  0  0  0  0  0
  -25.8380  -30.9050   21.3450 C   0  0  0  0  0  2  0  0  0  0  0  0
  -25.9220  -29.5380   20.7030 C   0  0  0  0  0  0  0  0  0  0  0  0
  -27.1300  -28.8120   20.6720 C   0  0  0  0  0  3  0  0  0  0  0  0
  -25.9910  -26.9930   19.5180 C   0  0  0  0  0  3  0  0  0  0  0  0
  -24.7880  -27.7250   19.5390 C   0  0  0  0  0  3  0  0  0  0  0  0
  -23.5110  -29.8480   20.1990 C   0  0  0  0  0  2  0  0  0  0  0  0
  -24.5870  -31.1350   22.1050 N   0  0  0  0  0  0  0  0  0  0  0  0
  -23.4730  -32.1980   23.7690 O   0  0  0  0  0  0  0  0  0  0  0  0
  -22.6860  -29.5040   22.5490 C   0  0  0  0  0  0  0  0  0  0  0  0
  -21.3600  -29.3220   22.4410 N   0  0  0  0  0  0  0  0  0  0  0  0
  -23.3830  -28.8750   23.3510 O   0  0  0  0  0  0  0  0  0  0  0  0
  -20.8600  -29.8800   21.7630 H   0  0  0  0  0  0  0  0  0  0  0  0
  -17.9930  -28.1290   22.9760 C   0  0  0  0  0  0  0  0  0  0  0  0
  -20.5540  -28.3820   23.2190 C   0  0  0  0  0  3  0  0  0  0  0  0
  -20.6490  -26.9530   22.6340 C   0  0  0  0  0  2  0  0  0  0  0  0
  -19.5330  -26.6360   21.6340 C   0  0  0  0  0  2  0  0  0  0  0  0
  -18.1590  -26.7800   22.2960 C   0  0  0  0  0  2  0  0  0  0  0  0
  -19.1180  -28.8880   23.3950 C   0  0  0  0  0  0  0  0  0  0  0  0
  -18.9090  -30.1510   23.9920 C   0  0  0  0  0  3  0  0  0  0  0  0
  -17.6080  -30.6550   24.1730 C   0  0  0  0  0  3  0  0  0  0  0  0
  -16.4980  -29.8920   23.7730 C   0  0  0  0  0  3  0  0  0  0  0  0
  -16.6910  -28.6320   23.1790 C   0  0  0  0  0  3  0  0  0  0  0  0
  -25.8410  -32.5600   23.8160 C   0  0  0  0  0  3  0  0  0  0  0  0
  -25.5370  -33.9550   24.1570 N   0  0  0  0  0  0  0  0  0  0  0  0
  -25.8670  -35.0110   23.4000 C   0  0  0  0  0  0  0  0  0  0  0  0
  -26.5320  -34.9110   22.3650 O   0  0  0  0  0  0  0  0  0  0  0  0
  -24.9480  -34.1070   24.9610 H   0  0  0  0  0  0  0  0  0  0  0  0
  -24.1460  -36.8090   23.0500 C   0  0  0  0  0  1  0  0  0  0  0  0
  -25.3830  -36.3970   23.8650 C   0  0  0  0  0  3  0  0  0  0  0  0
  -27.5180  -37.2660   24.7090 C   0  0  0  0  0  1  0  0  0  0  0  0
  -26.4190  -37.4470   23.7640 N   0  0  0  0  0  0  0  0  0  0  0  0
  -26.0180  -38.3670   23.9160 H   0  0  0  0  0  0  0  0  0  0  0  0
  -26.3820  -31.7810   25.0780 C   0  0  1  0  0  0  0  0  0  0  0  0
  -25.3060  -31.5360   26.1630 C   0  0  0  0  0  1  0  0  0  0  0  0
  -26.9610  -30.4090   24.6640 C   0  0  0  0  0  1  0  0  0  0  0  0
  -27.5410  -32.5740   25.7260 C   0  0  0  0  0  1  0  0  0  0  0  0
  -31.9150  -21.6090   19.8120 C   0  0  0  0  0  2  0  0  0  0  0  0
  -31.8010  -20.8060   21.1330 C   0  0  0  0  0  2  0  0  0  0  0  0
  -31.5810  -17.0610   21.9820 C   0  0  0  0  0  2  0  0  0  0  0  0
  -29.8950  -17.5890   20.1790 C   0  0  0  0  0  2  0  0  0  0  0  0
  -31.7710  -18.5790   22.1910 C   0  0  0  0  0  2  0  0  0  0  0  0
  -30.1230  -19.0910   20.4400 C   0  0  0  0  0  2  0  0  0  0  0  0
  -30.1710  -16.7480   21.4410 C   0  0  0  0  0  3  0  0  0  0  0  0
  -31.4970  -19.3570   20.9500 N   0  0  1  0  0  4  0  0  0  0  0  0
  -32.1450  -19.0160   20.2550 H   0  0  0  0  0  0  0  0  0  0  0  0
  -30.4660  -14.4940   20.3110 C   0  0  0  0  0  0  0  0  0  0  0  0
  -30.1290  -12.4230   19.0160 C   0  0  0  0  0  2  0  0  0  0  0  0
  -29.1320  -12.6800   17.8670 C   0  0  0  0  0  2  0  0  0  0  0  0
  -27.6790  -12.4980   18.3510 C   0  0  0  0  0  2  0  0  0  0  0  0
  -27.3870  -13.2730   19.6630 C   0  0  0  0  0  3  0  0  0  0  0  0
  -28.4840  -12.9890   20.7150 C   0  0  0  0  0  2  0  0  0  0  0  0
  -29.7930  -13.3290   20.1240 N   0  0  0  0  0  0  0  0  0  0  0  0
  -31.4700  -14.8070   19.6660 O   0  0  0  0  0  0  0  0  0  0  0  0
  -29.9150  -15.3190   21.2140 N   0  0  0  0  0  0  0  0  0  0  0  0
  -29.1290  -14.9270   21.7140 H   0  0  0  0  0  0  0  0  0  0  0  0
  -24.9940  -13.8170   20.4470 C   0  0  0  0  0  0  0  0  0  0  0  0
  -23.9570  -13.0150   20.8450 C   0  0  0  0  0  0  0  0  0  0  0  0
  -24.4510  -11.6750   20.7850 C   0  0  0  0  0  0  0  0  0  0  0  0
  -26.0540  -12.9640   20.1780 N   0  0  0  0  0  0  0  0  0  0  0  0
  -25.7300  -11.6710   20.4340 N   0  0  0  0  0  0  0  0  0  0  0  0
  -23.7640  -10.3930   20.9890 C   0  0  0  0  0  0  0  0  0  0  0  0
  -24.2390   -9.4400   21.9160 C   0  0  0  0  0  3  0  0  0  0  0  0
  -23.5520   -8.2210   22.1060 C   0  0  0  0  0  3  0  0  0  0  0  0
  -22.3760   -7.9480   21.3690 C   0  0  0  0  0  0  0  0  0  0  0  0
  -21.9190   -8.8900   20.4310 C   0  0  0  0  0  3  0  0  0  0  0  0
  -22.6080  -10.1000   20.2380 C   0  0  0  0  0  3  0  0  0  0  0  0
  -21.6570   -6.7810   21.4690 O   0  0  0  0  0  0  0  0  0  0  0  0
  -21.6370   -6.0450   22.6260 C   0  0  0  0  0  0  0  0  0  0  0  0
  -21.2050   -6.5960   23.8520 C   0  0  0  0  0  3  0  0  0  0  0  0
  -21.1350   -5.7840   25.0020 C   0  0  0  0  0  3  0  0  0  0  0  0
  -21.4850   -4.4240   24.9280 C   0  0  0  0  0  0  0  0  0  0  0  0
  -21.9110   -3.8720   23.7070 C   0  0  0  0  0  3  0  0  0  0  0  0
  -21.9830   -4.6800   22.5580 C   0  0  0  0  0  0  0  0  0  0  0  0
  -22.3730   -4.1390   21.3790 F   0  0  0  0  0  0  0  0  0  0  0  0
  -21.4110   -3.6420   26.0300 F   0  0  0  0  0  0  0  0  0  0  0  0
  -22.5580  -13.4530   21.1700 C   0  0  0  0  0  0  0  0  0  0  0  0
  -21.8800  -12.7310   22.0550 N   0  0  0  0  0  0  0  0  0  0  0  0
  -22.0750  -14.4700   20.6750 O   0  0  0  0  0  0  0  0  0  0  0  0
  -22.2830  -11.9080   22.4780 H   0  0  0  0  0  0  0  0  0  0  0  0
  -20.9420  -13.0060   22.3140 H   0  0  0  0  0  0  0  0  0  0  0  0
  -25.1180  -15.1920   20.2770 N   0  0  0  0  0  0  0  0  0  0  0  0
  -24.3400  -15.8290   20.4170 H   0  0  0  0  0  0  0  0  0  0  0  0
  -25.9500  -15.6540   19.9310 H   0  0  0  0  0  0  0  0  0  0  0  0
  1  2  1  0
  2  3  1  0
  2  4  1  0
  5  2  1  0
  5  6  1  0
  7  6  1  0
  8  7  1  0
  9 20  2  0
 10  8  1  0
 10 15  1  0
 11 19  1  0
 11 21  1  0
 12 18  1  0
 12 14  1  0
 13 19  1  0
 14 13  1  0
 15 14  2  0
 16 17  1  0
 16 10  2  0
 17 12  2  0
 18 11  1  0
 19  9  1  0
 21 23  2  0
 22 21  1  0
 24 22  1  0
 25 34  2  0
 25 30  1  0
 26 22  1  0
 26 30  1  0
 27 26  1  0
 28 29  1  0
 28 27  1  0
 29 25  1  0
 30 31  2  0
 31 32  1  0
 33 32  2  0
 34 33  1  0
 35  9  1  0
 35 36  1  0
 35 45  1  0
 36 39  1  0
 37 41  1  0
 37 36  1  0
 38 37  2  0
 41 40  1  0
 43 41  1  0
 43 44  1  0
 43 42  1  0
 45 48  1  1
 45 46  1  0
 47 45  1  0
 49  1  1  0
 49 50  1  0
 51 53  1  0
 52 54  1  0
 52 55  1  0
 54 56  1  0
 55 66  1  0
 55 51  1  0
 56 50  1  0
 56 53  1  0
 56 57  1  6
 58 66  1  0
 59 64  1  0
 60 61  1  0
 60 59  1  0
 62 61  1  0
 62 71  1  0
 62 63  1  0
 64 58  1  0
 64 63  1  0
 65 58  2  0
 66 67  1  0
 68 69  2  0
 69 88  1  0
 70 69  1  0
 70 73  1  0
 71 72  1  0
 71 68  1  0
 72 70  2  0
 73 74  1  0
 74 75  2  0
 76 79  1  0
 76 75  1  0
 77 76  2  0
 78 77  1  0
 78 73  2  0
 79 80  1  0
 80 81  1  0
 81 82  2  0
 83 82  1  0
 83 87  1  0
 84 83  2  0
 85 80  2  0
 85 84  1  0
 86 85  1  0
 88 89  1  0
 89 92  1  0
 89 91  1  0
 90 88  2  0
 93 94  1  0
 93 68  1  0
 95 93  1  0
M  ISO  4   7 101   8 101  58 100  66 100
M  END
>  <TORSDO>  (36) 
F 23

>  <SCORE>  (36) 
-12.329

>  <name>  (36) 
35

>  <ligand_id>  (36) 
35

>  <original_smiles>  (36) 
[H]c1c([H])c([H])c2c(c1[H])C([H])([H])C([H])([H])C([H])([H])C2([H])N([H])C(=O)C1([H])N(C(=O)C([H])(N([H])C(=O)C([H])(N([H])C([H])([H])[H])C([H])([H])[H])C(C([H])([H])[H])(C([H])([H])[H])C([H])([H])[H])C([H])([H])c2c([H])c(OC([H])([H])C([H])([H])C([H])([H])[N+]([H])([H])C([H])([H])C([H])([H])C([H])([H])[N+]3([H])C([H])([H])C([H])([H])C([H])(N([H])C(=O)N4C([H])([H])C([H])([H])C([H])([H])C([H])(n5nc(-c6c([H])c([H])c(Oc7c([H])c([H])c(F)c([H])c7F)c([H])c6[H])c(C(=O)N([H])[H])c5N([H])[H])C4([H])[H])C([H])([H])C3([H])[H])c([H])c([H])c2C1([H])[H]

>  <smiles>  (36) 
[H]c1c([H])c([H])c2c(c1[H])C([H])([H])C([H])([H])C([H])([H])C2([H])N([H])C(=O)C1([H])N(C(=O)C([H])(N([H])C(=O)C([H])(N([H])C([H])([H])[H])C([H])([H])[H])C(C([H])([H])[H])(C([H])([H])[H])C([H])([H])[H])C([H])([H])c2c([H])c(OC([H])([H])C([H])([H])C([H])([H])[N+]([H])([H])C([H])([H])C([H])([H])C([H])([H])[N+]3([H])C([H])([H])C([H])([H])C([H])(N([H])C(=O)N4C([H])([H])C([H])([H])C([H])([H])C([H])(n5nc(-c6c([H])c([H])c(Oc7c([H])c([H])c(F)c([H])c7F)c([H])c6[H])c(C(=O)N([H])[H])c5N([H])[H])C4([H])[H])C([H])([H])C3([H])[H])c([H])c([H])c2C1([H])[H]

$$$$
36:0:0
     RDKit          3D

 95103  0  0  1  0  0  0  0  0999 V2000
  -30.0510  -21.2490   21.3880 N   0  0  0  0  0  4  0  0  0  0  0  0
  -30.1610  -21.1670   20.3910 H   0  0  0  0  0  0  0  0  0  0  0  0
  -30.9260  -21.5930   21.7570 H   0  0  0  0  0  0  0  0  0  0  0  0
  -29.8210  -19.8790   21.9150 C   0  0  0  0  0  2  0  0  0  0  0  0
  -30.7650  -18.9380   21.1390 C   0  0  0  0  0  2  0  0  0  0  0  0
  -30.6630  -14.4550   20.0000 C   0  0  0  0  0  0  0  0  0  0  0  0
  -30.1630  -12.3160   18.9200 C   0  0  0  0  0  2  0  0  0  0  0  0
  -29.1860  -12.6080   17.7680 C   0  0  0  0  0  2  0  0  0  0  0  0
  -27.7300  -12.5230   18.2680 C   0  0  0  0  0  2  0  0  0  0  0  0
  -27.4910  -13.3050   19.5910 C   0  0  0  0  0  3  0  0  0  0  0  0
  -28.6230  -13.0960   20.6250 C   0  0  0  0  0  2  0  0  0  0  0  0
  -29.8990  -13.3330   19.9470 N   0  0  0  0  0  0  0  0  0  0  0  0
  -31.7930  -14.4850   19.5130 O   0  0  0  0  0  0  0  0  0  0  0  0
  -30.0100  -16.5810   19.0550 C   0  0  0  0  0  2  0  0  0  0  0  0
  -30.0180  -16.3370   21.4860 C   0  0  0  0  0  2  0  0  0  0  0  0
  -31.3980  -17.1450   18.5940 C   0  0  0  0  0  2  0  0  0  0  0  0
  -32.4360  -17.0540   21.0190 C   0  0  0  0  0  2  0  0  0  0  0  0
  -31.0800  -17.4870   21.6240 C   0  0  0  0  0  3  0  0  0  0  0  0
  -30.0270  -15.6380   20.1830 N   0  0  0  0  0  0  0  0  0  0  0  0
  -32.5650  -17.1260   19.5320 N   0  0  0  0  0  4  0  0  0  0  0  0
  -33.1740  -17.8920   19.2970 H   0  0  0  0  0  0  0  0  0  0  0  0
  -33.0670  -16.2850   19.2870 H   0  0  0  0  0  0  0  0  0  0  0  0
  -25.1550  -13.8580   20.5080 C   0  0  0  0  0  0  0  0  0  0  0  0
  -24.1180  -13.0590   20.9140 C   0  0  0  0  0  0  0  0  0  0  0  0
  -24.5820  -11.7160   20.7900 C   0  0  0  0  0  0  0  0  0  0  0  0
  -26.1840  -12.9960   20.1630 N   0  0  0  0  0  0  0  0  0  0  0  0
  -25.8470  -11.6990   20.3890 N   0  0  0  0  0  0  0  0  0  0  0  0
  -23.8710  -10.4450   20.9830 C   0  0  0  0  0  0  0  0  0  0  0  0
  -24.3230   -9.4840   21.9130 C   0  0  0  0  0  3  0  0  0  0  0  0
  -23.6160   -8.2750   22.0920 C   0  0  0  0  0  3  0  0  0  0  0  0
  -22.4400   -8.0250   21.3450 C   0  0  0  0  0  0  0  0  0  0  0  0
  -22.0080   -8.9770   20.4030 C   0  0  0  0  0  3  0  0  0  0  0  0
  -22.7170  -10.1760   20.2230 C   0  0  0  0  0  3  0  0  0  0  0  0
  -21.6960   -6.8740   21.4310 O   0  0  0  0  0  0  0  0  0  0  0  0
  -21.6050   -6.1610   22.5990 C   0  0  0  0  0  0  0  0  0  0  0  0
  -21.1200   -6.7400   23.7930 C   0  0  0  0  0  3  0  0  0  0  0  0
  -20.9890   -5.9520   24.9530 C   0  0  0  0  0  3  0  0  0  0  0  0
  -21.3270   -4.5850   24.9190 C   0  0  0  0  0  0  0  0  0  0  0  0
  -21.8000   -4.0060   23.7280 C   0  0  0  0  0  3  0  0  0  0  0  0
  -21.9380   -4.7930   22.5720 C   0  0  0  0  0  0  0  0  0  0  0  0
  -22.3770   -4.2280   21.4210 F   0  0  0  0  0  0  0  0  0  0  0  0
  -21.1900   -3.8220   26.0280 F   0  0  0  0  0  0  0  0  0  0  0  0
  -22.7440  -13.5150   21.3030 C   0  0  0  0  0  0  0  0  0  0  0  0
  -22.0800  -12.7700   22.1800 N   0  0  0  0  0  0  0  0  0  0  0  0
  -22.2710  -14.5610   20.8640 O   0  0  0  0  0  0  0  0  0  0  0  0
  -22.4680  -11.9060   22.5270 H   0  0  0  0  0  0  0  0  0  0  0  0
  -21.1580  -13.0530   22.4750 H   0  0  0  0  0  0  0  0  0  0  0  0
  -25.2930  -15.2360   20.3850 N   0  0  0  0  0  0  0  0  0  0  0  0
  -24.5210  -15.8630   20.5870 H   0  0  0  0  0  0  0  0  0  0  0  0
  -26.1190  -15.7140   20.0470 H   0  0  0  0  0  0  0  0  0  0  0  0
  -29.0310  -22.2930   21.5990 C   0  0  0  0  0  2  0  0  0  0  0  0
  -29.1230  -23.3210   20.4490 C   0  0  0  0  0  2  0  0  0  0  0  0
  -28.3030  -24.5970   20.6650 C   0  0  0  0  0  2  0  0  0  0  0  0
  -28.4910  -25.6040   19.5190 C   0  0  0  0  0  2  0  0  0  0  0  0
  -28.3720  -26.9110   20.0550 O   0  0  0  0  0  0  0  0  0  0  0  0
  -24.5530  -31.9640   23.2270 C   0  0  0  0  0  0  0  0  0  0  0  0
  -27.1470  -27.5320   20.1130 C   0  0  0  0  0  0  0  0  0  0  0  0
  -23.3150  -30.5520   21.6140 C   0  0  0  0  0  3  0  0  0  0  0  0
  -24.7400  -29.0040   20.1810 C   0  0  0  0  0  0  0  0  0  0  0  0
  -25.8310  -30.9200   21.3620 C   0  0  0  0  0  2  0  0  0  0  0  0
  -25.9050  -29.5420   20.7430 C   0  0  0  0  0  0  0  0  0  0  0  0
  -27.1070  -28.8090   20.7110 C   0  0  0  0  0  3  0  0  0  0  0  0
  -25.9560  -26.9880   19.5760 C   0  0  0  0  0  3  0  0  0  0  0  0
  -24.7580  -27.7260   19.6000 C   0  0  0  0  0  3  0  0  0  0  0  0
  -23.4940  -29.8530   20.2400 C   0  0  0  0  0  2  0  0  0  0  0  0
  -24.5880  -31.1570   22.1280 N   0  0  0  0  0  0  0  0  0  0  0  0
  -23.4800  -32.2420   23.7800 O   0  0  0  0  0  0  0  0  0  0  0  0
  -22.6800  -29.5400   22.5910 C   0  0  0  0  0  0  0  0  0  0  0  0
  -21.3560  -29.3450   22.4670 N   0  0  0  0  0  0  0  0  0  0  0  0
  -23.3710  -28.9290   23.4110 O   0  0  0  0  0  0  0  0  0  0  0  0
  -20.8620  -29.8820   21.7690 H   0  0  0  0  0  0  0  0  0  0  0  0
  -17.9940  -28.1370   22.9670 C   0  0  0  0  0  0  0  0  0  0  0  0
  -20.5480  -28.4120   23.2470 C   0  0  0  0  0  3  0  0  0  0  0  0
  -20.6630  -26.9760   22.6850 C   0  0  0  0  0  2  0  0  0  0  0  0
  -19.5660  -26.6350   21.6730 C   0  0  0  0  0  2  0  0  0  0  0  0
  -18.1800  -26.7810   22.3070 C   0  0  0  0  0  2  0  0  0  0  0  0
  -19.1050  -28.9100   23.3920 C   0  0  0  0  0  0  0  0  0  0  0  0
  -18.8770  -30.1820   23.9640 C   0  0  0  0  0  3  0  0  0  0  0  0
  -17.5680  -30.6800   24.1130 C   0  0  0  0  0  3  0  0  0  0  0  0
  -16.4700  -29.9000   23.7080 C   0  0  0  0  0  3  0  0  0  0  0  0
  -16.6830  -28.6290   23.1430 C   0  0  0  0  0  3  0  0  0  0  0  0
  -25.8490  -32.5900   23.8260 C   0  0  0  0  0  3  0  0  0  0  0  0
  -26.3910  -31.8110   25.0870 C   0  0  1  0  0  0  0  0  0  0  0  0
  -25.3130  -31.5480   26.1640 C   0  0  0  0  0  1  0  0  0  0  0  0
  -26.9770  -30.4430   24.6660 C   0  0  0  0  0  1  0  0  0  0  0  0
  -27.5480  -32.6020   25.7390 C   0  0  0  0  0  1  0  0  0  0  0  0
  -25.5470  -33.9870   24.1660 N   0  0  0  0  0  0  0  0  0  0  0  0
  -25.8830  -35.0410   23.4100 C   0  0  0  0  0  0  0  0  0  0  0  0
  -26.5510  -34.9390   22.3780 O   0  0  0  0  0  0  0  0  0  0  0  0
  -24.9510  -34.1390   24.9660 H   0  0  0  0  0  0  0  0  0  0  0  0
  -24.1630  -36.8380   23.0520 C   0  0  0  0  0  1  0  0  0  0  0  0
  -25.3980  -36.4280   23.8710 C   0  0  0  0  0  3  0  0  0  0  0  0
  -27.5330  -37.2950   24.7190 C   0  0  0  0  0  1  0  0  0  0  0  0
  -26.4350  -37.4780   23.7730 N   0  0  0  0  0  0  0  0  0  0  0  0
  -26.0320  -38.3970   23.9300 H   0  0  0  0  0  0  0  0  0  0  0  0
  1 51  1  0
  1  3  1  0
  1  4  1  0
  2  1  1  0
  5  4  1  0
  6 19  1  0
  7 12  1  0
  8  9  1  0
  8  7  1  0
 10  9  1  0
 10 26  1  0
 10 11  1  0
 12  6  1  0
 12 11  1  0
 13  6  2  0
 14 19  1  0
 15 18  1  0
 16 14  1  0
 16 20  1  0
 17 18  1  0
 18  5  1  0
 19 15  1  0
 20 17  1  0
 21 20  1  0
 22 20  1  0
 23 24  2  0
 24 43  1  0
 25 24  1  0
 25 28  1  0
 26 27  1  0
 26 23  1  0
 27 25  2  0
 28 29  1  0
 29 30  2  0
 31 34  1  0
 31 30  1  0
 32 31  2  0
 33 32  1  0
 33 28  2  0
 34 35  1  0
 35 36  1  0
 36 37  2  0
 38 37  1  0
 38 42  1  0
 39 38  2  0
 40 35  2  0
 40 39  1  0
 41 40  1  0
 43 44  1  0
 44 47  1  0
 44 46  1  0
 45 43  2  0
 48 23  1  0
 48 49  1  0
 50 48  1  0
 52 53  1  0
 52 51  1  0
 54 55  1  0
 54 53  1  0
 55 57  1  0
 56 67  2  0
 57 62  1  0
 58 66  1  0
 58 68  1  0
 59 65  1  0
 59 61  1  0
 60 66  1  0
 61 60  1  0
 62 61  2  0
 63 64  1  0
 63 57  2  0
 64 59  2  0
 65 58  1  0
 66 56  1  0
 68 70  2  0
 69 68  1  0
 71 69  1  0
 72 81  2  0
 72 77  1  0
 73 69  1  0
 73 77  1  0
 74 73  1  0
 75 76  1  0
 75 74  1  0
 76 72  1  0
 77 78  2  0
 78 79  1  0
 80 79  2  0
 81 80  1  0
 82 56  1  0
 82 87  1  0
 82 83  1  0
 83 86  1  1
 83 84  1  0
 85 83  1  0
 87 90  1  0
 88 92  1  0
 88 87  1  0
 89 88  2  0
 92 91  1  0
 94 92  1  0
 94 95  1  0
 94 93  1  0
M  ISO  4   6 100  19 100  54 101  55 101
M  END
>  <TORSDO>  (37) 
F 22

>  <SCORE>  (37) 
-12.336

>  <name>  (37) 
36

>  <ligand_id>  (37) 
36

>  <original_smiles>  (37) 
[H]c1c([H])c([H])c2c(c1[H])C([H])([H])C([H])([H])C([H])([H])C2([H])N([H])C(=O)C1([H])N(C(=O)C([H])(N([H])C(=O)C([H])(N([H])C([H])([H])[H])C([H])([H])[H])C(C([H])([H])[H])(C([H])([H])[H])C([H])([H])[H])C([H])([H])c2c([H])c(OC([H])([H])C([H])([H])C([H])([H])C([H])([H])[N+]([H])([H])C([H])([H])C([H])([H])C3([H])C([H])([H])N(C(=O)N4C([H])([H])C([H])([H])C([H])([H])C([H])(n5nc(-c6c([H])c([H])c(Oc7c([H])c([H])c(F)c([H])c7F)c([H])c6[H])c(C(=O)N([H])[H])c5N([H])[H])C4([H])[H])C([H])([H])C([H])([H])[N+]([H])([H])C3([H])[H])c([H])c([H])c2C1([H])[H]

>  <smiles>  (37) 
[H]c1c([H])c([H])c2c(c1[H])C([H])([H])C([H])([H])C([H])([H])C2([H])N([H])C(=O)C1([H])N(C(=O)C([H])(N([H])C(=O)C([H])(N([H])C([H])([H])[H])C([H])([H])[H])C(C([H])([H])[H])(C([H])([H])[H])C([H])([H])[H])C([H])([H])c2c([H])c(OC([H])([H])C([H])([H])C([H])([H])C([H])([H])[N+]([H])([H])C([H])([H])C([H])([H])C3([H])C([H])([H])N(C(=O)N4C([H])([H])C([H])([H])C([H])([H])C([H])(n5nc(-c6c([H])c([H])c(Oc7c([H])c([H])c(F)c([H])c7F)c([H])c6[H])c(C(=O)N([H])[H])c5N([H])[H])C4([H])[H])C([H])([H])C([H])([H])[N+]([H])([H])C3([H])[H])c([H])c([H])c2C1([H])[H]

$$$$
37:0:0
     RDKit          3D

 96104  0  0  1  0  0  0  0  0999 V2000
  -32.3650  -21.7940   22.4500 C   0  0  0  0  0  2  0  0  0  0  0  0
  -31.1170  -22.5100   22.0820 N   0  0  0  0  0  4  0  0  0  0  0  0
  -30.5690  -21.9200   21.4780 H   0  0  0  0  0  0  0  0  0  0  0  0
  -30.5780  -22.7000   22.9130 H   0  0  0  0  0  0  0  0  0  0  0  0
  -31.3360  -23.7990   21.3800 C   0  0  0  0  0  2  0  0  0  0  0  0
  -30.1710  -24.1800   20.4400 C   0  0  0  0  0  2  0  0  0  0  0  0
  -28.8410  -24.4790   21.1550 C   0  0  0  0  0  2  0  0  0  0  0  0
  -27.7270  -24.9520   20.2060 C   0  0  0  0  0  2  0  0  0  0  0  0
  -27.9280  -26.3120   19.8080 O   0  0  0  0  0  0  0  0  0  0  0  0
  -24.5490  -31.5460   23.1830 C   0  0  0  0  0  0  0  0  0  0  0  0
  -26.8010  -27.1010   19.8420 C   0  0  0  0  0  0  0  0  0  0  0  0
  -23.1900  -30.2700   21.5580 C   0  0  0  0  0  3  0  0  0  0  0  0
  -24.4880  -28.7130   20.0120 C   0  0  0  0  0  0  0  0  0  0  0  0
  -25.7160  -30.5100   21.2430 C   0  0  0  0  0  2  0  0  0  0  0  0
  -25.6990  -29.1620   20.5550 C   0  0  0  0  0  0  0  0  0  0  0  0
  -26.8580  -28.3640   20.4670 C   0  0  0  0  0  3  0  0  0  0  0  0
  -25.5780  -26.6680   19.2770 C   0  0  0  0  0  3  0  0  0  0  0  0
  -24.4220  -27.4640   19.3690 C   0  0  0  0  0  3  0  0  0  0  0  0
  -23.2940  -29.6290   20.1480 C   0  0  0  0  0  2  0  0  0  0  0  0
  -24.5070  -30.7860   22.0530 N   0  0  0  0  0  0  0  0  0  0  0  0
  -23.5130  -31.8550   23.7870 O   0  0  0  0  0  0  0  0  0  0  0  0
  -22.5320  -29.2500   22.5150 C   0  0  0  0  0  0  0  0  0  0  0  0
  -21.2040  -29.0910   22.4000 N   0  0  0  0  0  0  0  0  0  0  0  0
  -23.2140  -28.6050   23.3160 O   0  0  0  0  0  0  0  0  0  0  0  0
  -20.7150  -29.6630   21.7270 H   0  0  0  0  0  0  0  0  0  0  0  0
  -17.8260  -27.9030   22.8710 C   0  0  0  0  0  0  0  0  0  0  0  0
  -20.3810  -28.1600   23.1700 C   0  0  0  0  0  3  0  0  0  0  0  0
  -20.4880  -26.7230   22.6080 C   0  0  0  0  0  2  0  0  0  0  0  0
  -19.3980  -26.3930   21.5840 C   0  0  0  0  0  2  0  0  0  0  0  0
  -18.0090  -26.5470   22.2100 C   0  0  0  0  0  2  0  0  0  0  0  0
  -18.9410  -28.6660   23.3070 C   0  0  0  0  0  0  0  0  0  0  0  0
  -18.7180  -29.9370   23.8820 C   0  0  0  0  0  3  0  0  0  0  0  0
  -17.4130  -30.4430   24.0260 C   0  0  0  0  0  3  0  0  0  0  0  0
  -16.3120  -29.6760   23.6070 C   0  0  0  0  0  3  0  0  0  0  0  0
  -16.5190  -28.4080   23.0350 C   0  0  0  0  0  3  0  0  0  0  0  0
  -25.8980  -32.0860   23.7570 C   0  0  0  0  0  3  0  0  0  0  0  0
  -25.6820  -33.4840   24.1540 N   0  0  0  0  0  0  0  0  0  0  0  0
  -26.0640  -34.5440   23.4310 C   0  0  0  0  0  0  0  0  0  0  0  0
  -26.7060  -34.4450   22.3800 O   0  0  0  0  0  0  0  0  0  0  0  0
  -25.1160  -33.6380   24.9750 H   0  0  0  0  0  0  0  0  0  0  0  0
  -24.4640  -36.4650   23.1620 C   0  0  0  0  0  1  0  0  0  0  0  0
  -25.6700  -35.9380   23.9550 C   0  0  0  0  0  3  0  0  0  0  0  0
  -27.8520  -36.6360   24.8380 C   0  0  0  0  0  1  0  0  0  0  0  0
  -26.7730  -36.9220   23.8960 N   0  0  0  0  0  0  0  0  0  0  0  0
  -26.4290  -37.8600   24.0820 H   0  0  0  0  0  0  0  0  0  0  0  0
  -26.4400  -31.2360   24.9720 C   0  0  1  0  0  0  0  0  0  0  0  0
  -25.3930  -31.0070   26.0870 C   0  0  0  0  0  1  0  0  0  0  0  0
  -26.9320  -29.8500   24.4920 C   0  0  0  0  0  1  0  0  0  0  0  0
  -27.6620  -31.9450   25.6030 C   0  0  0  0  0  1  0  0  0  0  0  0
  -32.1470  -20.5380   23.3310 C   0  0  0  0  0  2  0  0  0  0  0  0
  -31.0450  -19.5360   22.9140 C   0  0  0  0  0  2  0  0  0  0  0  0
  -31.3480  -18.7470   21.6920 N   0  0  0  0  0  4  0  0  0  0  0  0
  -31.3220  -19.3560   20.8900 H   0  0  0  0  0  0  0  0  0  0  0  0
  -32.2770  -18.3620   21.7510 H   0  0  0  0  0  0  0  0  0  0  0  0
  -30.5820  -14.3860   19.7790 C   0  0  0  0  0  0  0  0  0  0  0  0
  -30.1900  -12.2490   18.5980 C   0  0  0  0  0  2  0  0  0  0  0  0
  -29.1730  -12.4420   17.4530 C   0  0  0  0  0  2  0  0  0  0  0  0
  -27.7220  -12.3160   17.9650 C   0  0  0  0  0  2  0  0  0  0  0  0
  -27.4690  -13.1400   19.2590 C   0  0  0  0  0  3  0  0  0  0  0  0
  -28.5910  -12.8430   20.2770 C   0  0  0  0  0  2  0  0  0  0  0  0
  -29.8710  -13.2220   19.6620 N   0  0  0  0  0  0  0  0  0  0  0  0
  -31.6030  -14.5530   19.1000 O   0  0  0  0  0  0  0  0  0  0  0  0
  -30.2930  -16.6000   22.5610 C   0  0  0  0  0  2  0  0  0  0  0  0
  -30.6820  -16.7810   20.2340 C   0  0  0  0  0  2  0  0  0  0  0  0
  -30.3840  -17.6450   21.4570 C   0  0  0  0  0  3  0  0  0  0  0  0
  -29.5450  -15.4580   21.8610 C   0  0  0  0  0  3  0  0  0  0  0  0
  -28.0210  -15.7560   21.9320 C   0  0  0  0  0  1  0  0  0  0  0  0
  -30.0650  -15.4510   20.4720 N   0  0  0  0  0  0  0  0  0  0  0  0
  -25.0850  -13.7410   20.0260 C   0  0  0  0  0  0  0  0  0  0  0  0
  -24.0570  -12.9710   20.5030 C   0  0  0  0  0  0  0  0  0  0  0  0
  -24.5500  -11.6310   20.5350 C   0  0  0  0  0  0  0  0  0  0  0  0
  -26.1440  -12.8700   19.8110 N   0  0  0  0  0  0  0  0  0  0  0  0
  -25.8240  -11.5990   20.1660 N   0  0  0  0  0  0  0  0  0  0  0  0
  -23.8640  -10.3700   20.8420 C   0  0  0  0  0  0  0  0  0  0  0  0
  -24.3280   -9.5090   21.8600 C   0  0  0  0  0  3  0  0  0  0  0  0
  -23.6460   -8.3070   22.1480 C   0  0  0  0  0  3  0  0  0  0  0  0
  -22.4840   -7.9600   21.4190 C   0  0  0  0  0  0  0  0  0  0  0  0
  -22.0380   -8.8100   20.3920 C   0  0  0  0  0  3  0  0  0  0  0  0
  -22.7210  -10.0020   20.1030 C   0  0  0  0  0  3  0  0  0  0  0  0
  -21.7710   -6.8010   21.6120 O   0  0  0  0  0  0  0  0  0  0  0  0
  -21.6580   -6.2230   22.8510 C   0  0  0  0  0  0  0  0  0  0  0  0
  -21.1590   -6.9350   23.9630 C   0  0  0  0  0  3  0  0  0  0  0  0
  -20.9930   -6.2820   25.2010 C   0  0  0  0  0  3  0  0  0  0  0  0
  -21.3150   -4.9170   25.3260 C   0  0  0  0  0  0  0  0  0  0  0  0
  -21.8060   -4.2050   24.2180 C   0  0  0  0  0  3  0  0  0  0  0  0
  -21.9730   -4.8550   22.9840 C   0  0  0  0  0  0  0  0  0  0  0  0
  -22.4270   -4.1580   21.9140 F   0  0  0  0  0  0  0  0  0  0  0  0
  -21.1470   -4.2880   26.5130 F   0  0  0  0  0  0  0  0  0  0  0  0
  -22.6650  -13.4380   20.8190 C   0  0  0  0  0  0  0  0  0  0  0  0
  -22.0120  -12.8050   21.7870 N   0  0  0  0  0  0  0  0  0  0  0  0
  -22.1640  -14.4000   20.2390 O   0  0  0  0  0  0  0  0  0  0  0  0
  -22.4280  -12.0280   22.2780 H   0  0  0  0  0  0  0  0  0  0  0  0
  -21.0810  -13.1050   22.0430 H   0  0  0  0  0  0  0  0  0  0  0  0
  -25.2030  -15.0960   19.7380 N   0  0  0  0  0  0  0  0  0  0  0  0
  -24.4280  -15.7440   19.8270 H   0  0  0  0  0  0  0  0  0  0  0  0
  -26.0300  -15.5220   19.3410 H   0  0  0  0  0  0  0  0  0  0  0  0
  1 50  1  0
  2  1  1  0
  2  4  1  0
  3  2  1  0
  5  2  1  0
  6  7  1  0
  6  5  1  0
  8  7  1  0
  9 11  1  0
  9  8  1  0
 10 21  2  0
 11 16  1  0
 12 20  1  0
 12 22  1  0
 13 19  1  0
 13 15  1  0
 14 20  1  0
 15 14  1  0
 16 15  2  0
 17 18  1  0
 17 11  2  0
 18 13  2  0
 19 12  1  0
 20 10  1  0
 22 24  2  0
 23 22  1  0
 25 23  1  0
 26 35  2  0
 26 31  1  0
 27 23  1  0
 27 31  1  0
 28 27  1  0
 29 30  1  0
 29 28  1  0
 30 26  1  0
 31 32  2  0
 32 33  1  0
 34 33  2  0
 35 34  1  0
 36 10  1  0
 36 37  1  0
 36 46  1  0
 37 40  1  0
 38 42  1  0
 38 37  1  0
 39 38  2  0
 42 41  1  0
 44 42  1  0
 44 45  1  0
 44 43  1  0
 46 49  1  1
 46 47  1  0
 48 46  1  0
 51 50  1  0
 52 54  1  0
 52 51  1  0
 53 52  1  0
 55 68  1  0
 56 61  1  0
 57 58  1  0
 57 56  1  0
 59 58  1  0
 59 72  1  0
 59 60  1  0
 61 55  1  0
 61 60  1  0
 62 55  2  0
 64 68  1  0
 64 65  1  0
 65 52  1  0
 65 63  1  0
 66 67  1  0
 66 63  1  0
 68 66  1  0
 69 70  2  0
 70 71  1  0
 70 89  1  0
 71 74  1  0
 72 69  1  0
 72 73  1  0
 73 71  2  0
 74 75  1  0
 75 76  2  0
 77 80  1  0
 77 76  1  0
 78 77  2  0
 79 78  1  0
 79 74  2  0
 80 81  1  0
 81 86  2  0
 81 82  1  0
 82 83  2  0
 83 84  1  0
 84 88  1  0
 85 84  2  0
 86 85  1  0
 87 86  1  0
 89 90  1  0
 90 93  1  0
 90 92  1  0
 91 89  2  0
 94 95  1  0
 94 69  1  0
 96 94  1  0
M  ISO  4   8 101   9 101  55 100  68 100
M  END
>  <TORSDO>  (38) 
F 24

>  <SCORE>  (38) 
-7.306

>  <name>  (38) 
37

>  <ligand_id>  (38) 
37

>  <original_smiles>  (38) 
[H]c1c([H])c([H])c2c(c1[H])C([H])([H])C([H])([H])C([H])([H])C2([H])N([H])C(=O)C1([H])N(C(=O)C([H])(N([H])C(=O)C([H])(N([H])C([H])([H])[H])C([H])([H])[H])C(C([H])([H])[H])(C([H])([H])[H])C([H])([H])[H])C([H])([H])c2c([H])c(OC([H])([H])C([H])([H])C([H])([H])C([H])([H])[N+]([H])([H])C([H])([H])C([H])([H])C([H])([H])[N+]([H])([H])C3([H])C([H])([H])N(C(=O)N4C([H])([H])C([H])([H])C([H])([H])C([H])(n5nc(-c6c([H])c([H])c(Oc7c([H])c([H])c(F)c([H])c7F)c([H])c6[H])c(C(=O)N([H])[H])c5N([H])[H])C4([H])[H])C([H])(C([H])([H])[H])C3([H])[H])c([H])c([H])c2C1([H])[H]

>  <smiles>  (38) 
[H]c1c([H])c([H])c2c(c1[H])C([H])([H])C([H])([H])C([H])([H])C2([H])N([H])C(=O)C1([H])N(C(=O)C([H])(N([H])C(=O)C([H])(N([H])C([H])([H])[H])C([H])([H])[H])C(C([H])([H])[H])(C([H])([H])[H])C([H])([H])[H])C([H])([H])c2c([H])c(OC([H])([H])C([H])([H])C([H])([H])C([H])([H])[N+]([H])([H])C([H])([H])C([H])([H])C([H])([H])[N+]([H])([H])C3([H])C([H])([H])N(C(=O)N4C([H])([H])C([H])([H])C([H])([H])C([H])(n5nc(-c6c([H])c([H])c(Oc7c([H])c([H])c(F)c([H])c7F)c([H])c6[H])c(C(=O)N([H])[H])c5N([H])[H])C4([H])[H])C([H])(C([H])([H])[H])C3([H])[H])c([H])c([H])c2C1([H])[H]

$$$$
38:0:0
     RDKit          3D

 94102  0  0  1  0  0  0  0  0999 V2000
  -29.2790  -21.4070   21.5600 C   0  0  0  0  0  0  0  0  0  0  0  0
  -29.0080  -22.6080   21.0400 N   0  0  0  0  0  0  0  0  0  0  0  0
  -30.0570  -21.2590   22.5070 O   0  0  0  0  0  0  0  0  0  0  0  0
  -28.3600  -22.6380   20.2640 H   0  0  0  0  0  0  0  0  0  0  0  0
  -28.5400  -20.2140   20.9390 C   0  0  0  0  0  2  0  0  0  0  0  0
  -29.8580  -18.4120   22.1470 C   0  0  0  0  0  3  0  0  0  0  0  0
  -30.6010  -17.2170   22.1520 C   0  0  0  0  0  3  0  0  0  0  0  0
  -29.6610  -18.2710   19.7240 C   0  0  0  0  0  3  0  0  0  0  0  0
  -29.3820  -18.9440   20.9330 C   0  0  0  0  0  0  0  0  0  0  0  0
  -30.8800  -16.5360   20.9490 C   0  0  0  0  0  0  0  0  0  0  0  0
  -30.4030  -17.0740   19.7240 C   0  0  0  0  0  0  0  0  0  0  0  0
  -30.5940  -16.4390   18.5430 F   0  0  0  0  0  0  0  0  0  0  0  0
  -31.8990  -14.4770   20.0660 C   0  0  0  0  0  0  0  0  0  0  0  0
  -31.5540  -12.2300   19.1020 C   0  0  0  0  0  2  0  0  0  0  0  0
  -30.5580  -12.2980   17.9270 C   0  0  0  0  0  2  0  0  0  0  0  0
  -29.1070  -12.1910   18.4320 C   0  0  0  0  0  2  0  0  0  0  0  0
  -28.8120  -13.1800   19.5910 C   0  0  0  0  0  3  0  0  0  0  0  0
  -29.9040  -13.0790   20.6780 C   0  0  0  0  0  2  0  0  0  0  0  0
  -31.2260  -13.3000   20.0530 N   0  0  0  0  0  0  0  0  0  0  0  0
  -32.8410  -14.7470   19.3140 O   0  0  0  0  0  0  0  0  0  0  0  0
  -31.5420  -15.2840   21.0700 N   0  0  0  0  0  0  0  0  0  0  0  0
  -31.2540  -14.7740   21.8910 H   0  0  0  0  0  0  0  0  0  0  0  0
  -26.5240  -13.8990   20.5370 C   0  0  0  0  0  0  0  0  0  0  0  0
  -25.4320  -13.1740   20.9380 C   0  0  0  0  0  0  0  0  0  0  0  0
  -25.7850  -11.8020   20.7650 C   0  0  0  0  0  0  0  0  0  0  0  0
  -27.4800  -12.9680   20.1540 N   0  0  0  0  0  0  0  0  0  0  0  0
  -27.0390  -11.6980   20.3420 N   0  0  0  0  0  0  0  0  0  0  0  0
  -24.9860  -10.5810   20.9230 C   0  0  0  0  0  0  0  0  0  0  0  0
  -25.2920   -9.6200   21.9120 C   0  0  0  0  0  3  0  0  0  0  0  0
  -24.4980   -8.4630   22.0570 C   0  0  0  0  0  3  0  0  0  0  0  0
  -23.3830   -8.2570   21.2110 C   0  0  0  0  0  0  0  0  0  0  0  0
  -23.0940   -9.2060   20.2140 C   0  0  0  0  0  3  0  0  0  0  0  0
  -23.8880  -10.3560   20.0680 C   0  0  0  0  0  3  0  0  0  0  0  0
  -22.5700   -7.1500   21.2600 O   0  0  0  0  0  0  0  0  0  0  0  0
  -22.2090   -6.5740   22.4520 C   0  0  0  0  0  0  0  0  0  0  0  0
  -21.5700   -7.3120   23.4720 C   0  0  0  0  0  3  0  0  0  0  0  0
  -21.1540   -6.6660   24.6530 C   0  0  0  0  0  3  0  0  0  0  0  0
  -21.3660   -5.2830   24.8120 C   0  0  0  0  0  0  0  0  0  0  0  0
  -21.9960   -4.5460   23.7940 C   0  0  0  0  0  3  0  0  0  0  0  0
  -22.4140   -5.1900   22.6170 C   0  0  0  0  0  0  0  0  0  0  0  0
  -23.0030   -4.4720   21.6310 F   0  0  0  0  0  0  0  0  0  0  0  0
  -20.9580   -4.6600   25.9430 F   0  0  0  0  0  0  0  0  0  0  0  0
  -24.1020  -13.7230   21.3660 C   0  0  0  0  0  0  0  0  0  0  0  0
  -23.4160  -13.0320   22.2690 N   0  0  0  0  0  0  0  0  0  0  0  0
  -23.6850  -14.7970   20.9360 O   0  0  0  0  0  0  0  0  0  0  0  0
  -23.7680  -12.1630   22.6420 H   0  0  0  0  0  0  0  0  0  0  0  0
  -22.5260  -13.3820   22.5950 H   0  0  0  0  0  0  0  0  0  0  0  0
  -26.7770  -15.2650   20.4530 N   0  0  0  0  0  0  0  0  0  0  0  0
  -26.0740  -15.9580   20.6810 H   0  0  0  0  0  0  0  0  0  0  0  0
  -27.6460  -15.6720   20.1310 H   0  0  0  0  0  0  0  0  0  0  0  0
  -29.5250  -23.8770   21.5410 C   0  0  0  0  0  2  0  0  0  0  0  0
  -29.1800  -25.0150   20.5690 C   0  0  0  0  0  2  0  0  0  0  0  0
  -29.6540  -26.3910   21.0600 C   0  0  0  0  0  2  0  0  0  0  0  0
  -29.4130  -27.3710   20.0550 O   0  0  0  0  0  0  0  0  0  0  0  0
  -24.8820  -31.6960   23.4180 C   0  0  0  0  0  0  0  0  0  0  0  0
  -28.1670  -27.9410   20.0960 C   0  0  0  0  0  0  0  0  0  0  0  0
  -23.9280  -30.3630   21.5610 C   0  0  0  0  0  3  0  0  0  0  0  0
  -25.6210  -29.1450   20.0940 C   0  0  0  0  0  0  0  0  0  0  0  0
  -26.4010  -31.0090   21.5700 C   0  0  0  0  0  2  0  0  0  0  0  0
  -26.6730  -29.7300   20.8120 C   0  0  0  0  0  0  0  0  0  0  0  0
  -27.9480  -29.1310   20.8180 C   0  0  0  0  0  3  0  0  0  0  0  0
  -27.1070  -27.3570   19.3750 C   0  0  0  0  0  3  0  0  0  0  0  0
  -25.8300  -27.9530   19.3770 C   0  0  0  0  0  3  0  0  0  0  0  0
  -24.2880  -29.8550   20.1380 C   0  0  0  0  0  2  0  0  0  0  0  0
  -25.0830  -31.0340   22.2440 N   0  0  0  0  0  0  0  0  0  0  0  0
  -23.7500  -31.7940   23.9120 O   0  0  0  0  0  0  0  0  0  0  0  0
  -23.3420  -29.1850   22.3670 C   0  0  0  0  0  0  0  0  0  0  0  0
  -22.0690  -28.8540   22.1010 N   0  0  0  0  0  0  0  0  0  0  0  0
  -24.0330  -28.5730   23.1870 O   0  0  0  0  0  0  0  0  0  0  0  0
  -21.5700  -29.4070   21.4190 H   0  0  0  0  0  0  0  0  0  0  0  0
  -18.8540  -27.2110   22.1650 C   0  0  0  0  0  0  0  0  0  0  0  0
  -21.3200  -27.7550   22.7100 C   0  0  0  0  0  3  0  0  0  0  0  0
  -21.6610  -26.4070   22.0320 C   0  0  0  0  0  2  0  0  0  0  0  0
  -20.7050  -26.0490   20.8900 C   0  0  0  0  0  2  0  0  0  0  0  0
  -19.2640  -25.9620   21.4040 C   0  0  0  0  0  2  0  0  0  0  0  0
  -19.8200  -28.0610   22.7630 C   0  0  0  0  0  0  0  0  0  0  0  0
  -19.3860  -29.2290   23.4280 C   0  0  0  0  0  3  0  0  0  0  0  0
  -18.0180  -29.5490   23.5030 C   0  0  0  0  0  3  0  0  0  0  0  0
  -17.0640  -28.6950   22.9210 C   0  0  0  0  0  3  0  0  0  0  0  0
  -17.4820  -27.5280   22.2570 C   0  0  0  0  0  3  0  0  0  0  0  0
  -26.0570  -32.3820   24.1820 C   0  0  0  0  0  3  0  0  0  0  0  0
  -25.6380  -33.7540   24.4980 N   0  0  0  0  0  0  0  0  0  0  0  0
  -26.0120  -34.8400   23.8070 C   0  0  0  0  0  0  0  0  0  0  0  0
  -26.8120  -34.7950   22.8680 O   0  0  0  0  0  0  0  0  0  0  0  0
  -24.9380  -33.8590   25.2160 H   0  0  0  0  0  0  0  0  0  0  0  0
  -24.2510  -36.5510   23.2620 C   0  0  0  0  0  1  0  0  0  0  0  0
  -25.3960  -36.1900   24.2220 C   0  0  0  0  0  3  0  0  0  0  0  0
  -27.3560  -37.1540   25.3420 C   0  0  0  0  0  1  0  0  0  0  0  0
  -26.3790  -37.2950   24.2660 N   0  0  0  0  0  0  0  0  0  0  0  0
  -25.9090  -38.1890   24.3780 H   0  0  0  0  0  0  0  0  0  0  0  0
  -26.4830  -31.6130   25.4940 C   0  0  1  0  0  0  0  0  0  0  0  0
  -25.2990  -31.2800   26.4310 C   0  0  0  0  0  1  0  0  0  0  0  0
  -27.1950  -30.2860   25.1410 C   0  0  0  0  0  1  0  0  0  0  0  0
  -27.4990  -32.4620   26.2940 C   0  0  0  0  0  1  0  0  0  0  0  0
  1  3  2  0
  2 51  1  0
  2  1  1  0
  4  2  1  0
  5  1  1  0
  6  7  1  0
  8 11  2  0
  8  9  1  0
  9  5  1  0
  9  6  2  0
 10 21  1  0
 10  7  2  0
 11 10  1  0
 12 11  1  0
 13 21  1  0
 14 19  1  0
 15 16  1  0
 15 14  1  0
 17 16  1  0
 17 26  1  0
 17 18  1  0
 19 13  1  0
 19 18  1  0
 20 13  2  0
 21 22  1  0
 23 24  2  0
 24 43  1  0
 25 28  1  0
 25 24  1  0
 26 27  1  0
 26 23  1  0
 27 25  2  0
 28 29  1  0
 29 30  2  0
 31 34  1  0
 31 30  1  0
 32 31  2  0
 33 32  1  0
 33 28  2  0
 34 35  1  0
 35 40  2  0
 35 36  1  0
 36 37  2  0
 37 38  1  0
 38 42  1  0
 39 38  2  0
 40 39  1  0
 41 40  1  0
 43 44  1  0
 44 47  1  0
 44 46  1  0
 45 43  2  0
 48 23  1  0
 48 49  1  0
 50 48  1  0
 52 53  1  0
 52 51  1  0
 54 56  1  0
 54 53  1  0
 55 66  2  0
 56 61  1  0
 57 65  1  0
 57 67  1  0
 58 64  1  0
 58 60  1  0
 59 65  1  0
 60 61  2  0
 60 59  1  0
 62 63  1  0
 62 56  2  0
 63 58  2  0
 64 57  1  0
 65 55  1  0
 67 69  2  0
 68 67  1  0
 70 68  1  0
 71 80  2  0
 71 76  1  0
 72 68  1  0
 72 76  1  0
 73 72  1  0
 74 75  1  0
 74 73  1  0
 75 71  1  0
 76 77  2  0
 77 78  1  0
 79 78  2  0
 80 79  1  0
 81 55  1  0
 81 82  1  0
 81 91  1  0
 82 85  1  0
 83 87  1  0
 83 82  1  0
 84 83  2  0
 87 86  1  0
 87 89  1  0
 89 90  1  0
 89 88  1  0
 91 94  1  1
 91 92  1  0
 93 91  1  0
M  ISO  4  13 100  21 100  53 101  54 101
M  END
>  <TORSDO>  (39) 
F 21

>  <SCORE>  (39) 
-9.942

>  <name>  (39) 
38

>  <ligand_id>  (39) 
38

>  <original_smiles>  (39) 
[H]c1c([H])c([H])c2c(c1[H])C([H])([H])C([H])([H])C([H])([H])C2([H])N([H])C(=O)C1([H])N(C(=O)C([H])(N([H])C(=O)C([H])(N([H])C([H])([H])[H])C([H])([H])[H])C(C([H])([H])[H])(C([H])([H])[H])C([H])([H])[H])C([H])([H])c2c([H])c(OC([H])([H])C([H])([H])C([H])([H])N([H])C(=O)C([H])([H])c3c([H])c([H])c(N([H])C(=O)N4C([H])([H])C([H])([H])C([H])([H])C([H])(n5nc(-c6c([H])c([H])c(Oc7c([H])c([H])c(F)c([H])c7F)c([H])c6[H])c(C(=O)N([H])[H])c5N([H])[H])C4([H])[H])c(F)c3[H])c([H])c([H])c2C1([H])[H]

>  <smiles>  (39) 
[H]c1c([H])c([H])c2c(c1[H])C([H])([H])C([H])([H])C([H])([H])C2([H])N([H])C(=O)C1([H])N(C(=O)C([H])(N([H])C(=O)C([H])(N([H])C([H])([H])[H])C([H])([H])[H])C(C([H])([H])[H])(C([H])([H])[H])C([H])([H])[H])C([H])([H])c2c([H])c(OC([H])([H])C([H])([H])C([H])([H])N([H])C(=O)C([H])([H])c3c([H])c([H])c(N([H])C(=O)N4C([H])([H])C([H])([H])C([H])([H])C([H])(n5nc(-c6c([H])c([H])c(Oc7c([H])c([H])c(F)c([H])c7F)c([H])c6[H])c(C(=O)N([H])[H])c5N([H])[H])C4([H])[H])c(F)c3[H])c([H])c([H])c2C1([H])[H]

$$$$
39:0:0
     RDKit          3D

 93101  0  0  1  0  0  0  0  0999 V2000
  -31.0670  -21.3540   22.6060 C   0  0  0  0  0  2  0  0  0  0  0  0
  -30.1700  -22.5940   22.7080 C   0  0  0  0  0  2  0  0  0  0  0  0
  -30.7630  -23.7710   21.9220 C   0  0  0  0  0  2  0  0  0  0  0  0
  -29.7820  -24.9350   21.7740 C   0  0  0  0  0  2  0  0  0  0  0  0
  -30.2970  -26.0090   20.8060 C   0  0  0  0  0  2  0  0  0  0  0  0
  -29.3100  -27.1680   20.6720 C   0  0  0  0  0  2  0  0  0  0  0  0
  -28.1350  -26.6980   20.0150 O   0  0  0  0  0  0  0  0  0  0  0  0
  -24.4940  -31.9400   23.1900 C   0  0  0  0  0  0  0  0  0  0  0  0
  -27.0050  -27.4810   20.0780 C   0  0  0  0  0  0  0  0  0  0  0  0
  -23.2170  -30.5520   21.5830 C   0  0  0  0  0  3  0  0  0  0  0  0
  -24.6090  -28.9800   20.1350 C   0  0  0  0  0  0  0  0  0  0  0  0
  -25.7330  -30.8840   21.3110 C   0  0  0  0  0  2  0  0  0  0  0  0
  -25.7810  -29.5100   20.6860 C   0  0  0  0  0  0  0  0  0  0  0  0
  -26.9770  -28.7720   20.6560 C   0  0  0  0  0  3  0  0  0  0  0  0
  -25.8160  -26.9570   19.5280 C   0  0  0  0  0  3  0  0  0  0  0  0
  -24.6180  -27.6980   19.5540 C   0  0  0  0  0  3  0  0  0  0  0  0
  -23.3770  -29.8520   20.2050 C   0  0  0  0  0  2  0  0  0  0  0  0
  -24.5000  -31.1380   22.0880 N   0  0  0  0  0  0  0  0  0  0  0  0
  -23.4330  -32.2360   23.7580 O   0  0  0  0  0  0  0  0  0  0  0  0
  -22.5730  -29.5500   22.5670 C   0  0  0  0  0  0  0  0  0  0  0  0
  -21.2450  -29.3850   22.4620 N   0  0  0  0  0  0  0  0  0  0  0  0
  -23.2640  -28.9250   23.3760 O   0  0  0  0  0  0  0  0  0  0  0  0
  -20.7530  -29.9410   21.7770 H   0  0  0  0  0  0  0  0  0  0  0  0
  -17.8660  -28.2350   23.0020 C   0  0  0  0  0  0  0  0  0  0  0  0
  -20.4280  -28.4670   23.2520 C   0  0  0  0  0  3  0  0  0  0  0  0
  -20.5110  -27.0270   22.6950 C   0  0  0  0  0  2  0  0  0  0  0  0
  -19.3980  -26.7020   21.6940 C   0  0  0  0  0  2  0  0  0  0  0  0
  -18.0220  -26.8740   22.3460 C   0  0  0  0  0  2  0  0  0  0  0  0
  -18.9960  -28.9900   23.4130 C   0  0  0  0  0  0  0  0  0  0  0  0
  -18.7980  -30.2660   23.9840 C   0  0  0  0  0  3  0  0  0  0  0  0
  -17.5000  -30.7870   24.1500 C   0  0  0  0  0  3  0  0  0  0  0  0
  -16.3840  -30.0280   23.7580 C   0  0  0  0  0  3  0  0  0  0  0  0
  -16.5680  -28.7540   23.1910 C   0  0  0  0  0  3  0  0  0  0  0  0
  -25.8110  -32.5440   23.7740 C   0  0  0  0  0  3  0  0  0  0  0  0
  -25.5360  -33.9410   24.1300 N   0  0  0  0  0  0  0  0  0  0  0  0
  -25.8750  -34.9970   23.3780 C   0  0  0  0  0  0  0  0  0  0  0  0
  -26.5250  -34.8950   22.3320 O   0  0  0  0  0  0  0  0  0  0  0  0
  -24.9600  -34.0980   24.9450 H   0  0  0  0  0  0  0  0  0  0  0  0
  -24.1860  -36.8310   23.0580 C   0  0  0  0  0  1  0  0  0  0  0  0
  -25.4210  -36.3870   23.8600 C   0  0  0  0  0  3  0  0  0  0  0  0
  -27.5760  -37.2110   24.6990 C   0  0  0  0  0  1  0  0  0  0  0  0
  -26.4760  -37.4190   23.7610 N   0  0  0  0  0  0  0  0  0  0  0  0
  -26.0910  -38.3450   23.9250 H   0  0  0  0  0  0  0  0  0  0  0  0
  -26.3620  -31.7480   25.0190 C   0  0  1  0  0  0  0  0  0  0  0  0
  -25.3020  -31.4990   26.1180 C   0  0  0  0  0  1  0  0  0  0  0  0
  -26.9230  -30.3740   24.5810 C   0  0  0  0  0  1  0  0  0  0  0  0
  -27.5390  -32.5220   25.6590 C   0  0  0  0  0  1  0  0  0  0  0  0
  -30.3480  -20.0290   22.9360 C   0  0  0  0  0  2  0  0  0  0  0  0
  -30.5110  -19.0920   20.6300 C   0  0  0  0  0  2  0  0  0  0  0  0
  -30.4890  -17.5650   22.4640 C   0  0  0  0  0  2  0  0  0  0  0  0
  -30.0590  -17.7110   20.1360 C   0  0  0  0  0  3  0  0  0  0  0  0
  -30.7100  -16.7870   21.1670 C   0  0  0  0  0  3  0  0  0  0  0  0
  -30.3990  -17.4250   18.6660 C   0  0  0  0  0  1  0  0  0  0  0  0
  -30.8550  -18.9410   22.0690 N   0  0  2  0  0  4  0  0  0  0  0  0
  -31.8620  -18.9730   22.1260 H   0  0  0  0  0  0  0  0  0  0  0  0
  -30.7700  -14.4530   20.4150 C   0  0  0  0  0  0  0  0  0  0  0  0
  -30.3870  -12.3690   19.1780 C   0  0  0  0  0  2  0  0  0  0  0  0
  -29.4450  -12.6450   17.9920 C   0  0  0  0  0  2  0  0  0  0  0  0
  -27.9740  -12.5080   18.4310 C   0  0  0  0  0  2  0  0  0  0  0  0
  -27.6590  -13.3070   19.7240 C   0  0  0  0  0  3  0  0  0  0  0  0
  -28.7190  -13.0380   20.8170 C   0  0  0  0  0  2  0  0  0  0  0  0
  -30.0480  -13.3180   20.2480 N   0  0  0  0  0  0  0  0  0  0  0  0
  -31.8480  -14.6510   19.8510 O   0  0  0  0  0  0  0  0  0  0  0  0
  -30.1940  -15.4160   21.1450 N   0  0  0  0  0  0  0  0  0  0  0  0
  -29.3060  -15.2160   21.5810 H   0  0  0  0  0  0  0  0  0  0  0  0
  -25.2550  -13.8980   20.4320 C   0  0  0  0  0  0  0  0  0  0  0  0
  -24.1940  -13.1180   20.8070 C   0  0  0  0  0  0  0  0  0  0  0  0
  -24.6660  -11.7700   20.7810 C   0  0  0  0  0  0  0  0  0  0  0  0
  -26.3070  -13.0250   20.2040 N   0  0  0  0  0  0  0  0  0  0  0  0
  -25.9550  -11.7410   20.4690 N   0  0  0  0  0  0  0  0  0  0  0  0
  -23.9520  -10.5020   20.9790 C   0  0  0  0  0  0  0  0  0  0  0  0
  -24.3830   -9.5540   21.9330 C   0  0  0  0  0  3  0  0  0  0  0  0
  -23.6700   -8.3500   22.1190 C   0  0  0  0  0  3  0  0  0  0  0  0
  -22.5100   -8.0870   21.3510 C   0  0  0  0  0  0  0  0  0  0  0  0
  -22.0980   -9.0240   20.3880 C   0  0  0  0  0  3  0  0  0  0  0  0
  -22.8120  -10.2190   20.2000 C   0  0  0  0  0  3  0  0  0  0  0  0
  -21.7690   -6.9340   21.4450 O   0  0  0  0  0  0  0  0  0  0  0  0
  -21.6960   -6.2180   22.6120 C   0  0  0  0  0  0  0  0  0  0  0  0
  -21.2140   -6.7910   23.8090 C   0  0  0  0  0  3  0  0  0  0  0  0
  -21.0900   -6.0010   24.9690 C   0  0  0  0  0  3  0  0  0  0  0  0
  -21.4390   -4.6370   24.9330 C   0  0  0  0  0  0  0  0  0  0  0  0
  -21.9140   -4.0630   23.7410 C   0  0  0  0  0  3  0  0  0  0  0  0
  -22.0400   -4.8510   22.5840 C   0  0  0  0  0  0  0  0  0  0  0  0
  -22.4780   -4.2880   21.4320 F   0  0  0  0  0  0  0  0  0  0  0  0
  -21.3120   -3.8750   26.0450 F   0  0  0  0  0  0  0  0  0  0  0  0
  -22.7940  -13.5840   21.0820 C   0  0  0  0  0  0  0  0  0  0  0  0
  -22.0740  -12.8830   21.9520 N   0  0  0  0  0  0  0  0  0  0  0  0
  -22.3450  -14.6060   20.5630 O   0  0  0  0  0  0  0  0  0  0  0  0
  -22.4510  -12.0580   22.3950 H   0  0  0  0  0  0  0  0  0  0  0  0
  -21.1340  -13.1760   22.1790 H   0  0  0  0  0  0  0  0  0  0  0  0
  -25.4080  -15.2690   20.2480 N   0  0  0  0  0  0  0  0  0  0  0  0
  -24.6380  -15.9200   20.3580 H   0  0  0  0  0  0  0  0  0  0  0  0
  -26.2540  -15.7120   19.9110 H   0  0  0  0  0  0  0  0  0  0  0  0
  1  2  1  0
  1 48  1  0
  3  2  1  0
  4  3  1  0
  5  4  1  0
  6  5  1  0
  7  9  1  0
  7  6  1  0
  8 19  2  0
  9 14  1  0
 10 18  1  0
 10 20  1  0
 11 17  1  0
 11 13  1  0
 12 18  1  0
 13 12  1  0
 14 13  2  0
 15 16  1  0
 15  9  2  0
 16 11  2  0
 17 10  1  0
 18  8  1  0
 20 22  2  0
 21 20  1  0
 23 21  1  0
 24 33  2  0
 24 29  1  0
 25 21  1  0
 25 29  1  0
 26 25  1  0
 27 28  1  0
 27 26  1  0
 28 24  1  0
 29 30  2  0
 30 31  1  0
 32 31  2  0
 33 32  1  0
 34  8  1  0
 34 35  1  0
 34 44  1  0
 35 38  1  0
 36 40  1  0
 36 35  1  0
 37 36  2  0
 40 39  1  0
 42 40  1  0
 42 43  1  0
 42 41  1  0
 44 47  1  1
 44 45  1  0
 46 44  1  0
 49 54  1  0
 51 53  1  0
 51 49  1  0
 51 52  1  0
 52 64  1  0
 52 50  1  0
 54 55  1  6
 54 50  1  0
 54 48  1  0
 56 64  1  0
 57 62  1  0
 58 59  1  0
 58 57  1  0
 60 59  1  0
 60 69  1  0
 60 61  1  0
 62 56  1  0
 62 61  1  0
 63 56  2  0
 64 65  1  0
 66 67  2  0
 67 86  1  0
 68 67  1  0
 68 71  1  0
 69 66  1  0
 69 70  1  0
 70 68  2  0
 71 72  1  0
 72 73  2  0
 74 77  1  0
 74 73  1  0
 75 74  2  0
 76 75  1  0
 76 71  2  0
 77 78  1  0
 78 79  1  0
 79 80  2  0
 81 80  1  0
 81 85  1  0
 82 81  2  0
 83 78  2  0
 83 82  1  0
 84 83  1  0
 86 87  1  0
 87 90  1  0
 87 89  1  0
 88 86  2  0
 91 92  1  0
 91 66  1  0
 93 91  1  0
M  ISO  4   6 101   7 101  56 100  64 100
M  END
>  <TORSDO>  (40) 
F 23

>  <SCORE>  (40) 
-12.449

>  <name>  (40) 
39

>  <ligand_id>  (40) 
39

>  <original_smiles>  (40) 
[H]c1c([H])c([H])c2c(c1[H])C([H])([H])C([H])([H])C([H])([H])C2([H])N([H])C(=O)C1([H])N(C(=O)C([H])(N([H])C(=O)C([H])(N([H])C([H])([H])[H])C([H])([H])[H])C(C([H])([H])[H])(C([H])([H])[H])C([H])([H])[H])C([H])([H])c2c([H])c(OC([H])([H])C([H])([H])C([H])([H])C([H])([H])C([H])([H])C([H])([H])C([H])([H])[N+]3([H])C([H])([H])C([H])(N([H])C(=O)N4C([H])([H])C([H])([H])C([H])([H])C([H])(n5nc(-c6c([H])c([H])c(Oc7c([H])c([H])c(F)c([H])c7F)c([H])c6[H])c(C(=O)N([H])[H])c5N([H])[H])C4([H])[H])C([H])(C([H])([H])[H])C3([H])[H])c([H])c([H])c2C1([H])[H]

>  <smiles>  (40) 
[H]c1c([H])c([H])c2c(c1[H])C([H])([H])C([H])([H])C([H])([H])C2([H])N([H])C(=O)C1([H])N(C(=O)C([H])(N([H])C(=O)C([H])(N([H])C([H])([H])[H])C([H])([H])[H])C(C([H])([H])[H])(C([H])([H])[H])C([H])([H])[H])C([H])([H])c2c([H])c(OC([H])([H])C([H])([H])C([H])([H])C([H])([H])C([H])([H])C([H])([H])C([H])([H])[N+]3([H])C([H])([H])C([H])(N([H])C(=O)N4C([H])([H])C([H])([H])C([H])([H])C([H])(n5nc(-c6c([H])c([H])c(Oc7c([H])c([H])c(F)c([H])c7F)c([H])c6[H])c(C(=O)N([H])[H])c5N([H])[H])C4([H])[H])C([H])(C([H])([H])[H])C3([H])[H])c([H])c([H])c2C1([H])[H]

$$$$
40:0:0
     RDKit          3D

 95103  0  0  1  0  0  0  0  0999 V2000
  -26.3920  -18.9720   18.2920 C   0  0  0  0  0  2  0  0  0  0  0  0
  -26.9580  -18.2460   19.5220 C   0  0  0  0  0  2  0  0  0  0  0  0
  -28.7460  -19.9870   20.1890 C   0  0  0  0  0  2  0  0  0  0  0  0
  -25.8690  -20.3980   18.5570 C   0  0  0  0  0  2  0  0  0  0  0  0
  -28.1820  -21.0360   19.2140 C   0  0  0  0  0  2  0  0  0  0  0  0
  -28.4540  -18.5250   19.7890 C   0  0  0  0  0  3  0  0  0  0  0  0
  -26.7270  -21.2290   19.4440 N   0  0  1  0  0  4  0  0  0  0  0  0
  -26.5500  -20.8930   20.3790 H   0  0  0  0  0  0  0  0  0  0  0  0
  -28.9920  -17.5300   20.8380 C   0  0  0  0  0  2  0  0  0  0  0  0
  -30.5310  -17.4420   20.8780 C   0  0  0  0  0  2  0  0  0  0  0  0
  -31.0640  -16.2880   21.7470 C   0  0  0  0  0  2  0  0  0  0  0  0
  -30.9150  -14.2690   20.2800 C   0  0  0  0  0  0  0  0  0  0  0  0
  -30.4610  -12.2380   18.9570 C   0  0  0  0  0  2  0  0  0  0  0  0
  -29.4930  -12.5200   17.7940 C   0  0  0  0  0  2  0  0  0  0  0  0
  -28.0280  -12.4180   18.2590 C   0  0  0  0  0  2  0  0  0  0  0  0
  -27.7560  -13.2290   19.5510 C   0  0  0  0  0  3  0  0  0  0  0  0
  -28.8200  -12.9100   20.6240 C   0  0  0  0  0  2  0  0  0  0  0  0
  -30.1570  -13.1680   20.0520 N   0  0  0  0  0  0  0  0  0  0  0  0
  -31.9060  -14.5710   19.6070 O   0  0  0  0  0  0  0  0  0  0  0  0
  -30.5230  -14.9990   21.3290 N   0  0  0  0  0  0  0  0  0  0  0  0
  -29.7260  -14.6500   21.8410 H   0  0  0  0  0  0  0  0  0  0  0  0
  -25.3800  -13.9020   20.2960 C   0  0  0  0  0  0  0  0  0  0  0  0
  -24.2990  -13.1610   20.6870 C   0  0  0  0  0  0  0  0  0  0  0  0
  -24.7280  -11.8000   20.6580 C   0  0  0  0  0  0  0  0  0  0  0  0
  -26.4010  -12.9950   20.0520 N   0  0  0  0  0  0  0  0  0  0  0  0
  -26.0100  -11.7250   20.3250 N   0  0  0  0  0  0  0  0  0  0  0  0
  -23.9750  -10.5590   20.8760 C   0  0  0  0  0  0  0  0  0  0  0  0
  -24.3870   -9.6020   21.8300 C   0  0  0  0  0  3  0  0  0  0  0  0
  -23.6370   -8.4260   22.0330 C   0  0  0  0  0  3  0  0  0  0  0  0
  -22.4590   -8.1970   21.2830 C   0  0  0  0  0  0  0  0  0  0  0  0
  -22.0650   -9.1420   20.3180 C   0  0  0  0  0  3  0  0  0  0  0  0
  -22.8160  -10.3110   20.1130 C   0  0  0  0  0  3  0  0  0  0  0  0
  -21.6800   -7.0710   21.3930 O   0  0  0  0  0  0  0  0  0  0  0  0
  -21.5930   -6.3690   22.5690 C   0  0  0  0  0  0  0  0  0  0  0  0
  -21.1530   -6.9750   23.7660 C   0  0  0  0  0  3  0  0  0  0  0  0
  -21.0120   -6.2000   24.9360 C   0  0  0  0  0  3  0  0  0  0  0  0
  -21.3020   -4.8230   24.9080 C   0  0  0  0  0  0  0  0  0  0  0  0
  -21.7350   -4.2180   23.7150 C   0  0  0  0  0  3  0  0  0  0  0  0
  -21.8770   -4.9890   22.5480 C   0  0  0  0  0  0  0  0  0  0  0  0
  -22.2750   -4.3980   21.3960 F   0  0  0  0  0  0  0  0  0  0  0  0
  -21.1580   -4.0780   26.0280 F   0  0  0  0  0  0  0  0  0  0  0  0
  -22.9210  -13.6780   20.9840 C   0  0  0  0  0  0  0  0  0  0  0  0
  -22.1950  -13.0120   21.8750 N   0  0  0  0  0  0  0  0  0  0  0  0
  -22.4960  -14.7070   20.4600 O   0  0  0  0  0  0  0  0  0  0  0  0
  -22.5520  -12.1790   22.3200 H   0  0  0  0  0  0  0  0  0  0  0  0
  -21.2710  -13.3400   22.1180 H   0  0  0  0  0  0  0  0  0  0  0  0
  -25.5700  -15.2630   20.1140 N   0  0  0  0  0  0  0  0  0  0  0  0
  -24.8240  -15.9360   20.2490 H   0  0  0  0  0  0  0  0  0  0  0  0
  -26.4390  -15.6810   19.8130 H   0  0  0  0  0  0  0  0  0  0  0  0
  -26.2840  -22.6480   19.4490 C   0  0  0  0  0  2  0  0  0  0  0  0
  -26.4950  -23.3810   20.7970 C   0  0  0  0  0  2  0  0  0  0  0  0
  -27.8870  -24.0210   20.9690 C   0  0  0  0  0  2  0  0  0  0  0  0
  -27.9210  -25.1960   21.9650 C   0  0  0  0  0  2  0  0  0  0  0  0
  -28.9010  -26.3030   21.5200 C   0  0  0  0  0  2  0  0  0  0  0  0
  -28.5570  -26.7730   20.2140 O   0  0  0  0  0  0  0  0  0  0  0  0
  -24.5690  -31.8210   23.1900 C   0  0  0  0  0  0  0  0  0  0  0  0
  -27.3920  -27.4910   20.1730 C   0  0  0  0  0  0  0  0  0  0  0  0
  -23.4320  -30.4030   21.5060 C   0  0  0  0  0  3  0  0  0  0  0  0
  -24.9590  -28.9050   20.1160 C   0  0  0  0  0  0  0  0  0  0  0  0
  -25.9470  -30.8280   21.3760 C   0  0  0  0  0  2  0  0  0  0  0  0
  -26.0800  -29.4630   20.7420 C   0  0  0  0  0  0  0  0  0  0  0  0
  -27.2990  -28.7610   20.7760 C   0  0  0  0  0  3  0  0  0  0  0  0
  -26.2640  -26.9390   19.5310 C   0  0  0  0  0  3  0  0  0  0  0  0
  -25.0420  -27.6370   19.5110 C   0  0  0  0  0  3  0  0  0  0  0  0
  -23.6910  -29.7260   20.1310 C   0  0  0  0  0  2  0  0  0  0  0  0
  -24.6650  -31.0310   22.0840 N   0  0  0  0  0  0  0  0  0  0  0  0
  -23.4680  -32.0710   23.7020 O   0  0  0  0  0  0  0  0  0  0  0  0
  -22.7740  -29.3690   22.4450 C   0  0  0  0  0  0  0  0  0  0  0  0
  -21.4520  -29.1900   22.3000 N   0  0  0  0  0  0  0  0  0  0  0  0
  -23.4490  -28.7290   23.2560 O   0  0  0  0  0  0  0  0  0  0  0  0
  -20.9690  -29.7610   21.6200 H   0  0  0  0  0  0  0  0  0  0  0  0
  -18.0650  -28.0230   22.7590 C   0  0  0  0  0  0  0  0  0  0  0  0
  -20.6240  -28.2410   23.0430 C   0  0  0  0  0  3  0  0  0  0  0  0
  -20.7120  -26.8250   22.4280 C   0  0  0  0  0  2  0  0  0  0  0  0
  -19.6060  -26.5440   21.4040 C   0  0  0  0  0  2  0  0  0  0  0  0
  -18.2260  -26.6900   22.0490 C   0  0  0  0  0  2  0  0  0  0  0  0
  -19.1910  -28.7590   23.2110 C   0  0  0  0  0  0  0  0  0  0  0  0
  -18.9880  -30.0110   23.8330 C   0  0  0  0  0  3  0  0  0  0  0  0
  -17.6900  -30.5260   24.0070 C   0  0  0  0  0  3  0  0  0  0  0  0
  -16.5770  -29.7850   23.5720 C   0  0  0  0  0  3  0  0  0  0  0  0
  -16.7650  -28.5360   22.9550 C   0  0  0  0  0  3  0  0  0  0  0  0
  -25.8280  -32.4680   23.8490 C   0  0  0  0  0  3  0  0  0  0  0  0
  -25.4930  -33.8610   24.1690 N   0  0  0  0  0  0  0  0  0  0  0  0
  -25.8300  -34.9150   23.4150 C   0  0  0  0  0  0  0  0  0  0  0  0
  -26.5260  -34.8170   22.4000 O   0  0  0  0  0  0  0  0  0  0  0  0
  -24.8810  -34.0100   24.9580 H   0  0  0  0  0  0  0  0  0  0  0  0
  -24.0840  -36.6750   23.0100 C   0  0  0  0  0  1  0  0  0  0  0  0
  -25.3110  -36.2960   23.8540 C   0  0  0  0  0  3  0  0  0  0  0  0
  -27.4130  -37.2160   24.7270 C   0  0  0  0  0  1  0  0  0  0  0  0
  -26.3290  -37.3650   23.7590 N   0  0  0  0  0  0  0  0  0  0  0  0
  -25.9070  -38.2790   23.8960 H   0  0  0  0  0  0  0  0  0  0  0  0
  -26.3200  -31.6990   25.1360 C   0  0  1  0  0  0  0  0  0  0  0  0
  -25.1990  -31.4460   26.1720 C   0  0  0  0  0  1  0  0  0  0  0  0
  -26.9320  -30.3310   24.7520 C   0  0  0  0  0  1  0  0  0  0  0  0
  -27.4380  -32.5080   25.8320 C   0  0  0  0  0  1  0  0  0  0  0  0
  1  4  1  0
  1  2  1  0
  2  6  1  0
  4  7  1  0
  5  7  1  0
  5  3  1  0
  6  3  1  0
  6  9  1  0
  7 50  1  0
  7  8  1  1
  9 10  1  0
 10 11  1  0
 12 20  1  0
 13 18  1  0
 14 15  1  0
 14 13  1  0
 16 15  1  0
 16 25  1  0
 16 17  1  0
 18 12  1  0
 18 17  1  0
 19 12  2  0
 20 11  1  0
 20 21  1  0
 22 23  2  0
 23 42  1  0
 24 23  1  0
 24 27  1  0
 25 22  1  0
 25 26  1  0
 26 24  2  0
 27 28  1  0
 28 29  2  0
 30 33  1  0
 30 29  1  0
 31 30  2  0
 32 31  1  0
 32 27  2  0
 33 34  1  0
 34 35  1  0
 35 36  2  0
 37 36  1  0
 37 41  1  0
 38 37  2  0
 39 34  2  0
 39 38  1  0
 40 39  1  0
 42 43  1  0
 43 46  1  0
 43 45  1  0
 44 42  2  0
 47 48  1  0
 47 22  1  0
 49 47  1  0
 50 51  1  0
 51 52  1  0
 52 53  1  0
 54 53  1  0
 55 54  1  0
 56 67  2  0
 57 55  1  0
 57 62  1  0
 58 66  1  0
 58 68  1  0
 59 65  1  0
 59 61  1  0
 60 66  1  0
 61 62  2  0
 61 60  1  0
 63 57  2  0
 64 63  1  0
 64 59  2  0
 65 58  1  0
 66 56  1  0
 68 70  2  0
 69 68  1  0
 71 69  1  0
 72 81  2  0
 72 77  1  0
 73 69  1  0
 73 77  1  0
 74 73  1  0
 75 76  1  0
 75 74  1  0
 76 72  1  0
 77 78  2  0
 78 79  1  0
 80 79  2  0
 81 80  1  0
 82 56  1  0
 82 83  1  0
 82 92  1  0
 83 86  1  0
 84 88  1  0
 84 83  1  0
 85 84  2  0
 88 87  1  0
 90 88  1  0
 90 91  1  0
 90 89  1  0
 92 95  1  1
 92 93  1  0
 94 92  1  0
M  ISO  4  12 100  20 100  54 101  55 101
M  END
>  <TORSDO>  (41) 
F 24

>  <SCORE>  (41) 
-12.309

>  <name>  (41) 
40

>  <ligand_id>  (41) 
40

>  <original_smiles>  (41) 
[H]c1c([H])c([H])c2c(c1[H])C([H])([H])C([H])([H])C([H])([H])C2([H])N([H])C(=O)C1([H])N(C(=O)C([H])(N([H])C(=O)C([H])(N([H])C([H])([H])[H])C([H])([H])[H])C(C([H])([H])[H])(C([H])([H])[H])C([H])([H])[H])C([H])([H])c2c([H])c(OC([H])([H])C([H])([H])C([H])([H])C([H])([H])C([H])([H])[N+]3([H])C([H])([H])C([H])([H])C([H])([H])C([H])(C([H])([H])C([H])([H])C([H])([H])N([H])C(=O)N4C([H])([H])C([H])([H])C([H])([H])C([H])(n5nc(-c6c([H])c([H])c(Oc7c([H])c([H])c(F)c([H])c7F)c([H])c6[H])c(C(=O)N([H])[H])c5N([H])[H])C4([H])[H])C([H])([H])C3([H])[H])c([H])c([H])c2C1([H])[H]

>  <smiles>  (41) 
[H]c1c([H])c([H])c2c(c1[H])C([H])([H])C([H])([H])C([H])([H])C2([H])N([H])C(=O)C1([H])N(C(=O)C([H])(N([H])C(=O)C([H])(N([H])C([H])([H])[H])C([H])([H])[H])C(C([H])([H])[H])(C([H])([H])[H])C([H])([H])[H])C([H])([H])c2c([H])c(OC([H])([H])C([H])([H])C([H])([H])C([H])([H])C([H])([H])[N+]3([H])C([H])([H])C([H])([H])C([H])([H])C([H])(C([H])([H])C([H])([H])C([H])([H])N([H])C(=O)N4C([H])([H])C([H])([H])C([H])([H])C([H])(n5nc(-c6c([H])c([H])c(Oc7c([H])c([H])c(F)c([H])c7F)c([H])c6[H])c(C(=O)N([H])[H])c5N([H])[H])C4([H])[H])C([H])([H])C3([H])[H])c([H])c([H])c2C1([H])[H]

$$$$
41:0:0
     RDKit          3D

 97105  0  0  1  0  0  0  0  0999 V2000
  -30.9600  -17.9510   19.8760 C   0  0  0  0  0  2  0  0  0  0  0  0
  -31.0410  -17.9410   22.9070 C   0  0  0  0  0  2  0  0  0  0  0  0
  -30.7860  -19.4330   20.2220 C   0  0  0  0  0  2  0  0  0  0  0  0
  -30.4050  -19.3400   22.7100 C   0  0  0  0  0  2  0  0  0  0  0  0
  -32.0420  -17.1510   20.6490 C   0  0  0  0  0  3  0  0  0  0  0  0
  -32.3270  -17.6130   22.1080 C   0  0  0  0  0  3  0  0  0  0  0  0
  -29.8470  -19.6490   21.3620 N   0  0  1  0  0  4  0  0  0  0  0  0
  -29.0530  -19.0380   21.2240 H   0  0  0  0  0  0  0  0  0  0  0  0
  -32.1390  -14.7150   20.0690 C   0  0  0  0  0  0  0  0  0  0  0  0
  -31.8370  -12.3350   19.4960 C   0  0  0  0  0  2  0  0  0  0  0  0
  -30.8910  -12.1800   18.2900 C   0  0  0  0  0  2  0  0  0  0  0  0
  -29.4180  -12.1730   18.7370 C   0  0  0  0  0  2  0  0  0  0  0  0
  -29.0740  -13.3390   19.7010 C   0  0  0  0  0  3  0  0  0  0  0  0
  -30.1190  -13.4180   20.8360 C   0  0  0  0  0  2  0  0  0  0  0  0
  -31.4550  -13.5540   20.2230 N   0  0  0  0  0  0  0  0  0  0  0  0
  -33.1750  -14.8230   19.4090 O   0  0  0  0  0  0  0  0  0  0  0  0
  -31.5790  -15.7640   20.6810 N   0  0  0  0  0  0  0  0  0  0  0  0
  -30.7100  -15.5720   21.1560 H   0  0  0  0  0  0  0  0  0  0  0  0
  -26.8220  -14.1960   20.6240 C   0  0  0  0  0  0  0  0  0  0  0  0
  -25.6700  -13.5460   20.9690 C   0  0  0  0  0  0  0  0  0  0  0  0
  -25.9200  -12.1560   20.7490 C   0  0  0  0  0  0  0  0  0  0  0  0
  -27.7150  -13.2110   20.2260 N   0  0  0  0  0  0  0  0  0  0  0  0
  -27.1740  -11.9720   20.3570 N   0  0  0  0  0  0  0  0  0  0  0  0
  -25.0210  -10.9970   20.8370 C   0  0  0  0  0  0  0  0  0  0  0  0
  -25.3960   -9.8200   21.5220 C   0  0  0  0  0  3  0  0  0  0  0  0
  -24.5070   -8.7270   21.6050 C   0  0  0  0  0  3  0  0  0  0  0  0
  -23.2270   -8.8030   21.0050 C   0  0  0  0  0  0  0  0  0  0  0  0
  -22.8680   -9.9690   20.3040 C   0  0  0  0  0  3  0  0  0  0  0  0
  -23.7570  -11.0540   20.2170 C   0  0  0  0  0  3  0  0  0  0  0  0
  -22.3110   -7.7800   21.0130 O   0  0  0  0  0  0  0  0  0  0  0  0
  -22.3560   -6.7780   21.9480 C   0  0  0  0  0  0  0  0  0  0  0  0
  -22.2760   -7.0470   23.3330 C   0  0  0  0  0  3  0  0  0  0  0  0
  -22.2550   -5.9820   24.2560 C   0  0  0  0  0  3  0  0  0  0  0  0
  -22.3100   -4.6530   23.7990 C   0  0  0  0  0  0  0  0  0  0  0  0
  -22.3890   -4.3830   22.4220 C   0  0  0  0  0  3  0  0  0  0  0  0
  -22.4090   -5.4430   21.4970 C   0  0  0  0  0  0  0  0  0  0  0  0
  -22.4620   -5.1780   20.1700 F   0  0  0  0  0  0  0  0  0  0  0  0
  -22.2860   -3.6270   24.6840 F   0  0  0  0  0  0  0  0  0  0  0  0
  -24.3710  -14.1800   21.3820 C   0  0  0  0  0  0  0  0  0  0  0  0
  -23.6020  -13.5100   22.2320 N   0  0  0  0  0  0  0  0  0  0  0  0
  -24.0570  -15.3040   20.9900 O   0  0  0  0  0  0  0  0  0  0  0  0
  -23.8660  -12.5990   22.5740 H   0  0  0  0  0  0  0  0  0  0  0  0
  -22.7350  -13.9210   22.5490 H   0  0  0  0  0  0  0  0  0  0  0  0
  -27.1820  -15.5410   20.5940 N   0  0  0  0  0  0  0  0  0  0  0  0
  -26.5010  -16.2690   20.7790 H   0  0  0  0  0  0  0  0  0  0  0  0
  -28.0400  -15.8890   20.1870 H   0  0  0  0  0  0  0  0  0  0  0  0
  -33.3620  -18.6700   22.1910 N   0  0  0  0  0  4  0  0  0  0  0  0
  -34.2070  -18.3370   21.7570 H   0  0  0  0  0  0  0  0  0  0  0  0
  -33.6010  -18.8560   23.1510 H   0  0  0  0  0  0  0  0  0  0  0  0
  -33.1230  -19.5370   21.7500 H   0  0  0  0  0  0  0  0  0  0  0  0
  -29.2920  -21.0260   21.3370 C   0  0  0  0  0  2  0  0  0  0  0  0
  -28.3850  -21.2850   20.1170 C   0  0  0  0  0  2  0  0  0  0  0  0
  -27.8420  -22.7180   20.0830 C   0  0  0  0  0  2  0  0  0  0  0  0
  -28.9260  -23.7500   19.7190 C   0  0  0  0  0  2  0  0  0  0  0  0
  -28.4740  -25.1950   19.9660 C   0  0  0  0  0  2  0  0  0  0  0  0
  -28.8400  -26.1240   18.7990 C   0  0  0  0  0  2  0  0  0  0  0  0
  -28.6600  -27.4850   19.1680 O   0  0  0  0  0  0  0  0  0  0  0  0
  -24.4360  -31.5980   23.0950 C   0  0  0  0  0  0  0  0  0  0  0  0
  -27.3830  -27.9820   19.3160 C   0  0  0  0  0  0  0  0  0  0  0  0
  -23.2980  -30.2900   21.3320 C   0  0  0  0  0  3  0  0  0  0  0  0
  -24.8260  -29.1380   19.6520 C   0  0  0  0  0  0  0  0  0  0  0  0
  -25.7460  -30.9830   21.0690 C   0  0  0  0  0  2  0  0  0  0  0  0
  -25.9470  -29.7280   20.2490 C   0  0  0  0  0  0  0  0  0  0  0  0
  -27.2240  -29.1560   20.0790 C   0  0  0  0  0  3  0  0  0  0  0  0
  -26.2390  -27.3870   18.7300 C   0  0  0  0  0  3  0  0  0  0  0  0
  -24.9650  -27.9610   18.8960 C   0  0  0  0  0  3  0  0  0  0  0  0
  -23.4970  -29.8250   19.8650 C   0  0  0  0  0  2  0  0  0  0  0  0
  -24.5140  -30.9650   21.8920 N   0  0  0  0  0  0  0  0  0  0  0  0
  -23.3660  -31.6630   23.7170 O   0  0  0  0  0  0  0  0  0  0  0  0
  -22.8290  -29.0800   22.1680 C   0  0  0  0  0  0  0  0  0  0  0  0
  -21.5560  -28.6890   21.9940 N   0  0  0  0  0  0  0  0  0  0  0  0
  -23.6070  -28.4960   22.9270 O   0  0  0  0  0  0  0  0  0  0  0  0
  -20.9780  -29.2210   21.3590 H   0  0  0  0  0  0  0  0  0  0  0  0
  -18.4750  -26.8180   22.1870 C   0  0  0  0  0  0  0  0  0  0  0  0
  -20.9090  -27.5550   22.6510 C   0  0  0  0  0  3  0  0  0  0  0  0
  -21.3290  -26.2170   21.9990 C   0  0  0  0  0  2  0  0  0  0  0  0
  -20.3730  -25.7620   20.8910 C   0  0  0  0  0  2  0  0  0  0  0  0
  -18.9570  -25.5830   21.4460 C   0  0  0  0  0  2  0  0  0  0  0  0
  -19.3920  -27.7520   22.7400 C   0  0  0  0  0  0  0  0  0  0  0  0
  -18.8910  -28.9020   23.3880 C   0  0  0  0  0  3  0  0  0  0  0  0
  -17.5060  -29.1250   23.4900 C   0  0  0  0  0  3  0  0  0  0  0  0
  -16.6020  -28.1920   22.9530 C   0  0  0  0  0  3  0  0  0  0  0  0
  -17.0870  -27.0390   22.3090 C   0  0  0  0  0  3  0  0  0  0  0  0
  -25.6790  -32.2900   23.7370 C   0  0  0  0  0  3  0  0  0  0  0  0
  -26.2070  -31.5460   25.0250 C   0  0  1  0  0  0  0  0  0  0  0  0
  -25.1100  -31.2710   26.0800 C   0  0  0  0  0  1  0  0  0  0  0  0
  -26.8510  -30.1910   24.6470 C   0  0  0  0  0  1  0  0  0  0  0  0
  -27.3120  -32.3900   25.7020 C   0  0  0  0  0  1  0  0  0  0  0  0
  -25.3000  -33.6730   24.0540 N   0  0  0  0  0  0  0  0  0  0  0  0
  -25.6330  -34.7400   23.3130 C   0  0  0  0  0  0  0  0  0  0  0  0
  -26.3630  -34.6640   22.3210 O   0  0  0  0  0  0  0  0  0  0  0  0
  -24.6580  -33.8040   24.8210 H   0  0  0  0  0  0  0  0  0  0  0  0
  -23.8530  -36.4580   22.8630 C   0  0  0  0  0  1  0  0  0  0  0  0
  -25.0640  -36.1050   23.7410 C   0  0  0  0  0  3  0  0  0  0  0  0
  -27.1190  -37.0690   24.6760 C   0  0  0  0  0  1  0  0  0  0  0  0
  -26.0560  -37.2000   23.6830 N   0  0  0  0  0  0  0  0  0  0  0  0
  -25.6060  -38.1010   23.8150 H   0  0  0  0  0  0  0  0  0  0  0  0
  1  3  1  0
  1  5  1  0
  3  7  1  0
  4  2  1  0
  5 17  1  0
  5  6  1  0
  6 47  1  0
  6  2  1  0
  7  4  1  0
  7  8  1  6
  9 15  1  0
  9 17  1  0
 10 15  1  0
 11 12  1  0
 11 10  1  0
 13 12  1  0
 13 22  1  0
 13 14  1  0
 15 14  1  0
 16  9  2  0
 17 18  1  0
 19 20  2  0
 20 39  1  0
 21 24  1  0
 21 20  1  0
 22 23  1  0
 22 19  1  0
 23 21  2  0
 24 25  1  0
 25 26  2  0
 27 30  1  0
 27 26  1  0
 28 27  2  0
 29 28  1  0
 29 24  2  0
 30 31  1  0
 31 32  1  0
 32 33  2  0
 34 33  1  0
 34 38  1  0
 35 34  2  0
 36 31  2  0
 36 35  1  0
 37 36  1  0
 39 40  1  0
 40 43  1  0
 40 42  1  0
 41 39  2  0
 44 19  1  0
 44 45  1  0
 46 44  1  0
 47 49  1  0
 48 47  1  0
 50 47  1  0
 51  7  1  0
 52 51  1  0
 53 52  1  0
 54 55  1  0
 54 53  1  0
 56 57  1  0
 56 55  1  0
 57 59  1  0
 58 69  2  0
 59 64  1  0
 60 68  1  0
 60 70  1  0
 61 67  1  0
 61 63  1  0
 62 68  1  0
 63 62  1  0
 64 63  2  0
 65 66  1  0
 65 59  2  0
 66 61  2  0
 67 60  1  0
 68 58  1  0
 70 72  2  0
 71 70  1  0
 73 71  1  0
 74 83  2  0
 74 79  1  0
 75 71  1  0
 75 79  1  0
 76 75  1  0
 77 78  1  0
 77 76  1  0
 78 74  1  0
 79 80  2  0
 80 81  1  0
 82 81  2  0
 83 82  1  0
 84 58  1  0
 84 89  1  0
 84 85  1  0
 85 88  1  1
 85 86  1  0
 87 85  1  0
 89 92  1  0
 90 94  1  0
 90 89  1  0
 91 90  2  0
 94 93  1  0
 96 94  1  0
 96 97  1  0
 96 95  1  0
M  ISO  4   9 100  17 100  56 101  57 101
M  END
>  <TORSDO>  (42) 
F 23

>  <SCORE>  (42) 
-6.918

>  <name>  (42) 
41

>  <ligand_id>  (42) 
41

>  <original_smiles>  (42) 
[H]c1c([H])c([H])c2c(c1[H])C([H])([H])C([H])([H])C([H])([H])C2([H])N([H])C(=O)C1([H])N(C(=O)C([H])(N([H])C(=O)C([H])(N([H])C([H])([H])[H])C([H])([H])[H])C(C([H])([H])[H])(C([H])([H])[H])C([H])([H])[H])C([H])([H])c2c([H])c(OC([H])([H])C([H])([H])C([H])([H])C([H])([H])C([H])([H])C([H])([H])[N+]3([H])C([H])([H])C([H])([H])C([H])(N([H])C(=O)N4C([H])([H])C([H])([H])C([H])([H])C([H])(n5nc(-c6c([H])c([H])c(Oc7c([H])c([H])c(F)c([H])c7F)c([H])c6[H])c(C(=O)N([H])[H])c5N([H])[H])C4([H])[H])C([H])([N+]([H])([H])[H])C([H])([H])C3([H])[H])c([H])c([H])c2C1([H])[H]

>  <smiles>  (42) 
[H]c1c([H])c([H])c2c(c1[H])C([H])([H])C([H])([H])C([H])([H])C2([H])N([H])C(=O)C1([H])N(C(=O)C([H])(N([H])C(=O)C([H])(N([H])C([H])([H])[H])C([H])([H])[H])C(C([H])([H])[H])(C([H])([H])[H])C([H])([H])[H])C([H])([H])c2c([H])c(OC([H])([H])C([H])([H])C([H])([H])C([H])([H])C([H])([H])C([H])([H])[N+]3([H])C([H])([H])C([H])([H])C([H])(N([H])C(=O)N4C([H])([H])C([H])([H])C([H])([H])C([H])(n5nc(-c6c([H])c([H])c(Oc7c([H])c([H])c(F)c([H])c7F)c([H])c6[H])c(C(=O)N([H])[H])c5N([H])[H])C4([H])[H])C([H])([N+]([H])([H])[H])C([H])([H])C3([H])[H])c([H])c([H])c2C1([H])[H]

$$$$
42:0:0
     RDKit          3D

 96104  0  0  1  0  0  0  0  0999 V2000
  -31.0640  -14.5530   20.1680 C   0  0  0  0  0  0  0  0  0  0  0  0
  -30.8000  -12.2440   19.3000 C   0  0  0  0  0  2  0  0  0  0  0  0
  -29.8780  -12.2950   18.0590 C   0  0  0  0  0  2  0  0  0  0  0  0
  -28.3960  -12.2090   18.4760 C   0  0  0  0  0  2  0  0  0  0  0  0
  -28.0370  -13.1810   19.6300 C   0  0  0  0  0  3  0  0  0  0  0  0
  -29.0730  -13.0840   20.7700 C   0  0  0  0  0  2  0  0  0  0  0  0
  -30.4010  -13.3540   20.1930 N   0  0  0  0  0  0  0  0  0  0  0  0
  -32.2040  -14.6510   19.7010 O   0  0  0  0  0  0  0  0  0  0  0  0
  -29.7100  -16.1760   21.5160 C   0  0  0  0  0  2  0  0  0  0  0  0
  -30.1450  -16.5700   19.0690 C   0  0  0  0  0  2  0  0  0  0  0  0
  -30.2530  -17.5630   21.9520 C   0  0  0  0  0  2  0  0  0  0  0  0
  -31.0130  -17.8730   19.0980 C   0  0  0  0  0  3  0  0  0  0  0  0
  -30.2690  -19.0560   19.8300 C   0  0  0  0  0  3  0  0  0  0  0  0
  -30.2860  -15.6760   20.2500 N   0  0  0  0  0  0  0  0  0  0  0  0
  -29.7090  -18.7140   21.1730 N   0  0  0  0  0  4  0  0  0  0  0  0
  -29.8630  -19.5380   21.7380 H   0  0  0  0  0  0  0  0  0  0  0  0
  -28.7100  -18.6080   21.0960 H   0  0  0  0  0  0  0  0  0  0  0  0
  -25.6650  -13.8800   20.3330 C   0  0  0  0  0  0  0  0  0  0  0  0
  -24.5770  -13.1520   20.7280 C   0  0  0  0  0  0  0  0  0  0  0  0
  -24.9920  -11.7860   20.7180 C   0  0  0  0  0  0  0  0  0  0  0  0
  -26.6790  -12.9620   20.1140 N   0  0  0  0  0  0  0  0  0  0  0  0
  -26.2800  -11.6970   20.4050 N   0  0  0  0  0  0  0  0  0  0  0  0
  -24.2230  -10.5540   20.9310 C   0  0  0  0  0  0  0  0  0  0  0  0
  -24.6290   -9.5850   21.8760 C   0  0  0  0  0  3  0  0  0  0  0  0
  -23.8540   -8.4230   22.0830 C   0  0  0  0  0  3  0  0  0  0  0  0
  -22.6630   -8.2230   21.3420 C   0  0  0  0  0  0  0  0  0  0  0  0
  -22.2800   -9.1790   20.3840 C   0  0  0  0  0  3  0  0  0  0  0  0
  -23.0530  -10.3320   20.1760 C   0  0  0  0  0  3  0  0  0  0  0  0
  -21.8680   -7.1090   21.4490 O   0  0  0  0  0  0  0  0  0  0  0  0
  -21.8120   -6.3750   22.6080 C   0  0  0  0  0  0  0  0  0  0  0  0
  -21.4110   -6.9440   23.8360 C   0  0  0  0  0  3  0  0  0  0  0  0
  -21.3010   -6.1360   24.9860 C   0  0  0  0  0  3  0  0  0  0  0  0
  -21.5910   -4.7600   24.9050 C   0  0  0  0  0  0  0  0  0  0  0  0
  -21.9840   -4.1890   23.6830 C   0  0  0  0  0  3  0  0  0  0  0  0
  -22.0940   -4.9960   22.5370 C   0  0  0  0  0  0  0  0  0  0  0  0
  -22.4540   -4.4350   21.3580 F   0  0  0  0  0  0  0  0  0  0  0  0
  -21.4780   -3.9850   26.0090 F   0  0  0  0  0  0  0  0  0  0  0  0
  -23.1970  -13.6850   20.9950 C   0  0  0  0  0  0  0  0  0  0  0  0
  -22.4590  -13.0400   21.8900 N   0  0  0  0  0  0  0  0  0  0  0  0
  -22.7900  -14.7090   20.4490 O   0  0  0  0  0  0  0  0  0  0  0  0
  -22.8080  -12.2120   22.3520 H   0  0  0  0  0  0  0  0  0  0  0  0
  -21.5310  -13.3690   22.1180 H   0  0  0  0  0  0  0  0  0  0  0  0
  -25.8620  -15.2420   20.1200 N   0  0  0  0  0  0  0  0  0  0  0  0
  -25.0580  -15.8600   20.1220 H   0  0  0  0  0  0  0  0  0  0  0  0
  -26.6440  -15.6150   19.5960 H   0  0  0  0  0  0  0  0  0  0  0  0
  -31.4010  -18.2860   17.6450 C   0  0  0  0  0  3  0  0  0  0  0  0
  -30.3370  -18.6420   16.9190 F   0  0  0  0  0  0  0  0  0  0  0  0
  -32.0430  -17.2960   17.0140 F   0  0  0  0  0  0  0  0  0  0  0  0
  -31.0570  -20.4150   19.9340 C   0  0  0  0  0  2  0  0  0  0  0  0
  -30.1860  -21.6100   19.8890 N   0  0  0  0  0  0  0  0  0  0  0  0
  -29.3030  -21.4560   20.3690 H   0  0  0  0  0  0  0  0  0  0  0  0
  -30.8080  -22.8200   20.4490 C   0  0  0  0  0  2  0  0  0  0  0  0
  -30.1400  -24.1330   19.9400 C   0  0  0  0  0  2  0  0  0  0  0  0
  -29.7580  -25.1380   21.0640 C   0  0  0  0  0  2  0  0  0  0  0  0
  -29.3950  -26.5890   20.6300 C   0  0  0  0  0  2  0  0  0  0  0  0
  -28.3380  -26.6070   19.6660 O   0  0  0  0  0  0  0  0  0  0  0  0
  -24.6420  -31.6520   23.2290 C   0  0  0  0  0  0  0  0  0  0  0  0
  -27.2420  -27.4320   19.8120 C   0  0  0  0  0  0  0  0  0  0  0  0
  -23.4190  -30.4170   21.4640 C   0  0  0  0  0  3  0  0  0  0  0  0
  -24.8610  -28.9730   19.9330 C   0  0  0  0  0  0  0  0  0  0  0  0
  -25.9540  -30.7470   21.3120 C   0  0  0  0  0  2  0  0  0  0  0  0
  -26.0250  -29.4270   20.5690 C   0  0  0  0  0  0  0  0  0  0  0  0
  -27.2180  -28.6680   20.5110 C   0  0  0  0  0  3  0  0  0  0  0  0
  -26.0640  -27.0030   19.1680 C   0  0  0  0  0  3  0  0  0  0  0  0
  -24.8770  -27.7550   19.2300 C   0  0  0  0  0  3  0  0  0  0  0  0
  -23.6310  -29.8450   20.0340 C   0  0  0  0  0  2  0  0  0  0  0  0
  -24.6890  -30.9490   22.0610 N   0  0  0  0  0  0  0  0  0  0  0  0
  -23.5640  -31.9020   23.7840 O   0  0  0  0  0  0  0  0  0  0  0  0
  -22.7380  -29.3360   22.3340 C   0  0  0  0  0  0  0  0  0  0  0  0
  -21.4050  -29.2280   22.2190 N   0  0  0  0  0  0  0  0  0  0  0  0
  -23.4070  -28.6020   23.0680 O   0  0  0  0  0  0  0  0  0  0  0  0
  -20.9310  -29.8740   21.6020 H   0  0  0  0  0  0  0  0  0  0  0  0
  -17.9850  -28.1520   22.6780 C   0  0  0  0  0  0  0  0  0  0  0  0
  -20.5580  -28.2550   22.9090 C   0  0  0  0  0  3  0  0  0  0  0  0
  -20.5750  -26.8880   22.1830 C   0  0  0  0  0  2  0  0  0  0  0  0
  -19.4390  -26.7290   21.1690 C   0  0  0  0  0  2  0  0  0  0  0  0
  -18.0790  -26.8740   21.8600 C   0  0  0  0  0  2  0  0  0  0  0  0
  -19.1500  -28.8100   23.1560 C   0  0  0  0  0  0  0  0  0  0  0  0
  -19.0090  -30.0110   23.8800 C   0  0  0  0  0  3  0  0  0  0  0  0
  -17.7360  -30.5550   24.1330 C   0  0  0  0  0  3  0  0  0  0  0  0
  -16.5850  -29.8950   23.6690 C   0  0  0  0  0  3  0  0  0  0  0  0
  -16.7110  -28.6960   22.9480 C   0  0  0  0  0  3  0  0  0  0  0  0
  -25.9350  -32.2000   23.9070 C   0  0  0  0  0  3  0  0  0  0  0  0
  -25.6690  -33.5880   24.3070 N   0  0  0  0  0  0  0  0  0  0  0  0
  -26.0590  -34.6680   23.6150 C   0  0  0  0  0  0  0  0  0  0  0  0
  -26.7480  -34.5950   22.5930 O   0  0  0  0  0  0  0  0  0  0  0  0
  -25.0620  -33.7190   25.1010 H   0  0  0  0  0  0  0  0  0  0  0  0
  -24.4010  -36.5360   23.3400 C   0  0  0  0  0  1  0  0  0  0  0  0
  -25.6150  -36.0430   24.1440 C   0  0  0  0  0  3  0  0  0  0  0  0
  -27.7610  -36.8140   25.0530 C   0  0  0  0  0  1  0  0  0  0  0  0
  -26.6830  -37.0640   24.1010 N   0  0  0  0  0  0  0  0  0  0  0  0
  -26.3060  -37.9890   24.2880 H   0  0  0  0  0  0  0  0  0  0  0  0
  -26.4030  -31.3380   25.1420 C   0  0  1  0  0  0  0  0  0  0  0  0
  -25.2910  -31.0940   26.1870 C   0  0  0  0  0  1  0  0  0  0  0  0
  -26.9260  -29.9610   24.6750 C   0  0  0  0  0  1  0  0  0  0  0  0
  -27.5800  -32.0430   25.8550 C   0  0  0  0  0  1  0  0  0  0  0  0
  1  7  1  0
  1 14  1  0
  2  7  1  0
  3  4  1  0
  3  2  1  0
  5  4  1  0
  5 21  1  0
  5  6  1  0
  7  6  1  0
  8  1  2  0
  9 11  1  0
 10 12  1  0
 10 14  1  0
 12 46  1  0
 12 13  1  0
 13 49  1  0
 13 15  1  0
 14  9  1  0
 15 16  1  0
 15 11  1  0
 17 15  1  0
 18 19  2  0
 19 38  1  0
 20 19  1  0
 20 23  1  0
 21 18  1  0
 21 22  1  0
 22 20  2  0
 23 24  1  0
 24 25  2  0
 26 29  1  0
 26 25  1  0
 27 26  2  0
 28 27  1  0
 28 23  2  0
 29 30  1  0
 30 31  1  0
 31 32  2  0
 33 32  1  0
 33 37  1  0
 34 33  2  0
 35 30  2  0
 35 34  1  0
 36 35  1  0
 38 39  1  0
 39 42  1  0
 39 41  1  0
 40 38  2  0
 43 44  1  0
 43 18  1  0
 45 43  1  0
 47 46  1  0
 48 46  1  0
 50 49  1  0
 50 51  1  0
 50 52  1  0
 53 52  1  0
 53 54  1  0
 55 54  1  0
 56 58  1  0
 56 55  1  0
 57 68  2  0
 58 63  1  0
 59 67  1  0
 59 69  1  0
 60 66  1  0
 60 62  1  0
 61 67  1  0
 62 61  1  0
 63 62  2  0
 64 65  1  0
 64 58  2  0
 65 60  2  0
 66 59  1  0
 67 57  1  0
 69 71  2  0
 70 69  1  0
 72 70  1  0
 73 82  2  0
 73 78  1  0
 74 70  1  0
 74 78  1  0
 75 74  1  0
 76 77  1  0
 76 75  1  0
 77 73  1  0
 78 79  2  0
 79 80  1  0
 81 80  2  0
 82 81  1  0
 83 57  1  0
 83 84  1  0
 83 93  1  0
 84 87  1  0
 85 89  1  0
 85 84  1  0
 86 85  2  0
 89 88  1  0
 91 89  1  0
 91 92  1  0
 91 90  1  0
 93 96  1  1
 93 94  1  0
 95 93  1  0
M  ISO  4   1 100  14 100  55 101  56 101
M  END
>  <TORSDO>  (43) 
F 22

>  <SCORE>  (43) 
-12.755

>  <name>  (43) 
42

>  <ligand_id>  (43) 
42

>  <original_smiles>  (43) 
[H]c1c([H])c([H])c2c(c1[H])C([H])([H])C([H])([H])C([H])([H])C2([H])N([H])C(=O)C1([H])N(C(=O)C([H])(N([H])C(=O)C([H])(N([H])C([H])([H])[H])C([H])([H])[H])C(C([H])([H])[H])(C([H])([H])[H])C([H])([H])[H])C([H])([H])c2c([H])c(OC([H])([H])C([H])([H])C([H])([H])C([H])([H])N([H])C([H])([H])C3([H])C([H])(C([H])(F)F)C([H])([H])N(C(=O)N4C([H])([H])C([H])([H])C([H])([H])C([H])(n5nc(-c6c([H])c([H])c(Oc7c([H])c([H])c(F)c([H])c7F)c([H])c6[H])c(C(=O)N([H])[H])c5N([H])[H])C4([H])[H])C([H])([H])C([H])([H])[N+]3([H])[H])c([H])c([H])c2C1([H])[H]

>  <smiles>  (43) 
[H]c1c([H])c([H])c2c(c1[H])C([H])([H])C([H])([H])C([H])([H])C2([H])N([H])C(=O)C1([H])N(C(=O)C([H])(N([H])C(=O)C([H])(N([H])C([H])([H])[H])C([H])([H])[H])C(C([H])([H])[H])(C([H])([H])[H])C([H])([H])[H])C([H])([H])c2c([H])c(OC([H])([H])C([H])([H])C([H])([H])C([H])([H])N([H])C([H])([H])C3([H])C([H])(C([H])(F)F)C([H])([H])N(C(=O)N4C([H])([H])C([H])([H])C([H])([H])C([H])(n5nc(-c6c([H])c([H])c(Oc7c([H])c([H])c(F)c([H])c7F)c([H])c6[H])c(C(=O)N([H])[H])c5N([H])[H])C4([H])[H])C([H])([H])C([H])([H])[N+]3([H])[H])c([H])c([H])c2C1([H])[H]

$$$$
43:0:0
     RDKit          3D

 96104  0  0  1  0  0  0  0  0999 V2000
  -29.5070  -20.6650   19.7890 C   0  0  0  0  0  2  0  0  0  0  0  0
  -29.8500  -20.0260   18.4210 C   0  0  0  0  0  2  0  0  0  0  0  0
  -28.5510  -17.3850   20.7350 C   0  0  0  0  0  2  0  0  0  0  0  0
  -27.7270  -18.0870   19.6460 C   0  0  0  0  0  2  0  0  0  0  0  0
  -30.0080  -17.8840   20.7240 C   0  0  0  0  0  2  0  0  0  0  0  0
  -28.4260  -18.0330   18.2670 C   0  0  0  0  0  2  0  0  0  0  0  0
  -30.6530  -17.7830   19.3200 C   0  0  0  0  0  3  0  0  0  0  0  0
  -29.8330  -18.5320   18.3170 N   0  0  2  0  0  4  0  0  0  0  0  0
  -30.2400  -18.3240   17.4170 H   0  0  0  0  0  0  0  0  0  0  0  0
  -30.9160  -16.3010   18.9230 C   0  0  0  0  0  2  0  0  0  0  0  0
  -32.3430  -14.9130   17.4200 C   0  0  0  0  0  0  0  0  0  0  0  0
  -33.3190  -13.8270   15.4320 C   0  0  0  0  0  2  0  0  0  0  0  0
  -34.7660  -13.3540   15.6530 C   0  0  0  0  0  2  0  0  0  0  0  0
  -35.7540  -14.4930   15.3500 C   0  0  0  0  0  2  0  0  0  0  0  0
  -35.3850  -15.8030   16.0920 C   0  0  0  0  0  3  0  0  0  0  0  0
  -33.8970  -16.1560   15.8730 C   0  0  0  0  0  2  0  0  0  0  0  0
  -33.0710  -15.0020   16.2800 N   0  0  0  0  0  0  0  0  0  0  0  0
  -31.9090  -13.8460   17.8670 O   0  0  0  0  0  0  0  0  0  0  0  0
  -32.0060  -16.0950   17.9600 N   0  0  0  0  0  0  0  0  0  0  0  0
  -32.3450  -16.8980   17.4510 H   0  0  0  0  0  0  0  0  0  0  0  0
  -37.4070  -17.3800   16.3240 C   0  0  0  0  0  0  0  0  0  0  0  0
  -37.8900  -18.3740   15.5150 C   0  0  0  0  0  0  0  0  0  0  0  0
  -36.9910  -18.4490   14.4070 C   0  0  0  0  0  0  0  0  0  0  0  0
  -36.2630  -16.9030   15.7010 N   0  0  0  0  0  0  0  0  0  0  0  0
  -35.9900  -17.5920   14.5650 N   0  0  0  0  0  0  0  0  0  0  0  0
  -37.0590  -19.2460   13.1750 C   0  0  0  0  0  0  0  0  0  0  0  0
  -36.3090  -20.4330   13.0240 C   0  0  0  0  0  3  0  0  0  0  0  0
  -36.4020  -21.1920   11.8370 C   0  0  0  0  0  3  0  0  0  0  0  0
  -37.2530  -20.7690   10.7890 C   0  0  0  0  0  0  0  0  0  0  0  0
  -37.9790  -19.5730   10.9350 C   0  0  0  0  0  3  0  0  0  0  0  0
  -37.8820  -18.8160   12.1150 C   0  0  0  0  0  3  0  0  0  0  0  0
  -37.3870  -21.4270    9.5910 O   0  0  0  0  0  0  0  0  0  0  0  0
  -37.7130  -22.7580    9.5350 C   0  0  0  0  0  0  0  0  0  0  0  0
  -39.0070  -23.2250    9.8560 C   0  0  0  0  0  3  0  0  0  0  0  0
  -39.3170  -24.5920    9.7180 C   0  0  0  0  0  3  0  0  0  0  0  0
  -38.3410  -25.4920    9.2520 C   0  0  0  0  0  0  0  0  0  0  0  0
  -37.0530  -25.0300    8.9250 C   0  0  0  0  0  3  0  0  0  0  0  0
  -36.7420  -23.6670    9.0660 C   0  0  0  0  0  0  0  0  0  0  0  0
  -35.5060  -23.2210    8.7300 F   0  0  0  0  0  0  0  0  0  0  0  0
  -38.6400  -26.8040    9.1110 F   0  0  0  0  0  0  0  0  0  0  0  0
  -39.1620  -19.1460   15.7080 C   0  0  0  0  0  0  0  0  0  0  0  0
  -39.0810  -20.4720   15.6970 N   0  0  0  0  0  0  0  0  0  0  0  0
  -40.2330  -18.5750   15.9180 O   0  0  0  0  0  0  0  0  0  0  0  0
  -38.2000  -20.9400   15.5480 H   0  0  0  0  0  0  0  0  0  0  0  0
  -39.9140  -21.0260   15.8400 H   0  0  0  0  0  0  0  0  0  0  0  0
  -37.8500  -16.8300   17.5230 N   0  0  0  0  0  0  0  0  0  0  0  0
  -38.7240  -17.1080   17.9540 H   0  0  0  0  0  0  0  0  0  0  0  0
  -37.4260  -16.0270   17.9710 H   0  0  0  0  0  0  0  0  0  0  0  0
  -30.6160  -21.6700   20.1840 C   0  0  0  0  0  2  0  0  0  0  0  0
  -30.1520  -22.8570   20.9470 N   0  0  0  0  0  4  0  0  0  0  0  0
  -30.2080  -22.6710   21.9350 H   0  0  0  0  0  0  0  0  0  0  0  0
  -29.1870  -23.0390   20.7210 H   0  0  0  0  0  0  0  0  0  0  0  0
  -30.9450  -24.0630   20.6070 C   0  0  0  0  0  2  0  0  0  0  0  0
  -30.4120  -25.3960   21.1810 C   0  0  0  0  0  2  0  0  0  0  0  0
  -30.4370  -26.4860   20.0890 C   0  0  0  0  0  2  0  0  0  0  0  0
  -30.9970  -27.7310   20.5110 O   0  0  0  0  0  0  0  0  0  0  0  0
  -34.2370  -32.9620   16.9410 C   0  0  0  0  0  0  0  0  0  0  0  0
  -32.0850  -28.1170   19.7690 C   0  0  0  0  0  0  0  0  0  0  0  0
  -35.1480  -30.6880   16.5970 C   0  0  0  0  0  3  0  0  0  0  0  0
  -34.2960  -28.9010   18.2010 C   0  0  0  0  0  0  0  0  0  0  0  0
  -33.9850  -31.3110   18.7890 C   0  0  0  0  0  2  0  0  0  0  0  0
  -33.5630  -29.8630   18.9080 C   0  0  0  0  0  0  0  0  0  0  0  0
  -32.4580  -29.4760   19.7000 C   0  0  0  0  0  3  0  0  0  0  0  0
  -32.8280  -27.1590   19.0500 C   0  0  0  0  0  3  0  0  0  0  0  0
  -33.9300  -27.5450   18.2640 C   0  0  0  0  0  3  0  0  0  0  0  0
  -35.4700  -29.3920   17.3860 C   0  0  0  0  0  2  0  0  0  0  0  0
  -34.4180  -31.7020   17.4260 N   0  0  0  0  0  0  0  0  0  0  0  0
  -34.7010  -33.2970   15.8440 O   0  0  0  0  0  0  0  0  0  0  0  0
  -34.3980  -30.3020   15.3020 C   0  0  0  0  0  0  0  0  0  0  0  0
  -35.1550  -30.1110   14.2090 N   0  0  0  0  0  0  0  0  0  0  0  0
  -33.1740  -30.1520   15.3020 O   0  0  0  0  0  0  0  0  0  0  0  0
  -36.1490  -30.2650   14.2900 H   0  0  0  0  0  0  0  0  0  0  0  0
  -36.1410  -29.6750   10.7610 C   0  0  0  0  0  0  0  0  0  0  0  0
  -34.6730  -29.7070   12.8890 C   0  0  0  0  0  3  0  0  0  0  0  0
  -34.6300  -28.1670   12.7620 C   0  0  0  0  0  2  0  0  0  0  0  0
  -35.9090  -27.5770   12.1580 C   0  0  0  0  0  2  0  0  0  0  0  0
  -36.1640  -28.1550   10.7630 C   0  0  0  0  0  2  0  0  0  0  0  0
  -35.4540  -30.4030   11.7680 C   0  0  0  0  0  0  0  0  0  0  0  0
  -35.4950  -31.8130   11.7400 C   0  0  0  0  0  3  0  0  0  0  0  0
  -36.1990  -32.4950   10.7310 C   0  0  0  0  0  3  0  0  0  0  0  0
  -36.8620  -31.7700    9.7260 C   0  0  0  0  0  3  0  0  0  0  0  0
  -36.8290  -30.3630    9.7410 C   0  0  0  0  0  3  0  0  0  0  0  0
  -33.4600  -34.0480   17.7510 C   0  0  0  0  0  3  0  0  0  0  0  0
  -34.2880  -35.2590   17.7740 N   0  0  0  0  0  0  0  0  0  0  0  0
  -35.1790  -35.5530   18.7300 C   0  0  0  0  0  0  0  0  0  0  0  0
  -35.3390  -34.8550   19.7350 O   0  0  0  0  0  0  0  0  0  0  0  0
  -34.2490  -35.8480   16.9550 H   0  0  0  0  0  0  0  0  0  0  0  0
  -37.4580  -36.4310   18.1310 C   0  0  0  0  0  1  0  0  0  0  0  0
  -36.0310  -36.8230   18.5410 C   0  0  0  0  0  3  0  0  0  0  0  0
  -34.8310  -38.4110   19.9800 C   0  0  0  0  0  1  0  0  0  0  0  0
  -36.0750  -37.6840   19.7420 N   0  0  0  0  0  0  0  0  0  0  0  0
  -36.8280  -38.3630   19.6710 H   0  0  0  0  0  0  0  0  0  0  0  0
  -32.0310  -34.3590   17.1600 C   0  0  1  0  0  0  0  0  0  0  0  0
  -32.0540  -35.3320   15.9580 C   0  0  0  0  0  1  0  0  0  0  0  0
  -31.3330  -33.0570   16.7010 C   0  0  0  0  0  1  0  0  0  0  0  0
  -31.1320  -34.9760   18.2590 C   0  0  0  0  0  1  0  0  0  0  0  0
  1 49  1  0
  2  1  1  0
  4  3  1  0
  5  3  1  0
  6  8  1  0
  6  4  1  0
  7 10  1  0
  7  5  1  0
  8  2  1  0
  8  7  1  0
  8  9  1  6
 11 18  2  0
 11 19  1  0
 12 13  1  0
 12 17  1  0
 14 13  1  0
 15 14  1  0
 16 15  1  0
 16 17  1  0
 17 11  1  0
 19 10  1  0
 20 19  1  0
 21 46  1  0
 22 41  1  0
 22 21  2  0
 23 25  2  0
 23 22  1  0
 24 15  1  0
 24 21  1  0
 25 24  1  0
 26 23  1  0
 27 26  1  0
 28 27  2  0
 29 30  2  0
 29 28  1  0
 30 31  1  0
 31 26  2  0
 32 29  1  0
 33 32  1  0
 33 34  1  0
 35 34  2  0
 36 35  1  0
 37 38  1  0
 37 36  2  0
 38 33  2  0
 39 38  1  0
 40 36  1  0
 41 43  2  0
 42 41  1  0
 42 45  1  0
 44 42  1  0
 46 47  1  0
 46 48  1  0
 49 50  1  0
 50 51  1  0
 52 50  1  0
 53 50  1  0
 53 54  1  0
 55 56  1  0
 55 54  1  0
 57 67  1  0
 58 56  1  0
 59 69  1  0
 59 66  1  0
 59 67  1  0
 60 65  2  0
 60 62  1  0
 61 62  1  0
 62 63  2  0
 63 58  1  0
 64 58  2  0
 65 64  1  0
 66 60  1  0
 67 61  1  0
 68 57  2  0
 69 71  2  0
 70 72  1  0
 70 69  1  0
 73 77  1  0
 73 78  1  0
 74 70  1  0
 75 74  1  0
 76 75  1  0
 77 76  1  0
 78 74  1  0
 79 78  2  0
 80 79  1  0
 81 82  1  0
 81 80  2  0
 82 73  2  0
 83 57  1  0
 83 84  1  0
 84 85  1  0
 85 86  2  0
 87 84  1  0
 89 88  1  0
 89 85  1  0
 89 91  1  0
 91 90  1  0
 92 91  1  0
 93 83  1  0
 93 96  1  1
 94 93  1  0
 95 93  1  0
M  ISO  4  11 100  19 100  55 101  56 101
M  END
>  <TORSDO>  (44) 
F 24

>  <SCORE>  (44) 
-3.626

>  <name>  (44) 
43

>  <ligand_id>  (44) 
43

>  <original_smiles>  (44) 
[H]c1c([H])c([H])c2c(c1[H])C([H])([H])C([H])([H])C([H])([H])C2([H])N([H])C(=O)C1([H])N(C(=O)C([H])(N([H])C(=O)C([H])(N([H])C([H])([H])[H])C([H])([H])[H])C(C([H])([H])[H])(C([H])([H])[H])C([H])([H])[H])C([H])([H])c2c([H])c(OC([H])([H])C([H])([H])C([H])([H])[N+]([H])([H])C([H])([H])C([H])([H])C([H])([H])[N+]3([H])C([H])([H])C([H])([H])C([H])([H])C([H])([H])C3([H])C([H])([H])N([H])C(=O)N3C([H])([H])C([H])([H])C([H])([H])C([H])(n4nc(-c5c([H])c([H])c(Oc6c([H])c([H])c(F)c([H])c6F)c([H])c5[H])c(C(=O)N([H])[H])c4N([H])[H])C3([H])[H])c([H])c([H])c2C1([H])[H]

>  <smiles>  (44) 
[H]c1c([H])c([H])c2c(c1[H])C([H])([H])C([H])([H])C([H])([H])C2([H])N([H])C(=O)C1([H])N(C(=O)C([H])(N([H])C(=O)C([H])(N([H])C([H])([H])[H])C([H])([H])[H])C(C([H])([H])[H])(C([H])([H])[H])C([H])([H])[H])C([H])([H])c2c([H])c(OC([H])([H])C([H])([H])C([H])([H])[N+]([H])([H])C([H])([H])C([H])([H])C([H])([H])[N+]3([H])C([H])([H])C([H])([H])C([H])([H])C([H])([H])C3([H])C([H])([H])N([H])C(=O)N3C([H])([H])C([H])([H])C([H])([H])C([H])(n4nc(-c5c([H])c([H])c(Oc6c([H])c([H])c(F)c([H])c6F)c([H])c5[H])c(C(=O)N([H])[H])c4N([H])[H])C3([H])[H])c([H])c([H])c2C1([H])[H]

$$$$
44:0:0
     RDKit          3D

 99108  0  0  1  0  0  0  0  0999 V2000
  -26.7980  -21.7190   16.7670 C   0  0  0  0  0  2  0  0  0  0  0  0
  -25.4830  -20.4110   18.4720 C   0  0  0  0  0  2  0  0  0  0  0  0
  -25.6070  -22.6900   16.9470 C   0  0  0  0  0  2  0  0  0  0  0  0
  -24.8820  -21.7140   19.0860 C   0  0  0  0  0  2  0  0  0  0  0  0
  -26.8860  -20.7100   17.9350 C   0  0  0  0  0  3  0  0  0  0  0  0
  -25.3300  -22.9640   18.3820 N   0  0  1  0  0  4  0  0  0  0  0  0
  -24.5300  -23.5800   18.4060 H   0  0  0  0  0  0  0  0  0  0  0  0
  -29.7170  -17.5190   17.3010 C   0  0  0  0  0  3  0  0  0  0  0  0
  -29.1450  -18.1550   16.1840 C   0  0  0  0  0  3  0  0  0  0  0  0
  -28.3240  -18.8470   18.7880 C   0  0  0  0  0  3  0  0  0  0  0  0
  -27.7850  -19.5210   17.6700 C   0  0  0  0  0  0  0  0  0  0  0  0
  -29.2750  -17.8320   18.6040 C   0  0  0  0  0  0  0  0  0  0  0  0
  -28.1500  -19.1270   16.3610 C   0  0  0  0  0  0  0  0  0  0  0  0
  -27.5720  -19.6810   15.2710 F   0  0  0  0  0  0  0  0  0  0  0  0
  -29.5930  -16.8860   19.7360 C   0  0  0  0  0  2  0  0  0  0  0  0
  -30.5360  -17.1790   20.9110 C   0  0  0  0  0  2  0  0  0  0  0  0
  -31.2380  -14.8580   21.1220 C   0  0  0  0  0  0  0  0  0  0  0  0
  -30.8990  -12.8590   19.7360 C   0  0  0  0  0  2  0  0  0  0  0  0
  -30.1000  -13.2240   18.4700 C   0  0  0  0  0  2  0  0  0  0  0  0
  -28.5880  -13.0960   18.7460 C   0  0  0  0  0  2  0  0  0  0  0  0
  -28.1450  -13.8070   20.0450 C   0  0  0  0  0  3  0  0  0  0  0  0
  -29.0960  -13.4870   21.2340 C   0  0  0  0  0  2  0  0  0  0  0  0
  -30.4920  -13.7560   20.8290 N   0  0  0  0  0  0  0  0  0  0  0  0
  -32.3850  -15.0310   20.7100 O   0  0  0  0  0  0  0  0  0  0  0  0
  -30.5650  -15.8960   21.6390 N   0  0  0  0  0  0  0  0  0  0  0  0
  -29.7060  -15.6610   22.1170 H   0  0  0  0  0  0  0  0  0  0  0  0
  -25.6950  -14.4870   20.4630 C   0  0  0  0  0  0  0  0  0  0  0  0
  -24.5750  -13.7450   20.6880 C   0  0  0  0  0  0  0  0  0  0  0  0
  -25.0060  -12.3810   20.6830 C   0  0  0  0  0  0  0  0  0  0  0  0
  -26.7420  -13.5780   20.3530 N   0  0  0  0  0  0  0  0  0  0  0  0
  -26.3220  -12.3080   20.5380 N   0  0  0  0  0  0  0  0  0  0  0  0
  -24.2410  -11.1350   20.7490 C   0  0  0  0  0  0  0  0  0  0  0  0
  -24.5610  -10.1330   21.6920 C   0  0  0  0  0  3  0  0  0  0  0  0
  -23.8070   -8.9450   21.7550 C   0  0  0  0  0  3  0  0  0  0  0  0
  -22.7210   -8.7480   20.8720 C   0  0  0  0  0  0  0  0  0  0  0  0
  -22.4230   -9.7320   19.9170 C   0  0  0  0  0  3  0  0  0  0  0  0
  -23.1750  -10.9170   19.8520 C   0  0  0  0  0  3  0  0  0  0  0  0
  -21.9440   -7.6140   20.8460 O   0  0  0  0  0  0  0  0  0  0  0  0
  -21.7270   -6.8680   21.9750 C   0  0  0  0  0  0  0  0  0  0  0  0
  -21.1600   -7.4250   23.1430 C   0  0  0  0  0  3  0  0  0  0  0  0
  -20.8910   -6.6040   24.2540 C   0  0  0  0  0  3  0  0  0  0  0  0
  -21.1720   -5.2260   24.2010 C   0  0  0  0  0  0  0  0  0  0  0  0
  -21.7310   -4.6670   23.0390 C   0  0  0  0  0  3  0  0  0  0  0  0
  -22.0070   -5.4860   21.9310 C   0  0  0  0  0  0  0  0  0  0  0  0
  -22.5260   -4.9390   20.8060 F   0  0  0  0  0  0  0  0  0  0  0  0
  -20.8990   -4.4380   25.2650 F   0  0  0  0  0  0  0  0  0  0  0  0
  -23.1680  -14.2530   20.7990 C   0  0  0  0  0  0  0  0  0  0  0  0
  -22.3410  -13.5670   21.5770 N   0  0  0  0  0  0  0  0  0  0  0  0
  -22.8130  -15.2910   20.2370 O   0  0  0  0  0  0  0  0  0  0  0  0
  -22.6520  -12.7260   22.0410 H   0  0  0  0  0  0  0  0  0  0  0  0
  -21.3910  -13.8840   21.7000 H   0  0  0  0  0  0  0  0  0  0  0  0
  -25.9110  -15.8530   20.3140 N   0  0  0  0  0  0  0  0  0  0  0  0
  -25.1410  -16.5110   20.2860 H   0  0  0  0  0  0  0  0  0  0  0  0
  -26.7350  -16.2010   19.8470 H   0  0  0  0  0  0  0  0  0  0  0  0
  -26.4010  -23.7120   19.1220 C   0  0  0  0  0  2  0  0  0  0  0  0
  -27.3900  -24.5720   18.2800 C   0  0  0  0  0  2  0  0  0  0  0  0
  -28.6570  -24.9810   19.0690 C   0  0  0  0  0  2  0  0  0  0  0  0
  -28.4540  -25.9200   20.2820 C   0  0  0  0  0  2  0  0  0  0  0  0
  -28.4500  -27.3100   19.9480 O   0  0  0  0  0  0  0  0  0  0  0  0
  -24.7440  -32.1740   23.6100 C   0  0  0  0  0  0  0  0  0  0  0  0
  -27.2640  -27.9950   20.0960 C   0  0  0  0  0  0  0  0  0  0  0  0
  -23.4740  -30.9070   21.9020 C   0  0  0  0  0  3  0  0  0  0  0  0
  -24.8730  -29.4810   20.3240 C   0  0  0  0  0  0  0  0  0  0  0  0
  -25.9950  -31.2770   21.6530 C   0  0  0  0  0  2  0  0  0  0  0  0
  -26.0520  -29.9630   20.9060 C   0  0  0  0  0  0  0  0  0  0  0  0
  -27.2530  -29.2290   20.7850 C   0  0  0  0  0  3  0  0  0  0  0  0
  -26.0600  -27.5210   19.5350 C   0  0  0  0  0  3  0  0  0  0  0  0
  -24.8690  -28.2590   19.6350 C   0  0  0  0  0  3  0  0  0  0  0  0
  -23.6350  -30.3280   20.4720 C   0  0  0  0  0  2  0  0  0  0  0  0
  -24.7570  -31.4620   22.4460 N   0  0  0  0  0  0  0  0  0  0  0  0
  -23.6810  -32.4070   24.2030 O   0  0  0  0  0  0  0  0  0  0  0  0
  -22.8500  -29.8170   22.8030 C   0  0  0  0  0  0  0  0  0  0  0  0
  -21.5530  -29.5380   22.5930 N   0  0  0  0  0  0  0  0  0  0  0  0
  -23.5320  -29.2270   23.6450 O   0  0  0  0  0  0  0  0  0  0  0  0
  -21.0600  -30.0720   21.8920 H   0  0  0  0  0  0  0  0  0  0  0  0
  -18.3200  -27.9320   22.7240 C   0  0  0  0  0  0  0  0  0  0  0  0
  -20.7700  -28.5210   23.2950 C   0  0  0  0  0  3  0  0  0  0  0  0
  -21.1220  -27.1020   22.7920 C   0  0  0  0  0  2  0  0  0  0  0  0
  -20.2040  -26.6150   21.6650 C   0  0  0  0  0  2  0  0  0  0  0  0
  -18.7460  -26.6000   22.1300 C   0  0  0  0  0  2  0  0  0  0  0  0
  -19.2730  -28.8400   23.2580 C   0  0  0  0  0  0  0  0  0  0  0  0
  -18.8270  -30.0790   23.7660 C   0  0  0  0  0  3  0  0  0  0  0  0
  -17.4600  -30.4140   23.7530 C   0  0  0  0  0  3  0  0  0  0  0  0
  -16.5190  -29.5050   23.2370 C   0  0  0  0  0  3  0  0  0  0  0  0
  -16.9500  -28.2670   22.7280 C   0  0  0  0  0  3  0  0  0  0  0  0
  -26.0550  -32.7480   24.2320 C   0  0  0  0  0  3  0  0  0  0  0  0
  -25.8050  -34.1550   24.5730 N   0  0  0  0  0  0  0  0  0  0  0  0
  -26.2070  -35.1960   23.8330 C   0  0  0  0  0  0  0  0  0  0  0  0
  -26.8970  -35.0710   22.8180 O   0  0  0  0  0  0  0  0  0  0  0  0
  -25.2070  -34.3310   25.3660 H   0  0  0  0  0  0  0  0  0  0  0  0
  -24.5900  -37.0770   23.4310 C   0  0  0  0  0  1  0  0  0  0  0  0
  -25.7720  -36.6010   24.2910 C   0  0  0  0  0  3  0  0  0  0  0  0
  -27.9140  -37.3570   25.2220 C   0  0  0  0  0  1  0  0  0  0  0  0
  -26.8620  -37.5980   24.2390 N   0  0  0  0  0  0  0  0  0  0  0  0
  -26.4990  -38.5360   24.3830 H   0  0  0  0  0  0  0  0  0  0  0  0
  -26.5490  -31.9450   25.4970 C   0  0  1  0  0  0  0  0  0  0  0  0
  -25.4420  -31.7170   26.5530 C   0  0  0  0  0  1  0  0  0  0  0  0
  -27.1070  -30.5610   25.0910 C   0  0  0  0  0  1  0  0  0  0  0  0
  -27.7150  -32.7030   26.1760 C   0  0  0  0  0  1  0  0  0  0  0  0
  1  3  1  0
  1  5  1  0
  2  4  1  0
  3  6  1  0
  5 11  1  0
  5  2  1  0
  6  7  1  6
  6  4  1  0
  6 55  1  0
  8 12  1  0
  9 13  1  0
  9  8  2  0
 11 10  1  0
 12 10  2  0
 12 15  1  0
 13 11  2  0
 14 13  1  0
 15 16  1  0
 16 25  1  0
 17 25  1  0
 18 23  1  0
 19 20  1  0
 19 18  1  0
 21 20  1  0
 21 30  1  0
 21 22  1  0
 23 17  1  0
 23 22  1  0
 24 17  2  0
 25 26  1  0
 27 28  2  0
 28 47  1  0
 29 28  1  0
 29 32  1  0
 30 27  1  0
 30 31  1  0
 31 29  2  0
 32 33  1  0
 33 34  2  0
 35 34  1  0
 36 35  2  0
 37 36  1  0
 37 32  2  0
 38 35  1  0
 38 39  1  0
 39 40  1  0
 40 41  2  0
 42 41  1  0
 42 46  1  0
 43 42  2  0
 44 39  2  0
 44 43  1  0
 45 44  1  0
 47 48  1  0
 48 51  1  0
 48 50  1  0
 49 47  2  0
 52 27  1  0
 53 52  1  0
 54 52  1  0
 56 57  1  0
 56 55  1  0
 57 58  1  0
 59 61  1  0
 59 58  1  0
 60 71  2  0
 61 66  1  0
 62 70  1  0
 62 72  1  0
 63 69  1  0
 63 65  1  0
 64 70  1  0
 65 64  1  0
 66 65  2  0
 67 68  1  0
 67 61  2  0
 68 63  2  0
 69 62  1  0
 70 60  1  0
 72 74  2  0
 73 72  1  0
 75 73  1  0
 76 85  2  0
 76 81  1  0
 77 73  1  0
 78 77  1  0
 79 80  1  0
 79 78  1  0
 80 76  1  0
 81 77  1  0
 81 82  2  0
 83 82  1  0
 84 83  2  0
 85 84  1  0
 86 60  1  0
 86 87  1  0
 86 96  1  0
 87 90  1  0
 88 92  1  0
 88 87  1  0
 89 88  2  0
 92 91  1  0
 94 92  1  0
 94 95  1  0
 94 93  1  0
 96 99  1  1
 96 97  1  0
 98 96  1  0
M  ISO  4  17 100  25 100  58 101  59 101
M  END
>  <TORSDO>  (45) 
F 23

>  <SCORE>  (45) 
-8.610

>  <name>  (45) 
44

>  <ligand_id>  (45) 
44

>  <original_smiles>  (45) 
[H]c1c([H])c([H])c2c(c1[H])C([H])([H])C([H])([H])C([H])([H])C2([H])N([H])C(=O)C1([H])N(C(=O)C([H])(N([H])C(=O)C([H])(N([H])C([H])([H])[H])C([H])([H])[H])C(C([H])([H])[H])(C([H])([H])[H])C([H])([H])[H])C([H])([H])c2c([H])c(OC([H])([H])C([H])([H])C([H])([H])C([H])([H])[N+]3([H])C([H])([H])C([H])([H])C([H])(c4c([H])c(C([H])([H])C([H])([H])N([H])C(=O)N5C([H])([H])C([H])([H])C([H])([H])C([H])(n6nc(-c7c([H])c([H])c(Oc8c([H])c([H])c(F)c([H])c8F)c([H])c7[H])c(C(=O)N([H])[H])c6N([H])[H])C5([H])[H])c([H])c([H])c4F)C([H])([H])C3([H])[H])c([H])c([H])c2C1([H])[H]

>  <smiles>  (45) 
[H]c1c([H])c([H])c2c(c1[H])C([H])([H])C([H])([H])C([H])([H])C2([H])N([H])C(=O)C1([H])N(C(=O)C([H])(N([H])C(=O)C([H])(N([H])C([H])([H])[H])C([H])([H])[H])C(C([H])([H])[H])(C([H])([H])[H])C([H])([H])[H])C([H])([H])c2c([H])c(OC([H])([H])C([H])([H])C([H])([H])C([H])([H])[N+]3([H])C([H])([H])C([H])([H])C([H])(c4c([H])c(C([H])([H])C([H])([H])N([H])C(=O)N5C([H])([H])C([H])([H])C([H])([H])C([H])(n6nc(-c7c([H])c([H])c(Oc8c([H])c([H])c(F)c([H])c8F)c([H])c7[H])c(C(=O)N([H])[H])c6N([H])[H])C5([H])[H])c([H])c([H])c4F)C([H])([H])C3([H])[H])c([H])c([H])c2C1([H])[H]

$$$$
45:0:0
     RDKit          3D

 90 97  0  0  1  0  0  0  0  0999 V2000
  -28.9970  -22.7270   19.5430 C   0  0  0  0  0  2  0  0  0  0  0  0
  -29.3490  -21.5140   20.3480 N   0  0  0  0  0  4  0  0  0  0  0  0
  -28.7040  -21.4730   21.1180 H   0  0  0  0  0  0  0  0  0  0  0  0
  -30.2730  -21.6370   20.7310 H   0  0  0  0  0  0  0  0  0  0  0  0
  -29.3110  -20.2110   19.6080 C   0  0  0  0  0  2  0  0  0  0  0  0
  -28.7850  -18.9980   20.4390 C   0  0  0  0  0  2  0  0  0  0  0  0
  -29.8180  -18.0720   21.1490 C   0  0  0  0  0  2  0  0  0  0  0  0
  -30.4800  -16.9660   20.2720 C   0  0  0  0  0  2  0  0  0  0  0  0
  -30.6950  -14.4710   20.1180 C   0  0  0  0  0  0  0  0  0  0  0  0
  -30.2940  -12.3070   19.0080 C   0  0  0  0  0  2  0  0  0  0  0  0
  -29.3180  -12.5260   17.8360 C   0  0  0  0  0  2  0  0  0  0  0  0
  -27.8670  -12.3920   18.3350 C   0  0  0  0  0  2  0  0  0  0  0  0
  -27.5870  -13.2460   19.6020 C   0  0  0  0  0  3  0  0  0  0  0  0
  -28.6840  -13.0380   20.6710 C   0  0  0  0  0  2  0  0  0  0  0  0
  -29.9860  -13.3100   20.0400 N   0  0  0  0  0  0  0  0  0  0  0  0
  -31.8300  -14.5780   19.6520 O   0  0  0  0  0  0  0  0  0  0  0  0
  -30.0220  -15.5730   20.5230 N   0  0  0  0  0  0  0  0  0  0  0  0
  -29.0780  -15.4290   20.8530 H   0  0  0  0  0  0  0  0  0  0  0  0
  -25.2310  -13.8820   20.4070 C   0  0  0  0  0  0  0  0  0  0  0  0
  -24.1670  -13.1260   20.8160 C   0  0  0  0  0  0  0  0  0  0  0  0
  -24.6100  -11.7670   20.7700 C   0  0  0  0  0  0  0  0  0  0  0  0
  -26.2530  -12.9860   20.1350 N   0  0  0  0  0  0  0  0  0  0  0  0
  -25.8860  -11.7080   20.4130 N   0  0  0  0  0  0  0  0  0  0  0  0
  -23.8760  -10.5170   20.9870 C   0  0  0  0  0  0  0  0  0  0  0  0
  -24.3400   -9.5370   21.8920 C   0  0  0  0  0  3  0  0  0  0  0  0
  -23.6050   -8.3480   22.0970 C   0  0  0  0  0  3  0  0  0  0  0  0
  -22.3940   -8.1330   21.4000 C   0  0  0  0  0  0  0  0  0  0  0  0
  -21.9500   -9.1030   20.4820 C   0  0  0  0  0  3  0  0  0  0  0  0
  -22.6840  -10.2820   20.2750 C   0  0  0  0  0  3  0  0  0  0  0  0
  -21.6310   -6.9960   21.5140 O   0  0  0  0  0  0  0  0  0  0  0  0
  -21.6400   -6.2350   22.6570 C   0  0  0  0  0  0  0  0  0  0  0  0
  -21.3120   -6.7800   23.9160 C   0  0  0  0  0  3  0  0  0  0  0  0
  -21.2590   -5.9460   25.0520 C   0  0  0  0  0  3  0  0  0  0  0  0
  -21.5310   -4.5700   24.9310 C   0  0  0  0  0  0  0  0  0  0  0  0
  -21.8570   -4.0260   23.6770 C   0  0  0  0  0  3  0  0  0  0  0  0
  -21.9070   -4.8560   22.5420 C   0  0  0  0  0  0  0  0  0  0  0  0
  -22.1980   -4.3190   21.3320 F   0  0  0  0  0  0  0  0  0  0  0  0
  -21.4770   -3.7690   26.0220 F   0  0  0  0  0  0  0  0  0  0  0  0
  -22.7900  -13.6210   21.1440 C   0  0  0  0  0  0  0  0  0  0  0  0
  -22.0850  -12.9370   22.0370 N   0  0  0  0  0  0  0  0  0  0  0  0
  -22.3440  -14.6520   20.6420 O   0  0  0  0  0  0  0  0  0  0  0  0
  -22.4490  -12.0970   22.4670 H   0  0  0  0  0  0  0  0  0  0  0  0
  -21.1650  -13.2600   22.2940 H   0  0  0  0  0  0  0  0  0  0  0  0
  -25.4090  -15.2530   20.2300 N   0  0  0  0  0  0  0  0  0  0  0  0
  -24.6740  -15.9270   20.4190 H   0  0  0  0  0  0  0  0  0  0  0  0
  -26.2590  -15.6870   19.8940 H   0  0  0  0  0  0  0  0  0  0  0  0
  -28.9780  -24.0740   20.3480 C   0  0  0  0  0  3  0  0  0  0  0  0
  -28.1750  -23.8960   21.4030 F   0  0  0  0  0  0  0  0  0  0  0  0
  -28.4610  -25.2900   19.5100 C   0  0  0  0  0  2  0  0  0  0  0  0
  -28.3700  -26.5830   20.1890 O   0  0  0  0  0  0  0  0  0  0  0  0
  -24.6050  -31.8630   23.2700 C   0  0  0  0  0  0  0  0  0  0  0  0
  -27.2020  -27.3490   20.1610 C   0  0  0  0  0  0  0  0  0  0  0  0
  -23.3890  -30.4740   21.6320 C   0  0  0  0  0  3  0  0  0  0  0  0
  -24.8270  -28.9330   20.1960 C   0  0  0  0  0  0  0  0  0  0  0  0
  -25.9270  -30.7920   21.4430 C   0  0  0  0  0  2  0  0  0  0  0  0
  -25.9970  -29.4220   20.7870 C   0  0  0  0  0  0  0  0  0  0  0  0
  -27.1830  -28.6380   20.7690 C   0  0  0  0  0  3  0  0  0  0  0  0
  -25.9960  -26.9020   19.5650 C   0  0  0  0  0  3  0  0  0  0  0  0
  -24.8240  -27.6740   19.5870 C   0  0  0  0  0  3  0  0  0  0  0  0
  -23.5940  -29.8090   20.2490 C   0  0  0  0  0  2  0  0  0  0  0  0
  -24.6580  -31.0590   22.1710 N   0  0  0  0  0  0  0  0  0  0  0  0
  -23.5240  -32.1410   23.8110 O   0  0  0  0  0  0  0  0  0  0  0  0
  -22.7330  -29.4500   22.5870 C   0  0  0  0  0  0  0  0  0  0  0  0
  -21.4070  -29.2710   22.4590 N   0  0  0  0  0  0  0  0  0  0  0  0
  -23.4130  -28.8230   23.4040 O   0  0  0  0  0  0  0  0  0  0  0  0
  -20.9160  -29.8290   21.7740 H   0  0  0  0  0  0  0  0  0  0  0  0
  -18.0350  -28.0690   22.9520 C   0  0  0  0  0  0  0  0  0  0  0  0
  -20.5910  -28.3350   23.2320 C   0  0  0  0  0  3  0  0  0  0  0  0
  -20.6970  -26.9010   22.6650 C   0  0  0  0  0  2  0  0  0  0  0  0
  -19.5990  -26.5690   21.6490 C   0  0  0  0  0  2  0  0  0  0  0  0
  -18.2160  -26.7160   22.2860 C   0  0  0  0  0  2  0  0  0  0  0  0
  -19.1500  -28.8350   23.3840 C   0  0  0  0  0  0  0  0  0  0  0  0
  -18.9260  -30.1010   23.9670 C   0  0  0  0  0  3  0  0  0  0  0  0
  -17.6190  -30.6010   24.1240 C   0  0  0  0  0  3  0  0  0  0  0  0
  -16.5180  -29.8310   23.7080 C   0  0  0  0  0  3  0  0  0  0  0  0
  -16.7270  -28.5670   23.1290 C   0  0  0  0  0  3  0  0  0  0  0  0
  -25.8960  -32.4880   23.8870 C   0  0  0  0  0  3  0  0  0  0  0  0
  -26.4120  -31.7150   25.1610 C   0  0  1  0  0  0  0  0  0  0  0  0
  -25.3200  -31.4860   26.2320 C   0  0  0  0  0  1  0  0  0  0  0  0
  -26.9870  -30.3330   24.7730 C   0  0  0  0  0  1  0  0  0  0  0  0
  -27.5690  -32.5060   25.8170 C   0  0  0  0  0  1  0  0  0  0  0  0
  -25.5930  -33.8880   24.2140 N   0  0  0  0  0  0  0  0  0  0  0  0
  -25.9230  -34.9360   23.4480 C   0  0  0  0  0  0  0  0  0  0  0  0
  -26.5860  -34.8270   22.4130 O   0  0  0  0  0  0  0  0  0  0  0  0
  -25.0050  -34.0470   25.0180 H   0  0  0  0  0  0  0  0  0  0  0  0
  -24.1940  -36.7290   23.1060 C   0  0  0  0  0  1  0  0  0  0  0  0
  -25.4440  -36.3270   23.9060 C   0  0  0  0  0  3  0  0  0  0  0  0
  -27.5890  -37.2110   24.7080 C   0  0  0  0  0  1  0  0  0  0  0  0
  -26.4770  -37.3770   23.7760 N   0  0  0  0  0  0  0  0  0  0  0  0
  -26.0750  -38.2990   23.9240 H   0  0  0  0  0  0  0  0  0  0  0  0
  1  2  1  0
  1 47  1  0
  2  4  1  0
  2  3  1  0
  5  2  1  0
  5  6  1  0
  6  7  1  0
  8 17  1  0
  8  7  1  0
  9 17  1  0
 10 15  1  0
 11 12  1  0
 11 10  1  0
 13 12  1  0
 13 22  1  0
 13 14  1  0
 15  9  1  0
 15 14  1  0
 16  9  2  0
 17 18  1  0
 19 20  2  0
 20 39  1  0
 21 20  1  0
 21 24  1  0
 22 19  1  0
 22 23  1  0
 23 21  2  0
 24 25  1  0
 25 26  2  0
 27 30  1  0
 27 26  1  0
 28 27  2  0
 29 28  1  0
 29 24  2  0
 30 31  1  0
 31 32  1  0
 32 33  2  0
 34 33  1  0
 34 38  1  0
 35 34  2  0
 36 31  2  0
 36 35  1  0
 37 36  1  0
 39 40  1  0
 40 43  1  0
 40 42  1  0
 41 39  2  0
 44 19  1  0
 44 45  1  0
 46 44  1  0
 47 48  1  0
 49 50  1  0
 49 47  1  0
 51 62  2  0
 52 50  1  0
 52 57  1  0
 53 61  1  0
 53 63  1  0
 54 60  1  0
 54 56  1  0
 55 61  1  0
 56 55  1  0
 57 56  2  0
 58 59  1  0
 58 52  2  0
 59 54  2  0
 60 53  1  0
 61 51  1  0
 63 65  2  0
 64 63  1  0
 66 64  1  0
 67 76  2  0
 67 72  1  0
 68 64  1  0
 68 72  1  0
 69 68  1  0
 70 71  1  0
 70 69  1  0
 71 67  1  0
 72 73  2  0
 73 74  1  0
 75 74  2  0
 76 75  1  0
 77 51  1  0
 77 82  1  0
 77 78  1  0
 78 81  1  1
 78 79  1  0
 80 78  1  0
 82 85  1  0
 83 87  1  0
 83 82  1  0
 84 83  2  0
 87 86  1  0
 89 87  1  0
 89 90  1  0
 89 88  1  0
M  ISO  4   9 100  17 100  49 101  50 101
M  END
>  <TORSDO>  (46) 
F 23

>  <SCORE>  (46) 
-12.445

>  <name>  (46) 
45

>  <ligand_id>  (46) 
45

>  <original_smiles>  (46) 
[H]c1c([H])c([H])c2c(c1[H])C([H])([H])C([H])([H])C([H])([H])C2([H])N([H])C(=O)C1([H])N(C(=O)C([H])(N([H])C(=O)C([H])(N([H])C([H])([H])[H])C([H])([H])[H])C(C([H])([H])[H])(C([H])([H])[H])C([H])([H])[H])C([H])([H])c2c([H])c(OC([H])([H])C([H])(F)C([H])([H])[N+]([H])([H])C([H])([H])C([H])([H])C([H])([H])C([H])([H])N([H])C(=O)N3C([H])([H])C([H])([H])C([H])([H])C([H])(n4nc(-c5c([H])c([H])c(Oc6c([H])c([H])c(F)c([H])c6F)c([H])c5[H])c(C(=O)N([H])[H])c4N([H])[H])C3([H])[H])c([H])c([H])c2C1([H])[H]

>  <smiles>  (46) 
[H]c1c([H])c([H])c2c(c1[H])C([H])([H])C([H])([H])C([H])([H])C2([H])N([H])C(=O)C1([H])N(C(=O)C([H])(N([H])C(=O)C([H])(N([H])C([H])([H])[H])C([H])([H])[H])C(C([H])([H])[H])(C([H])([H])[H])C([H])([H])[H])C([H])([H])c2c([H])c(OC([H])([H])C([H])(F)C([H])([H])[N+]([H])([H])C([H])([H])C([H])([H])C([H])([H])C([H])([H])N([H])C(=O)N3C([H])([H])C([H])([H])C([H])([H])C([H])(n4nc(-c5c([H])c([H])c(Oc6c([H])c([H])c(F)c([H])c6F)c([H])c5[H])c(C(=O)N([H])[H])c4N([H])[H])C3([H])[H])c([H])c([H])c2C1([H])[H]

$$$$
46:0:0
     RDKit          3D

 93101  0  0  1  0  0  0  0  0999 V2000
  -30.0630  -21.8980   20.5880 C   0  0  0  0  0  0  0  0  0  0  0  0
  -31.2620  -22.1820   20.6880 O   0  0  0  0  0  0  0  0  0  0  0  0
  -29.0140  -22.9280   20.1580 C   0  0  0  0  0  2  0  0  0  0  0  0
  -29.3480  -24.4150   20.4270 C   0  0  0  0  0  3  0  0  0  0  0  0
  -29.5190  -24.6020   21.7390 F   0  0  0  0  0  0  0  0  0  0  0  0
  -28.1850  -25.2980   19.9400 C   0  0  0  0  0  2  0  0  0  0  0  0
  -28.3420  -26.7060   20.1750 O   0  0  0  0  0  0  0  0  0  0  0  0
  -24.5650  -31.8980   23.2610 C   0  0  0  0  0  0  0  0  0  0  0  0
  -27.1760  -27.4530   20.1460 C   0  0  0  0  0  0  0  0  0  0  0  0
  -23.3470  -30.5110   21.6180 C   0  0  0  0  0  3  0  0  0  0  0  0
  -24.7890  -28.9790   20.1790 C   0  0  0  0  0  0  0  0  0  0  0  0
  -25.8780  -30.8540   21.4170 C   0  0  0  0  0  2  0  0  0  0  0  0
  -25.9540  -29.4890   20.7660 C   0  0  0  0  0  0  0  0  0  0  0  0
  -27.1500  -28.7330   20.7470 C   0  0  0  0  0  3  0  0  0  0  0  0
  -25.9880  -26.9700   19.5410 C   0  0  0  0  0  3  0  0  0  0  0  0
  -24.8020  -27.7190   19.5640 C   0  0  0  0  0  3  0  0  0  0  0  0
  -23.5490  -29.8410   20.2340 C   0  0  0  0  0  2  0  0  0  0  0  0
  -24.6150  -31.1020   22.1560 N   0  0  0  0  0  0  0  0  0  0  0  0
  -23.4870  -32.1740   23.8030 O   0  0  0  0  0  0  0  0  0  0  0  0
  -22.6960  -29.4850   22.5740 C   0  0  0  0  0  0  0  0  0  0  0  0
  -21.3700  -29.3080   22.4490 N   0  0  0  0  0  0  0  0  0  0  0  0
  -23.3790  -28.8530   23.3840 O   0  0  0  0  0  0  0  0  0  0  0  0
  -20.8810  -29.8710   21.7660 H   0  0  0  0  0  0  0  0  0  0  0  0
  -17.9900  -28.1300   22.9480 C   0  0  0  0  0  0  0  0  0  0  0  0
  -20.5510  -28.3720   23.2160 C   0  0  0  0  0  3  0  0  0  0  0  0
  -20.6430  -26.9430   22.6340 C   0  0  0  0  0  2  0  0  0  0  0  0
  -19.5370  -26.6300   21.6200 C   0  0  0  0  0  2  0  0  0  0  0  0
  -18.1570  -26.7820   22.2680 C   0  0  0  0  0  2  0  0  0  0  0  0
  -19.1140  -28.8840   23.3780 C   0  0  0  0  0  0  0  0  0  0  0  0
  -18.9040  -30.1480   23.9720 C   0  0  0  0  0  3  0  0  0  0  0  0
  -17.6040  -30.6570   24.1410 C   0  0  0  0  0  3  0  0  0  0  0  0
  -16.4940  -29.8990   23.7290 C   0  0  0  0  0  3  0  0  0  0  0  0
  -16.6890  -28.6380   23.1370 C   0  0  0  0  0  3  0  0  0  0  0  0
  -25.8570  -32.5200   23.8780 C   0  0  0  0  0  3  0  0  0  0  0  0
  -25.5550  -33.9180   24.2160 N   0  0  0  0  0  0  0  0  0  0  0  0
  -25.8720  -34.9710   23.4500 C   0  0  0  0  0  0  0  0  0  0  0  0
  -26.5230  -34.8680   22.4060 O   0  0  0  0  0  0  0  0  0  0  0  0
  -24.9760  -34.0730   25.0280 H   0  0  0  0  0  0  0  0  0  0  0  0
  -24.1260  -36.7530   23.1410 C   0  0  0  0  0  1  0  0  0  0  0  0
  -25.3920  -36.3590   23.9180 C   0  0  0  0  0  3  0  0  0  0  0  0
  -27.5470  -37.2510   24.6830 C   0  0  0  0  0  1  0  0  0  0  0  0
  -26.4160  -37.4150   23.7730 N   0  0  0  0  0  0  0  0  0  0  0  0
  -26.0110  -38.3340   23.9350 H   0  0  0  0  0  0  0  0  0  0  0  0
  -26.3790  -31.7390   25.1450 C   0  0  1  0  0  0  0  0  0  0  0  0
  -25.2920  -31.4930   26.2170 C   0  0  0  0  0  1  0  0  0  0  0  0
  -26.9600  -30.3650   24.7400 C   0  0  0  0  0  1  0  0  0  0  0  0
  -27.5330  -32.5270   25.8090 C   0  0  0  0  0  1  0  0  0  0  0  0
  -29.5480  -20.4790   20.8620 C   0  0  0  0  0  2  0  0  0  0  0  0
  -30.6900  -19.5380   20.9080 N   0  0  0  0  0  4  0  0  0  0  0  0
  -31.0630  -19.4580   19.9760 H   0  0  0  0  0  0  0  0  0  0  0  0
  -31.3990  -19.9940   21.4610 H   0  0  0  0  0  0  0  0  0  0  0  0
  -30.6110  -14.4410   20.1340 C   0  0  0  0  0  0  0  0  0  0  0  0
  -30.1720  -12.3930   18.8150 C   0  0  0  0  0  2  0  0  0  0  0  0
  -29.1530  -12.6540   17.6880 C   0  0  0  0  0  2  0  0  0  0  0  0
  -27.7120  -12.4810   18.2040 C   0  0  0  0  0  2  0  0  0  0  0  0
  -27.4640  -13.2600   19.5190 C   0  0  0  0  0  3  0  0  0  0  0  0
  -28.5830  -12.9650   20.5480 C   0  0  0  0  0  2  0  0  0  0  0  0
  -29.8740  -13.3100   19.9310 N   0  0  0  0  0  0  0  0  0  0  0  0
  -31.6330  -14.6730   19.4760 O   0  0  0  0  0  0  0  0  0  0  0  0
  -31.6610  -17.3030   21.5030 C   0  0  0  0  0  2  0  0  0  0  0  0
  -29.2630  -17.4570   20.7330 C   0  0  0  0  0  2  0  0  0  0  0  0
  -31.3510  -15.8690   22.0010 C   0  0  0  0  0  2  0  0  0  0  0  0
  -29.0560  -16.0310   21.2870 C   0  0  0  0  0  2  0  0  0  0  0  0
  -30.3980  -18.1960   21.4790 C   0  0  0  0  0  3  0  0  0  0  0  0
  -30.2930  -15.2340   21.1960 N   0  0  0  0  0  0  0  0  0  0  0  0
  -25.1110  -13.8690   20.3690 C   0  0  0  0  0  0  0  0  0  0  0  0
  -24.0660  -13.0920   20.7910 C   0  0  0  0  0  0  0  0  0  0  0  0
  -24.5260  -11.7410   20.7190 C   0  0  0  0  0  0  0  0  0  0  0  0
  -26.1400  -12.9880   20.0690 N   0  0  0  0  0  0  0  0  0  0  0  0
  -25.7930  -11.7050   20.3360 N   0  0  0  0  0  0  0  0  0  0  0  0
  -23.8140  -10.4760   20.9350 C   0  0  0  0  0  0  0  0  0  0  0  0
  -24.2820   -9.5140   21.8560 C   0  0  0  0  0  3  0  0  0  0  0  0
  -23.5720   -8.3110   22.0580 C   0  0  0  0  0  3  0  0  0  0  0  0
  -22.3780   -8.0630   21.3390 C   0  0  0  0  0  0  0  0  0  0  0  0
  -21.9290   -9.0140   20.4060 C   0  0  0  0  0  3  0  0  0  0  0  0
  -22.6400  -10.2090   20.2020 C   0  0  0  0  0  3  0  0  0  0  0  0
  -21.6360   -6.9130   21.4520 O   0  0  0  0  0  0  0  0  0  0  0  0
  -21.6100   -6.1840   22.6140 C   0  0  0  0  0  0  0  0  0  0  0  0
  -21.2160   -6.7540   23.8440 C   0  0  0  0  0  3  0  0  0  0  0  0
  -21.1380   -5.9510   24.9990 C   0  0  0  0  0  3  0  0  0  0  0  0
  -21.4460   -4.5800   24.9260 C   0  0  0  0  0  0  0  0  0  0  0  0
  -21.8350   -4.0090   23.7010 C   0  0  0  0  0  3  0  0  0  0  0  0
  -21.9140   -4.8100   22.5470 C   0  0  0  0  0  0  0  0  0  0  0  0
  -22.2690   -4.2500   21.3660 F   0  0  0  0  0  0  0  0  0  0  0  0
  -21.3640   -3.8060   26.0330 F   0  0  0  0  0  0  0  0  0  0  0  0
  -22.6860  -13.5630   21.1480 C   0  0  0  0  0  0  0  0  0  0  0  0
  -22.0100  -12.8550   22.0470 N   0  0  0  0  0  0  0  0  0  0  0  0
  -22.2160  -14.5930   20.6650 O   0  0  0  0  0  0  0  0  0  0  0  0
  -22.4020  -12.0210   22.4570 H   0  0  0  0  0  0  0  0  0  0  0  0
  -21.0870  -13.1540   22.3290 H   0  0  0  0  0  0  0  0  0  0  0  0
  -25.2630  -15.2420   20.1950 N   0  0  0  0  0  0  0  0  0  0  0  0
  -24.5000  -15.8910   20.3520 H   0  0  0  0  0  0  0  0  0  0  0  0
  -26.0810  -15.6830   19.7980 H   0  0  0  0  0  0  0  0  0  0  0  0
  1  2  2  0
  1 48  1  0
  3  4  1  0
  3  1  1  0
  4  5  1  0
  6  7  1  0
  6  4  1  0
  8 19  2  0
  9  7  1  0
  9 14  1  0
 10 18  1  0
 10 20  1  0
 11 17  1  0
 11 13  1  0
 12 18  1  0
 13 12  1  0
 14 13  2  0
 15 16  1  0
 15  9  2  0
 16 11  2  0
 17 10  1  0
 18  8  1  0
 20 22  2  0
 21 20  1  0
 23 21  1  0
 24 33  2  0
 24 29  1  0
 25 21  1  0
 25 29  1  0
 26 25  1  0
 27 28  1  0
 27 26  1  0
 28 24  1  0
 29 30  2  0
 30 31  1  0
 32 31  2  0
 33 32  1  0
 34  8  1  0
 34 35  1  0
 34 44  1  0
 35 38  1  0
 36 40  1  0
 36 35  1  0
 37 36  2  0
 40 39  1  0
 42 40  1  0
 42 43  1  0
 42 41  1  0
 44 47  1  1
 44 45  1  0
 46 44  1  0
 48 49  1  0
 49 51  1  0
 50 49  1  0
 52 65  1  0
 53 58  1  0
 54 55  1  0
 54 53  1  0
 56 55  1  0
 56 69  1  0
 56 57  1  0
 58 52  1  0
 58 57  1  0
 59 52  2  0
 60 62  1  0
 61 63  1  0
 61 64  1  0
 64 49  1  0
 64 60  1  0
 65 63  1  0
 65 62  1  0
 66 67  2  0
 67 86  1  0
 68 67  1  0
 68 71  1  0
 69 70  1  0
 69 66  1  0
 70 68  2  0
 71 72  1  0
 72 73  2  0
 74 77  1  0
 74 73  1  0
 75 74  2  0
 76 75  1  0
 76 71  2  0
 77 78  1  0
 78 79  1  0
 79 80  2  0
 81 80  1  0
 81 85  1  0
 82 81  2  0
 83 78  2  0
 83 82  1  0
 84 83  1  0
 86 87  1  0
 87 90  1  0
 87 89  1  0
 88 86  2  0
 91 92  1  0
 91 66  1  0
 93 91  1  0
M  ISO  4   6 101   7 101  52 100  65 100
M  END
>  <TORSDO>  (47) 
F 21

>  <SCORE>  (47) 
-12.867

>  <name>  (47) 
46

>  <ligand_id>  (47) 
46

>  <original_smiles>  (47) 
[H]c1c([H])c([H])c2c(c1[H])C([H])([H])C([H])([H])C([H])([H])C2([H])N([H])C(=O)C1([H])N(C(=O)C([H])(N([H])C(=O)C([H])(N([H])C([H])([H])[H])C([H])([H])[H])C(C([H])([H])[H])(C([H])([H])[H])C([H])([H])[H])C([H])([H])c2c([H])c(OC([H])([H])C([H])(F)C([H])([H])C(=O)C([H])([H])[N+]([H])([H])C3([H])C([H])([H])C([H])([H])N(C(=O)N4C([H])([H])C([H])([H])C([H])([H])C([H])(n5nc(-c6c([H])c([H])c(Oc7c([H])c([H])c(F)c([H])c7F)c([H])c6[H])c(C(=O)N([H])[H])c5N([H])[H])C4([H])[H])C([H])([H])C3([H])[H])c([H])c([H])c2C1([H])[H]

>  <smiles>  (47) 
[H]c1c([H])c([H])c2c(c1[H])C([H])([H])C([H])([H])C([H])([H])C2([H])N([H])C(=O)C1([H])N(C(=O)C([H])(N([H])C(=O)C([H])(N([H])C([H])([H])[H])C([H])([H])[H])C(C([H])([H])[H])(C([H])([H])[H])C([H])([H])[H])C([H])([H])c2c([H])c(OC([H])([H])C([H])(F)C([H])([H])C(=O)C([H])([H])[N+]([H])([H])C3([H])C([H])([H])C([H])([H])N(C(=O)N4C([H])([H])C([H])([H])C([H])([H])C([H])(n5nc(-c6c([H])c([H])c(Oc7c([H])c([H])c(F)c([H])c7F)c([H])c6[H])c(C(=O)N([H])[H])c5N([H])[H])C4([H])[H])C([H])([H])C3([H])[H])c([H])c([H])c2C1([H])[H]

$$$$
47:0:0
     RDKit          3D

 95103  0  0  1  0  0  0  0  0999 V2000
  -29.0240  -18.0410   20.7870 C   0  0  0  0  0  2  0  0  0  0  0  0
  -30.8670  -20.3030   21.0760 C   0  0  0  0  0  2  0  0  0  0  0  0
  -29.3560  -20.5470   20.8290 C   0  0  0  0  0  3  0  0  0  0  0  0
  -28.7870  -19.3610   20.0240 C   0  0  0  0  0  3  0  0  0  0  0  0
  -30.5290  -17.8110   21.0880 C   0  0  0  0  0  3  0  0  0  0  0  0
  -31.1110  -19.0080   21.7590 N   0  0  0  0  0  4  0  0  0  0  0  0
  -30.7490  -19.0760   22.6970 H   0  0  0  0  0  0  0  0  0  0  0  0
  -32.1080  -18.8850   21.8430 H   0  0  0  0  0  0  0  0  0  0  0  0
  -29.0740  -21.8010   20.1040 N   0  0  0  0  0  0  0  0  0  0  0  0
  -28.1240  -21.6840   19.7380 H   0  0  0  0  0  0  0  0  0  0  0  0
  -29.1420  -23.0410   20.9030 C   0  0  0  0  0  2  0  0  0  0  0  0
  -28.8030  -24.3050   20.0720 C   0  0  0  0  0  2  0  0  0  0  0  0
  -28.4910  -25.5520   20.9370 C   0  0  0  0  0  2  0  0  0  0  0  0
  -28.4480  -26.7620   20.1640 O   0  0  0  0  0  0  0  0  0  0  0  0
  -24.5900  -31.9020   23.2400 C   0  0  0  0  0  0  0  0  0  0  0  0
  -27.2660  -27.4660   20.1980 C   0  0  0  0  0  0  0  0  0  0  0  0
  -23.3910  -30.4910   21.5950 C   0  0  0  0  0  3  0  0  0  0  0  0
  -24.8580  -28.9470   20.1870 C   0  0  0  0  0  0  0  0  0  0  0  0
  -25.9120  -30.8620   21.4000 C   0  0  0  0  0  2  0  0  0  0  0  0
  -26.0080  -29.4850   20.7780 C   0  0  0  0  0  0  0  0  0  0  0  0
  -27.2160  -28.7530   20.7800 C   0  0  0  0  0  3  0  0  0  0  0  0
  -26.1020  -26.9340   19.6040 C   0  0  0  0  0  3  0  0  0  0  0  0
  -24.9000  -27.6690   19.5980 C   0  0  0  0  0  3  0  0  0  0  0  0
  -23.6080  -29.7990   20.2210 C   0  0  0  0  0  2  0  0  0  0  0  0
  -24.6490  -31.0990   22.1390 N   0  0  0  0  0  0  0  0  0  0  0  0
  -23.5080  -32.1760   23.7750 O   0  0  0  0  0  0  0  0  0  0  0  0
  -22.7390  -29.4760   22.5610 C   0  0  0  0  0  0  0  0  0  0  0  0
  -21.4160  -29.2960   22.4310 N   0  0  0  0  0  0  0  0  0  0  0  0
  -23.4220  -28.8520   23.3770 O   0  0  0  0  0  0  0  0  0  0  0  0
  -20.9290  -29.8520   21.7420 H   0  0  0  0  0  0  0  0  0  0  0  0
  -18.0400  -28.1160   22.9350 C   0  0  0  0  0  0  0  0  0  0  0  0
  -20.5970  -28.3600   23.2010 C   0  0  0  0  0  3  0  0  0  0  0  0
  -20.6930  -26.9310   22.6190 C   0  0  0  0  0  2  0  0  0  0  0  0
  -19.5890  -26.6170   21.6060 C   0  0  0  0  0  2  0  0  0  0  0  0
  -18.2090  -26.7670   22.2530 C   0  0  0  0  0  2  0  0  0  0  0  0
  -19.1630  -28.8690   23.3650 C   0  0  0  0  0  0  0  0  0  0  0  0
  -18.9540  -30.1320   23.9620 C   0  0  0  0  0  3  0  0  0  0  0  0
  -17.6530  -30.6420   24.1310 C   0  0  0  0  0  3  0  0  0  0  0  0
  -16.5430  -29.8850   23.7170 C   0  0  0  0  0  3  0  0  0  0  0  0
  -16.7380  -28.6220   23.1280 C   0  0  0  0  0  3  0  0  0  0  0  0
  -25.8760  -32.5310   23.8620 C   0  0  0  0  0  3  0  0  0  0  0  0
  -25.5670  -33.9280   24.1950 N   0  0  0  0  0  0  0  0  0  0  0  0
  -25.9010  -34.9820   23.4360 C   0  0  0  0  0  0  0  0  0  0  0  0
  -26.5760  -34.8790   22.4090 O   0  0  0  0  0  0  0  0  0  0  0  0
  -24.9670  -34.0820   24.9920 H   0  0  0  0  0  0  0  0  0  0  0  0
  -24.1720  -36.7760   23.0710 C   0  0  0  0  0  1  0  0  0  0  0  0
  -25.4080  -36.3690   23.8910 C   0  0  0  0  0  3  0  0  0  0  0  0
  -27.5350  -37.2570   24.7380 C   0  0  0  0  0  1  0  0  0  0  0  0
  -26.4390  -37.4230   23.7870 N   0  0  0  0  0  0  0  0  0  0  0  0
  -26.0300  -38.3410   23.9320 H   0  0  0  0  0  0  0  0  0  0  0  0
  -26.4000  -31.7540   25.1320 C   0  0  1  0  0  0  0  0  0  0  0  0
  -25.3120  -31.5070   26.2020 C   0  0  0  0  0  1  0  0  0  0  0  0
  -26.9840  -30.3800   24.7250 C   0  0  0  0  0  1  0  0  0  0  0  0
  -27.5480  -32.5480   25.8010 C   0  0  0  0  0  1  0  0  0  0  0  0
  -27.3950  -19.5850   19.8450 O   0  0  0  0  0  0  0  0  0  0  0  0
  -27.0710  -18.9490   19.2130 H   0  0  0  0  0  0  0  0  0  0  0  0
  -30.7870  -16.5360   21.9440 C   0  0  0  0  0  2  0  0  0  0  0  0
  -30.7200  -14.4490   20.5410 C   0  0  0  0  0  0  0  0  0  0  0  0
  -30.3720  -12.3650   19.2540 C   0  0  0  0  0  2  0  0  0  0  0  0
  -29.4240  -12.6070   18.0640 C   0  0  0  0  0  2  0  0  0  0  0  0
  -27.9500  -12.4710   18.4950 C   0  0  0  0  0  2  0  0  0  0  0  0
  -27.6280  -13.2660   19.7880 C   0  0  0  0  0  3  0  0  0  0  0  0
  -28.6840  -12.9960   20.8820 C   0  0  0  0  0  2  0  0  0  0  0  0
  -30.0130  -13.3070   20.3250 N   0  0  0  0  0  0  0  0  0  0  0  0
  -31.7760  -14.7160   19.9620 O   0  0  0  0  0  0  0  0  0  0  0  0
  -30.1820  -15.3010   21.4280 N   0  0  0  0  0  0  0  0  0  0  0  0
  -29.3060  -15.0130   21.8420 H   0  0  0  0  0  0  0  0  0  0  0  0
  -25.2220  -13.8690   20.4850 C   0  0  0  0  0  0  0  0  0  0  0  0
  -24.1550  -13.0980   20.8570 C   0  0  0  0  0  0  0  0  0  0  0  0
  -24.6190  -11.7470   20.8340 C   0  0  0  0  0  0  0  0  0  0  0  0
  -26.2710  -12.9910   20.2630 N   0  0  0  0  0  0  0  0  0  0  0  0
  -25.9100  -11.7080   20.5270 N   0  0  0  0  0  0  0  0  0  0  0  0
  -23.8950  -10.4850   21.0320 C   0  0  0  0  0  0  0  0  0  0  0  0
  -24.3330   -9.5190   21.9640 C   0  0  0  0  0  3  0  0  0  0  0  0
  -23.6100   -8.3210   22.1480 C   0  0  0  0  0  3  0  0  0  0  0  0
  -22.4340   -8.0800   21.3980 C   0  0  0  0  0  0  0  0  0  0  0  0
  -22.0150   -9.0350   20.4550 C   0  0  0  0  0  3  0  0  0  0  0  0
  -22.7380  -10.2240   20.2700 C   0  0  0  0  0  3  0  0  0  0  0  0
  -21.6820   -6.9340   21.4910 O   0  0  0  0  0  0  0  0  0  0  0  0
  -21.6450   -6.1880   22.6430 C   0  0  0  0  0  0  0  0  0  0  0  0
  -21.2320   -6.7400   23.8740 C   0  0  0  0  0  3  0  0  0  0  0  0
  -21.1430   -5.9210   25.0180 C   0  0  0  0  0  3  0  0  0  0  0  0
  -21.4550   -4.5520   24.9300 C   0  0  0  0  0  0  0  0  0  0  0  0
  -21.8600   -3.9980   23.7020 C   0  0  0  0  0  3  0  0  0  0  0  0
  -21.9520   -4.8150   22.5610 C   0  0  0  0  0  0  0  0  0  0  0  0
  -22.3230   -4.2730   21.3760 F   0  0  0  0  0  0  0  0  0  0  0  0
  -21.3610   -3.7620   26.0250 F   0  0  0  0  0  0  0  0  0  0  0  0
  -22.7560  -13.5750   21.1240 C   0  0  0  0  0  0  0  0  0  0  0  0
  -22.0250  -12.8840   21.9920 N   0  0  0  0  0  0  0  0  0  0  0  0
  -22.3180  -14.5970   20.5990 O   0  0  0  0  0  0  0  0  0  0  0  0
  -22.3890  -12.0580   22.4430 H   0  0  0  0  0  0  0  0  0  0  0  0
  -21.0850  -13.1880   22.2070 H   0  0  0  0  0  0  0  0  0  0  0  0
  -25.3830  -15.2400   20.3020 N   0  0  0  0  0  0  0  0  0  0  0  0
  -24.6120  -15.8910   20.4140 H   0  0  0  0  0  0  0  0  0  0  0  0
  -26.2340  -15.6840   19.9830 H   0  0  0  0  0  0  0  0  0  0  0  0
  1  5  1  0
  2  6  1  0
  3  9  1  0
  3  2  1  0
  4 55  1  0
  4  1  1  0
  4  3  1  0
  5  6  1  0
  5 57  1  0
  6  8  1  0
  6  7  1  0
  9 11  1  0
 10  9  1  0
 12 11  1  0
 12 13  1  0
 14 16  1  0
 14 13  1  0
 15 26  2  0
 16 21  1  0
 17 25  1  0
 17 27  1  0
 18 24  1  0
 18 20  1  0
 19 25  1  0
 20 21  2  0
 20 19  1  0
 22 16  2  0
 23 22  1  0
 23 18  2  0
 24 17  1  0
 25 15  1  0
 27 29  2  0
 28 27  1  0
 30 28  1  0
 31 40  2  0
 31 36  1  0
 32 28  1  0
 32 36  1  0
 33 32  1  0
 34 35  1  0
 34 33  1  0
 35 31  1  0
 36 37  2  0
 37 38  1  0
 39 38  2  0
 40 39  1  0
 41 15  1  0
 41 42  1  0
 41 51  1  0
 42 45  1  0
 43 47  1  0
 43 42  1  0
 44 43  2  0
 47 46  1  0
 49 47  1  0
 49 50  1  0
 49 48  1  0
 51 54  1  1
 51 52  1  0
 53 51  1  0
 56 55  1  0
 58 66  1  0
 59 64  1  0
 60 61  1  0
 60 59  1  0
 62 61  1  0
 62 71  1  0
 62 63  1  0
 64 58  1  0
 64 63  1  0
 65 58  2  0
 66 67  1  0
 66 57  1  0
 68 69  2  0
 69 88  1  0
 70 69  1  0
 70 73  1  0
 71 68  1  0
 71 72  1  0
 72 70  2  0
 73 74  1  0
 74 75  2  0
 76 79  1  0
 76 75  1  0
 77 76  2  0
 78 77  1  0
 78 73  2  0
 79 80  1  0
 80 81  1  0
 81 82  2  0
 83 82  1  0
 83 87  1  0
 84 83  2  0
 85 80  2  0
 85 84  1  0
 86 85  1  0
 88 89  1  0
 89 92  1  0
 89 91  1  0
 90 88  2  0
 93 94  1  0
 93 68  1  0
 95 93  1  0
M  ISO  4  13 101  14 101  58 100  66 100
M  END
>  <TORSDO>  (48) 
F 22

>  <SCORE>  (48) 
-13.762

>  <name>  (48) 
47

>  <ligand_id>  (48) 
47

>  <original_smiles>  (48) 
[H]OC1([H])C([H])([H])C([H])(C([H])([H])N([H])C(=O)N2C([H])([H])C([H])([H])C([H])([H])C([H])(n3nc(-c4c([H])c([H])c(Oc5c([H])c([H])c(F)c([H])c5F)c([H])c4[H])c(C(=O)N([H])[H])c3N([H])[H])C2([H])[H])[N+]([H])([H])C([H])([H])C1([H])N([H])C([H])([H])C([H])([H])C([H])([H])Oc1c([H])c([H])c2c(c1[H])C([H])([H])N(C(=O)C([H])(N([H])C(=O)C([H])(N([H])C([H])([H])[H])C([H])([H])[H])C(C([H])([H])[H])(C([H])([H])[H])C([H])([H])[H])C([H])(C(=O)N([H])C1([H])c3c([H])c([H])c([H])c([H])c3C([H])([H])C([H])([H])C1([H])[H])C2([H])[H]

>  <smiles>  (48) 
[H]OC1([H])C([H])([H])C([H])(C([H])([H])N([H])C(=O)N2C([H])([H])C([H])([H])C([H])([H])C([H])(n3nc(-c4c([H])c([H])c(Oc5c([H])c([H])c(F)c([H])c5F)c([H])c4[H])c(C(=O)N([H])[H])c3N([H])[H])C2([H])[H])[N+]([H])([H])C([H])([H])C1([H])N([H])C([H])([H])C([H])([H])C([H])([H])Oc1c([H])c([H])c2c(c1[H])C([H])([H])N(C(=O)C([H])(N([H])C(=O)C([H])(N([H])C([H])([H])[H])C([H])([H])[H])C(C([H])([H])[H])(C([H])([H])[H])C([H])([H])[H])C([H])(C(=O)N([H])C1([H])c3c([H])c([H])c([H])c([H])c3C([H])([H])C([H])([H])C1([H])[H])C2([H])[H]

$$$$
48:0:0
     RDKit          3D

 93101  0  0  1  0  0  0  0  0999 V2000
  -28.8240  -18.6140   20.7610 C   0  0  0  0  0  2  0  0  0  0  0  0
  -29.1800  -19.7990   19.8190 C   0  0  0  0  0  2  0  0  0  0  0  0
  -31.1400  -20.3530   21.1580 C   0  0  0  0  0  2  0  0  0  0  0  0
  -30.0190  -18.0640   21.5810 C   0  0  0  0  0  3  0  0  0  0  0  0
  -30.7980  -19.2610   22.2000 C   0  0  0  0  0  3  0  0  0  0  0  0
  -32.0240  -18.8500   23.0370 C   0  0  0  0  0  1  0  0  0  0  0  0
  -29.8980  -20.8840   20.5430 N   0  0  1  0  0  4  0  0  0  0  0  0
  -29.3140  -21.1570   21.3210 H   0  0  0  0  0  0  0  0  0  0  0  0
  -30.8830  -17.0340   20.7970 C   0  0  0  0  0  2  0  0  0  0  0  0
  -30.8230  -14.6830   20.0250 C   0  0  0  0  0  0  0  0  0  0  0  0
  -30.4450  -12.5020   18.9410 C   0  0  0  0  0  2  0  0  0  0  0  0
  -29.4420  -12.6580   17.7810 C   0  0  0  0  0  2  0  0  0  0  0  0
  -27.9960  -12.5210   18.2950 C   0  0  0  0  0  2  0  0  0  0  0  0
  -27.7140  -13.3870   19.5540 C   0  0  0  0  0  3  0  0  0  0  0  0
  -28.8350  -13.2300   20.6070 C   0  0  0  0  0  2  0  0  0  0  0  0
  -30.1190  -13.5210   19.9510 N   0  0  0  0  0  0  0  0  0  0  0  0
  -31.9190  -14.8330   19.4810 O   0  0  0  0  0  0  0  0  0  0  0  0
  -30.2220  -15.7290   20.6200 N   0  0  0  0  0  0  0  0  0  0  0  0
  -29.2890  -15.6010   20.9820 H   0  0  0  0  0  0  0  0  0  0  0  0
  -25.3600  -13.9730   20.4140 C   0  0  0  0  0  0  0  0  0  0  0  0
  -24.3200  -13.1910   20.8380 C   0  0  0  0  0  0  0  0  0  0  0  0
  -24.7860  -11.8420   20.7740 C   0  0  0  0  0  0  0  0  0  0  0  0
  -26.3950  -13.1000   20.1150 N   0  0  0  0  0  0  0  0  0  0  0  0
  -26.0560  -11.8130   20.3890 N   0  0  0  0  0  0  0  0  0  0  0  0
  -24.0790  -10.5740   20.9980 C   0  0  0  0  0  0  0  0  0  0  0  0
  -24.5290   -9.6360   21.9530 C   0  0  0  0  0  3  0  0  0  0  0  0
  -23.8190   -8.4330   22.1640 C   0  0  0  0  0  3  0  0  0  0  0  0
  -22.6480   -8.1590   21.4200 C   0  0  0  0  0  0  0  0  0  0  0  0
  -22.2170   -9.0870   20.4550 C   0  0  0  0  0  3  0  0  0  0  0  0
  -22.9260  -10.2800   20.2410 C   0  0  0  0  0  3  0  0  0  0  0  0
  -21.9090   -7.0060   21.5380 O   0  0  0  0  0  0  0  0  0  0  0  0
  -21.8320   -6.3210   22.7230 C   0  0  0  0  0  0  0  0  0  0  0  0
  -21.2960   -6.9100   23.8900 C   0  0  0  0  0  3  0  0  0  0  0  0
  -21.1700   -6.1480   25.0700 C   0  0  0  0  0  3  0  0  0  0  0  0
  -21.5680   -4.7970   25.0820 C   0  0  0  0  0  0  0  0  0  0  0  0
  -22.0970   -4.2090   23.9210 C   0  0  0  0  0  3  0  0  0  0  0  0
  -22.2250   -4.9670   22.7430 C   0  0  0  0  0  0  0  0  0  0  0  0
  -22.7150   -4.3890   21.6200 F   0  0  0  0  0  0  0  0  0  0  0  0
  -21.4410   -4.0620   26.2130 F   0  0  0  0  0  0  0  0  0  0  0  0
  -22.9370  -13.6590   21.1930 C   0  0  0  0  0  0  0  0  0  0  0  0
  -22.2610  -12.9490   22.0900 N   0  0  0  0  0  0  0  0  0  0  0  0
  -22.4670  -14.6870   20.7100 O   0  0  0  0  0  0  0  0  0  0  0  0
  -22.6540  -12.1170   22.5040 H   0  0  0  0  0  0  0  0  0  0  0  0
  -21.3340  -13.2430   22.3660 H   0  0  0  0  0  0  0  0  0  0  0  0
  -25.5050  -15.3450   20.2320 N   0  0  0  0  0  0  0  0  0  0  0  0
  -24.7410  -15.9920   20.4000 H   0  0  0  0  0  0  0  0  0  0  0  0
  -26.3250  -15.7910   19.8420 H   0  0  0  0  0  0  0  0  0  0  0  0
  -30.1150  -22.1390   19.7620 C   0  0  0  0  0  2  0  0  0  0  0  0
  -28.8720  -23.0660   19.7190 C   0  0  0  0  0  2  0  0  0  0  0  0
  -29.1830  -24.5630   19.4450 C   0  0  0  0  0  3  0  0  0  0  0  0
  -29.9110  -24.6600   18.3320 F   0  0  0  0  0  0  0  0  0  0  0  0
  -27.8980  -25.4090   19.2760 C   0  0  0  0  0  2  0  0  0  0  0  0
  -28.0430  -26.8020   19.6100 O   0  0  0  0  0  0  0  0  0  0  0  0
  -24.4900  -31.8830   23.1490 C   0  0  0  0  0  0  0  0  0  0  0  0
  -26.8810  -27.5520   19.7010 C   0  0  0  0  0  0  0  0  0  0  0  0
  -23.1710  -30.5800   21.5120 C   0  0  0  0  0  3  0  0  0  0  0  0
  -24.5150  -29.1010   19.9330 C   0  0  0  0  0  0  0  0  0  0  0  0
  -25.6890  -30.9140   21.1900 C   0  0  0  0  0  2  0  0  0  0  0  0
  -25.7150  -29.5730   20.4800 C   0  0  0  0  0  0  0  0  0  0  0  0
  -26.9010  -28.8060   20.3600 C   0  0  0  0  0  3  0  0  0  0  0  0
  -25.6530  -27.1040   19.1550 C   0  0  0  0  0  3  0  0  0  0  0  0
  -24.4780  -27.8640   19.2720 C   0  0  0  0  0  3  0  0  0  0  0  0
  -23.2900  -29.9710   20.0910 C   0  0  0  0  0  2  0  0  0  0  0  0
  -24.4720  -31.1380   22.0080 N   0  0  0  0  0  0  0  0  0  0  0  0
  -23.4460  -32.1410   23.7610 O   0  0  0  0  0  0  0  0  0  0  0  0
  -22.5580  -29.5200   22.4580 C   0  0  0  0  0  0  0  0  0  0  0  0
  -21.2300  -29.3390   22.3780 N   0  0  0  0  0  0  0  0  0  0  0  0
  -23.2740  -28.8650   23.2210 O   0  0  0  0  0  0  0  0  0  0  0  0
  -20.7120  -29.9270   21.7410 H   0  0  0  0  0  0  0  0  0  0  0  0
  -17.8810  -28.0990   22.9280 C   0  0  0  0  0  0  0  0  0  0  0  0
  -20.4430  -28.3700   23.1400 C   0  0  0  0  0  3  0  0  0  0  0  0
  -20.5410  -26.9580   22.5200 C   0  0  0  0  0  2  0  0  0  0  0  0
  -19.4170  -26.6560   21.5250 C   0  0  0  0  0  2  0  0  0  0  0  0
  -18.0510  -26.7700   22.2100 C   0  0  0  0  0  2  0  0  0  0  0  0
  -19.0040  -28.8570   23.3500 C   0  0  0  0  0  0  0  0  0  0  0  0
  -18.7910  -30.1020   23.9810 C   0  0  0  0  0  3  0  0  0  0  0  0
  -17.4880  -30.5880   24.1980 C   0  0  0  0  0  3  0  0  0  0  0  0
  -16.3790  -29.8250   23.7930 C   0  0  0  0  0  3  0  0  0  0  0  0
  -16.5760  -28.5830   23.1620 C   0  0  0  0  0  3  0  0  0  0  0  0
  -25.8170  -32.4660   23.7240 C   0  0  0  0  0  3  0  0  0  0  0  0
  -25.5580  -33.8580   24.1110 N   0  0  0  0  0  0  0  0  0  0  0  0
  -25.9100  -34.9280   23.3870 C   0  0  0  0  0  0  0  0  0  0  0  0
  -26.5590  -34.8440   22.3400 O   0  0  0  0  0  0  0  0  0  0  0  0
  -24.9760  -33.9990   24.9260 H   0  0  0  0  0  0  0  0  0  0  0  0
  -24.2570  -36.8020   23.1040 C   0  0  0  0  0  1  0  0  0  0  0  0
  -25.4740  -36.3120   23.9050 C   0  0  0  0  0  3  0  0  0  0  0  0
  -27.6250  -37.0830   24.8030 C   0  0  0  0  0  1  0  0  0  0  0  0
  -26.5480  -37.3270   23.8480 N   0  0  0  0  0  0  0  0  0  0  0  0
  -26.1740  -38.2570   24.0200 H   0  0  0  0  0  0  0  0  0  0  0  0
  -26.3780  -31.6420   24.9470 C   0  0  1  0  0  0  0  0  0  0  0  0
  -25.3350  -31.3940   26.0600 C   0  0  0  0  0  1  0  0  0  0  0  0
  -26.9080  -30.2670   24.4770 C   0  0  0  0  0  1  0  0  0  0  0  0
  -27.5810  -32.3850   25.5740 C   0  0  0  0  0  1  0  0  0  0  0  0
  1  4  1  0
  2  7  1  0
  2  1  1  0
  3  5  1  0
  4  9  1  0
  4  5  1  0
  5  6  1  0
  7  3  1  0
  7  8  1  1
 10 18  1  0
 11 16  1  0
 12 13  1  0
 12 11  1  0
 14 13  1  0
 14 23  1  0
 14 15  1  0
 16 10  1  0
 16 15  1  0
 17 10  2  0
 18  9  1  0
 18 19  1  0
 20 21  2  0
 21 40  1  0
 22 21  1  0
 22 25  1  0
 23 24  1  0
 23 20  1  0
 24 22  2  0
 25 26  1  0
 26 27  2  0
 28 31  1  0
 28 27  1  0
 29 28  2  0
 30 29  1  0
 30 25  2  0
 31 32  1  0
 32 37  2  0
 32 33  1  0
 33 34  2  0
 34 35  1  0
 35 39  1  0
 36 35  2  0
 37 36  1  0
 38 37  1  0
 40 41  1  0
 41 44  1  0
 41 43  1  0
 42 40  2  0
 45 46  1  0
 45 20  1  0
 47 45  1  0
 48  7  1  0
 49 48  1  0
 50 51  1  0
 50 49  1  0
 52 50  1  0
 52 53  1  0
 53 55  1  0
 54 65  2  0
 55 60  1  0
 56 64  1  0
 56 66  1  0
 57 63  1  0
 57 59  1  0
 58 64  1  0
 59 58  1  0
 60 59  2  0
 61 62  1  0
 61 55  2  0
 62 57  2  0
 63 56  1  0
 64 54  1  0
 66 68  2  0
 67 66  1  0
 69 67  1  0
 70 79  2  0
 70 75  1  0
 71 67  1  0
 71 75  1  0
 72 71  1  0
 73 74  1  0
 73 72  1  0
 74 70  1  0
 75 76  2  0
 76 77  1  0
 78 77  2  0
 79 78  1  0
 80 54  1  0
 80 81  1  0
 80 90  1  0
 81 84  1  0
 82 86  1  0
 82 81  1  0
 83 82  2  0
 86 85  1  0
 88 86  1  0
 88 89  1  0
 88 87  1  0
 90 93  1  1
 90 91  1  0
 92 90  1  0
M  ISO  4  10 100  18 100  52 101  53 101
M  END
>  <TORSDO>  (49) 
F 21

>  <SCORE>  (49) 
-12.269

>  <name>  (49) 
48

>  <ligand_id>  (49) 
48

>  <original_smiles>  (49) 
[H]c1c([H])c([H])c2c(c1[H])C([H])([H])C([H])([H])C([H])([H])C2([H])N([H])C(=O)C1([H])N(C(=O)C([H])(N([H])C(=O)C([H])(N([H])C([H])([H])[H])C([H])([H])[H])C(C([H])([H])[H])(C([H])([H])[H])C([H])([H])[H])C([H])([H])c2c([H])c(OC([H])([H])C([H])(F)C([H])([H])C([H])([H])[N+]3([H])C([H])([H])C([H])([H])C([H])(C([H])([H])N([H])C(=O)N4C([H])([H])C([H])([H])C([H])([H])C([H])(n5nc(-c6c([H])c([H])c(Oc7c([H])c([H])c(F)c([H])c7F)c([H])c6[H])c(C(=O)N([H])[H])c5N([H])[H])C4([H])[H])C([H])(C([H])([H])[H])C3([H])[H])c([H])c([H])c2C1([H])[H]

>  <smiles>  (49) 
[H]c1c([H])c([H])c2c(c1[H])C([H])([H])C([H])([H])C([H])([H])C2([H])N([H])C(=O)C1([H])N(C(=O)C([H])(N([H])C(=O)C([H])(N([H])C([H])([H])[H])C([H])([H])[H])C(C([H])([H])[H])(C([H])([H])[H])C([H])([H])[H])C([H])([H])c2c([H])c(OC([H])([H])C([H])(F)C([H])([H])C([H])([H])[N+]3([H])C([H])([H])C([H])([H])C([H])(C([H])([H])N([H])C(=O)N4C([H])([H])C([H])([H])C([H])([H])C([H])(n5nc(-c6c([H])c([H])c(Oc7c([H])c([H])c(F)c([H])c7F)c([H])c6[H])c(C(=O)N([H])[H])c5N([H])[H])C4([H])[H])C([H])(C([H])([H])[H])C3([H])[H])c([H])c([H])c2C1([H])[H]

$$$$
49:0:0
     RDKit          3D

 95103  0  0  1  0  0  0  0  0999 V2000
  -28.7810  -20.6440   19.4650 C   0  0  0  0  0  2  0  0  0  0  0  0
  -29.0120  -22.0550   19.0820 N   0  0  0  0  0  4  0  0  0  0  0  0
  -28.5060  -22.2470   18.2320 H   0  0  0  0  0  0  0  0  0  0  0  0
  -29.9950  -22.1880   18.8980 H   0  0  0  0  0  0  0  0  0  0  0  0
  -28.5850  -23.0280   20.1140 C   0  0  0  0  0  2  0  0  0  0  0  0
  -28.6850  -24.4860   19.6270 C   0  0  0  0  0  2  0  0  0  0  0  0
  -28.3870  -25.4760   20.7580 C   0  0  0  0  0  2  0  0  0  0  0  0
  -28.4830  -26.8180   20.2840 O   0  0  0  0  0  0  0  0  0  0  0  0
  -24.6370  -31.9560   23.2860 C   0  0  0  0  0  0  0  0  0  0  0  0
  -27.3030  -27.5180   20.2610 C   0  0  0  0  0  0  0  0  0  0  0  0
  -23.4410  -30.5420   21.6440 C   0  0  0  0  0  3  0  0  0  0  0  0
  -24.9070  -29.0030   20.2330 C   0  0  0  0  0  0  0  0  0  0  0  0
  -25.9620  -30.9140   21.4530 C   0  0  0  0  0  2  0  0  0  0  0  0
  -26.0560  -29.5400   20.8250 C   0  0  0  0  0  0  0  0  0  0  0  0
  -27.2590  -28.8050   20.8320 C   0  0  0  0  0  3  0  0  0  0  0  0
  -26.1410  -26.9820   19.6690 C   0  0  0  0  0  3  0  0  0  0  0  0
  -24.9420  -27.7240   19.6470 C   0  0  0  0  0  3  0  0  0  0  0  0
  -23.6590  -29.8560   20.2680 C   0  0  0  0  0  2  0  0  0  0  0  0
  -24.6980  -31.1500   22.1880 N   0  0  0  0  0  0  0  0  0  0  0  0
  -23.5530  -32.2290   23.8180 O   0  0  0  0  0  0  0  0  0  0  0  0
  -22.7870  -29.5230   22.6040 C   0  0  0  0  0  0  0  0  0  0  0  0
  -21.4680  -29.3260   22.4590 N   0  0  0  0  0  0  0  0  0  0  0  0
  -23.4650  -28.9110   23.4340 O   0  0  0  0  0  0  0  0  0  0  0  0
  -20.9830  -29.8640   21.7530 H   0  0  0  0  0  0  0  0  0  0  0  0
  -18.1040  -28.0950   22.9030 C   0  0  0  0  0  0  0  0  0  0  0  0
  -20.6490  -28.3910   23.2300 C   0  0  0  0  0  3  0  0  0  0  0  0
  -20.7900  -26.9530   22.6810 C   0  0  0  0  0  2  0  0  0  0  0  0
  -19.7160  -26.5980   21.6490 C   0  0  0  0  0  2  0  0  0  0  0  0
  -18.3170  -26.7360   22.2570 C   0  0  0  0  0  2  0  0  0  0  0  0
  -19.2020  -28.8790   23.3460 C   0  0  0  0  0  0  0  0  0  0  0  0
  -18.9540  -30.1500   23.9090 C   0  0  0  0  0  3  0  0  0  0  0  0
  -17.6420  -30.6380   24.0330 C   0  0  0  0  0  3  0  0  0  0  0  0
  -16.5560  -29.8510   23.6110 C   0  0  0  0  0  3  0  0  0  0  0  0
  -16.7880  -28.5810   23.0520 C   0  0  0  0  0  3  0  0  0  0  0  0
  -25.9180  -32.5930   23.9070 C   0  0  0  0  0  3  0  0  0  0  0  0
  -25.6080  -33.9900   24.2290 N   0  0  0  0  0  0  0  0  0  0  0  0
  -25.9330  -35.0370   23.4590 C   0  0  0  0  0  0  0  0  0  0  0  0
  -26.5990  -34.9300   22.4260 O   0  0  0  0  0  0  0  0  0  0  0  0
  -25.0140  -34.1470   25.0290 H   0  0  0  0  0  0  0  0  0  0  0  0
  -24.1890  -36.8140   23.1000 C   0  0  0  0  0  1  0  0  0  0  0  0
  -25.4370  -36.4260   23.9070 C   0  0  0  0  0  3  0  0  0  0  0  0
  -27.5690  -37.3340   24.7160 C   0  0  0  0  0  1  0  0  0  0  0  0
  -26.4610  -37.4860   23.7780 N   0  0  0  0  0  0  0  0  0  0  0  0
  -26.0490  -38.4030   23.9280 H   0  0  0  0  0  0  0  0  0  0  0  0
  -26.4360  -31.8250   25.1850 C   0  0  1  0  0  0  0  0  0  0  0  0
  -25.3400  -31.5780   26.2480 C   0  0  0  0  0  1  0  0  0  0  0  0
  -27.0320  -30.4540   24.7880 C   0  0  0  0  0  1  0  0  0  0  0  0
  -27.5830  -32.6270   25.8450 C   0  0  0  0  0  1  0  0  0  0  0  0
  -28.8340  -19.6760   18.2620 C   0  0  0  0  0  2  0  0  0  0  0  0
  -30.2300  -19.3440   17.6940 C   0  0  0  0  0  2  0  0  0  0  0  0
  -33.4760  -18.9620   19.6870 C   0  0  0  0  0  3  0  0  0  0  0  0
  -32.5310  -19.4320   18.7600 C   0  0  0  0  0  3  0  0  0  0  0  0
  -33.1350  -17.9270   20.5800 C   0  0  0  0  0  3  0  0  0  0  0  0
  -30.9060  -17.8240   19.6180 C   0  0  0  0  0  3  0  0  0  0  0  0
  -31.2400  -18.8660   18.7240 C   0  0  0  0  0  0  0  0  0  0  0  0
  -31.8510  -17.3430   20.5490 C   0  0  0  0  0  0  0  0  0  0  0  0
  -31.5240  -16.2000   21.5200 C   0  0  0  0  0  2  0  0  0  0  0  0
  -30.8700  -14.2890   20.0850 C   0  0  0  0  0  0  0  0  0  0  0  0
  -30.3650  -12.1500   18.9860 C   0  0  0  0  0  2  0  0  0  0  0  0
  -29.4150  -12.3500   17.7930 C   0  0  0  0  0  2  0  0  0  0  0  0
  -27.9560  -12.2420   18.2640 C   0  0  0  0  0  2  0  0  0  0  0  0
  -27.6600  -13.1420   19.4940 C   0  0  0  0  0  3  0  0  0  0  0  0
  -28.7450  -12.9940   20.5930 C   0  0  0  0  0  2  0  0  0  0  0  0
  -30.0750  -13.1900   19.9840 N   0  0  0  0  0  0  0  0  0  0  0  0
  -31.8590  -14.4620   19.3720 O   0  0  0  0  0  0  0  0  0  0  0  0
  -30.5920  -15.1570   21.0630 N   0  0  0  0  0  0  0  0  0  0  0  0
  -29.7940  -14.9560   21.6460 H   0  0  0  0  0  0  0  0  0  0  0  0
  -25.2940  -13.7970   20.2720 C   0  0  0  0  0  0  0  0  0  0  0  0
  -24.2210  -13.0480   20.6780 C   0  0  0  0  0  0  0  0  0  0  0  0
  -24.6520  -11.6860   20.6330 C   0  0  0  0  0  0  0  0  0  0  0  0
  -26.3150  -12.8950   20.0160 N   0  0  0  0  0  0  0  0  0  0  0  0
  -25.9330  -11.6200   20.2890 N   0  0  0  0  0  0  0  0  0  0  0  0
  -23.9030  -10.4410   20.8430 C   0  0  0  0  0  0  0  0  0  0  0  0
  -24.3160   -9.4830   21.7960 C   0  0  0  0  0  3  0  0  0  0  0  0
  -23.5670   -8.3030   21.9950 C   0  0  0  0  0  3  0  0  0  0  0  0
  -22.3900   -8.0730   21.2450 C   0  0  0  0  0  0  0  0  0  0  0  0
  -21.9960   -9.0180   20.2820 C   0  0  0  0  0  3  0  0  0  0  0  0
  -22.7440  -10.1910   20.0800 C   0  0  0  0  0  3  0  0  0  0  0  0
  -21.6130   -6.9450   21.3550 O   0  0  0  0  0  0  0  0  0  0  0  0
  -21.5280   -6.2400   22.5280 C   0  0  0  0  0  0  0  0  0  0  0  0
  -21.0730   -6.8380   23.7250 C   0  0  0  0  0  3  0  0  0  0  0  0
  -20.9340   -6.0590   24.8920 C   0  0  0  0  0  3  0  0  0  0  0  0
  -21.2390   -4.6850   24.8640 C   0  0  0  0  0  0  0  0  0  0  0  0
  -21.6840   -4.0890   23.6720 C   0  0  0  0  0  3  0  0  0  0  0  0
  -21.8260   -4.8630   22.5070 C   0  0  0  0  0  0  0  0  0  0  0  0
  -22.2350   -4.2770   21.3580 F   0  0  0  0  0  0  0  0  0  0  0  0
  -21.0980   -3.9360   25.9830 F   0  0  0  0  0  0  0  0  0  0  0  0
  -22.8440  -13.5550   20.9940 C   0  0  0  0  0  0  0  0  0  0  0  0
  -22.1250  -12.8730   21.8780 N   0  0  0  0  0  0  0  0  0  0  0  0
  -22.4130  -14.5920   20.4890 O   0  0  0  0  0  0  0  0  0  0  0  0
  -22.4850  -12.0320   22.3090 H   0  0  0  0  0  0  0  0  0  0  0  0
  -21.2010  -13.1930   22.1280 H   0  0  0  0  0  0  0  0  0  0  0  0
  -25.4790  -15.1630   20.0790 N   0  0  0  0  0  0  0  0  0  0  0  0
  -24.7280  -15.8360   20.1960 H   0  0  0  0  0  0  0  0  0  0  0  0
  -26.3300  -15.5820   19.7250 H   0  0  0  0  0  0  0  0  0  0  0  0
  2  1  1  0
  2  5  1  0
  3  2  1  0
  4  2  1  0
  6  5  1  0
  6  7  1  0
  8  7  1  0
  9 20  2  0
 10  8  1  0
 10 15  1  0
 11 19  1  0
 11 21  1  0
 12 18  1  0
 12 14  1  0
 13 19  1  0
 14 15  2  0
 14 13  1  0
 16 10  2  0
 17 16  1  0
 17 12  2  0
 18 11  1  0
 19  9  1  0
 21 23  2  0
 22 21  1  0
 24 22  1  0
 25 34  2  0
 25 30  1  0
 26 22  1  0
 26 30  1  0
 27 26  1  0
 28 29  1  0
 28 27  1  0
 29 25  1  0
 30 31  2  0
 31 32  1  0
 33 32  2  0
 34 33  1  0
 35  9  1  0
 35 36  1  0
 35 45  1  0
 36 39  1  0
 37 41  1  0
 37 36  1  0
 38 37  2  0
 41 40  1  0
 43 41  1  0
 43 44  1  0
 43 42  1  0
 45 48  1  1
 45 46  1  0
 47 45  1  0
 49  1  1  0
 50 49  1  0
 50 55  1  0
 51 53  1  0
 52 51  2  0
 54 56  1  0
 55 52  1  0
 55 54  2  0
 56 53  2  0
 56 57  1  0
 58 66  1  0
 59 64  1  0
 60 61  1  0
 60 59  1  0
 62 61  1  0
 62 71  1  0
 62 63  1  0
 64 58  1  0
 64 63  1  0
 65 58  2  0
 66 57  1  0
 66 67  1  0
 68 69  2  0
 69 88  1  0
 70 69  1  0
 70 73  1  0
 71 68  1  0
 71 72  1  0
 72 70  2  0
 73 74  1  0
 74 75  2  0
 76 79  1  0
 76 75  1  0
 77 76  2  0
 78 77  1  0
 78 73  2  0
 79 80  1  0
 80 81  1  0
 81 82  2  0
 83 82  1  0
 83 87  1  0
 84 83  2  0
 85 80  2  0
 85 84  1  0
 86 85  1  0
 88 89  1  0
 89 92  1  0
 89 91  1  0
 90 88  2  0
 93 94  1  0
 93 68  1  0
 95 93  1  0
M  ISO  4   7 101   8 101  58 100  66 100
M  END
>  <TORSDO>  (50) 
F 24

>  <SCORE>  (50) 
-12.055

>  <name>  (50) 
49

>  <ligand_id>  (50) 
49

>  <original_smiles>  (50) 
[H]c1c([H])c([H])c2c(c1[H])C([H])([H])C([H])([H])C([H])([H])C2([H])N([H])C(=O)C1([H])N(C(=O)C([H])(N([H])C(=O)C([H])(N([H])C([H])([H])[H])C([H])([H])[H])C(C([H])([H])[H])(C([H])([H])[H])C([H])([H])[H])C([H])([H])c2c([H])c(OC([H])([H])C([H])([H])C([H])([H])[N+]([H])([H])C([H])([H])C([H])([H])C([H])([H])c3c([H])c([H])c([H])c(C([H])([H])N([H])C(=O)N4C([H])([H])C([H])([H])C([H])([H])C([H])(n5nc(-c6c([H])c([H])c(Oc7c([H])c([H])c(F)c([H])c7F)c([H])c6[H])c(C(=O)N([H])[H])c5N([H])[H])C4([H])[H])c3[H])c([H])c([H])c2C1([H])[H]

>  <smiles>  (50) 
[H]c1c([H])c([H])c2c(c1[H])C([H])([H])C([H])([H])C([H])([H])C2([H])N([H])C(=O)C1([H])N(C(=O)C([H])(N([H])C(=O)C([H])(N([H])C([H])([H])[H])C([H])([H])[H])C(C([H])([H])[H])(C([H])([H])[H])C([H])([H])[H])C([H])([H])c2c([H])c(OC([H])([H])C([H])([H])C([H])([H])[N+]([H])([H])C([H])([H])C([H])([H])C([H])([H])c3c([H])c([H])c([H])c(C([H])([H])N([H])C(=O)N4C([H])([H])C([H])([H])C([H])([H])C([H])(n5nc(-c6c([H])c([H])c(Oc7c([H])c([H])c(F)c([H])c7F)c([H])c6[H])c(C(=O)N([H])[H])c5N([H])[H])C4([H])[H])c3[H])c([H])c([H])c2C1([H])[H]

$$$$
50:0:0
     RDKit          3D

 93101  0  0  1  0  0  0  0  0999 V2000
  -30.3840  -21.7070   21.1600 C   0  0  0  0  0  2  0  0  0  0  0  0
  -29.7350  -22.8370   21.9760 C   0  0  0  0  0  2  0  0  0  0  0  0
  -29.8090  -24.1990   21.2670 C   0  0  0  0  0  2  0  0  0  0  0  0
  -29.3610  -25.3650   22.1630 C   0  0  0  0  0  3  0  0  0  0  0  0
  -28.1050  -25.1790   22.5770 F   0  0  0  0  0  0  0  0  0  0  0  0
  -29.4890  -26.7380   21.4820 C   0  0  0  0  0  2  0  0  0  0  0  0
  -28.7100  -26.7810   20.2800 O   0  0  0  0  0  0  0  0  0  0  0  0
  -24.6140  -31.8070   23.2580 C   0  0  0  0  0  0  0  0  0  0  0  0
  -27.5300  -27.4910   20.2980 C   0  0  0  0  0  0  0  0  0  0  0  0
  -23.5080  -30.3610   21.5790 C   0  0  0  0  0  3  0  0  0  0  0  0
  -25.0630  -28.8690   20.2130 C   0  0  0  0  0  0  0  0  0  0  0  0
  -26.0150  -30.8240   21.4530 C   0  0  0  0  0  2  0  0  0  0  0  0
  -26.1720  -29.4540   20.8310 C   0  0  0  0  0  0  0  0  0  0  0  0
  -27.4060  -28.7790   20.8670 C   0  0  0  0  0  3  0  0  0  0  0  0
  -26.4070  -26.9150   19.6670 C   0  0  0  0  0  3  0  0  0  0  0  0
  -25.1720  -27.5940   19.6260 C   0  0  0  0  0  3  0  0  0  0  0  0
  -23.7830  -29.6760   20.2110 C   0  0  0  0  0  2  0  0  0  0  0  0
  -24.7280  -31.0120   22.1570 N   0  0  0  0  0  0  0  0  0  0  0  0
  -23.5090  -32.0430   23.7640 O   0  0  0  0  0  0  0  0  0  0  0  0
  -22.8620  -29.3210   22.5220 C   0  0  0  0  0  0  0  0  0  0  0  0
  -21.5550  -29.0780   22.3310 N   0  0  0  0  0  0  0  0  0  0  0  0
  -23.5330  -28.7380   23.3760 O   0  0  0  0  0  0  0  0  0  0  0  0
  -21.0740  -29.6060   21.6160 H   0  0  0  0  0  0  0  0  0  0  0  0
  -18.2100  -27.7700   22.6990 C   0  0  0  0  0  0  0  0  0  0  0  0
  -20.7440  -28.1120   23.0720 C   0  0  0  0  0  3  0  0  0  0  0  0
  -20.9170  -26.6870   22.5000 C   0  0  0  0  0  2  0  0  0  0  0  0
  -19.8680  -26.3290   21.4420 C   0  0  0  0  0  2  0  0  0  0  0  0
  -18.4580  -26.4280   22.0310 C   0  0  0  0  0  2  0  0  0  0  0  0
  -19.2840  -28.5680   23.1730 C   0  0  0  0  0  0  0  0  0  0  0  0
  -19.0030  -29.8240   23.7520 C   0  0  0  0  0  3  0  0  0  0  0  0
  -17.6770  -30.2830   23.8640 C   0  0  0  0  0  3  0  0  0  0  0  0
  -16.6150  -29.4820   23.4100 C   0  0  0  0  0  3  0  0  0  0  0  0
  -16.8820  -28.2270   22.8330 C   0  0  0  0  0  3  0  0  0  0  0  0
  -25.8610  -32.4780   23.9190 C   0  0  0  0  0  3  0  0  0  0  0  0
  -26.3460  -31.7390   25.2260 C   0  0  1  0  0  0  0  0  0  0  0  0
  -25.2080  -31.4400   26.2280 C   0  0  0  0  0  1  0  0  0  0  0  0
  -27.0290  -30.3970   24.8690 C   0  0  0  0  0  1  0  0  0  0  0  0
  -27.4080  -32.5990   25.9510 C   0  0  0  0  0  1  0  0  0  0  0  0
  -25.5100  -33.8740   24.2090 N   0  0  0  0  0  0  0  0  0  0  0  0
  -25.8720  -34.9210   23.4550 C   0  0  0  0  0  0  0  0  0  0  0  0
  -26.6070  -34.8140   22.4700 O   0  0  0  0  0  0  0  0  0  0  0  0
  -24.8660  -34.0290   24.9700 H   0  0  0  0  0  0  0  0  0  0  0  0
  -24.1530  -36.6830   22.9470 C   0  0  0  0  0  1  0  0  0  0  0  0
  -25.3310  -36.3050   23.8580 C   0  0  0  0  0  3  0  0  0  0  0  0
  -27.3790  -37.2280   24.8490 C   0  0  0  0  0  1  0  0  0  0  0  0
  -26.3550  -37.3730   23.8180 N   0  0  0  0  0  0  0  0  0  0  0  0
  -25.9250  -38.2880   23.9250 H   0  0  0  0  0  0  0  0  0  0  0  0
  -30.1510  -20.3210   21.7860 C   0  0  0  0  0  2  0  0  0  0  0  0
  -30.8080  -19.2480   21.0080 N   0  0  0  0  0  4  0  0  0  0  0  0
  -30.5310  -19.3130   20.0420 H   0  0  0  0  0  0  0  0  0  0  0  0
  -31.8010  -19.4140   21.0470 H   0  0  0  0  0  0  0  0  0  0  0  0
  -30.4630  -14.3060   19.7580 C   0  0  0  0  0  0  0  0  0  0  0  0
  -29.9530  -12.2760   18.4420 C   0  0  0  0  0  2  0  0  0  0  0  0
  -28.8550  -12.5360   17.3940 C   0  0  0  0  0  2  0  0  0  0  0  0
  -27.4540  -12.3520   18.0070 C   0  0  0  0  0  2  0  0  0  0  0  0
  -27.2910  -13.1130   19.3470 C   0  0  0  0  0  3  0  0  0  0  0  0
  -28.4810  -12.8090   20.2890 C   0  0  0  0  0  2  0  0  0  0  0  0
  -29.7260  -13.1710   19.5890 N   0  0  0  0  0  0  0  0  0  0  0  0
  -31.3910  -14.6020   18.9970 O   0  0  0  0  0  0  0  0  0  0  0  0
  -31.7650  -16.9610   21.2750 C   0  0  0  0  0  2  0  0  0  0  0  0
  -29.3010  -17.2680   20.8090 C   0  0  0  0  0  2  0  0  0  0  0  0
  -31.4520  -15.4990   21.6630 C   0  0  0  0  0  2  0  0  0  0  0  0
  -29.0900  -15.7960   21.2050 C   0  0  0  0  0  2  0  0  0  0  0  0
  -30.5440  -17.8760   21.4960 C   0  0  0  0  0  3  0  0  0  0  0  0
  -30.2890  -14.9890   20.9180 N   0  0  0  0  0  0  0  0  0  0  0  0
  -24.9900  -13.6780   20.3580 C   0  0  0  0  0  0  0  0  0  0  0  0
  -23.9850  -12.8820   20.8400 C   0  0  0  0  0  0  0  0  0  0  0  0
  -24.4540  -11.5380   20.7180 C   0  0  0  0  0  0  0  0  0  0  0  0
  -26.0090  -12.8160   19.9810 N   0  0  0  0  0  0  0  0  0  0  0  0
  -25.6950  -11.5230   20.2500 N   0  0  0  0  0  0  0  0  0  0  0  0
  -23.7740  -10.2610   20.9670 C   0  0  0  0  0  0  0  0  0  0  0  0
  -24.2490   -9.3490   21.9340 C   0  0  0  0  0  3  0  0  0  0  0  0
  -23.5680   -8.1340   22.1680 C   0  0  0  0  0  3  0  0  0  0  0  0
  -22.4000   -7.8230   21.4320 C   0  0  0  0  0  0  0  0  0  0  0  0
  -21.9450   -8.7240   20.4530 C   0  0  0  0  0  3  0  0  0  0  0  0
  -22.6260   -9.9310   20.2190 C   0  0  0  0  0  3  0  0  0  0  0  0
  -21.6880   -6.6570   21.5730 O   0  0  0  0  0  0  0  0  0  0  0  0
  -21.5980   -6.0100   22.7790 C   0  0  0  0  0  0  0  0  0  0  0  0
  -21.0580   -6.6380   23.9230 C   0  0  0  0  0  3  0  0  0  0  0  0
  -20.9200   -5.9130   25.1240 C   0  0  0  0  0  3  0  0  0  0  0  0
  -21.3120   -4.5630   25.1820 C   0  0  0  0  0  0  0  0  0  0  0  0
  -21.8440   -3.9340   24.0420 C   0  0  0  0  0  3  0  0  0  0  0  0
  -21.9840   -4.6560   22.8430 C   0  0  0  0  0  0  0  0  0  0  0  0
  -22.4780   -4.0390   21.7420 F   0  0  0  0  0  0  0  0  0  0  0  0
  -21.1710   -3.8640   26.3320 F   0  0  0  0  0  0  0  0  0  0  0  0
  -22.6270  -13.3310   21.2970 C   0  0  0  0  0  0  0  0  0  0  0  0
  -22.0220  -12.6000   22.2270 N   0  0  0  0  0  0  0  0  0  0  0  0
  -22.1160  -14.3620   20.8650 O   0  0  0  0  0  0  0  0  0  0  0  0
  -22.4500  -11.7650   22.5970 H   0  0  0  0  0  0  0  0  0  0  0  0
  -21.1160  -12.8820   22.5740 H   0  0  0  0  0  0  0  0  0  0  0  0
  -25.1140  -15.0540   20.1930 N   0  0  0  0  0  0  0  0  0  0  0  0
  -24.3540  -15.6910   20.4060 H   0  0  0  0  0  0  0  0  0  0  0  0
  -25.9030  -15.5120   19.7570 H   0  0  0  0  0  0  0  0  0  0  0  0
  1 48  1  0
  1  2  1  0
  3  2  1  0
  3  4  1  0
  4  5  1  0
  6  4  1  0
  7  9  1  0
  7  6  1  0
  8 19  2  0
  9 14  1  0
 10 18  1  0
 10 20  1  0
 11 13  1  0
 12 18  1  0
 13 14  2  0
 13 12  1  0
 15  9  2  0
 16 15  1  0
 16 11  2  0
 17 11  1  0
 17 10  1  0
 18  8  1  0
 20 22  2  0
 21 20  1  0
 23 21  1  0
 24 33  2  0
 24 29  1  0
 25 21  1  0
 25 29  1  0
 26 25  1  0
 27 28  1  0
 27 26  1  0
 28 24  1  0
 29 30  2  0
 30 31  1  0
 32 31  2  0
 33 32  1  0
 34  8  1  0
 34 39  1  0
 34 35  1  0
 35 38  1  1
 35 36  1  0
 37 35  1  0
 39 42  1  0
 40 44  1  0
 40 39  1  0
 41 40  2  0
 44 43  1  0
 46 44  1  0
 46 47  1  0
 46 45  1  0
 49 51  1  0
 49 48  1  0
 50 49  1  0
 52 65  1  0
 53 58  1  0
 54 55  1  0
 54 53  1  0
 56 55  1  0
 56 69  1  0
 56 57  1  0
 58 52  1  0
 58 57  1  0
 59 52  2  0
 60 64  1  0
 60 62  1  0
 61 63  1  0
 61 64  1  0
 64 49  1  0
 65 63  1  0
 65 62  1  0
 66 67  2  0
 67 86  1  0
 68 67  1  0
 68 71  1  0
 69 70  1  0
 69 66  1  0
 70 68  2  0
 71 72  1  0
 72 73  2  0
 74 77  1  0
 74 73  1  0
 75 74  2  0
 76 75  1  0
 76 71  2  0
 77 78  1  0
 78 83  2  0
 78 79  1  0
 79 80  2  0
 80 81  1  0
 81 85  1  0
 82 81  2  0
 83 82  1  0
 84 83  1  0
 86 87  1  0
 87 90  1  0
 87 89  1  0
 88 86  2  0
 91 66  1  0
 91 92  1  0
 93 91  1  0
M  ISO  4   6 101   7 101  52 100  65 100
M  END
>  <TORSDO>  (51) 
F 22

>  <SCORE>  (51) 
-11.854

>  <name>  (51) 
50

>  <ligand_id>  (51) 
50

>  <original_smiles>  (51) 
[H]c1c([H])c([H])c2c(c1[H])C([H])([H])C([H])([H])C([H])([H])C2([H])N([H])C(=O)C1([H])N(C(=O)C([H])(N([H])C(=O)C([H])(N([H])C([H])([H])[H])C([H])([H])[H])C(C([H])([H])[H])(C([H])([H])[H])C([H])([H])[H])C([H])([H])c2c([H])c(OC([H])([H])C([H])(F)C([H])([H])C([H])([H])C([H])([H])C([H])([H])[N+]([H])([H])C3([H])C([H])([H])C([H])([H])N(C(=O)N4C([H])([H])C([H])([H])C([H])([H])C([H])(n5nc(-c6c([H])c([H])c(Oc7c([H])c([H])c(F)c([H])c7F)c([H])c6[H])c(C(=O)N([H])[H])c5N([H])[H])C4([H])[H])C([H])([H])C3([H])[H])c([H])c([H])c2C1([H])[H]

>  <smiles>  (51) 
[H]c1c([H])c([H])c2c(c1[H])C([H])([H])C([H])([H])C([H])([H])C2([H])N([H])C(=O)C1([H])N(C(=O)C([H])(N([H])C(=O)C([H])(N([H])C([H])([H])[H])C([H])([H])[H])C(C([H])([H])[H])(C([H])([H])[H])C([H])([H])[H])C([H])([H])c2c([H])c(OC([H])([H])C([H])(F)C([H])([H])C([H])([H])C([H])([H])C([H])([H])[N+]([H])([H])C3([H])C([H])([H])C([H])([H])N(C(=O)N4C([H])([H])C([H])([H])C([H])([H])C([H])(n5nc(-c6c([H])c([H])c(Oc7c([H])c([H])c(F)c([H])c7F)c([H])c6[H])c(C(=O)N([H])[H])c5N([H])[H])C4([H])[H])C([H])([H])C3([H])[H])c([H])c([H])c2C1([H])[H]

$$$$
51:0:0
     RDKit          3D

 96104  0  0  1  0  0  0  0  0999 V2000
  -28.7640  -21.1030   21.6990 C   0  0  0  0  0  2  0  0  0  0  0  0
  -28.9250  -19.2560   19.8680 C   0  0  0  0  0  0  0  0  0  0  0  0
  -30.1700  -19.0600   22.1490 C   0  0  0  0  0  2  0  0  0  0  0  0
  -30.7880  -17.7980   21.5360 C   0  0  0  0  0  2  0  0  0  0  0  0
  -28.9310  -19.5950   21.3820 C   0  0  0  0  0  3  0  0  0  0  0  0
  -31.1140  -18.0930   20.0670 C   0  0  0  0  0  3  0  0  0  0  0  0
  -29.9100  -18.5060   19.3530 N   0  0  0  0  0  0  0  0  0  0  0  0
  -27.9940  -19.6220   19.1550 O   0  0  0  0  0  0  0  0  0  0  0  0
  -29.8450  -18.2540   18.3760 H   0  0  0  0  0  0  0  0  0  0  0  0
  -31.8500  -16.9600   19.3330 C   0  0  0  0  0  2  0  0  0  0  0  0
  -31.6420  -14.5270   18.8930 C   0  0  0  0  0  0  0  0  0  0  0  0
  -31.3700  -12.0800   18.7170 C   0  0  0  0  0  2  0  0  0  0  0  0
  -30.3460  -11.7000   17.6330 C   0  0  0  0  0  2  0  0  0  0  0  0
  -28.9190  -11.6940   18.2140 C   0  0  0  0  0  2  0  0  0  0  0  0
  -28.5950  -12.9890   19.0020 C   0  0  0  0  0  3  0  0  0  0  0  0
  -29.7190  -13.3240   20.0040 C   0  0  0  0  0  2  0  0  0  0  0  0
  -30.9940  -13.3930   19.2650 N   0  0  0  0  0  0  0  0  0  0  0  0
  -32.6150  -14.5300   18.1320 O   0  0  0  0  0  0  0  0  0  0  0  0
  -31.1820  -15.6620   19.4310 N   0  0  0  0  0  0  0  0  0  0  0  0
  -30.3730  -15.5930   20.0300 H   0  0  0  0  0  0  0  0  0  0  0  0
  -26.4310  -13.9120   20.0500 C   0  0  0  0  0  0  0  0  0  0  0  0
  -25.3230  -13.2890   20.5520 C   0  0  0  0  0  0  0  0  0  0  0  0
  -25.5710  -11.8860   20.4360 C   0  0  0  0  0  0  0  0  0  0  0  0
  -27.2950  -12.8990   19.6610 N   0  0  0  0  0  0  0  0  0  0  0  0
  -26.7860  -11.6740   19.9480 N   0  0  0  0  0  0  0  0  0  0  0  0
  -24.7000  -10.7360   20.7080 C   0  0  0  0  0  0  0  0  0  0  0  0
  -25.0180   -9.7880   21.7050 C   0  0  0  0  0  3  0  0  0  0  0  0
  -24.1560   -8.7000   21.9600 C   0  0  0  0  0  3  0  0  0  0  0  0
  -22.9610   -8.5530   21.2170 C   0  0  0  0  0  0  0  0  0  0  0  0
  -22.6620   -9.4850   20.2070 C   0  0  0  0  0  3  0  0  0  0  0  0
  -23.5230  -10.5650   19.9520 C   0  0  0  0  0  3  0  0  0  0  0  0
  -22.0770   -7.5140   21.3760 O   0  0  0  0  0  0  0  0  0  0  0  0
  -21.7980   -6.9910   22.6120 C   0  0  0  0  0  0  0  0  0  0  0  0
  -21.2830   -7.7850   23.6590 C   0  0  0  0  0  3  0  0  0  0  0  0
  -20.9430   -7.1930   24.8910 C   0  0  0  0  0  3  0  0  0  0  0  0
  -21.1090   -5.8080   25.0770 C   0  0  0  0  0  0  0  0  0  0  0  0
  -21.6170   -5.0130   24.0340 C   0  0  0  0  0  3  0  0  0  0  0  0
  -21.9580   -5.6030   22.8050 C   0  0  0  0  0  0  0  0  0  0  0  0
  -22.4260   -4.8300   21.7960 F   0  0  0  0  0  0  0  0  0  0  0  0
  -20.7770   -5.2370   26.2590 F   0  0  0  0  0  0  0  0  0  0  0  0
  -24.0620  -13.9510   21.0270 C   0  0  0  0  0  0  0  0  0  0  0  0
  -23.3840  -13.3510   21.9990 N   0  0  0  0  0  0  0  0  0  0  0  0
  -23.6950  -15.0320   20.5700 O   0  0  0  0  0  0  0  0  0  0  0  0
  -23.6990  -12.4740   22.3880 H   0  0  0  0  0  0  0  0  0  0  0  0
  -22.5390  -13.7740   22.3570 H   0  0  0  0  0  0  0  0  0  0  0  0
  -26.7660  -15.2520   19.8730 N   0  0  0  0  0  0  0  0  0  0  0  0
  -26.1110  -15.9970   20.0840 H   0  0  0  0  0  0  0  0  0  0  0  0
  -27.6140  -15.5810   19.4290 H   0  0  0  0  0  0  0  0  0  0  0  0
  -27.8210  -21.9170   20.7910 C   0  0  0  0  0  2  0  0  0  0  0  0
  -27.6360  -23.2850   21.3230 N   0  0  0  0  0  4  0  0  0  0  0  0
  -28.3550  -23.4970   21.9950 H   0  0  0  0  0  0  0  0  0  0  0  0
  -26.7570  -23.3000   21.8170 H   0  0  0  0  0  0  0  0  0  0  0  0
  -27.6180  -24.3570   20.3090 C   0  0  0  0  0  2  0  0  0  0  0  0
  -29.0360  -24.7660   19.8630 C   0  0  0  0  0  2  0  0  0  0  0  0
  -29.0680  -25.8280   18.7500 C   0  0  0  0  0  2  0  0  0  0  0  0
  -28.8550  -27.1300   19.2810 O   0  0  0  0  0  0  0  0  0  0  0  0
  -24.7580  -31.3760   23.1890 C   0  0  0  0  0  0  0  0  0  0  0  0
  -27.5920  -27.6630   19.4040 C   0  0  0  0  0  0  0  0  0  0  0  0
  -23.5850  -30.1480   21.3860 C   0  0  0  0  0  3  0  0  0  0  0  0
  -25.0860  -28.9330   19.7200 C   0  0  0  0  0  0  0  0  0  0  0  0
  -26.0690  -30.7100   21.1810 C   0  0  0  0  0  2  0  0  0  0  0  0
  -26.2200  -29.4540   20.3500 C   0  0  0  0  0  0  0  0  0  0  0  0
  -27.4680  -28.8220   20.1980 C   0  0  0  0  0  3  0  0  0  0  0  0
  -26.4370  -27.1500   18.7640 C   0  0  0  0  0  3  0  0  0  0  0  0
  -25.1870  -27.7720   18.9320 C   0  0  0  0  0  3  0  0  0  0  0  0
  -23.7910  -29.6840   19.9180 C   0  0  0  0  0  2  0  0  0  0  0  0
  -24.8230  -30.7510   21.9780 N   0  0  0  0  0  0  0  0  0  0  0  0
  -23.6830  -31.4930   23.7910 O   0  0  0  0  0  0  0  0  0  0  0  0
  -23.0330  -28.9600   22.2040 C   0  0  0  0  0  0  0  0  0  0  0  0
  -21.7390  -28.6530   22.0150 N   0  0  0  0  0  0  0  0  0  0  0  0
  -23.7670  -28.3200   22.9620 O   0  0  0  0  0  0  0  0  0  0  0  0
  -21.2000  -29.2340   21.3890 H   0  0  0  0  0  0  0  0  0  0  0  0
  -18.5330  -26.9990   22.1840 C   0  0  0  0  0  0  0  0  0  0  0  0
  -21.0170  -27.5470   22.6420 C   0  0  0  0  0  3  0  0  0  0  0  0
  -21.3360  -26.2060   21.9440 C   0  0  0  0  0  2  0  0  0  0  0  0
  -20.3420  -25.8500   20.8360 C   0  0  0  0  0  2  0  0  0  0  0  0
  -18.9220  -25.7540   21.4040 C   0  0  0  0  0  2  0  0  0  0  0  0
  -19.5190  -27.8480   22.7530 C   0  0  0  0  0  0  0  0  0  0  0  0
  -19.1100  -29.0120   23.4400 C   0  0  0  0  0  3  0  0  0  0  0  0
  -17.7460  -29.3330   23.5640 C   0  0  0  0  0  3  0  0  0  0  0  0
  -16.7730  -28.4800   23.0160 C   0  0  0  0  0  3  0  0  0  0  0  0
  -17.1650  -27.3130   22.3340 C   0  0  0  0  0  3  0  0  0  0  0  0
  -26.0240  -31.9950   23.8590 C   0  0  0  0  0  3  0  0  0  0  0  0
  -25.6690  -33.3430   24.3220 N   0  0  0  0  0  0  0  0  0  0  0  0
  -25.9560  -34.4730   23.6620 C   0  0  0  0  0  0  0  0  0  0  0  0
  -26.6270  -34.4920   22.6270 O   0  0  0  0  0  0  0  0  0  0  0  0
  -25.0740  -33.3960   25.1340 H   0  0  0  0  0  0  0  0  0  0  0  0
  -24.1530  -36.2210   23.4830 C   0  0  0  0  0  1  0  0  0  0  0  0
  -25.4150  -35.7940   24.2480 C   0  0  0  0  0  3  0  0  0  0  0  0
  -27.5190  -36.6860   25.1460 C   0  0  0  0  0  1  0  0  0  0  0  0
  -26.4020  -36.8950   24.2280 N   0  0  0  0  0  0  0  0  0  0  0  0
  -25.9590  -37.7770   24.4670 H   0  0  0  0  0  0  0  0  0  0  0  0
  -26.5870  -31.1250   25.0490 C   0  0  1  0  0  0  0  0  0  0  0  0
  -25.5160  -30.7310   26.0920 C   0  0  0  0  0  1  0  0  0  0  0  0
  -27.2240  -29.8180   24.5180 C   0  0  0  0  0  1  0  0  0  0  0  0
  -27.7060  -31.8990   25.7860 C   0  0  0  0  0  1  0  0  0  0  0  0
  2  5  1  0
  4  3  1  0
  5  1  1  0
  5  3  1  0
  6 10  1  0
  6  4  1  0
  7  2  1  0
  7  6  1  0
  8  2  2  0
  9  7  1  0
 10 19  1  0
 11 17  1  0
 11 19  1  0
 12 17  1  0
 13 14  1  0
 13 12  1  0
 15 14  1  0
 15 24  1  0
 15 16  1  0
 17 16  1  0
 18 11  2  0
 19 20  1  0
 21 22  2  0
 22 41  1  0
 23 22  1  0
 23 26  1  0
 24 25  1  0
 24 21  1  0
 25 23  2  0
 26 27  1  0
 27 28  2  0
 29 32  1  0
 29 28  1  0
 30 29  2  0
 31 30  1  0
 31 26  2  0
 32 33  1  0
 33 38  2  0
 33 34  1  0
 34 35  2  0
 35 36  1  0
 36 40  1  0
 37 36  2  0
 38 37  1  0
 39 38  1  0
 41 42  1  0
 42 45  1  0
 42 44  1  0
 43 41  2  0
 46 21  1  0
 46 47  1  0
 48 46  1  0
 49 50  1  0
 49  1  1  0
 50 52  1  0
 50 51  1  0
 53 50  1  0
 54 53  1  0
 55 56  1  0
 55 54  1  0
 56 58  1  0
 57 68  2  0
 58 63  1  0
 59 67  1  0
 59 69  1  0
 60 66  1  0
 60 62  1  0
 61 67  1  0
 62 61  1  0
 63 62  2  0
 64 65  1  0
 64 58  2  0
 65 60  2  0
 66 59  1  0
 67 57  1  0
 69 71  2  0
 70 69  1  0
 72 70  1  0
 73 82  2  0
 73 78  1  0
 74 70  1  0
 74 78  1  0
 75 74  1  0
 76 77  1  0
 76 75  1  0
 77 73  1  0
 78 79  2  0
 79 80  1  0
 81 80  2  0
 82 81  1  0
 83 57  1  0
 83 84  1  0
 83 93  1  0
 84 87  1  0
 85 89  1  0
 85 84  1  0
 86 85  2  0
 89 88  1  0
 91 89  1  0
 91 92  1  0
 91 90  1  0
 93 96  1  1
 93 94  1  0
 95 93  1  0
M  ISO  4  11 100  19 100  55 101  56 101
M  END
>  <TORSDO>  (52) 
F 23

>  <SCORE>  (52) 
-8.741

>  <name>  (52) 
51

>  <ligand_id>  (52) 
51

>  <original_smiles>  (52) 
[H]c1c([H])c([H])c2c(c1[H])C([H])([H])C([H])([H])C([H])([H])C2([H])N([H])C(=O)C1([H])N(C(=O)C([H])(N([H])C(=O)C([H])(N([H])C([H])([H])[H])C([H])([H])[H])C(C([H])([H])[H])(C([H])([H])[H])C([H])([H])[H])C([H])([H])c2c([H])c(OC([H])([H])C([H])([H])C([H])([H])[N+]([H])([H])C([H])([H])C([H])([H])C3([H])C(=O)N([H])C([H])(C([H])([H])N([H])C(=O)N4C([H])([H])C([H])([H])C([H])([H])C([H])(n5nc(-c6c([H])c([H])c(Oc7c([H])c([H])c(F)c([H])c7F)c([H])c6[H])c(C(=O)N([H])[H])c5N([H])[H])C4([H])[H])C([H])([H])C3([H])[H])c([H])c([H])c2C1([H])[H]

>  <smiles>  (52) 
[H]c1c([H])c([H])c2c(c1[H])C([H])([H])C([H])([H])C([H])([H])C2([H])N([H])C(=O)C1([H])N(C(=O)C([H])(N([H])C(=O)C([H])(N([H])C([H])([H])[H])C([H])([H])[H])C(C([H])([H])[H])(C([H])([H])[H])C([H])([H])[H])C([H])([H])c2c([H])c(OC([H])([H])C([H])([H])C([H])([H])[N+]([H])([H])C([H])([H])C([H])([H])C3([H])C(=O)N([H])C([H])(C([H])([H])N([H])C(=O)N4C([H])([H])C([H])([H])C([H])([H])C([H])(n5nc(-c6c([H])c([H])c(Oc7c([H])c([H])c(F)c([H])c7F)c([H])c6[H])c(C(=O)N([H])[H])c5N([H])[H])C4([H])[H])C([H])([H])C3([H])[H])c([H])c([H])c2C1([H])[H]

$$$$
52:0:0
     RDKit          3D

 96104  0  0  1  0  0  0  0  0999 V2000
  -25.0040  -22.7420   20.6710 C   0  0  0  0  0  2  0  0  0  0  0  0
  -26.4720  -22.6790   21.0890 C   0  0  0  0  0  2  0  0  0  0  0  0
  -24.9560  -24.0100   19.8270 C   0  0  0  0  0  2  0  0  0  0  0  0
  -27.2610  -23.3010   19.9140 C   0  0  0  0  0  3  0  0  0  0  0  0
  -26.2570  -24.0630   19.1120 N   0  0  2  0  0  4  0  0  0  0  0  0
  -26.1510  -23.5090   18.2710 H   0  0  0  0  0  0  0  0  0  0  0  0
  -27.9050  -22.2300   18.9940 C   0  0  0  0  0  0  0  0  0  0  0  0
  -27.5520  -22.0750   17.8180 O   0  0  0  0  0  0  0  0  0  0  0  0
  -29.0060  -21.3280   19.5860 C   0  0  0  0  0  2  0  0  0  0  0  0
  -29.1900  -20.1370   18.7210 N   0  0  0  0  0  4  0  0  0  0  0  0
  -29.9540  -20.3260   18.0920 H   0  0  0  0  0  0  0  0  0  0  0  0
  -28.3490  -20.0830   18.1640 H   0  0  0  0  0  0  0  0  0  0  0  0
  -29.4050  -18.8610   19.4550 C   0  0  0  0  0  2  0  0  0  0  0  0
  -30.3800  -17.8840   18.7460 C   0  0  0  0  0  2  0  0  0  0  0  0
  -31.2600  -15.5690   19.1990 C   0  0  0  0  0  0  0  0  0  0  0  0
  -31.4040  -13.1060   19.1490 C   0  0  0  0  0  2  0  0  0  0  0  0
  -30.4680  -12.5650   18.0460 C   0  0  0  0  0  2  0  0  0  0  0  0
  -29.0240  -12.4050   18.5660 C   0  0  0  0  0  2  0  0  0  0  0  0
  -28.5170  -13.6640   19.3200 C   0  0  0  0  0  3  0  0  0  0  0  0
  -29.5620  -14.1190   20.3650 C   0  0  0  0  0  2  0  0  0  0  0  0
  -30.8320  -14.3620   19.6540 N   0  0  0  0  0  0  0  0  0  0  0  0
  -32.2950  -15.7210   18.5400 O   0  0  0  0  0  0  0  0  0  0  0  0
  -30.3980  -16.5770   19.4120 N   0  0  0  0  0  0  0  0  0  0  0  0
  -29.6050  -16.3490   19.9920 H   0  0  0  0  0  0  0  0  0  0  0  0
  -26.2630  -14.3590   20.3570 C   0  0  0  0  0  0  0  0  0  0  0  0
  -25.1950  -13.6220   20.7920 C   0  0  0  0  0  0  0  0  0  0  0  0
  -25.5490  -12.2530   20.5920 C   0  0  0  0  0  0  0  0  0  0  0  0
  -27.2090  -13.4380   19.9290 N   0  0  0  0  0  0  0  0  0  0  0  0
  -26.7870  -12.1620   20.1210 N   0  0  0  0  0  0  0  0  0  0  0  0
  -24.7630  -11.0240   20.7650 C   0  0  0  0  0  0  0  0  0  0  0  0
  -25.1200  -10.0470   21.7190 C   0  0  0  0  0  3  0  0  0  0  0  0
  -24.3380   -8.8820   21.8780 C   0  0  0  0  0  3  0  0  0  0  0  0
  -23.1850   -8.6880   21.0810 C   0  0  0  0  0  0  0  0  0  0  0  0
  -22.8470   -9.6540   20.1170 C   0  0  0  0  0  3  0  0  0  0  0  0
  -23.6310  -10.8090   19.9560 C   0  0  0  0  0  3  0  0  0  0  0  0
  -22.3800   -7.5780   21.1460 O   0  0  0  0  0  0  0  0  0  0  0  0
  -22.0880   -6.9700   22.3410 C   0  0  0  0  0  0  0  0  0  0  0  0
  -21.4440   -7.6630   23.3900 C   0  0  0  0  0  3  0  0  0  0  0  0
  -21.1010   -6.9810   24.5750 C   0  0  0  0  0  3  0  0  0  0  0  0
  -21.3890   -5.6110   24.7090 C   0  0  0  0  0  0  0  0  0  0  0  0
  -22.0250   -4.9190   23.6620 C   0  0  0  0  0  3  0  0  0  0  0  0
  -22.3700   -5.5970   22.4800 C   0  0  0  0  0  0  0  0  0  0  0  0
  -22.9640   -4.9200   21.4670 F   0  0  0  0  0  0  0  0  0  0  0  0
  -21.0510   -4.9540   25.8440 F   0  0  0  0  0  0  0  0  0  0  0  0
  -23.8760  -14.1580   21.2720 C   0  0  0  0  0  0  0  0  0  0  0  0
  -23.2220  -13.4550   22.1910 N   0  0  0  0  0  0  0  0  0  0  0  0
  -23.4390  -15.2330   20.8680 O   0  0  0  0  0  0  0  0  0  0  0  0
  -23.5880  -12.5830   22.5440 H   0  0  0  0  0  0  0  0  0  0  0  0
  -22.3410  -13.7980   22.5490 H   0  0  0  0  0  0  0  0  0  0  0  0
  -26.5020  -15.7280   20.2670 N   0  0  0  0  0  0  0  0  0  0  0  0
  -25.7780  -16.4080   20.4810 H   0  0  0  0  0  0  0  0  0  0  0  0
  -27.2950  -16.1300   19.7840 H   0  0  0  0  0  0  0  0  0  0  0  0
  -26.6280  -25.4400   18.6840 C   0  0  0  0  0  2  0  0  0  0  0  0
  -27.2690  -25.4650   17.2810 C   0  0  0  0  0  2  0  0  0  0  0  0
  -27.9480  -26.8050   16.9250 C   0  0  0  0  0  2  0  0  0  0  0  0
  -26.9840  -27.7300   16.4240 O   0  0  0  0  0  0  0  0  0  0  0  0
  -25.2600  -28.9710   23.2410 C   0  0  0  0  0  0  0  0  0  0  0  0
  -26.1200  -28.2740   17.3400 C   0  0  0  0  0  0  0  0  0  0  0  0
  -23.5480  -29.5700   21.5560 C   0  0  0  0  0  3  0  0  0  0  0  0
  -24.3220  -29.5120   19.1270 C   0  0  0  0  0  0  0  0  0  0  0  0
  -26.0300  -29.5680   20.9530 C   0  0  0  0  0  2  0  0  0  0  0  0
  -25.6240  -29.2010   19.5430 C   0  0  0  0  0  0  0  0  0  0  0  0
  -26.5250  -28.5730   18.6560 C   0  0  0  0  0  3  0  0  0  0  0  0
  -24.8170  -28.6090   16.9220 C   0  0  0  0  0  3  0  0  0  0  0  0
  -23.9100  -29.2150   17.8140 C   0  0  0  0  0  3  0  0  0  0  0  0
  -23.4260  -30.1880   20.1390 C   0  0  0  0  0  2  0  0  0  0  0  0
  -24.9720  -29.3300   21.9590 N   0  0  0  0  0  0  0  0  0  0  0  0
  -24.3680  -28.8770   24.0960 O   0  0  0  0  0  0  0  0  0  0  0  0
  -22.6790  -28.2960   21.6120 C   0  0  0  0  0  0  0  0  0  0  0  0
  -21.3490  -28.4780   21.5840 N   0  0  0  0  0  0  0  0  0  0  0  0
  -23.2000  -27.1770   21.6470 O   0  0  0  0  0  0  0  0  0  0  0  0
  -21.0000  -29.4270   21.5720 H   0  0  0  0  0  0  0  0  0  0  0  0
  -17.8110  -27.8470   21.2600 C   0  0  0  0  0  0  0  0  0  0  0  0
  -20.3380  -27.4220   21.5840 C   0  0  0  0  0  3  0  0  0  0  0  0
  -20.2890  -26.6990   20.2180 C   0  0  0  0  0  2  0  0  0  0  0  0
  -19.2550  -27.2940   19.2570 C   0  0  0  0  0  2  0  0  0  0  0  0
  -17.8520  -27.2310   19.8710 C   0  0  0  0  0  2  0  0  0  0  0  0
  -18.9820  -27.9490   22.0590 C   0  0  0  0  0  0  0  0  0  0  0  0
  -18.8900  -28.5600   23.3290 C   0  0  0  0  0  3  0  0  0  0  0  0
  -17.6610  -29.0560   23.8040 C   0  0  0  0  0  3  0  0  0  0  0  0
  -16.5030  -28.9390   23.0140 C   0  0  0  0  0  3  0  0  0  0  0  0
  -16.5810  -28.3320   21.7480 C   0  0  0  0  0  3  0  0  0  0  0  0
  -26.7260  -28.6840   23.7000 C   0  0  0  0  0  3  0  0  0  0  0  0
  -26.9030  -29.3020   25.0200 N   0  0  0  0  0  0  0  0  0  0  0  0
  -27.5910  -30.4290   25.2460 C   0  0  0  0  0  0  0  0  0  0  0  0
  -28.2120  -31.0240   24.3610 O   0  0  0  0  0  0  0  0  0  0  0  0
  -26.3790  -28.8980   25.7820 H   0  0  0  0  0  0  0  0  0  0  0  0
  -26.6470  -32.1960   26.7670 C   0  0  0  0  0  1  0  0  0  0  0  0
  -27.5910  -30.9850   26.6830 C   0  0  0  0  0  3  0  0  0  0  0  0
  -29.8220  -30.2250   27.3720 C   0  0  0  0  0  1  0  0  0  0  0  0
  -28.9350  -31.3680   27.1660 N   0  0  0  0  0  0  0  0  0  0  0  0
  -28.8710  -31.8830   28.0390 H   0  0  0  0  0  0  0  0  0  0  0  0
  -27.0710  -27.1460   23.7510 C   0  0  1  0  0  0  0  0  0  0  0  0
  -26.0530  -26.3090   24.5590 C   0  0  0  0  0  1  0  0  0  0  0  0
  -27.1440  -26.5560   22.3240 C   0  0  0  0  0  1  0  0  0  0  0  0
  -28.4650  -26.9430   24.3880 C   0  0  0  0  0  1  0  0  0  0  0  0
  1  2  1  0
  3  1  1  0
  4  7  1  0
  4  2  1  0
  5  3  1  0
  5  4  1  0
  5  6  1  6
  7  9  1  0
  8  7  2  0
 10 13  1  0
 10  9  1  0
 11 10  1  0
 12 10  1  0
 14 23  1  0
 14 13  1  0
 15 23  1  0
 15 21  1  0
 16 21  1  0
 17 18  1  0
 17 16  1  0
 19 18  1  0
 19 28  1  0
 19 20  1  0
 21 20  1  0
 22 15  2  0
 23 24  1  0
 25 26  2  0
 26 45  1  0
 27 30  1  0
 27 26  1  0
 28 29  1  0
 28 25  1  0
 29 27  2  0
 30 31  1  0
 31 32  2  0
 33 36  1  0
 33 32  1  0
 34 33  2  0
 35 34  1  0
 35 30  2  0
 36 37  1  0
 37 42  2  0
 37 38  1  0
 38 39  2  0
 39 40  1  0
 40 44  1  0
 41 40  2  0
 42 41  1  0
 43 42  1  0
 45 46  1  0
 46 48  1  0
 46 49  1  0
 47 45  2  0
 50 25  1  0
 50 51  1  0
 52 50  1  0
 53  5  1  0
 54 53  1  0
 55 54  1  0
 56 55  1  0
 56 58  1  0
 57 68  2  0
 58 63  1  0
 59 69  1  0
 59 67  1  0
 60 62  1  0
 60 66  1  0
 61 67  1  0
 62 61  1  0
 63 62  2  0
 64 58  2  0
 64 65  1  0
 65 60  2  0
 66 59  1  0
 67 57  1  0
 69 71  2  0
 70 69  1  0
 72 70  1  0
 73 82  2  0
 73 78  1  0
 74 70  1  0
 74 78  1  0
 75 74  1  0
 76 77  1  0
 76 75  1  0
 77 73  1  0
 78 79  2  0
 79 80  1  0
 81 80  2  0
 82 81  1  0
 83 57  1  0
 83 93  1  0
 83 84  1  0
 84 85  1  0
 84 87  1  0
 85 89  1  0
 86 85  2  0
 89 88  1  0
 89 91  1  0
 91 90  1  0
 91 92  1  0
 93 96  1  1
 93 94  1  0
 95 93  1  0
M  ISO  4  15 100  23 100  55 101  56 101
M  END
>  <TORSDO>  (53) 
F 24

>  <SCORE>  (53) 
-8.284

>  <name>  (53) 
52

>  <ligand_id>  (53) 
52

>  <original_smiles>  (53) 
[H]c1c([H])c([H])c2c(c1[H])C([H])([H])C([H])([H])C([H])([H])C2([H])N([H])C(=O)C1([H])N(C(=O)C([H])(N([H])C(=O)C([H])(N([H])C([H])([H])[H])C([H])([H])[H])C(C([H])([H])[H])(C([H])([H])[H])C([H])([H])[H])C([H])([H])c2c([H])c(OC([H])([H])C([H])([H])C([H])([H])[N+]3([H])C([H])([H])C([H])([H])C([H])([H])C3([H])C(=O)C([H])([H])[N+]([H])([H])C([H])([H])C([H])([H])N([H])C(=O)N3C([H])([H])C([H])([H])C([H])([H])C([H])(n4nc(-c5c([H])c([H])c(Oc6c([H])c([H])c(F)c([H])c6F)c([H])c5[H])c(C(=O)N([H])[H])c4N([H])[H])C3([H])[H])c([H])c([H])c2C1([H])[H]

>  <smiles>  (53) 
[H]c1c([H])c([H])c2c(c1[H])C([H])([H])C([H])([H])C([H])([H])C2([H])N([H])C(=O)C1([H])N(C(=O)C([H])(N([H])C(=O)C([H])(N([H])C([H])([H])[H])C([H])([H])[H])C(C([H])([H])[H])(C([H])([H])[H])C([H])([H])[H])C([H])([H])c2c([H])c(OC([H])([H])C([H])([H])C([H])([H])[N+]3([H])C([H])([H])C([H])([H])C([H])([H])C3([H])C(=O)C([H])([H])[N+]([H])([H])C([H])([H])C([H])([H])N([H])C(=O)N3C([H])([H])C([H])([H])C([H])([H])C([H])(n4nc(-c5c([H])c([H])c(Oc6c([H])c([H])c(F)c([H])c6F)c([H])c5[H])c(C(=O)N([H])[H])c4N([H])[H])C3([H])[H])c([H])c([H])c2C1([H])[H]

$$$$
53:0:0
     RDKit          3D

 91 99  0  0  1  0  0  0  0  0999 V2000
  -29.4620  -20.5040   19.2180 C   0  0  0  0  0  3  0  0  0  0  0  0
  -29.7080  -19.1000   19.3190 C   0  0  0  0  0  3  0  0  0  0  0  0
  -30.2630  -20.8150   21.4740 C   0  0  0  0  0  3  0  0  0  0  0  0
  -29.7860  -21.4030   20.2720 C   0  0  0  0  0  0  0  0  0  0  0  0
  -30.3000  -18.5330   20.4810 C   0  0  0  0  0  0  0  0  0  0  0  0
  -30.5250  -19.4180   21.5750 C   0  0  0  0  0  0  0  0  0  0  0  0
  -31.1000  -18.9490   22.7110 F   0  0  0  0  0  0  0  0  0  0  0  0
  -29.8680  -22.9540   20.0370 C   0  0  0  0  0  2  0  0  0  0  0  0
  -28.6320  -23.9220   20.2620 C   0  0  0  0  0  3  0  0  0  0  0  0
  -28.4220  -24.0980   21.5710 F   0  0  0  0  0  0  0  0  0  0  0  0
  -28.7370  -25.3350   19.5290 C   0  0  0  0  0  2  0  0  0  0  0  0
  -28.5830  -26.6020   20.2560 O   0  0  0  0  0  0  0  0  0  0  0  0
  -24.6840  -31.8530   23.2250 C   0  0  0  0  0  0  0  0  0  0  0  0
  -27.4170  -27.3690   20.1860 C   0  0  0  0  0  0  0  0  0  0  0  0
  -23.5240  -30.4400   21.5670 C   0  0  0  0  0  3  0  0  0  0  0  0
  -25.0190  -28.9180   20.1600 C   0  0  0  0  0  0  0  0  0  0  0  0
  -26.0580  -30.8040   21.4220 C   0  0  0  0  0  2  0  0  0  0  0  0
  -26.1690  -29.4330   20.7720 C   0  0  0  0  0  0  0  0  0  0  0  0
  -27.3660  -28.6650   20.7810 C   0  0  0  0  0  3  0  0  0  0  0  0
  -26.2370  -26.8880   19.5750 C   0  0  0  0  0  3  0  0  0  0  0  0
  -25.0540  -27.6520   19.5570 C   0  0  0  0  0  3  0  0  0  0  0  0
  -23.7670  -29.7700   20.1910 C   0  0  0  0  0  2  0  0  0  0  0  0
  -24.7730  -31.0490   22.1290 N   0  0  0  0  0  0  0  0  0  0  0  0
  -23.5900  -32.1180   23.7440 O   0  0  0  0  0  0  0  0  0  0  0  0
  -22.8660  -29.4080   22.5140 C   0  0  0  0  0  0  0  0  0  0  0  0
  -21.5440  -29.2220   22.3740 N   0  0  0  0  0  0  0  0  0  0  0  0
  -23.5450  -28.7850   23.3360 O   0  0  0  0  0  0  0  0  0  0  0  0
  -21.0600  -29.7830   21.6900 H   0  0  0  0  0  0  0  0  0  0  0  0
  -18.1700  -28.0000   22.8280 C   0  0  0  0  0  0  0  0  0  0  0  0
  -20.7230  -28.2720   23.1260 C   0  0  0  0  0  3  0  0  0  0  0  0
  -20.8380  -26.8450   22.5410 C   0  0  0  0  0  2  0  0  0  0  0  0
  -19.7480  -26.5250   21.5120 C   0  0  0  0  0  2  0  0  0  0  0  0
  -18.3590  -26.6570   22.1420 C   0  0  0  0  0  2  0  0  0  0  0  0
  -19.2800  -28.7650   23.2740 C   0  0  0  0  0  0  0  0  0  0  0  0
  -19.0540  -30.0220   23.8750 C   0  0  0  0  0  3  0  0  0  0  0  0
  -17.7460  -30.5140   24.0360 C   0  0  0  0  0  3  0  0  0  0  0  0
  -16.6500  -29.7450   23.6100 C   0  0  0  0  0  3  0  0  0  0  0  0
  -16.8610  -28.4900   23.0110 C   0  0  0  0  0  3  0  0  0  0  0  0
  -25.9510  -32.5020   23.8690 C   0  0  0  0  0  3  0  0  0  0  0  0
  -26.4540  -31.7420   25.1590 C   0  0  1  0  0  0  0  0  0  0  0  0
  -25.3420  -31.4890   26.2040 C   0  0  0  0  0  1  0  0  0  0  0  0
  -27.0650  -30.3740   24.7820 C   0  0  0  0  0  1  0  0  0  0  0  0
  -27.5830  -32.5550   25.8390 C   0  0  0  0  0  1  0  0  0  0  0  0
  -25.6180  -33.8990   24.1870 N   0  0  0  0  0  0  0  0  0  0  0  0
  -25.9460  -34.9540   23.4280 C   0  0  0  0  0  0  0  0  0  0  0  0
  -26.6300  -34.8550   22.4070 O   0  0  0  0  0  0  0  0  0  0  0  0
  -25.0160  -34.0480   24.9820 H   0  0  0  0  0  0  0  0  0  0  0  0
  -24.1940  -36.7200   23.0550 C   0  0  0  0  0  1  0  0  0  0  0  0
  -25.4340  -36.3370   23.8760 C   0  0  0  0  0  3  0  0  0  0  0  0
  -27.5420  -37.2550   24.7320 C   0  0  0  0  0  1  0  0  0  0  0  0
  -26.4520  -37.4040   23.7710 N   0  0  0  0  0  0  0  0  0  0  0  0
  -26.0320  -38.3200   23.9130 H   0  0  0  0  0  0  0  0  0  0  0  0
  -30.9850  -17.1230   20.4530 C   0  0  0  0  0  2  0  0  0  0  0  0
  -30.9140  -14.6490   20.0030 C   0  0  0  0  0  0  0  0  0  0  0  0
  -30.5400  -12.4400   18.9450 C   0  0  0  0  0  2  0  0  0  0  0  0
  -29.5530  -12.5870   17.7690 C   0  0  0  0  0  2  0  0  0  0  0  0
  -28.1050  -12.4440   18.2720 C   0  0  0  0  0  2  0  0  0  0  0  0
  -27.8160  -13.3310   19.5140 C   0  0  0  0  0  3  0  0  0  0  0  0
  -28.9200  -13.1940   20.5860 C   0  0  0  0  0  2  0  0  0  0  0  0
  -30.2040  -13.4830   19.9340 N   0  0  0  0  0  0  0  0  0  0  0  0
  -32.0830  -14.6950   19.6120 O   0  0  0  0  0  0  0  0  0  0  0  0
  -30.2650  -15.8110   20.3270 N   0  0  0  0  0  0  0  0  0  0  0  0
  -29.2810  -15.7750   20.5480 H   0  0  0  0  0  0  0  0  0  0  0  0
  -25.4720  -13.9640   20.3430 C   0  0  0  0  0  0  0  0  0  0  0  0
  -24.4090  -13.2050   20.7500 C   0  0  0  0  0  0  0  0  0  0  0  0
  -24.8470  -11.8460   20.6980 C   0  0  0  0  0  0  0  0  0  0  0  0
  -26.4910  -13.0680   20.0620 N   0  0  0  0  0  0  0  0  0  0  0  0
  -26.1230  -11.7900   20.3380 N   0  0  0  0  0  0  0  0  0  0  0  0
  -24.1100  -10.5950   20.9130 C   0  0  0  0  0  0  0  0  0  0  0  0
  -24.5490   -9.6300   21.8480 C   0  0  0  0  0  3  0  0  0  0  0  0
  -23.8140   -8.4420   22.0470 C   0  0  0  0  0  3  0  0  0  0  0  0
  -22.6250   -8.2120   21.3150 C   0  0  0  0  0  0  0  0  0  0  0  0
  -22.2060   -9.1630   20.3710 C   0  0  0  0  0  3  0  0  0  0  0  0
  -22.9420  -10.3440   20.1680 C   0  0  0  0  0  3  0  0  0  0  0  0
  -21.8580   -7.0770   21.4280 O   0  0  0  0  0  0  0  0  0  0  0  0
  -21.7960   -6.3630   22.5990 C   0  0  0  0  0  0  0  0  0  0  0  0
  -21.3500   -6.9450   23.8050 C   0  0  0  0  0  3  0  0  0  0  0  0
  -21.2380   -6.1560   24.9670 C   0  0  0  0  0  3  0  0  0  0  0  0
  -21.5590   -4.7860   24.9250 C   0  0  0  0  0  0  0  0  0  0  0  0
  -21.9990   -4.2060   23.7220 C   0  0  0  0  0  3  0  0  0  0  0  0
  -22.1150   -4.9910   22.5620 C   0  0  0  0  0  0  0  0  0  0  0  0
  -22.5190   -4.4200   21.4020 F   0  0  0  0  0  0  0  0  0  0  0  0
  -21.4450   -4.0270   26.0380 F   0  0  0  0  0  0  0  0  0  0  0  0
  -23.0310  -13.7020   21.0790 C   0  0  0  0  0  0  0  0  0  0  0  0
  -22.3320  -13.0170   21.9740 N   0  0  0  0  0  0  0  0  0  0  0  0
  -22.5870  -14.7340   20.5750 O   0  0  0  0  0  0  0  0  0  0  0  0
  -22.7060  -12.1800   22.3960 H   0  0  0  0  0  0  0  0  0  0  0  0
  -21.4100  -13.3330   22.2440 H   0  0  0  0  0  0  0  0  0  0  0  0
  -25.6550  -15.3310   20.1670 N   0  0  0  0  0  0  0  0  0  0  0  0
  -24.9060  -16.0000   20.3100 H   0  0  0  0  0  0  0  0  0  0  0  0
  -26.5010  -15.7620   19.8180 H   0  0  0  0  0  0  0  0  0  0  0  0
  1  2  2  0
  1  4  1  0
  2  5  1  0
  3  6  1  0
  4  3  2  0
  5  6  2  0
  6  7  1  0
  8  9  1  0
  8  4  1  0
  9 10  1  0
 11 12  1  0
 11  9  1  0
 13 24  2  0
 14 12  1  0
 14 19  1  0
 15 23  1  0
 15 25  1  0
 16 22  1  0
 16 18  1  0
 17 23  1  0
 18 19  2  0
 18 17  1  0
 20 14  2  0
 21 20  1  0
 21 16  2  0
 22 15  1  0
 23 13  1  0
 25 27  2  0
 26 25  1  0
 28 26  1  0
 29 38  2  0
 29 34  1  0
 30 26  1  0
 30 34  1  0
 31 30  1  0
 32 33  1  0
 32 31  1  0
 33 29  1  0
 34 35  2  0
 35 36  1  0
 37 36  2  0
 38 37  1  0
 39 13  1  0
 39 44  1  0
 39 40  1  0
 40 43  1  1
 40 41  1  0
 42 40  1  0
 44 47  1  0
 45 49  1  0
 45 44  1  0
 46 45  2  0
 49 48  1  0
 51 49  1  0
 51 52  1  0
 51 50  1  0
 53  5  1  0
 54 62  1  0
 55 60  1  0
 56 57  1  0
 56 55  1  0
 58 57  1  0
 58 67  1  0
 58 59  1  0
 60 54  1  0
 60 59  1  0
 61 54  2  0
 62 53  1  0
 62 63  1  0
 64 65  2  0
 65 84  1  0
 66 65  1  0
 66 69  1  0
 67 68  1  0
 67 64  1  0
 68 66  2  0
 69 70  1  0
 70 71  2  0
 72 75  1  0
 72 71  1  0
 73 72  2  0
 74 73  1  0
 74 69  2  0
 75 76  1  0
 76 77  1  0
 77 78  2  0
 79 78  1  0
 79 83  1  0
 80 79  2  0
 81 76  2  0
 81 80  1  0
 82 81  1  0
 84 85  1  0
 85 88  1  0
 85 87  1  0
 86 84  2  0
 89 90  1  0
 89 64  1  0
 91 89  1  0
M  ISO  4  11 101  12 101  54 100  62 100
M  END
>  <TORSDO>  (54) 
F 20

>  <SCORE>  (54) 
-13.769

>  <name>  (54) 
53

>  <ligand_id>  (54) 
53

>  <original_smiles>  (54) 
[H]c1c([H])c([H])c2c(c1[H])C([H])([H])C([H])([H])C([H])([H])C2([H])N([H])C(=O)C1([H])N(C(=O)C([H])(N([H])C(=O)C([H])(N([H])C([H])([H])[H])C([H])([H])[H])C(C([H])([H])[H])(C([H])([H])[H])C([H])([H])[H])C([H])([H])c2c([H])c(OC([H])([H])C([H])(F)C([H])([H])c3c([H])c([H])c(C([H])([H])N([H])C(=O)N4C([H])([H])C([H])([H])C([H])([H])C([H])(n5nc(-c6c([H])c([H])c(Oc7c([H])c([H])c(F)c([H])c7F)c([H])c6[H])c(C(=O)N([H])[H])c5N([H])[H])C4([H])[H])c(F)c3[H])c([H])c([H])c2C1([H])[H]

>  <smiles>  (54) 
[H]c1c([H])c([H])c2c(c1[H])C([H])([H])C([H])([H])C([H])([H])C2([H])N([H])C(=O)C1([H])N(C(=O)C([H])(N([H])C(=O)C([H])(N([H])C([H])([H])[H])C([H])([H])[H])C(C([H])([H])[H])(C([H])([H])[H])C([H])([H])[H])C([H])([H])c2c([H])c(OC([H])([H])C([H])(F)C([H])([H])c3c([H])c([H])c(C([H])([H])N([H])C(=O)N4C([H])([H])C([H])([H])C([H])([H])C([H])(n5nc(-c6c([H])c([H])c(Oc7c([H])c([H])c(F)c([H])c7F)c([H])c6[H])c(C(=O)N([H])[H])c5N([H])[H])C4([H])[H])c(F)c3[H])c([H])c([H])c2C1([H])[H]

$$$$
54:0:0
     RDKit          3D

 97105  0  0  1  0  0  0  0  0999 V2000
  -33.1280  -23.1770   17.1370 C   0  0  0  0  0  0  0  0  0  0  0  0
  -33.3160  -22.7180   18.3830 N   0  0  0  0  0  0  0  0  0  0  0  0
  -32.8690  -22.4460   16.1830 O   0  0  0  0  0  0  0  0  0  0  0  0
  -33.5010  -23.3990   19.1090 H   0  0  0  0  0  0  0  0  0  0  0  0
  -33.2870  -24.6840   16.9320 C   0  0  0  0  0  2  0  0  0  0  0  0
  -32.5630  -25.5270   17.9920 C   0  0  0  0  0  2  0  0  0  0  0  0
  -31.0320  -25.4290   17.8930 C   0  0  0  0  0  2  0  0  0  0  0  0
  -30.3670  -26.1290   19.0760 C   0  0  0  0  0  2  0  0  0  0  0  0
  -28.8430  -26.0110   19.0840 C   0  0  0  0  0  2  0  0  0  0  0  0
  -28.4630  -26.8000   20.1920 O   0  0  0  0  0  0  0  0  0  0  0  0
  -24.6090  -31.8820   23.2010 C   0  0  0  0  0  0  0  0  0  0  0  0
  -27.2730  -27.4720   20.1380 C   0  0  0  0  0  0  0  0  0  0  0  0
  -23.4050  -30.4640   21.5650 C   0  0  0  0  0  3  0  0  0  0  0  0
  -24.8610  -28.9220   20.1460 C   0  0  0  0  0  0  0  0  0  0  0  0
  -25.9210  -30.8420   21.3590 C   0  0  0  0  0  2  0  0  0  0  0  0
  -26.0090  -29.4680   20.7350 C   0  0  0  0  0  0  0  0  0  0  0  0
  -27.2120  -28.7380   20.7440 C   0  0  0  0  0  3  0  0  0  0  0  0
  -26.1140  -26.9250   19.5410 C   0  0  0  0  0  3  0  0  0  0  0  0
  -24.9050  -27.6480   19.5510 C   0  0  0  0  0  3  0  0  0  0  0  0
  -23.6130  -29.7740   20.1890 C   0  0  0  0  0  2  0  0  0  0  0  0
  -24.6640  -31.0800   22.1020 N   0  0  0  0  0  0  0  0  0  0  0  0
  -23.5320  -32.1530   23.7430 O   0  0  0  0  0  0  0  0  0  0  0  0
  -22.7620  -29.4470   22.5330 C   0  0  0  0  0  0  0  0  0  0  0  0
  -21.4370  -29.2710   22.4160 N   0  0  0  0  0  0  0  0  0  0  0  0
  -23.4480  -28.8210   23.3450 O   0  0  0  0  0  0  0  0  0  0  0  0
  -20.9460  -29.8300   21.7330 H   0  0  0  0  0  0  0  0  0  0  0  0
  -18.0590  -28.1080   22.9470 C   0  0  0  0  0  0  0  0  0  0  0  0
  -20.6210  -28.3370   23.1910 C   0  0  0  0  0  3  0  0  0  0  0  0
  -20.7020  -26.9090   22.6040 C   0  0  0  0  0  2  0  0  0  0  0  0
  -19.5840  -26.6040   21.6030 C   0  0  0  0  0  2  0  0  0  0  0  0
  -18.2120  -26.7610   22.2640 C   0  0  0  0  0  2  0  0  0  0  0  0
  -19.1900  -28.8570   23.3690 C   0  0  0  0  0  0  0  0  0  0  0  0
  -18.9940  -30.1200   23.9650 C   0  0  0  0  0  3  0  0  0  0  0  0
  -17.6960  -30.6370   24.1480 C   0  0  0  0  0  3  0  0  0  0  0  0
  -16.5780  -29.8860   23.7440 C   0  0  0  0  0  3  0  0  0  0  0  0
  -16.7610  -28.6240   23.1500 C   0  0  0  0  0  3  0  0  0  0  0  0
  -25.8970  -32.5190   23.8150 C   0  0  0  0  0  3  0  0  0  0  0  0
  -25.5800  -33.9060   24.1660 N   0  0  0  0  0  0  0  0  0  0  0  0
  -25.8970  -34.9720   23.4160 C   0  0  0  0  0  0  0  0  0  0  0  0
  -26.5600  -34.8890   22.3800 O   0  0  0  0  0  0  0  0  0  0  0  0
  -24.9910  -34.0450   24.9730 H   0  0  0  0  0  0  0  0  0  0  0  0
  -24.1540  -36.7550   23.0880 C   0  0  0  0  0  1  0  0  0  0  0  0
  -25.3990  -36.3500   23.8950 C   0  0  0  0  0  3  0  0  0  0  0  0
  -27.5270  -37.2380   24.7400 C   0  0  0  0  0  1  0  0  0  0  0  0
  -26.4230  -37.4120   23.7980 N   0  0  0  0  0  0  0  0  0  0  0  0
  -26.0110  -38.3260   23.9590 H   0  0  0  0  0  0  0  0  0  0  0  0
  -26.4400  -31.7340   25.0700 C   0  0  1  0  0  0  0  0  0  0  0  0
  -25.3690  -31.4800   26.1560 C   0  0  0  0  0  1  0  0  0  0  0  0
  -27.0200  -30.3650   24.6470 C   0  0  0  0  0  1  0  0  0  0  0  0
  -27.5990  -32.5260   25.7240 C   0  0  0  0  0  1  0  0  0  0  0  0
  -33.4310  -21.3140   18.7440 C   0  0  0  0  0  2  0  0  0  0  0  0
  -32.0900  -20.6740   19.1610 C   0  0  0  0  0  2  0  0  0  0  0  0
  -32.0980  -19.1630   18.8420 C   0  0  0  0  0  2  0  0  0  0  0  0
  -30.7750  -14.4010   20.1340 C   0  0  0  0  0  0  0  0  0  0  0  0
  -30.3720  -12.3160   18.9120 C   0  0  0  0  0  2  0  0  0  0  0  0
  -29.3740  -12.6260   17.7790 C   0  0  0  0  0  2  0  0  0  0  0  0
  -27.9180  -12.4900   18.2760 C   0  0  0  0  0  2  0  0  0  0  0  0
  -27.6610  -13.2440   19.6120 C   0  0  0  0  0  3  0  0  0  0  0  0
  -28.7770  -12.9550   20.6440 C   0  0  0  0  0  2  0  0  0  0  0  0
  -30.0730  -13.2450   20.0090 N   0  0  0  0  0  0  0  0  0  0  0  0
  -31.9120  -14.5590   19.6870 O   0  0  0  0  0  0  0  0  0  0  0  0
  -30.5180  -17.5000   21.8930 C   0  0  0  0  0  2  0  0  0  0  0  0
  -30.0340  -16.0320   21.8130 C   0  0  0  0  0  2  0  0  0  0  0  0
  -29.4840  -16.3630   19.4040 C   0  0  0  0  0  2  0  0  0  0  0  0
  -31.6340  -17.8890   20.8980 C   0  0  0  0  0  2  0  0  0  0  0  0
  -30.5240  -17.2900   18.7310 C   0  0  0  0  0  2  0  0  0  0  0  0
  -30.0280  -15.4830   20.4550 N   0  0  0  0  0  0  0  0  0  0  0  0
  -31.0890  -18.3670   19.5950 N   0  0  2  0  0  4  0  0  0  0  0  0
  -30.3290  -18.9950   19.8100 H   0  0  0  0  0  0  0  0  0  0  0  0
  -25.3050  -13.8600   20.4350 C   0  0  0  0  0  0  0  0  0  0  0  0
  -24.2470  -13.0870   20.8350 C   0  0  0  0  0  0  0  0  0  0  0  0
  -24.7040  -11.7350   20.7720 C   0  0  0  0  0  0  0  0  0  0  0  0
  -26.3340  -12.9730   20.1500 N   0  0  0  0  0  0  0  0  0  0  0  0
  -25.9800  -11.6920   20.4070 N   0  0  0  0  0  0  0  0  0  0  0  0
  -23.9880  -10.4720   20.9760 C   0  0  0  0  0  0  0  0  0  0  0  0
  -24.4400   -9.5050   21.9020 C   0  0  0  0  0  3  0  0  0  0  0  0
  -23.7250   -8.3030   22.0910 C   0  0  0  0  0  3  0  0  0  0  0  0
  -22.5390   -8.0620   21.3580 C   0  0  0  0  0  0  0  0  0  0  0  0
  -22.1080   -9.0150   20.4160 C   0  0  0  0  0  3  0  0  0  0  0  0
  -22.8260  -10.2070   20.2240 C   0  0  0  0  0  3  0  0  0  0  0  0
  -21.7870   -6.9160   21.4630 O   0  0  0  0  0  0  0  0  0  0  0  0
  -21.7350   -6.1900   22.6270 C   0  0  0  0  0  0  0  0  0  0  0  0
  -21.2910   -6.7570   23.8410 C   0  0  0  0  0  3  0  0  0  0  0  0
  -21.1830   -5.9550   24.9950 C   0  0  0  0  0  3  0  0  0  0  0  0
  -21.5130   -4.5880   24.9360 C   0  0  0  0  0  0  0  0  0  0  0  0
  -21.9480   -4.0210   23.7260 C   0  0  0  0  0  3  0  0  0  0  0  0
  -22.0550   -4.8190   22.5740 C   0  0  0  0  0  0  0  0  0  0  0  0
  -22.4550   -4.2600   21.4060 F   0  0  0  0  0  0  0  0  0  0  0  0
  -21.4040   -3.8160   26.0440 F   0  0  0  0  0  0  0  0  0  0  0  0
  -22.8590  -13.5660   21.1660 C   0  0  0  0  0  0  0  0  0  0  0  0
  -22.1570  -12.8670   22.0490 N   0  0  0  0  0  0  0  0  0  0  0  0
  -22.4030  -14.5990   20.6720 O   0  0  0  0  0  0  0  0  0  0  0  0
  -22.5300  -12.0360   22.4820 H   0  0  0  0  0  0  0  0  0  0  0  0
  -21.2280  -13.1710   22.3020 H   0  0  0  0  0  0  0  0  0  0  0  0
  -25.4720  -15.2290   20.2700 N   0  0  0  0  0  0  0  0  0  0  0  0
  -24.7320  -15.9040   20.4380 H   0  0  0  0  0  0  0  0  0  0  0  0
  -26.3350  -15.6610   19.9650 H   0  0  0  0  0  0  0  0  0  0  0  0
  1  2  1  0
  2 51  1  0
  2  4  1  0
  3  1  2  0
  5  1  1  0
  5  6  1  0
  7  6  1  0
  7  8  1  0
  8  9  1  0
  9 10  1  0
 11 22  2  0
 12 10  1  0
 12 17  1  0
 13 21  1  0
 13 23  1  0
 14 20  1  0
 14 16  1  0
 15 21  1  0
 16 17  2  0
 16 15  1  0
 18 19  1  0
 18 12  2  0
 19 14  2  0
 20 13  1  0
 21 11  1  0
 23 25  2  0
 24 23  1  0
 26 24  1  0
 27 36  2  0
 27 32  1  0
 28 24  1  0
 28 32  1  0
 29 28  1  0
 30 31  1  0
 30 29  1  0
 31 27  1  0
 32 33  2  0
 33 34  1  0
 35 34  2  0
 36 35  1  0
 37 11  1  0
 37 38  1  0
 37 47  1  0
 38 41  1  0
 39 43  1  0
 39 38  1  0
 40 39  2  0
 43 42  1  0
 45 43  1  0
 45 46  1  0
 45 44  1  0
 47 50  1  1
 47 48  1  0
 49 47  1  0
 51 52  1  0
 53 52  1  0
 53 68  1  0
 54 67  1  0
 55 60  1  0
 56 57  1  0
 56 55  1  0
 58 57  1  0
 58 73  1  0
 58 59  1  0
 60 54  1  0
 60 59  1  0
 61 54  2  0
 63 62  1  0
 64 67  1  0
 65 62  1  0
 66 64  1  0
 66 68  1  0
 67 63  1  0
 68 69  1  1
 68 65  1  0
 70 71  2  0
 71 90  1  0
 72 71  1  0
 72 75  1  0
 73 74  1  0
 73 70  1  0
 74 72  2  0
 75 76  1  0
 76 77  2  0
 78 81  1  0
 78 77  1  0
 79 78  2  0
 80 79  1  0
 80 75  2  0
 81 82  1  0
 82 83  1  0
 83 84  2  0
 85 84  1  0
 85 89  1  0
 86 85  2  0
 87 82  2  0
 87 86  1  0
 88 87  1  0
 90 91  1  0
 91 94  1  0
 91 93  1  0
 92 90  2  0
 95 70  1  0
 95 96  1  0
 97 95  1  0
M  ISO  4   9 101  10 101  54 100  67 100
M  END
>  <TORSDO>  (55) 
F 24

>  <SCORE>  (55) 
-12.312

>  <name>  (55) 
54

>  <ligand_id>  (55) 
54

>  <original_smiles>  (55) 
[H]c1c([H])c([H])c2c(c1[H])C([H])([H])C([H])([H])C([H])([H])C2([H])N([H])C(=O)C1([H])N(C(=O)C([H])(N([H])C(=O)C([H])(N([H])C([H])([H])[H])C([H])([H])[H])C(C([H])([H])[H])(C([H])([H])[H])C([H])([H])[H])C([H])([H])c2c([H])c(OC([H])([H])C([H])([H])C([H])([H])C([H])([H])C([H])([H])C(=O)N([H])C([H])([H])C([H])([H])C([H])([H])[N+]3([H])C([H])([H])C([H])([H])N(C(=O)N4C([H])([H])C([H])([H])C([H])([H])C([H])(n5nc(-c6c([H])c([H])c(Oc7c([H])c([H])c(F)c([H])c7F)c([H])c6[H])c(C(=O)N([H])[H])c5N([H])[H])C4([H])[H])C([H])([H])C([H])([H])C3([H])[H])c([H])c([H])c2C1([H])[H]

>  <smiles>  (55) 
[H]c1c([H])c([H])c2c(c1[H])C([H])([H])C([H])([H])C([H])([H])C2([H])N([H])C(=O)C1([H])N(C(=O)C([H])(N([H])C(=O)C([H])(N([H])C([H])([H])[H])C([H])([H])[H])C(C([H])([H])[H])(C([H])([H])[H])C([H])([H])[H])C([H])([H])c2c([H])c(OC([H])([H])C([H])([H])C([H])([H])C([H])([H])C([H])([H])C(=O)N([H])C([H])([H])C([H])([H])C([H])([H])[N+]3([H])C([H])([H])C([H])([H])N(C(=O)N4C([H])([H])C([H])([H])C([H])([H])C([H])(n5nc(-c6c([H])c([H])c(Oc7c([H])c([H])c(F)c([H])c7F)c([H])c6[H])c(C(=O)N([H])[H])c5N([H])[H])C4([H])[H])C([H])([H])C([H])([H])C3([H])[H])c([H])c([H])c2C1([H])[H]

$$$$
55:0:0
     RDKit          3D

 92100  0  0  1  0  0  0  0  0999 V2000
  -27.8900  -22.4940   19.5640 C   0  0  0  0  0  2  0  0  0  0  0  0
  -28.2570  -23.9640   19.8750 C   0  0  0  0  0  2  0  0  0  0  0  0
  -28.4320  -24.8440   18.6230 C   0  0  0  0  0  0  0  0  0  0  0  0
  -28.2700  -24.3920   17.4850 O   0  0  0  0  0  0  0  0  0  0  0  0
  -28.7890  -26.3230   18.8130 C   0  0  0  0  0  2  0  0  0  0  0  0
  -28.3850  -26.8160   20.0910 O   0  0  0  0  0  0  0  0  0  0  0  0
  -24.5670  -31.9010   23.2520 C   0  0  0  0  0  0  0  0  0  0  0  0
  -27.1950  -27.5050   20.1150 C   0  0  0  0  0  0  0  0  0  0  0  0
  -23.3440  -30.5040   21.6140 C   0  0  0  0  0  3  0  0  0  0  0  0
  -24.7880  -28.9770   20.1700 C   0  0  0  0  0  0  0  0  0  0  0  0
  -25.8650  -30.8720   21.3940 C   0  0  0  0  0  2  0  0  0  0  0  0
  -25.9470  -29.5050   20.7520 C   0  0  0  0  0  0  0  0  0  0  0  0
  -27.1500  -28.7680   20.7380 C   0  0  0  0  0  3  0  0  0  0  0  0
  -26.0160  -26.9770   19.5410 C   0  0  0  0  0  3  0  0  0  0  0  0
  -24.8130  -27.7060   19.5710 C   0  0  0  0  0  3  0  0  0  0  0  0
  -23.5410  -29.8280   20.2300 C   0  0  0  0  0  2  0  0  0  0  0  0
  -24.6100  -31.1060   22.1450 N   0  0  0  0  0  0  0  0  0  0  0  0
  -23.4930  -32.1720   23.8030 O   0  0  0  0  0  0  0  0  0  0  0  0
  -22.7070  -29.4780   22.5760 C   0  0  0  0  0  0  0  0  0  0  0  0
  -21.3830  -29.2880   22.4550 N   0  0  0  0  0  0  0  0  0  0  0  0
  -23.3980  -28.8560   23.3870 O   0  0  0  0  0  0  0  0  0  0  0  0
  -20.8850  -29.8400   21.7700 H   0  0  0  0  0  0  0  0  0  0  0  0
  -18.0190  -28.0710   22.9650 C   0  0  0  0  0  0  0  0  0  0  0  0
  -20.5750  -28.3450   23.2300 C   0  0  0  0  0  3  0  0  0  0  0  0
  -20.6870  -26.9140   22.6550 C   0  0  0  0  0  2  0  0  0  0  0  0
  -19.5850  -26.5820   21.6440 C   0  0  0  0  0  2  0  0  0  0  0  0
  -18.2030  -26.7220   22.2910 C   0  0  0  0  0  2  0  0  0  0  0  0
  -19.1340  -28.8410   23.3900 C   0  0  0  0  0  0  0  0  0  0  0  0
  -18.9110  -30.1040   23.9780 C   0  0  0  0  0  3  0  0  0  0  0  0
  -17.6050  -30.6010   24.1460 C   0  0  0  0  0  3  0  0  0  0  0  0
  -16.5030  -29.8280   23.7360 C   0  0  0  0  0  3  0  0  0  0  0  0
  -16.7110  -28.5660   23.1520 C   0  0  0  0  0  3  0  0  0  0  0  0
  -25.8610  -32.5280   23.8590 C   0  0  0  0  0  3  0  0  0  0  0  0
  -26.3900  -31.7590   25.1300 C   0  0  1  0  0  0  0  0  0  0  0  0
  -25.3080  -31.5250   26.2090 C   0  0  0  0  0  1  0  0  0  0  0  0
  -26.9680  -30.3800   24.7350 C   0  0  0  0  0  1  0  0  0  0  0  0
  -27.5490  -32.5530   25.7780 C   0  0  0  0  0  1  0  0  0  0  0  0
  -25.5600  -33.9280   24.1850 N   0  0  0  0  0  0  0  0  0  0  0  0
  -25.8960  -34.9760   23.4210 C   0  0  0  0  0  0  0  0  0  0  0  0
  -26.5640  -34.8670   22.3900 O   0  0  0  0  0  0  0  0  0  0  0  0
  -24.9640  -34.0870   24.9860 H   0  0  0  0  0  0  0  0  0  0  0  0
  -24.1800  -36.7770   23.0530 C   0  0  0  0  0  1  0  0  0  0  0  0
  -25.4140  -36.3680   23.8740 C   0  0  0  0  0  3  0  0  0  0  0  0
  -27.5490  -37.2410   24.7140 C   0  0  0  0  0  1  0  0  0  0  0  0
  -26.4520  -37.4160   23.7650 N   0  0  0  0  0  0  0  0  0  0  0  0
  -26.0500  -38.3380   23.9100 H   0  0  0  0  0  0  0  0  0  0  0  0
  -28.3600  -21.4870   20.6340 C   0  0  0  0  0  2  0  0  0  0  0  0
  -28.1650  -20.0370   20.1460 C   0  0  0  0  0  2  0  0  0  0  0  0
  -28.9000  -19.0320   20.9530 N   0  0  0  0  0  4  0  0  0  0  0  0
  -29.8440  -19.3560   21.0940 H   0  0  0  0  0  0  0  0  0  0  0  0
  -28.4630  -18.9630   21.8590 H   0  0  0  0  0  0  0  0  0  0  0  0
  -30.7610  -14.4850   20.4220 C   0  0  0  0  0  0  0  0  0  0  0  0
  -30.4790  -12.2900   19.3780 C   0  0  0  0  0  2  0  0  0  0  0  0
  -29.5630  -12.4760   18.1490 C   0  0  0  0  0  2  0  0  0  0  0  0
  -28.0770  -12.3800   18.5530 C   0  0  0  0  0  2  0  0  0  0  0  0
  -27.7190  -13.2470   19.7910 C   0  0  0  0  0  3  0  0  0  0  0  0
  -28.7570  -13.0620   20.9230 C   0  0  0  0  0  2  0  0  0  0  0  0
  -30.0930  -13.3070   20.3610 N   0  0  0  0  0  0  0  0  0  0  0  0
  -31.9660  -14.5980   20.1800 O   0  0  0  0  0  0  0  0  0  0  0  0
  -29.7000  -17.6280   18.9990 C   0  0  0  0  0  2  0  0  0  0  0  0
  -29.9830  -16.1420   18.8300 C   0  0  0  0  0  2  0  0  0  0  0  0
  -29.6340  -16.5870   21.1500 C   0  0  0  0  0  2  0  0  0  0  0  0
  -28.9430  -17.6870   20.3250 C   0  0  0  0  0  3  0  0  0  0  0  0
  -29.9540  -15.5390   20.1730 N   0  0  0  0  0  0  0  0  0  0  0  0
  -25.3180  -13.8890   20.4520 C   0  0  0  0  0  0  0  0  0  0  0  0
  -24.2350  -13.1330   20.8130 C   0  0  0  0  0  0  0  0  0  0  0  0
  -24.6850  -11.7780   20.8120 C   0  0  0  0  0  0  0  0  0  0  0  0
  -26.3580  -12.9940   20.2530 N   0  0  0  0  0  0  0  0  0  0  0  0
  -25.9810  -11.7210   20.5300 N   0  0  0  0  0  0  0  0  0  0  0  0
  -23.9450  -10.5250   21.0050 C   0  0  0  0  0  0  0  0  0  0  0  0
  -24.3610   -9.5600   21.9480 C   0  0  0  0  0  3  0  0  0  0  0  0
  -23.6240   -8.3710   22.1280 C   0  0  0  0  0  3  0  0  0  0  0  0
  -22.4570   -8.1370   21.3630 C   0  0  0  0  0  0  0  0  0  0  0  0
  -22.0610   -9.0890   20.4070 C   0  0  0  0  0  3  0  0  0  0  0  0
  -22.7990  -10.2710   20.2250 C   0  0  0  0  0  3  0  0  0  0  0  0
  -21.6920   -7.0000   21.4530 O   0  0  0  0  0  0  0  0  0  0  0  0
  -21.6320   -6.2620   22.6080 C   0  0  0  0  0  0  0  0  0  0  0  0
  -21.2070   -6.8270   23.8300 C   0  0  0  0  0  3  0  0  0  0  0  0
  -21.0930   -6.0160   24.9770 C   0  0  0  0  0  3  0  0  0  0  0  0
  -21.3950   -4.6420   24.9030 C   0  0  0  0  0  0  0  0  0  0  0  0
  -21.8140   -4.0780   23.6850 C   0  0  0  0  0  3  0  0  0  0  0  0
  -21.9290   -4.8860   22.5400 C   0  0  0  0  0  0  0  0  0  0  0  0
  -22.3130   -4.3340   21.3640 F   0  0  0  0  0  0  0  0  0  0  0  0
  -21.2780   -3.8610   26.0020 F   0  0  0  0  0  0  0  0  0  0  0  0
  -22.8370  -13.6270   21.0470 C   0  0  0  0  0  0  0  0  0  0  0  0
  -22.0820  -12.9490   21.9030 N   0  0  0  0  0  0  0  0  0  0  0  0
  -22.4200  -14.6500   20.5020 O   0  0  0  0  0  0  0  0  0  0  0  0
  -22.4290  -12.1230   22.3690 H   0  0  0  0  0  0  0  0  0  0  0  0
  -21.1430  -13.2630   22.1020 H   0  0  0  0  0  0  0  0  0  0  0  0
  -25.4970  -15.2550   20.2540 N   0  0  0  0  0  0  0  0  0  0  0  0
  -24.7250  -15.9100   20.3140 H   0  0  0  0  0  0  0  0  0  0  0  0
  -26.3390  -15.6600   19.8680 H   0  0  0  0  0  0  0  0  0  0  0  0
  1  2  1  0
  1 47  1  0
  3  5  1  0
  3  2  1  0
  4  3  2  0
  5  6  1  0
  6  8  1  0
  7 18  2  0
  8 13  1  0
  9 17  1  0
  9 19  1  0
 10 16  1  0
 10 12  1  0
 11 17  1  0
 12 11  1  0
 13 12  2  0
 14 15  1  0
 14  8  2  0
 15 10  2  0
 16  9  1  0
 17  7  1  0
 19 21  2  0
 20 19  1  0
 22 20  1  0
 23 32  2  0
 23 28  1  0
 24 20  1  0
 24 28  1  0
 25 24  1  0
 26 27  1  0
 26 25  1  0
 27 23  1  0
 28 29  2  0
 29 30  1  0
 31 30  2  0
 32 31  1  0
 33  7  1  0
 33 38  1  0
 33 34  1  0
 34 37  1  1
 34 35  1  0
 36 34  1  0
 38 41  1  0
 39 43  1  0
 39 38  1  0
 40 39  2  0
 43 42  1  0
 45 43  1  0
 45 46  1  0
 45 44  1  0
 48 47  1  0
 48 49  1  0
 49 50  1  0
 49 51  1  0
 53 58  1  0
 54 55  1  0
 54 53  1  0
 56 55  1  0
 56 68  1  0
 56 57  1  0
 58 52  1  0
 58 57  1  0
 59 52  2  0
 60 63  1  0
 61 60  1  0
 61 64  1  0
 63 49  1  0
 63 62  1  0
 64 52  1  0
 64 62  1  0
 65 66  2  0
 66 85  1  0
 67 66  1  0
 67 70  1  0
 68 65  1  0
 68 69  1  0
 69 67  2  0
 70 71  1  0
 71 72  2  0
 73 76  1  0
 73 72  1  0
 74 73  2  0
 75 74  1  0
 75 70  2  0
 76 77  1  0
 77 78  1  0
 78 79  2  0
 80 79  1  0
 80 84  1  0
 81 80  2  0
 82 77  2  0
 82 81  1  0
 83 82  1  0
 85 86  1  0
 86 89  1  0
 86 88  1  0
 87 85  2  0
 90 91  1  0
 90 65  1  0
 92 90  1  0
M  ISO  4   5 101   6 101  52 100  64 100
M  END
>  <TORSDO>  (56) 
F 22

>  <SCORE>  (56) 
-13.172

>  <name>  (56) 
55

>  <ligand_id>  (56) 
55

>  <original_smiles>  (56) 
[H]c1c([H])c([H])c2c(c1[H])C([H])([H])C([H])([H])C([H])([H])C2([H])N([H])C(=O)C1([H])N(C(=O)C([H])(N([H])C(=O)C([H])(N([H])C([H])([H])[H])C([H])([H])[H])C(C([H])([H])[H])(C([H])([H])[H])C([H])([H])[H])C([H])([H])c2c([H])c(OC([H])([H])C(=O)C([H])([H])C([H])([H])C([H])([H])C([H])([H])[N+]([H])([H])C3([H])C([H])([H])N(C(=O)N4C([H])([H])C([H])([H])C([H])([H])C([H])(n5nc(-c6c([H])c([H])c(Oc7c([H])c([H])c(F)c([H])c7F)c([H])c6[H])c(C(=O)N([H])[H])c5N([H])[H])C4([H])[H])C([H])([H])C3([H])[H])c([H])c([H])c2C1([H])[H]

>  <smiles>  (56) 
[H]c1c([H])c([H])c2c(c1[H])C([H])([H])C([H])([H])C([H])([H])C2([H])N([H])C(=O)C1([H])N(C(=O)C([H])(N([H])C(=O)C([H])(N([H])C([H])([H])[H])C([H])([H])[H])C(C([H])([H])[H])(C([H])([H])[H])C([H])([H])[H])C([H])([H])c2c([H])c(OC([H])([H])C(=O)C([H])([H])C([H])([H])C([H])([H])C([H])([H])[N+]([H])([H])C3([H])C([H])([H])N(C(=O)N4C([H])([H])C([H])([H])C([H])([H])C([H])(n5nc(-c6c([H])c([H])c(Oc7c([H])c([H])c(F)c([H])c7F)c([H])c6[H])c(C(=O)N([H])[H])c5N([H])[H])C4([H])[H])C([H])([H])C3([H])[H])c([H])c([H])c2C1([H])[H]

$$$$
56:0:0
     RDKit          3D

 96 95  0  0  1  0  0  0  0  0999 V2000
  -19.5420  -27.4070   20.8840 C   0  0  0  0  0  3  0  0  0  0  0  0
  -21.4040  -26.3320   24.2540 C   0  0  0  0  0 15  0  0  0  0  0  0
  -19.4720  -29.0770   21.6630 C   0  0  0  0  0  2  0  0  0  0  0  0
  -20.9300  -28.5200   24.3730 C   0  0  0  0  0 15  0  0  0  0  0  0
  -21.2000  -25.3410   22.3390 C   0  0  0  0  0 15  0  0  0  0  0  0
  -20.5710  -29.6360   22.8150 N   0  0  0  0  0  0  0  0  0  0  0  0
  -21.3450  -29.1230   22.4210 H   0  0  0  0  0  0  0  0  0  0  0  0
  -22.9170  -24.2970   21.2710 C   0  0  0  0  0 15  0  0  0  0  0  0
  -24.8180  -24.0990   20.1340 C   0  0  0  0  0 15  0  0  0  0  0  0
  -25.9560  -23.1090   18.8670 N   0  0  0  0  0  2  0  0  0  0  0  0
  -25.5020  -23.3580   18.0040 H   0  0  0  0  0  0  0  0  0  0  0  0
  -25.6320  -22.1730   19.0420 H   0  0  0  0  0  0  0  0  0  0  0  0
  -27.7630  -22.6990   18.1970 C   0  0  0  0  0 15  0  0  0  0  0  0
  -29.0280  -21.9450   16.5390 C   0  0  0  0  0 15  0  0  0  0  0  0
  -31.9870  -21.0460   14.5990 C   0  0  0  0  0  0  0  0  0  0  0  0
  -33.7300  -19.3600   13.1190 C   0  0  0  0  0  2  0  0  0  0  0  0
  -33.1770  -17.9900   12.5580 C   0  0  0  0  0  2  0  0  0  0  0  0
  -32.9500  -16.9780   13.6890 C   0  0  0  0  0  2  0  0  0  0  0  0
  -32.4420  -17.7470   14.9210 C   0  0  0  0  0  3  0  0  0  0  0  0
  -33.3290  -18.9150   15.3430 C   0  0  0  0  0  2  0  0  0  0  0  0
  -32.9600  -19.9200   14.3870 N   0  0  0  0  0  0  0  0  0  0  0  0
  -32.2990  -21.7180   13.5570 O   0  0  0  0  0  0  0  0  0  0  0  0
  -30.7780  -21.3170   15.7820 N   0  0  0  0  0  2  0  0  0  0  0  0
  -31.0550  -20.6240   16.4670 H   0  0  0  0  0  0  0  0  0  0  0  0
  -31.0570  -17.0560   16.8630 C   0  0  0  0  0  0  0  0  0  0  0  0
  -31.2570  -16.1390   17.8470 C   0  0  0  0  0  0  0  0  0  0  0  0
  -32.5480  -15.5740   17.6050 C   0  0  0  0  0  0  0  0  0  0  0  0
  -32.1820  -16.9730   16.0770 N   0  0  0  0  0  0  0  0  0  0  0  0
  -33.1280  -16.1460   16.5630 N   0  0  0  0  0  0  0  0  0  0  0  0
  -33.2360  -14.4650   18.2560 C   0  0  0  0  0  0  0  0  0  0  0  0
  -34.5160  -14.6210   18.8300 C   0  0  0  0  0  3  0  0  0  0  0  0
  -35.1450  -13.5310   19.4660 C   0  0  0  0  0  3  0  0  0  0  0  0
  -34.4900  -12.2780   19.5340 C   0  0  0  0  0  0  0  0  0  0  0  0
  -33.2280  -12.1250   18.9350 C   0  0  0  0  0  3  0  0  0  0  0  0
  -32.6060  -13.2080   18.2970 C   0  0  0  0  0  3  0  0  0  0  0  0
  -35.0300  -11.1570   20.1130 O   0  0  0  0  0  0  0  0  0  0  0  0
  -35.8980  -11.2460   21.1690 C   0  0  0  0  0  0  0  0  0  0  0  0
  -35.5480  -11.9020   22.3700 C   0  0  0  0  0  3  0  0  0  0  0  0
  -36.4470  -11.9060   23.4550 C   0  0  0  0  0  3  0  0  0  0  0  0
  -37.6880  -11.2500   23.3460 C   0  0  0  0  0  0  0  0  0  0  0  0
  -38.0350  -10.5940   22.1530 C   0  0  0  0  0  3  0  0  0  0  0  0
  -37.1410  -10.5900   21.0690 C   0  0  0  0  0  0  0  0  0  0  0  0
  -37.4700   -9.9390   19.9260 F   0  0  0  0  0  0  0  0  0  0  0  0
  -38.5470  -11.2470   24.3910 F   0  0  0  0  0  0  0  0  0  0  0  0
  -30.2550  -15.7390   18.8800 C   0  0  0  0  0  0  0  0  0  0  0  0
  -30.7190  -15.3310   20.0530 N   0  0  0  0  0  0  0  0  0  0  0  0
  -29.0480  -15.8350   18.6610 O   0  0  0  0  0  0  0  0  0  0  0  0
  -31.7110  -15.2750   20.2320 H   0  0  0  0  0  0  0  0  0  0  0  0
  -30.0730  -15.0720   20.7850 H   0  0  0  0  0  0  0  0  0  0  0  0
  -30.0120  -17.9260   16.5550 N   0  0  0  0  0  0  0  0  0  0  0  0
  -29.1340  -17.8290   17.0530 H   0  0  0  0  0  0  0  0  0  0  0  0
  -29.8900  -18.3090   15.6270 H   0  0  0  0  0  0  0  0  0  0  0  0
  -21.2950  -30.9750   21.9780 C   0  0  0  0  0  2  0  0  0  0  0  0
  -22.4400  -31.1750   20.4240 C   0  0  0  0  0  2  0  0  0  0  0  0
  -24.2660  -31.6140   20.0540 C   0  0  0  0  0  2  0  0  0  0  0  0
  -25.6820  -31.3020   19.0910 O   0  0  0  0  0  0  0  0  0  0  0  0
  -24.7110  -26.7320   23.4490 C   0  0  0  0  0  0  0  0  0  0  0  0
  -26.4370  -30.1740   18.7170 C   0  0  0  0  0  3  0  0  0  0  0  0
  -23.5320  -27.8760   21.7770 C   0  0  0  0  0  3  0  0  0  0  0  0
  -24.6550  -29.0100   20.0170 C   0  0  0  0  0  3  0  0  0  0  0  0
  -25.9670  -28.4590   22.0710 C   0  0  0  0  0  2  0  0  0  0  0  0
  -25.8860  -28.9290   20.6140 C   0  0  0  0  0  3  0  0  0  0  0  0
  -26.9080  -29.4120   19.8190 C   0  0  0  0  0  2  0  0  0  0  0  0
  -25.4740  -29.6420   17.8810 C   0  0  0  0  0  2  0  0  0  0  0  0
  -24.3770  -29.2560   18.6410 C   0  0  0  0  0  2  0  0  0  0  0  0
  -23.6800  -29.0420   21.0250 C   0  0  0  0  0  2  0  0  0  0  0  0
  -24.7700  -27.6500   22.4700 N   0  0  0  0  0  0  0  0  0  0  0  0
  -23.6520  -26.2330   23.8620 O   0  0  0  0  0  0  0  0  0  0  0  0
  -23.2260  -26.9140   20.5970 C   0  0  0  0  0  0  0  0  0  0  0  0
  -22.2350  -27.1600   19.7110 N   0  0  0  0  0  0  0  0  0  0  0  0
  -23.8710  -25.9190   20.4180 O   0  0  0  0  0  0  0  0  0  0  0  0
  -22.4500  -26.5940   18.9010 H   0  0  0  0  0  0  0  0  0  0  0  0
  -17.7880  -26.0360   19.5370 C   0  0  0  0  0  0  0  0  0  0  0  0
  -20.7920  -27.4920   19.6350 C   0  0  0  0  0  3  0  0  0  0  0  0
  -20.6030  -28.1010   17.9190 C   0  0  0  0  0  2  0  0  0  0  0  0
  -19.0240  -27.5760   17.0880 C   0  0  0  0  0  3  0  0  0  0  0  0
  -17.7560  -26.5420   17.9090 C   0  0  0  0  0  3  0  0  0  0  0  0
  -18.9780  -26.3300   20.4130 C   0  0  0  0  0  0  0  0  0  0  0  0
  -18.5700  -25.9600   21.8020 C   0  0  0  0  0  3  0  0  0  0  0  0
  -17.4510  -25.3190   22.3290 C   0  0  0  0  0  3  0  0  0  0  0  0
  -16.3630  -25.2560   21.4890 C   0  0  0  0  0  3  0  0  0  0  0  0
  -16.5390  -25.6390   20.1390 C   0  0  0  0  0  3  0  0  0  0  0  0
  -26.0220  -26.2350   24.0350 C   0  0  0  0  0  3  0  0  0  0  0  0
  -25.7370  -25.8410   25.4120 N   0  0  0  0  0  0  0  0  0  0  0  0
  -26.0540  -26.5930   26.4710 C   0  0  0  0  0  0  0  0  0  0  0  0
  -26.6920  -27.6460   26.3790 O   0  0  0  0  0  0  0  0  0  0  0  0
  -25.1770  -25.0130   25.5500 H   0  0  0  0  0  0  0  0  0  0  0  0
  -24.4520  -26.9330   28.3770 C   0  0  0  0  0  1  0  0  0  0  0  0
  -25.6140  -26.0780   27.8490 C   0  0  0  0  0  3  0  0  0  0  0  0
  -27.7620  -25.0910   28.5070 C   0  0  0  0  0  1  0  0  0  0  0  0
  -26.7140  -26.0560   28.8340 N   0  0  0  0  0  0  0  0  0  0  0  0
  -26.3610  -25.8360   29.7620 H   0  0  0  0  0  0  0  0  0  0  0  0
  -26.5970  -25.0520   23.1770 C   0  0  1  0  0  0  0  0  0  0  0  0
  -25.5860  -23.9100   22.9110 C   0  0  0  0  0  1  0  0  0  0  0  0
  -27.1220  -25.5460   21.8050 C   0  0  0  0  0  1  0  0  0  0  0  0
  -27.8120  -24.4700   23.9210 C   0  0  0  0  0  1  0  0  0  0  0  0
  1  3  1  0
  3  6  1  0
  7  6  1  0
 10 12  1  0
 11 10  1  0
 15 23  1  0
 16 21  1  0
 17 16  1  0
 17 18  1  0
 19 18  1  0
 19 20  1  0
 19 28  1  0
 21 15  1  0
 21 20  1  0
 22 15  2  0
 23 24  1  0
 25 26  2  0
 26 45  1  0
 27 26  1  0
 27 30  1  0
 28 29  1  0
 28 25  1  0
 29 27  2  0
 30 35  2  0
 30 31  1  0
 31 32  2  0
 32 33  1  0
 33 36  1  0
 34 33  2  0
 35 34  1  0
 36 37  1  0
 37 38  1  0
 38 39  2  0
 40 39  1  0
 40 44  1  0
 41 40  2  0
 42 37  2  0
 42 41  1  0
 43 42  1  0
 45 46  1  0
 46 48  1  0
 46 49  1  0
 47 45  2  0
 50 25  1  0
 50 51  1  0
 52 50  1  0
 53  6  1  0
 54 53  1  0
 55 54  1  0
 56 55  1  0
 57 68  2  0
 58 64  1  0
 58 56  1  0
 58 63  1  0
 59 66  1  0
 59 67  1  0
 60 65  1  0
 60 62  1  0
 60 66  1  0
 61 67  1  0
 62 63  1  0
 62 61  1  0
 64 65  1  0
 67 57  1  0
 69 59  1  0
 70 69  1  0
 71 69  2  0
 72 70  1  0
 73 82  2  0
 73 78  1  0
 74 75  1  0
 74 70  1  0
 74  1  1  0
 76 77  2  0
 76 75  1  0
 77 73  1  0
 78  1  1  0
 78 79  2  0
 79 80  1  0
 81 80  2  0
 82 81  1  0
 83 57  1  0
 83 84  1  0
 84 87  1  0
 84 85  1  0
 85 89  1  0
 86 85  2  0
 89 88  1  0
 89 91  1  0
 90 91  1  0
 91 92  1  0
 93 96  1  1
 93 83  1  0
 94 93  1  0
 95 93  1  0
M  ISO  4  15 100  23 100  55 101  56 101
M  END
>  <TORSDO>  (57) 
F 24

>  <SCORE>  (57) 
16.510

>  <name>  (57) 
56

>  <ligand_id>  (57) 
56

>  <original_smiles>  (57) 
[H]c1c([H])c([H])c2c(c1[H])C([H])([H])C([H])([H])C([H])([H])C2([H])N([H])C(=O)C1([H])N(C(=O)C([H])(N([H])C(=O)C([H])(N([H])C([H])([H])[H])C([H])([H])[H])C(C([H])([H])[H])(C([H])([H])[H])C([H])([H])[H])C([H])([H])c2c([H])c(OC([H])([H])C([H])([H])C([H])([H])[N+]3([H])C([H])([H])C([H])([H])C([H])(C([H])([H])C([H])([H])[N+]([H])([H])C([H])([H])C([H])([H])N([H])C(=O)N4C([H])([H])C([H])([H])C([H])([H])C([H])(n5nc(-c6c([H])c([H])c(Oc7c([H])c([H])c(F)c([H])c7F)c([H])c6[H])c(C(=O)N([H])[H])c5N([H])[H])C4([H])[H])C([H])([H])C3([H])[H])c([H])c([H])c2C1([H])[H]

>  <smiles>  (57) 
[H]c1c([H])c([H])c2c(c1[H])C([H])([H])C([H])([H])C([H])([H])C2([H])N([H])C(=O)C1([H])N(C(=O)C([H])(N([H])C(=O)C([H])(N([H])C([H])([H])[H])C([H])([H])[H])C(C([H])([H])[H])(C([H])([H])[H])C([H])([H])[H])C([H])([H])c2c([H])c(OC([H])([H])C([H])([H])C([H])([H])[N+]3([H])C([H])([H])C([H])([H])C([H])(C([H])([H])C([H])([H])[N+]([H])([H])C([H])([H])C([H])([H])N([H])C(=O)N4C([H])([H])C([H])([H])C([H])([H])C([H])(n5nc(-c6c([H])c([H])c(Oc7c([H])c([H])c(F)c([H])c7F)c([H])c6[H])c(C(=O)N([H])[H])c5N([H])[H])C4([H])[H])C([H])([H])C3([H])[H])c([H])c([H])c2C1([H])[H]

$$$$
57:0:0
     RDKit          3D

 94102  0  0  1  0  0  0  0  0999 V2000
  -27.5120  -22.2900   18.8710 C   0  0  0  0  0  0  0  0  0  0  0  0
  -27.9450  -23.5120   18.5440 N   0  0  0  0  0  0  0  0  0  0  0  0
  -27.0380  -21.5500   18.0110 O   0  0  0  0  0  0  0  0  0  0  0  0
  -27.8460  -23.7870   17.5750 H   0  0  0  0  0  0  0  0  0  0  0  0
  -27.6290  -21.7900   20.3210 C   0  0  0  0  0  2  0  0  0  0  0  0
  -27.8060  -20.2620   20.4310 C   0  0  0  0  0  2  0  0  0  0  0  0
  -29.1410  -19.7520   19.8460 C   0  0  0  0  0  2  0  0  0  0  0  0
  -31.1890  -14.1600   19.4970 C   0  0  0  0  0  0  0  0  0  0  0  0
  -30.6620  -11.9740   18.4980 C   0  0  0  0  0  2  0  0  0  0  0  0
  -29.5740  -12.1650   17.4230 C   0  0  0  0  0  2  0  0  0  0  0  0
  -28.1690  -12.0930   18.0550 C   0  0  0  0  0  2  0  0  0  0  0  0
  -28.0290  -12.9990   19.3060 C   0  0  0  0  0  3  0  0  0  0  0  0
  -29.2160  -12.7940   20.2730 C   0  0  0  0  0  2  0  0  0  0  0  0
  -30.4610  -13.0130   19.5170 N   0  0  0  0  0  0  0  0  0  0  0  0
  -32.2440  -14.2790   18.8660 O   0  0  0  0  0  0  0  0  0  0  0  0
  -29.5770  -16.5030   21.8810 C   0  0  0  0  0  2  0  0  0  0  0  0
  -30.7720  -15.7230   21.2990 C   0  0  0  0  0  2  0  0  0  0  0  0
  -30.1780  -16.2560   18.8960 C   0  0  0  0  0  2  0  0  0  0  0  0
  -29.5730  -18.0090   21.5440 C   0  0  0  0  0  2  0  0  0  0  0  0
  -30.4340  -17.7330   19.2400 C   0  0  0  0  0  2  0  0  0  0  0  0
  -30.5290  -15.2580   19.9260 N   0  0  0  0  0  0  0  0  0  0  0  0
  -29.3640  -18.3030   20.1020 N   0  0  2  0  0  4  0  0  0  0  0  0
  -28.5080  -17.8520   19.8150 H   0  0  0  0  0  0  0  0  0  0  0  0
  -25.8400  -13.7310   20.4440 C   0  0  0  0  0  0  0  0  0  0  0  0
  -24.7720  -13.0150   20.9170 C   0  0  0  0  0  0  0  0  0  0  0  0
  -25.0900  -11.6400   20.6920 C   0  0  0  0  0  0  0  0  0  0  0  0
  -26.7460  -12.7940   19.9730 N   0  0  0  0  0  0  0  0  0  0  0  0
  -26.3050  -11.5270   20.1740 N   0  0  0  0  0  0  0  0  0  0  0  0
  -24.2850  -10.4280   20.8880 C   0  0  0  0  0  0  0  0  0  0  0  0
  -24.6730   -9.4220   21.8010 C   0  0  0  0  0  3  0  0  0  0  0  0
  -23.8730   -8.2750   21.9830 C   0  0  0  0  0  3  0  0  0  0  0  0
  -22.6690   -8.1260   21.2520 C   0  0  0  0  0  0  0  0  0  0  0  0
  -22.3000   -9.1200   20.3290 C   0  0  0  0  0  3  0  0  0  0  0  0
  -23.1010  -10.2580   20.1450 C   0  0  0  0  0  3  0  0  0  0  0  0
  -21.8420   -7.0320   21.3450 O   0  0  0  0  0  0  0  0  0  0  0  0
  -21.6660   -6.3630   22.5300 C   0  0  0  0  0  0  0  0  0  0  0  0
  -21.1700   -7.0070   23.6840 C   0  0  0  0  0  3  0  0  0  0  0  0
  -20.9390   -6.2650   24.8590 C   0  0  0  0  0  3  0  0  0  0  0  0
  -21.1950   -4.8810   24.8800 C   0  0  0  0  0  0  0  0  0  0  0  0
  -21.6850   -4.2380   23.7310 C   0  0  0  0  0  3  0  0  0  0  0  0
  -21.9170   -4.9750   22.5570 C   0  0  0  0  0  0  0  0  0  0  0  0
  -22.3680   -4.3470   21.4460 F   0  0  0  0  0  0  0  0  0  0  0  0
  -20.9670   -4.1660   26.0070 F   0  0  0  0  0  0  0  0  0  0  0  0
  -23.4870  -13.5750   21.4540 C   0  0  0  0  0  0  0  0  0  0  0  0
  -22.8590  -12.8750   22.3920 N   0  0  0  0  0  0  0  0  0  0  0  0
  -23.0550  -14.6630   21.0730 O   0  0  0  0  0  0  0  0  0  0  0  0
  -23.2230  -11.9900   22.7130 H   0  0  0  0  0  0  0  0  0  0  0  0
  -22.0010  -13.2270   22.7940 H   0  0  0  0  0  0  0  0  0  0  0  0
  -26.1050  -15.0930   20.3530 N   0  0  0  0  0  0  0  0  0  0  0  0
  -25.4030  -15.7850   20.5930 H   0  0  0  0  0  0  0  0  0  0  0  0
  -26.8780  -15.4730   19.8250 H   0  0  0  0  0  0  0  0  0  0  0  0
  -28.4730  -24.5240   19.4540 C   0  0  0  0  0  2  0  0  0  0  0  0
  -28.7430  -25.8380   18.7020 C   0  0  0  0  0  2  0  0  0  0  0  0
  -28.5720  -26.9600   19.5630 O   0  0  0  0  0  0  0  0  0  0  0  0
  -24.5380  -31.6470   23.0520 C   0  0  0  0  0  0  0  0  0  0  0  0
  -27.3320  -27.5610   19.6350 C   0  0  0  0  0  0  0  0  0  0  0  0
  -23.3670  -30.2950   21.3460 C   0  0  0  0  0  3  0  0  0  0  0  0
  -24.8610  -28.9260   19.8020 C   0  0  0  0  0  0  0  0  0  0  0  0
  -25.8680  -30.7860   21.1320 C   0  0  0  0  0  2  0  0  0  0  0  0
  -26.0010  -29.4650   20.4080 C   0  0  0  0  0  0  0  0  0  0  0  0
  -27.2340  -28.7830   20.3340 C   0  0  0  0  0  3  0  0  0  0  0  0
  -26.1650  -27.0260   19.0360 C   0  0  0  0  0  3  0  0  0  0  0  0
  -24.9360  -27.7020   19.1160 C   0  0  0  0  0  3  0  0  0  0  0  0
  -23.5780  -29.7170   19.9210 C   0  0  0  0  0  2  0  0  0  0  0  0
  -24.6100  -30.9210   21.9020 N   0  0  0  0  0  0  0  0  0  0  0  0
  -23.4550  -31.8330   23.6240 O   0  0  0  0  0  0  0  0  0  0  0  0
  -22.7840  -29.1830   22.2460 C   0  0  0  0  0  0  0  0  0  0  0  0
  -21.4710  -28.9400   22.1170 N   0  0  0  0  0  0  0  0  0  0  0  0
  -23.5080  -28.5480   23.0190 O   0  0  0  0  0  0  0  0  0  0  0  0
  -20.9440  -29.5100   21.4700 H   0  0  0  0  0  0  0  0  0  0  0  0
  -18.1780  -27.5160   22.5370 C   0  0  0  0  0  0  0  0  0  0  0  0
  -20.7120  -27.9130   22.8320 C   0  0  0  0  0  3  0  0  0  0  0  0
  -20.9040  -26.5250   22.1760 C   0  0  0  0  0  2  0  0  0  0  0  0
  -19.8240  -26.1990   21.1410 C   0  0  0  0  0  2  0  0  0  0  0  0
  -18.4390  -26.2150   21.7950 C   0  0  0  0  0  2  0  0  0  0  0  0
  -19.2470  -28.3220   23.0090 C   0  0  0  0  0  0  0  0  0  0  0  0
  -18.9510  -29.5410   23.6570 C   0  0  0  0  0  3  0  0  0  0  0  0
  -17.6190  -29.9550   23.8410 C   0  0  0  0  0  3  0  0  0  0  0  0
  -16.5630  -29.1450   23.3860 C   0  0  0  0  0  3  0  0  0  0  0  0
  -16.8440  -27.9290   22.7400 C   0  0  0  0  0  3  0  0  0  0  0  0
  -25.8050  -32.2980   23.6890 C   0  0  0  0  0  3  0  0  0  0  0  0
  -25.4530  -33.6710   24.0680 N   0  0  0  0  0  0  0  0  0  0  0  0
  -25.7570  -34.7590   23.3470 C   0  0  0  0  0  0  0  0  0  0  0  0
  -26.4350  -34.7130   22.3160 O   0  0  0  0  0  0  0  0  0  0  0  0
  -24.8500  -33.7810   24.8710 H   0  0  0  0  0  0  0  0  0  0  0  0
  -23.9760  -36.5070   23.0410 C   0  0  0  0  0  1  0  0  0  0  0  0
  -25.2240  -36.1150   23.8480 C   0  0  0  0  0  3  0  0  0  0  0  0
  -27.3220  -37.0360   24.7300 C   0  0  0  0  0  1  0  0  0  0  0  0
  -26.2250  -37.2010   23.7800 N   0  0  0  0  0  0  0  0  0  0  0  0
  -25.7900  -38.1040   23.9510 H   0  0  0  0  0  0  0  0  0  0  0  0
  -26.3540  -31.4970   24.9340 C   0  0  1  0  0  0  0  0  0  0  0  0
  -25.2780  -31.1860   26.0000 C   0  0  0  0  0  1  0  0  0  0  0  0
  -26.9750  -30.1530   24.4830 C   0  0  0  0  0  1  0  0  0  0  0  0
  -27.4880  -32.3000   25.6140 C   0  0  0  0  0  1  0  0  0  0  0  0
  1  5  1  0
  2  1  1  0
  2 52  1  0
  3  1  2  0
  4  2  1  0
  5  6  1  0
  7 22  1  0
  7  6  1  0
  8 14  1  0
  8 21  1  0
  9 14  1  0
 10 11  1  0
 10  9  1  0
 12 11  1  0
 12 27  1  0
 12 13  1  0
 14 13  1  0
 15  8  2  0
 17 16  1  0
 18 20  1  0
 18 21  1  0
 19 16  1  0
 20 22  1  0
 21 17  1  0
 22 19  1  0
 22 23  1  6
 24 25  2  0
 25 44  1  0
 26 29  1  0
 26 25  1  0
 27 28  1  0
 27 24  1  0
 28 26  2  0
 29 30  1  0
 30 31  2  0
 32 35  1  0
 32 31  1  0
 33 32  2  0
 34 33  1  0
 34 29  2  0
 35 36  1  0
 36 41  2  0
 36 37  1  0
 37 38  2  0
 38 39  1  0
 39 43  1  0
 40 39  2  0
 41 40  1  0
 42 41  1  0
 44 45  1  0
 45 47  1  0
 45 48  1  0
 46 44  2  0
 49 24  1  0
 49 50  1  0
 51 49  1  0
 53 52  1  0
 53 54  1  0
 54 56  1  0
 55 66  2  0
 56 61  1  0
 57 65  1  0
 57 67  1  0
 58 64  1  0
 58 60  1  0
 59 65  1  0
 60 59  1  0
 61 60  2  0
 62 63  1  0
 62 56  2  0
 63 58  2  0
 64 57  1  0
 65 55  1  0
 67 69  2  0
 68 67  1  0
 70 68  1  0
 71 80  2  0
 71 76  1  0
 72 68  1  0
 72 76  1  0
 73 72  1  0
 74 75  1  0
 74 73  1  0
 75 71  1  0
 76 77  2  0
 77 78  1  0
 79 78  2  0
 80 79  1  0
 81 55  1  0
 81 82  1  0
 81 91  1  0
 82 85  1  0
 83 87  1  0
 83 82  1  0
 84 83  2  0
 87 86  1  0
 89 87  1  0
 89 90  1  0
 89 88  1  0
 91 94  1  1
 91 92  1  0
 93 91  1  0
M  ISO  4   8 100  21 100  53 101  54 101
M  END
>  <TORSDO>  (58) 
F 21

>  <SCORE>  (58) 
-11.278

>  <name>  (58) 
57

>  <ligand_id>  (58) 
57

>  <original_smiles>  (58) 
[H]c1c([H])c([H])c2c(c1[H])C([H])([H])C([H])([H])C([H])([H])C2([H])N([H])C(=O)C1([H])N(C(=O)C([H])(N([H])C(=O)C([H])(N([H])C([H])([H])[H])C([H])([H])[H])C(C([H])([H])[H])(C([H])([H])[H])C([H])([H])[H])C([H])([H])c2c([H])c(OC([H])([H])C([H])([H])N([H])C(=O)C([H])([H])C([H])([H])C([H])([H])[N+]3([H])C([H])([H])C([H])([H])N(C(=O)N4C([H])([H])C([H])([H])C([H])([H])C([H])(n5nc(-c6c([H])c([H])c(Oc7c([H])c([H])c(F)c([H])c7F)c([H])c6[H])c(C(=O)N([H])[H])c5N([H])[H])C4([H])[H])C([H])([H])C([H])([H])C3([H])[H])c([H])c([H])c2C1([H])[H]

>  <smiles>  (58) 
[H]c1c([H])c([H])c2c(c1[H])C([H])([H])C([H])([H])C([H])([H])C2([H])N([H])C(=O)C1([H])N(C(=O)C([H])(N([H])C(=O)C([H])(N([H])C([H])([H])[H])C([H])([H])[H])C(C([H])([H])[H])(C([H])([H])[H])C([H])([H])[H])C([H])([H])c2c([H])c(OC([H])([H])C([H])([H])N([H])C(=O)C([H])([H])C([H])([H])C([H])([H])[N+]3([H])C([H])([H])C([H])([H])N(C(=O)N4C([H])([H])C([H])([H])C([H])([H])C([H])(n5nc(-c6c([H])c([H])c(Oc7c([H])c([H])c(F)c([H])c7F)c([H])c6[H])c(C(=O)N([H])[H])c5N([H])[H])C4([H])[H])C([H])([H])C([H])([H])C3([H])[H])c([H])c([H])c2C1([H])[H]

$$$$
58:0:0
     RDKit          3D

 93101  0  0  1  0  0  0  0  0999 V2000
  -29.2540  -19.2050   21.0660 N   0  0  0  0  0  4  0  0  0  0  0  0
  -30.2340  -19.3360   21.2550 H   0  0  0  0  0  0  0  0  0  0  0  0
  -28.7650  -19.2220   21.9460 H   0  0  0  0  0  0  0  0  0  0  0  0
  -30.6390  -14.5090   20.4080 C   0  0  0  0  0  0  0  0  0  0  0  0
  -30.3600  -12.3060   19.3690 C   0  0  0  0  0  2  0  0  0  0  0  0
  -29.4230  -12.4860   18.1550 C   0  0  0  0  0  2  0  0  0  0  0  0
  -27.9450  -12.3720   18.5850 C   0  0  0  0  0  2  0  0  0  0  0  0
  -27.6000  -13.2340   19.8290 C   0  0  0  0  0  3  0  0  0  0  0  0
  -28.6580  -13.0630   20.9420 C   0  0  0  0  0  2  0  0  0  0  0  0
  -29.9810  -13.3230   20.3560 N   0  0  0  0  0  0  0  0  0  0  0  0
  -31.8450  -14.6260   20.1710 O   0  0  0  0  0  0  0  0  0  0  0  0
  -29.7150  -16.1590   18.8930 C   0  0  0  0  0  2  0  0  0  0  0  0
  -29.7550  -16.6960   21.2030 C   0  0  0  0  0  2  0  0  0  0  0  0
  -29.5930  -17.6790   19.0410 C   0  0  0  0  0  3  0  0  0  0  0  0
  -29.0530  -17.8550   20.4610 C   0  0  0  0  0  3  0  0  0  0  0  0
  -29.8290  -15.5830   20.2450 N   0  0  0  0  0  0  0  0  0  0  0  0
  -25.2060  -13.8650   20.5210 C   0  0  0  0  0  0  0  0  0  0  0  0
  -24.1300  -13.1030   20.8850 C   0  0  0  0  0  0  0  0  0  0  0  0
  -24.5830  -11.7490   20.8700 C   0  0  0  0  0  0  0  0  0  0  0  0
  -26.2470  -12.9730   20.3080 N   0  0  0  0  0  0  0  0  0  0  0  0
  -25.8750  -11.6980   20.5770 N   0  0  0  0  0  0  0  0  0  0  0  0
  -23.8500  -10.4920   21.0600 C   0  0  0  0  0  0  0  0  0  0  0  0
  -24.2820   -9.5170   21.9860 C   0  0  0  0  0  3  0  0  0  0  0  0
  -23.5500   -8.3240   22.1650 C   0  0  0  0  0  3  0  0  0  0  0  0
  -22.3710   -8.0970   21.4150 C   0  0  0  0  0  0  0  0  0  0  0  0
  -21.9550   -9.0610   20.4780 C   0  0  0  0  0  3  0  0  0  0  0  0
  -22.6890  -10.2450   20.2980 C   0  0  0  0  0  3  0  0  0  0  0  0
  -21.6090   -6.9570   21.5040 O   0  0  0  0  0  0  0  0  0  0  0  0
  -21.5750   -6.2030   22.6480 C   0  0  0  0  0  0  0  0  0  0  0  0
  -21.1880   -6.7490   23.8910 C   0  0  0  0  0  3  0  0  0  0  0  0
  -21.1020   -5.9210   25.0290 C   0  0  0  0  0  3  0  0  0  0  0  0
  -21.3920   -4.5480   24.9230 C   0  0  0  0  0  0  0  0  0  0  0  0
  -21.7720   -4.0000   23.6860 C   0  0  0  0  0  3  0  0  0  0  0  0
  -21.8600   -4.8250   22.5500 C   0  0  0  0  0  0  0  0  0  0  0  0
  -22.2080   -4.2890   21.3550 F   0  0  0  0  0  0  0  0  0  0  0  0
  -21.3020   -3.7490   26.0130 F   0  0  0  0  0  0  0  0  0  0  0  0
  -22.7330  -13.5900   21.1400 C   0  0  0  0  0  0  0  0  0  0  0  0
  -21.9930  -12.9040   22.0050 N   0  0  0  0  0  0  0  0  0  0  0  0
  -22.3060  -14.6150   20.6100 O   0  0  0  0  0  0  0  0  0  0  0  0
  -22.3490  -12.0750   22.4570 H   0  0  0  0  0  0  0  0  0  0  0  0
  -21.0560  -13.2150   22.2200 H   0  0  0  0  0  0  0  0  0  0  0  0
  -25.3810  -15.2330   20.3290 N   0  0  0  0  0  0  0  0  0  0  0  0
  -24.6100  -15.8870   20.3990 H   0  0  0  0  0  0  0  0  0  0  0  0
  -26.2310  -15.6520   19.9790 H   0  0  0  0  0  0  0  0  0  0  0  0
  -28.7090  -18.1970   18.0100 N   0  0  0  0  0  0  0  0  0  0  0  0
  -27.8190  -17.7110   18.0420 H   0  0  0  0  0  0  0  0  0  0  0  0
  -29.0890  -17.9570   17.1010 H   0  0  0  0  0  0  0  0  0  0  0  0
  -28.7790  -20.3580   20.2500 C   0  0  0  0  0  2  0  0  0  0  0  0
  -28.8190  -21.7280   20.9800 C   0  0  0  0  0  2  0  0  0  0  0  0
  -28.4660  -22.9050   20.0350 C   0  0  0  0  0  2  0  0  0  0  0  0
  -28.4960  -24.3200   20.6660 C   0  0  0  0  0  2  0  0  0  0  0  0
  -28.5850  -25.4490   19.6080 C   0  0  0  0  0  2  0  0  0  0  0  0
  -28.4580  -26.7640   20.1750 O   0  0  0  0  0  0  0  0  0  0  0  0
  -24.5910  -31.8940   23.2410 C   0  0  0  0  0  0  0  0  0  0  0  0
  -27.2490  -27.4390   20.1700 C   0  0  0  0  0  0  0  0  0  0  0  0
  -23.3900  -30.4890   21.5990 C   0  0  0  0  0  3  0  0  0  0  0  0
  -24.8460  -28.9480   20.1830 C   0  0  0  0  0  0  0  0  0  0  0  0
  -25.9160  -30.8470   21.4050 C   0  0  0  0  0  2  0  0  0  0  0  0
  -26.0040  -29.4740   20.7700 C   0  0  0  0  0  0  0  0  0  0  0  0
  -27.2030  -28.7250   20.7610 C   0  0  0  0  0  3  0  0  0  0  0  0
  -26.0610  -26.9230   19.6020 C   0  0  0  0  0  3  0  0  0  0  0  0
  -24.8700  -27.6710   19.6010 C   0  0  0  0  0  3  0  0  0  0  0  0
  -23.6030  -29.8080   20.2210 C   0  0  0  0  0  2  0  0  0  0  0  0
  -24.6510  -31.0930   22.1390 N   0  0  0  0  0  0  0  0  0  0  0  0
  -23.5070  -32.1630   23.7790 O   0  0  0  0  0  0  0  0  0  0  0  0
  -22.7400  -29.4680   22.5600 C   0  0  0  0  0  0  0  0  0  0  0  0
  -21.4150  -29.2890   22.4360 N   0  0  0  0  0  0  0  0  0  0  0  0
  -23.4250  -28.8400   23.3720 O   0  0  0  0  0  0  0  0  0  0  0  0
  -20.9230  -29.8480   21.7520 H   0  0  0  0  0  0  0  0  0  0  0  0
  -18.0350  -28.1150   22.9440 C   0  0  0  0  0  0  0  0  0  0  0  0
  -20.5960  -28.3540   23.2070 C   0  0  0  0  0  3  0  0  0  0  0  0
  -20.6840  -26.9240   22.6250 C   0  0  0  0  0  2  0  0  0  0  0  0
  -19.5790  -26.6210   21.6100 C   0  0  0  0  0  2  0  0  0  0  0  0
  -18.2010  -26.7690   22.2600 C   0  0  0  0  0  2  0  0  0  0  0  0
  -19.1610  -28.8680   23.3730 C   0  0  0  0  0  0  0  0  0  0  0  0
  -18.9550  -30.1320   23.9680 C   0  0  0  0  0  3  0  0  0  0  0  0
  -17.6540  -30.6420   24.1410 C   0  0  0  0  0  3  0  0  0  0  0  0
  -16.5420  -29.8850   23.7310 C   0  0  0  0  0  3  0  0  0  0  0  0
  -16.7330  -28.6230   23.1380 C   0  0  0  0  0  3  0  0  0  0  0  0
  -25.8740  -32.5290   23.8630 C   0  0  0  0  0  3  0  0  0  0  0  0
  -25.5610  -33.9250   24.1930 N   0  0  0  0  0  0  0  0  0  0  0  0
  -25.8960  -34.9780   23.4350 C   0  0  0  0  0  0  0  0  0  0  0  0
  -26.5710  -34.8750   22.4060 O   0  0  0  0  0  0  0  0  0  0  0  0
  -24.9630  -34.0790   24.9910 H   0  0  0  0  0  0  0  0  0  0  0  0
  -24.1670  -36.7660   23.0700 C   0  0  0  0  0  1  0  0  0  0  0  0
  -25.4040  -36.3650   23.8890 C   0  0  0  0  0  3  0  0  0  0  0  0
  -27.5340  -37.2510   24.7300 C   0  0  0  0  0  1  0  0  0  0  0  0
  -26.4360  -37.4200   23.7820 N   0  0  0  0  0  0  0  0  0  0  0  0
  -26.0290  -38.3400   23.9270 H   0  0  0  0  0  0  0  0  0  0  0  0
  -26.3940  -31.7560   25.1380 C   0  0  1  0  0  0  0  0  0  0  0  0
  -25.3040  -31.5120   26.2070 C   0  0  0  0  0  1  0  0  0  0  0  0
  -26.9800  -30.3820   24.7380 C   0  0  0  0  0  1  0  0  0  0  0  0
  -27.5450  -32.5520   25.7990 C   0  0  0  0  0  1  0  0  0  0  0  0
  1  2  1  0
  1  3  1  0
  5 10  1  0
  6  7  1  0
  6  5  1  0
  8  7  1  0
  8 20  1  0
  8  9  1  0
 10  4  1  0
 10  9  1  0
 11  4  2  0
 12 14  1  0
 12 16  1  0
 14 45  1  0
 14 15  1  0
 15  1  1  0
 15 13  1  0
 16  4  1  0
 16 13  1  0
 17 18  2  0
 18 37  1  0
 19 18  1  0
 19 22  1  0
 20 17  1  0
 20 21  1  0
 21 19  2  0
 22 23  1  0
 23 24  2  0
 25 28  1  0
 25 24  1  0
 26 25  2  0
 27 26  1  0
 27 22  2  0
 28 29  1  0
 29 30  1  0
 30 31  2  0
 32 31  1  0
 32 36  1  0
 33 32  2  0
 34 29  2  0
 34 33  1  0
 35 34  1  0
 37 38  1  0
 38 41  1  0
 38 40  1  0
 39 37  2  0
 42 43  1  0
 42 17  1  0
 44 42  1  0
 45 46  1  0
 47 45  1  0
 48 49  1  0
 48  1  1  0
 50 51  1  0
 50 49  1  0
 52 53  1  0
 52 51  1  0
 54 65  2  0
 55 53  1  0
 55 60  1  0
 56 64  1  0
 56 66  1  0
 57 63  1  0
 57 59  1  0
 58 64  1  0
 59 58  1  0
 60 59  2  0
 61 55  2  0
 62 61  1  0
 62 57  2  0
 63 56  1  0
 64 54  1  0
 66 68  2  0
 67 66  1  0
 69 67  1  0
 70 79  2  0
 70 75  1  0
 71 67  1  0
 71 75  1  0
 72 71  1  0
 73 74  1  0
 73 72  1  0
 74 70  1  0
 75 76  2  0
 76 77  1  0
 78 77  2  0
 79 78  1  0
 80 54  1  0
 80 81  1  0
 80 90  1  0
 81 84  1  0
 82 86  1  0
 82 81  1  0
 83 82  2  0
 86 85  1  0
 88 86  1  0
 88 89  1  0
 88 87  1  0
 90 93  1  1
 90 91  1  0
 92 90  1  0
M  ISO  4   4 100  16 100  52 101  53 101
M  END
>  <TORSDO>  (59) 
F 22

>  <SCORE>  (59) 
-13.515

>  <name>  (59) 
58

>  <ligand_id>  (59) 
58

>  <original_smiles>  (59) 
[H]c1c([H])c([H])c2c(c1[H])C([H])([H])C([H])([H])C([H])([H])C2([H])N([H])C(=O)C1([H])N(C(=O)C([H])(N([H])C(=O)C([H])(N([H])C([H])([H])[H])C([H])([H])[H])C(C([H])([H])[H])(C([H])([H])[H])C([H])([H])[H])C([H])([H])c2c([H])c(OC([H])([H])C([H])([H])C([H])([H])C([H])([H])C([H])([H])[N+]([H])([H])C3([H])C([H])([H])N(C(=O)N4C([H])([H])C([H])([H])C([H])([H])C([H])(n5nc(-c6c([H])c([H])c(Oc7c([H])c([H])c(F)c([H])c7F)c([H])c6[H])c(C(=O)N([H])[H])c5N([H])[H])C4([H])[H])C([H])([H])C3([H])N([H])[H])c([H])c([H])c2C1([H])[H]

>  <smiles>  (59) 
[H]c1c([H])c([H])c2c(c1[H])C([H])([H])C([H])([H])C([H])([H])C2([H])N([H])C(=O)C1([H])N(C(=O)C([H])(N([H])C(=O)C([H])(N([H])C([H])([H])[H])C([H])([H])[H])C(C([H])([H])[H])(C([H])([H])[H])C([H])([H])[H])C([H])([H])c2c([H])c(OC([H])([H])C([H])([H])C([H])([H])C([H])([H])C([H])([H])[N+]([H])([H])C3([H])C([H])([H])N(C(=O)N4C([H])([H])C([H])([H])C([H])([H])C([H])(n5nc(-c6c([H])c([H])c(Oc7c([H])c([H])c(F)c([H])c7F)c([H])c6[H])c(C(=O)N([H])[H])c5N([H])[H])C4([H])[H])C([H])([H])C3([H])N([H])[H])c([H])c([H])c2C1([H])[H]

$$$$
59:0:0
     RDKit          3D

 92100  0  0  1  0  0  0  0  0999 V2000
  -29.0320  -21.4720   20.9340 C   0  0  0  0  0  3  0  0  0  0  0  0
  -29.3730  -20.1980   21.4420 C   0  0  0  0  0  3  0  0  0  0  0  0
  -30.4260  -21.0520   18.9880 C   0  0  0  0  0  3  0  0  0  0  0  0
  -29.5470  -21.9060   19.6920 C   0  0  0  0  0  0  0  0  0  0  0  0
  -30.2300  -19.3360   20.7210 C   0  0  0  0  0  0  0  0  0  0  0  0
  -30.7700  -19.7850   19.4970 C   0  0  0  0  0  0  0  0  0  0  0  0
  -31.6090  -18.9890   18.7900 F   0  0  0  0  0  0  0  0  0  0  0  0
  -29.1410  -23.2380   19.0520 C   0  0  0  0  0  2  0  0  0  0  0  0
  -28.9200  -24.4350   20.0060 C   0  0  0  0  0  2  0  0  0  0  0  0
  -30.0660  -26.2780   18.6250 C   0  0  0  0  0  1  0  0  0  0  0  0
  -28.7590  -25.7930   19.2710 C   0  0  0  0  0  3  0  0  0  0  0  0
  -28.4360  -26.8140   20.2180 O   0  0  0  0  0  0  0  0  0  0  0  0
  -24.5720  -31.9240   23.2600 C   0  0  0  0  0  0  0  0  0  0  0  0
  -27.2290  -27.4850   20.1780 C   0  0  0  0  0  0  0  0  0  0  0  0
  -23.3630  -30.5150   21.6240 C   0  0  0  0  0  3  0  0  0  0  0  0
  -24.8170  -28.9720   20.2020 C   0  0  0  0  0  0  0  0  0  0  0  0
  -25.8870  -30.8780   21.4190 C   0  0  0  0  0  2  0  0  0  0  0  0
  -25.9730  -29.5050   20.7860 C   0  0  0  0  0  0  0  0  0  0  0  0
  -27.1730  -28.7630   20.7780 C   0  0  0  0  0  3  0  0  0  0  0  0
  -26.0470  -26.9560   19.6060 C   0  0  0  0  0  3  0  0  0  0  0  0
  -24.8490  -27.6950   19.6160 C   0  0  0  0  0  3  0  0  0  0  0  0
  -23.5720  -29.8280   20.2470 C   0  0  0  0  0  2  0  0  0  0  0  0
  -24.6250  -31.1200   22.1600 N   0  0  0  0  0  0  0  0  0  0  0  0
  -23.4920  -32.1980   23.8020 O   0  0  0  0  0  0  0  0  0  0  0  0
  -22.7150  -29.4970   22.5890 C   0  0  0  0  0  0  0  0  0  0  0  0
  -21.3910  -29.3110   22.4610 N   0  0  0  0  0  0  0  0  0  0  0  0
  -23.4000  -28.8780   23.4070 O   0  0  0  0  0  0  0  0  0  0  0  0
  -20.9000  -29.8610   21.7690 H   0  0  0  0  0  0  0  0  0  0  0  0
  -18.0210  -28.1180   22.9580 C   0  0  0  0  0  0  0  0  0  0  0  0
  -20.5780  -28.3750   23.2340 C   0  0  0  0  0  3  0  0  0  0  0  0
  -20.6830  -26.9440   22.6600 C   0  0  0  0  0  2  0  0  0  0  0  0
  -19.5820  -26.6190   21.6450 C   0  0  0  0  0  2  0  0  0  0  0  0
  -18.1990  -26.7660   22.2870 C   0  0  0  0  0  2  0  0  0  0  0  0
  -19.1390  -28.8800   23.3890 C   0  0  0  0  0  0  0  0  0  0  0  0
  -18.9210  -30.1460   23.9750 C   0  0  0  0  0  3  0  0  0  0  0  0
  -17.6170  -30.6490   24.1380 C   0  0  0  0  0  3  0  0  0  0  0  0
  -16.5120  -29.8820   23.7270 C   0  0  0  0  0  3  0  0  0  0  0  0
  -16.7150  -28.6190   23.1410 C   0  0  0  0  0  3  0  0  0  0  0  0
  -25.8600  -32.5570   23.8750 C   0  0  0  0  0  3  0  0  0  0  0  0
  -25.5550  -33.9590   24.1910 N   0  0  0  0  0  0  0  0  0  0  0  0
  -25.8970  -35.0020   23.4230 C   0  0  0  0  0  0  0  0  0  0  0  0
  -26.5720  -34.8870   22.3980 O   0  0  0  0  0  0  0  0  0  0  0  0
  -24.9570  -34.1230   24.9860 H   0  0  0  0  0  0  0  0  0  0  0  0
  -24.1810  -36.7990   23.0370 C   0  0  0  0  0  1  0  0  0  0  0  0
  -25.4110  -36.3960   23.8650 C   0  0  0  0  0  3  0  0  0  0  0  0
  -27.5400  -37.2790   24.7130 C   0  0  0  0  0  1  0  0  0  0  0  0
  -26.4500  -37.4430   23.7550 N   0  0  0  0  0  0  0  0  0  0  0  0
  -26.0460  -38.3660   23.8910 H   0  0  0  0  0  0  0  0  0  0  0  0
  -26.3770  -31.7940   25.1560 C   0  0  1  0  0  0  0  0  0  0  0  0
  -25.2850  -31.5670   26.2270 C   0  0  0  0  0  1  0  0  0  0  0  0
  -26.9570  -30.4120   24.7730 C   0  0  0  0  0  1  0  0  0  0  0  0
  -27.5280  -32.5920   25.8130 C   0  0  0  0  0  1  0  0  0  0  0  0
  -30.5380  -17.9290   21.2330 C   0  0  0  0  0  2  0  0  0  0  0  0
  -29.8440  -16.8500   20.3760 C   0  0  0  0  0  2  0  0  0  0  0  0
  -30.6630  -14.4990   20.3750 C   0  0  0  0  0  0  0  0  0  0  0  0
  -30.3680  -12.3580   19.2010 C   0  0  0  0  0  2  0  0  0  0  0  0
  -29.4100  -12.6070   18.0150 C   0  0  0  0  0  2  0  0  0  0  0  0
  -27.9370  -12.4800   18.4570 C   0  0  0  0  0  2  0  0  0  0  0  0
  -27.6260  -13.2810   19.7510 C   0  0  0  0  0  3  0  0  0  0  0  0
  -28.6940  -13.0010   20.8370 C   0  0  0  0  0  2  0  0  0  0  0  0
  -30.0180  -13.3080   20.2680 N   0  0  0  0  0  0  0  0  0  0  0  0
  -31.7560  -14.7310   19.8510 O   0  0  0  0  0  0  0  0  0  0  0  0
  -29.9150  -15.4820   20.9030 N   0  0  0  0  0  0  0  0  0  0  0  0
  -29.0920  -15.1650   21.3940 H   0  0  0  0  0  0  0  0  0  0  0  0
  -25.2320  -13.8960   20.4820 C   0  0  0  0  0  0  0  0  0  0  0  0
  -24.1660  -13.1260   20.8640 C   0  0  0  0  0  0  0  0  0  0  0  0
  -24.6240  -11.7730   20.8260 C   0  0  0  0  0  0  0  0  0  0  0  0
  -26.2740  -13.0120   20.2400 N   0  0  0  0  0  0  0  0  0  0  0  0
  -25.9100  -11.7310   20.5020 N   0  0  0  0  0  0  0  0  0  0  0  0
  -23.8990  -10.5110   21.0260 C   0  0  0  0  0  0  0  0  0  0  0  0
  -24.3470   -9.5400   21.9480 C   0  0  0  0  0  3  0  0  0  0  0  0
  -23.6230   -8.3430   22.1360 C   0  0  0  0  0  3  0  0  0  0  0  0
  -22.4370   -8.1090   21.4000 C   0  0  0  0  0  0  0  0  0  0  0  0
  -22.0070   -9.0700   20.4670 C   0  0  0  0  0  3  0  0  0  0  0  0
  -22.7320  -10.2580   20.2780 C   0  0  0  0  0  3  0  0  0  0  0  0
  -21.6840   -6.9640   21.4960 O   0  0  0  0  0  0  0  0  0  0  0  0
  -21.6550   -6.2140   22.6430 C   0  0  0  0  0  0  0  0  0  0  0  0
  -21.2500   -6.7600   23.8800 C   0  0  0  0  0  3  0  0  0  0  0  0
  -21.1710   -5.9370   25.0200 C   0  0  0  0  0  3  0  0  0  0  0  0
  -21.4880   -4.5680   24.9260 C   0  0  0  0  0  0  0  0  0  0  0  0
  -21.8850   -4.0210   23.6930 C   0  0  0  0  0  3  0  0  0  0  0  0
  -21.9650   -4.8410   22.5540 C   0  0  0  0  0  0  0  0  0  0  0  0
  -22.3310   -4.3060   21.3650 F   0  0  0  0  0  0  0  0  0  0  0  0
  -21.4040   -3.7750   26.0200 F   0  0  0  0  0  0  0  0  0  0  0  0
  -22.7730  -13.6060   21.1570 C   0  0  0  0  0  0  0  0  0  0  0  0
  -22.0560  -12.9080   22.0320 N   0  0  0  0  0  0  0  0  0  0  0  0
  -22.3280  -14.6330   20.6450 O   0  0  0  0  0  0  0  0  0  0  0  0
  -22.4290  -12.0790   22.4670 H   0  0  0  0  0  0  0  0  0  0  0  0
  -21.1210  -13.2100   22.2700 H   0  0  0  0  0  0  0  0  0  0  0  0
  -25.4010  -15.2650   20.3040 N   0  0  0  0  0  0  0  0  0  0  0  0
  -24.6400  -15.9260   20.4160 H   0  0  0  0  0  0  0  0  0  0  0  0
  -26.2490  -15.6920   19.9550 H   0  0  0  0  0  0  0  0  0  0  0  0
  1  2  1  0
  3  6  2  0
  3  4  1  0
  4  1  2  0
  5 53  1  0
  5  2  2  0
  6  5  1  0
  7  6  1  0
  8  4  1  0
  8  9  1  0
 11 10  1  0
 11  9  1  0
 11 12  1  0
 13 24  2  0
 14 12  1  0
 14 19  1  0
 15 23  1  0
 15 25  1  0
 16 22  1  0
 16 18  1  0
 17 23  1  0
 18 17  1  0
 19 18  2  0
 20 21  1  0
 20 14  2  0
 21 16  2  0
 22 15  1  0
 23 13  1  0
 25 27  2  0
 26 25  1  0
 28 26  1  0
 29 38  2  0
 29 34  1  0
 30 26  1  0
 30 34  1  0
 31 30  1  0
 32 33  1  0
 32 31  1  0
 33 29  1  0
 34 35  2  0
 35 36  1  0
 37 36  2  0
 38 37  1  0
 39 13  1  0
 39 40  1  0
 39 49  1  0
 40 43  1  0
 41 45  1  0
 41 40  1  0
 42 41  2  0
 45 44  1  0
 47 45  1  0
 47 48  1  0
 47 46  1  0
 49 52  1  1
 49 50  1  0
 51 49  1  0
 54 63  1  0
 54 53  1  0
 55 63  1  0
 56 61  1  0
 57 58  1  0
 57 56  1  0
 59 58  1  0
 59 68  1  0
 59 60  1  0
 61 55  1  0
 61 60  1  0
 62 55  2  0
 63 64  1  0
 65 66  2  0
 66 85  1  0
 67 66  1  0
 67 70  1  0
 68 65  1  0
 68 69  1  0
 69 67  2  0
 70 71  1  0
 71 72  2  0
 73 76  1  0
 73 72  1  0
 74 73  2  0
 75 74  1  0
 75 70  2  0
 76 77  1  0
 77 78  1  0
 78 79  2  0
 80 79  1  0
 80 84  1  0
 81 80  2  0
 82 77  2  0
 82 81  1  0
 83 82  1  0
 85 86  1  0
 86 89  1  0
 86 88  1  0
 87 85  2  0
 90 91  1  0
 90 65  1  0
 92 90  1  0
M  ISO  4  11 101  12 101  55 100  63 100
M  END
>  <TORSDO>  (60) 
F 21

>  <SCORE>  (60) 
-13.426

>  <name>  (60) 
59

>  <ligand_id>  (60) 
59

>  <original_smiles>  (60) 
[H]c1c([H])c([H])c2c(c1[H])C([H])([H])C([H])([H])C([H])([H])C2([H])N([H])C(=O)C1([H])N(C(=O)C([H])(N([H])C(=O)C([H])(N([H])C([H])([H])[H])C([H])([H])[H])C(C([H])([H])[H])(C([H])([H])[H])C([H])([H])[H])C([H])([H])c2c([H])c(OC([H])(C([H])([H])[H])C([H])([H])C([H])([H])c3c([H])c([H])c(C([H])([H])C([H])([H])N([H])C(=O)N4C([H])([H])C([H])([H])C([H])([H])C([H])(n5nc(-c6c([H])c([H])c(Oc7c([H])c([H])c(F)c([H])c7F)c([H])c6[H])c(C(=O)N([H])[H])c5N([H])[H])C4([H])[H])c(F)c3[H])c([H])c([H])c2C1([H])[H]

>  <smiles>  (60) 
[H]c1c([H])c([H])c2c(c1[H])C([H])([H])C([H])([H])C([H])([H])C2([H])N([H])C(=O)C1([H])N(C(=O)C([H])(N([H])C(=O)C([H])(N([H])C([H])([H])[H])C([H])([H])[H])C(C([H])([H])[H])(C([H])([H])[H])C([H])([H])[H])C([H])([H])c2c([H])c(OC([H])(C([H])([H])[H])C([H])([H])C([H])([H])c3c([H])c([H])c(C([H])([H])C([H])([H])N([H])C(=O)N4C([H])([H])C([H])([H])C([H])([H])C([H])(n5nc(-c6c([H])c([H])c(Oc7c([H])c([H])c(F)c([H])c7F)c([H])c6[H])c(C(=O)N([H])[H])c5N([H])[H])C4([H])[H])c(F)c3[H])c([H])c([H])c2C1([H])[H]

$$$$
60:0:0
     RDKit          3D

 89 97  0  0  1  0  0  0  0  0999 V2000
  -27.2850  -21.6280   19.8000 C   0  0  0  0  0  2  0  0  0  0  0  0
  -27.7810  -20.1510   19.4600 C   0  0  0  0  0  3  0  0  0  0  0  0
  -28.5080  -22.5970   19.9470 C   0  0  0  0  0  3  0  0  0  0  0  0
  -29.0150  -19.8460   20.3670 C   0  0  0  0  0  3  0  0  0  0  0  0
  -28.1150  -20.0610   17.9610 C   0  0  0  0  0  1  0  0  0  0  0  0
  -29.4990  -21.4060   20.4730 N   0  0  0  0  0  4  0  0  0  0  0  0
  -30.3570  -21.4860   19.9490 H   0  0  0  0  0  0  0  0  0  0  0  0
  -29.7600  -21.5770   21.4320 H   0  0  0  0  0  0  0  0  0  0  0  0
  -30.0000  -18.3250   20.1200 C   0  0  0  0  0  2  0  0  0  0  0  0
  -30.4530  -15.3780   20.1290 C   0  0  0  0  0  0  0  0  0  0  0  0
  -30.4210  -12.9370   19.2280 C   0  0  0  0  0  2  0  0  0  0  0  0
  -29.4670  -12.6580   18.0390 C   0  0  0  0  0  2  0  0  0  0  0  0
  -28.0570  -12.3400   18.5580 C   0  0  0  0  0  2  0  0  0  0  0  0
  -27.6000  -13.3550   19.6310 C   0  0  0  0  0  3  0  0  0  0  0  0
  -28.6710  -13.5550   20.7310 C   0  0  0  0  0  2  0  0  0  0  0  0
  -29.8770  -14.0780   20.0610 N   0  0  0  0  0  0  0  0  0  0  0  0
  -31.6750  -15.3590   19.9150 O   0  0  0  0  0  0  0  0  0  0  0  0
  -29.7040  -16.6660   20.2300 N   0  0  0  0  0  0  0  0  0  0  0  0
  -28.7190  -16.4760   20.3320 H   0  0  0  0  0  0  0  0  0  0  0  0
  -25.2410  -13.9150   20.4310 C   0  0  0  0  0  0  0  0  0  0  0  0
  -24.1900  -13.1360   20.8160 C   0  0  0  0  0  0  0  0  0  0  0  0
  -24.6620  -11.7850   20.7820 C   0  0  0  0  0  0  0  0  0  0  0  0
  -26.2810  -13.0420   20.1670 N   0  0  0  0  0  0  0  0  0  0  0  0
  -25.9450  -11.7580   20.4500 N   0  0  0  0  0  0  0  0  0  0  0  0
  -23.9440  -10.5190   20.9790 C   0  0  0  0  0  0  0  0  0  0  0  0
  -24.3790   -9.5580   21.9200 C   0  0  0  0  0  3  0  0  0  0  0  0
  -23.6590   -8.3580   22.1000 C   0  0  0  0  0  3  0  0  0  0  0  0
  -22.4900   -8.1100   21.3430 C   0  0  0  0  0  0  0  0  0  0  0  0
  -22.0740   -9.0600   20.3940 C   0  0  0  0  0  3  0  0  0  0  0  0
  -22.7950  -10.2530   20.2080 C   0  0  0  0  0  3  0  0  0  0  0  0
  -21.7410   -6.9600   21.4340 O   0  0  0  0  0  0  0  0  0  0  0  0
  -21.6730   -6.2370   22.5990 C   0  0  0  0  0  0  0  0  0  0  0  0
  -21.1990   -6.8050   23.8010 C   0  0  0  0  0  3  0  0  0  0  0  0
  -21.0810   -6.0090   24.9570 C   0  0  0  0  0  3  0  0  0  0  0  0
  -21.4290   -4.6450   24.9130 C   0  0  0  0  0  0  0  0  0  0  0  0
  -21.9020   -4.0790   23.7150 C   0  0  0  0  0  3  0  0  0  0  0  0
  -22.0200   -4.8720   22.5610 C   0  0  0  0  0  0  0  0  0  0  0  0
  -22.4560   -4.3170   21.4050 F   0  0  0  0  0  0  0  0  0  0  0  0
  -21.3100   -3.8760   26.0210 F   0  0  0  0  0  0  0  0  0  0  0  0
  -22.7940  -13.6040   21.1030 C   0  0  0  0  0  0  0  0  0  0  0  0
  -22.0760  -12.9060   21.9730 N   0  0  0  0  0  0  0  0  0  0  0  0
  -22.3490  -14.6270   20.5840 O   0  0  0  0  0  0  0  0  0  0  0  0
  -22.4470  -12.0780   22.4140 H   0  0  0  0  0  0  0  0  0  0  0  0
  -21.1420  -13.2100   22.2070 H   0  0  0  0  0  0  0  0  0  0  0  0
  -25.4000  -15.2890   20.2490 N   0  0  0  0  0  0  0  0  0  0  0  0
  -24.6470  -15.9470   20.4150 H   0  0  0  0  0  0  0  0  0  0  0  0
  -26.2150  -15.7120   19.8270 H   0  0  0  0  0  0  0  0  0  0  0  0
  -28.0940  -24.2680   20.5780 C   0  0  0  0  0  2  0  0  0  0  0  0
  -28.2450  -25.8860   20.1980 O   0  0  0  0  0  0  0  0  0  0  0  0
  -24.6250  -31.8690   23.1820 C   0  0  0  0  0  0  0  0  0  0  0  0
  -27.2140  -26.9750   20.2040 C   0  0  0  0  0  0  0  0  0  0  0  0
  -23.4470  -30.4650   21.5430 C   0  0  0  0  0  3  0  0  0  0  0  0
  -24.9090  -28.8590   20.1350 C   0  0  0  0  0  0  0  0  0  0  0  0
  -26.0150  -30.6830   21.4070 C   0  0  0  0  0  2  0  0  0  0  0  0
  -26.0960  -29.2690   20.7540 C   0  0  0  0  0  0  0  0  0  0  0  0
  -27.2480  -28.3550   20.7500 C   0  0  0  0  0  3  0  0  0  0  0  0
  -25.9940  -26.7160   19.5410 C   0  0  0  0  0  3  0  0  0  0  0  0
  -24.8860  -27.6050   19.5030 C   0  0  0  0  0  3  0  0  0  0  0  0
  -23.6890  -29.7810   20.1690 C   0  0  0  0  0  2  0  0  0  0  0  0
  -24.7170  -31.0310   22.0980 N   0  0  0  0  0  0  0  0  0  0  0  0
  -23.5330  -32.1570   23.6950 O   0  0  0  0  0  0  0  0  0  0  0  0
  -22.7510  -29.4680   22.5080 C   0  0  0  0  0  0  0  0  0  0  0  0
  -21.4210  -29.3100   22.3880 N   0  0  0  0  0  0  0  0  0  0  0  0
  -23.4150  -28.8350   23.3350 O   0  0  0  0  0  0  0  0  0  0  0  0
  -20.9370  -29.8780   21.7060 H   0  0  0  0  0  0  0  0  0  0  0  0
  -18.0320  -28.1170   22.9150 C   0  0  0  0  0  0  0  0  0  0  0  0
  -20.5950  -28.3710   23.1560 C   0  0  0  0  0  3  0  0  0  0  0  0
  -20.6830  -26.9440   22.5670 C   0  0  0  0  0  2  0  0  0  0  0  0
  -19.5690  -26.6340   21.5610 C   0  0  0  0  0  2  0  0  0  0  0  0
  -18.1960  -26.7730   22.2230 C   0  0  0  0  0  2  0  0  0  0  0  0
  -19.1580  -28.8720   23.3390 C   0  0  0  0  0  0  0  0  0  0  0  0
  -18.9490  -30.1260   23.9540 C   0  0  0  0  0  3  0  0  0  0  0  0
  -17.6450  -30.6270   24.1410 C   0  0  0  0  0  3  0  0  0  0  0  0
  -16.5360  -29.8710   23.7280 C   0  0  0  0  0  3  0  0  0  0  0  0
  -16.7300  -28.6150   23.1240 C   0  0  0  0  0  3  0  0  0  0  0  0
  -25.8880  -32.5220   23.8200 C   0  0  0  0  0  3  0  0  0  0  0  0
  -25.5600  -33.9200   24.1470 N   0  0  0  0  0  0  0  0  0  0  0  0
  -25.8970  -34.9830   23.4040 C   0  0  0  0  0  0  0  0  0  0  0  0
  -26.5750  -34.8890   22.3780 O   0  0  0  0  0  0  0  0  0  0  0  0
  -24.9470  -34.0680   24.9360 H   0  0  0  0  0  0  0  0  0  0  0  0
  -24.1670  -36.7830   23.0500 C   0  0  0  0  0  1  0  0  0  0  0  0
  -25.4010  -36.3670   23.8690 C   0  0  0  0  0  3  0  0  0  0  0  0
  -27.5200  -37.2550   24.7370 C   0  0  0  0  0  1  0  0  0  0  0  0
  -26.4310  -37.4240   23.7800 N   0  0  0  0  0  0  0  0  0  0  0  0
  -26.0170  -38.3400   23.9300 H   0  0  0  0  0  0  0  0  0  0  0  0
  -26.3880  -31.7670   25.1160 C   0  0  1  0  0  0  0  0  0  0  0  0
  -25.2760  -31.5500   26.1710 C   0  0  0  0  0  1  0  0  0  0  0  0
  -26.9730  -30.3820   24.7560 C   0  0  0  0  0  1  0  0  0  0  0  0
  -27.5280  -32.5690   25.7830 C   0  0  0  0  0  1  0  0  0  0  0  0
  1  3  1  0
  2  5  1  0
  2  1  1  0
  2  4  1  0
  3  6  1  0
  3 48  1  0
  4  9  1  0
  4  6  1  0
  6  8  1  0
  7  6  1  0
  9 18  1  0
 10 18  1  0
 11 16  1  0
 12 13  1  0
 12 11  1  0
 14 13  1  0
 14 23  1  0
 14 15  1  0
 16 10  1  0
 16 15  1  0
 17 10  2  0
 18 19  1  0
 20 21  2  0
 21 40  1  0
 22 21  1  0
 22 25  1  0
 23 20  1  0
 23 24  1  0
 24 22  2  0
 25 26  1  0
 26 27  2  0
 28 31  1  0
 28 27  1  0
 29 28  2  0
 30 29  1  0
 30 25  2  0
 31 32  1  0
 32 33  1  0
 33 34  2  0
 35 34  1  0
 35 39  1  0
 36 35  2  0
 37 32  2  0
 37 36  1  0
 38 37  1  0
 40 41  1  0
 41 44  1  0
 41 43  1  0
 42 40  2  0
 45 46  1  0
 45 20  1  0
 47 45  1  0
 49 51  1  0
 49 48  1  0
 50 61  2  0
 51 56  1  0
 52 60  1  0
 52 62  1  0
 53 59  1  0
 53 55  1  0
 54 60  1  0
 55 54  1  0
 56 55  2  0
 57 51  2  0
 58 57  1  0
 58 53  2  0
 59 52  1  0
 60 50  1  0
 62 64  2  0
 63 62  1  0
 65 63  1  0
 66 75  2  0
 66 71  1  0
 67 63  1  0
 67 71  1  0
 68 67  1  0
 69 70  1  0
 69 68  1  0
 70 66  1  0
 71 72  2  0
 72 73  1  0
 74 73  2  0
 75 74  1  0
 76 50  1  0
 76 77  1  0
 76 86  1  0
 77 80  1  0
 78 82  1  0
 78 77  1  0
 79 78  2  0
 82 81  1  0
 84 82  1  0
 84 85  1  0
 84 83  1  0
 86 89  1  1
 86 87  1  0
 88 86  1  0
M  ISO  4  10 100  18 100  48 101  49 101
M  END
>  <TORSDO>  (61) 
F 18

>  <SCORE>  (61) 
-16.533

>  <name>  (61) 
60

>  <ligand_id>  (61) 
60

>  <original_smiles>  (61) 
[H]c1c([H])c([H])c2c(c1[H])C([H])([H])C([H])([H])C([H])([H])C2([H])N([H])C(=O)C1([H])N(C(=O)C([H])(N([H])C(=O)C([H])(N([H])C([H])([H])[H])C([H])([H])[H])C(C([H])([H])[H])(C([H])([H])[H])C([H])([H])[H])C([H])([H])c2c([H])c(OC([H])([H])C3([H])C([H])([H])C([H])(C([H])([H])[H])C([H])(C([H])([H])N([H])C(=O)N4C([H])([H])C([H])([H])C([H])([H])C([H])(n5nc(-c6c([H])c([H])c(Oc7c([H])c([H])c(F)c([H])c7F)c([H])c6[H])c(C(=O)N([H])[H])c5N([H])[H])C4([H])[H])[N+]3([H])[H])c([H])c([H])c2C1([H])[H]

>  <smiles>  (61) 
[H]c1c([H])c([H])c2c(c1[H])C([H])([H])C([H])([H])C([H])([H])C2([H])N([H])C(=O)C1([H])N(C(=O)C([H])(N([H])C(=O)C([H])(N([H])C([H])([H])[H])C([H])([H])[H])C(C([H])([H])[H])(C([H])([H])[H])C([H])([H])[H])C([H])([H])c2c([H])c(OC([H])([H])C3([H])C([H])([H])C([H])(C([H])([H])[H])C([H])(C([H])([H])N([H])C(=O)N4C([H])([H])C([H])([H])C([H])([H])C([H])(n5nc(-c6c([H])c([H])c(Oc7c([H])c([H])c(F)c([H])c7F)c([H])c6[H])c(C(=O)N([H])[H])c5N([H])[H])C4([H])[H])[N+]3([H])[H])c([H])c([H])c2C1([H])[H]

$$$$
61:0:0
     RDKit          3D

 89 97  0  0  1  0  0  0  0  0999 V2000
  -27.5140  -22.2350   18.3460 C   0  0  0  0  0  3  0  0  0  0  0  0
  -28.1000  -21.1000   18.9520 C   0  0  0  0  0  3  0  0  0  0  0  0
  -27.6100  -23.5200   18.9260 C   0  0  0  0  0  3  0  0  0  0  0  0
  -28.8870  -22.5420   20.7410 C   0  0  0  0  0  3  0  0  0  0  0  0
  -28.8270  -21.2180   20.1580 C   0  0  0  0  0  0  0  0  0  0  0  0
  -28.2800  -23.7200   20.1510 C   0  0  0  0  0  0  0  0  0  0  0  0
  -29.5810  -19.9560   20.7610 C   0  0  0  0  0  2  0  0  0  0  0  0
  -29.1920  -18.4390   20.3760 C   0  0  0  0  0  3  0  0  0  0  0  0
  -30.2310  -17.2700   20.7630 C   0  0  0  0  0  3  0  0  0  0  0  0
  -30.5800  -14.7020   20.4170 C   0  0  0  0  0  0  0  0  0  0  0  0
  -30.3830  -12.4480   19.3700 C   0  0  0  0  0  2  0  0  0  0  0  0
  -29.4440  -12.5240   18.1470 C   0  0  0  0  0  2  0  0  0  0  0  0
  -27.9790  -12.3310   18.5830 C   0  0  0  0  0  2  0  0  0  0  0  0
  -27.5990  -13.2290   19.7890 C   0  0  0  0  0  3  0  0  0  0  0  0
  -28.6500  -13.1430   20.9160 C   0  0  0  0  0  2  0  0  0  0  0  0
  -29.9490  -13.4870   20.3290 N   0  0  0  0  0  0  0  0  0  0  0  0
  -31.7640  -14.8180   20.0940 O   0  0  0  0  0  0  0  0  0  0  0  0
  -29.8040  -15.8140   20.6790 N   0  0  0  0  0  0  0  0  0  0  0  0
  -28.8330  -15.6190   20.8750 H   0  0  0  0  0  0  0  0  0  0  0  0
  -25.2110  -13.8200   20.5110 C   0  0  0  0  0  0  0  0  0  0  0  0
  -24.1480  -13.0420   20.8830 C   0  0  0  0  0  0  0  0  0  0  0  0
  -24.6210  -11.6950   20.8620 C   0  0  0  0  0  0  0  0  0  0  0  0
  -26.2580  -12.9430   20.2810 N   0  0  0  0  0  0  0  0  0  0  0  0
  -25.9100  -11.6600   20.5540 N   0  0  0  0  0  0  0  0  0  0  0  0
  -23.9050  -10.4290   21.0540 C   0  0  0  0  0  0  0  0  0  0  0  0
  -24.3460   -9.4600   21.9830 C   0  0  0  0  0  3  0  0  0  0  0  0
  -23.6240   -8.2590   22.1600 C   0  0  0  0  0  3  0  0  0  0  0  0
  -22.4490   -8.0210   21.4070 C   0  0  0  0  0  0  0  0  0  0  0  0
  -22.0300   -8.9780   20.4640 C   0  0  0  0  0  3  0  0  0  0  0  0
  -22.7540  -10.1690   20.2860 C   0  0  0  0  0  3  0  0  0  0  0  0
  -21.6990   -6.8730   21.4940 O   0  0  0  0  0  0  0  0  0  0  0  0
  -21.6580   -6.1240   22.6440 C   0  0  0  0  0  0  0  0  0  0  0  0
  -21.2390   -6.6720   23.8770 C   0  0  0  0  0  3  0  0  0  0  0  0
  -21.1480   -5.8490   25.0190 C   0  0  0  0  0  3  0  0  0  0  0  0
  -21.4670   -4.4800   24.9280 C   0  0  0  0  0  0  0  0  0  0  0  0
  -21.8780   -3.9330   23.6990 C   0  0  0  0  0  3  0  0  0  0  0  0
  -21.9720   -4.7520   22.5610 C   0  0  0  0  0  0  0  0  0  0  0  0
  -22.3480   -4.2130   21.3760 F   0  0  0  0  0  0  0  0  0  0  0  0
  -21.3710   -3.6890   26.0210 F   0  0  0  0  0  0  0  0  0  0  0  0
  -22.7490  -13.5120   21.1470 C   0  0  0  0  0  0  0  0  0  0  0  0
  -22.0200  -12.8110   22.0120 N   0  0  0  0  0  0  0  0  0  0  0  0
  -22.3070  -14.5340   20.6250 O   0  0  0  0  0  0  0  0  0  0  0  0
  -22.3930  -11.9870   22.4580 H   0  0  0  0  0  0  0  0  0  0  0  0
  -21.0800  -13.1070   22.2310 H   0  0  0  0  0  0  0  0  0  0  0  0
  -25.3690  -15.1900   20.3240 N   0  0  0  0  0  0  0  0  0  0  0  0
  -24.5950  -15.8370   20.4210 H   0  0  0  0  0  0  0  0  0  0  0  0
  -26.2100  -15.6330   19.9770 H   0  0  0  0  0  0  0  0  0  0  0  0
  -28.2470  -25.1330   20.8750 C   0  0  0  0  0  2  0  0  0  0  0  0
  -28.3150  -26.4260   20.1390 O   0  0  0  0  0  0  0  0  0  0  0  0
  -24.6030  -31.8600   23.2210 C   0  0  0  0  0  0  0  0  0  0  0  0
  -27.2060  -27.2860   20.1720 C   0  0  0  0  0  0  0  0  0  0  0  0
  -23.4020  -30.4640   21.5790 C   0  0  0  0  0  3  0  0  0  0  0  0
  -24.8550  -28.9170   20.1560 C   0  0  0  0  0  0  0  0  0  0  0  0
  -25.9460  -30.7860   21.3960 C   0  0  0  0  0  2  0  0  0  0  0  0
  -26.0300  -29.4070   20.7410 C   0  0  0  0  0  0  0  0  0  0  0  0
  -27.2180  -28.6090   20.7220 C   0  0  0  0  0  3  0  0  0  0  0  0
  -26.0000  -26.8400   19.5990 C   0  0  0  0  0  3  0  0  0  0  0  0
  -24.8430  -27.6420   19.5730 C   0  0  0  0  0  3  0  0  0  0  0  0
  -23.6200  -29.7930   20.1980 C   0  0  0  0  0  2  0  0  0  0  0  0
  -24.6700  -31.0520   22.1220 N   0  0  0  0  0  0  0  0  0  0  0  0
  -23.5200  -32.1330   23.7550 O   0  0  0  0  0  0  0  0  0  0  0  0
  -22.7410  -29.4410   22.5360 C   0  0  0  0  0  0  0  0  0  0  0  0
  -21.4140  -29.2610   22.4100 N   0  0  0  0  0  0  0  0  0  0  0  0
  -23.4220  -28.8120   23.3530 O   0  0  0  0  0  0  0  0  0  0  0  0
  -20.9250  -29.8150   21.7170 H   0  0  0  0  0  0  0  0  0  0  0  0
  -18.0410  -28.0540   22.9060 C   0  0  0  0  0  0  0  0  0  0  0  0
  -20.5980  -28.3230   23.1850 C   0  0  0  0  0  3  0  0  0  0  0  0
  -20.7060  -26.8890   22.6140 C   0  0  0  0  0  2  0  0  0  0  0  0
  -19.6090  -26.5650   21.5970 C   0  0  0  0  0  2  0  0  0  0  0  0
  -18.2260  -26.7020   22.2400 C   0  0  0  0  0  2  0  0  0  0  0  0
  -19.1540  -28.8210   23.3380 C   0  0  0  0  0  0  0  0  0  0  0  0
  -18.9290  -30.0870   23.9190 C   0  0  0  0  0  3  0  0  0  0  0  0
  -17.6220  -30.5860   24.0760 C   0  0  0  0  0  3  0  0  0  0  0  0
  -16.5220  -29.8140   23.6650 C   0  0  0  0  0  3  0  0  0  0  0  0
  -16.7310  -28.5500   23.0860 C   0  0  0  0  0  3  0  0  0  0  0  0
  -25.8850  -32.4940   23.8440 C   0  0  0  0  0  3  0  0  0  0  0  0
  -26.4000  -31.7260   25.1240 C   0  0  1  0  0  0  0  0  0  0  0  0
  -25.3070  -31.4910   26.1910 C   0  0  0  0  0  1  0  0  0  0  0  0
  -26.9820  -30.3470   24.7380 C   0  0  0  0  0  1  0  0  0  0  0  0
  -27.5520  -32.5180   25.7850 C   0  0  0  0  0  1  0  0  0  0  0  0
  -25.5730  -33.8930   24.1730 N   0  0  0  0  0  0  0  0  0  0  0  0
  -25.9090  -34.9460   23.4160 C   0  0  0  0  0  0  0  0  0  0  0  0
  -26.5780  -34.8410   22.3840 O   0  0  0  0  0  0  0  0  0  0  0  0
  -24.9730  -34.0490   24.9700 H   0  0  0  0  0  0  0  0  0  0  0  0
  -24.1820  -36.7390   23.0610 C   0  0  0  0  0  1  0  0  0  0  0  0
  -25.4230  -36.3340   23.8730 C   0  0  0  0  0  3  0  0  0  0  0  0
  -27.5550  -37.2180   24.7070 C   0  0  0  0  0  1  0  0  0  0  0  0
  -26.4550  -37.3880   23.7610 N   0  0  0  0  0  0  0  0  0  0  0  0
  -26.0500  -38.3090   23.9090 H   0  0  0  0  0  0  0  0  0  0  0  0
  1  3  2  0
  1  2  1  0
  2  5  2  0
  3  6  1  0
  5  4  1  0
  5  7  1  0
  6  4  2  0
  6 48  1  0
  8  7  1  0
  8  9  2  0
 10 18  1  0
 11 16  1  0
 12 13  1  0
 12 11  1  0
 14 13  1  0
 14 23  1  0
 14 15  1  0
 16 10  1  0
 16 15  1  0
 17 10  2  0
 18  9  1  0
 18 19  1  0
 20 21  2  0
 21 40  1  0
 22 21  1  0
 22 25  1  0
 23 20  1  0
 23 24  1  0
 24 22  2  0
 25 26  1  0
 26 27  2  0
 28 31  1  0
 28 27  1  0
 29 28  2  0
 30 29  1  0
 30 25  2  0
 31 32  1  0
 32 33  1  0
 33 34  2  0
 35 34  1  0
 35 39  1  0
 36 35  2  0
 37 32  2  0
 37 36  1  0
 38 37  1  0
 40 41  1  0
 41 44  1  0
 41 43  1  0
 42 40  2  0
 45 46  1  0
 45 20  1  0
 47 45  1  0
 49 51  1  0
 49 48  1  0
 50 61  2  0
 51 56  1  0
 52 60  1  0
 52 62  1  0
 53 59  1  0
 53 55  1  0
 54 60  1  0
 55 54  1  0
 56 55  2  0
 57 51  2  0
 58 57  1  0
 58 53  2  0
 59 52  1  0
 60 50  1  0
 62 64  2  0
 63 62  1  0
 65 63  1  0
 66 75  2  0
 66 71  1  0
 67 63  1  0
 67 71  1  0
 68 67  1  0
 69 70  1  0
 69 68  1  0
 70 66  1  0
 71 72  2  0
 72 73  1  0
 74 73  2  0
 75 74  1  0
 76 50  1  0
 76 81  1  0
 76 77  1  0
 77 80  1  1
 77 78  1  0
 79 77  1  0
 81 84  1  0
 82 86  1  0
 82 81  1  0
 83 82  2  0
 86 85  1  0
 88 86  1  0
 88 89  1  0
 88 87  1  0
M  ISO  4  10 100  18 100  48 101  49 101
M  END
>  <TORSDO>  (62) 
F 20

>  <SCORE>  (62) 
-13.802

>  <name>  (62) 
61

>  <ligand_id>  (62) 
61

>  <original_smiles>  (62) 
[H]c1c([H])c(C([H])([H])Oc2c([H])c([H])c3c(c2[H])C([H])([H])N(C(=O)C([H])(N([H])C(=O)C([H])(N([H])C([H])([H])[H])C([H])([H])[H])C(C([H])([H])[H])(C([H])([H])[H])C([H])([H])[H])C([H])(C(=O)N([H])C2([H])c4c([H])c([H])c([H])c([H])c4C([H])([H])C([H])([H])C2([H])[H])C3([H])[H])c([H])c(C([H])([H])C([H])([H])C([H])([H])N([H])C(=O)N2C([H])([H])C([H])([H])C([H])([H])C([H])(n3nc(-c4c([H])c([H])c(Oc5c([H])c([H])c(F)c([H])c5F)c([H])c4[H])c(C(=O)N([H])[H])c3N([H])[H])C2([H])[H])c1[H]

>  <smiles>  (62) 
[H]c1c([H])c(C([H])([H])Oc2c([H])c([H])c3c(c2[H])C([H])([H])N(C(=O)C([H])(N([H])C(=O)C([H])(N([H])C([H])([H])[H])C([H])([H])[H])C(C([H])([H])[H])(C([H])([H])[H])C([H])([H])[H])C([H])(C(=O)N([H])C2([H])c4c([H])c([H])c([H])c([H])c4C([H])([H])C([H])([H])C2([H])[H])C3([H])[H])c([H])c(C([H])([H])C([H])([H])C([H])([H])N([H])C(=O)N2C([H])([H])C([H])([H])C([H])([H])C([H])(n3nc(-c4c([H])c([H])c(Oc5c([H])c([H])c(F)c([H])c5F)c([H])c4[H])c(C(=O)N([H])[H])c3N([H])[H])C2([H])[H])c1[H]

$$$$
62:0:0
     RDKit          3D

 92100  0  0  1  0  0  0  0  0999 V2000
  -28.7240  -21.6950   19.7900 C   0  0  0  0  0  2  0  0  0  0  0  0
  -31.0080  -19.0640   21.4340 C   0  0  0  0  0  2  0  0  0  0  0  0
  -28.9010  -17.9420   20.6850 C   0  0  0  0  0  2  0  0  0  0  0  0
  -30.6100  -20.3130   20.6230 C   0  0  0  0  0  2  0  0  0  0  0  0
  -28.5410  -19.2190   19.8890 C   0  0  0  0  0  2  0  0  0  0  0  0
  -30.4260  -17.7670   20.8380 C   0  0  0  0  0  3  0  0  0  0  0  0
  -29.1330  -20.4450   20.4940 N   0  0  2  0  0  4  0  0  0  0  0  0
  -28.7520  -20.5060   21.4250 H   0  0  0  0  0  0  0  0  0  0  0  0
  -30.8250  -16.5450   21.7030 C   0  0  0  0  0  2  0  0  0  0  0  0
  -30.7780  -14.4200   20.3760 C   0  0  0  0  0  0  0  0  0  0  0  0
  -30.3950  -12.3430   19.0950 C   0  0  0  0  0  2  0  0  0  0  0  0
  -29.4170  -12.6030   17.9320 C   0  0  0  0  0  2  0  0  0  0  0  0
  -27.9550  -12.4670   18.4010 C   0  0  0  0  0  2  0  0  0  0  0  0
  -27.6690  -13.2660   19.7000 C   0  0  0  0  0  3  0  0  0  0  0  0
  -28.7470  -12.9740   20.7670 C   0  0  0  0  0  2  0  0  0  0  0  0
  -30.0660  -13.2800   20.1800 N   0  0  0  0  0  0  0  0  0  0  0  0
  -31.8290  -14.6750   19.7810 O   0  0  0  0  0  0  0  0  0  0  0  0
  -30.2410  -15.2820   21.2520 N   0  0  0  0  0  0  0  0  0  0  0  0
  -29.3780  -14.9930   21.6880 H   0  0  0  0  0  0  0  0  0  0  0  0
  -25.2920  -13.8890   20.4680 C   0  0  0  0  0  0  0  0  0  0  0  0
  -24.2250  -13.1220   20.8560 C   0  0  0  0  0  0  0  0  0  0  0  0
  -24.6740  -11.7670   20.8000 C   0  0  0  0  0  0  0  0  0  0  0  0
  -26.3230  -13.0010   20.2050 N   0  0  0  0  0  0  0  0  0  0  0  0
  -25.9550  -11.7200   20.4580 N   0  0  0  0  0  0  0  0  0  0  0  0
  -23.9420  -10.5090   20.9940 C   0  0  0  0  0  0  0  0  0  0  0  0
  -24.3770   -9.5380   21.9230 C   0  0  0  0  0  3  0  0  0  0  0  0
  -23.6470   -8.3440   22.1050 C   0  0  0  0  0  3  0  0  0  0  0  0
  -22.4680   -8.1130   21.3580 C   0  0  0  0  0  0  0  0  0  0  0  0
  -22.0520   -9.0720   20.4190 C   0  0  0  0  0  3  0  0  0  0  0  0
  -22.7830  -10.2570   20.2340 C   0  0  0  0  0  3  0  0  0  0  0  0
  -21.7090   -6.9710   21.4500 O   0  0  0  0  0  0  0  0  0  0  0  0
  -21.6480   -6.2380   22.6080 C   0  0  0  0  0  0  0  0  0  0  0  0
  -21.1920   -6.7990   23.8220 C   0  0  0  0  0  3  0  0  0  0  0  0
  -21.0800   -5.9910   24.9720 C   0  0  0  0  0  3  0  0  0  0  0  0
  -21.4130   -4.6240   24.9090 C   0  0  0  0  0  0  0  0  0  0  0  0
  -21.8610   -4.0640   23.7000 C   0  0  0  0  0  3  0  0  0  0  0  0
  -21.9750   -4.8680   22.5520 C   0  0  0  0  0  0  0  0  0  0  0  0
  -22.3870   -4.3180   21.3850 F   0  0  0  0  0  0  0  0  0  0  0  0
  -21.2970   -3.8470   26.0100 F   0  0  0  0  0  0  0  0  0  0  0  0
  -22.8400  -13.6080   21.1690 C   0  0  0  0  0  0  0  0  0  0  0  0
  -22.1250  -12.9050   22.0410 N   0  0  0  0  0  0  0  0  0  0  0  0
  -22.3990  -14.6450   20.6750 O   0  0  0  0  0  0  0  0  0  0  0  0
  -22.4940  -12.0640   22.4610 H   0  0  0  0  0  0  0  0  0  0  0  0
  -21.1970  -13.2110   22.2920 H   0  0  0  0  0  0  0  0  0  0  0  0
  -25.4650  -15.2600   20.3000 N   0  0  0  0  0  0  0  0  0  0  0  0
  -24.7060  -15.9210   20.4300 H   0  0  0  0  0  0  0  0  0  0  0  0
  -26.3120  -15.6910   19.9530 H   0  0  0  0  0  0  0  0  0  0  0  0
  -28.7520  -22.9490   20.6990 C   0  0  0  0  0  2  0  0  0  0  0  0
  -28.5320  -24.2810   19.9430 C   0  0  0  0  0  3  0  0  0  0  0  0
  -29.5620  -24.4530   19.1130 F   0  0  0  0  0  0  0  0  0  0  0  0
  -28.4450  -25.4970   20.8920 C   0  0  0  0  0  2  0  0  0  0  0  0
  -28.4470  -26.7490   20.1970 O   0  0  0  0  0  0  0  0  0  0  0  0
  -24.5830  -31.8960   23.2310 C   0  0  0  0  0  0  0  0  0  0  0  0
  -27.2640  -27.4480   20.2140 C   0  0  0  0  0  0  0  0  0  0  0  0
  -23.3900  -30.4750   21.5940 C   0  0  0  0  0  3  0  0  0  0  0  0
  -24.8590  -28.9250   20.1980 C   0  0  0  0  0  0  0  0  0  0  0  0
  -25.9130  -30.8460   21.4060 C   0  0  0  0  0  2  0  0  0  0  0  0
  -26.0090  -29.4680   20.7830 C   0  0  0  0  0  0  0  0  0  0  0  0
  -27.2180  -28.7380   20.7840 C   0  0  0  0  0  3  0  0  0  0  0  0
  -26.0990  -26.9070   19.6310 C   0  0  0  0  0  3  0  0  0  0  0  0
  -24.8970  -27.6420   19.6200 C   0  0  0  0  0  3  0  0  0  0  0  0
  -23.6110  -29.7780   20.2240 C   0  0  0  0  0  2  0  0  0  0  0  0
  -24.6470  -31.0870   22.1360 N   0  0  0  0  0  0  0  0  0  0  0  0
  -23.4980  -32.1700   23.7620 O   0  0  0  0  0  0  0  0  0  0  0  0
  -22.7360  -29.4620   22.5600 C   0  0  0  0  0  0  0  0  0  0  0  0
  -21.4120  -29.2850   22.4330 N   0  0  0  0  0  0  0  0  0  0  0  0
  -23.4180  -28.8370   23.3770 O   0  0  0  0  0  0  0  0  0  0  0  0
  -20.9240  -29.8410   21.7440 H   0  0  0  0  0  0  0  0  0  0  0  0
  -18.0260  -28.1430   22.9640 C   0  0  0  0  0  0  0  0  0  0  0  0
  -20.5910  -28.3550   23.2070 C   0  0  0  0  0  3  0  0  0  0  0  0
  -20.6610  -26.9280   22.6170 C   0  0  0  0  0  2  0  0  0  0  0  0
  -19.5410  -26.6320   21.6140 C   0  0  0  0  0  2  0  0  0  0  0  0
  -18.1710  -26.7960   22.2760 C   0  0  0  0  0  2  0  0  0  0  0  0
  -19.1630  -28.8820   23.3860 C   0  0  0  0  0  0  0  0  0  0  0  0
  -18.9740  -30.1460   23.9880 C   0  0  0  0  0  3  0  0  0  0  0  0
  -17.6800  -30.6690   24.1730 C   0  0  0  0  0  3  0  0  0  0  0  0
  -16.5580  -29.9270   23.7670 C   0  0  0  0  0  3  0  0  0  0  0  0
  -16.7310  -28.6660   23.1690 C   0  0  0  0  0  3  0  0  0  0  0  0
  -25.8640  -32.5340   23.8550 C   0  0  0  0  0  3  0  0  0  0  0  0
  -25.5510  -33.9320   24.1750 N   0  0  0  0  0  0  0  0  0  0  0  0
  -25.8940  -34.9820   23.4160 C   0  0  0  0  0  0  0  0  0  0  0  0
  -26.5800  -34.8750   22.3970 O   0  0  0  0  0  0  0  0  0  0  0  0
  -24.9430  -34.0900   24.9660 H   0  0  0  0  0  0  0  0  0  0  0  0
  -24.1840  -36.7790   23.0110 C   0  0  0  0  0  1  0  0  0  0  0  0
  -25.3970  -36.3710   23.8600 C   0  0  0  0  0  3  0  0  0  0  0  0
  -27.5060  -37.2500   24.7590 C   0  0  0  0  0  1  0  0  0  0  0  0
  -26.4360  -37.4210   23.7790 N   0  0  0  0  0  0  0  0  0  0  0  0
  -26.0280  -38.3420   23.9120 H   0  0  0  0  0  0  0  0  0  0  0  0
  -26.3810  -31.7690   25.1340 C   0  0  1  0  0  0  0  0  0  0  0  0
  -25.2860  -31.5260   26.1980 C   0  0  0  0  0  1  0  0  0  0  0  0
  -26.9770  -30.3960   24.7450 C   0  0  0  0  0  1  0  0  0  0  0  0
  -27.5240  -32.5730   25.8000 C   0  0  0  0  0  1  0  0  0  0  0  0
  1  7  1  0
  1 48  1  0
  3  6  1  0
  4  2  1  0
  5  7  1  0
  5  3  1  0
  6  2  1  0
  6  9  1  0
  7  4  1  0
  7  8  1  1
 10 18  1  0
 11 16  1  0
 12 13  1  0
 12 11  1  0
 14 13  1  0
 14 23  1  0
 14 15  1  0
 16 10  1  0
 16 15  1  0
 17 10  2  0
 18 19  1  0
 18  9  1  0
 20 21  2  0
 21 40  1  0
 22 21  1  0
 22 25  1  0
 23 24  1  0
 23 20  1  0
 24 22  2  0
 25 26  1  0
 26 27  2  0
 28 31  1  0
 28 27  1  0
 29 28  2  0
 30 29  1  0
 30 25  2  0
 31 32  1  0
 32 33  1  0
 33 34  2  0
 35 34  1  0
 35 39  1  0
 36 35  2  0
 37 32  2  0
 37 36  1  0
 38 37  1  0
 40 41  1  0
 41 44  1  0
 41 43  1  0
 42 40  2  0
 45 46  1  0
 45 20  1  0
 47 45  1  0
 49 50  1  0
 49 48  1  0
 49 51  1  0
 52 54  1  0
 52 51  1  0
 53 64  2  0
 54 59  1  0
 55 63  1  0
 55 65  1  0
 56 62  1  0
 56 58  1  0
 57 63  1  0
 58 59  2  0
 58 57  1  0
 60 54  2  0
 61 60  1  0
 61 56  2  0
 62 55  1  0
 63 53  1  0
 65 67  2  0
 66 65  1  0
 68 66  1  0
 69 78  2  0
 69 74  1  0
 70 66  1  0
 70 74  1  0
 71 70  1  0
 72 73  1  0
 72 71  1  0
 73 69  1  0
 74 75  2  0
 75 76  1  0
 77 76  2  0
 78 77  1  0
 79 53  1  0
 79 80  1  0
 79 89  1  0
 80 83  1  0
 81 85  1  0
 81 80  1  0
 82 81  2  0
 85 84  1  0
 87 85  1  0
 87 88  1  0
 87 86  1  0
 89 92  1  1
 89 90  1  0
 91 89  1  0
M  ISO  4  10 100  18 100  51 101  52 101
M  END
>  <TORSDO>  (63) 
F 21

>  <SCORE>  (63) 
-13.804

>  <name>  (63) 
62

>  <ligand_id>  (63) 
62

>  <original_smiles>  (63) 
[H]c1c([H])c([H])c2c(c1[H])C([H])([H])C([H])([H])C([H])([H])C2([H])N([H])C(=O)C1([H])N(C(=O)C([H])(N([H])C(=O)C([H])(N([H])C([H])([H])[H])C([H])([H])[H])C(C([H])([H])[H])(C([H])([H])[H])C([H])([H])[H])C([H])([H])c2c([H])c(OC([H])([H])C([H])(F)C([H])([H])C([H])([H])[N+]3([H])C([H])([H])C([H])([H])C([H])(C([H])([H])N([H])C(=O)N4C([H])([H])C([H])([H])C([H])([H])C([H])(n5nc(-c6c([H])c([H])c(Oc7c([H])c([H])c(F)c([H])c7F)c([H])c6[H])c(C(=O)N([H])[H])c5N([H])[H])C4([H])[H])C([H])([H])C3([H])[H])c([H])c([H])c2C1([H])[H]

>  <smiles>  (63) 
[H]c1c([H])c([H])c2c(c1[H])C([H])([H])C([H])([H])C([H])([H])C2([H])N([H])C(=O)C1([H])N(C(=O)C([H])(N([H])C(=O)C([H])(N([H])C([H])([H])[H])C([H])([H])[H])C(C([H])([H])[H])(C([H])([H])[H])C([H])([H])[H])C([H])([H])c2c([H])c(OC([H])([H])C([H])(F)C([H])([H])C([H])([H])[N+]3([H])C([H])([H])C([H])([H])C([H])(C([H])([H])N([H])C(=O)N4C([H])([H])C([H])([H])C([H])([H])C([H])(n5nc(-c6c([H])c([H])c(Oc7c([H])c([H])c(F)c([H])c7F)c([H])c6[H])c(C(=O)N([H])[H])c5N([H])[H])C4([H])[H])C([H])([H])C3([H])[H])c([H])c([H])c2C1([H])[H]

$$$$
63:0:0
     RDKit          3D

 94102  0  0  1  0  0  0  0  0999 V2000
  -27.9530  -20.4870   18.5040 N   0  0  0  0  0  4  0  0  0  0  0  0
  -28.5380  -20.2230   19.2800 H   0  0  0  0  0  0  0  0  0  0  0  0
  -28.5150  -20.4490   17.6690 H   0  0  0  0  0  0  0  0  0  0  0  0
  -27.5060  -21.8780   18.6830 C   0  0  0  0  0  2  0  0  0  0  0  0
  -28.7000  -22.8420   18.6390 C   0  0  0  0  0  2  0  0  0  0  0  0
  -28.2620  -24.3030   18.7630 C   0  0  0  0  0  2  0  0  0  0  0  0
  -29.4370  -25.2850   18.6800 C   0  0  0  0  0  2  0  0  0  0  0  0
  -28.9800  -26.7410   18.7940 C   0  0  0  0  0  2  0  0  0  0  0  0
  -28.4550  -26.9640   20.0980 O   0  0  0  0  0  0  0  0  0  0  0  0
  -24.6760  -32.0320   23.3150 C   0  0  0  0  0  0  0  0  0  0  0  0
  -27.2720  -27.6540   20.1390 C   0  0  0  0  0  0  0  0  0  0  0  0
  -23.4400  -30.6520   21.6720 C   0  0  0  0  0  3  0  0  0  0  0  0
  -24.8690  -29.1240   20.2160 C   0  0  0  0  0  0  0  0  0  0  0  0
  -25.9580  -31.0110   21.4440 C   0  0  0  0  0  2  0  0  0  0  0  0
  -26.0300  -29.6460   20.7990 C   0  0  0  0  0  0  0  0  0  0  0  0
  -27.2320  -28.9100   20.7750 C   0  0  0  0  0  3  0  0  0  0  0  0
  -26.0950  -27.1260   19.5670 C   0  0  0  0  0  3  0  0  0  0  0  0
  -24.8920  -27.8570   19.6040 C   0  0  0  0  0  3  0  0  0  0  0  0
  -23.6270  -29.9810   20.2840 C   0  0  0  0  0  2  0  0  0  0  0  0
  -24.7100  -31.2450   22.2030 N   0  0  0  0  0  0  0  0  0  0  0  0
  -23.6030  -32.3030   23.8740 O   0  0  0  0  0  0  0  0  0  0  0  0
  -22.7990  -29.6230   22.6310 C   0  0  0  0  0  0  0  0  0  0  0  0
  -21.4850  -29.3960   22.4690 N   0  0  0  0  0  0  0  0  0  0  0  0
  -23.4800  -29.0320   23.4710 O   0  0  0  0  0  0  0  0  0  0  0  0
  -20.9980  -29.9280   21.7610 H   0  0  0  0  0  0  0  0  0  0  0  0
  -18.1610  -28.0250   22.8080 C   0  0  0  0  0  0  0  0  0  0  0  0
  -20.6770  -28.4450   23.2280 C   0  0  0  0  0  3  0  0  0  0  0  0
  -20.8980  -26.9990   22.7240 C   0  0  0  0  0  2  0  0  0  0  0  0
  -19.8840  -26.5700   21.6580 C   0  0  0  0  0  2  0  0  0  0  0  0
  -18.4580  -26.6610   22.2080 C   0  0  0  0  0  2  0  0  0  0  0  0
  -19.2050  -28.8690   23.2720 C   0  0  0  0  0  0  0  0  0  0  0  0
  -18.8780  -30.1410   23.7880 C   0  0  0  0  0  3  0  0  0  0  0  0
  -17.5400  -30.5730   23.8460 C   0  0  0  0  0  3  0  0  0  0  0  0
  -16.5100  -29.7270   23.4010 C   0  0  0  0  0  3  0  0  0  0  0  0
  -16.8200  -28.4550   22.8870 C   0  0  0  0  0  3  0  0  0  0  0  0
  -25.9750  -32.6460   23.9240 C   0  0  0  0  0  3  0  0  0  0  0  0
  -26.4860  -31.8780   25.2040 C   0  0  1  0  0  0  0  0  0  0  0  0
  -25.3950  -31.6660   26.2790 C   0  0  0  0  0  1  0  0  0  0  0  0
  -27.0450  -30.4890   24.8180 C   0  0  0  0  0  1  0  0  0  0  0  0
  -27.6520  -32.6600   25.8540 C   0  0  0  0  0  1  0  0  0  0  0  0
  -25.6930  -34.0520   24.2370 N   0  0  0  0  0  0  0  0  0  0  0  0
  -26.0560  -35.0900   23.4720 C   0  0  0  0  0  0  0  0  0  0  0  0
  -26.7360  -34.9620   22.4490 O   0  0  0  0  0  0  0  0  0  0  0  0
  -25.0930  -34.2280   25.0310 H   0  0  0  0  0  0  0  0  0  0  0  0
  -24.3740  -36.9140   23.0700 C   0  0  0  0  0  1  0  0  0  0  0  0
  -25.5900  -36.4920   23.9070 C   0  0  0  0  0  3  0  0  0  0  0  0
  -27.7300  -37.3340   24.7680 C   0  0  0  0  0  1  0  0  0  0  0  0
  -26.6480  -37.5200   23.8050 N   0  0  0  0  0  0  0  0  0  0  0  0
  -26.2610  -38.4500   23.9400 H   0  0  0  0  0  0  0  0  0  0  0  0
  -26.8720  -19.4930   18.3480 C   0  0  0  0  0  2  0  0  0  0  0  0
  -27.4540  -18.1600   17.8430 C   0  0  0  0  0  2  0  0  0  0  0  0
  -30.7000  -14.9350   21.3910 C   0  0  0  0  0  0  0  0  0  0  0  0
  -30.6480  -12.6530   20.5380 C   0  0  0  0  0  2  0  0  0  0  0  0
  -29.8930  -12.6700   19.1950 C   0  0  0  0  0  2  0  0  0  0  0  0
  -28.3740  -12.5060   19.4200 C   0  0  0  0  0  2  0  0  0  0  0  0
  -27.8040  -13.4180   20.5420 C   0  0  0  0  0  3  0  0  0  0  0  0
  -28.7100  -13.4180   21.7940 C   0  0  0  0  0  2  0  0  0  0  0  0
  -30.0740  -13.7310   21.3480 N   0  0  0  0  0  0  0  0  0  0  0  0
  -31.9220  -15.0170   21.5240 O   0  0  0  0  0  0  0  0  0  0  0  0
  -30.2640  -16.5890   18.1990 C   0  0  0  0  0  2  0  0  0  0  0  0
  -30.9060  -16.6110   19.6040 C   0  0  0  0  0  2  0  0  0  0  0  0
  -28.7680  -16.2270   18.1580 C   0  0  0  0  0  2  0  0  0  0  0  0
  -28.9580  -16.6830   21.1270 C   0  0  0  0  0  2  0  0  0  0  0  0
  -28.3930  -17.7230   20.1200 C   0  0  0  0  0  2  0  0  0  0  0  0
  -30.1040  -15.8970   20.6300 N   0  0  0  0  0  0  0  0  0  0  0  0
  -27.8810  -17.1730   18.8510 N   0  0  0  0  0  0  0  0  0  0  0  0
  -25.3230  -13.9550   20.9350 C   0  0  0  0  0  0  0  0  0  0  0  0
  -24.2400  -13.1450   21.1510 C   0  0  0  0  0  0  0  0  0  0  0  0
  -24.7460  -11.8100   21.1730 C   0  0  0  0  0  0  0  0  0  0  0  0
  -26.4150  -13.1040   20.8460 N   0  0  0  0  0  0  0  0  0  0  0  0
  -26.0650  -11.8110   21.0490 N   0  0  0  0  0  0  0  0  0  0  0  0
  -24.0460  -10.5220   21.2460 C   0  0  0  0  0  0  0  0  0  0  0  0
  -24.4310   -9.5250   22.1690 C   0  0  0  0  0  3  0  0  0  0  0  0
  -23.7330   -8.3000   22.2320 C   0  0  0  0  0  3  0  0  0  0  0  0
  -22.6370   -8.0640   21.3680 C   0  0  0  0  0  0  0  0  0  0  0  0
  -22.2740   -9.0510   20.4350 C   0  0  0  0  0  3  0  0  0  0  0  0
  -22.9720  -10.2670   20.3700 C   0  0  0  0  0  3  0  0  0  0  0  0
  -21.9130   -6.8960   21.3460 O   0  0  0  0  0  0  0  0  0  0  0  0
  -21.8250   -6.0840   22.4470 C   0  0  0  0  0  0  0  0  0  0  0  0
  -21.3140   -6.5500   23.6790 C   0  0  0  0  0  3  0  0  0  0  0  0
  -21.1740   -5.6610   24.7640 C   0  0  0  0  0  3  0  0  0  0  0  0
  -21.5370   -4.3080   24.6180 C   0  0  0  0  0  0  0  0  0  0  0  0
  -22.0420   -3.8430   23.3920 C   0  0  0  0  0  3  0  0  0  0  0  0
  -22.1830   -4.7280   22.3090 C   0  0  0  0  0  0  0  0  0  0  0  0
  -22.6500   -4.2700   21.1230 F   0  0  0  0  0  0  0  0  0  0  0  0
  -21.3980   -3.4520   25.6570 F   0  0  0  0  0  0  0  0  0  0  0  0
  -22.8040  -13.5730   21.2320 C   0  0  0  0  0  0  0  0  0  0  0  0
  -21.9950  -12.8600   22.0090 N   0  0  0  0  0  0  0  0  0  0  0  0
  -22.4010  -14.5760   20.6460 O   0  0  0  0  0  0  0  0  0  0  0  0
  -22.3280  -12.0480   22.5080 H   0  0  0  0  0  0  0  0  0  0  0  0
  -21.0280  -13.1320   22.1050 H   0  0  0  0  0  0  0  0  0  0  0  0
  -25.4600  -15.3320   20.7780 N   0  0  0  0  0  0  0  0  0  0  0  0
  -24.6470  -15.9350   20.7370 H   0  0  0  0  0  0  0  0  0  0  0  0
  -26.3060  -15.7910   20.4560 H   0  0  0  0  0  0  0  0  0  0  0  0
  1  4  1  0
  1  2  1  0
  3  1  1  0
  5  4  1  0
  5  6  1  0
  7  6  1  0
  7  8  1  0
  8  9  1  0
  9 11  1  0
 10 21  2  0
 11 16  1  0
 12 20  1  0
 12 22  1  0
 13 19  1  0
 13 15  1  0
 14 20  1  0
 15 14  1  0
 16 15  2  0
 17 18  1  0
 17 11  2  0
 18 13  2  0
 19 12  1  0
 20 10  1  0
 22 24  2  0
 23 22  1  0
 25 23  1  0
 26 35  2  0
 26 31  1  0
 27 23  1  0
 27 31  1  0
 28 27  1  0
 29 30  1  0
 29 28  1  0
 30 26  1  0
 31 32  2  0
 32 33  1  0
 34 33  2  0
 35 34  1  0
 36 10  1  0
 36 41  1  0
 36 37  1  0
 37 40  1  1
 37 38  1  0
 39 37  1  0
 41 44  1  0
 42 46  1  0
 42 41  1  0
 43 42  2  0
 46 45  1  0
 48 46  1  0
 48 49  1  0
 48 47  1  0
 50  1  1  0
 51 50  1  0
 51 66  1  0
 52 59  2  0
 53 58  1  0
 54 55  1  0
 54 53  1  0
 56 55  1  0
 56 70  1  0
 56 57  1  0
 58 52  1  0
 58 57  1  0
 60 61  1  0
 61 65  1  0
 62 60  1  0
 62 66  1  0
 64 63  1  0
 65 63  1  0
 65 52  1  0
 66 64  1  0
 67 68  2  0
 68 69  1  0
 68 87  1  0
 69 72  1  0
 70 67  1  0
 70 71  1  0
 71 69  2  0
 72 73  1  0
 73 74  2  0
 75 74  1  0
 76 75  2  0
 77 76  1  0
 77 72  2  0
 78 75  1  0
 78 79  1  0
 79 80  1  0
 80 81  2  0
 82 81  1  0
 82 86  1  0
 83 82  2  0
 84 79  2  0
 84 83  1  0
 85 84  1  0
 87 88  1  0
 88 91  1  0
 88 90  1  0
 89 87  2  0
 92 67  1  0
 93 92  1  0
 94 92  1  0
M  ISO  4   8 101   9 101  52 100  65 100
M  END
>  <TORSDO>  (64) 
F 23

>  <SCORE>  (64) 
-10.424

>  <name>  (64) 
63

>  <ligand_id>  (64) 
63

>  <original_smiles>  (64) 
[H]c1c([H])c([H])c2c(c1[H])C([H])([H])C([H])([H])C([H])([H])C2([H])N([H])C(=O)C1([H])N(C(=O)C([H])(N([H])C(=O)C([H])(N([H])C([H])([H])[H])C([H])([H])[H])C(C([H])([H])[H])(C([H])([H])[H])C([H])([H])[H])C([H])([H])c2c([H])c(OC([H])([H])C([H])([H])C([H])([H])C([H])([H])C([H])([H])[N+]([H])([H])C([H])([H])C([H])([H])N3C([H])([H])C([H])([H])N(C(=O)N4C([H])([H])C([H])([H])C([H])([H])C([H])(n5nc(-c6c([H])c([H])c(Oc7c([H])c([H])c(F)c([H])c7F)c([H])c6[H])c(C(=O)N([H])[H])c5N([H])[H])C4([H])[H])C([H])([H])C([H])([H])C3([H])[H])c([H])c([H])c2C1([H])[H]

>  <smiles>  (64) 
[H]c1c([H])c([H])c2c(c1[H])C([H])([H])C([H])([H])C([H])([H])C2([H])N([H])C(=O)C1([H])N(C(=O)C([H])(N([H])C(=O)C([H])(N([H])C([H])([H])[H])C([H])([H])[H])C(C([H])([H])[H])(C([H])([H])[H])C([H])([H])[H])C([H])([H])c2c([H])c(OC([H])([H])C([H])([H])C([H])([H])C([H])([H])C([H])([H])[N+]([H])([H])C([H])([H])C([H])([H])N3C([H])([H])C([H])([H])N(C(=O)N4C([H])([H])C([H])([H])C([H])([H])C([H])(n5nc(-c6c([H])c([H])c(Oc7c([H])c([H])c(F)c([H])c7F)c([H])c6[H])c(C(=O)N([H])[H])c5N([H])[H])C4([H])[H])C([H])([H])C([H])([H])C3([H])[H])c([H])c([H])c2C1([H])[H]

$$$$
64:0:0
     RDKit          3D

 91 99  0  0  1  0  0  0  0  0999 V2000
  -30.4570  -21.1500   21.9820 C   0  0  0  0  0  2  0  0  0  0  0  0
  -30.2090  -17.8480   19.9550 C   0  0  0  0  0  2  0  0  0  0  0  0
  -30.2710  -17.3280   22.3920 C   0  0  0  0  0  2  0  0  0  0  0  0
  -30.5640  -19.3220   20.2770 C   0  0  0  0  0  2  0  0  0  0  0  0
  -30.6270  -18.8020   22.6780 C   0  0  0  0  0  2  0  0  0  0  0  0
  -30.7710  -16.8690   21.0110 C   0  0  0  0  0  3  0  0  0  0  0  0
  -30.1130  -19.7370   21.6360 N   0  0  1  0  0  4  0  0  0  0  0  0
  -29.1060  -19.6710   21.6580 H   0  0  0  0  0  0  0  0  0  0  0  0
  -31.0010  -14.5280   20.0800 C   0  0  0  0  0  0  0  0  0  0  0  0
  -30.6540  -12.3750   18.9240 C   0  0  0  0  0  2  0  0  0  0  0  0
  -29.6430  -12.5660   17.7750 C   0  0  0  0  0  2  0  0  0  0  0  0
  -28.1940  -12.4310   18.2840 C   0  0  0  0  0  2  0  0  0  0  0  0
  -27.9250  -13.2790   19.5560 C   0  0  0  0  0  3  0  0  0  0  0  0
  -29.0330  -13.0430   20.6060 C   0  0  0  0  0  2  0  0  0  0  0  0
  -30.3290  -13.3510   19.9720 N   0  0  0  0  0  0  0  0  0  0  0  0
  -32.0720  -14.7530   19.5090 O   0  0  0  0  0  0  0  0  0  0  0  0
  -30.3560  -15.4800   20.7760 N   0  0  0  0  0  0  0  0  0  0  0  0
  -29.4810  -15.1900   21.1840 H   0  0  0  0  0  0  0  0  0  0  0  0
  -25.5830  -13.9120   20.4190 C   0  0  0  0  0  0  0  0  0  0  0  0
  -24.5230  -13.1480   20.8290 C   0  0  0  0  0  0  0  0  0  0  0  0
  -24.9540  -11.7900   20.7300 C   0  0  0  0  0  0  0  0  0  0  0  0
  -26.5950  -13.0190   20.1020 N   0  0  0  0  0  0  0  0  0  0  0  0
  -26.2210  -11.7360   20.3430 N   0  0  0  0  0  0  0  0  0  0  0  0
  -24.2160  -10.5350   20.9260 C   0  0  0  0  0  0  0  0  0  0  0  0
  -24.6160   -9.5870   21.8920 C   0  0  0  0  0  3  0  0  0  0  0  0
  -23.8800   -8.3960   22.0740 C   0  0  0  0  0  3  0  0  0  0  0  0
  -22.7300   -8.1460   21.2880 C   0  0  0  0  0  0  0  0  0  0  0  0
  -22.3500   -9.0820   20.3100 C   0  0  0  0  0  3  0  0  0  0  0  0
  -23.0870  -10.2640   20.1270 C   0  0  0  0  0  3  0  0  0  0  0  0
  -21.9680   -7.0060   21.3770 O   0  0  0  0  0  0  0  0  0  0  0  0
  -21.7730   -6.3630   22.5730 C   0  0  0  0  0  0  0  0  0  0  0  0
  -21.1650   -7.0050   23.6750 C   0  0  0  0  0  3  0  0  0  0  0  0
  -20.9200   -6.2870   24.8620 C   0  0  0  0  0  3  0  0  0  0  0  0
  -21.2720   -4.9260   24.9470 C   0  0  0  0  0  0  0  0  0  0  0  0
  -21.8710   -4.2830   23.8490 C   0  0  0  0  0  3  0  0  0  0  0  0
  -22.1180   -4.9990   22.6650 C   0  0  0  0  0  0  0  0  0  0  0  0
  -22.6770   -4.3690   21.6040 F   0  0  0  0  0  0  0  0  0  0  0  0
  -21.0290   -4.2330   26.0840 F   0  0  0  0  0  0  0  0  0  0  0  0
  -23.1540  -13.6410   21.2000 C   0  0  0  0  0  0  0  0  0  0  0  0
  -22.4730  -12.9390   22.1000 N   0  0  0  0  0  0  0  0  0  0  0  0
  -22.7000  -14.6830   20.7290 O   0  0  0  0  0  0  0  0  0  0  0  0
  -22.8530  -12.0950   22.5010 H   0  0  0  0  0  0  0  0  0  0  0  0
  -21.5570  -13.2520   22.3920 H   0  0  0  0  0  0  0  0  0  0  0  0
  -25.7650  -15.2840   20.2720 N   0  0  0  0  0  0  0  0  0  0  0  0
  -25.0170  -15.9490   20.4360 H   0  0  0  0  0  0  0  0  0  0  0  0
  -26.5990  -15.7130   19.8920 H   0  0  0  0  0  0  0  0  0  0  0  0
  -29.9310  -22.2480   21.0140 C   0  0  0  0  0  2  0  0  0  0  0  0
  -30.2680  -23.6600   21.5510 C   0  0  0  0  0  2  0  0  0  0  0  0
  -30.0620  -24.8590   20.5930 C   0  0  0  0  0  2  0  0  0  0  0  0
  -28.6190  -25.3910   20.4600 C   0  0  0  0  0  2  0  0  0  0  0  0
  -28.6640  -26.7670   20.0610 O   0  0  0  0  0  0  0  0  0  0  0  0
  -24.7140  -31.7470   23.2630 C   0  0  0  0  0  0  0  0  0  0  0  0
  -27.4690  -27.4530   20.0810 C   0  0  0  0  0  0  0  0  0  0  0  0
  -23.5470  -30.3760   21.5660 C   0  0  0  0  0  3  0  0  0  0  0  0
  -25.0410  -28.9040   20.1130 C   0  0  0  0  0  0  0  0  0  0  0  0
  -26.0670  -30.7870   21.4010 C   0  0  0  0  0  2  0  0  0  0  0  0
  -26.1840  -29.4390   20.7220 C   0  0  0  0  0  0  0  0  0  0  0  0
  -27.4020  -28.7230   20.6960 C   0  0  0  0  0  3  0  0  0  0  0  0
  -26.3080  -26.9260   19.4740 C   0  0  0  0  0  3  0  0  0  0  0  0
  -25.0980  -27.6470   19.4860 C   0  0  0  0  0  3  0  0  0  0  0  0
  -23.7810  -29.7380   20.1700 C   0  0  0  0  0  2  0  0  0  0  0  0
  -24.7940  -30.9830   22.1360 N   0  0  0  0  0  0  0  0  0  0  0  0
  -23.6240  -31.9830   23.8010 O   0  0  0  0  0  0  0  0  0  0  0  0
  -22.9050  -29.3150   22.4890 C   0  0  0  0  0  0  0  0  0  0  0  0
  -21.5910  -29.0940   22.3220 N   0  0  0  0  0  0  0  0  0  0  0  0
  -23.5870  -28.6940   23.3100 O   0  0  0  0  0  0  0  0  0  0  0  0
  -21.1020  -29.6510   21.6350 H   0  0  0  0  0  0  0  0  0  0  0  0
  -18.2470  -27.7770   22.6910 C   0  0  0  0  0  0  0  0  0  0  0  0
  -20.7840  -28.1150   23.0500 C   0  0  0  0  0  3  0  0  0  0  0  0
  -20.9530  -26.6990   22.4530 C   0  0  0  0  0  2  0  0  0  0  0  0
  -19.8950  -26.3570   21.3990 C   0  0  0  0  0  2  0  0  0  0  0  0
  -18.4900  -26.4450   22.0000 C   0  0  0  0  0  2  0  0  0  0  0  0
  -19.3250  -28.5680   23.1700 C   0  0  0  0  0  0  0  0  0  0  0  0
  -19.0450  -29.8130   23.7730 C   0  0  0  0  0  3  0  0  0  0  0  0
  -17.7190  -30.2680   23.9050 C   0  0  0  0  0  3  0  0  0  0  0  0
  -16.6550  -29.4740   23.4440 C   0  0  0  0  0  3  0  0  0  0  0  0
  -16.9200  -28.2310   22.8430 C   0  0  0  0  0  3  0  0  0  0  0  0
  -25.9840  -32.3790   23.9160 C   0  0  0  0  0  3  0  0  0  0  0  0
  -25.6510  -33.7610   24.2820 N   0  0  0  0  0  0  0  0  0  0  0  0
  -25.9910  -34.8410   23.5660 C   0  0  0  0  0  0  0  0  0  0  0  0
  -26.6890  -34.7790   22.5510 O   0  0  0  0  0  0  0  0  0  0  0  0
  -25.0330  -33.8840   25.0720 H   0  0  0  0  0  0  0  0  0  0  0  0
  -24.2640  -36.6340   23.2060 C   0  0  0  0  0  1  0  0  0  0  0  0
  -25.4740  -36.2090   24.0540 C   0  0  0  0  0  3  0  0  0  0  0  0
  -27.5620  -37.0790   25.0070 C   0  0  0  0  0  1  0  0  0  0  0  0
  -26.5020  -37.2720   24.0220 N   0  0  0  0  0  0  0  0  0  0  0  0
  -26.0820  -38.1840   24.1820 H   0  0  0  0  0  0  0  0  0  0  0  0
  -26.5030  -31.5770   25.1710 C   0  0  1  0  0  0  0  0  0  0  0  0
  -25.4020  -31.2690   26.2120 C   0  0  0  0  0  1  0  0  0  0  0  0
  -27.1310  -30.2320   24.7380 C   0  0  0  0  0  1  0  0  0  0  0  0
  -27.6220  -32.3780   25.8800 C   0  0  0  0  0  1  0  0  0  0  0  0
  2  4  1  0
  2  6  1  0
  3  5  1  0
  4  7  1  0
  6 17  1  0
  6  3  1  0
  7  8  1  6
  7  1  1  0
  7  5  1  0
  9 17  1  0
 10 15  1  0
 11 12  1  0
 11 10  1  0
 13 12  1  0
 13 22  1  0
 13 14  1  0
 15  9  1  0
 15 14  1  0
 16  9  2  0
 17 18  1  0
 19 20  2  0
 20 39  1  0
 21 20  1  0
 21 24  1  0
 22 23  1  0
 22 19  1  0
 23 21  2  0
 24 25  1  0
 25 26  2  0
 27 30  1  0
 27 26  1  0
 28 27  2  0
 29 28  1  0
 29 24  2  0
 30 31  1  0
 31 36  2  0
 31 32  1  0
 32 33  2  0
 33 34  1  0
 34 38  1  0
 35 34  2  0
 36 35  1  0
 37 36  1  0
 39 40  1  0
 40 43  1  0
 40 42  1  0
 41 39  2  0
 44 19  1  0
 44 45  1  0
 46 44  1  0
 47 48  1  0
 47  1  1  0
 49 48  1  0
 50 49  1  0
 51 53  1  0
 51 50  1  0
 52 63  2  0
 53 58  1  0
 54 62  1  0
 54 64  1  0
 55 61  1  0
 55 57  1  0
 56 62  1  0
 57 56  1  0
 58 57  2  0
 59 60  1  0
 59 53  2  0
 60 55  2  0
 61 54  1  0
 62 52  1  0
 64 66  2  0
 65 64  1  0
 67 65  1  0
 68 77  2  0
 68 73  1  0
 69 65  1  0
 69 73  1  0
 70 69  1  0
 71 72  1  0
 71 70  1  0
 72 68  1  0
 73 74  2  0
 74 75  1  0
 76 75  2  0
 77 76  1  0
 78 52  1  0
 78 79  1  0
 78 88  1  0
 79 82  1  0
 80 84  1  0
 80 79  1  0
 81 80  2  0
 84 83  1  0
 86 84  1  0
 86 87  1  0
 86 85  1  0
 88 91  1  1
 88 89  1  0
 90 88  1  0
M  ISO  4   9 100  17 100  50 101  51 101
M  END
>  <TORSDO>  (65) 
F 21

>  <SCORE>  (65) 
-12.629

>  <name>  (65) 
64

>  <ligand_id>  (65) 
64

>  <original_smiles>  (65) 
[H]c1c([H])c([H])c2c(c1[H])C([H])([H])C([H])([H])C([H])([H])C2([H])N([H])C(=O)C1([H])N(C(=O)C([H])(N([H])C(=O)C([H])(N([H])C([H])([H])[H])C([H])([H])[H])C(C([H])([H])[H])(C([H])([H])[H])C([H])([H])[H])C([H])([H])c2c([H])c(OC([H])([H])C([H])([H])C([H])([H])C([H])([H])C([H])([H])[N+]3([H])C([H])([H])C([H])([H])C([H])(N([H])C(=O)N4C([H])([H])C([H])([H])C([H])([H])C([H])(n5nc(-c6c([H])c([H])c(Oc7c([H])c([H])c(F)c([H])c7F)c([H])c6[H])c(C(=O)N([H])[H])c5N([H])[H])C4([H])[H])C([H])([H])C3([H])[H])c([H])c([H])c2C1([H])[H]

>  <smiles>  (65) 
[H]c1c([H])c([H])c2c(c1[H])C([H])([H])C([H])([H])C([H])([H])C2([H])N([H])C(=O)C1([H])N(C(=O)C([H])(N([H])C(=O)C([H])(N([H])C([H])([H])[H])C([H])([H])[H])C(C([H])([H])[H])(C([H])([H])[H])C([H])([H])[H])C([H])([H])c2c([H])c(OC([H])([H])C([H])([H])C([H])([H])C([H])([H])C([H])([H])[N+]3([H])C([H])([H])C([H])([H])C([H])(N([H])C(=O)N4C([H])([H])C([H])([H])C([H])([H])C([H])(n5nc(-c6c([H])c([H])c(Oc7c([H])c([H])c(F)c([H])c7F)c([H])c6[H])c(C(=O)N([H])[H])c5N([H])[H])C4([H])[H])C([H])([H])C3([H])[H])c([H])c([H])c2C1([H])[H]

$$$$
65:0:0
     RDKit          3D

 94102  0  0  1  0  0  0  0  0999 V2000
  -29.1660  -21.8460   20.4950 C   0  0  0  0  0  0  0  0  0  0  0  0
  -29.2430  -23.0200   19.8450 N   0  0  0  0  0  0  0  0  0  0  0  0
  -29.0760  -21.7670   21.7190 O   0  0  0  0  0  0  0  0  0  0  0  0
  -29.2960  -22.9740   18.8390 H   0  0  0  0  0  0  0  0  0  0  0  0
  -28.2470  -19.4290   20.0080 C   0  0  0  0  0  2  0  0  0  0  0  0
  -28.8370  -18.3150   20.9110 C   0  0  0  0  0  2  0  0  0  0  0  0
  -30.6980  -20.0640   19.4500 C   0  0  0  0  0  2  0  0  0  0  0  0
  -29.2390  -20.5660   19.6260 C   0  0  0  0  0  3  0  0  0  0  0  0
  -30.2400  -17.8470   20.4620 C   0  0  0  0  0  3  0  0  0  0  0  0
  -31.1130  -19.0430   20.4470 N   0  0  0  0  0  4  0  0  0  0  0  0
  -31.1460  -19.4560   21.3660 H   0  0  0  0  0  0  0  0  0  0  0  0
  -32.0500  -18.7600   20.2120 H   0  0  0  0  0  0  0  0  0  0  0  0
  -30.8290  -16.7100   21.3610 C   0  0  0  0  0  2  0  0  0  0  0  0
  -30.7960  -14.4500   20.2920 C   0  0  0  0  0  0  0  0  0  0  0  0
  -30.4080  -12.3560   19.0390 C   0  0  0  0  0  2  0  0  0  0  0  0
  -29.4470  -12.6310   17.8650 C   0  0  0  0  0  2  0  0  0  0  0  0
  -27.9810  -12.5080   18.3270 C   0  0  0  0  0  2  0  0  0  0  0  0
  -27.6960  -13.3000   19.6330 C   0  0  0  0  0  3  0  0  0  0  0  0
  -28.7720  -13.0060   20.7020 C   0  0  0  0  0  2  0  0  0  0  0  0
  -30.0890  -13.3030   20.1190 N   0  0  0  0  0  0  0  0  0  0  0  0
  -31.8530  -14.6760   19.6980 O   0  0  0  0  0  0  0  0  0  0  0  0
  -30.2460  -15.3790   21.0990 N   0  0  0  0  0  0  0  0  0  0  0  0
  -29.3880  -15.1350   21.5740 H   0  0  0  0  0  0  0  0  0  0  0  0
  -25.3230  -13.9320   20.3980 C   0  0  0  0  0  0  0  0  0  0  0  0
  -24.2580  -13.1700   20.7970 C   0  0  0  0  0  0  0  0  0  0  0  0
  -24.7010  -11.8140   20.7480 C   0  0  0  0  0  0  0  0  0  0  0  0
  -26.3520  -13.0390   20.1420 N   0  0  0  0  0  0  0  0  0  0  0  0
  -25.9820  -11.7590   20.4050 N   0  0  0  0  0  0  0  0  0  0  0  0
  -23.9640  -10.5600   20.9570 C   0  0  0  0  0  0  0  0  0  0  0  0
  -24.3970   -9.5950   21.8910 C   0  0  0  0  0  3  0  0  0  0  0  0
  -23.6610   -8.4060   22.0880 C   0  0  0  0  0  3  0  0  0  0  0  0
  -22.4750   -8.1760   21.3490 C   0  0  0  0  0  0  0  0  0  0  0  0
  -22.0580   -9.1310   20.4050 C   0  0  0  0  0  3  0  0  0  0  0  0
  -22.7960  -10.3110   20.2060 C   0  0  0  0  0  3  0  0  0  0  0  0
  -21.7100   -7.0410   21.4550 O   0  0  0  0  0  0  0  0  0  0  0  0
  -21.6550   -6.3130   22.6180 C   0  0  0  0  0  0  0  0  0  0  0  0
  -21.2320   -6.8870   23.8380 C   0  0  0  0  0  3  0  0  0  0  0  0
  -21.1220   -6.0860   24.9910 C   0  0  0  0  0  3  0  0  0  0  0  0
  -21.4290   -4.7140   24.9290 C   0  0  0  0  0  0  0  0  0  0  0  0
  -21.8470   -4.1410   23.7170 C   0  0  0  0  0  3  0  0  0  0  0  0
  -21.9560   -4.9380   22.5630 C   0  0  0  0  0  0  0  0  0  0  0  0
  -22.3380   -4.3740   21.3920 F   0  0  0  0  0  0  0  0  0  0  0  0
  -21.3180   -3.9430   26.0370 F   0  0  0  0  0  0  0  0  0  0  0  0
  -22.8750  -13.6650   21.1050 C   0  0  0  0  0  0  0  0  0  0  0  0
  -22.1590  -12.9760   21.9880 N   0  0  0  0  0  0  0  0  0  0  0  0
  -22.4350  -14.6940   20.5920 O   0  0  0  0  0  0  0  0  0  0  0  0
  -22.5260  -12.1410   22.4200 H   0  0  0  0  0  0  0  0  0  0  0  0
  -21.2300  -13.2870   22.2330 H   0  0  0  0  0  0  0  0  0  0  0  0
  -25.4900  -15.3010   20.2170 N   0  0  0  0  0  0  0  0  0  0  0  0
  -24.7130  -15.9450   20.3300 H   0  0  0  0  0  0  0  0  0  0  0  0
  -26.3310  -15.7420   19.8670 H   0  0  0  0  0  0  0  0  0  0  0  0
  -29.3200  -24.3720   20.4190 C   0  0  0  0  0  2  0  0  0  0  0  0
  -28.2890  -25.3080   19.7550 C   0  0  0  0  0  2  0  0  0  0  0  0
  -28.3600  -26.6690   20.2170 O   0  0  0  0  0  0  0  0  0  0  0  0
  -24.5550  -31.8920   23.2300 C   0  0  0  0  0  0  0  0  0  0  0  0
  -27.2000  -27.4250   20.1550 C   0  0  0  0  0  0  0  0  0  0  0  0
  -23.3580  -30.4880   21.5900 C   0  0  0  0  0  3  0  0  0  0  0  0
  -24.8150  -28.9610   20.1590 C   0  0  0  0  0  0  0  0  0  0  0  0
  -25.8910  -30.8310   21.4120 C   0  0  0  0  0  2  0  0  0  0  0  0
  -25.9720  -29.4650   20.7640 C   0  0  0  0  0  0  0  0  0  0  0  0
  -27.1650  -28.7030   20.7610 C   0  0  0  0  0  3  0  0  0  0  0  0
  -26.0270  -26.9620   19.5070 C   0  0  0  0  0  3  0  0  0  0  0  0
  -24.8430  -27.7150   19.5170 C   0  0  0  0  0  3  0  0  0  0  0  0
  -23.5730  -29.8200   20.2070 C   0  0  0  0  0  2  0  0  0  0  0  0
  -24.6200  -31.0840   22.1340 N   0  0  0  0  0  0  0  0  0  0  0  0
  -23.4730  -32.1690   23.7610 O   0  0  0  0  0  0  0  0  0  0  0  0
  -22.7010  -29.4640   22.5440 C   0  0  0  0  0  0  0  0  0  0  0  0
  -21.3780  -29.2760   22.4000 N   0  0  0  0  0  0  0  0  0  0  0  0
  -23.3760  -28.8450   23.3690 O   0  0  0  0  0  0  0  0  0  0  0  0
  -20.8950  -29.8220   21.6990 H   0  0  0  0  0  0  0  0  0  0  0  0
  -17.9980  -28.0790   22.8580 C   0  0  0  0  0  0  0  0  0  0  0  0
  -20.5530  -28.3430   23.1670 C   0  0  0  0  0  3  0  0  0  0  0  0
  -20.6690  -26.9080   22.6020 C   0  0  0  0  0  2  0  0  0  0  0  0
  -19.5820  -26.5750   21.5770 C   0  0  0  0  0  2  0  0  0  0  0  0
  -18.1890  -26.7230   22.1990 C   0  0  0  0  0  2  0  0  0  0  0  0
  -19.1080  -28.8450   23.2990 C   0  0  0  0  0  0  0  0  0  0  0  0
  -18.8800  -30.1140   23.8730 C   0  0  0  0  0  3  0  0  0  0  0  0
  -17.5710  -30.6150   24.0150 C   0  0  0  0  0  3  0  0  0  0  0  0
  -16.4750  -29.8420   23.5950 C   0  0  0  0  0  3  0  0  0  0  0  0
  -16.6890  -28.5780   23.0190 C   0  0  0  0  0  3  0  0  0  0  0  0
  -25.8400  -32.5240   23.8520 C   0  0  0  0  0  3  0  0  0  0  0  0
  -26.3560  -31.7480   25.1250 C   0  0  1  0  0  0  0  0  0  0  0  0
  -25.2590  -31.4990   26.1870 C   0  0  0  0  0  1  0  0  0  0  0  0
  -26.9440  -30.3760   24.7240 C   0  0  0  0  0  1  0  0  0  0  0  0
  -27.5040  -32.5440   25.7900 C   0  0  0  0  0  1  0  0  0  0  0  0
  -25.5300  -33.9210   24.1820 N   0  0  0  0  0  0  0  0  0  0  0  0
  -25.8630  -34.9720   23.4240 C   0  0  0  0  0  0  0  0  0  0  0  0
  -26.5320  -34.8690   22.3920 O   0  0  0  0  0  0  0  0  0  0  0  0
  -24.9330  -34.0760   24.9820 H   0  0  0  0  0  0  0  0  0  0  0  0
  -24.1340  -36.7610   23.0620 C   0  0  0  0  0  1  0  0  0  0  0  0
  -25.3730  -36.3610   23.8780 C   0  0  0  0  0  3  0  0  0  0  0  0
  -27.5040  -37.2450   24.7150 C   0  0  0  0  0  1  0  0  0  0  0  0
  -26.4050  -37.4150   23.7670 N   0  0  0  0  0  0  0  0  0  0  0  0
  -26.0010  -38.3340   23.9150 H   0  0  0  0  0  0  0  0  0  0  0  0
  1  3  2  0
  2 52  1  0
  2  1  1  0
  4  2  1  0
  5  6  1  0
  7  8  1  0
  7 10  1  0
  8  5  1  0
  8  1  1  0
  9  6  1  0
  9 13  1  0
 10  9  1  0
 10 11  1  0
 12 10  1  0
 14 22  1  0
 15 20  1  0
 16 17  1  0
 16 15  1  0
 18 17  1  0
 18 27  1  0
 18 19  1  0
 20 14  1  0
 20 19  1  0
 21 14  2  0
 22 13  1  0
 22 23  1  0
 24 25  2  0
 25 44  1  0
 26 25  1  0
 26 29  1  0
 27 24  1  0
 27 28  1  0
 28 26  2  0
 29 30  1  0
 30 31  2  0
 32 35  1  0
 32 31  1  0
 33 32  2  0
 34 33  1  0
 34 29  2  0
 35 36  1  0
 36 37  1  0
 37 38  2  0
 39 38  1  0
 39 43  1  0
 40 39  2  0
 41 36  2  0
 41 40  1  0
 42 41  1  0
 44 45  1  0
 45 48  1  0
 45 47  1  0
 46 44  2  0
 49 50  1  0
 49 24  1  0
 51 49  1  0
 53 54  1  0
 53 52  1  0
 55 66  2  0
 56 54  1  0
 56 61  1  0
 57 65  1  0
 57 67  1  0
 58 64  1  0
 58 60  1  0
 59 65  1  0
 60 59  1  0
 61 60  2  0
 62 63  1  0
 62 56  2  0
 63 58  2  0
 64 57  1  0
 65 55  1  0
 67 69  2  0
 68 67  1  0
 70 68  1  0
 71 80  2  0
 71 76  1  0
 72 68  1  0
 72 76  1  0
 73 72  1  0
 74 75  1  0
 74 73  1  0
 75 71  1  0
 76 77  2  0
 77 78  1  0
 79 78  2  0
 80 79  1  0
 81 55  1  0
 81 86  1  0
 81 82  1  0
 82 85  1  1
 82 83  1  0
 84 82  1  0
 86 89  1  0
 87 91  1  0
 87 86  1  0
 88 87  2  0
 91 90  1  0
 93 91  1  0
 93 94  1  0
 93 92  1  0
M  ISO  4  14 100  22 100  53 101  54 101
M  END
>  <TORSDO>  (66) 
F 20

>  <SCORE>  (66) 
-13.914

>  <name>  (66) 
65

>  <ligand_id>  (66) 
65

>  <original_smiles>  (66) 
[H]c1c([H])c([H])c2c(c1[H])C([H])([H])C([H])([H])C([H])([H])C2([H])N([H])C(=O)C1([H])N(C(=O)C([H])(N([H])C(=O)C([H])(N([H])C([H])([H])[H])C([H])([H])[H])C(C([H])([H])[H])(C([H])([H])[H])C([H])([H])[H])C([H])([H])c2c([H])c(OC([H])([H])C([H])([H])N([H])C(=O)C3([H])C([H])([H])C([H])([H])C([H])(C([H])([H])N([H])C(=O)N4C([H])([H])C([H])([H])C([H])([H])C([H])(n5nc(-c6c([H])c([H])c(Oc7c([H])c([H])c(F)c([H])c7F)c([H])c6[H])c(C(=O)N([H])[H])c5N([H])[H])C4([H])[H])[N+]([H])([H])C3([H])[H])c([H])c([H])c2C1([H])[H]

>  <smiles>  (66) 
[H]c1c([H])c([H])c2c(c1[H])C([H])([H])C([H])([H])C([H])([H])C2([H])N([H])C(=O)C1([H])N(C(=O)C([H])(N([H])C(=O)C([H])(N([H])C([H])([H])[H])C([H])([H])[H])C(C([H])([H])[H])(C([H])([H])[H])C([H])([H])[H])C([H])([H])c2c([H])c(OC([H])([H])C([H])([H])N([H])C(=O)C3([H])C([H])([H])C([H])([H])C([H])(C([H])([H])N([H])C(=O)N4C([H])([H])C([H])([H])C([H])([H])C([H])(n5nc(-c6c([H])c([H])c(Oc7c([H])c([H])c(F)c([H])c7F)c([H])c6[H])c(C(=O)N([H])[H])c5N([H])[H])C4([H])[H])[N+]([H])([H])C3([H])[H])c([H])c([H])c2C1([H])[H]

$$$$
66:0:0
     RDKit          3D

 93101  0  0  1  0  0  0  0  0999 V2000
  -29.6730  -21.7660   20.8190 C   0  0  0  0  0  2  0  0  0  0  0  0
  -31.8150  -18.7040   21.6870 C   0  0  0  0  0  2  0  0  0  0  0  0
  -29.4700  -17.9390   21.1820 C   0  0  0  0  0  2  0  0  0  0  0  0
  -31.4670  -20.0770   21.0840 C   0  0  0  0  0  2  0  0  0  0  0  0
  -29.1820  -19.3400   20.6020 C   0  0  0  0  0  2  0  0  0  0  0  0
  -30.9640  -17.5640   21.0970 C   0  0  0  0  0  3  0  0  0  0  0  0
  -30.0230  -20.3840   21.2430 N   0  0  2  0  0  4  0  0  0  0  0  0
  -29.8440  -20.3430   22.2340 H   0  0  0  0  0  0  0  0  0  0  0  0
  -31.2890  -16.2270   21.8070 C   0  0  0  0  0  2  0  0  0  0  0  0
  -30.8030  -14.3720   20.2310 C   0  0  0  0  0  0  0  0  0  0  0  0
  -30.3040  -12.3530   18.9110 C   0  0  0  0  0  2  0  0  0  0  0  0
  -29.3110  -12.6550   17.7760 C   0  0  0  0  0  2  0  0  0  0  0  0
  -27.8630  -12.5130   18.2780 C   0  0  0  0  0  2  0  0  0  0  0  0
  -27.6130  -13.3040   19.5870 C   0  0  0  0  0  3  0  0  0  0  0  0
  -28.7120  -13.0110   20.6330 C   0  0  0  0  0  2  0  0  0  0  0  0
  -30.0300  -13.2750   20.0220 N   0  0  0  0  0  0  0  0  0  0  0  0
  -31.7670  -14.6670   19.5190 O   0  0  0  0  0  0  0  0  0  0  0  0
  -30.5020  -15.0990   21.3130 N   0  0  0  0  0  0  0  0  0  0  0  0
  -29.7320  -14.7750   21.8830 H   0  0  0  0  0  0  0  0  0  0  0  0
  -25.2500  -13.9280   20.4020 C   0  0  0  0  0  0  0  0  0  0  0  0
  -24.1890  -13.1620   20.8090 C   0  0  0  0  0  0  0  0  0  0  0  0
  -24.6350  -11.8050   20.7460 C   0  0  0  0  0  0  0  0  0  0  0  0
  -26.2760  -13.0390   20.1200 N   0  0  0  0  0  0  0  0  0  0  0  0
  -25.9110  -11.7570   20.3820 N   0  0  0  0  0  0  0  0  0  0  0  0
  -23.9060  -10.5480   20.9550 C   0  0  0  0  0  0  0  0  0  0  0  0
  -24.3570   -9.5780   21.8780 C   0  0  0  0  0  3  0  0  0  0  0  0
  -23.6280   -8.3860   22.0760 C   0  0  0  0  0  3  0  0  0  0  0  0
  -22.4350   -8.1540   21.3510 C   0  0  0  0  0  0  0  0  0  0  0  0
  -22.0030   -9.1120   20.4170 C   0  0  0  0  0  3  0  0  0  0  0  0
  -22.7320  -10.2960   20.2170 C   0  0  0  0  0  3  0  0  0  0  0  0
  -21.6760   -7.0130   21.4570 O   0  0  0  0  0  0  0  0  0  0  0  0
  -21.6380   -6.2810   22.6160 C   0  0  0  0  0  0  0  0  0  0  0  0
  -21.2390   -6.8490   23.8450 C   0  0  0  0  0  3  0  0  0  0  0  0
  -21.1470   -6.0440   24.9970 C   0  0  0  0  0  3  0  0  0  0  0  0
  -21.4450   -4.6690   24.9210 C   0  0  0  0  0  0  0  0  0  0  0  0
  -21.8370   -4.1000   23.6960 C   0  0  0  0  0  3  0  0  0  0  0  0
  -21.9300   -4.9040   22.5470 C   0  0  0  0  0  0  0  0  0  0  0  0
  -22.2890   -4.3460   21.3650 F   0  0  0  0  0  0  0  0  0  0  0  0
  -21.3490   -3.8920   26.0250 F   0  0  0  0  0  0  0  0  0  0  0  0
  -22.8100  -13.6490   21.1490 C   0  0  0  0  0  0  0  0  0  0  0  0
  -22.1150  -12.9480   22.0370 N   0  0  0  0  0  0  0  0  0  0  0  0
  -22.3600  -14.6860   20.6620 O   0  0  0  0  0  0  0  0  0  0  0  0
  -22.4910  -12.1090   22.4500 H   0  0  0  0  0  0  0  0  0  0  0  0
  -21.1900  -13.2540   22.3050 H   0  0  0  0  0  0  0  0  0  0  0  0
  -25.4190  -15.2970   20.2300 N   0  0  0  0  0  0  0  0  0  0  0  0
  -24.6660  -15.9610   20.3780 H   0  0  0  0  0  0  0  0  0  0  0  0
  -26.2660  -15.7300   19.8810 H   0  0  0  0  0  0  0  0  0  0  0  0
  -28.5270  -22.3660   21.6620 C   0  0  0  0  0  2  0  0  0  0  0  0
  -28.1520  -23.8170   21.2950 C   0  0  0  0  0  3  0  0  0  0  0  0
  -27.6750  -23.8400   20.0500 F   0  0  0  0  0  0  0  0  0  0  0  0
  -29.3060  -24.8320   21.4370 C   0  0  0  0  0  2  0  0  0  0  0  0
  -28.8510  -26.3020   21.4520 C   0  0  0  0  0  2  0  0  0  0  0  0
  -28.3660  -26.6760   20.1680 O   0  0  0  0  0  0  0  0  0  0  0  0
  -24.5460  -31.8590   23.2280 C   0  0  0  0  0  0  0  0  0  0  0  0
  -27.2200  -27.4280   20.1920 C   0  0  0  0  0  0  0  0  0  0  0  0
  -23.3560  -30.4490   21.5790 C   0  0  0  0  0  3  0  0  0  0  0  0
  -24.8240  -28.9090   20.1760 C   0  0  0  0  0  0  0  0  0  0  0  0
  -25.8780  -30.8160   21.4030 C   0  0  0  0  0  2  0  0  0  0  0  0
  -25.9710  -29.4400   20.7800 C   0  0  0  0  0  0  0  0  0  0  0  0
  -27.1740  -28.7030   20.7960 C   0  0  0  0  0  3  0  0  0  0  0  0
  -26.0680  -26.9070   19.5770 C   0  0  0  0  0  3  0  0  0  0  0  0
  -24.8640  -27.6380   19.5750 C   0  0  0  0  0  3  0  0  0  0  0  0
  -23.5800  -29.7660   20.2040 C   0  0  0  0  0  2  0  0  0  0  0  0
  -24.6110  -31.0560   22.1290 N   0  0  0  0  0  0  0  0  0  0  0  0
  -23.4600  -32.1310   23.7580 O   0  0  0  0  0  0  0  0  0  0  0  0
  -22.6950  -29.4300   22.5360 C   0  0  0  0  0  0  0  0  0  0  0  0
  -21.3730  -29.2480   22.3980 N   0  0  0  0  0  0  0  0  0  0  0  0
  -23.3700  -28.8050   23.3580 O   0  0  0  0  0  0  0  0  0  0  0  0
  -20.8890  -29.8000   21.7030 H   0  0  0  0  0  0  0  0  0  0  0  0
  -17.9880  -28.0820   22.8770 C   0  0  0  0  0  0  0  0  0  0  0  0
  -20.5460  -28.3160   23.1650 C   0  0  0  0  0  3  0  0  0  0  0  0
  -20.6420  -26.8860   22.5890 C   0  0  0  0  0  2  0  0  0  0  0  0
  -19.5440  -26.5750   21.5690 C   0  0  0  0  0  2  0  0  0  0  0  0
  -18.1580  -26.7330   22.2010 C   0  0  0  0  0  2  0  0  0  0  0  0
  -19.1110  -28.8320   23.3160 C   0  0  0  0  0  0  0  0  0  0  0  0
  -18.8980  -30.0980   23.9070 C   0  0  0  0  0  3  0  0  0  0  0  0
  -17.5970  -30.6100   24.0650 C   0  0  0  0  0  3  0  0  0  0  0  0
  -16.4880  -29.8530   23.6470 C   0  0  0  0  0  3  0  0  0  0  0  0
  -16.6860  -28.5920   23.0560 C   0  0  0  0  0  3  0  0  0  0  0  0
  -25.8270  -32.4910   23.8580 C   0  0  0  0  0  3  0  0  0  0  0  0
  -25.5190  -33.8900   24.1820 N   0  0  0  0  0  0  0  0  0  0  0  0
  -25.8580  -34.9400   23.4200 C   0  0  0  0  0  0  0  0  0  0  0  0
  -26.5390  -34.8320   22.3980 O   0  0  0  0  0  0  0  0  0  0  0  0
  -24.9190  -34.0490   24.9780 H   0  0  0  0  0  0  0  0  0  0  0  0
  -24.1350  -36.7310   23.0310 C   0  0  0  0  0  1  0  0  0  0  0  0
  -25.3630  -36.3290   23.8650 C   0  0  0  0  0  3  0  0  0  0  0  0
  -27.4880  -37.2080   24.7280 C   0  0  0  0  0  1  0  0  0  0  0  0
  -26.3970  -37.3830   23.7700 N   0  0  0  0  0  0  0  0  0  0  0  0
  -25.9900  -38.3020   23.9210 H   0  0  0  0  0  0  0  0  0  0  0  0
  -26.3360  -31.7180   25.1360 C   0  0  1  0  0  0  0  0  0  0  0  0
  -25.2330  -31.4770   26.1930 C   0  0  0  0  0  1  0  0  0  0  0  0
  -26.9170  -30.3390   24.7440 C   0  0  0  0  0  1  0  0  0  0  0  0
  -27.4850  -32.5090   25.8040 C   0  0  0  0  0  1  0  0  0  0  0  0
  1  7  1  0
  1 48  1  0
  4  7  1  0
  4  2  1  0
  5  3  1  0
  5  7  1  0
  6  3  1  0
  6  2  1  0
  6  9  1  0
  7  8  1  1
 10 18  1  0
 11 16  1  0
 12 13  1  0
 12 11  1  0
 14 13  1  0
 14 23  1  0
 14 15  1  0
 16 10  1  0
 16 15  1  0
 17 10  2  0
 18  9  1  0
 18 19  1  0
 20 21  2  0
 21 40  1  0
 22 21  1  0
 22 25  1  0
 23 24  1  0
 23 20  1  0
 24 22  2  0
 25 26  1  0
 26 27  2  0
 28 31  1  0
 28 27  1  0
 29 28  2  0
 30 29  1  0
 30 25  2  0
 31 32  1  0
 32 33  1  0
 33 34  2  0
 35 34  1  0
 35 39  1  0
 36 35  2  0
 37 32  2  0
 37 36  1  0
 38 37  1  0
 40 41  1  0
 41 44  1  0
 41 43  1  0
 42 40  2  0
 45 46  1  0
 45 20  1  0
 47 45  1  0
 49 50  1  0
 49 51  1  0
 49 48  1  0
 51 52  1  0
 53 55  1  0
 53 52  1  0
 54 65  2  0
 55 60  1  0
 56 64  1  0
 56 66  1  0
 57 63  1  0
 57 59  1  0
 58 64  1  0
 59 60  2  0
 59 58  1  0
 61 55  2  0
 62 61  1  0
 62 57  2  0
 63 56  1  0
 64 54  1  0
 66 68  2  0
 67 66  1  0
 69 67  1  0
 70 79  2  0
 70 75  1  0
 71 67  1  0
 71 75  1  0
 72 71  1  0
 73 74  1  0
 73 72  1  0
 74 70  1  0
 75 76  2  0
 76 77  1  0
 78 77  2  0
 79 78  1  0
 80 54  1  0
 80 81  1  0
 80 90  1  0
 81 84  1  0
 82 86  1  0
 82 81  1  0
 83 82  2  0
 86 85  1  0
 88 86  1  0
 88 89  1  0
 88 87  1  0
 90 93  1  1
 90 91  1  0
 92 90  1  0
M  ISO  4  10 100  18 100  52 101  53 101
M  END
>  <TORSDO>  (67) 
F 22

>  <SCORE>  (67) 
-13.242

>  <name>  (67) 
66

>  <ligand_id>  (67) 
66

>  <original_smiles>  (67) 
[H]c1c([H])c([H])c2c(c1[H])C([H])([H])C([H])([H])C([H])([H])C2([H])N([H])C(=O)C1([H])N(C(=O)C([H])(N([H])C(=O)C([H])(N([H])C([H])([H])[H])C([H])([H])[H])C(C([H])([H])[H])(C([H])([H])[H])C([H])([H])[H])C([H])([H])c2c([H])c(OC([H])([H])C([H])([H])C([H])(F)C([H])([H])C([H])([H])[N+]3([H])C([H])([H])C([H])([H])C([H])(C([H])([H])N([H])C(=O)N4C([H])([H])C([H])([H])C([H])([H])C([H])(n5nc(-c6c([H])c([H])c(Oc7c([H])c([H])c(F)c([H])c7F)c([H])c6[H])c(C(=O)N([H])[H])c5N([H])[H])C4([H])[H])C([H])([H])C3([H])[H])c([H])c([H])c2C1([H])[H]

>  <smiles>  (67) 
[H]c1c([H])c([H])c2c(c1[H])C([H])([H])C([H])([H])C([H])([H])C2([H])N([H])C(=O)C1([H])N(C(=O)C([H])(N([H])C(=O)C([H])(N([H])C([H])([H])[H])C([H])([H])[H])C(C([H])([H])[H])(C([H])([H])[H])C([H])([H])[H])C([H])([H])c2c([H])c(OC([H])([H])C([H])([H])C([H])(F)C([H])([H])C([H])([H])[N+]3([H])C([H])([H])C([H])([H])C([H])(C([H])([H])N([H])C(=O)N4C([H])([H])C([H])([H])C([H])([H])C([H])(n5nc(-c6c([H])c([H])c(Oc7c([H])c([H])c(F)c([H])c7F)c([H])c6[H])c(C(=O)N([H])[H])c5N([H])[H])C4([H])[H])C([H])([H])C3([H])[H])c([H])c([H])c2C1([H])[H]

$$$$
67:0:0
     RDKit          3D

 95100  0  0  1  0  0  0  0  0999 V2000
  -28.6790  -18.3450   19.3260 N   0  0  0  0  0  4  0  0  0  0  0  0
  -28.4110  -18.3480   18.3550 H   0  0  0  0  0  0  0  0  0  0  0  0
  -27.8350  -18.5000   19.8530 H   0  0  0  0  0  0  0  0  0  0  0  0
  -29.5860  -19.6090   19.5300 C   0  0  0  0  0  3  0  0  0  0  0  0
  -28.9500  -21.1460   19.4810 C   0  0  0  0  0  3  0  0  0  0  0  0
  -29.7970  -22.5730   19.6550 C   0  0  0  0  0  3  0  0  0  0  0  0
  -28.9820  -23.9950   19.8300 C   0  0  0  0  0  3  0  0  0  0  0  0
  -29.3910  -25.4510   20.1860 O   0  0  0  0  0  0  0  0  0  0  0  0
  -25.0600  -30.4930   23.5630 C   0  0  0  0  0  0  0  0  0  0  0  0
  -28.3300  -26.4180   20.2390 C   0  0  0  0  0  0  0  0  0  0  0  0
  -24.2200  -29.3080   21.5870 C   0  0  0  0  0  3  0  0  0  0  0  0
  -25.9470  -28.0520   20.2060 C   0  0  0  0  0  0  0  0  0  0  0  0
  -26.7580  -29.6840   21.8820 C   0  0  0  0  0  2  0  0  0  0  0  0
  -27.0090  -28.4220   21.0400 C   0  0  0  0  0  0  0  0  0  0  0  0
  -28.2130  -27.6160   21.0570 C   0  0  0  0  0  3  0  0  0  0  0  0
  -27.2160  -26.1640   19.4100 C   0  0  0  0  0  3  0  0  0  0  0  0
  -26.0560  -26.9290   19.3980 C   0  0  0  0  0  3  0  0  0  0  0  0
  -24.6870  -28.8860   20.1810 C   0  0  0  0  0  2  0  0  0  0  0  0
  -25.3580  -29.8410   22.4010 N   0  0  0  0  0  0  0  0  0  0  0  0
  -23.8870  -30.6510   23.9360 O   0  0  0  0  0  0  0  0  0  0  0  0
  -23.4800  -28.1250   22.2610 C   0  0  0  0  0  0  0  0  0  0  0  0
  -22.2150  -27.8940   21.8690 N   0  0  0  0  0  0  0  0  0  0  0  0
  -24.0500  -27.4290   23.1060 O   0  0  0  0  0  0  0  0  0  0  0  0
  -21.8150  -28.5100   21.1740 H   0  0  0  0  0  0  0  0  0  0  0  0
  -18.9550  -26.3650   21.4840 C   0  0  0  0  0  0  0  0  0  0  0  0
  -21.3470  -26.8180   22.3540 C   0  0  0  0  0  3  0  0  0  0  0  0
  -21.7280  -25.4650   21.7080 C   0  0  0  0  0  2  0  0  0  0  0  0
  -20.9190  -25.1480   20.4470 C   0  0  0  0  0  2  0  0  0  0  0  0
  -19.4200  -25.1100   20.7650 C   0  0  0  0  0  2  0  0  0  0  0  0
  -19.8620  -27.1760   22.2160 C   0  0  0  0  0  0  0  0  0  0  0  0
  -19.3830  -28.3480   22.8380 C   0  0  0  0  0  3  0  0  0  0  0  0
  -18.0280  -28.7140   22.7400 C   0  0  0  0  0  3  0  0  0  0  0  0
  -17.1310  -27.9000   22.0270 C   0  0  0  0  0  3  0  0  0  0  0  0
  -17.5930  -26.7270   21.4060 C   0  0  0  0  0  3  0  0  0  0  0  0
  -26.1780  -31.0870   24.4690 C   0  0  0  0  0  3  0  0  0  0  0  0
  -25.8780  -32.5140   24.6660 N   0  0  0  0  0  0  0  0  0  0  0  0
  -26.6060  -33.5220   24.1680 C   0  0  0  0  0  0  0  0  0  0  0  0
  -27.6550  -33.3440   23.5420 O   0  0  0  0  0  0  0  0  0  0  0  0
  -25.0070  -32.7330   25.1240 H   0  0  0  0  0  0  0  0  0  0  0  0
  -25.4140  -35.4760   23.1240 C   0  0  0  0  0  1  0  0  0  0  0  0
  -26.0900  -34.9560   24.4020 C   0  0  0  0  0  3  0  0  0  0  0  0
  -27.6610  -35.6260   26.1660 C   0  0  0  0  0  1  0  0  0  0  0  0
  -27.1470  -35.9010   24.8270 N   0  0  0  0  0  0  0  0  0  0  0  0
  -26.8040  -36.8570   24.8090 H   0  0  0  0  0  0  0  0  0  0  0  0
  -26.2990  -30.3550   25.8620 C   0  0  1  0  0  0  0  0  0  0  0  0
  -24.9590  -30.2500   26.6280 C   0  0  0  0  0  1  0  0  0  0  0  0
  -26.8490  -28.9220   25.6850 C   0  0  0  0  0  1  0  0  0  0  0  0
  -27.3110  -31.1050   26.7600 C   0  0  0  0  0  1  0  0  0  0  0  0
  -29.1500  -16.8820   19.6480 C   0  0  0  0  0  2  0  0  0  0  0  0
  -28.1460  -15.5860   19.3540 C   0  0  0  0  0  2  0  0  0  0  0  0
  -29.6770  -12.3710   17.6380 C   0  0  0  0  0  2  0  0  0  0  0  0
  -29.7880  -13.8530   18.1500 C   0  0  0  0  0  2  0  0  0  0  0  0
  -27.7320  -12.9120   18.8380 C   0  0  0  0  0  2  0  0  0  0  0  0
  -28.6530  -11.5970   18.5130 C   0  0  0  0  0  3  0  0  0  0  0  0
  -28.4530  -14.2350   18.6440 N   0  0  0  0  0  0  0  0  0  0  0  0
  -30.9760  -10.4840   21.7640 C   0  0  2  0  0  0  0  0  0  0  0  0
  -32.1210   -9.9760   20.7780 C   0  0  0  0  0  1  0  0  0  0  0  0
  -31.5740  -11.5460   19.7890 C   0  0  0  0  0  1  0  0  0  0  0  0
  -30.1180  -12.4670   20.5620 C   0  0  0  0  0  2  0  0  0  0  0  0
  -29.0160  -11.8220   21.9020 C   0  0  0  0  0  2  0  0  0  0  0  0
  -29.7600  -10.4160   22.8400 C   0  0  0  0  0  1  0  0  0  0  0  0
  -31.1540   -9.5950   22.2010 N   0  0  0  0  0  1  0  0  0  0  0  0
  -31.7330  -11.5150   22.3270 O   0  0  0  0  0  1  0  0  0  0  0  0
  -29.1130  -10.2070   19.3960 C   0  0  0  0  0  0  0  0  0  0  0  0
  -29.8820   -9.9030   20.6010 N   0  0  0  0  0  2  0  0  0  0  0  0
  -28.6930   -9.1750   18.8620 O   0  0  0  0  0  0  0  0  0  0  0  0
  -29.7930   -8.9180   20.7730 H   0  0  0  0  0  0  0  0  0  0  0  0
  -26.5810  -12.5380   21.5160 C   0  0  0  0  0  0  0  0  0  0  0  0
  -25.3430  -11.9580   21.5290 C   0  0  0  0  0  0  0  0  0  0  0  0
  -25.5440  -10.5510   21.6580 C   0  0  0  0  0  0  0  0  0  0  0  0
  -27.5260  -11.5490   21.6860 N   0  0  0  0  0  0  0  0  0  0  0  0
  -26.8710  -10.3220   21.7860 N   0  0  0  0  0  0  0  0  0  0  0  0
  -24.5160   -9.4660   21.6630 C   0  0  0  0  0  0  0  0  0  0  0  0
  -24.3380   -8.5880   22.7610 C   0  0  0  0  0  3  0  0  0  0  0  0
  -23.3120   -7.6090   22.7640 C   0  0  0  0  0  3  0  0  0  0  0  0
  -22.4290   -7.4940   21.6640 C   0  0  0  0  0  0  0  0  0  0  0  0
  -22.6090   -8.3550   20.5650 C   0  0  0  0  0  3  0  0  0  0  0  0
  -23.6340   -9.3250   20.5640 C   0  0  0  0  0  3  0  0  0  0  0  0
  -21.4300   -6.5480   21.5630 O   0  0  0  0  0  0  0  0  0  0  0  0
  -20.7240   -6.1100   22.6580 C   0  0  0  0  0  0  0  0  0  0  0  0
  -19.9490   -6.9920   23.4430 C   0  0  0  0  0  3  0  0  0  0  0  0
  -19.1850   -6.4950   24.5190 C   0  0  0  0  0  3  0  0  0  0  0  0
  -19.1840   -5.1170   24.8060 C   0  0  0  0  0  0  0  0  0  0  0  0
  -19.9480   -4.2350   24.0240 C   0  0  0  0  0  3  0  0  0  0  0  0
  -20.7130   -4.7290   22.9510 C   0  0  0  0  0  0  0  0  0  0  0  0
  -21.4280   -3.8690   22.1860 F   0  0  0  0  0  0  0  0  0  0  0  0
  -18.4470   -4.6390   25.8360 F   0  0  0  0  0  0  0  0  0  0  0  0
  -24.0490  -12.7080   21.3980 C   0  0  0  0  0  0  0  0  0  0  0  0
  -23.0130  -12.2870   22.1120 N   0  0  0  0  0  0  0  0  0  0  0  0
  -23.9730  -13.7270   20.7140 O   0  0  0  0  0  0  0  0  0  0  0  0
  -23.0820  -11.4710   22.7020 H   0  0  0  0  0  0  0  0  0  0  0  0
  -22.1410  -12.7970   22.0790 H   0  0  0  0  0  0  0  0  0  0  0  0
  -26.9980  -13.8570   21.3990 N   0  0  0  0  0  0  0  0  0  0  0  0
  -26.3290  -14.6180   21.3340 H   0  0  0  0  0  0  0  0  0  0  0  0
  -27.9470  -14.1730   21.5350 H   0  0  0  0  0  0  0  0  0  0  0  0
  1  4  1  0
  1 49  1  0
  1  3  1  0
  2  1  1  0
  5  4  2  0
  5  6  1  0
  6  7  2  0
  7  8  1  0
  8 10  1  0
  9 20  2  0
 10 15  1  0
 11 21  1  0
 11 19  1  0
 12 14  1  0
 13 19  1  0
 14 15  2  0
 14 13  1  0
 16 10  2  0
 17 16  1  0
 17 12  2  0
 18 12  1  0
 18 11  1  0
 19  9  1  0
 21 23  2  0
 22 21  1  0
 24 22  1  0
 25 30  1  0
 26 22  1  0
 27 26  1  0
 28 29  1  0
 28 27  1  0
 29 25  1  0
 30 26  1  0
 30 31  2  0
 32 31  1  0
 33 32  2  0
 34 25  2  0
 34 33  1  0
 35  9  1  0
 35 36  1  0
 35 45  1  0
 36 39  1  0
 37 41  1  0
 37 36  1  0
 38 37  2  0
 41 40  1  0
 41 43  1  0
 43 42  1  0
 44 43  1  0
 45 46  1  1
 45 48  1  0
 47 45  1  0
 50 49  1  0
 51 52  1  0
 51 54  1  0
 52 55  1  0
 54 53  1  0
 54 64  1  0
 55 53  1  0
 55 50  1  0
 56 62  1  0
 56 63  1  0
 56 61  1  6
 57 56  1  0
 58 59  1  0
 59 60  1  0
 64 65  1  0
 65 67  1  0
 66 64  2  0
 68 69  2  0
 68 71  1  0
 69 70  1  0
 70 73  1  0
 70 72  2  0
 71 72  1  0
 71 60  1  0
 73 74  1  0
 74 75  2  0
 76 75  1  0
 77 76  2  0
 78 77  1  0
 78 73  2  0
 79 76  1  0
 79 80  1  0
 80 85  2  0
 80 81  1  0
 81 82  2  0
 82 83  1  0
 83 87  1  0
 84 83  2  0
 85 84  1  0
 86 85  1  0
 88 69  1  0
 88 89  1  0
 89 91  1  0
 90 88  2  0
 92 89  1  0
 93 68  1  0
 93 95  1  0
 94 93  1  0
M  ISO  4   7 101   8 101  56 100  65 100
M  END
>  <TORSDO>  (68) 
F 23

>  <SCORE>  (68) 
-8.370

>  <name>  (68) 
67

>  <ligand_id>  (68) 
67

>  <original_smiles>  (68) 
[H]c1c([H])c([H])c2c(c1[H])C([H])([H])C([H])([H])C([H])([H])C2([H])N([H])C(=O)C1([H])N(C(=O)C([H])(N([H])C(=O)C([H])(N([H])C([H])([H])[H])C([H])([H])[H])C(C([H])([H])[H])(C([H])([H])[H])C([H])([H])[H])C([H])([H])c2c([H])c(OC([H])([H])C([H])([H])C([H])([H])C([H])([H])[N+]([H])([H])C([H])([H])C([H])([H])N3C([H])([H])C([H])([H])C([H])(C(=O)N([H])C(=O)N4C([H])([H])C([H])([H])C([H])([H])C([H])(n5nc(-c6c([H])c([H])c(Oc7c([H])c([H])c(F)c([H])c7F)c([H])c6[H])c(C(=O)N([H])[H])c5N([H])[H])C4([H])[H])C3([H])[H])c([H])c([H])c2C1([H])[H]

>  <smiles>  (68) 
[H]c1c([H])c([H])c2c(c1[H])C([H])([H])C([H])([H])C([H])([H])C2([H])N([H])C(=O)C1([H])N(C(=O)C([H])(N([H])C(=O)C([H])(N([H])C([H])([H])[H])C([H])([H])[H])C(C([H])([H])[H])(C([H])([H])[H])C([H])([H])[H])C([H])([H])c2c([H])c(OC([H])([H])C([H])([H])C([H])([H])C([H])([H])[N+]([H])([H])C([H])([H])C([H])([H])N3C([H])([H])C([H])([H])C([H])(C(=O)N([H])C(=O)N4C([H])([H])C([H])([H])C([H])([H])C([H])(n5nc(-c6c([H])c([H])c(Oc7c([H])c([H])c(F)c([H])c7F)c([H])c6[H])c(C(=O)N([H])[H])c5N([H])[H])C4([H])[H])C3([H])[H])c([H])c([H])c2C1([H])[H]

$$$$
68:0:0
     RDKit          3D

 96104  0  0  1  0  0  0  0  0999 V2000
  -31.6540  -19.9210   21.3000 C   0  0  0  0  0  2  0  0  0  0  0  0
  -29.1800  -19.3380   21.2700 C   0  0  0  0  0  2  0  0  0  0  0  0
  -31.0980  -21.1320   20.5200 C   0  0  0  0  0  2  0  0  0  0  0  0
  -28.8450  -20.8250   21.5450 C   0  0  0  0  0  2  0  0  0  0  0  0
  -30.5670  -18.9410   21.8110 C   0  0  0  0  0  3  0  0  0  0  0  0
  -29.9470  -21.7790   21.2070 N   0  0  2  0  0  4  0  0  0  0  0  0
  -30.2910  -22.1050   22.1010 H   0  0  0  0  0  0  0  0  0  0  0  0
  -30.8840  -17.5240   21.4960 N   0  0  0  0  0  4  0  0  0  0  0  0
  -30.5110  -17.2760   20.5930 H   0  0  0  0  0  0  0  0  0  0  0  0
  -30.4260  -16.9380   22.1780 H   0  0  0  0  0  0  0  0  0  0  0  0
  -32.3190  -17.1590   21.5140 C   0  0  0  0  0  2  0  0  0  0  0  0
  -32.7040  -16.2840   20.3070 C   0  0  0  0  0  2  0  0  0  0  0  0
  -31.9130  -14.2290   19.1620 C   0  0  0  0  0  0  0  0  0  0  0  0
  -31.3950  -11.8900   18.5770 C   0  0  0  0  0  2  0  0  0  0  0  0
  -30.2730  -11.7560   17.5330 C   0  0  0  0  0  2  0  0  0  0  0  0
  -28.8930  -11.7610   18.2110 C   0  0  0  0  0  2  0  0  0  0  0  0
  -28.7230  -12.9430   19.1990 C   0  0  0  0  0  3  0  0  0  0  0  0
  -29.9300  -13.0370   20.1580 C   0  0  0  0  0  2  0  0  0  0  0  0
  -31.1700  -13.1130   19.3600 N   0  0  0  0  0  0  0  0  0  0  0  0
  -32.7230  -14.3630   18.2400 O   0  0  0  0  0  0  0  0  0  0  0  0
  -31.8190  -15.1290   20.1480 N   0  0  0  0  0  0  0  0  0  0  0  0
  -31.2300  -14.8580   20.9230 H   0  0  0  0  0  0  0  0  0  0  0  0
  -26.7250  -13.8450   20.5530 C   0  0  0  0  0  0  0  0  0  0  0  0
  -25.5910  -13.2370   21.0230 C   0  0  0  0  0  0  0  0  0  0  0  0
  -25.6930  -11.8640   20.6430 C   0  0  0  0  0  0  0  0  0  0  0  0
  -27.4600  -12.8480   19.9290 N   0  0  0  0  0  0  0  0  0  0  0  0
  -26.8500  -11.6390   20.0340 N   0  0  0  0  0  0  0  0  0  0  0  0
  -24.7310  -10.7610   20.7740 C   0  0  0  0  0  0  0  0  0  0  0  0
  -25.0120   -9.6270   21.5670 C   0  0  0  0  0  3  0  0  0  0  0  0
  -24.0640   -8.5880   21.6940 C   0  0  0  0  0  3  0  0  0  0  0  0
  -22.8200   -8.6780   21.0240 C   0  0  0  0  0  0  0  0  0  0  0  0
  -22.5550   -9.7990   20.2180 C   0  0  0  0  0  3  0  0  0  0  0  0
  -23.5010  -10.8300   20.0900 C   0  0  0  0  0  3  0  0  0  0  0  0
  -21.8500   -7.7060   21.0660 O   0  0  0  0  0  0  0  0  0  0  0  0
  -21.5630   -7.0250   22.2210 C   0  0  0  0  0  0  0  0  0  0  0  0
  -21.1180   -7.6870   23.3860 C   0  0  0  0  0  3  0  0  0  0  0  0
  -20.7680   -6.9420   24.5290 C   0  0  0  0  0  3  0  0  0  0  0  0
  -20.8540   -5.5370   24.5080 C   0  0  0  0  0  0  0  0  0  0  0  0
  -21.2900   -4.8760   23.3470 C   0  0  0  0  0  3  0  0  0  0  0  0
  -21.6410   -5.6170   22.2060 C   0  0  0  0  0  0  0  0  0  0  0  0
  -22.0420   -4.9740   21.0840 F   0  0  0  0  0  0  0  0  0  0  0  0
  -20.5090   -4.8200   25.6040 F   0  0  0  0  0  0  0  0  0  0  0  0
  -24.4330  -13.9070   21.7040 C   0  0  0  0  0  0  0  0  0  0  0  0
  -23.7590  -13.2020   22.6060 N   0  0  0  0  0  0  0  0  0  0  0  0
  -24.1480  -15.0820   21.4730 O   0  0  0  0  0  0  0  0  0  0  0  0
  -24.0050  -12.2440   22.8100 H   0  0  0  0  0  0  0  0  0  0  0  0
  -22.9850  -13.6250   23.0990 H   0  0  0  0  0  0  0  0  0  0  0  0
  -27.1810  -15.1590   20.5900 N   0  0  0  0  0  0  0  0  0  0  0  0
  -26.6180  -15.9080   20.9770 H   0  0  0  0  0  0  0  0  0  0  0  0
  -28.0100  -15.4890   20.1120 H   0  0  0  0  0  0  0  0  0  0  0  0
  -29.4580  -23.0010   20.5030 C   0  0  0  0  0  2  0  0  0  0  0  0
  -30.3050  -24.2600   20.7980 C   0  0  0  0  0  2  0  0  0  0  0  0
  -29.7840  -25.5280   20.0930 C   0  0  0  0  0  3  0  0  0  0  0  0
  -30.1100  -25.4300   18.8010 F   0  0  0  0  0  0  0  0  0  0  0  0
  -30.3940  -26.8210   20.6790 C   0  0  0  0  0  2  0  0  0  0  0  0
  -30.0070  -27.9940   19.9670 O   0  0  0  0  0  0  0  0  0  0  0  0
  -24.8030  -31.2680   23.5760 C   0  0  0  0  0  0  0  0  0  0  0  0
  -28.6860  -28.3420   20.0600 C   0  0  0  0  0  0  0  0  0  0  0  0
  -24.0960  -29.9200   21.6250 C   0  0  0  0  0  3  0  0  0  0  0  0
  -25.9750  -29.1060   20.1060 C   0  0  0  0  0  0  0  0  0  0  0  0
  -26.4250  -30.9700   21.7100 C   0  0  0  0  0  2  0  0  0  0  0  0
  -26.9130  -29.8060   20.8760 C   0  0  0  0  0  0  0  0  0  0  0  0
  -28.2720  -29.4270   20.8600 C   0  0  0  0  0  3  0  0  0  0  0  0
  -27.7370  -27.6460   19.2840 C   0  0  0  0  0  3  0  0  0  0  0  0
  -26.3800  -28.0180   19.3110 C   0  0  0  0  0  3  0  0  0  0  0  0
  -24.5400  -29.5800   20.1780 C   0  0  0  0  0  2  0  0  0  0  0  0
  -25.1200  -30.7270   22.3670 N   0  0  0  0  0  0  0  0  0  0  0  0
  -23.6670  -31.1420   24.0560 O   0  0  0  0  0  0  0  0  0  0  0  0
  -23.7170  -28.6050   22.3430 C   0  0  0  0  0  0  0  0  0  0  0  0
  -22.5200  -28.0800   22.0320 N   0  0  0  0  0  0  0  0  0  0  0  0
  -24.4980  -28.0670   23.1300 O   0  0  0  0  0  0  0  0  0  0  0  0
  -21.9350  -28.5870   21.3830 H   0  0  0  0  0  0  0  0  0  0  0  0
  -19.6440  -25.8990   21.9110 C   0  0  0  0  0  0  0  0  0  0  0  0
  -21.9670  -26.8310   22.5520 C   0  0  0  0  0  3  0  0  0  0  0  0
  -22.5510  -25.6100   21.8040 C   0  0  0  0  0  2  0  0  0  0  0  0
  -21.6910  -25.1600   20.6200 C   0  0  0  0  0  2  0  0  0  0  0  0
  -20.2790  -24.7920   21.0880 C   0  0  0  0  0  2  0  0  0  0  0  0
  -20.4360  -26.8660   22.5850 C   0  0  0  0  0  0  0  0  0  0  0  0
  -19.7940  -27.8960   23.3060 C   0  0  0  0  0  3  0  0  0  0  0  0
  -18.3900  -27.9660   23.3650 C   0  0  0  0  0  3  0  0  0  0  0  0
  -17.6100  -26.9970   22.7100 C   0  0  0  0  0  3  0  0  0  0  0  0
  -18.2370  -25.9650   21.9890 C   0  0  0  0  0  3  0  0  0  0  0  0
  -25.8390  -32.0910   24.4030 C   0  0  0  0  0  3  0  0  0  0  0  0
  -25.3240  -33.4610   24.5210 N   0  0  0  0  0  0  0  0  0  0  0  0
  -25.6940  -34.4810   23.7360 C   0  0  0  0  0  0  0  0  0  0  0  0
  -26.5690  -34.3790   22.8720 O   0  0  0  0  0  0  0  0  0  0  0  0
  -24.5660  -33.6070   25.1710 H   0  0  0  0  0  0  0  0  0  0  0  0
  -23.8700  -35.9900   22.8880 C   0  0  0  0  0  1  0  0  0  0  0  0
  -24.9770  -35.8280   23.9420 C   0  0  0  0  0  3  0  0  0  0  0  0
  -26.8130  -37.0480   25.0200 C   0  0  0  0  0  1  0  0  0  0  0  0
  -25.8880  -36.9920   23.8910 N   0  0  0  0  0  0  0  0  0  0  0  0
  -25.3630  -37.8620   23.8700 H   0  0  0  0  0  0  0  0  0  0  0  0
  -26.1240  -31.4780   25.8290 C   0  0  1  0  0  0  0  0  0  0  0  0
  -24.8430  -31.1900   26.6480 C   0  0  0  0  0  1  0  0  0  0  0  0
  -26.9150  -30.1550   25.7020 C   0  0  0  0  0  1  0  0  0  0  0  0
  -27.0080  -32.4460   26.6500 C   0  0  0  0  0  1  0  0  0  0  0  0
  1  5  1  0
  2  4  1  0
  2  5  1  0
  3  6  1  0
  3  1  1  0
  5  8  1  0
  6  4  1  0
  6  7  1  1
  8 11  1  0
  8 10  1  0
  9  8  1  0
 12 11  1  0
 13 19  1  0
 13 21  1  0
 14 19  1  0
 15 16  1  0
 15 14  1  0
 17 16  1  0
 17 26  1  0
 17 18  1  0
 19 18  1  0
 20 13  2  0
 21 12  1  0
 21 22  1  0
 23 48  1  0
 23 24  2  0
 24 43  1  0
 25 28  1  0
 25 24  1  0
 26 27  1  0
 26 23  1  0
 27 25  2  0
 28 29  1  0
 29 30  2  0
 31 34  1  0
 31 30  1  0
 32 31  2  0
 33 32  1  0
 33 28  2  0
 34 35  1  0
 35 36  1  0
 36 37  2  0
 38 37  1  0
 38 42  1  0
 39 38  2  0
 40 35  2  0
 40 39  1  0
 41 40  1  0
 43 44  1  0
 44 46  1  0
 44 47  1  0
 45 43  2  0
 48 49  1  0
 50 48  1  0
 51 52  1  0
 51  6  1  0
 53 54  1  0
 53 55  1  0
 53 52  1  0
 56 58  1  0
 56 55  1  0
 57 68  2  0
 58 63  1  0
 59 69  1  0
 59 67  1  0
 60 66  1  0
 60 62  1  0
 61 67  1  0
 62 61  1  0
 63 62  2  0
 64 65  1  0
 64 58  2  0
 65 60  2  0
 66 59  1  0
 67 57  1  0
 69 71  2  0
 70 69  1  0
 72 70  1  0
 73 82  2  0
 73 78  1  0
 74 70  1  0
 74 78  1  0
 75 74  1  0
 76 77  1  0
 76 75  1  0
 77 73  1  0
 78 79  2  0
 79 80  1  0
 81 80  2  0
 82 81  1  0
 83 57  1  0
 83 84  1  0
 83 93  1  0
 84 87  1  0
 85 89  1  0
 85 84  1  0
 86 85  2  0
 89 88  1  0
 91 89  1  0
 91 90  1  0
 92 91  1  0
 93 94  1  1
 93 96  1  0
 95 93  1  0
M  ISO  4  13 100  21 100  55 101  56 101
M  END
>  <TORSDO>  (69) 
F 23

>  <SCORE>  (69) 
-5.671

>  <name>  (69) 
68

>  <ligand_id>  (69) 
68

>  <original_smiles>  (69) 
[H]c1c([H])c([H])c2c(c1[H])C([H])([H])C([H])([H])C([H])([H])C2([H])N([H])C(=O)C1([H])N(C(=O)C([H])(N([H])C(=O)C([H])(N([H])C([H])([H])[H])C([H])([H])[H])C(C([H])([H])[H])(C([H])([H])[H])C([H])([H])[H])C([H])([H])c2c([H])c(OC([H])([H])C([H])(F)C([H])([H])C([H])([H])[N+]3([H])C([H])([H])C([H])([H])C([H])([N+]([H])([H])C([H])([H])C([H])([H])N([H])C(=O)N4C([H])([H])C([H])([H])C([H])([H])C([H])(n5nc(-c6c([H])c([H])c(Oc7c([H])c([H])c(F)c([H])c7F)c([H])c6[H])c(C(=O)N([H])[H])c5N([H])[H])C4([H])[H])C([H])([H])C3([H])[H])c([H])c([H])c2C1([H])[H]

>  <smiles>  (69) 
[H]c1c([H])c([H])c2c(c1[H])C([H])([H])C([H])([H])C([H])([H])C2([H])N([H])C(=O)C1([H])N(C(=O)C([H])(N([H])C(=O)C([H])(N([H])C([H])([H])[H])C([H])([H])[H])C(C([H])([H])[H])(C([H])([H])[H])C([H])([H])[H])C([H])([H])c2c([H])c(OC([H])([H])C([H])(F)C([H])([H])C([H])([H])[N+]3([H])C([H])([H])C([H])([H])C([H])([N+]([H])([H])C([H])([H])C([H])([H])N([H])C(=O)N4C([H])([H])C([H])([H])C([H])([H])C([H])(n5nc(-c6c([H])c([H])c(Oc7c([H])c([H])c(F)c([H])c7F)c([H])c6[H])c(C(=O)N([H])[H])c5N([H])[H])C4([H])[H])C([H])([H])C3([H])[H])c([H])c([H])c2C1([H])[H]

$$$$
69:0:0
     RDKit          3D

 93101  0  0  1  0  0  0  0  0999 V2000
  -29.2880  -22.7970   21.9410 N   0  0  0  0  0  4  0  0  0  0  0  0
  -28.8130  -22.6790   22.8220 H   0  0  0  0  0  0  0  0  0  0  0  0
  -28.5880  -22.8170   21.2170 H   0  0  0  0  0  0  0  0  0  0  0  0
  -30.1860  -21.6530   21.6910 C   0  0  0  0  0  2  0  0  0  0  0  0
  -29.4870  -20.2810   21.7990 C   0  0  0  0  0  2  0  0  0  0  0  0
  -30.6230  -19.0180   19.8670 C   0  0  0  0  0  2  0  0  0  0  0  0
  -31.1280  -17.5940   19.6360 C   0  0  0  0  0  2  0  0  0  0  0  0
  -30.0130  -17.7310   21.8020 C   0  0  0  0  0  2  0  0  0  0  0  0
  -30.4370  -19.1420   21.3810 C   0  0  0  0  0  3  0  0  0  0  0  0
  -30.9080  -16.8120   20.9540 C   0  0  0  0  0  3  0  0  0  0  0  0
  -30.9020  -14.4840   20.0680 C   0  0  0  0  0  0  0  0  0  0  0  0
  -30.5140  -12.3310   18.9440 C   0  0  0  0  0  2  0  0  0  0  0  0
  -29.5240  -12.5140   17.7760 C   0  0  0  0  0  2  0  0  0  0  0  0
  -28.0730  -12.3770   18.2750 C   0  0  0  0  0  2  0  0  0  0  0  0
  -27.7850  -13.2490   19.5270 C   0  0  0  0  0  3  0  0  0  0  0  0
  -28.8850  -13.0580   20.5960 C   0  0  0  0  0  2  0  0  0  0  0  0
  -30.1880  -13.3340   19.9680 N   0  0  0  0  0  0  0  0  0  0  0  0
  -31.9780  -14.6530   19.4900 O   0  0  0  0  0  0  0  0  0  0  0  0
  -30.3280  -15.4770   20.7630 N   0  0  0  0  0  0  0  0  0  0  0  0
  -29.4440  -15.2770   21.2040 H   0  0  0  0  0  0  0  0  0  0  0  0
  -25.4190  -13.8600   20.3370 C   0  0  0  0  0  0  0  0  0  0  0  0
  -24.3690  -13.0880   20.7600 C   0  0  0  0  0  0  0  0  0  0  0  0
  -24.8300  -11.7370   20.7130 C   0  0  0  0  0  0  0  0  0  0  0  0
  -26.4540  -12.9780   20.0670 N   0  0  0  0  0  0  0  0  0  0  0  0
  -26.1040  -11.6980   20.3480 N   0  0  0  0  0  0  0  0  0  0  0  0
  -24.1140  -10.4750   20.9420 C   0  0  0  0  0  0  0  0  0  0  0  0
  -24.5440   -9.5480   21.9160 C   0  0  0  0  0  3  0  0  0  0  0  0
  -23.8300   -8.3500   22.1290 C   0  0  0  0  0  3  0  0  0  0  0  0
  -22.6710   -8.0690   21.3660 C   0  0  0  0  0  0  0  0  0  0  0  0
  -22.2610   -8.9840   20.3800 C   0  0  0  0  0  3  0  0  0  0  0  0
  -22.9770  -10.1750   20.1670 C   0  0  0  0  0  3  0  0  0  0  0  0
  -21.9280   -6.9190   21.4870 O   0  0  0  0  0  0  0  0  0  0  0  0
  -21.7990   -6.2670   22.6880 C   0  0  0  0  0  0  0  0  0  0  0  0
  -21.2580   -6.9050   23.8260 C   0  0  0  0  0  3  0  0  0  0  0  0
  -21.0780   -6.1780   25.0190 C   0  0  0  0  0  3  0  0  0  0  0  0
  -21.4290   -4.8150   25.0760 C   0  0  0  0  0  0  0  0  0  0  0  0
  -21.9620   -4.1790   23.9420 C   0  0  0  0  0  3  0  0  0  0  0  0
  -22.1440   -4.9020   22.7500 C   0  0  0  0  0  0  0  0  0  0  0  0
  -22.6380   -4.2790   21.6540 F   0  0  0  0  0  0  0  0  0  0  0  0
  -21.2500   -4.1160   26.2200 F   0  0  0  0  0  0  0  0  0  0  0  0
  -22.9860  -13.5660   21.0940 C   0  0  0  0  0  0  0  0  0  0  0  0
  -22.2980  -12.8710   21.9940 N   0  0  0  0  0  0  0  0  0  0  0  0
  -22.5220  -14.5890   20.5910 O   0  0  0  0  0  0  0  0  0  0  0  0
  -22.6860  -12.0430   22.4230 H   0  0  0  0  0  0  0  0  0  0  0  0
  -21.3700  -13.1690   22.2570 H   0  0  0  0  0  0  0  0  0  0  0  0
  -25.5760  -15.2290   20.1430 N   0  0  0  0  0  0  0  0  0  0  0  0
  -24.8130  -15.8860   20.2700 H   0  0  0  0  0  0  0  0  0  0  0  0
  -26.4100  -15.6600   19.7640 H   0  0  0  0  0  0  0  0  0  0  0  0
  -30.0040  -24.0930   21.9730 C   0  0  0  0  0  2  0  0  0  0  0  0
  -29.0780  -25.3110   21.8030 C   0  0  0  0  0  3  0  0  0  0  0  0
  -28.0620  -25.2470   22.6690 F   0  0  0  0  0  0  0  0  0  0  0  0
  -28.5590  -25.5080   20.3660 C   0  0  0  0  0  2  0  0  0  0  0  0
  -28.5150  -26.9030   20.0740 O   0  0  0  0  0  0  0  0  0  0  0  0
  -24.6280  -31.9170   23.2650 C   0  0  0  0  0  0  0  0  0  0  0  0
  -27.3050  -27.5460   20.1380 C   0  0  0  0  0  0  0  0  0  0  0  0
  -23.4260  -30.5130   21.6180 C   0  0  0  0  0  3  0  0  0  0  0  0
  -24.8870  -29.0000   20.1810 C   0  0  0  0  0  0  0  0  0  0  0  0
  -25.9420  -30.9080   21.4080 C   0  0  0  0  0  2  0  0  0  0  0  0
  -26.0390  -29.5410   20.7640 C   0  0  0  0  0  0  0  0  0  0  0  0
  -27.2510  -28.8210   20.7380 C   0  0  0  0  0  3  0  0  0  0  0  0
  -26.1380  -27.0080   19.5530 C   0  0  0  0  0  3  0  0  0  0  0  0
  -24.9300  -27.7310   19.5740 C   0  0  0  0  0  3  0  0  0  0  0  0
  -23.6350  -29.8450   20.2330 C   0  0  0  0  0  2  0  0  0  0  0  0
  -24.6840  -31.1270   22.1560 N   0  0  0  0  0  0  0  0  0  0  0  0
  -23.5470  -32.1730   23.8140 O   0  0  0  0  0  0  0  0  0  0  0  0
  -22.7930  -29.4780   22.5750 C   0  0  0  0  0  0  0  0  0  0  0  0
  -21.4720  -29.2710   22.4410 N   0  0  0  0  0  0  0  0  0  0  0  0
  -23.4840  -28.8630   23.3900 O   0  0  0  0  0  0  0  0  0  0  0  0
  -20.9770  -29.8230   21.7560 H   0  0  0  0  0  0  0  0  0  0  0  0
  -18.1220  -28.0020   22.8910 C   0  0  0  0  0  0  0  0  0  0  0  0
  -20.6670  -28.3190   23.2050 C   0  0  0  0  0  3  0  0  0  0  0  0
  -20.8120  -26.8870   22.6370 C   0  0  0  0  0  2  0  0  0  0  0  0
  -19.7340  -26.5360   21.6060 C   0  0  0  0  0  2  0  0  0  0  0  0
  -18.3390  -26.6540   22.2260 C   0  0  0  0  0  2  0  0  0  0  0  0
  -19.2160  -28.7910   23.3350 C   0  0  0  0  0  0  0  0  0  0  0  0
  -18.9590  -30.0530   23.9140 C   0  0  0  0  0  3  0  0  0  0  0  0
  -17.6410  -30.5270   24.0530 C   0  0  0  0  0  3  0  0  0  0  0  0
  -16.5610  -29.7340   23.6280 C   0  0  0  0  0  3  0  0  0  0  0  0
  -16.8020  -28.4740   23.0520 C   0  0  0  0  0  3  0  0  0  0  0  0
  -25.9120  -32.5540   23.8830 C   0  0  0  0  0  3  0  0  0  0  0  0
  -25.6000  -33.9500   24.2110 N   0  0  0  0  0  0  0  0  0  0  0  0
  -25.9300  -35.0010   23.4480 C   0  0  0  0  0  0  0  0  0  0  0  0
  -26.6000  -34.8980   22.4170 O   0  0  0  0  0  0  0  0  0  0  0  0
  -25.0060  -34.1030   25.0110 H   0  0  0  0  0  0  0  0  0  0  0  0
  -24.1970  -36.7850   23.0810 C   0  0  0  0  0  1  0  0  0  0  0  0
  -25.4360  -36.3880   23.9000 C   0  0  0  0  0  3  0  0  0  0  0  0
  -27.5650  -37.2820   24.7370 C   0  0  0  0  0  1  0  0  0  0  0  0
  -26.4660  -37.4440   23.7890 N   0  0  0  0  0  0  0  0  0  0  0  0
  -26.0570  -38.3640   23.9360 H   0  0  0  0  0  0  0  0  0  0  0  0
  -26.4370  -31.7830   25.1550 C   0  0  1  0  0  0  0  0  0  0  0  0
  -25.3490  -31.5400   26.2260 C   0  0  0  0  0  1  0  0  0  0  0  0
  -27.0260  -30.4120   24.7550 C   0  0  0  0  0  1  0  0  0  0  0  0
  -27.5860  -32.5830   25.8150 C   0  0  0  0  0  1  0  0  0  0  0  0
  1 49  1  0
  1  2  1  0
  3  1  1  0
  4  5  1  0
  4  1  1  0
  6  9  1  0
  7  6  1  0
  7 10  1  0
  9  5  1  0
  9  8  1  0
 10 19  1  0
 10  8  1  0
 11 19  1  0
 12 17  1  0
 13 14  1  0
 13 12  1  0
 15 14  1  0
 15 24  1  0
 15 16  1  0
 17 11  1  0
 17 16  1  0
 18 11  2  0
 19 20  1  0
 21 22  2  0
 22 41  1  0
 23 22  1  0
 23 26  1  0
 24 21  1  0
 24 25  1  0
 25 23  2  0
 26 27  1  0
 27 28  2  0
 29 32  1  0
 29 28  1  0
 30 29  2  0
 31 30  1  0
 31 26  2  0
 32 33  1  0
 33 38  2  0
 33 34  1  0
 34 35  2  0
 35 36  1  0
 36 40  1  0
 37 36  2  0
 38 37  1  0
 39 38  1  0
 41 42  1  0
 42 45  1  0
 42 44  1  0
 43 41  2  0
 46 47  1  0
 46 21  1  0
 48 46  1  0
 50 49  1  0
 50 51  1  0
 52 50  1  0
 53 55  1  0
 53 52  1  0
 54 65  2  0
 55 60  1  0
 56 64  1  0
 56 66  1  0
 57 63  1  0
 57 59  1  0
 58 64  1  0
 59 58  1  0
 60 59  2  0
 61 62  1  0
 61 55  2  0
 62 57  2  0
 63 56  1  0
 64 54  1  0
 66 68  2  0
 67 66  1  0
 69 67  1  0
 70 79  2  0
 70 75  1  0
 71 67  1  0
 71 75  1  0
 72 71  1  0
 73 74  1  0
 73 72  1  0
 74 70  1  0
 75 76  2  0
 76 77  1  0
 78 77  2  0
 79 78  1  0
 80 54  1  0
 80 81  1  0
 80 90  1  0
 81 84  1  0
 82 86  1  0
 82 81  1  0
 83 82  2  0
 86 85  1  0
 88 86  1  0
 88 89  1  0
 88 87  1  0
 90 93  1  1
 90 91  1  0
 92 90  1  0
M  ISO  4  11 100  19 100  52 101  53 101
M  END
>  <TORSDO>  (70) 
F 22

>  <SCORE>  (70) 
-12.574

>  <name>  (70) 
69

>  <ligand_id>  (70) 
69

>  <original_smiles>  (70) 
[H]c1c([H])c([H])c2c(c1[H])C([H])([H])C([H])([H])C([H])([H])C2([H])N([H])C(=O)C1([H])N(C(=O)C([H])(N([H])C(=O)C([H])(N([H])C([H])([H])[H])C([H])([H])[H])C(C([H])([H])[H])(C([H])([H])[H])C([H])([H])[H])C([H])([H])c2c([H])c(OC([H])([H])C([H])(F)C([H])([H])[N+]([H])([H])C([H])([H])C([H])([H])C3([H])C([H])([H])C([H])([H])C([H])(N([H])C(=O)N4C([H])([H])C([H])([H])C([H])([H])C([H])(n5nc(-c6c([H])c([H])c(Oc7c([H])c([H])c(F)c([H])c7F)c([H])c6[H])c(C(=O)N([H])[H])c5N([H])[H])C4([H])[H])C3([H])[H])c([H])c([H])c2C1([H])[H]

>  <smiles>  (70) 
[H]c1c([H])c([H])c2c(c1[H])C([H])([H])C([H])([H])C([H])([H])C2([H])N([H])C(=O)C1([H])N(C(=O)C([H])(N([H])C(=O)C([H])(N([H])C([H])([H])[H])C([H])([H])[H])C(C([H])([H])[H])(C([H])([H])[H])C([H])([H])[H])C([H])([H])c2c([H])c(OC([H])([H])C([H])(F)C([H])([H])[N+]([H])([H])C([H])([H])C([H])([H])C3([H])C([H])([H])C([H])([H])C([H])(N([H])C(=O)N4C([H])([H])C([H])([H])C([H])([H])C([H])(n5nc(-c6c([H])c([H])c(Oc7c([H])c([H])c(F)c([H])c7F)c([H])c6[H])c(C(=O)N([H])[H])c5N([H])[H])C4([H])[H])C3([H])[H])c([H])c([H])c2C1([H])[H]

$$$$
70:0:0
     RDKit          3D

 93101  0  0  1  0  0  0  0  0999 V2000
  -30.3730  -21.7390   19.3640 C   0  0  0  0  0  0  0  0  0  0  0  0
  -30.7280  -22.9340   18.8850 N   0  0  0  0  0  0  0  0  0  0  0  0
  -29.2260  -21.2960   19.2660 O   0  0  0  0  0  0  0  0  0  0  0  0
  -31.6880  -23.2130   19.0250 H   0  0  0  0  0  0  0  0  0  0  0  0
  -31.4910  -20.9610   20.0670 C   0  0  0  0  0  2  0  0  0  0  0  0
  -30.6020  -19.0880   21.5660 C   0  0  0  0  0  3  0  0  0  0  0  0
  -31.3260  -18.5670   19.3010 C   0  0  0  0  0  3  0  0  0  0  0  0
  -30.2900  -17.7250   21.7780 C   0  0  0  0  0  3  0  0  0  0  0  0
  -30.9990  -17.2200   19.5090 C   0  0  0  0  0  3  0  0  0  0  0  0
  -31.1260  -19.5100   20.3220 C   0  0  0  0  0  0  0  0  0  0  0  0
  -30.5020  -16.7700   20.7560 C   0  0  0  0  0  0  0  0  0  0  0  0
  -30.7600  -14.3610   20.3240 C   0  0  0  0  0  0  0  0  0  0  0  0
  -30.3260  -12.2710   19.1110 C   0  0  0  0  0  2  0  0  0  0  0  0
  -29.3730  -12.5590   17.9320 C   0  0  0  0  0  2  0  0  0  0  0  0
  -27.9040  -12.4390   18.3880 C   0  0  0  0  0  2  0  0  0  0  0  0
  -27.6140  -13.2320   19.6940 C   0  0  0  0  0  3  0  0  0  0  0  0
  -28.6920  -12.9620   20.7690 C   0  0  0  0  0  2  0  0  0  0  0  0
  -30.0170  -13.2300   20.1860 N   0  0  0  0  0  0  0  0  0  0  0  0
  -31.8680  -14.4810   19.8020 O   0  0  0  0  0  0  0  0  0  0  0  0
  -30.1910  -15.3900   20.9790 N   0  0  0  0  0  0  0  0  0  0  0  0
  -29.4060  -15.1740   21.5760 H   0  0  0  0  0  0  0  0  0  0  0  0
  -25.2350  -13.8370   20.4670 C   0  0  0  0  0  0  0  0  0  0  0  0
  -24.1770  -13.0620   20.8600 C   0  0  0  0  0  0  0  0  0  0  0  0
  -24.6370  -11.7120   20.8080 C   0  0  0  0  0  0  0  0  0  0  0  0
  -26.2730  -12.9580   20.2020 N   0  0  0  0  0  0  0  0  0  0  0  0
  -25.9180  -11.6740   20.4650 N   0  0  0  0  0  0  0  0  0  0  0  0
  -23.9160  -10.4490   21.0060 C   0  0  0  0  0  0  0  0  0  0  0  0
  -24.3690   -9.4840   21.9330 C   0  0  0  0  0  3  0  0  0  0  0  0
  -23.6520   -8.2820   22.1250 C   0  0  0  0  0  3  0  0  0  0  0  0
  -22.4680   -8.0390   21.3890 C   0  0  0  0  0  0  0  0  0  0  0  0
  -22.0340   -8.9920   20.4510 C   0  0  0  0  0  3  0  0  0  0  0  0
  -22.7500  -10.1860   20.2580 C   0  0  0  0  0  3  0  0  0  0  0  0
  -21.7190   -6.8900   21.4850 O   0  0  0  0  0  0  0  0  0  0  0  0
  -21.6800   -6.1510   22.6390 C   0  0  0  0  0  0  0  0  0  0  0  0
  -21.2410   -6.7030   23.8630 C   0  0  0  0  0  3  0  0  0  0  0  0
  -21.1540   -5.8890   25.0100 C   0  0  0  0  0  3  0  0  0  0  0  0
  -21.4930   -4.5260   24.9320 C   0  0  0  0  0  0  0  0  0  0  0  0
  -21.9210   -3.9730   23.7130 C   0  0  0  0  0  3  0  0  0  0  0  0
  -22.0130   -4.7820   22.5690 C   0  0  0  0  0  0  0  0  0  0  0  0
  -22.4080   -4.2400   21.3920 F   0  0  0  0  0  0  0  0  0  0  0  0
  -21.3960   -3.7450   26.0340 F   0  0  0  0  0  0  0  0  0  0  0  0
  -22.7880  -13.5370   21.1700 C   0  0  0  0  0  0  0  0  0  0  0  0
  -22.0810  -12.8380   22.0510 N   0  0  0  0  0  0  0  0  0  0  0  0
  -22.3390  -14.5650   20.6650 O   0  0  0  0  0  0  0  0  0  0  0  0
  -22.4630  -12.0150   22.4970 H   0  0  0  0  0  0  0  0  0  0  0  0
  -21.1460  -13.1350   22.2890 H   0  0  0  0  0  0  0  0  0  0  0  0
  -25.3950  -15.2090   20.3010 N   0  0  0  0  0  0  0  0  0  0  0  0
  -24.6240  -15.8580   20.4320 H   0  0  0  0  0  0  0  0  0  0  0  0
  -26.2390  -15.6620   19.9760 H   0  0  0  0  0  0  0  0  0  0  0  0
  -29.8410  -23.9470   18.3310 C   0  0  0  0  0  2  0  0  0  0  0  0
  -29.2730  -24.7960   19.4640 C   0  0  0  0  0  2  0  0  0  0  0  0
  -28.8310  -26.1700   18.9830 C   0  0  0  0  0  2  0  0  0  0  0  0
  -28.4470  -26.8480   20.1610 O   0  0  0  0  0  0  0  0  0  0  0  0
  -24.5860  -31.8650   23.2460 C   0  0  0  0  0  0  0  0  0  0  0  0
  -27.2430  -27.4860   20.1640 C   0  0  0  0  0  0  0  0  0  0  0  0
  -23.3790  -30.4660   21.5980 C   0  0  0  0  0  3  0  0  0  0  0  0
  -24.8310  -28.9290   20.1800 C   0  0  0  0  0  0  0  0  0  0  0  0
  -25.8930  -30.8480   21.3920 C   0  0  0  0  0  2  0  0  0  0  0  0
  -25.9800  -29.4740   20.7680 C   0  0  0  0  0  0  0  0  0  0  0  0
  -27.1840  -28.7510   20.7750 C   0  0  0  0  0  3  0  0  0  0  0  0
  -26.0740  -26.9250   19.5980 C   0  0  0  0  0  3  0  0  0  0  0  0
  -24.8680  -27.6460   19.6010 C   0  0  0  0  0  3  0  0  0  0  0  0
  -23.5870  -29.7810   20.2170 C   0  0  0  0  0  2  0  0  0  0  0  0
  -24.6360  -31.0740   22.1400 N   0  0  0  0  0  0  0  0  0  0  0  0
  -23.5050  -32.1310   23.7910 O   0  0  0  0  0  0  0  0  0  0  0  0
  -22.7300  -29.4420   22.5560 C   0  0  0  0  0  0  0  0  0  0  0  0
  -21.4070  -29.2630   22.4260 N   0  0  0  0  0  0  0  0  0  0  0  0
  -23.4120  -28.8110   23.3670 O   0  0  0  0  0  0  0  0  0  0  0  0
  -20.9190  -29.8190   21.7380 H   0  0  0  0  0  0  0  0  0  0  0  0
  -18.0260  -28.0990   22.9140 C   0  0  0  0  0  0  0  0  0  0  0  0
  -20.5850  -28.3270   23.1880 C   0  0  0  0  0  3  0  0  0  0  0  0
  -20.6720  -26.9020   22.5970 C   0  0  0  0  0  2  0  0  0  0  0  0
  -19.5660  -26.5950   21.5850 C   0  0  0  0  0  2  0  0  0  0  0  0
  -18.1870  -26.7520   22.2310 C   0  0  0  0  0  2  0  0  0  0  0  0
  -19.1520  -28.8440   23.3480 C   0  0  0  0  0  0  0  0  0  0  0  0
  -18.9520  -30.1050   23.9500 C   0  0  0  0  0  3  0  0  0  0  0  0
  -17.6550  -30.6220   24.1200 C   0  0  0  0  0  3  0  0  0  0  0  0
  -16.5390  -29.8730   23.7070 C   0  0  0  0  0  3  0  0  0  0  0  0
  -16.7250  -28.6110   23.1120 C   0  0  0  0  0  3  0  0  0  0  0  0
  -25.8710  -32.4970   23.8670 C   0  0  0  0  0  3  0  0  0  0  0  0
  -25.5670  -33.8930   24.1940 N   0  0  0  0  0  0  0  0  0  0  0  0
  -25.8980  -34.9440   23.4300 C   0  0  0  0  0  0  0  0  0  0  0  0
  -26.5690  -34.8360   22.4010 O   0  0  0  0  0  0  0  0  0  0  0  0
  -24.9930  -34.0540   25.0110 H   0  0  0  0  0  0  0  0  0  0  0  0
  -24.1740  -36.7330   23.0650 C   0  0  0  0  0  1  0  0  0  0  0  0
  -25.4100  -36.3300   23.8850 C   0  0  0  0  0  3  0  0  0  0  0  0
  -27.5400  -37.2130   24.7330 C   0  0  0  0  0  1  0  0  0  0  0  0
  -26.4450  -37.3830   23.7800 N   0  0  0  0  0  0  0  0  0  0  0  0
  -26.0380  -38.3020   23.9270 H   0  0  0  0  0  0  0  0  0  0  0  0
  -26.3890  -31.7210   25.1380 C   0  0  1  0  0  0  0  0  0  0  0  0
  -25.2960  -31.4680   26.2010 C   0  0  0  0  0  1  0  0  0  0  0  0
  -26.9820  -30.3510   24.7340 C   0  0  0  0  0  1  0  0  0  0  0  0
  -27.5270  -32.5210   25.8130 C   0  0  0  0  0  1  0  0  0  0  0  0
  1  5  1  0
  2  4  1  0
  2  1  1  0
  3  1  2  0
  5 10  1  0
  6  8  1  0
  7  9  2  0
  7 10  1  0
  9 11  1  0
 10  6  2  0
 11 20  1  0
 11  8  2  0
 12 20  1  0
 13 18  1  0
 14 15  1  0
 14 13  1  0
 16 15  1  0
 16 25  1  0
 16 17  1  0
 18 12  1  0
 18 17  1  0
 19 12  2  0
 20 21  1  0
 22 23  2  0
 23 42  1  0
 24 23  1  0
 24 27  1  0
 25 26  1  0
 25 22  1  0
 26 24  2  0
 27 28  1  0
 28 29  2  0
 30 33  1  0
 30 29  1  0
 31 30  2  0
 32 31  1  0
 32 27  2  0
 33 34  1  0
 34 35  1  0
 35 36  2  0
 37 36  1  0
 37 41  1  0
 38 37  2  0
 39 34  2  0
 39 38  1  0
 40 39  1  0
 42 43  1  0
 43 46  1  0
 43 45  1  0
 44 42  2  0
 47 48  1  0
 47 22  1  0
 49 47  1  0
 50  2  1  0
 50 51  1  0
 52 51  1  0
 52 53  1  0
 53 55  1  0
 54 65  2  0
 55 60  1  0
 56 64  1  0
 56 66  1  0
 57 63  1  0
 57 59  1  0
 58 64  1  0
 59 60  2  0
 59 58  1  0
 61 62  1  0
 61 55  2  0
 62 57  2  0
 63 56  1  0
 64 54  1  0
 66 68  2  0
 67 66  1  0
 69 67  1  0
 70 79  2  0
 70 75  1  0
 71 67  1  0
 71 75  1  0
 72 71  1  0
 73 74  1  0
 73 72  1  0
 74 70  1  0
 75 76  2  0
 76 77  1  0
 78 77  2  0
 79 78  1  0
 80 54  1  0
 80 81  1  0
 80 90  1  0
 81 84  1  0
 82 86  1  0
 82 81  1  0
 83 82  2  0
 86 85  1  0
 88 86  1  0
 88 89  1  0
 88 87  1  0
 90 93  1  1
 90 91  1  0
 92 90  1  0
M  ISO  4  12 100  20 100  52 101  53 101
M  END
>  <TORSDO>  (71) 
F 21

>  <SCORE>  (71) 
-13.405

>  <name>  (71) 
70

>  <ligand_id>  (71) 
70

>  <original_smiles>  (71) 
[H]c1c([H])c([H])c2c(c1[H])C([H])([H])C([H])([H])C([H])([H])C2([H])N([H])C(=O)C1([H])N(C(=O)C([H])(N([H])C(=O)C([H])(N([H])C([H])([H])[H])C([H])([H])[H])C(C([H])([H])[H])(C([H])([H])[H])C([H])([H])[H])C([H])([H])c2c([H])c(OC([H])([H])C([H])([H])C([H])([H])N([H])C(=O)C([H])([H])c3c([H])c([H])c(N([H])C(=O)N4C([H])([H])C([H])([H])C([H])([H])C([H])(n5nc(-c6c([H])c([H])c(Oc7c([H])c([H])c(F)c([H])c7F)c([H])c6[H])c(C(=O)N([H])[H])c5N([H])[H])C4([H])[H])c([H])c3[H])c([H])c([H])c2C1([H])[H]

>  <smiles>  (71) 
[H]c1c([H])c([H])c2c(c1[H])C([H])([H])C([H])([H])C([H])([H])C2([H])N([H])C(=O)C1([H])N(C(=O)C([H])(N([H])C(=O)C([H])(N([H])C([H])([H])[H])C([H])([H])[H])C(C([H])([H])[H])(C([H])([H])[H])C([H])([H])[H])C([H])([H])c2c([H])c(OC([H])([H])C([H])([H])C([H])([H])N([H])C(=O)C([H])([H])c3c([H])c([H])c(N([H])C(=O)N4C([H])([H])C([H])([H])C([H])([H])C([H])(n5nc(-c6c([H])c([H])c(Oc7c([H])c([H])c(F)c([H])c7F)c([H])c6[H])c(C(=O)N([H])[H])c5N([H])[H])C4([H])[H])c([H])c3[H])c([H])c([H])c2C1([H])[H]

$$$$
71:0:0
     RDKit          3D

 96104  0  0  1  0  0  0  0  0999 V2000
  -30.1200  -22.5900   20.7410 C   0  0  0  0  0  2  0  0  0  0  0  0
  -29.3290  -21.4840   21.4670 C   0  0  0  0  0  2  0  0  0  0  0  0
  -30.2070  -20.6320   22.4180 C   0  0  0  0  0  2  0  0  0  0  0  0
  -30.7640  -17.5390   20.2180 C   0  0  0  0  0  2  0  0  0  0  0  0
  -30.7960  -16.8450   22.6440 C   0  0  0  0  0  2  0  0  0  0  0  0
  -30.9590  -18.9940   20.6870 C   0  0  0  0  0  2  0  0  0  0  0  0
  -30.9310  -18.3380   23.0280 C   0  0  0  0  0  2  0  0  0  0  0  0
  -31.3230  -16.5120   21.2260 C   0  0  0  0  0  3  0  0  0  0  0  0
  -30.3050  -19.2070   22.0020 N   0  0  1  0  0  4  0  0  0  0  0  0
  -29.3520  -18.8930   21.9120 H   0  0  0  0  0  0  0  0  0  0  0  0
  -31.3320  -14.2930   19.9560 C   0  0  0  0  0  0  0  0  0  0  0  0
  -30.8370  -12.1700   18.7810 C   0  0  0  0  0  2  0  0  0  0  0  0
  -29.8280  -12.3750   17.6300 C   0  0  0  0  0  2  0  0  0  0  0  0
  -28.3790  -12.3250   18.1480 C   0  0  0  0  0  2  0  0  0  0  0  0
  -28.1560  -13.2300   19.3870 C   0  0  0  0  0  3  0  0  0  0  0  0
  -29.2470  -12.9620   20.4470 C   0  0  0  0  0  2  0  0  0  0  0  0
  -30.5700  -13.1740   19.8220 N   0  0  0  0  0  0  0  0  0  0  0  0
  -32.3370  -14.5180   19.2720 O   0  0  0  0  0  0  0  0  0  0  0  0
  -30.8870  -15.1510   20.8920 N   0  0  0  0  0  0  0  0  0  0  0  0
  -30.0990  -14.8030   21.4210 H   0  0  0  0  0  0  0  0  0  0  0  0
  -25.8660  -14.0260   20.2540 C   0  0  0  0  0  0  0  0  0  0  0  0
  -24.7610  -13.3390   20.6790 C   0  0  0  0  0  0  0  0  0  0  0  0
  -25.1030  -11.9540   20.5920 C   0  0  0  0  0  0  0  0  0  0  0  0
  -26.8160  -13.0660   19.9400 N   0  0  0  0  0  0  0  0  0  0  0  0
  -26.3610  -11.8140   20.1960 N   0  0  0  0  0  0  0  0  0  0  0  0
  -24.2900  -10.7500   20.8040 C   0  0  0  0  0  0  0  0  0  0  0  0
  -24.6720   -9.7520   21.7270 C   0  0  0  0  0  3  0  0  0  0  0  0
  -23.8650   -8.6130   21.9290 C   0  0  0  0  0  3  0  0  0  0  0  0
  -22.6560   -8.4650   21.2060 C   0  0  0  0  0  0  0  0  0  0  0  0
  -22.2920   -9.4470   20.2690 C   0  0  0  0  0  3  0  0  0  0  0  0
  -23.1030  -10.5770   20.0670 C   0  0  0  0  0  3  0  0  0  0  0  0
  -21.8180   -7.3820   21.3190 O   0  0  0  0  0  0  0  0  0  0  0  0
  -21.7100   -6.6770   22.4900 C   0  0  0  0  0  0  0  0  0  0  0  0
  -21.3340   -7.2970   23.7010 C   0  0  0  0  0  3  0  0  0  0  0  0
  -21.1630   -6.5190   24.8650 C   0  0  0  0  0  3  0  0  0  0  0  0
  -21.3560   -5.1260   24.8170 C   0  0  0  0  0  0  0  0  0  0  0  0
  -21.7270   -4.5070   23.6100 C   0  0  0  0  0  3  0  0  0  0  0  0
  -21.9000   -5.2790   22.4490 C   0  0  0  0  0  0  0  0  0  0  0  0
  -22.2340   -4.6740   21.2830 F   0  0  0  0  0  0  0  0  0  0  0  0
  -21.1870   -4.3780   25.9340 F   0  0  0  0  0  0  0  0  0  0  0  0
  -23.4290  -13.9240   21.0560 C   0  0  0  0  0  0  0  0  0  0  0  0
  -22.7160  -13.2770   21.9710 N   0  0  0  0  0  0  0  0  0  0  0  0
  -23.0360  -14.9850   20.5740 O   0  0  0  0  0  0  0  0  0  0  0  0
  -23.0500  -12.4160   22.3790 H   0  0  0  0  0  0  0  0  0  0  0  0
  -21.8200  -13.6410   22.2630 H   0  0  0  0  0  0  0  0  0  0  0  0
  -26.1380  -15.3830   20.0920 N   0  0  0  0  0  0  0  0  0  0  0  0
  -25.4380  -16.1010   20.2420 H   0  0  0  0  0  0  0  0  0  0  0  0
  -26.9940  -15.7440   19.6900 H   0  0  0  0  0  0  0  0  0  0  0  0
  -29.3340  -23.2500   19.5910 C   0  0  0  0  0  2  0  0  0  0  0  0
  -30.0870  -24.3730   18.9880 N   0  0  0  0  0  4  0  0  0  0  0  0
  -30.9640  -24.0480   18.6120 H   0  0  0  0  0  0  0  0  0  0  0  0
  -30.2890  -25.0270   19.7270 H   0  0  0  0  0  0  0  0  0  0  0  0
  -29.3460  -25.1120   17.9400 C   0  0  0  0  0  2  0  0  0  0  0  0
  -29.5430  -26.6400   18.0330 C   0  0  0  0  0  2  0  0  0  0  0  0
  -29.1710  -27.2450   19.4010 C   0  0  0  0  0  2  0  0  0  0  0  0
  -27.9290  -26.6910   19.8140 O   0  0  0  0  0  0  0  0  0  0  0  0
  -24.4650  -31.9320   23.2170 C   0  0  0  0  0  0  0  0  0  0  0  0
  -26.8320  -27.5090   19.9200 C   0  0  0  0  0  0  0  0  0  0  0  0
  -23.1320  -30.5790   21.6340 C   0  0  0  0  0  3  0  0  0  0  0  0
  -24.4650  -29.0350   20.1080 C   0  0  0  0  0  0  0  0  0  0  0  0
  -25.6510  -30.8880   21.3000 C   0  0  0  0  0  2  0  0  0  0  0  0
  -25.6650  -29.5330   20.6300 C   0  0  0  0  0  0  0  0  0  0  0  0
  -26.8500  -28.7750   20.5450 C   0  0  0  0  0  3  0  0  0  0  0  0
  -25.6130  -27.0040   19.4260 C   0  0  0  0  0  3  0  0  0  0  0  0
  -24.4300  -27.7630   19.5110 C   0  0  0  0  0  3  0  0  0  0  0  0
  -23.2420  -29.9150   20.2380 C   0  0  0  0  0  2  0  0  0  0  0  0
  -24.4360  -31.1460   22.1050 N   0  0  0  0  0  0  0  0  0  0  0  0
  -23.4240  -32.2210   23.8240 O   0  0  0  0  0  0  0  0  0  0  0  0
  -22.5180  -29.5580   22.6180 C   0  0  0  0  0  0  0  0  0  0  0  0
  -21.1980  -29.3420   22.5050 N   0  0  0  0  0  0  0  0  0  0  0  0
  -23.2240  -28.9640   23.4360 O   0  0  0  0  0  0  0  0  0  0  0  0
  -20.6930  -29.8690   21.8060 H   0  0  0  0  0  0  0  0  0  0  0  0
  -17.8730  -28.0080   22.9770 C   0  0  0  0  0  0  0  0  0  0  0  0
  -20.4070  -28.4050   23.2980 C   0  0  0  0  0  3  0  0  0  0  0  0
  -20.5970  -26.9550   22.7930 C   0  0  0  0  0  2  0  0  0  0  0  0
  -19.5370  -26.5320   21.7710 C   0  0  0  0  0  2  0  0  0  0  0  0
  -18.1320  -26.6390   22.3730 C   0  0  0  0  0  2  0  0  0  0  0  0
  -18.9420  -28.8440   23.3980 C   0  0  0  0  0  0  0  0  0  0  0  0
  -18.6480  -30.1230   23.9210 C   0  0  0  0  0  3  0  0  0  0  0  0
  -17.3180  -30.5660   24.0340 C   0  0  0  0  0  3  0  0  0  0  0  0
  -16.2640  -29.7290   23.6320 C   0  0  0  0  0  3  0  0  0  0  0  0
  -16.5420  -28.4530   23.1080 C   0  0  0  0  0  3  0  0  0  0  0  0
  -25.8010  -32.5240   23.7650 C   0  0  0  0  0  3  0  0  0  0  0  0
  -25.5420  -33.9200   24.1370 N   0  0  0  0  0  0  0  0  0  0  0  0
  -25.8750  -34.9810   23.3870 C   0  0  0  0  0  0  0  0  0  0  0  0
  -26.5000  -34.8820   22.3270 O   0  0  0  0  0  0  0  0  0  0  0  0
  -24.9720  -34.0710   24.9570 H   0  0  0  0  0  0  0  0  0  0  0  0
  -24.1820  -36.8250   23.1310 C   0  0  0  0  0  1  0  0  0  0  0  0
  -25.4400  -36.3700   23.8910 C   0  0  0  0  0  3  0  0  0  0  0  0
  -27.6270  -37.1720   24.6660 C   0  0  0  0  0  1  0  0  0  0  0  0
  -26.4980  -37.3970   23.7670 N   0  0  0  0  0  0  0  0  0  0  0  0
  -26.1240  -38.3230   23.9520 H   0  0  0  0  0  0  0  0  0  0  0  0
  -26.3790  -31.7190   24.9910 C   0  0  1  0  0  0  0  0  0  0  0  0
  -25.3460  -31.4770   26.1160 C   0  0  0  0  0  1  0  0  0  0  0  0
  -26.9170  -30.3410   24.5420 C   0  0  0  0  0  1  0  0  0  0  0  0
  -27.5800  -32.4800   25.5990 C   0  0  0  0  0  1  0  0  0  0  0  0
  1  2  1  0
  2  3  1  0
  4  6  1  0
  4  8  1  0
  5  7  1  0
  6  9  1  0
  8 19  1  0
  8  5  1  0
  9  3  1  0
  9  7  1  0
  9 10  1  6
 11 19  1  0
 12 17  1  0
 13 14  1  0
 13 12  1  0
 15 14  1  0
 15 24  1  0
 15 16  1  0
 17 11  1  0
 17 16  1  0
 18 11  2  0
 19 20  1  0
 21 22  2  0
 22 41  1  0
 23 22  1  0
 23 26  1  0
 24 25  1  0
 24 21  1  0
 25 23  2  0
 26 27  1  0
 27 28  2  0
 29 32  1  0
 29 28  1  0
 30 29  2  0
 31 30  1  0
 31 26  2  0
 32 33  1  0
 33 34  1  0
 34 35  2  0
 36 35  1  0
 36 40  1  0
 37 36  2  0
 38 33  2  0
 38 37  1  0
 39 38  1  0
 41 42  1  0
 42 45  1  0
 42 44  1  0
 43 41  2  0
 46 47  1  0
 46 21  1  0
 48 46  1  0
 49  1  1  0
 50 49  1  0
 50 52  1  0
 51 50  1  0
 53 54  1  0
 53 50  1  0
 54 55  1  0
 55 56  1  0
 56 58  1  0
 57 68  2  0
 58 63  1  0
 59 67  1  0
 59 69  1  0
 60 66  1  0
 60 62  1  0
 61 67  1  0
 62 61  1  0
 63 62  2  0
 64 65  1  0
 64 58  2  0
 65 60  2  0
 66 59  1  0
 67 57  1  0
 69 71  2  0
 70 69  1  0
 72 70  1  0
 73 82  2  0
 73 78  1  0
 74 70  1  0
 74 78  1  0
 75 74  1  0
 76 77  1  0
 76 75  1  0
 77 73  1  0
 78 79  2  0
 79 80  1  0
 81 80  2  0
 82 81  1  0
 83 57  1  0
 83 84  1  0
 83 93  1  0
 84 87  1  0
 85 89  1  0
 85 84  1  0
 86 85  2  0
 89 88  1  0
 91 89  1  0
 91 92  1  0
 91 90  1  0
 93 96  1  1
 93 94  1  0
 95 93  1  0
M  ISO  4  11 100  19 100  55 101  56 101
M  END
>  <TORSDO>  (72) 
F 24

>  <SCORE>  (72) 
-11.617

>  <name>  (72) 
71

>  <ligand_id>  (72) 
71

>  <original_smiles>  (72) 
[H]c1c([H])c([H])c2c(c1[H])C([H])([H])C([H])([H])C([H])([H])C2([H])N([H])C(=O)C1([H])N(C(=O)C([H])(N([H])C(=O)C([H])(N([H])C([H])([H])[H])C([H])([H])[H])C(C([H])([H])[H])(C([H])([H])[H])C([H])([H])[H])C([H])([H])c2c([H])c(OC([H])([H])C([H])([H])C([H])([H])[N+]([H])([H])C([H])([H])C([H])([H])C([H])([H])C([H])([H])[N+]3([H])C([H])([H])C([H])([H])C([H])(N([H])C(=O)N4C([H])([H])C([H])([H])C([H])([H])C([H])(n5nc(-c6c([H])c([H])c(Oc7c([H])c([H])c(F)c([H])c7F)c([H])c6[H])c(C(=O)N([H])[H])c5N([H])[H])C4([H])[H])C([H])([H])C3([H])[H])c([H])c([H])c2C1([H])[H]

>  <smiles>  (72) 
[H]c1c([H])c([H])c2c(c1[H])C([H])([H])C([H])([H])C([H])([H])C2([H])N([H])C(=O)C1([H])N(C(=O)C([H])(N([H])C(=O)C([H])(N([H])C([H])([H])[H])C([H])([H])[H])C(C([H])([H])[H])(C([H])([H])[H])C([H])([H])[H])C([H])([H])c2c([H])c(OC([H])([H])C([H])([H])C([H])([H])[N+]([H])([H])C([H])([H])C([H])([H])C([H])([H])C([H])([H])[N+]3([H])C([H])([H])C([H])([H])C([H])(N([H])C(=O)N4C([H])([H])C([H])([H])C([H])([H])C([H])(n5nc(-c6c([H])c([H])c(Oc7c([H])c([H])c(F)c([H])c7F)c([H])c6[H])c(C(=O)N([H])[H])c5N([H])[H])C4([H])[H])C([H])([H])C3([H])[H])c([H])c([H])c2C1([H])[H]

$$$$
72:0:0
     RDKit          3D

 91 98  0  0  1  0  0  0  0  0999 V2000
  -29.0480  -21.8780   20.2300 N   0  0  0  0  0  4  0  0  0  0  0  0
  -30.0300  -22.0860   20.1380 H   0  0  0  0  0  0  0  0  0  0  0  0
  -28.6630  -21.8780   19.2980 H   0  0  0  0  0  0  0  0  0  0  0  0
  -28.4410  -22.9940   20.9900 C   0  0  0  0  0  2  0  0  0  0  0  0
  -28.6900  -24.3180   20.2600 C   0  0  0  0  0  0  0  0  0  0  0  0
  -29.1530  -24.3550   19.1130 O   0  0  0  0  0  0  0  0  0  0  0  0
  -28.3290  -25.5930   21.0360 C   0  0  0  0  0  2  0  0  0  0  0  0
  -28.3950  -26.7590   20.2070 O   0  0  0  0  0  0  0  0  0  0  0  0
  -24.5570  -31.9080   23.2560 C   0  0  0  0  0  0  0  0  0  0  0  0
  -27.2300  -27.4820   20.2060 C   0  0  0  0  0  0  0  0  0  0  0  0
  -23.3590  -30.4930   21.6170 C   0  0  0  0  0  3  0  0  0  0  0  0
  -24.8250  -28.9520   20.2080 C   0  0  0  0  0  0  0  0  0  0  0  0
  -25.8810  -30.8690   21.4190 C   0  0  0  0  0  2  0  0  0  0  0  0
  -25.9780  -29.4950   20.7900 C   0  0  0  0  0  0  0  0  0  0  0  0
  -27.1870  -28.7680   20.7860 C   0  0  0  0  0  3  0  0  0  0  0  0
  -26.0640  -26.9420   19.6220 C   0  0  0  0  0  3  0  0  0  0  0  0
  -24.8610  -27.6730   19.6250 C   0  0  0  0  0  3  0  0  0  0  0  0
  -23.5750  -29.8030   20.2440 C   0  0  0  0  0  2  0  0  0  0  0  0
  -24.6180  -31.1040   22.1580 N   0  0  0  0  0  0  0  0  0  0  0  0
  -23.4740  -32.1790   23.7930 O   0  0  0  0  0  0  0  0  0  0  0  0
  -22.7110  -29.4750   22.5810 C   0  0  0  0  0  0  0  0  0  0  0  0
  -21.3880  -29.2870   22.4490 N   0  0  0  0  0  0  0  0  0  0  0  0
  -23.3940  -28.8560   23.4010 O   0  0  0  0  0  0  0  0  0  0  0  0
  -20.8990  -29.8390   21.7570 H   0  0  0  0  0  0  0  0  0  0  0  0
  -18.0180  -28.0800   22.9280 C   0  0  0  0  0  0  0  0  0  0  0  0
  -20.5710  -28.3520   23.2200 C   0  0  0  0  0  3  0  0  0  0  0  0
  -20.6850  -26.9180   22.6560 C   0  0  0  0  0  2  0  0  0  0  0  0
  -19.5920  -26.5810   21.6350 C   0  0  0  0  0  2  0  0  0  0  0  0
  -18.2050  -26.7260   22.2660 C   0  0  0  0  0  2  0  0  0  0  0  0
  -19.1290  -28.8500   23.3620 C   0  0  0  0  0  0  0  0  0  0  0  0
  -18.9010  -30.1190   23.9390 C   0  0  0  0  0  3  0  0  0  0  0  0
  -17.5940  -30.6190   24.0870 C   0  0  0  0  0  3  0  0  0  0  0  0
  -16.4950  -29.8450   23.6710 C   0  0  0  0  0  3  0  0  0  0  0  0
  -16.7080  -28.5780   23.0990 C   0  0  0  0  0  3  0  0  0  0  0  0
  -25.8400  -32.5450   23.8780 C   0  0  0  0  0  3  0  0  0  0  0  0
  -26.3540  -31.7850   25.1610 C   0  0  1  0  0  0  0  0  0  0  0  0
  -25.2590  -31.5520   26.2270 C   0  0  0  0  0  1  0  0  0  0  0  0
  -26.9430  -30.4070   24.7790 C   0  0  0  0  0  1  0  0  0  0  0  0
  -27.5010  -32.5860   25.8210 C   0  0  0  0  0  1  0  0  0  0  0  0
  -25.5300  -33.9460   24.1890 N   0  0  0  0  0  0  0  0  0  0  0  0
  -25.8690  -34.9890   23.4200 C   0  0  0  0  0  0  0  0  0  0  0  0
  -26.5480  -34.8720   22.3960 O   0  0  0  0  0  0  0  0  0  0  0  0
  -24.9290  -34.1110   24.9830 H   0  0  0  0  0  0  0  0  0  0  0  0
  -24.1430  -36.7740   23.0320 C   0  0  0  0  0  1  0  0  0  0  0  0
  -25.3790  -36.3810   23.8560 C   0  0  0  0  0  3  0  0  0  0  0  0
  -27.5100  -37.2770   24.6840 C   0  0  0  0  0  1  0  0  0  0  0  0
  -26.4110  -37.4350   23.7350 N   0  0  0  0  0  0  0  0  0  0  0  0
  -26.0040  -38.3570   23.8740 H   0  0  0  0  0  0  0  0  0  0  0  0
  -28.8830  -20.5480   20.8580 C   0  0  0  0  0  2  0  0  0  0  0  0
  -30.0430  -19.5970   20.5100 C   0  0  0  0  0  2  0  0  0  0  0  0
  -29.9370  -18.2190   21.1950 C   0  0  0  0  0  2  0  0  0  0  0  0
  -31.2580  -17.4330   21.1160 C   0  0  0  0  0  2  0  0  0  0  0  0
  -31.2580  -16.0990   21.8910 C   0  0  0  0  0  2  0  0  0  0  0  0
  -30.7440  -14.3250   20.2230 C   0  0  0  0  0  0  0  0  0  0  0  0
  -30.2550  -12.2960   18.9080 C   0  0  0  0  0  2  0  0  0  0  0  0
  -29.2580  -12.5730   17.7690 C   0  0  0  0  0  2  0  0  0  0  0  0
  -27.8090  -12.4440   18.2720 C   0  0  0  0  0  2  0  0  0  0  0  0
  -27.5600  -13.2460   19.5760 C   0  0  0  0  0  3  0  0  0  0  0  0
  -28.6580  -12.9580   20.6230 C   0  0  0  0  0  2  0  0  0  0  0  0
  -29.9710  -13.2300   20.0080 N   0  0  0  0  0  0  0  0  0  0  0  0
  -31.7300  -14.6010   19.5330 O   0  0  0  0  0  0  0  0  0  0  0  0
  -30.4190  -15.0610   21.2930 N   0  0  0  0  0  0  0  0  0  0  0  0
  -29.6030  -14.7680   21.8120 H   0  0  0  0  0  0  0  0  0  0  0  0
  -25.2000  -13.8810   20.3870 C   0  0  0  0  0  0  0  0  0  0  0  0
  -24.1380  -13.1200   20.8010 C   0  0  0  0  0  0  0  0  0  0  0  0
  -24.5800  -11.7630   20.7440 C   0  0  0  0  0  0  0  0  0  0  0  0
  -26.2220  -12.9880   20.1100 N   0  0  0  0  0  0  0  0  0  0  0  0
  -25.8550  -11.7090   20.3800 N   0  0  0  0  0  0  0  0  0  0  0  0
  -23.8480  -10.5090   20.9640 C   0  0  0  0  0  0  0  0  0  0  0  0
  -24.3060   -9.5370   21.8790 C   0  0  0  0  0  3  0  0  0  0  0  0
  -23.5750   -8.3470   22.0870 C   0  0  0  0  0  3  0  0  0  0  0  0
  -22.3720   -8.1210   21.3760 C   0  0  0  0  0  0  0  0  0  0  0  0
  -21.9310   -9.0820   20.4490 C   0  0  0  0  0  3  0  0  0  0  0  0
  -22.6630  -10.2640   20.2410 C   0  0  0  0  0  3  0  0  0  0  0  0
  -21.6100   -6.9830   21.4930 O   0  0  0  0  0  0  0  0  0  0  0  0
  -21.5980   -6.2380   22.6450 C   0  0  0  0  0  0  0  0  0  0  0  0
  -21.2380   -6.7980   23.8900 C   0  0  0  0  0  3  0  0  0  0  0  0
  -21.1730   -5.9820   25.0360 C   0  0  0  0  0  3  0  0  0  0  0  0
  -21.4580   -4.6060   24.9400 C   0  0  0  0  0  0  0  0  0  0  0  0
  -21.8100   -4.0460   23.6990 C   0  0  0  0  0  3  0  0  0  0  0  0
  -21.8790   -4.8600   22.5550 C   0  0  0  0  0  0  0  0  0  0  0  0
  -22.1980   -4.3120   21.3580 F   0  0  0  0  0  0  0  0  0  0  0  0
  -21.3870   -3.8200   26.0380 F   0  0  0  0  0  0  0  0  0  0  0  0
  -22.7610  -13.6130   21.1370 C   0  0  0  0  0  0  0  0  0  0  0  0
  -22.0630  -12.9220   22.0320 N   0  0  0  0  0  0  0  0  0  0  0  0
  -22.3120  -14.6460   20.6410 O   0  0  0  0  0  0  0  0  0  0  0  0
  -22.4390  -12.0870   22.4540 H   0  0  0  0  0  0  0  0  0  0  0  0
  -21.1390  -13.2340   22.2980 H   0  0  0  0  0  0  0  0  0  0  0  0
  -25.3750  -15.2500   20.2070 N   0  0  0  0  0  0  0  0  0  0  0  0
  -24.6240  -15.9180   20.3500 H   0  0  0  0  0  0  0  0  0  0  0  0
  -26.2250  -15.6760   19.8580 H   0  0  0  0  0  0  0  0  0  0  0  0
  1 49  1  0
  1  4  1  0
  2  1  1  0
  3  1  1  0
  5  4  1  0
  5  7  1  0
  6  5  2  0
  8  7  1  0
  9 20  2  0
 10  8  1  0
 10 15  1  0
 11 19  1  0
 11 21  1  0
 12 18  1  0
 12 14  1  0
 13 19  1  0
 14 13  1  0
 15 14  2  0
 16 17  1  0
 16 10  2  0
 17 12  2  0
 18 11  1  0
 19  9  1  0
 21 23  2  0
 22 21  1  0
 24 22  1  0
 25 34  2  0
 25 30  1  0
 26 22  1  0
 26 30  1  0
 27 26  1  0
 28 29  1  0
 28 27  1  0
 29 25  1  0
 30 31  2  0
 31 32  1  0
 33 32  2  0
 34 33  1  0
 35  9  1  0
 35 40  1  0
 35 36  1  0
 36 39  1  1
 36 37  1  0
 38 36  1  0
 40 43  1  0
 41 45  1  0
 41 40  1  0
 42 41  2  0
 45 44  1  0
 47 45  1  0
 47 48  1  0
 47 46  1  0
 50 49  1  0
 50 51  1  0
 52 51  1  0
 52 53  1  0
 54 62  1  0
 55 60  1  0
 56 57  1  0
 56 55  1  0
 58 57  1  0
 58 67  1  0
 58 59  1  0
 60 54  1  0
 60 59  1  0
 61 54  2  0
 62 63  1  0
 62 53  1  0
 64 65  2  0
 65 84  1  0
 66 65  1  0
 66 69  1  0
 67 68  1  0
 67 64  1  0
 68 66  2  0
 69 70  1  0
 70 71  2  0
 72 75  1  0
 72 71  1  0
 73 72  2  0
 74 73  1  0
 74 69  2  0
 75 76  1  0
 76 77  1  0
 77 78  2  0
 79 78  1  0
 79 83  1  0
 80 79  2  0
 81 76  2  0
 81 80  1  0
 82 81  1  0
 84 85  1  0
 85 88  1  0
 85 87  1  0
 86 84  2  0
 89 90  1  0
 89 64  1  0
 91 89  1  0
M  ISO  4   7 101   8 101  54 100  62 100
M  END
>  <TORSDO>  (73) 
F 24

>  <SCORE>  (73) 
-12.237

>  <name>  (73) 
72

>  <ligand_id>  (73) 
72

>  <original_smiles>  (73) 
[H]c1c([H])c([H])c2c(c1[H])C([H])([H])C([H])([H])C([H])([H])C2([H])N([H])C(=O)C1([H])N(C(=O)C([H])(N([H])C(=O)C([H])(N([H])C([H])([H])[H])C([H])([H])[H])C(C([H])([H])[H])(C([H])([H])[H])C([H])([H])[H])C([H])([H])c2c([H])c(OC([H])([H])C(=O)C([H])([H])[N+]([H])([H])C([H])([H])C([H])([H])C([H])([H])C([H])([H])C([H])([H])N([H])C(=O)N3C([H])([H])C([H])([H])C([H])([H])C([H])(n4nc(-c5c([H])c([H])c(Oc6c([H])c([H])c(F)c([H])c6F)c([H])c5[H])c(C(=O)N([H])[H])c4N([H])[H])C3([H])[H])c([H])c([H])c2C1([H])[H]

>  <smiles>  (73) 
[H]c1c([H])c([H])c2c(c1[H])C([H])([H])C([H])([H])C([H])([H])C2([H])N([H])C(=O)C1([H])N(C(=O)C([H])(N([H])C(=O)C([H])(N([H])C([H])([H])[H])C([H])([H])[H])C(C([H])([H])[H])(C([H])([H])[H])C([H])([H])[H])C([H])([H])c2c([H])c(OC([H])([H])C(=O)C([H])([H])[N+]([H])([H])C([H])([H])C([H])([H])C([H])([H])C([H])([H])C([H])([H])N([H])C(=O)N3C([H])([H])C([H])([H])C([H])([H])C([H])(n4nc(-c5c([H])c([H])c(Oc6c([H])c([H])c(F)c([H])c6F)c([H])c5[H])c(C(=O)N([H])[H])c4N([H])[H])C3([H])[H])c([H])c([H])c2C1([H])[H]

$$$$
73:0:0
     RDKit          3D

 92100  0  0  1  0  0  0  0  0999 V2000
  -29.1320  -21.2840   20.6340 C   0  0  0  0  0  0  0  0  0  0  0  0
  -29.0420  -22.5260   20.0310 N   0  0  0  0  0  0  0  0  0  0  0  0
  -28.9360  -21.1860   21.8460 O   0  0  0  0  0  0  0  0  0  0  0  0
  -29.2260  -22.5480   19.0360 H   0  0  0  0  0  0  0  0  0  0  0  0
  -27.3760  -19.1660   18.9540 C   0  0  0  0  0  2  0  0  0  0  0  0
  -27.7840  -18.1460   20.0280 C   0  0  0  0  0  2  0  0  0  0  0  0
  -28.6680  -19.8680   18.5300 C   0  0  0  0  0  2  0  0  0  0  0  0
  -29.2290  -18.4890   20.4740 C   0  0  0  0  0  3  0  0  0  0  0  0
  -29.5030  -19.9530   19.8190 C   0  0  0  0  0  3  0  0  0  0  0  0
  -30.6910  -14.8090   20.1810 C   0  0  0  0  0  0  0  0  0  0  0  0
  -30.4590  -12.5020   19.2630 C   0  0  0  0  0  2  0  0  0  0  0  0
  -29.5120  -12.5440   18.0440 C   0  0  0  0  0  2  0  0  0  0  0  0
  -28.0480  -12.3860   18.4950 C   0  0  0  0  0  2  0  0  0  0  0  0
  -27.6860  -13.3100   19.6880 C   0  0  0  0  0  3  0  0  0  0  0  0
  -28.7600  -13.2680   20.8010 C   0  0  0  0  0  2  0  0  0  0  0  0
  -30.0510  -13.5900   20.1830 N   0  0  0  0  0  0  0  0  0  0  0  0
  -31.8700  -14.8570   19.8190 O   0  0  0  0  0  0  0  0  0  0  0  0
  -30.2510  -17.2890   20.1700 C   0  0  0  0  0  0  0  0  0  0  0  0
  -29.9330  -15.9530   20.3940 N   0  0  0  0  0  0  0  0  0  0  0  0
  -31.3570  -17.6270   19.7360 O   0  0  0  0  0  0  0  0  0  0  0  0
  -28.9930  -15.7830   20.7120 H   0  0  0  0  0  0  0  0  0  0  0  0
  -25.3210  -13.9120   20.4790 C   0  0  0  0  0  0  0  0  0  0  0  0
  -24.2590  -13.1440   20.8670 C   0  0  0  0  0  0  0  0  0  0  0  0
  -24.7050  -11.7900   20.8050 C   0  0  0  0  0  0  0  0  0  0  0  0
  -26.3520  -13.0280   20.2070 N   0  0  0  0  0  0  0  0  0  0  0  0
  -25.9880  -11.7440   20.4640 N   0  0  0  0  0  0  0  0  0  0  0  0
  -23.9670  -10.5340   20.9930 C   0  0  0  0  0  0  0  0  0  0  0  0
  -24.3850   -9.5670   21.9320 C   0  0  0  0  0  3  0  0  0  0  0  0
  -23.6500   -8.3750   22.1090 C   0  0  0  0  0  3  0  0  0  0  0  0
  -22.4820   -8.1420   21.3440 C   0  0  0  0  0  0  0  0  0  0  0  0
  -22.0840   -9.0980   20.3930 C   0  0  0  0  0  3  0  0  0  0  0  0
  -22.8200  -10.2800   20.2140 C   0  0  0  0  0  3  0  0  0  0  0  0
  -21.7200   -7.0030   21.4290 O   0  0  0  0  0  0  0  0  0  0  0  0
  -21.6240   -6.2840   22.5950 C   0  0  0  0  0  0  0  0  0  0  0  0
  -21.1040   -6.8520   23.7780 C   0  0  0  0  0  3  0  0  0  0  0  0
  -20.9580   -6.0580   24.9340 C   0  0  0  0  0  3  0  0  0  0  0  0
  -21.3250   -4.7000   24.9070 C   0  0  0  0  0  0  0  0  0  0  0  0
  -21.8390   -4.1330   23.7270 C   0  0  0  0  0  3  0  0  0  0  0  0
  -21.9840   -4.9220   22.5740 C   0  0  0  0  0  0  0  0  0  0  0  0
  -22.4590   -4.3650   21.4330 F   0  0  0  0  0  0  0  0  0  0  0  0
  -21.1780   -3.9360   26.0140 F   0  0  0  0  0  0  0  0  0  0  0  0
  -22.8730  -13.6320   21.1780 C   0  0  0  0  0  0  0  0  0  0  0  0
  -22.1560  -12.9300   22.0470 N   0  0  0  0  0  0  0  0  0  0  0  0
  -22.4380  -14.6730   20.6840 O   0  0  0  0  0  0  0  0  0  0  0  0
  -22.5240  -12.0920   22.4730 H   0  0  0  0  0  0  0  0  0  0  0  0
  -21.2290  -13.2390   22.3000 H   0  0  0  0  0  0  0  0  0  0  0  0
  -25.4880  -15.2810   20.3100 N   0  0  0  0  0  0  0  0  0  0  0  0
  -24.7090  -15.9220   20.4080 H   0  0  0  0  0  0  0  0  0  0  0  0
  -26.2890  -15.7000   19.8600 H   0  0  0  0  0  0  0  0  0  0  0  0
  -28.7210  -23.8760   20.6690 C   0  0  0  0  0  3  0  0  0  0  0  0
  -28.5720  -25.1740   19.7250 C   0  0  0  0  0  3  0  0  0  0  0  0
  -28.4500  -26.5560   20.2990 O   0  0  0  0  0  0  0  0  0  0  0  0
  -24.5530  -31.9100   23.2090 C   0  0  0  0  0  0  0  0  0  0  0  0
  -27.3050  -27.3780   20.1970 C   0  0  0  0  0  0  0  0  0  0  0  0
  -23.4180  -30.5180   21.5180 C   0  0  0  0  0  3  0  0  0  0  0  0
  -24.9280  -28.9930   20.1240 C   0  0  0  0  0  0  0  0  0  0  0  0
  -25.9600  -30.8540   21.4230 C   0  0  0  0  0  2  0  0  0  0  0  0
  -26.0720  -29.4800   20.7660 C   0  0  0  0  0  0  0  0  0  0  0  0
  -27.2600  -28.6850   20.7920 C   0  0  0  0  0  3  0  0  0  0  0  0
  -26.1300  -26.9500   19.5380 C   0  0  0  0  0  3  0  0  0  0  0  0
  -24.9610  -27.7360   19.5020 C   0  0  0  0  0  3  0  0  0  0  0  0
  -23.6820  -29.8570   20.1390 C   0  0  0  0  0  2  0  0  0  0  0  0
  -24.6610  -31.1120   22.1070 N   0  0  0  0  0  0  0  0  0  0  0  0
  -23.4490  -32.1720   23.7100 O   0  0  0  0  0  0  0  0  0  0  0  0
  -22.7320  -29.4870   22.4470 C   0  0  0  0  0  0  0  0  0  0  0  0
  -21.4070  -29.3200   22.2930 N   0  0  0  0  0  0  0  0  0  0  0  0
  -23.3930  -28.8400   23.2640 O   0  0  0  0  0  0  0  0  0  0  0  0
  -20.9330  -29.8930   21.6100 H   0  0  0  0  0  0  0  0  0  0  0  0
  -18.0000  -28.2030   22.7860 C   0  0  0  0  0  0  0  0  0  0  0  0
  -20.5700  -28.3720   23.0310 C   0  0  0  0  0  3  0  0  0  0  0  0
  -20.6210  -26.9670   22.3880 C   0  0  0  0  0  2  0  0  0  0  0  0
  -19.4960  -26.7260   21.3760 C   0  0  0  0  0  2  0  0  0  0  0  0
  -18.1270  -26.8820   22.0450 C   0  0  0  0  0  2  0  0  0  0  0  0
  -19.1480  -28.9090   23.2350 C   0  0  0  0  0  0  0  0  0  0  0  0
  -18.9760  -30.1490   23.8880 C   0  0  0  0  0  3  0  0  0  0  0  0
  -17.6890  -30.6810   24.0980 C   0  0  0  0  0  3  0  0  0  0  0  0
  -16.5560  -29.9700   23.6640 C   0  0  0  0  0  3  0  0  0  0  0  0
  -16.7130  -28.7330   23.0130 C   0  0  0  0  0  3  0  0  0  0  0  0
  -25.8070  -32.5510   23.8800 C   0  0  0  0  0  3  0  0  0  0  0  0
  -26.2650  -31.7940   25.1880 C   0  0  1  0  0  0  0  0  0  0  0  0
  -25.1230  -31.5650   26.2050 C   0  0  0  0  0  1  0  0  0  0  0  0
  -26.8690  -30.4150   24.8400 C   0  0  0  0  0  1  0  0  0  0  0  0
  -27.3790  -32.6000   25.8960 C   0  0  0  0  0  1  0  0  0  0  0  0
  -25.4840  -33.9530   24.1810 N   0  0  0  0  0  0  0  0  0  0  0  0
  -25.8440  -34.9980   23.4250 C   0  0  0  0  0  0  0  0  0  0  0  0
  -26.5530  -34.8840   22.4220 O   0  0  0  0  0  0  0  0  0  0  0  0
  -24.8620  -34.1160   24.9600 H   0  0  0  0  0  0  0  0  0  0  0  0
  -24.1410  -36.7930   22.9790 C   0  0  0  0  0  1  0  0  0  0  0  0
  -25.3420  -36.3910   23.8500 C   0  0  0  0  0  3  0  0  0  0  0  0
  -27.4290  -37.2840   24.7850 C   0  0  0  0  0  1  0  0  0  0  0  0
  -26.3810  -37.4420   23.7790 N   0  0  0  0  0  0  0  0  0  0  0  0
  -25.9690  -38.3640   23.8920 H   0  0  0  0  0  0  0  0  0  0  0  0
  1  3  2  0
  2  1  1  0
  2 50  1  0
  4  2  1  0
  5  6  1  0
  6  8  1  0
  7  5  1  0
  7  9  1  0
  8 18  1  0
  9  8  1  0
  9  1  1  0
 10 16  1  0
 10 19  1  0
 11 16  1  0
 12 13  1  0
 12 11  1  0
 14 13  1  0
 14 25  1  0
 14 15  1  0
 16 15  1  0
 17 10  2  0
 18 19  1  0
 19 21  1  0
 20 18  2  0
 22 23  2  0
 23 42  1  0
 24 23  1  0
 24 27  1  0
 25 26  1  0
 25 22  1  0
 26 24  2  0
 27 28  1  0
 28 29  2  0
 30 33  1  0
 30 29  1  0
 31 30  2  0
 32 31  1  0
 32 27  2  0
 33 34  1  0
 34 35  1  0
 35 36  2  0
 37 36  1  0
 37 41  1  0
 38 37  2  0
 39 34  2  0
 39 38  1  0
 40 39  1  0
 42 43  1  0
 43 46  1  0
 43 45  1  0
 44 42  2  0
 47 48  1  0
 47 22  1  0
 49 47  1  0
 51 52  1  0
 51 50  2  0
 53 64  2  0
 54 52  1  0
 54 59  1  0
 55 63  1  0
 55 65  1  0
 56 62  1  0
 56 58  1  0
 57 63  1  0
 58 59  2  0
 58 57  1  0
 60 54  2  0
 61 60  1  0
 61 56  2  0
 62 55  1  0
 63 53  1  0
 65 67  2  0
 66 65  1  0
 68 66  1  0
 69 78  2  0
 69 74  1  0
 70 66  1  0
 70 74  1  0
 71 70  1  0
 72 73  1  0
 72 71  1  0
 73 69  1  0
 74 75  2  0
 75 76  1  0
 77 76  2  0
 78 77  1  0
 79 53  1  0
 79 84  1  0
 79 80  1  0
 80 83  1  1
 80 81  1  0
 82 80  1  0
 84 87  1  0
 85 89  1  0
 85 84  1  0
 86 85  2  0
 89 88  1  0
 91 89  1  0
 91 92  1  0
 91 90  1  0
M  ISO  4  10 100  19 100  51 101  52 101
M  END
>  <TORSDO>  (74) 
F 19

>  <SCORE>  (74) 
-14.542

>  <name>  (74) 
73

>  <ligand_id>  (74) 
73

>  <original_smiles>  (74) 
[H]c1c([H])c([H])c2c(c1[H])C([H])([H])C([H])([H])C([H])([H])C2([H])N([H])C(=O)C1([H])N(C(=O)C([H])(N([H])C(=O)C([H])(N([H])C([H])([H])[H])C([H])([H])[H])C(C([H])([H])[H])(C([H])([H])[H])C([H])([H])[H])C([H])([H])c2c([H])c(OC([H])([H])C([H])([H])N([H])C(=O)C3([H])C([H])([H])C([H])([H])C([H])([H])C3([H])C(=O)N([H])C(=O)N3C([H])([H])C([H])([H])C([H])([H])C([H])(n4nc(-c5c([H])c([H])c(Oc6c([H])c([H])c(F)c([H])c6F)c([H])c5[H])c(C(=O)N([H])[H])c4N([H])[H])C3([H])[H])c([H])c([H])c2C1([H])[H]

>  <smiles>  (74) 
[H]c1c([H])c([H])c2c(c1[H])C([H])([H])C([H])([H])C([H])([H])C2([H])N([H])C(=O)C1([H])N(C(=O)C([H])(N([H])C(=O)C([H])(N([H])C([H])([H])[H])C([H])([H])[H])C(C([H])([H])[H])(C([H])([H])[H])C([H])([H])[H])C([H])([H])c2c([H])c(OC([H])([H])C([H])([H])N([H])C(=O)C3([H])C([H])([H])C([H])([H])C([H])([H])C3([H])C(=O)N([H])C(=O)N3C([H])([H])C([H])([H])C([H])([H])C([H])(n4nc(-c5c([H])c([H])c(Oc6c([H])c([H])c(F)c([H])c6F)c([H])c5[H])c(C(=O)N([H])[H])c4N([H])[H])C3([H])[H])c([H])c([H])c2C1([H])[H]

$$$$
74:0:0
     RDKit          3D

 96103  0  0  1  0  0  0  0  0999 V2000
  -32.4410  -24.0810   21.6930 C   0  0  0  0  0  2  0  0  0  0  0  0
  -31.9530  -24.8360   20.5140 N   0  0  0  0  0  4  0  0  0  0  0  0
  -32.6200  -25.5630   20.3080 H   0  0  0  0  0  0  0  0  0  0  0  0
  -31.8900  -24.2500   19.6920 H   0  0  0  0  0  0  0  0  0  0  0  0
  -30.6290  -25.4790   20.6450 C   0  0  0  0  0  2  0  0  0  0  0  0
  -29.7150  -24.9020   19.5600 C   0  0  0  0  0  0  0  0  0  0  0  0
  -30.0900  -23.9590   18.8520 O   0  0  0  0  0  0  0  0  0  0  0  0
  -28.3170  -25.5110   19.4020 C   0  0  0  0  0  2  0  0  0  0  0  0
  -28.2580  -26.7620   20.0840 O   0  0  0  0  0  0  0  0  0  0  0  0
  -24.5530  -31.9190   23.2320 C   0  0  0  0  0  0  0  0  0  0  0  0
  -27.0660  -27.4480   20.0960 C   0  0  0  0  0  0  0  0  0  0  0  0
  -23.2930  -30.5430   21.6070 C   0  0  0  0  0  3  0  0  0  0  0  0
  -24.6920  -28.9790   20.1610 C   0  0  0  0  0  0  0  0  0  0  0  0
  -25.8180  -30.8560   21.3680 C   0  0  0  0  0  2  0  0  0  0  0  0
  -25.8650  -29.4850   20.7320 C   0  0  0  0  0  0  0  0  0  0  0  0
  -27.0510  -28.7210   20.7040 C   0  0  0  0  0  3  0  0  0  0  0  0
  -25.8690  -26.9460   19.5300 C   0  0  0  0  0  3  0  0  0  0  0  0
  -24.6860  -27.7070   19.5640 C   0  0  0  0  0  3  0  0  0  0  0  0
  -23.4650  -29.8590   20.2260 C   0  0  0  0  0  2  0  0  0  0  0  0
  -24.5750  -31.1200   22.1270 N   0  0  0  0  0  0  0  0  0  0  0  0
  -23.4870  -32.2120   23.7890 O   0  0  0  0  0  0  0  0  0  0  0  0
  -22.6380  -29.5330   22.5770 C   0  0  0  0  0  0  0  0  0  0  0  0
  -21.3110  -29.3660   22.4570 N   0  0  0  0  0  0  0  0  0  0  0  0
  -23.3210  -28.9010   23.3880 O   0  0  0  0  0  0  0  0  0  0  0  0
  -20.8240  -29.9250   21.7710 H   0  0  0  0  0  0  0  0  0  0  0  0
  -17.9280  -28.2120   22.9690 C   0  0  0  0  0  0  0  0  0  0  0  0
  -20.4880  -28.4440   23.2380 C   0  0  0  0  0  3  0  0  0  0  0  0
  -20.5760  -27.0070   22.6740 C   0  0  0  0  0  2  0  0  0  0  0  0
  -19.4690  -26.6880   21.6630 C   0  0  0  0  0  2  0  0  0  0  0  0
  -18.0900  -26.8540   22.3070 C   0  0  0  0  0  2  0  0  0  0  0  0
  -19.0550  -28.9650   23.3920 C   0  0  0  0  0  0  0  0  0  0  0  0
  -18.8510  -30.2370   23.9710 C   0  0  0  0  0  3  0  0  0  0  0  0
  -17.5530  -30.7550   24.1310 C   0  0  0  0  0  3  0  0  0  0  0  0
  -16.4400  -29.9990   23.7260 C   0  0  0  0  0  3  0  0  0  0  0  0
  -16.6280  -28.7300   23.1500 C   0  0  0  0  0  3  0  0  0  0  0  0
  -25.8630  -32.5210   23.8320 C   0  0  0  0  0  3  0  0  0  0  0  0
  -25.5880  -33.9230   24.1730 N   0  0  0  0  0  0  0  0  0  0  0  0
  -25.9380  -34.9710   23.4160 C   0  0  0  0  0  0  0  0  0  0  0  0
  -26.5980  -34.8580   22.3790 O   0  0  0  0  0  0  0  0  0  0  0  0
  -25.0040  -34.0880   24.9800 H   0  0  0  0  0  0  0  0  0  0  0  0
  -24.2500  -36.8010   23.0740 C   0  0  0  0  0  1  0  0  0  0  0  0
  -25.4840  -36.3670   23.8810 C   0  0  0  0  0  3  0  0  0  0  0  0
  -27.6400  -37.1950   24.7130 C   0  0  0  0  0  1  0  0  0  0  0  0
  -26.5410  -37.3960   23.7720 N   0  0  0  0  0  0  0  0  0  0  0  0
  -26.1570  -38.3250   23.9250 H   0  0  0  0  0  0  0  0  0  0  0  0
  -26.3910  -31.7320   25.0910 C   0  0  1  0  0  0  0  0  0  0  0  0
  -25.3150  -31.5040   26.1780 C   0  0  0  0  0  1  0  0  0  0  0  0
  -26.9420  -30.3480   24.6750 C   0  0  0  0  0  1  0  0  0  0  0  0
  -27.5700  -32.4990   25.7350 C   0  0  0  0  0  1  0  0  0  0  0  0
  -32.3650  -22.5460   21.5310 C   0  0  0  0  0  2  0  0  0  0  0  0
  -30.9880  -21.9030   21.8000 C   0  0  0  0  0  2  0  0  0  0  0  0
  -31.0010  -20.4590   21.4780 N   0  0  0  0  0  4  0  0  0  0  0  0
  -30.1460  -20.2500   20.9870 H   0  0  0  0  0  0  0  0  0  0  0  0
  -31.7580  -20.2800   20.8410 H   0  0  0  0  0  0  0  0  0  0  0  0
  -31.1070  -19.5290   22.6260 C   0  0  0  0  0  2  0  0  0  0  0  0
  -31.3360  -18.0730   22.1570 C   0  0  0  0  0  2  0  0  0  0  0  0
  -30.1930  -17.4900   21.2940 C   0  0  0  0  0  2  0  0  0  0  0  0
  -30.6620  -16.4480   20.2540 C   0  0  0  0  0  2  0  0  0  0  0  0
  -31.1390  -14.0310   20.0940 C   0  0  0  0  0  0  0  0  0  0  0  0
  -30.7010  -11.8650   19.0110 C   0  0  0  0  0  2  0  0  0  0  0  0
  -29.7470  -12.0920   17.8190 C   0  0  0  0  0  2  0  0  0  0  0  0
  -28.2780  -12.0540   18.2820 C   0  0  0  0  0  2  0  0  0  0  0  0
  -28.0200  -12.9490   19.5230 C   0  0  0  0  0  3  0  0  0  0  0  0
  -29.0770  -12.6830   20.6190 C   0  0  0  0  0  2  0  0  0  0  0  0
  -30.4120  -12.8850   20.0290 N   0  0  0  0  0  0  0  0  0  0  0  0
  -32.2160  -14.1860   19.5080 O   0  0  0  0  0  0  0  0  0  0  0  0
  -30.5130  -15.0580   20.6910 N   0  0  0  0  0  0  0  0  0  0  0  0
  -29.6660  -14.8280   21.1870 H   0  0  0  0  0  0  0  0  0  0  0  0
  -25.6740  -13.7290   20.2520 C   0  0  0  0  0  0  0  0  0  0  0  0
  -24.5730  -13.0360   20.6740 C   0  0  0  0  0  0  0  0  0  0  0  0
  -24.9530  -11.6600   20.6810 C   0  0  0  0  0  0  0  0  0  0  0  0
  -26.6610  -12.7790   20.0300 N   0  0  0  0  0  0  0  0  0  0  0  0
  -26.2290  -11.5310   20.3400 N   0  0  0  0  0  0  0  0  0  0  0  0
  -24.1600  -10.4500   20.9300 C   0  0  0  0  0  0  0  0  0  0  0  0
  -24.5450   -9.4990   21.9020 C   0  0  0  0  0  3  0  0  0  0  0  0
  -23.7540   -8.3540   22.1330 C   0  0  0  0  0  3  0  0  0  0  0  0
  -22.5640   -8.1520   21.3940 C   0  0  0  0  0  0  0  0  0  0  0  0
  -22.2010   -9.0880   20.4100 C   0  0  0  0  0  3  0  0  0  0  0  0
  -22.9930  -10.2240   20.1740 C   0  0  0  0  0  3  0  0  0  0  0  0
  -21.7470   -7.0580   21.5360 O   0  0  0  0  0  0  0  0  0  0  0  0
  -21.6460   -6.3830   22.7260 C   0  0  0  0  0  0  0  0  0  0  0  0
  -21.2390   -7.0270   23.9150 C   0  0  0  0  0  3  0  0  0  0  0  0
  -21.0790   -6.2820   25.1010 C   0  0  0  0  0  3  0  0  0  0  0  0
  -21.3180   -4.8940   25.0990 C   0  0  0  0  0  0  0  0  0  0  0  0
  -21.7180   -4.2500   23.9150 C   0  0  0  0  0  3  0  0  0  0  0  0
  -21.8780   -4.9930   22.7320 C   0  0  0  0  0  0  0  0  0  0  0  0
  -22.2430   -4.3630   21.5890 F   0  0  0  0  0  0  0  0  0  0  0  0
  -21.1580   -4.1760   26.2370 F   0  0  0  0  0  0  0  0  0  0  0  0
  -23.2140  -13.6070   20.9650 C   0  0  0  0  0  0  0  0  0  0  0  0
  -22.4690  -12.9850   21.8720 N   0  0  0  0  0  0  0  0  0  0  0  0
  -22.8240  -14.6400   20.4230 O   0  0  0  0  0  0  0  0  0  0  0  0
  -22.7970  -12.1480   22.3330 H   0  0  0  0  0  0  0  0  0  0  0  0
  -21.5590  -13.3520   22.1130 H   0  0  0  0  0  0  0  0  0  0  0  0
  -25.9160  -15.0820   20.0230 N   0  0  0  0  0  0  0  0  0  0  0  0
  -25.1920  -15.7830   20.1280 H   0  0  0  0  0  0  0  0  0  0  0  0
  -26.7810  -15.4570   19.6500 H   0  0  0  0  0  0  0  0  0  0  0  0
  2  5  1  0
  2  1  1  0
  3  2  1  0
  4  2  1  0
  6  5  1  0
  7  6  2  0
  8  6  1  0
  8  9  1  0
  9 11  1  0
 10 21  2  0
 11 16  1  0
 12 20  1  0
 12 22  1  0
 13 19  1  0
 13 15  1  0
 14 20  1  0
 15 14  1  0
 16 15  2  0
 17 18  1  0
 17 11  2  0
 18 13  2  0
 19 12  1  0
 20 10  1  0
 22 24  2  0
 23 22  1  0
 25 23  1  0
 26 35  2  0
 26 31  1  0
 27 23  1  0
 27 31  1  0
 28 27  1  0
 29 30  1  0
 29 28  1  0
 30 26  1  0
 31 32  2  0
 32 33  1  0
 34 33  2  0
 35 34  1  0
 36 10  1  0
 36 37  1  0
 36 46  1  0
 37 40  1  0
 38 42  1  0
 38 37  1  0
 39 38  2  0
 42 41  1  0
 44 42  1  0
 44 45  1  0
 44 43  1  0
 46 49  1  1
 46 47  1  0
 48 46  1  0
 50  1  1  0
 50 51  1  0
 52 51  1  0
 52 55  1  0
 53 52  1  0
 54 52  1  0
 56 55  1  0
 57 56  1  0
 58 67  1  0
 58 57  1  0
 59 67  1  0
 60 65  1  0
 61 62  1  0
 61 60  1  0
 63 62  1  0
 63 72  1  0
 63 64  1  0
 65 59  1  0
 65 64  1  0
 66 59  2  0
 67 68  1  0
 69 70  2  0
 70 71  1  0
 70 89  1  0
 71 74  1  0
 72 69  1  0
 72 73  1  0
 73 71  2  0
 74 75  1  0
 75 76  2  0
 77 80  1  0
 77 76  1  0
 78 77  2  0
 79 78  1  0
 79 74  2  0
 80 81  1  0
 81 86  2  0
 81 82  1  0
 82 83  2  0
 84 83  1  0
 84 88  1  0
 85 84  2  0
 86 85  1  0
 87 86  1  0
 89 90  1  0
 90 93  1  0
 90 92  1  0
 91 89  2  0
 94 95  1  0
 94 69  1  0
 96 94  1  0
M  ISO  4   8 101   9 101  59 100  67 100
M  END
>  <TORSDO>  (75) 
F 27

>  <SCORE>  (75) 
-8.896

>  <name>  (75) 
74

>  <ligand_id>  (75) 
74

>  <original_smiles>  (75) 
[H]c1c([H])c([H])c2c(c1[H])C([H])([H])C([H])([H])C([H])([H])C2([H])N([H])C(=O)C1([H])N(C(=O)C([H])(N([H])C(=O)C([H])(N([H])C([H])([H])[H])C([H])([H])[H])C(C([H])([H])[H])(C([H])([H])[H])C([H])([H])[H])C([H])([H])c2c([H])c(OC([H])([H])C(=O)C([H])([H])[N+]([H])([H])C([H])([H])C([H])([H])C([H])([H])[N+]([H])([H])C([H])([H])C([H])([H])C([H])([H])C([H])([H])N([H])C(=O)N3C([H])([H])C([H])([H])C([H])([H])C([H])(n4nc(-c5c([H])c([H])c(Oc6c([H])c([H])c(F)c([H])c6F)c([H])c5[H])c(C(=O)N([H])[H])c4N([H])[H])C3([H])[H])c([H])c([H])c2C1([H])[H]

>  <smiles>  (75) 
[H]c1c([H])c([H])c2c(c1[H])C([H])([H])C([H])([H])C([H])([H])C2([H])N([H])C(=O)C1([H])N(C(=O)C([H])(N([H])C(=O)C([H])(N([H])C([H])([H])[H])C([H])([H])[H])C(C([H])([H])[H])(C([H])([H])[H])C([H])([H])[H])C([H])([H])c2c([H])c(OC([H])([H])C(=O)C([H])([H])[N+]([H])([H])C([H])([H])C([H])([H])C([H])([H])[N+]([H])([H])C([H])([H])C([H])([H])C([H])([H])C([H])([H])N([H])C(=O)N3C([H])([H])C([H])([H])C([H])([H])C([H])(n4nc(-c5c([H])c([H])c(Oc6c([H])c([H])c(F)c([H])c6F)c([H])c5[H])c(C(=O)N([H])[H])c4N([H])[H])C3([H])[H])c([H])c([H])c2C1([H])[H]

$$$$
75:0:0
     RDKit          3D

 94102  0  0  1  0  0  0  0  0999 V2000
  -30.8820  -21.2380   19.0450 C   0  0  0  0  0  2  0  0  0  0  0  0
  -30.6040  -22.3550   19.9760 N   0  0  0  0  0  4  0  0  0  0  0  0
  -30.1440  -21.9920   20.7960 H   0  0  0  0  0  0  0  0  0  0  0  0
  -31.4780  -22.7670   20.2620 H   0  0  0  0  0  0  0  0  0  0  0  0
  -29.7220  -23.3720   19.3530 C   0  0  0  0  0  2  0  0  0  0  0  0
  -29.6930  -24.7490   20.0470 C   0  0  0  0  0  2  0  0  0  0  0  0
  -28.4710  -25.5470   19.5550 C   0  0  0  0  0  2  0  0  0  0  0  0
  -28.4600  -26.8980   20.0180 O   0  0  0  0  0  0  0  0  0  0  0  0
  -24.5490  -31.9390   23.1460 C   0  0  0  0  0  0  0  0  0  0  0  0
  -27.2550  -27.5790   20.0010 C   0  0  0  0  0  0  0  0  0  0  0  0
  -23.3540  -30.5300   21.5010 C   0  0  0  0  0  3  0  0  0  0  0  0
  -24.8250  -29.0360   20.0510 C   0  0  0  0  0  0  0  0  0  0  0  0
  -25.8710  -30.9360   21.2890 C   0  0  0  0  0  2  0  0  0  0  0  0
  -25.9760  -29.5730   20.6380 C   0  0  0  0  0  0  0  0  0  0  0  0
  -27.1900  -28.8490   20.6160 C   0  0  0  0  0  3  0  0  0  0  0  0
  -26.0800  -27.0620   19.3990 C   0  0  0  0  0  3  0  0  0  0  0  0
  -24.8710  -27.7780   19.4320 C   0  0  0  0  0  3  0  0  0  0  0  0
  -23.5650  -29.8680   20.1140 C   0  0  0  0  0  2  0  0  0  0  0  0
  -24.6090  -31.1500   22.0360 N   0  0  0  0  0  0  0  0  0  0  0  0
  -23.4670  -32.1870   23.6960 O   0  0  0  0  0  0  0  0  0  0  0  0
  -22.7310  -29.4870   22.4570 C   0  0  0  0  0  0  0  0  0  0  0  0
  -21.4060  -29.2980   22.3540 N   0  0  0  0  0  0  0  0  0  0  0  0
  -23.4360  -28.8520   23.2470 O   0  0  0  0  0  0  0  0  0  0  0  0
  -20.8990  -29.8640   21.6880 H   0  0  0  0  0  0  0  0  0  0  0  0
  -18.0490  -28.0850   22.9060 C   0  0  0  0  0  0  0  0  0  0  0  0
  -20.6100  -28.3450   23.1260 C   0  0  0  0  0  3  0  0  0  0  0  0
  -20.7040  -26.9250   22.5210 C   0  0  0  0  0  2  0  0  0  0  0  0
  -19.5800  -26.6180   21.5260 C   0  0  0  0  0  2  0  0  0  0  0  0
  -18.2120  -26.7480   22.2030 C   0  0  0  0  0  2  0  0  0  0  0  0
  -19.1740  -28.8420   23.3260 C   0  0  0  0  0  0  0  0  0  0  0  0
  -18.9680  -30.0950   23.9420 C   0  0  0  0  0  3  0  0  0  0  0  0
  -17.6660  -30.5900   24.1460 C   0  0  0  0  0  3  0  0  0  0  0  0
  -16.5540  -29.8300   23.7430 C   0  0  0  0  0  3  0  0  0  0  0  0
  -16.7470  -28.5800   23.1290 C   0  0  0  0  0  3  0  0  0  0  0  0
  -25.8300  -32.5870   23.7600 C   0  0  0  0  0  3  0  0  0  0  0  0
  -25.4970  -33.9750   24.1090 N   0  0  0  0  0  0  0  0  0  0  0  0
  -25.8340  -35.0450   23.3770 C   0  0  0  0  0  0  0  0  0  0  0  0
  -26.5290  -34.9690   22.3590 O   0  0  0  0  0  0  0  0  0  0  0  0
  -24.8810  -34.1070   24.8970 H   0  0  0  0  0  0  0  0  0  0  0  0
  -24.1050  -36.8320   23.0000 C   0  0  0  0  0  1  0  0  0  0  0  0
  -25.3180  -36.4170   23.8480 C   0  0  0  0  0  3  0  0  0  0  0  0
  -27.4140  -37.2960   24.7780 C   0  0  0  0  0  1  0  0  0  0  0  0
  -26.3450  -37.4810   23.8000 N   0  0  0  0  0  0  0  0  0  0  0  0
  -25.9250  -38.3930   23.9580 H   0  0  0  0  0  0  0  0  0  0  0  0
  -26.3800  -31.8090   25.0170 C   0  0  1  0  0  0  0  0  0  0  0  0
  -25.3060  -31.5330   26.0950 C   0  0  0  0  0  1  0  0  0  0  0  0
  -26.9850  -30.4490   24.5960 C   0  0  0  0  0  1  0  0  0  0  0  0
  -27.5210  -32.6170   25.6780 C   0  0  0  0  0  1  0  0  0  0  0  0
  -31.4310  -19.9380   19.6930 C   0  0  0  0  0  2  0  0  0  0  0  0
  -30.9820  -16.5320   18.2890 C   0  0  0  0  0  2  0  0  0  0  0  0
  -31.6040  -18.7330   17.5840 C   0  0  0  0  0  2  0  0  0  0  0  0
  -31.1850  -17.3730   17.0340 C   0  0  0  0  0  3  0  0  0  0  0  0
  -31.3360  -17.4530   19.4680 C   0  0  0  0  0  3  0  0  0  0  0  0
  -32.2040  -16.7800   16.0520 C   0  0  0  0  0  1  0  0  0  0  0  0
  -30.9930  -18.7690   18.9160 N   0  0  0  0  0  0  0  0  0  0  0  0
  -30.6300  -17.1130   20.8140 C   0  0  0  0  0  2  0  0  0  0  0  0
  -31.0840  -14.6340   20.6670 C   0  0  0  0  0  0  0  0  0  0  0  0
  -30.7690  -12.5160   19.4610 C   0  0  0  0  0  2  0  0  0  0  0  0
  -29.8700  -12.7710   18.2320 C   0  0  0  0  0  2  0  0  0  0  0  0
  -28.3790  -12.6730   18.6110 C   0  0  0  0  0  2  0  0  0  0  0  0
  -28.0240  -13.4910   19.8810 C   0  0  0  0  0  3  0  0  0  0  0  0
  -29.0360  -13.2110   21.0180 C   0  0  0  0  0  2  0  0  0  0  0  0
  -30.3880  -13.4800   20.5020 N   0  0  0  0  0  0  0  0  0  0  0  0
  -32.2540  -14.7830   20.3050 O   0  0  0  0  0  0  0  0  0  0  0  0
  -30.3270  -15.6860   21.0060 N   0  0  0  0  0  0  0  0  0  0  0  0
  -29.3810  -15.4670   21.2790 H   0  0  0  0  0  0  0  0  0  0  0  0
  -25.6000  -14.1430   20.4640 C   0  0  0  0  0  0  0  0  0  0  0  0
  -24.5070  -13.3900   20.7960 C   0  0  0  0  0  0  0  0  0  0  0  0
  -24.9520  -12.0320   20.8120 C   0  0  0  0  0  0  0  0  0  0  0  0
  -26.6460  -13.2470   20.3030 N   0  0  0  0  0  0  0  0  0  0  0  0
  -26.2550  -11.9740   20.5680 N   0  0  0  0  0  0  0  0  0  0  0  0
  -24.2050  -10.7810   20.9890 C   0  0  0  0  0  0  0  0  0  0  0  0
  -24.5840   -9.8270   21.9600 C   0  0  0  0  0  3  0  0  0  0  0  0
  -23.8380   -8.6400   22.1250 C   0  0  0  0  0  3  0  0  0  0  0  0
  -22.7010   -8.4000   21.3190 C   0  0  0  0  0  0  0  0  0  0  0  0
  -22.3410   -9.3420   20.3390 C   0  0  0  0  0  3  0  0  0  0  0  0
  -23.0860  -10.5210   20.1740 C   0  0  0  0  0  3  0  0  0  0  0  0
  -21.9290   -7.2640   21.3910 O   0  0  0  0  0  0  0  0  0  0  0  0
  -21.8050   -6.5520   22.5560 C   0  0  0  0  0  0  0  0  0  0  0  0
  -21.3150   -7.1440   23.7410 C   0  0  0  0  0  3  0  0  0  0  0  0
  -21.1390   -6.3590   24.8990 C   0  0  0  0  0  3  0  0  0  0  0  0
  -21.4400   -4.9840   24.8710 C   0  0  0  0  0  0  0  0  0  0  0  0
  -21.9210   -4.3920   23.6900 C   0  0  0  0  0  3  0  0  0  0  0  0
  -22.1000   -5.1730   22.5360 C   0  0  0  0  0  0  0  0  0  0  0  0
  -22.5460   -4.5950   21.3940 F   0  0  0  0  0  0  0  0  0  0  0  0
  -21.2610   -4.2280   25.9790 F   0  0  0  0  0  0  0  0  0  0  0  0
  -23.1030  -13.8850   20.9940 C   0  0  0  0  0  0  0  0  0  0  0  0
  -22.3360  -13.2220   21.8500 N   0  0  0  0  0  0  0  0  0  0  0  0
  -22.6960  -14.8960   20.4230 O   0  0  0  0  0  0  0  0  0  0  0  0
  -22.6800  -12.4040   22.3320 H   0  0  0  0  0  0  0  0  0  0  0  0
  -21.3910  -13.5330   22.0280 H   0  0  0  0  0  0  0  0  0  0  0  0
  -25.7890  -15.5080   20.2670 N   0  0  0  0  0  0  0  0  0  0  0  0
  -25.0220  -16.1710   20.3130 H   0  0  0  0  0  0  0  0  0  0  0  0
  -26.6560  -15.9280   19.9550 H   0  0  0  0  0  0  0  0  0  0  0  0
  1 49  1  0
  1  2  1  0
  2  4  1  0
  2  3  1  0
  5  2  1  0
  5  6  1  0
  7  8  1  0
  7  6  1  0
  9 20  2  0
 10  8  1  0
 10 15  1  0
 11 19  1  0
 11 21  1  0
 12 18  1  0
 12 14  1  0
 13 19  1  0
 14 13  1  0
 15 14  2  0
 16 17  1  0
 16 10  2  0
 17 12  2  0
 18 11  1  0
 19  9  1  0
 21 23  2  0
 22 21  1  0
 24 22  1  0
 25 34  2  0
 25 30  1  0
 26 22  1  0
 26 30  1  0
 27 26  1  0
 28 29  1  0
 28 27  1  0
 29 25  1  0
 30 31  2  0
 31 32  1  0
 33 32  2  0
 34 33  1  0
 35  9  1  0
 35 36  1  0
 35 45  1  0
 36 39  1  0
 37 41  1  0
 37 36  1  0
 38 37  2  0
 41 40  1  0
 43 41  1  0
 43 44  1  0
 43 42  1  0
 45 48  1  1
 45 46  1  0
 47 45  1  0
 50 53  1  0
 51 55  1  0
 52 54  1  0
 52 51  1  0
 52 50  1  0
 53 56  1  0
 55 53  1  0
 55 49  1  0
 56 65  1  0
 57 65  1  0
 58 63  1  0
 59 60  1  0
 59 58  1  0
 61 60  1  0
 61 70  1  0
 61 62  1  0
 63 57  1  0
 63 62  1  0
 64 57  2  0
 65 66  1  0
 67 68  2  0
 68 69  1  0
 68 87  1  0
 69 72  1  0
 70 67  1  0
 70 71  1  0
 71 69  2  0
 72 73  1  0
 73 74  2  0
 75 78  1  0
 75 74  1  0
 76 75  2  0
 77 76  1  0
 77 72  2  0
 78 79  1  0
 79 80  1  0
 80 81  2  0
 82 81  1  0
 82 86  1  0
 83 82  2  0
 84 79  2  0
 84 83  1  0
 85 84  1  0
 87 88  1  0
 88 91  1  0
 88 90  1  0
 89 87  2  0
 92 93  1  0
 92 67  1  0
 94 92  1  0
M  ISO  4   7 101   8 101  57 100  65 100
M  END
>  <TORSDO>  (76) 
F 23

>  <SCORE>  (76) 
-12.246

>  <name>  (76) 
75

>  <ligand_id>  (76) 
75

>  <original_smiles>  (76) 
[H]c1c([H])c([H])c2c(c1[H])C([H])([H])C([H])([H])C([H])([H])C2([H])N([H])C(=O)C1([H])N(C(=O)C([H])(N([H])C(=O)C([H])(N([H])C([H])([H])[H])C([H])([H])[H])C(C([H])([H])[H])(C([H])([H])[H])C([H])([H])[H])C([H])([H])c2c([H])c(OC([H])([H])C([H])([H])C([H])([H])[N+]([H])([H])C([H])([H])C([H])([H])N3C([H])([H])C([H])(C([H])([H])[H])C([H])([H])C3([H])C([H])([H])N([H])C(=O)N3C([H])([H])C([H])([H])C([H])([H])C([H])(n4nc(-c5c([H])c([H])c(Oc6c([H])c([H])c(F)c([H])c6F)c([H])c5[H])c(C(=O)N([H])[H])c4N([H])[H])C3([H])[H])c([H])c([H])c2C1([H])[H]

>  <smiles>  (76) 
[H]c1c([H])c([H])c2c(c1[H])C([H])([H])C([H])([H])C([H])([H])C2([H])N([H])C(=O)C1([H])N(C(=O)C([H])(N([H])C(=O)C([H])(N([H])C([H])([H])[H])C([H])([H])[H])C(C([H])([H])[H])(C([H])([H])[H])C([H])([H])[H])C([H])([H])c2c([H])c(OC([H])([H])C([H])([H])C([H])([H])[N+]([H])([H])C([H])([H])C([H])([H])N3C([H])([H])C([H])(C([H])([H])[H])C([H])([H])C3([H])C([H])([H])N([H])C(=O)N3C([H])([H])C([H])([H])C([H])([H])C([H])(n4nc(-c5c([H])c([H])c(Oc6c([H])c([H])c(F)c([H])c6F)c([H])c5[H])c(C(=O)N([H])[H])c4N([H])[H])C3([H])[H])c([H])c([H])c2C1([H])[H]

$$$$
76:0:0
     RDKit          3D

 94102  0  0  1  0  0  0  0  0999 V2000
  -27.9930  -18.4290   20.7890 C   0  0  0  0  0  3  0  0  0  0  0  0
  -28.6220  -17.2480   20.6970 C   0  0  0  0  0  3  0  0  0  0  0  0
  -28.5860  -19.6170   20.3030 C   0  0  0  0  0  3  0  0  0  0  0  0
  -30.7650  -18.4720   20.2490 C   0  0  0  0  0  2  0  0  0  0  0  0
  -30.0090  -17.1310   20.1040 C   0  0  0  0  0  3  0  0  0  0  0  0
  -29.9050  -19.6500   19.9690 N   0  0  0  0  0  0  0  0  0  0  0  0
  -27.8170  -20.7140   20.1900 N   0  0  0  0  0  0  0  0  0  0  0  0
  -26.8330  -20.6780   20.4080 H   0  0  0  0  0  0  0  0  0  0  0  0
  -28.1900  -21.5880   19.8540 H   0  0  0  0  0  0  0  0  0  0  0  0
  -30.7770  -15.9020   20.6590 C   0  0  0  0  0  2  0  0  0  0  0  0
  -31.4470  -13.6720   19.7820 C   0  0  0  0  0  0  0  0  0  0  0  0
  -31.1130  -11.2740   19.3080 C   0  0  0  0  0  2  0  0  0  0  0  0
  -30.1770  -11.1410   18.0880 C   0  0  0  0  0  2  0  0  0  0  0  0
  -28.6970  -11.1820   18.5170 C   0  0  0  0  0  2  0  0  0  0  0  0
  -28.3810  -12.3560   19.4830 C   0  0  0  0  0  3  0  0  0  0  0  0
  -29.4250  -12.4450   20.6180 C   0  0  0  0  0  2  0  0  0  0  0  0
  -30.7570  -12.5210   19.9950 N   0  0  0  0  0  0  0  0  0  0  0  0
  -32.5930  -13.7080   19.3310 O   0  0  0  0  0  0  0  0  0  0  0  0
  -30.6770  -14.7710   19.7340 N   0  0  0  0  0  0  0  0  0  0  0  0
  -30.6330  -15.0990   18.7790 H   0  0  0  0  0  0  0  0  0  0  0  0
  -26.0900  -13.2780   20.2170 C   0  0  0  0  0  0  0  0  0  0  0  0
  -24.9540  -12.6580   20.6590 C   0  0  0  0  0  0  0  0  0  0  0  0
  -25.2540  -11.2600   20.6770 C   0  0  0  0  0  0  0  0  0  0  0  0
  -27.0200  -12.2690   20.0060 N   0  0  0  0  0  0  0  0  0  0  0  0
  -26.5190  -11.0530   20.3390 N   0  0  0  0  0  0  0  0  0  0  0  0
  -24.3920  -10.1030   20.9470 C   0  0  0  0  0  0  0  0  0  0  0  0
  -24.6870   -9.1850   21.9810 C   0  0  0  0  0  3  0  0  0  0  0  0
  -23.8320   -8.0900   22.2320 C   0  0  0  0  0  3  0  0  0  0  0  0
  -22.6690   -7.9060   21.4550 C   0  0  0  0  0  0  0  0  0  0  0  0
  -22.3890   -8.8110   20.4150 C   0  0  0  0  0  3  0  0  0  0  0  0
  -23.2410   -9.8970   20.1610 C   0  0  0  0  0  3  0  0  0  0  0  0
  -21.7960   -6.8530   21.6090 O   0  0  0  0  0  0  0  0  0  0  0  0
  -21.6240   -6.2380   22.8210 C   0  0  0  0  0  0  0  0  0  0  0  0
  -21.1530   -6.9360   23.9540 C   0  0  0  0  0  3  0  0  0  0  0  0
  -20.9230   -6.2460   25.1620 C   0  0  0  0  0  3  0  0  0  0  0  0
  -21.1550   -4.8580   25.2360 C   0  0  0  0  0  0  0  0  0  0  0  0
  -21.6190   -4.1640   24.1070 C   0  0  0  0  0  3  0  0  0  0  0  0
  -21.8530   -4.8490   22.9030 C   0  0  0  0  0  0  0  0  0  0  0  0
  -22.2810   -4.1710   21.8130 F   0  0  0  0  0  0  0  0  0  0  0  0
  -20.9270   -4.1910   26.3930 F   0  0  0  0  0  0  0  0  0  0  0  0
  -23.6310  -13.3080   20.9410 C   0  0  0  0  0  0  0  0  0  0  0  0
  -22.8550  -12.7510   21.8630 N   0  0  0  0  0  0  0  0  0  0  0  0
  -23.2960  -14.3520   20.3810 O   0  0  0  0  0  0  0  0  0  0  0  0
  -23.1320  -11.9050   22.3350 H   0  0  0  0  0  0  0  0  0  0  0  0
  -21.9610  -13.1690   22.0890 H   0  0  0  0  0  0  0  0  0  0  0  0
  -26.3980  -14.6080   19.9500 N   0  0  0  0  0  0  0  0  0  0  0  0
  -25.6940  -15.3340   20.0050 H   0  0  0  0  0  0  0  0  0  0  0  0
  -27.2520  -14.9120   19.5010 H   0  0  0  0  0  0  0  0  0  0  0  0
  -30.5540  -20.8630   19.4180 C   0  0  0  0  0  2  0  0  0  0  0  0
  -29.7600  -21.4990   18.2460 C   0  0  0  0  0  2  0  0  0  0  0  0
  -30.1180  -22.9760   17.9740 C   0  0  0  0  0  2  0  0  0  0  0  0
  -29.0860  -23.6910   17.0720 C   0  0  0  0  0  2  0  0  0  0  0  0
  -29.2630  -25.2220   17.0230 C   0  0  0  0  0  2  0  0  0  0  0  0
  -28.2840  -25.8170   16.1700 O   0  0  0  0  0  0  0  0  0  0  0  0
  -25.3830  -28.0830   22.2610 C   0  0  0  0  0  0  0  0  0  0  0  0
  -27.1870  -26.3210   16.8220 C   0  0  0  0  0  0  0  0  0  0  0  0
  -23.8220  -27.7830   20.3640 C   0  0  0  0  0  3  0  0  0  0  0  0
  -24.9090  -27.4000   18.0870 C   0  0  0  0  0  0  0  0  0  0  0  0
  -26.2800  -28.3450   19.9540 C   0  0  0  0  0  2  0  0  0  0  0  0
  -26.1780  -27.5720   18.6580 C   0  0  0  0  0  0  0  0  0  0  0  0
  -27.3210  -27.0340   18.0310 C   0  0  0  0  0  3  0  0  0  0  0  0
  -25.9110  -26.1600   16.2500 C   0  0  0  0  0  3  0  0  0  0  0  0
  -24.7690  -26.6920   16.8790 C   0  0  0  0  0  3  0  0  0  0  0  0
  -23.7410  -28.0100   18.8280 C   0  0  0  0  0  2  0  0  0  0  0  0
  -25.1910  -28.0490   20.9120 N   0  0  0  0  0  0  0  0  0  0  0  0
  -24.4370  -27.9360   23.0460 O   0  0  0  0  0  0  0  0  0  0  0  0
  -23.3040  -26.3630   20.6790 C   0  0  0  0  0  0  0  0  0  0  0  0
  -21.9890  -26.1530   20.5030 N   0  0  0  0  0  0  0  0  0  0  0  0
  -24.0790  -25.4750   21.0470 O   0  0  0  0  0  0  0  0  0  0  0  0
  -21.4170  -26.9330   20.2110 H   0  0  0  0  0  0  0  0  0  0  0  0
  -18.8070  -24.4950   20.0900 C   0  0  0  0  0  0  0  0  0  0  0  0
  -21.2880  -24.8860   20.7030 C   0  0  0  0  0  3  0  0  0  0  0  0
  -21.6180  -23.8840   19.5740 C   0  0  0  0  0  2  0  0  0  0  0  0
  -20.6170  -23.9270   18.4150 C   0  0  0  0  0  2  0  0  0  0  0  0
  -19.2030  -23.6170   18.9160 C   0  0  0  0  0  2  0  0  0  0  0  0
  -19.7860  -25.1040   20.9200 C   0  0  0  0  0  0  0  0  0  0  0  0
  -19.3630  -25.9410   21.9770 C   0  0  0  0  0  3  0  0  0  0  0  0
  -17.9950  -26.1690   22.2110 C   0  0  0  0  0  3  0  0  0  0  0  0
  -17.0280  -25.5530   21.3960 C   0  0  0  0  0  3  0  0  0  0  0  0
  -17.4360  -24.7150   20.3420 C   0  0  0  0  0  3  0  0  0  0  0  0
  -26.7950  -28.3300   22.8810 C   0  0  0  0  0  3  0  0  0  0  0  0
  -26.6050  -29.0180   24.1640 N   0  0  0  0  0  0  0  0  0  0  0  0
  -26.8800  -30.3130   24.3790 C   0  0  0  0  0  0  0  0  0  0  0  0
  -27.4000  -31.0370   23.5250 O   0  0  0  0  0  0  0  0  0  0  0  0
  -26.1350  -28.5000   24.8920 H   0  0  0  0  0  0  0  0  0  0  0  0
  -25.2310  -31.7180   25.6520 C   0  0  0  0  0  1  0  0  0  0  0  0
  -26.5240  -30.8940   25.7600 C   0  0  0  0  0  3  0  0  0  0  0  0
  -28.7770  -30.9570   26.7340 C   0  0  0  0  0  1  0  0  0  0  0  0
  -27.5990  -31.7270   26.3430 N   0  0  0  0  0  0  0  0  0  0  0  0
  -27.2610  -32.2280   27.1600 H   0  0  0  0  0  0  0  0  0  0  0  0
  -27.6270  -27.0030   23.0800 C   0  0  1  0  0  0  0  0  0  0  0  0
  -26.8620  -25.9020   23.8510 C   0  0  0  0  0  1  0  0  0  0  0  0
  -28.0500  -26.4160   21.7130 C   0  0  0  0  0  1  0  0  0  0  0  0
  -28.9320  -27.3090   23.8510 C   0  0  0  0  0  1  0  0  0  0  0  0
  2  1  2  0
  3  7  1  0
  3  1  1  0
  5  4  1  0
  5 10  1  0
  5  2  1  0
  6  4  1  0
  6  3  1  0
  7  8  1  0
  9  7  1  0
 11 17  1  0
 12 17  1  0
 13 14  1  0
 13 12  1  0
 15 14  1  0
 15 24  1  0
 15 16  1  0
 17 16  1  0
 18 11  2  0
 19 11  1  0
 19 10  1  0
 20 19  1  0
 21 22  2  0
 22 23  1  0
 22 41  1  0
 23 26  1  0
 24 21  1  0
 24 25  1  0
 25 23  2  0
 26 27  1  0
 27 28  2  0
 29 32  1  0
 29 28  1  0
 30 29  2  0
 31 30  1  0
 31 26  2  0
 32 33  1  0
 33 38  2  0
 33 34  1  0
 34 35  2  0
 35 36  1  0
 36 40  1  0
 37 36  2  0
 38 37  1  0
 39 38  1  0
 41 42  1  0
 42 45  1  0
 42 44  1  0
 43 41  2  0
 46 47  1  0
 46 21  1  0
 48 46  1  0
 49  6  1  0
 50 49  1  0
 51 50  1  0
 52 51  1  0
 53 52  1  0
 54 56  1  0
 54 53  1  0
 55 66  2  0
 56 61  1  0
 57 67  1  0
 57 65  1  0
 58 60  1  0
 58 64  1  0
 59 65  1  0
 60 59  1  0
 61 60  2  0
 62 56  2  0
 62 63  1  0
 63 58  2  0
 64 57  1  0
 65 55  1  0
 67 69  2  0
 68 67  1  0
 70 68  1  0
 71 80  2  0
 71 76  1  0
 72 68  1  0
 72 76  1  0
 73 72  1  0
 74 75  1  0
 74 73  1  0
 75 71  1  0
 76 77  2  0
 77 78  1  0
 79 78  2  0
 80 79  1  0
 81 55  1  0
 81 91  1  0
 81 82  1  0
 82 83  1  0
 82 85  1  0
 83 87  1  0
 84 83  2  0
 87 86  1  0
 87 89  1  0
 89 88  1  0
 89 90  1  0
 91 94  1  1
 91 92  1  0
 93 91  1  0
M  ISO  4  11 100  19 100  53 101  54 101
M  END
>  <TORSDO>  (77) 
F 22

>  <SCORE>  (77) 
-9.008

>  <name>  (77) 
76

>  <ligand_id>  (77) 
76

>  <original_smiles>  (77) 
[H]C1=C([H])C([H])(C([H])([H])N([H])C(=O)N2C([H])([H])C([H])([H])C([H])([H])C([H])(n3nc(-c4c([H])c([H])c(Oc5c([H])c([H])c(F)c([H])c5F)c([H])c4[H])c(C(=O)N([H])[H])c3N([H])[H])C2([H])[H])C([H])([H])N(C([H])([H])C([H])([H])C([H])([H])C([H])([H])C([H])([H])Oc2c([H])c([H])c3c(c2[H])C([H])([H])N(C(=O)C([H])(N([H])C(=O)C([H])(N([H])C([H])([H])[H])C([H])([H])[H])C(C([H])([H])[H])(C([H])([H])[H])C([H])([H])[H])C([H])(C(=O)N([H])C2([H])c4c([H])c([H])c([H])c([H])c4C([H])([H])C([H])([H])C2([H])[H])C3([H])[H])C1=[N+]([H])[H]

>  <smiles>  (77) 
[H]C1=C([H])C([H])(C([H])([H])N([H])C(=O)N2C([H])([H])C([H])([H])C([H])([H])C([H])(n3nc(-c4c([H])c([H])c(Oc5c([H])c([H])c(F)c([H])c5F)c([H])c4[H])c(C(=O)N([H])[H])c3N([H])[H])C2([H])[H])C([H])([H])N(C([H])([H])C([H])([H])C([H])([H])C([H])([H])C([H])([H])Oc2c([H])c([H])c3c(c2[H])C([H])([H])N(C(=O)C([H])(N([H])C(=O)C([H])(N([H])C([H])([H])[H])C([H])([H])[H])C(C([H])([H])[H])(C([H])([H])[H])C([H])([H])[H])C([H])(C(=O)N([H])C2([H])c4c([H])c([H])c([H])c([H])c4C([H])([H])C([H])([H])C2([H])[H])C3([H])[H])C1=[N+]([H])[H]

$$$$
77:0:0
     RDKit          3D

 93101  0  0  1  0  0  0  0  0999 V2000
  -27.6230  -22.2600   20.8480 N   0  0  0  0  0  4  0  0  0  0  0  0
  -26.8210  -21.6540   20.8790 H   0  0  0  0  0  0  0  0  0  0  0  0
  -27.8390  -22.3930   19.8730 H   0  0  0  0  0  0  0  0  0  0  0  0
  -28.7140  -21.5060   21.5310 C   0  0  0  0  0  2  0  0  0  0  0  0
  -28.8630  -20.0550   20.9840 C   0  0  0  0  0  3  0  0  0  0  0  0
  -30.1670  -19.3160   21.4180 C   0  0  0  0  0  3  0  0  0  0  0  0
  -30.2410  -17.8130   21.0550 C   0  0  0  0  0  0  0  0  0  0  0  0
  -29.4740  -17.0200   21.6030 O   0  0  0  0  0  0  0  0  0  0  0  0
  -31.8440  -14.9050   20.1430 C   0  0  0  0  0  0  0  0  0  0  0  0
  -31.5180  -12.5940   19.3760 C   0  0  0  0  0  2  0  0  0  0  0  0
  -30.6260  -12.6010   18.1130 C   0  0  0  0  0  2  0  0  0  0  0  0
  -29.1260  -12.6800   18.4760 C   0  0  0  0  0  2  0  0  0  0  0  0
  -28.7850  -13.6860   19.6120 C   0  0  0  0  0  3  0  0  0  0  0  0
  -29.7950  -13.5980   20.7730 C   0  0  0  0  0  2  0  0  0  0  0  0
  -31.1350  -13.7480   20.1980 N   0  0  0  0  0  0  0  0  0  0  0  0
  -33.0750  -14.9300   20.1130 O   0  0  0  0  0  0  0  0  0  0  0  0
  -31.3020  -17.3360   17.5430 C   0  0  0  0  0  2  0  0  0  0  0  0
  -30.8270  -18.1610   18.7050 C   0  0  0  0  0  2  0  0  0  0  0  0
  -31.1970  -15.9130   18.0710 C   0  0  0  0  0  2  0  0  0  0  0  0
  -31.2600  -17.3790   19.9640 C   0  0  0  0  0  3  0  0  0  0  0  0
  -31.1840  -15.9440   19.5530 N   0  0  0  0  0  0  0  0  0  0  0  0
  -26.4380  -14.5040   20.2590 C   0  0  0  0  0  0  0  0  0  0  0  0
  -25.2960  -13.8280   20.5900 C   0  0  0  0  0  0  0  0  0  0  0  0
  -25.6420  -12.4420   20.5940 C   0  0  0  0  0  0  0  0  0  0  0  0
  -27.4090  -13.5320   20.0710 N   0  0  0  0  0  0  0  0  0  0  0  0
  -26.9350  -12.2900   20.3380 N   0  0  0  0  0  0  0  0  0  0  0  0
  -24.8110  -11.2470   20.7730 C   0  0  0  0  0  0  0  0  0  0  0  0
  -25.1110  -10.2810   21.7600 C   0  0  0  0  0  3  0  0  0  0  0  0
  -24.2850   -9.1480   21.9250 C   0  0  0  0  0  3  0  0  0  0  0  0
  -23.1460   -8.9750   21.1050 C   0  0  0  0  0  0  0  0  0  0  0  0
  -22.8660   -9.9270   20.1080 C   0  0  0  0  0  3  0  0  0  0  0  0
  -23.6910  -11.0510   19.9400 C   0  0  0  0  0  3  0  0  0  0  0  0
  -22.3000   -7.8950   21.1780 O   0  0  0  0  0  0  0  0  0  0  0  0
  -22.0750   -7.2360   22.3600 C   0  0  0  0  0  0  0  0  0  0  0  0
  -21.5910   -7.9030   23.5070 C   0  0  0  0  0  3  0  0  0  0  0  0
  -21.3090   -7.1750   24.6780 C   0  0  0  0  0  3  0  0  0  0  0  0
  -21.4980   -5.7810   24.7050 C   0  0  0  0  0  0  0  0  0  0  0  0
  -21.9750   -5.1130   23.5640 C   0  0  0  0  0  3  0  0  0  0  0  0
  -22.2600   -5.8390   22.3930 C   0  0  0  0  0  0  0  0  0  0  0  0
  -22.6980   -5.1870   21.2910 F   0  0  0  0  0  0  0  0  0  0  0  0
  -21.2180   -5.0810   25.8300 F   0  0  0  0  0  0  0  0  0  0  0  0
  -23.9340  -14.4220   20.8060 C   0  0  0  0  0  0  0  0  0  0  0  0
  -23.1290  -13.8120   21.6680 N   0  0  0  0  0  0  0  0  0  0  0  0
  -23.5960  -15.4660   20.2470 O   0  0  0  0  0  0  0  0  0  0  0  0
  -23.4140  -12.9700   22.1450 H   0  0  0  0  0  0  0  0  0  0  0  0
  -22.2120  -14.1920   21.8570 H   0  0  0  0  0  0  0  0  0  0  0  0
  -26.7340  -15.8530   20.0910 N   0  0  0  0  0  0  0  0  0  0  0  0
  -26.0530  -16.5750   20.3000 H   0  0  0  0  0  0  0  0  0  0  0  0
  -27.6890  -16.1910   20.1300 H   0  0  0  0  0  0  0  0  0  0  0  0
  -27.1650  -23.5430   21.4660 C   0  0  0  0  0  2  0  0  0  0  0  0
  -28.0990  -24.7840   21.2980 C   0  0  0  0  0  2  0  0  0  0  0  0
  -28.2070  -25.4280   19.8850 C   0  0  0  0  0  2  0  0  0  0  0  0
  -28.2650  -26.8750   19.9260 O   0  0  0  0  0  0  0  0  0  0  0  0
  -24.5680  -32.0220   23.1930 C   0  0  0  0  0  0  0  0  0  0  0  0
  -27.0860  -27.6000   19.9620 C   0  0  0  0  0  0  0  0  0  0  0  0
  -23.3010  -30.6420   21.5730 C   0  0  0  0  0  3  0  0  0  0  0  0
  -24.7010  -29.1280   20.0760 C   0  0  0  0  0  0  0  0  0  0  0  0
  -25.8170  -31.0000   21.2930 C   0  0  0  0  0  2  0  0  0  0  0  0
  -25.8780  -29.6350   20.6370 C   0  0  0  0  0  0  0  0  0  0  0  0
  -27.0710  -28.8740   20.5850 C   0  0  0  0  0  3  0  0  0  0  0  0
  -25.8870  -27.1250   19.3830 C   0  0  0  0  0  3  0  0  0  0  0  0
  -24.6980  -27.8710   19.4510 C   0  0  0  0  0  3  0  0  0  0  0  0
  -23.4610  -29.9880   20.1770 C   0  0  0  0  0  2  0  0  0  0  0  0
  -24.5820  -31.2360   22.0790 N   0  0  0  0  0  0  0  0  0  0  0  0
  -23.5090  -32.2880   23.7760 O   0  0  0  0  0  0  0  0  0  0  0  0
  -22.6780  -29.6120   22.5430 C   0  0  0  0  0  0  0  0  0  0  0  0
  -21.3550  -29.4020   22.4380 N   0  0  0  0  0  0  0  0  0  0  0  0
  -23.3830  -29.0010   23.3530 O   0  0  0  0  0  0  0  0  0  0  0  0
  -20.8440  -29.9160   21.7300 H   0  0  0  0  0  0  0  0  0  0  0  0
  -18.0250  -28.1300   22.9510 C   0  0  0  0  0  0  0  0  0  0  0  0
  -20.5720  -28.4600   23.2330 C   0  0  0  0  0  3  0  0  0  0  0  0
  -20.7090  -27.0190   22.6870 C   0  0  0  0  0  2  0  0  0  0  0  0
  -19.6340  -26.6610   21.6530 C   0  0  0  0  0  2  0  0  0  0  0  0
  -18.2360  -26.7870   22.2670 C   0  0  0  0  0  2  0  0  0  0  0  0
  -19.1200  -28.9230   23.3860 C   0  0  0  0  0  0  0  0  0  0  0  0
  -18.8650  -30.1810   23.9730 C   0  0  0  0  0  3  0  0  0  0  0  0
  -17.5470  -30.6500   24.1340 C   0  0  0  0  0  3  0  0  0  0  0  0
  -16.4650  -29.8530   23.7190 C   0  0  0  0  0  3  0  0  0  0  0  0
  -16.7080  -28.5950   23.1320 C   0  0  0  0  0  3  0  0  0  0  0  0
  -25.8780  -32.6400   23.7750 C   0  0  0  0  0  3  0  0  0  0  0  0
  -26.4410  -31.8480   25.0200 C   0  0  1  0  0  0  0  0  0  0  0  0
  -25.3880  -31.6020   26.1230 C   0  0  0  0  0  1  0  0  0  0  0  0
  -27.0100  -30.4740   24.5900 C   0  0  0  0  0  1  0  0  0  0  0  0
  -27.6160  -32.6310   25.6510 C   0  0  0  0  0  1  0  0  0  0  0  0
  -25.5890  -34.0350   24.1320 N   0  0  0  0  0  0  0  0  0  0  0  0
  -25.9140  -35.0920   23.3760 C   0  0  0  0  0  0  0  0  0  0  0  0
  -26.5610  -34.9960   22.3300 O   0  0  0  0  0  0  0  0  0  0  0  0
  -25.0100  -34.1850   24.9440 H   0  0  0  0  0  0  0  0  0  0  0  0
  -24.1900  -36.8980   23.0850 C   0  0  0  0  0  1  0  0  0  0  0  0
  -25.4470  -36.4770   23.8620 C   0  0  0  0  0  3  0  0  0  0  0  0
  -27.6070  -37.3390   24.6490 C   0  0  0  0  0  1  0  0  0  0  0  0
  -26.4840  -37.5250   23.7350 N   0  0  0  0  0  0  0  0  0  0  0  0
  -26.0860  -38.4450   23.9060 H   0  0  0  0  0  0  0  0  0  0  0  0
  1  2  1  0
  1 50  1  0
  1  4  1  0
  3  1  1  0
  5  6  2  0
  5  4  1  0
  7  6  1  0
  7  8  2  0
  9 15  1  0
 10 15  1  0
 11 12  1  0
 11 10  1  0
 13 12  1  0
 13 25  1  0
 13 14  1  0
 15 14  1  0
 16  9  2  0
 17 19  1  0
 17 18  1  0
 18 20  1  0
 19 21  1  0
 20  7  1  0
 21 20  1  0
 21  9  1  0
 22 23  2  0
 23 24  1  0
 23 42  1  0
 24 27  1  0
 25 22  1  0
 25 26  1  0
 26 24  2  0
 27 28  1  0
 28 29  2  0
 30 33  1  0
 30 29  1  0
 31 30  2  0
 32 31  1  0
 32 27  2  0
 33 34  1  0
 34 39  2  0
 34 35  1  0
 35 36  2  0
 36 37  1  0
 37 41  1  0
 38 37  2  0
 39 38  1  0
 40 39  1  0
 42 43  1  0
 43 46  1  0
 43 45  1  0
 44 42  2  0
 47 49  1  0
 47 22  1  0
 47 48  1  0
 51 50  1  0
 52 53  1  0
 52 51  1  0
 53 55  1  0
 54 65  2  0
 55 60  1  0
 56 64  1  0
 56 66  1  0
 57 63  1  0
 57 59  1  0
 58 64  1  0
 59 58  1  0
 60 59  2  0
 61 62  1  0
 61 55  2  0
 62 57  2  0
 63 56  1  0
 64 54  1  0
 66 68  2  0
 67 66  1  0
 69 67  1  0
 70 79  2  0
 70 75  1  0
 71 67  1  0
 71 75  1  0
 72 71  1  0
 73 74  1  0
 73 72  1  0
 74 70  1  0
 75 76  2  0
 76 77  1  0
 78 77  2  0
 79 78  1  0
 80 54  1  0
 80 85  1  0
 80 81  1  0
 81 84  1  1
 81 82  1  0
 83 81  1  0
 85 88  1  0
 86 90  1  0
 86 85  1  0
 87 86  2  0
 90 89  1  0
 92 90  1  0
 92 93  1  0
 92 91  1  0
M  ISO  4   9 100  21 100  52 101  53 101
M  END
>  <TORSDO>  (78) 
F 23

>  <SCORE>  (78) 
-11.262

>  <name>  (78) 
77

>  <ligand_id>  (78) 
77

>  <original_smiles>  (78) 
[H]c1c([H])c([H])c2c(c1[H])C([H])([H])C([H])([H])C([H])([H])C2([H])N([H])C(=O)C1([H])N(C(=O)C([H])(N([H])C(=O)C([H])(N([H])C([H])([H])[H])C([H])([H])[H])C(C([H])([H])[H])(C([H])([H])[H])C([H])([H])[H])C([H])([H])c2c([H])c(OC([H])([H])C([H])([H])C([H])([H])[N+]([H])([H])C([H])([H])C([H])([H])C([H])([H])C(=O)C3([H])N(C(=O)N4C([H])([H])C([H])([H])C([H])([H])C([H])(n5nc(-c6c([H])c([H])c(Oc7c([H])c([H])c(F)c([H])c7F)c([H])c6[H])c(C(=O)N([H])[H])c5N([H])[H])C4([H])[H])C([H])([H])C([H])([H])C3([H])[H])c([H])c([H])c2C1([H])[H]

>  <smiles>  (78) 
[H]c1c([H])c([H])c2c(c1[H])C([H])([H])C([H])([H])C([H])([H])C2([H])N([H])C(=O)C1([H])N(C(=O)C([H])(N([H])C(=O)C([H])(N([H])C([H])([H])[H])C([H])([H])[H])C(C([H])([H])[H])(C([H])([H])[H])C([H])([H])[H])C([H])([H])c2c([H])c(OC([H])([H])C([H])([H])C([H])([H])[N+]([H])([H])C([H])([H])C([H])([H])C([H])([H])C(=O)C3([H])N(C(=O)N4C([H])([H])C([H])([H])C([H])([H])C([H])(n5nc(-c6c([H])c([H])c(Oc7c([H])c([H])c(F)c([H])c7F)c([H])c6[H])c(C(=O)N([H])[H])c5N([H])[H])C4([H])[H])C([H])([H])C([H])([H])C3([H])[H])c([H])c([H])c2C1([H])[H]

$$$$
78:0:0
     RDKit          3D

 87 94  0  0  1  0  0  0  0  0999 V2000
  -28.5720  -21.8660   20.2650 N   0  0  0  0  0  4  0  0  0  0  0  0
  -27.8610  -21.7250   20.9660 H   0  0  0  0  0  0  0  0  0  0  0  0
  -28.1090  -21.7550   19.3770 H   0  0  0  0  0  0  0  0  0  0  0  0
  -29.5730  -20.6410   20.3930 C   0  0  0  0  0  2  0  0  0  0  0  0
  -29.1030  -19.0140   20.3830 C   0  0  0  0  0  3  0  0  0  0  0  0
  -30.1590  -17.6960   20.4240 C   0  0  0  0  0  3  0  0  0  0  0  0
  -30.5210  -14.9810   20.3370 C   0  0  0  0  0  0  0  0  0  0  0  0
  -30.3860  -12.6420   19.3800 C   0  0  0  0  0  2  0  0  0  0  0  0
  -29.4480  -12.6130   18.1520 C   0  0  0  0  0  2  0  0  0  0  0  0
  -27.9850  -12.4040   18.5900 C   0  0  0  0  0  2  0  0  0  0  0  0
  -27.5850  -13.3160   19.7790 C   0  0  0  0  0  3  0  0  0  0  0  0
  -28.6480  -13.3180   20.9000 C   0  0  0  0  0  2  0  0  0  0  0  0
  -29.9150  -13.7290   20.2840 N   0  0  0  0  0  0  0  0  0  0  0  0
  -31.7210  -15.0450   20.0530 O   0  0  0  0  0  0  0  0  0  0  0  0
  -29.7580  -16.1690   20.4970 N   0  0  0  0  0  0  0  0  0  0  0  0
  -28.7790  -15.9980   20.6790 H   0  0  0  0  0  0  0  0  0  0  0  0
  -25.2050  -13.8790   20.5340 C   0  0  0  0  0  0  0  0  0  0  0  0
  -24.1470  -13.0960   20.9040 C   0  0  0  0  0  0  0  0  0  0  0  0
  -24.6180  -11.7480   20.8630 C   0  0  0  0  0  0  0  0  0  0  0  0
  -26.2510  -13.0080   20.2830 N   0  0  0  0  0  0  0  0  0  0  0  0
  -25.9090  -11.7210   20.5480 N   0  0  0  0  0  0  0  0  0  0  0  0
  -23.8980  -10.4800   21.0460 C   0  0  0  0  0  0  0  0  0  0  0  0
  -24.3320   -9.5120   21.9780 C   0  0  0  0  0  3  0  0  0  0  0  0
  -23.6100   -8.3110   22.1500 C   0  0  0  0  0  3  0  0  0  0  0  0
  -22.4400   -8.0700   21.3920 C   0  0  0  0  0  0  0  0  0  0  0  0
  -22.0260   -9.0280   20.4490 C   0  0  0  0  0  3  0  0  0  0  0  0
  -22.7490  -10.2200   20.2750 C   0  0  0  0  0  3  0  0  0  0  0  0
  -21.6900   -6.9220   21.4730 O   0  0  0  0  0  0  0  0  0  0  0  0
  -21.6350   -6.1790   22.6250 C   0  0  0  0  0  0  0  0  0  0  0  0
  -21.1810   -6.7270   23.8450 C   0  0  0  0  0  3  0  0  0  0  0  0
  -21.0750   -5.9090   24.9880 C   0  0  0  0  0  3  0  0  0  0  0  0
  -21.4140   -4.5450   24.9130 C   0  0  0  0  0  0  0  0  0  0  0  0
  -21.8610   -3.9970   23.6980 C   0  0  0  0  0  3  0  0  0  0  0  0
  -21.9680   -4.8120   22.5560 C   0  0  0  0  0  0  0  0  0  0  0  0
  -22.3800   -4.2730   21.3830 F   0  0  0  0  0  0  0  0  0  0  0  0
  -21.3050   -3.7570   26.0080 F   0  0  0  0  0  0  0  0  0  0  0  0
  -22.7480  -13.5650   21.1810 C   0  0  0  0  0  0  0  0  0  0  0  0
  -22.0280  -12.8640   22.0500 N   0  0  0  0  0  0  0  0  0  0  0  0
  -22.3030  -14.5870   20.6620 O   0  0  0  0  0  0  0  0  0  0  0  0
  -22.4030  -12.0370   22.4910 H   0  0  0  0  0  0  0  0  0  0  0  0
  -21.0900  -13.1590   22.2790 H   0  0  0  0  0  0  0  0  0  0  0  0
  -25.3590  -15.2510   20.3620 N   0  0  0  0  0  0  0  0  0  0  0  0
  -24.5840  -15.8960   20.4740 H   0  0  0  0  0  0  0  0  0  0  0  0
  -26.1910  -15.6960   19.9970 H   0  0  0  0  0  0  0  0  0  0  0  0
  -29.0140  -23.3920   20.3650 C   0  0  0  0  0  3  0  0  0  0  0  0
  -27.9550  -24.6840   20.1350 C   0  0  0  0  0  3  0  0  0  0  0  0
  -28.2380  -26.2140   20.2750 O   0  0  0  0  0  0  0  0  0  0  0  0
  -24.6190  -31.9100   23.2420 C   0  0  0  0  0  0  0  0  0  0  0  0
  -27.1820  -27.1950   20.2080 C   0  0  0  0  0  0  0  0  0  0  0  0
  -23.4170  -30.5250   21.5940 C   0  0  0  0  0  3  0  0  0  0  0  0
  -24.8610  -28.9490   20.1710 C   0  0  0  0  0  0  0  0  0  0  0  0
  -25.9720  -30.7790   21.4390 C   0  0  0  0  0  2  0  0  0  0  0  0
  -26.0400  -29.3890   20.7830 C   0  0  0  0  0  0  0  0  0  0  0  0
  -27.2030  -28.5310   20.7820 C   0  0  0  0  0  3  0  0  0  0  0  0
  -25.9730  -26.8550   19.5600 C   0  0  0  0  0  3  0  0  0  0  0  0
  -24.8400  -27.6950   19.5440 C   0  0  0  0  0  3  0  0  0  0  0  0
  -23.6370  -29.8500   20.2160 C   0  0  0  0  0  2  0  0  0  0  0  0
  -24.6900  -31.0940   22.1460 N   0  0  0  0  0  0  0  0  0  0  0  0
  -23.5320  -32.1990   23.7660 O   0  0  0  0  0  0  0  0  0  0  0  0
  -22.7300  -29.5190   22.5520 C   0  0  0  0  0  0  0  0  0  0  0  0
  -21.4010  -29.3580   22.4240 N   0  0  0  0  0  0  0  0  0  0  0  0
  -23.3970  -28.8850   23.3750 O   0  0  0  0  0  0  0  0  0  0  0  0
  -20.9200  -29.9220   21.7360 H   0  0  0  0  0  0  0  0  0  0  0  0
  -18.0070  -28.1930   22.9270 C   0  0  0  0  0  0  0  0  0  0  0  0
  -20.5710  -28.4260   23.1900 C   0  0  0  0  0  3  0  0  0  0  0  0
  -20.6550  -26.9960   22.6060 C   0  0  0  0  0  2  0  0  0  0  0  0
  -19.5470  -26.6910   21.5920 C   0  0  0  0  0  2  0  0  0  0  0  0
  -18.1680  -26.8470   22.2410 C   0  0  0  0  0  2  0  0  0  0  0  0
  -19.1350  -28.9410   23.3580 C   0  0  0  0  0  0  0  0  0  0  0  0
  -18.9300  -30.2010   23.9610 C   0  0  0  0  0  3  0  0  0  0  0  0
  -17.6310  -30.7130   24.1360 C   0  0  0  0  0  3  0  0  0  0  0  0
  -16.5180  -29.9620   23.7200 C   0  0  0  0  0  3  0  0  0  0  0  0
  -16.7070  -28.7040   23.1210 C   0  0  0  0  0  3  0  0  0  0  0  0
  -25.8980  -32.5370   23.8750 C   0  0  0  0  0  3  0  0  0  0  0  0
  -25.5910  -33.9360   24.2110 N   0  0  0  0  0  0  0  0  0  0  0  0
  -25.9050  -34.9930   23.4490 C   0  0  0  0  0  0  0  0  0  0  0  0
  -26.5500  -34.8930   22.4020 O   0  0  0  0  0  0  0  0  0  0  0  0
  -25.0140  -34.0880   25.0260 H   0  0  0  0  0  0  0  0  0  0  0  0
  -24.1530  -36.7780   23.1630 C   0  0  0  0  0  1  0  0  0  0  0  0
  -25.4280  -36.3810   23.9230 C   0  0  0  0  0  3  0  0  0  0  0  0
  -27.5880  -37.2830   24.6670 C   0  0  0  0  0  1  0  0  0  0  0  0
  -26.4490  -37.4390   23.7650 N   0  0  0  0  0  0  0  0  0  0  0  0
  -26.0430  -38.3580   23.9230 H   0  0  0  0  0  0  0  0  0  0  0  0
  -26.3990  -31.7620   25.1550 C   0  0  1  0  0  0  0  0  0  0  0  0
  -25.2960  -31.5320   26.2150 C   0  0  0  0  0  1  0  0  0  0  0  0
  -26.9760  -30.3790   24.7720 C   0  0  0  0  0  1  0  0  0  0  0  0
  -27.5510  -32.5490   25.8250 C   0  0  0  0  0  1  0  0  0  0  0  0
  1 45  1  0
  1  4  1  0
  1  2  1  0
  3  1  1  0
  5  4  1  0
  5  6  2  0
  6 15  1  0
  7 15  1  0
  8 13  1  0
  9 10  1  0
  9  8  1  0
 11 10  1  0
 11 20  1  0
 11 12  1  0
 13  7  1  0
 13 12  1  0
 14  7  2  0
 15 16  1  0
 17 18  2  0
 18 37  1  0
 19 18  1  0
 19 22  1  0
 20 17  1  0
 20 21  1  0
 21 19  2  0
 22 23  1  0
 23 24  2  0
 25 28  1  0
 25 24  1  0
 26 25  2  0
 27 26  1  0
 27 22  2  0
 28 29  1  0
 29 30  1  0
 30 31  2  0
 32 31  1  0
 32 36  1  0
 33 32  2  0
 34 29  2  0
 34 33  1  0
 35 34  1  0
 37 38  1  0
 38 41  1  0
 38 40  1  0
 39 37  2  0
 42 43  1  0
 42 17  1  0
 44 42  1  0
 46 47  1  0
 46 45  2  0
 48 59  2  0
 49 47  1  0
 49 54  1  0
 50 58  1  0
 50 60  1  0
 51 57  1  0
 51 53  1  0
 52 58  1  0
 53 52  1  0
 54 53  2  0
 55 49  2  0
 56 55  1  0
 56 51  2  0
 57 50  1  0
 58 48  1  0
 60 62  2  0
 61 60  1  0
 63 61  1  0
 64 73  2  0
 64 69  1  0
 65 61  1  0
 65 69  1  0
 66 65  1  0
 67 68  1  0
 67 66  1  0
 68 64  1  0
 69 70  2  0
 70 71  1  0
 72 71  2  0
 73 72  1  0
 74 48  1  0
 74 75  1  0
 74 84  1  0
 75 78  1  0
 76 80  1  0
 76 75  1  0
 77 76  2  0
 80 79  1  0
 82 80  1  0
 82 83  1  0
 82 81  1  0
 84 87  1  1
 84 85  1  0
 86 84  1  0
M  ISO  4   7 100  15 100  46 101  47 101
M  END
>  <TORSDO>  (79) 
F 21

>  <SCORE>  (79) 
-13.179

>  <name>  (79) 
78

>  <ligand_id>  (79) 
78

>  <original_smiles>  (79) 
[H]c1c([H])c([H])c2c(c1[H])C([H])([H])C([H])([H])C([H])([H])C2([H])N([H])C(=O)C1([H])N(C(=O)C([H])(N([H])C(=O)C([H])(N([H])C([H])([H])[H])C([H])([H])[H])C(C([H])([H])[H])(C([H])([H])[H])C([H])([H])[H])C([H])([H])c2c([H])c(OC([H])([H])C([H])([H])[N+]([H])([H])C([H])([H])C([H])([H])C([H])([H])N([H])C(=O)N3C([H])([H])C([H])([H])C([H])([H])C([H])(n4nc(-c5c([H])c([H])c(Oc6c([H])c([H])c(F)c([H])c6F)c([H])c5[H])c(C(=O)N([H])[H])c4N([H])[H])C3([H])[H])c([H])c([H])c2C1([H])[H]

>  <smiles>  (79) 
[H]c1c([H])c([H])c2c(c1[H])C([H])([H])C([H])([H])C([H])([H])C2([H])N([H])C(=O)C1([H])N(C(=O)C([H])(N([H])C(=O)C([H])(N([H])C([H])([H])[H])C([H])([H])[H])C(C([H])([H])[H])(C([H])([H])[H])C([H])([H])[H])C([H])([H])c2c([H])c(OC([H])([H])C([H])([H])[N+]([H])([H])C([H])([H])C([H])([H])C([H])([H])N([H])C(=O)N3C([H])([H])C([H])([H])C([H])([H])C([H])(n4nc(-c5c([H])c([H])c(Oc6c([H])c([H])c(F)c([H])c6F)c([H])c5[H])c(C(=O)N([H])[H])c4N([H])[H])C3([H])[H])c([H])c([H])c2C1([H])[H]

$$$$
79:0:0
     RDKit          3D

 90 98  0  0  1  0  0  0  0  0999 V2000
  -29.1790  -21.3240   20.1900 C   0  0  0  0  0  3  0  0  0  0  0  0
  -29.7910  -20.1930   20.9920 N   0  0  0  0  0  4  0  0  0  0  0  0
  -30.7970  -20.2860   20.9610 H   0  0  0  0  0  0  0  0  0  0  0  0
  -29.5310  -20.3490   21.9540 H   0  0  0  0  0  0  0  0  0  0  0  0
  -30.6410  -14.6240   20.0490 C   0  0  0  0  0  0  0  0  0  0  0  0
  -30.3360  -12.4270   18.9280 C   0  0  0  0  0  2  0  0  0  0  0  0
  -29.3240  -12.5990   17.7740 C   0  0  0  0  0  2  0  0  0  0  0  0
  -27.8780  -12.4480   18.2840 C   0  0  0  0  0  2  0  0  0  0  0  0
  -27.6080  -13.2640   19.5760 C   0  0  0  0  0  3  0  0  0  0  0  0
  -28.7290  -13.0750   20.6220 C   0  0  0  0  0  2  0  0  0  0  0  0
  -29.9980  -13.4170   19.9730 N   0  0  0  0  0  0  0  0  0  0  0  0
  -31.7740  -14.7690   19.5740 O   0  0  0  0  0  0  0  0  0  0  0  0
  -29.9010  -17.7690   21.8100 C   0  0  0  0  0  2  0  0  0  0  0  0
  -29.9640  -18.1750   19.3540 C   0  0  0  0  0  2  0  0  0  0  0  0
  -29.4720  -16.2760   21.5780 C   0  0  0  0  0  2  0  0  0  0  0  0
  -29.5540  -16.6760   19.1210 C   0  0  0  0  0  2  0  0  0  0  0  0
  -29.4180  -18.7520   20.6940 C   0  0  0  0  0  3  0  0  0  0  0  0
  -29.8450  -15.7350   20.2420 N   0  0  0  0  0  0  0  0  0  0  0  0
  -25.2670  -13.8510   20.4450 C   0  0  0  0  0  0  0  0  0  0  0  0
  -24.2220  -13.0660   20.8600 C   0  0  0  0  0  0  0  0  0  0  0  0
  -24.6820  -11.7180   20.7760 C   0  0  0  0  0  0  0  0  0  0  0  0
  -26.2930  -12.9740   20.1330 N   0  0  0  0  0  0  0  0  0  0  0  0
  -25.9490  -11.6860   20.3890 N   0  0  0  0  0  0  0  0  0  0  0  0
  -23.9700  -10.4480   20.9810 C   0  0  0  0  0  0  0  0  0  0  0  0
  -24.4400   -9.4810   21.8960 C   0  0  0  0  0  3  0  0  0  0  0  0
  -23.7300   -8.2770   22.0900 C   0  0  0  0  0  3  0  0  0  0  0  0
  -22.5350   -8.0330   21.3700 C   0  0  0  0  0  0  0  0  0  0  0  0
  -22.0860   -8.9890   20.4400 C   0  0  0  0  0  3  0  0  0  0  0  0
  -22.7970  -10.1840   20.2450 C   0  0  0  0  0  3  0  0  0  0  0  0
  -21.7900   -6.8830   21.4730 O   0  0  0  0  0  0  0  0  0  0  0  0
  -21.7430   -6.1610   22.6380 C   0  0  0  0  0  0  0  0  0  0  0  0
  -21.3160   -6.7330   23.8560 C   0  0  0  0  0  3  0  0  0  0  0  0
  -21.2200   -5.9320   25.0140 C   0  0  0  0  0  3  0  0  0  0  0  0
  -21.5400   -4.5620   24.9510 C   0  0  0  0  0  0  0  0  0  0  0  0
  -21.9580   -3.9910   23.7370 C   0  0  0  0  0  3  0  0  0  0  0  0
  -22.0560   -4.7880   22.5840 C   0  0  0  0  0  0  0  0  0  0  0  0
  -22.4390   -4.2280   21.4090 F   0  0  0  0  0  0  0  0  0  0  0  0
  -21.4390   -3.7910   26.0610 F   0  0  0  0  0  0  0  0  0  0  0  0
  -22.8410  -13.5350   21.2260 C   0  0  0  0  0  0  0  0  0  0  0  0
  -22.1700  -12.8200   22.1230 N   0  0  0  0  0  0  0  0  0  0  0  0
  -22.3680  -14.5640   20.7470 O   0  0  0  0  0  0  0  0  0  0  0  0
  -22.5660  -11.9850   22.5300 H   0  0  0  0  0  0  0  0  0  0  0  0
  -21.2430  -13.1080   22.4080 H   0  0  0  0  0  0  0  0  0  0  0  0
  -25.4220  -15.2220   20.2830 N   0  0  0  0  0  0  0  0  0  0  0  0
  -24.6660  -15.8760   20.4580 H   0  0  0  0  0  0  0  0  0  0  0  0
  -26.2670  -15.6680   19.9490 H   0  0  0  0  0  0  0  0  0  0  0  0
  -29.0750  -22.7130   20.9460 C   0  0  0  0  0  3  0  0  0  0  0  0
  -28.8050  -24.0260   20.0990 C   0  0  0  0  0  3  0  0  0  0  0  0
  -28.4900  -25.3250   20.9370 C   0  0  0  0  0  3  0  0  0  0  0  0
  -28.5370  -26.6140   20.2550 O   0  0  0  0  0  0  0  0  0  0  0  0
  -24.6730  -31.8810   23.2580 C   0  0  0  0  0  0  0  0  0  0  0  0
  -27.3770  -27.3780   20.2630 C   0  0  0  0  0  0  0  0  0  0  0  0
  -23.4920  -30.4460   21.6260 C   0  0  0  0  0  3  0  0  0  0  0  0
  -24.9750  -28.8980   20.2290 C   0  0  0  0  0  0  0  0  0  0  0  0
  -26.0200  -30.8130   21.4450 C   0  0  0  0  0  2  0  0  0  0  0  0
  -26.1240  -29.4290   20.8230 C   0  0  0  0  0  0  0  0  0  0  0  0
  -27.3320  -28.6800   20.8310 C   0  0  0  0  0  3  0  0  0  0  0  0
  -26.2080  -26.8720   19.6590 C   0  0  0  0  0  3  0  0  0  0  0  0
  -25.0120  -27.6200   19.6410 C   0  0  0  0  0  3  0  0  0  0  0  0
  -23.7210  -29.7500   20.2570 C   0  0  0  0  0  2  0  0  0  0  0  0
  -24.7450  -31.0650   22.1670 N   0  0  0  0  0  0  0  0  0  0  0  0
  -23.5860  -32.1480   23.7890 O   0  0  0  0  0  0  0  0  0  0  0  0
  -22.8450  -29.4330   22.5980 C   0  0  0  0  0  0  0  0  0  0  0  0
  -21.5240  -29.2280   22.4620 N   0  0  0  0  0  0  0  0  0  0  0  0
  -23.5290  -28.8300   23.4290 O   0  0  0  0  0  0  0  0  0  0  0  0
  -21.0340  -29.7650   21.7580 H   0  0  0  0  0  0  0  0  0  0  0  0
  -18.1630  -27.9850   22.9280 C   0  0  0  0  0  0  0  0  0  0  0  0
  -20.7130  -28.2890   23.2360 C   0  0  0  0  0  3  0  0  0  0  0  0
  -20.8470  -26.8500   22.6880 C   0  0  0  0  0  2  0  0  0  0  0  0
  -19.7710  -26.4940   21.6590 C   0  0  0  0  0  2  0  0  0  0  0  0
  -18.3730  -26.6320   22.2700 C   0  0  0  0  0  2  0  0  0  0  0  0
  -19.2630  -28.7710   23.3650 C   0  0  0  0  0  0  0  0  0  0  0  0
  -19.0160  -30.0410   23.9300 C   0  0  0  0  0  3  0  0  0  0  0  0
  -17.7010  -30.5230   24.0690 C   0  0  0  0  0  3  0  0  0  0  0  0
  -16.6150  -29.7320   23.6550 C   0  0  0  0  0  3  0  0  0  0  0  0
  -16.8460  -28.4670   23.0860 C   0  0  0  0  0  3  0  0  0  0  0  0
  -25.9470  -32.5330   23.8800 C   0  0  0  0  0  3  0  0  0  0  0  0
  -26.4640  -31.7790   25.1650 C   0  0  1  0  0  0  0  0  0  0  0  0
  -25.3680  -31.5440   26.2310 C   0  0  0  0  0  1  0  0  0  0  0  0
  -27.0620  -30.4040   24.7850 C   0  0  0  0  0  1  0  0  0  0  0  0
  -27.6060  -32.5890   25.8220 C   0  0  0  0  0  1  0  0  0  0  0  0
  -25.6260  -33.9310   24.1920 N   0  0  0  0  0  0  0  0  0  0  0  0
  -25.9410  -34.9760   23.4170 C   0  0  0  0  0  0  0  0  0  0  0  0
  -26.6090  -34.8670   22.3860 O   0  0  0  0  0  0  0  0  0  0  0  0
  -25.0400  -34.0920   25.0000 H   0  0  0  0  0  0  0  0  0  0  0  0
  -24.1840  -36.7310   23.0480 C   0  0  0  0  0  1  0  0  0  0  0  0
  -25.4370  -36.3630   23.8570 C   0  0  0  0  0  3  0  0  0  0  0  0
  -27.5660  -37.2880   24.6530 C   0  0  0  0  0  1  0  0  0  0  0  0
  -26.4520  -37.4290   23.7200 N   0  0  0  0  0  0  0  0  0  0  0  0
  -26.0350  -38.3460   23.8630 H   0  0  0  0  0  0  0  0  0  0  0  0
  1 47  2  0
  1  2  1  0
  2  4  1  0
  3  2  1  0
  5 18  1  0
  6 11  1  0
  7  8  1  0
  7  6  1  0
  9  8  1  0
  9 22  1  0
  9 10  1  0
 11  5  1  0
 11 10  1  0
 12  5  2  0
 14 17  1  0
 15 13  1  0
 16 14  1  0
 16 18  1  0
 17  2  1  0
 17 13  1  0
 18 15  1  0
 19 20  2  0
 20 39  1  0
 21 20  1  0
 21 24  1  0
 22 23  1  0
 22 19  1  0
 23 21  2  0
 24 25  1  0
 25 26  2  0
 27 30  1  0
 27 26  1  0
 28 27  2  0
 29 28  1  0
 29 24  2  0
 30 31  1  0
 31 32  1  0
 32 33  2  0
 34 33  1  0
 34 38  1  0
 35 34  2  0
 36 31  2  0
 36 35  1  0
 37 36  1  0
 39 40  1  0
 40 43  1  0
 40 42  1  0
 41 39  2  0
 44 19  1  0
 44 45  1  0
 46 44  1  0
 48 49  2  0
 48 47  1  0
 50 52  1  0
 50 49  1  0
 51 62  2  0
 52 57  1  0
 53 61  1  0
 53 63  1  0
 54 60  1  0
 54 56  1  0
 55 61  1  0
 56 57  2  0
 56 55  1  0
 58 52  2  0
 59 58  1  0
 59 54  2  0
 60 53  1  0
 61 51  1  0
 63 65  2  0
 64 63  1  0
 66 64  1  0
 67 76  2  0
 67 72  1  0
 68 64  1  0
 68 72  1  0
 69 68  1  0
 70 71  1  0
 70 69  1  0
 71 67  1  0
 72 73  2  0
 73 74  1  0
 75 74  2  0
 76 75  1  0
 77 51  1  0
 77 82  1  0
 77 78  1  0
 78 81  1  1
 78 79  1  0
 80 78  1  0
 82 85  1  0
 83 87  1  0
 83 82  1  0
 84 83  2  0
 87 86  1  0
 89 87  1  0
 89 90  1  0
 89 88  1  0
M  ISO  4   5 100  18 100  49 101  50 101
M  END
>  <TORSDO>  (80) 
F 20

>  <SCORE>  (80) 
-13.293

>  <name>  (80) 
79

>  <ligand_id>  (80) 
79

>  <original_smiles>  (80) 
[H]c1c([H])c([H])c2c(c1[H])C([H])([H])C([H])([H])C([H])([H])C2([H])N([H])C(=O)C1([H])N(C(=O)C([H])(N([H])C(=O)C([H])(N([H])C([H])([H])[H])C([H])([H])[H])C(C([H])([H])[H])(C([H])([H])[H])C([H])([H])[H])C([H])([H])c2c([H])c(OC([H])([H])C([H])([H])C([H])([H])C([H])([H])[N+]([H])([H])C3([H])C([H])([H])C([H])([H])N(C(=O)N4C([H])([H])C([H])([H])C([H])([H])C([H])(n5nc(-c6c([H])c([H])c(Oc7c([H])c([H])c(F)c([H])c7F)c([H])c6[H])c(C(=O)N([H])[H])c5N([H])[H])C4([H])[H])C([H])([H])C3([H])[H])c([H])c([H])c2C1([H])[H]

>  <smiles>  (80) 
[H]c1c([H])c([H])c2c(c1[H])C([H])([H])C([H])([H])C([H])([H])C2([H])N([H])C(=O)C1([H])N(C(=O)C([H])(N([H])C(=O)C([H])(N([H])C([H])([H])[H])C([H])([H])[H])C(C([H])([H])[H])(C([H])([H])[H])C([H])([H])[H])C([H])([H])c2c([H])c(OC([H])([H])C([H])([H])C([H])([H])C([H])([H])[N+]([H])([H])C3([H])C([H])([H])C([H])([H])N(C(=O)N4C([H])([H])C([H])([H])C([H])([H])C([H])(n5nc(-c6c([H])c([H])c(Oc7c([H])c([H])c(F)c([H])c7F)c([H])c6[H])c(C(=O)N([H])[H])c5N([H])[H])C4([H])[H])C([H])([H])C3([H])[H])c([H])c([H])c2C1([H])[H]

$$$$
80:0:0
     RDKit          3D

 98106  0  0  1  0  0  0  0  0999 V2000
  -29.9150  -19.3660   20.4580 C   0  0  0  0  0  2  0  0  0  0  0  0
  -28.3480  -17.8810   19.1650 C   0  0  0  0  0  2  0  0  0  0  0  0
  -28.9160  -20.4400   19.9640 C   0  0  0  0  0  2  0  0  0  0  0  0
  -27.1360  -18.7760   19.5030 C   0  0  0  0  0  2  0  0  0  0  0  0
  -29.4130  -17.9200   20.2770 C   0  0  0  0  0  3  0  0  0  0  0  0
  -27.4940  -20.0610   20.1780 N   0  0  2  0  0  4  0  0  0  0  0  0
  -27.4010  -19.8740   21.1670 H   0  0  0  0  0  0  0  0  0  0  0  0
  -26.5390  -21.1590   19.8430 C   0  0  0  0  0  2  0  0  0  0  0  0
  -26.2860  -22.1910   20.9720 C   0  0  0  0  0  2  0  0  0  0  0  0
  -27.3890  -23.2350   21.2670 C   0  0  0  0  0  2  0  0  0  0  0  0
  -27.4920  -24.4050   20.2480 C   0  0  0  0  0  2  0  0  0  0  0  0
  -28.9210  -24.9990   20.1700 C   0  0  0  0  0  2  0  0  0  0  0  0
  -29.0510  -26.5470   20.1610 C   0  0  0  0  0  2  0  0  0  0  0  0
  -28.4020  -27.1660   19.0560 O   0  0  0  0  0  0  0  0  0  0  0  0
  -24.6880  -31.6660   23.2380 C   0  0  0  0  0  0  0  0  0  0  0  0
  -27.2590  -27.8800   19.3240 C   0  0  0  0  0  0  0  0  0  0  0  0
  -23.4360  -30.5400   21.4280 C   0  0  0  0  0  3  0  0  0  0  0  0
  -24.8500  -29.3070   19.7010 C   0  0  0  0  0  0  0  0  0  0  0  0
  -25.9450  -30.9860   21.1950 C   0  0  0  0  0  2  0  0  0  0  0  0
  -26.0240  -29.7420   20.3320 C   0  0  0  0  0  0  0  0  0  0  0  0
  -27.2370  -29.0340   20.1450 C   0  0  0  0  0  3  0  0  0  0  0  0
  -26.0710  -27.4670   18.6860 C   0  0  0  0  0  3  0  0  0  0  0  0
  -24.8670  -28.1690   18.8730 C   0  0  0  0  0  3  0  0  0  0  0  0
  -23.5940  -30.1150   19.9440 C   0  0  0  0  0  2  0  0  0  0  0  0
  -24.7090  -31.0720   22.0120 N   0  0  0  0  0  0  0  0  0  0  0  0
  -23.6270  -31.8140   23.8590 O   0  0  0  0  0  0  0  0  0  0  0  0
  -22.8470  -29.3490   22.2190 C   0  0  0  0  0  0  0  0  0  0  0  0
  -21.5210  -29.1630   22.1070 N   0  0  0  0  0  0  0  0  0  0  0  0
  -23.5680  -28.6120   22.8980 O   0  0  0  0  0  0  0  0  0  0  0  0
  -21.0000  -29.8170   21.5380 H   0  0  0  0  0  0  0  0  0  0  0  0
  -18.1980  -27.7890   22.4740 C   0  0  0  0  0  0  0  0  0  0  0  0
  -20.7530  -28.0890   22.7340 C   0  0  0  0  0  3  0  0  0  0  0  0
  -20.8870  -26.7690   21.9410 C   0  0  0  0  0  2  0  0  0  0  0  0
  -19.7740  -26.5830   20.9070 C   0  0  0  0  0  2  0  0  0  0  0  0
  -18.4040  -26.5660   21.5970 C   0  0  0  0  0  2  0  0  0  0  0  0
  -19.3050  -28.5130   22.9960 C   0  0  0  0  0  0  0  0  0  0  0  0
  -19.0580  -29.6600   23.7810 C   0  0  0  0  0  3  0  0  0  0  0  0
  -17.7430  -30.0880   24.0430 C   0  0  0  0  0  3  0  0  0  0  0  0
  -16.6550  -29.3580   23.5340 C   0  0  0  0  0  3  0  0  0  0  0  0
  -16.8820  -28.2090   22.7580 C   0  0  0  0  0  3  0  0  0  0  0  0
  -25.9860  -32.2110   23.9100 C   0  0  0  0  0  3  0  0  0  0  0  0
  -26.5310  -31.2750   25.0590 C   0  0  1  0  0  0  0  0  0  0  0  0
  -25.4670  -30.8950   26.1170 C   0  0  0  0  0  1  0  0  0  0  0  0
  -27.0960  -29.9640   24.4680 C   0  0  0  0  0  1  0  0  0  0  0  0
  -27.6990  -31.9740   25.7960 C   0  0  0  0  0  1  0  0  0  0  0  0
  -25.6830  -33.5490   24.4330 N   0  0  0  0  0  0  0  0  0  0  0  0
  -26.0020  -34.6980   23.8180 C   0  0  0  0  0  0  0  0  0  0  0  0
  -26.6650  -34.7360   22.7780 O   0  0  0  0  0  0  0  0  0  0  0  0
  -25.0960  -33.5890   25.2540 H   0  0  0  0  0  0  0  0  0  0  0  0
  -24.2710  -36.5200   23.7410 C   0  0  0  0  0  1  0  0  0  0  0  0
  -25.5240  -36.0100   24.4690 C   0  0  0  0  0  3  0  0  0  0  0  0
  -27.6740  -36.7800   25.3750 C   0  0  0  0  0  1  0  0  0  0  0  0
  -26.5560  -37.0720   24.4810 N   0  0  0  0  0  0  0  0  0  0  0  0
  -26.1510  -37.9620   24.7630 H   0  0  0  0  0  0  0  0  0  0  0  0
  -30.5500  -16.8650   20.1370 C   0  0  0  0  0  3  0  0  0  0  0  0
  -30.9170  -14.6110   21.1060 C   0  0  0  0  0  0  0  0  0  0  0  0
  -30.7390  -12.2890   20.3840 C   0  0  0  0  0  2  0  0  0  0  0  0
  -29.9890  -12.2920   19.0320 C   0  0  0  0  0  2  0  0  0  0  0  0
  -28.4600  -12.2590   19.2440 C   0  0  0  0  0  2  0  0  0  0  0  0
  -27.9680  -13.2860   20.2970 C   0  0  0  0  0  3  0  0  0  0  0  0
  -28.8530  -13.2570   21.5690 C   0  0  0  0  0  2  0  0  0  0  0  0
  -30.2540  -13.4340   21.1600 N   0  0  0  0  0  0  0  0  0  0  0  0
  -32.1340  -14.7060   20.9360 O   0  0  0  0  0  0  0  0  0  0  0  0
  -30.1190  -15.6530   20.8440 N   0  0  0  0  0  0  0  0  0  0  0  0
  -29.1280  -15.4950   20.9440 H   0  0  0  0  0  0  0  0  0  0  0  0
  -25.5330  -14.0340   20.6760 C   0  0  0  0  0  0  0  0  0  0  0  0
  -24.3880  -13.3290   20.9320 C   0  0  0  0  0  0  0  0  0  0  0  0
  -24.7770  -11.9540   20.9940 C   0  0  0  0  0  0  0  0  0  0  0  0
  -26.5540  -13.0950   20.6080 N   0  0  0  0  0  0  0  0  0  0  0  0
  -26.0920  -11.8410   20.8580 N   0  0  0  0  0  0  0  0  0  0  0  0
  -23.9640  -10.7370   21.1210 C   0  0  0  0  0  0  0  0  0  0  0  0
  -24.2860   -9.7360   22.0630 C   0  0  0  0  0  3  0  0  0  0  0  0
  -23.4830   -8.5840   22.1810 C   0  0  0  0  0  3  0  0  0  0  0  0
  -22.3430   -8.4260   21.3520 C   0  0  0  0  0  0  0  0  0  0  0  0
  -22.0440   -9.4140   20.4020 C   0  0  0  0  0  3  0  0  0  0  0  0
  -22.8470  -10.5600   20.2820 C   0  0  0  0  0  3  0  0  0  0  0  0
  -21.5190   -7.3250   21.3790 O   0  0  0  0  0  0  0  0  0  0  0  0
  -21.4330   -6.5210   22.4870 C   0  0  0  0  0  0  0  0  0  0  0  0
  -21.0780   -7.0320   23.7570 C   0  0  0  0  0  3  0  0  0  0  0  0
  -20.9380   -6.1590   24.8500 C   0  0  0  0  0  3  0  0  0  0  0  0
  -21.1350   -4.7750   24.6810 C   0  0  0  0  0  0  0  0  0  0  0  0
  -21.4810   -4.2650   23.4160 C   0  0  0  0  0  3  0  0  0  0  0  0
  -21.6290   -5.1350   22.3240 C   0  0  0  0  0  0  0  0  0  0  0  0
  -21.9420   -4.6360   21.1030 F   0  0  0  0  0  0  0  0  0  0  0  0
  -20.9880   -3.9340   25.7310 F   0  0  0  0  0  0  0  0  0  0  0  0
  -22.9950  -13.8880   21.0030 C   0  0  0  0  0  0  0  0  0  0  0  0
  -22.1290  -13.2690   21.8000 N   0  0  0  0  0  0  0  0  0  0  0  0
  -22.6810  -14.9040   20.3870 O   0  0  0  0  0  0  0  0  0  0  0  0
  -22.4050  -12.4500   22.3200 H   0  0  0  0  0  0  0  0  0  0  0  0
  -21.1870  -13.6210   21.9000 H   0  0  0  0  0  0  0  0  0  0  0  0
  -25.7830  -15.3850   20.4590 N   0  0  0  0  0  0  0  0  0  0  0  0
  -24.9980  -16.0160   20.3420 H   0  0  0  0  0  0  0  0  0  0  0  0
  -26.5850  -15.6580   19.9140 H   0  0  0  0  0  0  0  0  0  0  0  0
  -30.9480  -16.4810   18.6640 C   0  0  0  0  0  2  0  0  0  0  0  0
  -31.5620  -17.5530   17.8560 N   0  0  0  0  0  4  0  0  0  0  0  0
  -30.9830  -18.3640   17.7570 H   0  0  0  0  0  0  0  0  0  0  0  0
  -31.7370  -17.2100   16.9270 H   0  0  0  0  0  0  0  0  0  0  0  0
  -32.4590  -17.8210   18.2290 H   0  0  0  0  0  0  0  0  0  0  0  0
  2  4  1  0
  2  5  1  0
  3  6  1  0
  3  1  1  0
  4  6  1  0
  5 55  1  0
  5  1  1  0
  6  7  1  1
  8  6  1  0
  8  9  1  0
  9 10  1  0
 11 10  1  0
 12 11  1  0
 13 12  1  0
 14 16  1  0
 14 13  1  0
 15 26  2  0
 16 21  1  0
 17 25  1  0
 17 27  1  0
 18 24  1  0
 18 20  1  0
 19 25  1  0
 20 19  1  0
 21 20  2  0
 22 23  1  0
 22 16  2  0
 23 18  2  0
 24 17  1  0
 25 15  1  0
 27 29  2  0
 28 27  1  0
 30 28  1  0
 31 40  2  0
 31 36  1  0
 32 28  1  0
 32 36  1  0
 33 32  1  0
 34 35  1  0
 34 33  1  0
 35 31  1  0
 36 37  2  0
 37 38  1  0
 39 38  2  0
 40 39  1  0
 41 15  1  0
 41 46  1  0
 41 42  1  0
 42 45  1  1
 42 43  1  0
 44 42  1  0
 46 49  1  0
 47 46  1  0
 47 51  1  0
 48 47  2  0
 51 50  1  0
 51 53  1  0
 53 54  1  0
 53 52  1  0
 55 94  1  0
 55 64  1  0
 56 62  1  0
 57 62  1  0
 58 59  1  0
 58 57  1  0
 60 59  1  0
 60 69  1  0
 60 61  1  0
 62 61  1  0
 63 56  2  0
 64 65  1  0
 64 56  1  0
 66 67  2  0
 67 68  1  0
 67 86  1  0
 68 71  1  0
 69 66  1  0
 69 70  1  0
 70 68  2  0
 71 72  1  0
 72 73  2  0
 74 77  1  0
 74 73  1  0
 75 74  2  0
 76 75  1  0
 76 71  2  0
 77 78  1  0
 78 79  1  0
 79 80  2  0
 81 80  1  0
 81 85  1  0
 82 81  2  0
 83 78  2  0
 83 82  1  0
 84 83  1  0
 86 87  1  0
 87 90  1  0
 87 89  1  0
 88 86  2  0
 91 66  1  0
 92 91  1  0
 93 91  1  0
 95 98  1  0
 95 94  1  0
 96 95  1  0
 97 95  1  0
M  ISO  4  13 101  14 101  56 100  64 100
M  END
>  <TORSDO>  (81) 
F 25

>  <SCORE>  (81) 
-9.632

>  <name>  (81) 
80

>  <ligand_id>  (81) 
80

>  <original_smiles>  (81) 
[H]c1c([H])c([H])c2c(c1[H])C([H])([H])C([H])([H])C([H])([H])C2([H])N([H])C(=O)C1([H])N(C(=O)C([H])(N([H])C(=O)C([H])(N([H])C([H])([H])[H])C([H])([H])[H])C(C([H])([H])[H])(C([H])([H])[H])C([H])([H])[H])C([H])([H])c2c([H])c(OC([H])([H])C([H])([H])C([H])([H])C([H])([H])C([H])([H])C([H])([H])[N+]3([H])C([H])([H])C([H])([H])C([H])(C([H])(N([H])C(=O)N4C([H])([H])C([H])([H])C([H])([H])C([H])(n5nc(-c6c([H])c([H])c(Oc7c([H])c([H])c(F)c([H])c7F)c([H])c6[H])c(C(=O)N([H])[H])c5N([H])[H])C4([H])[H])C([H])([H])[N+]([H])([H])[H])C([H])([H])C3([H])[H])c([H])c([H])c2C1([H])[H]

>  <smiles>  (81) 
[H]c1c([H])c([H])c2c(c1[H])C([H])([H])C([H])([H])C([H])([H])C2([H])N([H])C(=O)C1([H])N(C(=O)C([H])(N([H])C(=O)C([H])(N([H])C([H])([H])[H])C([H])([H])[H])C(C([H])([H])[H])(C([H])([H])[H])C([H])([H])[H])C([H])([H])c2c([H])c(OC([H])([H])C([H])([H])C([H])([H])C([H])([H])C([H])([H])C([H])([H])[N+]3([H])C([H])([H])C([H])([H])C([H])(C([H])(N([H])C(=O)N4C([H])([H])C([H])([H])C([H])([H])C([H])(n5nc(-c6c([H])c([H])c(Oc7c([H])c([H])c(F)c([H])c7F)c([H])c6[H])c(C(=O)N([H])[H])c5N([H])[H])C4([H])[H])C([H])([H])[N+]([H])([H])[H])C([H])([H])C3([H])[H])c([H])c([H])c2C1([H])[H]

$$$$
81:0:0
     RDKit          3D

 95103  0  0  1  0  0  0  0  0999 V2000
  -30.7340  -23.7020   19.3090 C   0  0  0  0  0  2  0  0  0  0  0  0
  -30.0140  -24.8160   18.6650 N   0  0  0  0  0  4  0  0  0  0  0  0
  -29.3140  -25.1560   19.3110 H   0  0  0  0  0  0  0  0  0  0  0  0
  -29.5450  -24.4900   17.8360 H   0  0  0  0  0  0  0  0  0  0  0  0
  -30.8730  -25.9600   18.3010 C   0  0  0  0  0  2  0  0  0  0  0  0
  -30.1460  -27.2970   18.4980 C   0  0  0  0  0  2  0  0  0  0  0  0
  -29.6980  -27.5160   19.9490 C   0  0  0  0  0  2  0  0  0  0  0  0
  -28.5130  -26.7440   20.1760 O   0  0  0  0  0  0  0  0  0  0  0  0
  -24.5580  -31.8170   23.2400 C   0  0  0  0  0  0  0  0  0  0  0  0
  -27.3310  -27.4480   20.2220 C   0  0  0  0  0  0  0  0  0  0  0  0
  -23.3980  -30.4050   21.5680 C   0  0  0  0  0  3  0  0  0  0  0  0
  -24.8970  -28.8760   20.1850 C   0  0  0  0  0  0  0  0  0  0  0  0
  -25.9130  -30.8000   21.4240 C   0  0  0  0  0  2  0  0  0  0  0  0
  -26.0260  -29.4270   20.8050 C   0  0  0  0  0  0  0  0  0  0  0  0
  -27.2330  -28.7100   20.8460 C   0  0  0  0  0  3  0  0  0  0  0  0
  -26.1850  -26.8860   19.6250 C   0  0  0  0  0  3  0  0  0  0  0  0
  -24.9670  -27.5950   19.6030 C   0  0  0  0  0  3  0  0  0  0  0  0
  -23.6450  -29.7180   20.1960 C   0  0  0  0  0  2  0  0  0  0  0  0
  -24.6390  -31.0190   22.1390 N   0  0  0  0  0  0  0  0  0  0  0  0
  -23.4630  -32.0820   23.7580 O   0  0  0  0  0  0  0  0  0  0  0  0
  -22.7360  -29.3790   22.5130 C   0  0  0  0  0  0  0  0  0  0  0  0
  -21.4190  -29.1820   22.3440 N   0  0  0  0  0  0  0  0  0  0  0  0
  -23.4040  -28.7650   23.3470 O   0  0  0  0  0  0  0  0  0  0  0  0
  -20.9430  -29.7310   21.6420 H   0  0  0  0  0  0  0  0  0  0  0  0
  -18.0460  -27.9600   22.7270 C   0  0  0  0  0  0  0  0  0  0  0  0
  -20.5880  -28.2380   23.0900 C   0  0  0  0  0  3  0  0  0  0  0  0
  -20.7250  -26.8070   22.5180 C   0  0  0  0  0  2  0  0  0  0  0  0
  -19.6620  -26.4730   21.4670 C   0  0  0  0  0  2  0  0  0  0  0  0
  -18.2590  -26.6110   22.0630 C   0  0  0  0  0  2  0  0  0  0  0  0
  -19.1410  -28.7320   23.1950 C   0  0  0  0  0  0  0  0  0  0  0  0
  -18.8930  -29.9980   23.7720 C   0  0  0  0  0  3  0  0  0  0  0  0
  -17.5780  -30.4880   23.8870 C   0  0  0  0  0  3  0  0  0  0  0  0
  -16.4950  -29.7110   23.4420 C   0  0  0  0  0  3  0  0  0  0  0  0
  -16.7290  -28.4500   22.8650 C   0  0  0  0  0  3  0  0  0  0  0  0
  -25.8300  -32.4500   23.8890 C   0  0  0  0  0  3  0  0  0  0  0  0
  -26.3100  -31.6980   25.1880 C   0  0  1  0  0  0  0  0  0  0  0  0
  -25.1880  -31.4800   26.2290 C   0  0  0  0  0  1  0  0  0  0  0  0
  -26.8990  -30.3150   24.8260 C   0  0  0  0  0  1  0  0  0  0  0  0
  -27.4440  -32.4990   25.8730 C   0  0  0  0  0  1  0  0  0  0  0  0
  -25.5170  -33.8530   24.1880 N   0  0  0  0  0  0  0  0  0  0  0  0
  -25.8830  -34.8910   23.4240 C   0  0  0  0  0  0  0  0  0  0  0  0
  -26.5870  -34.7690   22.4170 O   0  0  0  0  0  0  0  0  0  0  0  0
  -24.8980  -34.0220   24.9660 H   0  0  0  0  0  0  0  0  0  0  0  0
  -24.1770  -36.6840   22.9810 C   0  0  0  0  0  1  0  0  0  0  0  0
  -25.3860  -36.2860   23.8430 C   0  0  0  0  0  3  0  0  0  0  0  0
  -27.4950  -37.1750   24.7350 C   0  0  0  0  0  1  0  0  0  0  0  0
  -26.4260  -37.3340   23.7520 N   0  0  0  0  0  0  0  0  0  0  0  0
  -26.0180  -38.2550   23.8800 H   0  0  0  0  0  0  0  0  0  0  0  0
  -29.9250  -22.3960   19.2720 C   0  0  0  0  0  2  0  0  0  0  0  0
  -30.7050  -21.2250   19.8910 C   0  0  0  0  0  2  0  0  0  0  0  0
  -29.8070  -19.9950   20.1180 C   0  0  0  0  0  2  0  0  0  0  0  0
  -30.4950  -18.8110   20.8120 C   0  0  0  0  0  0  0  0  0  0  0  0
  -31.7170  -18.7890   20.9760 O   0  0  0  0  0  0  0  0  0  0  0  0
  -31.0520  -13.9250   19.8130 C   0  0  0  0  0  0  0  0  0  0  0  0
  -30.5510  -11.7360   18.8010 C   0  0  0  0  0  2  0  0  0  0  0  0
  -29.5310  -11.9370   17.6620 C   0  0  0  0  0  2  0  0  0  0  0  0
  -28.0940  -11.8510   18.2100 C   0  0  0  0  0  2  0  0  0  0  0  0
  -27.8830  -12.7720   19.4400 C   0  0  0  0  0  3  0  0  0  0  0  0
  -29.0130  -12.5920   20.4810 C   0  0  0  0  0  2  0  0  0  0  0  0
  -30.3030  -12.7880   19.7970 N   0  0  0  0  0  0  0  0  0  0  0  0
  -32.1270  -14.0330   19.2120 O   0  0  0  0  0  0  0  0  0  0  0  0
  -28.8960  -16.8900   20.1910 C   0  0  0  0  0  2  0  0  0  0  0  0
  -30.2800  -16.6580   22.2590 C   0  0  0  0  0  2  0  0  0  0  0  0
  -29.8960  -15.9810   19.4590 C   0  0  0  0  0  2  0  0  0  0  0  0
  -31.1980  -15.6720   21.4940 C   0  0  0  0  0  2  0  0  0  0  0  0
  -29.5800  -17.6780   21.3290 C   0  0  0  0  0  3  0  0  0  0  0  0
  -30.4800  -15.0030   20.3920 N   0  0  0  0  0  0  0  0  0  0  0  0
  -25.6050  -13.5350   20.3640 C   0  0  0  0  0  0  0  0  0  0  0  0
  -24.5220  -12.8320   20.8170 C   0  0  0  0  0  0  0  0  0  0  0  0
  -24.8780  -11.4510   20.7150 C   0  0  0  0  0  0  0  0  0  0  0  0
  -26.5620  -12.5860   20.0310 N   0  0  0  0  0  0  0  0  0  0  0  0
  -26.1290  -11.3270   20.2930 N   0  0  0  0  0  0  0  0  0  0  0  0
  -24.0800  -10.2400   20.9410 C   0  0  0  0  0  0  0  0  0  0  0  0
  -24.4820   -9.2520   21.8680 C   0  0  0  0  0  3  0  0  0  0  0  0
  -23.6880   -8.1060   22.0820 C   0  0  0  0  0  3  0  0  0  0  0  0
  -22.4770   -7.9390   21.3680 C   0  0  0  0  0  0  0  0  0  0  0  0
  -22.0920   -8.9140   20.4330 C   0  0  0  0  0  3  0  0  0  0  0  0
  -22.8860  -10.0530   20.2160 C   0  0  0  0  0  3  0  0  0  0  0  0
  -21.6550   -6.8440   21.4920 O   0  0  0  0  0  0  0  0  0  0  0  0
  -21.5630   -6.1430   22.6680 C   0  0  0  0  0  0  0  0  0  0  0  0
  -21.1640   -6.7590   23.8730 C   0  0  0  0  0  3  0  0  0  0  0  0
  -21.0120   -5.9840   25.0430 C   0  0  0  0  0  3  0  0  0  0  0  0
  -21.2520   -4.5980   25.0050 C   0  0  0  0  0  0  0  0  0  0  0  0
  -21.6460   -3.9830   23.8030 C   0  0  0  0  0  3  0  0  0  0  0  0
  -21.7970   -4.7520   22.6370 C   0  0  0  0  0  0  0  0  0  0  0  0
  -22.1540   -4.1520   21.4770 F   0  0  0  0  0  0  0  0  0  0  0  0
  -21.1020   -3.8530   26.1250 F   0  0  0  0  0  0  0  0  0  0  0  0
  -23.1960  -13.4020   21.2290 C   0  0  0  0  0  0  0  0  0  0  0  0
  -22.5100  -12.7490   22.1600 N   0  0  0  0  0  0  0  0  0  0  0  0
  -22.7810  -14.4620   20.7600 O   0  0  0  0  0  0  0  0  0  0  0  0
  -22.8530  -11.8820   22.5470 H   0  0  0  0  0  0  0  0  0  0  0  0
  -21.6280  -13.1180   22.4860 H   0  0  0  0  0  0  0  0  0  0  0  0
  -25.8450  -14.8920   20.1780 N   0  0  0  0  0  0  0  0  0  0  0  0
  -25.1150  -15.5850   20.3070 H   0  0  0  0  0  0  0  0  0  0  0  0
  -26.6570  -15.2600   19.6970 H   0  0  0  0  0  0  0  0  0  0  0  0
  2  1  1  0
  2  3  1  0
  4  2  1  0
  5  6  1  0
  5  2  1  0
  6  7  1  0
  7  8  1  0
  8 10  1  0
  9 20  2  0
 10 15  1  0
 11 19  1  0
 11 21  1  0
 12 18  1  0
 12 14  1  0
 13 19  1  0
 14 15  2  0
 14 13  1  0
 16 10  2  0
 17 16  1  0
 17 12  2  0
 18 11  1  0
 19  9  1  0
 21 23  2  0
 22 21  1  0
 24 22  1  0
 25 34  2  0
 25 30  1  0
 26 22  1  0
 26 30  1  0
 27 26  1  0
 28 29  1  0
 28 27  1  0
 29 25  1  0
 30 31  2  0
 31 32  1  0
 33 32  2  0
 34 33  1  0
 35  9  1  0
 35 40  1  0
 35 36  1  0
 36 39  1  1
 36 37  1  0
 38 36  1  0
 40 43  1  0
 41 45  1  0
 41 40  1  0
 42 41  2  0
 45 44  1  0
 47 45  1  0
 47 48  1  0
 47 46  1  0
 49  1  1  0
 49 50  1  0
 50 51  1  0
 51 52  1  0
 52 53  2  0
 54 67  1  0
 55 60  1  0
 56 57  1  0
 56 55  1  0
 58 57  1  0
 58 71  1  0
 58 59  1  0
 60 54  1  0
 60 59  1  0
 61 54  2  0
 62 66  1  0
 64 62  1  0
 64 67  1  0
 65 63  1  0
 66 52  1  0
 66 63  1  0
 67 65  1  0
 68 69  2  0
 69 88  1  0
 70 69  1  0
 70 73  1  0
 71 72  1  0
 71 68  1  0
 72 70  2  0
 73 74  1  0
 74 75  2  0
 76 79  1  0
 76 75  1  0
 77 76  2  0
 78 77  1  0
 78 73  2  0
 79 80  1  0
 80 81  1  0
 81 82  2  0
 83 82  1  0
 83 87  1  0
 84 83  2  0
 85 80  2  0
 85 84  1  0
 86 85  1  0
 88 89  1  0
 89 92  1  0
 89 91  1  0
 90 88  2  0
 93 94  1  0
 93 68  1  0
 95 93  1  0
M  ISO  4   7 101   8 101  54 100  67 100
M  END
>  <TORSDO>  (82) 
F 24

>  <SCORE>  (82) 
-12.029

>  <name>  (82) 
81

>  <ligand_id>  (82) 
81

>  <original_smiles>  (82) 
[H]c1c([H])c([H])c2c(c1[H])C([H])([H])C([H])([H])C([H])([H])C2([H])N([H])C(=O)C1([H])N(C(=O)C([H])(N([H])C(=O)C([H])(N([H])C([H])([H])[H])C([H])([H])[H])C(C([H])([H])[H])(C([H])([H])[H])C([H])([H])[H])C([H])([H])c2c([H])c(OC([H])([H])C([H])([H])C([H])([H])[N+]([H])([H])C([H])([H])C([H])([H])C([H])([H])C([H])([H])C(=O)C3([H])C([H])([H])C([H])([H])N(C(=O)N4C([H])([H])C([H])([H])C([H])([H])C([H])(n5nc(-c6c([H])c([H])c(Oc7c([H])c([H])c(F)c([H])c7F)c([H])c6[H])c(C(=O)N([H])[H])c5N([H])[H])C4([H])[H])C([H])([H])C3([H])[H])c([H])c([H])c2C1([H])[H]

>  <smiles>  (82) 
[H]c1c([H])c([H])c2c(c1[H])C([H])([H])C([H])([H])C([H])([H])C2([H])N([H])C(=O)C1([H])N(C(=O)C([H])(N([H])C(=O)C([H])(N([H])C([H])([H])[H])C([H])([H])[H])C(C([H])([H])[H])(C([H])([H])[H])C([H])([H])[H])C([H])([H])c2c([H])c(OC([H])([H])C([H])([H])C([H])([H])[N+]([H])([H])C([H])([H])C([H])([H])C([H])([H])C([H])([H])C(=O)C3([H])C([H])([H])C([H])([H])N(C(=O)N4C([H])([H])C([H])([H])C([H])([H])C([H])(n5nc(-c6c([H])c([H])c(Oc7c([H])c([H])c(F)c([H])c7F)c([H])c6[H])c(C(=O)N([H])[H])c5N([H])[H])C4([H])[H])C([H])([H])C3([H])[H])c([H])c([H])c2C1([H])[H]

$$$$
82:0:0
     RDKit          3D

 97105  0  0  1  0  0  0  0  0999 V2000
  -32.2850  -20.4980   16.4610 C   0  0  0  0  0  1  0  0  0  0  0  0
  -31.3640  -21.2680   17.4230 C   0  0  0  0  0  3  0  0  0  0  0  0
  -31.1440  -22.7080   16.9330 C   0  0  0  0  0  0  0  0  0  0  0  0
  -31.3130  -23.6750   17.8400 N   0  0  0  0  0  0  0  0  0  0  0  0
  -30.7580  -22.9290   15.7830 O   0  0  0  0  0  0  0  0  0  0  0  0
  -31.6930  -23.3960   18.7350 H   0  0  0  0  0  0  0  0  0  0  0  0
  -30.7830  -25.0290   17.7530 C   0  0  0  0  0  2  0  0  0  0  0  0
  -29.8590  -25.2810   18.9550 C   0  0  0  0  0  2  0  0  0  0  0  0
  -29.2090  -26.6660   18.9260 C   0  0  0  0  0  2  0  0  0  0  0  0
  -28.6000  -26.8880   20.1910 O   0  0  0  0  0  0  0  0  0  0  0  0
  -24.6000  -31.8890   23.2220 C   0  0  0  0  0  0  0  0  0  0  0  0
  -27.4150  -27.5690   20.1610 C   0  0  0  0  0  0  0  0  0  0  0  0
  -23.4640  -30.4900   21.5240 C   0  0  0  0  0  3  0  0  0  0  0  0
  -24.9880  -28.9930   20.1290 C   0  0  0  0  0  0  0  0  0  0  0  0
  -25.9830  -30.9020   21.4060 C   0  0  0  0  0  2  0  0  0  0  0  0
  -26.1120  -29.5390   20.7620 C   0  0  0  0  0  0  0  0  0  0  0  0
  -27.3270  -28.8260   20.7900 C   0  0  0  0  0  3  0  0  0  0  0  0
  -26.2770  -27.0190   19.5360 C   0  0  0  0  0  3  0  0  0  0  0  0
  -25.0600  -27.7280   19.5210 C   0  0  0  0  0  3  0  0  0  0  0  0
  -23.7270  -29.8270   20.1440 C   0  0  0  0  0  2  0  0  0  0  0  0
  -24.6980  -31.1070   22.1110 N   0  0  0  0  0  0  0  0  0  0  0  0
  -23.4990  -32.1370   23.7340 O   0  0  0  0  0  0  0  0  0  0  0  0
  -22.8020  -29.4460   22.4520 C   0  0  0  0  0  0  0  0  0  0  0  0
  -21.4840  -29.2530   22.2890 N   0  0  0  0  0  0  0  0  0  0  0  0
  -23.4730  -28.8140   23.2750 O   0  0  0  0  0  0  0  0  0  0  0  0
  -21.0050  -29.8170   21.6000 H   0  0  0  0  0  0  0  0  0  0  0  0
  -18.1080  -28.0430   22.6950 C   0  0  0  0  0  0  0  0  0  0  0  0
  -20.6580  -28.2970   23.0240 C   0  0  0  0  0  3  0  0  0  0  0  0
  -20.7750  -26.8790   22.4160 C   0  0  0  0  0  2  0  0  0  0  0  0
  -19.6950  -26.5790   21.3730 C   0  0  0  0  0  2  0  0  0  0  0  0
  -18.3000  -26.7090   21.9940 C   0  0  0  0  0  2  0  0  0  0  0  0
  -19.2160  -28.7960   23.1650 C   0  0  0  0  0  0  0  0  0  0  0  0
  -18.9840  -30.0460   23.7790 C   0  0  0  0  0  3  0  0  0  0  0  0
  -17.6760  -30.5430   23.9290 C   0  0  0  0  0  3  0  0  0  0  0  0
  -16.5810  -29.7860   23.4770 C   0  0  0  0  0  3  0  0  0  0  0  0
  -16.7970  -28.5370   22.8670 C   0  0  0  0  0  3  0  0  0  0  0  0
  -25.8590  -32.5300   23.8880 C   0  0  0  0  0  3  0  0  0  0  0  0
  -25.5310  -33.9250   24.2060 N   0  0  0  0  0  0  0  0  0  0  0  0
  -25.8840  -34.9770   23.4560 C   0  0  0  0  0  0  0  0  0  0  0  0
  -26.5940  -34.8770   22.4510 O   0  0  0  0  0  0  0  0  0  0  0  0
  -24.9090  -34.0750   24.9870 H   0  0  0  0  0  0  0  0  0  0  0  0
  -24.1640  -36.7580   23.0220 C   0  0  0  0  0  1  0  0  0  0  0  0
  -25.3690  -36.3630   23.8900 C   0  0  0  0  0  3  0  0  0  0  0  0
  -27.4570  -37.2610   24.8190 C   0  0  0  0  0  1  0  0  0  0  0  0
  -26.3990  -37.4220   23.8230 N   0  0  0  0  0  0  0  0  0  0  0  0
  -25.9810  -38.3380   23.9530 H   0  0  0  0  0  0  0  0  0  0  0  0
  -26.3390  -31.7620   25.1800 C   0  0  1  0  0  0  0  0  0  0  0  0
  -25.2140  -31.5130   26.2100 C   0  0  0  0  0  1  0  0  0  0  0  0
  -26.9460  -30.3910   24.8020 C   0  0  0  0  0  1  0  0  0  0  0  0
  -27.4580  -32.5640   25.8830 C   0  0  0  0  0  1  0  0  0  0  0  0
  -29.9760  -20.6050   17.5910 C   0  0  0  0  0  2  0  0  0  0  0  0
  -30.1950  -18.4280   20.7470 C   0  0  0  0  0  3  0  0  0  0  0  0
  -30.3480  -19.5100   19.8570 C   0  0  0  0  0  3  0  0  0  0  0  0
  -29.1880  -17.1100   18.9640 C   0  0  0  0  0  3  0  0  0  0  0  0
  -29.6000  -17.2270   20.3070 C   0  0  0  0  0  0  0  0  0  0  0  0
  -29.9220  -19.3970   18.5150 C   0  0  0  0  0  0  0  0  0  0  0  0
  -29.3480  -18.1850   18.0700 C   0  0  0  0  0  0  0  0  0  0  0  0
  -28.9130  -18.0570   16.7950 F   0  0  0  0  0  0  0  0  0  0  0  0
  -29.3970  -16.0740   21.2760 C   0  0  0  0  0  2  0  0  0  0  0  0
  -30.8500  -14.3470   20.2610 C   0  0  0  0  0  0  0  0  0  0  0  0
  -30.3620  -12.3500   18.8980 C   0  0  0  0  0  2  0  0  0  0  0  0
  -29.3630  -12.6810   17.7730 C   0  0  0  0  0  2  0  0  0  0  0  0
  -27.9120  -12.5450   18.2710 C   0  0  0  0  0  2  0  0  0  0  0  0
  -27.6740  -13.2820   19.6140 C   0  0  0  0  0  3  0  0  0  0  0  0
  -28.7790  -12.9320   20.6380 C   0  0  0  0  0  2  0  0  0  0  0  0
  -30.0840  -13.2460   20.0310 N   0  0  0  0  0  0  0  0  0  0  0  0
  -31.8830  -14.5860   19.6360 O   0  0  0  0  0  0  0  0  0  0  0  0
  -30.5170  -15.1320   21.2900 N   0  0  0  0  0  0  0  0  0  0  0  0
  -31.3390  -15.5900   21.6540 H   0  0  0  0  0  0  0  0  0  0  0  0
  -25.3120  -13.9080   20.4270 C   0  0  0  0  0  0  0  0  0  0  0  0
  -24.2540  -13.1410   20.8360 C   0  0  0  0  0  0  0  0  0  0  0  0
  -24.7000  -11.7870   20.7680 C   0  0  0  0  0  0  0  0  0  0  0  0
  -26.3380  -13.0200   20.1450 N   0  0  0  0  0  0  0  0  0  0  0  0
  -25.9750  -11.7390   20.4050 N   0  0  0  0  0  0  0  0  0  0  0  0
  -23.9730  -10.5260   20.9720 C   0  0  0  0  0  0  0  0  0  0  0  0
  -24.4270   -9.5560   21.8930 C   0  0  0  0  0  3  0  0  0  0  0  0
  -23.7010   -8.3610   22.0890 C   0  0  0  0  0  3  0  0  0  0  0  0
  -22.5100   -8.1280   21.3620 C   0  0  0  0  0  0  0  0  0  0  0  0
  -22.0750   -9.0870   20.4290 C   0  0  0  0  0  3  0  0  0  0  0  0
  -22.8000  -10.2730   20.2330 C   0  0  0  0  0  3  0  0  0  0  0  0
  -21.7540   -6.9870   21.4660 O   0  0  0  0  0  0  0  0  0  0  0  0
  -21.7180   -6.2500   22.6220 C   0  0  0  0  0  0  0  0  0  0  0  0
  -21.2960   -6.8090   23.8470 C   0  0  0  0  0  3  0  0  0  0  0  0
  -21.2100   -5.9980   24.9970 C   0  0  0  0  0  3  0  0  0  0  0  0
  -21.5340   -4.6310   24.9200 C   0  0  0  0  0  0  0  0  0  0  0  0
  -21.9500   -4.0730   23.7000 C   0  0  0  0  0  3  0  0  0  0  0  0
  -22.0400   -4.8790   22.5530 C   0  0  0  0  0  0  0  0  0  0  0  0
  -22.4210   -4.3310   21.3740 F   0  0  0  0  0  0  0  0  0  0  0  0
  -21.4420   -3.8520   26.0230 F   0  0  0  0  0  0  0  0  0  0  0  0
  -22.8730  -13.6280   21.1700 C   0  0  0  0  0  0  0  0  0  0  0  0
  -22.1750  -12.9240   22.0570 N   0  0  0  0  0  0  0  0  0  0  0  0
  -22.4230  -14.6640   20.6840 O   0  0  0  0  0  0  0  0  0  0  0  0
  -22.5540  -12.0870   22.4750 H   0  0  0  0  0  0  0  0  0  0  0  0
  -21.2480  -13.2250   22.3180 H   0  0  0  0  0  0  0  0  0  0  0  0
  -25.4720  -15.2780   20.2490 N   0  0  0  0  0  0  0  0  0  0  0  0
  -24.6970  -15.9200   20.3820 H   0  0  0  0  0  0  0  0  0  0  0  0
  -26.2860  -15.7170   19.8430 H   0  0  0  0  0  0  0  0  0  0  0  0
  2  1  1  0
  2 51  1  0
  3  2  1  0
  3  4  1  0
  4  6  1  0
  5  3  2  0
  7  4  1  0
  7  8  1  0
  9  8  1  0
  9 10  1  0
 11 22  2  0
 12 10  1  0
 12 17  1  0
 13 21  1  0
 13 23  1  0
 14 20  1  0
 14 16  1  0
 15 21  1  0
 16 17  2  0
 16 15  1  0
 18 12  2  0
 19 18  1  0
 19 14  2  0
 20 13  1  0
 21 11  1  0
 23 25  2  0
 24 23  1  0
 26 24  1  0
 27 36  2  0
 27 32  1  0
 28 24  1  0
 28 32  1  0
 29 28  1  0
 30 31  1  0
 30 29  1  0
 31 27  1  0
 32 33  2  0
 33 34  1  0
 35 34  2  0
 36 35  1  0
 37 11  1  0
 37 38  1  0
 37 47  1  0
 38 41  1  0
 39 43  1  0
 39 38  1  0
 40 39  2  0
 43 42  1  0
 45 43  1  0
 45 46  1  0
 45 44  1  0
 47 50  1  1
 47 48  1  0
 49 47  1  0
 51 56  1  0
 53 52  2  0
 54 55  2  0
 55 52  1  0
 55 59  1  0
 56 53  1  0
 57 56  2  0
 57 54  1  0
 58 57  1  0
 59 68  1  0
 60 68  1  0
 61 66  1  0
 62 63  1  0
 62 61  1  0
 64 63  1  0
 64 73  1  0
 64 65  1  0
 66 60  1  0
 66 65  1  0
 67 60  2  0
 68 69  1  0
 70 71  2  0
 71 90  1  0
 72 71  1  0
 72 75  1  0
 73 74  1  0
 73 70  1  0
 74 72  2  0
 75 76  1  0
 76 77  2  0
 78 81  1  0
 78 77  1  0
 79 78  2  0
 80 79  1  0
 80 75  2  0
 81 82  1  0
 82 83  1  0
 83 84  2  0
 85 84  1  0
 85 89  1  0
 86 85  2  0
 87 82  2  0
 87 86  1  0
 88 87  1  0
 90 91  1  0
 91 94  1  0
 91 93  1  0
 92 90  2  0
 95 96  1  0
 95 70  1  0
 97 95  1  0
M  ISO  4   9 101  10 101  60 100  68 100
M  END
>  <TORSDO>  (83) 
F 23

>  <SCORE>  (83) 
-12.687

>  <name>  (83) 
82

>  <ligand_id>  (83) 
82

>  <original_smiles>  (83) 
[H]c1c([H])c([H])c2c(c1[H])C([H])([H])C([H])([H])C([H])([H])C2([H])N([H])C(=O)C1([H])N(C(=O)C([H])(N([H])C(=O)C([H])(N([H])C([H])([H])[H])C([H])([H])[H])C(C([H])([H])[H])(C([H])([H])[H])C([H])([H])[H])C([H])([H])c2c([H])c(OC([H])([H])C([H])([H])C([H])([H])N([H])C(=O)C([H])(C([H])([H])[H])C([H])([H])c3c([H])c([H])c(C([H])([H])N([H])C(=O)N4C([H])([H])C([H])([H])C([H])([H])C([H])(n5nc(-c6c([H])c([H])c(Oc7c([H])c([H])c(F)c([H])c7F)c([H])c6[H])c(C(=O)N([H])[H])c5N([H])[H])C4([H])[H])c([H])c3F)c([H])c([H])c2C1([H])[H]

>  <smiles>  (83) 
[H]c1c([H])c([H])c2c(c1[H])C([H])([H])C([H])([H])C([H])([H])C2([H])N([H])C(=O)C1([H])N(C(=O)C([H])(N([H])C(=O)C([H])(N([H])C([H])([H])[H])C([H])([H])[H])C(C([H])([H])[H])(C([H])([H])[H])C([H])([H])[H])C([H])([H])c2c([H])c(OC([H])([H])C([H])([H])C([H])([H])N([H])C(=O)C([H])(C([H])([H])[H])C([H])([H])c3c([H])c([H])c(C([H])([H])N([H])C(=O)N4C([H])([H])C([H])([H])C([H])([H])C([H])(n5nc(-c6c([H])c([H])c(Oc7c([H])c([H])c(F)c([H])c7F)c([H])c6[H])c(C(=O)N([H])[H])c5N([H])[H])C4([H])[H])c([H])c3F)c([H])c([H])c2C1([H])[H]

$$$$
83:0:0
     RDKit          3D

 98107  0  0  1  0  0  0  0  0999 V2000
  -29.9900  -22.6940   21.8910 C   0  0  0  0  0  2  0  0  0  0  0  0
  -30.7810  -23.9880   21.6130 C   0  0  0  0  0  2  0  0  0  0  0  0
  -30.8920  -23.3990   19.2130 C   0  0  0  0  0  2  0  0  0  0  0  0
  -30.3710  -21.5780   20.9010 C   0  0  0  0  0  3  0  0  0  0  0  0
  -30.0820  -22.1110   19.4660 C   0  0  0  0  0  3  0  0  0  0  0  0
  -30.3810  -21.1100   18.3340 C   0  0  0  0  0  1  0  0  0  0  0  0
  -30.6330  -24.4710   20.2100 N   0  0  2  0  0  4  0  0  0  0  0  0
  -29.6700  -24.7530   20.0820 H   0  0  0  0  0  0  0  0  0  0  0  0
  -29.6430  -20.2600   21.2460 C   0  0  0  0  0  0  0  0  0  0  0  0
  -30.3960  -19.2520   21.7210 N   0  0  0  0  0  0  0  0  0  0  0  0
  -28.4330  -20.1500   21.0440 O   0  0  0  0  0  0  0  0  0  0  0  0
  -31.3730  -19.4530   21.8880 H   0  0  0  0  0  0  0  0  0  0  0  0
  -30.0120  -17.8340   21.7950 C   0  0  0  0  0  2  0  0  0  0  0  0
  -30.7330  -14.5690   20.2080 C   0  0  0  0  0  0  0  0  0  0  0  0
  -30.3530  -12.4000   19.1180 C   0  0  0  0  0  2  0  0  0  0  0  0
  -29.3960  -12.5740   17.9230 C   0  0  0  0  0  2  0  0  0  0  0  0
  -27.9280  -12.4450   18.3810 C   0  0  0  0  0  2  0  0  0  0  0  0
  -27.6030  -13.2820   19.6460 C   0  0  0  0  0  3  0  0  0  0  0  0
  -28.6960  -13.1530   20.7350 C   0  0  0  0  0  2  0  0  0  0  0  0
  -30.0000  -13.4230   20.1140 N   0  0  0  0  0  0  0  0  0  0  0  0
  -31.9270  -14.6030   19.9060 O   0  0  0  0  0  0  0  0  0  0  0  0
  -29.7460  -17.5100   18.7380 C   0  0  0  0  0  2  0  0  0  0  0  0
  -31.0790  -17.6600   19.4380 C   0  0  0  0  0  2  0  0  0  0  0  0
  -29.2100  -16.1840   19.2620 C   0  0  0  0  0  2  0  0  0  0  0  0
  -30.8140  -16.9570   20.7810 C   0  0  0  0  0  3  0  0  0  0  0  0
  -30.0610  -15.7410   20.3870 N   0  0  0  0  0  0  0  0  0  0  0  0
  -25.2270  -13.8820   20.4080 C   0  0  0  0  0  0  0  0  0  0  0  0
  -24.1700  -13.1040   20.7920 C   0  0  0  0  0  0  0  0  0  0  0  0
  -24.6420  -11.7570   20.7600 C   0  0  0  0  0  0  0  0  0  0  0  0
  -26.2710  -13.0040   20.1630 N   0  0  0  0  0  0  0  0  0  0  0  0
  -25.9270  -11.7220   20.4350 N   0  0  0  0  0  0  0  0  0  0  0  0
  -23.9320  -10.4900   20.9610 C   0  0  0  0  0  0  0  0  0  0  0  0
  -24.3760   -9.5420   21.9100 C   0  0  0  0  0  3  0  0  0  0  0  0
  -23.6680   -8.3350   22.0970 C   0  0  0  0  0  3  0  0  0  0  0  0
  -22.5060   -8.0690   21.3330 C   0  0  0  0  0  0  0  0  0  0  0  0
  -22.0840   -9.0060   20.3730 C   0  0  0  0  0  3  0  0  0  0  0  0
  -22.7920  -10.2040   20.1850 C   0  0  0  0  0  3  0  0  0  0  0  0
  -21.7690   -6.9140   21.4290 O   0  0  0  0  0  0  0  0  0  0  0  0
  -21.7000   -6.2010   22.5990 C   0  0  0  0  0  0  0  0  0  0  0  0
  -21.2200   -6.7780   23.7950 C   0  0  0  0  0  3  0  0  0  0  0  0
  -21.1000   -5.9900   24.9570 C   0  0  0  0  0  3  0  0  0  0  0  0
  -21.4480   -4.6260   24.9240 C   0  0  0  0  0  0  0  0  0  0  0  0
  -21.9210   -4.0500   23.7320 C   0  0  0  0  0  3  0  0  0  0  0  0
  -22.0440   -4.8360   22.5730 C   0  0  0  0  0  0  0  0  0  0  0  0
  -22.4800   -4.2700   21.4210 F   0  0  0  0  0  0  0  0  0  0  0  0
  -21.3240   -3.8670   26.0370 F   0  0  0  0  0  0  0  0  0  0  0  0
  -22.7730  -13.5710   21.0810 C   0  0  0  0  0  0  0  0  0  0  0  0
  -22.0640  -12.8660   21.9540 N   0  0  0  0  0  0  0  0  0  0  0  0
  -22.3190  -14.5930   20.5660 O   0  0  0  0  0  0  0  0  0  0  0  0
  -22.4460  -12.0400   22.3880 H   0  0  0  0  0  0  0  0  0  0  0  0
  -21.1250  -13.1560   22.1880 H   0  0  0  0  0  0  0  0  0  0  0  0
  -25.3780  -15.2540   20.2250 N   0  0  0  0  0  0  0  0  0  0  0  0
  -24.6080  -15.9030   20.3450 H   0  0  0  0  0  0  0  0  0  0  0  0
  -26.2270  -15.6990   19.9030 H   0  0  0  0  0  0  0  0  0  0  0  0
  -31.4690  -25.6670   19.9180 C   0  0  0  0  0  2  0  0  0  0  0  0
  -30.8960  -26.9890   20.4630 C   0  0  0  0  0  2  0  0  0  0  0  0
  -29.6810  -27.5170   19.6890 C   0  0  0  0  0  2  0  0  0  0  0  0
  -28.5040  -26.7950   20.0570 O   0  0  0  0  0  0  0  0  0  0  0  0
  -24.6050  -31.8910   23.2030 C   0  0  0  0  0  0  0  0  0  0  0  0
  -27.3340  -27.5220   20.1190 C   0  0  0  0  0  0  0  0  0  0  0  0
  -23.4180  -30.4770   21.5500 C   0  0  0  0  0  3  0  0  0  0  0  0
  -24.8980  -28.9530   20.1360 C   0  0  0  0  0  0  0  0  0  0  0  0
  -25.9330  -30.8750   21.3610 C   0  0  0  0  0  2  0  0  0  0  0  0
  -26.0370  -29.5050   20.7320 C   0  0  0  0  0  0  0  0  0  0  0  0
  -27.2510  -28.7900   20.7380 C   0  0  0  0  0  3  0  0  0  0  0  0
  -26.1720  -26.9630   19.5490 C   0  0  0  0  0  3  0  0  0  0  0  0
  -24.9550  -27.6760   19.5490 C   0  0  0  0  0  3  0  0  0  0  0  0
  -23.6410  -29.7950   20.1720 C   0  0  0  0  0  2  0  0  0  0  0  0
  -24.6690  -31.0960   22.0970 N   0  0  0  0  0  0  0  0  0  0  0  0
  -23.5210  -32.1490   23.7430 O   0  0  0  0  0  0  0  0  0  0  0  0
  -22.7760  -29.4490   22.5070 C   0  0  0  0  0  0  0  0  0  0  0  0
  -21.4510  -29.2670   22.3870 N   0  0  0  0  0  0  0  0  0  0  0  0
  -23.4650  -28.8170   23.3130 O   0  0  0  0  0  0  0  0  0  0  0  0
  -20.9570  -29.8240   21.7030 H   0  0  0  0  0  0  0  0  0  0  0  0
  -18.0760  -28.0970   22.9120 C   0  0  0  0  0  0  0  0  0  0  0  0
  -20.6390  -28.3240   23.1530 C   0  0  0  0  0  3  0  0  0  0  0  0
  -20.7190  -26.9020   22.5520 C   0  0  0  0  0  2  0  0  0  0  0  0
  -19.6000  -26.6080   21.5470 C   0  0  0  0  0  2  0  0  0  0  0  0
  -18.2290  -26.7580   22.2120 C   0  0  0  0  0  2  0  0  0  0  0  0
  -19.2090  -28.8400   23.3390 C   0  0  0  0  0  0  0  0  0  0  0  0
  -19.0120  -30.0970   23.9520 C   0  0  0  0  0  3  0  0  0  0  0  0
  -17.7150  -30.6090   24.1440 C   0  0  0  0  0  3  0  0  0  0  0  0
  -16.5970  -29.8620   23.7350 C   0  0  0  0  0  3  0  0  0  0  0  0
  -16.7790  -28.6090   23.1230 C   0  0  0  0  0  3  0  0  0  0  0  0
  -25.8860  -32.5300   23.8270 C   0  0  0  0  0  3  0  0  0  0  0  0
  -25.5680  -33.9230   24.1630 N   0  0  0  0  0  0  0  0  0  0  0  0
  -25.8980  -34.9800   23.4090 C   0  0  0  0  0  0  0  0  0  0  0  0
  -26.5760  -34.8850   22.3820 O   0  0  0  0  0  0  0  0  0  0  0  0
  -24.9670  -34.0710   24.9610 H   0  0  0  0  0  0  0  0  0  0  0  0
  -24.1660  -36.7640   23.0320 C   0  0  0  0  0  1  0  0  0  0  0  0
  -25.3940  -36.3630   23.8650 C   0  0  0  0  0  3  0  0  0  0  0  0
  -27.5080  -37.2530   24.7420 C   0  0  0  0  0  1  0  0  0  0  0  0
  -26.4230  -37.4220   23.7790 N   0  0  0  0  0  0  0  0  0  0  0  0
  -26.0100  -38.3390   23.9230 H   0  0  0  0  0  0  0  0  0  0  0  0
  -26.4140  -31.7550   25.0960 C   0  0  1  0  0  0  0  0  0  0  0  0
  -25.3250  -31.4960   26.1620 C   0  0  0  0  0  1  0  0  0  0  0  0
  -27.0110  -30.3860   24.6910 C   0  0  0  0  0  1  0  0  0  0  0  0
  -27.5540  -32.5560   25.7650 C   0  0  0  0  0  1  0  0  0  0  0  0
  2  1  1  0
  3  5  1  0
  3  7  1  0
  4  9  1  0
  4  1  1  0
  5  6  1  0
  5  4  1  0
  7  2  1  0
  7  8  1  1
  9 10  1  0
 10 13  1  0
 10 12  1  0
 11  9  2  0
 14 26  1  0
 15 20  1  0
 16 17  1  0
 16 15  1  0
 18 17  1  0
 18 30  1  0
 18 19  1  0
 20 14  1  0
 20 19  1  0
 21 14  2  0
 22 24  1  0
 22 23  1  0
 23 25  1  0
 24 26  1  0
 25 13  1  0
 26 25  1  0
 27 28  2  0
 28 47  1  0
 29 28  1  0
 29 32  1  0
 30 27  1  0
 30 31  1  0
 31 29  2  0
 32 33  1  0
 33 34  2  0
 35 38  1  0
 35 34  1  0
 36 35  2  0
 37 36  1  0
 37 32  2  0
 38 39  1  0
 39 40  1  0
 40 41  2  0
 42 41  1  0
 42 46  1  0
 43 42  2  0
 44 39  2  0
 44 43  1  0
 45 44  1  0
 47 48  1  0
 48 51  1  0
 48 50  1  0
 49 47  2  0
 52 53  1  0
 52 27  1  0
 54 52  1  0
 55  7  1  0
 55 56  1  0
 57 58  1  0
 57 56  1  0
 58 60  1  0
 59 70  2  0
 60 65  1  0
 61 69  1  0
 61 71  1  0
 62 68  1  0
 62 64  1  0
 63 69  1  0
 64 65  2  0
 64 63  1  0
 66 67  1  0
 66 60  2  0
 67 62  2  0
 68 61  1  0
 69 59  1  0
 71 73  2  0
 72 71  1  0
 74 72  1  0
 75 84  2  0
 75 80  1  0
 76 72  1  0
 76 80  1  0
 77 76  1  0
 78 79  1  0
 78 77  1  0
 79 75  1  0
 80 81  2  0
 81 82  1  0
 83 82  2  0
 84 83  1  0
 85 59  1  0
 85 86  1  0
 85 95  1  0
 86 89  1  0
 87 91  1  0
 87 86  1  0
 88 87  2  0
 91 90  1  0
 93 91  1  0
 93 94  1  0
 93 92  1  0
 95 98  1  1
 95 96  1  0
 97 95  1  0
M  ISO  4  14 100  26 100  57 101  58 101
M  END
>  <TORSDO>  (84) 
F 21

>  <SCORE>  (84) 
-13.569

>  <name>  (84) 
83

>  <ligand_id>  (84) 
83

>  <original_smiles>  (84) 
[H]c1c([H])c([H])c2c(c1[H])C([H])([H])C([H])([H])C([H])([H])C2([H])N([H])C(=O)C1([H])N(C(=O)C([H])(N([H])C(=O)C([H])(N([H])C([H])([H])[H])C([H])([H])[H])C(C([H])([H])[H])(C([H])([H])[H])C([H])([H])[H])C([H])([H])c2c([H])c(OC([H])([H])C([H])([H])C([H])([H])[N+]3([H])C([H])([H])C([H])([H])C([H])(C(=O)N([H])C([H])([H])C4([H])N(C(=O)N5C([H])([H])C([H])([H])C([H])([H])C([H])(n6nc(-c7c([H])c([H])c(Oc8c([H])c([H])c(F)c([H])c8F)c([H])c7[H])c(C(=O)N([H])[H])c6N([H])[H])C5([H])[H])C([H])([H])C([H])([H])C4([H])[H])C([H])(C([H])([H])[H])C3([H])[H])c([H])c([H])c2C1([H])[H]

>  <smiles>  (84) 
[H]c1c([H])c([H])c2c(c1[H])C([H])([H])C([H])([H])C([H])([H])C2([H])N([H])C(=O)C1([H])N(C(=O)C([H])(N([H])C(=O)C([H])(N([H])C([H])([H])[H])C([H])([H])[H])C(C([H])([H])[H])(C([H])([H])[H])C([H])([H])[H])C([H])([H])c2c([H])c(OC([H])([H])C([H])([H])C([H])([H])[N+]3([H])C([H])([H])C([H])([H])C([H])(C(=O)N([H])C([H])([H])C4([H])N(C(=O)N5C([H])([H])C([H])([H])C([H])([H])C([H])(n6nc(-c7c([H])c([H])c(Oc8c([H])c([H])c(F)c([H])c8F)c([H])c7[H])c(C(=O)N([H])[H])c6N([H])[H])C5([H])[H])C([H])([H])C([H])([H])C4([H])[H])C([H])(C([H])([H])[H])C3([H])[H])c([H])c([H])c2C1([H])[H]

$$$$
84:0:0
     RDKit          3D

 97105  0  0  1  0  0  0  0  0999 V2000
  -24.6030  -20.9260   18.8740 C   0  0  0  0  0  2  0  0  0  0  0  0
  -24.5660  -22.1230   19.8590 C   0  0  0  0  0  2  0  0  0  0  0  0
  -25.7440  -23.1050   19.7850 C   0  0  0  0  0  0  0  0  0  0  0  0
  -26.8160  -22.7810   19.2770 O   0  0  0  0  0  0  0  0  0  0  0  0
  -25.5580  -24.4730   20.4640 C   0  0  0  0  0  2  0  0  0  0  0  0
  -26.3450  -25.5360   19.9070 O   0  0  0  0  0  0  0  0  0  0  0  0
  -27.7690  -25.4410   19.8390 C   0  0  0  0  0  2  0  0  0  0  0  0
  -28.4410  -26.8240   20.0060 C   0  0  0  0  0  2  0  0  0  0  0  0
  -28.1340  -27.7480   18.9570 O   0  0  0  0  0  0  0  0  0  0  0  0
  -24.3840  -31.9700   23.2790 C   0  0  0  0  0  0  0  0  0  0  0  0
  -26.9670  -28.4320   19.1740 C   0  0  0  0  0  0  0  0  0  0  0  0
  -23.1120  -30.8530   21.4760 C   0  0  0  0  0  3  0  0  0  0  0  0
  -24.5170  -29.7340   19.6630 C   0  0  0  0  0  0  0  0  0  0  0  0
  -25.5970  -31.3950   21.1870 C   0  0  0  0  0  2  0  0  0  0  0  0
  -25.6910  -30.1920   20.2760 C   0  0  0  0  0  0  0  0  0  0  0  0
  -26.9220  -29.5420   20.0410 C   0  0  0  0  0  3  0  0  0  0  0  0
  -25.7910  -28.0090   18.5230 C   0  0  0  0  0  3  0  0  0  0  0  0
  -24.5590  -28.6350   18.7860 C   0  0  0  0  0  3  0  0  0  0  0  0
  -23.2410  -30.4800   19.9760 C   0  0  0  0  0  2  0  0  0  0  0  0
  -24.3850  -31.4100   22.0370 N   0  0  0  0  0  0  0  0  0  0  0  0
  -23.3400  -32.0650   23.9380 O   0  0  0  0  0  0  0  0  0  0  0  0
  -22.5870  -29.6230   22.2510 C   0  0  0  0  0  0  0  0  0  0  0  0
  -21.2680  -29.3800   22.1680 N   0  0  0  0  0  0  0  0  0  0  0  0
  -23.3630  -28.8970   22.8790 O   0  0  0  0  0  0  0  0  0  0  0  0
  -20.6890  -30.0340   21.6560 H   0  0  0  0  0  0  0  0  0  0  0  0
  -18.0250  -27.8260   22.5150 C   0  0  0  0  0  0  0  0  0  0  0  0
  -20.5620  -28.2470   22.7680 C   0  0  0  0  0  3  0  0  0  0  0  0
  -20.7520  -26.9560   21.9380 C   0  0  0  0  0  2  0  0  0  0  0  0
  -19.6380  -26.7360   20.9070 C   0  0  0  0  0  2  0  0  0  0  0  0
  -18.2780  -26.6380   21.6080 C   0  0  0  0  0  2  0  0  0  0  0  0
  -19.0960  -28.5910   23.0470 C   0  0  0  0  0  0  0  0  0  0  0  0
  -18.8090  -29.7090   23.8580 C   0  0  0  0  0  3  0  0  0  0  0  0
  -17.4760  -30.0700   24.1390 C   0  0  0  0  0  3  0  0  0  0  0  0
  -16.4180  -29.3040   23.6190 C   0  0  0  0  0  3  0  0  0  0  0  0
  -16.6930  -28.1820   22.8170 C   0  0  0  0  0  3  0  0  0  0  0  0
  -25.6890  -32.5390   23.9200 C   0  0  0  0  0  3  0  0  0  0  0  0
  -26.1950  -31.6940   25.1530 C   0  0  1  0  0  0  0  0  0  0  0  0
  -25.1050  -31.4460   26.2210 C   0  0  0  0  0  1  0  0  0  0  0  0
  -26.7270  -30.3190   24.6900 C   0  0  0  0  0  1  0  0  0  0  0  0
  -27.3790  -32.4210   25.8320 C   0  0  0  0  0  1  0  0  0  0  0  0
  -25.4130  -33.9270   24.3140 N   0  0  0  0  0  0  0  0  0  0  0  0
  -25.8170  -35.0060   23.6310 C   0  0  0  0  0  0  0  0  0  0  0  0
  -26.5300  -34.9360   22.6280 O   0  0  0  0  0  0  0  0  0  0  0  0
  -24.7870  -34.0570   25.0940 H   0  0  0  0  0  0  0  0  0  0  0  0
  -24.1970  -36.8950   23.2740 C   0  0  0  0  0  1  0  0  0  0  0  0
  -25.3540  -36.3830   24.1460 C   0  0  0  0  0  3  0  0  0  0  0  0
  -27.4550  -37.1110   25.1860 C   0  0  0  0  0  1  0  0  0  0  0  0
  -26.4350  -37.3910   24.1800 N   0  0  0  0  0  0  0  0  0  0  0  0
  -26.0590  -38.3180   24.3580 H   0  0  0  0  0  0  0  0  0  0  0  0
  -25.4310  -19.7050   19.3370 C   0  0  0  0  0  2  0  0  0  0  0  0
  -26.7260  -19.5050   18.5210 C   0  0  0  0  0  2  0  0  0  0  0  0
  -28.2720  -17.5420   18.3480 C   0  0  0  0  0  3  0  0  0  0  0  0
  -29.3290  -17.9320   20.9220 C   0  0  0  0  0  3  0  0  0  0  0  0
  -27.7830  -18.5990   19.1380 C   0  0  0  0  0  0  0  0  0  0  0  0
  -29.7910  -16.8490   20.1400 C   0  0  0  0  0  0  0  0  0  0  0  0
  -29.2750  -16.6910   18.8270 C   0  0  0  0  0  0  0  0  0  0  0  0
  -28.3490  -18.8140   20.4210 C   0  0  0  0  0  0  0  0  0  0  0  0
  -29.7140  -15.7200   17.9950 F   0  0  0  0  0  0  0  0  0  0  0  0
  -27.9840  -19.8760   21.1740 F   0  0  0  0  0  0  0  0  0  0  0  0
  -31.3730  -14.9850   20.0240 C   0  0  0  0  0  0  0  0  0  0  0  0
  -31.0510  -12.7410   19.0500 C   0  0  0  0  0  2  0  0  0  0  0  0
  -30.0720  -12.7640   17.8620 C   0  0  0  0  0  2  0  0  0  0  0  0
  -28.6150  -12.6270   18.3450 C   0  0  0  0  0  2  0  0  0  0  0  0
  -28.2790  -13.5930   19.5130 C   0  0  0  0  0  3  0  0  0  0  0  0
  -29.3680  -13.5530   20.6070 C   0  0  0  0  0  2  0  0  0  0  0  0
  -30.6700  -13.8210   19.9700 N   0  0  0  0  0  0  0  0  0  0  0  0
  -32.4470  -15.1620   19.4500 O   0  0  0  0  0  0  0  0  0  0  0  0
  -30.7970  -16.0000   20.6850 N   0  0  0  0  0  0  0  0  0  0  0  0
  -31.4470  -16.5020   21.2700 H   0  0  0  0  0  0  0  0  0  0  0  0
  -25.9530  -14.2450   20.3990 C   0  0  0  0  0  0  0  0  0  0  0  0
  -24.8870  -13.4880   20.8060 C   0  0  0  0  0  0  0  0  0  0  0  0
  -25.3000  -12.1260   20.6770 C   0  0  0  0  0  0  0  0  0  0  0  0
  -26.9490  -13.3430   20.0600 N   0  0  0  0  0  0  0  0  0  0  0  0
  -26.5620  -12.0610   20.2810 N   0  0  0  0  0  0  0  0  0  0  0  0
  -24.5490  -10.8750   20.8480 C   0  0  0  0  0  0  0  0  0  0  0  0
  -24.8620   -9.9590   21.8750 C   0  0  0  0  0  3  0  0  0  0  0  0
  -24.1120   -8.7720   22.0310 C   0  0  0  0  0  3  0  0  0  0  0  0
  -23.0370   -8.4930   21.1550 C   0  0  0  0  0  0  0  0  0  0  0  0
  -22.7470   -9.3960   20.1170 C   0  0  0  0  0  3  0  0  0  0  0  0
  -23.4950  -10.5740   19.9620 C   0  0  0  0  0  3  0  0  0  0  0  0
  -22.2680   -7.3560   21.2150 O   0  0  0  0  0  0  0  0  0  0  0  0
  -21.8860   -6.8070   22.4130 C   0  0  0  0  0  0  0  0  0  0  0  0
  -21.1120   -7.5260   23.3520 C   0  0  0  0  0  3  0  0  0  0  0  0
  -20.6860   -6.8990   24.5400 C   0  0  0  0  0  3  0  0  0  0  0  0
  -21.0180   -5.5540   24.7860 C   0  0  0  0  0  0  0  0  0  0  0  0
  -21.7810   -4.8340   23.8490 C   0  0  0  0  0  3  0  0  0  0  0  0
  -22.2120   -5.4590   22.6650 C   0  0  0  0  0  0  0  0  0  0  0  0
  -22.9290   -4.7550   21.7580 F   0  0  0  0  0  0  0  0  0  0  0  0
  -20.6000   -4.9490   25.9230 F   0  0  0  0  0  0  0  0  0  0  0  0
  -23.5280  -13.9900   21.1950 C   0  0  0  0  0  0  0  0  0  0  0  0
  -22.8590  -13.2910   22.1060 N   0  0  0  0  0  0  0  0  0  0  0  0
  -23.0720  -15.0310   20.7230 O   0  0  0  0  0  0  0  0  0  0  0  0
  -23.2440  -12.4460   22.5020 H   0  0  0  0  0  0  0  0  0  0  0  0
  -21.9480  -13.6020   22.4120 H   0  0  0  0  0  0  0  0  0  0  0  0
  -26.1450  -15.6190   20.2760 N   0  0  0  0  0  0  0  0  0  0  0  0
  -25.3820  -16.2730   20.4240 H   0  0  0  0  0  0  0  0  0  0  0  0
  -26.9820  -16.0590   19.9170 H   0  0  0  0  0  0  0  0  0  0  0  0
  1 50  1  0
  1  2  1  0
  3  2  1  0
  3  5  1  0
  4  3  2  0
  6  5  1  0
  7  6  1  0
  7  8  1  0
  9 11  1  0
  9  8  1  0
 10 21  2  0
 11 16  1  0
 12 20  1  0
 12 22  1  0
 13 19  1  0
 13 15  1  0
 14 20  1  0
 15 14  1  0
 16 15  2  0
 17 18  1  0
 17 11  2  0
 18 13  2  0
 19 12  1  0
 20 10  1  0
 22 24  2  0
 23 22  1  0
 25 23  1  0
 26 35  2  0
 26 31  1  0
 27 23  1  0
 27 31  1  0
 28 27  1  0
 29 30  1  0
 29 28  1  0
 30 26  1  0
 31 32  2  0
 32 33  1  0
 34 33  2  0
 35 34  1  0
 36 10  1  0
 36 41  1  0
 36 37  1  0
 37 40  1  1
 37 38  1  0
 39 37  1  0
 41 44  1  0
 42 46  1  0
 42 41  1  0
 43 42  2  0
 46 45  1  0
 46 48  1  0
 48 49  1  0
 48 47  1  0
 51 54  1  0
 51 50  1  0
 52 56  2  0
 52 54  1  0
 54 57  2  0
 55 68  1  0
 55 53  2  0
 56 55  1  0
 57 53  1  0
 57 59  1  0
 58 56  1  0
 60 68  1  0
 61 66  1  0
 62 63  1  0
 62 61  1  0
 64 63  1  0
 64 73  1  0
 64 65  1  0
 66 60  1  0
 66 65  1  0
 67 60  2  0
 68 69  1  0
 70 71  2  0
 71 90  1  0
 72 71  1  0
 72 75  1  0
 73 74  1  0
 73 70  1  0
 74 72  2  0
 75 76  1  0
 76 77  2  0
 78 81  1  0
 78 77  1  0
 79 78  2  0
 80 79  1  0
 80 75  2  0
 81 82  1  0
 82 87  2  0
 82 83  1  0
 83 84  2  0
 84 85  1  0
 85 89  1  0
 86 85  2  0
 87 86  1  0
 88 87  1  0
 90 91  1  0
 91 94  1  0
 91 93  1  0
 92 90  2  0
 95 70  1  0
 95 96  1  0
 97 95  1  0
M  ISO  4   8 101   9 101  60 100  68 100
M  END
>  <TORSDO>  (85) 
F 25

>  <SCORE>  (85) 
-7.153

>  <name>  (85) 
84

>  <ligand_id>  (85) 
84

>  <original_smiles>  (85) 
[H]c1c([H])c([H])c2c(c1[H])C([H])([H])C([H])([H])C([H])([H])C2([H])N([H])C(=O)C1([H])N(C(=O)C([H])(N([H])C(=O)C([H])(N([H])C([H])([H])[H])C([H])([H])[H])C(C([H])([H])[H])(C([H])([H])[H])C([H])([H])[H])C([H])([H])c2c([H])c(OC([H])([H])C([H])([H])OC([H])([H])C(=O)C([H])([H])C([H])([H])C([H])([H])C([H])([H])c3c([H])c(F)c(N([H])C(=O)N4C([H])([H])C([H])([H])C([H])([H])C([H])(n5nc(-c6c([H])c([H])c(Oc7c([H])c([H])c(F)c([H])c7F)c([H])c6[H])c(C(=O)N([H])[H])c5N([H])[H])C4([H])[H])c([H])c3F)c([H])c([H])c2C1([H])[H]

>  <smiles>  (85) 
[H]c1c([H])c([H])c2c(c1[H])C([H])([H])C([H])([H])C([H])([H])C2([H])N([H])C(=O)C1([H])N(C(=O)C([H])(N([H])C(=O)C([H])(N([H])C([H])([H])[H])C([H])([H])[H])C(C([H])([H])[H])(C([H])([H])[H])C([H])([H])[H])C([H])([H])c2c([H])c(OC([H])([H])C([H])([H])OC([H])([H])C(=O)C([H])([H])C([H])([H])C([H])([H])C([H])([H])c3c([H])c(F)c(N([H])C(=O)N4C([H])([H])C([H])([H])C([H])([H])C([H])(n5nc(-c6c([H])c([H])c(Oc7c([H])c([H])c(F)c([H])c7F)c([H])c6[H])c(C(=O)N([H])[H])c5N([H])[H])C4([H])[H])c([H])c3F)c([H])c([H])c2C1([H])[H]

$$$$
85:0:0
     RDKit          3D

 94103  0  0  1  0  0  0  0  0999 V2000
  -28.6310  -20.1960   21.6300 C   0  0  0  0  0  2  0  0  0  0  0  0
  -29.8500  -20.6660   21.8810 C   0  0  0  0  0  2  0  0  0  0  0  0
  -28.8830  -18.7180   19.6430 C   0  0  0  0  0  2  0  0  0  0  0  0
  -31.2600  -19.6230   20.0730 C   0  0  0  0  0  2  0  0  0  0  0  0
  -28.4230  -20.1150   20.1310 C   0  0  0  0  0  3  0  0  0  0  0  0
  -30.5530  -20.9230   20.5590 C   0  0  0  0  0  3  0  0  0  0  0  0
  -30.3160  -18.3710   20.1570 C   0  0  0  0  0  3  0  0  0  0  0  0
  -29.4010  -21.1350   19.6440 N   0  0  2  0  0  4  0  0  0  0  0  0
  -29.6860  -20.9270   18.6950 H   0  0  0  0  0  0  0  0  0  0  0  0
  -30.9070  -17.1210   19.4810 C   0  0  0  0  0  2  0  0  0  0  0  0
  -31.0350  -14.6860   19.9190 C   0  0  0  0  0  0  0  0  0  0  0  0
  -30.6270  -12.4920   18.9270 C   0  0  0  0  0  2  0  0  0  0  0  0
  -29.6560  -12.6670   17.7410 C   0  0  0  0  0  2  0  0  0  0  0  0
  -28.1940  -12.5480   18.2210 C   0  0  0  0  0  2  0  0  0  0  0  0
  -27.8900  -13.4510   19.4470 C   0  0  0  0  0  3  0  0  0  0  0  0
  -28.9920  -13.3130   20.5260 C   0  0  0  0  0  2  0  0  0  0  0  0
  -30.3010  -13.5460   19.8960 N   0  0  0  0  0  0  0  0  0  0  0  0
  -32.2200  -14.7160   19.5840 O   0  0  0  0  0  0  0  0  0  0  0  0
  -30.3570  -15.8440   19.9820 N   0  0  0  0  0  0  0  0  0  0  0  0
  -29.3730  -15.8000   20.1970 H   0  0  0  0  0  0  0  0  0  0  0  0
  -25.5180  -14.0730   20.2370 C   0  0  0  0  0  0  0  0  0  0  0  0
  -24.4590  -13.3110   20.6400 C   0  0  0  0  0  0  0  0  0  0  0  0
  -24.9190  -11.9550   20.6160 C   0  0  0  0  0  0  0  0  0  0  0  0
  -26.5570  -13.1880   19.9860 N   0  0  0  0  0  0  0  0  0  0  0  0
  -26.1970  -11.9090   20.2720 N   0  0  0  0  0  0  0  0  0  0  0  0
  -24.1990  -10.6970   20.8370 C   0  0  0  0  0  0  0  0  0  0  0  0
  -24.6160   -9.7740   21.8200 C   0  0  0  0  0  3  0  0  0  0  0  0
  -23.8990   -8.5760   22.0280 C   0  0  0  0  0  3  0  0  0  0  0  0
  -22.7470   -8.2950   21.2540 C   0  0  0  0  0  0  0  0  0  0  0  0
  -22.3500   -9.2080   20.2600 C   0  0  0  0  0  3  0  0  0  0  0  0
  -23.0700  -10.3970   20.0540 C   0  0  0  0  0  3  0  0  0  0  0  0
  -22.0020   -7.1470   21.3640 O   0  0  0  0  0  0  0  0  0  0  0  0
  -21.8780   -6.4830   22.5600 C   0  0  0  0  0  0  0  0  0  0  0  0
  -21.3230   -7.0970   23.7040 C   0  0  0  0  0  3  0  0  0  0  0  0
  -21.1550   -6.3540   24.8880 C   0  0  0  0  0  3  0  0  0  0  0  0
  -21.5350   -4.9990   24.9300 C   0  0  0  0  0  0  0  0  0  0  0  0
  -22.0890   -4.3870   23.7900 C   0  0  0  0  0  3  0  0  0  0  0  0
  -22.2600   -5.1280   22.6100 C   0  0  0  0  0  0  0  0  0  0  0  0
  -22.7710   -4.5250   21.5100 F   0  0  0  0  0  0  0  0  0  0  0  0
  -21.3670   -4.2840   26.0670 F   0  0  0  0  0  0  0  0  0  0  0  0
  -23.0700  -13.7910   20.9410 C   0  0  0  0  0  0  0  0  0  0  0  0
  -22.3630  -13.1100   21.8360 N   0  0  0  0  0  0  0  0  0  0  0  0
  -22.6180  -14.8130   20.4200 O   0  0  0  0  0  0  0  0  0  0  0  0
  -22.7350  -12.2840   22.2790 H   0  0  0  0  0  0  0  0  0  0  0  0
  -21.4350  -13.4190   22.0820 H   0  0  0  0  0  0  0  0  0  0  0  0
  -25.6820  -15.4440   20.0320 N   0  0  0  0  0  0  0  0  0  0  0  0
  -24.9150  -16.0970   20.1510 H   0  0  0  0  0  0  0  0  0  0  0  0
  -26.5210  -15.8680   19.6550 H   0  0  0  0  0  0  0  0  0  0  0  0
  -28.7990  -22.5100   19.6500 C   0  0  0  0  0  2  0  0  0  0  0  0
  -29.6320  -23.6640   19.0350 C   0  0  0  0  0  2  0  0  0  0  0  0
  -30.5560  -24.8380   21.1540 C   0  0  0  0  0  1  0  0  0  0  0  0
  -29.6810  -24.9560   19.8950 C   0  0  0  0  0  3  0  0  0  0  0  0
  -28.3150  -25.5920   20.2060 C   0  0  0  0  0  2  0  0  0  0  0  0
  -28.3850  -26.9370   19.7300 O   0  0  0  0  0  0  0  0  0  0  0  0
  -24.5680  -31.7830   23.1480 C   0  0  0  0  0  0  0  0  0  0  0  0
  -27.2070  -27.6310   19.7630 C   0  0  0  0  0  0  0  0  0  0  0  0
  -23.3410  -30.4390   21.4760 C   0  0  0  0  0  3  0  0  0  0  0  0
  -24.7830  -29.0420   19.9060 C   0  0  0  0  0  0  0  0  0  0  0  0
  -25.8420  -30.9060   21.2060 C   0  0  0  0  0  2  0  0  0  0  0  0
  -25.9470  -29.5860   20.4730 C   0  0  0  0  0  0  0  0  0  0  0  0
  -27.1700  -28.8940   20.3890 C   0  0  0  0  0  3  0  0  0  0  0  0
  -26.0410  -27.0970   19.1690 C   0  0  0  0  0  3  0  0  0  0  0  0
  -24.8250  -27.8000   19.2470 C   0  0  0  0  0  3  0  0  0  0  0  0
  -23.5200  -29.8660   20.0450 C   0  0  0  0  0  2  0  0  0  0  0  0
  -24.6020  -31.0540   22.0020 N   0  0  0  0  0  0  0  0  0  0  0  0
  -23.5020  -31.9880   23.7470 O   0  0  0  0  0  0  0  0  0  0  0  0
  -22.7490  -29.3490   22.3940 C   0  0  0  0  0  0  0  0  0  0  0  0
  -21.4310  -29.1090   22.2680 N   0  0  0  0  0  0  0  0  0  0  0  0
  -23.4690  -28.7120   23.1730 O   0  0  0  0  0  0  0  0  0  0  0  0
  -20.9100  -29.6740   21.6110 H   0  0  0  0  0  0  0  0  0  0  0  0
  -18.1150  -27.7230   22.6830 C   0  0  0  0  0  0  0  0  0  0  0  0
  -20.6560  -28.1040   22.9990 C   0  0  0  0  0  3  0  0  0  0  0  0
  -20.8470  -26.7020   22.3780 C   0  0  0  0  0  2  0  0  0  0  0  0
  -19.7760  -26.3570   21.3400 C   0  0  0  0  0  2  0  0  0  0  0  0
  -18.3790  -26.4050   21.9670 C   0  0  0  0  0  2  0  0  0  0  0  0
  -19.1890  -28.5270   23.1520 C   0  0  0  0  0  0  0  0  0  0  0  0
  -18.8970  -29.7560   23.7800 C   0  0  0  0  0  3  0  0  0  0  0  0
  -17.5690  -30.1900   23.9390 C   0  0  0  0  0  3  0  0  0  0  0  0
  -16.5090  -29.3800   23.4970 C   0  0  0  0  0  3  0  0  0  0  0  0
  -16.7830  -28.1480   22.8740 C   0  0  0  0  0  3  0  0  0  0  0  0
  -25.8670  -32.4090   23.7550 C   0  0  0  0  0  3  0  0  0  0  0  0
  -25.5560  -33.8010   24.1110 N   0  0  0  0  0  0  0  0  0  0  0  0
  -25.8980  -34.8650   23.3720 C   0  0  0  0  0  0  0  0  0  0  0  0
  -26.5750  -34.7750   22.3450 O   0  0  0  0  0  0  0  0  0  0  0  0
  -24.9610  -33.9440   24.9130 H   0  0  0  0  0  0  0  0  0  0  0  0
  -24.1890  -36.6690   23.0200 C   0  0  0  0  0  1  0  0  0  0  0  0
  -25.4140  -36.2470   23.8450 C   0  0  0  0  0  3  0  0  0  0  0  0
  -27.5370  -37.1100   24.7370 C   0  0  0  0  0  1  0  0  0  0  0  0
  -26.4570  -37.2970   23.7700 N   0  0  0  0  0  0  0  0  0  0  0  0
  -26.0540  -38.2190   23.9160 H   0  0  0  0  0  0  0  0  0  0  0  0
  -26.4070  -31.6120   25.0050 C   0  0  1  0  0  0  0  0  0  0  0  0
  -25.3350  -31.3430   26.0850 C   0  0  0  0  0  1  0  0  0  0  0  0
  -26.9890  -30.2470   24.5750 C   0  0  0  0  0  1  0  0  0  0  0  0
  -27.5610  -32.3980   25.6680 C   0  0  0  0  0  1  0  0  0  0  0  0
  1  2  1  0
  3  7  1  0
  4  7  1  0
  5  3  1  0
  5  1  1  0
  6  4  1  0
  6  2  1  0
  7 10  1  0
  8 49  1  0
  8  5  1  0
  8  6  1  0
  8  9  1  6
 10 19  1  0
 11 19  1  0
 12 17  1  0
 13 14  1  0
 13 12  1  0
 15 14  1  0
 15 24  1  0
 15 16  1  0
 17 11  1  0
 17 16  1  0
 18 11  2  0
 19 20  1  0
 21 22  2  0
 22 41  1  0
 23 22  1  0
 23 26  1  0
 24 21  1  0
 24 25  1  0
 25 23  2  0
 26 27  1  0
 27 28  2  0
 29 32  1  0
 29 28  1  0
 30 29  2  0
 31 30  1  0
 31 26  2  0
 32 33  1  0
 33 38  2  0
 33 34  1  0
 34 35  2  0
 35 36  1  0
 36 40  1  0
 37 36  2  0
 38 37  1  0
 39 38  1  0
 41 42  1  0
 42 45  1  0
 42 44  1  0
 43 41  2  0
 46 47  1  0
 46 21  1  0
 48 46  1  0
 50 49  1  0
 50 52  1  0
 52 53  1  0
 52 51  1  0
 54 56  1  0
 54 53  1  0
 55 66  2  0
 56 61  1  0
 57 65  1  0
 57 67  1  0
 58 64  1  0
 58 60  1  0
 59 65  1  0
 60 59  1  0
 61 60  2  0
 62 63  1  0
 62 56  2  0
 63 58  2  0
 64 57  1  0
 65 55  1  0
 67 69  2  0
 68 67  1  0
 70 68  1  0
 71 80  2  0
 71 76  1  0
 72 68  1  0
 72 76  1  0
 73 72  1  0
 74 75  1  0
 74 73  1  0
 75 71  1  0
 76 77  2  0
 77 78  1  0
 79 78  2  0
 80 79  1  0
 81 55  1  0
 81 82  1  0
 81 91  1  0
 82 85  1  0
 83 87  1  0
 83 82  1  0
 84 83  2  0
 87 86  1  0
 89 87  1  0
 89 90  1  0
 89 88  1  0
 91 94  1  1
 91 92  1  0
 93 91  1  0
M  ISO  4  11 100  19 100  53 101  54 101
M  END
>  <TORSDO>  (86) 
F 21

>  <SCORE>  (86) 
-12.205

>  <name>  (86) 
85

>  <ligand_id>  (86) 
85

>  <original_smiles>  (86) 
[H]C1=C([H])C2([H])C([H])([H])C([H])(C([H])([H])N([H])C(=O)N3C([H])([H])C([H])([H])C([H])([H])C([H])(n4nc(-c5c([H])c([H])c(Oc6c([H])c([H])c(F)c([H])c6F)c([H])c5[H])c(C(=O)N([H])[H])c4N([H])[H])C3([H])[H])C([H])([H])C1([H])[N+]2([H])C([H])([H])C([H])([H])C([H])(C([H])([H])[H])C([H])([H])Oc1c([H])c([H])c2c(c1[H])C([H])([H])N(C(=O)C([H])(N([H])C(=O)C([H])(N([H])C([H])([H])[H])C([H])([H])[H])C(C([H])([H])[H])(C([H])([H])[H])C([H])([H])[H])C([H])(C(=O)N([H])C1([H])c3c([H])c([H])c([H])c([H])c3C([H])([H])C([H])([H])C1([H])[H])C2([H])[H]

>  <smiles>  (86) 
[H]C1=C([H])C2([H])C([H])([H])C([H])(C([H])([H])N([H])C(=O)N3C([H])([H])C([H])([H])C([H])([H])C([H])(n4nc(-c5c([H])c([H])c(Oc6c([H])c([H])c(F)c([H])c6F)c([H])c5[H])c(C(=O)N([H])[H])c4N([H])[H])C3([H])[H])C([H])([H])C1([H])[N+]2([H])C([H])([H])C([H])([H])C([H])(C([H])([H])[H])C([H])([H])Oc1c([H])c([H])c2c(c1[H])C([H])([H])N(C(=O)C([H])(N([H])C(=O)C([H])(N([H])C([H])([H])[H])C([H])([H])[H])C(C([H])([H])[H])(C([H])([H])[H])C([H])([H])[H])C([H])(C(=O)N([H])C1([H])c3c([H])c([H])c([H])c([H])c3C([H])([H])C([H])([H])C1([H])[H])C2([H])[H]

$$$$
86:0:0
     RDKit          3D

 97105  0  0  1  0  0  0  0  0999 V2000
  -31.3670  -21.5440   22.4100 C   0  0  0  0  0  2  0  0  0  0  0  0
  -30.9020  -22.9200   22.6700 N   0  0  0  0  0  4  0  0  0  0  0  0
  -31.4620  -23.3100   23.4120 H   0  0  0  0  0  0  0  0  0  0  0  0
  -29.9530  -22.8800   23.0010 H   0  0  0  0  0  0  0  0  0  0  0  0
  -31.0000  -23.8190   21.4990 C   0  0  0  0  0  2  0  0  0  0  0  0
  -30.0750  -25.0380   21.6200 C   0  0  0  0  0  2  0  0  0  0  0  0
  -30.3340  -26.0900   20.5270 C   0  0  0  0  0  2  0  0  0  0  0  0
  -29.2930  -27.2090   20.5600 C   0  0  0  0  0  2  0  0  0  0  0  0
  -28.0830  -26.7080   20.0000 O   0  0  0  0  0  0  0  0  0  0  0  0
  -24.4440  -31.9350   23.2170 C   0  0  0  0  0  0  0  0  0  0  0  0
  -26.9580  -27.4980   20.0730 C   0  0  0  0  0  0  0  0  0  0  0  0
  -23.1690  -30.5550   21.6000 C   0  0  0  0  0  3  0  0  0  0  0  0
  -24.5630  -28.9970   20.1420 C   0  0  0  0  0  0  0  0  0  0  0  0
  -25.6850  -30.8910   21.3320 C   0  0  0  0  0  2  0  0  0  0  0  0
  -25.7350  -29.5200   20.6980 C   0  0  0  0  0  0  0  0  0  0  0  0
  -26.9310  -28.7820   20.6650 C   0  0  0  0  0  3  0  0  0  0  0  0
  -25.7700  -26.9800   19.5160 C   0  0  0  0  0  3  0  0  0  0  0  0
  -24.5730  -27.7210   19.5470 C   0  0  0  0  0  3  0  0  0  0  0  0
  -23.3280  -29.8640   20.2170 C   0  0  0  0  0  2  0  0  0  0  0  0
  -24.4520  -31.1410   22.1100 N   0  0  0  0  0  0  0  0  0  0  0  0
  -23.3830  -32.2250   23.7870 O   0  0  0  0  0  0  0  0  0  0  0  0
  -22.5280  -29.5470   22.5780 C   0  0  0  0  0  0  0  0  0  0  0  0
  -21.2050  -29.3560   22.4500 N   0  0  0  0  0  0  0  0  0  0  0  0
  -23.2160  -28.9360   23.4000 O   0  0  0  0  0  0  0  0  0  0  0  0
  -20.7130  -29.8970   21.7530 H   0  0  0  0  0  0  0  0  0  0  0  0
  -17.8390  -28.1530   22.9450 C   0  0  0  0  0  0  0  0  0  0  0  0
  -20.3920  -28.4260   23.2300 C   0  0  0  0  0  3  0  0  0  0  0  0
  -20.5060  -26.9870   22.6740 C   0  0  0  0  0  2  0  0  0  0  0  0
  -19.4120  -26.6450   21.6590 C   0  0  0  0  0  2  0  0  0  0  0  0
  -18.0260  -26.7930   22.2920 C   0  0  0  0  0  2  0  0  0  0  0  0
  -18.9510  -28.9260   23.3700 C   0  0  0  0  0  0  0  0  0  0  0  0
  -18.7240  -30.2000   23.9370 C   0  0  0  0  0  3  0  0  0  0  0  0
  -17.4160  -30.6990   24.0850 C   0  0  0  0  0  3  0  0  0  0  0  0
  -16.3180  -29.9210   23.6800 C   0  0  0  0  0  3  0  0  0  0  0  0
  -16.5300  -28.6500   23.1160 C   0  0  0  0  0  3  0  0  0  0  0  0
  -25.7600  -32.5370   23.8050 C   0  0  0  0  0  3  0  0  0  0  0  0
  -25.4980  -33.9470   24.1210 N   0  0  0  0  0  0  0  0  0  0  0  0
  -25.8710  -34.9800   23.3520 C   0  0  0  0  0  0  0  0  0  0  0  0
  -26.5450  -34.8430   22.3270 O   0  0  0  0  0  0  0  0  0  0  0  0
  -24.9070  -34.1310   24.9180 H   0  0  0  0  0  0  0  0  0  0  0  0
  -24.2390  -36.8440   22.9260 C   0  0  0  0  0  1  0  0  0  0  0  0
  -25.4250  -36.3870   23.7900 C   0  0  0  0  0  3  0  0  0  0  0  0
  -27.5520  -37.1850   24.7210 C   0  0  0  0  0  1  0  0  0  0  0  0
  -26.5070  -37.3940   23.7230 N   0  0  0  0  0  0  0  0  0  0  0  0
  -26.1340  -38.3310   23.8480 H   0  0  0  0  0  0  0  0  0  0  0  0
  -26.2830  -31.7660   25.0790 C   0  0  1  0  0  0  0  0  0  0  0  0
  -25.2050  -31.5600   26.1670 C   0  0  0  0  0  1  0  0  0  0  0  0
  -26.8320  -30.3740   24.6850 C   0  0  0  0  0  1  0  0  0  0  0  0
  -27.4600  -32.5420   25.7170 C   0  0  0  0  0  1  0  0  0  0  0  0
  -30.3300  -20.7470   21.5940 C   0  0  0  0  0  2  0  0  0  0  0  0
  -30.9380  -19.5780   20.8010 C   0  0  0  0  0  2  0  0  0  0  0  0
  -30.6500  -14.6010   20.0040 C   0  0  0  0  0  0  0  0  0  0  0  0
  -30.3450  -12.4140   18.9370 C   0  0  0  0  0  2  0  0  0  0  0  0
  -29.3320  -12.5820   17.7850 C   0  0  0  0  0  2  0  0  0  0  0  0
  -27.8840  -12.4430   18.2980 C   0  0  0  0  0  2  0  0  0  0  0  0
  -27.6040  -13.2930   19.5680 C   0  0  0  0  0  3  0  0  0  0  0  0
  -28.7250  -13.1000   20.6140 C   0  0  0  0  0  2  0  0  0  0  0  0
  -30.0080  -13.4070   19.9630 N   0  0  0  0  0  0  0  0  0  0  0  0
  -31.7860  -14.7780   19.5500 O   0  0  0  0  0  0  0  0  0  0  0  0
  -29.1470  -17.8010   21.2650 C   0  0  0  0  0  2  0  0  0  0  0  0
  -29.7000  -16.3650   21.3990 C   0  0  0  0  0  2  0  0  0  0  0  0
  -29.6280  -16.4850   18.9030 C   0  0  0  0  0  2  0  0  0  0  0  0
  -29.8570  -18.6620   20.1870 C   0  0  0  0  0  3  0  0  0  0  0  0
  -30.4150  -17.8020   19.0210 C   0  0  0  0  0  3  0  0  0  0  0  0
  -29.8160  -15.6590   20.1110 N   0  0  0  0  0  0  0  0  0  0  0  0
  -25.2620  -13.8830   20.4640 C   0  0  0  0  0  0  0  0  0  0  0  0
  -24.2170  -13.0980   20.8760 C   0  0  0  0  0  0  0  0  0  0  0  0
  -24.6700  -11.7480   20.7630 C   0  0  0  0  0  0  0  0  0  0  0  0
  -26.2850  -13.0080   20.1290 N   0  0  0  0  0  0  0  0  0  0  0  0
  -25.9360  -11.7180   20.3660 N   0  0  0  0  0  0  0  0  0  0  0  0
  -23.9570  -10.4790   20.9500 C   0  0  0  0  0  0  0  0  0  0  0  0
  -24.4060   -9.5100   21.8730 C   0  0  0  0  0  3  0  0  0  0  0  0
  -23.6950   -8.3040   22.0490 C   0  0  0  0  0  3  0  0  0  0  0  0
  -22.5170   -8.0610   21.3040 C   0  0  0  0  0  0  0  0  0  0  0  0
  -22.0870   -9.0190   20.3700 C   0  0  0  0  0  3  0  0  0  0  0  0
  -22.7990  -10.2160   20.1900 C   0  0  0  0  0  3  0  0  0  0  0  0
  -21.7710   -6.9100   21.3920 O   0  0  0  0  0  0  0  0  0  0  0  0
  -21.6670   -6.2090   22.5680 C   0  0  0  0  0  0  0  0  0  0  0  0
  -21.1050   -6.7800   23.7290 C   0  0  0  0  0  3  0  0  0  0  0  0
  -20.9530   -6.0010   24.8940 C   0  0  0  0  0  3  0  0  0  0  0  0
  -21.3540   -4.6530   24.8970 C   0  0  0  0  0  0  0  0  0  0  0  0
  -21.9090   -4.0800   23.7390 C   0  0  0  0  0  3  0  0  0  0  0  0
  -22.0630   -4.8560   22.5770 C   0  0  0  0  0  0  0  0  0  0  0  0
  -22.5790   -4.2940   21.4570 F   0  0  0  0  0  0  0  0  0  0  0  0
  -21.2040   -3.9020   26.0140 F   0  0  0  0  0  0  0  0  0  0  0  0
  -22.8410  -13.5640   21.2600 C   0  0  0  0  0  0  0  0  0  0  0  0
  -22.1830  -12.8550   22.1700 N   0  0  0  0  0  0  0  0  0  0  0  0
  -22.3580  -14.5900   20.7840 O   0  0  0  0  0  0  0  0  0  0  0  0
  -22.5840  -12.0220   22.5770 H   0  0  0  0  0  0  0  0  0  0  0  0
  -21.2620  -13.1500   22.4630 H   0  0  0  0  0  0  0  0  0  0  0  0
  -25.4250  -15.2590   20.3290 N   0  0  0  0  0  0  0  0  0  0  0  0
  -24.6880  -15.9230   20.5390 H   0  0  0  0  0  0  0  0  0  0  0  0
  -26.2770  -15.7020   20.0080 H   0  0  0  0  0  0  0  0  0  0  0  0
  -30.4040  -18.5530   17.7510 N   0  0  0  0  0  4  0  0  0  0  0  0
  -29.4670  -18.7690   17.4560 H   0  0  0  0  0  0  0  0  0  0  0  0
  -30.8470  -18.0190   17.0230 H   0  0  0  0  0  0  0  0  0  0  0  0
  -30.9120  -19.4140   17.8430 H   0  0  0  0  0  0  0  0  0  0  0  0
  1  2  1  0
  2  4  1  0
  2  3  1  0
  5  6  1  0
  5  2  1  0
  7  8  1  0
  7  6  1  0
  9 11  1  0
  9  8  1  0
 10 21  2  0
 11 16  1  0
 12 20  1  0
 12 22  1  0
 13 19  1  0
 13 15  1  0
 14 20  1  0
 15 14  1  0
 16 15  2  0
 17 18  1  0
 17 11  2  0
 18 13  2  0
 19 12  1  0
 20 10  1  0
 22 24  2  0
 23 22  1  0
 25 23  1  0
 26 35  2  0
 26 31  1  0
 27 23  1  0
 27 31  1  0
 28 27  1  0
 29 30  1  0
 29 28  1  0
 30 26  1  0
 31 32  2  0
 32 33  1  0
 34 33  2  0
 35 34  1  0
 36 10  1  0
 36 37  1  0
 36 46  1  0
 37 40  1  0
 38 42  1  0
 38 37  1  0
 39 38  2  0
 42 41  1  0
 44 42  1  0
 44 45  1  0
 44 43  1  0
 46 49  1  1
 46 47  1  0
 48 46  1  0
 50  1  1  0
 51 50  1  0
 52 65  1  0
 53 58  1  0
 54 55  1  0
 54 53  1  0
 56 55  1  0
 56 69  1  0
 56 57  1  0
 58 52  1  0
 58 57  1  0
 59 52  2  0
 60 61  1  0
 62 64  1  0
 62 65  1  0
 63 51  1  0
 63 60  1  0
 64 94  1  0
 64 63  1  0
 65 61  1  0
 66 67  2  0
 67 86  1  0
 68 67  1  0
 68 71  1  0
 69 70  1  0
 69 66  1  0
 70 68  2  0
 71 72  1  0
 72 73  2  0
 74 77  1  0
 74 73  1  0
 75 74  2  0
 76 75  1  0
 76 71  2  0
 77 78  1  0
 78 83  2  0
 78 79  1  0
 79 80  2  0
 80 81  1  0
 81 85  1  0
 82 81  2  0
 83 82  1  0
 84 83  1  0
 86 87  1  0
 87 90  1  0
 87 89  1  0
 88 86  2  0
 91 66  1  0
 91 92  1  0
 93 91  1  0
 94 97  1  0
 95 94  1  0
 96 94  1  0
M  ISO  4   8 101   9 101  52 100  65 100
M  END
>  <TORSDO>  (87) 
F 24

>  <SCORE>  (87) 
-12.319

>  <name>  (87) 
86

>  <ligand_id>  (87) 
86

>  <original_smiles>  (87) 
[H]c1c([H])c([H])c2c(c1[H])C([H])([H])C([H])([H])C([H])([H])C2([H])N([H])C(=O)C1([H])N(C(=O)C([H])(N([H])C(=O)C([H])(N([H])C([H])([H])[H])C([H])([H])[H])C(C([H])([H])[H])(C([H])([H])[H])C([H])([H])[H])C([H])([H])c2c([H])c(OC([H])([H])C([H])([H])C([H])([H])C([H])([H])[N+]([H])([H])C([H])([H])C([H])([H])C([H])([H])C3([H])C([H])([H])C([H])([H])N(C(=O)N4C([H])([H])C([H])([H])C([H])([H])C([H])(n5nc(-c6c([H])c([H])c(Oc7c([H])c([H])c(F)c([H])c7F)c([H])c6[H])c(C(=O)N([H])[H])c5N([H])[H])C4([H])[H])C([H])([H])C3([H])[N+]([H])([H])[H])c([H])c([H])c2C1([H])[H]

>  <smiles>  (87) 
[H]c1c([H])c([H])c2c(c1[H])C([H])([H])C([H])([H])C([H])([H])C2([H])N([H])C(=O)C1([H])N(C(=O)C([H])(N([H])C(=O)C([H])(N([H])C([H])([H])[H])C([H])([H])[H])C(C([H])([H])[H])(C([H])([H])[H])C([H])([H])[H])C([H])([H])c2c([H])c(OC([H])([H])C([H])([H])C([H])([H])C([H])([H])[N+]([H])([H])C([H])([H])C([H])([H])C([H])([H])C3([H])C([H])([H])C([H])([H])N(C(=O)N4C([H])([H])C([H])([H])C([H])([H])C([H])(n5nc(-c6c([H])c([H])c(Oc7c([H])c([H])c(F)c([H])c7F)c([H])c6[H])c(C(=O)N([H])[H])c5N([H])[H])C4([H])[H])C([H])([H])C3([H])[N+]([H])([H])[H])c([H])c([H])c2C1([H])[H]

$$$$
87:0:0
     RDKit          3D

 90 98  0  0  1  0  0  0  0  0999 V2000
  -28.7270  -20.3750   22.0120 C   0  0  0  0  0  2  0  0  0  0  0  0
  -28.2500  -19.8140   20.6640 C   0  0  0  0  0  2  0  0  0  0  0  0
  -29.9220  -21.2960   21.6760 C   0  0  0  0  0  2  0  0  0  0  0  0
  -29.4610  -20.0010   19.7450 C   0  0  0  0  0  3  0  0  0  0  0  0
  -30.0330  -21.3510   20.1960 N   0  0  1  0  0  4  0  0  0  0  0  0
  -31.0070  -21.4040   19.9370 H   0  0  0  0  0  0  0  0  0  0  0  0
  -30.3820  -18.6570   19.6170 C   0  0  0  0  0  2  0  0  0  0  0  0
  -30.5500  -17.5380   20.7630 C   0  0  0  0  0  2  0  0  0  0  0  0
  -31.1500  -15.0100   20.1580 C   0  0  0  0  0  0  0  0  0  0  0  0
  -30.9610  -12.7670   19.0870 C   0  0  0  0  0  2  0  0  0  0  0  0
  -29.9740  -12.8430   17.8990 C   0  0  0  0  0  2  0  0  0  0  0  0
  -28.5040  -12.7100   18.3600 C   0  0  0  0  0  2  0  0  0  0  0  0
  -28.1780  -13.5850   19.6020 C   0  0  0  0  0  3  0  0  0  0  0  0
  -29.2620  -13.4120   20.6870 C   0  0  0  0  0  2  0  0  0  0  0  0
  -30.5470  -13.7810   20.0770 N   0  0  0  0  0  0  0  0  0  0  0  0
  -32.3270  -15.1700   19.8210 O   0  0  0  0  0  0  0  0  0  0  0  0
  -30.3200  -16.0670   20.4510 N   0  0  0  0  0  0  0  0  0  0  0  0
  -29.3750  -15.7590   20.6290 H   0  0  0  0  0  0  0  0  0  0  0  0
  -25.8250  -14.2290   20.4130 C   0  0  0  0  0  0  0  0  0  0  0  0
  -24.7470  -13.4730   20.7840 C   0  0  0  0  0  0  0  0  0  0  0  0
  -25.1660  -12.1120   20.6900 C   0  0  0  0  0  0  0  0  0  0  0  0
  -26.8350  -13.3270   20.1170 N   0  0  0  0  0  0  0  0  0  0  0  0
  -26.4460  -12.0470   20.3420 N   0  0  0  0  0  0  0  0  0  0  0  0
  -24.4080  -10.8660   20.8490 C   0  0  0  0  0  0  0  0  0  0  0  0
  -24.7990   -9.8820   21.7850 C   0  0  0  0  0  3  0  0  0  0  0  0
  -24.0440   -8.6980   21.9350 C   0  0  0  0  0  3  0  0  0  0  0  0
  -22.8830   -8.4930   21.1480 C   0  0  0  0  0  0  0  0  0  0  0  0
  -22.5150   -9.4630   20.2000 C   0  0  0  0  0  3  0  0  0  0  0  0
  -23.2710  -10.6360   20.0500 C   0  0  0  0  0  3  0  0  0  0  0  0
  -22.1030   -7.3640   21.2080 O   0  0  0  0  0  0  0  0  0  0  0  0
  -21.9470   -6.6550   22.3720 C   0  0  0  0  0  0  0  0  0  0  0  0
  -21.4010   -7.2440   23.5350 C   0  0  0  0  0  3  0  0  0  0  0  0
  -21.1960   -6.4620   24.6890 C   0  0  0  0  0  3  0  0  0  0  0  0
  -21.5260   -5.0920   24.6790 C   0  0  0  0  0  0  0  0  0  0  0  0
  -22.0630   -4.5040   23.5210 C   0  0  0  0  0  3  0  0  0  0  0  0
  -22.2690   -5.2840   22.3690 C   0  0  0  0  0  0  0  0  0  0  0  0
  -22.7670   -4.7070   21.2490 F   0  0  0  0  0  0  0  0  0  0  0  0
  -21.3190   -4.3400   25.7840 F   0  0  0  0  0  0  0  0  0  0  0  0
  -23.3700  -13.9790   21.1080 C   0  0  0  0  0  0  0  0  0  0  0  0
  -22.6460  -13.2770   21.9740 N   0  0  0  0  0  0  0  0  0  0  0  0
  -22.9450  -15.0300   20.6290 O   0  0  0  0  0  0  0  0  0  0  0  0
  -23.0030  -12.4270   22.3860 H   0  0  0  0  0  0  0  0  0  0  0  0
  -21.7200  -13.5890   22.2230 H   0  0  0  0  0  0  0  0  0  0  0  0
  -26.0200  -15.6030   20.2840 N   0  0  0  0  0  0  0  0  0  0  0  0
  -25.2630  -16.2580   20.4540 H   0  0  0  0  0  0  0  0  0  0  0  0
  -26.8510  -16.0440   19.9150 H   0  0  0  0  0  0  0  0  0  0  0  0
  -29.3350  -22.5930   19.5950 C   0  0  0  0  0  2  0  0  0  0  0  0
  -29.6420  -24.0990   20.1160 C   0  0  0  0  0  3  0  0  0  0  0  0
  -28.5310  -25.2070   19.7770 C   0  0  0  0  0  3  0  0  0  0  0  0
  -28.6930  -26.6610   20.0830 O   0  0  0  0  0  0  0  0  0  0  0  0
  -24.6320  -31.7760   23.2190 C   0  0  0  0  0  0  0  0  0  0  0  0
  -27.5350  -27.4710   20.0450 C   0  0  0  0  0  0  0  0  0  0  0  0
  -23.5380  -30.3840   21.5010 C   0  0  0  0  0  3  0  0  0  0  0  0
  -25.0930  -28.9770   20.0460 C   0  0  0  0  0  0  0  0  0  0  0  0
  -26.0680  -30.8310   21.3980 C   0  0  0  0  0  2  0  0  0  0  0  0
  -26.2290  -29.4940   20.6840 C   0  0  0  0  0  0  0  0  0  0  0  0
  -27.4550  -28.7620   20.6620 C   0  0  0  0  0  3  0  0  0  0  0  0
  -26.3670  -27.0090   19.3940 C   0  0  0  0  0  3  0  0  0  0  0  0
  -25.1680  -27.7400   19.3900 C   0  0  0  0  0  3  0  0  0  0  0  0
  -23.8160  -29.7900   20.0970 C   0  0  0  0  0  2  0  0  0  0  0  0
  -24.7600  -31.0180   22.0910 N   0  0  0  0  0  0  0  0  0  0  0  0
  -23.5240  -31.9720   23.7410 O   0  0  0  0  0  0  0  0  0  0  0  0
  -22.9110  -29.2950   22.4070 C   0  0  0  0  0  0  0  0  0  0  0  0
  -21.5960  -29.0550   22.2520 N   0  0  0  0  0  0  0  0  0  0  0  0
  -23.6080  -28.6720   23.2110 O   0  0  0  0  0  0  0  0  0  0  0  0
  -21.0880  -29.6190   21.5860 H   0  0  0  0  0  0  0  0  0  0  0  0
  -18.2710  -27.6850   22.6820 C   0  0  0  0  0  0  0  0  0  0  0  0
  -20.8150  -28.0480   22.9760 C   0  0  0  0  0  3  0  0  0  0  0  0
  -20.9810  -26.6480   22.3400 C   0  0  0  0  0  2  0  0  0  0  0  0
  -19.9000  -26.3200   21.3050 C   0  0  0  0  0  2  0  0  0  0  0  0
  -18.5100  -26.3780   21.9430 C   0  0  0  0  0  2  0  0  0  0  0  0
  -19.3540  -28.4760   23.1520 C   0  0  0  0  0  0  0  0  0  0  0  0
  -19.0750  -29.6980   23.8020 C   0  0  0  0  0  3  0  0  0  0  0  0
  -17.7490  -30.1330   23.9800 C   0  0  0  0  0  3  0  0  0  0  0  0
  -16.6820  -29.3420   23.5280 C   0  0  0  0  0  3  0  0  0  0  0  0
  -16.9440  -28.1150   22.8860 C   0  0  0  0  0  3  0  0  0  0  0  0
  -25.8660  -32.4570   23.8890 C   0  0  0  0  0  3  0  0  0  0  0  0
  -25.5000  -33.8450   24.1950 N   0  0  0  0  0  0  0  0  0  0  0  0
  -25.8030  -34.9050   23.4320 C   0  0  0  0  0  0  0  0  0  0  0  0
  -26.5020  -34.8220   22.4190 O   0  0  0  0  0  0  0  0  0  0  0  0
  -24.9100  -33.9860   25.0020 H   0  0  0  0  0  0  0  0  0  0  0  0
  -24.0130  -36.6210   23.0190 C   0  0  0  0  0  1  0  0  0  0  0  0
  -25.2470  -36.2750   23.8660 C   0  0  0  0  0  3  0  0  0  0  0  0
  -27.3170  -37.2570   24.7500 C   0  0  0  0  0  1  0  0  0  0  0  0
  -26.2390  -37.3680   23.7720 N   0  0  0  0  0  0  0  0  0  0  0  0
  -25.7880  -38.2720   23.8940 H   0  0  0  0  0  0  0  0  0  0  0  0
  -26.3590  -31.7150   25.1940 C   0  0  1  0  0  0  0  0  0  0  0  0
  -25.2340  -31.4260   26.2140 C   0  0  0  0  0  1  0  0  0  0  0  0
  -27.0340  -30.3680   24.8470 C   0  0  0  0  0  1  0  0  0  0  0  0
  -27.4320  -32.5740   25.9080 C   0  0  0  0  0  1  0  0  0  0  0  0
  2  1  1  0
  3  1  1  0
  4  7  1  0
  4  5  1  0
  4  2  1  0
  5  3  1  0
  5  6  1  1
  7  8  1  0
  9 17  1  0
 10 15  1  0
 11 12  1  0
 11 10  1  0
 13 12  1  0
 13 22  1  0
 13 14  1  0
 15  9  1  0
 15 14  1  0
 16  9  2  0
 17 18  1  0
 17  8  1  0
 19 20  2  0
 20 39  1  0
 21 20  1  0
 21 24  1  0
 22 23  1  0
 22 19  1  0
 23 21  2  0
 24 25  1  0
 25 26  2  0
 27 30  1  0
 27 26  1  0
 28 27  2  0
 29 28  1  0
 29 24  2  0
 30 31  1  0
 31 32  1  0
 32 33  2  0
 34 33  1  0
 34 38  1  0
 35 34  2  0
 36 31  2  0
 36 35  1  0
 37 36  1  0
 39 40  1  0
 40 43  1  0
 40 42  1  0
 41 39  2  0
 44 19  1  0
 44 45  1  0
 46 44  1  0
 47 48  1  0
 47  5  1  0
 49 50  1  0
 49 48  2  0
 51 62  2  0
 52 50  1  0
 52 57  1  0
 53 61  1  0
 53 63  1  0
 54 60  1  0
 54 56  1  0
 55 61  1  0
 56 55  1  0
 57 56  2  0
 58 52  2  0
 59 58  1  0
 59 54  2  0
 60 53  1  0
 61 51  1  0
 63 65  2  0
 64 63  1  0
 66 64  1  0
 67 76  2  0
 67 72  1  0
 68 64  1  0
 68 72  1  0
 69 68  1  0
 70 71  1  0
 70 69  1  0
 71 67  1  0
 72 73  2  0
 73 74  1  0
 75 74  2  0
 76 75  1  0
 77 51  1  0
 77 78  1  0
 77 87  1  0
 78 81  1  0
 79 83  1  0
 79 78  1  0
 80 79  2  0
 83 82  1  0
 85 83  1  0
 85 86  1  0
 85 84  1  0
 87 90  1  1
 87 88  1  0
 89 87  1  0
M  ISO  4   9 100  17 100  49 101  50 101
M  END
>  <TORSDO>  (88) 
F 21

>  <SCORE>  (88) 
-11.502

>  <name>  (88) 
87

>  <ligand_id>  (88) 
87

>  <original_smiles>  (88) 
[H]c1c([H])c([H])c2c(c1[H])C([H])([H])C([H])([H])C([H])([H])C2([H])N([H])C(=O)C1([H])N(C(=O)C([H])(N([H])C(=O)C([H])(N([H])C([H])([H])[H])C([H])([H])[H])C(C([H])([H])[H])(C([H])([H])[H])C([H])([H])[H])C([H])([H])c2c([H])c(OC([H])([H])C([H])([H])C([H])([H])[N+]3([H])C([H])([H])C([H])([H])C([H])([H])C3([H])C([H])([H])C([H])([H])N([H])C(=O)N3C([H])([H])C([H])([H])C([H])([H])C([H])(n4nc(-c5c([H])c([H])c(Oc6c([H])c([H])c(F)c([H])c6F)c([H])c5[H])c(C(=O)N([H])[H])c4N([H])[H])C3([H])[H])c([H])c([H])c2C1([H])[H]

>  <smiles>  (88) 
[H]c1c([H])c([H])c2c(c1[H])C([H])([H])C([H])([H])C([H])([H])C2([H])N([H])C(=O)C1([H])N(C(=O)C([H])(N([H])C(=O)C([H])(N([H])C([H])([H])[H])C([H])([H])[H])C(C([H])([H])[H])(C([H])([H])[H])C([H])([H])[H])C([H])([H])c2c([H])c(OC([H])([H])C([H])([H])C([H])([H])[N+]3([H])C([H])([H])C([H])([H])C([H])([H])C3([H])C([H])([H])C([H])([H])N([H])C(=O)N3C([H])([H])C([H])([H])C([H])([H])C([H])(n4nc(-c5c([H])c([H])c(Oc6c([H])c([H])c(F)c([H])c6F)c([H])c5[H])c(C(=O)N([H])[H])c4N([H])[H])C3([H])[H])c([H])c([H])c2C1([H])[H]

$$$$
88:0:0
     RDKit          3D

 93101  0  0  1  0  0  0  0  0999 V2000
  -30.1850  -20.4780   20.3380 C   0  0  0  0  0  0  0  0  0  0  0  0
  -29.0970  -20.0440   19.9470 O   0  0  0  0  0  0  0  0  0  0  0  0
  -30.4330  -21.9910   20.5310 C   0  0  0  0  0  2  0  0  0  0  0  0
  -29.2390  -22.9130   20.1720 C   0  0  0  0  0  2  0  0  0  0  0  0
  -29.5050  -24.4330   20.3660 C   0  0  0  0  0  3  0  0  0  0  0  0
  -29.7110  -24.6530   21.6670 F   0  0  0  0  0  0  0  0  0  0  0  0
  -28.3150  -25.3030   19.8860 C   0  0  0  0  0  2  0  0  0  0  0  0
  -28.4390  -26.7160   20.1500 O   0  0  0  0  0  0  0  0  0  0  0  0
  -24.5960  -31.7860   23.3410 C   0  0  0  0  0  0  0  0  0  0  0  0
  -27.2660  -27.4550   20.1230 C   0  0  0  0  0  0  0  0  0  0  0  0
  -23.3980  -30.4320   21.6530 C   0  0  0  0  0  3  0  0  0  0  0  0
  -24.8620  -28.9580   20.1750 C   0  0  0  0  0  0  0  0  0  0  0  0
  -25.9230  -30.8160   21.4650 C   0  0  0  0  0  2  0  0  0  0  0  0
  -26.0170  -29.4680   20.7780 C   0  0  0  0  0  0  0  0  0  0  0  0
  -27.2210  -28.7250   20.7460 C   0  0  0  0  0  3  0  0  0  0  0  0
  -26.0890  -26.9700   19.5040 C   0  0  0  0  0  3  0  0  0  0  0  0
  -24.8950  -27.7100   19.5330 C   0  0  0  0  0  3  0  0  0  0  0  0
  -23.6110  -29.8030   20.2520 C   0  0  0  0  0  2  0  0  0  0  0  0
  -24.6580  -31.0220   22.2130 N   0  0  0  0  0  0  0  0  0  0  0  0
  -23.5140  -32.0350   23.8880 O   0  0  0  0  0  0  0  0  0  0  0  0
  -22.7540  -29.3750   22.5810 C   0  0  0  0  0  0  0  0  0  0  0  0
  -21.4520  -29.1130   22.3770 N   0  0  0  0  0  0  0  0  0  0  0  0
  -23.4240  -28.7960   23.4390 O   0  0  0  0  0  0  0  0  0  0  0  0
  -20.9720  -29.6350   21.6560 H   0  0  0  0  0  0  0  0  0  0  0  0
  -18.1300  -27.7220   22.6750 C   0  0  0  0  0  0  0  0  0  0  0  0
  -20.6480  -28.1300   23.1040 C   0  0  0  0  0  3  0  0  0  0  0  0
  -20.8700  -26.7060   22.5430 C   0  0  0  0  0  2  0  0  0  0  0  0
  -19.8540  -26.3170   21.4660 C   0  0  0  0  0  2  0  0  0  0  0  0
  -18.4270  -26.3830   22.0220 C   0  0  0  0  0  2  0  0  0  0  0  0
  -19.1740  -28.5480   23.1690 C   0  0  0  0  0  0  0  0  0  0  0  0
  -18.8470  -29.7990   23.7370 C   0  0  0  0  0  3  0  0  0  0  0  0
  -17.5070  -30.2230   23.8190 C   0  0  0  0  0  3  0  0  0  0  0  0
  -16.4770  -29.3920   23.3460 C   0  0  0  0  0  3  0  0  0  0  0  0
  -16.7900  -28.1440   22.7780 C   0  0  0  0  0  3  0  0  0  0  0  0
  -25.8790  -32.4050   23.9790 C   0  0  0  0  0  3  0  0  0  0  0  0
  -25.5850  -33.8080   24.2940 N   0  0  0  0  0  0  0  0  0  0  0  0
  -25.9060  -34.8460   23.5100 C   0  0  0  0  0  0  0  0  0  0  0  0
  -26.5510  -34.7220   22.4650 O   0  0  0  0  0  0  0  0  0  0  0  0
  -25.0120  -33.9800   25.1060 H   0  0  0  0  0  0  0  0  0  0  0  0
  -24.1760  -36.6370   23.1650 C   0  0  0  0  0  1  0  0  0  0  0  0
  -25.4350  -36.2440   23.9540 C   0  0  0  0  0  3  0  0  0  0  0  0
  -27.5860  -37.1390   24.7260 C   0  0  0  0  0  1  0  0  0  0  0  0
  -26.4680  -37.2900   23.7990 N   0  0  0  0  0  0  0  0  0  0  0  0
  -26.0680  -38.2140   23.9350 H   0  0  0  0  0  0  0  0  0  0  0  0
  -26.3640  -31.6330   25.2670 C   0  0  1  0  0  0  0  0  0  0  0  0
  -25.2380  -31.3730   26.2940 C   0  0  0  0  0  1  0  0  0  0  0  0
  -26.9820  -30.2680   24.8830 C   0  0  0  0  0  1  0  0  0  0  0  0
  -27.4790  -32.4410   25.9730 C   0  0  0  0  0  1  0  0  0  0  0  0
  -31.3720  -19.5370   20.6250 C   0  0  0  0  0  2  0  0  0  0  0  0
  -30.7290  -14.4570   19.4550 C   0  0  0  0  0  0  0  0  0  0  0  0
  -30.1140  -12.4810   18.0970 C   0  0  0  0  0  2  0  0  0  0  0  0
  -28.9620  -12.7960   17.1170 C   0  0  0  0  0  2  0  0  0  0  0  0
  -27.5900  -12.5970   17.7910 C   0  0  0  0  0  2  0  0  0  0  0  0
  -27.5150  -13.2860   19.1780 C   0  0  0  0  0  3  0  0  0  0  0  0
  -28.7480  -12.8990   20.0200 C   0  0  0  0  0  2  0  0  0  0  0  0
  -29.9700  -13.3230   19.3070 N   0  0  0  0  0  0  0  0  0  0  0  0
  -31.5250  -14.7940   18.5690 O   0  0  0  0  0  0  0  0  0  0  0  0
  -29.9820  -16.5120   22.6410 C   0  0  0  0  0  2  0  0  0  0  0  0
  -29.7370  -15.3580   21.6330 C   0  0  0  0  0  2  0  0  0  0  0  0
  -32.1040  -15.7320   21.0290 C   0  0  0  0  0  2  0  0  0  0  0  0
  -30.1910  -17.9410   22.0970 C   0  0  0  0  0  2  0  0  0  0  0  0
  -32.2020  -17.2480   20.6980 C   0  0  0  0  0  2  0  0  0  0  0  0
  -30.8250  -15.0830   20.6730 N   0  0  0  0  0  0  0  0  0  0  0  0
  -30.9800  -18.1030   20.8380 N   0  0  2  0  0  4  0  0  0  0  0  0
  -30.3620  -17.8690   20.0740 H   0  0  0  0  0  0  0  0  0  0  0  0
  -25.2750  -13.8050   20.3400 C   0  0  0  0  0  0  0  0  0  0  0  0
  -24.3040  -12.9920   20.8600 C   0  0  0  0  0  0  0  0  0  0  0  0
  -24.7700  -11.6550   20.6730 C   0  0  0  0  0  0  0  0  0  0  0  0
  -26.2710  -12.9600   19.8750 N   0  0  0  0  0  0  0  0  0  0  0  0
  -25.9790  -11.6600   20.1270 N   0  0  0  0  0  0  0  0  0  0  0  0
  -24.1100  -10.3680   20.9310 C   0  0  0  0  0  0  0  0  0  0  0  0
  -24.5930   -9.4740   21.9130 C   0  0  0  0  0  3  0  0  0  0  0  0
  -23.9320   -8.2500   22.1530 C   0  0  0  0  0  3  0  0  0  0  0  0
  -22.7740   -7.9120   21.4120 C   0  0  0  0  0  0  0  0  0  0  0  0
  -22.3120   -8.7960   20.4210 C   0  0  0  0  0  3  0  0  0  0  0  0
  -22.9730  -10.0100   20.1800 C   0  0  0  0  0  3  0  0  0  0  0  0
  -22.0820   -6.7340   21.5580 O   0  0  0  0  0  0  0  0  0  0  0  0
  -21.9050   -6.1520   22.7870 C   0  0  0  0  0  0  0  0  0  0  0  0
  -21.2920   -6.8410   23.8570 C   0  0  0  0  0  3  0  0  0  0  0  0
  -21.0680   -6.1820   25.0820 C   0  0  0  0  0  3  0  0  0  0  0  0
  -21.4460   -4.8340   25.2370 C   0  0  0  0  0  0  0  0  0  0  0  0
  -22.0510   -4.1450   24.1710 C   0  0  0  0  0  3  0  0  0  0  0  0
  -22.2770   -4.8020   22.9490 C   0  0  0  0  0  0  0  0  0  0  0  0
  -22.8410   -4.1280   21.9170 F   0  0  0  0  0  0  0  0  0  0  0  0
  -21.2230   -4.1970   26.4100 F   0  0  0  0  0  0  0  0  0  0  0  0
  -22.9750  -13.4230   21.4130 C   0  0  0  0  0  0  0  0  0  0  0  0
  -22.4610  -12.7030   22.4050 N   0  0  0  0  0  0  0  0  0  0  0  0
  -22.4060  -14.4310   20.9980 O   0  0  0  0  0  0  0  0  0  0  0  0
  -22.9370  -11.8860   22.7580 H   0  0  0  0  0  0  0  0  0  0  0  0
  -21.5790  -12.9720   22.8170 H   0  0  0  0  0  0  0  0  0  0  0  0
  -25.3870  -15.1850   20.2060 N   0  0  0  0  0  0  0  0  0  0  0  0
  -24.6440  -15.8160   20.4900 H   0  0  0  0  0  0  0  0  0  0  0  0
  -26.1460  -15.6570   19.7300 H   0  0  0  0  0  0  0  0  0  0  0  0
  1  3  1  0
  1 49  1  0
  2  1  2  0
  4  5  1  0
  4  3  1  0
  5  6  1  0
  7  8  1  0
  7  5  1  0
  9 20  2  0
 10  8  1  0
 10 15  1  0
 11 19  1  0
 11 21  1  0
 12 18  1  0
 12 14  1  0
 13 19  1  0
 14 13  1  0
 15 14  2  0
 16 17  1  0
 16 10  2  0
 17 12  2  0
 18 11  1  0
 19  9  1  0
 21 23  2  0
 22 21  1  0
 24 22  1  0
 25 34  2  0
 25 30  1  0
 26 22  1  0
 26 30  1  0
 27 26  1  0
 28 29  1  0
 28 27  1  0
 29 25  1  0
 30 31  2  0
 31 32  1  0
 33 32  2  0
 34 33  1  0
 35  9  1  0
 35 36  1  0
 35 45  1  0
 36 39  1  0
 37 41  1  0
 37 36  1  0
 38 37  2  0
 41 40  1  0
 43 44  1  0
 43 41  1  0
 43 42  1  0
 45 48  1  1
 45 46  1  0
 47 45  1  0
 49 64  1  0
 50 63  1  0
 51 56  1  0
 52 53  1  0
 52 51  1  0
 54 53  1  0
 54 69  1  0
 54 55  1  0
 56 50  1  0
 56 55  1  0
 57 50  2  0
 59 58  1  0
 61 58  1  0
 62 64  1  0
 62 60  1  0
 63 60  1  0
 63 59  1  0
 64 61  1  0
 64 65  1  6
 66 67  2  0
 67 86  1  0
 68 67  1  0
 68 71  1  0
 69 70  1  0
 69 66  1  0
 70 68  2  0
 71 72  1  0
 72 73  2  0
 74 77  1  0
 74 73  1  0
 75 74  2  0
 76 75  1  0
 76 71  2  0
 77 78  1  0
 78 83  2  0
 78 79  1  0
 79 80  2  0
 80 81  1  0
 81 85  1  0
 82 81  2  0
 83 82  1  0
 84 83  1  0
 86 87  1  0
 87 89  1  0
 87 90  1  0
 88 86  2  0
 91 66  1  0
 91 92  1  0
 93 91  1  0
M  ISO  4   7 101   8 101  50 100  63 100
M  END
>  <TORSDO>  (89) 
F 21

>  <SCORE>  (89) 
-9.823

>  <name>  (89) 
88

>  <ligand_id>  (89) 
88

>  <original_smiles>  (89) 
[H]c1c([H])c([H])c2c(c1[H])C([H])([H])C([H])([H])C([H])([H])C2([H])N([H])C(=O)C1([H])N(C(=O)C([H])(N([H])C(=O)C([H])(N([H])C([H])([H])[H])C([H])([H])[H])C(C([H])([H])[H])(C([H])([H])[H])C([H])([H])[H])C([H])([H])c2c([H])c(OC([H])([H])C([H])(F)C([H])([H])C([H])([H])C(=O)C([H])([H])[N+]3([H])C([H])([H])C([H])([H])N(C(=O)N4C([H])([H])C([H])([H])C([H])([H])C([H])(n5nc(-c6c([H])c([H])c(Oc7c([H])c([H])c(F)c([H])c7F)c([H])c6[H])c(C(=O)N([H])[H])c5N([H])[H])C4([H])[H])C([H])([H])C([H])([H])C3([H])[H])c([H])c([H])c2C1([H])[H]

>  <smiles>  (89) 
[H]c1c([H])c([H])c2c(c1[H])C([H])([H])C([H])([H])C([H])([H])C2([H])N([H])C(=O)C1([H])N(C(=O)C([H])(N([H])C(=O)C([H])(N([H])C([H])([H])[H])C([H])([H])[H])C(C([H])([H])[H])(C([H])([H])[H])C([H])([H])[H])C([H])([H])c2c([H])c(OC([H])([H])C([H])(F)C([H])([H])C([H])([H])C(=O)C([H])([H])[N+]3([H])C([H])([H])C([H])([H])N(C(=O)N4C([H])([H])C([H])([H])C([H])([H])C([H])(n5nc(-c6c([H])c([H])c(Oc7c([H])c([H])c(F)c([H])c7F)c([H])c6[H])c(C(=O)N([H])[H])c5N([H])[H])C4([H])[H])C([H])([H])C([H])([H])C3([H])[H])c([H])c([H])c2C1([H])[H]

$$$$
89:0:0
     RDKit          3D

 93101  0  0  1  0  0  0  0  0999 V2000
  -27.3210  -17.5050   18.9670 C   0  0  0  0  0  3  0  0  0  0  0  0
  -27.8080  -17.3610   20.2200 C   0  0  0  0  0  3  0  0  0  0  0  0
  -27.9770  -18.2110   17.7900 C   0  0  0  0  0  2  0  0  0  0  0  0
  -29.5140  -18.2330   17.8550 C   0  0  0  0  0  2  0  0  0  0  0  0
  -30.0690  -19.2750   18.8450 C   0  0  0  0  0  2  0  0  0  0  0  0
  -29.0900  -17.9590   20.7840 C   0  0  0  0  0  3  0  0  0  0  0  0
  -29.3180  -19.2920   20.1310 N   0  0  1  0  0  4  0  0  0  0  0  0
  -28.3790  -19.4860   19.8130 H   0  0  0  0  0  0  0  0  0  0  0  0
  -30.3030  -16.9660   20.8580 C   0  0  0  0  0  2  0  0  0  0  0  0
  -30.6350  -14.4920   20.6200 C   0  0  0  0  0  0  0  0  0  0  0  0
  -30.3280  -12.3540   19.4360 C   0  0  0  0  0  2  0  0  0  0  0  0
  -29.4060  -12.5850   18.2200 C   0  0  0  0  0  2  0  0  0  0  0  0
  -27.9270  -12.4440   18.6260 C   0  0  0  0  0  2  0  0  0  0  0  0
  -27.5760  -13.2510   19.9040 C   0  0  0  0  0  3  0  0  0  0  0  0
  -28.6190  -13.0270   21.0230 C   0  0  0  0  0  2  0  0  0  0  0  0
  -29.9520  -13.3230   20.4760 N   0  0  0  0  0  0  0  0  0  0  0  0
  -31.7780  -14.6530   20.1830 O   0  0  0  0  0  0  0  0  0  0  0  0
  -29.9260  -15.5480   21.0780 N   0  0  0  0  0  0  0  0  0  0  0  0
  -29.0020  -15.3590   21.4430 H   0  0  0  0  0  0  0  0  0  0  0  0
  -25.1640  -13.8370   20.5620 C   0  0  0  0  0  0  0  0  0  0  0  0
  -24.0970  -13.0660   20.9180 C   0  0  0  0  0  0  0  0  0  0  0  0
  -24.5650  -11.7180   20.9010 C   0  0  0  0  0  0  0  0  0  0  0  0
  -26.2200  -12.9660   20.3580 N   0  0  0  0  0  0  0  0  0  0  0  0
  -25.8620  -11.6810   20.6180 N   0  0  0  0  0  0  0  0  0  0  0  0
  -23.8400  -10.4570   21.0830 C   0  0  0  0  0  0  0  0  0  0  0  0
  -24.2620   -9.4920   22.0240 C   0  0  0  0  0  3  0  0  0  0  0  0
  -23.5400   -8.2930   22.1920 C   0  0  0  0  0  3  0  0  0  0  0  0
  -22.3800   -8.0510   21.4180 C   0  0  0  0  0  0  0  0  0  0  0  0
  -21.9770   -9.0030   20.4660 C   0  0  0  0  0  3  0  0  0  0  0  0
  -22.7000  -10.1960   20.2950 C   0  0  0  0  0  3  0  0  0  0  0  0
  -21.6250   -6.9080   21.4940 O   0  0  0  0  0  0  0  0  0  0  0  0
  -21.5620   -6.1660   22.6470 C   0  0  0  0  0  0  0  0  0  0  0  0
  -21.1230   -6.7210   23.8670 C   0  0  0  0  0  3  0  0  0  0  0  0
  -21.0130   -5.9050   25.0110 C   0  0  0  0  0  3  0  0  0  0  0  0
  -21.3280   -4.5330   24.9310 C   0  0  0  0  0  0  0  0  0  0  0  0
  -21.7570   -3.9790   23.7130 C   0  0  0  0  0  3  0  0  0  0  0  0
  -21.8730   -4.7940   22.5740 C   0  0  0  0  0  0  0  0  0  0  0  0
  -22.2700   -4.2490   21.3990 F   0  0  0  0  0  0  0  0  0  0  0  0
  -21.2120   -3.7470   26.0260 F   0  0  0  0  0  0  0  0  0  0  0  0
  -22.6940  -13.5450   21.1580 C   0  0  0  0  0  0  0  0  0  0  0  0
  -21.9520  -12.8520   22.0140 N   0  0  0  0  0  0  0  0  0  0  0  0
  -22.2670  -14.5670   20.6250 O   0  0  0  0  0  0  0  0  0  0  0  0
  -22.3150  -12.0300   22.4720 H   0  0  0  0  0  0  0  0  0  0  0  0
  -21.0060  -13.1440   22.2100 H   0  0  0  0  0  0  0  0  0  0  0  0
  -25.3080  -15.2030   20.3660 N   0  0  0  0  0  0  0  0  0  0  0  0
  -24.4920  -15.8040   20.3490 H   0  0  0  0  0  0  0  0  0  0  0  0
  -26.1110  -15.5990   19.8980 H   0  0  0  0  0  0  0  0  0  0  0  0
  -29.5730  -20.4600   21.0310 C   0  0  0  0  0  2  0  0  0  0  0  0
  -29.4430  -21.8300   20.2990 C   0  0  0  0  0  2  0  0  0  0  0  0
  -29.0510  -23.0430   21.1760 C   0  0  0  0  0  2  0  0  0  0  0  0
  -28.9680  -24.3620   20.3730 C   0  0  0  0  0  2  0  0  0  0  0  0
  -28.4270  -25.5550   21.1840 C   0  0  0  0  0  2  0  0  0  0  0  0
  -28.4590  -26.7460   20.3910 O   0  0  0  0  0  0  0  0  0  0  0  0
  -24.5970  -31.9340   23.3250 C   0  0  0  0  0  0  0  0  0  0  0  0
  -27.2860  -27.4660   20.3680 C   0  0  0  0  0  0  0  0  0  0  0  0
  -23.4140  -30.5130   21.6790 C   0  0  0  0  0  3  0  0  0  0  0  0
  -24.8890  -28.9520   20.3040 C   0  0  0  0  0  0  0  0  0  0  0  0
  -25.9370  -30.8770   21.5120 C   0  0  0  0  0  2  0  0  0  0  0  0
  -26.0350  -29.4960   20.9010 C   0  0  0  0  0  0  0  0  0  0  0  0
  -27.2390  -28.7590   20.9280 C   0  0  0  0  0  3  0  0  0  0  0  0
  -26.1300  -26.9290   19.7670 C   0  0  0  0  0  3  0  0  0  0  0  0
  -24.9300  -27.6670   19.7330 C   0  0  0  0  0  3  0  0  0  0  0  0
  -23.6430  -29.8090   20.3150 C   0  0  0  0  0  2  0  0  0  0  0  0
  -24.6670  -31.1210   22.2320 N   0  0  0  0  0  0  0  0  0  0  0  0
  -23.5090  -32.2130   23.8470 O   0  0  0  0  0  0  0  0  0  0  0  0
  -22.7410  -29.5080   22.6420 C   0  0  0  0  0  0  0  0  0  0  0  0
  -21.4160  -29.3360   22.5010 N   0  0  0  0  0  0  0  0  0  0  0  0
  -23.4110  -28.8810   23.4680 O   0  0  0  0  0  0  0  0  0  0  0  0
  -20.9330  -29.8890   21.8060 H   0  0  0  0  0  0  0  0  0  0  0  0
  -18.0300  -28.1870   22.9830 C   0  0  0  0  0  0  0  0  0  0  0  0
  -20.5870  -28.4130   23.2750 C   0  0  0  0  0  3  0  0  0  0  0  0
  -20.6770  -26.9750   22.7100 C   0  0  0  0  0  2  0  0  0  0  0  0
  -19.5820  -26.6600   21.6890 C   0  0  0  0  0  2  0  0  0  0  0  0
  -18.1960  -26.8300   22.3190 C   0  0  0  0  0  2  0  0  0  0  0  0
  -19.1540  -28.9360   23.4180 C   0  0  0  0  0  0  0  0  0  0  0  0
  -18.9460  -30.2090   23.9920 C   0  0  0  0  0  3  0  0  0  0  0  0
  -17.6470  -30.7300   24.1410 C   0  0  0  0  0  3  0  0  0  0  0  0
  -16.5370  -29.9750   23.7250 C   0  0  0  0  0  3  0  0  0  0  0  0
  -16.7290  -28.7060   23.1500 C   0  0  0  0  0  3  0  0  0  0  0  0
  -25.8750  -32.5740   23.9520 C   0  0  0  0  0  3  0  0  0  0  0  0
  -25.5700  -33.9790   24.2510 N   0  0  0  0  0  0  0  0  0  0  0  0
  -25.9200  -35.0150   23.4750 C   0  0  0  0  0  0  0  0  0  0  0  0
  -26.6080  -34.8850   22.4570 O   0  0  0  0  0  0  0  0  0  0  0  0
  -24.9680  -34.1520   25.0430 H   0  0  0  0  0  0  0  0  0  0  0  0
  -24.2080  -36.8050   23.0480 C   0  0  0  0  0  1  0  0  0  0  0  0
  -25.4310  -36.4120   23.8940 C   0  0  0  0  0  3  0  0  0  0  0  0
  -27.5540  -37.3040   24.7460 C   0  0  0  0  0  1  0  0  0  0  0  0
  -26.4720  -37.4590   23.7800 N   0  0  0  0  0  0  0  0  0  0  0  0
  -26.0650  -38.3830   23.9080 H   0  0  0  0  0  0  0  0  0  0  0  0
  -26.3720  -31.8210   25.2480 C   0  0  1  0  0  0  0  0  0  0  0  0
  -25.2640  -31.6040   26.3040 C   0  0  0  0  0  1  0  0  0  0  0  0
  -26.9530  -30.4350   24.8870 C   0  0  0  0  0  1  0  0  0  0  0  0
  -27.5140  -32.6200   25.9170 C   0  0  0  0  0  1  0  0  0  0  0  0
  1  2  2  0
  2  6  1  0
  3  4  1  0
  3  1  1  0
  4  5  1  0
  5  7  1  0
  6  9  1  0
  7  6  1  0
  7 48  1  0
  7  8  1  6
  9 18  1  0
 10 18  1  0
 11 16  1  0
 12 13  1  0
 12 11  1  0
 14 13  1  0
 14 23  1  0
 14 15  1  0
 16 10  1  0
 16 15  1  0
 17 10  2  0
 18 19  1  0
 20 21  2  0
 21 40  1  0
 22 21  1  0
 22 25  1  0
 23 20  1  0
 23 24  1  0
 24 22  2  0
 25 26  1  0
 26 27  2  0
 28 31  1  0
 28 27  1  0
 29 28  2  0
 30 29  1  0
 30 25  2  0
 31 32  1  0
 32 33  1  0
 33 34  2  0
 35 34  1  0
 35 39  1  0
 36 35  2  0
 37 32  2  0
 37 36  1  0
 38 37  1  0
 40 41  1  0
 41 44  1  0
 41 43  1  0
 42 40  2  0
 45 20  1  0
 46 45  1  0
 47 45  1  0
 49 48  1  0
 49 50  1  0
 51 50  1  0
 51 52  1  0
 53 52  1  0
 54 65  2  0
 55 53  1  0
 55 60  1  0
 56 64  1  0
 56 66  1  0
 57 63  1  0
 57 59  1  0
 58 64  1  0
 59 60  2  0
 59 58  1  0
 61 55  2  0
 62 61  1  0
 62 57  2  0
 63 56  1  0
 64 54  1  0
 66 68  2  0
 67 66  1  0
 69 67  1  0
 70 79  2  0
 70 75  1  0
 71 67  1  0
 71 75  1  0
 72 71  1  0
 73 74  1  0
 73 72  1  0
 74 70  1  0
 75 76  2  0
 76 77  1  0
 78 77  2  0
 79 78  1  0
 80 54  1  0
 80 81  1  0
 80 90  1  0
 81 84  1  0
 82 86  1  0
 82 81  1  0
 83 82  2  0
 86 85  1  0
 88 86  1  0
 88 89  1  0
 88 87  1  0
 90 93  1  1
 90 91  1  0
 92 90  1  0
M  ISO  4  10 100  18 100  52 101  53 101
M  END
>  <TORSDO>  (90) 
F 22

>  <SCORE>  (90) 
-13.325

>  <name>  (90) 
89

>  <ligand_id>  (90) 
89

>  <original_smiles>  (90) 
[H]C1=C([H])C([H])(C([H])([H])N([H])C(=O)N2C([H])([H])C([H])([H])C([H])([H])C([H])(n3nc(-c4c([H])c([H])c(Oc5c([H])c([H])c(F)c([H])c5F)c([H])c4[H])c(C(=O)N([H])[H])c3N([H])[H])C2([H])[H])[N+]([H])(C([H])([H])C([H])([H])C([H])([H])C([H])([H])C([H])([H])Oc2c([H])c([H])c3c(c2[H])C([H])([H])N(C(=O)C([H])(N([H])C(=O)C([H])(N([H])C([H])([H])[H])C([H])([H])[H])C(C([H])([H])[H])(C([H])([H])[H])C([H])([H])[H])C([H])(C(=O)N([H])C2([H])c4c([H])c([H])c([H])c([H])c4C([H])([H])C([H])([H])C2([H])[H])C3([H])[H])C([H])([H])C([H])([H])C1([H])[H]

>  <smiles>  (90) 
[H]C1=C([H])C([H])(C([H])([H])N([H])C(=O)N2C([H])([H])C([H])([H])C([H])([H])C([H])(n3nc(-c4c([H])c([H])c(Oc5c([H])c([H])c(F)c([H])c5F)c([H])c4[H])c(C(=O)N([H])[H])c3N([H])[H])C2([H])[H])[N+]([H])(C([H])([H])C([H])([H])C([H])([H])C([H])([H])C([H])([H])Oc2c([H])c([H])c3c(c2[H])C([H])([H])N(C(=O)C([H])(N([H])C(=O)C([H])(N([H])C([H])([H])[H])C([H])([H])[H])C(C([H])([H])[H])(C([H])([H])[H])C([H])([H])[H])C([H])(C(=O)N([H])C2([H])c4c([H])c([H])c([H])c([H])c4C([H])([H])C([H])([H])C2([H])[H])C3([H])[H])C([H])([H])C([H])([H])C1([H])[H]

$$$$
90:0:0
     RDKit          3D

 91 99  0  0  1  0  0  0  0  0999 V2000
  -27.3830  -20.7710   19.0740 C   0  0  0  0  0  2  0  0  0  0  0  0
  -27.8530  -22.0120   19.8540 C   0  0  0  0  0  2  0  0  0  0  0  0
  -28.0310  -23.2700   18.9860 C   0  0  0  0  0  2  0  0  0  0  0  0
  -28.2930  -24.5000   19.8670 C   0  0  0  0  0  2  0  0  0  0  0  0
  -28.6150  -25.7790   19.0930 C   0  0  0  0  0  2  0  0  0  0  0  0
  -28.4580  -26.8870   19.9740 O   0  0  0  0  0  0  0  0  0  0  0  0
  -24.5970  -31.8890   23.2210 C   0  0  0  0  0  0  0  0  0  0  0  0
  -27.2330  -27.5140   20.0410 C   0  0  0  0  0  0  0  0  0  0  0  0
  -23.3700  -30.4910   21.5900 C   0  0  0  0  0  3  0  0  0  0  0  0
  -24.8090  -28.9620   20.1440 C   0  0  0  0  0  0  0  0  0  0  0  0
  -25.8900  -30.8630   21.3560 C   0  0  0  0  0  2  0  0  0  0  0  0
  -25.9690  -29.4940   20.7170 C   0  0  0  0  0  0  0  0  0  0  0  0
  -27.1790  -28.7710   20.6760 C   0  0  0  0  0  3  0  0  0  0  0  0
  -26.0440  -26.9770   19.4860 C   0  0  0  0  0  3  0  0  0  0  0  0
  -24.8390  -27.6970   19.5350 C   0  0  0  0  0  3  0  0  0  0  0  0
  -23.5600  -29.8090   20.2090 C   0  0  0  0  0  2  0  0  0  0  0  0
  -24.6390  -31.0950   22.1150 N   0  0  0  0  0  0  0  0  0  0  0  0
  -23.5220  -32.1560   23.7750 O   0  0  0  0  0  0  0  0  0  0  0  0
  -22.7320  -29.4680   22.5520 C   0  0  0  0  0  0  0  0  0  0  0  0
  -21.4080  -29.2840   22.4350 N   0  0  0  0  0  0  0  0  0  0  0  0
  -23.4270  -28.8400   23.3560 O   0  0  0  0  0  0  0  0  0  0  0  0
  -20.9100  -29.8470   21.7580 H   0  0  0  0  0  0  0  0  0  0  0  0
  -18.0470  -28.0750   22.9490 C   0  0  0  0  0  0  0  0  0  0  0  0
  -20.6040  -28.3430   23.2090 C   0  0  0  0  0  3  0  0  0  0  0  0
  -20.7080  -26.9130   22.6320 C   0  0  0  0  0  2  0  0  0  0  0  0
  -19.6030  -26.5870   21.6200 C   0  0  0  0  0  2  0  0  0  0  0  0
  -18.2230  -26.7270   22.2700 C   0  0  0  0  0  2  0  0  0  0  0  0
  -19.1630  -28.8410   23.3760 C   0  0  0  0  0  0  0  0  0  0  0  0
  -18.9450  -30.1040   23.9670 C   0  0  0  0  0  3  0  0  0  0  0  0
  -17.6390  -30.6000   24.1470 C   0  0  0  0  0  3  0  0  0  0  0  0
  -16.5360  -29.8320   23.7340 C   0  0  0  0  0  3  0  0  0  0  0  0
  -16.7400  -28.5720   23.1450 C   0  0  0  0  0  3  0  0  0  0  0  0
  -25.8910  -32.5170   23.8260 C   0  0  0  0  0  3  0  0  0  0  0  0
  -26.4320  -31.7340   25.0840 C   0  0  1  0  0  0  0  0  0  0  0  0
  -25.3610  -31.4770   26.1690 C   0  0  0  0  0  1  0  0  0  0  0  0
  -27.0170  -30.3650   24.6660 C   0  0  0  0  0  1  0  0  0  0  0  0
  -27.5950  -32.5200   25.7340 C   0  0  0  0  0  1  0  0  0  0  0  0
  -25.5840  -33.9100   24.1750 N   0  0  0  0  0  0  0  0  0  0  0  0
  -25.9110  -34.9710   23.4240 C   0  0  0  0  0  0  0  0  0  0  0  0
  -26.5730  -34.8780   22.3860 O   0  0  0  0  0  0  0  0  0  0  0  0
  -24.9900  -34.0560   24.9780 H   0  0  0  0  0  0  0  0  0  0  0  0
  -24.1750  -36.7670   23.0970 C   0  0  0  0  0  1  0  0  0  0  0  0
  -25.4230  -36.3530   23.8960 C   0  0  0  0  0  3  0  0  0  0  0  0
  -27.5620  -37.2310   24.7220 C   0  0  0  0  0  1  0  0  0  0  0  0
  -26.4530  -37.4100   23.7880 N   0  0  0  0  0  0  0  0  0  0  0  0
  -26.0460  -38.3250   23.9530 H   0  0  0  0  0  0  0  0  0  0  0  0
  -27.0860  -19.5530   19.9760 C   0  0  0  0  0  2  0  0  0  0  0  0
  -28.2970  -18.9560   20.5930 N   0  0  0  0  0  4  0  0  0  0  0  0
  -29.1070  -19.5190   20.3780 H   0  0  0  0  0  0  0  0  0  0  0  0
  -28.1580  -18.9920   21.5900 H   0  0  0  0  0  0  0  0  0  0  0  0
  -30.7430  -14.6290   20.7620 C   0  0  0  0  0  0  0  0  0  0  0  0
  -30.6190  -12.3590   19.8660 C   0  0  0  0  0  2  0  0  0  0  0  0
  -29.7770  -12.4320   18.5760 C   0  0  0  0  0  2  0  0  0  0  0  0
  -28.2640  -12.3590   18.8900 C   0  0  0  0  0  2  0  0  0  0  0  0
  -27.8070  -13.2460   20.0850 C   0  0  0  0  0  3  0  0  0  0  0  0
  -28.7910  -13.1370   21.2740 C   0  0  0  0  0  2  0  0  0  0  0  0
  -30.1400  -13.4140   20.7630 N   0  0  0  0  0  0  0  0  0  0  0  0
  -31.9610  -14.7890   20.6410 O   0  0  0  0  0  0  0  0  0  0  0  0
  -29.1530  -17.3590   18.8330 C   0  0  0  0  0  2  0  0  0  0  0  0
  -29.8280  -15.9860   18.9170 C   0  0  0  0  0  2  0  0  0  0  0  0
  -29.5210  -16.7770   21.1370 C   0  0  0  0  0  2  0  0  0  0  0  0
  -28.5490  -17.5450   20.2220 C   0  0  0  0  0  3  0  0  0  0  0  0
  -29.9030  -15.6090   20.3460 N   0  0  0  0  0  0  0  0  0  0  0  0
  -25.3600  -13.8330   20.6100 C   0  0  0  0  0  0  0  0  0  0  0  0
  -24.2790  -13.0550   20.9220 C   0  0  0  0  0  0  0  0  0  0  0  0
  -24.7650  -11.7140   20.9690 C   0  0  0  0  0  0  0  0  0  0  0  0
  -26.4310  -12.9640   20.4810 N   0  0  0  0  0  0  0  0  0  0  0  0
  -26.0740  -11.6850   20.7630 N   0  0  0  0  0  0  0  0  0  0  0  0
  -24.0510  -10.4450   21.1340 C   0  0  0  0  0  0  0  0  0  0  0  0
  -24.4530   -9.4930   22.0970 C   0  0  0  0  0  3  0  0  0  0  0  0
  -23.7300   -8.2900   22.2470 C   0  0  0  0  0  3  0  0  0  0  0  0
  -22.6010   -8.0320   21.4360 C   0  0  0  0  0  0  0  0  0  0  0  0
  -22.2300   -8.9700   20.4560 C   0  0  0  0  0  3  0  0  0  0  0  0
  -22.9470  -10.1640   20.3020 C   0  0  0  0  0  3  0  0  0  0  0  0
  -21.8540   -6.8810   21.4930 O   0  0  0  0  0  0  0  0  0  0  0  0
  -21.7710   -6.1360   22.6430 C   0  0  0  0  0  0  0  0  0  0  0  0
  -21.3070   -6.6900   23.8550 C   0  0  0  0  0  3  0  0  0  0  0  0
  -21.1690   -5.8740   24.9950 C   0  0  0  0  0  3  0  0  0  0  0  0
  -21.4900   -4.5040   24.9240 C   0  0  0  0  0  0  0  0  0  0  0  0
  -21.9500   -3.9500   23.7130 C   0  0  0  0  0  3  0  0  0  0  0  0
  -22.0860   -4.7660   22.5770 C   0  0  0  0  0  0  0  0  0  0  0  0
  -22.5080   -4.2210   21.4100 F   0  0  0  0  0  0  0  0  0  0  0  0
  -21.3510   -3.7180   26.0170 F   0  0  0  0  0  0  0  0  0  0  0  0
  -22.8590  -13.5150   21.0660 C   0  0  0  0  0  0  0  0  0  0  0  0
  -22.0810  -12.8330   21.8980 N   0  0  0  0  0  0  0  0  0  0  0  0
  -22.4440  -14.5160   20.4820 O   0  0  0  0  0  0  0  0  0  0  0  0
  -22.4220  -12.0230   22.3930 H   0  0  0  0  0  0  0  0  0  0  0  0
  -21.1210  -13.1120   22.0340 H   0  0  0  0  0  0  0  0  0  0  0  0
  -25.5050  -15.2010   20.3910 N   0  0  0  0  0  0  0  0  0  0  0  0
  -24.7120  -15.8340   20.3670 H   0  0  0  0  0  0  0  0  0  0  0  0
  -26.3540  -15.6000   20.0220 H   0  0  0  0  0  0  0  0  0  0  0  0
  1  2  1  0
  1 47  1  0
  3  2  1  0
  3  4  1  0
  5  4  1  0
  5  6  1  0
  6  8  1  0
  7 18  2  0
  8 13  1  0
  9 17  1  0
  9 19  1  0
 10 16  1  0
 10 12  1  0
 11 17  1  0
 12 11  1  0
 13 12  2  0
 14 15  1  0
 14  8  2  0
 15 10  2  0
 16  9  1  0
 17  7  1  0
 19 21  2  0
 20 19  1  0
 22 20  1  0
 23 32  2  0
 23 28  1  0
 24 20  1  0
 24 28  1  0
 25 24  1  0
 26 27  1  0
 26 25  1  0
 27 23  1  0
 28 29  2  0
 29 30  1  0
 31 30  2  0
 32 31  1  0
 33  7  1  0
 33 38  1  0
 33 34  1  0
 34 37  1  1
 34 35  1  0
 36 34  1  0
 38 41  1  0
 39 43  1  0
 39 38  1  0
 40 39  2  0
 43 42  1  0
 45 43  1  0
 45 46  1  0
 45 44  1  0
 47 48  1  0
 48 50  1  0
 49 48  1  0
 51 57  1  0
 52 57  1  0
 53 54  1  0
 53 52  1  0
 55 54  1  0
 55 67  1  0
 55 56  1  0
 57 56  1  0
 58 51  2  0
 59 60  1  0
 59 62  1  0
 60 63  1  0
 62 48  1  0
 62 61  1  0
 63 51  1  0
 63 61  1  0
 64 65  2  0
 65 66  1  0
 65 84  1  0
 66 69  1  0
 67 64  1  0
 67 68  1  0
 68 66  2  0
 69 70  1  0
 70 71  2  0
 72 75  1  0
 72 71  1  0
 73 72  2  0
 74 73  1  0
 74 69  2  0
 75 76  1  0
 76 77  1  0
 77 78  2  0
 79 78  1  0
 79 83  1  0
 80 79  2  0
 81 76  2  0
 81 80  1  0
 82 81  1  0
 84 85  1  0
 85 88  1  0
 85 87  1  0
 86 84  2  0
 89 64  1  0
 90 89  1  0
 91 89  1  0
M  ISO  4   5 101   6 101  51 100  63 100
M  END
>  <TORSDO>  (91) 
F 22

>  <SCORE>  (91) 
-12.563

>  <name>  (91) 
90

>  <ligand_id>  (91) 
90

>  <original_smiles>  (91) 
[H]c1c([H])c([H])c2c(c1[H])C([H])([H])C([H])([H])C([H])([H])C2([H])N([H])C(=O)C1([H])N(C(=O)C([H])(N([H])C(=O)C([H])(N([H])C([H])([H])[H])C([H])([H])[H])C(C([H])([H])[H])(C([H])([H])[H])C([H])([H])[H])C([H])([H])c2c([H])c(OC([H])([H])C([H])([H])C([H])([H])C([H])([H])C([H])([H])C([H])([H])[N+]([H])([H])C3([H])C([H])([H])N(C(=O)N4C([H])([H])C([H])([H])C([H])([H])C([H])(n5nc(-c6c([H])c([H])c(Oc7c([H])c([H])c(F)c([H])c7F)c([H])c6[H])c(C(=O)N([H])[H])c5N([H])[H])C4([H])[H])C([H])([H])C3([H])[H])c([H])c([H])c2C1([H])[H]

>  <smiles>  (91) 
[H]c1c([H])c([H])c2c(c1[H])C([H])([H])C([H])([H])C([H])([H])C2([H])N([H])C(=O)C1([H])N(C(=O)C([H])(N([H])C(=O)C([H])(N([H])C([H])([H])[H])C([H])([H])[H])C(C([H])([H])[H])(C([H])([H])[H])C([H])([H])[H])C([H])([H])c2c([H])c(OC([H])([H])C([H])([H])C([H])([H])C([H])([H])C([H])([H])C([H])([H])[N+]([H])([H])C3([H])C([H])([H])N(C(=O)N4C([H])([H])C([H])([H])C([H])([H])C([H])(n5nc(-c6c([H])c([H])c(Oc7c([H])c([H])c(F)c([H])c7F)c([H])c6[H])c(C(=O)N([H])[H])c5N([H])[H])C4([H])[H])C([H])([H])C3([H])[H])c([H])c([H])c2C1([H])[H]

$$$$
91:0:0
     RDKit          3D

 88 95  0  0  1  0  0  0  0  0999 V2000
  -29.0430  -22.4530   20.2050 C   0  0  0  0  0  2  0  0  0  0  0  0
  -28.6900  -23.9440   20.7490 C   0  0  0  0  0  3  0  0  0  0  0  0
  -28.4640  -25.1310   19.7090 C   0  0  0  0  0  3  0  0  0  0  0  0
  -28.3800  -26.5250   20.2140 O   0  0  0  0  0  0  0  0  0  0  0  0
  -24.6240  -31.8750   23.2400 C   0  0  0  0  0  0  0  0  0  0  0  0
  -27.2210  -27.3190   20.1600 C   0  0  0  0  0  0  0  0  0  0  0  0
  -23.4080  -30.4790   21.6050 C   0  0  0  0  0  3  0  0  0  0  0  0
  -24.8480  -28.9280   20.1710 C   0  0  0  0  0  0  0  0  0  0  0  0
  -25.9450  -30.7980   21.4060 C   0  0  0  0  0  2  0  0  0  0  0  0
  -26.0190  -29.4190   20.7590 C   0  0  0  0  0  0  0  0  0  0  0  0
  -27.2040  -28.6250   20.7440 C   0  0  0  0  0  3  0  0  0  0  0  0
  -26.0200  -26.8760   19.5610 C   0  0  0  0  0  3  0  0  0  0  0  0
  -24.8510  -27.6620   19.5650 C   0  0  0  0  0  3  0  0  0  0  0  0
  -23.6120  -29.8020   20.2250 C   0  0  0  0  0  2  0  0  0  0  0  0
  -24.6780  -31.0680   22.1390 N   0  0  0  0  0  0  0  0  0  0  0  0
  -23.5440  -32.1520   23.7820 O   0  0  0  0  0  0  0  0  0  0  0  0
  -22.7520  -29.4610   22.5700 C   0  0  0  0  0  0  0  0  0  0  0  0
  -21.4260  -29.2820   22.4480 N   0  0  0  0  0  0  0  0  0  0  0  0
  -23.4360  -28.8360   23.3850 O   0  0  0  0  0  0  0  0  0  0  0  0
  -20.9350  -29.8360   21.7610 H   0  0  0  0  0  0  0  0  0  0  0  0
  -18.0530  -28.0810   22.9610 C   0  0  0  0  0  0  0  0  0  0  0  0
  -20.6110  -28.3440   23.2220 C   0  0  0  0  0  3  0  0  0  0  0  0
  -20.7140  -26.9120   22.6480 C   0  0  0  0  0  2  0  0  0  0  0  0
  -19.6080  -26.5850   21.6390 C   0  0  0  0  0  2  0  0  0  0  0  0
  -18.2290  -26.7290   22.2900 C   0  0  0  0  0  2  0  0  0  0  0  0
  -19.1720  -28.8460   23.3850 C   0  0  0  0  0  0  0  0  0  0  0  0
  -18.9530  -30.1100   23.9750 C   0  0  0  0  0  3  0  0  0  0  0  0
  -17.6480  -30.6090   24.1440 C   0  0  0  0  0  3  0  0  0  0  0  0
  -16.5440  -29.8420   23.7340 C   0  0  0  0  0  3  0  0  0  0  0  0
  -16.7470  -28.5800   23.1480 C   0  0  0  0  0  3  0  0  0  0  0  0
  -25.9100  -32.5070   23.8550 C   0  0  0  0  0  3  0  0  0  0  0  0
  -26.4320  -31.7370   25.1300 C   0  0  1  0  0  0  0  0  0  0  0  0
  -25.3430  -31.5030   26.2030 C   0  0  0  0  0  1  0  0  0  0  0  0
  -27.0100  -30.3570   24.7360 C   0  0  0  0  0  1  0  0  0  0  0  0
  -27.5870  -32.5290   25.7840 C   0  0  0  0  0  1  0  0  0  0  0  0
  -25.6040  -33.9050   24.1860 N   0  0  0  0  0  0  0  0  0  0  0  0
  -25.9340  -34.9590   23.4270 C   0  0  0  0  0  0  0  0  0  0  0  0
  -26.5980  -34.8550   22.3920 O   0  0  0  0  0  0  0  0  0  0  0  0
  -25.0110  -34.0600   24.9890 H   0  0  0  0  0  0  0  0  0  0  0  0
  -24.2070  -36.7560   23.0810 C   0  0  0  0  0  1  0  0  0  0  0  0
  -25.4510  -36.3480   23.8880 C   0  0  0  0  0  3  0  0  0  0  0  0
  -27.5900  -37.2290   24.7110 C   0  0  0  0  0  1  0  0  0  0  0  0
  -26.4840  -37.4000   23.7720 N   0  0  0  0  0  0  0  0  0  0  0  0
  -26.0810  -38.3210   23.9200 H   0  0  0  0  0  0  0  0  0  0  0  0
  -28.5340  -20.9700   20.6210 C   0  0  0  0  0  2  0  0  0  0  0  0
  -29.4930  -19.7910   20.5000 N   0  0  0  0  0  4  0  0  0  0  0  0
  -28.9640  -19.6540   19.6530 H   0  0  0  0  0  0  0  0  0  0  0  0
  -29.2750  -19.7420   21.4830 H   0  0  0  0  0  0  0  0  0  0  0  0
  -29.1080  -18.3240   20.6590 C   0  0  0  0  0  3  0  0  0  0  0  0
  -30.2500  -17.2150   20.5120 C   0  0  0  0  0  3  0  0  0  0  0  0
  -30.6050  -14.6570   20.3620 C   0  0  0  0  0  0  0  0  0  0  0  0
  -30.3570  -12.4250   19.2970 C   0  0  0  0  0  2  0  0  0  0  0  0
  -29.4070  -12.5570   18.0870 C   0  0  0  0  0  2  0  0  0  0  0  0
  -27.9390  -12.3980   18.5320 C   0  0  0  0  0  2  0  0  0  0  0  0
  -27.5920  -13.2610   19.7740 C   0  0  0  0  0  3  0  0  0  0  0  0
  -28.6590  -13.1180   20.8810 C   0  0  0  0  0  2  0  0  0  0  0  0
  -29.9610  -13.4490   20.2850 N   0  0  0  0  0  0  0  0  0  0  0  0
  -31.7710  -14.7820   19.9820 O   0  0  0  0  0  0  0  0  0  0  0  0
  -29.8500  -15.7630   20.6580 N   0  0  0  0  0  0  0  0  0  0  0  0
  -28.8970  -15.5770   20.9360 H   0  0  0  0  0  0  0  0  0  0  0  0
  -25.2050  -13.8560   20.5120 C   0  0  0  0  0  0  0  0  0  0  0  0
  -24.1420  -13.0820   20.8900 C   0  0  0  0  0  0  0  0  0  0  0  0
  -24.6050  -11.7320   20.8570 C   0  0  0  0  0  0  0  0  0  0  0  0
  -26.2470  -12.9770   20.2700 N   0  0  0  0  0  0  0  0  0  0  0  0
  -25.8930  -11.6940   20.5390 N   0  0  0  0  0  0  0  0  0  0  0  0
  -23.8810  -10.4680   21.0510 C   0  0  0  0  0  0  0  0  0  0  0  0
  -24.3250   -9.4970   21.9770 C   0  0  0  0  0  3  0  0  0  0  0  0
  -23.6020   -8.3000   22.1600 C   0  0  0  0  0  3  0  0  0  0  0  0
  -22.4200   -8.0640   21.4180 C   0  0  0  0  0  0  0  0  0  0  0  0
  -21.9940   -9.0230   20.4820 C   0  0  0  0  0  3  0  0  0  0  0  0
  -22.7190  -10.2130   20.2970 C   0  0  0  0  0  3  0  0  0  0  0  0
  -21.6660   -6.9180   21.5120 O   0  0  0  0  0  0  0  0  0  0  0  0
  -21.6380   -6.1670   22.6590 C   0  0  0  0  0  0  0  0  0  0  0  0
  -21.2360   -6.7110   23.8990 C   0  0  0  0  0  3  0  0  0  0  0  0
  -21.1550   -5.8860   25.0370 C   0  0  0  0  0  3  0  0  0  0  0  0
  -21.4670   -4.5170   24.9390 C   0  0  0  0  0  0  0  0  0  0  0  0
  -21.8640   -3.9720   23.7050 C   0  0  0  0  0  3  0  0  0  0  0  0
  -21.9470   -4.7940   22.5680 C   0  0  0  0  0  0  0  0  0  0  0  0
  -22.3080   -4.2600   21.3770 F   0  0  0  0  0  0  0  0  0  0  0  0
  -21.3830   -3.7220   26.0320 F   0  0  0  0  0  0  0  0  0  0  0  0
  -22.7450  -13.5580   21.1710 C   0  0  0  0  0  0  0  0  0  0  0  0
  -22.0230  -12.8600   22.0410 N   0  0  0  0  0  0  0  0  0  0  0  0
  -22.3030  -14.5830   20.6540 O   0  0  0  0  0  0  0  0  0  0  0  0
  -22.3940  -12.0310   22.4800 H   0  0  0  0  0  0  0  0  0  0  0  0
  -21.0860  -13.1600   22.2700 H   0  0  0  0  0  0  0  0  0  0  0  0
  -25.3650  -15.2280   20.3310 N   0  0  0  0  0  0  0  0  0  0  0  0
  -24.5880  -15.8730   20.4270 H   0  0  0  0  0  0  0  0  0  0  0  0
  -26.1910  -15.6590   19.9380 H   0  0  0  0  0  0  0  0  0  0  0  0
  1 45  1  0
  1  2  1  0
  3  4  1  0
  3  2  2  0
  5 16  2  0
  6  4  1  0
  6 11  1  0
  7 15  1  0
  7 17  1  0
  8 14  1  0
  8 10  1  0
  9 15  1  0
 10  9  1  0
 11 10  2  0
 12 13  1  0
 12  6  2  0
 13  8  2  0
 14  7  1  0
 15  5  1  0
 17 19  2  0
 18 17  1  0
 20 18  1  0
 21 30  2  0
 21 26  1  0
 22 18  1  0
 22 26  1  0
 23 22  1  0
 24 25  1  0
 24 23  1  0
 25 21  1  0
 26 27  2  0
 27 28  1  0
 29 28  2  0
 30 29  1  0
 31  5  1  0
 31 36  1  0
 31 32  1  0
 32 35  1  1
 32 33  1  0
 34 32  1  0
 36 39  1  0
 37 41  1  0
 37 36  1  0
 38 37  2  0
 41 40  1  0
 43 41  1  0
 43 44  1  0
 43 42  1  0
 46 45  1  0
 46 49  1  0
 46 48  1  0
 47 46  1  0
 50 59  1  0
 50 49  2  0
 51 59  1  0
 52 57  1  0
 53 54  1  0
 53 52  1  0
 55 54  1  0
 55 64  1  0
 55 56  1  0
 57 51  1  0
 57 56  1  0
 58 51  2  0
 59 60  1  0
 61 62  2  0
 62 81  1  0
 63 62  1  0
 63 66  1  0
 64 61  1  0
 64 65  1  0
 65 63  2  0
 66 67  1  0
 67 68  2  0
 69 72  1  0
 69 68  1  0
 70 69  2  0
 71 70  1  0
 71 66  2  0
 72 73  1  0
 73 74  1  0
 74 75  2  0
 76 75  1  0
 76 80  1  0
 77 76  2  0
 78 73  2  0
 78 77  1  0
 79 78  1  0
 81 82  1  0
 82 85  1  0
 82 84  1  0
 83 81  2  0
 86 87  1  0
 86 61  1  0
 88 86  1  0
M  ISO  4   3 101   4 101  51 100  59 100
M  END
>  <TORSDO>  (92) 
F 22

>  <SCORE>  (92) 
-12.897

>  <name>  (92) 
91

>  <ligand_id>  (92) 
91

>  <original_smiles>  (92) 
[H]c1c([H])c([H])c2c(c1[H])C([H])([H])C([H])([H])C([H])([H])C2([H])N([H])C(=O)C1([H])N(C(=O)C([H])(N([H])C(=O)C([H])(N([H])C([H])([H])[H])C([H])([H])[H])C(C([H])([H])[H])(C([H])([H])[H])C([H])([H])[H])C([H])([H])c2c([H])c(OC([H])([H])C([H])([H])C([H])([H])C([H])([H])[N+]([H])([H])C([H])([H])C([H])([H])N([H])C(=O)N3C([H])([H])C([H])([H])C([H])([H])C([H])(n4nc(-c5c([H])c([H])c(Oc6c([H])c([H])c(F)c([H])c6F)c([H])c5[H])c(C(=O)N([H])[H])c4N([H])[H])C3([H])[H])c([H])c([H])c2C1([H])[H]

>  <smiles>  (92) 
[H]c1c([H])c([H])c2c(c1[H])C([H])([H])C([H])([H])C([H])([H])C2([H])N([H])C(=O)C1([H])N(C(=O)C([H])(N([H])C(=O)C([H])(N([H])C([H])([H])[H])C([H])([H])[H])C(C([H])([H])[H])(C([H])([H])[H])C([H])([H])[H])C([H])([H])c2c([H])c(OC([H])([H])C([H])([H])C([H])([H])C([H])([H])[N+]([H])([H])C([H])([H])C([H])([H])N([H])C(=O)N3C([H])([H])C([H])([H])C([H])([H])C([H])(n4nc(-c5c([H])c([H])c(Oc6c([H])c([H])c(F)c([H])c6F)c([H])c5[H])c(C(=O)N([H])[H])c4N([H])[H])C3([H])[H])c([H])c([H])c2C1([H])[H]

$$$$
92:0:0
     RDKit          3D

 98107  0  0  1  0  0  0  0  0999 V2000
  -32.1970  -21.9200   20.8040 C   0  0  0  0  0  2  0  0  0  0  0  0
  -31.7450  -21.9550   22.2600 C   0  0  0  0  0  2  0  0  0  0  0  0
  -31.3360  -22.8740   19.9730 C   0  0  0  0  0  2  0  0  0  0  0  0
  -30.3640  -21.3070   22.3180 C   0  0  0  0  0  3  0  0  0  0  0  0
  -29.3300  -21.9830   21.3580 C   0  0  0  0  0  3  0  0  0  0  0  0
  -29.8540  -22.7630   20.1680 N   0  0  1  0  0  4  0  0  0  0  0  0
  -29.5290  -22.2510   19.3630 H   0  0  0  0  0  0  0  0  0  0  0  0
  -29.8160  -21.2170   23.7590 C   0  0  0  0  0  2  0  0  0  0  0  0
  -30.6670  -20.5710   24.5610 F   0  0  0  0  0  0  0  0  0  0  0  0
  -28.2390  -20.9700   20.9080 C   0  0  0  0  0  2  0  0  0  0  0  0
  -28.7220  -19.6620   20.2090 C   0  0  0  0  0  2  0  0  0  0  0  0
  -28.9670  -18.5260   21.1380 N   0  0  0  0  0  4  0  0  0  0  0  0
  -29.7710  -18.6960   21.7230 H   0  0  0  0  0  0  0  0  0  0  0  0
  -28.1680  -18.4590   21.7500 H   0  0  0  0  0  0  0  0  0  0  0  0
  -30.8440  -14.3860   19.9680 C   0  0  0  0  0  0  0  0  0  0  0  0
  -30.5170  -12.1780   18.9190 C   0  0  0  0  0  2  0  0  0  0  0  0
  -29.4970  -12.3290   17.7690 C   0  0  0  0  0  2  0  0  0  0  0  0
  -28.0530  -12.2050   18.2980 C   0  0  0  0  0  2  0  0  0  0  0  0
  -27.7920  -13.1020   19.5410 C   0  0  0  0  0  3  0  0  0  0  0  0
  -28.9090  -12.8850   20.5840 C   0  0  0  0  0  2  0  0  0  0  0  0
  -30.1880  -13.1980   19.9280 N   0  0  0  0  0  0  0  0  0  0  0  0
  -31.9730  -14.5340   19.4850 O   0  0  0  0  0  0  0  0  0  0  0  0
  -30.4190  -16.8600   19.7810 C   0  0  0  0  0  2  0  0  0  0  0  0
  -29.3550  -15.9930   21.3230 C   0  0  0  0  0  2  0  0  0  0  0  0
  -29.0960  -17.2170   20.4530 C   0  0  0  0  0  3  0  0  0  0  0  0
  -30.0520  -15.4730   20.1260 N   0  0  0  0  0  0  0  0  0  0  0  0
  -25.4720  -13.7790   20.4340 C   0  0  0  0  0  0  0  0  0  0  0  0
  -24.4090  -13.0310   20.8620 C   0  0  0  0  0  0  0  0  0  0  0  0
  -24.8210  -11.6670   20.7730 C   0  0  0  0  0  0  0  0  0  0  0  0
  -26.4680  -12.8680   20.1100 N   0  0  0  0  0  0  0  0  0  0  0  0
  -26.0830  -11.5930   20.3710 N   0  0  0  0  0  0  0  0  0  0  0  0
  -24.0760  -10.4230   20.9990 C   0  0  0  0  0  0  0  0  0  0  0  0
  -24.5320   -9.4560   21.9190 C   0  0  0  0  0  3  0  0  0  0  0  0
  -23.7950   -8.2710   22.1350 C   0  0  0  0  0  3  0  0  0  0  0  0
  -22.5880   -8.0480   21.4280 C   0  0  0  0  0  0  0  0  0  0  0  0
  -22.1520   -9.0070   20.4970 C   0  0  0  0  0  3  0  0  0  0  0  0
  -22.8880  -10.1840   20.2820 C   0  0  0  0  0  3  0  0  0  0  0  0
  -21.8150   -6.9200   21.5460 O   0  0  0  0  0  0  0  0  0  0  0  0
  -21.7680   -6.1950   22.7100 C   0  0  0  0  0  0  0  0  0  0  0  0
  -21.3710   -6.7820   23.9320 C   0  0  0  0  0  3  0  0  0  0  0  0
  -21.2700   -5.9860   25.0900 C   0  0  0  0  0  3  0  0  0  0  0  0
  -21.5510   -4.6090   25.0270 C   0  0  0  0  0  0  0  0  0  0  0  0
  -21.9380   -4.0240   23.8090 C   0  0  0  0  0  3  0  0  0  0  0  0
  -22.0440   -4.8150   22.6520 C   0  0  0  0  0  0  0  0  0  0  0  0
  -22.3970   -4.2440   21.4750 F   0  0  0  0  0  0  0  0  0  0  0  0
  -21.4470   -3.8440   26.1400 F   0  0  0  0  0  0  0  0  0  0  0  0
  -23.0490  -13.5420   21.2470 C   0  0  0  0  0  0  0  0  0  0  0  0
  -22.3680  -12.8550   22.1530 N   0  0  0  0  0  0  0  0  0  0  0  0
  -22.6030  -14.5880   20.7770 O   0  0  0  0  0  0  0  0  0  0  0  0
  -22.7450  -12.0120   22.5560 H   0  0  0  0  0  0  0  0  0  0  0  0
  -21.4600  -13.1800   22.4530 H   0  0  0  0  0  0  0  0  0  0  0  0
  -25.6650  -15.1480   20.2710 N   0  0  0  0  0  0  0  0  0  0  0  0
  -24.9070  -15.8100   20.3940 H   0  0  0  0  0  0  0  0  0  0  0  0
  -26.5000  -15.5650   19.8780 H   0  0  0  0  0  0  0  0  0  0  0  0
  -29.2130  -24.1130   20.0590 C   0  0  0  0  0  2  0  0  0  0  0  0
  -29.1090  -24.6670   18.6170 C   0  0  0  0  0  2  0  0  0  0  0  0
  -29.1210  -26.2090   18.5550 C   0  0  0  0  0  2  0  0  0  0  0  0
  -28.6550  -26.8140   19.7610 O   0  0  0  0  0  0  0  0  0  0  0  0
  -24.5920  -31.6190   23.0280 C   0  0  0  0  0  0  0  0  0  0  0  0
  -27.4370  -27.4500   19.7600 C   0  0  0  0  0  0  0  0  0  0  0  0
  -23.4520  -30.2630   21.2980 C   0  0  0  0  0  3  0  0  0  0  0  0
  -24.9770  -28.8350   19.8280 C   0  0  0  0  0  0  0  0  0  0  0  0
  -25.9640  -30.7130   21.1550 C   0  0  0  0  0  2  0  0  0  0  0  0
  -26.1020  -29.3760   20.4620 C   0  0  0  0  0  0  0  0  0  0  0  0
  -27.3280  -28.6810   20.4410 C   0  0  0  0  0  3  0  0  0  0  0  0
  -26.2960  -26.9060   19.1330 C   0  0  0  0  0  3  0  0  0  0  0  0
  -25.0650  -27.5950   19.1680 C   0  0  0  0  0  3  0  0  0  0  0  0
  -23.7050  -29.6510   19.8920 C   0  0  0  0  0  2  0  0  0  0  0  0
  -24.6860  -30.8770   21.8890 N   0  0  0  0  0  0  0  0  0  0  0  0
  -23.4940  -31.8320   23.5630 O   0  0  0  0  0  0  0  0  0  0  0  0
  -22.8190  -29.1790   22.1980 C   0  0  0  0  0  0  0  0  0  0  0  0
  -21.4920  -29.0120   22.0850 N   0  0  0  0  0  0  0  0  0  0  0  0
  -23.5170  -28.4930   22.9500 O   0  0  0  0  0  0  0  0  0  0  0  0
  -20.9920  -29.6230   21.4540 H   0  0  0  0  0  0  0  0  0  0  0  0
  -18.1120  -27.8530   22.6130 C   0  0  0  0  0  0  0  0  0  0  0  0
  -20.6830  -28.0260   22.8000 C   0  0  0  0  0  3  0  0  0  0  0  0
  -20.7260  -26.6530   22.0890 C   0  0  0  0  0  2  0  0  0  0  0  0
  -19.5750  -26.4510   21.0970 C   0  0  0  0  0  2  0  0  0  0  0  0
  -18.2250  -26.5670   21.8120 C   0  0  0  0  0  2  0  0  0  0  0  0
  -19.2670  -28.5450   23.0630 C   0  0  0  0  0  0  0  0  0  0  0  0
  -19.1060  -29.7550   23.7730 C   0  0  0  0  0  3  0  0  0  0  0  0
  -17.8240  -30.2690   24.0400 C   0  0  0  0  0  3  0  0  0  0  0  0
  -16.6820  -29.5700   23.6070 C   0  0  0  0  0  3  0  0  0  0  0  0
  -16.8280  -28.3640   22.8980 C   0  0  0  0  0  3  0  0  0  0  0  0
  -25.8480  -32.2550   23.7000 C   0  0  0  0  0  3  0  0  0  0  0  0
  -25.4950  -33.6240   24.0950 N   0  0  0  0  0  0  0  0  0  0  0  0
  -25.8130  -34.7240   23.3960 C   0  0  0  0  0  0  0  0  0  0  0  0
  -26.5070  -34.6910   22.3770 O   0  0  0  0  0  0  0  0  0  0  0  0
  -24.8810  -33.7200   24.8900 H   0  0  0  0  0  0  0  0  0  0  0  0
  -24.0420  -36.4830   23.0920 C   0  0  0  0  0  1  0  0  0  0  0  0
  -25.2750  -36.0710   23.9120 C   0  0  0  0  0  3  0  0  0  0  0  0
  -27.3630  -36.9740   24.8360 C   0  0  0  0  0  1  0  0  0  0  0  0
  -26.2780  -37.1580   23.8770 N   0  0  0  0  0  0  0  0  0  0  0  0
  -25.8410  -38.0560   24.0620 H   0  0  0  0  0  0  0  0  0  0  0  0
  -26.3720  -31.4340   24.9420 C   0  0  1  0  0  0  0  0  0  0  0  0
  -25.2750  -31.1120   25.9830 C   0  0  0  0  0  1  0  0  0  0  0  0
  -26.9980  -30.0950   24.4830 C   0  0  0  0  0  1  0  0  0  0  0  0
  -27.4900  -32.2240   25.6630 C   0  0  0  0  0  1  0  0  0  0  0  0
  1  2  1  0
  2  4  1  0
  3  6  1  0
  3  1  1  0
  4  8  1  0
  5 10  1  0
  5  4  1  0
  6  5  1  0
  6  7  1  6
  8  9  1  0
 11 10  1  0
 11 12  1  0
 12 13  1  0
 12 14  1  0
 15 26  1  0
 16 21  1  0
 17 18  1  0
 17 16  1  0
 19 18  1  0
 19 30  1  0
 19 20  1  0
 21 15  1  0
 21 20  1  0
 22 15  2  0
 23 26  1  0
 23 25  1  0
 25 12  1  0
 25 24  1  0
 26 24  1  0
 27 28  2  0
 28 47  1  0
 29 28  1  0
 29 32  1  0
 30 31  1  0
 30 27  1  0
 31 29  2  0
 32 33  1  0
 33 34  2  0
 35 38  1  0
 35 34  1  0
 36 35  2  0
 37 36  1  0
 37 32  2  0
 38 39  1  0
 39 40  1  0
 40 41  2  0
 42 41  1  0
 42 46  1  0
 43 42  2  0
 44 39  2  0
 44 43  1  0
 45 44  1  0
 47 48  1  0
 48 51  1  0
 48 50  1  0
 49 47  2  0
 52 53  1  0
 52 27  1  0
 54 52  1  0
 55  6  1  0
 56 55  1  0
 57 56  1  0
 57 58  1  0
 59 70  2  0
 60 58  1  0
 60 65  1  0
 61 69  1  0
 61 71  1  0
 62 68  1  0
 62 64  1  0
 63 69  1  0
 64 63  1  0
 65 64  2  0
 66 67  1  0
 66 60  2  0
 67 62  2  0
 68 61  1  0
 69 59  1  0
 71 73  2  0
 72 71  1  0
 74 72  1  0
 75 84  2  0
 75 80  1  0
 76 72  1  0
 76 80  1  0
 77 76  1  0
 78 79  1  0
 78 77  1  0
 79 75  1  0
 80 81  2  0
 81 82  1  0
 83 82  2  0
 84 83  1  0
 85 59  1  0
 85 86  1  0
 85 95  1  0
 86 89  1  0
 87 91  1  0
 87 86  1  0
 88 87  2  0
 91 90  1  0
 93 91  1  0
 93 94  1  0
 93 92  1  0
 95 98  1  1
 95 96  1  0
 97 95  1  0
M  ISO  4  15 100  26 100  57 101  58 101
M  END
>  <TORSDO>  (93) 
F 23

>  <SCORE>  (93) 
-12.321

>  <name>  (93) 
92

>  <ligand_id>  (93) 
92

>  <original_smiles>  (93) 
[H]c1c([H])c([H])c2c(c1[H])C([H])([H])C([H])([H])C([H])([H])C2([H])N([H])C(=O)C1([H])N(C(=O)C([H])(N([H])C(=O)C([H])(N([H])C([H])([H])[H])C([H])([H])[H])C(C([H])([H])[H])(C([H])([H])[H])C([H])([H])[H])C([H])([H])c2c([H])c(OC([H])([H])C([H])([H])C([H])([H])[N+]3([H])C([H])([H])C([H])([H])C([H])([H])C([H])(C([H])([H])F)C3([H])C([H])([H])C([H])([H])[N+]([H])([H])C3([H])C([H])([H])N(C(=O)N4C([H])([H])C([H])([H])C([H])([H])C([H])(n5nc(-c6c([H])c([H])c(Oc7c([H])c([H])c(F)c([H])c7F)c([H])c6[H])c(C(=O)N([H])[H])c5N([H])[H])C4([H])[H])C3([H])[H])c([H])c([H])c2C1([H])[H]

>  <smiles>  (93) 
[H]c1c([H])c([H])c2c(c1[H])C([H])([H])C([H])([H])C([H])([H])C2([H])N([H])C(=O)C1([H])N(C(=O)C([H])(N([H])C(=O)C([H])(N([H])C([H])([H])[H])C([H])([H])[H])C(C([H])([H])[H])(C([H])([H])[H])C([H])([H])[H])C([H])([H])c2c([H])c(OC([H])([H])C([H])([H])C([H])([H])[N+]3([H])C([H])([H])C([H])([H])C([H])([H])C([H])(C([H])([H])F)C3([H])C([H])([H])C([H])([H])[N+]([H])([H])C3([H])C([H])([H])N(C(=O)N4C([H])([H])C([H])([H])C([H])([H])C([H])(n5nc(-c6c([H])c([H])c(Oc7c([H])c([H])c(F)c([H])c7F)c([H])c6[H])c(C(=O)N([H])[H])c5N([H])[H])C4([H])[H])C3([H])[H])c([H])c([H])c2C1([H])[H]

$$$$
93:0:0
     RDKit          3D

 98106  0  0  1  0  0  0  0  0999 V2000
  -27.4430  -20.4570   16.8350 C   0  0  0  0  0  2  0  0  0  0  0  0
  -27.5960  -19.1500   17.6630 C   0  0  0  0  0  2  0  0  0  0  0  0
  -28.8220  -19.1240   18.5020 N   0  0  0  0  0  4  0  0  0  0  0  0
  -29.5780  -19.4690   17.9340 H   0  0  0  0  0  0  0  0  0  0  0  0
  -28.7200  -19.7270   19.3020 H   0  0  0  0  0  0  0  0  0  0  0  0
  -30.9380  -14.1920   20.2950 C   0  0  0  0  0  0  0  0  0  0  0  0
  -30.4440  -12.0830   19.1400 C   0  0  0  0  0  2  0  0  0  0  0  0
  -29.4690  -12.3160   17.9720 C   0  0  0  0  0  2  0  0  0  0  0  0
  -28.0090  -12.2240   18.4580 C   0  0  0  0  0  2  0  0  0  0  0  0
  -27.7430  -13.0560   19.7450 C   0  0  0  0  0  3  0  0  0  0  0  0
  -28.8440  -12.8030   20.7970 C   0  0  0  0  0  2  0  0  0  0  0  0
  -30.1260  -13.1060   20.1500 N   0  0  0  0  0  0  0  0  0  0  0  0
  -32.1450  -14.0710   20.0710 O   0  0  0  0  0  0  0  0  0  0  0  0
  -28.5600  -17.2260   20.1940 C   0  0  0  0  0  2  0  0  0  0  0  0
  -29.3220  -16.0720   20.9200 C   0  0  0  0  0  2  0  0  0  0  0  0
  -31.3540  -16.4470   19.5370 C   0  0  0  0  0  2  0  0  0  0  0  0
  -30.7990  -17.8470   19.2320 C   0  0  0  0  0  3  0  0  0  0  0  0
  -29.2930  -17.7940   18.9610 C   0  0  0  0  0  3  0  0  0  0  0  0
  -30.4100  -15.4520   20.1280 N   0  0  0  0  0  0  0  0  0  0  0  0
  -25.3960  -13.7120   20.5540 C   0  0  0  0  0  0  0  0  0  0  0  0
  -24.3160  -12.9650   20.9400 C   0  0  0  0  0  0  0  0  0  0  0  0
  -24.7360  -11.6020   20.8650 C   0  0  0  0  0  0  0  0  0  0  0  0
  -26.4070  -12.8060   20.2740 N   0  0  0  0  0  0  0  0  0  0  0  0
  -26.0150  -11.5310   20.5230 N   0  0  0  0  0  0  0  0  0  0  0  0
  -23.9760  -10.3590   21.0490 C   0  0  0  0  0  0  0  0  0  0  0  0
  -24.3800   -9.3770   21.9800 C   0  0  0  0  0  3  0  0  0  0  0  0
  -23.6210   -8.1990   22.1510 C   0  0  0  0  0  3  0  0  0  0  0  0
  -22.4440   -7.9970   21.3910 C   0  0  0  0  0  0  0  0  0  0  0  0
  -22.0610   -8.9680   20.4500 C   0  0  0  0  0  3  0  0  0  0  0  0
  -22.8190  -10.1370   20.2770 C   0  0  0  0  0  3  0  0  0  0  0  0
  -21.6580   -6.8730   21.4720 O   0  0  0  0  0  0  0  0  0  0  0  0
  -21.5640   -6.1440   22.6300 C   0  0  0  0  0  0  0  0  0  0  0  0
  -21.0430   -6.7000   23.8200 C   0  0  0  0  0  3  0  0  0  0  0  0
  -20.8990   -5.8940   24.9670 C   0  0  0  0  0  3  0  0  0  0  0  0
  -21.2670   -4.5360   24.9250 C   0  0  0  0  0  0  0  0  0  0  0  0
  -21.7820   -3.9820   23.7410 C   0  0  0  0  0  3  0  0  0  0  0  0
  -21.9280   -4.7840   22.5960 C   0  0  0  0  0  0  0  0  0  0  0  0
  -22.4050   -4.2400   21.4500 F   0  0  0  0  0  0  0  0  0  0  0  0
  -21.1230   -3.7600   26.0250 F   0  0  0  0  0  0  0  0  0  0  0  0
  -22.9420  -13.4810   21.2600 C   0  0  0  0  0  0  0  0  0  0  0  0
  -22.2180  -12.7940   22.1360 N   0  0  0  0  0  0  0  0  0  0  0  0
  -22.5210  -14.5250   20.7650 O   0  0  0  0  0  0  0  0  0  0  0  0
  -22.5660  -11.9460   22.5580 H   0  0  0  0  0  0  0  0  0  0  0  0
  -21.2980  -13.1240   22.3950 H   0  0  0  0  0  0  0  0  0  0  0  0
  -25.5930  -15.0780   20.3940 N   0  0  0  0  0  0  0  0  0  0  0  0
  -24.8540  -15.7540   20.5480 H   0  0  0  0  0  0  0  0  0  0  0  0
  -26.4530  -15.4930   20.0630 H   0  0  0  0  0  0  0  0  0  0  0  0
  -31.1540  -18.7540   20.3170 N   0  0  0  0  0  0  0  0  0  0  0  0
  -30.6200  -18.5520   21.1560 H   0  0  0  0  0  0  0  0  0  0  0  0
  -30.9790  -19.7300   20.1060 H   0  0  0  0  0  0  0  0  0  0  0  0
  -26.9790  -21.7230   17.6030 C   0  0  0  0  0  2  0  0  0  0  0  0
  -28.0810  -22.6630   17.9420 N   0  0  0  0  0  4  0  0  0  0  0  0
  -28.4470  -23.0600   17.0890 H   0  0  0  0  0  0  0  0  0  0  0  0
  -28.8340  -22.1710   18.3860 H   0  0  0  0  0  0  0  0  0  0  0  0
  -27.6780  -23.7710   18.8390 C   0  0  0  0  0  2  0  0  0  0  0  0
  -28.8870  -24.4250   19.5500 C   0  0  0  0  0  2  0  0  0  0  0  0
  -28.5230  -25.2390   20.8150 C   0  0  0  0  0  2  0  0  0  0  0  0
  -28.5570  -26.6520   20.6140 O   0  0  0  0  0  0  0  0  0  0  0  0
  -24.5510  -31.8910   23.2750 C   0  0  0  0  0  0  0  0  0  0  0  0
  -27.3620  -27.3290   20.5500 C   0  0  0  0  0  0  0  0  0  0  0  0
  -23.4350  -30.4140   21.6350 C   0  0  0  0  0  3  0  0  0  0  0  0
  -24.9640  -28.8150   20.3700 C   0  0  0  0  0  0  0  0  0  0  0  0
  -25.9670  -30.7710   21.5600 C   0  0  0  0  0  2  0  0  0  0  0  0
  -26.0880  -29.3740   20.9890 C   0  0  0  0  0  0  0  0  0  0  0  0
  -27.2910  -28.6400   21.0700 C   0  0  0  0  0  3  0  0  0  0  0  0
  -26.2110  -26.7760   19.9470 C   0  0  0  0  0  3  0  0  0  0  0  0
  -25.0180  -27.5130   19.8490 C   0  0  0  0  0  3  0  0  0  0  0  0
  -23.7210  -29.6720   20.3030 C   0  0  0  0  0  2  0  0  0  0  0  0
  -24.6650  -31.0420   22.2160 N   0  0  0  0  0  0  0  0  0  0  0  0
  -23.4410  -32.1880   23.7400 O   0  0  0  0  0  0  0  0  0  0  0  0
  -22.7310  -29.4340   22.6010 C   0  0  0  0  0  0  0  0  0  0  0  0
  -21.4130  -29.2540   22.4100 N   0  0  0  0  0  0  0  0  0  0  0  0
  -23.3650  -28.8370   23.4740 O   0  0  0  0  0  0  0  0  0  0  0  0
  -20.9630  -29.7880   21.6800 H   0  0  0  0  0  0  0  0  0  0  0  0
  -17.9950  -28.1710   22.8340 C   0  0  0  0  0  0  0  0  0  0  0  0
  -20.5500  -28.3560   23.1750 C   0  0  0  0  0  3  0  0  0  0  0  0
  -20.6260  -26.9130   22.6260 C   0  0  0  0  0  2  0  0  0  0  0  0
  -19.5420  -26.6050   21.5870 C   0  0  0  0  0  2  0  0  0  0  0  0
  -18.1490  -26.8040   22.1890 C   0  0  0  0  0  2  0  0  0  0  0  0
  -19.1240  -28.9070   23.2810 C   0  0  0  0  0  0  0  0  0  0  0  0
  -18.9300  -30.1900   23.8400 C   0  0  0  0  0  3  0  0  0  0  0  0
  -17.6370  -30.7340   23.9610 C   0  0  0  0  0  3  0  0  0  0  0  0
  -16.5210  -29.9950   23.5320 C   0  0  0  0  0  3  0  0  0  0  0  0
  -16.7010  -28.7160   22.9730 C   0  0  0  0  0  3  0  0  0  0  0  0
  -25.8020  -32.5470   23.9380 C   0  0  0  0  0  3  0  0  0  0  0  0
  -25.4610  -33.9440   24.2370 N   0  0  0  0  0  0  0  0  0  0  0  0
  -25.8000  -34.9890   23.4700 C   0  0  0  0  0  0  0  0  0  0  0  0
  -26.5040  -34.8810   22.4620 O   0  0  0  0  0  0  0  0  0  0  0  0
  -24.8440  -34.1030   25.0190 H   0  0  0  0  0  0  0  0  0  0  0  0
  -24.0590  -36.7470   23.0230 C   0  0  0  0  0  1  0  0  0  0  0  0
  -25.2720  -36.3750   23.8890 C   0  0  0  0  0  3  0  0  0  0  0  0
  -27.3480  -37.3110   24.8060 C   0  0  0  0  0  1  0  0  0  0  0  0
  -26.2920  -37.4430   23.8060 N   0  0  0  0  0  0  0  0  0  0  0  0
  -25.8640  -38.3570   23.9190 H   0  0  0  0  0  0  0  0  0  0  0  0
  -26.2840  -31.7960   25.2400 C   0  0  1  0  0  0  0  0  0  0  0  0
  -25.1530  -31.5350   26.2610 C   0  0  0  0  0  1  0  0  0  0  0  0
  -26.9190  -30.4330   24.8790 C   0  0  0  0  0  1  0  0  0  0  0  0
  -27.3860  -32.6240   25.9440 C   0  0  0  0  0  1  0  0  0  0  0  0
  1 51  1  0
  1  2  1  0
  2  3  1  0
  3  5  1  0
  4  3  1  0
  7 12  1  0
  8  9  1  0
  8  7  1  0
 10  9  1  0
 10 23  1  0
 10 11  1  0
 12  6  1  0
 12 11  1  0
 13  6  2  0
 14 15  1  0
 16 19  1  0
 17 16  1  0
 17 48  1  0
 18  3  1  0
 18 17  1  0
 18 14  1  0
 19  6  1  0
 19 15  1  0
 20 21  2  0
 21 40  1  0
 22 21  1  0
 22 25  1  0
 23 24  1  0
 23 20  1  0
 24 22  2  0
 25 26  1  0
 26 27  2  0
 28 31  1  0
 28 27  1  0
 29 28  2  0
 30 29  1  0
 30 25  2  0
 31 32  1  0
 32 33  1  0
 33 34  2  0
 35 34  1  0
 35 39  1  0
 36 35  2  0
 37 32  2  0
 37 36  1  0
 38 37  1  0
 40 41  1  0
 41 44  1  0
 41 43  1  0
 42 40  2  0
 45 46  1  0
 45 20  1  0
 47 45  1  0
 48 49  1  0
 50 48  1  0
 51 52  1  0
 52 54  1  0
 52 55  1  0
 53 52  1  0
 55 56  1  0
 56 57  1  0
 58 57  1  0
 59 70  2  0
 60 58  1  0
 60 65  1  0
 61 69  1  0
 61 71  1  0
 62 64  1  0
 63 69  1  0
 64 65  2  0
 64 63  1  0
 66 60  2  0
 67 66  1  0
 67 62  2  0
 68 62  1  0
 68 61  1  0
 69 59  1  0
 71 73  2  0
 72 71  1  0
 74 72  1  0
 75 84  2  0
 75 80  1  0
 76 72  1  0
 76 80  1  0
 77 76  1  0
 78 79  1  0
 78 77  1  0
 79 75  1  0
 80 81  2  0
 81 82  1  0
 83 82  2  0
 84 83  1  0
 85 59  1  0
 85 86  1  0
 85 95  1  0
 86 89  1  0
 87 91  1  0
 87 86  1  0
 88 87  2  0
 91 90  1  0
 93 91  1  0
 93 94  1  0
 93 92  1  0
 95 98  1  1
 95 96  1  0
 97 95  1  0
M  ISO  4   6 100  19 100  57 101  58 101
M  END
>  <TORSDO>  (94) 
F 24

>  <SCORE>  (94) 
-12.167

>  <name>  (94) 
93

>  <ligand_id>  (94) 
93

>  <original_smiles>  (94) 
[H]c1c([H])c([H])c2c(c1[H])C([H])([H])C([H])([H])C([H])([H])C2([H])N([H])C(=O)C1([H])N(C(=O)C([H])(N([H])C(=O)C([H])(N([H])C([H])([H])[H])C([H])([H])[H])C(C([H])([H])[H])(C([H])([H])[H])C([H])([H])[H])C([H])([H])c2c([H])c(OC([H])([H])C([H])([H])C([H])([H])[N+]([H])([H])C([H])([H])C([H])([H])C([H])([H])[N+]([H])([H])C3([H])C([H])([H])C([H])([H])N(C(=O)N4C([H])([H])C([H])([H])C([H])([H])C([H])(n5nc(-c6c([H])c([H])c(Oc7c([H])c([H])c(F)c([H])c7F)c([H])c6[H])c(C(=O)N([H])[H])c5N([H])[H])C4([H])[H])C([H])([H])C3([H])N([H])[H])c([H])c([H])c2C1([H])[H]

>  <smiles>  (94) 
[H]c1c([H])c([H])c2c(c1[H])C([H])([H])C([H])([H])C([H])([H])C2([H])N([H])C(=O)C1([H])N(C(=O)C([H])(N([H])C(=O)C([H])(N([H])C([H])([H])[H])C([H])([H])[H])C(C([H])([H])[H])(C([H])([H])[H])C([H])([H])[H])C([H])([H])c2c([H])c(OC([H])([H])C([H])([H])C([H])([H])[N+]([H])([H])C([H])([H])C([H])([H])C([H])([H])[N+]([H])([H])C3([H])C([H])([H])C([H])([H])N(C(=O)N4C([H])([H])C([H])([H])C([H])([H])C([H])(n5nc(-c6c([H])c([H])c(Oc7c([H])c([H])c(F)c([H])c7F)c([H])c6[H])c(C(=O)N([H])[H])c5N([H])[H])C4([H])[H])C([H])([H])C3([H])N([H])[H])c([H])c([H])c2C1([H])[H]

$$$$
94:0:0
     RDKit          3D

 91 99  0  0  1  0  0  0  0  0999 V2000
  -31.0200  -21.6050   21.9130 C   0  0  0  0  0  2  0  0  0  0  0  0
  -30.6710  -20.3740   21.0610 C   0  0  0  0  0  0  0  0  0  0  0  0
  -30.7710  -19.1670   21.6440 N   0  0  0  0  0  0  0  0  0  0  0  0
  -30.3200  -20.5040   19.8860 O   0  0  0  0  0  0  0  0  0  0  0  0
  -31.0790  -19.1240   22.6070 H   0  0  0  0  0  0  0  0  0  0  0  0
  -30.6750  -14.4990   20.4830 C   0  0  0  0  0  0  0  0  0  0  0  0
  -30.3240  -12.3550   19.3060 C   0  0  0  0  0  2  0  0  0  0  0  0
  -29.3800  -12.5490   18.1040 C   0  0  0  0  0  2  0  0  0  0  0  0
  -27.9100  -12.3840   18.5360 C   0  0  0  0  0  2  0  0  0  0  0  0
  -27.5670  -13.2250   19.7920 C   0  0  0  0  0  3  0  0  0  0  0  0
  -28.6330  -13.0390   20.9030 C   0  0  0  0  0  2  0  0  0  0  0  0
  -29.9550  -13.3470   20.3320 N   0  0  0  0  0  0  0  0  0  0  0  0
  -31.8050  -14.6190   20.0000 O   0  0  0  0  0  0  0  0  0  0  0  0
  -28.9730  -17.6720   20.8440 C   0  0  0  0  0  2  0  0  0  0  0  0
  -28.8730  -16.1640   20.6460 C   0  0  0  0  0  2  0  0  0  0  0  0
  -30.9320  -16.6420   21.6920 C   0  0  0  0  0  2  0  0  0  0  0  0
  -30.4680  -17.9110   20.9600 C   0  0  0  0  0  3  0  0  0  0  0  0
  -30.1070  -15.5410   21.1510 N   0  0  0  0  0  0  0  0  0  0  0  0
  -25.1740  -13.8530   20.4950 C   0  0  0  0  0  0  0  0  0  0  0  0
  -24.1070  -13.0850   20.8720 C   0  0  0  0  0  0  0  0  0  0  0  0
  -24.5680  -11.7340   20.8580 C   0  0  0  0  0  0  0  0  0  0  0  0
  -26.2180  -12.9660   20.2770 N   0  0  0  0  0  0  0  0  0  0  0  0
  -25.8590  -11.6890   20.5560 N   0  0  0  0  0  0  0  0  0  0  0  0
  -23.8450  -10.4730   21.0580 C   0  0  0  0  0  0  0  0  0  0  0  0
  -24.2940   -9.5060   21.9840 C   0  0  0  0  0  3  0  0  0  0  0  0
  -23.5730   -8.3070   22.1690 C   0  0  0  0  0  3  0  0  0  0  0  0
  -22.3910   -8.0690   21.4300 C   0  0  0  0  0  0  0  0  0  0  0  0
  -21.9620   -9.0260   20.4920 C   0  0  0  0  0  3  0  0  0  0  0  0
  -22.6840  -10.2160   20.3040 C   0  0  0  0  0  3  0  0  0  0  0  0
  -21.6380   -6.9250   21.5270 O   0  0  0  0  0  0  0  0  0  0  0  0
  -21.6210   -6.1700   22.6740 C   0  0  0  0  0  0  0  0  0  0  0  0
  -21.2520   -6.7190   23.9210 C   0  0  0  0  0  3  0  0  0  0  0  0
  -21.1820   -5.8930   25.0600 C   0  0  0  0  0  3  0  0  0  0  0  0
  -21.4710   -4.5180   24.9520 C   0  0  0  0  0  0  0  0  0  0  0  0
  -21.8330   -3.9700   23.7080 C   0  0  0  0  0  3  0  0  0  0  0  0
  -21.9060   -4.7950   22.5720 C   0  0  0  0  0  0  0  0  0  0  0  0
  -22.2350   -4.2580   21.3720 F   0  0  0  0  0  0  0  0  0  0  0  0
  -21.3950   -3.7210   26.0420 F   0  0  0  0  0  0  0  0  0  0  0  0
  -22.7070  -13.5650   21.1340 C   0  0  0  0  0  0  0  0  0  0  0  0
  -21.9780  -12.8790   22.0070 N   0  0  0  0  0  0  0  0  0  0  0  0
  -22.2690  -14.5830   20.6010 O   0  0  0  0  0  0  0  0  0  0  0  0
  -22.3440  -12.0550   22.4610 H   0  0  0  0  0  0  0  0  0  0  0  0
  -21.0400  -13.1830   22.2260 H   0  0  0  0  0  0  0  0  0  0  0  0
  -25.3320  -15.2210   20.2950 N   0  0  0  0  0  0  0  0  0  0  0  0
  -24.5580  -15.8690   20.3910 H   0  0  0  0  0  0  0  0  0  0  0  0
  -26.1740  -15.6590   19.9440 H   0  0  0  0  0  0  0  0  0  0  0  0
  -31.0800  -22.9440   21.1350 C   0  0  0  0  0  2  0  0  0  0  0  0
  -29.7090  -23.5940   20.8470 C   0  0  0  0  0  2  0  0  0  0  0  0
  -29.8040  -24.7780   19.8610 C   0  0  0  0  0  2  0  0  0  0  0  0
  -28.4510  -25.4540   19.5630 C   0  0  0  0  0  2  0  0  0  0  0  0
  -28.4050  -26.7630   20.1350 O   0  0  0  0  0  0  0  0  0  0  0  0
  -24.5880  -31.8920   23.2290 C   0  0  0  0  0  0  0  0  0  0  0  0
  -27.2080  -27.4520   20.1230 C   0  0  0  0  0  0  0  0  0  0  0  0
  -23.3640  -30.4860   21.6020 C   0  0  0  0  0  3  0  0  0  0  0  0
  -24.8030  -28.9470   20.1650 C   0  0  0  0  0  0  0  0  0  0  0  0
  -25.8870  -30.8460   21.3780 C   0  0  0  0  0  2  0  0  0  0  0  0
  -25.9660  -29.4740   20.7410 C   0  0  0  0  0  0  0  0  0  0  0  0
  -27.1660  -28.7310   20.7220 C   0  0  0  0  0  3  0  0  0  0  0  0
  -26.0230  -26.9380   19.5430 C   0  0  0  0  0  3  0  0  0  0  0  0
  -24.8260  -27.6770   19.5680 C   0  0  0  0  0  3  0  0  0  0  0  0
  -23.5590  -29.8040   20.2220 C   0  0  0  0  0  2  0  0  0  0  0  0
  -24.6320  -31.0910   22.1280 N   0  0  0  0  0  0  0  0  0  0  0  0
  -23.5130  -32.1650   23.7790 O   0  0  0  0  0  0  0  0  0  0  0  0
  -22.7270  -29.4650   22.5710 C   0  0  0  0  0  0  0  0  0  0  0  0
  -21.4020  -29.2780   22.4540 N   0  0  0  0  0  0  0  0  0  0  0  0
  -23.4190  -28.8460   23.3830 O   0  0  0  0  0  0  0  0  0  0  0  0
  -20.9050  -29.8320   21.7700 H   0  0  0  0  0  0  0  0  0  0  0  0
  -18.0370  -28.0670   22.9670 C   0  0  0  0  0  0  0  0  0  0  0  0
  -20.5930  -28.3410   23.2330 C   0  0  0  0  0  3  0  0  0  0  0  0
  -20.7040  -26.9070   22.6680 C   0  0  0  0  0  2  0  0  0  0  0  0
  -19.6020  -26.5690   21.6580 C   0  0  0  0  0  2  0  0  0  0  0  0
  -18.2210  -26.7130   22.3030 C   0  0  0  0  0  2  0  0  0  0  0  0
  -19.1510  -28.8380   23.3900 C   0  0  0  0  0  0  0  0  0  0  0  0
  -18.9280  -30.1060   23.9690 C   0  0  0  0  0  3  0  0  0  0  0  0
  -17.6210  -30.6020   24.1320 C   0  0  0  0  0  3  0  0  0  0  0  0
  -16.5200  -29.8280   23.7280 C   0  0  0  0  0  3  0  0  0  0  0  0
  -16.7290  -28.5620   23.1510 C   0  0  0  0  0  3  0  0  0  0  0  0
  -25.8810  -32.5250   23.8320 C   0  0  0  0  0  3  0  0  0  0  0  0
  -25.5760  -33.9210   24.1670 N   0  0  0  0  0  0  0  0  0  0  0  0
  -25.8980  -34.9740   23.4050 C   0  0  0  0  0  0  0  0  0  0  0  0
  -26.5580  -34.8730   22.3670 O   0  0  0  0  0  0  0  0  0  0  0  0
  -24.9900  -34.0750   24.9760 H   0  0  0  0  0  0  0  0  0  0  0  0
  -24.1630  -36.7620   23.0690 C   0  0  0  0  0  1  0  0  0  0  0  0
  -25.4130  -36.3610   23.8690 C   0  0  0  0  0  3  0  0  0  0  0  0
  -27.5560  -37.2470   24.6760 C   0  0  0  0  0  1  0  0  0  0  0  0
  -26.4420  -37.4160   23.7460 N   0  0  0  0  0  0  0  0  0  0  0  0
  -26.0360  -38.3350   23.9010 H   0  0  0  0  0  0  0  0  0  0  0  0
  -26.4200  -31.7500   25.0980 C   0  0  1  0  0  0  0  0  0  0  0  0
  -25.3440  -31.5080   26.1820 C   0  0  0  0  0  1  0  0  0  0  0  0
  -26.9980  -30.3760   24.6920 C   0  0  0  0  0  1  0  0  0  0  0  0
  -27.5800  -32.5450   25.7450 C   0  0  0  0  0  1  0  0  0  0  0  0
  2  3  1  0
  2  1  1  0
  3  5  1  0
  4  2  2  0
  6 18  1  0
  7 12  1  0
  8  9  1  0
  8  7  1  0
 10  9  1  0
 10 22  1  0
 10 11  1  0
 12  6  1  0
 12 11  1  0
 13  6  2  0
 14 17  1  0
 15 14  1  0
 15 18  1  0
 17  3  1  0
 17 16  1  0
 18 16  1  0
 19 20  2  0
 20 39  1  0
 21 20  1  0
 21 24  1  0
 22 19  1  0
 22 23  1  0
 23 21  2  0
 24 25  1  0
 25 26  2  0
 27 30  1  0
 27 26  1  0
 28 27  2  0
 29 28  1  0
 29 24  2  0
 30 31  1  0
 31 32  1  0
 32 33  2  0
 34 33  1  0
 34 38  1  0
 35 34  2  0
 36 31  2  0
 36 35  1  0
 37 36  1  0
 39 40  1  0
 40 43  1  0
 40 42  1  0
 41 39  2  0
 44 45  1  0
 44 19  1  0
 46 44  1  0
 47  1  1  0
 48 47  1  0
 49 48  1  0
 50 49  1  0
 50 51  1  0
 52 63  2  0
 53 51  1  0
 53 58  1  0
 54 62  1  0
 54 64  1  0
 55 61  1  0
 55 57  1  0
 56 62  1  0
 57 56  1  0
 58 57  2  0
 59 60  1  0
 59 53  2  0
 60 55  2  0
 61 54  1  0
 62 52  1  0
 64 66  2  0
 65 64  1  0
 67 65  1  0
 68 77  2  0
 68 73  1  0
 69 65  1  0
 69 73  1  0
 70 69  1  0
 71 72  1  0
 71 70  1  0
 72 68  1  0
 73 74  2  0
 74 75  1  0
 76 75  2  0
 77 76  1  0
 78 52  1  0
 78 79  1  0
 78 88  1  0
 79 82  1  0
 80 84  1  0
 80 79  1  0
 81 80  2  0
 84 83  1  0
 86 84  1  0
 86 87  1  0
 86 85  1  0
 88 91  1  1
 88 89  1  0
 90 88  1  0
M  ISO  4   6 100  18 100  50 101  51 101
M  END
>  <TORSDO>  (95) 
F 21

>  <SCORE>  (95) 
-13.736

>  <name>  (95) 
94

>  <ligand_id>  (95) 
94

>  <original_smiles>  (95) 
[H]c1c([H])c([H])c2c(c1[H])C([H])([H])C([H])([H])C([H])([H])C2([H])N([H])C(=O)C1([H])N(C(=O)C([H])(N([H])C(=O)C([H])(N([H])C([H])([H])[H])C([H])([H])[H])C(C([H])([H])[H])(C([H])([H])[H])C([H])([H])[H])C([H])([H])c2c([H])c(OC([H])([H])C([H])([H])C([H])([H])C([H])([H])C([H])([H])C(=O)N([H])C3([H])C([H])([H])N(C(=O)N4C([H])([H])C([H])([H])C([H])([H])C([H])(n5nc(-c6c([H])c([H])c(Oc7c([H])c([H])c(F)c([H])c7F)c([H])c6[H])c(C(=O)N([H])[H])c5N([H])[H])C4([H])[H])C([H])([H])C3([H])[H])c([H])c([H])c2C1([H])[H]

>  <smiles>  (95) 
[H]c1c([H])c([H])c2c(c1[H])C([H])([H])C([H])([H])C([H])([H])C2([H])N([H])C(=O)C1([H])N(C(=O)C([H])(N([H])C(=O)C([H])(N([H])C([H])([H])[H])C([H])([H])[H])C(C([H])([H])[H])(C([H])([H])[H])C([H])([H])[H])C([H])([H])c2c([H])c(OC([H])([H])C([H])([H])C([H])([H])C([H])([H])C([H])([H])C(=O)N([H])C3([H])C([H])([H])N(C(=O)N4C([H])([H])C([H])([H])C([H])([H])C([H])(n5nc(-c6c([H])c([H])c(Oc7c([H])c([H])c(F)c([H])c7F)c([H])c6[H])c(C(=O)N([H])[H])c5N([H])[H])C4([H])[H])C([H])([H])C3([H])[H])c([H])c([H])c2C1([H])[H]

$$$$
95:0:0
     RDKit          3D

 94103  0  0  1  0  0  0  0  0999 V2000
  -28.4030  -17.9640   18.6590 C   0  0  0  0  0  2  0  0  0  0  0  0
  -30.7890  -17.0650   18.7650 C   0  0  0  0  0  2  0  0  0  0  0  0
  -29.6120  -18.1310   20.8660 C   0  0  0  0  0  2  0  0  0  0  0  0
  -30.2530  -19.1730   17.4180 C   0  0  0  0  0  2  0  0  0  0  0  0
  -29.7350  -17.7990   17.9050 C   0  0  0  0  0  3  0  0  0  0  0  0
  -28.6690  -18.8770   19.8680 C   0  0  0  0  0  3  0  0  0  0  0  0
  -30.4770  -16.9520   20.2900 C   0  0  0  0  0  3  0  0  0  0  0  0
  -29.1460  -20.2760   19.3240 C   0  0  0  0  0  3  0  0  0  0  0  0
  -30.3960  -20.1240   18.5420 N   0  0  0  0  0  4  0  0  0  0  0  0
  -30.6560  -21.0160   18.1550 H   0  0  0  0  0  0  0  0  0  0  0  0
  -31.1440  -19.8280   19.1490 H   0  0  0  0  0  0  0  0  0  0  0  0
  -30.7070  -14.4720   20.4850 C   0  0  0  0  0  0  0  0  0  0  0  0
  -30.3780  -12.3060   19.3900 C   0  0  0  0  0  2  0  0  0  0  0  0
  -29.4600  -12.5270   18.1700 C   0  0  0  0  0  2  0  0  0  0  0  0
  -27.9840  -12.3870   18.5890 C   0  0  0  0  0  2  0  0  0  0  0  0
  -27.6300  -13.2420   19.8360 C   0  0  0  0  0  3  0  0  0  0  0  0
  -28.6740  -13.0560   20.9610 C   0  0  0  0  0  2  0  0  0  0  0  0
  -30.0050  -13.3150   20.3920 N   0  0  0  0  0  0  0  0  0  0  0  0
  -31.8950  -14.5570   20.1650 O   0  0  0  0  0  0  0  0  0  0  0  0
  -29.9770  -15.6000   20.6380 N   0  0  0  0  0  0  0  0  0  0  0  0
  -29.0010  -15.4920   20.8700 H   0  0  0  0  0  0  0  0  0  0  0  0
  -25.2240  -13.8480   20.5250 C   0  0  0  0  0  0  0  0  0  0  0  0
  -24.1530  -13.0750   20.8900 C   0  0  0  0  0  0  0  0  0  0  0  0
  -24.6170  -11.7230   20.8700 C   0  0  0  0  0  0  0  0  0  0  0  0
  -26.2730  -12.9680   20.3080 N   0  0  0  0  0  0  0  0  0  0  0  0
  -25.9110  -11.6860   20.5750 N   0  0  0  0  0  0  0  0  0  0  0  0
  -23.8910  -10.4600   21.0590 C   0  0  0  0  0  0  0  0  0  0  0  0
  -24.3250   -9.4900   21.9900 C   0  0  0  0  0  3  0  0  0  0  0  0
  -23.5990   -8.2920   22.1680 C   0  0  0  0  0  3  0  0  0  0  0  0
  -22.4250   -8.0560   21.4160 C   0  0  0  0  0  0  0  0  0  0  0  0
  -22.0110   -9.0150   20.4720 C   0  0  0  0  0  3  0  0  0  0  0  0
  -22.7380  -10.2030   20.2930 C   0  0  0  0  0  3  0  0  0  0  0  0
  -21.6710   -6.9110   21.5010 O   0  0  0  0  0  0  0  0  0  0  0  0
  -21.6290   -6.1600   22.6490 C   0  0  0  0  0  0  0  0  0  0  0  0
  -21.2230   -6.7090   23.8850 C   0  0  0  0  0  3  0  0  0  0  0  0
  -21.1300   -5.8860   25.0250 C   0  0  0  0  0  3  0  0  0  0  0  0
  -21.4310   -4.5140   24.9290 C   0  0  0  0  0  0  0  0  0  0  0  0
  -21.8300   -3.9640   23.6990 C   0  0  0  0  0  3  0  0  0  0  0  0
  -21.9250   -4.7850   22.5610 C   0  0  0  0  0  0  0  0  0  0  0  0
  -22.2910   -4.2460   21.3730 F   0  0  0  0  0  0  0  0  0  0  0  0
  -21.3350   -3.7220   26.0230 F   0  0  0  0  0  0  0  0  0  0  0  0
  -22.7510  -13.5500   21.1450 C   0  0  0  0  0  0  0  0  0  0  0  0
  -22.0130  -12.8590   22.0080 N   0  0  0  0  0  0  0  0  0  0  0  0
  -22.3160  -14.5700   20.6130 O   0  0  0  0  0  0  0  0  0  0  0  0
  -22.3780  -12.0360   22.4650 H   0  0  0  0  0  0  0  0  0  0  0  0
  -21.0720  -13.1600   22.2190 H   0  0  0  0  0  0  0  0  0  0  0  0
  -25.3880  -15.2160   20.3400 N   0  0  0  0  0  0  0  0  0  0  0  0
  -24.6200  -15.8720   20.4370 H   0  0  0  0  0  0  0  0  0  0  0  0
  -26.2380  -15.6490   20.0000 H   0  0  0  0  0  0  0  0  0  0  0  0
  -29.2220  -21.4920   20.3040 C   0  0  0  0  0  2  0  0  0  0  0  0
  -29.2370  -22.8560   19.5390 C   0  0  0  0  0  2  0  0  0  0  0  0
  -29.2890  -24.1960   20.3440 C   0  0  0  0  0  2  0  0  0  0  0  0
  -28.2340  -25.2190   19.8330 C   0  0  0  0  0  2  0  0  0  0  0  0
  -28.3620  -26.6060   20.2340 O   0  0  0  0  0  0  0  0  0  0  0  0
  -24.5890  -31.8820   23.2570 C   0  0  0  0  0  0  0  0  0  0  0  0
  -27.2110  -27.3890   20.1770 C   0  0  0  0  0  0  0  0  0  0  0  0
  -23.3800  -30.4820   21.6200 C   0  0  0  0  0  3  0  0  0  0  0  0
  -24.8280  -28.9440   20.1940 C   0  0  0  0  0  0  0  0  0  0  0  0
  -25.9140  -30.8180   21.4310 C   0  0  0  0  0  2  0  0  0  0  0  0
  -25.9930  -29.4470   20.7840 C   0  0  0  0  0  0  0  0  0  0  0  0
  -27.1850  -28.6750   20.7780 C   0  0  0  0  0  3  0  0  0  0  0  0
  -26.0220  -26.9300   19.5570 C   0  0  0  0  0  3  0  0  0  0  0  0
  -24.8380  -27.6840   19.5820 C   0  0  0  0  0  3  0  0  0  0  0  0
  -23.5850  -29.8060   20.2420 C   0  0  0  0  0  2  0  0  0  0  0  0
  -24.6460  -31.0760   22.1590 N   0  0  0  0  0  0  0  0  0  0  0  0
  -23.5080  -32.1570   23.7960 O   0  0  0  0  0  0  0  0  0  0  0  0
  -22.7260  -29.4630   22.5790 C   0  0  0  0  0  0  0  0  0  0  0  0
  -21.3990  -29.2870   22.4540 N   0  0  0  0  0  0  0  0  0  0  0  0
  -23.4080  -28.8340   23.3920 O   0  0  0  0  0  0  0  0  0  0  0  0
  -20.9100  -29.8400   21.7620 H   0  0  0  0  0  0  0  0  0  0  0  0
  -18.0240  -28.1070   22.9610 C   0  0  0  0  0  0  0  0  0  0  0  0
  -20.5840  -28.3510   23.2270 C   0  0  0  0  0  3  0  0  0  0  0  0
  -20.6780  -26.9200   22.6490 C   0  0  0  0  0  2  0  0  0  0  0  0
  -19.5720  -26.6030   21.6370 C   0  0  0  0  0  2  0  0  0  0  0  0
  -18.1940  -26.7570   22.2850 C   0  0  0  0  0  2  0  0  0  0  0  0
  -19.1480  -28.8610   23.3890 C   0  0  0  0  0  0  0  0  0  0  0  0
  -18.9360  -30.1260   23.9810 C   0  0  0  0  0  3  0  0  0  0  0  0
  -17.6350  -30.6360   24.1470 C   0  0  0  0  0  3  0  0  0  0  0  0
  -16.5260  -29.8770   23.7360 C   0  0  0  0  0  3  0  0  0  0  0  0
  -16.7210  -28.6140   23.1480 C   0  0  0  0  0  3  0  0  0  0  0  0
  -25.8760  -32.5100   23.8730 C   0  0  0  0  0  3  0  0  0  0  0  0
  -26.3920  -31.7430   25.1510 C   0  0  1  0  0  0  0  0  0  0  0  0
  -25.2960  -31.5160   26.2190 C   0  0  0  0  0  1  0  0  0  0  0  0
  -26.9660  -30.3620   24.7620 C   0  0  0  0  0  1  0  0  0  0  0  0
  -27.5480  -32.5360   25.8050 C   0  0  0  0  0  1  0  0  0  0  0  0
  -25.5710  -33.9100   24.1970 N   0  0  0  0  0  0  0  0  0  0  0  0
  -25.9100  -34.9580   23.4360 C   0  0  0  0  0  0  0  0  0  0  0  0
  -26.5800  -34.8490   22.4060 O   0  0  0  0  0  0  0  0  0  0  0  0
  -24.9690  -34.0690   24.9910 H   0  0  0  0  0  0  0  0  0  0  0  0
  -24.1840  -36.7490   23.0820 C   0  0  0  0  0  1  0  0  0  0  0  0
  -25.4270  -36.3480   23.8900 C   0  0  0  0  0  3  0  0  0  0  0  0
  -27.5670  -37.2270   24.7110 C   0  0  0  0  0  1  0  0  0  0  0  0
  -26.4610  -37.3990   23.7730 N   0  0  0  0  0  0  0  0  0  0  0  0
  -26.0580  -38.3210   23.9240 H   0  0  0  0  0  0  0  0  0  0  0  0
  2  7  1  0
  4  9  1  0
  5  4  1  0
  5  1  1  0
  5  2  1  0
  6  1  1  0
  6  3  1  0
  7 20  1  0
  7  3  1  0
  8  6  1  0
  8 50  1  0
  9 11  1  0
  9  8  1  0
 10  9  1  0
 12 20  1  0
 13 18  1  0
 14 15  1  0
 14 13  1  0
 16 15  1  0
 16 25  1  0
 16 17  1  0
 18 12  1  0
 18 17  1  0
 19 12  2  0
 20 21  1  0
 22 23  2  0
 23 42  1  0
 24 23  1  0
 24 27  1  0
 25 22  1  0
 25 26  1  0
 26 24  2  0
 27 28  1  0
 28 29  2  0
 30 33  1  0
 30 29  1  0
 31 30  2  0
 32 31  1  0
 32 27  2  0
 33 34  1  0
 34 35  1  0
 35 36  2  0
 37 36  1  0
 37 41  1  0
 38 37  2  0
 39 34  2  0
 39 38  1  0
 40 39  1  0
 42 43  1  0
 43 46  1  0
 43 45  1  0
 44 42  2  0
 47 48  1  0
 47 22  1  0
 49 47  1  0
 51 50  1  0
 51 52  1  0
 53 54  1  0
 53 52  1  0
 55 66  2  0
 56 54  1  0
 56 61  1  0
 57 65  1  0
 57 67  1  0
 58 64  1  0
 58 60  1  0
 59 65  1  0
 60 59  1  0
 61 60  2  0
 62 63  1  0
 62 56  2  0
 63 58  2  0
 64 57  1  0
 65 55  1  0
 67 69  2  0
 68 67  1  0
 70 68  1  0
 71 80  2  0
 71 76  1  0
 72 68  1  0
 72 76  1  0
 73 72  1  0
 74 75  1  0
 74 73  1  0
 75 71  1  0
 76 77  2  0
 77 78  1  0
 79 78  2  0
 80 79  1  0
 81 55  1  0
 81 86  1  0
 81 82  1  0
 82 85  1  1
 82 83  1  0
 84 82  1  0
 86 89  1  0
 87 91  1  0
 87 86  1  0
 88 87  2  0
 91 90  1  0
 93 91  1  0
 93 94  1  0
 93 92  1  0
M  ISO  4  12 100  20 100  53 101  54 101
M  END
>  <TORSDO>  (96) 
F 20

>  <SCORE>  (96) 
-13.911

>  <name>  (96) 
95

>  <ligand_id>  (96) 
95

>  <original_smiles>  (96) 
[H]c1c([H])c([H])c2c(c1[H])C([H])([H])C([H])([H])C([H])([H])C2([H])N([H])C(=O)C1([H])N(C(=O)C([H])(N([H])C(=O)C([H])(N([H])C([H])([H])[H])C([H])([H])[H])C(C([H])([H])[H])(C([H])([H])[H])C([H])([H])[H])C([H])([H])c2c([H])c(OC([H])([H])C([H])([H])C([H])([H])C([H])([H])C3([H])C4([H])C([H])([H])C([H])(N([H])C(=O)N5C([H])([H])C([H])([H])C([H])([H])C([H])(n6nc(-c7c([H])c([H])c(Oc8c([H])c([H])c(F)c([H])c8F)c([H])c7[H])c(C(=O)N([H])[H])c6N([H])[H])C5([H])[H])C([H])([H])C([H])(C4([H])[H])C([H])([H])[N+]3([H])[H])c([H])c([H])c2C1([H])[H]

>  <smiles>  (96) 
[H]c1c([H])c([H])c2c(c1[H])C([H])([H])C([H])([H])C([H])([H])C2([H])N([H])C(=O)C1([H])N(C(=O)C([H])(N([H])C(=O)C([H])(N([H])C([H])([H])[H])C([H])([H])[H])C(C([H])([H])[H])(C([H])([H])[H])C([H])([H])[H])C([H])([H])c2c([H])c(OC([H])([H])C([H])([H])C([H])([H])C([H])([H])C3([H])C4([H])C([H])([H])C([H])(N([H])C(=O)N5C([H])([H])C([H])([H])C([H])([H])C([H])(n6nc(-c7c([H])c([H])c(Oc8c([H])c([H])c(F)c([H])c8F)c([H])c7[H])c(C(=O)N([H])[H])c6N([H])[H])C5([H])[H])C([H])([H])C([H])(C4([H])[H])C([H])([H])[N+]3([H])[H])c([H])c([H])c2C1([H])[H]

$$$$
96:0:0
     RDKit          3D

 89 97  0  0  1  0  0  0  0  0999 V2000
  -29.2860  -21.3250   20.3080 C   0  0  0  0  0  2  0  0  0  0  0  0
  -28.6150  -22.6420   20.8630 C   0  0  0  0  0  2  0  0  0  0  0  0
  -28.9110  -24.0200   20.1540 C   0  0  0  0  0  2  0  0  0  0  0  0
  -28.2120  -25.2600   20.8260 C   0  0  0  0  0  2  0  0  0  0  0  0
  -28.4270  -26.5840   20.2400 O   0  0  0  0  0  0  0  0  0  0  0  0
  -24.5810  -31.8870   23.1690 C   0  0  0  0  0  0  0  0  0  0  0  0
  -27.3000  -27.3960   20.1830 C   0  0  0  0  0  0  0  0  0  0  0  0
  -23.4190  -30.4690   21.5130 C   0  0  0  0  0  3  0  0  0  0  0  0
  -24.9120  -28.9330   20.1200 C   0  0  0  0  0  0  0  0  0  0  0  0
  -25.9520  -30.8320   21.3660 C   0  0  0  0  0  2  0  0  0  0  0  0
  -26.0610  -29.4550   20.7300 C   0  0  0  0  0  0  0  0  0  0  0  0
  -27.2630  -28.6970   20.7530 C   0  0  0  0  0  3  0  0  0  0  0  0
  -26.1390  -26.9120   19.5450 C   0  0  0  0  0  3  0  0  0  0  0  0
  -24.9500  -27.6640   19.5180 C   0  0  0  0  0  3  0  0  0  0  0  0
  -23.6620  -29.7860   20.1400 C   0  0  0  0  0  2  0  0  0  0  0  0
  -24.6680  -31.0780   22.0740 N   0  0  0  0  0  0  0  0  0  0  0  0
  -23.4860  -32.1530   23.6860 O   0  0  0  0  0  0  0  0  0  0  0  0
  -22.7550  -29.4470   22.4660 C   0  0  0  0  0  0  0  0  0  0  0  0
  -21.4320  -29.2620   22.3220 N   0  0  0  0  0  0  0  0  0  0  0  0
  -23.4280  -28.8240   23.2920 O   0  0  0  0  0  0  0  0  0  0  0  0
  -20.9490  -29.8160   21.6280 H   0  0  0  0  0  0  0  0  0  0  0  0
  -18.0530  -28.0590   22.7820 C   0  0  0  0  0  0  0  0  0  0  0  0
  -20.6070  -28.3230   23.0830 C   0  0  0  0  0  3  0  0  0  0  0  0
  -20.7190  -26.8920   22.5080 C   0  0  0  0  0  2  0  0  0  0  0  0
  -19.6290  -26.5660   21.4810 C   0  0  0  0  0  2  0  0  0  0  0  0
  -18.2400  -26.7100   22.1100 C   0  0  0  0  0  2  0  0  0  0  0  0
  -19.1650  -28.8240   23.2250 C   0  0  0  0  0  0  0  0  0  0  0  0
  -18.9370  -30.0870   23.8120 C   0  0  0  0  0  3  0  0  0  0  0  0
  -17.6300  -30.5870   23.9620 C   0  0  0  0  0  3  0  0  0  0  0  0
  -16.5320  -29.8190   23.5360 C   0  0  0  0  0  3  0  0  0  0  0  0
  -16.7450  -28.5570   22.9520 C   0  0  0  0  0  3  0  0  0  0  0  0
  -25.8480  -32.5340   23.8100 C   0  0  0  0  0  3  0  0  0  0  0  0
  -26.3620  -31.7620   25.0870 C   0  0  1  0  0  0  0  0  0  0  0  0
  -25.2600  -31.4980   26.1400 C   0  0  0  0  0  1  0  0  0  0  0  0
  -26.9740  -30.3980   24.6930 C   0  0  0  0  0  1  0  0  0  0  0  0
  -27.4910  -32.5710   25.7690 C   0  0  0  0  0  1  0  0  0  0  0  0
  -25.5140  -33.9250   24.1440 N   0  0  0  0  0  0  0  0  0  0  0  0
  -25.8440  -34.9870   23.3980 C   0  0  0  0  0  0  0  0  0  0  0  0
  -26.5320  -34.9000   22.3760 O   0  0  0  0  0  0  0  0  0  0  0  0
  -24.9060  -34.0670   24.9370 H   0  0  0  0  0  0  0  0  0  0  0  0
  -24.1020  -36.7610   23.0220 C   0  0  0  0  0  1  0  0  0  0  0  0
  -25.3300  -36.3660   23.8560 C   0  0  0  0  0  3  0  0  0  0  0  0
  -27.4360  -37.2700   24.7400 C   0  0  0  0  0  1  0  0  0  0  0  0
  -26.3520  -37.4330   23.7730 N   0  0  0  0  0  0  0  0  0  0  0  0
  -25.9320  -38.3460   23.9190 H   0  0  0  0  0  0  0  0  0  0  0  0
  -28.9370  -20.0190   21.1230 C   0  0  0  0  0  2  0  0  0  0  0  0
  -30.7550  -14.5980   20.0370 C   0  0  0  0  0  0  0  0  0  0  0  0
  -30.3870  -12.4200   18.9290 C   0  0  0  0  0  2  0  0  0  0  0  0
  -29.3810  -12.6050   17.7740 C   0  0  0  0  0  2  0  0  0  0  0  0
  -27.9380  -12.4500   18.2910 C   0  0  0  0  0  2  0  0  0  0  0  0
  -27.6640  -13.2860   19.5720 C   0  0  0  0  0  3  0  0  0  0  0  0
  -28.7880  -13.1170   20.6180 C   0  0  0  0  0  2  0  0  0  0  0  0
  -30.0610  -13.4260   19.9560 N   0  0  0  0  0  0  0  0  0  0  0  0
  -31.9020  -14.7000   19.5910 O   0  0  0  0  0  0  0  0  0  0  0  0
  -29.8070  -16.6800   19.2460 C   0  0  0  0  0  2  0  0  0  0  0  0
  -30.5510  -16.4790   21.5490 C   0  0  0  0  0  2  0  0  0  0  0  0
  -29.0420  -17.9940   19.6020 C   0  0  0  0  0  2  0  0  0  0  0  0
  -29.7730  -17.7860   21.8920 C   0  0  0  0  0  2  0  0  0  0  0  0
  -30.0640  -15.7370   20.3670 N   0  0  0  0  0  0  0  0  0  0  0  0
  -29.6420  -18.7310   20.7460 N   0  0  2  0  0  4  0  0  0  0  0  0
  -30.5820  -18.9880   20.4840 H   0  0  0  0  0  0  0  0  0  0  0  0
  -25.3240  -13.8660   20.4540 C   0  0  0  0  0  0  0  0  0  0  0  0
  -24.2790  -13.0830   20.8650 C   0  0  0  0  0  0  0  0  0  0  0  0
  -24.7340  -11.7330   20.7670 C   0  0  0  0  0  0  0  0  0  0  0  0
  -26.3490  -12.9910   20.1330 N   0  0  0  0  0  0  0  0  0  0  0  0
  -26.0040  -11.7020   20.3810 N   0  0  0  0  0  0  0  0  0  0  0  0
  -24.0170  -10.4670   20.9630 C   0  0  0  0  0  0  0  0  0  0  0  0
  -24.4680   -9.4970   21.8860 C   0  0  0  0  0  3  0  0  0  0  0  0
  -23.7490   -8.2960   22.0710 C   0  0  0  0  0  3  0  0  0  0  0  0
  -22.5660   -8.0560   21.3320 C   0  0  0  0  0  0  0  0  0  0  0  0
  -22.1340   -9.0150   20.3980 C   0  0  0  0  0  3  0  0  0  0  0  0
  -22.8530  -10.2080   20.2130 C   0  0  0  0  0  3  0  0  0  0  0  0
  -21.8170   -6.9080   21.4270 O   0  0  0  0  0  0  0  0  0  0  0  0
  -21.7470   -6.1890   22.5930 C   0  0  0  0  0  0  0  0  0  0  0  0
  -21.2760   -6.7610   23.7960 C   0  0  0  0  0  3  0  0  0  0  0  0
  -21.1560   -5.9670   24.9540 C   0  0  0  0  0  3  0  0  0  0  0  0
  -21.4950   -4.6020   24.9100 C   0  0  0  0  0  0  0  0  0  0  0  0
  -21.9590   -4.0290   23.7130 C   0  0  0  0  0  3  0  0  0  0  0  0
  -22.0810   -4.8190   22.5570 C   0  0  0  0  0  0  0  0  0  0  0  0
  -22.5080   -4.2570   21.4010 F   0  0  0  0  0  0  0  0  0  0  0  0
  -21.3720   -3.8370   26.0200 F   0  0  0  0  0  0  0  0  0  0  0  0
  -22.9030  -13.5550   21.2350 C   0  0  0  0  0  0  0  0  0  0  0  0
  -22.2260  -12.8340   22.1210 N   0  0  0  0  0  0  0  0  0  0  0  0
  -22.4390  -14.5970   20.7740 O   0  0  0  0  0  0  0  0  0  0  0  0
  -22.6150  -11.9890   22.5150 H   0  0  0  0  0  0  0  0  0  0  0  0
  -21.3050  -13.1300   22.4110 H   0  0  0  0  0  0  0  0  0  0  0  0
  -25.4840  -15.2410   20.3080 N   0  0  0  0  0  0  0  0  0  0  0  0
  -24.7290  -15.8950   20.4810 H   0  0  0  0  0  0  0  0  0  0  0  0
  -26.3160  -15.6810   19.9390 H   0  0  0  0  0  0  0  0  0  0  0  0
  1  2  1  0
  1 46  1  0
  3  4  1  0
  3  2  1  0
  5  4  1  0
  6 17  2  0
  7  5  1  0
  7 12  1  0
  8 16  1  0
  8 18  1  0
  9 15  1  0
  9 11  1  0
 10 16  1  0
 11 12  2  0
 11 10  1  0
 13  7  2  0
 14 13  1  0
 14  9  2  0
 15  8  1  0
 16  6  1  0
 18 20  2  0
 19 18  1  0
 21 19  1  0
 22 31  2  0
 22 27  1  0
 23 19  1  0
 23 27  1  0
 24 23  1  0
 25 26  1  0
 25 24  1  0
 26 22  1  0
 27 28  2  0
 28 29  1  0
 30 29  2  0
 31 30  1  0
 32  6  1  0
 32 37  1  0
 32 33  1  0
 33 36  1  1
 33 34  1  0
 35 33  1  0
 37 40  1  0
 38 42  1  0
 38 37  1  0
 39 38  2  0
 42 41  1  0
 44 42  1  0
 44 45  1  0
 44 43  1  0
 47 59  1  0
 48 53  1  0
 49 50  1  0
 49 48  1  0
 51 50  1  0
 51 65  1  0
 51 52  1  0
 53 47  1  0
 53 52  1  0
 54 47  2  0
 55 57  1  0
 55 59  1  0
 56 58  1  0
 57 60  1  0
 59 56  1  0
 60 46  1  0
 60 58  1  0
 60 61  1  6
 62 63  2  0
 63 82  1  0
 64 63  1  0
 64 67  1  0
 65 66  1  0
 65 62  1  0
 66 64  2  0
 67 68  1  0
 68 69  2  0
 70 73  1  0
 70 69  1  0
 71 70  2  0
 72 71  1  0
 72 67  2  0
 73 74  1  0
 74 75  1  0
 75 76  2  0
 77 76  1  0
 77 81  1  0
 78 77  2  0
 79 74  2  0
 79 78  1  0
 80 79  1  0
 82 83  1  0
 83 86  1  0
 83 85  1  0
 84 82  2  0
 87 62  1  0
 87 88  1  0
 89 87  1  0
M  ISO  4   4 101   5 101  47 100  59 100
M  END
>  <TORSDO>  (97) 
F 20

>  <SCORE>  (97) 
-13.318

>  <name>  (97) 
96

>  <ligand_id>  (97) 
96

>  <original_smiles>  (97) 
[H]c1c([H])c([H])c2c(c1[H])C([H])([H])C([H])([H])C([H])([H])C2([H])N([H])C(=O)C1([H])N(C(=O)C([H])(N([H])C(=O)C([H])(N([H])C([H])([H])[H])C([H])([H])[H])C(C([H])([H])[H])(C([H])([H])[H])C([H])([H])[H])C([H])([H])c2c([H])c(OC([H])([H])C([H])([H])C([H])([H])C([H])([H])C([H])([H])[N+]3([H])C([H])([H])C([H])([H])N(C(=O)N4C([H])([H])C([H])([H])C([H])([H])C([H])(n5nc(-c6c([H])c([H])c(Oc7c([H])c([H])c(F)c([H])c7F)c([H])c6[H])c(C(=O)N([H])[H])c5N([H])[H])C4([H])[H])C([H])([H])C3([H])[H])c([H])c([H])c2C1([H])[H]

>  <smiles>  (97) 
[H]c1c([H])c([H])c2c(c1[H])C([H])([H])C([H])([H])C([H])([H])C2([H])N([H])C(=O)C1([H])N(C(=O)C([H])(N([H])C(=O)C([H])(N([H])C([H])([H])[H])C([H])([H])[H])C(C([H])([H])[H])(C([H])([H])[H])C([H])([H])[H])C([H])([H])c2c([H])c(OC([H])([H])C([H])([H])C([H])([H])C([H])([H])C([H])([H])[N+]3([H])C([H])([H])C([H])([H])N(C(=O)N4C([H])([H])C([H])([H])C([H])([H])C([H])(n5nc(-c6c([H])c([H])c(Oc7c([H])c([H])c(F)c([H])c7F)c([H])c6[H])c(C(=O)N([H])[H])c5N([H])[H])C4([H])[H])C([H])([H])C3([H])[H])c([H])c([H])c2C1([H])[H]

$$$$
97:0:0
     RDKit          3D

 99107  0  0  1  0  0  0  0  0999 V2000
  -27.0350  -21.4060   21.0410 C   0  0  0  0  0  2  0  0  0  0  0  0
  -28.0630  -20.5480   20.2850 C   0  0  0  0  0  2  0  0  0  0  0  0
  -28.7850  -19.6550   21.2170 N   0  0  0  0  0  4  0  0  0  0  0  0
  -29.2680  -20.2300   21.8900 H   0  0  0  0  0  0  0  0  0  0  0  0
  -28.1110  -19.1000   21.7260 H   0  0  0  0  0  0  0  0  0  0  0  0
  -31.5420  -14.9760   19.6440 C   0  0  0  0  0  0  0  0  0  0  0  0
  -31.0790  -12.7910   18.6150 C   0  0  0  0  0  2  0  0  0  0  0  0
  -29.9690  -12.9600   17.5570 C   0  0  0  0  0  2  0  0  0  0  0  0
  -28.5730  -12.8340   18.1980 C   0  0  0  0  0  2  0  0  0  0  0  0
  -28.4170  -13.7040   19.4750 C   0  0  0  0  0  3  0  0  0  0  0  0
  -29.6290  -13.5330   20.4200 C   0  0  0  0  0  2  0  0  0  0  0  0
  -30.8530  -13.8060   19.6510 N   0  0  0  0  0  0  0  0  0  0  0  0
  -32.6160  -15.1260   19.0560 O   0  0  0  0  0  0  0  0  0  0  0  0
  -29.1850  -17.8010   19.5980 C   0  0  0  0  0  2  0  0  0  0  0  0
  -30.2500  -16.8600   19.0310 C   0  0  0  0  0  2  0  0  0  0  0  0
  -31.5070  -16.9140   21.1020 C   0  0  0  0  0  2  0  0  0  0  0  0
  -30.5410  -17.9580   21.7330 C   0  0  0  0  0  3  0  0  0  0  0  0
  -29.8060  -18.7640   20.6240 C   0  0  0  0  0  3  0  0  0  0  0  0
  -30.8610  -16.0540   20.0960 N   0  0  0  0  0  0  0  0  0  0  0  0
  -26.2730  -14.3310   20.7530 C   0  0  0  0  0  0  0  0  0  0  0  0
  -25.2110  -13.5810   21.1780 C   0  0  0  0  0  0  0  0  0  0  0  0
  -25.5000  -12.2370   20.7920 C   0  0  0  0  0  0  0  0  0  0  0  0
  -27.1530  -13.4410   20.1550 N   0  0  0  0  0  0  0  0  0  0  0  0
  -26.6990  -12.1640   20.2300 N   0  0  0  0  0  0  0  0  0  0  0  0
  -24.6790  -11.0230   20.8720 C   0  0  0  0  0  0  0  0  0  0  0  0
  -25.0830   -9.9120   21.6420 C   0  0  0  0  0  3  0  0  0  0  0  0
  -24.2690   -8.7620   21.7190 C   0  0  0  0  0  3  0  0  0  0  0  0
  -23.0360   -8.7170   21.0260 C   0  0  0  0  0  0  0  0  0  0  0  0
  -22.6500   -9.8180   20.2390 C   0  0  0  0  0  3  0  0  0  0  0  0
  -23.4650  -10.9600   20.1590 C   0  0  0  0  0  3  0  0  0  0  0  0
  -22.1910   -7.6350   21.0230 O   0  0  0  0  0  0  0  0  0  0  0  0
  -22.0380   -6.8390   22.1320 C   0  0  0  0  0  0  0  0  0  0  0  0
  -21.6060   -7.3620   23.3700 C   0  0  0  0  0  3  0  0  0  0  0  0
  -21.3950   -6.4970   24.4630 C   0  0  0  0  0  3  0  0  0  0  0  0
  -21.6060   -5.1130   24.3170 C   0  0  0  0  0  0  0  0  0  0  0  0
  -22.0320   -4.5910   23.0830 C   0  0  0  0  0  3  0  0  0  0  0  0
  -22.2440   -5.4520   21.9920 C   0  0  0  0  0  0  0  0  0  0  0  0
  -22.6320   -4.9420   20.7990 F   0  0  0  0  0  0  0  0  0  0  0  0
  -21.3950   -4.2810   25.3630 F   0  0  0  0  0  0  0  0  0  0  0  0
  -23.9510  -14.0950   21.8120 C   0  0  0  0  0  0  0  0  0  0  0  0
  -23.3400  -13.3040   22.6890 N   0  0  0  0  0  0  0  0  0  0  0  0
  -23.5250  -15.2220   21.5680 O   0  0  0  0  0  0  0  0  0  0  0  0
  -23.6980  -12.3850   22.9040 H   0  0  0  0  0  0  0  0  0  0  0  0
  -22.4980  -13.6210   23.1490 H   0  0  0  0  0  0  0  0  0  0  0  0
  -26.5440  -15.6940   20.8010 N   0  0  0  0  0  0  0  0  0  0  0  0
  -25.8500  -16.3570   21.1280 H   0  0  0  0  0  0  0  0  0  0  0  0
  -27.2930  -16.1210   20.2760 H   0  0  0  0  0  0  0  0  0  0  0  0
  -31.3310  -18.8810   22.7020 C   0  0  0  0  0  2  0  0  0  0  0  0
  -30.9790  -20.9320   24.2050 C   0  0  0  0  0  1  0  0  0  0  0  0
  -30.5300  -19.5010   23.8720 C   0  0  0  0  0  2  0  0  0  0  0  0
  -26.2100  -22.3260   20.1210 C   0  0  0  0  0  2  0  0  0  0  0  0
  -25.2670  -23.2570   20.9130 C   0  0  0  0  0  2  0  0  0  0  0  0
  -25.6230  -24.6900   20.8380 N   0  0  0  0  0  4  0  0  0  0  0  0
  -24.8580  -25.1880   21.2670 H   0  0  0  0  0  0  0  0  0  0  0  0
  -25.6490  -24.9850   19.8750 H   0  0  0  0  0  0  0  0  0  0  0  0
  -26.8410  -25.1270   21.5640 C   0  0  0  0  0  2  0  0  0  0  0  0
  -28.1370  -25.0700   20.7120 C   0  0  0  0  0  2  0  0  0  0  0  0
  -29.0200  -26.3340   20.8190 C   0  0  0  0  0  2  0  0  0  0  0  0
  -28.7960  -27.2720   19.7620 O   0  0  0  0  0  0  0  0  0  0  0  0
  -24.6200  -31.9420   23.1330 C   0  0  0  0  0  0  0  0  0  0  0  0
  -27.5960  -27.9290   19.8100 C   0  0  0  0  0  0  0  0  0  0  0  0
  -23.5290  -30.5760   21.3810 C   0  0  0  0  0  3  0  0  0  0  0  0
  -25.1010  -29.2340   19.8850 C   0  0  0  0  0  0  0  0  0  0  0  0
  -26.0250  -31.1130   21.2550 C   0  0  0  0  0  2  0  0  0  0  0  0
  -26.2080  -29.7960   20.5370 C   0  0  0  0  0  0  0  0  0  0  0  0
  -27.4580  -29.1430   20.5110 C   0  0  0  0  0  3  0  0  0  0  0  0
  -26.4910  -27.3980   19.1160 C   0  0  0  0  0  3  0  0  0  0  0  0
  -25.2380  -28.0300   19.1710 C   0  0  0  0  0  3  0  0  0  0  0  0
  -23.7990  -29.9980   19.9650 C   0  0  0  0  0  2  0  0  0  0  0  0
  -24.7410  -31.2230   21.9820 N   0  0  0  0  0  0  0  0  0  0  0  0
  -23.5190  -32.1060   23.6750 O   0  0  0  0  0  0  0  0  0  0  0  0
  -22.9380  -29.4540   22.2650 C   0  0  0  0  0  0  0  0  0  0  0  0
  -21.6240  -29.2130   22.1280 N   0  0  0  0  0  0  0  0  0  0  0  0
  -23.6620  -28.8000   23.0220 O   0  0  0  0  0  0  0  0  0  0  0  0
  -21.1010  -29.8000   21.4940 H   0  0  0  0  0  0  0  0  0  0  0  0
  -18.3110  -27.8420   22.5700 C   0  0  0  0  0  0  0  0  0  0  0  0
  -20.8610  -28.1770   22.8220 C   0  0  0  0  0  3  0  0  0  0  0  0
  -21.0080  -26.8100   22.1170 C   0  0  0  0  0  2  0  0  0  0  0  0
  -19.8970  -26.5270   21.0990 C   0  0  0  0  0  2  0  0  0  0  0  0
  -18.5260  -26.5620   21.7770 C   0  0  0  0  0  2  0  0  0  0  0  0
  -19.4090  -28.6070   23.0500 C   0  0  0  0  0  0  0  0  0  0  0  0
  -19.1530  -29.8050   23.7520 C   0  0  0  0  0  3  0  0  0  0  0  0
  -17.8340  -30.2410   23.9760 C   0  0  0  0  0  3  0  0  0  0  0  0
  -16.7520  -29.4690   23.5180 C   0  0  0  0  0  3  0  0  0  0  0  0
  -16.9930  -28.2720   22.8210 C   0  0  0  0  0  3  0  0  0  0  0  0
  -25.8570  -32.6140   23.8090 C   0  0  0  0  0  3  0  0  0  0  0  0
  -26.3900  -31.8150   25.0620 C   0  0  1  0  0  0  0  0  0  0  0  0
  -25.2900  -31.4680   26.0930 C   0  0  0  0  0  1  0  0  0  0  0  0
  -27.0570  -30.4900   24.6240 C   0  0  0  0  0  1  0  0  0  0  0  0
  -27.4750  -32.6430   25.7890 C   0  0  0  0  0  1  0  0  0  0  0  0
  -25.4700  -33.9780   24.1870 N   0  0  0  0  0  0  0  0  0  0  0  0
  -25.7650  -35.0770   23.4790 C   0  0  0  0  0  0  0  0  0  0  0  0
  -26.4680  -35.0510   22.4640 O   0  0  0  0  0  0  0  0  0  0  0  0
  -24.8520  -34.0710   24.9790 H   0  0  0  0  0  0  0  0  0  0  0  0
  -23.9620  -36.7940   23.1360 C   0  0  0  0  0  1  0  0  0  0  0  0
  -25.1910  -36.4160   23.9770 C   0  0  0  0  0  3  0  0  0  0  0  0
  -27.2460  -37.3670   24.9270 C   0  0  0  0  0  1  0  0  0  0  0  0
  -26.1720  -37.5230   23.9510 N   0  0  0  0  0  0  0  0  0  0  0  0
  -25.7150  -38.4140   24.1210 H   0  0  0  0  0  0  0  0  0  0  0  0
  2  1  1  0
  2  3  1  0
  3  5  1  0
  3  4  1  0
  6 12  1  0
  6 19  1  0
  7 12  1  0
  8  9  1  0
  8  7  1  0
 10  9  1  0
 10 23  1  0
 10 11  1  0
 12 11  1  0
 13  6  2  0
 14 18  1  0
 15 14  1  0
 15 19  1  0
 16 17  1  0
 17 48  1  0
 18  3  1  0
 18 17  1  0
 19 16  1  0
 20 45  1  0
 20 21  2  0
 21 40  1  0
 22 25  1  0
 22 21  1  0
 23 24  1  0
 23 20  1  0
 24 22  2  0
 25 26  1  0
 26 27  2  0
 28 27  1  0
 29 28  2  0
 30 29  1  0
 30 25  2  0
 31 28  1  0
 31 32  1  0
 32 33  1  0
 33 34  2  0
 35 34  1  0
 35 39  1  0
 36 35  2  0
 37 32  2  0
 37 36  1  0
 38 37  1  0
 40 41  1  0
 41 43  1  0
 41 44  1  0
 42 40  2  0
 45 46  1  0
 47 45  1  0
 48 50  1  0
 50 49  1  0
 51 52  1  0
 51  1  1  0
 53 52  1  0
 53 54  1  0
 53 56  1  0
 55 53  1  0
 57 58  1  0
 57 56  1  0
 59 61  1  0
 59 58  1  0
 60 71  2  0
 61 66  1  0
 62 70  1  0
 62 72  1  0
 63 69  1  0
 63 65  1  0
 64 70  1  0
 65 64  1  0
 66 65  2  0
 67 68  1  0
 67 61  2  0
 68 63  2  0
 69 62  1  0
 70 60  1  0
 72 74  2  0
 73 72  1  0
 75 73  1  0
 76 85  2  0
 76 81  1  0
 77 73  1  0
 77 81  1  0
 78 77  1  0
 79 80  1  0
 79 78  1  0
 80 76  1  0
 81 82  2  0
 82 83  1  0
 84 83  2  0
 85 84  1  0
 86 60  1  0
 86 91  1  0
 86 87  1  0
 87 90  1  1
 87 88  1  0
 89 87  1  0
 91 94  1  0
 92 96  1  0
 92 91  1  0
 93 92  2  0
 96 95  1  0
 98 96  1  0
 98 99  1  0
 98 97  1  0
M  ISO  4   6 100  19 100  58 101  59 101
M  END
>  <TORSDO>  (98) 
F 26

>  <SCORE>  (98) 
-7.641

>  <name>  (98) 
97

>  <ligand_id>  (98) 
97

>  <original_smiles>  (98) 
[H]c1c([H])c([H])c2c(c1[H])C([H])([H])C([H])([H])C([H])([H])C2([H])N([H])C(=O)C1([H])N(C(=O)C([H])(N([H])C(=O)C([H])(N([H])C([H])([H])[H])C([H])([H])[H])C(C([H])([H])[H])(C([H])([H])[H])C([H])([H])[H])C([H])([H])c2c([H])c(OC([H])([H])C([H])([H])C([H])([H])[N+]([H])([H])C([H])([H])C([H])([H])C([H])([H])C([H])([H])[N+]([H])([H])C3([H])C([H])([H])C([H])([H])N(C(=O)N4C([H])([H])C([H])([H])C([H])([H])C([H])(n5nc(-c6c([H])c([H])c(Oc7c([H])c([H])c(F)c([H])c7F)c([H])c6[H])c(C(=O)N([H])[H])c5N([H])[H])C4([H])[H])C([H])([H])C3([H])C([H])([H])C([H])([H])C([H])([H])[H])c([H])c([H])c2C1([H])[H]

>  <smiles>  (98) 
[H]c1c([H])c([H])c2c(c1[H])C([H])([H])C([H])([H])C([H])([H])C2([H])N([H])C(=O)C1([H])N(C(=O)C([H])(N([H])C(=O)C([H])(N([H])C([H])([H])[H])C([H])([H])[H])C(C([H])([H])[H])(C([H])([H])[H])C([H])([H])[H])C([H])([H])c2c([H])c(OC([H])([H])C([H])([H])C([H])([H])[N+]([H])([H])C([H])([H])C([H])([H])C([H])([H])C([H])([H])[N+]([H])([H])C3([H])C([H])([H])C([H])([H])N(C(=O)N4C([H])([H])C([H])([H])C([H])([H])C([H])(n5nc(-c6c([H])c([H])c(Oc7c([H])c([H])c(F)c([H])c7F)c([H])c6[H])c(C(=O)N([H])[H])c5N([H])[H])C4([H])[H])C([H])([H])C3([H])C([H])([H])C([H])([H])C([H])([H])[H])c([H])c([H])c2C1([H])[H]

$$$$
98:0:0
     RDKit          3D

 91 99  0  0  1  0  0  0  0  0999 V2000
  -27.8610  -19.5730   18.4880 C   0  0  0  0  0  2  0  0  0  0  0  0
  -27.4590  -20.6870   19.4740 C   0  0  0  0  0  2  0  0  0  0  0  0
  -28.2730  -18.2510   19.1830 C   0  0  0  0  0  2  0  0  0  0  0  0
  -28.5390  -20.9970   20.5460 C   0  0  0  0  0  3  0  0  0  0  0  0
  -29.0900  -18.4270   20.4900 C   0  0  0  0  0  3  0  0  0  0  0  0
  -29.5810  -19.8730   20.6030 N   0  0  0  0  0  4  0  0  0  0  0  0
  -30.2410  -20.0230   19.8550 H   0  0  0  0  0  0  0  0  0  0  0  0
  -30.0920  -19.9760   21.4650 H   0  0  0  0  0  0  0  0  0  0  0  0
  -29.1020  -22.5110   20.5170 C   0  0  0  0  0  2  0  0  0  0  0  0
  -28.1440  -23.7850   20.2360 C   0  0  0  0  0  2  0  0  0  0  0  0
  -28.4800  -25.2100   20.8990 C   0  0  0  0  0  2  0  0  0  0  0  0
  -28.4170  -26.5030   20.1740 O   0  0  0  0  0  0  0  0  0  0  0  0
  -24.6190  -31.8620   23.2390 C   0  0  0  0  0  0  0  0  0  0  0  0
  -27.2730  -27.3060   20.2250 C   0  0  0  0  0  0  0  0  0  0  0  0
  -23.4330  -30.4550   21.5920 C   0  0  0  0  0  3  0  0  0  0  0  0
  -24.8980  -28.8960   20.1890 C   0  0  0  0  0  0  0  0  0  0  0  0
  -25.9690  -30.7860   21.4200 C   0  0  0  0  0  2  0  0  0  0  0  0
  -26.0600  -29.4010   20.7880 C   0  0  0  0  0  0  0  0  0  0  0  0
  -27.2540  -28.6200   20.7870 C   0  0  0  0  0  3  0  0  0  0  0  0
  -26.0890  -26.8390   19.6220 C   0  0  0  0  0  3  0  0  0  0  0  0
  -24.9140  -27.6190   19.6000 C   0  0  0  0  0  3  0  0  0  0  0  0
  -23.6570  -29.7690   20.2190 C   0  0  0  0  0  2  0  0  0  0  0  0
  -24.6930  -31.0530   22.1410 N   0  0  0  0  0  0  0  0  0  0  0  0
  -23.5300  -32.1340   23.7660 O   0  0  0  0  0  0  0  0  0  0  0  0
  -22.7670  -29.4410   22.5500 C   0  0  0  0  0  0  0  0  0  0  0  0
  -21.4400  -29.2700   22.4220 N   0  0  0  0  0  0  0  0  0  0  0  0
  -23.4440  -28.8110   23.3670 O   0  0  0  0  0  0  0  0  0  0  0  0
  -20.9540  -29.8210   21.7280 H   0  0  0  0  0  0  0  0  0  0  0  0
  -18.0580  -28.0990   22.9400 C   0  0  0  0  0  0  0  0  0  0  0  0
  -20.6200  -28.3320   23.1910 C   0  0  0  0  0  3  0  0  0  0  0  0
  -20.7060  -26.9060   22.6050 C   0  0  0  0  0  2  0  0  0  0  0  0
  -19.5950  -26.6020   21.5950 C   0  0  0  0  0  2  0  0  0  0  0  0
  -18.2180  -26.7540   22.2490 C   0  0  0  0  0  2  0  0  0  0  0  0
  -19.1860  -28.8460   23.3680 C   0  0  0  0  0  0  0  0  0  0  0  0
  -18.9830  -30.1040   23.9770 C   0  0  0  0  0  3  0  0  0  0  0  0
  -17.6840  -30.6150   24.1570 C   0  0  0  0  0  3  0  0  0  0  0  0
  -16.5710  -29.8630   23.7450 C   0  0  0  0  0  3  0  0  0  0  0  0
  -16.7570  -28.6050   23.1430 C   0  0  0  0  0  3  0  0  0  0  0  0
  -25.8940  -32.5020   23.8700 C   0  0  0  0  0  3  0  0  0  0  0  0
  -26.4020  -31.7360   25.1530 C   0  0  1  0  0  0  0  0  0  0  0  0
  -25.3000  -31.4980   26.2130 C   0  0  0  0  0  1  0  0  0  0  0  0
  -26.9920  -30.3600   24.7700 C   0  0  0  0  0  1  0  0  0  0  0  0
  -27.5480  -32.5320   25.8190 C   0  0  0  0  0  1  0  0  0  0  0  0
  -25.5770  -33.9000   24.1950 N   0  0  0  0  0  0  0  0  0  0  0  0
  -25.9070  -34.9510   23.4340 C   0  0  0  0  0  0  0  0  0  0  0  0
  -26.5800  -34.8460   22.4050 O   0  0  0  0  0  0  0  0  0  0  0  0
  -24.9780  -34.0550   24.9940 H   0  0  0  0  0  0  0  0  0  0  0  0
  -24.1740  -36.7350   23.0680 C   0  0  0  0  0  1  0  0  0  0  0  0
  -25.4140  -36.3390   23.8850 C   0  0  0  0  0  3  0  0  0  0  0  0
  -27.5430  -37.2350   24.7220 C   0  0  0  0  0  1  0  0  0  0  0  0
  -26.4450  -37.3950   23.7700 N   0  0  0  0  0  0  0  0  0  0  0  0
  -26.0370  -38.3160   23.9060 H   0  0  0  0  0  0  0  0  0  0  0  0
  -30.2050  -17.2620   20.6510 C   0  0  0  0  0  2  0  0  0  0  0  0
  -30.5660  -14.6890   20.3670 C   0  0  0  0  0  0  0  0  0  0  0  0
  -30.3490  -12.4480   19.3060 C   0  0  0  0  0  2  0  0  0  0  0  0
  -29.3930  -12.5450   18.0960 C   0  0  0  0  0  2  0  0  0  0  0  0
  -27.9290  -12.3810   18.5440 C   0  0  0  0  0  2  0  0  0  0  0  0
  -27.5770  -13.2540   19.7760 C   0  0  0  0  0  3  0  0  0  0  0  0
  -28.6410  -13.1280   20.8850 C   0  0  0  0  0  2  0  0  0  0  0  0
  -29.9370  -13.4740   20.2860 N   0  0  0  0  0  0  0  0  0  0  0  0
  -31.7450  -14.8110   20.0200 O   0  0  0  0  0  0  0  0  0  0  0  0
  -29.7920  -15.7970   20.6410 N   0  0  0  0  0  0  0  0  0  0  0  0
  -28.8270  -15.6050   20.8650 H   0  0  0  0  0  0  0  0  0  0  0  0
  -25.1970  -13.8470   20.5250 C   0  0  0  0  0  0  0  0  0  0  0  0
  -24.1330  -13.0720   20.9030 C   0  0  0  0  0  0  0  0  0  0  0  0
  -24.5950  -11.7220   20.8620 C   0  0  0  0  0  0  0  0  0  0  0  0
  -26.2370  -12.9670   20.2760 N   0  0  0  0  0  0  0  0  0  0  0  0
  -25.8820  -11.6830   20.5420 N   0  0  0  0  0  0  0  0  0  0  0  0
  -23.8690  -10.4600   21.0530 C   0  0  0  0  0  0  0  0  0  0  0  0
  -24.3080   -9.4910   21.9810 C   0  0  0  0  0  3  0  0  0  0  0  0
  -23.5850   -8.2910   22.1610 C   0  0  0  0  0  3  0  0  0  0  0  0
  -22.4090   -8.0550   21.4120 C   0  0  0  0  0  0  0  0  0  0  0  0
  -21.9880   -9.0120   20.4720 C   0  0  0  0  0  3  0  0  0  0  0  0
  -22.7110  -10.2030   20.2920 C   0  0  0  0  0  3  0  0  0  0  0  0
  -21.6570   -6.9080   21.5010 O   0  0  0  0  0  0  0  0  0  0  0  0
  -21.6110   -6.1660   22.6530 C   0  0  0  0  0  0  0  0  0  0  0  0
  -21.1780   -6.7160   23.8780 C   0  0  0  0  0  3  0  0  0  0  0  0
  -21.0810   -5.8980   25.0230 C   0  0  0  0  0  3  0  0  0  0  0  0
  -21.4070   -4.5320   24.9410 C   0  0  0  0  0  0  0  0  0  0  0  0
  -21.8330   -3.9810   23.7210 C   0  0  0  0  0  3  0  0  0  0  0  0
  -21.9320   -4.7960   22.5790 C   0  0  0  0  0  0  0  0  0  0  0  0
  -22.3230   -4.2550   21.4000 F   0  0  0  0  0  0  0  0  0  0  0  0
  -21.3050   -3.7440   26.0370 F   0  0  0  0  0  0  0  0  0  0  0  0
  -22.7390  -13.5500   21.1850 C   0  0  0  0  0  0  0  0  0  0  0  0
  -22.0180  -12.8490   22.0530 N   0  0  0  0  0  0  0  0  0  0  0  0
  -22.2990  -14.5790   20.6740 O   0  0  0  0  0  0  0  0  0  0  0  0
  -22.3930  -12.0200   22.4890 H   0  0  0  0  0  0  0  0  0  0  0  0
  -21.0810  -13.1460   22.2870 H   0  0  0  0  0  0  0  0  0  0  0  0
  -25.3620  -15.2150   20.3490 N   0  0  0  0  0  0  0  0  0  0  0  0
  -24.5900  -15.8650   20.4590 H   0  0  0  0  0  0  0  0  0  0  0  0
  -26.1830  -15.6380   19.9370 H   0  0  0  0  0  0  0  0  0  0  0  0
  1  3  1  0
  1  2  1  0
  2  4  1  0
  3  5  1  0
  4  9  1  0
  4  6  1  0
  5  6  1  0
  5 53  1  0
  6  8  1  0
  7  6  1  0
 10  9  1  0
 10 11  1  0
 12 14  1  0
 12 11  1  0
 13 24  2  0
 14 19  1  0
 15 23  1  0
 15 25  1  0
 16 22  1  0
 16 18  1  0
 17 23  1  0
 18 17  1  0
 19 18  2  0
 20 14  2  0
 21 20  1  0
 21 16  2  0
 22 15  1  0
 23 13  1  0
 25 27  2  0
 26 25  1  0
 28 26  1  0
 29 38  2  0
 29 34  1  0
 30 26  1  0
 30 34  1  0
 31 30  1  0
 32 33  1  0
 32 31  1  0
 33 29  1  0
 34 35  2  0
 35 36  1  0
 37 36  2  0
 38 37  1  0
 39 13  1  0
 39 44  1  0
 39 40  1  0
 40 43  1  1
 40 41  1  0
 42 40  1  0
 44 47  1  0
 45 49  1  0
 45 44  1  0
 46 45  2  0
 49 48  1  0
 51 49  1  0
 51 52  1  0
 51 50  1  0
 54 62  1  0
 55 60  1  0
 56 57  1  0
 56 55  1  0
 58 57  1  0
 58 67  1  0
 58 59  1  0
 60 54  1  0
 60 59  1  0
 61 54  2  0
 62 53  1  0
 62 63  1  0
 64 65  2  0
 65 84  1  0
 66 65  1  0
 66 69  1  0
 67 64  1  0
 67 68  1  0
 68 66  2  0
 69 70  1  0
 70 71  2  0
 72 75  1  0
 72 71  1  0
 73 72  2  0
 74 73  1  0
 74 69  2  0
 75 76  1  0
 76 77  1  0
 77 78  2  0
 79 78  1  0
 79 83  1  0
 80 79  2  0
 81 76  2  0
 81 80  1  0
 82 81  1  0
 84 85  1  0
 85 88  1  0
 85 87  1  0
 86 84  2  0
 89 90  1  0
 89 64  1  0
 91 89  1  0
M  ISO  4  11 101  12 101  54 100  62 100
M  END
>  <TORSDO>  (99) 
F 20

>  <SCORE>  (99) 
-13.864

>  <name>  (99) 
98

>  <ligand_id>  (99) 
98

>  <original_smiles>  (99) 
[H]c1c([H])c([H])c2c(c1[H])C([H])([H])C([H])([H])C([H])([H])C2([H])N([H])C(=O)C1([H])N(C(=O)C([H])(N([H])C(=O)C([H])(N([H])C([H])([H])[H])C([H])([H])[H])C(C([H])([H])[H])(C([H])([H])[H])C([H])([H])[H])C([H])([H])c2c([H])c(OC([H])([H])C([H])([H])C([H])([H])C3([H])C([H])([H])C([H])([H])C([H])([H])C([H])(C([H])([H])N([H])C(=O)N4C([H])([H])C([H])([H])C([H])([H])C([H])(n5nc(-c6c([H])c([H])c(Oc7c([H])c([H])c(F)c([H])c7F)c([H])c6[H])c(C(=O)N([H])[H])c5N([H])[H])C4([H])[H])[N+]3([H])[H])c([H])c([H])c2C1([H])[H]

>  <smiles>  (99) 
[H]c1c([H])c([H])c2c(c1[H])C([H])([H])C([H])([H])C([H])([H])C2([H])N([H])C(=O)C1([H])N(C(=O)C([H])(N([H])C(=O)C([H])(N([H])C([H])([H])[H])C([H])([H])[H])C(C([H])([H])[H])(C([H])([H])[H])C([H])([H])[H])C([H])([H])c2c([H])c(OC([H])([H])C([H])([H])C([H])([H])C3([H])C([H])([H])C([H])([H])C([H])([H])C([H])(C([H])([H])N([H])C(=O)N4C([H])([H])C([H])([H])C([H])([H])C([H])(n5nc(-c6c([H])c([H])c(Oc7c([H])c([H])c(F)c([H])c7F)c([H])c6[H])c(C(=O)N([H])[H])c5N([H])[H])C4([H])[H])[N+]3([H])[H])c([H])c([H])c2C1([H])[H]

$$$$
