0:0:0
     RDKit          3D

 93100  0  0  1  0  0  0  0  0999 V2000
  -30.7970  -19.6430   20.6060 N   0  0  0  0  0  4  0  0  0  0  0  0
  -31.5610  -19.9830   21.1630 H   0  0  0  0  0  0  0  0  0  0  0  0
  -31.1900  -19.4260   19.7000 H   0  0  0  0  0  0  0  0  0  0  0  0
  -29.7560  -20.6950   20.4690 C   0  0  0  0  0  2  0  0  0  0  0  0
  -30.3230  -22.1170   20.1830 C   0  0  0  0  0  2  0  0  0  0  0  0
  -29.2060  -23.1870   20.1070 C   0  0  0  0  0  2  0  0  0  0  0  0
  -29.6450  -24.6740   19.9990 C   0  0  0  0  0  2  0  0  0  0  0  0
  -28.4130  -25.5750   19.7610 C   0  0  0  0  0  2  0  0  0  0  0  0
  -28.6190  -27.0000   19.8250 O   0  0  0  0  0  0  0  0  0  0  0  0
  -24.8400  -31.7820   23.5260 C   0  0  0  0  0  0  0  0  0  0  0  0
  -27.4560  -27.7550   19.8860 C   0  0  0  0  0  0  0  0  0  0  0  0
  -23.6110  -30.5650   21.7610 C   0  0  0  0  0  3  0  0  0  0  0  0
  -25.0470  -29.2350   20.1290 C   0  0  0  0  0  0  0  0  0  0  0  0
  -26.1290  -30.9790   21.5470 C   0  0  0  0  0  2  0  0  0  0  0  0
  -26.2180  -29.6950   20.7470 C   0  0  0  0  0  0  0  0  0  0  0  0
  -27.4250  -28.9640   20.6220 C   0  0  0  0  0  3  0  0  0  0  0  0
  -26.2620  -27.3300   19.2500 C   0  0  0  0  0  3  0  0  0  0  0  0
  -25.0660  -28.0530   19.3770 C   0  0  0  0  0  3  0  0  0  0  0  0
  -23.7940  -30.0600   20.3060 C   0  0  0  0  0  2  0  0  0  0  0  0
  -24.8800  -31.1160   22.3370 N   0  0  0  0  0  0  0  0  0  0  0  0
  -23.7700  -31.9710   24.1190 O   0  0  0  0  0  0  0  0  0  0  0  0
  -22.9990  -29.4250   22.6070 C   0  0  0  0  0  0  0  0  0  0  0  0
  -21.7010  -29.1500   22.3940 N   0  0  0  0  0  0  0  0  0  0  0  0
  -23.6890  -28.7950   23.4120 O   0  0  0  0  0  0  0  0  0  0  0  0
  -21.2030  -29.7170   21.7220 H   0  0  0  0  0  0  0  0  0  0  0  0
  -18.4490  -27.5810   22.5160 C   0  0  0  0  0  0  0  0  0  0  0  0
  -20.9240  -28.0980   23.0490 C   0  0  0  0  0  3  0  0  0  0  0  0
  -21.2410  -26.7120   22.4400 C   0  0  0  0  0  2  0  0  0  0  0  0
  -20.2830  -26.3160   21.3130 C   0  0  0  0  0  2  0  0  0  0  0  0
  -18.8380  -26.2860   21.8200 C   0  0  0  0  0  2  0  0  0  0  0  0
  -19.4310  -28.4380   23.0800 C   0  0  0  0  0  0  0  0  0  0  0  0
  -19.0200  -29.6450   23.6860 C   0  0  0  0  0  3  0  0  0  0  0  0
  -17.6590  -29.9980   23.7350 C   0  0  0  0  0  3  0  0  0  0  0  0
  -16.6900  -29.1380   23.1900 C   0  0  0  0  0  3  0  0  0  0  0  0
  -17.0840  -27.9310   22.5860 C   0  0  0  0  0  3  0  0  0  0  0  0
  -26.1330  -32.3560   24.1830 C   0  0  0  0  0  3  0  0  0  0  0  0
  -26.6320  -31.5070   25.4180 C   0  0  1  0  0  0  0  0  0  0  0  0
  -25.5300  -31.2340   26.4660 C   0  0  0  0  0  1  0  0  0  0  0  0
  -27.1900  -30.1430   24.9490 C   0  0  0  0  0  1  0  0  0  0  0  0
  -27.7940  -32.2440   26.1250 C   0  0  0  0  0  1  0  0  0  0  0  0
  -25.8480  -33.7390   24.5850 N   0  0  0  0  0  0  0  0  0  0  0  0
  -26.2670  -34.8240   23.9210 C   0  0  0  0  0  0  0  0  0  0  0  0
  -27.0070  -34.7630   22.9340 O   0  0  0  0  0  0  0  0  0  0  0  0
  -25.2020  -33.8650   25.3500 H   0  0  0  0  0  0  0  0  0  0  0  0
  -24.6350  -36.7020   23.5560 C   0  0  0  0  0  1  0  0  0  0  0  0
  -25.7930  -36.1980   24.4340 C   0  0  0  0  0  3  0  0  0  0  0  0
  -27.8720  -36.9490   25.5020 C   0  0  0  0  0  1  0  0  0  0  0  0
  -26.8670  -37.2130   24.4750 N   0  0  0  0  0  0  0  0  0  0  0  0
  -26.4810  -38.1400   24.6430 H   0  0  0  0  0  0  0  0  0  0  0  0
  -30.3490  -18.3240   21.1460 C   0  0  0  0  0  3  0  0  0  0  0  0
  -31.3950  -14.8540   20.0180 C   0  0  0  0  0  0  0  0  0  0  0  0
  -30.9540  -12.6730   18.9620 C   0  0  0  0  0  2  0  0  0  0  0  0
  -29.9870  -12.8700   17.7780 C   0  0  0  0  0  2  0  0  0  0  0  0
  -28.5280  -12.7850   18.2580 C   0  0  0  0  0  2  0  0  0  0  0  0
  -28.2520  -13.6720   19.5000 C   0  0  0  0  0  3  0  0  0  0  0  0
  -29.3380  -13.4820   20.5850 C   0  0  0  0  0  2  0  0  0  0  0  0
  -30.6520  -13.7130   19.9640 N   0  0  0  0  0  0  0  0  0  0  0  0
  -32.5090  -14.9110   19.4910 O   0  0  0  0  0  0  0  0  0  0  0  0
  -31.2390  -17.2230   20.5290 C   0  0  0  0  0  0  0  0  0  0  0  0
  -30.7870  -15.9420   20.5470 N   0  0  0  0  0  0  0  0  0  0  0  0
  -32.3080  -17.5870   20.0240 O   0  0  0  0  0  0  0  0  0  0  0  0
  -29.8820  -15.7830   20.9590 H   0  0  0  0  0  0  0  0  0  0  0  0
  -25.8970  -14.3550   20.2750 C   0  0  0  0  0  0  0  0  0  0  0  0
  -24.8190  -13.6190   20.6880 C   0  0  0  0  0  0  0  0  0  0  0  0
  -25.2380  -12.2540   20.6570 C   0  0  0  0  0  0  0  0  0  0  0  0
  -26.9090  -13.4420   20.0250 N   0  0  0  0  0  0  0  0  0  0  0  0
  -26.5170  -12.1730   20.3130 N   0  0  0  0  0  0  0  0  0  0  0  0
  -24.4810  -11.0160   20.8840 C   0  0  0  0  0  0  0  0  0  0  0  0
  -24.8730  -10.0790   21.8660 C   0  0  0  0  0  3  0  0  0  0  0  0
  -24.1180   -8.9050   22.0790 C   0  0  0  0  0  3  0  0  0  0  0  0
  -22.9570   -8.6600   21.3080 C   0  0  0  0  0  0  0  0  0  0  0  0
  -22.5830   -9.5850   20.3150 C   0  0  0  0  0  3  0  0  0  0  0  0
  -23.3380  -10.7500   20.1030 C   0  0  0  0  0  3  0  0  0  0  0  0
  -22.1760   -7.5360   21.4270 O   0  0  0  0  0  0  0  0  0  0  0  0
  -22.0180   -6.8940   22.6280 C   0  0  0  0  0  0  0  0  0  0  0  0
  -21.4540   -7.5400   23.7510 C   0  0  0  0  0  3  0  0  0  0  0  0
  -21.2460   -6.8220   24.9460 C   0  0  0  0  0  3  0  0  0  0  0  0
  -21.5910   -5.4600   25.0180 C   0  0  0  0  0  0  0  0  0  0  0  0
  -22.1460   -4.8130   23.9000 C   0  0  0  0  0  3  0  0  0  0  0  0
  -22.3560   -5.5280   22.7070 C   0  0  0  0  0  0  0  0  0  0  0  0
  -22.8720   -4.8940   21.6270 F   0  0  0  0  0  0  0  0  0  0  0  0
  -21.3840   -4.7670   26.1630 F   0  0  0  0  0  0  0  0  0  0  0  0
  -23.4460  -14.1410   20.9990 C   0  0  0  0  0  0  0  0  0  0  0  0
  -22.7430  -13.5040   21.9280 N   0  0  0  0  0  0  0  0  0  0  0  0
  -23.0060  -15.1520   20.4510 O   0  0  0  0  0  0  0  0  0  0  0  0
  -23.1100  -12.6850   22.3910 H   0  0  0  0  0  0  0  0  0  0  0  0
  -21.8250  -13.8390   22.1840 H   0  0  0  0  0  0  0  0  0  0  0  0
  -26.0970  -15.7180   20.0710 N   0  0  0  0  0  0  0  0  0  0  0  0
  -25.3480  -16.3930   20.1770 H   0  0  0  0  0  0  0  0  0  0  0  0
  -26.9320  -16.1170   19.6630 H   0  0  0  0  0  0  0  0  0  0  0  0
  -30.3550  -18.3090   22.7000 C   0  0  0  0  0  2  0  0  0  0  0  0
  -30.9790  -19.7090   24.7500 C   0  0  0  0  0  1  0  0  0  0  0  0
  -31.4310  -19.1860   23.3800 C   0  0  0  0  0  2  0  0  0  0  0  0
  1 50  1  0
  1  2  1  0
  3  1  1  0
  4  1  1  0
  5  4  1  0
  6  5  1  0
  7  6  1  0
  8  9  1  0
  8  7  1  0
  9 11  1  0
 10 21  2  0
 11 16  1  0
 12 20  1  0
 12 22  1  0
 13 19  1  0
 13 15  1  0
 14 20  1  0
 15 14  1  0
 16 15  2  0
 17 18  1  0
 17 11  2  0
 18 13  2  0
 19 12  1  0
 20 10  1  0
 22 24  2  0
 23 22  1  0
 25 23  1  0
 26 35  2  0
 26 31  1  0
 27 23  1  0
 27 31  1  0
 28 27  1  0
 29 30  1  0
 29 28  1  0
 30 26  1  0
 31 32  2  0
 32 33  1  0
 34 33  2  0
 35 34  1  0
 36 10  1  0
 36 41  1  0
 36 37  1  0
 37 40  1  1
 37 38  1  0
 39 37  1  0
 41 44  1  0
 42 46  1  0
 42 41  1  0
 43 42  2  0
 46 45  1  0
 46 48  1  0
 48 49  1  0
 48 47  1  0
 50 91  1  0
 51 60  1  0
 52 57  1  0
 53 54  1  0
 53 52  1  0
 55 54  1  0
 55 66  1  0
 55 56  1  0
 57 51  1  0
 57 56  1  0
 58 51  2  0
 59 60  1  0
 59 50  1  0
 60 62  1  0
 61 59  2  0
 63 64  2  0
 64 83  1  0
 65 64  1  0
 65 68  1  0
 66 63  1  0
 66 67  1  0
 67 65  2  0
 68 69  1  0
 69 70  2  0
 71 74  1  0
 71 70  1  0
 72 71  2  0
 73 72  1  0
 73 68  2  0
 74 75  1  0
 75 80  2  0
 75 76  1  0
 76 77  2  0
 77 78  1  0
 78 82  1  0
 79 78  2  0
 80 79  1  0
 81 80  1  0
 83 84  1  0
 84 87  1  0
 84 86  1  0
 85 83  2  0
 88 89  1  0
 88 63  1  0
 90 88  1  0
 91 93  1  0
 93 92  1  0
M  ISO  4   8 101   9 101  51 100  60 100
M  END
>  <TORSDO>  (1) 
F 24

>  <SCORE>  (1) 
-9.630

>  <name>  (1) 
0

>  <ligand_id>  (1) 
0

>  <original_smiles>  (1) 
[H]c1c([H])c([H])c2c(c1[H])C([H])([H])C([H])([H])C([H])([H])C2([H])N([H])C(=O)C1([H])N(C(=O)C([H])(N([H])C(=O)C([H])(N([H])C([H])([H])[H])C([H])([H])[H])C(C([H])([H])[H])(C([H])([H])[H])C([H])([H])[H])C([H])([H])c2c([H])c(OC([H])([H])C([H])([H])C([H])([H])C([H])([H])C([H])([H])[N+]([H])([H])C([H])(C(=O)N([H])C(=O)N3C([H])([H])C([H])([H])C([H])([H])C([H])(n4nc(-c5c([H])c([H])c(Oc6c([H])c([H])c(F)c([H])c6F)c([H])c5[H])c(C(=O)N([H])[H])c4N([H])[H])C3([H])[H])C([H])([H])C([H])([H])C([H])([H])[H])c([H])c([H])c2C1([H])[H]

>  <smiles>  (1) 
[H]c1c([H])c([H])c2c(c1[H])C([H])([H])C([H])([H])C([H])([H])C2([H])N([H])C(=O)C1([H])N(C(=O)C([H])(N([H])C(=O)C([H])(N([H])C([H])([H])[H])C([H])([H])[H])C(C([H])([H])[H])(C([H])([H])[H])C([H])([H])[H])C([H])([H])c2c([H])c(OC([H])([H])C([H])([H])C([H])([H])C([H])([H])C([H])([H])[N+]([H])([H])C([H])(C(=O)N([H])C(=O)N3C([H])([H])C([H])([H])C([H])([H])C([H])(n4nc(-c5c([H])c([H])c(Oc6c([H])c([H])c(F)c([H])c6F)c([H])c5[H])c(C(=O)N([H])[H])c4N([H])[H])C3([H])[H])C([H])([H])C([H])([H])C([H])([H])[H])c([H])c([H])c2C1([H])[H]

$$$$
1:0:0
     RDKit          3D

 95103  0  0  1  0  0  0  0  0999 V2000
  -29.4990  -22.0220   21.7100 C   0  0  0  0  0  2  0  0  0  0  0  0
  -30.4290  -20.8950   21.2140 C   0  0  0  0  0  2  0  0  0  0  0  0
  -29.8570  -20.1130   20.0310 C   0  0  0  0  0  0  0  0  0  0  0  0
  -28.7560  -20.3980   19.5500 O   0  0  0  0  0  0  0  0  0  0  0  0
  -31.8830  -14.9150   19.3290 C   0  0  0  0  0  0  0  0  0  0  0  0
  -31.6520  -12.5620   18.6210 C   0  0  0  0  0  2  0  0  0  0  0  0
  -30.5730  -12.5090   17.5170 C   0  0  0  0  0  2  0  0  0  0  0  0
  -29.1530  -12.4210   18.1170 C   0  0  0  0  0  2  0  0  0  0  0  0
  -28.9130  -13.4570   19.2510 C   0  0  0  0  0  3  0  0  0  0  0  0
  -30.0900  -13.4010   20.2520 C   0  0  0  0  0  2  0  0  0  0  0  0
  -31.3170  -13.6890   19.5010 N   0  0  0  0  0  0  0  0  0  0  0  0
  -32.9640  -15.0580   18.7410 O   0  0  0  0  0  0  0  0  0  0  0  0
  -29.9580  -18.0440   18.5040 C   0  0  0  0  0  2  0  0  0  0  0  0
  -31.4380  -18.1680   20.5990 C   0  0  0  0  0  2  0  0  0  0  0  0
  -30.7140  -16.7300   18.2550 C   0  0  0  0  0  2  0  0  0  0  0  0
  -30.7250  -18.9680   19.4760 C   0  0  0  0  0  3  0  0  0  0  0  0
  -30.9350  -16.7140   20.7660 C   0  0  0  0  0  3  0  0  0  0  0  0
  -31.0260  -15.9670   19.4840 N   0  0  0  0  0  0  0  0  0  0  0  0
  -26.7260  -14.2030   20.3890 C   0  0  0  0  0  0  0  0  0  0  0  0
  -25.6500  -13.4910   20.8420 C   0  0  0  0  0  0  0  0  0  0  0  0
  -25.9460  -12.1180   20.5840 C   0  0  0  0  0  0  0  0  0  0  0  0
  -27.6230  -13.2610   19.9030 N   0  0  0  0  0  0  0  0  0  0  0  0
  -27.1610  -11.9960   20.0680 N   0  0  0  0  0  0  0  0  0  0  0  0
  -25.1240  -10.9140   20.7450 C   0  0  0  0  0  0  0  0  0  0  0  0
  -25.4830   -9.8930   21.6530 C   0  0  0  0  0  3  0  0  0  0  0  0
  -24.6670   -8.7510   21.8070 C   0  0  0  0  0  3  0  0  0  0  0  0
  -23.4780   -8.6240   21.0510 C   0  0  0  0  0  0  0  0  0  0  0  0
  -23.1370   -9.6330   20.1330 C   0  0  0  0  0  3  0  0  0  0  0  0
  -23.9530  -10.7650   19.9770 C   0  0  0  0  0  3  0  0  0  0  0  0
  -22.6370   -7.5380   21.1140 O   0  0  0  0  0  0  0  0  0  0  0  0
  -22.3520   -6.9170   22.3030 C   0  0  0  0  0  0  0  0  0  0  0  0
  -21.8210   -7.6230   23.4050 C   0  0  0  0  0  3  0  0  0  0  0  0
  -21.4770   -6.9310   24.5840 C   0  0  0  0  0  3  0  0  0  0  0  0
  -21.6540   -5.5360   24.6610 C   0  0  0  0  0  0  0  0  0  0  0  0
  -22.1800   -4.8330   23.5630 C   0  0  0  0  0  3  0  0  0  0  0  0
  -22.5250   -5.5220   22.3860 C   0  0  0  0  0  0  0  0  0  0  0  0
  -23.0100   -4.8350   21.3240 F   0  0  0  0  0  0  0  0  0  0  0  0
  -21.3180   -4.8700   25.7890 F   0  0  0  0  0  0  0  0  0  0  0  0
  -24.3730  -14.0550   21.3940 C   0  0  0  0  0  0  0  0  0  0  0  0
  -23.7350  -13.3410   22.3130 N   0  0  0  0  0  0  0  0  0  0  0  0
  -23.9570  -15.1600   21.0460 O   0  0  0  0  0  0  0  0  0  0  0  0
  -24.0830  -12.4430   22.6130 H   0  0  0  0  0  0  0  0  0  0  0  0
  -22.8800  -13.6960   22.7180 H   0  0  0  0  0  0  0  0  0  0  0  0
  -27.0070  -15.5650   20.3330 N   0  0  0  0  0  0  0  0  0  0  0  0
  -26.3400  -16.2640   20.6390 H   0  0  0  0  0  0  0  0  0  0  0  0
  -27.8530  -15.9630   19.9470 H   0  0  0  0  0  0  0  0  0  0  0  0
  -29.5550  -16.5560   22.9360 C   0  0  0  0  0  1  0  0  0  0  0  0
  -29.5160  -16.6880   21.4070 C   0  0  0  0  0  2  0  0  0  0  0  0
  -30.2740  -23.2900   22.1000 C   0  0  0  0  0  2  0  0  0  0  0  0
  -29.4010  -24.5540   22.0800 C   0  0  0  0  0  2  0  0  0  0  0  0
  -30.2230  -25.8180   22.3730 C   0  0  0  0  0  2  0  0  0  0  0  0
  -30.1450  -28.2730   22.9290 C   0  0  0  0  0  1  0  0  0  0  0  0
  -29.4590  -27.1420   22.1470 C   0  0  0  0  0  3  0  0  0  0  0  0
  -29.3360  -27.5150   20.6480 C   0  0  0  0  0  2  0  0  0  0  0  0
  -28.1100  -27.0670   20.0650 O   0  0  0  0  0  0  0  0  0  0  0  0
  -24.4000  -32.1740   23.4300 C   0  0  0  0  0  0  0  0  0  0  0  0
  -26.9780  -27.8530   20.1710 C   0  0  0  0  0  0  0  0  0  0  0  0
  -23.1530  -30.8490   21.7490 C   0  0  0  0  0  3  0  0  0  0  0  0
  -24.5740  -29.3480   20.2560 C   0  0  0  0  0  0  0  0  0  0  0  0
  -25.6690  -31.2030   21.5240 C   0  0  0  0  0  2  0  0  0  0  0  0
  -25.7360  -29.8520   20.8500 C   0  0  0  0  0  0  0  0  0  0  0  0
  -26.9350  -29.1120   20.8160 C   0  0  0  0  0  3  0  0  0  0  0  0
  -25.7940  -27.3550   19.5820 C   0  0  0  0  0  3  0  0  0  0  0  0
  -24.5930  -28.0920   19.6230 C   0  0  0  0  0  3  0  0  0  0  0  0
  -23.3350  -30.2100   20.3450 C   0  0  0  0  0  2  0  0  0  0  0  0
  -24.4260  -31.4190   22.2960 N   0  0  0  0  0  0  0  0  0  0  0  0
  -23.3300  -32.4390   23.9970 O   0  0  0  0  0  0  0  0  0  0  0  0
  -22.5010  -29.8040   22.6810 C   0  0  0  0  0  0  0  0  0  0  0  0
  -21.1800  -29.6140   22.5330 N   0  0  0  0  0  0  0  0  0  0  0  0
  -23.1810  -29.1670   23.4890 O   0  0  0  0  0  0  0  0  0  0  0  0
  -20.6950  -30.1780   21.8500 H   0  0  0  0  0  0  0  0  0  0  0  0
  -17.8120  -28.3790   22.9450 C   0  0  0  0  0  0  0  0  0  0  0  0
  -20.3620  -28.6550   23.2710 C   0  0  0  0  0  3  0  0  0  0  0  0
  -20.4890  -27.2350   22.6720 C   0  0  0  0  0  2  0  0  0  0  0  0
  -19.4090  -26.9220   21.6310 C   0  0  0  0  0  2  0  0  0  0  0  0
  -18.0140  -27.0440   22.2500 C   0  0  0  0  0  2  0  0  0  0  0  0
  -18.9140  -29.1430   23.4110 C   0  0  0  0  0  0  0  0  0  0  0  0
  -18.6720  -30.3950   24.0180 C   0  0  0  0  0  3  0  0  0  0  0  0
  -17.3600  -30.8820   24.1660 C   0  0  0  0  0  3  0  0  0  0  0  0
  -16.2720  -30.1140   23.7180 C   0  0  0  0  0  3  0  0  0  0  0  0
  -16.4990  -28.8650   23.1130 C   0  0  0  0  0  3  0  0  0  0  0  0
  -25.7040  -32.7610   24.0540 C   0  0  0  0  0  3  0  0  0  0  0  0
  -25.4430  -34.1700   24.3760 N   0  0  0  0  0  0  0  0  0  0  0  0
  -25.8600  -35.2060   23.6360 C   0  0  0  0  0  0  0  0  0  0  0  0
  -26.5700  -35.0740   22.6350 O   0  0  0  0  0  0  0  0  0  0  0  0
  -24.8150  -34.3490   25.1450 H   0  0  0  0  0  0  0  0  0  0  0  0
  -24.2390  -37.0780   23.1990 C   0  0  0  0  0  1  0  0  0  0  0  0
  -25.4140  -36.6130   24.0730 C   0  0  0  0  0  3  0  0  0  0  0  0
  -27.5400  -37.3930   25.0210 C   0  0  0  0  0  1  0  0  0  0  0  0
  -26.5000  -37.6160   24.0200 N   0  0  0  0  0  0  0  0  0  0  0  0
  -26.1310  -38.5530   24.1520 H   0  0  0  0  0  0  0  0  0  0  0  0
  -26.1930  -31.9740   25.3320 C   0  0  1  0  0  0  0  0  0  0  0  0
  -25.0840  -31.7540   26.3850 C   0  0  0  0  0  1  0  0  0  0  0  0
  -26.7530  -30.5880   24.9360 C   0  0  0  0  0  1  0  0  0  0  0  0
  -27.3520  -32.7430   26.0090 C   0  0  0  0  0  1  0  0  0  0  0  0
  1 49  1  0
  2  1  1  0
  3  2  1  0
  4  3  2  0
  5 18  1  0
  5 11  1  0
  6 11  1  0
  7  8  1  0
  7  6  1  0
  9  8  1  0
  9 22  1  0
  9 10  1  0
 11 10  1  0
 12  5  2  0
 13 16  1  0
 14 17  1  0
 15 13  1  0
 15 18  1  0
 16  3  1  0
 16 14  1  0
 17 48  1  0
 18 17  1  0
 19 20  2  0
 20 39  1  0
 21 24  1  0
 21 20  1  0
 22 23  1  0
 22 19  1  0
 23 21  2  0
 24 25  1  0
 25 26  2  0
 27 30  1  0
 27 26  1  0
 28 27  2  0
 29 28  1  0
 29 24  2  0
 30 31  1  0
 31 36  2  0
 31 32  1  0
 32 33  2  0
 33 34  1  0
 34 38  1  0
 35 34  2  0
 36 35  1  0
 37 36  1  0
 39 40  1  0
 40 42  1  0
 40 43  1  0
 41 39  2  0
 44 19  1  0
 44 45  1  0
 46 44  1  0
 48 47  1  0
 50 49  1  0
 50 51  1  0
 53 51  1  0
 53 52  1  0
 54 53  1  0
 55 57  1  0
 55 54  1  0
 56 67  2  0
 57 62  1  0
 58 66  1  0
 58 68  1  0
 59 65  1  0
 59 61  1  0
 60 66  1  0
 61 60  1  0
 62 61  2  0
 63 64  1  0
 63 57  2  0
 64 59  2  0
 65 58  1  0
 66 56  1  0
 68 70  2  0
 69 68  1  0
 71 69  1  0
 72 81  2  0
 72 77  1  0
 73 69  1  0
 73 77  1  0
 74 73  1  0
 75 76  1  0
 75 74  1  0
 76 72  1  0
 77 78  2  0
 78 79  1  0
 80 79  2  0
 81 80  1  0
 82 56  1  0
 82 83  1  0
 82 92  1  0
 83 86  1  0
 84 88  1  0
 84 83  1  0
 85 84  2  0
 88 87  1  0
 90 88  1  0
 90 91  1  0
 90 89  1  0
 92 95  1  1
 92 93  1  0
 94 92  1  0
M  ISO  4   5 100  18 100  54 101  55 101
M  END
>  <TORSDO>  (2) 
F 24

>  <SCORE>  (2) 
-8.300

>  <name>  (2) 
1

>  <ligand_id>  (2) 
1

>  <original_smiles>  (2) 
[H]c1c([H])c([H])c2c(c1[H])C([H])([H])C([H])([H])C([H])([H])C2([H])N([H])C(=O)C1([H])N(C(=O)C([H])(N([H])C(=O)C([H])(N([H])C([H])([H])[H])C([H])([H])[H])C(C([H])([H])[H])(C([H])([H])[H])C([H])([H])[H])C([H])([H])c2c([H])c(OC([H])([H])C([H])(C([H])([H])[H])C([H])([H])C([H])([H])C([H])([H])C([H])([H])C([H])([H])C(=O)C3([H])C([H])([H])C([H])([H])N(C(=O)N4C([H])([H])C([H])([H])C([H])([H])C([H])(n5nc(-c6c([H])c([H])c(Oc7c([H])c([H])c(F)c([H])c7F)c([H])c6[H])c(C(=O)N([H])[H])c5N([H])[H])C4([H])[H])C([H])(C([H])([H])C([H])([H])[H])C3([H])[H])c([H])c([H])c2C1([H])[H]

>  <smiles>  (2) 
[H]c1c([H])c([H])c2c(c1[H])C([H])([H])C([H])([H])C([H])([H])C2([H])N([H])C(=O)C1([H])N(C(=O)C([H])(N([H])C(=O)C([H])(N([H])C([H])([H])[H])C([H])([H])[H])C(C([H])([H])[H])(C([H])([H])[H])C([H])([H])[H])C([H])([H])c2c([H])c(OC([H])([H])C([H])(C([H])([H])[H])C([H])([H])C([H])([H])C([H])([H])C([H])([H])C([H])([H])C(=O)C3([H])C([H])([H])C([H])([H])N(C(=O)N4C([H])([H])C([H])([H])C([H])([H])C([H])(n5nc(-c6c([H])c([H])c(Oc7c([H])c([H])c(F)c([H])c7F)c([H])c6[H])c(C(=O)N([H])[H])c5N([H])[H])C4([H])[H])C([H])(C([H])([H])C([H])([H])[H])C3([H])[H])c([H])c([H])c2C1([H])[H]

$$$$
2:0:0
     RDKit          3D

 96104  0  0  1  0  0  0  0  0999 V2000
  -30.7050  -21.0920   13.5460 C   0  0  0  0  0  0  0  0  0  0  0  0
  -30.6460  -21.1920   12.2120 N   0  0  0  0  0  0  0  0  0  0  0  0
  -30.7730  -20.0110   14.1350 O   0  0  0  0  0  0  0  0  0  0  0  0
  -30.5910  -22.1200   11.8140 H   0  0  0  0  0  0  0  0  0  0  0  0
  -30.6770  -22.4020   14.3350 C   0  0  0  0  0  2  0  0  0  0  0  0
  -31.7030  -23.4240   13.8070 C   0  0  0  0  0  2  0  0  0  0  0  0
  -33.2090  -21.8770   16.2150 C   0  0  0  0  0  0  0  0  0  0  0  0
  -32.8570  -20.9860   18.4920 C   0  0  0  0  0  2  0  0  0  0  0  0
  -31.4370  -20.4530   18.7410 C   0  0  0  0  0  2  0  0  0  0  0  0
  -30.5060  -21.5900   19.1960 C   0  0  0  0  0  2  0  0  0  0  0  0
  -30.5750  -22.8180   18.2570 C   0  0  0  0  0  3  0  0  0  0  0  0
  -32.0370  -23.2330   17.9850 C   0  0  0  0  0  2  0  0  0  0  0  0
  -32.7980  -22.0660   17.4970 N   0  0  0  0  0  0  0  0  0  0  0  0
  -33.4120  -20.7510   15.7430 O   0  0  0  0  0  0  0  0  0  0  0  0
  -34.2810  -25.3220   13.8650 C   0  0  0  0  0  2  0  0  0  0  0  0
  -34.1880  -23.9110   13.2710 C   0  0  0  0  0  2  0  0  0  0  0  0
  -34.5570  -23.8690   15.9630 C   0  0  0  0  0  2  0  0  0  0  0  0
  -34.5010  -25.3080   15.3940 C   0  0  0  0  0  3  0  0  0  0  0  0
  -33.1790  -23.0220   14.0400 C   0  0  0  0  0  3  0  0  0  0  0  0
  -33.4540  -23.0020   15.4980 N   0  0  0  0  0  0  0  0  0  0  0  0
  -28.6900  -24.5750   18.2300 C   0  0  0  0  0  0  0  0  0  0  0  0
  -28.2880  -25.5000   19.1560 C   0  0  0  0  0  0  0  0  0  0  0  0
  -29.1850  -25.3680   20.2610 C   0  0  0  0  0  0  0  0  0  0  0  0
  -29.7890  -23.9350   18.7820 N   0  0  0  0  0  0  0  0  0  0  0  0
  -30.1150  -24.4590   19.9920 N   0  0  0  0  0  0  0  0  0  0  0  0
  -29.1780  -26.0130   21.5810 C   0  0  0  0  0  0  0  0  0  0  0  0
  -30.1640  -26.9560   21.9450 C   0  0  0  0  0  3  0  0  0  0  0  0
  -30.1280  -27.5760   23.2130 C   0  0  0  0  0  3  0  0  0  0  0  0
  -29.0970  -27.2610   24.1290 C   0  0  0  0  0  0  0  0  0  0  0  0
  -28.1300  -26.3050   23.7700 C   0  0  0  0  0  3  0  0  0  0  0  0
  -28.1710  -25.6830   22.5090 C   0  0  0  0  0  3  0  0  0  0  0  0
  -28.9960  -27.7940   25.3910 O   0  0  0  0  0  0  0  0  0  0  0  0
  -28.8850  -29.1460   25.5940 C   0  0  0  0  0  0  0  0  0  0  0  0
  -27.7340  -29.8660   25.2070 C   0  0  0  0  0  3  0  0  0  0  0  0
  -27.6320  -31.2410   25.5000 C   0  0  0  0  0  3  0  0  0  0  0  0
  -28.6750  -31.8960   26.1830 C   0  0  0  0  0  0  0  0  0  0  0  0
  -29.8210  -31.1800   26.5720 C   0  0  0  0  0  3  0  0  0  0  0  0
  -29.9230  -29.8080   26.2810 C   0  0  0  0  0  0  0  0  0  0  0  0
  -31.0190  -29.1180   26.6780 F   0  0  0  0  0  0  0  0  0  0  0  0
  -28.5750  -33.2140   26.4710 F   0  0  0  0  0  0  0  0  0  0  0  0
  -27.0840  -26.3930   19.0670 C   0  0  0  0  0  0  0  0  0  0  0  0
  -27.2300  -27.6580   19.4440 N   0  0  0  0  0  0  0  0  0  0  0  0
  -26.0150  -25.9840   18.6150 O   0  0  0  0  0  0  0  0  0  0  0  0
  -28.1120  -28.0010   19.7970 H   0  0  0  0  0  0  0  0  0  0  0  0
  -26.4490  -28.2950   19.3800 H   0  0  0  0  0  0  0  0  0  0  0  0
  -28.2040  -24.2130   16.9770 N   0  0  0  0  0  0  0  0  0  0  0  0
  -27.3780  -24.6380   16.5700 H   0  0  0  0  0  0  0  0  0  0  0  0
  -28.6030  -23.4880   16.3920 H   0  0  0  0  0  0  0  0  0  0  0  0
  -34.0830  -27.4880   16.6930 C   0  0  0  0  0  1  0  0  0  0  0  0
  -33.4780  -26.1890   16.1400 C   0  0  0  0  0  2  0  0  0  0  0  0
  -30.5990  -20.0720   11.2790 C   0  0  0  0  0  2  0  0  0  0  0  0
  -31.8280  -20.0320   10.3560 C   0  0  0  0  0  2  0  0  0  0  0  0
  -32.3200  -21.4190    9.8930 C   0  0  0  0  0  2  0  0  0  0  0  0
  -32.2360  -21.5600    8.3650 C   0  0  0  0  0  2  0  0  0  0  0  0
  -32.8230  -22.8720    7.8030 C   0  0  0  0  0  2  0  0  0  0  0  0
  -31.9100  -23.5940    6.9660 O   0  0  0  0  0  0  0  0  0  0  0  0
  -32.2860  -30.6620    7.7020 C   0  0  0  0  0  0  0  0  0  0  0  0
  -31.3840  -24.7290    7.5330 C   0  0  0  0  0  0  0  0  0  0  0  0
  -30.7880  -29.4840    9.2790 C   0  0  0  0  0  3  0  0  0  0  0  0
  -30.3030  -27.0430    8.7290 C   0  0  0  0  0  0  0  0  0  0  0  0
  -31.2530  -28.5240    6.9540 C   0  0  0  0  0  2  0  0  0  0  0  0
  -31.0530  -27.1480    7.5500 C   0  0  0  0  0  0  0  0  0  0  0  0
  -31.5990  -25.9940    6.9470 C   0  0  0  0  0  3  0  0  0  0  0  0
  -30.5900  -24.6330    8.6950 C   0  0  0  0  0  3  0  0  0  0  0  0
  -30.0700  -25.7850    9.3110 C   0  0  0  0  0  3  0  0  0  0  0  0
  -29.7570  -28.3240    9.3130 C   0  0  0  0  0  2  0  0  0  0  0  0
  -31.4970  -29.5810    7.9620 N   0  0  0  0  0  0  0  0  0  0  0  0
  -32.3950  -31.5870    8.5190 O   0  0  0  0  0  0  0  0  0  0  0  0
  -31.7470  -29.3260   10.4800 C   0  0  0  0  0  0  0  0  0  0  0  0
  -31.4050  -29.9750   11.6050 N   0  0  0  0  0  0  0  0  0  0  0  0
  -32.7530  -28.6160   10.3980 O   0  0  0  0  0  0  0  0  0  0  0  0
  -30.5700  -30.5430   11.5900 H   0  0  0  0  0  0  0  0  0  0  0  0
  -31.5610  -31.4220   14.9110 C   0  0  0  0  0  0  0  0  0  0  0  0
  -32.1360  -29.9430   12.8710 C   0  0  0  0  0  3  0  0  0  0  0  0
  -31.6930  -28.7450   13.7430 C   0  0  0  0  0  2  0  0  0  0  0  0
  -30.5740  -29.0990   14.7280 C   0  0  0  0  0  2  0  0  0  0  0  0
  -31.0230  -30.2210   15.6690 C   0  0  0  0  0  2  0  0  0  0  0  0
  -32.0680  -31.2950   13.5910 C   0  0  0  0  0  0  0  0  0  0  0  0
  -32.5220  -32.4500   12.9180 C   0  0  0  0  0  3  0  0  0  0  0  0
  -32.4780  -33.7110   13.5400 C   0  0  0  0  0  3  0  0  0  0  0  0
  -31.9890  -33.8290   14.8530 C   0  0  0  0  0  3  0  0  0  0  0  0
  -31.5340  -32.6870   15.5360 C   0  0  0  0  0  3  0  0  0  0  0  0
  -33.0660  -30.7990    6.3580 C   0  0  0  0  0  3  0  0  0  0  0  0
  -32.8330  -32.1570    5.8500 N   0  0  0  0  0  0  0  0  0  0  0  0
  -31.8040  -32.5090    5.0670 C   0  0  0  0  0  0  0  0  0  0  0  0
  -30.9830  -31.6970    4.6340 O   0  0  0  0  0  0  0  0  0  0  0  0
  -33.4370  -32.8850    6.2050 H   0  0  0  0  0  0  0  0  0  0  0  0
  -30.5190  -34.6210    5.5200 C   0  0  0  0  0  1  0  0  0  0  0  0
  -31.6650  -34.0000    4.7060 C   0  0  0  0  0  3  0  0  0  0  0  0
  -32.6430  -34.0790    2.4550 C   0  0  0  0  0  1  0  0  0  0  0  0
  -31.4370  -34.2380    3.2630 N   0  0  0  0  0  0  0  0  0  0  0  0
  -31.0710  -35.1720    3.1060 H   0  0  0  0  0  0  0  0  0  0  0  0
  -34.6110  -30.5140    6.5050 C   0  0  1  0  0  0  0  0  0  0  0  0
  -35.4130  -31.7060    7.0760 C   0  0  0  0  0  1  0  0  0  0  0  0
  -34.8540  -29.2960    7.4300 C   0  0  0  0  0  1  0  0  0  0  0  0
  -35.2110  -30.1480    5.1270 C   0  0  0  0  0  1  0  0  0  0  0  0
  1  3  2  0
  1  5  1  0
  2  1  1  0
  4  2  1  0
  6  5  1  0
  7 13  1  0
  8  9  1  0
  9 10  1  0
 11 12  1  0
 11 24  1  0
 11 10  1  0
 13 12  1  0
 13  8  1  0
 14  7  2  0
 15 18  1  0
 16 15  1  0
 16 19  1  0
 18 17  1  0
 18 50  1  0
 19  6  1  0
 19 20  1  0
 20 17  1  0
 20  7  1  0
 21 24  1  0
 21 22  2  0
 22 23  1  0
 23 26  1  0
 24 25  1  0
 25 23  2  0
 26 27  2  0
 26 31  1  0
 27 28  1  0
 28 29  2  0
 29 32  1  0
 30 29  1  0
 31 30  2  0
 32 33  1  0
 33 38  1  0
 34 35  1  0
 34 33  2  0
 35 36  2  0
 36 40  1  0
 36 37  1  0
 38 37  2  0
 38 39  1  0
 41 22  1  0
 41 42  1  0
 42 44  1  0
 43 41  2  0
 45 42  1  0
 46 21  1  0
 47 46  1  0
 48 46  1  0
 50 49  1  0
 51  2  1  0
 52 51  1  0
 53 52  1  0
 54 53  1  0
 55 54  1  0
 56 58  1  0
 56 55  1  0
 57 67  1  0
 57 68  2  0
 58 64  1  0
 59 66  1  0
 59 69  1  0
 60 65  1  0
 60 66  1  0
 61 62  1  0
 61 67  1  0
 62 60  2  0
 63 58  2  0
 63 62  1  0
 64 65  2  0
 67 59  1  0
 69 70  1  0
 71 69  2  0
 72 70  1  0
 73 82  1  0
 73 77  1  0
 74 70  1  0
 74 78  1  0
 74 75  1  0
 75 76  1  0
 76 77  1  0
 78 73  2  0
 79 80  2  0
 79 78  1  0
 80 81  1  0
 81 82  2  0
 83 93  1  0
 83 57  1  0
 84 87  1  0
 84 83  1  0
 85 84  1  0
 86 85  2  0
 89 85  1  0
 89 88  1  0
 90 91  1  0
 91 89  1  0
 92 91  1  0
 93 94  1  1
 93 95  1  0
 96 93  1  0
M  ISO  4   7 100  20 100  55 101  56 101
M  END
>  <TORSDO>  (3) 
F 24

>  <SCORE>  (3) 
-3.876

>  <name>  (3) 
2

>  <ligand_id>  (3) 
2

>  <original_smiles>  (3) 
[H]c1c([H])c([H])c2c(c1[H])C([H])([H])C([H])([H])C([H])([H])C2([H])N([H])C(=O)C1([H])N(C(=O)C([H])(N([H])C(=O)C([H])(N([H])C([H])([H])[H])C([H])([H])[H])C(C([H])([H])[H])(C([H])([H])[H])C([H])([H])[H])C([H])([H])c2c([H])c(OC([H])([H])C([H])([H])C([H])([H])C([H])([H])C([H])([H])N([H])C(=O)C([H])([H])C([H])([H])C3([H])N(C(=O)N4C([H])([H])C([H])([H])C([H])([H])C([H])(n5nc(-c6c([H])c([H])c(Oc7c([H])c([H])c(F)c([H])c7F)c([H])c6[H])c(C(=O)N([H])[H])c5N([H])[H])C4([H])[H])C([H])([H])C([H])(C([H])([H])C([H])([H])[H])C([H])([H])C3([H])[H])c([H])c([H])c2C1([H])[H]

>  <smiles>  (3) 
[H]c1c([H])c([H])c2c(c1[H])C([H])([H])C([H])([H])C([H])([H])C2([H])N([H])C(=O)C1([H])N(C(=O)C([H])(N([H])C(=O)C([H])(N([H])C([H])([H])[H])C([H])([H])[H])C(C([H])([H])[H])(C([H])([H])[H])C([H])([H])[H])C([H])([H])c2c([H])c(OC([H])([H])C([H])([H])C([H])([H])C([H])([H])C([H])([H])N([H])C(=O)C([H])([H])C([H])([H])C3([H])N(C(=O)N4C([H])([H])C([H])([H])C([H])([H])C([H])(n5nc(-c6c([H])c([H])c(Oc7c([H])c([H])c(F)c([H])c7F)c([H])c6[H])c(C(=O)N([H])[H])c5N([H])[H])C4([H])[H])C([H])([H])C([H])(C([H])([H])C([H])([H])[H])C([H])([H])C3([H])[H])c([H])c([H])c2C1([H])[H]

$$$$
3:0:0
     RDKit          3D

 97105  0  0  1  0  0  0  0  0999 V2000
  -29.2230  -19.6860   20.1380 C   0  0  0  0  0  2  0  0  0  0  0  0
  -29.5270  -17.6620   21.6350 C   0  0  0  0  0  2  0  0  0  0  0  0
  -29.5290  -19.2130   21.5720 C   0  0  0  0  0  3  0  0  0  0  0  0
  -30.1970  -19.0780   19.1100 C   0  0  0  0  0  3  0  0  0  0  0  0
  -30.3430  -16.9250   20.5350 C   0  0  0  0  0  3  0  0  0  0  0  0
  -30.1240  -17.5290   19.1080 C   0  0  0  0  0  3  0  0  0  0  0  0
  -30.0260  -19.7130   17.7190 C   0  0  0  0  0  1  0  0  0  0  0  0
  -30.7490  -14.4730   20.0950 C   0  0  0  0  0  0  0  0  0  0  0  0
  -30.3850  -12.3430   18.9160 C   0  0  0  0  0  2  0  0  0  0  0  0
  -29.3800  -12.5860   17.7700 C   0  0  0  0  0  2  0  0  0  0  0  0
  -27.9260  -12.4650   18.2720 C   0  0  0  0  0  2  0  0  0  0  0  0
  -27.6650  -13.2670   19.5750 C   0  0  0  0  0  3  0  0  0  0  0  0
  -28.7750  -12.9950   20.6170 C   0  0  0  0  0  2  0  0  0  0  0  0
  -30.0740  -13.2990   19.9890 N   0  0  0  0  0  0  0  0  0  0  0  0
  -31.8500  -14.6790   19.5810 O   0  0  0  0  0  0  0  0  0  0  0  0
  -30.0160  -15.4870   20.5890 N   0  0  0  0  0  0  0  0  0  0  0  0
  -29.1410  -15.2270   21.0160 H   0  0  0  0  0  0  0  0  0  0  0  0
  -25.3050  -13.8910   20.3950 C   0  0  0  0  0  0  0  0  0  0  0  0
  -24.2480  -13.1230   20.8040 C   0  0  0  0  0  0  0  0  0  0  0  0
  -24.6990  -11.7690   20.7440 C   0  0  0  0  0  0  0  0  0  0  0  0
  -26.3340  -13.0030   20.1130 N   0  0  0  0  0  0  0  0  0  0  0  0
  -25.9750  -11.7220   20.3780 N   0  0  0  0  0  0  0  0  0  0  0  0
  -23.9760  -10.5110   20.9600 C   0  0  0  0  0  0  0  0  0  0  0  0
  -24.4430   -9.5400   21.8730 C   0  0  0  0  0  3  0  0  0  0  0  0
  -23.7210   -8.3440   22.0770 C   0  0  0  0  0  3  0  0  0  0  0  0
  -22.5180   -8.1120   21.3680 C   0  0  0  0  0  0  0  0  0  0  0  0
  -22.0700   -9.0730   20.4440 C   0  0  0  0  0  3  0  0  0  0  0  0
  -22.7920  -10.2600   20.2380 C   0  0  0  0  0  3  0  0  0  0  0  0
  -21.7640   -6.9700   21.4830 O   0  0  0  0  0  0  0  0  0  0  0  0
  -21.7480   -6.2310   22.6390 C   0  0  0  0  0  0  0  0  0  0  0  0
  -21.3700   -6.7930   23.8770 C   0  0  0  0  0  3  0  0  0  0  0  0
  -21.3020   -5.9810   25.0260 C   0  0  0  0  0  3  0  0  0  0  0  0
  -21.6020   -4.6080   24.9390 C   0  0  0  0  0  0  0  0  0  0  0  0
  -21.9730   -4.0460   23.7040 C   0  0  0  0  0  3  0  0  0  0  0  0
  -22.0440   -4.8550   22.5570 C   0  0  0  0  0  0  0  0  0  0  0  0
  -22.3820   -4.3050   21.3660 F   0  0  0  0  0  0  0  0  0  0  0  0
  -21.5280   -3.8240   26.0400 F   0  0  0  0  0  0  0  0  0  0  0  0
  -22.8680  -13.6080   21.1440 C   0  0  0  0  0  0  0  0  0  0  0  0
  -22.1780  -12.9140   22.0410 N   0  0  0  0  0  0  0  0  0  0  0  0
  -22.4130  -14.6380   20.6480 O   0  0  0  0  0  0  0  0  0  0  0  0
  -22.5600  -12.0800   22.4640 H   0  0  0  0  0  0  0  0  0  0  0  0
  -21.2550  -13.2200   22.3100 H   0  0  0  0  0  0  0  0  0  0  0  0
  -25.4700  -15.2620   20.2270 N   0  0  0  0  0  0  0  0  0  0  0  0
  -24.7150  -15.9170   20.4050 H   0  0  0  0  0  0  0  0  0  0  0  0
  -26.3250  -15.7140   19.9470 H   0  0  0  0  0  0  0  0  0  0  0  0
  -28.8820  -17.0510   18.4630 N   0  0  0  0  0  4  0  0  0  0  0  0
  -28.0630  -17.3460   18.9650 H   0  0  0  0  0  0  0  0  0  0  0  0
  -28.8870  -16.0510   18.3900 H   0  0  0  0  0  0  0  0  0  0  0  0
  -28.8280  -17.4200   17.5300 H   0  0  0  0  0  0  0  0  0  0  0  0
  -30.7940  -19.8790   22.1520 C   0  0  0  0  0  0  0  0  0  0  0  0
  -31.8850  -19.3040   22.1460 O   0  0  0  0  0  0  0  0  0  0  0  0
  -30.6620  -21.2810   22.7590 C   0  0  0  0  0  2  0  0  0  0  0  0
  -30.9030  -22.4500   21.7750 C   0  0  0  0  0  2  0  0  0  0  0  0
  -29.6510  -23.3370   21.6170 C   0  0  0  0  0  2  0  0  0  0  0  0
  -29.8810  -24.6640   20.8660 C   0  0  0  0  0  2  0  0  0  0  0  0
  -28.5430  -25.3920   20.6680 C   0  0  0  0  0  2  0  0  0  0  0  0
  -28.7030  -26.7010   20.1170 O   0  0  0  0  0  0  0  0  0  0  0  0
  -24.7350  -31.7410   23.1710 C   0  0  0  0  0  0  0  0  0  0  0  0
  -27.5250  -27.4120   20.0800 C   0  0  0  0  0  0  0  0  0  0  0  0
  -23.5810  -30.3200   21.5050 C   0  0  0  0  0  3  0  0  0  0  0  0
  -25.0900  -28.8370   20.0820 C   0  0  0  0  0  0  0  0  0  0  0  0
  -26.0950  -30.7560   21.3290 C   0  0  0  0  0  2  0  0  0  0  0  0
  -26.2270  -29.3930   20.6820 C   0  0  0  0  0  0  0  0  0  0  0  0
  -27.4500  -28.6880   20.6770 C   0  0  0  0  0  3  0  0  0  0  0  0
  -26.3740  -26.8720   19.4640 C   0  0  0  0  0  3  0  0  0  0  0  0
  -25.1570  -27.5760   19.4700 C   0  0  0  0  0  3  0  0  0  0  0  0
  -23.8210  -29.6550   20.1240 C   0  0  0  0  0  2  0  0  0  0  0  0
  -24.8230  -30.9520   22.0620 N   0  0  0  0  0  0  0  0  0  0  0  0
  -23.6450  -31.9790   23.7030 O   0  0  0  0  0  0  0  0  0  0  0  0
  -22.9500  -29.2750   22.4530 C   0  0  0  0  0  0  0  0  0  0  0  0
  -21.6320  -29.0610   22.3110 N   0  0  0  0  0  0  0  0  0  0  0  0
  -23.6420  -28.6590   23.2680 O   0  0  0  0  0  0  0  0  0  0  0  0
  -21.1370  -29.6130   21.6240 H   0  0  0  0  0  0  0  0  0  0  0  0
  -18.2830  -27.7810   22.7510 C   0  0  0  0  0  0  0  0  0  0  0  0
  -20.8290  -28.0990   23.0640 C   0  0  0  0  0  3  0  0  0  0  0  0
  -20.9750  -26.6750   22.4800 C   0  0  0  0  0  2  0  0  0  0  0  0
  -19.8950  -26.3310   21.4490 C   0  0  0  0  0  2  0  0  0  0  0  0
  -18.5020  -26.4400   22.0740 C   0  0  0  0  0  2  0  0  0  0  0  0
  -19.3760  -28.5670   23.2030 C   0  0  0  0  0  0  0  0  0  0  0  0
  -19.1190  -29.8220   23.7940 C   0  0  0  0  0  3  0  0  0  0  0  0
  -17.8000  -30.2920   23.9440 C   0  0  0  0  0  3  0  0  0  0  0  0
  -16.7210  -29.5010   23.5130 C   0  0  0  0  0  3  0  0  0  0  0  0
  -16.9630  -28.2500   22.9200 C   0  0  0  0  0  3  0  0  0  0  0  0
  -26.0020  -32.3980   23.8070 C   0  0  0  0  0  3  0  0  0  0  0  0
  -26.5380  -31.6200   25.0710 C   0  0  1  0  0  0  0  0  0  0  0  0
  -25.4490  -31.3360   26.1330 C   0  0  0  0  0  1  0  0  0  0  0  0
  -27.1580  -30.2670   24.6510 C   0  0  0  0  0  1  0  0  0  0  0  0
  -27.6620  -32.4360   25.7500 C   0  0  0  0  0  1  0  0  0  0  0  0
  -25.6530  -33.7800   24.1560 N   0  0  0  0  0  0  0  0  0  0  0  0
  -25.9550  -34.8510   23.4120 C   0  0  0  0  0  0  0  0  0  0  0  0
  -26.6290  -34.7810   22.3790 O   0  0  0  0  0  0  0  0  0  0  0  0
  -25.0540  -33.9080   24.9600 H   0  0  0  0  0  0  0  0  0  0  0  0
  -24.1700  -36.5900   23.0850 C   0  0  0  0  0  1  0  0  0  0  0  0
  -25.4260  -36.2180   23.8870 C   0  0  0  0  0  3  0  0  0  0  0  0
  -27.5370  -37.1590   24.7150 C   0  0  0  0  0  1  0  0  0  0  0  0
  -26.4230  -37.3050   23.7820 N   0  0  0  0  0  0  0  0  0  0  0  0
  -25.9880  -38.2090   23.9480 H   0  0  0  0  0  0  0  0  0  0  0  0
  1  3  1  0
  3  2  1  0
  3 50  1  0
  4  7  1  0
  4  1  1  0
  5 16  1  0
  5  2  1  0
  6 46  1  0
  6  4  1  0
  6  5  1  0
  8 16  1  0
  9 14  1  0
 10 11  1  0
 10  9  1  0
 12 11  1  0
 12 21  1  0
 12 13  1  0
 14  8  1  0
 14 13  1  0
 15  8  2  0
 16 17  1  0
 18 19  2  0
 19 38  1  0
 20 19  1  0
 20 23  1  0
 21 22  1  0
 21 18  1  0
 22 20  2  0
 23 24  1  0
 24 25  2  0
 26 29  1  0
 26 25  1  0
 27 26  2  0
 28 27  1  0
 28 23  2  0
 29 30  1  0
 30 31  1  0
 31 32  2  0
 33 32  1  0
 33 37  1  0
 34 33  2  0
 35 30  2  0
 35 34  1  0
 36 35  1  0
 38 39  1  0
 39 42  1  0
 39 41  1  0
 40 38  2  0
 43 18  1  0
 43 44  1  0
 45 43  1  0
 46 47  1  0
 48 46  1  0
 49 46  1  0
 50 52  1  0
 51 50  2  0
 53 52  1  0
 54 53  1  0
 55 54  1  0
 56 55  1  0
 57 56  1  0
 58 69  2  0
 59 57  1  0
 59 64  1  0
 60 68  1  0
 60 70  1  0
 61 67  1  0
 61 63  1  0
 62 68  1  0
 63 62  1  0
 64 63  2  0
 65 66  1  0
 65 59  2  0
 66 61  2  0
 67 60  1  0
 68 58  1  0
 70 72  2  0
 71 70  1  0
 73 71  1  0
 74 83  2  0
 74 79  1  0
 75 71  1  0
 75 79  1  0
 76 75  1  0
 77 78  1  0
 77 76  1  0
 78 74  1  0
 79 80  2  0
 80 81  1  0
 82 81  2  0
 83 82  1  0
 84 58  1  0
 84 89  1  0
 84 85  1  0
 85 88  1  1
 85 86  1  0
 87 85  1  0
 89 92  1  0
 90 94  1  0
 90 89  1  0
 91 90  2  0
 94 93  1  0
 96 94  1  0
 96 97  1  0
 96 95  1  0
M  ISO  4   8 100  16 100  56 101  57 101
M  END
>  <TORSDO>  (4) 
F 23

>  <SCORE>  (4) 
-12.330

>  <name>  (4) 
3

>  <ligand_id>  (4) 
3

>  <original_smiles>  (4) 
[H]c1c([H])c([H])c2c(c1[H])C([H])([H])C([H])([H])C([H])([H])C2([H])N([H])C(=O)C1([H])N(C(=O)C([H])(N([H])C(=O)C([H])(N([H])C([H])([H])[H])C([H])([H])[H])C(C([H])([H])[H])(C([H])([H])[H])C([H])([H])[H])C([H])([H])c2c([H])c(OC([H])([H])C([H])([H])C([H])([H])C([H])([H])C([H])([H])C(=O)C3([H])C([H])([H])C([H])(N([H])C(=O)N4C([H])([H])C([H])([H])C([H])([H])C([H])(n5nc(-c6c([H])c([H])c(Oc7c([H])c([H])c(F)c([H])c7F)c([H])c6[H])c(C(=O)N([H])[H])c5N([H])[H])C4([H])[H])C([H])([N+]([H])([H])[H])C([H])(C([H])([H])[H])C3([H])[H])c([H])c([H])c2C1([H])[H]

>  <smiles>  (4) 
[H]c1c([H])c([H])c2c(c1[H])C([H])([H])C([H])([H])C([H])([H])C2([H])N([H])C(=O)C1([H])N(C(=O)C([H])(N([H])C(=O)C([H])(N([H])C([H])([H])[H])C([H])([H])[H])C(C([H])([H])[H])(C([H])([H])[H])C([H])([H])[H])C([H])([H])c2c([H])c(OC([H])([H])C([H])([H])C([H])([H])C([H])([H])C([H])([H])C(=O)C3([H])C([H])([H])C([H])(N([H])C(=O)N4C([H])([H])C([H])([H])C([H])([H])C([H])(n5nc(-c6c([H])c([H])c(Oc7c([H])c([H])c(F)c([H])c7F)c([H])c6[H])c(C(=O)N([H])[H])c5N([H])[H])C4([H])[H])C([H])([N+]([H])([H])[H])C([H])(C([H])([H])[H])C3([H])[H])c([H])c([H])c2C1([H])[H]

$$$$
4:0:0
     RDKit          3D

 92 99  0  0  1  0  0  0  0  0999 V2000
  -28.2960  -21.7940   18.0940 C   0  0  0  0  0  2  0  0  0  0  0  0
  -26.1550  -21.8800   19.4470 C   0  0  0  0  0  1  0  0  0  0  0  0
  -27.6910  -21.8330   19.5160 C   0  0  0  0  0  3  0  0  0  0  0  0
  -28.2900  -22.9500   20.4020 C   0  0  0  0  0  2  0  0  0  0  0  0
  -27.8810  -24.3670   19.9550 C   0  0  0  0  0  2  0  0  0  0  0  0
  -28.4230  -25.5230   20.8100 C   0  0  0  0  0  2  0  0  0  0  0  0
  -28.4280  -26.7660   20.1000 O   0  0  0  0  0  0  0  0  0  0  0  0
  -24.6030  -31.8770   23.2250 C   0  0  0  0  0  0  0  0  0  0  0  0
  -27.2510  -27.4690   20.1180 C   0  0  0  0  0  0  0  0  0  0  0  0
  -23.3920  -30.4890   21.5730 C   0  0  0  0  0  3  0  0  0  0  0  0
  -24.8480  -28.9490   20.1490 C   0  0  0  0  0  0  0  0  0  0  0  0
  -25.9190  -30.8390   21.3800 C   0  0  0  0  0  2  0  0  0  0  0  0
  -26.0020  -29.4730   20.7420 C   0  0  0  0  0  0  0  0  0  0  0  0
  -27.2070  -28.7390   20.7270 C   0  0  0  0  0  3  0  0  0  0  0  0
  -26.0830  -26.9640   19.4960 C   0  0  0  0  0  3  0  0  0  0  0  0
  -24.8830  -27.6910   19.5270 C   0  0  0  0  0  3  0  0  0  0  0  0
  -23.6000  -29.8010   20.1950 C   0  0  0  0  0  2  0  0  0  0  0  0
  -24.6560  -31.0840   22.1180 N   0  0  0  0  0  0  0  0  0  0  0  0
  -23.5230  -32.1470   23.7690 O   0  0  0  0  0  0  0  0  0  0  0  0
  -22.7440  -29.4630   22.5290 C   0  0  0  0  0  0  0  0  0  0  0  0
  -21.4210  -29.2810   22.3920 N   0  0  0  0  0  0  0  0  0  0  0  0
  -23.4230  -28.8340   23.3430 O   0  0  0  0  0  0  0  0  0  0  0  0
  -20.9290  -29.8340   21.7030 H   0  0  0  0  0  0  0  0  0  0  0  0
  -18.0510  -28.0730   22.8740 C   0  0  0  0  0  0  0  0  0  0  0  0
  -20.6050  -28.3390   23.1590 C   0  0  0  0  0  3  0  0  0  0  0  0
  -20.7150  -26.9080   22.5860 C   0  0  0  0  0  2  0  0  0  0  0  0
  -19.6230  -26.5820   21.5600 C   0  0  0  0  0  2  0  0  0  0  0  0
  -18.2360  -26.7250   22.1950 C   0  0  0  0  0  2  0  0  0  0  0  0
  -19.1640  -28.8390   23.3120 C   0  0  0  0  0  0  0  0  0  0  0  0
  -18.9440  -30.0990   23.9040 C   0  0  0  0  0  3  0  0  0  0  0  0
  -17.6410  -30.6060   24.0570 C   0  0  0  0  0  3  0  0  0  0  0  0
  -16.5390  -29.8390   23.6380 C   0  0  0  0  0  3  0  0  0  0  0  0
  -16.7430  -28.5740   23.0560 C   0  0  0  0  0  3  0  0  0  0  0  0
  -25.8890  -32.5040   23.8470 C   0  0  0  0  0  3  0  0  0  0  0  0
  -26.4120  -31.7240   25.1150 C   0  0  1  0  0  0  0  0  0  0  0  0
  -25.3240  -31.4760   26.1850 C   0  0  0  0  0  1  0  0  0  0  0  0
  -26.9870  -30.3480   24.7110 C   0  0  0  0  0  1  0  0  0  0  0  0
  -27.5660  -32.5110   25.7770 C   0  0  0  0  0  1  0  0  0  0  0  0
  -25.5860  -33.9020   24.1820 N   0  0  0  0  0  0  0  0  0  0  0  0
  -25.9170  -34.9570   23.4270 C   0  0  0  0  0  0  0  0  0  0  0  0
  -26.5920  -34.8590   22.3980 O   0  0  0  0  0  0  0  0  0  0  0  0
  -24.9860  -34.0600   24.9790 H   0  0  0  0  0  0  0  0  0  0  0  0
  -24.1890  -36.7480   23.0770 C   0  0  0  0  0  1  0  0  0  0  0  0
  -25.4280  -36.3430   23.8880 C   0  0  0  0  0  3  0  0  0  0  0  0
  -27.5640  -37.2210   24.7190 C   0  0  0  0  0  1  0  0  0  0  0  0
  -26.4620  -37.3970   23.7770 N   0  0  0  0  0  0  0  0  0  0  0  0
  -26.0550  -38.3140   23.9320 H   0  0  0  0  0  0  0  0  0  0  0  0
  -29.7310  -21.2400   18.0360 C   0  0  0  0  0  2  0  0  0  0  0  0
  -30.0970  -19.1660   19.4500 C   0  0  0  0  0  3  0  0  0  0  0  0
  -29.7140  -19.7490   18.3030 C   0  0  0  0  0  3  0  0  0  0  0  0
  -29.8990  -17.7270   19.6470 C   0  0  0  0  0  0  0  0  0  0  0  0
  -29.8830  -16.9060   18.7250 O   0  0  0  0  0  0  0  0  0  0  0  0
  -29.5950  -17.2840   21.0810 C   0  0  0  0  0  2  0  0  0  0  0  0
  -30.7060  -16.4530   21.7500 C   0  0  0  0  0  2  0  0  0  0  0  0
  -30.9340  -14.2970   20.5150 C   0  0  0  0  0  0  0  0  0  0  0  0
  -30.5330  -12.2630   19.1800 C   0  0  0  0  0  2  0  0  0  0  0  0
  -29.6000  -12.5930   18.0020 C   0  0  0  0  0  2  0  0  0  0  0  0
  -28.1210  -12.4880   18.4160 C   0  0  0  0  0  2  0  0  0  0  0  0
  -27.8190  -13.2560   19.7290 C   0  0  0  0  0  3  0  0  0  0  0  0
  -28.8580  -12.9030   20.8150 C   0  0  0  0  0  2  0  0  0  0  0  0
  -30.2090  -13.1750   20.2830 N   0  0  0  0  0  0  0  0  0  0  0  0
  -31.9350  -14.6290   19.8710 O   0  0  0  0  0  0  0  0  0  0  0  0
  -30.4610  -15.0360   21.5220 N   0  0  0  0  0  0  0  0  0  0  0  0
  -29.7090  -14.6110   22.0420 H   0  0  0  0  0  0  0  0  0  0  0  0
  -25.4150  -13.9110   20.3920 C   0  0  0  0  0  0  0  0  0  0  0  0
  -24.3340  -13.1590   20.7700 C   0  0  0  0  0  0  0  0  0  0  0  0
  -24.7750  -11.8020   20.7610 C   0  0  0  0  0  0  0  0  0  0  0  0
  -26.4530  -13.0120   20.1900 N   0  0  0  0  0  0  0  0  0  0  0  0
  -26.0660  -11.7370   20.4590 N   0  0  0  0  0  0  0  0  0  0  0  0
  -24.0290  -10.5520   20.9690 C   0  0  0  0  0  0  0  0  0  0  0  0
  -24.4540   -9.5880   21.9130 C   0  0  0  0  0  3  0  0  0  0  0  0
  -23.7150   -8.3990   22.1050 C   0  0  0  0  0  3  0  0  0  0  0  0
  -22.5370   -8.1690   21.3530 C   0  0  0  0  0  0  0  0  0  0  0  0
  -22.1330   -9.1220   20.3990 C   0  0  0  0  0  3  0  0  0  0  0  0
  -22.8730  -10.2980   20.2050 C   0  0  0  0  0  3  0  0  0  0  0  0
  -21.7650   -7.0360   21.4570 O   0  0  0  0  0  0  0  0  0  0  0  0
  -21.7130   -6.3020   22.6150 C   0  0  0  0  0  0  0  0  0  0  0  0
  -21.3130   -6.8760   23.8420 C   0  0  0  0  0  3  0  0  0  0  0  0
  -21.2070   -6.0700   24.9950 C   0  0  0  0  0  3  0  0  0  0  0  0
  -21.4900   -4.6930   24.9200 C   0  0  0  0  0  0  0  0  0  0  0  0
  -21.8850   -4.1200   23.6980 C   0  0  0  0  0  3  0  0  0  0  0  0
  -21.9930   -4.9230   22.5480 C   0  0  0  0  0  0  0  0  0  0  0  0
  -22.3510   -4.3610   21.3670 F   0  0  0  0  0  0  0  0  0  0  0  0
  -21.3810   -3.9170   26.0250 F   0  0  0  0  0  0  0  0  0  0  0  0
  -22.9400  -13.6590   21.0280 C   0  0  0  0  0  0  0  0  0  0  0  0
  -22.1990  -12.9820   21.8970 N   0  0  0  0  0  0  0  0  0  0  0  0
  -22.5150  -14.6840   20.4930 O   0  0  0  0  0  0  0  0  0  0  0  0
  -22.5550  -12.1540   22.3540 H   0  0  0  0  0  0  0  0  0  0  0  0
  -21.2610  -13.2930   22.1100 H   0  0  0  0  0  0  0  0  0  0  0  0
  -25.6010  -15.2740   20.1870 N   0  0  0  0  0  0  0  0  0  0  0  0
  -24.8450  -15.9460   20.2700 H   0  0  0  0  0  0  0  0  0  0  0  0
  -26.4570  -15.6850   19.8330 H   0  0  0  0  0  0  0  0  0  0  0  0
  1  3  1  0
  3  2  1  0
  3  4  1  0
  5  4  1  0
  5  6  1  0
  7  9  1  0
  7  6  1  0
  8 19  2  0
  9 14  1  0
 10 18  1  0
 10 20  1  0
 11 17  1  0
 11 13  1  0
 12 18  1  0
 13 12  1  0
 14 13  2  0
 15 16  1  0
 15  9  2  0
 16 11  2  0
 17 10  1  0
 18  8  1  0
 20 22  2  0
 21 20  1  0
 23 21  1  0
 24 33  2  0
 24 29  1  0
 25 21  1  0
 25 29  1  0
 26 25  1  0
 27 28  1  0
 27 26  1  0
 28 24  1  0
 29 30  2  0
 30 31  1  0
 32 31  2  0
 33 32  1  0
 34  8  1  0
 34 39  1  0
 34 35  1  0
 35 38  1  1
 35 36  1  0
 37 35  1  0
 39 42  1  0
 40 44  1  0
 40 39  1  0
 41 40  2  0
 44 43  1  0
 46 44  1  0
 46 47  1  0
 46 45  1  0
 48  1  1  0
 48 50  1  0
 49 51  1  0
 50 49  2  0
 51 53  1  0
 52 51  2  0
 53 54  1  0
 55 63  1  0
 56 61  1  0
 57 58  1  0
 57 56  1  0
 59 58  1  0
 59 68  1  0
 59 60  1  0
 61 55  1  0
 61 60  1  0
 62 55  2  0
 63 54  1  0
 63 64  1  0
 65 66  2  0
 66 85  1  0
 67 66  1  0
 67 70  1  0
 68 65  1  0
 68 69  1  0
 69 67  2  0
 70 71  1  0
 71 72  2  0
 73 76  1  0
 73 72  1  0
 74 73  2  0
 75 74  1  0
 75 70  2  0
 76 77  1  0
 77 78  1  0
 78 79  2  0
 80 79  1  0
 80 84  1  0
 81 80  2  0
 82 77  2  0
 82 81  1  0
 83 82  1  0
 85 86  1  0
 86 89  1  0
 86 88  1  0
 87 85  2  0
 90 91  1  0
 90 65  1  0
 92 90  1  0
M  ISO  4   6 101   7 101  55 100  63 100
M  END
>  <TORSDO>  (5) 
F 25

>  <SCORE>  (5) 
-12.066

>  <name>  (5) 
4

>  <ligand_id>  (5) 
4

>  <original_smiles>  (5) 
[H]C(C(=O)C([H])([H])C([H])([H])N([H])C(=O)N1C([H])([H])C([H])([H])C([H])([H])C([H])(n2nc(-c3c([H])c([H])c(Oc4c([H])c([H])c(F)c([H])c4F)c([H])c3[H])c(C(=O)N([H])[H])c2N([H])[H])C1([H])[H])=C([H])C([H])([H])C([H])([H])C([H])(C([H])([H])[H])C([H])([H])C([H])([H])C([H])([H])Oc1c([H])c([H])c2c(c1[H])C([H])([H])N(C(=O)C([H])(N([H])C(=O)C([H])(N([H])C([H])([H])[H])C([H])([H])[H])C(C([H])([H])[H])(C([H])([H])[H])C([H])([H])[H])C([H])(C(=O)N([H])C1([H])c3c([H])c([H])c([H])c([H])c3C([H])([H])C([H])([H])C1([H])[H])C2([H])[H]

>  <smiles>  (5) 
[H]C(C(=O)C([H])([H])C([H])([H])N([H])C(=O)N1C([H])([H])C([H])([H])C([H])([H])C([H])(n2nc(-c3c([H])c([H])c(Oc4c([H])c([H])c(F)c([H])c4F)c([H])c3[H])c(C(=O)N([H])[H])c2N([H])[H])C1([H])[H])=C([H])C([H])([H])C([H])([H])C([H])(C([H])([H])[H])C([H])([H])C([H])([H])C([H])([H])Oc1c([H])c([H])c2c(c1[H])C([H])([H])N(C(=O)C([H])(N([H])C(=O)C([H])(N([H])C([H])([H])[H])C([H])([H])[H])C(C([H])([H])[H])(C([H])([H])[H])C([H])([H])[H])C([H])(C(=O)N([H])C1([H])c3c([H])c([H])c([H])c([H])c3C([H])([H])C([H])([H])C1([H])[H])C2([H])[H]

$$$$
5:0:0
     RDKit          3D

 97105  0  0  1  0  0  0  0  0999 V2000
  -30.5610  -22.0070   22.2420 C   0  0  0  0  0  2  0  0  0  0  0  0
  -29.2050  -22.7330   22.0020 C   0  0  0  0  0  2  0  0  0  0  0  0
  -29.2560  -24.2930   21.9620 C   0  0  0  0  0  3  0  0  0  0  0  0
  -29.2880  -26.3460   23.5940 C   0  0  0  0  0  1  0  0  0  0  0  0
  -29.4570  -24.8320   23.4050 C   0  0  0  0  0  2  0  0  0  0  0  0
  -26.6760  -24.3340   21.6460 C   0  0  0  0  0  1  0  0  0  0  0  0
  -28.0280  -24.9420   21.2280 C   0  0  0  0  0  3  0  0  0  0  0  0
  -28.1560  -24.9900   19.6810 C   0  0  0  0  0  2  0  0  0  0  0  0
  -28.1440  -26.3440   19.2020 O   0  0  0  0  0  0  0  0  0  0  0  0
  -24.5890  -31.2120   22.9790 C   0  0  0  0  0  0  0  0  0  0  0  0
  -26.9840  -27.0810   19.3320 C   0  0  0  0  0  0  0  0  0  0  0  0
  -23.3040  -30.1130   21.1710 C   0  0  0  0  0  3  0  0  0  0  0  0
  -24.6700  -28.6940   19.5440 C   0  0  0  0  0  0  0  0  0  0  0  0
  -25.8420  -30.3600   20.9980 C   0  0  0  0  0  2  0  0  0  0  0  0
  -25.8530  -29.0820   20.1870 C   0  0  0  0  0  0  0  0  0  0  0  0
  -27.0150  -28.2850   20.0710 C   0  0  0  0  0  3  0  0  0  0  0  0
  -25.7860  -26.7030   18.6890 C   0  0  0  0  0  3  0  0  0  0  0  0
  -24.6280  -27.5040   18.7960 C   0  0  0  0  0  3  0  0  0  0  0  0
  -23.4740  -29.6070   19.7110 C   0  0  0  0  0  2  0  0  0  0  0  0
  -24.5970  -30.5690   21.7780 N   0  0  0  0  0  0  0  0  0  0  0  0
  -23.5260  -31.4650   23.5650 O   0  0  0  0  0  0  0  0  0  0  0  0
  -22.6000  -29.0110   21.9950 C   0  0  0  0  0  0  0  0  0  0  0  0
  -21.2590  -28.9730   21.9210 N   0  0  0  0  0  0  0  0  0  0  0  0
  -23.2530  -28.1970   22.6530 O   0  0  0  0  0  0  0  0  0  0  0  0
  -20.7970  -29.6820   21.3700 H   0  0  0  0  0  0  0  0  0  0  0  0
  -17.8060  -28.0880   22.4980 C   0  0  0  0  0  0  0  0  0  0  0  0
  -20.3860  -27.9990   22.5770 C   0  0  0  0  0  3  0  0  0  0  0  0
  -20.2670  -26.7050   21.7370 C   0  0  0  0  0  2  0  0  0  0  0  0
  -19.0650  -26.7120   20.7870 C   0  0  0  0  0  2  0  0  0  0  0  0
  -17.7610  -26.8830   21.5720 C   0  0  0  0  0  2  0  0  0  0  0  0
  -19.0380  -28.6200   22.9580 C   0  0  0  0  0  0  0  0  0  0  0  0
  -19.0230  -29.7610   23.7900 C   0  0  0  0  0  3  0  0  0  0  0  0
  -17.8080  -30.3640   24.1640 C   0  0  0  0  0  3  0  0  0  0  0  0
  -16.5910  -29.8230   23.7200 C   0  0  0  0  0  3  0  0  0  0  0  0
  -16.5900  -28.6880   22.8890 C   0  0  0  0  0  3  0  0  0  0  0  0
  -25.9110  -31.6840   23.6650 C   0  0  0  0  0  3  0  0  0  0  0  0
  -26.3890  -30.7150   24.8150 C   0  0  1  0  0  0  0  0  0  0  0  0
  -25.3030  -30.4070   25.8720 C   0  0  0  0  0  1  0  0  0  0  0  0
  -26.8720  -29.3670   24.2220 C   0  0  0  0  0  1  0  0  0  0  0  0
  -27.5950  -31.3360   25.5560 C   0  0  0  0  0  1  0  0  0  0  0  0
  -25.6820  -33.0350   24.1890 N   0  0  0  0  0  0  0  0  0  0  0  0
  -26.1180  -34.1610   23.6080 C   0  0  0  0  0  0  0  0  0  0  0  0
  -26.8280  -34.1610   22.5970 O   0  0  0  0  0  0  0  0  0  0  0  0
  -25.0640  -33.1130   24.9810 H   0  0  0  0  0  0  0  0  0  0  0  0
  -24.5430  -36.1180   23.4440 C   0  0  0  0  0  1  0  0  0  0  0  0
  -25.7010  -35.5000   24.2450 C   0  0  0  0  0  3  0  0  0  0  0  0
  -27.8310  -36.0920   25.3140 C   0  0  0  0  0  1  0  0  0  0  0  0
  -26.8070  -36.4760   24.3470 N   0  0  0  0  0  0  0  0  0  0  0  0
  -26.4550  -37.3930   24.6070 H   0  0  0  0  0  0  0  0  0  0  0  0
  -30.3960  -20.5580   22.7860 C   0  0  0  0  0  2  0  0  0  0  0  0
  -31.1040  -19.4270   21.9790 C   0  0  0  0  0  2  0  0  0  0  0  0
  -31.1570  -14.5210   20.8340 C   0  0  0  0  0  0  0  0  0  0  0  0
  -30.9500  -12.1680   20.1110 C   0  0  0  0  0  2  0  0  0  0  0  0
  -30.1740  -12.1090   18.7800 C   0  0  0  0  0  2  0  0  0  0  0  0
  -28.6530  -12.0300   19.0320 C   0  0  0  0  0  2  0  0  0  0  0  0
  -28.1560  -13.0610   20.0800 C   0  0  0  0  0  3  0  0  0  0  0  0
  -29.0810  -13.1370   21.3170 C   0  0  0  0  0  2  0  0  0  0  0  0
  -30.4580  -13.3450   20.8460 N   0  0  0  0  0  0  0  0  0  0  0  0
  -32.3680  -14.5420   20.5890 O   0  0  0  0  0  0  0  0  0  0  0  0
  -29.3220  -18.4250   20.4790 C   0  0  0  0  0  2  0  0  0  0  0  0
  -31.1420  -16.8830   21.5120 C   0  0  0  0  0  2  0  0  0  0  0  0
  -29.8750  -16.1620   19.6400 C   0  0  0  0  0  2  0  0  0  0  0  0
  -30.2410  -18.1570   21.6980 C   0  0  0  0  0  3  0  0  0  0  0  0
  -28.7180  -17.1560   19.8750 C   0  0  0  0  0  3  0  0  0  0  0  0
  -30.4670  -15.7020   20.9070 N   0  0  0  0  0  0  0  0  0  0  0  0
  -25.7450  -13.7990   20.5390 C   0  0  0  0  0  0  0  0  0  0  0  0
  -24.6070  -13.0980   20.8230 C   0  0  0  0  0  0  0  0  0  0  0  0
  -24.9990  -11.7250   20.8690 C   0  0  0  0  0  0  0  0  0  0  0  0
  -26.7610  -12.8610   20.4410 N   0  0  0  0  0  0  0  0  0  0  0  0
  -26.3090  -11.6100   20.6940 N   0  0  0  0  0  0  0  0  0  0  0  0
  -24.1900  -10.5120   21.0090 C   0  0  0  0  0  0  0  0  0  0  0  0
  -24.5500   -9.4840   21.9050 C   0  0  0  0  0  3  0  0  0  0  0  0
  -23.7460   -8.3320   22.0330 C   0  0  0  0  0  3  0  0  0  0  0  0
  -22.5670   -8.2010   21.2570 C   0  0  0  0  0  0  0  0  0  0  0  0
  -22.2270   -9.2180   20.3480 C   0  0  0  0  0  3  0  0  0  0  0  0
  -23.0340  -10.3620   20.2200 C   0  0  0  0  0  3  0  0  0  0  0  0
  -21.7360   -7.1080   21.2980 O   0  0  0  0  0  0  0  0  0  0  0  0
  -21.6270   -6.3300   22.4240 C   0  0  0  0  0  0  0  0  0  0  0  0
  -21.1840   -6.8590   23.6540 C   0  0  0  0  0  3  0  0  0  0  0  0
  -21.0240   -6.0130   24.7680 C   0  0  0  0  0  3  0  0  0  0  0  0
  -21.2960   -4.6360   24.6520 C   0  0  0  0  0  0  0  0  0  0  0  0
  -21.7350   -4.1060   23.4250 C   0  0  0  0  0  3  0  0  0  0  0  0
  -21.8970   -4.9520   22.3130 C   0  0  0  0  0  0  0  0  0  0  0  0
  -22.2980   -4.4310   21.1280 F   0  0  0  0  0  0  0  0  0  0  0  0
  -21.1350   -3.8210   25.7190 F   0  0  0  0  0  0  0  0  0  0  0  0
  -23.2190  -13.6620   20.9450 C   0  0  0  0  0  0  0  0  0  0  0  0
  -22.3810  -13.0530   21.7770 N   0  0  0  0  0  0  0  0  0  0  0  0
  -22.8830  -14.6760   20.3360 O   0  0  0  0  0  0  0  0  0  0  0  0
  -22.6600  -12.2280   22.2870 H   0  0  0  0  0  0  0  0  0  0  0  0
  -21.4490  -13.4200   21.9150 H   0  0  0  0  0  0  0  0  0  0  0  0
  -25.9920  -15.1450   20.3310 N   0  0  0  0  0  0  0  0  0  0  0  0
  -25.2550  -15.8400   20.3170 H   0  0  0  0  0  0  0  0  0  0  0  0
  -26.8920  -15.5170   20.0610 H   0  0  0  0  0  0  0  0  0  0  0  0
  -27.9630  -17.4070   18.5430 C   0  0  0  0  0  2  0  0  0  0  0  0
  -25.7650  -18.2820   19.6980 C   0  0  0  0  0  1  0  0  0  0  0  0
  -27.1530  -19.8340   18.2510 C   0  0  0  0  0  1  0  0  0  0  0  0
  -26.7440  -18.3730   18.5100 C   0  0  0  0  0  3  0  0  0  0  0  0
  1 50  1  0
  2  1  1  0
  3  2  1  0
  3  5  1  0
  5  4  1  0
  7  6  1  0
  7  3  1  0
  8  7  1  0
  9 11  1  0
  9  8  1  0
 10 21  2  0
 11 16  1  0
 12 20  1  0
 12 22  1  0
 13 19  1  0
 13 15  1  0
 14 20  1  0
 15 14  1  0
 16 15  2  0
 17 18  1  0
 17 11  2  0
 18 13  2  0
 19 12  1  0
 20 10  1  0
 22 24  2  0
 23 22  1  0
 25 23  1  0
 26 35  2  0
 26 31  1  0
 27 23  1  0
 27 31  1  0
 28 27  1  0
 29 30  1  0
 29 28  1  0
 30 26  1  0
 31 32  2  0
 32 33  1  0
 34 33  2  0
 35 34  1  0
 36 10  1  0
 36 41  1  0
 36 37  1  0
 37 40  1  1
 37 38  1  0
 39 37  1  0
 41 44  1  0
 42 41  1  0
 42 46  1  0
 43 42  2  0
 46 45  1  0
 46 48  1  0
 48 49  1  0
 48 47  1  0
 51 50  1  0
 52 58  1  0
 52 65  1  0
 53 58  1  0
 54 55  1  0
 54 53  1  0
 56 55  1  0
 56 69  1  0
 56 57  1  0
 58 57  1  0
 59 52  2  0
 60 63  1  0
 61 63  1  0
 62 64  1  0
 62 65  1  0
 63 51  1  0
 64 94  1  0
 64 60  1  0
 65 61  1  0
 66 67  2  0
 67 68  1  0
 67 86  1  0
 68 71  1  0
 69 66  1  0
 69 70  1  0
 70 68  2  0
 71 72  1  0
 72 73  2  0
 74 77  1  0
 74 73  1  0
 75 74  2  0
 76 75  1  0
 76 71  2  0
 77 78  1  0
 78 79  1  0
 79 80  2  0
 81 80  1  0
 81 85  1  0
 82 81  2  0
 83 78  2  0
 83 82  1  0
 84 83  1  0
 86 87  1  0
 87 90  1  0
 87 89  1  0
 88 86  2  0
 91 66  1  0
 92 91  1  0
 93 91  1  0
 96 97  1  0
 97 94  1  0
 97 95  1  0
M  ISO  4   8 101   9 101  52 100  65 100
M  END
>  <TORSDO>  (6) 
F 25

>  <SCORE>  (6) 
-10.679

>  <name>  (6) 
5

>  <ligand_id>  (6) 
5

>  <original_smiles>  (6) 
[H]c1c([H])c([H])c2c(c1[H])C([H])([H])C([H])([H])C([H])([H])C2([H])N([H])C(=O)C1([H])N(C(=O)C([H])(N([H])C(=O)C([H])(N([H])C([H])([H])[H])C([H])([H])[H])C(C([H])([H])[H])(C([H])([H])[H])C([H])([H])[H])C([H])([H])c2c([H])c(OC([H])([H])C([H])(C([H])([H])[H])C([H])(C([H])([H])C([H])([H])[H])C([H])([H])C([H])([H])C([H])([H])C([H])([H])C3([H])C([H])([H])N(C(=O)N4C([H])([H])C([H])([H])C([H])([H])C([H])(n5nc(-c6c([H])c([H])c(Oc7c([H])c([H])c(F)c([H])c7F)c([H])c6[H])c(C(=O)N([H])[H])c5N([H])[H])C4([H])[H])C([H])([H])C([H])(C([H])([H])C([H])(C([H])([H])[H])C([H])([H])[H])C3([H])[H])c([H])c([H])c2C1([H])[H]

>  <smiles>  (6) 
[H]c1c([H])c([H])c2c(c1[H])C([H])([H])C([H])([H])C([H])([H])C2([H])N([H])C(=O)C1([H])N(C(=O)C([H])(N([H])C(=O)C([H])(N([H])C([H])([H])[H])C([H])([H])[H])C(C([H])([H])[H])(C([H])([H])[H])C([H])([H])[H])C([H])([H])c2c([H])c(OC([H])([H])C([H])(C([H])([H])[H])C([H])(C([H])([H])C([H])([H])[H])C([H])([H])C([H])([H])C([H])([H])C([H])([H])C3([H])C([H])([H])N(C(=O)N4C([H])([H])C([H])([H])C([H])([H])C([H])(n5nc(-c6c([H])c([H])c(Oc7c([H])c([H])c(F)c([H])c7F)c([H])c6[H])c(C(=O)N([H])[H])c5N([H])[H])C4([H])[H])C([H])([H])C([H])(C([H])([H])C([H])(C([H])([H])[H])C([H])([H])[H])C3([H])[H])c([H])c([H])c2C1([H])[H]

$$$$
6:0:0
     RDKit          3D

 89 97  0  0  1  0  0  0  0  0999 V2000
  -28.8410  -21.1020   20.3970 C   0  0  0  0  0  3  0  0  0  0  0  0
  -29.8070  -19.9250   19.9490 C   0  0  0  0  0  0  0  0  0  0  0  0
  -30.9420  -20.2090   19.5550 O   0  0  0  0  0  0  0  0  0  0  0  0
  -29.3790  -18.3930   19.9870 C   0  0  0  0  0  2  0  0  0  0  0  0
  -30.7560  -14.7250   19.8110 C   0  0  0  0  0  0  0  0  0  0  0  0
  -30.3890  -12.5260   18.6800 C   0  0  0  0  0  2  0  0  0  0  0  0
  -29.3400  -12.6820   17.5570 C   0  0  0  0  0  2  0  0  0  0  0  0
  -27.9150  -12.5100   18.1160 C   0  0  0  0  0  2  0  0  0  0  0  0
  -27.6780  -13.3370   19.4070 C   0  0  0  0  0  3  0  0  0  0  0  0
  -28.8310  -13.1500   20.4130 C   0  0  0  0  0  2  0  0  0  0  0  0
  -30.0820  -13.5210   19.7370 N   0  0  0  0  0  0  0  0  0  0  0  0
  -31.8220  -14.8610   19.2030 O   0  0  0  0  0  0  0  0  0  0  0  0
  -30.2960  -15.9360   21.7760 C   0  0  0  0  0  0  0  0  0  0  0  0
  -30.9380  -17.2730   21.7920 C   0  0  0  0  0  2  0  0  0  0  0  0
  -30.5270  -17.3220   20.3190 C   0  0  0  0  0  3  0  0  0  0  0  0
  -30.1800  -15.8190   20.4410 N   0  0  0  0  0  0  0  0  0  0  0  0
  -30.1420  -15.1460   22.7130 O   0  0  0  0  0  0  0  0  0  0  0  0
  -25.3660  -13.9170   20.3550 C   0  0  0  0  0  0  0  0  0  0  0  0
  -24.3390  -13.1360   20.8100 C   0  0  0  0  0  0  0  0  0  0  0  0
  -24.7960  -11.7840   20.7170 C   0  0  0  0  0  0  0  0  0  0  0  0
  -26.3820  -13.0410   20.0100 N   0  0  0  0  0  0  0  0  0  0  0  0
  -26.0510  -11.7540   20.2880 N   0  0  0  0  0  0  0  0  0  0  0  0
  -24.0910  -10.5180   20.9540 C   0  0  0  0  0  0  0  0  0  0  0  0
  -24.5440   -9.5880   21.9150 C   0  0  0  0  0  3  0  0  0  0  0  0
  -23.8360   -8.3870   22.1380 C   0  0  0  0  0  3  0  0  0  0  0  0
  -22.6620   -8.1070   21.3990 C   0  0  0  0  0  0  0  0  0  0  0  0
  -22.2280   -9.0270   20.4270 C   0  0  0  0  0  3  0  0  0  0  0  0
  -22.9370  -10.2200   20.2030 C   0  0  0  0  0  3  0  0  0  0  0  0
  -21.9250   -6.9550   21.5280 O   0  0  0  0  0  0  0  0  0  0  0  0
  -21.8280   -6.2950   22.7270 C   0  0  0  0  0  0  0  0  0  0  0  0
  -21.3230   -6.9260   23.8860 C   0  0  0  0  0  3  0  0  0  0  0  0
  -21.1740   -6.1900   25.0790 C   0  0  0  0  0  3  0  0  0  0  0  0
  -21.5200   -4.8270   25.1150 C   0  0  0  0  0  0  0  0  0  0  0  0
  -22.0200   -4.1970   23.9610 C   0  0  0  0  0  3  0  0  0  0  0  0
  -22.1700   -4.9290   22.7700 C   0  0  0  0  0  0  0  0  0  0  0  0
  -22.6300   -4.3110   21.6560 F   0  0  0  0  0  0  0  0  0  0  0  0
  -21.3700   -4.1180   26.2580 F   0  0  0  0  0  0  0  0  0  0  0  0
  -22.9720  -13.6060   21.2190 C   0  0  0  0  0  0  0  0  0  0  0  0
  -22.3500  -12.9210   22.1720 N   0  0  0  0  0  0  0  0  0  0  0  0
  -22.4700  -14.6150   20.7270 O   0  0  0  0  0  0  0  0  0  0  0  0
  -22.7710  -12.1030   22.5880 H   0  0  0  0  0  0  0  0  0  0  0  0
  -21.4400  -13.2210   22.4920 H   0  0  0  0  0  0  0  0  0  0  0  0
  -25.5170  -15.2910   20.1860 N   0  0  0  0  0  0  0  0  0  0  0  0
  -24.7710  -15.9490   20.3840 H   0  0  0  0  0  0  0  0  0  0  0  0
  -26.3360  -15.7330   19.7860 H   0  0  0  0  0  0  0  0  0  0  0  0
  -29.0660  -22.5630   19.7650 C   0  0  0  0  0  3  0  0  0  0  0  0
  -28.3590  -23.8620   20.3940 C   0  0  0  0  0  2  0  0  0  0  0  0
  -28.4590  -25.2280   19.5670 C   0  0  0  0  0  2  0  0  0  0  0  0
  -28.2940  -26.5490   20.2180 O   0  0  0  0  0  0  0  0  0  0  0  0
  -24.5370  -31.9420   23.1390 C   0  0  0  0  0  0  0  0  0  0  0  0
  -27.1310  -27.3310   20.1490 C   0  0  0  0  0  0  0  0  0  0  0  0
  -23.3120  -30.4920   21.5550 C   0  0  0  0  0  3  0  0  0  0  0  0
  -24.7460  -28.9130   20.1420 C   0  0  0  0  0  0  0  0  0  0  0  0
  -25.8410  -30.8270   21.3140 C   0  0  0  0  0  2  0  0  0  0  0  0
  -25.9170  -29.4320   20.7020 C   0  0  0  0  0  0  0  0  0  0  0  0
  -27.1080  -28.6510   20.6970 C   0  0  0  0  0  3  0  0  0  0  0  0
  -25.9320  -26.8510   19.5790 C   0  0  0  0  0  3  0  0  0  0  0  0
  -24.7530  -27.6260   19.5740 C   0  0  0  0  0  3  0  0  0  0  0  0
  -23.5020  -29.7780   20.1900 C   0  0  0  0  0  2  0  0  0  0  0  0
  -24.5830  -31.1090   22.0590 N   0  0  0  0  0  0  0  0  0  0  0  0
  -23.4630  -32.2260   23.6880 O   0  0  0  0  0  0  0  0  0  0  0  0
  -22.6730  -29.5000   22.5560 C   0  0  0  0  0  0  0  0  0  0  0  0
  -21.3480  -29.3030   22.4470 N   0  0  0  0  0  0  0  0  0  0  0  0
  -23.3670  -28.9080   23.3860 O   0  0  0  0  0  0  0  0  0  0  0  0
  -20.8450  -29.8310   21.7470 H   0  0  0  0  0  0  0  0  0  0  0  0
  -17.9920  -28.0840   23.0200 C   0  0  0  0  0  0  0  0  0  0  0  0
  -20.5500  -28.3780   23.2530 C   0  0  0  0  0  3  0  0  0  0  0  0
  -20.6620  -26.9320   22.7150 C   0  0  0  0  0  2  0  0  0  0  0  0
  -19.5510  -26.5690   21.7240 C   0  0  0  0  0  2  0  0  0  0  0  0
  -18.1770  -26.7170   22.3820 C   0  0  0  0  0  2  0  0  0  0  0  0
  -19.1070  -28.8700   23.4160 C   0  0  0  0  0  0  0  0  0  0  0  0
  -18.8810  -30.1470   23.9720 C   0  0  0  0  0  3  0  0  0  0  0  0
  -17.5730  -30.6390   24.1390 C   0  0  0  0  0  3  0  0  0  0  0  0
  -16.4720  -29.8490   23.7600 C   0  0  0  0  0  3  0  0  0  0  0  0
  -16.6830  -28.5740   23.2060 C   0  0  0  0  0  3  0  0  0  0  0  0
  -25.8290  -32.5960   23.7220 C   0  0  0  0  0  3  0  0  0  0  0  0
  -25.5080  -33.9910   24.0580 N   0  0  0  0  0  0  0  0  0  0  0  0
  -25.8170  -35.0470   23.2950 C   0  0  0  0  0  0  0  0  0  0  0  0
  -26.4720  -34.9520   22.2530 O   0  0  0  0  0  0  0  0  0  0  0  0
  -24.9210  -34.1390   24.8650 H   0  0  0  0  0  0  0  0  0  0  0  0
  -24.0810  -36.8350   22.9470 C   0  0  0  0  0  1  0  0  0  0  0  0
  -25.3220  -36.4300   23.7600 C   0  0  0  0  0  3  0  0  0  0  0  0
  -27.4480  -37.3220   24.6060 C   0  0  0  0  0  1  0  0  0  0  0  0
  -26.3490  -37.4890   23.6570 N   0  0  0  0  0  0  0  0  0  0  0  0
  -25.9390  -38.4060   23.8080 H   0  0  0  0  0  0  0  0  0  0  0  0
  -26.3920  -31.8370   24.9870 C   0  0  1  0  0  0  0  0  0  0  0  0
  -25.3310  -31.5800   26.0820 C   0  0  0  0  0  1  0  0  0  0  0  0
  -26.9940  -30.4720   24.5850 C   0  0  0  0  0  1  0  0  0  0  0  0
  -27.5420  -32.6570   25.6190 C   0  0  0  0  0  1  0  0  0  0  0  0
  2  4  1  0
  2  1  1  0
  3  2  2  0
  5 16  1  0
  6 11  1  0
  7  8  1  0
  7  6  1  0
  9  8  1  0
  9 21  1  0
  9 10  1  0
 11  5  1  0
 11 10  1  0
 12  5  2  0
 13 14  1  0
 13 17  2  0
 15  4  1  0
 15 16  1  0
 15 14  1  0
 16 13  1  0
 18 19  2  0
 19 38  1  0
 20 19  1  0
 20 23  1  0
 21 22  1  0
 21 18  1  0
 22 20  2  0
 23 24  1  0
 24 25  2  0
 26 29  1  0
 26 25  1  0
 27 26  2  0
 28 27  1  0
 28 23  2  0
 29 30  1  0
 30 35  2  0
 30 31  1  0
 31 32  2  0
 32 33  1  0
 33 37  1  0
 34 33  2  0
 35 34  1  0
 36 35  1  0
 38 39  1  0
 39 42  1  0
 39 41  1  0
 40 38  2  0
 43 18  1  0
 43 44  1  0
 45 43  1  0
 46 47  1  0
 46  1  2  0
 48 49  1  0
 48 47  1  0
 50 61  2  0
 51 49  1  0
 51 56  1  0
 52 60  1  0
 52 62  1  0
 53 59  1  0
 53 55  1  0
 54 60  1  0
 55 54  1  0
 56 55  2  0
 57 51  2  0
 58 57  1  0
 58 53  2  0
 59 52  1  0
 60 50  1  0
 62 64  2  0
 63 62  1  0
 65 63  1  0
 66 75  2  0
 66 71  1  0
 67 63  1  0
 67 71  1  0
 68 67  1  0
 69 70  1  0
 69 68  1  0
 70 66  1  0
 71 72  2  0
 72 73  1  0
 74 73  2  0
 75 74  1  0
 76 50  1  0
 76 77  1  0
 76 86  1  0
 77 80  1  0
 78 82  1  0
 78 77  1  0
 79 78  2  0
 82 81  1  0
 84 82  1  0
 84 85  1  0
 84 83  1  0
 86 89  1  1
 86 87  1  0
 88 86  1  0
M  ISO  4   5 100  16 100  48 101  49 101
M  END
>  <TORSDO>  (7) 
F 21

>  <SCORE>  (7) 
-11.816

>  <name>  (7) 
6

>  <ligand_id>  (7) 
6

>  <original_smiles>  (7) 
[H]c1c([H])c([H])c2c(c1[H])C([H])([H])C([H])([H])C([H])([H])C2([H])N([H])C(=O)C1([H])N(C(=O)C([H])(N([H])C(=O)C([H])(N([H])C([H])([H])[H])C([H])([H])[H])C(C([H])([H])[H])(C([H])([H])[H])C([H])([H])[H])C([H])([H])c2c([H])c(OC([H])([H])C([H])([H])C([H])([H])C([H])([H])C(=O)C([H])([H])C3([H])N(C(=O)N4C([H])([H])C([H])([H])C([H])([H])C([H])(n5nc(-c6c([H])c([H])c(Oc7c([H])c([H])c(F)c([H])c7F)c([H])c6[H])c(C(=O)N([H])[H])c5N([H])[H])C4([H])[H])C(=O)C3([H])[H])c([H])c([H])c2C1([H])[H]

>  <smiles>  (7) 
[H]c1c([H])c([H])c2c(c1[H])C([H])([H])C([H])([H])C([H])([H])C2([H])N([H])C(=O)C1([H])N(C(=O)C([H])(N([H])C(=O)C([H])(N([H])C([H])([H])[H])C([H])([H])[H])C(C([H])([H])[H])(C([H])([H])[H])C([H])([H])[H])C([H])([H])c2c([H])c(OC([H])([H])C([H])([H])C([H])([H])C([H])([H])C(=O)C([H])([H])C3([H])N(C(=O)N4C([H])([H])C([H])([H])C([H])([H])C([H])(n5nc(-c6c([H])c([H])c(Oc7c([H])c([H])c(F)c([H])c7F)c([H])c6[H])c(C(=O)N([H])[H])c5N([H])[H])C4([H])[H])C(=O)C3([H])[H])c([H])c([H])c2C1([H])[H]

$$$$
7:0:0
     RDKit          3D

 96104  0  0  1  0  0  0  0  0999 V2000
  -29.7000  -20.1450   18.6700 C   0  0  0  0  0  0  0  0  0  0  0  0
  -29.3720  -19.3450   19.6930 N   0  0  0  0  0  0  0  0  0  0  0  0
  -30.8170  -20.1560   18.1550 O   0  0  0  0  0  0  0  0  0  0  0  0
  -28.4350  -19.4440   20.0630 H   0  0  0  0  0  0  0  0  0  0  0  0
  -30.6720  -15.0470   20.6290 C   0  0  0  0  0  0  0  0  0  0  0  0
  -30.5550  -12.7890   19.6660 C   0  0  0  0  0  2  0  0  0  0  0  0
  -29.6530  -12.7960   18.4150 C   0  0  0  0  0  2  0  0  0  0  0  0
  -28.1690  -12.6170   18.7880 C   0  0  0  0  0  2  0  0  0  0  0  0
  -27.7220  -13.5490   19.9480 C   0  0  0  0  0  3  0  0  0  0  0  0
  -28.7350  -13.5100   21.1120 C   0  0  0  0  0  2  0  0  0  0  0  0
  -30.0660  -13.8350   20.5720 N   0  0  0  0  0  0  0  0  0  0  0  0
  -31.7890  -15.2770   20.1510 O   0  0  0  0  0  0  0  0  0  0  0  0
  -30.4850  -16.9090   22.1860 C   0  0  0  0  0  2  0  0  0  0  0  0
  -29.3150  -16.9470   20.1570 C   0  0  0  0  0  2  0  0  0  0  0  0
  -30.6430  -18.3380   21.6200 C   0  0  0  0  0  3  0  0  0  0  0  0
  -30.1650  -18.2150   20.1650 C   0  0  0  0  0  3  0  0  0  0  0  0
  -29.9260  -16.0500   21.1350 N   0  0  0  0  0  0  0  0  0  0  0  0
  -25.2960  -14.0750   20.6290 C   0  0  0  0  0  0  0  0  0  0  0  0
  -24.2460  -13.2640   20.9690 C   0  0  0  0  0  0  0  0  0  0  0  0
  -24.7470  -11.9270   20.9280 C   0  0  0  0  0  0  0  0  0  0  0  0
  -26.3700  -13.2270   20.4030 N   0  0  0  0  0  0  0  0  0  0  0  0
  -26.0430  -11.9310   20.6390 N   0  0  0  0  0  0  0  0  0  0  0  0
  -24.0590  -10.6400   21.0870 C   0  0  0  0  0  0  0  0  0  0  0  0
  -24.4730   -9.6950   22.0530 C   0  0  0  0  0  3  0  0  0  0  0  0
  -23.7840   -8.4710   22.2000 C   0  0  0  0  0  3  0  0  0  0  0  0
  -22.6650   -8.1860   21.3810 C   0  0  0  0  0  0  0  0  0  0  0  0
  -22.2700   -9.1190   20.4060 C   0  0  0  0  0  3  0  0  0  0  0  0
  -22.9620  -10.3330   20.2580 C   0  0  0  0  0  3  0  0  0  0  0  0
  -21.9500   -7.0130   21.4340 O   0  0  0  0  0  0  0  0  0  0  0  0
  -21.8140   -6.3060   22.6020 C   0  0  0  0  0  0  0  0  0  0  0  0
  -21.2000   -6.8640   23.7440 C   0  0  0  0  0  3  0  0  0  0  0  0
  -21.0180   -6.0790   24.8990 C   0  0  0  0  0  3  0  0  0  0  0  0
  -21.4400   -4.7360   24.9150 C   0  0  0  0  0  0  0  0  0  0  0  0
  -22.0470   -4.1770   23.7760 C   0  0  0  0  0  3  0  0  0  0  0  0
  -22.2310   -4.9600   22.6230 C   0  0  0  0  0  0  0  0  0  0  0  0
  -22.7950   -4.4100   21.5210 F   0  0  0  0  0  0  0  0  0  0  0  0
  -21.2590   -3.9780   26.0220 F   0  0  0  0  0  0  0  0  0  0  0  0
  -22.8330  -13.6930   21.2260 C   0  0  0  0  0  0  0  0  0  0  0  0
  -22.1120  -12.9540   22.0650 N   0  0  0  0  0  0  0  0  0  0  0  0
  -22.3700  -14.7140   20.7180 O   0  0  0  0  0  0  0  0  0  0  0  0
  -22.4940  -12.1300   22.5010 H   0  0  0  0  0  0  0  0  0  0  0  0
  -21.1610  -13.2190   22.2770 H   0  0  0  0  0  0  0  0  0  0  0  0
  -25.4240  -15.4510   20.4710 N   0  0  0  0  0  0  0  0  0  0  0  0
  -24.6450  -16.0920   20.5730 H   0  0  0  0  0  0  0  0  0  0  0  0
  -26.2780  -15.9160   20.1840 H   0  0  0  0  0  0  0  0  0  0  0  0
  -32.0840  -18.8930   21.7310 C   0  0  0  0  0  2  0  0  0  0  0  0
  -32.2990  -19.7030   22.9450 N   0  0  0  0  0  4  0  0  0  0  0  0
  -31.6300  -20.4460   23.0060 H   0  0  0  0  0  0  0  0  0  0  0  0
  -33.2170  -20.1110   22.9180 H   0  0  0  0  0  0  0  0  0  0  0  0
  -32.2430  -19.1380   23.7750 H   0  0  0  0  0  0  0  0  0  0  0  0
  -28.5880  -21.0320   18.1120 C   0  0  0  0  0  2  0  0  0  0  0  0
  -28.3590  -22.3000   18.9530 C   0  0  0  0  0  2  0  0  0  0  0  0
  -28.1430  -23.5730   18.1200 C   0  0  0  0  0  2  0  0  0  0  0  0
  -27.8750  -24.7750   19.0330 C   0  0  0  0  0  2  0  0  0  0  0  0
  -27.9430  -26.1250   18.3150 C   0  0  0  0  0  2  0  0  0  0  0  0
  -27.8920  -27.1450   19.3080 O   0  0  0  0  0  0  0  0  0  0  0  0
  -24.5700  -31.9020   23.3930 C   0  0  0  0  0  0  0  0  0  0  0  0
  -26.7050  -27.7990   19.5480 C   0  0  0  0  0  0  0  0  0  0  0  0
  -23.1420  -30.7380   21.7410 C   0  0  0  0  0  3  0  0  0  0  0  0
  -24.3740  -29.3250   20.0120 C   0  0  0  0  0  0  0  0  0  0  0  0
  -25.6460  -31.0380   21.3200 C   0  0  0  0  0  2  0  0  0  0  0  0
  -25.6020  -29.7460   20.5340 C   0  0  0  0  0  0  0  0  0  0  0  0
  -26.7640  -28.9820   20.3130 C   0  0  0  0  0  3  0  0  0  0  0  0
  -25.4510  -27.3610   19.0600 C   0  0  0  0  0  3  0  0  0  0  0  0
  -24.2890  -28.1270   19.2840 C   0  0  0  0  0  3  0  0  0  0  0  0
  -23.1790  -30.2100   20.2800 C   0  0  0  0  0  2  0  0  0  0  0  0
  -24.4770  -31.2340   22.2090 N   0  0  0  0  0  0  0  0  0  0  0  0
  -23.5620  -32.1440   24.0720 O   0  0  0  0  0  0  0  0  0  0  0  0
  -22.5490  -29.6320   22.6430 C   0  0  0  0  0  0  0  0  0  0  0  0
  -21.2310  -29.4100   22.5240 N   0  0  0  0  0  0  0  0  0  0  0  0
  -23.2720  -28.9800   23.4020 O   0  0  0  0  0  0  0  0  0  0  0  0
  -20.7090  -29.9870   21.8790 H   0  0  0  0  0  0  0  0  0  0  0  0
  -17.9440  -27.9670   22.8800 C   0  0  0  0  0  0  0  0  0  0  0  0
  -20.4640  -28.3970   23.2460 C   0  0  0  0  0  3  0  0  0  0  0  0
  -20.6890  -26.9940   22.6380 C   0  0  0  0  0  2  0  0  0  0  0  0
  -19.6460  -26.6200   21.5790 C   0  0  0  0  0  2  0  0  0  0  0  0
  -18.2380  -26.6520   22.1800 C   0  0  0  0  0  2  0  0  0  0  0  0
  -18.9890  -28.7940   23.3670 C   0  0  0  0  0  0  0  0  0  0  0  0
  -18.6610  -30.0250   23.9780 C   0  0  0  0  0  3  0  0  0  0  0  0
  -17.3190  -30.4290   24.1080 C   0  0  0  0  0  3  0  0  0  0  0  0
  -16.2870  -29.5980   23.6390 C   0  0  0  0  0  3  0  0  0  0  0  0
  -16.5990  -28.3690   23.0300 C   0  0  0  0  0  3  0  0  0  0  0  0
  -25.9390  -32.4120   23.9410 C   0  0  0  0  0  3  0  0  0  0  0  0
  -26.4990  -31.5370   25.1280 C   0  0  1  0  0  0  0  0  0  0  0  0
  -25.4740  -31.3080   26.2640 C   0  0  0  0  0  1  0  0  0  0  0  0
  -26.9570  -30.1530   24.6150 C   0  0  0  0  0  1  0  0  0  0  0  0
  -27.7480  -32.2170   25.7350 C   0  0  0  0  0  1  0  0  0  0  0  0
  -25.7550  -33.8050   24.3630 N   0  0  0  0  0  0  0  0  0  0  0  0
  -26.1350  -34.8710   23.6480 C   0  0  0  0  0  0  0  0  0  0  0  0
  -26.7480  -34.7780   22.5810 O   0  0  0  0  0  0  0  0  0  0  0  0
  -25.2060  -33.9570   25.1970 H   0  0  0  0  0  0  0  0  0  0  0  0
  -24.5410  -36.8060   23.4620 C   0  0  0  0  0  1  0  0  0  0  0  0
  -25.7750  -36.2630   24.2010 C   0  0  0  0  0  3  0  0  0  0  0  0
  -27.9950  -36.9350   25.0060 C   0  0  0  0  0  1  0  0  0  0  0  0
  -26.8830  -37.2380   24.1080 N   0  0  0  0  0  0  0  0  0  0  0  0
  -26.5560  -38.1790   24.3120 H   0  0  0  0  0  0  0  0  0  0  0  0
  1  2  1  0
  2  4  1  0
  3  1  2  0
  5 17  1  0
  6 11  1  0
  7  8  1  0
  7  6  1  0
  9  8  1  0
  9 21  1  0
  9 10  1  0
 11  5  1  0
 11 10  1  0
 12  5  2  0
 14 16  1  0
 14 17  1  0
 15 46  1  0
 15 13  1  0
 16  2  1  0
 16 15  1  0
 17 13  1  0
 18 19  2  0
 19 38  1  0
 20 19  1  0
 20 23  1  0
 21 18  1  0
 21 22  1  0
 22 20  2  0
 23 24  1  0
 24 25  2  0
 26 29  1  0
 26 25  1  0
 27 26  2  0
 28 27  1  0
 28 23  2  0
 29 30  1  0
 30 35  2  0
 30 31  1  0
 31 32  2  0
 32 33  1  0
 33 37  1  0
 34 33  2  0
 35 34  1  0
 36 35  1  0
 38 39  1  0
 39 42  1  0
 39 41  1  0
 40 38  2  0
 43 44  1  0
 43 18  1  0
 45 43  1  0
 46 47  1  0
 47 48  1  0
 47 50  1  0
 49 47  1  0
 51  1  1  0
 51 52  1  0
 53 52  1  0
 53 54  1  0
 55 54  1  0
 55 56  1  0
 56 58  1  0
 57 68  2  0
 58 63  1  0
 59 67  1  0
 59 69  1  0
 60 66  1  0
 60 62  1  0
 61 67  1  0
 62 61  1  0
 63 62  2  0
 64 65  1  0
 64 58  2  0
 65 60  2  0
 66 59  1  0
 67 57  1  0
 69 71  2  0
 70 69  1  0
 72 70  1  0
 73 82  2  0
 73 78  1  0
 74 70  1  0
 74 78  1  0
 75 74  1  0
 76 77  1  0
 76 75  1  0
 77 73  1  0
 78 79  2  0
 79 80  1  0
 81 80  2  0
 82 81  1  0
 83 57  1  0
 83 88  1  0
 83 84  1  0
 84 87  1  1
 84 85  1  0
 86 84  1  0
 88 91  1  0
 89 93  1  0
 89 88  1  0
 90 89  2  0
 93 92  1  0
 95 93  1  0
 95 96  1  0
 95 94  1  0
M  ISO  4   5 100  17 100  55 101  56 101
M  END
>  <TORSDO>  (8) 
F 23

>  <SCORE>  (8) 
-12.551

>  <name>  (8) 
7

>  <ligand_id>  (8) 
7

>  <original_smiles>  (8) 
[H]c1c([H])c([H])c2c(c1[H])C([H])([H])C([H])([H])C([H])([H])C2([H])N([H])C(=O)C1([H])N(C(=O)C([H])(N([H])C(=O)C([H])(N([H])C([H])([H])[H])C([H])([H])[H])C(C([H])([H])[H])(C([H])([H])[H])C([H])([H])[H])C([H])([H])c2c([H])c(OC([H])([H])C([H])([H])C([H])([H])C([H])([H])C([H])([H])C(=O)N([H])C3([H])C([H])([H])N(C(=O)N4C([H])([H])C([H])([H])C([H])([H])C([H])(n5nc(-c6c([H])c([H])c(Oc7c([H])c([H])c(F)c([H])c7F)c([H])c6[H])c(C(=O)N([H])[H])c5N([H])[H])C4([H])[H])C([H])([H])C3([H])C([H])([H])[N+]([H])([H])[H])c([H])c([H])c2C1([H])[H]

>  <smiles>  (8) 
[H]c1c([H])c([H])c2c(c1[H])C([H])([H])C([H])([H])C([H])([H])C2([H])N([H])C(=O)C1([H])N(C(=O)C([H])(N([H])C(=O)C([H])(N([H])C([H])([H])[H])C([H])([H])[H])C(C([H])([H])[H])(C([H])([H])[H])C([H])([H])[H])C([H])([H])c2c([H])c(OC([H])([H])C([H])([H])C([H])([H])C([H])([H])C([H])([H])C(=O)N([H])C3([H])C([H])([H])N(C(=O)N4C([H])([H])C([H])([H])C([H])([H])C([H])(n5nc(-c6c([H])c([H])c(Oc7c([H])c([H])c(F)c([H])c7F)c([H])c6[H])c(C(=O)N([H])[H])c5N([H])[H])C4([H])[H])C([H])([H])C3([H])C([H])([H])[N+]([H])([H])[H])c([H])c([H])c2C1([H])[H]

$$$$
8:0:0
     RDKit          3D

 93101  0  0  1  0  0  0  0  0999 V2000
  -31.3290  -16.8530   22.0240 C   0  0  0  0  0  0  0  0  0  0  0  0
  -31.9800  -18.2330   21.9480 C   0  0  0  0  0  2  0  0  0  0  0  0
  -29.6230  -17.6830   20.2770 C   0  0  0  0  0  2  0  0  0  0  0  0
  -31.0510  -19.3830   22.3870 C   0  0  0  0  0  2  0  0  0  0  0  0
  -29.1700  -19.0870   20.7520 C   0  0  0  0  0  2  0  0  0  0  0  0
  -29.9160  -16.6910   21.4340 C   0  0  0  0  0  3  0  0  0  0  0  0
  -30.2400  -19.9840   21.2850 N   0  0  1  0  0  4  0  0  0  0  0  0
  -31.9400  -15.9230   22.5590 O   0  0  0  0  0  0  0  0  0  0  0  0
  -30.8830  -20.1890   20.5330 H   0  0  0  0  0  0  0  0  0  0  0  0
  -30.0300  -14.6160   19.9730 C   0  0  0  0  0  0  0  0  0  0  0  0
  -29.6370  -12.5970   18.6070 C   0  0  0  0  0  2  0  0  0  0  0  0
  -28.5220  -12.8470   17.5740 C   0  0  0  0  0  2  0  0  0  0  0  0
  -27.1320  -12.5910   18.1870 C   0  0  0  0  0  2  0  0  0  0  0  0
  -26.9420  -13.3040   19.5500 C   0  0  0  0  0  3  0  0  0  0  0  0
  -28.1440  -13.0210   20.4770 C   0  0  0  0  0  2  0  0  0  0  0  0
  -29.3800  -13.4390   19.7840 N   0  0  0  0  0  0  0  0  0  0  0  0
  -30.9150  -15.0370   19.2210 O   0  0  0  0  0  0  0  0  0  0  0  0
  -29.6260  -15.3010   21.0520 N   0  0  0  0  0  0  0  0  0  0  0  0
  -28.9590  -14.8160   21.6350 H   0  0  0  0  0  0  0  0  0  0  0  0
  -24.6300  -13.7330   20.6050 C   0  0  0  0  0  0  0  0  0  0  0  0
  -23.6590  -12.8800   21.0540 C   0  0  0  0  0  0  0  0  0  0  0  0
  -24.1730  -11.5610   20.8600 C   0  0  0  0  0  0  0  0  0  0  0  0
  -25.6750  -12.9290   20.1740 N   0  0  0  0  0  0  0  0  0  0  0  0
  -25.4080  -11.6130   20.3780 N   0  0  0  0  0  0  0  0  0  0  0  0
  -23.5380  -10.2510   21.0500 C   0  0  0  0  0  0  0  0  0  0  0  0
  -24.0820   -9.2860   21.9280 C   0  0  0  0  0  3  0  0  0  0  0  0
  -23.4420   -8.0400   22.1060 C   0  0  0  0  0  3  0  0  0  0  0  0
  -22.2470   -7.7500   21.4060 C   0  0  0  0  0  0  0  0  0  0  0  0
  -21.7240   -8.7050   20.5170 C   0  0  0  0  0  3  0  0  0  0  0  0
  -22.3630   -9.9420   20.3370 C   0  0  0  0  0  3  0  0  0  0  0  0
  -21.5720   -6.5550   21.4970 O   0  0  0  0  0  0  0  0  0  0  0  0
  -21.5700   -5.8160   22.6530 C   0  0  0  0  0  0  0  0  0  0  0  0
  -21.0800   -6.3370   23.8700 C   0  0  0  0  0  3  0  0  0  0  0  0
  -21.0310   -5.5200   25.0180 C   0  0  0  0  0  3  0  0  0  0  0  0
  -21.4630   -4.1830   24.9490 C   0  0  0  0  0  0  0  0  0  0  0  0
  -21.9460   -3.6610   23.7370 C   0  0  0  0  0  3  0  0  0  0  0  0
  -21.9960   -4.4740   22.5910 C   0  0  0  0  0  0  0  0  0  0  0  0
  -22.4420   -3.9590   21.4200 F   0  0  0  0  0  0  0  0  0  0  0  0
  -21.4090   -3.3950   26.0490 F   0  0  0  0  0  0  0  0  0  0  0  0
  -22.2910  -13.2580   21.5480 C   0  0  0  0  0  0  0  0  0  0  0  0
  -21.7270  -12.4690   22.4550 N   0  0  0  0  0  0  0  0  0  0  0  0
  -21.7360  -14.2880   21.1650 O   0  0  0  0  0  0  0  0  0  0  0  0
  -22.1900  -11.6330   22.7810 H   0  0  0  0  0  0  0  0  0  0  0  0
  -20.8180  -12.7030   22.8280 H   0  0  0  0  0  0  0  0  0  0  0  0
  -24.7070  -15.1190   20.5110 N   0  0  0  0  0  0  0  0  0  0  0  0
  -23.9340  -15.7220   20.7700 H   0  0  0  0  0  0  0  0  0  0  0  0
  -25.4860  -15.6230   20.1070 H   0  0  0  0  0  0  0  0  0  0  0  0
  -29.6810  -21.3030   21.7110 C   0  0  0  0  0  2  0  0  0  0  0  0
  -29.3370  -22.2690   20.5550 C   0  0  0  0  0  2  0  0  0  0  0  0
  -28.8550  -23.6320   21.0890 C   0  0  0  0  0  2  0  0  0  0  0  0
  -28.5450  -24.6720   19.9980 C   0  0  0  0  0  2  0  0  0  0  0  0
  -28.0930  -26.0180   20.5900 C   0  0  0  0  0  2  0  0  0  0  0  0
  -27.8170  -26.9330   19.5360 O   0  0  0  0  0  0  0  0  0  0  0  0
  -24.4390  -32.0160   23.2060 C   0  0  0  0  0  0  0  0  0  0  0  0
  -26.6800  -27.6740   19.7180 C   0  0  0  0  0  0  0  0  0  0  0  0
  -23.0560  -30.7320   21.6050 C   0  0  0  0  0  3  0  0  0  0  0  0
  -24.3390  -29.2160   20.0040 C   0  0  0  0  0  0  0  0  0  0  0  0
  -25.5650  -31.0290   21.2170 C   0  0  0  0  0  2  0  0  0  0  0  0
  -25.5550  -29.6870   20.5170 C   0  0  0  0  0  0  0  0  0  0  0  0
  -26.7320  -28.9210   20.3740 C   0  0  0  0  0  3  0  0  0  0  0  0
  -25.4540  -27.2040   19.2100 C   0  0  0  0  0  3  0  0  0  0  0  0
  -24.2810  -27.9700   19.3550 C   0  0  0  0  0  3  0  0  0  0  0  0
  -23.1310  -30.1070   20.1850 C   0  0  0  0  0  2  0  0  0  0  0  0
  -24.3770  -31.2690   22.0680 N   0  0  0  0  0  0  0  0  0  0  0  0
  -23.4140  -32.2970   23.8430 O   0  0  0  0  0  0  0  0  0  0  0  0
  -22.4480  -29.6890   22.5680 C   0  0  0  0  0  0  0  0  0  0  0  0
  -21.1230  -29.4890   22.4710 N   0  0  0  0  0  0  0  0  0  0  0  0
  -23.1610  -29.0630   23.3560 O   0  0  0  0  0  0  0  0  0  0  0  0
  -20.6080  -30.0480   21.8060 H   0  0  0  0  0  0  0  0  0  0  0  0
  -17.7910  -28.1970   22.9880 C   0  0  0  0  0  0  0  0  0  0  0  0
  -20.3400  -28.5290   23.2470 C   0  0  0  0  0  3  0  0  0  0  0  0
  -20.4820  -27.1000   22.6730 C   0  0  0  0  0  2  0  0  0  0  0  0
  -19.3840  -26.7440   21.6640 C   0  0  0  0  0  2  0  0  0  0  0  0
  -18.0020  -26.8510   22.3150 C   0  0  0  0  0  2  0  0  0  0  0  0
  -18.8890  -28.9920   23.4110 C   0  0  0  0  0  0  0  0  0  0  0  0
  -18.6360  -30.2510   23.9980 C   0  0  0  0  0  3  0  0  0  0  0  0
  -17.3190  -30.7150   24.1680 C   0  0  0  0  0  3  0  0  0  0  0  0
  -16.2350  -29.9180   23.7610 C   0  0  0  0  0  3  0  0  0  0  0  0
  -16.4720  -28.6600   23.1780 C   0  0  0  0  0  3  0  0  0  0  0  0
  -25.7920  -32.5730   23.7480 C   0  0  0  0  0  3  0  0  0  0  0  0
  -25.5770  -33.9790   24.1160 N   0  0  0  0  0  0  0  0  0  0  0  0
  -25.9340  -35.0250   23.3580 C   0  0  0  0  0  0  0  0  0  0  0  0
  -26.5500  -34.9030   22.2960 O   0  0  0  0  0  0  0  0  0  0  0  0
  -25.0280  -34.1510   24.9460 H   0  0  0  0  0  0  0  0  0  0  0  0
  -24.2890  -36.9110   23.1100 C   0  0  0  0  0  1  0  0  0  0  0  0
  -25.5420  -36.4270   23.8580 C   0  0  0  0  0  3  0  0  0  0  0  0
  -27.7530  -37.1840   24.6110 C   0  0  0  0  0  1  0  0  0  0  0  0
  -26.6240  -37.4270   23.7170 N   0  0  0  0  0  0  0  0  0  0  0  0
  -26.2740  -38.3630   23.8960 H   0  0  0  0  0  0  0  0  0  0  0  0
  -26.3560  -31.7530   24.9720 C   0  0  1  0  0  0  0  0  0  0  0  0
  -25.3210  -31.5270   26.0980 C   0  0  0  0  0  1  0  0  0  0  0  0
  -26.8640  -30.3670   24.5130 C   0  0  0  0  0  1  0  0  0  0  0  0
  -27.5730  -32.4890   25.5820 C   0  0  0  0  0  1  0  0  0  0  0  0
  1  8  2  0
  2  1  1  0
  2  4  1  0
  3  5  1  0
  3  6  1  0
  5  7  1  0
  6 18  1  0
  6  1  1  0
  7 48  1  0
  7  4  1  0
  7  9  1  6
 10 18  1  0
 11 16  1  0
 12 13  1  0
 12 11  1  0
 14 13  1  0
 14 23  1  0
 14 15  1  0
 16 10  1  0
 16 15  1  0
 17 10  2  0
 18 19  1  0
 20 21  2  0
 21 40  1  0
 22 25  1  0
 22 21  1  0
 23 24  1  0
 23 20  1  0
 24 22  2  0
 25 26  1  0
 26 27  2  0
 28 31  1  0
 28 27  1  0
 29 28  2  0
 30 29  1  0
 30 25  2  0
 31 32  1  0
 32 33  1  0
 33 34  2  0
 35 34  1  0
 35 39  1  0
 36 35  2  0
 37 32  2  0
 37 36  1  0
 38 37  1  0
 40 41  1  0
 41 43  1  0
 41 44  1  0
 42 40  2  0
 45 20  1  0
 45 46  1  0
 47 45  1  0
 49 50  1  0
 49 48  1  0
 51 52  1  0
 51 50  1  0
 53 55  1  0
 53 52  1  0
 54 65  2  0
 55 60  1  0
 56 64  1  0
 56 66  1  0
 57 63  1  0
 57 59  1  0
 58 64  1  0
 59 58  1  0
 60 59  2  0
 61 62  1  0
 61 55  2  0
 62 57  2  0
 63 56  1  0
 64 54  1  0
 66 68  2  0
 67 66  1  0
 69 67  1  0
 70 79  2  0
 70 75  1  0
 71 67  1  0
 71 75  1  0
 72 71  1  0
 73 74  1  0
 73 72  1  0
 74 70  1  0
 75 76  2  0
 76 77  1  0
 78 77  2  0
 79 78  1  0
 80 54  1  0
 80 81  1  0
 80 90  1  0
 81 84  1  0
 82 86  1  0
 82 81  1  0
 83 82  2  0
 86 85  1  0
 88 86  1  0
 88 89  1  0
 88 87  1  0
 90 93  1  1
 90 91  1  0
 92 90  1  0
M  ISO  4  10 100  18 100  52 101  53 101
M  END
>  <TORSDO>  (9) 
F 21

>  <SCORE>  (9) 
-10.621

>  <name>  (9) 
8

>  <ligand_id>  (9) 
8

>  <original_smiles>  (9) 
[H]c1c([H])c([H])c2c(c1[H])C([H])([H])C([H])([H])C([H])([H])C2([H])N([H])C(=O)C1([H])N(C(=O)C([H])(N([H])C(=O)C([H])(N([H])C([H])([H])[H])C([H])([H])[H])C(C([H])([H])[H])(C([H])([H])[H])C([H])([H])[H])C([H])([H])c2c([H])c(OC([H])([H])C([H])([H])C([H])([H])C([H])([H])C([H])([H])[N+]3([H])C([H])([H])C([H])([H])C(=O)C([H])(N([H])C(=O)N4C([H])([H])C([H])([H])C([H])([H])C([H])(n5nc(-c6c([H])c([H])c(Oc7c([H])c([H])c(F)c([H])c7F)c([H])c6[H])c(C(=O)N([H])[H])c5N([H])[H])C4([H])[H])C([H])([H])C3([H])[H])c([H])c([H])c2C1([H])[H]

>  <smiles>  (9) 
[H]c1c([H])c([H])c2c(c1[H])C([H])([H])C([H])([H])C([H])([H])C2([H])N([H])C(=O)C1([H])N(C(=O)C([H])(N([H])C(=O)C([H])(N([H])C([H])([H])[H])C([H])([H])[H])C(C([H])([H])[H])(C([H])([H])[H])C([H])([H])[H])C([H])([H])c2c([H])c(OC([H])([H])C([H])([H])C([H])([H])C([H])([H])C([H])([H])[N+]3([H])C([H])([H])C([H])([H])C(=O)C([H])(N([H])C(=O)N4C([H])([H])C([H])([H])C([H])([H])C([H])(n5nc(-c6c([H])c([H])c(Oc7c([H])c([H])c(F)c([H])c7F)c([H])c6[H])c(C(=O)N([H])[H])c5N([H])[H])C4([H])[H])C([H])([H])C3([H])[H])c([H])c([H])c2C1([H])[H]

$$$$
9:0:0
     RDKit          3D

 98106  0  0  1  0  0  0  0  0999 V2000
  -30.4190  -19.2040   20.7410 C   0  0  0  0  0  2  0  0  0  0  0  0
  -29.2660  -20.2070   20.9140 C   0  0  0  0  0  2  0  0  0  0  0  0
  -27.6540  -19.9120   19.1030 C   0  0  0  0  0  2  0  0  0  0  0  0
  -28.6940  -17.5080   19.5640 C   0  0  0  0  0  3  0  0  0  0  0  0
  -30.1320  -17.8000   20.1200 C   0  0  0  0  0  3  0  0  0  0  0  0
  -28.0930  -18.5330   18.5500 C   0  0  0  0  0  3  0  0  0  0  0  0
  -28.9140  -18.6720   17.2560 C   0  0  0  0  0  1  0  0  0  0  0  0
  -28.7860  -20.7270   19.6080 N   0  0  1  0  0  4  0  0  0  0  0  0
  -29.5390  -20.6010   18.9490 H   0  0  0  0  0  0  0  0  0  0  0  0
  -27.2010  -15.8550   20.7730 C   0  0  0  0  0  2  0  0  0  0  0  0
  -27.6810  -17.1010   20.6250 C   0  0  0  0  0  3  0  0  0  0  0  0
  -28.5040  -22.1970   19.5820 C   0  0  0  0  0  2  0  0  0  0  0  0
  -29.7690  -23.0890   19.7310 C   0  0  0  0  0  2  0  0  0  0  0  0
  -30.9820  -25.2880   19.4020 C   0  0  0  0  0  1  0  0  0  0  0  0
  -29.6200  -24.5700   19.2930 C   0  0  0  0  0  3  0  0  0  0  0  0
  -28.5500  -25.3280   20.1000 C   0  0  0  0  0  2  0  0  0  0  0  0
  -28.5770  -26.7160   19.7650 O   0  0  0  0  0  0  0  0  0  0  0  0
  -24.6310  -31.6140   23.0270 C   0  0  0  0  0  0  0  0  0  0  0  0
  -27.3790  -27.3810   19.8000 C   0  0  0  0  0  0  0  0  0  0  0  0
  -23.4600  -30.2650   21.3150 C   0  0  0  0  0  3  0  0  0  0  0  0
  -24.9500  -28.8140   19.8400 C   0  0  0  0  0  0  0  0  0  0  0  0
  -25.9750  -30.6910   21.1460 C   0  0  0  0  0  2  0  0  0  0  0  0
  -26.0890  -29.3480   20.4560 C   0  0  0  0  0  0  0  0  0  0  0  0
  -27.3080  -28.6370   20.4360 C   0  0  0  0  0  3  0  0  0  0  0  0
  -26.2290  -26.8530   19.1750 C   0  0  0  0  0  3  0  0  0  0  0  0
  -25.0120  -27.5630   19.2000 C   0  0  0  0  0  3  0  0  0  0  0  0
  -23.6860  -29.6430   19.9100 C   0  0  0  0  0  2  0  0  0  0  0  0
  -24.7060  -30.8710   21.8880 N   0  0  0  0  0  0  0  0  0  0  0  0
  -23.5420  -31.8410   23.5710 O   0  0  0  0  0  0  0  0  0  0  0  0
  -22.8260  -29.1930   22.2280 C   0  0  0  0  0  0  0  0  0  0  0  0
  -21.4980  -29.0250   22.1190 N   0  0  0  0  0  0  0  0  0  0  0  0
  -23.5250  -28.5120   22.9850 O   0  0  0  0  0  0  0  0  0  0  0  0
  -20.9920  -29.6280   21.4850 H   0  0  0  0  0  0  0  0  0  0  0  0
  -18.1200  -27.8790   22.6690 C   0  0  0  0  0  0  0  0  0  0  0  0
  -20.6920  -28.0480   22.8500 C   0  0  0  0  0  3  0  0  0  0  0  0
  -20.7310  -26.6670   22.1600 C   0  0  0  0  0  2  0  0  0  0  0  0
  -19.5830  -26.4530   21.1720 C   0  0  0  0  0  2  0  0  0  0  0  0
  -18.2310  -26.5830   21.8810 C   0  0  0  0  0  2  0  0  0  0  0  0
  -19.2760  -28.5750   23.1100 C   0  0  0  0  0  0  0  0  0  0  0  0
  -19.1170  -29.7950   23.8020 C   0  0  0  0  0  3  0  0  0  0  0  0
  -17.8360  -30.3150   24.0620 C   0  0  0  0  0  3  0  0  0  0  0  0
  -16.6940  -29.6150   23.6330 C   0  0  0  0  0  3  0  0  0  0  0  0
  -16.8360  -28.3990   22.9410 C   0  0  0  0  0  3  0  0  0  0  0  0
  -25.9010  -32.2390   23.6830 C   0  0  0  0  0  3  0  0  0  0  0  0
  -25.5740  -33.6230   24.0500 N   0  0  0  0  0  0  0  0  0  0  0  0
  -25.9180  -34.7000   23.3310 C   0  0  0  0  0  0  0  0  0  0  0  0
  -26.6130  -34.6350   22.3130 O   0  0  0  0  0  0  0  0  0  0  0  0
  -24.9590  -33.7510   24.8400 H   0  0  0  0  0  0  0  0  0  0  0  0
  -24.1760  -36.4790   23.0070 C   0  0  0  0  0  1  0  0  0  0  0  0
  -25.4090  -36.0670   23.8250 C   0  0  0  0  0  3  0  0  0  0  0  0
  -27.5230  -36.9450   24.7120 C   0  0  0  0  0  1  0  0  0  0  0  0
  -26.4300  -37.1340   23.7610 N   0  0  0  0  0  0  0  0  0  0  0  0
  -26.0090  -38.0420   23.9350 H   0  0  0  0  0  0  0  0  0  0  0  0
  -26.4130  -31.4340   24.9390 C   0  0  1  0  0  0  0  0  0  0  0  0
  -25.3100  -31.1470   25.9850 C   0  0  0  0  0  1  0  0  0  0  0  0
  -27.0140  -30.0770   24.5000 C   0  0  0  0  0  1  0  0  0  0  0  0
  -27.5440  -32.2210   25.6400 C   0  0  0  0  0  1  0  0  0  0  0  0
  -30.7900  -16.6640   20.9820 C   0  0  0  0  0  3  0  0  0  0  0  0
  -30.8100  -14.3660   19.9580 C   0  0  0  0  0  0  0  0  0  0  0  0
  -30.3680  -12.2560   18.7680 C   0  0  0  0  0  2  0  0  0  0  0  0
  -29.3750  -12.5210   17.6180 C   0  0  0  0  0  2  0  0  0  0  0  0
  -27.9190  -12.4270   18.1140 C   0  0  0  0  0  2  0  0  0  0  0  0
  -27.6740  -13.2460   19.4110 C   0  0  0  0  0  3  0  0  0  0  0  0
  -28.7750  -12.9610   20.4590 C   0  0  0  0  0  2  0  0  0  0  0  0
  -30.0820  -13.2290   19.8300 N   0  0  0  0  0  0  0  0  0  0  0  0
  -31.8910  -14.5390   19.3870 O   0  0  0  0  0  0  0  0  0  0  0  0
  -30.2340  -15.3390   20.6820 N   0  0  0  0  0  0  0  0  0  0  0  0
  -29.3320  -15.1240   21.0800 H   0  0  0  0  0  0  0  0  0  0  0  0
  -25.3260  -13.9120   20.2210 C   0  0  0  0  0  0  0  0  0  0  0  0
  -24.2580  -13.1670   20.6470 C   0  0  0  0  0  0  0  0  0  0  0  0
  -24.6850  -11.8050   20.6010 C   0  0  0  0  0  0  0  0  0  0  0  0
  -26.3390  -13.0050   19.9510 N   0  0  0  0  0  0  0  0  0  0  0  0
  -25.9580  -11.7330   20.2330 N   0  0  0  0  0  0  0  0  0  0  0  0
  -23.9370  -10.5620   20.8310 C   0  0  0  0  0  0  0  0  0  0  0  0
  -24.3720   -9.6020   21.7710 C   0  0  0  0  0  3  0  0  0  0  0  0
  -23.6280   -8.4230   21.9890 C   0  0  0  0  0  3  0  0  0  0  0  0
  -22.4320   -8.1950   21.2670 C   0  0  0  0  0  0  0  0  0  0  0  0
  -22.0150   -9.1430   20.3170 C   0  0  0  0  0  3  0  0  0  0  0  0
  -22.7610  -10.3130   20.0970 C   0  0  0  0  0  3  0  0  0  0  0  0
  -21.6590   -7.0660   21.3910 O   0  0  0  0  0  0  0  0  0  0  0  0
  -21.6000   -6.3610   22.5650 C   0  0  0  0  0  0  0  0  0  0  0  0
  -21.2060   -6.9650   23.7800 C   0  0  0  0  0  3  0  0  0  0  0  0
  -21.0930   -6.1880   24.9490 C   0  0  0  0  0  3  0  0  0  0  0  0
  -21.3620   -4.8070   24.9060 C   0  0  0  0  0  0  0  0  0  0  0  0
  -21.7480   -4.2020   23.6970 C   0  0  0  0  0  3  0  0  0  0  0  0
  -21.8620   -4.9760   22.5300 C   0  0  0  0  0  0  0  0  0  0  0  0
  -22.2140   -4.3850   21.3640 F   0  0  0  0  0  0  0  0  0  0  0  0
  -21.2460   -4.0580   26.0270 F   0  0  0  0  0  0  0  0  0  0  0  0
  -22.8870  -13.6800   20.9790 C   0  0  0  0  0  0  0  0  0  0  0  0
  -22.1930  -13.0150   21.8940 N   0  0  0  0  0  0  0  0  0  0  0  0
  -22.4430  -14.7050   20.4610 O   0  0  0  0  0  0  0  0  0  0  0  0
  -22.5640  -12.1850   22.3310 H   0  0  0  0  0  0  0  0  0  0  0  0
  -21.2720  -13.3380   22.1570 H   0  0  0  0  0  0  0  0  0  0  0  0
  -25.5150  -15.2740   20.0220 N   0  0  0  0  0  0  0  0  0  0  0  0
  -24.7700  -15.9480   20.1540 H   0  0  0  0  0  0  0  0  0  0  0  0
  -26.3550  -15.6840   19.6390 H   0  0  0  0  0  0  0  0  0  0  0  0
  -31.6660  -15.9070   23.2820 C   0  0  0  0  0  1  0  0  0  0  0  0
  -30.7580  -16.8820   22.5170 C   0  0  0  0  0  2  0  0  0  0  0  0
  1  2  1  0
  3  8  1  0
  4  5  1  0
  4 11  1  0
  5  1  1  0
  5 58  1  0
  6  7  1  0
  6  3  1  0
  6  4  1  0
  8  2  1  0
  8  9  1  6
 11 10  2  0
 12  8  1  0
 12 13  1  0
 15 14  1  0
 15 13  1  0
 15 16  1  0
 17 19  1  0
 17 16  1  0
 18 29  2  0
 19 24  1  0
 20 28  1  0
 20 30  1  0
 21 27  1  0
 21 23  1  0
 22 28  1  0
 23 22  1  0
 24 23  2  0
 25 26  1  0
 25 19  2  0
 26 21  2  0
 27 20  1  0
 28 18  1  0
 30 32  2  0
 31 30  1  0
 33 31  1  0
 34 43  2  0
 34 39  1  0
 35 31  1  0
 35 39  1  0
 36 35  1  0
 37 38  1  0
 37 36  1  0
 38 34  1  0
 39 40  2  0
 40 41  1  0
 42 41  2  0
 43 42  1  0
 44 18  1  0
 44 45  1  0
 44 54  1  0
 45 48  1  0
 46 50  1  0
 46 45  1  0
 47 46  2  0
 50 49  1  0
 52 50  1  0
 52 53  1  0
 52 51  1  0
 54 57  1  1
 54 55  1  0
 56 54  1  0
 58 98  1  0
 59 67  1  0
 60 65  1  0
 61 62  1  0
 61 60  1  0
 63 62  1  0
 63 72  1  0
 63 64  1  0
 65 59  1  0
 65 64  1  0
 66 59  2  0
 67 58  1  0
 67 68  1  0
 69 70  2  0
 70 89  1  0
 71 70  1  0
 71 74  1  0
 72 69  1  0
 72 73  1  0
 73 71  2  0
 74 75  1  0
 75 76  2  0
 77 80  1  0
 77 76  1  0
 78 77  2  0
 79 78  1  0
 79 74  2  0
 80 81  1  0
 81 82  1  0
 82 83  2  0
 84 83  1  0
 84 88  1  0
 85 84  2  0
 86 81  2  0
 86 85  1  0
 87 86  1  0
 89 90  1  0
 90 93  1  0
 90 92  1  0
 91 89  2  0
 94 95  1  0
 94 69  1  0
 96 94  1  0
 98 97  1  0
M  ISO  4  16 101  17 101  59 100  67 100
M  END
>  <TORSDO>  (10) 
F 23

>  <SCORE>  (10) 
-10.031

>  <name>  (10) 
9

>  <ligand_id>  (10) 
9

>  <original_smiles>  (10) 
[H]C([H])=C([H])C1([H])C([H])(C([H])(N([H])C(=O)N2C([H])([H])C([H])([H])C([H])([H])C([H])(n3nc(-c4c([H])c([H])c(Oc5c([H])c([H])c(F)c([H])c5F)c([H])c4[H])c(C(=O)N([H])[H])c3N([H])[H])C2([H])[H])C([H])([H])C([H])([H])[H])C([H])([H])C([H])([H])[N+]([H])(C([H])([H])C([H])([H])C([H])(C([H])([H])[H])C([H])([H])Oc2c([H])c([H])c3c(c2[H])C([H])([H])N(C(=O)C([H])(N([H])C(=O)C([H])(N([H])C([H])([H])[H])C([H])([H])[H])C(C([H])([H])[H])(C([H])([H])[H])C([H])([H])[H])C([H])(C(=O)N([H])C2([H])c4c([H])c([H])c([H])c([H])c4C([H])([H])C([H])([H])C2([H])[H])C3([H])[H])C([H])([H])C1([H])C([H])([H])[H]

>  <smiles>  (10) 
[H]C([H])=C([H])C1([H])C([H])(C([H])(N([H])C(=O)N2C([H])([H])C([H])([H])C([H])([H])C([H])(n3nc(-c4c([H])c([H])c(Oc5c([H])c([H])c(F)c([H])c5F)c([H])c4[H])c(C(=O)N([H])[H])c3N([H])[H])C2([H])[H])C([H])([H])C([H])([H])[H])C([H])([H])C([H])([H])[N+]([H])(C([H])([H])C([H])([H])C([H])(C([H])([H])[H])C([H])([H])Oc2c([H])c([H])c3c(c2[H])C([H])([H])N(C(=O)C([H])(N([H])C(=O)C([H])(N([H])C([H])([H])[H])C([H])([H])[H])C(C([H])([H])[H])(C([H])([H])[H])C([H])([H])[H])C([H])(C(=O)N([H])C2([H])c4c([H])c([H])c([H])c([H])c4C([H])([H])C([H])([H])C2([H])[H])C3([H])[H])C([H])([H])C1([H])C([H])([H])[H]

$$$$
10:0:0
     RDKit          3D

 93101  0  0  1  0  0  0  0  0999 V2000
  -28.6070  -21.1090   18.3880 C   0  0  0  0  0  2  0  0  0  0  0  0
  -28.6420  -17.3450   17.7260 C   0  0  0  0  0  3  0  0  0  0  0  0
  -28.5080  -18.7340   17.5650 C   0  0  0  0  0  3  0  0  0  0  0  0
  -29.0720  -16.8210   18.9550 C   0  0  0  0  0  3  0  0  0  0  0  0
  -29.2440  -19.0750   19.8640 C   0  0  0  0  0  3  0  0  0  0  0  0
  -28.8000  -19.6120   18.6300 C   0  0  0  0  0  0  0  0  0  0  0  0
  -29.3850  -17.6730   20.0410 C   0  0  0  0  0  0  0  0  0  0  0  0
  -31.1880  -17.7000   21.8620 C   0  0  0  0  0  1  0  0  0  0  0  0
  -29.8430  -17.1120   21.3990 C   0  0  0  0  0  3  0  0  0  0  0  0
  -30.6100  -14.6980   21.0390 C   0  0  0  0  0  0  0  0  0  0  0  0
  -30.4930  -12.5120   19.8990 C   0  0  0  0  0  2  0  0  0  0  0  0
  -29.6300  -12.6740   18.6300 C   0  0  0  0  0  2  0  0  0  0  0  0
  -28.1300  -12.5110   18.9550 C   0  0  0  0  0  2  0  0  0  0  0  0
  -27.6830  -13.3420   20.1860 C   0  0  0  0  0  3  0  0  0  0  0  0
  -28.6600  -13.1390   21.3660 C   0  0  0  0  0  2  0  0  0  0  0  0
  -30.0160  -13.4830   20.8970 N   0  0  0  0  0  0  0  0  0  0  0  0
  -31.7380  -14.9510   20.6040 O   0  0  0  0  0  0  0  0  0  0  0  0
  -29.7840  -15.6450   21.5160 N   0  0  0  0  0  0  0  0  0  0  0  0
  -28.9010  -15.2840   21.8420 H   0  0  0  0  0  0  0  0  0  0  0  0
  -25.2240  -13.8960   20.7180 C   0  0  0  0  0  0  0  0  0  0  0  0
  -24.1530  -13.0990   21.0200 C   0  0  0  0  0  0  0  0  0  0  0  0
  -24.6500  -11.7600   21.0260 C   0  0  0  0  0  0  0  0  0  0  0  0
  -26.3060  -13.0410   20.5680 N   0  0  0  0  0  0  0  0  0  0  0  0
  -25.9580  -11.7510   20.8050 N   0  0  0  0  0  0  0  0  0  0  0  0
  -23.9470  -10.4790   21.1780 C   0  0  0  0  0  0  0  0  0  0  0  0
  -24.3500   -9.5260   22.1390 C   0  0  0  0  0  3  0  0  0  0  0  0
  -23.6520   -8.3080   22.2770 C   0  0  0  0  0  3  0  0  0  0  0  0
  -22.5360   -8.0330   21.4490 C   0  0  0  0  0  0  0  0  0  0  0  0
  -22.1540   -8.9750   20.4790 C   0  0  0  0  0  3  0  0  0  0  0  0
  -22.8540  -10.1850   20.3400 C   0  0  0  0  0  3  0  0  0  0  0  0
  -21.8140   -6.8660   21.4940 O   0  0  0  0  0  0  0  0  0  0  0  0
  -21.7190   -6.1210   22.6430 C   0  0  0  0  0  0  0  0  0  0  0  0
  -21.1880   -6.6560   23.8360 C   0  0  0  0  0  3  0  0  0  0  0  0
  -21.0410   -5.8350   24.9720 C   0  0  0  0  0  3  0  0  0  0  0  0
  -21.4190   -4.4800   24.9150 C   0  0  0  0  0  0  0  0  0  0  0  0
  -21.9420   -3.9440   23.7240 C   0  0  0  0  0  3  0  0  0  0  0  0
  -22.0880   -4.7620   22.5910 C   0  0  0  0  0  0  0  0  0  0  0  0
  -22.5730   -4.2350   21.4410 F   0  0  0  0  0  0  0  0  0  0  0  0
  -21.2730   -3.6890   26.0030 F   0  0  0  0  0  0  0  0  0  0  0  0
  -22.7270  -13.5380   21.1980 C   0  0  0  0  0  0  0  0  0  0  0  0
  -21.9660  -12.8240   22.0220 N   0  0  0  0  0  0  0  0  0  0  0  0
  -22.2940  -14.5480   20.6440 O   0  0  0  0  0  0  0  0  0  0  0  0
  -22.3300  -12.0100   22.4920 H   0  0  0  0  0  0  0  0  0  0  0  0
  -21.0070  -13.0990   22.1820 H   0  0  0  0  0  0  0  0  0  0  0  0
  -25.3660  -15.2690   20.5400 N   0  0  0  0  0  0  0  0  0  0  0  0
  -24.5720  -15.9000   20.5690 H   0  0  0  0  0  0  0  0  0  0  0  0
  -26.2180  -15.7250   20.2350 H   0  0  0  0  0  0  0  0  0  0  0  0
  -28.5010  -22.0050   19.6400 C   0  0  0  0  0  2  0  0  0  0  0  0
  -27.8510  -23.3570   19.3160 C   0  0  0  0  0  0  0  0  0  0  0  0
  -26.6550  -23.4210   19.0220 O   0  0  0  0  0  0  0  0  0  0  0  0
  -28.7120  -24.6250   19.3430 C   0  0  0  0  0  2  0  0  0  0  0  0
  -28.3460  -25.5650   20.5110 C   0  0  0  0  0  2  0  0  0  0  0  0
  -28.3970  -26.9440   20.1220 O   0  0  0  0  0  0  0  0  0  0  0  0
  -24.5350  -31.9800   23.3190 C   0  0  0  0  0  0  0  0  0  0  0  0
  -27.2050  -27.6320   20.1440 C   0  0  0  0  0  0  0  0  0  0  0  0
  -23.3260  -30.5920   21.6620 C   0  0  0  0  0  3  0  0  0  0  0  0
  -24.7850  -29.0910   20.2000 C   0  0  0  0  0  0  0  0  0  0  0  0
  -25.8420  -30.9900   21.4430 C   0  0  0  0  0  2  0  0  0  0  0  0
  -25.9380  -29.6290   20.7830 C   0  0  0  0  0  0  0  0  0  0  0  0
  -27.1510  -28.9070   20.7500 C   0  0  0  0  0  3  0  0  0  0  0  0
  -26.0340  -27.1050   19.5550 C   0  0  0  0  0  3  0  0  0  0  0  0
  -24.8250  -27.8250   19.5860 C   0  0  0  0  0  3  0  0  0  0  0  0
  -23.5290  -29.9330   20.2700 C   0  0  0  0  0  2  0  0  0  0  0  0
  -24.5860  -31.2010   22.2000 N   0  0  0  0  0  0  0  0  0  0  0  0
  -23.4580  -32.2310   23.8760 O   0  0  0  0  0  0  0  0  0  0  0  0
  -22.6940  -29.5530   22.6140 C   0  0  0  0  0  0  0  0  0  0  0  0
  -21.3750  -29.3450   22.4830 N   0  0  0  0  0  0  0  0  0  0  0  0
  -23.3890  -28.9320   23.4230 O   0  0  0  0  0  0  0  0  0  0  0  0
  -20.8720  -29.8980   21.8030 H   0  0  0  0  0  0  0  0  0  0  0  0
  -18.0290  -28.0680   22.9470 C   0  0  0  0  0  0  0  0  0  0  0  0
  -20.5770  -28.3840   23.2430 C   0  0  0  0  0  3  0  0  0  0  0  0
  -20.7200  -26.9590   22.6610 C   0  0  0  0  0  2  0  0  0  0  0  0
  -19.6350  -26.6160   21.6350 C   0  0  0  0  0  2  0  0  0  0  0  0
  -18.2440  -26.7260   22.2680 C   0  0  0  0  0  2  0  0  0  0  0  0
  -19.1260  -28.8530   23.3910 C   0  0  0  0  0  0  0  0  0  0  0  0
  -18.8730  -30.1100   23.9830 C   0  0  0  0  0  3  0  0  0  0  0  0
  -17.5550  -30.5790   24.1390 C   0  0  0  0  0  3  0  0  0  0  0  0
  -16.4730  -29.7910   23.7120 C   0  0  0  0  0  3  0  0  0  0  0  0
  -16.7100  -28.5380   23.1210 C   0  0  0  0  0  3  0  0  0  0  0  0
  -25.8230  -32.6120   23.9360 C   0  0  0  0  0  3  0  0  0  0  0  0
  -25.5190  -34.0140   24.2520 N   0  0  0  0  0  0  0  0  0  0  0  0
  -25.8680  -35.0580   23.4890 C   0  0  0  0  0  0  0  0  0  0  0  0
  -26.5520  -34.9410   22.4670 O   0  0  0  0  0  0  0  0  0  0  0  0
  -24.9190  -34.1810   25.0470 H   0  0  0  0  0  0  0  0  0  0  0  0
  -24.1680  -36.8640   23.0750 C   0  0  0  0  0  1  0  0  0  0  0  0
  -25.3820  -36.4530   23.9250 C   0  0  0  0  0  3  0  0  0  0  0  0
  -27.5010  -37.3220   24.8080 C   0  0  0  0  0  1  0  0  0  0  0  0
  -26.4270  -37.4960   23.8340 N   0  0  0  0  0  0  0  0  0  0  0  0
  -26.0270  -38.4200   23.9650 H   0  0  0  0  0  0  0  0  0  0  0  0
  -26.3370  -31.8480   25.2180 C   0  0  1  0  0  0  0  0  0  0  0  0
  -25.2440  -31.6230   26.2870 C   0  0  0  0  0  1  0  0  0  0  0  0
  -26.9140  -30.4650   24.8360 C   0  0  0  0  0  1  0  0  0  0  0  0
  -27.4870  -32.6440   25.8780 C   0  0  0  0  0  1  0  0  0  0  0  0
  1  6  1  0
  1 48  1  0
  2  4  1  0
  3  2  2  0
  3  6  1  0
  4  7  2  0
  5  7  1  0
  6  5  2  0
  7  9  1  0
  9 18  1  0
  9  8  1  0
 10 18  1  0
 11 16  1  0
 12 13  1  0
 12 11  1  0
 14 13  1  0
 14 23  1  0
 14 15  1  0
 16 10  1  0
 16 15  1  0
 17 10  2  0
 18 19  1  0
 20 21  2  0
 21 22  1  0
 21 40  1  0
 22 25  1  0
 23 20  1  0
 23 24  1  0
 24 22  2  0
 25 26  1  0
 26 27  2  0
 28 31  1  0
 28 27  1  0
 29 28  2  0
 30 29  1  0
 30 25  2  0
 31 32  1  0
 32 33  1  0
 33 34  2  0
 35 34  1  0
 35 39  1  0
 36 35  2  0
 37 32  2  0
 37 36  1  0
 38 37  1  0
 40 41  1  0
 41 44  1  0
 41 43  1  0
 42 40  2  0
 45 46  1  0
 45 20  1  0
 47 45  1  0
 49 51  1  0
 49 48  1  0
 50 49  2  0
 51 52  1  0
 53 55  1  0
 53 52  1  0
 54 65  2  0
 55 60  1  0
 56 64  1  0
 56 66  1  0
 57 63  1  0
 57 59  1  0
 58 64  1  0
 59 58  1  0
 60 59  2  0
 61 62  1  0
 61 55  2  0
 62 57  2  0
 63 56  1  0
 64 54  1  0
 66 68  2  0
 67 66  1  0
 69 67  1  0
 70 79  2  0
 70 75  1  0
 71 67  1  0
 71 75  1  0
 72 71  1  0
 73 74  1  0
 73 72  1  0
 74 70  1  0
 75 76  2  0
 76 77  1  0
 78 77  2  0
 79 78  1  0
 80 54  1  0
 80 81  1  0
 80 90  1  0
 81 84  1  0
 82 86  1  0
 82 81  1  0
 83 82  2  0
 86 85  1  0
 88 86  1  0
 88 89  1  0
 88 87  1  0
 90 93  1  1
 90 91  1  0
 92 90  1  0
M  ISO  4  10 100  18 100  52 101  53 101
M  END
>  <TORSDO>  (11) 
F 22

>  <SCORE>  (11) 
-12.679

>  <name>  (11) 
10

>  <ligand_id>  (11) 
10

>  <original_smiles>  (11) 
[H]c1c([H])c([H])c2c(c1[H])C([H])([H])C([H])([H])C([H])([H])C2([H])N([H])C(=O)C1([H])N(C(=O)C([H])(N([H])C(=O)C([H])(N([H])C([H])([H])[H])C([H])([H])[H])C(C([H])([H])[H])(C([H])([H])[H])C([H])([H])[H])C([H])([H])c2c([H])c(OC([H])([H])C([H])([H])C(=O)C([H])([H])C([H])([H])c3c([H])c([H])c([H])c(C([H])(N([H])C(=O)N4C([H])([H])C([H])([H])C([H])([H])C([H])(n5nc(-c6c([H])c([H])c(Oc7c([H])c([H])c(F)c([H])c7F)c([H])c6[H])c(C(=O)N([H])[H])c5N([H])[H])C4([H])[H])C([H])([H])[H])c3[H])c([H])c([H])c2C1([H])[H]

>  <smiles>  (11) 
[H]c1c([H])c([H])c2c(c1[H])C([H])([H])C([H])([H])C([H])([H])C2([H])N([H])C(=O)C1([H])N(C(=O)C([H])(N([H])C(=O)C([H])(N([H])C([H])([H])[H])C([H])([H])[H])C(C([H])([H])[H])(C([H])([H])[H])C([H])([H])[H])C([H])([H])c2c([H])c(OC([H])([H])C([H])([H])C(=O)C([H])([H])C([H])([H])c3c([H])c([H])c([H])c(C([H])(N([H])C(=O)N4C([H])([H])C([H])([H])C([H])([H])C([H])(n5nc(-c6c([H])c([H])c(Oc7c([H])c([H])c(F)c([H])c7F)c([H])c6[H])c(C(=O)N([H])[H])c5N([H])[H])C4([H])[H])C([H])([H])[H])c3[H])c([H])c([H])c2C1([H])[H]

$$$$
11:0:0
     RDKit          3D

101109  0  0  1  0  0  0  0  0999 V2000
  -33.0660  -16.4640   21.7060 C   0  0  0  0  0  2  0  0  0  0  0  0
  -30.5150  -15.0390   21.4750 C   0  0  0  0  0  2  0  0  0  0  0  0
  -32.3810  -17.2710   20.5860 C   0  0  0  0  0  2  0  0  0  0  0  0
  -30.1060  -16.2620   20.6140 C   0  0  0  0  0  2  0  0  0  0  0  0
  -33.1190  -14.9330   21.4890 C   0  0  0  0  0  3  0  0  0  0  0  0
  -31.7860  -14.3010   20.9810 C   0  0  0  0  0  3  0  0  0  0  0  0
  -30.9320  -17.4830   20.8280 N   0  0  2  0  0  4  0  0  0  0  0  0
  -30.8200  -17.7450   21.7960 H   0  0  0  0  0  0  0  0  0  0  0  0
  -31.7300  -12.8630   21.3200 N   0  0  0  0  0  4  0  0  0  0  0  0
  -31.7390  -12.7180   22.3140 H   0  0  0  0  0  0  0  0  0  0  0  0
  -32.5120  -12.3700   20.9270 H   0  0  0  0  0  0  0  0  0  0  0  0
  -30.8960  -12.4420   20.9500 H   0  0  0  0  0  0  0  0  0  0  0  0
  -34.3980  -14.4920   20.7100 C   0  0  0  0  0  2  0  0  0  0  0  0
  -34.2000  -13.7480   19.3680 C   0  0  0  0  0  2  0  0  0  0  0  0
  -33.2160  -12.5540   19.4020 C   0  0  0  0  0  2  0  0  0  0  0  0
  -31.1660  -12.4910   17.9670 C   0  0  0  0  0  0  0  0  0  0  0  0
  -30.1470  -10.3290   17.4920 C   0  0  0  0  0  2  0  0  0  0  0  0
  -28.8810  -10.3120   16.6410 C   0  0  0  0  0  2  0  0  0  0  0  0
  -27.6470  -10.4640   17.5450 C   0  0  0  0  0  2  0  0  0  0  0  0
  -27.7610  -11.6940   18.4840 C   0  0  0  0  0  3  0  0  0  0  0  0
  -29.1200  -11.7410   19.2230 C   0  0  0  0  0  2  0  0  0  0  0  0
  -30.2050  -11.5870   18.2370 N   0  0  0  0  0  0  0  0  0  0  0  0
  -31.6750  -12.6510   16.8550 O   0  0  0  0  0  0  0  0  0  0  0  0
  -31.8010  -12.8240   19.0980 N   0  0  0  0  0  0  0  0  0  0  0  0
  -31.2000  -12.6940   19.9020 H   0  0  0  0  0  0  0  0  0  0  0  0
  -26.0560  -12.8460   20.0340 C   0  0  0  0  0  0  0  0  0  0  0  0
  -24.9920  -12.3610   20.7440 C   0  0  0  0  0  0  0  0  0  0  0  0
  -24.9680  -10.9520   20.5060 C   0  0  0  0  0  0  0  0  0  0  0  0
  -26.6340  -11.7490   19.4140 N   0  0  0  0  0  0  0  0  0  0  0  0
  -25.9960  -10.5970   19.7450 N   0  0  0  0  0  0  0  0  0  0  0  0
  -23.9940   -9.9300   20.9090 C   0  0  0  0  0  0  0  0  0  0  0  0
  -24.3820   -8.7940   21.6530 C   0  0  0  0  0  3  0  0  0  0  0  0
  -23.4270   -7.8300   22.0400 C   0  0  0  0  0  3  0  0  0  0  0  0
  -22.0660   -7.9990   21.6900 C   0  0  0  0  0  0  0  0  0  0  0  0
  -21.6880   -9.1170   20.9270 C   0  0  0  0  0  3  0  0  0  0  0  0
  -22.6420  -10.0730   20.5400 C   0  0  0  0  0  3  0  0  0  0  0  0
  -21.0720   -7.1040   22.0030 O   0  0  0  0  0  0  0  0  0  0  0  0
  -21.1320   -6.3280   23.1330 C   0  0  0  0  0  0  0  0  0  0  0  0
  -21.1730   -6.8940   24.4280 C   0  0  0  0  0  3  0  0  0  0  0  0
  -21.1670   -6.0560   25.5610 C   0  0  0  0  0  3  0  0  0  0  0  0
  -21.1040   -4.6580   25.4050 C   0  0  0  0  0  0  0  0  0  0  0  0
  -21.0530   -4.0950   24.1180 C   0  0  0  0  0  3  0  0  0  0  0  0
  -21.0660   -4.9290   22.9860 C   0  0  0  0  0  0  0  0  0  0  0  0
  -20.9940   -4.3830   21.7480 F   0  0  0  0  0  0  0  0  0  0  0  0
  -21.0850   -3.8540   26.4930 F   0  0  0  0  0  0  0  0  0  0  0  0
  -23.9960  -13.1660   21.5280 C   0  0  0  0  0  0  0  0  0  0  0  0
  -23.4280  -12.5850   22.5810 N   0  0  0  0  0  0  0  0  0  0  0  0
  -23.7480  -14.3350   21.2350 O   0  0  0  0  0  0  0  0  0  0  0  0
  -23.6430  -11.6340   22.8440 H   0  0  0  0  0  0  0  0  0  0  0  0
  -22.7650  -13.1030   23.1400 H   0  0  0  0  0  0  0  0  0  0  0  0
  -26.5750  -14.1260   19.8520 N   0  0  0  0  0  0  0  0  0  0  0  0
  -26.1450  -14.9530   20.2520 H   0  0  0  0  0  0  0  0  0  0  0  0
  -27.3780  -14.3370   19.2720 H   0  0  0  0  0  0  0  0  0  0  0  0
  -30.4370  -18.6510   20.0540 C   0  0  0  0  0  2  0  0  0  0  0  0
  -30.8300  -19.9750   20.7370 C   0  0  0  0  0  2  0  0  0  0  0  0
  -30.7630  -21.1740   19.7830 C   0  0  0  0  0  2  0  0  0  0  0  0
  -30.7410  -22.5210   20.5220 C   0  0  0  0  0  2  0  0  0  0  0  0
  -30.4570  -23.6960   19.5750 C   0  0  0  0  0  2  0  0  0  0  0  0
  -30.1460  -25.0070   20.3110 C   0  0  0  0  0  2  0  0  0  0  0  0
  -29.2450  -25.9280   19.4840 C   0  0  0  0  0  2  0  0  0  0  0  0
  -29.0610  -27.1470   20.1940 O   0  0  0  0  0  0  0  0  0  0  0  0
  -24.6360  -31.7480   23.2980 C   0  0  0  0  0  0  0  0  0  0  0  0
  -27.8070  -27.7190   20.1620 C   0  0  0  0  0  0  0  0  0  0  0  0
  -23.6350  -30.3260   21.5380 C   0  0  0  0  0  3  0  0  0  0  0  0
  -25.2810  -28.9880   20.1260 C   0  0  0  0  0  0  0  0  0  0  0  0
  -26.1230  -30.9130   21.4840 C   0  0  0  0  0  2  0  0  0  0  0  0
  -26.3570  -29.5860   20.7930 C   0  0  0  0  0  0  0  0  0  0  0  0
  -27.6200  -28.9580   20.8110 C   0  0  0  0  0  3  0  0  0  0  0  0
  -26.7080  -27.1230   19.4960 C   0  0  0  0  0  3  0  0  0  0  0  0
  -25.4490  -27.7520   19.4820 C   0  0  0  0  0  3  0  0  0  0  0  0
  -23.9650  -29.7340   20.1430 C   0  0  0  0  0  2  0  0  0  0  0  0
  -24.8120  -31.0090   22.1660 N   0  0  0  0  0  0  0  0  0  0  0  0
  -23.5100  -31.9020   23.7920 O   0  0  0  0  0  0  0  0  0  0  0  0
  -23.0360  -29.2070   22.4180 C   0  0  0  0  0  0  0  0  0  0  0  0
  -21.7440  -28.9090   22.2080 N   0  0  0  0  0  0  0  0  0  0  0  0
  -23.7310  -28.6110   23.2470 O   0  0  0  0  0  0  0  0  0  0  0  0
  -21.2440  -29.4480   21.5140 H   0  0  0  0  0  0  0  0  0  0  0  0
  -18.4670  -27.4160   22.4760 C   0  0  0  0  0  0  0  0  0  0  0  0
  -20.9770  -27.8690   22.8910 C   0  0  0  0  0  3  0  0  0  0  0  0
  -21.2280  -26.4830   22.2540 C   0  0  0  0  0  2  0  0  0  0  0  0
  -20.2060  -26.1210   21.1720 C   0  0  0  0  0  2  0  0  0  0  0  0
  -18.7870  -26.1210   21.7510 C   0  0  0  0  0  2  0  0  0  0  0  0
  -19.4940  -28.2440   22.9970 C   0  0  0  0  0  0  0  0  0  0  0  0
  -19.1440  -29.4550   23.6340 C   0  0  0  0  0  3  0  0  0  0  0  0
  -17.7960  -29.8410   23.7540 C   0  0  0  0  0  3  0  0  0  0  0  0
  -16.7810  -29.0080   23.2510 C   0  0  0  0  0  3  0  0  0  0  0  0
  -17.1160  -27.7970   22.6190 C   0  0  0  0  0  3  0  0  0  0  0  0
  -25.8340  -32.4550   24.0070 C   0  0  0  0  0  3  0  0  0  0  0  0
  -26.2830  -31.7350   25.3360 C   0  0  1  0  0  0  0  0  0  0  0  0
  -25.1120  -31.4060   26.2900 C   0  0  0  0  0  1  0  0  0  0  0  0
  -27.0190  -30.4120   25.0170 C   0  0  0  0  0  1  0  0  0  0  0  0
  -27.2870  -32.6280   26.1030 C   0  0  0  0  0  1  0  0  0  0  0  0
  -25.4300  -33.8400   24.2770 N   0  0  0  0  0  0  0  0  0  0  0  0
  -25.7490  -34.8880   23.5060 C   0  0  0  0  0  0  0  0  0  0  0  0
  -26.4830  -34.7950   22.5180 O   0  0  0  0  0  0  0  0  0  0  0  0
  -24.7860  -33.9850   25.0410 H   0  0  0  0  0  0  0  0  0  0  0  0
  -23.9440  -36.5600   22.9920 C   0  0  0  0  0  1  0  0  0  0  0  0
  -25.1560  -36.2570   23.8890 C   0  0  0  0  0  3  0  0  0  0  0  0
  -27.1860  -37.2850   24.8110 C   0  0  0  0  0  1  0  0  0  0  0  0
  -26.1310  -37.3650   23.8030 N   0  0  0  0  0  0  0  0  0  0  0  0
  -25.6650  -38.2630   23.9040 H   0  0  0  0  0  0  0  0  0  0  0  0
  3  7  1  0
  3  1  1  0
  4  7  1  0
  4  2  1  0
  5 13  1  0
  5  1  1  0
  6  9  1  0
  6  2  1  0
  6  5  1  0
  7  8  1  1
  9 10  1  0
 11  9  1  0
 12  9  1  0
 14 15  1  0
 14 13  1  0
 16 22  1  0
 16 24  1  0
 17 22  1  0
 18 17  1  0
 18 19  1  0
 20 19  1  0
 20 21  1  0
 20 29  1  0
 22 21  1  0
 23 16  2  0
 24 15  1  0
 24 25  1  0
 26 27  2  0
 27 46  1  0
 28 27  1  0
 28 31  1  0
 29 30  1  0
 29 26  1  0
 30 28  2  0
 31 32  1  0
 32 33  2  0
 34 37  1  0
 34 33  1  0
 35 34  2  0
 36 31  2  0
 36 35  1  0
 37 38  1  0
 38 39  1  0
 39 40  2  0
 41 40  1  0
 41 45  1  0
 42 41  2  0
 43 38  2  0
 43 42  1  0
 44 43  1  0
 46 47  1  0
 47 49  1  0
 47 50  1  0
 48 46  2  0
 51 26  1  0
 51 52  1  0
 53 51  1  0
 54 55  1  0
 54  7  1  0
 56 57  1  0
 56 55  1  0
 58 59  1  0
 58 57  1  0
 60 61  1  0
 60 59  1  0
 62 73  2  0
 63 61  1  0
 63 68  1  0
 64 72  1  0
 64 74  1  0
 65 71  1  0
 65 67  1  0
 66 72  1  0
 67 68  2  0
 67 66  1  0
 69 63  2  0
 70 69  1  0
 70 65  2  0
 71 64  1  0
 72 62  1  0
 74 76  2  0
 75 74  1  0
 77 75  1  0
 78 87  2  0
 78 83  1  0
 79 75  1  0
 79 83  1  0
 80 79  1  0
 81 82  1  0
 81 80  1  0
 82 78  1  0
 83 84  2  0
 84 85  1  0
 86 85  2  0
 87 86  1  0
 88 62  1  0
 88 93  1  0
 88 89  1  0
 89 92  1  1
 89 90  1  0
 91 89  1  0
 93 96  1  0
 94 98  1  0
 94 93  1  0
 95 94  2  0
 98 97  1  0
100 98  1  0
100101  1  0
100 99  1  0
M  ISO  4  16 100  24 100  60 101  61 101
M  END
>  <TORSDO>  (12) 
F 27

>  <SCORE>  (12) 
1.163

>  <name>  (12) 
11

>  <ligand_id>  (12) 
11

>  <original_smiles>  (12) 
[H]c1c([H])c([H])c2c(c1[H])C([H])([H])C([H])([H])C([H])([H])C2([H])N([H])C(=O)C1([H])N(C(=O)C([H])(N([H])C(=O)C([H])(N([H])C([H])([H])[H])C([H])([H])[H])C(C([H])([H])[H])(C([H])([H])[H])C([H])([H])[H])C([H])([H])c2c([H])c(OC([H])([H])C([H])([H])C([H])([H])C([H])([H])C([H])([H])C([H])([H])C([H])([H])[N+]3([H])C([H])([H])C([H])([H])C([H])(C([H])([H])C([H])([H])C([H])([H])N([H])C(=O)N4C([H])([H])C([H])([H])C([H])([H])C([H])(n5nc(-c6c([H])c([H])c(Oc7c([H])c([H])c(F)c([H])c7F)c([H])c6[H])c(C(=O)N([H])[H])c5N([H])[H])C4([H])[H])C([H])([N+]([H])([H])[H])C([H])([H])C3([H])[H])c([H])c([H])c2C1([H])[H]

>  <smiles>  (12) 
[H]c1c([H])c([H])c2c(c1[H])C([H])([H])C([H])([H])C([H])([H])C2([H])N([H])C(=O)C1([H])N(C(=O)C([H])(N([H])C(=O)C([H])(N([H])C([H])([H])[H])C([H])([H])[H])C(C([H])([H])[H])(C([H])([H])[H])C([H])([H])[H])C([H])([H])c2c([H])c(OC([H])([H])C([H])([H])C([H])([H])C([H])([H])C([H])([H])C([H])([H])C([H])([H])[N+]3([H])C([H])([H])C([H])([H])C([H])(C([H])([H])C([H])([H])C([H])([H])N([H])C(=O)N4C([H])([H])C([H])([H])C([H])([H])C([H])(n5nc(-c6c([H])c([H])c(Oc7c([H])c([H])c(F)c([H])c7F)c([H])c6[H])c(C(=O)N([H])[H])c5N([H])[H])C4([H])[H])C([H])([N+]([H])([H])[H])C([H])([H])C3([H])[H])c([H])c([H])c2C1([H])[H]

$$$$
12:0:0
     RDKit          3D

 93101  0  0  1  0  0  0  0  0999 V2000
  -29.4390  -19.6640   20.2320 C   0  0  0  0  0  0  0  0  0  0  0  0
  -29.5820  -21.0250   20.4790 N   0  0  0  0  0  0  0  0  0  0  0  0
  -28.4010  -19.2540   19.7120 O   0  0  0  0  0  0  0  0  0  0  0  0
  -30.4560  -21.2880   20.9130 H   0  0  0  0  0  0  0  0  0  0  0  0
  -31.7260  -19.3360   21.3390 C   0  0  0  0  0  2  0  0  0  0  0  0
  -31.9560  -18.8520   19.9400 C   0  0  0  0  0  3  0  0  0  0  0  0
  -30.5840  -18.6350   20.5970 C   0  0  2  0  0  0  0  0  0  0  0  0
  -33.0280  -17.8330   19.8100 C   0  0  0  0  0  3  0  0  0  0  0  0
  -34.0410  -17.8600   18.9280 C   0  0  0  0  0  3  0  0  0  0  0  0
  -35.1450  -16.8250   18.8730 C   0  0  0  0  0  1  0  0  0  0  0  0
  -30.1980  -17.1850   21.1930 C   0  0  0  0  0  2  0  0  0  0  0  0
  -30.7070  -14.7260   20.2730 C   0  0  0  0  0  0  0  0  0  0  0  0
  -30.4680  -12.4750   19.2070 C   0  0  0  0  0  2  0  0  0  0  0  0
  -29.5090  -12.5460   18.0000 C   0  0  0  0  0  2  0  0  0  0  0  0
  -28.0410  -12.3930   18.4500 C   0  0  0  0  0  2  0  0  0  0  0  0
  -27.6900  -13.2800   19.6750 C   0  0  0  0  0  3  0  0  0  0  0  0
  -28.7650  -13.1710   20.7760 C   0  0  0  0  0  2  0  0  0  0  0  0
  -30.0530  -13.5200   20.1620 N   0  0  0  0  0  0  0  0  0  0  0  0
  -31.9050  -14.8070   20.0040 O   0  0  0  0  0  0  0  0  0  0  0  0
  -29.9370  -15.8520   20.4920 N   0  0  0  0  0  0  0  0  0  0  0  0
  -28.9540  -15.6350   20.4560 H   0  0  0  0  0  0  0  0  0  0  0  0
  -25.3150  -13.8900   20.4300 C   0  0  0  0  0  0  0  0  0  0  0  0
  -24.2490  -13.1240   20.8160 C   0  0  0  0  0  0  0  0  0  0  0  0
  -24.7030  -11.7690   20.7850 C   0  0  0  0  0  0  0  0  0  0  0  0
  -26.3510  -13.0020   20.1830 N   0  0  0  0  0  0  0  0  0  0  0  0
  -25.9900  -11.7210   20.4620 N   0  0  0  0  0  0  0  0  0  0  0  0
  -23.9700  -10.5120   20.9880 C   0  0  0  0  0  0  0  0  0  0  0  0
  -24.4040   -9.5440   21.9210 C   0  0  0  0  0  3  0  0  0  0  0  0
  -23.6730   -8.3520   22.1090 C   0  0  0  0  0  3  0  0  0  0  0  0
  -22.4930   -8.1190   21.3620 C   0  0  0  0  0  0  0  0  0  0  0  0
  -22.0790   -9.0730   20.4140 C   0  0  0  0  0  3  0  0  0  0  0  0
  -22.8120  -10.2560   20.2260 C   0  0  0  0  0  3  0  0  0  0  0  0
  -21.7330   -6.9770   21.4590 O   0  0  0  0  0  0  0  0  0  0  0  0
  -21.6810   -6.2430   22.6170 C   0  0  0  0  0  0  0  0  0  0  0  0
  -21.2590   -6.8100   23.8390 C   0  0  0  0  0  3  0  0  0  0  0  0
  -21.1530   -6.0020   24.9890 C   0  0  0  0  0  3  0  0  0  0  0  0
  -21.4580   -4.6310   24.9190 C   0  0  0  0  0  0  0  0  0  0  0  0
  -21.8730   -4.0640   23.7010 C   0  0  0  0  0  3  0  0  0  0  0  0
  -21.9810   -4.8670   22.5530 C   0  0  0  0  0  0  0  0  0  0  0  0
  -22.3600   -4.3100   21.3780 F   0  0  0  0  0  0  0  0  0  0  0  0
  -21.3500   -3.8530   26.0220 F   0  0  0  0  0  0  0  0  0  0  0  0
  -22.8560  -13.6090   21.1020 C   0  0  0  0  0  0  0  0  0  0  0  0
  -22.1320  -12.9180   21.9750 N   0  0  0  0  0  0  0  0  0  0  0  0
  -22.4180  -14.6370   20.5850 O   0  0  0  0  0  0  0  0  0  0  0  0
  -22.4970  -12.0880   22.4160 H   0  0  0  0  0  0  0  0  0  0  0  0
  -21.1980  -13.2240   22.2050 H   0  0  0  0  0  0  0  0  0  0  0  0
  -25.4830  -15.2580   20.2450 N   0  0  0  0  0  0  0  0  0  0  0  0
  -24.7210  -15.9150   20.3640 H   0  0  0  0  0  0  0  0  0  0  0  0
  -26.3200  -15.6940   19.8810 H   0  0  0  0  0  0  0  0  0  0  0  0
  -28.6070  -22.1690   20.2090 C   0  0  0  0  0  2  0  0  0  0  0  0
  -29.0300  -23.7120   20.4760 C   0  0  0  0  0  3  0  0  0  0  0  0
  -27.9710  -24.8850   20.1140 C   0  0  0  0  0  3  0  0  0  0  0  0
  -28.2170  -26.3570   20.3160 O   0  0  0  0  0  0  0  0  0  0  0  0
  -24.5780  -31.9310   23.2310 C   0  0  0  0  0  0  0  0  0  0  0  0
  -27.1230  -27.2580   20.2380 C   0  0  0  0  0  0  0  0  0  0  0  0
  -23.3530  -30.5210   21.6180 C   0  0  0  0  0  3  0  0  0  0  0  0
  -24.7830  -28.9350   20.2030 C   0  0  0  0  0  0  0  0  0  0  0  0
  -25.9010  -30.7970   21.4240 C   0  0  0  0  0  2  0  0  0  0  0  0
  -25.9610  -29.4060   20.7960 C   0  0  0  0  0  0  0  0  0  0  0  0
  -27.1320  -28.5760   20.8060 C   0  0  0  0  0  3  0  0  0  0  0  0
  -25.9210  -26.8600   19.6070 C   0  0  0  0  0  3  0  0  0  0  0  0
  -24.7700  -27.6700   19.5980 C   0  0  0  0  0  3  0  0  0  0  0  0
  -23.5550  -29.8240   20.2470 C   0  0  0  0  0  2  0  0  0  0  0  0
  -24.6310  -31.1020   22.1470 N   0  0  0  0  0  0  0  0  0  0  0  0
  -23.4990  -32.2330   23.7630 O   0  0  0  0  0  0  0  0  0  0  0  0
  -22.6840  -29.5260   22.5990 C   0  0  0  0  0  0  0  0  0  0  0  0
  -21.3570  -29.3470   22.4700 N   0  0  0  0  0  0  0  0  0  0  0  0
  -23.3570  -28.9180   23.4340 O   0  0  0  0  0  0  0  0  0  0  0  0
  -20.8710  -29.8870   21.7690 H   0  0  0  0  0  0  0  0  0  0  0  0
  -17.9840  -28.1390   22.9670 C   0  0  0  0  0  0  0  0  0  0  0  0
  -20.5360  -28.4270   23.2620 C   0  0  0  0  0  3  0  0  0  0  0  0
  -20.6560  -26.9780   22.7320 C   0  0  0  0  0  2  0  0  0  0  0  0
  -19.5690  -26.6170   21.7150 C   0  0  0  0  0  2  0  0  0  0  0  0
  -18.1780  -26.7710   22.3350 C   0  0  0  0  0  2  0  0  0  0  0  0
  -19.0910  -28.9220   23.3890 C   0  0  0  0  0  0  0  0  0  0  0  0
  -18.8550  -30.1980   23.9410 C   0  0  0  0  0  3  0  0  0  0  0  0
  -17.5450  -30.6930   24.0810 C   0  0  0  0  0  3  0  0  0  0  0  0
  -16.4510  -29.9070   23.6780 C   0  0  0  0  0  3  0  0  0  0  0  0
  -16.6710  -28.6330   23.1250 C   0  0  0  0  0  3  0  0  0  0  0  0
  -25.8680  -32.5630   23.8380 C   0  0  0  0  0  3  0  0  0  0  0  0
  -25.5640  -33.9630   24.1760 N   0  0  0  0  0  0  0  0  0  0  0  0
  -25.8820  -35.0180   23.4160 C   0  0  0  0  0  0  0  0  0  0  0  0
  -26.5310  -34.9160   22.3720 O   0  0  0  0  0  0  0  0  0  0  0  0
  -24.9850  -34.1160   24.9890 H   0  0  0  0  0  0  0  0  0  0  0  0
  -24.1470  -36.8160   23.1040 C   0  0  0  0  0  1  0  0  0  0  0  0
  -25.4040  -36.4070   23.8870 C   0  0  0  0  0  3  0  0  0  0  0  0
  -27.5520  -37.2930   24.6760 C   0  0  0  0  0  1  0  0  0  0  0  0
  -26.4330  -37.4600   23.7550 N   0  0  0  0  0  0  0  0  0  0  0  0
  -26.0300  -38.3810   23.9090 H   0  0  0  0  0  0  0  0  0  0  0  0
  -26.4010  -31.7900   25.1090 C   0  0  1  0  0  0  0  0  0  0  0  0
  -25.3190  -31.5500   26.1890 C   0  0  0  0  0  1  0  0  0  0  0  0
  -26.9780  -30.4110   24.7100 C   0  0  0  0  0  1  0  0  0  0  0  0
  -27.5600  -32.5850   25.7560 C   0  0  0  0  0  1  0  0  0  0  0  0
  1  2  1  0
  1  7  1  0
  2  4  1  0
  3  1  2  0
  6  8  1  0
  6  7  1  0
  6  5  1  0
  7 11  1  1
  7  5  1  0
  9  8  2  0
 10  9  1  0
 12 20  1  0
 13 18  1  0
 14 15  1  0
 14 13  1  0
 16 15  1  0
 16 25  1  0
 16 17  1  0
 18 12  1  0
 18 17  1  0
 19 12  2  0
 20 11  1  0
 21 20  1  0
 22 23  2  0
 23 42  1  0
 24 23  1  0
 24 27  1  0
 25 22  1  0
 25 26  1  0
 26 24  2  0
 27 28  1  0
 28 29  2  0
 30 33  1  0
 30 29  1  0
 31 30  2  0
 32 31  1  0
 32 27  2  0
 33 34  1  0
 34 35  1  0
 35 36  2  0
 37 36  1  0
 37 41  1  0
 38 37  2  0
 39 34  2  0
 39 38  1  0
 40 39  1  0
 42 43  1  0
 43 46  1  0
 43 45  1  0
 44 42  2  0
 47 48  1  0
 47 22  1  0
 49 47  1  0
 50 51  1  0
 50  2  1  0
 52 53  1  0
 52 51  2  0
 54 65  2  0
 55 53  1  0
 55 60  1  0
 56 64  1  0
 56 66  1  0
 57 63  1  0
 57 59  1  0
 58 64  1  0
 59 60  2  0
 59 58  1  0
 61 55  2  0
 62 61  1  0
 62 57  2  0
 63 56  1  0
 64 54  1  0
 66 68  2  0
 67 66  1  0
 69 67  1  0
 70 79  2  0
 70 75  1  0
 71 67  1  0
 71 75  1  0
 72 71  1  0
 73 74  1  0
 73 72  1  0
 74 70  1  0
 75 76  2  0
 76 77  1  0
 78 77  2  0
 79 78  1  0
 80 54  1  0
 80 81  1  0
 80 90  1  0
 81 84  1  0
 82 86  1  0
 82 81  1  0
 83 82  2  0
 86 85  1  0
 88 86  1  0
 88 89  1  0
 88 87  1  0
 90 93  1  1
 90 91  1  0
 92 90  1  0
M  ISO  4  12 100  20 100  52 101  53 101
M  END
>  <TORSDO>  (13) 
F 22

>  <SCORE>  (13) 
-13.331

>  <name>  (13) 
12

>  <ligand_id>  (13) 
12

>  <original_smiles>  (13) 
[H]C(=C([H])C1([H])C([H])([H])C1(C(=O)N([H])C([H])([H])C([H])([H])C([H])([H])Oc1c([H])c([H])c2c(c1[H])C([H])([H])N(C(=O)C([H])(N([H])C(=O)C([H])(N([H])C([H])([H])[H])C([H])([H])[H])C(C([H])([H])[H])(C([H])([H])[H])C([H])([H])[H])C([H])(C(=O)N([H])C1([H])c3c([H])c([H])c([H])c([H])c3C([H])([H])C([H])([H])C1([H])[H])C2([H])[H])C([H])([H])N([H])C(=O)N1C([H])([H])C([H])([H])C([H])([H])C([H])(n2nc(-c3c([H])c([H])c(Oc4c([H])c([H])c(F)c([H])c4F)c([H])c3[H])c(C(=O)N([H])[H])c2N([H])[H])C1([H])[H])C([H])([H])[H]

>  <smiles>  (13) 
[H]C(=C([H])C1([H])C([H])([H])C1(C(=O)N([H])C([H])([H])C([H])([H])C([H])([H])Oc1c([H])c([H])c2c(c1[H])C([H])([H])N(C(=O)C([H])(N([H])C(=O)C([H])(N([H])C([H])([H])[H])C([H])([H])[H])C(C([H])([H])[H])(C([H])([H])[H])C([H])([H])[H])C([H])(C(=O)N([H])C1([H])c3c([H])c([H])c([H])c([H])c3C([H])([H])C([H])([H])C1([H])[H])C2([H])[H])C([H])([H])N([H])C(=O)N1C([H])([H])C([H])([H])C([H])([H])C([H])(n2nc(-c3c([H])c([H])c(Oc4c([H])c([H])c(F)c([H])c4F)c([H])c3[H])c(C(=O)N([H])[H])c2N([H])[H])C1([H])[H])C([H])([H])[H]

$$$$
13:0:0
     RDKit          3D

 96103  0  0  1  0  0  0  0  0999 V2000
  -24.6900  -20.8980   18.8010 C   0  0  0  0  0  2  0  0  0  0  0  0
  -25.4800  -21.9540   18.1280 N   0  0  0  0  0  4  0  0  0  0  0  0
  -24.8700  -22.4290   17.4790 H   0  0  0  0  0  0  0  0  0  0  0  0
  -26.2150  -21.5300   17.5890 H   0  0  0  0  0  0  0  0  0  0  0  0
  -26.0680  -22.9670   19.0260 C   0  0  0  0  0  2  0  0  0  0  0  0
  -27.1720  -23.7850   18.3370 C   0  0  0  0  0  2  0  0  0  0  0  0
  -27.9500  -24.6340   19.3580 C   0  0  0  0  0  2  0  0  0  0  0  0
  -28.5250  -25.9330   18.7620 C   0  0  0  0  0  2  0  0  0  0  0  0
  -28.3890  -27.0090   19.6870 O   0  0  0  0  0  0  0  0  0  0  0  0
  -24.5820  -31.8170   23.2610 C   0  0  0  0  0  0  0  0  0  0  0  0
  -27.1750  -27.6640   19.7720 C   0  0  0  0  0  0  0  0  0  0  0  0
  -23.3380  -30.5330   21.5500 C   0  0  0  0  0  3  0  0  0  0  0  0
  -24.7610  -29.1200   19.9790 C   0  0  0  0  0  0  0  0  0  0  0  0
  -25.8560  -30.9230   21.3160 C   0  0  0  0  0  2  0  0  0  0  0  0
  -25.9260  -29.6060   20.5810 C   0  0  0  0  0  0  0  0  0  0  0  0
  -27.1310  -28.8770   20.4890 C   0  0  0  0  0  3  0  0  0  0  0  0
  -25.9830  -27.1900   19.1670 C   0  0  0  0  0  3  0  0  0  0  0  0
  -24.7800  -27.9080   19.2750 C   0  0  0  0  0  3  0  0  0  0  0  0
  -23.5150  -29.9610   20.1180 C   0  0  0  0  0  2  0  0  0  0  0  0
  -24.6110  -31.1010   22.1020 N   0  0  0  0  0  0  0  0  0  0  0  0
  -23.5130  -32.0440   23.8480 O   0  0  0  0  0  0  0  0  0  0  0  0
  -22.7170  -29.4380   22.4460 C   0  0  0  0  0  0  0  0  0  0  0  0
  -21.3990  -29.2310   22.3060 N   0  0  0  0  0  0  0  0  0  0  0  0
  -23.4160  -28.7780   23.2200 O   0  0  0  0  0  0  0  0  0  0  0  0
  -20.8940  -29.8200   21.6580 H   0  0  0  0  0  0  0  0  0  0  0  0
  -18.0650  -27.8850   22.6760 C   0  0  0  0  0  0  0  0  0  0  0  0
  -20.6050  -28.2290   23.0170 C   0  0  0  0  0  3  0  0  0  0  0  0
  -20.7760  -26.8290   22.3820 C   0  0  0  0  0  2  0  0  0  0  0  0
  -19.7090  -26.5100   21.3300 C   0  0  0  0  0  2  0  0  0  0  0  0
  -18.3090  -26.5750   21.9490 C   0  0  0  0  0  2  0  0  0  0  0  0
  -19.1440  -28.6700   23.1650 C   0  0  0  0  0  0  0  0  0  0  0  0
  -18.8660  -29.8980   23.8000 C   0  0  0  0  0  3  0  0  0  0  0  0
  -17.5380  -30.3430   23.9560 C   0  0  0  0  0  3  0  0  0  0  0  0
  -16.4740  -29.5560   23.4840 C   0  0  0  0  0  3  0  0  0  0  0  0
  -16.7380  -28.3280   22.8530 C   0  0  0  0  0  3  0  0  0  0  0  0
  -25.8820  -32.4050   23.8920 C   0  0  0  0  0  3  0  0  0  0  0  0
  -26.3790  -31.6000   25.1540 C   0  0  1  0  0  0  0  0  0  0  0  0
  -25.2840  -31.3760   26.2210 C   0  0  0  0  0  1  0  0  0  0  0  0
  -26.9190  -30.2120   24.7370 C   0  0  0  0  0  1  0  0  0  0  0  0
  -27.5520  -32.3510   25.8250 C   0  0  0  0  0  1  0  0  0  0  0  0
  -25.6110  -33.8060   24.2410 N   0  0  0  0  0  0  0  0  0  0  0  0
  -25.9790  -34.8580   23.4970 C   0  0  0  0  0  0  0  0  0  0  0  0
  -26.6580  -34.7500   22.4710 O   0  0  0  0  0  0  0  0  0  0  0  0
  -25.0150  -33.9680   25.0380 H   0  0  0  0  0  0  0  0  0  0  0  0
  -24.3160  -36.7080   23.1330 C   0  0  0  0  0  1  0  0  0  0  0  0
  -25.5230  -36.2520   23.9670 C   0  0  0  0  0  3  0  0  0  0  0  0
  -27.6600  -37.0560   24.8700 C   0  0  0  0  0  1  0  0  0  0  0  0
  -26.5900  -37.2740   23.9000 N   0  0  0  0  0  0  0  0  0  0  0  0
  -26.2080  -38.2030   24.0550 H   0  0  0  0  0  0  0  0  0  0  0  0
  -25.5190  -19.8820   19.6290 C   0  0  0  0  0  2  0  0  0  0  0  0
  -26.5550  -19.0500   18.8340 C   0  0  0  0  0  2  0  0  0  0  0  0
  -27.9240  -19.7240   18.6670 C   0  0  0  0  0  0  0  0  0  0  0  0
  -28.1540  -20.8240   19.1710 O   0  0  0  0  0  0  0  0  0  0  0  0
  -28.4530  -18.5680   16.4590 C   0  0  0  0  0  1  0  0  0  0  0  0
  -28.9990  -19.0260   17.8240 C   0  0  0  0  0  3  0  0  0  0  0  0
  -29.7030  -17.8610   18.5430 C   0  0  0  0  0  2  0  0  0  0  0  0
  -30.4410  -18.2060   19.8550 C   0  0  0  0  0  2  0  0  0  0  0  0
  -31.6880  -17.3330   20.1050 C   0  0  0  0  0  2  0  0  0  0  0  0
  -31.8710  -14.9080   19.4870 C   0  0  0  0  0  0  0  0  0  0  0  0
  -31.5120  -12.5630   18.7920 C   0  0  0  0  0  2  0  0  0  0  0  0
  -30.4880  -12.4830   17.6390 C   0  0  0  0  0  2  0  0  0  0  0  0
  -29.0440  -12.4680   18.1790 C   0  0  0  0  0  2  0  0  0  0  0  0
  -28.7840  -13.5920   19.2160 C   0  0  0  0  0  3  0  0  0  0  0  0
  -29.8890  -13.5810   20.2910 C   0  0  0  0  0  2  0  0  0  0  0  0
  -31.1920  -13.7400   19.6130 N   0  0  0  0  0  0  0  0  0  0  0  0
  -32.8640  -15.0480   18.7620 O   0  0  0  0  0  0  0  0  0  0  0  0
  -31.3470  -15.9150   20.1990 N   0  0  0  0  0  0  0  0  0  0  0  0
  -30.5610  -15.6700   20.7840 H   0  0  0  0  0  0  0  0  0  0  0  0
  -26.5860  -14.4610   20.2440 C   0  0  0  0  0  0  0  0  0  0  0  0
  -25.4600  -13.8100   20.6730 C   0  0  0  0  0  0  0  0  0  0  0  0
  -25.7060  -12.4200   20.4640 C   0  0  0  0  0  0  0  0  0  0  0  0
  -27.4580  -13.4700   19.8170 N   0  0  0  0  0  0  0  0  0  0  0  0
  -26.9340  -12.2330   20.0020 N   0  0  0  0  0  0  0  0  0  0  0  0
  -24.8220  -11.2610   20.6230 C   0  0  0  0  0  0  0  0  0  0  0  0
  -25.1400  -10.2080   21.5080 C   0  0  0  0  0  3  0  0  0  0  0  0
  -24.2680   -9.1090   21.6560 C   0  0  0  0  0  3  0  0  0  0  0  0
  -23.0600   -9.0590   20.9200 C   0  0  0  0  0  0  0  0  0  0  0  0
  -22.7590  -10.1000   20.0240 C   0  0  0  0  0  3  0  0  0  0  0  0
  -23.6300  -11.1900   19.8740 C   0  0  0  0  0  3  0  0  0  0  0  0
  -22.1600   -8.0210   20.9830 O   0  0  0  0  0  0  0  0  0  0  0  0
  -21.9380   -7.3300   22.1470 C   0  0  0  0  0  0  0  0  0  0  0  0
  -21.4750   -7.9690   23.3170 C   0  0  0  0  0  3  0  0  0  0  0  0
  -21.1970   -7.2100   24.4710 C   0  0  0  0  0  3  0  0  0  0  0  0
  -21.3690   -5.8140   24.4540 C   0  0  0  0  0  0  0  0  0  0  0  0
  -21.8210   -5.1740   23.2870 C   0  0  0  0  0  3  0  0  0  0  0  0
  -22.1030   -5.9310   22.1360 C   0  0  0  0  0  0  0  0  0  0  0  0
  -22.5210   -5.3070   21.0080 F   0  0  0  0  0  0  0  0  0  0  0  0
  -21.0910   -5.0810   25.5570 F   0  0  0  0  0  0  0  0  0  0  0  0
  -24.1910  -14.4490   21.1570 C   0  0  0  0  0  0  0  0  0  0  0  0
  -23.4650  -13.7800   22.0480 N   0  0  0  0  0  0  0  0  0  0  0  0
  -23.8570  -15.5730   20.7800 O   0  0  0  0  0  0  0  0  0  0  0  0
  -23.7500  -12.8700   22.3760 H   0  0  0  0  0  0  0  0  0  0  0  0
  -22.6070  -14.1820   22.3990 H   0  0  0  0  0  0  0  0  0  0  0  0
  -26.9230  -15.8060   20.1600 N   0  0  0  0  0  0  0  0  0  0  0  0
  -26.2670  -16.5330   20.4160 H   0  0  0  0  0  0  0  0  0  0  0  0
  -27.7520  -16.1540   19.6980 H   0  0  0  0  0  0  0  0  0  0  0  0
  1 50  1  0
  2  1  1  0
  2  5  1  0
  3  2  1  0
  4  2  1  0
  6  5  1  0
  6  7  1  0
  8  7  1  0
  8  9  1  0
  9 11  1  0
 10 21  2  0
 11 16  1  0
 12 20  1  0
 12 22  1  0
 13 19  1  0
 13 15  1  0
 14 20  1  0
 15 14  1  0
 16 15  2  0
 17 18  1  0
 17 11  2  0
 18 13  2  0
 19 12  1  0
 20 10  1  0
 22 24  2  0
 23 22  1  0
 25 23  1  0
 26 35  2  0
 26 31  1  0
 27 23  1  0
 27 31  1  0
 28 27  1  0
 29 30  1  0
 29 28  1  0
 30 26  1  0
 31 32  2  0
 32 33  1  0
 34 33  2  0
 35 34  1  0
 36 10  1  0
 36 41  1  0
 36 37  1  0
 37 40  1  1
 37 38  1  0
 39 37  1  0
 41 44  1  0
 42 46  1  0
 42 41  1  0
 43 42  2  0
 46 45  1  0
 48 46  1  0
 48 49  1  0
 48 47  1  0
 51 50  1  0
 52 51  1  0
 52 53  2  0
 55 54  1  0
 55 56  1  0
 55 52  1  0
 56 57  1  0
 57 58  1  0
 58 67  1  0
 59 65  1  0
 59 67  1  0
 60 65  1  0
 61 62  1  0
 61 60  1  0
 63 62  1  0
 63 72  1  0
 63 64  1  0
 65 64  1  0
 66 59  2  0
 67 68  1  0
 69 70  2  0
 70 89  1  0
 71 74  1  0
 71 70  1  0
 72 73  1  0
 72 69  1  0
 73 71  2  0
 74 75  1  0
 75 76  2  0
 77 80  1  0
 77 76  1  0
 78 77  2  0
 79 78  1  0
 79 74  2  0
 80 81  1  0
 81 82  1  0
 82 83  2  0
 84 83  1  0
 84 88  1  0
 85 84  2  0
 86 81  2  0
 86 85  1  0
 87 86  1  0
 89 90  1  0
 90 92  1  0
 90 93  1  0
 91 89  2  0
 94 69  1  0
 94 95  1  0
 96 94  1  0
M  ISO  4   8 101   9 101  59 100  67 100
M  END
>  <TORSDO>  (14) 
F 28

>  <SCORE>  (14) 
-8.213

>  <name>  (14) 
13

>  <ligand_id>  (14) 
13

>  <original_smiles>  (14) 
[H]c1c([H])c([H])c2c(c1[H])C([H])([H])C([H])([H])C([H])([H])C2([H])N([H])C(=O)C1([H])N(C(=O)C([H])(N([H])C(=O)C([H])(N([H])C([H])([H])[H])C([H])([H])[H])C(C([H])([H])[H])(C([H])([H])[H])C([H])([H])[H])C([H])([H])c2c([H])c(OC([H])([H])C([H])([H])C([H])([H])C([H])([H])[N+]([H])([H])C([H])([H])C([H])([H])C([H])([H])C(=O)C([H])(C([H])([H])[H])C([H])([H])C([H])([H])C([H])([H])N([H])C(=O)N3C([H])([H])C([H])([H])C([H])([H])C([H])(n4nc(-c5c([H])c([H])c(Oc6c([H])c([H])c(F)c([H])c6F)c([H])c5[H])c(C(=O)N([H])[H])c4N([H])[H])C3([H])[H])c([H])c([H])c2C1([H])[H]

>  <smiles>  (14) 
[H]c1c([H])c([H])c2c(c1[H])C([H])([H])C([H])([H])C([H])([H])C2([H])N([H])C(=O)C1([H])N(C(=O)C([H])(N([H])C(=O)C([H])(N([H])C([H])([H])[H])C([H])([H])[H])C(C([H])([H])[H])(C([H])([H])[H])C([H])([H])[H])C([H])([H])c2c([H])c(OC([H])([H])C([H])([H])C([H])([H])C([H])([H])[N+]([H])([H])C([H])([H])C([H])([H])C([H])([H])C(=O)C([H])(C([H])([H])[H])C([H])([H])C([H])([H])C([H])([H])N([H])C(=O)N3C([H])([H])C([H])([H])C([H])([H])C([H])(n4nc(-c5c([H])c([H])c(Oc6c([H])c([H])c(F)c([H])c6F)c([H])c5[H])c(C(=O)N([H])[H])c4N([H])[H])C3([H])[H])c([H])c([H])c2C1([H])[H]

$$$$
14:0:0
     RDKit          3D

 94102  0  0  1  0  0  0  0  0999 V2000
  -29.9440  -20.6200   20.5550 C   0  0  0  0  0  3  0  0  0  0  0  0
  -28.9970  -19.5200   21.1520 C   0  0  0  0  0  3  0  0  0  0  0  0
  -29.6600  -18.1070   21.3640 C   0  0  0  0  0  0  0  0  0  0  0  0
  -30.6370  -17.9910   22.1670 N   0  0  0  0  0  0  0  0  0  0  0  0
  -30.9020  -18.8750   22.5820 H   0  0  0  0  0  0  0  0  0  0  0  0
  -30.8370  -14.8520   20.6700 C   0  0  0  0  0  0  0  0  0  0  0  0
  -30.6410  -12.6040   19.6720 C   0  0  0  0  0  2  0  0  0  0  0  0
  -29.7670  -12.6870   18.4020 C   0  0  0  0  0  2  0  0  0  0  0  0
  -28.2790  -12.5210   18.7600 C   0  0  0  0  0  2  0  0  0  0  0  0
  -27.8390  -13.4160   19.9510 C   0  0  0  0  0  3  0  0  0  0  0  0
  -28.8440  -13.3400   21.1230 C   0  0  0  0  0  2  0  0  0  0  0  0
  -30.1670  -13.6660   20.5770 N   0  0  0  0  0  0  0  0  0  0  0  0
  -32.0650  -14.8750   20.5590 O   0  0  0  0  0  0  0  0  0  0  0  0
  -28.4370  -17.1720   19.3310 C   0  0  0  0  0  0  0  0  0  0  0  0
  -29.4310  -17.1200   18.1900 C   0  0  0  0  0  2  0  0  0  0  0  0
  -30.6550  -16.4470   18.8240 C   0  0  0  0  0  2  0  0  0  0  0  0
  -29.1280  -16.8220   20.6410 C   0  0  0  0  0  3  0  0  0  0  0  0
  -30.2020  -15.9330   20.1260 N   0  0  0  0  0  0  0  0  0  0  0  0
  -27.2360  -17.3940   19.1550 O   0  0  0  0  0  0  0  0  0  0  0  0
  -25.3990  -13.9800   20.5350 C   0  0  0  0  0  0  0  0  0  0  0  0
  -24.3320  -13.1910   20.8600 C   0  0  0  0  0  0  0  0  0  0  0  0
  -24.8260  -11.8500   20.8750 C   0  0  0  0  0  0  0  0  0  0  0  0
  -26.4750  -13.1210   20.3700 N   0  0  0  0  0  0  0  0  0  0  0  0
  -26.1320  -11.8350   20.6380 N   0  0  0  0  0  0  0  0  0  0  0  0
  -24.1190  -10.5780   21.0410 C   0  0  0  0  0  0  0  0  0  0  0  0
  -24.4990   -9.6440   22.0300 C   0  0  0  0  0  3  0  0  0  0  0  0
  -23.7870   -8.4360   22.1830 C   0  0  0  0  0  3  0  0  0  0  0  0
  -22.6810   -8.1520   21.3460 C   0  0  0  0  0  0  0  0  0  0  0  0
  -22.3250   -9.0710   20.3450 C   0  0  0  0  0  3  0  0  0  0  0  0
  -23.0390  -10.2710   20.1890 C   0  0  0  0  0  3  0  0  0  0  0  0
  -21.9500   -6.9900   21.4050 O   0  0  0  0  0  0  0  0  0  0  0  0
  -21.8000   -6.2960   22.5790 C   0  0  0  0  0  0  0  0  0  0  0  0
  -21.1860   -6.8720   23.7110 C   0  0  0  0  0  3  0  0  0  0  0  0
  -20.9810   -6.0990   24.8710 C   0  0  0  0  0  3  0  0  0  0  0  0
  -21.3860   -4.7490   24.8990 C   0  0  0  0  0  0  0  0  0  0  0  0
  -21.9980   -4.1740   23.7710 C   0  0  0  0  0  3  0  0  0  0  0  0
  -22.1990   -4.9460   22.6130 C   0  0  0  0  0  0  0  0  0  0  0  0
  -22.7650   -4.3820   21.5190 F   0  0  0  0  0  0  0  0  0  0  0  0
  -21.1880   -4.0020   26.0110 F   0  0  0  0  0  0  0  0  0  0  0  0
  -22.9110  -13.6370   21.0470 C   0  0  0  0  0  0  0  0  0  0  0  0
  -22.1520  -12.9380   21.8810 N   0  0  0  0  0  0  0  0  0  0  0  0
  -22.4790  -14.6430   20.4830 O   0  0  0  0  0  0  0  0  0  0  0  0
  -22.5060  -12.1200   22.3530 H   0  0  0  0  0  0  0  0  0  0  0  0
  -21.1990  -13.2260   22.0420 H   0  0  0  0  0  0  0  0  0  0  0  0
  -25.5270  -15.3490   20.3390 N   0  0  0  0  0  0  0  0  0  0  0  0
  -24.7110  -15.9510   20.3910 H   0  0  0  0  0  0  0  0  0  0  0  0
  -26.3060  -15.8170   19.8900 H   0  0  0  0  0  0  0  0  0  0  0  0
  -29.4320  -22.0840   20.2470 C   0  0  0  0  0  2  0  0  0  0  0  0
  -27.4990  -22.8720   21.7090 C   0  0  0  0  0  1  0  0  0  0  0  0
  -29.7820  -22.7580   22.6820 C   0  0  0  0  0  1  0  0  0  0  0  0
  -28.9960  -23.0750   21.3920 C   0  0  1  0  0  0  0  0  0  0  0  0
  -29.2970  -24.6040   21.0700 C   0  0  0  0  0  2  0  0  0  0  0  0
  -28.5190  -25.3680   19.9520 C   0  0  0  0  0  2  0  0  0  0  0  0
  -28.6010  -26.8240   20.0830 O   0  0  0  0  0  0  0  0  0  0  0  0
  -24.6540  -31.8960   23.2440 C   0  0  0  0  0  0  0  0  0  0  0  0
  -27.4320  -27.5820   20.0390 C   0  0  0  0  0  0  0  0  0  0  0  0
  -23.5010  -30.5140   21.5520 C   0  0  0  0  0  3  0  0  0  0  0  0
  -25.0050  -29.0730   20.0760 C   0  0  0  0  0  0  0  0  0  0  0  0
  -26.0210  -30.9420   21.3820 C   0  0  0  0  0  2  0  0  0  0  0  0
  -26.1490  -29.5910   20.6970 C   0  0  0  0  0  0  0  0  0  0  0  0
  -27.3650  -28.8550   20.6720 C   0  0  0  0  0  3  0  0  0  0  0  0
  -26.2700  -27.1150   19.3800 C   0  0  0  0  0  3  0  0  0  0  0  0
  -25.0670  -27.8420   19.4090 C   0  0  0  0  0  3  0  0  0  0  0  0
  -23.7330  -29.8860   20.1510 C   0  0  0  0  0  2  0  0  0  0  0  0
  -24.7440  -31.1320   22.1180 N   0  0  0  0  0  0  0  0  0  0  0  0
  -23.5620  -32.1180   23.7880 O   0  0  0  0  0  0  0  0  0  0  0  0
  -22.8790  -29.4430   22.4790 C   0  0  0  0  0  0  0  0  0  0  0  0
  -21.5580  -29.2370   22.3570 N   0  0  0  0  0  0  0  0  0  0  0  0
  -23.5820  -28.8020   23.2660 O   0  0  0  0  0  0  0  0  0  0  0  0
  -21.0510  -29.8130   21.7010 H   0  0  0  0  0  0  0  0  0  0  0  0
  -18.2100  -27.9520   22.8450 C   0  0  0  0  0  0  0  0  0  0  0  0
  -20.7680  -28.2480   23.0940 C   0  0  0  0  0  3  0  0  0  0  0  0
  -20.8840  -26.8440   22.4550 C   0  0  0  0  0  2  0  0  0  0  0  0
  -19.7750  -26.5410   21.4470 C   0  0  0  0  0  2  0  0  0  0  0  0
  -18.3980  -26.6360   22.1100 C   0  0  0  0  0  2  0  0  0  0  0  0
  -19.3230  -28.7150   23.2940 C   0  0  0  0  0  0  0  0  0  0  0  0
  -19.0880  -29.9480   23.9390 C   0  0  0  0  0  3  0  0  0  0  0  0
  -17.7760  -30.4140   24.1430 C   0  0  0  0  0  3  0  0  0  0  0  0
  -16.6780  -29.6470   23.7130 C   0  0  0  0  0  3  0  0  0  0  0  0
  -16.8980  -28.4180   23.0680 C   0  0  0  0  0  3  0  0  0  0  0  0
  -25.9160  -32.5510   23.8880 C   0  0  0  0  0  3  0  0  0  0  0  0
  -25.5770  -33.9440   24.2130 N   0  0  0  0  0  0  0  0  0  0  0  0
  -25.8960  -35.0030   23.4570 C   0  0  0  0  0  0  0  0  0  0  0  0
  -26.5780  -34.9080   22.4320 O   0  0  0  0  0  0  0  0  0  0  0  0
  -24.9710  -34.0850   25.0070 H   0  0  0  0  0  0  0  0  0  0  0  0
  -24.1470  -36.7700   23.0720 C   0  0  0  0  0  1  0  0  0  0  0  0
  -25.3770  -36.3840   23.9070 C   0  0  0  0  0  3  0  0  0  0  0  0
  -27.4710  -37.3060   24.7920 C   0  0  0  0  0  1  0  0  0  0  0  0
  -26.3950  -37.4520   23.8180 N   0  0  0  0  0  0  0  0  0  0  0  0
  -25.9720  -38.3660   23.9470 H   0  0  0  0  0  0  0  0  0  0  0  0
  -26.4240  -31.7890   25.1720 C   0  0  1  0  0  0  0  0  0  0  0  0
  -25.3200  -31.5270   26.2230 C   0  0  0  0  0  1  0  0  0  0  0  0
  -27.0380  -30.4220   24.7870 C   0  0  0  0  0  1  0  0  0  0  0  0
  -27.5460  -32.6040   25.8550 C   0  0  0  0  0  1  0  0  0  0  0  0
  1  2  2  0
  2  3  1  0
  3  4  2  0
  4  5  1  0
  7 12  1  0
  8  9  1  0
  8  7  1  0
 10  9  1  0
 10 23  1  0
 10 11  1  0
 12  6  1  0
 12 11  1  0
 13  6  2  0
 14 17  1  0
 15 16  1  0
 15 14  1  0
 16 18  1  0
 17  3  1  0
 18 17  1  0
 18  6  1  0
 19 14  2  0
 20 21  2  0
 21 22  1  0
 21 40  1  0
 22 25  1  0
 23 20  1  0
 23 24  1  0
 24 22  2  0
 25 26  1  0
 26 27  2  0
 28 31  1  0
 28 27  1  0
 29 28  2  0
 30 29  1  0
 30 25  2  0
 31 32  1  0
 32 37  2  0
 32 33  1  0
 33 34  2  0
 34 35  1  0
 35 39  1  0
 36 35  2  0
 37 36  1  0
 38 37  1  0
 40 41  1  0
 41 44  1  0
 41 43  1  0
 42 40  2  0
 45 46  1  0
 45 20  1  0
 47 45  1  0
 48  1  1  0
 48 51  1  0
 51 49  1  1
 51 50  1  0
 52 51  1  0
 53 54  1  0
 53 52  1  0
 55 66  2  0
 56 54  1  0
 56 61  1  0
 57 65  1  0
 57 67  1  0
 58 64  1  0
 58 60  1  0
 59 65  1  0
 60 59  1  0
 61 60  2  0
 62 63  1  0
 62 56  2  0
 63 58  2  0
 64 57  1  0
 65 55  1  0
 67 69  2  0
 68 67  1  0
 70 68  1  0
 71 80  2  0
 71 76  1  0
 72 68  1  0
 72 76  1  0
 73 72  1  0
 74 75  1  0
 74 73  1  0
 75 71  1  0
 76 77  2  0
 77 78  1  0
 79 78  2  0
 80 79  1  0
 81 55  1  0
 81 82  1  0
 81 91  1  0
 82 85  1  0
 83 87  1  0
 83 82  1  0
 84 83  2  0
 87 86  1  0
 89 87  1  0
 89 90  1  0
 89 88  1  0
 91 94  1  1
 91 92  1  0
 93 91  1  0
M  ISO  4   6 100  18 100  53 101  54 101
M  END
>  <TORSDO>  (15) 
F 22

>  <SCORE>  (15) 
-12.726

>  <name>  (15) 
14

>  <ligand_id>  (15) 
14

>  <original_smiles>  (15) 
[H]N=C(C1([H])C(=O)C([H])([H])C([H])([H])N1C(=O)N1C([H])([H])C([H])([H])C([H])([H])C([H])(n2nc(-c3c([H])c([H])c(Oc4c([H])c([H])c(F)c([H])c4F)c([H])c3[H])c(C(=O)N([H])[H])c2N([H])[H])C1([H])[H])C([H])([H])C([H])([H])C([H])([H])C(C([H])([H])[H])(C([H])([H])[H])C([H])([H])C([H])([H])Oc1c([H])c([H])c2c(c1[H])C([H])([H])N(C(=O)C([H])(N([H])C(=O)C([H])(N([H])C([H])([H])[H])C([H])([H])[H])C(C([H])([H])[H])(C([H])([H])[H])C([H])([H])[H])C([H])(C(=O)N([H])C1([H])c3c([H])c([H])c([H])c([H])c3C([H])([H])C([H])([H])C1([H])[H])C2([H])[H]

>  <smiles>  (15) 
[H]N=C(C1([H])C(=O)C([H])([H])C([H])([H])N1C(=O)N1C([H])([H])C([H])([H])C([H])([H])C([H])(n2nc(-c3c([H])c([H])c(Oc4c([H])c([H])c(F)c([H])c4F)c([H])c3[H])c(C(=O)N([H])[H])c2N([H])[H])C1([H])[H])C([H])([H])C([H])([H])C([H])([H])C(C([H])([H])[H])(C([H])([H])[H])C([H])([H])C([H])([H])Oc1c([H])c([H])c2c(c1[H])C([H])([H])N(C(=O)C([H])(N([H])C(=O)C([H])(N([H])C([H])([H])[H])C([H])([H])[H])C(C([H])([H])[H])(C([H])([H])[H])C([H])([H])[H])C([H])(C(=O)N([H])C1([H])c3c([H])c([H])c([H])c([H])c3C([H])([H])C([H])([H])C1([H])[H])C2([H])[H]

$$$$
15:0:0
     RDKit          3D

 90 97  0  0  1  0  0  0  0  0999 V2000
  -28.2530  -22.7640   20.2870 C   0  0  0  0  0  3  0  0  0  0  0  0
  -25.8930  -22.9640   19.1670 C   0  0  0  0  0  1  0  0  0  0  0  0
  -26.8220  -22.1960   20.1230 C   0  0  0  0  0  2  0  0  0  0  0  0
  -28.2400  -24.2630   20.7320 C   0  0  0  0  0  0  0  0  0  0  0  0
  -27.9880  -24.5560   21.9060 O   0  0  0  0  0  0  0  0  0  0  0  0
  -28.5430  -25.3690   19.6820 C   0  0  0  0  0  2  0  0  0  0  0  0
  -28.4630  -26.7230   20.2150 O   0  0  0  0  0  0  0  0  0  0  0  0
  -24.5470  -31.8970   23.2150 C   0  0  0  0  0  0  0  0  0  0  0  0
  -27.2770  -27.4440   20.1730 C   0  0  0  0  0  0  0  0  0  0  0  0
  -23.3850  -30.4910   21.5450 C   0  0  0  0  0  3  0  0  0  0  0  0
  -24.8760  -28.9650   20.1490 C   0  0  0  0  0  0  0  0  0  0  0  0
  -25.9170  -30.8560   21.4050 C   0  0  0  0  0  2  0  0  0  0  0  0
  -26.0210  -29.4870   20.7600 C   0  0  0  0  0  0  0  0  0  0  0  0
  -27.2220  -28.7320   20.7660 C   0  0  0  0  0  3  0  0  0  0  0  0
  -26.1030  -26.9490   19.5580 C   0  0  0  0  0  3  0  0  0  0  0  0
  -24.9140  -27.6970   19.5470 C   0  0  0  0  0  3  0  0  0  0  0  0
  -23.6260  -29.8160   20.1720 C   0  0  0  0  0  2  0  0  0  0  0  0
  -24.6330  -31.0980   22.1130 N   0  0  0  0  0  0  0  0  0  0  0  0
  -23.4500  -32.1600   23.7310 O   0  0  0  0  0  0  0  0  0  0  0  0
  -22.7200  -29.4660   22.4930 C   0  0  0  0  0  0  0  0  0  0  0  0
  -21.3970  -29.2870   22.3470 N   0  0  0  0  0  0  0  0  0  0  0  0
  -23.3930  -28.8340   23.3110 O   0  0  0  0  0  0  0  0  0  0  0  0
  -20.9170  -29.8510   21.6590 H   0  0  0  0  0  0  0  0  0  0  0  0
  -18.0110  -28.1100   22.8160 C   0  0  0  0  0  0  0  0  0  0  0  0
  -20.5710  -28.3390   23.0950 C   0  0  0  0  0  3  0  0  0  0  0  0
  -20.6640  -26.9240   22.4790 C   0  0  0  0  0  2  0  0  0  0  0  0
  -19.5550  -26.6350   21.4600 C   0  0  0  0  0  2  0  0  0  0  0  0
  -18.1780  -26.7710   22.1150 C   0  0  0  0  0  2  0  0  0  0  0  0
  -19.1360  -28.8520   23.2610 C   0  0  0  0  0  0  0  0  0  0  0  0
  -18.9280  -30.1060   23.8770 C   0  0  0  0  0  3  0  0  0  0  0  0
  -17.6280  -30.6150   24.0530 C   0  0  0  0  0  3  0  0  0  0  0  0
  -16.5180  -29.8690   23.6240 C   0  0  0  0  0  3  0  0  0  0  0  0
  -16.7100  -28.6180   23.0120 C   0  0  0  0  0  3  0  0  0  0  0  0
  -25.8110  -32.5370   23.8650 C   0  0  0  0  0  3  0  0  0  0  0  0
  -25.4860  -33.9350   24.1820 N   0  0  0  0  0  0  0  0  0  0  0  0
  -25.8310  -34.9870   23.4290 C   0  0  0  0  0  0  0  0  0  0  0  0
  -26.5280  -34.8860   22.4160 O   0  0  0  0  0  0  0  0  0  0  0  0
  -24.8680  -34.0860   24.9650 H   0  0  0  0  0  0  0  0  0  0  0  0
  -24.1090  -36.7730   23.0190 C   0  0  0  0  0  1  0  0  0  0  0  0
  -25.3250  -36.3740   23.8690 C   0  0  0  0  0  3  0  0  0  0  0  0
  -27.4270  -37.2710   24.7700 C   0  0  0  0  0  1  0  0  0  0  0  0
  -26.3580  -37.4320   23.7900 N   0  0  0  0  0  0  0  0  0  0  0  0
  -25.9430  -38.3510   23.9190 H   0  0  0  0  0  0  0  0  0  0  0  0
  -26.3020  -31.7730   25.1550 C   0  0  1  0  0  0  0  0  0  0  0  0
  -25.1830  -31.5330   26.1940 C   0  0  0  0  0  1  0  0  0  0  0  0
  -26.9050  -30.3990   24.7790 C   0  0  0  0  0  1  0  0  0  0  0  0
  -27.4310  -32.5780   25.8410 C   0  0  0  0  0  1  0  0  0  0  0  0
  -29.0610  -21.8530   21.2770 C   0  0  0  0  0  2  0  0  0  0  0  0
  -29.7630  -20.5580   20.7360 C   0  0  0  0  0  2  0  0  0  0  0  0
  -29.0140  -19.1850   20.7650 C   0  0  0  0  0  2  0  0  0  0  0  0
  -29.9930  -17.9600   20.7630 C   0  0  0  0  0  2  0  0  0  0  0  0
  -29.3670  -16.5290   20.6940 C   0  0  0  0  0  2  0  0  0  0  0  0
  -30.8030  -14.5140   20.2390 C   0  0  0  0  0  0  0  0  0  0  0  0
  -30.4470  -12.3440   19.0970 C   0  0  0  0  0  2  0  0  0  0  0  0
  -29.4690  -12.5000   17.9150 C   0  0  0  0  0  2  0  0  0  0  0  0
  -28.0100  -12.3680   18.3930 C   0  0  0  0  0  2  0  0  0  0  0  0
  -27.7100  -13.2480   19.6350 C   0  0  0  0  0  3  0  0  0  0  0  0
  -28.7910  -13.0600   20.7210 C   0  0  0  0  0  2  0  0  0  0  0  0
  -30.0980  -13.3550   20.1120 N   0  0  0  0  0  0  0  0  0  0  0  0
  -31.8810  -14.6980   19.6710 O   0  0  0  0  0  0  0  0  0  0  0  0
  -30.3150  -15.4540   21.0740 N   0  0  0  0  0  0  0  0  0  0  0  0
  -31.0570  -15.8280   21.6470 H   0  0  0  0  0  0  0  0  0  0  0  0
  -25.3560  -13.9080   20.4390 C   0  0  0  0  0  0  0  0  0  0  0  0
  -24.2790  -13.1590   20.8280 C   0  0  0  0  0  0  0  0  0  0  0  0
  -24.7030  -11.7950   20.7590 C   0  0  0  0  0  0  0  0  0  0  0  0
  -26.3680  -13.0040   20.1570 N   0  0  0  0  0  0  0  0  0  0  0  0
  -25.9800  -11.7260   20.4070 N   0  0  0  0  0  0  0  0  0  0  0  0
  -23.9510  -10.5490   20.9530 C   0  0  0  0  0  0  0  0  0  0  0  0
  -24.3700   -9.5680   21.8800 C   0  0  0  0  0  3  0  0  0  0  0  0
  -23.6170   -8.3880   22.0640 C   0  0  0  0  0  3  0  0  0  0  0  0
  -22.4330   -8.1780   21.3170 C   0  0  0  0  0  0  0  0  0  0  0  0
  -22.0320   -9.1470   20.3810 C   0  0  0  0  0  3  0  0  0  0  0  0
  -22.7840  -10.3180   20.1960 C   0  0  0  0  0  3  0  0  0  0  0  0
  -21.6550   -7.0490   21.4070 O   0  0  0  0  0  0  0  0  0  0  0  0
  -21.5800   -6.3180   22.5640 C   0  0  0  0  0  0  0  0  0  0  0  0
  -21.1320   -6.8860   23.7770 C   0  0  0  0  0  3  0  0  0  0  0  0
  -21.0020   -6.0820   24.9270 C   0  0  0  0  0  3  0  0  0  0  0  0
  -21.3110   -4.7090   24.8640 C   0  0  0  0  0  0  0  0  0  0  0  0
  -21.7540   -4.1410   23.6570 C   0  0  0  0  0  3  0  0  0  0  0  0
  -21.8840   -4.9430   22.5100 C   0  0  0  0  0  0  0  0  0  0  0  0
  -22.2890   -4.3860   21.3420 F   0  0  0  0  0  0  0  0  0  0  0  0
  -21.1820   -3.9340   25.9670 F   0  0  0  0  0  0  0  0  0  0  0  0
  -22.9030  -13.6680   21.1500 C   0  0  0  0  0  0  0  0  0  0  0  0
  -22.1850  -12.9780   22.0280 N   0  0  0  0  0  0  0  0  0  0  0  0
  -22.4740  -14.7120   20.6580 O   0  0  0  0  0  0  0  0  0  0  0  0
  -22.5420  -12.1330   22.4460 H   0  0  0  0  0  0  0  0  0  0  0  0
  -21.2640  -13.3040   22.2890 H   0  0  0  0  0  0  0  0  0  0  0  0
  -25.5500  -15.2770   20.2770 N   0  0  0  0  0  0  0  0  0  0  0  0
  -24.7990  -15.9450   20.4160 H   0  0  0  0  0  0  0  0  0  0  0  0
  -26.3900  -15.7020   19.9070 H   0  0  0  0  0  0  0  0  0  0  0  0
  1  3  1  0
  1  4  1  0
  1 48  1  0
  2  3  1  0
  4  5  2  0
  6  7  1  0
  6  4  1  0
  8 19  2  0
  9  7  1  0
  9 14  1  0
 10 18  1  0
 10 20  1  0
 11 17  1  0
 11 13  1  0
 12 18  1  0
 13 14  2  0
 13 12  1  0
 15  9  2  0
 16 15  1  0
 16 11  2  0
 17 10  1  0
 18  8  1  0
 20 22  2  0
 21 20  1  0
 23 21  1  0
 24 33  2  0
 24 29  1  0
 25 21  1  0
 25 29  1  0
 26 25  1  0
 27 28  1  0
 27 26  1  0
 28 24  1  0
 29 30  2  0
 30 31  1  0
 32 31  2  0
 33 32  1  0
 34  8  1  0
 34 35  1  0
 34 44  1  0
 35 38  1  0
 36 40  1  0
 36 35  1  0
 37 36  2  0
 40 39  1  0
 42 40  1  0
 42 43  1  0
 42 41  1  0
 44 47  1  1
 44 45  1  0
 46 44  1  0
 49 50  1  0
 49 48  1  0
 51 50  1  0
 52 51  1  0
 52 61  1  0
 53 61  1  0
 54 59  1  0
 55 56  1  0
 55 54  1  0
 57 56  1  0
 57 66  1  0
 57 58  1  0
 59 53  1  0
 59 58  1  0
 60 53  2  0
 61 62  1  0
 63 64  2  0
 64 83  1  0
 65 64  1  0
 65 68  1  0
 66 67  1  0
 66 63  1  0
 67 65  2  0
 68 69  1  0
 69 70  2  0
 71 74  1  0
 71 70  1  0
 72 71  2  0
 73 72  1  0
 73 68  2  0
 74 75  1  0
 75 76  1  0
 76 77  2  0
 78 77  1  0
 78 82  1  0
 79 78  2  0
 80 75  2  0
 80 79  1  0
 81 80  1  0
 83 84  1  0
 84 87  1  0
 84 86  1  0
 85 83  2  0
 88 89  1  0
 88 63  1  0
 90 88  1  0
M  ISO  4   6 101   7 101  53 100  61 100
M  END
>  <TORSDO>  (16) 
F 24

>  <SCORE>  (16) 
-12.366

>  <name>  (16) 
15

>  <ligand_id>  (16) 
15

>  <original_smiles>  (16) 
[H]c1c([H])c([H])c2c(c1[H])C([H])([H])C([H])([H])C([H])([H])C2([H])N([H])C(=O)C1([H])N(C(=O)C([H])(N([H])C(=O)C([H])(N([H])C([H])([H])[H])C([H])([H])[H])C(C([H])([H])[H])(C([H])([H])[H])C([H])([H])[H])C([H])([H])c2c([H])c(OC([H])([H])C(=O)C([H])(C([H])([H])C([H])([H])[H])C([H])([H])C([H])([H])C([H])([H])C([H])([H])C([H])([H])N([H])C(=O)N3C([H])([H])C([H])([H])C([H])([H])C([H])(n4nc(-c5c([H])c([H])c(Oc6c([H])c([H])c(F)c([H])c6F)c([H])c5[H])c(C(=O)N([H])[H])c4N([H])[H])C3([H])[H])c([H])c([H])c2C1([H])[H]

>  <smiles>  (16) 
[H]c1c([H])c([H])c2c(c1[H])C([H])([H])C([H])([H])C([H])([H])C2([H])N([H])C(=O)C1([H])N(C(=O)C([H])(N([H])C(=O)C([H])(N([H])C([H])([H])[H])C([H])([H])[H])C(C([H])([H])[H])(C([H])([H])[H])C([H])([H])[H])C([H])([H])c2c([H])c(OC([H])([H])C(=O)C([H])(C([H])([H])C([H])([H])[H])C([H])([H])C([H])([H])C([H])([H])C([H])([H])C([H])([H])N([H])C(=O)N3C([H])([H])C([H])([H])C([H])([H])C([H])(n4nc(-c5c([H])c([H])c(Oc6c([H])c([H])c(F)c([H])c6F)c([H])c5[H])c(C(=O)N([H])[H])c4N([H])[H])C3([H])[H])c([H])c([H])c2C1([H])[H]

$$$$
16:0:0
     RDKit          3D

 97105  0  0  1  0  0  0  0  0999 V2000
  -27.2220  -20.0350   19.2810 C   0  0  0  0  0  0  0  0  0  0  0  0
  -27.3350  -21.3530   19.0880 N   0  0  0  0  0  0  0  0  0  0  0  0
  -26.1330  -19.4830   19.1140 O   0  0  0  0  0  0  0  0  0  0  0  0
  -26.4690  -21.8320   19.2970 H   0  0  0  0  0  0  0  0  0  0  0  0
  -29.2300  -18.4090   18.8800 C   0  0  0  0  0  2  0  0  0  0  0  0
  -27.9850  -18.2190   20.9290 C   0  0  0  0  0  2  0  0  0  0  0  0
  -28.4200  -19.2540   19.8720 C   0  0  0  0  0  3  0  0  0  0  0  0
  -30.0050  -17.3940   19.7540 C   0  0  0  0  0  3  0  0  0  0  0  0
  -29.0570  -17.1130   20.9500 C   0  0  0  0  0  3  0  0  0  0  0  0
  -29.7680  -17.0800   22.2470 N   0  0  0  0  0  4  0  0  0  0  0  0
  -30.1070  -17.9910   22.5020 H   0  0  0  0  0  0  0  0  0  0  0  0
  -30.5550  -16.4530   22.2200 H   0  0  0  0  0  0  0  0  0  0  0  0
  -29.1480  -16.7750   22.9750 H   0  0  0  0  0  0  0  0  0  0  0  0
  -30.5590  -16.1870   18.9220 C   0  0  0  0  0  2  0  0  0  0  0  0
  -31.1870  -13.7810   19.1390 C   0  0  0  0  0  0  0  0  0  0  0  0
  -30.8900  -11.3780   18.6760 C   0  0  0  0  0  2  0  0  0  0  0  0
  -29.8110  -11.2170   17.5880 C   0  0  0  0  0  2  0  0  0  0  0  0
  -28.4000  -11.1840   18.2070 C   0  0  0  0  0  2  0  0  0  0  0  0
  -28.1640  -12.3480   19.2050 C   0  0  0  0  0  3  0  0  0  0  0  0
  -29.3380  -12.4520   20.2030 C   0  0  0  0  0  2  0  0  0  0  0  0
  -30.5860  -12.5980   19.4330 N   0  0  0  0  0  0  0  0  0  0  0  0
  -32.1930  -13.8760   18.4310 O   0  0  0  0  0  0  0  0  0  0  0  0
  -30.4950  -14.8610   19.5520 N   0  0  0  0  0  0  0  0  0  0  0  0
  -29.7060  -14.6470   20.1380 H   0  0  0  0  0  0  0  0  0  0  0  0
  -26.0110  -13.1960   20.3300 C   0  0  0  0  0  0  0  0  0  0  0  0
  -24.9360  -12.5410   20.8670 C   0  0  0  0  0  0  0  0  0  0  0  0
  -25.2040  -11.1480   20.7050 C   0  0  0  0  0  0  0  0  0  0  0  0
  -26.8810  -12.2130   19.8950 N   0  0  0  0  0  0  0  0  0  0  0  0
  -26.4060  -10.9700   20.1690 N   0  0  0  0  0  0  0  0  0  0  0  0
  -24.3580   -9.9730   20.9630 C   0  0  0  0  0  0  0  0  0  0  0  0
  -24.7140   -9.0030   21.9260 C   0  0  0  0  0  3  0  0  0  0  0  0
  -23.8770   -7.8920   22.1640 C   0  0  0  0  0  3  0  0  0  0  0  0
  -22.6690   -7.7430   21.4400 C   0  0  0  0  0  0  0  0  0  0  0  0
  -22.3350   -8.6960   20.4630 C   0  0  0  0  0  3  0  0  0  0  0  0
  -23.1720   -9.7990   20.2220 C   0  0  0  0  0  3  0  0  0  0  0  0
  -21.8080   -6.6840   21.5930 O   0  0  0  0  0  0  0  0  0  0  0  0
  -21.6200   -6.0790   22.8120 C   0  0  0  0  0  0  0  0  0  0  0  0
  -21.1450   -6.7950   23.9330 C   0  0  0  0  0  3  0  0  0  0  0  0
  -20.9000   -6.1230   25.1460 C   0  0  0  0  0  3  0  0  0  0  0  0
  -21.1180   -4.7350   25.2380 C   0  0  0  0  0  0  0  0  0  0  0  0
  -21.5860   -4.0190   24.1230 C   0  0  0  0  0  3  0  0  0  0  0  0
  -21.8330   -4.6900   22.9120 C   0  0  0  0  0  0  0  0  0  0  0  0
  -22.2640   -3.9930   21.8330 F   0  0  0  0  0  0  0  0  0  0  0  0
  -20.8730   -4.0850   26.4020 F   0  0  0  0  0  0  0  0  0  0  0  0
  -23.6780  -13.1640   21.4010 C   0  0  0  0  0  0  0  0  0  0  0  0
  -23.0520  -12.5320   22.3870 N   0  0  0  0  0  0  0  0  0  0  0  0
  -23.2720  -14.2470   20.9820 O   0  0  0  0  0  0  0  0  0  0  0  0
  -23.4000  -11.6590   22.7570 H   0  0  0  0  0  0  0  0  0  0  0  0
  -22.2200  -12.9350   22.7920 H   0  0  0  0  0  0  0  0  0  0  0  0
  -26.3060  -14.5430   20.1580 N   0  0  0  0  0  0  0  0  0  0  0  0
  -25.5550  -15.2180   20.2600 H   0  0  0  0  0  0  0  0  0  0  0  0
  -27.0150  -14.8530   19.5080 H   0  0  0  0  0  0  0  0  0  0  0  0
  -27.9280  -21.8900   17.8670 C   0  0  0  0  0  2  0  0  0  0  0  0
  -28.9840  -22.9770   18.1320 C   0  0  0  0  0  2  0  0  0  0  0  0
  -28.4700  -24.2500   18.8520 C   0  0  0  0  0  2  0  0  0  0  0  0
  -28.6890  -25.5480   18.0430 C   0  0  0  0  0  2  0  0  0  0  0  0
  -28.5350  -26.7300   18.8340 O   0  0  0  0  0  0  0  0  0  0  0  0
  -24.6320  -31.1090   22.8550 C   0  0  0  0  0  0  0  0  0  0  0  0
  -27.2900  -27.2910   19.0260 C   0  0  0  0  0  0  0  0  0  0  0  0
  -23.3780  -29.7990   21.1730 C   0  0  0  0  0  3  0  0  0  0  0  0
  -24.7920  -28.5610   19.4510 C   0  0  0  0  0  0  0  0  0  0  0  0
  -25.8380  -30.3890   20.7970 C   0  0  0  0  0  2  0  0  0  0  0  0
  -25.9590  -29.1110   19.9930 C   0  0  0  0  0  0  0  0  0  0  0  0
  -27.2060  -28.4800   19.7860 C   0  0  0  0  0  3  0  0  0  0  0  0
  -26.1000  -26.7470   18.4880 C   0  0  0  0  0  3  0  0  0  0  0  0
  -24.8590  -27.3730   18.7020 C   0  0  0  0  0  3  0  0  0  0  0  0
  -23.5010  -29.3020   19.7090 C   0  0  0  0  0  2  0  0  0  0  0  0
  -24.6400  -30.4440   21.6660 N   0  0  0  0  0  0  0  0  0  0  0  0
  -23.5920  -31.2210   23.5170 O   0  0  0  0  0  0  0  0  0  0  0  0
  -22.9080  -28.6200   22.0550 C   0  0  0  0  0  0  0  0  0  0  0  0
  -21.6190  -28.2690   21.9460 N   0  0  0  0  0  0  0  0  0  0  0  0
  -23.6970  -28.0260   22.7930 O   0  0  0  0  0  0  0  0  0  0  0  0
  -21.0290  -28.8200   21.3380 H   0  0  0  0  0  0  0  0  0  0  0  0
  -18.5040  -26.4840   22.2830 C   0  0  0  0  0  0  0  0  0  0  0  0
  -20.9670  -27.1640   22.6510 C   0  0  0  0  0  3  0  0  0  0  0  0
  -21.3280  -25.8040   22.0140 C   0  0  0  0  0  2  0  0  0  0  0  0
  -20.3260  -25.3660   20.9390 C   0  0  0  0  0  2  0  0  0  0  0  0
  -18.9300  -25.2250   21.5490 C   0  0  0  0  0  2  0  0  0  0  0  0
  -19.4620  -27.4030   22.7810 C   0  0  0  0  0  0  0  0  0  0  0  0
  -19.0120  -28.5780   23.4240 C   0  0  0  0  0  3  0  0  0  0  0  0
  -17.6360  -28.8400   23.5670 C   0  0  0  0  0  3  0  0  0  0  0  0
  -16.6920  -27.9180   23.0790 C   0  0  0  0  0  3  0  0  0  0  0  0
  -17.1280  -26.7370   22.4500 C   0  0  0  0  0  3  0  0  0  0  0  0
  -25.9230  -31.7740   23.4270 C   0  0  0  0  0  3  0  0  0  0  0  0
  -26.5730  -30.9570   24.6110 C   0  0  1  0  0  0  0  0  0  0  0  0
  -25.5760  -30.5920   25.7350 C   0  0  0  0  0  1  0  0  0  0  0  0
  -27.1950  -29.6430   24.0910 C   0  0  0  0  0  1  0  0  0  0  0  0
  -27.7260  -31.7730   25.2400 C   0  0  0  0  0  1  0  0  0  0  0  0
  -25.5600  -33.1290   23.8670 N   0  0  0  0  0  0  0  0  0  0  0  0
  -25.7870  -34.2420   23.1590 C   0  0  0  0  0  0  0  0  0  0  0  0
  -26.4030  -34.2420   22.0880 O   0  0  0  0  0  0  0  0  0  0  0  0
  -25.0110  -33.2010   24.7110 H   0  0  0  0  0  0  0  0  0  0  0  0
  -23.9480  -35.9480   23.0250 C   0  0  0  0  0  1  0  0  0  0  0  0
  -25.2570  -35.5700   23.7370 C   0  0  0  0  0  3  0  0  0  0  0  0
  -27.3850  -36.5270   24.5010 C   0  0  0  0  0  1  0  0  0  0  0  0
  -26.2220  -36.6880   23.6310 N   0  0  0  0  0  0  0  0  0  0  0  0
  -25.7760  -37.5730   23.8570 H   0  0  0  0  0  0  0  0  0  0  0  0
  2  1  1  0
  2  4  1  0
  3  1  2  0
  5  8  1  0
  5  7  1  0
  6  9  1  0
  7  1  1  0
  7  6  1  0
  8 14  1  0
  8  9  1  0
  9 10  1  0
 10 11  1  0
 10 13  1  0
 12 10  1  0
 14 23  1  0
 15 21  1  0
 15 23  1  0
 16 21  1  0
 17 18  1  0
 17 16  1  0
 19 18  1  0
 19 28  1  0
 19 20  1  0
 21 20  1  0
 22 15  2  0
 23 24  1  0
 25 26  2  0
 26 45  1  0
 27 26  1  0
 27 30  1  0
 28 29  1  0
 28 25  1  0
 29 27  2  0
 30 31  1  0
 31 32  2  0
 33 36  1  0
 33 32  1  0
 34 33  2  0
 35 34  1  0
 35 30  2  0
 36 37  1  0
 37 42  2  0
 37 38  1  0
 38 39  2  0
 39 40  1  0
 40 44  1  0
 41 40  2  0
 42 41  1  0
 43 42  1  0
 45 46  1  0
 46 48  1  0
 46 49  1  0
 47 45  2  0
 50 51  1  0
 50 25  1  0
 52 50  1  0
 53 54  1  0
 53  2  1  0
 54 55  1  0
 56 57  1  0
 56 55  1  0
 57 59  1  0
 58 69  2  0
 59 64  1  0
 60 68  1  0
 60 70  1  0
 61 67  1  0
 61 63  1  0
 62 68  1  0
 63 62  1  0
 64 63  2  0
 65 66  1  0
 65 59  2  0
 66 61  2  0
 67 60  1  0
 68 58  1  0
 70 72  2  0
 71 70  1  0
 73 71  1  0
 74 83  2  0
 74 79  1  0
 75 71  1  0
 75 79  1  0
 76 75  1  0
 77 78  1  0
 77 76  1  0
 78 74  1  0
 79 80  2  0
 80 81  1  0
 82 81  2  0
 83 82  1  0
 84 58  1  0
 84 89  1  0
 84 85  1  0
 85 88  1  1
 85 86  1  0
 87 85  1  0
 89 92  1  0
 90 94  1  0
 90 89  1  0
 91 90  2  0
 94 93  1  0
 96 94  1  0
 96 97  1  0
 96 95  1  0
M  ISO  4  15 100  23 100  56 101  57 101
M  END
>  <TORSDO>  (17) 
F 23

>  <SCORE>  (17) 
-8.269

>  <name>  (17) 
16

>  <ligand_id>  (17) 
16

>  <original_smiles>  (17) 
[H]c1c([H])c([H])c2c(c1[H])C([H])([H])C([H])([H])C([H])([H])C2([H])N([H])C(=O)C1([H])N(C(=O)C([H])(N([H])C(=O)C([H])(N([H])C([H])([H])[H])C([H])([H])[H])C(C([H])([H])[H])(C([H])([H])[H])C([H])([H])[H])C([H])([H])c2c([H])c(OC([H])([H])C([H])([H])C([H])([H])C([H])([H])N([H])C(=O)C3([H])C([H])([H])C([H])(C([H])([H])N([H])C(=O)N4C([H])([H])C([H])([H])C([H])([H])C([H])(n5nc(-c6c([H])c([H])c(Oc7c([H])c([H])c(F)c([H])c7F)c([H])c6[H])c(C(=O)N([H])[H])c5N([H])[H])C4([H])[H])C([H])([N+]([H])([H])[H])C3([H])[H])c([H])c([H])c2C1([H])[H]

>  <smiles>  (17) 
[H]c1c([H])c([H])c2c(c1[H])C([H])([H])C([H])([H])C([H])([H])C2([H])N([H])C(=O)C1([H])N(C(=O)C([H])(N([H])C(=O)C([H])(N([H])C([H])([H])[H])C([H])([H])[H])C(C([H])([H])[H])(C([H])([H])[H])C([H])([H])[H])C([H])([H])c2c([H])c(OC([H])([H])C([H])([H])C([H])([H])C([H])([H])N([H])C(=O)C3([H])C([H])([H])C([H])(C([H])([H])N([H])C(=O)N4C([H])([H])C([H])([H])C([H])([H])C([H])(n5nc(-c6c([H])c([H])c(Oc7c([H])c([H])c(F)c([H])c7F)c([H])c6[H])c(C(=O)N([H])[H])c5N([H])[H])C4([H])[H])C([H])([N+]([H])([H])[H])C3([H])[H])c([H])c([H])c2C1([H])[H]

$$$$
17:0:0
     RDKit          3D

 97104  0  0  1  0  0  0  0  0999 V2000
  -30.6970  -20.1260   19.8050 C   0  0  0  0  0  2  0  0  0  0  0  0
  -30.0240  -21.1380   20.6320 N   0  0  0  0  0  4  0  0  0  0  0  0
  -29.1360  -20.7780   20.9430 H   0  0  0  0  0  0  0  0  0  0  0  0
  -30.5910  -21.3260   21.4430 H   0  0  0  0  0  0  0  0  0  0  0  0
  -29.8010  -22.3860   19.8890 C   0  0  0  0  0  2  0  0  0  0  0  0
  -29.2180  -23.4940   20.7680 C   0  0  0  0  0  2  0  0  0  0  0  0
  -29.0040  -24.7530   19.9280 C   0  0  0  0  0  2  0  0  0  0  0  0
  -28.4210  -25.9050   20.7310 C   0  0  0  0  0  2  0  0  0  0  0  0
  -28.3360  -27.0100   19.8470 O   0  0  0  0  0  0  0  0  0  0  0  0
  -24.5550  -31.9460   23.2050 C   0  0  0  0  0  0  0  0  0  0  0  0
  -27.1480  -27.6820   19.9080 C   0  0  0  0  0  0  0  0  0  0  0  0
  -23.3080  -30.5810   21.5580 C   0  0  0  0  0  3  0  0  0  0  0  0
  -24.7320  -29.1090   20.0400 C   0  0  0  0  0  0  0  0  0  0  0  0
  -25.8140  -30.9930   21.2820 C   0  0  0  0  0  2  0  0  0  0  0  0
  -25.8960  -29.6460   20.6030 C   0  0  0  0  0  0  0  0  0  0  0  0
  -27.1100  -28.9380   20.5350 C   0  0  0  0  0  3  0  0  0  0  0  0
  -25.9760  -27.1390   19.3410 C   0  0  0  0  0  3  0  0  0  0  0  0
  -24.7620  -27.8510   19.4080 C   0  0  0  0  0  3  0  0  0  0  0  0
  -23.4780  -29.9430   20.1520 C   0  0  0  0  0  2  0  0  0  0  0  0
  -24.5790  -31.1850   22.0750 N   0  0  0  0  0  0  0  0  0  0  0  0
  -23.4900  -32.1860   23.7900 O   0  0  0  0  0  0  0  0  0  0  0  0
  -22.7040  -29.5220   22.5070 C   0  0  0  0  0  0  0  0  0  0  0  0
  -21.3810  -29.3130   22.4020 N   0  0  0  0  0  0  0  0  0  0  0  0
  -23.4190  -28.8910   23.2900 O   0  0  0  0  0  0  0  0  0  0  0  0
  -20.8650  -29.8780   21.7430 H   0  0  0  0  0  0  0  0  0  0  0  0
  -18.0480  -28.0250   22.9220 C   0  0  0  0  0  0  0  0  0  0  0  0
  -20.6010  -28.3390   23.1630 C   0  0  0  0  0  3  0  0  0  0  0  0
  -20.7320  -26.9230   22.5580 C   0  0  0  0  0  2  0  0  0  0  0  0
  -19.6240  -26.5950   21.5520 C   0  0  0  0  0  2  0  0  0  0  0  0
  -18.2470  -26.6940   22.2160 C   0  0  0  0  0  2  0  0  0  0  0  0
  -19.1530  -28.8050   23.3520 C   0  0  0  0  0  0  0  0  0  0  0  0
  -18.9130  -30.0530   23.9690 C   0  0  0  0  0  3  0  0  0  0  0  0
  -17.6000  -30.5200   24.1590 C   0  0  0  0  0  3  0  0  0  0  0  0
  -16.5090  -29.7370   23.7460 C   0  0  0  0  0  3  0  0  0  0  0  0
  -16.7350  -28.4910   23.1340 C   0  0  0  0  0  3  0  0  0  0  0  0
  -25.8570  -32.5700   23.8010 C   0  0  0  0  0  3  0  0  0  0  0  0
  -25.5590  -33.9670   24.1390 N   0  0  0  0  0  0  0  0  0  0  0  0
  -25.9060  -35.0210   23.3890 C   0  0  0  0  0  0  0  0  0  0  0  0
  -26.5810  -34.9190   22.3600 O   0  0  0  0  0  0  0  0  0  0  0  0
  -24.9600  -34.1220   24.9370 H   0  0  0  0  0  0  0  0  0  0  0  0
  -24.2020  -36.8380   23.0240 C   0  0  0  0  0  1  0  0  0  0  0  0
  -25.4260  -36.4110   23.8510 C   0  0  0  0  0  3  0  0  0  0  0  0
  -27.5590  -37.2610   24.7210 C   0  0  0  0  0  1  0  0  0  0  0  0
  -26.4720  -37.4540   23.7650 N   0  0  0  0  0  0  0  0  0  0  0  0
  -26.0740  -38.3750   23.9190 H   0  0  0  0  0  0  0  0  0  0  0  0
  -26.4000  -31.7920   25.0620 C   0  0  1  0  0  0  0  0  0  0  0  0
  -25.3250  -31.5260   26.1410 C   0  0  0  0  0  1  0  0  0  0  0  0
  -26.9970  -30.4280   24.6430 C   0  0  0  0  0  1  0  0  0  0  0  0
  -27.5490  -32.5930   25.7190 C   0  0  0  0  0  1  0  0  0  0  0  0
  -30.8700  -18.8040   20.5490 C   0  0  0  0  0  2  0  0  0  0  0  0
  -31.5820  -17.7710   19.6660 C   0  0  0  0  0  2  0  0  0  0  0  0
  -30.6840  -16.6100   19.2180 C   0  0  0  0  0  3  0  0  0  0  0  0
  -31.0410  -14.6800   20.6610 C   0  0  0  0  0  0  0  0  0  0  0  0
  -30.6810  -12.6430   19.4130 C   0  0  0  0  0  2  0  0  0  0  0  0
  -29.8060  -13.0490   18.2070 C   0  0  0  0  0  2  0  0  0  0  0  0
  -28.3090  -12.9700   18.5690 C   0  0  0  0  0  2  0  0  0  0  0  0
  -27.9540  -13.6450   19.9240 C   0  0  0  0  0  3  0  0  0  0  0  0
  -28.9790  -13.2930   21.0330 C   0  0  0  0  0  2  0  0  0  0  0  0
  -30.3340  -13.5370   20.5190 N   0  0  0  0  0  0  0  0  0  0  0  0
  -32.2620  -14.7620   20.5430 O   0  0  0  0  0  0  0  0  0  0  0  0
  -30.2960  -15.7440   20.3400 N   0  0  0  0  0  0  0  0  0  0  0  0
  -29.3060  -15.6210   20.4780 H   0  0  0  0  0  0  0  0  0  0  0  0
  -25.5220  -14.2250   20.5270 C   0  0  0  0  0  0  0  0  0  0  0  0
  -24.4440  -13.4370   20.8270 C   0  0  0  0  0  0  0  0  0  0  0  0
  -24.9180  -12.0910   20.7990 C   0  0  0  0  0  0  0  0  0  0  0  0
  -26.5840  -13.3530   20.3350 N   0  0  0  0  0  0  0  0  0  0  0  0
  -26.2220  -12.0660   20.5590 N   0  0  0  0  0  0  0  0  0  0  0  0
  -24.1950  -10.8200   20.9310 C   0  0  0  0  0  0  0  0  0  0  0  0
  -24.5630   -9.8560   21.8970 C   0  0  0  0  0  3  0  0  0  0  0  0
  -23.8400   -8.6510   22.0160 C   0  0  0  0  0  3  0  0  0  0  0  0
  -22.7350   -8.3980   21.1690 C   0  0  0  0  0  0  0  0  0  0  0  0
  -22.3870   -9.3500   20.1940 C   0  0  0  0  0  3  0  0  0  0  0  0
  -23.1100  -10.5470   20.0730 C   0  0  0  0  0  3  0  0  0  0  0  0
  -21.9920   -7.2420   21.1940 O   0  0  0  0  0  0  0  0  0  0  0  0
  -21.8180   -6.5260   22.3510 C   0  0  0  0  0  0  0  0  0  0  0  0
  -21.2750   -7.1110   23.5140 C   0  0  0  0  0  3  0  0  0  0  0  0
  -21.0470   -6.3220   24.6600 C   0  0  0  0  0  3  0  0  0  0  0  0
  -21.3520   -4.9480   24.6410 C   0  0  0  0  0  0  0  0  0  0  0  0
  -21.8890   -4.3620   23.4810 C   0  0  0  0  0  3  0  0  0  0  0  0
  -22.1180   -5.1480   22.3380 C   0  0  0  0  0  0  0  0  0  0  0  0
  -22.6170   -4.5760   21.2160 F   0  0  0  0  0  0  0  0  0  0  0  0
  -21.1280   -4.1880   25.7380 F   0  0  0  0  0  0  0  0  0  0  0  0
  -23.0290  -13.9000   21.0330 C   0  0  0  0  0  0  0  0  0  0  0  0
  -22.2760  -13.2090   21.8820 N   0  0  0  0  0  0  0  0  0  0  0  0
  -22.5970  -14.9080   20.4760 O   0  0  0  0  0  0  0  0  0  0  0  0
  -22.6380  -12.3970   22.3600 H   0  0  0  0  0  0  0  0  0  0  0  0
  -21.3260  -13.5020   22.0620 H   0  0  0  0  0  0  0  0  0  0  0  0
  -25.6760  -15.5990   20.3830 N   0  0  0  0  0  0  0  0  0  0  0  0
  -24.8860  -16.2290   20.4750 H   0  0  0  0  0  0  0  0  0  0  0  0
  -26.5260  -16.0710   20.1040 H   0  0  0  0  0  0  0  0  0  0  0  0
  -29.4370  -17.0490   18.4180 C   0  0  0  0  0  2  0  0  0  0  0  0
  -29.6480  -18.3480   17.6160 C   0  0  0  0  0  2  0  0  0  0  0  0
  -28.3450  -18.8350   16.9810 C   0  0  0  0  0  0  0  0  0  0  0  0
  -28.3110  -18.9550   15.6590 N   0  0  0  0  0  0  0  0  0  0  0  0
  -27.3660  -19.0940   17.6750 O   0  0  0  0  0  0  0  0  0  0  0  0
  -29.1230  -18.7270   15.1020 H   0  0  0  0  0  0  0  0  0  0  0  0
  -27.4690  -19.2670   15.1950 H   0  0  0  0  0  0  0  0  0  0  0  0
  1 50  1  0
  1  2  1  0
  2  3  1  0
  2  4  1  0
  5  2  1  0
  5  6  1  0
  7  8  1  0
  7  6  1  0
  9 11  1  0
  9  8  1  0
 10 21  2  0
 11 16  1  0
 12 20  1  0
 12 22  1  0
 13 19  1  0
 13 15  1  0
 14 20  1  0
 15 14  1  0
 16 15  2  0
 17 18  1  0
 17 11  2  0
 18 13  2  0
 19 12  1  0
 20 10  1  0
 22 24  2  0
 23 22  1  0
 25 23  1  0
 26 35  2  0
 26 31  1  0
 27 23  1  0
 27 31  1  0
 28 27  1  0
 29 30  1  0
 29 28  1  0
 30 26  1  0
 31 32  2  0
 32 33  1  0
 34 33  2  0
 35 34  1  0
 36 10  1  0
 36 37  1  0
 36 46  1  0
 37 40  1  0
 38 42  1  0
 38 37  1  0
 39 38  2  0
 42 41  1  0
 44 42  1  0
 44 45  1  0
 44 43  1  0
 46 49  1  1
 46 47  1  0
 48 46  1  0
 51 50  1  0
 52 91  1  0
 52 51  1  0
 52 61  1  0
 54 59  1  0
 55 56  1  0
 55 54  1  0
 57 56  1  0
 57 66  1  0
 57 58  1  0
 59 53  1  0
 59 58  1  0
 60 53  2  0
 61 62  1  0
 61 53  1  0
 63 64  2  0
 64 83  1  0
 65 64  1  0
 65 68  1  0
 66 63  1  0
 66 67  1  0
 67 65  2  0
 68 69  1  0
 69 70  2  0
 71 74  1  0
 71 70  1  0
 72 71  2  0
 73 72  1  0
 73 68  2  0
 74 75  1  0
 75 76  1  0
 76 77  2  0
 78 77  1  0
 78 82  1  0
 79 78  2  0
 80 75  2  0
 80 79  1  0
 81 80  1  0
 83 84  1  0
 84 87  1  0
 84 86  1  0
 85 83  2  0
 88 89  1  0
 88 63  1  0
 90 88  1  0
 92 91  1  0
 93 92  1  0
 93 95  2  0
 94 93  1  0
 96 94  1  0
 97 94  1  0
M  ISO  4   8 101   9 101  53 100  61 100
M  END
>  <TORSDO>  (18) 
F 27

>  <SCORE>  (18) 
-11.239

>  <name>  (18) 
17

>  <ligand_id>  (18) 
17

>  <original_smiles>  (18) 
[H]c1c([H])c([H])c2c(c1[H])C([H])([H])C([H])([H])C([H])([H])C2([H])N([H])C(=O)C1([H])N(C(=O)C([H])(N([H])C(=O)C([H])(N([H])C([H])([H])[H])C([H])([H])[H])C(C([H])([H])[H])(C([H])([H])[H])C([H])([H])[H])C([H])([H])c2c([H])c(OC([H])([H])C([H])([H])C([H])([H])C([H])([H])[N+]([H])([H])C([H])([H])C([H])([H])C([H])([H])C([H])(N([H])C(=O)N3C([H])([H])C([H])([H])C([H])([H])C([H])(n4nc(-c5c([H])c([H])c(Oc6c([H])c([H])c(F)c([H])c6F)c([H])c5[H])c(C(=O)N([H])[H])c4N([H])[H])C3([H])[H])C([H])([H])C([H])([H])C(=O)N([H])[H])c([H])c([H])c2C1([H])[H]

>  <smiles>  (18) 
[H]c1c([H])c([H])c2c(c1[H])C([H])([H])C([H])([H])C([H])([H])C2([H])N([H])C(=O)C1([H])N(C(=O)C([H])(N([H])C(=O)C([H])(N([H])C([H])([H])[H])C([H])([H])[H])C(C([H])([H])[H])(C([H])([H])[H])C([H])([H])[H])C([H])([H])c2c([H])c(OC([H])([H])C([H])([H])C([H])([H])C([H])([H])[N+]([H])([H])C([H])([H])C([H])([H])C([H])([H])C([H])(N([H])C(=O)N3C([H])([H])C([H])([H])C([H])([H])C([H])(n4nc(-c5c([H])c([H])c(Oc6c([H])c([H])c(F)c([H])c6F)c([H])c5[H])c(C(=O)N([H])[H])c4N([H])[H])C3([H])[H])C([H])([H])C([H])([H])C(=O)N([H])[H])c([H])c([H])c2C1([H])[H]

$$$$
18:0:0
     RDKit          3D

 93101  0  0  1  0  0  0  0  0999 V2000
  -26.6730  -21.6290   20.6280 C   0  0  0  0  0  1  0  0  0  0  0  0
  -27.8990  -21.1450   19.8270 C   0  0  0  0  0  3  0  0  0  0  0  0
  -30.8210  -21.4000   22.3000 C   0  0  0  0  0  3  0  0  0  0  0  0
  -31.3350  -20.0990   22.1680 C   0  0  0  0  0  3  0  0  0  0  0  0
  -29.6730  -21.7450   21.5700 C   0  0  0  0  0  3  0  0  0  0  0  0
  -30.6980  -19.1980   21.2980 C   0  0  0  0  0  0  0  0  0  0  0  0
  -29.1000  -20.7940   20.7050 C   0  0  0  0  0  0  0  0  0  0  0  0
  -29.6200  -19.5500   20.5580 N   0  0  0  0  0  0  0  0  0  0  0  0
  -31.2250  -17.7720   21.1270 C   0  0  0  0  0  2  0  0  0  0  0  0
  -30.0940  -16.7270   21.2160 C   0  0  0  0  0  2  0  0  0  0  0  0
  -31.0070  -14.5490   20.4120 C   0  0  0  0  0  0  0  0  0  0  0  0
  -30.7230  -12.4080   19.2100 C   0  0  0  0  0  2  0  0  0  0  0  0
  -29.7800  -12.6000   18.0020 C   0  0  0  0  0  2  0  0  0  0  0  0
  -28.3020  -12.4720   18.4200 C   0  0  0  0  0  2  0  0  0  0  0  0
  -27.9610  -13.3260   19.6650 C   0  0  0  0  0  3  0  0  0  0  0  0
  -28.9960  -13.0820   20.7850 C   0  0  0  0  0  2  0  0  0  0  0  0
  -30.3480  -13.3710   20.2570 N   0  0  0  0  0  0  0  0  0  0  0  0
  -31.9820  -14.8920   19.7370 O   0  0  0  0  0  0  0  0  0  0  0  0
  -30.4870  -15.3240   21.3710 N   0  0  0  0  0  0  0  0  0  0  0  0
  -29.8850  -14.8080   21.9970 H   0  0  0  0  0  0  0  0  0  0  0  0
  -25.5520  -13.9740   20.3320 C   0  0  0  0  0  0  0  0  0  0  0  0
  -24.4710  -13.2170   20.7020 C   0  0  0  0  0  0  0  0  0  0  0  0
  -24.9160  -11.8600   20.6870 C   0  0  0  0  0  0  0  0  0  0  0  0
  -26.5920  -13.0780   20.1250 N   0  0  0  0  0  0  0  0  0  0  0  0
  -26.2080  -11.8020   20.3890 N   0  0  0  0  0  0  0  0  0  0  0  0
  -24.1760  -10.6080   20.8880 C   0  0  0  0  0  0  0  0  0  0  0  0
  -24.5600   -9.6770   21.8800 C   0  0  0  0  0  3  0  0  0  0  0  0
  -23.8230   -8.4890   22.0660 C   0  0  0  0  0  3  0  0  0  0  0  0
  -22.6910   -8.2210   21.2600 C   0  0  0  0  0  0  0  0  0  0  0  0
  -22.3270   -9.1420   20.2610 C   0  0  0  0  0  3  0  0  0  0  0  0
  -23.0620  -10.3220   20.0720 C   0  0  0  0  0  3  0  0  0  0  0  0
  -21.9330   -7.0800   21.3500 O   0  0  0  0  0  0  0  0  0  0  0  0
  -21.7760   -6.4090   22.5380 C   0  0  0  0  0  0  0  0  0  0  0  0
  -21.2320   -7.0350   23.6800 C   0  0  0  0  0  3  0  0  0  0  0  0
  -21.0220   -6.2930   24.8590 C   0  0  0  0  0  3  0  0  0  0  0  0
  -21.3510   -4.9240   24.8960 C   0  0  0  0  0  0  0  0  0  0  0  0
  -21.8880   -4.2960   23.7580 C   0  0  0  0  0  3  0  0  0  0  0  0
  -22.0970   -5.0370   22.5820 C   0  0  0  0  0  0  0  0  0  0  0  0
  -22.5960   -4.4230   21.4820 F   0  0  0  0  0  0  0  0  0  0  0  0
  -21.1440   -4.2070   26.0250 F   0  0  0  0  0  0  0  0  0  0  0  0
  -23.0760  -13.7130   20.9590 C   0  0  0  0  0  0  0  0  0  0  0  0
  -22.3360  -13.0380   21.8290 N   0  0  0  0  0  0  0  0  0  0  0  0
  -22.6500  -14.7380   20.4250 O   0  0  0  0  0  0  0  0  0  0  0  0
  -22.6920  -12.2150   22.2920 H   0  0  0  0  0  0  0  0  0  0  0  0
  -21.3990  -13.3520   22.0430 H   0  0  0  0  0  0  0  0  0  0  0  0
  -25.7350  -15.3390   20.1420 N   0  0  0  0  0  0  0  0  0  0  0  0
  -24.9780  -16.0100   20.2370 H   0  0  0  0  0  0  0  0  0  0  0  0
  -26.5980  -15.7570   19.8190 H   0  0  0  0  0  0  0  0  0  0  0  0
  -28.3160  -22.0090   18.6060 C   0  0  0  0  0  2  0  0  0  0  0  0
  -27.8030  -23.4680   18.4800 C   0  0  0  0  0  2  0  0  0  0  0  0
  -28.2910  -24.4870   19.5340 C   0  0  0  0  0  2  0  0  0  0  0  0
  -28.5250  -25.8860   18.9230 C   0  0  0  0  0  2  0  0  0  0  0  0
  -28.3800  -26.9340   19.8860 O   0  0  0  0  0  0  0  0  0  0  0  0
  -24.5710  -31.9420   23.2210 C   0  0  0  0  0  0  0  0  0  0  0  0
  -27.1720  -27.5990   19.9640 C   0  0  0  0  0  0  0  0  0  0  0  0
  -23.3310  -30.5640   21.5850 C   0  0  0  0  0  3  0  0  0  0  0  0
  -24.7570  -29.0700   20.0970 C   0  0  0  0  0  0  0  0  0  0  0  0
  -25.8470  -30.9520   21.3240 C   0  0  0  0  0  2  0  0  0  0  0  0
  -25.9260  -29.5930   20.6600 C   0  0  0  0  0  0  0  0  0  0  0  0
  -27.1330  -28.8610   20.5980 C   0  0  0  0  0  3  0  0  0  0  0  0
  -25.9700  -27.0750   19.4280 C   0  0  0  0  0  3  0  0  0  0  0  0
  -24.7720  -27.8070   19.4860 C   0  0  0  0  0  3  0  0  0  0  0  0
  -23.5090  -29.9160   20.1890 C   0  0  0  0  0  2  0  0  0  0  0  0
  -24.6030  -31.1640   22.1030 N   0  0  0  0  0  0  0  0  0  0  0  0
  -23.5030  -32.1930   23.7980 O   0  0  0  0  0  0  0  0  0  0  0  0
  -22.7160  -29.5170   22.5410 C   0  0  0  0  0  0  0  0  0  0  0  0
  -21.3950  -29.3040   22.4300 N   0  0  0  0  0  0  0  0  0  0  0  0
  -23.4240  -28.8980   23.3400 O   0  0  0  0  0  0  0  0  0  0  0  0
  -20.8830  -29.8490   21.7510 H   0  0  0  0  0  0  0  0  0  0  0  0
  -18.0630  -28.0040   22.9180 C   0  0  0  0  0  0  0  0  0  0  0  0
  -20.6080  -28.3390   23.1980 C   0  0  0  0  0  3  0  0  0  0  0  0
  -20.7600  -26.9130   22.6200 C   0  0  0  0  0  2  0  0  0  0  0  0
  -19.6700  -26.5580   21.6030 C   0  0  0  0  0  2  0  0  0  0  0  0
  -18.2820  -26.6610   22.2420 C   0  0  0  0  0  2  0  0  0  0  0  0
  -19.1540  -28.7980   23.3540 C   0  0  0  0  0  0  0  0  0  0  0  0
  -18.8940  -30.0550   23.9420 C   0  0  0  0  0  3  0  0  0  0  0  0
  -17.5740  -30.5170   24.0980 C   0  0  0  0  0  3  0  0  0  0  0  0
  -16.4960  -29.7180   23.6820 C   0  0  0  0  0  3  0  0  0  0  0  0
  -16.7410  -28.4630   23.0970 C   0  0  0  0  0  3  0  0  0  0  0  0
  -25.8690  -32.5710   23.8160 C   0  0  0  0  0  3  0  0  0  0  0  0
  -25.5650  -33.9650   24.1600 N   0  0  0  0  0  0  0  0  0  0  0  0
  -25.8820  -35.0230   23.3980 C   0  0  0  0  0  0  0  0  0  0  0  0
  -26.5330  -34.9250   22.3550 O   0  0  0  0  0  0  0  0  0  0  0  0
  -24.9860  -34.1120   24.9730 H   0  0  0  0  0  0  0  0  0  0  0  0
  -24.1490  -36.8160   23.0730 C   0  0  0  0  0  1  0  0  0  0  0  0
  -25.3980  -36.4050   23.8720 C   0  0  0  0  0  3  0  0  0  0  0  0
  -27.5410  -37.2870   24.6850 C   0  0  0  0  0  1  0  0  0  0  0  0
  -26.4280  -37.4610   23.7550 N   0  0  0  0  0  0  0  0  0  0  0  0
  -26.0230  -38.3790   23.9140 H   0  0  0  0  0  0  0  0  0  0  0  0
  -26.4130  -31.7930   25.0750 C   0  0  1  0  0  0  0  0  0  0  0  0
  -25.3440  -31.5480   26.1630 C   0  0  0  0  0  1  0  0  0  0  0  0
  -26.9870  -30.4180   24.6570 C   0  0  0  0  0  1  0  0  0  0  0  0
  -27.5750  -32.5850   25.7210 C   0  0  0  0  0  1  0  0  0  0  0  0
  2  1  1  0
  2  7  1  0
  4  3  1  0
  5  3  2  0
  6  4  2  0
  7  5  1  0
  8  7  2  0
  8  6  1  0
  9 10  1  0
  9  6  1  0
 10 19  1  0
 11 19  1  0
 12 17  1  0
 13 14  1  0
 13 12  1  0
 15 14  1  0
 15 24  1  0
 15 16  1  0
 17 11  1  0
 17 16  1  0
 18 11  2  0
 19 20  1  0
 21 22  2  0
 22 41  1  0
 23 22  1  0
 23 26  1  0
 24 21  1  0
 24 25  1  0
 25 23  2  0
 26 27  1  0
 27 28  2  0
 29 32  1  0
 29 28  1  0
 30 29  2  0
 31 30  1  0
 31 26  2  0
 32 33  1  0
 33 38  2  0
 33 34  1  0
 34 35  2  0
 35 36  1  0
 36 40  1  0
 37 36  2  0
 38 37  1  0
 39 38  1  0
 41 42  1  0
 42 45  1  0
 42 44  1  0
 43 41  2  0
 46 47  1  0
 46 21  1  0
 48 46  1  0
 49  2  1  0
 50 49  1  0
 50 51  1  0
 52 51  1  0
 52 53  1  0
 53 55  1  0
 54 65  2  0
 55 60  1  0
 56 64  1  0
 56 66  1  0
 57 63  1  0
 57 59  1  0
 58 64  1  0
 59 58  1  0
 60 59  2  0
 61 62  1  0
 61 55  2  0
 62 57  2  0
 63 56  1  0
 64 54  1  0
 66 68  2  0
 67 66  1  0
 69 67  1  0
 70 79  2  0
 70 75  1  0
 71 67  1  0
 71 75  1  0
 72 71  1  0
 73 74  1  0
 73 72  1  0
 74 70  1  0
 75 76  2  0
 76 77  1  0
 78 77  2  0
 79 78  1  0
 80 54  1  0
 80 81  1  0
 80 90  1  0
 81 84  1  0
 82 86  1  0
 82 81  1  0
 83 82  2  0
 86 85  1  0
 88 86  1  0
 88 89  1  0
 88 87  1  0
 90 93  1  1
 90 91  1  0
 92 90  1  0
M  ISO  4  11 100  19 100  52 101  53 101
M  END
>  <TORSDO>  (19) 
F 23

>  <SCORE>  (19) 
-12.252

>  <name>  (19) 
18

>  <ligand_id>  (19) 
18

>  <original_smiles>  (19) 
[H]c1c(C([H])([H])C([H])([H])N([H])C(=O)N2C([H])([H])C([H])([H])C([H])([H])C([H])(n3nc(-c4c([H])c([H])c(Oc5c([H])c([H])c(F)c([H])c5F)c([H])c4[H])c(C(=O)N([H])[H])c3N([H])[H])C2([H])[H])nc(C([H])(C([H])([H])[H])C([H])([H])C([H])([H])C([H])([H])C([H])([H])Oc2c([H])c([H])c3c(c2[H])C([H])([H])N(C(=O)C([H])(N([H])C(=O)C([H])(N([H])C([H])([H])[H])C([H])([H])[H])C(C([H])([H])[H])(C([H])([H])[H])C([H])([H])[H])C([H])(C(=O)N([H])C2([H])c4c([H])c([H])c([H])c([H])c4C([H])([H])C([H])([H])C2([H])[H])C3([H])[H])c([H])c1[H]

>  <smiles>  (19) 
[H]c1c(C([H])([H])C([H])([H])N([H])C(=O)N2C([H])([H])C([H])([H])C([H])([H])C([H])(n3nc(-c4c([H])c([H])c(Oc5c([H])c([H])c(F)c([H])c5F)c([H])c4[H])c(C(=O)N([H])[H])c3N([H])[H])C2([H])[H])nc(C([H])(C([H])([H])[H])C([H])([H])C([H])([H])C([H])([H])C([H])([H])Oc2c([H])c([H])c3c(c2[H])C([H])([H])N(C(=O)C([H])(N([H])C(=O)C([H])(N([H])C([H])([H])[H])C([H])([H])[H])C(C([H])([H])[H])(C([H])([H])[H])C([H])([H])[H])C([H])(C(=O)N([H])C2([H])c4c([H])c([H])c([H])c([H])c4C([H])([H])C([H])([H])C2([H])[H])C3([H])[H])c([H])c1[H]

$$$$
19:0:0
     RDKit          3D

 96104  0  0  1  0  0  0  0  0999 V2000
  -27.8000  -22.1940   21.0350 C   0  0  0  0  0  2  0  0  0  0  0  0
  -26.7650  -22.8780   21.9480 C   0  0  0  0  0  2  0  0  0  0  0  0
  -25.7080  -25.0360   22.7590 C   0  0  0  0  0  1  0  0  0  0  0  0
  -26.8260  -24.4170   21.9070 C   0  0  0  0  0  3  0  0  0  0  0  0
  -26.7990  -24.9900   20.4700 C   0  0  0  0  0  2  0  0  0  0  0  0
  -28.8720  -26.4540   20.9500 C   0  0  0  0  0  1  0  0  0  0  0  0
  -28.1700  -25.4910   19.9700 C   0  0  0  0  0  3  0  0  0  0  0  0
  -28.0670  -26.1200   18.5650 C   0  0  0  0  0  2  0  0  0  0  0  0
  -27.9300  -27.5370   18.6540 O   0  0  0  0  0  0  0  0  0  0  0  0
  -24.4630  -31.8760   23.0810 C   0  0  0  0  0  0  0  0  0  0  0  0
  -26.7180  -28.1070   18.9770 C   0  0  0  0  0  0  0  0  0  0  0  0
  -23.0780  -30.7070   21.4200 C   0  0  0  0  0  3  0  0  0  0  0  0
  -24.3200  -29.4680   19.5790 C   0  0  0  0  0  0  0  0  0  0  0  0
  -25.5220  -31.2020   20.9200 C   0  0  0  0  0  2  0  0  0  0  0  0
  -25.5370  -29.9430   20.0800 C   0  0  0  0  0  0  0  0  0  0  0  0
  -26.7370  -29.2640   19.7850 C   0  0  0  0  0  3  0  0  0  0  0  0
  -25.4810  -27.6320   18.4860 C   0  0  0  0  0  3  0  0  0  0  0  0
  -24.2840  -28.3060   18.7880 C   0  0  0  0  0  3  0  0  0  0  0  0
  -23.0830  -30.2570   19.9320 C   0  0  0  0  0  2  0  0  0  0  0  0
  -24.3860  -31.2640   21.8660 N   0  0  0  0  0  0  0  0  0  0  0  0
  -23.4590  -32.0130   23.7960 O   0  0  0  0  0  0  0  0  0  0  0  0
  -22.5910  -29.5290   22.2870 C   0  0  0  0  0  0  0  0  0  0  0  0
  -21.2770  -29.3450   22.2120 N   0  0  0  0  0  0  0  0  0  0  0  0
  -23.3560  -28.8190   22.9410 O   0  0  0  0  0  0  0  0  0  0  0  0
  -20.7880  -30.0680   21.7040 H   0  0  0  0  0  0  0  0  0  0  0  0
  -18.0190  -27.5530   22.5700 C   0  0  0  0  0  0  0  0  0  0  0  0
  -20.4410  -28.2160   22.5280 C   0  0  0  0  0  3  0  0  0  0  0  0
  -20.8430  -26.7780   22.1790 C   0  0  0  0  0  2  0  0  0  0  0  0
  -19.7810  -26.1960   21.2210 C   0  0  0  0  0  2  0  0  0  0  0  0
  -18.3580  -26.2620   21.8180 C   0  0  0  0  0  2  0  0  0  0  0  0
  -19.0300  -28.4410   23.0100 C   0  0  0  0  0  0  0  0  0  0  0  0
  -18.6930  -29.6140   23.7160 C   0  0  0  0  0  3  0  0  0  0  0  0
  -17.3410  -29.9310   23.9390 C   0  0  0  0  0  3  0  0  0  0  0  0
  -16.3300  -29.0700   23.4750 C   0  0  0  0  0  3  0  0  0  0  0  0
  -16.6680  -27.8770   22.8090 C   0  0  0  0  0  3  0  0  0  0  0  0
  -25.8070  -32.4480   23.6190 C   0  0  0  0  0  3  0  0  0  0  0  0
  -26.4410  -31.5570   24.7540 C   0  0  1  0  0  0  0  0  0  0  0  0
  -25.4610  -31.2220   25.9020 C   0  0  0  0  0  1  0  0  0  0  0  0
  -26.9700  -30.2270   24.1690 C   0  0  0  0  0  1  0  0  0  0  0  0
  -27.6550  -32.2880   25.3720 C   0  0  0  0  0  1  0  0  0  0  0  0
  -25.5430  -33.8080   24.1080 N   0  0  0  0  0  0  0  0  0  0  0  0
  -25.8100  -34.9250   23.4200 C   0  0  0  0  0  0  0  0  0  0  0  0
  -26.3850  -34.9160   22.3270 O   0  0  0  0  0  0  0  0  0  0  0  0
  -25.0360  -33.8890   24.9770 H   0  0  0  0  0  0  0  0  0  0  0  0
  -24.0710  -36.7420   23.3890 C   0  0  0  0  0  1  0  0  0  0  0  0
  -25.3790  -36.2660   24.0430 C   0  0  0  0  0  3  0  0  0  0  0  0
  -27.5940  -37.0680   24.7400 C   0  0  0  0  0  1  0  0  0  0  0  0
  -26.4050  -37.3240   23.9290 N   0  0  0  0  0  0  0  0  0  0  0  0
  -26.0250  -38.2260   24.2020 H   0  0  0  0  0  0  0  0  0  0  0  0
  -28.0850  -20.7390   21.4560 C   0  0  0  0  0  2  0  0  0  0  0  0
  -29.5590  -20.3620   21.3120 C   0  0  0  0  0  0  0  0  0  0  0  0
  -30.4270  -20.9480   21.9620 O   0  0  0  0  0  0  0  0  0  0  0  0
  -29.8880  -19.2360   20.3280 C   0  0  0  0  0  2  0  0  0  0  0  0
  -32.7000  -15.1420   19.5340 C   0  0  0  0  0  0  0  0  0  0  0  0
  -32.2120  -12.8240   18.8370 C   0  0  0  0  0  2  0  0  0  0  0  0
  -31.2020  -12.8250   17.6700 C   0  0  0  0  0  2  0  0  0  0  0  0
  -29.7490  -12.8680   18.1910 C   0  0  0  0  0  2  0  0  0  0  0  0
  -29.5430  -13.9590   19.2750 C   0  0  0  0  0  3  0  0  0  0  0  0
  -30.6530  -13.8380   20.3520 C   0  0  0  0  0  2  0  0  0  0  0  0
  -31.9360  -14.0160   19.6630 N   0  0  0  0  0  0  0  0  0  0  0  0
  -33.8250  -15.0660   19.0250 O   0  0  0  0  0  0  0  0  0  0  0  0
  -32.3890  -18.6160   20.7730 C   0  0  0  0  0  2  0  0  0  0  0  0
  -30.8560  -16.9020   20.0150 C   0  0  0  0  0  2  0  0  0  0  0  0
  -30.9190  -18.1970   20.8260 C   0  0  0  0  0  3  0  0  0  0  0  0
  -33.0960  -17.5670   19.8990 C   0  0  0  0  0  3  0  0  0  0  0  0
  -32.2270  -16.3730   19.9180 N   0  0  0  0  0  0  0  0  0  0  0  0
  -27.3580  -14.9400   20.2260 C   0  0  0  0  0  0  0  0  0  0  0  0
  -26.1990  -14.3420   20.6410 C   0  0  0  0  0  0  0  0  0  0  0  0
  -26.4010  -12.9360   20.4780 C   0  0  0  0  0  0  0  0  0  0  0  0
  -28.2050  -13.9050   19.8520 N   0  0  0  0  0  0  0  0  0  0  0  0
  -27.6330  -12.6930   20.0570 N   0  0  0  0  0  0  0  0  0  0  0  0
  -25.4750  -11.8110   20.6410 C   0  0  0  0  0  0  0  0  0  0  0  0
  -25.7340  -10.7710   21.5600 C   0  0  0  0  0  3  0  0  0  0  0  0
  -24.8180   -9.7080   21.7100 C   0  0  0  0  0  3  0  0  0  0  0  0
  -23.6320   -9.6790   20.9410 C   0  0  0  0  0  0  0  0  0  0  0  0
  -23.3920  -10.7040   20.0090 C   0  0  0  0  0  3  0  0  0  0  0  0
  -24.3060  -11.7590   19.8560 C   0  0  0  0  0  3  0  0  0  0  0  0
  -22.6970   -8.6750   21.0020 O   0  0  0  0  0  0  0  0  0  0  0  0
  -22.4030   -8.0390   22.1820 C   0  0  0  0  0  0  0  0  0  0  0  0
  -21.9440   -8.7450   23.3160 C   0  0  0  0  0  3  0  0  0  0  0  0
  -21.5870   -8.0430   24.4850 C   0  0  0  0  0  3  0  0  0  0  0  0
  -21.6790   -6.6390   24.5190 C   0  0  0  0  0  0  0  0  0  0  0  0
  -22.1330   -5.9350   23.3900 C   0  0  0  0  0  3  0  0  0  0  0  0
  -22.4900   -6.6330   22.2240 C   0  0  0  0  0  0  0  0  0  0  0  0
  -22.9050   -5.9480   21.1300 F   0  0  0  0  0  0  0  0  0  0  0  0
  -21.3290   -5.9630   25.6400 F   0  0  0  0  0  0  0  0  0  0  0  0
  -24.9360  -15.0330   21.0690 C   0  0  0  0  0  0  0  0  0  0  0  0
  -24.1790  -14.4260   21.9770 N   0  0  0  0  0  0  0  0  0  0  0  0
  -24.6360  -16.1450   20.6330 O   0  0  0  0  0  0  0  0  0  0  0  0
  -24.4350  -13.5250   22.3540 H   0  0  0  0  0  0  0  0  0  0  0  0
  -23.3340  -14.8720   22.3050 H   0  0  0  0  0  0  0  0  0  0  0  0
  -27.7510  -16.2710   20.1180 N   0  0  0  0  0  0  0  0  0  0  0  0
  -27.1100  -17.0300   20.3220 H   0  0  0  0  0  0  0  0  0  0  0  0
  -28.6220  -16.5850   19.7110 H   0  0  0  0  0  0  0  0  0  0  0  0
  -34.3810  -19.1810   18.3280 C   0  0  0  0  0  1  0  0  0  0  0  0
  -33.3090  -18.0900   18.4520 C   0  0  0  0  0  2  0  0  0  0  0  0
  1 50  1  0
  1  2  1  0
  4  2  1  0
  4  3  1  0
  5  4  1  0
  7  5  1  0
  7  6  1  0
  8  9  1  0
  8  7  1  0
  9 11  1  0
 10 21  2  0
 11 16  1  0
 12 20  1  0
 12 22  1  0
 13 19  1  0
 13 15  1  0
 14 20  1  0
 15 14  1  0
 16 15  2  0
 17 18  1  0
 17 11  2  0
 18 13  2  0
 19 12  1  0
 20 10  1  0
 22 24  2  0
 23 22  1  0
 25 23  1  0
 26 35  2  0
 26 31  1  0
 27 23  1  0
 27 31  1  0
 28 27  1  0
 29 30  1  0
 29 28  1  0
 30 26  1  0
 31 32  2  0
 32 33  1  0
 34 33  2  0
 35 34  1  0
 36 10  1  0
 36 41  1  0
 36 37  1  0
 37 40  1  1
 37 38  1  0
 39 37  1  0
 41 44  1  0
 42 46  1  0
 42 41  1  0
 43 42  2  0
 46 45  1  0
 48 46  1  0
 48 49  1  0
 48 47  1  0
 51 50  1  0
 51 52  2  0
 53 51  1  0
 54 60  1  0
 54 66  1  0
 55 60  1  0
 56 57  1  0
 56 55  1  0
 58 57  1  0
 58 70  1  0
 58 59  1  0
 60 59  1  0
 61 54  2  0
 62 64  1  0
 63 64  1  0
 64 53  1  0
 65 96  1  0
 65 66  1  0
 65 62  1  0
 66 63  1  0
 67 68  2  0
 68 87  1  0
 69 72  1  0
 69 68  1  0
 70 71  1  0
 70 67  1  0
 71 69  2  0
 72 73  1  0
 73 74  2  0
 75 78  1  0
 75 74  1  0
 76 75  2  0
 77 76  1  0
 77 72  2  0
 78 79  1  0
 79 84  2  0
 79 80  1  0
 80 81  2  0
 81 82  1  0
 82 86  1  0
 83 82  2  0
 84 83  1  0
 85 84  1  0
 87 88  1  0
 88 91  1  0
 88 90  1  0
 89 87  2  0
 92 67  1  0
 92 93  1  0
 94 92  1  0
 95 96  1  0
M  ISO  4   8 101   9 101  54 100  66 100
M  END
>  <TORSDO>  (20) 
F 25

>  <SCORE>  (20) 
-7.802

>  <name>  (20) 
19

>  <ligand_id>  (20) 
19

>  <original_smiles>  (20) 
[H]c1c([H])c([H])c2c(c1[H])C([H])([H])C([H])([H])C([H])([H])C2([H])N([H])C(=O)C1([H])N(C(=O)C([H])(N([H])C(=O)C([H])(N([H])C([H])([H])[H])C([H])([H])[H])C(C([H])([H])[H])(C([H])([H])[H])C([H])([H])[H])C([H])([H])c2c([H])c(OC([H])([H])C([H])(C([H])([H])[H])C([H])([H])C([H])(C([H])([H])[H])C([H])([H])C([H])([H])C([H])([H])C(=O)C([H])([H])C3([H])C([H])([H])N(C(=O)N4C([H])([H])C([H])([H])C([H])([H])C([H])(n5nc(-c6c([H])c([H])c(Oc7c([H])c([H])c(F)c([H])c7F)c([H])c6[H])c(C(=O)N([H])[H])c5N([H])[H])C4([H])[H])C([H])(C([H])([H])C([H])([H])[H])C3([H])[H])c([H])c([H])c2C1([H])[H]

>  <smiles>  (20) 
[H]c1c([H])c([H])c2c(c1[H])C([H])([H])C([H])([H])C([H])([H])C2([H])N([H])C(=O)C1([H])N(C(=O)C([H])(N([H])C(=O)C([H])(N([H])C([H])([H])[H])C([H])([H])[H])C(C([H])([H])[H])(C([H])([H])[H])C([H])([H])[H])C([H])([H])c2c([H])c(OC([H])([H])C([H])(C([H])([H])[H])C([H])([H])C([H])(C([H])([H])[H])C([H])([H])C([H])([H])C([H])([H])C(=O)C([H])([H])C3([H])C([H])([H])N(C(=O)N4C([H])([H])C([H])([H])C([H])([H])C([H])(n5nc(-c6c([H])c([H])c(Oc7c([H])c([H])c(F)c([H])c7F)c([H])c6[H])c(C(=O)N([H])[H])c5N([H])[H])C4([H])[H])C([H])(C([H])([H])C([H])([H])[H])C3([H])[H])c([H])c([H])c2C1([H])[H]

$$$$
20:0:0
     RDKit          3D

 97101  0  0  1  0  0  0  0  0999 V2000
  -28.8350  -13.5090   22.1440 C   0  0  0  0  0  2  0  0  0  0  0  0
  -27.7490  -11.2430   19.5550 C   0  0  0  0  0 15  0  0  0  0  0  0
  -28.9580  -15.1560   21.3040 C   0  0  0  0  0  2  0  0  0  0  0  0
  -27.5470  -14.7800   18.3910 C   0  0  0  0  0  1  0  0  0  0  0  0
  -28.5780  -11.7560   21.4930 C   0  0  0  0  0  2  0  0  0  0  0  0
  -27.2170  -12.6980   18.1860 C   0  0  0  0  0  1  0  0  0  0  0  0
  -27.2730  -12.1150   16.7530 C   0  0  0  0  0  1  0  0  0  0  0  0
  -28.4490  -15.6920   19.7290 N   0  0  2  0  0  4  0  0  0  0  0  0
  -27.5510  -16.0160   20.1250 H   0  0  0  0  0  0  0  0  0  0  0  0
  -31.8150  -12.7610   21.0490 C   0  0  0  0  0  0  0  0  0  0  0  0
  -31.9830  -12.5380   18.5660 C   0  0  0  0  0  2  0  0  0  0  0  0
  -31.0210  -13.2100   17.5530 C   0  0  0  0  0  2  0  0  0  0  0  0
  -29.7230  -13.7800   18.1820 C   0  0  0  0  0  2  0  0  0  0  0  0
  -29.0930  -13.3700   19.6860 C   0  0  0  0  0  2  0  0  0  0  0  0
  -30.0950  -12.1050   19.5720 C   0  0  0  0  0  2  0  0  0  0  0  0
  -31.3820  -12.4230   19.8530 N   0  0  0  0  0  0  0  0  0  0  0  0
  -32.8190  -13.4890   21.0960 O   0  0  0  0  0  0  0  0  0  0  0  0
  -30.0010  -11.2950   22.1810 C   0  0  0  0  0  0  0  0  0  0  0  0
  -31.2020  -12.0310   22.0680 N   0  0  0  0  0  0  0  0  0  0  0  0
  -29.9710  -10.3300   22.9480 O   0  0  0  0  0  0  0  0  0  0  0  0
  -31.8020  -11.9320   22.8700 H   0  0  0  0  0  0  0  0  0  0  0  0
  -25.9920  -14.3820   20.5300 C   0  0  0  0  0  0  0  0  0  0  0  0
  -24.8620  -13.6340   20.6960 C   0  0  0  0  0  0  0  0  0  0  0  0
  -25.2380  -12.3190   20.8120 C   0  0  0  0  0  3  0  0  0  0  0  0
  -27.1590  -13.5260   20.4690 N   0  0  0  0  0  2  0  0  0  0  0  0
  -26.4000  -12.5950   21.2430 N   0  0  0  0  0  2  0  0  0  0  0  0
  -24.5600  -11.0070   20.9280 C   0  0  0  0  0  0  0  0  0  0  0  0
  -24.9680   -9.9770   21.8120 C   0  0  0  0  0  3  0  0  0  0  0  0
  -24.1910   -8.8040   21.9580 C   0  0  0  0  0  3  0  0  0  0  0  0
  -22.9930   -8.6510   21.2180 C   0  0  0  0  0  0  0  0  0  0  0  0
  -22.6340   -9.6420   20.2900 C   0  0  0  0  0  3  0  0  0  0  0  0
  -23.4150  -10.7980   20.1350 C   0  0  0  0  0  3  0  0  0  0  0  0
  -22.1540   -7.5680   21.3040 O   0  0  0  0  0  0  0  0  0  0  0  0
  -21.9260   -6.9180   22.4920 C   0  0  0  0  0  0  0  0  0  0  0  0
  -21.4040   -7.5820   23.6240 C   0  0  0  0  0  3  0  0  0  0  0  0
  -21.1290   -6.8560   24.8000 C   0  0  0  0  0  3  0  0  0  0  0  0
  -21.3650   -5.4670   24.8450 C   0  0  0  0  0  0  0  0  0  0  0  0
  -21.8740   -4.8040   23.7140 C   0  0  0  0  0  3  0  0  0  0  0  0
  -22.1490   -5.5280   22.5410 C   0  0  0  0  0  0  0  0  0  0  0  0
  -22.6200   -4.8810   21.4480 F   0  0  0  0  0  0  0  0  0  0  0  0
  -21.0950   -4.7690   25.9720 F   0  0  0  0  0  0  0  0  0  0  0  0
  -23.4990  -14.1520   20.8410 C   0  0  0  0  0  0  0  0  0  0  0  0
  -22.7620  -13.5850   21.7820 N   0  0  0  0  0  0  0  0  0  0  0  0
  -23.1480  -15.1360   20.2010 O   0  0  0  0  0  0  0  0  0  0  0  0
  -23.1160  -12.8110   22.3260 H   0  0  0  0  0  0  0  0  0  0  0  0
  -21.8320  -13.9300   21.9690 H   0  0  0  0  0  0  0  0  0  0  0  0
  -25.9070  -15.7630   20.3930 N   0  0  0  0  0  0  0  0  0  0  0  0
  -24.9140  -15.9740   20.2760 H   0  0  0  0  0  0  0  0  0  0  0  0
  -26.1400  -16.1990   21.2810 H   0  0  0  0  0  0  0  0  0  0  0  0
  -29.1830  -17.1070   19.5180 C   0  0  0  0  0  3  0  0  0  0  0  0
  -28.7300  -18.5940   20.2630 C   0  0  0  0  0  3  0  0  0  0  0  0
  -29.4980  -20.1270   20.2200 C   0  0  0  0  0  2  0  0  0  0  0  0
  -28.0390  -21.8080   18.8850 C   0  0  0  0  0  1  0  0  0  0  0  0
  -28.7710  -21.6820   20.2270 C   0  0  0  0  0  3  0  0  0  0  0  0
  -29.4930  -23.2100   20.5570 C   0  0  0  0  0  3  0  0  0  0  0  0
  -28.7550  -24.7430   20.3670 C   0  0  0  0  0  3  0  0  0  0  0  0
  -29.1150  -26.2490   20.7550 O   0  0  0  0  0  0  0  0  0  0  0  0
  -24.8180  -31.8210   23.2930 C   0  0  0  0  0  0  0  0  0  0  0  0
  -28.0970  -27.2740   20.6100 C   0  0  0  0  0  0  0  0  0  0  0  0
  -23.9660  -30.3100   21.5600 C   0  0  0  0  0  3  0  0  0  0  0  0
  -25.7010  -28.8930   20.3260 C   0  0  0  0  0  0  0  0  0  0  0  0
  -26.4990  -30.7850   21.7120 C   0  0  0  0  0  2  0  0  0  0  0  0
  -26.7680  -29.4020   21.0790 C   0  0  0  0  0  0  0  0  0  0  0  0
  -27.9780  -28.6040   21.2150 C   0  0  0  0  0  3  0  0  0  0  0  0
  -27.0050  -26.9180   19.7970 C   0  0  0  0  0  3  0  0  0  0  0  0
  -25.8360  -27.6720   19.6760 C   0  0  0  0  0  3  0  0  0  0  0  0
  -24.4100  -29.6800   20.2210 C   0  0  0  0  0  2  0  0  0  0  0  0
  -25.1090  -30.9970   22.2420 N   0  0  0  0  0  0  0  0  0  0  0  0
  -23.6500  -32.0020   23.6760 O   0  0  0  0  0  0  0  0  0  0  0  0
  -23.2850  -29.2320   22.4420 C   0  0  0  0  0  0  0  0  0  0  0  0
  -21.9770  -29.0000   22.2300 N   0  0  0  0  0  0  0  0  0  0  0  0
  -23.9360  -28.6130   23.2870 O   0  0  0  0  0  0  0  0  0  0  0  0
  -21.5050  -29.5530   21.5280 H   0  0  0  0  0  0  0  0  0  0  0  0
  -18.5960  -27.7640   22.6470 C   0  0  0  0  0  0  0  0  0  0  0  0
  -21.1560  -28.0060   22.9270 C   0  0  0  0  0  3  0  0  0  0  0  0
  -21.2560  -26.6220   22.2440 C   0  0  0  0  0  2  0  0  0  0  0  0
  -20.1510  -26.3770   21.2110 C   0  0  0  0  0  2  0  0  0  0  0  0
  -18.7710  -26.4710   21.8670 C   0  0  0  0  0  2  0  0  0  0  0  0
  -19.7150  -28.4920   23.1300 C   0  0  0  0  0  0  0  0  0  0  0  0
  -19.4950  -29.7040   23.8210 C   0  0  0  0  0  3  0  0  0  0  0  0
  -18.1910  -30.1870   24.0310 C   0  0  0  0  0  3  0  0  0  0  0  0
  -17.0860  -29.4550   23.5610 C   0  0  0  0  0  3  0  0  0  0  0  0
  -17.2890  -28.2450   22.8750 C   0  0  0  0  0  3  0  0  0  0  0  0
  -25.9360  -32.5910   24.0540 C   0  0  0  0  0  3  0  0  0  0  0  0
  -25.4700  -33.9720   24.2540 N   0  0  0  0  0  0  0  0  0  0  0  0
  -25.7860  -35.0090   23.4660 C   0  0  0  0  0  0  0  0  0  0  0  0
  -26.5670  -34.9090   22.5150 O   0  0  0  0  0  0  0  0  0  0  0  0
  -24.7830  -34.1160   24.9780 H   0  0  0  0  0  0  0  0  0  0  0  0
  -23.9510  -36.6120   22.8310 C   0  0  0  0  0  1  0  0  0  0  0  0
  -25.1350  -36.3710   23.7810 C   0  0  0  0  0  3  0  0  0  0  0  0
  -27.0770  -37.5110   24.7610 C   0  0  0  0  0  1  0  0  0  0  0  0
  -26.0780  -37.5080   23.6960 N   0  0  0  0  0  0  0  0  0  0  0  0
  -25.5790  -38.3920   23.7270 H   0  0  0  0  0  0  0  0  0  0  0  0
  -26.3050  -31.9330   25.4400 C   0  0  1  0  0  0  0  0  0  0  0  0
  -25.0780  -31.6050   26.3220 C   0  0  0  0  0  1  0  0  0  0  0  0
  -27.0970  -30.6200   25.2360 C   0  0  0  0  0  1  0  0  0  0  0  0
  -27.2290  -32.8820   26.2390 C   0  0  0  0  0  1  0  0  0  0  0  0
  3  1  1  0
  4  8  1  0
  5  1  1  0
  5 18  1  0
  7  6  1  0
  8  9  1  1
  8  3  1  0
 10 17  2  0
 10 19  1  0
 11 16  1  0
 12 13  1  0
 12 11  1  0
 13 14  1  0
 15 14  1  0
 15 16  1  0
 16 10  1  0
 18 20  2  0
 19 18  1  0
 19 21  1  0
 22 23  2  0
 23 24  1  0
 23 42  1  0
 24 27  1  0
 24 26  1  0
 25 22  1  0
 25 26  1  0
 27 28  1  0
 28 29  2  0
 30 33  1  0
 30 29  1  0
 31 30  2  0
 32 31  1  0
 32 27  2  0
 33 34  1  0
 34 39  2  0
 34 35  1  0
 35 36  2  0
 36 37  1  0
 37 41  1  0
 38 37  2  0
 39 38  1  0
 40 39  1  0
 42 43  1  0
 43 46  1  0
 43 45  1  0
 44 42  2  0
 47 22  1  0
 47 49  1  0
 48 47  1  0
 50  8  1  0
 50 51  2  0
 52 54  1  0
 52 51  1  0
 54 53  1  0
 54 55  1  0
 56 55  2  0
 56 57  1  0
 58 69  2  0
 59 57  1  0
 59 64  1  0
 60 68  1  0
 60 70  1  0
 61 63  1  0
 62 68  1  0
 63 64  2  0
 63 62  1  0
 65 59  2  0
 66 65  1  0
 66 61  2  0
 67 61  1  0
 67 60  1  0
 68 58  1  0
 70 72  2  0
 71 70  1  0
 73 71  1  0
 74 83  2  0
 74 79  1  0
 75 71  1  0
 75 79  1  0
 76 75  1  0
 77 78  1  0
 77 76  1  0
 78 74  1  0
 79 80  2  0
 80 81  1  0
 82 81  2  0
 83 82  1  0
 84 58  1  0
 84 85  1  0
 84 94  1  0
 85 88  1  0
 86 90  1  0
 86 85  1  0
 87 86  2  0
 90 89  1  0
 92 93  1  0
 92 90  1  0
 92 91  1  0
 94 97  1  1
 94 95  1  0
 96 94  1  0
M  ISO  4  10 100  19 100  56 101  57 101
M  END
>  <TORSDO>  (21) 
F 22

>  <SCORE>  (21) 
-11.540

>  <name>  (21) 
20

>  <ligand_id>  (21) 
20

>  <original_smiles>  (21) 
[H]c1c([H])c([H])c2c(c1[H])C([H])([H])C([H])([H])C([H])([H])C2([H])N([H])C(=O)C1([H])N(C(=O)C([H])(N([H])C(=O)C([H])(N([H])C([H])([H])[H])C([H])([H])[H])C(C([H])([H])[H])(C([H])([H])[H])C([H])([H])[H])C([H])([H])c2c([H])c(OC([H])([H])C([H])([H])C([H])(C([H])([H])[H])C([H])([H])C([H])([H])C([H])([H])[N+]3([H])C([H])([H])C([H])([H])C([H])(C(=O)N([H])C(=O)N4C([H])([H])C([H])([H])C([H])([H])C([H])(n5nc(-c6c([H])c([H])c(Oc7c([H])c([H])c(F)c([H])c7F)c([H])c6[H])c(C(=O)N([H])[H])c5N([H])[H])C4([H])[H])C([H])([H])C([H])(C([H])([H])[H])C3([H])[H])c([H])c([H])c2C1([H])[H]

>  <smiles>  (21) 
[H]c1c([H])c([H])c2c(c1[H])C([H])([H])C([H])([H])C([H])([H])C2([H])N([H])C(=O)C1([H])N(C(=O)C([H])(N([H])C(=O)C([H])(N([H])C([H])([H])[H])C([H])([H])[H])C(C([H])([H])[H])(C([H])([H])[H])C([H])([H])[H])C([H])([H])c2c([H])c(OC([H])([H])C([H])([H])C([H])(C([H])([H])[H])C([H])([H])C([H])([H])C([H])([H])[N+]3([H])C([H])([H])C([H])([H])C([H])(C(=O)N([H])C(=O)N4C([H])([H])C([H])([H])C([H])([H])C([H])(n5nc(-c6c([H])c([H])c(Oc7c([H])c([H])c(F)c([H])c7F)c([H])c6[H])c(C(=O)N([H])[H])c5N([H])[H])C4([H])[H])C([H])([H])C([H])(C([H])([H])[H])C3([H])[H])c([H])c([H])c2C1([H])[H]

$$$$
21:0:0
     RDKit          3D

 97105  0  0  1  0  0  0  0  0999 V2000
  -31.2780  -22.0990   22.0700 C   0  0  0  0  0  2  0  0  0  0  0  0
  -30.1530  -19.8660   22.9410 C   0  0  0  0  0  2  0  0  0  0  0  0
  -30.2000  -22.8690   22.8860 C   0  0  0  0  0  2  0  0  0  0  0  0
  -29.4680  -20.8330   23.9340 C   0  0  0  0  0  2  0  0  0  0  0  0
  -31.1530  -20.5440   21.9420 C   0  0  0  0  0  3  0  0  0  0  0  0
  -29.0080  -22.0600   23.2370 N   0  0  2  0  0  4  0  0  0  0  0  0
  -28.5120  -22.6120   23.9190 H   0  0  0  0  0  0  0  0  0  0  0  0
  -30.8700  -20.0920   20.4800 C   0  0  0  0  0  0  0  0  0  0  0  0
  -31.3330  -18.9230   20.0190 N   0  0  0  0  0  0  0  0  0  0  0  0
  -30.1790  -20.7910   19.7460 O   0  0  0  0  0  0  0  0  0  0  0  0
  -30.9690  -18.6400   19.1190 H   0  0  0  0  0  0  0  0  0  0  0  0
  -32.4440  -18.1540   20.5560 C   0  0  0  0  0  2  0  0  0  0  0  0
  -32.1190  -16.6560   20.6110 C   0  0  0  0  0  2  0  0  0  0  0  0
  -33.2010  -14.8060   19.3130 C   0  0  0  0  0  0  0  0  0  0  0  0
  -32.5240  -12.5470   18.6260 C   0  0  0  0  0  2  0  0  0  0  0  0
  -31.4580  -12.6740   17.5140 C   0  0  0  0  0  2  0  0  0  0  0  0
  -30.0480  -12.8560   18.1120 C   0  0  0  0  0  2  0  0  0  0  0  0
  -29.9930  -13.9320   19.2270 C   0  0  0  0  0  3  0  0  0  0  0  0
  -31.1350  -13.6880   20.2450 C   0  0  0  0  0  2  0  0  0  0  0  0
  -32.3990  -13.7270   19.4940 N   0  0  0  0  0  0  0  0  0  0  0  0
  -34.2850  -14.7480   18.7220 O   0  0  0  0  0  0  0  0  0  0  0  0
  -32.6040  -16.0010   19.4020 N   0  0  0  0  0  0  0  0  0  0  0  0
  -33.0440  -16.6660   18.7810 H   0  0  0  0  0  0  0  0  0  0  0  0
  -28.0150  -15.0460   20.4400 C   0  0  0  0  0  0  0  0  0  0  0  0
  -26.7900  -14.5570   20.8340 C   0  0  0  0  0  0  0  0  0  0  0  0
  -26.7780  -13.1830   20.4590 C   0  0  0  0  0  0  0  0  0  0  0  0
  -28.6820  -13.9710   19.8730 N   0  0  0  0  0  0  0  0  0  0  0  0
  -27.9450  -12.8350   19.9310 N   0  0  0  0  0  0  0  0  0  0  0  0
  -25.7010  -12.1850   20.5190 C   0  0  0  0  0  0  0  0  0  0  0  0
  -25.9000  -10.9230   21.1190 C   0  0  0  0  0  3  0  0  0  0  0  0
  -24.8460   -9.9850   21.1790 C   0  0  0  0  0  3  0  0  0  0  0  0
  -23.5780  -10.3090   20.6400 C   0  0  0  0  0  0  0  0  0  0  0  0
  -23.3920  -11.5580   20.0240 C   0  0  0  0  0  3  0  0  0  0  0  0
  -24.4430  -12.4880   19.9620 C   0  0  0  0  0  3  0  0  0  0  0  0
  -22.5040   -9.4520   20.6300 O   0  0  0  0  0  0  0  0  0  0  0  0
  -22.3040   -8.5380   21.6340 C   0  0  0  0  0  0  0  0  0  0  0  0
  -22.1760   -8.9300   22.9840 C   0  0  0  0  0  3  0  0  0  0  0  0
  -21.9020   -7.9660   23.9750 C   0  0  0  0  0  3  0  0  0  0  0  0
  -21.7490   -6.6120   23.6180 C   0  0  0  0  0  0  0  0  0  0  0  0
  -21.8710   -6.2210   22.2720 C   0  0  0  0  0  3  0  0  0  0  0  0
  -22.1460   -7.1820   21.2840 C   0  0  0  0  0  0  0  0  0  0  0  0
  -22.2420   -6.8030   19.9860 F   0  0  0  0  0  0  0  0  0  0  0  0
  -21.4770   -5.6880   24.5660 F   0  0  0  0  0  0  0  0  0  0  0  0
  -25.6660  -15.3530   21.4300 C   0  0  0  0  0  0  0  0  0  0  0  0
  -24.8380  -14.7150   22.2510 N   0  0  0  0  0  0  0  0  0  0  0  0
  -25.5410  -16.5560   21.2090 O   0  0  0  0  0  0  0  0  0  0  0  0
  -24.9500  -13.7340   22.4500 H   0  0  0  0  0  0  0  0  0  0  0  0
  -24.0820  -15.2240   22.6860 H   0  0  0  0  0  0  0  0  0  0  0  0
  -28.5960  -16.3070   20.4910 N   0  0  0  0  0  0  0  0  0  0  0  0
  -28.0850  -17.1260   20.8050 H   0  0  0  0  0  0  0  0  0  0  0  0
  -29.4600  -16.5310   20.0140 H   0  0  0  0  0  0  0  0  0  0  0  0
  -28.0090  -21.7800   22.1610 C   0  0  0  0  0  2  0  0  0  0  0  0
  -27.4450  -23.0040   21.4080 C   0  0  0  0  0  2  0  0  0  0  0  0
  -28.3200  -23.6020   20.2830 C   0  0  0  0  0  2  0  0  0  0  0  0
  -28.5520  -25.1110   20.5080 C   0  0  0  0  0  2  0  0  0  0  0  0
  -29.4070  -25.8250   19.4300 C   0  0  0  0  0  2  0  0  0  0  0  0
  -29.4780  -27.2460   19.6530 O   0  0  0  0  0  0  0  0  0  0  0  0
  -24.9760  -31.2250   23.4720 C   0  0  0  0  0  0  0  0  0  0  0  0
  -28.2560  -27.8670   19.6830 C   0  0  0  0  0  0  0  0  0  0  0  0
  -24.0060  -29.9590   21.5780 C   0  0  0  0  0  3  0  0  0  0  0  0
  -25.6760  -28.9520   19.9410 C   0  0  0  0  0  0  0  0  0  0  0  0
  -26.4550  -30.7020   21.5470 C   0  0  0  0  0  2  0  0  0  0  0  0
  -26.7470  -29.5250   20.6400 C   0  0  0  0  0  0  0  0  0  0  0  0
  -28.0490  -28.9870   20.5140 C   0  0  0  0  0  3  0  0  0  0  0  0
  -27.1740  -27.3410   18.9470 C   0  0  0  0  0  3  0  0  0  0  0  0
  -25.8820  -27.8580   19.0930 C   0  0  0  0  0  3  0  0  0  0  0  0
  -24.3090  -29.5640   20.1160 C   0  0  0  0  0  2  0  0  0  0  0  0
  -25.1540  -30.6480   22.2490 N   0  0  0  0  0  0  0  0  0  0  0  0
  -23.8670  -31.2460   24.0200 O   0  0  0  0  0  0  0  0  0  0  0  0
  -23.5120  -28.7130   22.3460 C   0  0  0  0  0  0  0  0  0  0  0  0
  -22.2580  -28.3110   22.0840 N   0  0  0  0  0  0  0  0  0  0  0  0
  -24.2580  -28.1140   23.1300 O   0  0  0  0  0  0  0  0  0  0  0  0
  -21.7110  -28.8480   21.4280 H   0  0  0  0  0  0  0  0  0  0  0  0
  -19.1810  -26.4200   22.0340 C   0  0  0  0  0  0  0  0  0  0  0  0
  -21.5880  -27.1340   22.6340 C   0  0  0  0  0  3  0  0  0  0  0  0
  -22.0400  -25.8510   21.9060 C   0  0  0  0  0  2  0  0  0  0  0  0
  -21.1210  -25.4630   20.7400 C   0  0  0  0  0  2  0  0  0  0  0  0
  -19.7020  -25.2270   21.2530 C   0  0  0  0  0  2  0  0  0  0  0  0
  -20.0690  -27.3260   22.6740 C   0  0  0  0  0  0  0  0  0  0  0  0
  -19.5380  -28.4290   23.3700 C   0  0  0  0  0  3  0  0  0  0  0  0
  -18.1450  -28.6340   23.4410 C   0  0  0  0  0  3  0  0  0  0  0  0
  -17.2720  -27.7250   22.8140 C   0  0  0  0  0  3  0  0  0  0  0  0
  -17.7890  -26.6230   22.1190 C   0  0  0  0  0  3  0  0  0  0  0  0
  -26.1460  -31.9210   24.2230 C   0  0  0  0  0  3  0  0  0  0  0  0
  -25.7150  -33.2890   24.5390 N   0  0  0  0  0  0  0  0  0  0  0  0
  -26.1090  -34.3850   23.8860 C   0  0  0  0  0  0  0  0  0  0  0  0
  -26.9090  -34.3590   22.9480 O   0  0  0  0  0  0  0  0  0  0  0  0
  -24.9410  -33.3770   25.1830 H   0  0  0  0  0  0  0  0  0  0  0  0
  -24.3240  -36.0600   23.3910 C   0  0  0  0  0  1  0  0  0  0  0  0
  -25.4900  -35.7240   24.3300 C   0  0  0  0  0  3  0  0  0  0  0  0
  -27.4610  -36.7140   25.4070 C   0  0  0  0  0  1  0  0  0  0  0  0
  -26.4630  -36.8390   24.3470 N   0  0  0  0  0  0  0  0  0  0  0  0
  -26.0010  -37.7380   24.4580 H   0  0  0  0  0  0  0  0  0  0  0  0
  -26.6230  -31.1650   25.5300 C   0  0  1  0  0  0  0  0  0  0  0  0
  -25.4750  -30.7940   26.4970 C   0  0  0  0  0  1  0  0  0  0  0  0
  -27.3480  -29.8320   25.2080 C   0  0  0  0  0  1  0  0  0  0  0  0
  -27.6600  -32.0360   26.2860 C   0  0  0  0  0  1  0  0  0  0  0  0
  1  3  1  0
  2  4  1  0
  3  6  1  0
  5  8  1  0
  5  1  1  0
  5  2  1  0
  6  7  1  1
  6  4  1  0
  9  8  1  0
  9 12  1  0
 10  8  2  0
 11  9  1  0
 12 13  1  0
 14 22  1  0
 14 20  1  0
 15 20  1  0
 16 17  1  0
 16 15  1  0
 18 17  1  0
 18 27  1  0
 18 19  1  0
 20 19  1  0
 21 14  2  0
 22 13  1  0
 23 22  1  0
 24 49  1  0
 24 25  2  0
 25 44  1  0
 26 29  1  0
 26 25  1  0
 27 28  1  0
 27 24  1  0
 28 26  2  0
 29 30  1  0
 30 31  2  0
 32 31  1  0
 33 32  2  0
 34 33  1  0
 34 29  2  0
 35 32  1  0
 35 36  1  0
 36 37  1  0
 37 38  2  0
 39 38  1  0
 39 43  1  0
 40 39  2  0
 41 36  2  0
 41 40  1  0
 42 41  1  0
 44 45  1  0
 45 47  1  0
 45 48  1  0
 46 44  2  0
 49 50  1  0
 51 49  1  0
 52  6  1  0
 53 52  1  0
 54 55  1  0
 54 53  1  0
 56 57  1  0
 56 55  1  0
 57 59  1  0
 58 69  2  0
 59 64  1  0
 60 68  1  0
 60 70  1  0
 61 67  1  0
 61 63  1  0
 62 68  1  0
 63 62  1  0
 64 63  2  0
 65 66  1  0
 65 59  2  0
 66 61  2  0
 67 60  1  0
 68 58  1  0
 70 72  2  0
 71 70  1  0
 73 71  1  0
 74 83  2  0
 74 79  1  0
 75 71  1  0
 75 79  1  0
 76 75  1  0
 77 78  1  0
 77 76  1  0
 78 74  1  0
 79 80  2  0
 80 81  1  0
 82 81  2  0
 83 82  1  0
 84 58  1  0
 84 85  1  0
 84 94  1  0
 85 88  1  0
 86 90  1  0
 86 85  1  0
 87 86  2  0
 90 89  1  0
 90 92  1  0
 92 93  1  0
 92 91  1  0
 94 97  1  1
 94 95  1  0
 96 94  1  0
M  ISO  4  14 100  22 100  56 101  57 101
M  END
>  <TORSDO>  (22) 
F 24

>  <SCORE>  (22) 
-4.610

>  <name>  (22) 
21

>  <ligand_id>  (22) 
21

>  <original_smiles>  (22) 
[H]c1c([H])c([H])c2c(c1[H])C([H])([H])C([H])([H])C([H])([H])C2([H])N([H])C(=O)C1([H])N(C(=O)C([H])(N([H])C(=O)C([H])(N([H])C([H])([H])[H])C([H])([H])[H])C(C([H])([H])[H])(C([H])([H])[H])C([H])([H])[H])C([H])([H])c2c([H])c(OC([H])([H])C([H])([H])C([H])([H])C([H])([H])C([H])([H])[N+]3([H])C([H])([H])C([H])([H])C([H])(C(=O)N([H])C([H])([H])C([H])([H])N([H])C(=O)N4C([H])([H])C([H])([H])C([H])([H])C([H])(n5nc(-c6c([H])c([H])c(Oc7c([H])c([H])c(F)c([H])c7F)c([H])c6[H])c(C(=O)N([H])[H])c5N([H])[H])C4([H])[H])C([H])([H])C3([H])[H])c([H])c([H])c2C1([H])[H]

>  <smiles>  (22) 
[H]c1c([H])c([H])c2c(c1[H])C([H])([H])C([H])([H])C([H])([H])C2([H])N([H])C(=O)C1([H])N(C(=O)C([H])(N([H])C(=O)C([H])(N([H])C([H])([H])[H])C([H])([H])[H])C(C([H])([H])[H])(C([H])([H])[H])C([H])([H])[H])C([H])([H])c2c([H])c(OC([H])([H])C([H])([H])C([H])([H])C([H])([H])C([H])([H])[N+]3([H])C([H])([H])C([H])([H])C([H])(C(=O)N([H])C([H])([H])C([H])([H])N([H])C(=O)N4C([H])([H])C([H])([H])C([H])([H])C([H])(n5nc(-c6c([H])c([H])c(Oc7c([H])c([H])c(F)c([H])c7F)c([H])c6[H])c(C(=O)N([H])[H])c5N([H])[H])C4([H])[H])C([H])([H])C3([H])[H])c([H])c([H])c2C1([H])[H]

$$$$
22:0:0
     RDKit          3D

 97105  0  0  1  0  0  0  0  0999 V2000
  -29.9390  -17.8000   20.8640 C   0  0  0  0  0  2  0  0  0  0  0  0
  -29.3080  -19.0280   21.5450 C   0  0  0  0  0  2  0  0  0  0  0  0
  -31.4280  -19.4440   22.7820 C   0  0  0  0  0  2  0  0  0  0  0  0
  -30.9840  -17.1320   21.7830 C   0  0  0  0  0  3  0  0  0  0  0  0
  -32.0690  -18.1790   22.1570 C   0  0  0  0  0  3  0  0  0  0  0  0
  -33.0530  -18.5320   21.0220 C   0  0  0  0  0  1  0  0  0  0  0  0
  -30.3170  -20.0290   21.9820 N   0  0  1  0  0  4  0  0  0  0  0  0
  -29.8320  -20.6060   22.6540 H   0  0  0  0  0  0  0  0  0  0  0  0
  -30.7140  -21.0120   20.9390 C   0  0  0  0  0  2  0  0  0  0  0  0
  -29.8120  -22.2660   21.0050 C   0  0  0  0  0  2  0  0  0  0  0  0
  -30.2580  -23.4210   20.0890 C   0  0  0  0  0  2  0  0  0  0  0  0
  -29.3340  -24.6520   20.2090 C   0  0  0  0  0  2  0  0  0  0  0  0
  -30.0620  -25.7000   17.9850 C   0  0  0  0  0  1  0  0  0  0  0  0
  -29.8450  -25.9260   19.4920 C   0  0  0  0  0  3  0  0  0  0  0  0
  -28.9210  -27.1410   19.7440 C   0  0  0  0  0  2  0  0  0  0  0  0
  -27.6890  -26.9400   19.0610 O   0  0  0  0  0  0  0  0  0  0  0  0
  -24.6320  -31.9120   23.2110 C   0  0  0  0  0  0  0  0  0  0  0  0
  -26.6190  -27.7520   19.3660 C   0  0  0  0  0  0  0  0  0  0  0  0
  -23.1390  -30.7250   21.6340 C   0  0  0  0  0  3  0  0  0  0  0  0
  -24.3050  -29.2950   19.8750 C   0  0  0  0  0  0  0  0  0  0  0  0
  -25.6180  -31.0330   21.1000 C   0  0  0  0  0  2  0  0  0  0  0  0
  -25.5540  -29.7290   20.3360 C   0  0  0  0  0  0  0  0  0  0  0  0
  -26.7150  -28.9660   20.0870 C   0  0  0  0  0  3  0  0  0  0  0  0
  -25.3560  -27.3310   18.9040 C   0  0  0  0  0  3  0  0  0  0  0  0
  -24.1980  -28.0900   19.1570 C   0  0  0  0  0  3  0  0  0  0  0  0
  -23.1190  -30.1790   20.1800 C   0  0  0  0  0  2  0  0  0  0  0  0
  -24.4900  -31.2310   22.0390 N   0  0  0  0  0  0  0  0  0  0  0  0
  -23.6540  -32.1620   23.9290 O   0  0  0  0  0  0  0  0  0  0  0  0
  -22.5870  -29.6330   22.5770 C   0  0  0  0  0  0  0  0  0  0  0  0
  -21.2670  -29.3960   22.5040 N   0  0  0  0  0  0  0  0  0  0  0  0
  -23.3370  -29.0050   23.3300 O   0  0  0  0  0  0  0  0  0  0  0  0
  -20.7230  -29.9590   21.8670 H   0  0  0  0  0  0  0  0  0  0  0  0
  -18.0080  -27.9080   22.9730 C   0  0  0  0  0  0  0  0  0  0  0  0
  -20.5310  -28.3880   23.2660 C   0  0  0  0  0  3  0  0  0  0  0  0
  -20.7650  -26.9740   22.6880 C   0  0  0  0  0  2  0  0  0  0  0  0
  -19.7040  -26.5580   21.6640 C   0  0  0  0  0  2  0  0  0  0  0  0
  -18.3090  -26.5800   22.2960 C   0  0  0  0  0  2  0  0  0  0  0  0
  -19.0530  -28.7640   23.4130 C   0  0  0  0  0  0  0  0  0  0  0  0
  -18.7200  -30.0010   24.0040 C   0  0  0  0  0  3  0  0  0  0  0  0
  -17.3750  -30.3860   24.1590 C   0  0  0  0  0  3  0  0  0  0  0  0
  -16.3450  -29.5290   23.7350 C   0  0  0  0  0  3  0  0  0  0  0  0
  -16.6620  -28.2920   23.1470 C   0  0  0  0  0  3  0  0  0  0  0  0
  -26.0240  -32.4300   23.6930 C   0  0  0  0  0  3  0  0  0  0  0  0
  -25.8510  -33.8240   24.1220 N   0  0  0  0  0  0  0  0  0  0  0  0
  -26.1910  -34.8940   23.3890 C   0  0  0  0  0  0  0  0  0  0  0  0
  -26.7550  -34.8020   22.2950 O   0  0  0  0  0  0  0  0  0  0  0  0
  -25.3440  -33.9750   24.9820 H   0  0  0  0  0  0  0  0  0  0  0  0
  -24.5670  -36.8110   23.2940 C   0  0  0  0  0  1  0  0  0  0  0  0
  -25.8490  -36.2830   23.9590 C   0  0  0  0  0  3  0  0  0  0  0  0
  -28.1090  -36.9790   24.6180 C   0  0  0  0  0  1  0  0  0  0  0  0
  -26.9370  -37.2710   23.7960 N   0  0  0  0  0  0  0  0  0  0  0  0
  -26.6130  -38.2060   24.0250 H   0  0  0  0  0  0  0  0  0  0  0  0
  -26.6450  -31.5580   24.8530 C   0  0  1  0  0  0  0  0  0  0  0  0
  -25.6730  -31.3010   26.0270 C   0  0  0  0  0  1  0  0  0  0  0  0
  -27.1070  -30.1840   24.3110 C   0  0  0  0  0  1  0  0  0  0  0  0
  -27.9040  -32.2570   25.4180 C   0  0  0  0  0  1  0  0  0  0  0  0
  -31.5430  -15.7910   21.2240 C   0  0  0  0  0  3  0  0  0  0  0  0
  -30.4110  -14.5900   19.3480 C   0  0  0  0  0  0  0  0  0  0  0  0
  -29.7630  -12.6720   17.9440 C   0  0  0  0  0  2  0  0  0  0  0  0
  -28.6120  -12.9780   16.9720 C   0  0  0  0  0  2  0  0  0  0  0  0
  -27.2560  -12.7470   17.6600 C   0  0  0  0  0  2  0  0  0  0  0  0
  -27.1560  -13.4810   19.0230 C   0  0  0  0  0  3  0  0  0  0  0  0
  -28.3930  -13.1890   19.9010 C   0  0  0  0  0  2  0  0  0  0  0  0
  -29.6140  -13.5150   19.1390 N   0  0  0  0  0  0  0  0  0  0  0  0
  -31.1700  -15.0510   18.4900 O   0  0  0  0  0  0  0  0  0  0  0  0
  -30.4760  -14.9820   20.6290 N   0  0  0  0  0  0  0  0  0  0  0  0
  -29.8400  -14.5230   21.2650 H   0  0  0  0  0  0  0  0  0  0  0  0
  -24.8760  -13.9730   20.1180 C   0  0  0  0  0  0  0  0  0  0  0  0
  -23.9200  -13.1490   20.6480 C   0  0  0  0  0  0  0  0  0  0  0  0
  -24.4320  -11.8200   20.5280 C   0  0  0  0  0  0  0  0  0  0  0  0
  -25.9130  -13.1440   19.7140 N   0  0  0  0  0  0  0  0  0  0  0  0
  -25.6550  -11.8430   20.0140 N   0  0  0  0  0  0  0  0  0  0  0  0
  -23.8060  -10.5250   20.8230 C   0  0  0  0  0  0  0  0  0  0  0  0
  -24.3500   -9.6440   21.7850 C   0  0  0  0  0  3  0  0  0  0  0  0
  -23.7210   -8.4130   22.0650 C   0  0  0  0  0  3  0  0  0  0  0  0
  -22.5340   -8.0500   21.3840 C   0  0  0  0  0  0  0  0  0  0  0  0
  -22.0080   -8.9210   20.4130 C   0  0  0  0  0  3  0  0  0  0  0  0
  -22.6370  -10.1450   20.1300 C   0  0  0  0  0  3  0  0  0  0  0  0
  -21.8680   -6.8640   21.5740 O   0  0  0  0  0  0  0  0  0  0  0  0
  -21.8250   -6.2490   22.7990 C   0  0  0  0  0  0  0  0  0  0  0  0
  -21.2860   -6.8910   23.9360 C   0  0  0  0  0  3  0  0  0  0  0  0
  -21.1970   -6.2000   25.1600 C   0  0  0  0  0  3  0  0  0  0  0  0
  -21.6360   -4.8650   25.2470 C   0  0  0  0  0  0  0  0  0  0  0  0
  -22.1670   -4.2210   24.1160 C   0  0  0  0  0  3  0  0  0  0  0  0
  -22.2580   -4.9110   22.8950 C   0  0  0  0  0  0  0  0  0  0  0  0
  -22.7530   -4.2800   21.8010 F   0  0  0  0  0  0  0  0  0  0  0  0
  -21.5410   -4.1960   26.4200 F   0  0  0  0  0  0  0  0  0  0  0  0
  -22.5670  -13.5580   21.1530 C   0  0  0  0  0  0  0  0  0  0  0  0
  -22.0430  -12.8490   22.1460 N   0  0  0  0  0  0  0  0  0  0  0  0
  -21.9870  -14.5440   20.6980 O   0  0  0  0  0  0  0  0  0  0  0  0
  -22.5270  -12.0530   22.5320 H   0  0  0  0  0  0  0  0  0  0  0  0
  -21.1420  -13.1060   22.5240 H   0  0  0  0  0  0  0  0  0  0  0  0
  -24.9470  -15.3500   19.9290 N   0  0  0  0  0  0  0  0  0  0  0  0
  -24.1790  -15.9710   20.1520 H   0  0  0  0  0  0  0  0  0  0  0  0
  -25.7220  -15.8280   19.4870 H   0  0  0  0  0  0  0  0  0  0  0  0
  -32.6730  -13.5390   21.8280 C   0  0  0  0  0  1  0  0  0  0  0  0
  -32.2740  -14.9490   22.2970 C   0  0  0  0  0  2  0  0  0  0  0  0
  1  2  1  0
  1  4  1  0
  2  7  1  0
  4 57  1  0
  4  5  1  0
  5  6  1  0
  5  3  1  0
  7  8  1  1
  7  3  1  0
  9 10  1  0
  9  7  1  0
 11 12  1  0
 11 10  1  0
 14 13  1  0
 14 15  1  0
 14 12  1  0
 16 18  1  0
 16 15  1  0
 17 28  2  0
 18 23  1  0
 19 27  1  0
 19 29  1  0
 20 26  1  0
 20 22  1  0
 21 27  1  0
 22 21  1  0
 23 22  2  0
 24 25  1  0
 24 18  2  0
 25 20  2  0
 26 19  1  0
 27 17  1  0
 29 31  2  0
 30 29  1  0
 32 30  1  0
 33 42  2  0
 33 38  1  0
 34 30  1  0
 34 38  1  0
 35 34  1  0
 36 37  1  0
 36 35  1  0
 37 33  1  0
 38 39  2  0
 39 40  1  0
 41 40  2  0
 42 41  1  0
 43 17  1  0
 43 44  1  0
 43 53  1  0
 44 47  1  0
 45 49  1  0
 45 44  1  0
 46 45  2  0
 49 48  1  0
 51 49  1  0
 51 52  1  0
 51 50  1  0
 53 56  1  1
 53 54  1  0
 55 53  1  0
 57 97  1  0
 58 66  1  0
 59 64  1  0
 60 61  1  0
 60 59  1  0
 62 61  1  0
 62 71  1  0
 62 63  1  0
 64 58  1  0
 64 63  1  0
 65 58  2  0
 66 57  1  0
 66 67  1  0
 68 69  2  0
 69 88  1  0
 70 69  1  0
 70 73  1  0
 71 72  1  0
 71 68  1  0
 72 70  2  0
 73 74  1  0
 74 75  2  0
 76 79  1  0
 76 75  1  0
 77 76  2  0
 78 77  1  0
 78 73  2  0
 79 80  1  0
 80 85  2  0
 80 81  1  0
 81 82  2  0
 82 83  1  0
 83 87  1  0
 84 83  2  0
 85 84  1  0
 86 85  1  0
 88 89  1  0
 89 92  1  0
 89 91  1  0
 90 88  2  0
 93 68  1  0
 93 94  1  0
 95 93  1  0
 96 97  1  0
M  ISO  4  15 101  16 101  58 100  66 100
M  END
>  <TORSDO>  (23) 
F 24

>  <SCORE>  (23) 
-5.980

>  <name>  (23) 
22

>  <ligand_id>  (23) 
22

>  <original_smiles>  (23) 
[H]c1c([H])c([H])c2c(c1[H])C([H])([H])C([H])([H])C([H])([H])C2([H])N([H])C(=O)C1([H])N(C(=O)C([H])(N([H])C(=O)C([H])(N([H])C([H])([H])[H])C([H])([H])[H])C(C([H])([H])[H])(C([H])([H])[H])C([H])([H])[H])C([H])([H])c2c([H])c(OC([H])([H])C([H])(C([H])([H])[H])C([H])([H])C([H])([H])C([H])([H])C([H])([H])[N+]3([H])C([H])([H])C([H])([H])C([H])(C([H])(N([H])C(=O)N4C([H])([H])C([H])([H])C([H])([H])C([H])(n5nc(-c6c([H])c([H])c(Oc7c([H])c([H])c(F)c([H])c7F)c([H])c6[H])c(C(=O)N([H])[H])c5N([H])[H])C4([H])[H])C([H])([H])C([H])([H])[H])C([H])(C([H])([H])[H])C3([H])[H])c([H])c([H])c2C1([H])[H]

>  <smiles>  (23) 
[H]c1c([H])c([H])c2c(c1[H])C([H])([H])C([H])([H])C([H])([H])C2([H])N([H])C(=O)C1([H])N(C(=O)C([H])(N([H])C(=O)C([H])(N([H])C([H])([H])[H])C([H])([H])[H])C(C([H])([H])[H])(C([H])([H])[H])C([H])([H])[H])C([H])([H])c2c([H])c(OC([H])([H])C([H])(C([H])([H])[H])C([H])([H])C([H])([H])C([H])([H])C([H])([H])[N+]3([H])C([H])([H])C([H])([H])C([H])(C([H])(N([H])C(=O)N4C([H])([H])C([H])([H])C([H])([H])C([H])(n5nc(-c6c([H])c([H])c(Oc7c([H])c([H])c(F)c([H])c7F)c([H])c6[H])c(C(=O)N([H])[H])c5N([H])[H])C4([H])[H])C([H])([H])C([H])([H])[H])C([H])(C([H])([H])[H])C3([H])[H])c([H])c([H])c2C1([H])[H]

$$$$
23:0:0
     RDKit          3D

 96104  0  0  1  0  0  0  0  0999 V2000
  -30.0950  -18.0350   23.0340 C   0  0  0  0  0  2  0  0  0  0  0  0
  -29.0840  -18.6380   22.0710 C   0  0  0  0  0  2  0  0  0  0  0  0
  -31.4450  -18.1820   22.3290 C   0  0  0  0  0  2  0  0  0  0  0  0
  -29.6160  -18.2290   20.6910 C   0  0  0  0  0  3  0  0  0  0  0  0
  -31.1900  -18.3210   20.7980 C   0  0  1  0  0  0  0  0  0  0  0  0
  -27.3490  -18.2200   19.5850 C   0  0  0  0  0  1  0  0  0  0  0  0
  -29.4020  -18.2760   18.1360 C   0  0  0  0  0  1  0  0  0  0  0  0
  -28.6320  -20.3050   19.3710 C   0  0  0  0  0  1  0  0  0  0  0  0
  -28.7890  -18.7700   19.4630 C   0  0  2  0  0  0  0  0  0  0  0  0
  -31.8120  -19.7380   20.2580 C   0  0  0  0  0  2  0  0  0  0  0  0
  -31.5280  -21.1720   20.9130 C   0  0  0  0  0  0  0  0  0  0  0  0
  -31.2460  -22.2890   20.1540 N   0  0  0  0  0  0  0  0  0  0  0  0
  -31.5950  -21.2940   22.1350 O   0  0  0  0  0  0  0  0  0  0  0  0
  -31.2310  -22.1650   19.1500 H   0  0  0  0  0  0  0  0  0  0  0  0
  -30.9380  -23.6870   20.6680 C   0  0  0  0  0  3  0  0  0  0  0  0
  -30.5160  -24.8380   19.6320 C   0  0  0  0  0  3  0  0  0  0  0  0
  -30.1810  -26.2040   20.1420 O   0  0  0  0  0  0  0  0  0  0  0  0
  -25.2660  -30.4190   23.3730 C   0  0  0  0  0  0  0  0  0  0  0  0
  -28.9060  -26.8060   20.0640 C   0  0  0  0  0  0  0  0  0  0  0  0
  -24.4670  -29.0560   21.4770 C   0  0  0  0  0  3  0  0  0  0  0  0
  -26.2800  -27.9770   20.0270 C   0  0  0  0  0  0  0  0  0  0  0  0
  -26.9140  -29.8260   21.5760 C   0  0  0  0  0  2  0  0  0  0  0  0
  -27.2940  -28.5770   20.7850 C   0  0  0  0  0  0  0  0  0  0  0  0
  -28.6020  -28.0020   20.7960 C   0  0  0  0  0  3  0  0  0  0  0  0
  -27.8540  -26.2580   19.2950 C   0  0  0  0  0  3  0  0  0  0  0  0
  -26.5640  -26.8250   19.2770 C   0  0  0  0  0  3  0  0  0  0  0  0
  -24.9050  -28.6110   20.0550 C   0  0  0  0  0  2  0  0  0  0  0  0
  -25.5600  -29.7830   22.2010 N   0  0  0  0  0  0  0  0  0  0  0  0
  -24.1150  -30.4310   23.8300 O   0  0  0  0  0  0  0  0  0  0  0  0
  -23.9370  -27.8230   22.2470 C   0  0  0  0  0  0  0  0  0  0  0  0
  -22.7070  -27.3910   21.9230 N   0  0  0  0  0  0  0  0  0  0  0  0
  -24.6340  -27.2660   23.0980 O   0  0  0  0  0  0  0  0  0  0  0  0
  -22.1920  -27.9090   21.2250 H   0  0  0  0  0  0  0  0  0  0  0  0
  -19.7050  -25.3790   21.7350 C   0  0  0  0  0  0  0  0  0  0  0  0
  -22.0290  -26.2230   22.4900 C   0  0  0  0  0  3  0  0  0  0  0  0
  -22.5850  -24.9100   21.8910 C   0  0  0  0  0  2  0  0  0  0  0  0
  -21.7930  -24.4150   20.6770 C   0  0  0  0  0  2  0  0  0  0  0  0
  -20.3300  -24.1720   21.0550 C   0  0  0  0  0  2  0  0  0  0  0  0
  -20.5050  -26.3490   22.3960 C   0  0  0  0  0  0  0  0  0  0  0  0
  -19.8770  -27.4690   22.9840 C   0  0  0  0  0  3  0  0  0  0  0  0
  -18.4790  -27.6240   22.9210 C   0  0  0  0  0  3  0  0  0  0  0  0
  -17.6920  -26.6540   22.2780 C   0  0  0  0  0  3  0  0  0  0  0  0
  -18.3050  -25.5320   21.6920 C   0  0  0  0  0  3  0  0  0  0  0  0
  -26.3610  -31.1810   24.1840 C   0  0  0  0  0  3  0  0  0  0  0  0
  -25.8430  -32.5250   24.4760 N   0  0  0  0  0  0  0  0  0  0  0  0
  -26.2080  -33.6400   23.8290 C   0  0  0  0  0  0  0  0  0  0  0  0
  -27.0790  -33.6490   22.9560 O   0  0  0  0  0  0  0  0  0  0  0  0
  -25.0890  -32.5830   25.1460 H   0  0  0  0  0  0  0  0  0  0  0  0
  -24.4480  -35.2980   23.1360 C   0  0  0  0  0  1  0  0  0  0  0  0
  -25.4930  -34.9510   24.2100 C   0  0  0  0  0  3  0  0  0  0  0  0
  -27.2810  -35.9530   25.5620 C   0  0  0  0  0  1  0  0  0  0  0  0
  -26.4160  -36.0930   24.3940 N   0  0  0  0  0  0  0  0  0  0  0  0
  -25.8990  -36.9640   24.4830 H   0  0  0  0  0  0  0  0  0  0  0  0
  -26.7720  -30.4430   25.5180 C   0  0  1  0  0  0  0  0  0  0  0  0
  -25.5710  -30.0630   26.4150 C   0  0  0  0  0  1  0  0  0  0  0  0
  -27.5560  -29.1460   25.2070 C   0  0  0  0  0  1  0  0  0  0  0  0
  -27.7200  -31.3450   26.3430 C   0  0  0  0  0  1  0  0  0  0  0  0
  -31.9070  -17.0170   20.1490 C   0  0  0  0  0  2  0  0  0  0  0  0
  -32.1830  -14.4160   20.2870 C   0  0  0  0  0  0  0  0  0  0  0  0
  -31.6490  -12.2460   19.1930 C   0  0  0  0  0  2  0  0  0  0  0  0
  -30.7130  -12.5330   17.9980 C   0  0  0  0  0  2  0  0  0  0  0  0
  -29.2390  -12.5680   18.4470 C   0  0  0  0  0  2  0  0  0  0  0  0
  -29.0210  -13.4230   19.7250 C   0  0  0  0  0  3  0  0  0  0  0  0
  -30.0740  -13.1110   20.8110 C   0  0  0  0  0  2  0  0  0  0  0  0
  -31.4020  -13.2900   20.2090 N   0  0  0  0  0  0  0  0  0  0  0  0
  -33.3450  -14.4020   19.8740 O   0  0  0  0  0  0  0  0  0  0  0  0
  -31.5580  -15.6020   20.6020 N   0  0  0  0  0  0  0  0  0  0  0  0
  -30.6250  -15.4880   20.9710 H   0  0  0  0  0  0  0  0  0  0  0  0
  -26.7570  -14.2970   20.5550 C   0  0  0  0  0  0  0  0  0  0  0  0
  -25.5980  -13.6720   20.9140 C   0  0  0  0  0  0  0  0  0  0  0  0
  -25.8540  -12.2730   20.7740 C   0  0  0  0  0  0  0  0  0  0  0  0
  -27.6580  -13.2980   20.2320 N   0  0  0  0  0  0  0  0  0  0  0  0
  -27.1190  -12.0670   20.4220 N   0  0  0  0  0  0  0  0  0  0  0  0
  -24.9500  -11.1240   20.8950 C   0  0  0  0  0  0  0  0  0  0  0  0
  -25.2830  -10.0030   21.6860 C   0  0  0  0  0  3  0  0  0  0  0  0
  -24.3860   -8.9210   21.8040 C   0  0  0  0  0  3  0  0  0  0  0  0
  -23.1410   -8.9550   21.1310 C   0  0  0  0  0  0  0  0  0  0  0  0
  -22.8250  -10.0640   20.3270 C   0  0  0  0  0  3  0  0  0  0  0  0
  -23.7220  -11.1380   20.2050 C   0  0  0  0  0  3  0  0  0  0  0  0
  -22.2180   -7.9390   21.1700 O   0  0  0  0  0  0  0  0  0  0  0  0
  -22.0910   -7.1230   22.2660 C   0  0  0  0  0  0  0  0  0  0  0  0
  -21.8350   -7.6400   23.5550 C   0  0  0  0  0  3  0  0  0  0  0  0
  -21.6450   -6.7610   24.6400 C   0  0  0  0  0  3  0  0  0  0  0  0
  -21.7000   -5.3680   24.4380 C   0  0  0  0  0  0  0  0  0  0  0  0
  -21.9510   -4.8530   23.1540 C   0  0  0  0  0  3  0  0  0  0  0  0
  -22.1440   -5.7280   22.0700 C   0  0  0  0  0  0  0  0  0  0  0  0
  -22.3640   -5.2250   20.8330 F   0  0  0  0  0  0  0  0  0  0  0  0
  -21.5110   -4.5250   25.4780 F   0  0  0  0  0  0  0  0  0  0  0  0
  -24.2950  -14.3350   21.2610 C   0  0  0  0  0  0  0  0  0  0  0  0
  -23.5100  -13.7210   22.1380 N   0  0  0  0  0  0  0  0  0  0  0  0
  -23.9900  -15.4310   20.7910 O   0  0  0  0  0  0  0  0  0  0  0  0
  -23.7660  -12.8290   22.5360 H   0  0  0  0  0  0  0  0  0  0  0  0
  -22.6360  -14.1460   22.4170 H   0  0  0  0  0  0  0  0  0  0  0  0
  -27.1100  -15.6330   20.4510 N   0  0  0  0  0  0  0  0  0  0  0  0
  -26.4650  -16.3810   20.6740 H   0  0  0  0  0  0  0  0  0  0  0  0
  -28.0060  -15.9690   20.1290 H   0  0  0  0  0  0  0  0  0  0  0  0
  2  1  1  0
  3  1  1  0
  4  9  1  0
  4  5  1  0
  4  2  1  0
  5 58  1  6
  5  3  1  0
  9  7  1  6
  8  9  1  0
  9  6  1  0
 10  5  1  0
 10 11  1  0
 11 13  2  0
 12 15  1  0
 12 11  1  0
 14 12  1  0
 16 17  1  0
 16 15  2  0
 18 29  2  0
 19 17  1  0
 19 24  1  0
 20 28  1  0
 20 30  1  0
 21 27  1  0
 21 23  1  0
 22 28  1  0
 23 24  2  0
 23 22  1  0
 25 19  2  0
 26 25  1  0
 26 21  2  0
 27 20  1  0
 28 18  1  0
 30 32  2  0
 31 30  1  0
 33 31  1  0
 34 39  1  0
 35 31  1  0
 36 35  1  0
 37 38  1  0
 37 36  1  0
 38 34  1  0
 39 35  1  0
 39 40  2  0
 41 40  1  0
 42 41  2  0
 43 34  2  0
 43 42  1  0
 44 18  1  0
 44 45  1  0
 44 54  1  0
 45 48  1  0
 46 50  1  0
 46 45  1  0
 47 46  2  0
 50 49  1  0
 50 52  1  0
 52 53  1  0
 52 51  1  0
 54 57  1  1
 54 55  1  0
 56 54  1  0
 58 67  1  0
 59 67  1  0
 60 65  1  0
 61 62  1  0
 61 60  1  0
 63 62  1  0
 63 72  1  0
 63 64  1  0
 65 59  1  0
 65 64  1  0
 66 59  2  0
 67 68  1  0
 69 70  2  0
 70 89  1  0
 71 74  1  0
 71 70  1  0
 72 73  1  0
 72 69  1  0
 73 71  2  0
 74 75  1  0
 75 76  2  0
 77 80  1  0
 77 76  1  0
 78 77  2  0
 79 78  1  0
 79 74  2  0
 80 81  1  0
 81 82  1  0
 82 83  2  0
 84 83  1  0
 84 88  1  0
 85 84  2  0
 86 81  2  0
 86 85  1  0
 87 86  1  0
 89 90  1  0
 90 93  1  0
 90 92  1  0
 91 89  2  0
 94 69  1  0
 94 95  1  0
 96 94  1  0
M  ISO  4  16 101  17 101  59 100  67 100
M  END
>  <TORSDO>  (24) 
F 22

>  <SCORE>  (24) 
-7.155

>  <name>  (24) 
23

>  <ligand_id>  (24) 
23

>  <original_smiles>  (24) 
[H]c1c([H])c([H])c2c(c1[H])C([H])([H])C([H])([H])C([H])([H])C2([H])N([H])C(=O)C1([H])N(C(=O)C([H])(N([H])C(=O)C([H])(N([H])C([H])([H])[H])C([H])([H])[H])C(C([H])([H])[H])(C([H])([H])[H])C([H])([H])[H])C([H])([H])c2c([H])c(OC([H])([H])C([H])([H])N([H])C(=O)C([H])([H])C3(C([H])([H])N([H])C(=O)N4C([H])([H])C([H])([H])C([H])([H])C([H])(n5nc(-c6c([H])c([H])c(Oc7c([H])c([H])c(F)c([H])c7F)c([H])c6[H])c(C(=O)N([H])[H])c5N([H])[H])C4([H])[H])C([H])([H])C([H])([H])C([H])([H])C3([H])C(C([H])([H])[H])(C([H])([H])[H])C([H])([H])[H])c([H])c([H])c2C1([H])[H]

>  <smiles>  (24) 
[H]c1c([H])c([H])c2c(c1[H])C([H])([H])C([H])([H])C([H])([H])C2([H])N([H])C(=O)C1([H])N(C(=O)C([H])(N([H])C(=O)C([H])(N([H])C([H])([H])[H])C([H])([H])[H])C(C([H])([H])[H])(C([H])([H])[H])C([H])([H])[H])C([H])([H])c2c([H])c(OC([H])([H])C([H])([H])N([H])C(=O)C([H])([H])C3(C([H])([H])N([H])C(=O)N4C([H])([H])C([H])([H])C([H])([H])C([H])(n5nc(-c6c([H])c([H])c(Oc7c([H])c([H])c(F)c([H])c7F)c([H])c6[H])c(C(=O)N([H])[H])c5N([H])[H])C4([H])[H])C([H])([H])C([H])([H])C([H])([H])C3([H])C(C([H])([H])[H])(C([H])([H])[H])C([H])([H])[H])c([H])c([H])c2C1([H])[H]

$$$$
24:0:0
     RDKit          3D

 93101  0  0  1  0  0  0  0  0999 V2000
  -27.8450  -22.2040   20.9340 C   0  0  0  0  0  0  0  0  0  0  0  0
  -28.5170  -23.2820   20.4900 N   0  0  0  0  0  0  0  0  0  0  0  0
  -27.0690  -22.3010   21.8870 O   0  0  0  0  0  0  0  0  0  0  0  0
  -29.1690  -23.1410   19.7300 H   0  0  0  0  0  0  0  0  0  0  0  0
  -27.0510  -19.7550   20.7060 C   0  0  0  0  0  1  0  0  0  0  0  0
  -28.0130  -20.8480   20.1840 C   0  0  0  0  0  3  0  0  0  0  0  0
  -29.4970  -20.3810   20.0510 C   0  0  0  0  0  2  0  0  0  0  0  0
  -31.0540  -16.9950   21.1190 C   0  0  0  0  0  3  0  0  0  0  0  0
  -30.6690  -18.3600   21.1190 C   0  0  0  0  0  3  0  0  0  0  0  0
  -29.6820  -16.6170   19.1630 C   0  0  0  0  0  3  0  0  0  0  0  0
  -30.5670  -16.1020   20.1350 C   0  0  0  0  0  0  0  0  0  0  0  0
  -29.7850  -18.8680   20.1370 C   0  0  0  0  0  0  0  0  0  0  0  0
  -29.2780  -17.9670   19.1720 C   0  0  0  0  0  0  0  0  0  0  0  0
  -28.4480  -18.4070   18.2000 F   0  0  0  0  0  0  0  0  0  0  0  0
  -31.2150  -14.7470   19.9270 C   0  0  0  0  0  0  0  0  0  0  0  0
  -30.8040  -12.5050   18.9930 C   0  0  0  0  0  2  0  0  0  0  0  0
  -29.8150  -12.6020   17.8140 C   0  0  0  0  0  2  0  0  0  0  0  0
  -28.3690  -12.4760   18.3250 C   0  0  0  0  0  2  0  0  0  0  0  0
  -28.0700  -13.4310   19.5070 C   0  0  0  0  0  3  0  0  0  0  0  0
  -29.1810  -13.3940   20.5830 C   0  0  0  0  0  2  0  0  0  0  0  0
  -30.4800  -13.5980   19.9260 N   0  0  0  0  0  0  0  0  0  0  0  0
  -32.3770  -14.7830   19.5230 O   0  0  0  0  0  0  0  0  0  0  0  0
  -25.7610  -14.1220   20.3800 C   0  0  0  0  0  0  0  0  0  0  0  0
  -24.6830  -13.3850   20.7890 C   0  0  0  0  0  0  0  0  0  0  0  0
  -25.0850  -12.0170   20.7070 C   0  0  0  0  0  0  0  0  0  0  0  0
  -26.7490  -13.2000   20.0720 N   0  0  0  0  0  0  0  0  0  0  0  0
  -26.3520  -11.9290   20.3280 N   0  0  0  0  0  0  0  0  0  0  0  0
  -24.3200  -10.7820   20.9090 C   0  0  0  0  0  0  0  0  0  0  0  0
  -24.7260   -9.8110   21.8480 C   0  0  0  0  0  3  0  0  0  0  0  0
  -23.9680   -8.6370   22.0390 C   0  0  0  0  0  3  0  0  0  0  0  0
  -22.7880   -8.4260   21.2860 C   0  0  0  0  0  0  0  0  0  0  0  0
  -22.4000   -9.3850   20.3350 C   0  0  0  0  0  3  0  0  0  0  0  0
  -23.1600  -10.5510   20.1440 C   0  0  0  0  0  3  0  0  0  0  0  0
  -22.0010   -7.3040   21.3870 O   0  0  0  0  0  0  0  0  0  0  0  0
  -21.8730   -6.6220   22.5690 C   0  0  0  0  0  0  0  0  0  0  0  0
  -21.3820   -7.2410   23.7390 C   0  0  0  0  0  3  0  0  0  0  0  0
  -21.1960   -6.4820   24.9130 C   0  0  0  0  0  3  0  0  0  0  0  0
  -21.4910   -5.1070   24.9190 C   0  0  0  0  0  0  0  0  0  0  0  0
  -21.9740   -4.4870   23.7530 C   0  0  0  0  0  3  0  0  0  0  0  0
  -22.1600   -5.2420   22.5810 C   0  0  0  0  0  0  0  0  0  0  0  0
  -22.6040   -4.6340   21.4560 F   0  0  0  0  0  0  0  0  0  0  0  0
  -21.3070   -4.3770   26.0440 F   0  0  0  0  0  0  0  0  0  0  0  0
  -23.3280  -13.9140   21.1480 C   0  0  0  0  0  0  0  0  0  0  0  0
  -22.6310  -13.2350   22.0540 N   0  0  0  0  0  0  0  0  0  0  0  0
  -22.8970  -14.9590   20.6640 O   0  0  0  0  0  0  0  0  0  0  0  0
  -22.9960  -12.3880   22.4630 H   0  0  0  0  0  0  0  0  0  0  0  0
  -21.7220  -13.5670   22.3410 H   0  0  0  0  0  0  0  0  0  0  0  0
  -25.9800  -15.4870   20.2190 N   0  0  0  0  0  0  0  0  0  0  0  0
  -25.2650  -16.1850   20.3780 H   0  0  0  0  0  0  0  0  0  0  0  0
  -26.8450  -15.8850   19.8710 H   0  0  0  0  0  0  0  0  0  0  0  0
  -28.3870  -24.6530   21.0300 C   0  0  0  0  0  2  0  0  0  0  0  0
  -29.0880  -25.6990   20.1220 C   0  0  0  0  0  2  0  0  0  0  0  0
  -28.9670  -27.0690   20.5460 O   0  0  0  0  0  0  0  0  0  0  0  0
  -24.7840  -32.0430   23.3860 C   0  0  0  0  0  0  0  0  0  0  0  0
  -27.7630  -27.7390   20.4280 C   0  0  0  0  0  0  0  0  0  0  0  0
  -23.7270  -30.6290   21.6530 C   0  0  0  0  0  3  0  0  0  0  0  0
  -25.3210  -29.1750   20.2880 C   0  0  0  0  0  0  0  0  0  0  0  0
  -26.2430  -31.0860   21.6080 C   0  0  0  0  0  2  0  0  0  0  0  0
  -26.4200  -29.7300   20.9510 C   0  0  0  0  0  0  0  0  0  0  0  0
  -27.6410  -29.0220   21.0110 C   0  0  0  0  0  3  0  0  0  0  0  0
  -26.6420  -27.2000   19.7560 C   0  0  0  0  0  3  0  0  0  0  0  0
  -25.4280  -27.9100   19.6830 C   0  0  0  0  0  3  0  0  0  0  0  0
  -24.0420  -29.9840   20.2770 C   0  0  0  0  0  2  0  0  0  0  0  0
  -24.9330  -31.2630   22.2780 N   0  0  0  0  0  0  0  0  0  0  0  0
  -23.6650  -32.2650   23.8660 O   0  0  0  0  0  0  0  0  0  0  0  0
  -23.0610  -29.5640   22.5560 C   0  0  0  0  0  0  0  0  0  0  0  0
  -21.7550  -29.3350   22.3440 N   0  0  0  0  0  0  0  0  0  0  0  0
  -23.7190  -28.9560   23.4050 O   0  0  0  0  0  0  0  0  0  0  0  0
  -21.2830  -29.8830   21.6380 H   0  0  0  0  0  0  0  0  0  0  0  0
  -18.4040  -28.0170   22.6610 C   0  0  0  0  0  0  0  0  0  0  0  0
  -20.9350  -28.3520   23.0520 C   0  0  0  0  0  3  0  0  0  0  0  0
  -21.1110  -26.9370   22.4540 C   0  0  0  0  0  2  0  0  0  0  0  0
  -20.0690  -26.6030   21.3820 C   0  0  0  0  0  2  0  0  0  0  0  0
  -18.6560  -26.6890   21.9620 C   0  0  0  0  0  2  0  0  0  0  0  0
  -19.4750  -28.8050   23.1590 C   0  0  0  0  0  0  0  0  0  0  0  0
  -19.1900  -30.0480   23.7670 C   0  0  0  0  0  3  0  0  0  0  0  0
  -17.8650  -30.5060   23.8770 C   0  0  0  0  0  3  0  0  0  0  0  0
  -16.8060  -29.7190   23.3910 C   0  0  0  0  0  3  0  0  0  0  0  0
  -17.0770  -28.4740   22.7950 C   0  0  0  0  0  3  0  0  0  0  0  0
  -26.0090  -32.7110   24.0860 C   0  0  0  0  0  3  0  0  0  0  0  0
  -25.6750  -34.1240   24.3090 N   0  0  0  0  0  0  0  0  0  0  0  0
  -26.0720  -35.1330   23.5210 C   0  0  0  0  0  0  0  0  0  0  0  0
  -26.8290  -34.9730   22.5590 O   0  0  0  0  0  0  0  0  0  0  0  0
  -25.0220  -34.3250   25.0520 H   0  0  0  0  0  0  0  0  0  0  0  0
  -24.3800  -36.8920   22.9210 C   0  0  0  0  0  1  0  0  0  0  0  0
  -25.5490  -36.5450   23.8550 C   0  0  0  0  0  3  0  0  0  0  0  0
  -27.6020  -37.4820   24.8160 C   0  0  0  0  0  1  0  0  0  0  0  0
  -26.5900  -37.5920   23.7700 N   0  0  0  0  0  0  0  0  0  0  0  0
  -26.1750  -38.5180   23.8370 H   0  0  0  0  0  0  0  0  0  0  0  0
  -26.4140  -32.0080   25.4390 C   0  0  1  0  0  0  0  0  0  0  0  0
  -25.2260  -31.8020   26.4060 C   0  0  0  0  0  1  0  0  0  0  0  0
  -27.0510  -30.6240   25.1710 C   0  0  0  0  0  1  0  0  0  0  0  0
  -27.4910  -32.8490   26.1640 C   0  0  0  0  0  1  0  0  0  0  0  0
  1  3  2  0
  2  1  1  0
  2 51  1  0
  4  2  1  0
  6  5  1  0
  6  1  1  0
  7 12  1  0
  7  6  1  0
  9  8  1  0
 10 13  2  0
 10 11  1  0
 11  8  2  0
 12  9  2  0
 13 12  1  0
 14 13  1  0
 15 11  1  0
 16 21  1  0
 17 18  1  0
 17 16  1  0
 19 18  1  0
 19 26  1  0
 19 20  1  0
 21 15  1  0
 21 20  1  0
 22 15  2  0
 23 24  2  0
 24 43  1  0
 25 24  1  0
 25 28  1  0
 26 27  1  0
 26 23  1  0
 27 25  2  0
 28 29  1  0
 29 30  2  0
 31 34  1  0
 31 30  1  0
 32 31  2  0
 33 32  1  0
 33 28  2  0
 34 35  1  0
 35 40  2  0
 35 36  1  0
 36 37  2  0
 37 38  1  0
 38 42  1  0
 39 38  2  0
 40 39  1  0
 41 40  1  0
 43 44  1  0
 44 47  1  0
 44 46  1  0
 45 43  2  0
 48 49  1  0
 48 23  1  0
 50 48  1  0
 52 53  1  0
 52 51  1  0
 54 65  2  0
 55 53  1  0
 55 60  1  0
 56 64  1  0
 56 66  1  0
 57 59  1  0
 58 64  1  0
 59 60  2  0
 59 58  1  0
 61 55  2  0
 62 61  1  0
 62 57  2  0
 63 57  1  0
 63 56  1  0
 64 54  1  0
 66 68  2  0
 67 66  1  0
 69 67  1  0
 70 79  2  0
 70 75  1  0
 71 67  1  0
 71 75  1  0
 72 71  1  0
 73 74  1  0
 73 72  1  0
 74 70  1  0
 75 76  2  0
 76 77  1  0
 78 77  2  0
 79 78  1  0
 80 54  1  0
 80 81  1  0
 80 90  1  0
 81 84  1  0
 82 86  1  0
 82 81  1  0
 83 82  2  0
 86 85  1  0
 88 89  1  0
 88 86  1  0
 88 87  1  0
 90 93  1  1
 90 91  1  0
 92 90  1  0
M  ISO  4  11 100  15 100  52 101  53 101
M  END
>  <TORSDO>  (25) 
F 21

>  <SCORE>  (25) 
-11.564

>  <name>  (25) 
24

>  <ligand_id>  (25) 
24

>  <original_smiles>  (25) 
[H]c1c([H])c([H])c2c(c1[H])C([H])([H])C([H])([H])C([H])([H])C2([H])N([H])C(=O)C1([H])N(C(=O)C([H])(N([H])C(=O)C([H])(N([H])C([H])([H])[H])C([H])([H])[H])C(C([H])([H])[H])(C([H])([H])[H])C([H])([H])[H])C([H])([H])c2c([H])c(OC([H])([H])C([H])([H])N([H])C(=O)C([H])(C([H])([H])[H])C([H])([H])c3c([H])c([H])c(C(=O)N4C([H])([H])C([H])([H])C([H])([H])C([H])(n5nc(-c6c([H])c([H])c(Oc7c([H])c([H])c(F)c([H])c7F)c([H])c6[H])c(C(=O)N([H])[H])c5N([H])[H])C4([H])[H])c([H])c3F)c([H])c([H])c2C1([H])[H]

>  <smiles>  (25) 
[H]c1c([H])c([H])c2c(c1[H])C([H])([H])C([H])([H])C([H])([H])C2([H])N([H])C(=O)C1([H])N(C(=O)C([H])(N([H])C(=O)C([H])(N([H])C([H])([H])[H])C([H])([H])[H])C(C([H])([H])[H])(C([H])([H])[H])C([H])([H])[H])C([H])([H])c2c([H])c(OC([H])([H])C([H])([H])N([H])C(=O)C([H])(C([H])([H])[H])C([H])([H])c3c([H])c([H])c(C(=O)N4C([H])([H])C([H])([H])C([H])([H])C([H])(n5nc(-c6c([H])c([H])c(Oc7c([H])c([H])c(F)c([H])c7F)c([H])c6[H])c(C(=O)N([H])[H])c5N([H])[H])C4([H])[H])c([H])c3F)c([H])c([H])c2C1([H])[H]

$$$$
25:0:0
     RDKit          3D

 93101  0  0  1  0  0  0  0  0999 V2000
  -28.6510  -19.6450   17.3420 C   0  0  0  0  0  0  0  0  0  0  0  0
  -27.5590  -20.4260   17.4960 N   0  0  0  0  0  0  0  0  0  0  0  0
  -29.7690  -19.9510   17.7870 O   0  0  0  0  0  0  0  0  0  0  0  0
  -26.7000  -20.0850   17.0850 H   0  0  0  0  0  0  0  0  0  0  0  0
  -28.4170  -18.3440   16.5760 C   0  0  0  0  0  2  0  0  0  0  0  0
  -30.7370  -14.5260   18.3410 C   0  0  0  0  0  0  0  0  0  0  0  0
  -31.0000  -12.2160   19.3120 C   0  0  0  0  0  2  0  0  0  0  0  0
  -30.3350  -12.7630   20.5320 C   0  0  0  0  0  2  0  0  0  0  0  0
  -28.9340  -13.6380   20.4960 C   0  0  0  0  0  2  0  0  0  0  0  0
  -28.0870  -12.7130   19.8420 C   0  0  0  0  0  3  0  0  0  0  0  0
  -28.7930  -12.7400   18.5220 C   0  0  0  0  0  2  0  0  0  0  0  0
  -30.2740  -13.2310   18.5700 N   0  0  0  0  0  0  0  0  0  0  0  0
  -31.6540  -15.0420   19.0500 O   0  0  0  0  0  0  0  0  0  0  0  0
  -30.6880  -17.0690   15.7570 C   0  0  0  0  0  2  0  0  0  0  0  0
  -28.9860  -15.8730   17.0210 C   0  0  0  0  0  2  0  0  0  0  0  0
  -29.5240  -17.2690   16.7890 C   0  0  0  0  0  3  0  0  0  0  0  0
  -30.8310  -15.5350   15.6850 C   0  0  0  0  0  3  0  0  0  0  0  0
  -30.2340  -15.0480   17.0800 N   0  0  0  0  0  0  0  0  0  0  0  0
  -25.6170  -13.5930   20.2940 C   0  0  0  0  0  0  0  0  0  0  0  0
  -24.5350  -12.8580   20.6390 C   0  0  0  0  0  0  0  0  0  0  0  0
  -24.9540  -11.4670   20.6090 C   0  0  0  0  0  0  0  0  0  0  0  0
  -26.6470  -12.6930   20.0430 N   0  0  0  0  0  0  0  0  0  0  0  0
  -26.2290  -11.4470   20.3060 N   0  0  0  0  0  0  0  0  0  0  0  0
  -24.3030  -10.1720   20.7640 C   0  0  0  0  0  0  0  0  0  0  0  0
  -24.8140   -9.1410   21.6080 C   0  0  0  0  0  3  0  0  0  0  0  0
  -24.1420   -7.9070   21.7370 C   0  0  0  0  0  3  0  0  0  0  0  0
  -22.9600   -7.6620   20.9850 C   0  0  0  0  0  0  0  0  0  0  0  0
  -22.4730   -8.6740   20.1180 C   0  0  0  0  0  3  0  0  0  0  0  0
  -23.1470   -9.9060   19.9980 C   0  0  0  0  0  3  0  0  0  0  0  0
  -22.2450   -6.4830   20.9900 O   0  0  0  0  0  0  0  0  0  0  0  0
  -22.2730   -5.6200   22.0610 C   0  0  0  0  0  0  0  0  0  0  0  0
  -21.9170   -6.0490   23.3620 C   0  0  0  0  0  3  0  0  0  0  0  0
  -21.9330   -5.1390   24.4330 C   0  0  0  0  0  3  0  0  0  0  0  0
  -22.2360   -3.7880   24.2090 C   0  0  0  0  0  0  0  0  0  0  0  0
  -22.5840   -3.3400   22.9170 C   0  0  0  0  0  3  0  0  0  0  0  0
  -22.5920   -4.2560   21.8430 C   0  0  0  0  0  0  0  0  0  0  0  0
  -22.8750   -3.8260   20.5970 F   0  0  0  0  0  0  0  0  0  0  0  0
  -22.2570   -2.9030   25.2370 F   0  0  0  0  0  0  0  0  0  0  0  0
  -23.1390  -13.2930   20.9300 C   0  0  0  0  0  0  0  0  0  0  0  0
  -22.4440  -12.5110   21.6870 N   0  0  0  0  0  0  0  0  0  0  0  0
  -22.6810  -14.3640   20.4790 O   0  0  0  0  0  0  0  0  0  0  0  0
  -22.9030  -11.7030   22.0920 H   0  0  0  0  0  0  0  0  0  0  0  0
  -21.4920  -12.7570   21.8920 H   0  0  0  0  0  0  0  0  0  0  0  0
  -25.7650  -14.9700   20.1070 N   0  0  0  0  0  0  0  0  0  0  0  0
  -24.9560  -15.5150   19.8570 H   0  0  0  0  0  0  0  0  0  0  0  0
  -26.5930  -15.2650   19.6200 H   0  0  0  0  0  0  0  0  0  0  0  0
  -29.6960  -13.7300   13.9650 C   0  0  0  0  0  1  0  0  0  0  0  0
  -29.9960  -15.2090   14.3050 C   0  0  0  0  0  2  0  0  0  0  0  0
  -27.3330  -21.7030   18.2100 C   0  0  0  0  0  2  0  0  0  0  0  0
  -28.5110  -22.6560   18.5760 C   0  0  0  0  0  2  0  0  0  0  0  0
  -28.1050  -23.6920   19.7000 C   0  0  0  0  0  2  0  0  0  0  0  0
  -27.7240  -25.1370   19.2250 C   0  0  0  0  0  2  0  0  0  0  0  0
  -27.9560  -26.4220   19.9170 O   0  0  0  0  0  0  0  0  0  0  0  0
  -24.2350  -31.8400   23.0600 C   0  0  0  0  0  0  0  0  0  0  0  0
  -26.8700  -27.3300   19.9150 C   0  0  0  0  0  0  0  0  0  0  0  0
  -23.0510  -30.4250   21.4260 C   0  0  0  0  0  3  0  0  0  0  0  0
  -24.5080  -28.9270   20.0070 C   0  0  0  0  0  0  0  0  0  0  0  0
  -25.5990  -30.7290   21.3120 C   0  0  0  0  0  2  0  0  0  0  0  0
  -25.6760  -29.3760   20.6360 C   0  0  0  0  0  0  0  0  0  0  0  0
  -26.8610  -28.5570   20.6360 C   0  0  0  0  0  3  0  0  0  0  0  0
  -25.6760  -26.9870   19.2210 C   0  0  0  0  0  3  0  0  0  0  0  0
  -24.4950  -27.7100   19.3200 C   0  0  0  0  0  3  0  0  0  0  0  0
  -23.2760  -29.7920   20.0420 C   0  0  0  0  0  2  0  0  0  0  0  0
  -24.3060  -31.0160   21.9840 N   0  0  0  0  0  0  0  0  0  0  0  0
  -23.1390  -32.1090   23.5780 O   0  0  0  0  0  0  0  0  0  0  0  0
  -22.4060  -29.3840   22.3600 C   0  0  0  0  0  0  0  0  0  0  0  0
  -21.0840  -29.1900   22.2170 N   0  0  0  0  0  0  0  0  0  0  0  0
  -23.0830  -28.7690   23.1880 O   0  0  0  0  0  0  0  0  0  0  0  0
  -20.5960  -29.7360   21.5270 H   0  0  0  0  0  0  0  0  0  0  0  0
  -17.7250  -27.9430   22.7150 C   0  0  0  0  0  0  0  0  0  0  0  0
  -20.2770  -28.2480   22.9910 C   0  0  0  0  0  3  0  0  0  0  0  0
  -20.4060  -26.8110   22.4390 C   0  0  0  0  0  2  0  0  0  0  0  0
  -19.3160  -26.4540   21.4220 C   0  0  0  0  0  2  0  0  0  0  0  0
  -17.9280  -26.5860   22.0560 C   0  0  0  0  0  2  0  0  0  0  0  0
  -18.8300  -28.7250   23.1430 C   0  0  0  0  0  0  0  0  0  0  0  0
  -18.5900  -29.9890   23.7230 C   0  0  0  0  0  3  0  0  0  0  0  0
  -17.2780  -30.4750   23.8770 C   0  0  0  0  0  3  0  0  0  0  0  0
  -16.1880  -29.6870   23.4660 C   0  0  0  0  0  3  0  0  0  0  0  0
  -16.4100  -28.4230   22.8900 C   0  0  0  0  0  3  0  0  0  0  0  0
  -25.4950  -32.4950   23.6860 C   0  0  0  0  0  3  0  0  0  0  0  0
  -25.1400  -33.8780   24.0360 N   0  0  0  0  0  0  0  0  0  0  0  0
  -25.4340  -34.9520   23.2980 C   0  0  0  0  0  0  0  0  0  0  0  0
  -26.1000  -34.8860   22.2620 O   0  0  0  0  0  0  0  0  0  0  0  0
  -24.5420  -33.9950   24.8390 H   0  0  0  0  0  0  0  0  0  0  0  0
  -23.6320  -36.6810   22.9920 C   0  0  0  0  0  1  0  0  0  0  0  0
  -24.8990  -36.3150   23.7830 C   0  0  0  0  0  3  0  0  0  0  0  0
  -27.0180  -37.2500   24.5920 C   0  0  0  0  0  1  0  0  0  0  0  0
  -25.8910  -37.4060   23.6790 N   0  0  0  0  0  0  0  0  0  0  0  0
  -25.4610  -38.3100   23.8580 H   0  0  0  0  0  0  0  0  0  0  0  0
  -26.0380  -31.7190   24.9490 C   0  0  1  0  0  0  0  0  0  0  0  0
  -24.9500  -31.4400   26.0120 C   0  0  0  0  0  1  0  0  0  0  0  0
  -26.6620  -30.3590   24.5570 C   0  0  0  0  0  1  0  0  0  0  0  0
  -27.1660  -32.5410   25.6180 C   0  0  0  0  0  1  0  0  0  0  0  0
  1  2  1  0
  1  3  2  0
  2 49  1  0
  4  2  1  0
  5  1  1  0
  6 12  1  0
  6 13  2  0
  7  8  1  0
  9  8  1  0
 10 11  1  0
 10 22  1  0
 10  9  1  0
 11 12  1  0
 12  7  1  0
 14 16  1  0
 15 18  1  0
 16  5  1  0
 16 15  1  0
 17 48  1  0
 17 14  1  0
 17 18  1  0
 18  6  1  0
 19 20  2  0
 20 39  1  0
 21 20  1  0
 21 24  1  0
 22 19  1  0
 22 23  1  0
 23 21  2  0
 24 25  1  0
 25 26  2  0
 27 30  1  0
 27 26  1  0
 28 27  2  0
 29 28  1  0
 29 24  2  0
 30 31  1  0
 31 32  1  0
 32 33  2  0
 34 33  1  0
 34 38  1  0
 35 34  2  0
 36 31  2  0
 36 35  1  0
 37 36  1  0
 39 40  1  0
 40 43  1  0
 40 42  1  0
 41 39  2  0
 44 19  1  0
 45 44  1  0
 46 44  1  0
 47 48  1  0
 49 50  1  0
 50 51  1  0
 52 51  1  0
 52 53  1  0
 54 65  2  0
 55 53  1  0
 55 60  1  0
 56 64  1  0
 56 66  1  0
 57 63  1  0
 57 59  1  0
 58 64  1  0
 59 60  2  0
 59 58  1  0
 61 62  1  0
 61 55  2  0
 62 57  2  0
 63 56  1  0
 64 54  1  0
 66 68  2  0
 67 66  1  0
 69 67  1  0
 70 79  2  0
 70 75  1  0
 71 67  1  0
 71 75  1  0
 72 71  1  0
 73 74  1  0
 73 72  1  0
 74 70  1  0
 75 76  2  0
 76 77  1  0
 78 77  2  0
 79 78  1  0
 80 54  1  0
 80 81  1  0
 80 90  1  0
 81 84  1  0
 82 86  1  0
 82 81  1  0
 83 82  2  0
 86 85  1  0
 88 86  1  0
 88 89  1  0
 88 87  1  0
 90 93  1  1
 90 91  1  0
 92 90  1  0
M  ISO  4   6 100  18 100  52 101  53 101
M  END
>  <TORSDO>  (26) 
F 22

>  <SCORE>  (26) 
14.554

>  <name>  (26) 
25

>  <ligand_id>  (26) 
25

>  <original_smiles>  (26) 
[H]c1c([H])c([H])c2c(c1[H])C([H])([H])C([H])([H])C([H])([H])C2([H])N([H])C(=O)C1([H])N(C(=O)C([H])(N([H])C(=O)C([H])(N([H])C([H])([H])[H])C([H])([H])[H])C(C([H])([H])[H])(C([H])([H])[H])C([H])([H])[H])C([H])([H])c2c([H])c(OC([H])([H])C([H])([H])C([H])([H])C([H])([H])N([H])C(=O)C([H])([H])C3([H])C([H])([H])N(C(=O)N4C([H])([H])C([H])([H])C([H])([H])C([H])(n5nc(-c6c([H])c([H])c(Oc7c([H])c([H])c(F)c([H])c7F)c([H])c6[H])c(C(=O)N([H])[H])c5N([H])[H])C4([H])[H])C([H])(C([H])([H])C([H])([H])[H])C3([H])[H])c([H])c([H])c2C1([H])[H]

>  <smiles>  (26) 
[H]c1c([H])c([H])c2c(c1[H])C([H])([H])C([H])([H])C([H])([H])C2([H])N([H])C(=O)C1([H])N(C(=O)C([H])(N([H])C(=O)C([H])(N([H])C([H])([H])[H])C([H])([H])[H])C(C([H])([H])[H])(C([H])([H])[H])C([H])([H])[H])C([H])([H])c2c([H])c(OC([H])([H])C([H])([H])C([H])([H])C([H])([H])N([H])C(=O)C([H])([H])C3([H])C([H])([H])N(C(=O)N4C([H])([H])C([H])([H])C([H])([H])C([H])(n5nc(-c6c([H])c([H])c(Oc7c([H])c([H])c(F)c([H])c7F)c([H])c6[H])c(C(=O)N([H])[H])c5N([H])[H])C4([H])[H])C([H])(C([H])([H])C([H])([H])[H])C3([H])[H])c([H])c([H])c2C1([H])[H]

$$$$
26:0:0
     RDKit          3D

 94102  0  0  1  0  0  0  0  0999 V2000
  -32.3510  -13.4730   20.7070 C   0  0  0  0  0  0  0  0  0  0  0  0
  -32.0400  -10.9870   21.1670 C   0  0  0  0  0  2  0  0  0  0  0  0
  -31.3110  -10.2830   19.9950 C   0  0  0  0  0  2  0  0  0  0  0  0
  -29.7800  -10.4010   20.1240 C   0  0  0  0  0  2  0  0  0  0  0  0
  -29.3390  -11.8370   20.5100 C   0  0  0  0  0  3  0  0  0  0  0  0
  -30.1780  -12.3580   21.6920 C   0  0  0  0  0  2  0  0  0  0  0  0
  -31.5820  -12.4120   21.2240 N   0  0  0  0  0  0  0  0  0  0  0  0
  -33.5620  -13.2460   20.5830 O   0  0  0  0  0  0  0  0  0  0  0  0
  -30.3510  -16.7380   20.5430 C   0  0  0  0  0  2  0  0  0  0  0  0
  -30.6140  -15.2490   20.7560 C   0  0  0  0  0  2  0  0  0  0  0  0
  -32.3110  -15.5530   18.9010 C   0  0  0  0  0  2  0  0  0  0  0  0
  -30.3090  -17.2110   19.0700 C   0  0  0  0  0  3  0  0  0  0  0  0
  -31.7870  -17.1300   18.5450 C   0  0  0  0  0  3  0  0  0  0  0  0
  -31.7890  -14.6600   20.1090 N   0  0  0  0  0  0  0  0  0  0  0  0
  -27.0940  -13.0540   20.7530 C   0  0  0  0  0  0  0  0  0  0  0  0
  -25.8210  -12.6020   20.9610 C   0  0  0  0  0  0  0  0  0  0  0  0
  -25.9210  -11.1810   21.0800 C   0  0  0  0  0  0  0  0  0  0  0  0
  -27.9040  -11.9300   20.7570 N   0  0  0  0  0  0  0  0  0  0  0  0
  -27.1930  -10.8020   21.0150 N   0  0  0  0  0  0  0  0  0  0  0  0
  -24.8740  -10.1590   21.1930 C   0  0  0  0  0  0  0  0  0  0  0  0
  -24.8980   -9.1860   22.2160 C   0  0  0  0  0  3  0  0  0  0  0  0
  -23.8700   -8.2250   22.3150 C   0  0  0  0  0  3  0  0  0  0  0  0
  -22.8000   -8.2330   21.3890 C   0  0  0  0  0  0  0  0  0  0  0  0
  -22.7930   -9.1890   20.3580 C   0  0  0  0  0  3  0  0  0  0  0  0
  -23.8210  -10.1410   20.2580 C   0  0  0  0  0  3  0  0  0  0  0  0
  -21.7700   -7.3230   21.3920 O   0  0  0  0  0  0  0  0  0  0  0  0
  -21.3400   -6.7280   22.5500 C   0  0  0  0  0  0  0  0  0  0  0  0
  -21.3360   -7.4140   23.7830 C   0  0  0  0  0  3  0  0  0  0  0  0
  -20.8210   -6.7860   24.9350 C   0  0  0  0  0  3  0  0  0  0  0  0
  -20.3040   -5.4800   24.8550 C   0  0  0  0  0  0  0  0  0  0  0  0
  -20.3020   -4.7980   23.6250 C   0  0  0  0  0  3  0  0  0  0  0  0
  -20.8170   -5.4220   22.4760 C   0  0  0  0  0  0  0  0  0  0  0  0
  -20.7950   -4.7670   21.2900 F   0  0  0  0  0  0  0  0  0  0  0  0
  -19.8010   -4.8800   25.9600 F   0  0  0  0  0  0  0  0  0  0  0  0
  -24.5700  -13.4310   20.9490 C   0  0  0  0  0  0  0  0  0  0  0  0
  -23.5120  -12.9500   21.5940 N   0  0  0  0  0  0  0  0  0  0  0  0
  -24.5390  -14.5350   20.4070 O   0  0  0  0  0  0  0  0  0  0  0  0
  -23.5460  -12.0520   22.0530 H   0  0  0  0  0  0  0  0  0  0  0  0
  -22.6570  -13.4870   21.6290 H   0  0  0  0  0  0  0  0  0  0  0  0
  -27.6210  -14.3230   20.5330 N   0  0  0  0  0  0  0  0  0  0  0  0
  -27.0270  -15.1430   20.4690 H   0  0  0  0  0  0  0  0  0  0  0  0
  -28.5890  -14.5170   20.3130 H   0  0  0  0  0  0  0  0  0  0  0  0
  -32.1090  -17.8100   17.1280 N   0  0  0  0  0  4  0  0  0  0  0  0
  -31.3710  -17.5410   16.4980 H   0  0  0  0  0  0  0  0  0  0  0  0
  -32.9320  -17.3340   16.7940 H   0  0  0  0  0  0  0  0  0  0  0  0
  -32.3860  -19.3580   16.8620 C   0  0  0  0  0  2  0  0  0  0  0  0
  -32.3260  -20.1770   15.3910 C   0  0  0  0  0  3  0  0  0  0  0  0
  -32.7530  -21.7980   15.2190 C   0  0  0  0  0  3  0  0  0  0  0  0
  -32.5060  -22.7660   14.0290 O   0  0  0  0  0  0  0  0  0  0  0  0
  -33.9740  -29.1010   17.5210 C   0  0  0  0  0  0  0  0  0  0  0  0
  -32.3100  -24.1820   14.2150 C   0  0  0  0  0  0  0  0  0  0  0  0
  -31.8740  -28.9660   16.2360 C   0  0  0  0  0  3  0  0  0  0  0  0
  -31.6690  -26.9890   14.6090 C   0  0  0  0  0  0  0  0  0  0  0  0
  -33.9130  -27.5740   15.5160 C   0  0  0  0  0  2  0  0  0  0  0  0
  -32.9530  -26.5260   14.9280 C   0  0  0  0  0  0  0  0  0  0  0  0
  -33.2830  -25.1380   14.7090 C   0  0  0  0  0  3  0  0  0  0  0  0
  -31.0590  -24.7350   13.8660 C   0  0  0  0  0  3  0  0  0  0  0  0
  -30.7340  -26.0950   14.0630 C   0  0  0  0  0  3  0  0  0  0  0  0
  -31.3390  -28.4490   14.8750 C   0  0  0  0  0  2  0  0  0  0  0  0
  -33.2930  -28.5450   16.4730 N   0  0  0  0  0  0  0  0  0  0  0  0
  -33.4510  -29.9520   18.2560 O   0  0  0  0  0  0  0  0  0  0  0  0
  -30.9070  -28.5260   17.3620 C   0  0  0  0  0  0  0  0  0  0  0  0
  -29.7640  -27.9240   16.9880 N   0  0  0  0  0  0  0  0  0  0  0  0
  -31.2010  -28.7090   18.5470 O   0  0  0  0  0  0  0  0  0  0  0  0
  -29.5850  -27.8180   15.9990 H   0  0  0  0  0  0  0  0  0  0  0  0
  -26.9500  -25.6530   17.2000 C   0  0  0  0  0  0  0  0  0  0  0  0
  -28.7420  -27.3880   17.8890 C   0  0  0  0  0  3  0  0  0  0  0  0
  -29.3240  -26.2750   18.7900 C   0  0  0  0  0  2  0  0  0  0  0  0
  -29.1330  -24.8700   18.2100 C   0  0  0  0  0  2  0  0  0  0  0  0
  -27.6460  -24.5680   18.0040 C   0  0  0  0  0  2  0  0  0  0  0  0
  -27.4730  -26.9740   17.1340 C   0  0  0  0  0  0  0  0  0  0  0  0
  -26.8040  -27.9340   16.3450 C   0  0  0  0  0  3  0  0  0  0  0  0
  -25.6350  -27.5980   15.6360 C   0  0  0  0  0  3  0  0  0  0  0  0
  -25.1140  -26.2940   15.7180 C   0  0  0  0  0  3  0  0  0  0  0  0
  -25.7700  -25.3270   16.5000 C   0  0  0  0  0  3  0  0  0  0  0  0
  -35.4500  -28.7080   17.8350 C   0  0  0  0  0  3  0  0  0  0  0  0
  -35.5690  -27.4850   18.8250 C   0  0  1  0  0  0  0  0  0  0  0  0
  -34.7980  -27.6800   20.1510 C   0  0  0  0  0  1  0  0  0  0  0  0
  -35.0450  -26.1900   18.1640 C   0  0  0  0  0  1  0  0  0  0  0  0
  -37.0560  -27.2350   19.1710 C   0  0  0  0  0  1  0  0  0  0  0  0
  -36.1190  -29.8920   18.3990 N   0  0  0  0  0  0  0  0  0  0  0  0
  -37.2370  -30.4440   17.9100 C   0  0  0  0  0  0  0  0  0  0  0  0
  -37.8580  -29.9620   16.9600 O   0  0  0  0  0  0  0  0  0  0  0  0
  -35.6340  -30.3700   19.1440 H   0  0  0  0  0  0  0  0  0  0  0  0
  -37.7350  -32.8860   17.5650 C   0  0  0  0  0  1  0  0  0  0  0  0
  -37.7480  -31.7330   18.5820 C   0  0  0  0  0  3  0  0  0  0  0  0
  -39.1410  -30.7530   20.3520 C   0  0  0  0  0  1  0  0  0  0  0  0
  -39.1040  -31.5990   19.1610 N   0  0  0  0  0  0  0  0  0  0  0  0
  -39.4810  -32.5100   19.4090 H   0  0  0  0  0  0  0  0  0  0  0  0
  -28.9210  -19.1770   20.2280 C   0  0  0  0  0  1  0  0  0  0  0  0
  -29.5080  -18.5650   18.9310 C   0  0  0  0  0  3  0  0  0  0  0  0
  -28.3900  -18.4010   17.8640 C   0  0  0  0  0  2  0  0  0  0  0  0
  -28.2420  -20.8600   17.0670 C   0  0  0  0  0  1  0  0  0  0  0  0
  -27.4940  -19.6270   17.5930 C   0  0  0  0  0  2  0  0  0  0  0  0
  1  7  1  0
  2  7  1  0
  3  4  1  0
  3  2  1  0
  5  4  1  0
  5 18  1  0
  5  6  1  0
  7  6  1  0
  8  1  2  0
  9 10  1  0
 11 14  1  0
 12 91  1  0
 12  9  1  0
 13 43  1  0
 13 11  1  0
 13 12  1  0
 14  1  1  0
 14 10  1  0
 15 18  1  0
 15 16  2  0
 16 17  1  0
 17 20  1  0
 18 19  1  0
 19 17  2  0
 20 21  1  0
 21 22  2  0
 23 26  1  0
 23 22  1  0
 24 23  2  0
 25 24  1  0
 25 20  2  0
 26 27  1  0
 27 28  1  0
 28 29  2  0
 30 29  1  0
 30 34  1  0
 31 30  2  0
 32 27  2  0
 32 31  1  0
 33 32  1  0
 35 16  1  0
 35 36  1  0
 36 39  1  0
 36 38  1  0
 37 35  2  0
 40 15  1  0
 41 40  1  0
 42 40  1  0
 44 43  1  0
 45 43  1  0
 46 43  1  0
 47 46  1  0
 48 47  2  0
 49 51  1  0
 49 48  1  0
 50 61  2  0
 51 56  1  0
 52 60  1  0
 52 62  1  0
 53 59  1  0
 53 55  1  0
 54 60  1  0
 55 54  1  0
 56 55  2  0
 57 58  1  0
 57 51  2  0
 58 53  2  0
 59 52  1  0
 60 50  1  0
 62 64  2  0
 63 62  1  0
 65 63  1  0
 66 70  1  0
 67 63  1  0
 67 68  1  0
 69 68  1  0
 70 69  1  0
 71 66  1  0
 71 67  1  0
 72 71  2  0
 73 74  2  0
 73 72  1  0
 74 75  1  0
 75 66  2  0
 76 50  1  0
 76 81  1  0
 76 77  1  0
 77 80  1  1
 77 78  1  0
 79 77  1  0
 81 84  1  0
 82 81  1  0
 82 86  1  0
 83 82  2  0
 86 85  1  0
 86 88  1  0
 88 89  1  0
 88 87  1  0
 91 90  1  0
 92 91  1  0
 93 94  1  0
 94 92  1  0
M  ISO  4   1 100  14 100  48 101  49 101
M  END
>  <TORSDO>  (27) 
F 22

>  <SCORE>  (27) 
-6.921

>  <name>  (27) 
26

>  <ligand_id>  (27) 
26

>  <original_smiles>  (27) 
[H]c1c([H])c([H])c2c(c1[H])C([H])([H])C([H])([H])C([H])([H])C2([H])N([H])C(=O)C1([H])N(C(=O)C([H])(N([H])C(=O)C([H])(N([H])C([H])([H])[H])C([H])([H])[H])C(C([H])([H])[H])(C([H])([H])[H])C([H])([H])[H])C([H])([H])c2c([H])c(OC([H])([H])C([H])([H])C([H])([H])[N+]([H])([H])C3([H])C([H])([H])N(C(=O)N4C([H])([H])C([H])([H])C([H])([H])C([H])(n5nc(-c6c([H])c([H])c(Oc7c([H])c([H])c(F)c([H])c7F)c([H])c6[H])c(C(=O)N([H])[H])c5N([H])[H])C4([H])[H])C([H])([H])C([H])([H])C3([H])C([H])(C([H])([H])[H])C([H])([H])C([H])([H])C([H])([H])[H])c([H])c([H])c2C1([H])[H]

>  <smiles>  (27) 
[H]c1c([H])c([H])c2c(c1[H])C([H])([H])C([H])([H])C([H])([H])C2([H])N([H])C(=O)C1([H])N(C(=O)C([H])(N([H])C(=O)C([H])(N([H])C([H])([H])[H])C([H])([H])[H])C(C([H])([H])[H])(C([H])([H])[H])C([H])([H])[H])C([H])([H])c2c([H])c(OC([H])([H])C([H])([H])C([H])([H])[N+]([H])([H])C3([H])C([H])([H])N(C(=O)N4C([H])([H])C([H])([H])C([H])([H])C([H])(n5nc(-c6c([H])c([H])c(Oc7c([H])c([H])c(F)c([H])c7F)c([H])c6[H])c(C(=O)N([H])[H])c5N([H])[H])C4([H])[H])C([H])([H])C([H])([H])C3([H])C([H])(C([H])([H])[H])C([H])([H])C([H])([H])C([H])([H])[H])c([H])c([H])c2C1([H])[H]

$$$$
27:0:0
     RDKit          3D

 92100  0  0  1  0  0  0  0  0999 V2000
  -31.2180  -20.4880   21.9180 C   0  0  0  0  0  0  0  0  0  0  0  0
  -32.4220  -20.7190   21.7790 O   0  0  0  0  0  0  0  0  0  0  0  0
  -30.7330  -19.0810   22.2990 C   0  0  0  0  0  2  0  0  0  0  0  0
  -30.6520  -14.6030   20.2810 C   0  0  0  0  0  0  0  0  0  0  0  0
  -30.3080  -12.4470   19.1430 C   0  0  0  0  0  2  0  0  0  0  0  0
  -29.3200  -12.6480   17.9760 C   0  0  0  0  0  2  0  0  0  0  0  0
  -27.8590  -12.5080   18.4570 C   0  0  0  0  0  2  0  0  0  0  0  0
  -27.5550  -13.3140   19.7480 C   0  0  0  0  0  3  0  0  0  0  0  0
  -28.6690  -13.1290   20.8070 C   0  0  0  0  0  2  0  0  0  0  0  0
  -29.9640  -13.4320   20.1760 N   0  0  0  0  0  0  0  0  0  0  0  0
  -31.8280  -14.7270   19.9350 O   0  0  0  0  0  0  0  0  0  0  0  0
  -29.9120  -18.5890   19.9370 C   0  0  0  0  0  2  0  0  0  0  0  0
  -29.1270  -16.2890   19.4240 C   0  0  0  0  0  2  0  0  0  0  0  0
  -30.2120  -16.6610   21.6150 C   0  0  0  0  0  2  0  0  0  0  0  0
  -29.7790  -17.5430   18.8370 C   0  0  0  0  0  3  0  0  0  0  0  0
  -30.7230  -18.0560   21.1340 C   0  0  0  0  0  3  0  0  0  0  0  0
  -28.9710  -18.0930   17.6540 C   0  0  0  0  0  1  0  0  0  0  0  0
  -29.9030  -15.7040   20.5310 N   0  0  0  0  0  0  0  0  0  0  0  0
  -25.1890  -13.9100   20.5520 C   0  0  0  0  0  0  0  0  0  0  0  0
  -24.1350  -13.1280   20.9380 C   0  0  0  0  0  0  0  0  0  0  0  0
  -24.6000  -11.7810   20.8720 C   0  0  0  0  0  0  0  0  0  0  0  0
  -26.2270  -13.0320   20.2750 N   0  0  0  0  0  0  0  0  0  0  0  0
  -25.8800  -11.7470   20.5270 N   0  0  0  0  0  0  0  0  0  0  0  0
  -23.8880  -10.5120   21.0590 C   0  0  0  0  0  0  0  0  0  0  0  0
  -24.3560   -9.5310   21.9620 C   0  0  0  0  0  3  0  0  0  0  0  0
  -23.6450   -8.3260   22.1380 C   0  0  0  0  0  3  0  0  0  0  0  0
  -22.4540   -8.0920   21.4140 C   0  0  0  0  0  0  0  0  0  0  0  0
  -22.0040   -9.0620   20.5010 C   0  0  0  0  0  3  0  0  0  0  0  0
  -22.7150  -10.2600   20.3210 C   0  0  0  0  0  3  0  0  0  0  0  0
  -21.7110   -6.9390   21.5040 O   0  0  0  0  0  0  0  0  0  0  0  0
  -21.7040   -6.1740   22.6420 C   0  0  0  0  0  0  0  0  0  0  0  0
  -21.3230   -6.7060   23.8930 C   0  0  0  0  0  3  0  0  0  0  0  0
  -21.2600   -5.8670   25.0250 C   0  0  0  0  0  3  0  0  0  0  0  0
  -21.5700   -4.4990   24.9050 C   0  0  0  0  0  0  0  0  0  0  0  0
  -21.9470   -3.9680   23.6580 C   0  0  0  0  0  3  0  0  0  0  0  0
  -22.0100   -4.8040   22.5310 C   0  0  0  0  0  0  0  0  0  0  0  0
  -22.3500   -4.2820   21.3280 F   0  0  0  0  0  0  0  0  0  0  0  0
  -21.5050   -3.6910   25.9900 F   0  0  0  0  0  0  0  0  0  0  0  0
  -22.7430  -13.5940   21.2540 C   0  0  0  0  0  0  0  0  0  0  0  0
  -22.0390  -12.8840   22.1280 N   0  0  0  0  0  0  0  0  0  0  0  0
  -22.2850  -14.6250   20.7610 O   0  0  0  0  0  0  0  0  0  0  0  0
  -22.4160  -12.0490   22.5530 H   0  0  0  0  0  0  0  0  0  0  0  0
  -21.1060  -13.1810   22.3790 H   0  0  0  0  0  0  0  0  0  0  0  0
  -25.3420  -15.2850   20.3940 N   0  0  0  0  0  0  0  0  0  0  0  0
  -24.5810  -15.9370   20.5500 H   0  0  0  0  0  0  0  0  0  0  0  0
  -26.1900  -15.7320   20.0720 H   0  0  0  0  0  0  0  0  0  0  0  0
  -30.1500  -21.5730   21.6860 C   0  0  0  0  0  2  0  0  0  0  0  0
  -30.7140  -23.0100   21.6040 C   0  0  0  0  0  2  0  0  0  0  0  0
  -29.6280  -24.0950   21.4190 C   0  0  0  0  0  2  0  0  0  0  0  0
  -30.2170  -25.5060   21.2010 C   0  0  0  0  0  2  0  0  0  0  0  0
  -29.1970  -26.6580   21.3200 C   0  0  0  0  0  2  0  0  0  0  0  0
  -28.3610  -26.6830   20.1680 O   0  0  0  0  0  0  0  0  0  0  0  0
  -24.5420  -31.9090   23.2420 C   0  0  0  0  0  0  0  0  0  0  0  0
  -27.2290  -27.4620   20.2220 C   0  0  0  0  0  0  0  0  0  0  0  0
  -23.3460  -30.4850   21.6080 C   0  0  0  0  0  3  0  0  0  0  0  0
  -24.8160  -28.9380   20.2100 C   0  0  0  0  0  0  0  0  0  0  0  0
  -25.8690  -30.8580   21.4150 C   0  0  0  0  0  2  0  0  0  0  0  0
  -25.9660  -29.4780   20.8000 C   0  0  0  0  0  0  0  0  0  0  0  0
  -27.1730  -28.7450   20.8170 C   0  0  0  0  0  3  0  0  0  0  0  0
  -26.0670  -26.9380   19.6200 C   0  0  0  0  0  3  0  0  0  0  0  0
  -24.8600  -27.6630   19.6200 C   0  0  0  0  0  3  0  0  0  0  0  0
  -23.5660  -29.7890   20.2380 C   0  0  0  0  0  2  0  0  0  0  0  0
  -24.6040  -31.0980   22.1480 N   0  0  0  0  0  0  0  0  0  0  0  0
  -23.4590  -32.1820   23.7760 O   0  0  0  0  0  0  0  0  0  0  0  0
  -22.6970  -29.4720   22.5790 C   0  0  0  0  0  0  0  0  0  0  0  0
  -21.3740  -29.2800   22.4460 N   0  0  0  0  0  0  0  0  0  0  0  0
  -23.3810  -28.8600   23.4030 O   0  0  0  0  0  0  0  0  0  0  0  0
  -20.8850  -29.8240   21.7510 H   0  0  0  0  0  0  0  0  0  0  0  0
  -18.0050  -28.0690   22.9350 C   0  0  0  0  0  0  0  0  0  0  0  0
  -20.5590  -28.3460   23.2250 C   0  0  0  0  0  3  0  0  0  0  0  0
  -20.6770  -26.9090   22.6690 C   0  0  0  0  0  2  0  0  0  0  0  0
  -19.5840  -26.5650   21.6520 C   0  0  0  0  0  2  0  0  0  0  0  0
  -18.1970  -26.7100   22.2820 C   0  0  0  0  0  2  0  0  0  0  0  0
  -19.1150  -28.8430   23.3640 C   0  0  0  0  0  0  0  0  0  0  0  0
  -18.8840  -30.1150   23.9340 C   0  0  0  0  0  3  0  0  0  0  0  0
  -17.5750  -30.6100   24.0800 C   0  0  0  0  0  3  0  0  0  0  0  0
  -16.4800  -29.8320   23.6680 C   0  0  0  0  0  3  0  0  0  0  0  0
  -16.6950  -28.5630   23.1010 C   0  0  0  0  0  3  0  0  0  0  0  0
  -25.8240  -32.5530   23.8550 C   0  0  0  0  0  3  0  0  0  0  0  0
  -26.3490  -31.7920   25.1350 C   0  0  1  0  0  0  0  0  0  0  0  0
  -25.2610  -31.5540   26.2070 C   0  0  0  0  0  1  0  0  0  0  0  0
  -26.9400  -30.4150   24.7470 C   0  0  0  0  0  1  0  0  0  0  0  0
  -27.4990  -32.5970   25.7860 C   0  0  0  0  0  1  0  0  0  0  0  0
  -25.5090  -33.9510   24.1740 N   0  0  0  0  0  0  0  0  0  0  0  0
  -25.8400  -34.9970   23.4040 C   0  0  0  0  0  0  0  0  0  0  0  0
  -26.5130  -34.8860   22.3760 O   0  0  0  0  0  0  0  0  0  0  0  0
  -24.9120  -34.1100   24.9720 H   0  0  0  0  0  0  0  0  0  0  0  0
  -24.1080  -36.7790   23.0200 C   0  0  0  0  0  1  0  0  0  0  0  0
  -25.3440  -36.3870   23.8450 C   0  0  0  0  0  3  0  0  0  0  0  0
  -27.4730  -37.2830   24.6800 C   0  0  0  0  0  1  0  0  0  0  0  0
  -26.3740  -37.4440   23.7320 N   0  0  0  0  0  0  0  0  0  0  0  0
  -25.9630  -38.3630   23.8730 H   0  0  0  0  0  0  0  0  0  0  0  0
  1  3  1  0
  2  1  2  0
  4 18  1  0
  5 10  1  0
  6  7  1  0
  6  5  1  0
  8  7  1  0
  8 22  1  0
  8  9  1  0
 10  4  1  0
 10  9  1  0
 11  4  2  0
 12 16  1  0
 13 18  1  0
 15 17  1  0
 15 13  1  0
 15 12  1  0
 16 14  1  0
 16  3  1  0
 18 14  1  0
 19 20  2  0
 20 39  1  0
 21 20  1  0
 21 24  1  0
 22 23  1  0
 22 19  1  0
 23 21  2  0
 24 25  1  0
 25 26  2  0
 27 30  1  0
 27 26  1  0
 28 27  2  0
 29 28  1  0
 29 24  2  0
 30 31  1  0
 31 32  1  0
 32 33  2  0
 34 33  1  0
 34 38  1  0
 35 34  2  0
 36 31  2  0
 36 35  1  0
 37 36  1  0
 39 40  1  0
 40 43  1  0
 40 42  1  0
 41 39  2  0
 44 45  1  0
 44 19  1  0
 46 44  1  0
 47  1  1  0
 48 47  1  0
 49 48  1  0
 50 51  1  0
 50 49  1  0
 52 54  1  0
 52 51  1  0
 53 64  2  0
 54 59  1  0
 55 63  1  0
 55 65  1  0
 56 62  1  0
 56 58  1  0
 57 63  1  0
 58 59  2  0
 58 57  1  0
 60 61  1  0
 60 54  2  0
 61 56  2  0
 62 55  1  0
 63 53  1  0
 65 67  2  0
 66 65  1  0
 68 66  1  0
 69 78  2  0
 69 74  1  0
 70 66  1  0
 70 74  1  0
 71 70  1  0
 72 73  1  0
 72 71  1  0
 73 69  1  0
 74 75  2  0
 75 76  1  0
 77 76  2  0
 78 77  1  0
 79 53  1  0
 79 84  1  0
 79 80  1  0
 80 83  1  1
 80 81  1  0
 82 80  1  0
 84 87  1  0
 85 89  1  0
 85 84  1  0
 86 85  2  0
 89 88  1  0
 91 89  1  0
 91 92  1  0
 91 90  1  0
M  ISO  4   4 100  18 100  51 101  52 101
M  END
>  <TORSDO>  (28) 
F 22

>  <SCORE>  (28) 
-13.402

>  <name>  (28) 
27

>  <ligand_id>  (28) 
27

>  <original_smiles>  (28) 
[H]c1c([H])c([H])c2c(c1[H])C([H])([H])C([H])([H])C([H])([H])C2([H])N([H])C(=O)C1([H])N(C(=O)C([H])(N([H])C(=O)C([H])(N([H])C([H])([H])[H])C([H])([H])[H])C(C([H])([H])[H])(C([H])([H])[H])C([H])([H])[H])C([H])([H])c2c([H])c(OC([H])([H])C([H])([H])C([H])([H])C([H])([H])C([H])([H])C(=O)C([H])([H])C3([H])C([H])([H])N(C(=O)N4C([H])([H])C([H])([H])C([H])([H])C([H])(n5nc(-c6c([H])c([H])c(Oc7c([H])c([H])c(F)c([H])c7F)c([H])c6[H])c(C(=O)N([H])[H])c5N([H])[H])C4([H])[H])C([H])([H])C([H])(C([H])([H])[H])C3([H])[H])c([H])c([H])c2C1([H])[H]

>  <smiles>  (28) 
[H]c1c([H])c([H])c2c(c1[H])C([H])([H])C([H])([H])C([H])([H])C2([H])N([H])C(=O)C1([H])N(C(=O)C([H])(N([H])C(=O)C([H])(N([H])C([H])([H])[H])C([H])([H])[H])C(C([H])([H])[H])(C([H])([H])[H])C([H])([H])[H])C([H])([H])c2c([H])c(OC([H])([H])C([H])([H])C([H])([H])C([H])([H])C([H])([H])C(=O)C([H])([H])C3([H])C([H])([H])N(C(=O)N4C([H])([H])C([H])([H])C([H])([H])C([H])(n5nc(-c6c([H])c([H])c(Oc7c([H])c([H])c(F)c([H])c7F)c([H])c6[H])c(C(=O)N([H])[H])c5N([H])[H])C4([H])[H])C([H])([H])C([H])(C([H])([H])[H])C3([H])[H])c([H])c([H])c2C1([H])[H]

$$$$
28:0:0
     RDKit          3D

 97105  0  0  1  0  0  0  0  0999 V2000
  -29.6620  -18.6750   21.2900 C   0  0  0  0  0  2  0  0  0  0  0  0
  -30.1320  -17.5400   20.3780 C   0  0  0  0  0  2  0  0  0  0  0  0
  -31.4790  -19.3510   19.0530 C   0  0  0  0  0  2  0  0  0  0  0  0
  -29.4160  -19.9510   20.4780 C   0  0  0  0  0  3  0  0  0  0  0  0
  -30.7560  -20.4500   19.8860 C   0  0  0  0  0  3  0  0  0  0  0  0
  -31.4020  -17.8840   19.5600 C   0  0  0  0  0  3  0  0  0  0  0  0
  -28.7260  -20.9870   21.3550 C   0  0  0  0  0  3  0  0  0  0  0  0
  -27.5340  -21.5400   21.0800 C   0  0  0  0  0  3  0  0  0  0  0  0
  -26.8450  -22.5650   21.9550 C   0  0  0  0  0  1  0  0  0  0  0  0
  -30.5720  -21.7380   19.0580 C   0  0  0  0  0  0  0  0  0  0  0  0
  -30.5150  -21.7180   17.8250 O   0  0  0  0  0  0  0  0  0  0  0  0
  -30.4310  -23.0620   19.8100 C   0  0  0  0  0  2  0  0  0  0  0  0
  -31.3240  -24.1660   19.2200 C   0  0  0  0  0  2  0  0  0  0  0  0
  -31.2940  -25.4530   20.0530 C   0  0  0  0  0  2  0  0  0  0  0  0
  -31.9300  -26.6490   19.3200 C   0  0  0  0  0  2  0  0  0  0  0  0
  -31.7460  -27.8550   20.0580 O   0  0  0  0  0  0  0  0  0  0  0  0
  -27.4980  -30.4390   25.1170 C   0  0  0  0  0  0  0  0  0  0  0  0
  -30.4670  -28.2800   20.3580 C   0  0  0  0  0  0  0  0  0  0  0  0
  -26.3690  -29.7640   23.0210 C   0  0  0  0  0  3  0  0  0  0  0  0
  -27.9030  -29.2460   21.0560 C   0  0  0  0  0  0  0  0  0  0  0  0
  -28.8100  -30.5300   23.0010 C   0  0  0  0  0  2  0  0  0  0  0  0
  -29.0200  -29.6160   21.8120 C   0  0  0  0  0  0  0  0  0  0  0  0
  -30.3020  -29.1400   21.4650 C   0  0  0  0  0  3  0  0  0  0  0  0
  -29.3250  -27.9090   19.6080 C   0  0  0  0  0  3  0  0  0  0  0  0
  -28.0490  -28.3880   19.9540 C   0  0  0  0  0  3  0  0  0  0  0  0
  -26.5680  -29.8100   21.4850 C   0  0  0  0  0  2  0  0  0  0  0  0
  -27.5790  -30.2340   23.7720 N   0  0  0  0  0  0  0  0  0  0  0  0
  -26.4290  -30.2870   25.7230 O   0  0  0  0  0  0  0  0  0  0  0  0
  -25.9160  -28.3410   23.4170 C   0  0  0  0  0  0  0  0  0  0  0  0
  -24.7150  -27.9480   22.9620 N   0  0  0  0  0  0  0  0  0  0  0  0
  -26.6460  -27.6090   24.0930 O   0  0  0  0  0  0  0  0  0  0  0  0
  -24.1750  -28.6110   22.4240 H   0  0  0  0  0  0  0  0  0  0  0  0
  -21.9100  -25.8670   22.0420 C   0  0  0  0  0  0  0  0  0  0  0  0
  -24.1010  -26.6390   23.1760 C   0  0  0  0  0  3  0  0  0  0  0  0
  -24.8020  -25.5490   22.3320 C   0  0  0  0  0  2  0  0  0  0  0  0
  -24.1360  -25.3170   20.9720 C   0  0  0  0  0  2  0  0  0  0  0  0
  -22.6740  -24.9000   21.1530 C   0  0  0  0  0  2  0  0  0  0  0  0
  -22.5810  -26.6940   22.9810 C   0  0  0  0  0  0  0  0  0  0  0  0
  -21.8280  -27.6010   23.7570 C   0  0  0  0  0  3  0  0  0  0  0  0
  -20.4310  -27.6860   23.6110 C   0  0  0  0  0  3  0  0  0  0  0  0
  -19.7690  -26.8540   22.6910 C   0  0  0  0  0  3  0  0  0  0  0  0
  -20.5070  -25.9440   21.9140 C   0  0  0  0  0  3  0  0  0  0  0  0
  -28.7340  -30.8990   25.9510 C   0  0  0  0  0  3  0  0  0  0  0  0
  -28.3890  -32.1790   26.5810 N   0  0  0  0  0  0  0  0  0  0  0  0
  -28.7800  -33.3780   26.1280 C   0  0  0  0  0  0  0  0  0  0  0  0
  -29.5390  -33.5150   25.1630 O   0  0  0  0  0  0  0  0  0  0  0  0
  -27.7280  -32.1450   27.3430 H   0  0  0  0  0  0  0  0  0  0  0  0
  -27.0920  -35.2390   26.0520 C   0  0  0  0  0  1  0  0  0  0  0  0
  -28.2440  -34.6230   26.8600 C   0  0  0  0  0  3  0  0  0  0  0  0
  -30.2970  -35.2170   28.0690 C   0  0  0  0  0  1  0  0  0  0  0  0
  -29.2810  -35.6470   27.1120 N   0  0  0  0  0  0  0  0  0  0  0  0
  -28.8630  -36.5070   27.4570 H   0  0  0  0  0  0  0  0  0  0  0  0
  -29.1810  -29.8420   27.0350 C   0  0  1  0  0  0  0  0  0  0  0  0
  -28.0190  -29.3270   27.9140 C   0  0  0  0  0  1  0  0  0  0  0  0
  -29.8450  -28.6180   26.3610 C   0  0  0  0  0  1  0  0  0  0  0  0
  -30.2440  -30.4680   27.9670 C   0  0  0  0  0  1  0  0  0  0  0  0
  -32.7230  -17.2310   20.0720 C   0  0  0  0  0  3  0  0  0  0  0  0
  -32.7740  -14.7880   19.5440 C   0  0  0  0  0  0  0  0  0  0  0  0
  -31.9300  -12.7330   18.4790 C   0  0  0  0  0  2  0  0  0  0  0  0
  -31.0120  -13.1120   17.2990 C   0  0  0  0  0  2  0  0  0  0  0  0
  -29.5660  -13.3570   17.7780 C   0  0  0  0  0  2  0  0  0  0  0  0
  -29.4950  -14.3090   19.0000 C   0  0  0  0  0  3  0  0  0  0  0  0
  -30.4960  -13.8590   20.0900 C   0  0  0  0  0  2  0  0  0  0  0  0
  -31.8450  -13.7970   19.4890 N   0  0  0  0  0  0  0  0  0  0  0  0
  -33.8140  -14.7950   18.8810 O   0  0  0  0  0  0  0  0  0  0  0  0
  -32.4160  -15.8210   20.3140 N   0  0  0  0  0  0  0  0  0  0  0  0
  -31.6120  -15.6490   20.8980 H   0  0  0  0  0  0  0  0  0  0  0  0
  -27.3530  -15.5270   19.7570 C   0  0  0  0  0  0  0  0  0  0  0  0
  -26.1380  -15.0590   20.1810 C   0  0  0  0  0  0  0  0  0  0  0  0
  -26.2380  -13.6350   20.1700 C   0  0  0  0  0  0  0  0  0  0  0  0
  -28.1320  -14.4040   19.5200 N   0  0  0  0  0  0  0  0  0  0  0  0
  -27.4620  -13.2620   19.8190 N   0  0  0  0  0  0  0  0  0  0  0  0
  -25.2230  -12.6030   20.4170 C   0  0  0  0  0  0  0  0  0  0  0  0
  -25.5370  -11.4110   21.1080 C   0  0  0  0  0  3  0  0  0  0  0  0
  -24.5410  -10.4380   21.3480 C   0  0  0  0  0  3  0  0  0  0  0  0
  -23.2160  -10.6550   20.9000 C   0  0  0  0  0  0  0  0  0  0  0  0
  -22.9130  -11.8330   20.1930 C   0  0  0  0  0  3  0  0  0  0  0  0
  -23.9070  -12.7970   19.9510 C   0  0  0  0  0  3  0  0  0  0  0  0
  -22.1890   -9.7580   21.0670 O   0  0  0  0  0  0  0  0  0  0  0  0
  -22.2210   -8.8040   22.0520 C   0  0  0  0  0  0  0  0  0  0  0  0
  -22.4880   -9.1310   23.3990 C   0  0  0  0  0  3  0  0  0  0  0  0
  -22.4420   -8.1290   24.3900 C   0  0  0  0  0  3  0  0  0  0  0  0
  -22.1230   -6.8040   24.0370 C   0  0  0  0  0  0  0  0  0  0  0  0
  -21.8520   -6.4770   22.6960 C   0  0  0  0  0  3  0  0  0  0  0  0
  -21.8990   -7.4750   21.7080 C   0  0  0  0  0  0  0  0  0  0  0  0
  -21.6180   -7.1600   20.4200 F   0  0  0  0  0  0  0  0  0  0  0  0
  -22.0710   -5.8430   24.9880 F   0  0  0  0  0  0  0  0  0  0  0  0
  -24.9190  -15.8810   20.4900 C   0  0  0  0  0  0  0  0  0  0  0  0
  -24.0660  -15.3990   21.3870 N   0  0  0  0  0  0  0  0  0  0  0  0
  -24.7400  -16.9820   19.9720 O   0  0  0  0  0  0  0  0  0  0  0  0
  -24.2220  -14.5030   21.8260 H   0  0  0  0  0  0  0  0  0  0  0  0
  -23.2430  -15.9290   21.6370 H   0  0  0  0  0  0  0  0  0  0  0  0
  -27.8530  -16.8060   19.5370 N   0  0  0  0  0  0  0  0  0  0  0  0
  -27.2810  -17.6350   19.6530 H   0  0  0  0  0  0  0  0  0  0  0  0
  -28.7730  -17.0020   19.1660 H   0  0  0  0  0  0  0  0  0  0  0  0
  -33.9850  -19.2430   21.1080 C   0  0  0  0  0  1  0  0  0  0  0  0
  -33.3800  -17.8500   21.3250 C   0  0  0  0  0  2  0  0  0  0  0  0
  2  1  1  0
  3  6  1  0
  3  5  1  0
  4  1  1  0
  4  7  1  0
  5 10  1  0
  5  4  1  0
  6 57  1  0
  6  2  1  0
  8  7  2  0
  8  9  1  0
 10 12  1  0
 11 10  2  0
 13 12  1  0
 13 14  1  0
 15 14  1  0
 15 16  1  0
 16 18  1  0
 17 28  2  0
 18 23  1  0
 19 29  1  0
 19 27  1  0
 20 26  1  0
 20 22  1  0
 21 27  1  0
 22 21  1  0
 23 22  2  0
 24 25  1  0
 24 18  2  0
 25 20  2  0
 26 19  1  0
 27 17  1  0
 29 31  2  0
 30 29  1  0
 32 30  1  0
 33 38  1  0
 34 30  1  0
 35 34  1  0
 36 37  1  0
 36 35  1  0
 37 33  1  0
 38 34  1  0
 38 39  2  0
 40 39  1  0
 41 40  2  0
 42 33  2  0
 42 41  1  0
 43 17  1  0
 43 44  1  0
 43 53  1  0
 44 47  1  0
 45 44  1  0
 45 49  1  0
 46 45  2  0
 49 48  1  0
 49 51  1  0
 51 52  1  0
 51 50  1  0
 53 54  1  1
 53 56  1  0
 55 53  1  0
 57 66  1  0
 57 97  1  0
 58 66  1  0
 59 64  1  0
 60 61  1  0
 60 59  1  0
 62 61  1  0
 62 71  1  0
 62 63  1  0
 64 58  1  0
 64 63  1  0
 65 58  2  0
 66 67  1  0
 68 69  2  0
 69 88  1  0
 70 69  1  0
 70 73  1  0
 71 68  1  0
 71 72  1  0
 72 70  2  0
 73 74  1  0
 74 75  2  0
 76 79  1  0
 76 75  1  0
 77 76  2  0
 78 77  1  0
 78 73  2  0
 79 80  1  0
 80 81  1  0
 81 82  2  0
 83 82  1  0
 83 87  1  0
 84 83  2  0
 85 80  2  0
 85 84  1  0
 86 85  1  0
 88 89  1  0
 89 92  1  0
 89 91  1  0
 90 88  2  0
 93 94  1  0
 93 68  1  0
 95 93  1  0
 96 97  1  0
M  ISO  4  15 101  16 101  58 100  66 100
M  END
>  <TORSDO>  (29) 
F 24

>  <SCORE>  (29) 
-2.882

>  <name>  (29) 
28

>  <ligand_id>  (29) 
28

>  <original_smiles>  (29) 
[H]C(=C([H])C1([H])C([H])([H])C([H])([H])C([H])(C([H])(N([H])C(=O)N2C([H])([H])C([H])([H])C([H])([H])C([H])(n3nc(-c4c([H])c([H])c(Oc5c([H])c([H])c(F)c([H])c5F)c([H])c4[H])c(C(=O)N([H])[H])c3N([H])[H])C2([H])[H])C([H])([H])C([H])([H])[H])C([H])([H])C1([H])C(=O)C([H])([H])C([H])([H])C([H])([H])C([H])([H])Oc1c([H])c([H])c2c(c1[H])C([H])([H])N(C(=O)C([H])(N([H])C(=O)C([H])(N([H])C([H])([H])[H])C([H])([H])[H])C(C([H])([H])[H])(C([H])([H])[H])C([H])([H])[H])C([H])(C(=O)N([H])C1([H])c3c([H])c([H])c([H])c([H])c3C([H])([H])C([H])([H])C1([H])[H])C2([H])[H])C([H])([H])[H]

>  <smiles>  (29) 
[H]C(=C([H])C1([H])C([H])([H])C([H])([H])C([H])(C([H])(N([H])C(=O)N2C([H])([H])C([H])([H])C([H])([H])C([H])(n3nc(-c4c([H])c([H])c(Oc5c([H])c([H])c(F)c([H])c5F)c([H])c4[H])c(C(=O)N([H])[H])c3N([H])[H])C2([H])[H])C([H])([H])C([H])([H])[H])C([H])([H])C1([H])C(=O)C([H])([H])C([H])([H])C([H])([H])C([H])([H])Oc1c([H])c([H])c2c(c1[H])C([H])([H])N(C(=O)C([H])(N([H])C(=O)C([H])(N([H])C([H])([H])[H])C([H])([H])[H])C(C([H])([H])[H])(C([H])([H])[H])C([H])([H])[H])C([H])(C(=O)N([H])C1([H])c3c([H])c([H])c([H])c([H])c3C([H])([H])C([H])([H])C1([H])[H])C2([H])[H])C([H])([H])[H]

$$$$
29:0:0
     RDKit          3D

 97105  0  0  1  0  0  0  0  0999 V2000
  -30.7140  -19.7650   20.9740 C   0  0  0  0  0  2  0  0  0  0  0  0
  -30.8910  -14.8670   20.6820 C   0  0  0  0  0  0  0  0  0  0  0  0
  -30.7620  -12.5720   19.8250 C   0  0  0  0  0  2  0  0  0  0  0  0
  -29.8990  -12.5640   18.5450 C   0  0  0  0  0  2  0  0  0  0  0  0
  -28.3890  -12.5160   18.8760 C   0  0  0  0  0  2  0  0  0  0  0  0
  -27.9520  -13.4210   20.0650 C   0  0  0  0  0  3  0  0  0  0  0  0
  -28.9440  -13.3640   21.2380 C   0  0  0  0  0  2  0  0  0  0  0  0
  -30.2720  -13.6560   20.6830 N   0  0  0  0  0  0  0  0  0  0  0  0
  -32.1210  -14.9650   20.6550 O   0  0  0  0  0  0  0  0  0  0  0  0
  -31.1410  -18.3920   18.9680 C   0  0  0  0  0  2  0  0  0  0  0  0
  -30.2670  -17.2050   21.1690 C   0  0  0  0  0  2  0  0  0  0  0  0
  -31.1280  -18.3440   20.5140 C   0  0  0  0  0  3  0  0  0  0  0  0
  -31.0130  -17.0280   18.3060 C   0  0  0  0  0  3  0  0  0  0  0  0
  -29.8240  -16.2570   18.9290 C   0  0  0  0  0  3  0  0  0  0  0  0
  -30.9660  -17.1550   16.7690 C   0  0  0  0  0  1  0  0  0  0  0  0
  -30.1050  -15.9590   20.3720 N   0  0  0  0  0  0  0  0  0  0  0  0
  -25.5180  -14.0660   20.6040 C   0  0  0  0  0  0  0  0  0  0  0  0
  -24.4200  -13.2980   20.8880 C   0  0  0  0  0  0  0  0  0  0  0  0
  -24.8880  -11.9500   20.9320 C   0  0  0  0  0  0  0  0  0  0  0  0
  -26.5750  -13.1760   20.4690 N   0  0  0  0  0  0  0  0  0  0  0  0
  -26.1960  -11.9030   20.7320 N   0  0  0  0  0  0  0  0  0  0  0  0
  -24.1600  -10.6890   21.0960 C   0  0  0  0  0  0  0  0  0  0  0  0
  -24.5230   -9.7500   22.0850 C   0  0  0  0  0  3  0  0  0  0  0  0
  -23.7940   -8.5490   22.2300 C   0  0  0  0  0  3  0  0  0  0  0  0
  -22.6920   -8.2830   21.3840 C   0  0  0  0  0  0  0  0  0  0  0  0
  -22.3520   -9.2110   20.3850 C   0  0  0  0  0  3  0  0  0  0  0  0
  -23.0820  -10.4030   20.2370 C   0  0  0  0  0  3  0  0  0  0  0  0
  -21.9430   -7.1330   21.4370 O   0  0  0  0  0  0  0  0  0  0  0  0
  -21.7910   -6.4260   22.6050 C   0  0  0  0  0  0  0  0  0  0  0  0
  -21.2230   -7.0070   23.7590 C   0  0  0  0  0  3  0  0  0  0  0  0
  -21.0240   -6.2260   24.9140 C   0  0  0  0  0  3  0  0  0  0  0  0
  -21.3800   -4.8640   24.9140 C   0  0  0  0  0  0  0  0  0  0  0  0
  -21.9420   -4.2830   23.7640 C   0  0  0  0  0  3  0  0  0  0  0  0
  -22.1420   -5.0610   22.6110 C   0  0  0  0  0  0  0  0  0  0  0  0
  -22.6640   -4.4900   21.4970 F   0  0  0  0  0  0  0  0  0  0  0  0
  -21.1810   -4.1120   26.0210 F   0  0  0  0  0  0  0  0  0  0  0  0
  -23.0050  -13.7770   21.0440 C   0  0  0  0  0  0  0  0  0  0  0  0
  -22.2200  -13.0960   21.8760 N   0  0  0  0  0  0  0  0  0  0  0  0
  -22.6040  -14.7880   20.4730 O   0  0  0  0  0  0  0  0  0  0  0  0
  -22.5570  -12.2780   22.3590 H   0  0  0  0  0  0  0  0  0  0  0  0
  -21.2680  -13.3950   22.0280 H   0  0  0  0  0  0  0  0  0  0  0  0
  -25.7100  -15.4360   20.4470 N   0  0  0  0  0  0  0  0  0  0  0  0
  -24.9090  -15.9890   20.7300 H   0  0  0  0  0  0  0  0  0  0  0  0
  -26.5400  -15.7470   20.9320 H   0  0  0  0  0  0  0  0  0  0  0  0
  -28.3980  -16.8220   18.5540 C   0  0  0  0  0  2  0  0  0  0  0  0
  -27.8950  -17.9570   19.3460 N   0  0  0  0  0  4  0  0  0  0  0  0
  -26.9080  -18.0700   19.1800 H   0  0  0  0  0  0  0  0  0  0  0  0
  -28.3530  -18.8100   19.0750 H   0  0  0  0  0  0  0  0  0  0  0  0
  -28.0240  -17.8060   20.3320 H   0  0  0  0  0  0  0  0  0  0  0  0
  -31.0100  -20.1500   22.4260 C   0  0  0  0  0  2  0  0  0  0  0  0
  -30.3540  -21.4890   22.8340 C   0  0  0  0  0  2  0  0  0  0  0  0
  -30.7610  -22.7360   22.0020 C   0  0  0  0  0  2  0  0  0  0  0  0
  -29.5850  -23.4240   21.2540 C   0  0  0  0  0  2  0  0  0  0  0  0
  -29.1770  -25.4160   22.7620 C   0  0  0  0  0  1  0  0  0  0  0  0
  -29.5590  -24.9740   21.3350 C   0  0  0  0  0  3  0  0  0  0  0  0
  -28.5680  -25.5710   20.3050 C   0  0  0  0  0  2  0  0  0  0  0  0
  -28.5910  -27.0090   20.3160 O   0  0  0  0  0  0  0  0  0  0  0  0
  -24.6190  -32.0410   23.3530 C   0  0  0  0  0  0  0  0  0  0  0  0
  -27.3880  -27.6870   20.2730 C   0  0  0  0  0  0  0  0  0  0  0  0
  -23.4500  -30.6130   21.7060 C   0  0  0  0  0  3  0  0  0  0  0  0
  -24.9480  -29.1230   20.2720 C   0  0  0  0  0  0  0  0  0  0  0  0
  -25.9620  -31.0480   21.5060 C   0  0  0  0  0  2  0  0  0  0  0  0
  -26.0880  -29.6820   20.8620 C   0  0  0  0  0  0  0  0  0  0  0  0
  -27.3080  -28.9720   20.8590 C   0  0  0  0  0  3  0  0  0  0  0  0
  -26.2320  -27.1490   19.6600 C   0  0  0  0  0  3  0  0  0  0  0  0
  -25.0150  -27.8570   19.6660 C   0  0  0  0  0  3  0  0  0  0  0  0
  -23.6800  -29.9430   20.3230 C   0  0  0  0  0  2  0  0  0  0  0  0
  -24.6940  -31.2460   22.2490 N   0  0  0  0  0  0  0  0  0  0  0  0
  -23.5320  -32.2860   23.8910 O   0  0  0  0  0  0  0  0  0  0  0  0
  -22.8240  -29.5740   22.6630 C   0  0  0  0  0  0  0  0  0  0  0  0
  -21.5140  -29.3330   22.5040 N   0  0  0  0  0  0  0  0  0  0  0  0
  -23.5140  -28.9900   23.5020 O   0  0  0  0  0  0  0  0  0  0  0  0
  -21.0220  -29.8590   21.7960 H   0  0  0  0  0  0  0  0  0  0  0  0
  -18.1890  -27.9710   22.9040 C   0  0  0  0  0  0  0  0  0  0  0  0
  -20.7170  -28.3680   23.2620 C   0  0  0  0  0  3  0  0  0  0  0  0
  -20.9170  -26.9350   22.7190 C   0  0  0  0  0  2  0  0  0  0  0  0
  -19.8720  -26.5360   21.6740 C   0  0  0  0  0  2  0  0  0  0  0  0
  -18.4610  -26.6190   22.2650 C   0  0  0  0  0  2  0  0  0  0  0  0
  -19.2500  -28.7990   23.3580 C   0  0  0  0  0  0  0  0  0  0  0  0
  -18.9460  -30.0600   23.9180 C   0  0  0  0  0  3  0  0  0  0  0  0
  -17.6130  -30.4960   24.0230 C   0  0  0  0  0  3  0  0  0  0  0  0
  -16.5650  -29.6660   23.5870 C   0  0  0  0  0  3  0  0  0  0  0  0
  -16.8540  -28.4060   23.0340 C   0  0  0  0  0  3  0  0  0  0  0  0
  -25.8890  -32.6990   23.9780 C   0  0  0  0  0  3  0  0  0  0  0  0
  -26.3970  -31.9620   25.2780 C   0  0  1  0  0  0  0  0  0  0  0  0
  -25.2870  -31.7360   26.3300 C   0  0  0  0  0  1  0  0  0  0  0  0
  -27.0030  -30.5830   24.9240 C   0  0  0  0  0  1  0  0  0  0  0  0
  -27.5270  -32.7850   25.9370 C   0  0  0  0  0  1  0  0  0  0  0  0
  -25.5650  -34.1030   24.2620 N   0  0  0  0  0  0  0  0  0  0  0  0
  -25.9090  -35.1340   23.4790 C   0  0  0  0  0  0  0  0  0  0  0  0
  -26.6010  -35.0060   22.4650 O   0  0  0  0  0  0  0  0  0  0  0  0
  -24.9480  -34.2760   25.0420 H   0  0  0  0  0  0  0  0  0  0  0  0
  -24.1820  -36.9050   23.0300 C   0  0  0  0  0  1  0  0  0  0  0  0
  -25.4020  -36.5310   23.8860 C   0  0  0  0  0  3  0  0  0  0  0  0
  -27.5050  -37.4520   24.7550 C   0  0  0  0  0  1  0  0  0  0  0  0
  -26.4330  -37.5850   23.7730 N   0  0  0  0  0  0  0  0  0  0  0  0
  -26.0180  -38.5080   23.8800 H   0  0  0  0  0  0  0  0  0  0  0  0
  1 50  1  0
  2  8  1  0
  3  8  1  0
  4  5  1  0
  4  3  1  0
  6  5  1  0
  6 20  1  0
  6  7  1  0
  8  7  1  0
  9  2  2  0
 10 12  1  0
 12  1  1  0
 12 11  1  0
 13 15  1  0
 13 14  1  0
 13 10  1  0
 14 45  1  0
 14 16  1  0
 16  2  1  0
 16 11  1  0
 17 18  2  0
 18 19  1  0
 18 37  1  0
 19 22  1  0
 20 17  1  0
 20 21  1  0
 21 19  2  0
 22 23  1  0
 23 24  2  0
 25 28  1  0
 25 24  1  0
 26 25  2  0
 27 26  1  0
 27 22  2  0
 28 29  1  0
 29 34  2  0
 29 30  1  0
 30 31  2  0
 32 31  1  0
 32 36  1  0
 33 32  2  0
 34 33  1  0
 35 34  1  0
 37 38  1  0
 38 41  1  0
 38 40  1  0
 39 37  2  0
 42 17  1  0
 42 43  1  0
 42 44  1  0
 45 46  1  0
 46 49  1  0
 47 46  1  0
 48 46  1  0
 50 51  1  0
 52 51  1  0
 53 55  1  0
 53 52  1  0
 55 54  1  0
 56 57  1  0
 56 55  1  0
 58 69  2  0
 59 57  1  0
 59 64  1  0
 60 68  1  0
 60 70  1  0
 61 67  1  0
 61 63  1  0
 62 68  1  0
 63 62  1  0
 64 63  2  0
 65 66  1  0
 65 59  2  0
 66 61  2  0
 67 60  1  0
 68 58  1  0
 70 72  2  0
 71 70  1  0
 73 71  1  0
 74 83  2  0
 74 79  1  0
 75 71  1  0
 75 79  1  0
 76 75  1  0
 77 78  1  0
 77 76  1  0
 78 74  1  0
 79 80  2  0
 80 81  1  0
 82 81  2  0
 83 82  1  0
 84 58  1  0
 84 89  1  0
 84 85  1  0
 85 88  1  1
 85 86  1  0
 87 85  1  0
 89 92  1  0
 90 94  1  0
 90 89  1  0
 91 90  2  0
 94 93  1  0
 96 97  1  0
 96 94  1  0
 96 95  1  0
M  ISO  4   2 100  16 100  56 101  57 101
M  END
>  <TORSDO>  (30) 
F 24

>  <SCORE>  (30) 
-12.153

>  <name>  (30) 
29

>  <ligand_id>  (30) 
29

>  <original_smiles>  (30) 
[H]c1c([H])c([H])c2c(c1[H])C([H])([H])C([H])([H])C([H])([H])C2([H])N([H])C(=O)C1([H])N(C(=O)C([H])(N([H])C(=O)C([H])(N([H])C([H])([H])[H])C([H])([H])[H])C(C([H])([H])[H])(C([H])([H])[H])C([H])([H])[H])C([H])([H])c2c([H])c(OC([H])([H])C([H])(C([H])([H])[H])C([H])([H])C([H])([H])C([H])([H])C([H])([H])C([H])([H])C3([H])C([H])([H])N(C(=O)N4C([H])([H])C([H])([H])C([H])([H])C([H])(n5nc(-c6c([H])c([H])c(Oc7c([H])c([H])c(F)c([H])c7F)c([H])c6[H])c(C(=O)N([H])[H])c5N([H])[H])C4([H])[H])C([H])(C([H])([H])[N+]([H])([H])[H])C([H])(C([H])([H])[H])C3([H])[H])c([H])c([H])c2C1([H])[H]

>  <smiles>  (30) 
[H]c1c([H])c([H])c2c(c1[H])C([H])([H])C([H])([H])C([H])([H])C2([H])N([H])C(=O)C1([H])N(C(=O)C([H])(N([H])C(=O)C([H])(N([H])C([H])([H])[H])C([H])([H])[H])C(C([H])([H])[H])(C([H])([H])[H])C([H])([H])[H])C([H])([H])c2c([H])c(OC([H])([H])C([H])(C([H])([H])[H])C([H])([H])C([H])([H])C([H])([H])C([H])([H])C([H])([H])C3([H])C([H])([H])N(C(=O)N4C([H])([H])C([H])([H])C([H])([H])C([H])(n5nc(-c6c([H])c([H])c(Oc7c([H])c([H])c(F)c([H])c7F)c([H])c6[H])c(C(=O)N([H])[H])c5N([H])[H])C4([H])[H])C([H])(C([H])([H])[N+]([H])([H])[H])C([H])(C([H])([H])[H])C3([H])[H])c([H])c([H])c2C1([H])[H]

$$$$
30:0:0
     RDKit          3D

 88 95  0  0  1  0  0  0  0  0999 V2000
  -29.4110  -20.3790   19.7020 C   0  0  0  0  0  0  0  0  0  0  0  0
  -30.4710  -20.5630   19.0990 O   0  0  0  0  0  0  0  0  0  0  0  0
  -28.6590  -22.0000   20.2230 C   0  0  0  0  0  2  0  0  0  0  0  0
  -28.3810  -23.7990   19.5910 C   0  0  0  0  0  2  0  0  0  0  0  0
  -28.2900  -25.4630   20.1200 O   0  0  0  0  0  0  0  0  0  0  0  0
  -24.5620  -31.5570   23.0130 C   0  0  0  0  0  0  0  0  0  0  0  0
  -27.2900  -26.6330   19.9980 C   0  0  0  0  0  0  0  0  0  0  0  0
  -23.4460  -30.1620   21.3250 C   0  0  0  0  0  3  0  0  0  0  0  0
  -24.9690  -28.5830   19.9120 C   0  0  0  0  0  0  0  0  0  0  0  0
  -26.0180  -30.3800   21.2650 C   0  0  0  0  0  2  0  0  0  0  0  0
  -26.1350  -28.9660   20.5850 C   0  0  0  0  0  0  0  0  0  0  0  0
  -27.2790  -28.0150   20.6010 C   0  0  0  0  0  3  0  0  0  0  0  0
  -26.0910  -26.4530   19.2590 C   0  0  0  0  0  3  0  0  0  0  0  0
  -24.9830  -27.3550   19.2290 C   0  0  0  0  0  3  0  0  0  0  0  0
  -23.7330  -29.4980   19.9450 C   0  0  0  0  0  2  0  0  0  0  0  0
  -24.6960  -30.7300   21.9210 N   0  0  0  0  0  0  0  0  0  0  0  0
  -23.4520  -31.8210   23.5060 O   0  0  0  0  0  0  0  0  0  0  0  0
  -22.7380  -29.1450   22.2600 C   0  0  0  0  0  0  0  0  0  0  0  0
  -21.4040  -28.9980   22.1400 N   0  0  0  0  0  0  0  0  0  0  0  0
  -23.3990  -28.4880   23.0670 O   0  0  0  0  0  0  0  0  0  0  0  0
  -20.9170  -29.5780   21.4710 H   0  0  0  0  0  0  0  0  0  0  0  0
  -18.0130  -27.8170   22.6780 C   0  0  0  0  0  0  0  0  0  0  0  0
  -20.5830  -28.0350   22.8850 C   0  0  0  0  0  3  0  0  0  0  0  0
  -20.6470  -26.6320   22.2360 C   0  0  0  0  0  2  0  0  0  0  0  0
  -19.5170  -26.3800   21.2340 C   0  0  0  0  0  2  0  0  0  0  0  0
  -18.1540  -26.5050   21.9200 C   0  0  0  0  0  2  0  0  0  0  0  0
  -19.1530  -28.5420   23.1160 C   0  0  0  0  0  0  0  0  0  0  0  0
  -18.9640  -29.7700   23.7890 C   0  0  0  0  0  3  0  0  0  0  0  0
  -17.6690  -30.2710   24.0230 C   0  0  0  0  0  3  0  0  0  0  0  0
  -16.5460  -29.5440   23.5950 C   0  0  0  0  0  3  0  0  0  0  0  0
  -16.7180  -28.3170   22.9290 C   0  0  0  0  0  3  0  0  0  0  0  0
  -25.7970  -32.2280   23.6890 C   0  0  0  0  0  3  0  0  0  0  0  0
  -25.4340  -33.6150   24.0390 N   0  0  0  0  0  0  0  0  0  0  0  0
  -25.7690  -34.7030   23.3300 C   0  0  0  0  0  0  0  0  0  0  0  0
  -26.4730  -34.6440   22.3210 O   0  0  0  0  0  0  0  0  0  0  0  0
  -24.8140  -33.7330   24.8280 H   0  0  0  0  0  0  0  0  0  0  0  0
  -24.0070  -36.4730   22.9910 C   0  0  0  0  0  1  0  0  0  0  0  0
  -25.2430  -36.0710   23.8140 C   0  0  0  0  0  3  0  0  0  0  0  0
  -27.3380  -36.9910   24.7120 C   0  0  0  0  0  1  0  0  0  0  0  0
  -26.2540  -37.1510   23.7470 N   0  0  0  0  0  0  0  0  0  0  0  0
  -25.8230  -38.0590   23.9060 H   0  0  0  0  0  0  0  0  0  0  0  0
  -26.2820  -31.4610   24.9820 C   0  0  1  0  0  0  0  0  0  0  0  0
  -25.1560  -31.2100   26.0150 C   0  0  0  0  0  1  0  0  0  0  0  0
  -26.8980  -30.0900   24.6210 C   0  0  0  0  0  1  0  0  0  0  0  0
  -27.3990  -32.2730   25.6850 C   0  0  0  0  0  1  0  0  0  0  0  0
  -28.9570  -18.5070   19.8510 C   0  0  0  0  0  0  0  0  0  0  0  0
  -30.3890  -15.6310   20.7050 C   0  0  0  0  0  0  0  0  0  0  0  0
  -30.6610  -12.9780   20.7380 C   0  0  0  0  0  2  0  0  0  0  0  0
  -30.0420  -12.1940   19.5470 C   0  0  0  0  0  2  0  0  0  0  0  0
  -28.5570  -11.9030   19.8020 C   0  0  0  0  0  2  0  0  0  0  0  0
  -27.8400  -13.1460   20.3810 C   0  0  0  0  0  3  0  0  0  0  0  0
  -28.6080  -13.8300   21.5360 C   0  0  0  0  0  2  0  0  0  0  0  0
  -29.8980  -14.2850   20.9730 N   0  0  0  0  0  0  0  0  0  0  0  0
  -31.6320  -15.6080   20.7550 O   0  0  0  0  0  0  0  0  0  0  0  0
  -29.6040  -16.9090   20.3150 N   0  0  0  0  0  0  0  0  0  0  0  0
  -30.5320  -17.3110   20.2720 H   0  0  0  0  0  0  0  0  0  0  0  0
  -25.4340  -13.8340   20.7980 C   0  0  0  0  0  0  0  0  0  0  0  0
  -24.2910  -13.1220   21.0240 C   0  0  0  0  0  0  0  0  0  0  0  0
  -24.6830  -11.7480   21.0740 C   0  0  0  0  0  0  0  0  0  0  0  0
  -26.4470  -12.8980   20.7110 N   0  0  0  0  0  0  0  0  0  0  0  0
  -26.0010  -11.6370   20.9460 N   0  0  0  0  0  0  0  0  0  0  0  0
  -23.8640  -10.5320   21.1710 C   0  0  0  0  0  0  0  0  0  0  0  0
  -24.1600   -9.5130   22.1050 C   0  0  0  0  0  3  0  0  0  0  0  0
  -23.3420   -8.3650   22.1970 C   0  0  0  0  0  3  0  0  0  0  0  0
  -22.2140   -8.2280   21.3540 C   0  0  0  0  0  0  0  0  0  0  0  0
  -21.9380   -9.2320   20.4110 C   0  0  0  0  0  3  0  0  0  0  0  0
  -22.7560  -10.3700   20.3160 C   0  0  0  0  0  3  0  0  0  0  0  0
  -21.3830   -7.1340   21.3510 O   0  0  0  0  0  0  0  0  0  0  0  0
  -21.2210   -6.3470   22.4630 C   0  0  0  0  0  0  0  0  0  0  0  0
  -20.7870   -6.8800   23.6970 C   0  0  0  0  0  3  0  0  0  0  0  0
  -20.5660   -6.0270   24.7950 C   0  0  0  0  0  3  0  0  0  0  0  0
  -20.7730   -4.6410   24.6630 C   0  0  0  0  0  0  0  0  0  0  0  0
  -21.2010   -4.1060   23.4350 C   0  0  0  0  0  3  0  0  0  0  0  0
  -21.4210   -4.9580   22.3370 C   0  0  0  0  0  0  0  0  0  0  0  0
  -21.8100   -4.4340   21.1500 F   0  0  0  0  0  0  0  0  0  0  0  0
  -20.5560   -3.8200   25.7160 F   0  0  0  0  0  0  0  0  0  0  0  0
  -22.9000  -13.6800   21.0850 C   0  0  0  0  0  0  0  0  0  0  0  0
  -22.0290  -13.0610   21.8700 N   0  0  0  0  0  0  0  0  0  0  0  0
  -22.5970  -14.7040   20.4730 O   0  0  0  0  0  0  0  0  0  0  0  0
  -22.2900  -12.2340   22.3850 H   0  0  0  0  0  0  0  0  0  0  0  0
  -21.0880  -13.4180   21.9580 H   0  0  0  0  0  0  0  0  0  0  0  0
  -25.6980  -15.1890   20.6290 N   0  0  0  0  0  0  0  0  0  0  0  0
  -24.9670  -15.8920   20.6340 H   0  0  0  0  0  0  0  0  0  0  0  0
  -26.6150  -15.5700   20.4280 H   0  0  0  0  0  0  0  0  0  0  0  0
  -28.1890  -18.1400   18.5400 C   0  0  0  0  0  3  0  0  0  0  0  0
  -27.2550  -18.6980   16.2290 C   0  0  0  0  0  1  0  0  0  0  0  0
  -26.4520  -20.0050   18.2340 C   0  0  0  0  0  1  0  0  0  0  0  0
  -27.6410  -19.2600   17.6100 C   0  0  0  0  0  3  0  0  0  0  0  0
  1 46  1  0
  1  3  1  0
  2  1  2  0
  4  5  1  0
  4  3  1  0
  6 17  2  0
  7  5  1  0
  7 12  1  0
  8 16  1  0
  8 18  1  0
  9 15  1  0
  9 11  1  0
 10 16  1  0
 11 12  2  0
 11 10  1  0
 13  7  2  0
 14 13  1  0
 14  9  2  0
 15  8  1  0
 16  6  1  0
 18 20  2  0
 19 18  1  0
 21 19  1  0
 22 31  2  0
 22 27  1  0
 23 19  1  0
 23 27  1  0
 24 23  1  0
 25 26  1  0
 25 24  1  0
 26 22  1  0
 27 28  2  0
 28 29  1  0
 30 29  2  0
 31 30  1  0
 32  6  1  0
 32 33  1  0
 32 42  1  0
 33 36  1  0
 34 38  1  0
 34 33  1  0
 35 34  2  0
 38 37  1  0
 40 38  1  0
 40 41  1  0
 40 39  1  0
 42 45  1  1
 42 43  1  0
 44 42  1  0
 46 55  1  0
 47 54  2  0
 47 53  1  0
 48 53  1  0
 49 50  1  0
 49 48  1  0
 51 50  1  0
 51 60  1  0
 51 52  1  0
 53 52  1  0
 55 47  1  0
 56 55  1  0
 57 58  2  0
 58 59  1  0
 58 77  1  0
 59 62  1  0
 60 57  1  0
 60 61  1  0
 61 59  2  0
 62 63  1  0
 63 64  2  0
 65 64  1  0
 66 65  2  0
 67 66  1  0
 67 62  2  0
 68 65  1  0
 68 69  1  0
 69 70  1  0
 70 71  2  0
 72 71  1  0
 72 76  1  0
 73 72  2  0
 74 69  2  0
 74 73  1  0
 75 74  1  0
 77 78  1  0
 78 81  1  0
 78 80  1  0
 79 77  2  0
 82 83  1  0
 82 57  1  0
 84 82  1  0
 85 46  2  0
 86 88  1  0
 88 87  1  0
 88 85  1  0
M  ISO  4   4 101   5 101  47 100  55 100
M  END
>  <TORSDO>  (31) 
F 21

>  <SCORE>  (31) 
-14.006

>  <name>  (31) 
30

>  <ligand_id>  (31) 
30

>  <original_smiles>  (31) 
[H]c1c([H])c([H])c2c(c1[H])C([H])([H])C([H])([H])C([H])([H])C2([H])N([H])C(=O)C1([H])N(C(=O)C([H])(N([H])C(=O)C([H])(N([H])C([H])([H])[H])C([H])([H])[H])C(C([H])([H])[H])(C([H])([H])[H])C([H])([H])[H])C([H])([H])c2c([H])c(OC([H])([H])C([H])([H])C(=O)C([H])(N([H])C(=O)N3C([H])([H])C([H])([H])C([H])([H])C([H])(n4nc(-c5c([H])c([H])c(Oc6c([H])c([H])c(F)c([H])c6F)c([H])c5[H])c(C(=O)N([H])[H])c4N([H])[H])C3([H])[H])C([H])([H])C([H])(C([H])([H])[H])C([H])([H])[H])c([H])c([H])c2C1([H])[H]

>  <smiles>  (31) 
[H]c1c([H])c([H])c2c(c1[H])C([H])([H])C([H])([H])C([H])([H])C2([H])N([H])C(=O)C1([H])N(C(=O)C([H])(N([H])C(=O)C([H])(N([H])C([H])([H])[H])C([H])([H])[H])C(C([H])([H])[H])(C([H])([H])[H])C([H])([H])[H])C([H])([H])c2c([H])c(OC([H])([H])C([H])([H])C(=O)C([H])(N([H])C(=O)N3C([H])([H])C([H])([H])C([H])([H])C([H])(n4nc(-c5c([H])c([H])c(Oc6c([H])c([H])c(F)c([H])c6F)c([H])c5[H])c(C(=O)N([H])[H])c4N([H])[H])C3([H])[H])C([H])([H])C([H])(C([H])([H])[H])C([H])([H])[H])c([H])c([H])c2C1([H])[H]

$$$$
31:0:0
     RDKit          3D

 98106  0  0  1  0  0  0  0  0999 V2000
  -27.7870  -19.7380   20.3880 C   0  0  0  0  0  0  0  0  0  0  0  0
  -27.4210  -21.0210   20.2890 N   0  0  0  0  0  0  0  0  0  0  0  0
  -26.9340  -18.8770   20.6060 O   0  0  0  0  0  0  0  0  0  0  0  0
  -26.4460  -21.2080   20.4780 H   0  0  0  0  0  0  0  0  0  0  0  0
  -29.5650  -17.8530   20.4310 C   0  0  0  0  0  2  0  0  0  0  0  0
  -30.1550  -20.0450   21.2990 C   0  0  0  0  0  2  0  0  0  0  0  0
  -29.2720  -19.3530   20.2460 C   0  0  0  0  0  3  0  0  0  0  0  0
  -31.0350  -17.7930   20.8630 C   0  0  0  0  0  3  0  0  0  0  0  0
  -31.1790  -19.0100   21.8090 C   0  0  0  0  0  3  0  0  0  0  0  0
  -31.4970  -16.4440   21.4820 C   0  0  0  0  0  2  0  0  0  0  0  0
  -31.1980  -14.3970   20.0430 C   0  0  0  0  0  0  0  0  0  0  0  0
  -30.7700  -12.2130   18.9640 C   0  0  0  0  0  2  0  0  0  0  0  0
  -29.8050  -12.3410   17.7720 C   0  0  0  0  0  2  0  0  0  0  0  0
  -28.3420  -12.2540   18.2470 C   0  0  0  0  0  2  0  0  0  0  0  0
  -28.0470  -13.2060   19.4340 C   0  0  0  0  0  3  0  0  0  0  0  0
  -29.1160  -13.0550   20.5400 C   0  0  0  0  0  2  0  0  0  0  0  0
  -30.4470  -13.2700   19.9360 N   0  0  0  0  0  0  0  0  0  0  0  0
  -32.2190  -14.6020   19.3770 O   0  0  0  0  0  0  0  0  0  0  0  0
  -30.7870  -15.2670   20.9740 N   0  0  0  0  0  0  0  0  0  0  0  0
  -29.9310  -15.0200   21.4500 H   0  0  0  0  0  0  0  0  0  0  0  0
  -25.7050  -13.9290   20.2150 C   0  0  0  0  0  0  0  0  0  0  0  0
  -24.6140  -13.2120   20.6250 C   0  0  0  0  0  0  0  0  0  0  0  0
  -25.0070  -11.8400   20.5880 C   0  0  0  0  0  0  0  0  0  0  0  0
  -26.7000  -12.9980   19.9580 N   0  0  0  0  0  0  0  0  0  0  0  0
  -26.2840  -11.7370   20.2380 N   0  0  0  0  0  0  0  0  0  0  0  0
  -24.2280  -10.6150   20.8130 C   0  0  0  0  0  0  0  0  0  0  0  0
  -24.6060   -9.6660   21.7890 C   0  0  0  0  0  3  0  0  0  0  0  0
  -23.8300   -8.5060   21.9990 C   0  0  0  0  0  3  0  0  0  0  0  0
  -22.6600   -8.2850   21.2330 C   0  0  0  0  0  0  0  0  0  0  0  0
  -22.3000   -9.2210   20.2480 C   0  0  0  0  0  3  0  0  0  0  0  0
  -23.0770  -10.3730   20.0390 C   0  0  0  0  0  3  0  0  0  0  0  0
  -21.8600   -7.1750   21.3490 O   0  0  0  0  0  0  0  0  0  0  0  0
  -21.7130   -6.5170   22.5430 C   0  0  0  0  0  0  0  0  0  0  0  0
  -21.2200   -7.1670   23.6960 C   0  0  0  0  0  3  0  0  0  0  0  0
  -21.0210   -6.4370   24.8830 C   0  0  0  0  0  3  0  0  0  0  0  0
  -21.2990   -5.0560   24.9170 C   0  0  0  0  0  0  0  0  0  0  0  0
  -21.7860   -4.4090   23.7670 C   0  0  0  0  0  3  0  0  0  0  0  0
  -21.9880   -5.1360   22.5830 C   0  0  0  0  0  0  0  0  0  0  0  0
  -22.4370   -4.5030   21.4720 F   0  0  0  0  0  0  0  0  0  0  0  0
  -21.1010   -4.3500   26.0540 F   0  0  0  0  0  0  0  0  0  0  0  0
  -23.2530  -13.7580   20.9400 C   0  0  0  0  0  0  0  0  0  0  0  0
  -22.5290  -13.1090   21.8460 N   0  0  0  0  0  0  0  0  0  0  0  0
  -22.8420  -14.7950   20.4210 O   0  0  0  0  0  0  0  0  0  0  0  0
  -22.8720  -12.2720   22.2910 H   0  0  0  0  0  0  0  0  0  0  0  0
  -21.6170  -13.4620   22.0990 H   0  0  0  0  0  0  0  0  0  0  0  0
  -25.9240  -15.2910   20.0250 N   0  0  0  0  0  0  0  0  0  0  0  0
  -25.1890  -15.9720   20.1730 H   0  0  0  0  0  0  0  0  0  0  0  0
  -26.7940  -15.7070   19.7180 H   0  0  0  0  0  0  0  0  0  0  0  0
  -32.6060  -19.5910   21.9150 C   0  0  0  0  0  2  0  0  0  0  0  0
  -32.6670  -20.7770   22.7920 N   0  0  0  0  0  4  0  0  0  0  0  0
  -32.0040  -21.4730   22.5020 H   0  0  0  0  0  0  0  0  0  0  0  0
  -33.5840  -21.1850   22.7480 H   0  0  0  0  0  0  0  0  0  0  0  0
  -32.4790  -20.5310   23.7460 H   0  0  0  0  0  0  0  0  0  0  0  0
  -28.2390  -22.1990   19.9940 C   0  0  0  0  0  2  0  0  0  0  0  0
  -27.4660  -23.1410   19.0560 C   0  0  0  0  0  2  0  0  0  0  0  0
  -28.0980  -24.5320   18.8640 C   0  0  0  0  0  2  0  0  0  0  0  0
  -28.1300  -25.3720   20.1560 C   0  0  0  0  0  2  0  0  0  0  0  0
  -28.2810  -26.7740   19.9100 O   0  0  0  0  0  0  0  0  0  0  0  0
  -24.5670  -31.8730   23.1950 C   0  0  0  0  0  0  0  0  0  0  0  0
  -27.1150  -27.5090   19.9410 C   0  0  0  0  0  0  0  0  0  0  0  0
  -23.3170  -30.5100   21.5540 C   0  0  0  0  0  3  0  0  0  0  0  0
  -24.7310  -29.0200   20.0490 C   0  0  0  0  0  0  0  0  0  0  0  0
  -25.8360  -30.8810   21.2920 C   0  0  0  0  0  2  0  0  0  0  0  0
  -25.9060  -29.5280   20.6190 C   0  0  0  0  0  0  0  0  0  0  0  0
  -27.1040  -28.7790   20.5640 C   0  0  0  0  0  3  0  0  0  0  0  0
  -25.9200  -27.0200   19.3680 C   0  0  0  0  0  3  0  0  0  0  0  0
  -24.7320  -27.7670   19.4180 C   0  0  0  0  0  3  0  0  0  0  0  0
  -23.4880  -29.8730   20.1500 C   0  0  0  0  0  2  0  0  0  0  0  0
  -24.5950  -31.1020   22.0710 N   0  0  0  0  0  0  0  0  0  0  0  0
  -23.5020  -32.1270   23.7710 O   0  0  0  0  0  0  0  0  0  0  0  0
  -22.7020  -29.4600   22.5080 C   0  0  0  0  0  0  0  0  0  0  0  0
  -21.3770  -29.2680   22.4060 N   0  0  0  0  0  0  0  0  0  0  0  0
  -23.4100  -28.8240   23.2950 O   0  0  0  0  0  0  0  0  0  0  0  0
  -20.8700  -29.8250   21.7320 H   0  0  0  0  0  0  0  0  0  0  0  0
  -18.0260  -28.0200   22.9290 C   0  0  0  0  0  0  0  0  0  0  0  0
  -20.5830  -28.3090   23.1720 C   0  0  0  0  0  3  0  0  0  0  0  0
  -20.7000  -26.8900   22.5740 C   0  0  0  0  0  2  0  0  0  0  0  0
  -19.5890  -26.5640   21.5710 C   0  0  0  0  0  2  0  0  0  0  0  0
  -18.2130  -26.6820   22.2330 C   0  0  0  0  0  2  0  0  0  0  0  0
  -19.1400  -28.7910   23.3550 C   0  0  0  0  0  0  0  0  0  0  0  0
  -18.9140  -30.0440   23.9670 C   0  0  0  0  0  3  0  0  0  0  0  0
  -17.6040  -30.5260   24.1580 C   0  0  0  0  0  3  0  0  0  0  0  0
  -16.5070  -29.7510   23.7450 C   0  0  0  0  0  3  0  0  0  0  0  0
  -16.7160  -28.5010   23.1380 C   0  0  0  0  0  3  0  0  0  0  0  0
  -25.8690  -32.4870   23.7930 C   0  0  0  0  0  3  0  0  0  0  0  0
  -26.4200  -31.6860   25.0350 C   0  0  1  0  0  0  0  0  0  0  0  0
  -25.3630  -31.4290   26.1310 C   0  0  0  0  0  1  0  0  0  0  0  0
  -26.9940  -30.3170   24.5950 C   0  0  0  0  0  1  0  0  0  0  0  0
  -27.5950  -32.4650   25.6730 C   0  0  0  0  0  1  0  0  0  0  0  0
  -25.5690  -33.8790   24.1510 N   0  0  0  0  0  0  0  0  0  0  0  0
  -25.8870  -34.9420   23.4000 C   0  0  0  0  0  0  0  0  0  0  0  0
  -26.5330  -34.8520   22.3530 O   0  0  0  0  0  0  0  0  0  0  0  0
  -24.9840  -34.0210   24.9610 H   0  0  0  0  0  0  0  0  0  0  0  0
  -24.1540  -36.7470   23.1080 C   0  0  0  0  0  1  0  0  0  0  0  0
  -25.4090  -36.3240   23.8870 C   0  0  0  0  0  3  0  0  0  0  0  0
  -27.5610  -37.2020   24.6860 C   0  0  0  0  0  1  0  0  0  0  0  0
  -26.4390  -37.3770   23.7680 N   0  0  0  0  0  0  0  0  0  0  0  0
  -26.0340  -38.2950   23.9320 H   0  0  0  0  0  0  0  0  0  0  0  0
  1  3  2  0
  2  1  1  0
  2  4  1  0
  5  8  1  0
  6  9  1  0
  7  1  1  0
  7  5  1  0
  7  6  1  0
  8 10  1  0
  8  9  1  0
  9 49  1  0
 11 19  1  0
 12 17  1  0
 13 14  1  0
 13 12  1  0
 15 14  1  0
 15 24  1  0
 15 16  1  0
 17 11  1  0
 17 16  1  0
 18 11  2  0
 19 20  1  0
 19 10  1  0
 21 22  2  0
 22 41  1  0
 23 22  1  0
 23 26  1  0
 24 21  1  0
 24 25  1  0
 25 23  2  0
 26 27  1  0
 27 28  2  0
 29 32  1  0
 29 28  1  0
 30 29  2  0
 31 30  1  0
 31 26  2  0
 32 33  1  0
 33 38  2  0
 33 34  1  0
 34 35  2  0
 35 36  1  0
 36 40  1  0
 37 36  2  0
 38 37  1  0
 39 38  1  0
 41 42  1  0
 42 45  1  0
 42 44  1  0
 43 41  2  0
 46 47  1  0
 46 21  1  0
 48 46  1  0
 49 50  1  0
 50 53  1  0
 51 50  1  0
 52 50  1  0
 54  2  1  0
 55 54  1  0
 56 55  1  0
 56 57  1  0
 58 60  1  0
 58 57  1  0
 59 70  2  0
 60 65  1  0
 61 69  1  0
 61 71  1  0
 62 68  1  0
 62 64  1  0
 63 69  1  0
 64 63  1  0
 65 64  2  0
 66 67  1  0
 66 60  2  0
 67 62  2  0
 68 61  1  0
 69 59  1  0
 71 73  2  0
 72 71  1  0
 74 72  1  0
 75 84  2  0
 75 80  1  0
 76 72  1  0
 76 80  1  0
 77 76  1  0
 78 79  1  0
 78 77  1  0
 79 75  1  0
 80 81  2  0
 81 82  1  0
 83 82  2  0
 84 83  1  0
 85 59  1  0
 85 90  1  0
 85 86  1  0
 86 89  1  1
 86 87  1  0
 88 86  1  0
 90 93  1  0
 91 95  1  0
 91 90  1  0
 92 91  2  0
 95 94  1  0
 97 95  1  0
 97 98  1  0
 97 96  1  0
M  ISO  4  11 100  19 100  57 101  58 101
M  END
>  <TORSDO>  (32) 
F 24

>  <SCORE>  (32) 
-12.278

>  <name>  (32) 
31

>  <ligand_id>  (32) 
31

>  <original_smiles>  (32) 
[H]c1c([H])c([H])c2c(c1[H])C([H])([H])C([H])([H])C([H])([H])C2([H])N([H])C(=O)C1([H])N(C(=O)C([H])(N([H])C(=O)C([H])(N([H])C([H])([H])[H])C([H])([H])[H])C(C([H])([H])[H])(C([H])([H])[H])C([H])([H])[H])C([H])([H])c2c([H])c(OC([H])([H])C([H])([H])C([H])([H])C([H])([H])N([H])C(=O)C3([H])C([H])([H])C([H])(C([H])([H])N([H])C(=O)N4C([H])([H])C([H])([H])C([H])([H])C([H])(n5nc(-c6c([H])c([H])c(Oc7c([H])c([H])c(F)c([H])c7F)c([H])c6[H])c(C(=O)N([H])[H])c5N([H])[H])C4([H])[H])C([H])(C([H])([H])[N+]([H])([H])[H])C3([H])[H])c([H])c([H])c2C1([H])[H]

>  <smiles>  (32) 
[H]c1c([H])c([H])c2c(c1[H])C([H])([H])C([H])([H])C([H])([H])C2([H])N([H])C(=O)C1([H])N(C(=O)C([H])(N([H])C(=O)C([H])(N([H])C([H])([H])[H])C([H])([H])[H])C(C([H])([H])[H])(C([H])([H])[H])C([H])([H])[H])C([H])([H])c2c([H])c(OC([H])([H])C([H])([H])C([H])([H])C([H])([H])N([H])C(=O)C3([H])C([H])([H])C([H])(C([H])([H])N([H])C(=O)N4C([H])([H])C([H])([H])C([H])([H])C([H])(n5nc(-c6c([H])c([H])c(Oc7c([H])c([H])c(F)c([H])c7F)c([H])c6[H])c(C(=O)N([H])[H])c5N([H])[H])C4([H])[H])C([H])(C([H])([H])[N+]([H])([H])[H])C3([H])[H])c([H])c([H])c2C1([H])[H]

$$$$
32:0:0
     RDKit          3D

 93100  0  0  1  0  0  0  0  0999 V2000
  -26.0660  -21.6800   20.2990 N   0  0  0  0  0  4  0  0  0  0  0  0
  -25.1850  -21.7400   20.7910 H   0  0  0  0  0  0  0  0  0  0  0  0
  -25.8640  -21.8100   19.3210 H   0  0  0  0  0  0  0  0  0  0  0  0
  -26.5960  -20.3110   20.5000 C   0  0  0  0  0  2  0  0  0  0  0  0
  -27.6710  -19.9090   19.4630 C   0  0  0  0  0  2  0  0  0  0  0  0
  -28.0800  -18.4270   19.5770 C   0  0  0  0  0  2  0  0  0  0  0  0
  -29.5970  -18.1660   19.7420 C   0  0  0  0  0  2  0  0  0  0  0  0
  -30.2650  -17.3730   18.6140 C   0  0  0  0  0  0  0  0  0  0  0  0
  -30.4860  -17.9000   17.5170 O   0  0  0  0  0  0  0  0  0  0  0  0
  -30.6840  -15.9120   18.9230 C   0  0  0  0  0  0  0  0  0  0  0  0
  -30.0590  -15.0430   18.3010 O   0  0  0  0  0  0  0  0  0  0  0  0
  -31.6910  -15.6730   19.8070 N   0  0  0  0  0  2  0  0  0  0  0  0
  -32.2460  -14.4550   19.9810 C   0  0  0  0  0  0  0  0  0  0  0  0
  -32.0840  -12.0890   20.7430 C   0  0  0  0  0  2  0  0  0  0  0  0
  -31.3250  -11.2090   19.7230 C   0  0  0  0  0  2  0  0  0  0  0  0
  -29.8060  -11.5050   19.6560 C   0  0  0  0  0  2  0  0  0  0  0  0
  -29.3470  -12.4650   20.7540 C   0  0  0  0  0  3  0  0  0  0  0  0
  -30.2230  -13.6310   21.1990 C   0  0  0  0  0  2  0  0  0  0  0  0
  -31.5810  -13.4750   20.6550 N   0  0  0  0  0  0  0  0  0  0  0  0
  -33.3780  -14.2310   19.5510 O   0  0  0  0  0  0  0  0  0  0  0  0
  -26.9900  -13.6760   21.0160 C   0  0  0  0  0  0  0  0  0  0  0  0
  -25.7710  -13.0590   21.2100 C   0  0  0  0  0  0  0  0  0  0  0  0
  -26.0450  -11.6620   21.2300 C   0  0  0  0  0  0  0  0  0  0  0  0
  -27.9140  -12.6240   20.9490 N   0  0  0  0  0  0  0  0  0  0  0  0
  -27.3190  -11.4380   21.1150 N   0  0  0  0  0  0  0  0  0  0  0  0
  -25.2010  -10.4790   21.2890 C   0  0  0  0  0  0  0  0  0  0  0  0
  -25.3230   -9.5560   22.3510 C   0  0  0  0  0  3  0  0  0  0  0  0
  -24.5050   -8.4100   22.3930 C   0  0  0  0  0  3  0  0  0  0  0  0
  -23.5590   -8.1870   21.3650 C   0  0  0  0  0  0  0  0  0  0  0  0
  -23.4690   -9.0940   20.2920 C   0  0  0  0  0  3  0  0  0  0  0  0
  -24.2900  -10.2290   20.2500 C   0  0  0  0  0  3  0  0  0  0  0  0
  -22.7270   -7.0980   21.3150 O   0  0  0  0  0  0  0  0  0  0  0  0
  -22.1440   -6.5940   22.4480 C   0  0  0  0  0  0  0  0  0  0  0  0
  -21.3290   -7.3830   23.2890 C   0  0  0  0  0  3  0  0  0  0  0  0
  -20.6900   -6.7980   24.4000 C   0  0  0  0  0  3  0  0  0  0  0  0
  -20.8630   -5.4260   24.6680 C   0  0  0  0  0  0  0  0  0  0  0  0
  -21.6740   -4.6390   23.8330 C   0  0  0  0  0  3  0  0  0  0  0  0
  -22.3090   -5.2210   22.7230 C   0  0  0  0  0  0  0  0  0  0  0  0
  -23.0710   -4.4550   21.9060 F   0  0  0  0  0  0  0  0  0  0  0  0
  -20.2450   -4.8610   25.7330 F   0  0  0  0  0  0  0  0  0  0  0  0
  -24.4080  -13.6820   21.2970 C   0  0  0  0  0  0  0  0  0  0  0  0
  -23.5070  -13.0550   22.0480 N   0  0  0  0  0  0  0  0  0  0  0  0
  -24.1420  -14.7390   20.7320 O   0  0  0  0  0  0  0  0  0  0  0  0
  -23.7360  -12.2000   22.5330 H   0  0  0  0  0  0  0  0  0  0  0  0
  -22.5810  -13.4450   22.1470 H   0  0  0  0  0  0  0  0  0  0  0  0
  -27.3730  -15.0060   20.8850 N   0  0  0  0  0  0  0  0  0  0  0  0
  -26.7300  -15.7850   20.9540 H   0  0  0  0  0  0  0  0  0  0  0  0
  -28.3400  -15.2870   20.7370 H   0  0  0  0  0  0  0  0  0  0  0  0
  -26.9280  -22.7750   20.8010 C   0  0  0  0  0  2  0  0  0  0  0  0
  -27.3080  -23.7840   19.7000 C   0  0  0  0  0  2  0  0  0  0  0  0
  -28.2110  -24.9070   20.2440 C   0  0  0  0  0  2  0  0  0  0  0  0
  -28.7220  -25.8880   19.1640 C   0  0  0  0  0  2  0  0  0  0  0  0
  -28.6410  -27.2450   19.6110 O   0  0  0  0  0  0  0  0  0  0  0  0
  -24.4920  -31.8350   23.1100 C   0  0  0  0  0  0  0  0  0  0  0  0
  -27.4020  -27.8550   19.6550 C   0  0  0  0  0  0  0  0  0  0  0  0
  -23.3620  -30.4730   21.3810 C   0  0  0  0  0  3  0  0  0  0  0  0
  -24.9000  -29.1590   19.8290 C   0  0  0  0  0  0  0  0  0  0  0  0
  -25.8510  -31.0350   21.1800 C   0  0  0  0  0  2  0  0  0  0  0  0
  -26.0250  -29.7260   20.4390 C   0  0  0  0  0  0  0  0  0  0  0  0
  -27.2780  -29.0810   20.3470 C   0  0  0  0  0  3  0  0  0  0  0  0
  -26.2520  -27.3030   19.0420 C   0  0  0  0  0  3  0  0  0  0  0  0
  -25.0080  -27.9480   19.1290 C   0  0  0  0  0  3  0  0  0  0  0  0
  -23.5940  -29.9030   19.9560 C   0  0  0  0  0  2  0  0  0  0  0  0
  -24.5870  -31.1250   21.9500 N   0  0  0  0  0  0  0  0  0  0  0  0
  -23.4050  -31.9800   23.6850 O   0  0  0  0  0  0  0  0  0  0  0  0
  -22.8020  -29.3390   22.2700 C   0  0  0  0  0  0  0  0  0  0  0  0
  -21.5050  -29.0340   22.1050 N   0  0  0  0  0  0  0  0  0  0  0  0
  -23.5330  -28.7350   23.0600 O   0  0  0  0  0  0  0  0  0  0  0  0
  -20.9730  -29.5840   21.4450 H   0  0  0  0  0  0  0  0  0  0  0  0
  -18.2820  -27.4260   22.3930 C   0  0  0  0  0  0  0  0  0  0  0  0
  -20.7750  -27.9750   22.8000 C   0  0  0  0  0  3  0  0  0  0  0  0
  -21.0730  -26.5880   22.1840 C   0  0  0  0  0  2  0  0  0  0  0  0
  -20.0660  -26.1770   21.1030 C   0  0  0  0  0  2  0  0  0  0  0  0
  -18.6510  -26.1330   21.6840 C   0  0  0  0  0  2  0  0  0  0  0  0
  -19.2810  -28.2990   22.9030 C   0  0  0  0  0  0  0  0  0  0  0  0
  -18.8840  -29.5050   23.5190 C   0  0  0  0  0  3  0  0  0  0  0  0
  -17.5220  -29.8430   23.6320 C   0  0  0  0  0  3  0  0  0  0  0  0
  -16.5380  -28.9670   23.1400 C   0  0  0  0  0  3  0  0  0  0  0  0
  -16.9200  -27.7620   22.5270 C   0  0  0  0  0  3  0  0  0  0  0  0
  -25.7400  -32.5100   23.7600 C   0  0  0  0  0  3  0  0  0  0  0  0
  -26.2270  -31.7850   25.0750 C   0  0  1  0  0  0  0  0  0  0  0  0
  -25.1020  -31.5580   26.1120 C   0  0  0  0  0  1  0  0  0  0  0  0
  -26.8450  -30.4090   24.7410 C   0  0  0  0  0  1  0  0  0  0  0  0
  -27.3380  -32.6180   25.7550 C   0  0  0  0  0  1  0  0  0  0  0  0
  -25.3880  -33.9060   24.0410 N   0  0  0  0  0  0  0  0  0  0  0  0
  -25.7320  -34.9480   23.2710 C   0  0  0  0  0  0  0  0  0  0  0  0
  -26.4510  -34.8350   22.2740 O   0  0  0  0  0  0  0  0  0  0  0  0
  -24.7590  -34.0630   24.8140 H   0  0  0  0  0  0  0  0  0  0  0  0
  -23.9870  -36.6950   22.7900 C   0  0  0  0  0  1  0  0  0  0  0  0
  -25.1940  -36.3350   23.6720 C   0  0  0  0  0  3  0  0  0  0  0  0
  -27.2630  -37.2860   24.5900 C   0  0  0  0  0  1  0  0  0  0  0  0
  -26.2090  -37.4090   23.5860 N   0  0  0  0  0  0  0  0  0  0  0  0
  -25.7770  -38.3230   23.6930 H   0  0  0  0  0  0  0  0  0  0  0  0
  1  4  1  0
  1  2  1  0
  1 49  1  0
  3  1  1  0
  5  6  1  0
  5  4  1  0
  6  7  1  0
  8 10  1  0
  8  7  1  0
  9  8  2  0
 10 12  1  0
 11 10  2  0
 12 13  1  0
 13 19  1  0
 15 14  1  0
 16 15  1  0
 17 16  1  0
 17 24  1  0
 17 18  1  0
 19 14  1  0
 19 18  1  0
 20 13  2  0
 21 22  2  0
 22 23  1  0
 22 41  1  0
 23 26  1  0
 24 21  1  0
 24 25  1  0
 25 23  2  0
 26 27  1  0
 27 28  2  0
 29 28  1  0
 30 29  2  0
 31 30  1  0
 31 26  2  0
 32 29  1  0
 32 33  1  0
 33 38  2  0
 33 34  1  0
 34 35  2  0
 35 36  1  0
 36 40  1  0
 37 36  2  0
 38 37  1  0
 39 38  1  0
 41 42  1  0
 42 45  1  0
 42 44  1  0
 43 41  2  0
 46 47  1  0
 46 21  1  0
 48 46  1  0
 50 51  1  0
 50 49  1  0
 52 53  1  0
 52 51  1  0
 53 55  1  0
 54 65  2  0
 55 60  1  0
 56 64  1  0
 56 66  1  0
 57 63  1  0
 57 59  1  0
 58 64  1  0
 59 58  1  0
 60 59  2  0
 61 62  1  0
 61 55  2  0
 62 57  2  0
 63 56  1  0
 64 54  1  0
 66 68  2  0
 67 66  1  0
 69 67  1  0
 70 79  2  0
 70 75  1  0
 71 67  1  0
 71 75  1  0
 72 71  1  0
 73 74  1  0
 73 72  1  0
 74 70  1  0
 75 76  2  0
 76 77  1  0
 78 77  2  0
 79 78  1  0
 80 54  1  0
 80 85  1  0
 80 81  1  0
 81 84  1  1
 81 82  1  0
 83 81  1  0
 85 88  1  0
 86 90  1  0
 86 85  1  0
 87 86  2  0
 90 89  1  0
 92 90  1  0
 92 93  1  0
 92 91  1  0
M  ISO  4  12 100  13 100  52 101  53 101
M  END
>  <TORSDO>  (33) 
F 27

>  <SCORE>  (33) 
-6.810

>  <name>  (33) 
32

>  <ligand_id>  (33) 
32

>  <original_smiles>  (33) 
[H]c1c([H])c([H])c2c(c1[H])C([H])([H])C([H])([H])C([H])([H])C2([H])N([H])C(=O)C1([H])N(C(=O)C([H])(N([H])C(=O)C([H])(N([H])C([H])([H])[H])C([H])([H])[H])C(C([H])([H])[H])(C([H])([H])[H])C([H])([H])[H])C([H])([H])c2c([H])c(OC([H])([H])C([H])([H])C([H])([H])C([H])([H])[N+]([H])([H])C([H])([H])C([H])([H])C([H])([H])C([H])([H])C(=O)C(=O)[N-]C(=O)N3C([H])([H])C([H])([H])C([H])([H])C([H])(n4nc(-c5c([H])c([H])c(Oc6c([H])c([H])c(F)c([H])c6F)c([H])c5[H])c(C(=O)N([H])[H])c4N([H])[H])C3([H])[H])c([H])c([H])c2C1([H])[H]

>  <smiles>  (33) 
[H]c1c([H])c([H])c2c(c1[H])C([H])([H])C([H])([H])C([H])([H])C2([H])N([H])C(=O)C1([H])N(C(=O)C([H])(N([H])C(=O)C([H])(N([H])C([H])([H])[H])C([H])([H])[H])C(C([H])([H])[H])(C([H])([H])[H])C([H])([H])[H])C([H])([H])c2c([H])c(OC([H])([H])C([H])([H])C([H])([H])C([H])([H])[N+]([H])([H])C([H])([H])C([H])([H])C([H])([H])C([H])([H])C(=O)C(=O)[N-]C(=O)N3C([H])([H])C([H])([H])C([H])([H])C([H])(n4nc(-c5c([H])c([H])c(Oc6c([H])c([H])c(F)c([H])c6F)c([H])c5[H])c(C(=O)N([H])[H])c4N([H])[H])C3([H])[H])c([H])c([H])c2C1([H])[H]

$$$$
33:0:0
     RDKit          3D

 95103  0  0  1  0  0  0  0  0999 V2000
  -30.1460  -21.3520   21.2220 C   0  0  0  0  0  3  0  0  0  0  0  0
  -31.5590  -20.7660   21.4140 C   0  0  0  0  0  0  0  0  0  0  0  0
  -31.8560  -20.1380   22.4340 O   0  0  0  0  0  0  0  0  0  0  0  0
  -33.4210  -19.6920   20.0580 C   0  0  0  0  0  1  0  0  0  0  0  0
  -32.5740  -20.9590   20.2830 C   0  0  0  0  0  2  0  0  0  0  0  0
  -29.0610  -20.2510   21.3300 C   0  0  0  0  0  2  0  0  0  0  0  0
  -30.3130  -18.2840   18.2990 C   0  0  0  0  0  3  0  0  0  0  0  0
  -29.7550  -19.3250   19.0590 C   0  0  0  0  0  3  0  0  0  0  0  0
  -30.3940  -16.9920   18.8430 C   0  0  0  0  0  3  0  0  0  0  0  0
  -29.3600  -17.7830   20.9100 C   0  0  0  0  0  3  0  0  0  0  0  0
  -29.3390  -19.0890   20.3900 C   0  0  0  0  0  0  0  0  0  0  0  0
  -29.9150  -16.7400   20.1550 C   0  0  0  0  0  0  0  0  0  0  0  0
  -30.7440  -14.4560   20.3540 C   0  0  0  0  0  0  0  0  0  0  0  0
  -30.4380  -12.3360   19.1850 C   0  0  0  0  0  2  0  0  0  0  0  0
  -29.4880  -12.5960   17.9980 C   0  0  0  0  0  2  0  0  0  0  0  0
  -28.0170  -12.4740   18.4320 C   0  0  0  0  0  2  0  0  0  0  0  0
  -27.6930  -13.2820   19.7170 C   0  0  0  0  0  3  0  0  0  0  0  0
  -28.7480  -13.0020   20.8130 C   0  0  0  0  0  2  0  0  0  0  0  0
  -30.0800  -13.2810   20.2500 N   0  0  0  0  0  0  0  0  0  0  0  0
  -31.8900  -14.6380   19.9370 O   0  0  0  0  0  0  0  0  0  0  0  0
  -29.9760  -15.4650   20.7660 N   0  0  0  0  0  0  0  0  0  0  0  0
  -29.1680  -15.2050   21.3110 H   0  0  0  0  0  0  0  0  0  0  0  0
  -25.2860  -13.8880   20.4060 C   0  0  0  0  0  0  0  0  0  0  0  0
  -24.2210  -13.1150   20.7860 C   0  0  0  0  0  0  0  0  0  0  0  0
  -24.6890  -11.7650   20.7700 C   0  0  0  0  0  0  0  0  0  0  0  0
  -26.3380  -13.0110   20.1930 N   0  0  0  0  0  0  0  0  0  0  0  0
  -25.9810  -11.7300   20.4650 N   0  0  0  0  0  0  0  0  0  0  0  0
  -23.9710  -10.5000   20.9750 C   0  0  0  0  0  0  0  0  0  0  0  0
  -24.4030   -9.5490   21.9250 C   0  0  0  0  0  3  0  0  0  0  0  0
  -23.6880   -8.3480   22.1160 C   0  0  0  0  0  3  0  0  0  0  0  0
  -22.5230   -8.0880   21.3570 C   0  0  0  0  0  0  0  0  0  0  0  0
  -22.1050   -9.0280   20.3960 C   0  0  0  0  0  3  0  0  0  0  0  0
  -22.8230  -10.2220   20.2050 C   0  0  0  0  0  3  0  0  0  0  0  0
  -21.7790   -6.9370   21.4550 O   0  0  0  0  0  0  0  0  0  0  0  0
  -21.7250   -6.2120   22.6180 C   0  0  0  0  0  0  0  0  0  0  0  0
  -21.2770   -6.7820   23.8300 C   0  0  0  0  0  3  0  0  0  0  0  0
  -21.1730   -5.9830   24.9870 C   0  0  0  0  0  3  0  0  0  0  0  0
  -21.5060   -4.6160   24.9320 C   0  0  0  0  0  0  0  0  0  0  0  0
  -21.9480   -4.0460   23.7240 C   0  0  0  0  0  3  0  0  0  0  0  0
  -22.0550   -4.8430   22.5700 C   0  0  0  0  0  0  0  0  0  0  0  0
  -22.4600   -4.2840   21.4040 F   0  0  0  0  0  0  0  0  0  0  0  0
  -21.3980   -3.8460   26.0400 F   0  0  0  0  0  0  0  0  0  0  0  0
  -22.8180  -13.5840   21.0530 C   0  0  0  0  0  0  0  0  0  0  0  0
  -22.0930  -12.8940   21.9250 N   0  0  0  0  0  0  0  0  0  0  0  0
  -22.3730  -14.6010   20.5210 O   0  0  0  0  0  0  0  0  0  0  0  0
  -22.4560  -12.0690   22.3790 H   0  0  0  0  0  0  0  0  0  0  0  0
  -21.1560  -13.1980   22.1470 H   0  0  0  0  0  0  0  0  0  0  0  0
  -25.4470  -15.2570   20.2010 N   0  0  0  0  0  0  0  0  0  0  0  0
  -24.6790  -15.9170   20.2660 H   0  0  0  0  0  0  0  0  0  0  0  0
  -26.2910  -15.6720   19.8300 H   0  0  0  0  0  0  0  0  0  0  0  0
  -29.9090  -22.4960   22.2230 C   0  0  0  0  0  2  0  0  0  0  0  0
  -30.2910  -23.8890   21.6570 C   0  0  0  0  0  2  0  0  0  0  0  0
  -29.4030  -24.4810   20.5080 C   0  0  0  0  0  2  0  0  0  0  0  0
  -28.2170  -25.4710   20.7260 C   0  0  0  0  0  2  0  0  0  0  0  0
  -28.3780  -26.7530   20.1030 O   0  0  0  0  0  0  0  0  0  0  0  0
  -24.5690  -31.8930   23.2360 C   0  0  0  0  0  0  0  0  0  0  0  0
  -27.2210  -27.4950   20.1060 C   0  0  0  0  0  0  0  0  0  0  0  0
  -23.3680  -30.4960   21.5840 C   0  0  0  0  0  3  0  0  0  0  0  0
  -24.8230  -28.9820   20.1480 C   0  0  0  0  0  0  0  0  0  0  0  0
  -25.8910  -30.8700   21.3870 C   0  0  0  0  0  2  0  0  0  0  0  0
  -25.9820  -29.5060   20.7360 C   0  0  0  0  0  0  0  0  0  0  0  0
  -27.1860  -28.7670   20.7190 C   0  0  0  0  0  3  0  0  0  0  0  0
  -26.0470  -26.9940   19.4970 C   0  0  0  0  0  3  0  0  0  0  0  0
  -24.8470  -27.7210   19.5310 C   0  0  0  0  0  3  0  0  0  0  0  0
  -23.5800  -29.8320   20.1990 C   0  0  0  0  0  2  0  0  0  0  0  0
  -24.6280  -31.1000   22.1290 N   0  0  0  0  0  0  0  0  0  0  0  0
  -23.4850  -32.1610   23.7750 O   0  0  0  0  0  0  0  0  0  0  0  0
  -22.7190  -29.4670   22.5370 C   0  0  0  0  0  0  0  0  0  0  0  0
  -21.3950  -29.2850   22.4110 N   0  0  0  0  0  0  0  0  0  0  0  0
  -23.4070  -28.8350   23.3440 O   0  0  0  0  0  0  0  0  0  0  0  0
  -20.9070  -29.8440   21.7270 H   0  0  0  0  0  0  0  0  0  0  0  0
  -18.0190  -28.1000   22.9140 C   0  0  0  0  0  0  0  0  0  0  0  0
  -20.5780  -28.3440   23.1780 C   0  0  0  0  0  3  0  0  0  0  0  0
  -20.6750  -26.9190   22.5850 C   0  0  0  0  0  2  0  0  0  0  0  0
  -19.5640  -26.6110   21.5750 C   0  0  0  0  0  2  0  0  0  0  0  0
  -18.1870  -26.7560   22.2270 C   0  0  0  0  0  2  0  0  0  0  0  0
  -19.1420  -28.8540   23.3470 C   0  0  0  0  0  0  0  0  0  0  0  0
  -18.9300  -30.1130   23.9480 C   0  0  0  0  0  3  0  0  0  0  0  0
  -17.6270  -30.6160   24.1260 C   0  0  0  0  0  3  0  0  0  0  0  0
  -16.5200  -29.8580   23.7070 C   0  0  0  0  0  3  0  0  0  0  0  0
  -16.7160  -28.6040   23.1050 C   0  0  0  0  0  3  0  0  0  0  0  0
  -25.8540  -32.5210   23.8580 C   0  0  0  0  0  3  0  0  0  0  0  0
  -25.5490  -33.9200   24.1850 N   0  0  0  0  0  0  0  0  0  0  0  0
  -25.8860  -34.9680   23.4240 C   0  0  0  0  0  0  0  0  0  0  0  0
  -26.5610  -34.8590   22.3940 O   0  0  0  0  0  0  0  0  0  0  0  0
  -24.9510  -34.0780   24.9830 H   0  0  0  0  0  0  0  0  0  0  0  0
  -24.1710  -36.7650   23.0400 C   0  0  0  0  0  1  0  0  0  0  0  0
  -25.3970  -36.3570   23.8720 C   0  0  0  0  0  3  0  0  0  0  0  0
  -27.5230  -37.2330   24.7340 C   0  0  0  0  0  1  0  0  0  0  0  0
  -26.4350  -37.4060   23.7740 N   0  0  0  0  0  0  0  0  0  0  0  0
  -26.0310  -38.3280   23.9200 H   0  0  0  0  0  0  0  0  0  0  0  0
  -26.3680  -31.7460   25.1330 C   0  0  1  0  0  0  0  0  0  0  0  0
  -25.2740  -31.5070   26.1990 C   0  0  0  0  0  1  0  0  0  0  0  0
  -26.9480  -30.3680   24.7360 C   0  0  0  0  0  1  0  0  0  0  0  0
  -27.5210  -32.5360   25.7970 C   0  0  0  0  0  1  0  0  0  0  0  0
  1  6  1  0
  1  2  1  0
  1 51  1  0
  2  3  2  0
  4  5  1  0
  5  2  1  0
  7  9  2  0
  7  8  1  0
  8 11  2  0
  9 12  1  0
 11 10  1  0
 11  6  1  0
 12 21  1  0
 12 10  2  0
 13 21  1  0
 14 19  1  0
 15 16  1  0
 15 14  1  0
 17 16  1  0
 17 26  1  0
 17 18  1  0
 19 13  1  0
 19 18  1  0
 20 13  2  0
 21 22  1  0
 23 24  2  0
 24 43  1  0
 25 24  1  0
 25 28  1  0
 26 23  1  0
 26 27  1  0
 27 25  2  0
 28 29  1  0
 29 30  2  0
 31 34  1  0
 31 30  1  0
 32 31  2  0
 33 32  1  0
 33 28  2  0
 34 35  1  0
 35 36  1  0
 36 37  2  0
 38 37  1  0
 38 42  1  0
 39 38  2  0
 40 35  2  0
 40 39  1  0
 41 40  1  0
 43 44  1  0
 44 47  1  0
 44 46  1  0
 45 43  2  0
 48 49  1  0
 48 23  1  0
 50 48  1  0
 52 51  1  0
 53 54  1  0
 53 52  1  0
 55 57  1  0
 55 54  1  0
 56 67  2  0
 57 62  1  0
 58 66  1  0
 58 68  1  0
 59 65  1  0
 59 61  1  0
 60 66  1  0
 61 60  1  0
 62 61  2  0
 63 64  1  0
 63 57  2  0
 64 59  2  0
 65 58  1  0
 66 56  1  0
 68 70  2  0
 69 68  1  0
 71 69  1  0
 72 81  2  0
 72 77  1  0
 73 69  1  0
 73 77  1  0
 74 73  1  0
 75 76  1  0
 75 74  1  0
 76 72  1  0
 77 78  2  0
 78 79  1  0
 80 79  2  0
 81 80  1  0
 82 56  1  0
 82 83  1  0
 82 92  1  0
 83 86  1  0
 84 88  1  0
 84 83  1  0
 85 84  2  0
 88 87  1  0
 90 88  1  0
 90 91  1  0
 90 89  1  0
 92 95  1  1
 92 93  1  0
 94 92  1  0
M  ISO  4  13 100  21 100  54 101  55 101
M  END
>  <TORSDO>  (34) 
F 24

>  <SCORE>  (34) 
-12.761

>  <name>  (34) 
33

>  <ligand_id>  (34) 
33

>  <original_smiles>  (34) 
[H]c1c([H])c([H])c2c(c1[H])C([H])([H])C([H])([H])C([H])([H])C2([H])N([H])C(=O)C1([H])N(C(=O)C([H])(N([H])C(=O)C([H])(N([H])C([H])([H])[H])C([H])([H])[H])C(C([H])([H])[H])(C([H])([H])[H])C([H])([H])[H])C([H])([H])c2c([H])c(OC([H])([H])C([H])([H])C([H])([H])C([H])([H])C([H])(C(=O)C([H])([H])C([H])([H])[H])C([H])([H])c3c([H])c([H])c([H])c(N([H])C(=O)N4C([H])([H])C([H])([H])C([H])([H])C([H])(n5nc(-c6c([H])c([H])c(Oc7c([H])c([H])c(F)c([H])c7F)c([H])c6[H])c(C(=O)N([H])[H])c5N([H])[H])C4([H])[H])c3[H])c([H])c([H])c2C1([H])[H]

>  <smiles>  (34) 
[H]c1c([H])c([H])c2c(c1[H])C([H])([H])C([H])([H])C([H])([H])C2([H])N([H])C(=O)C1([H])N(C(=O)C([H])(N([H])C(=O)C([H])(N([H])C([H])([H])[H])C([H])([H])[H])C(C([H])([H])[H])(C([H])([H])[H])C([H])([H])[H])C([H])([H])c2c([H])c(OC([H])([H])C([H])([H])C([H])([H])C([H])([H])C([H])(C(=O)C([H])([H])C([H])([H])[H])C([H])([H])c3c([H])c([H])c([H])c(N([H])C(=O)N4C([H])([H])C([H])([H])C([H])([H])C([H])(n5nc(-c6c([H])c([H])c(Oc7c([H])c([H])c(F)c([H])c7F)c([H])c6[H])c(C(=O)N([H])[H])c5N([H])[H])C4([H])[H])c3[H])c([H])c([H])c2C1([H])[H]

$$$$
34:0:0
     RDKit          3D

100108  0  0  1  0  0  0  0  0999 V2000
  -26.7550  -23.2170   19.4790 C   0  0  0  0  0  2  0  0  0  0  0  0
  -24.4710  -23.4450   20.0930 C   0  0  0  0  0  2  0  0  0  0  0  0
  -25.9830  -22.3040   18.5090 C   0  0  0  0  0  3  0  0  0  0  0  0
  -25.8750  -23.4240   20.7090 C   0  0  0  0  0  3  0  0  0  0  0  0
  -24.5060  -22.3520   19.0040 C   0  0  0  0  0  3  0  0  0  0  0  0
  -23.5300  -22.6080   17.9220 N   0  0  0  0  0  4  0  0  0  0  0  0
  -23.7450  -23.4460   17.4140 H   0  0  0  0  0  0  0  0  0  0  0  0
  -22.6020  -22.7040   18.2950 H   0  0  0  0  0  0  0  0  0  0  0  0
  -23.5070  -21.8440   17.2680 H   0  0  0  0  0  0  0  0  0  0  0  0
  -26.6120  -20.8970   18.3770 C   0  0  0  0  0  0  0  0  0  0  0  0
  -25.9250  -19.8830   18.5300 O   0  0  0  0  0  0  0  0  0  0  0  0
  -28.2990  -21.1770   16.4870 C   0  0  0  0  0  1  0  0  0  0  0  0
  -28.1080  -20.7980   17.9680 C   0  0  0  0  0  3  0  0  0  0  0  0
  -28.7360  -19.4110   18.2270 C   0  0  0  0  0  2  0  0  0  0  0  0
  -29.2600  -19.1590   19.6560 C   0  0  0  0  0  2  0  0  0  0  0  0
  -29.5300  -17.6650   19.8660 C   0  0  0  0  0  2  0  0  0  0  0  0
  -30.1300  -17.2840   21.2330 C   0  0  0  0  0  2  0  0  0  0  0  0
  -30.6430  -14.9140   20.7410 C   0  0  0  0  0  0  0  0  0  0  0  0
  -30.4330  -12.7740   19.5500 C   0  0  0  0  0  2  0  0  0  0  0  0
  -29.5230  -12.9490   18.3180 C   0  0  0  0  0  2  0  0  0  0  0  0
  -28.0390  -12.7680   18.6850 C   0  0  0  0  0  2  0  0  0  0  0  0
  -27.6320  -13.5750   19.9460 C   0  0  0  0  0  3  0  0  0  0  0  0
  -28.6550  -13.3850   21.0910 C   0  0  0  0  0  2  0  0  0  0  0  0
  -30.0000  -13.7260   20.5850 N   0  0  0  0  0  0  0  0  0  0  0  0
  -31.7110  -15.1860   20.1920 O   0  0  0  0  0  0  0  0  0  0  0  0
  -29.9690  -15.8420   21.4290 N   0  0  0  0  0  0  0  0  0  0  0  0
  -29.1350  -15.5360   21.9100 H   0  0  0  0  0  0  0  0  0  0  0  0
  -25.1890  -14.0840   20.5840 C   0  0  0  0  0  0  0  0  0  0  0  0
  -24.1360  -13.2720   20.9060 C   0  0  0  0  0  0  0  0  0  0  0  0
  -24.6460  -11.9370   20.8760 C   0  0  0  0  0  0  0  0  0  0  0  0
  -26.2730  -13.2440   20.3750 N   0  0  0  0  0  0  0  0  0  0  0  0
  -25.9460  -11.9460   20.6010 N   0  0  0  0  0  0  0  0  0  0  0  0
  -23.9610  -10.6460   21.0310 C   0  0  0  0  0  0  0  0  0  0  0  0
  -24.4020   -9.6900   21.9740 C   0  0  0  0  0  3  0  0  0  0  0  0
  -23.7210   -8.4630   22.1160 C   0  0  0  0  0  3  0  0  0  0  0  0
  -22.5860   -8.1840   21.3190 C   0  0  0  0  0  0  0  0  0  0  0  0
  -22.1690   -9.1290   20.3670 C   0  0  0  0  0  3  0  0  0  0  0  0
  -22.8490  -10.3490   20.2220 C   0  0  0  0  0  3  0  0  0  0  0  0
  -21.8750   -7.0090   21.3710 O   0  0  0  0  0  0  0  0  0  0  0  0
  -21.8050   -6.2590   22.5170 C   0  0  0  0  0  0  0  0  0  0  0  0
  -21.2990   -6.7860   23.7250 C   0  0  0  0  0  3  0  0  0  0  0  0
  -21.1800   -5.9600   24.8600 C   0  0  0  0  0  3  0  0  0  0  0  0
  -21.5600   -4.6070   24.7890 C   0  0  0  0  0  0  0  0  0  0  0  0
  -22.0580   -4.0770   23.5850 C   0  0  0  0  0  3  0  0  0  0  0  0
  -22.1790   -4.9020   22.4530 C   0  0  0  0  0  0  0  0  0  0  0  0
  -22.6410   -4.3810   21.2900 F   0  0  0  0  0  0  0  0  0  0  0  0
  -21.4400   -3.8090   25.8760 F   0  0  0  0  0  0  0  0  0  0  0  0
  -22.7120  -13.6970   21.1390 C   0  0  0  0  0  0  0  0  0  0  0  0
  -21.9850  -12.9710   21.9840 N   0  0  0  0  0  0  0  0  0  0  0  0
  -22.2510  -14.7040   20.6090 O   0  0  0  0  0  0  0  0  0  0  0  0
  -22.3720  -12.1670   22.4540 H   0  0  0  0  0  0  0  0  0  0  0  0
  -21.0270  -13.2300   22.1690 H   0  0  0  0  0  0  0  0  0  0  0  0
  -25.3120  -15.4630   20.4330 N   0  0  0  0  0  0  0  0  0  0  0  0
  -24.5350  -16.1020   20.5350 H   0  0  0  0  0  0  0  0  0  0  0  0
  -26.1690  -15.9330   20.1670 H   0  0  0  0  0  0  0  0  0  0  0  0
  -26.2290  -24.6770   21.5440 C   0  0  0  0  0  2  0  0  0  0  0  0
  -28.4300  -23.7620   22.5020 C   0  0  0  0  0  1  0  0  0  0  0  0
  -27.7420  -24.9550   21.8090 C   0  0  0  0  0  3  0  0  0  0  0  0
  -28.5660  -25.4770   20.5900 C   0  0  0  0  0  2  0  0  0  0  0  0
  -28.6290  -26.9010   20.5180 O   0  0  0  0  0  0  0  0  0  0  0  0
  -24.5460  -31.9060   23.3790 C   0  0  0  0  0  0  0  0  0  0  0  0
  -27.4360  -27.5750   20.4170 C   0  0  0  0  0  0  0  0  0  0  0  0
  -23.4460  -30.4970   21.6620 C   0  0  0  0  0  3  0  0  0  0  0  0
  -25.0030  -29.0030   20.3040 C   0  0  0  0  0  0  0  0  0  0  0  0
  -25.9640  -30.9170   21.5960 C   0  0  0  0  0  2  0  0  0  0  0  0
  -26.1130  -29.5560   20.9550 C   0  0  0  0  0  0  0  0  0  0  0  0
  -27.3290  -28.8480   21.0160 C   0  0  0  0  0  3  0  0  0  0  0  0
  -26.3210  -27.0440   19.7290 C   0  0  0  0  0  3  0  0  0  0  0  0
  -25.1040  -27.7460   19.6840 C   0  0  0  0  0  3  0  0  0  0  0  0
  -23.7330  -29.8200   20.2940 C   0  0  0  0  0  2  0  0  0  0  0  0
  -24.6660  -31.1240   22.2700 N   0  0  0  0  0  0  0  0  0  0  0  0
  -23.4360  -32.1530   23.8710 O   0  0  0  0  0  0  0  0  0  0  0  0
  -22.7730  -29.4590   22.5850 C   0  0  0  0  0  0  0  0  0  0  0  0
  -21.4540  -29.2720   22.4020 N   0  0  0  0  0  0  0  0  0  0  0  0
  -23.4310  -28.8260   23.4150 O   0  0  0  0  0  0  0  0  0  0  0  0
  -20.9810  -29.8290   21.7040 H   0  0  0  0  0  0  0  0  0  0  0  0
  -18.0630  -28.1280   22.8350 C   0  0  0  0  0  0  0  0  0  0  0  0
  -20.6210  -28.3210   23.1350 C   0  0  0  0  0  3  0  0  0  0  0  0
  -20.7020  -26.9130   22.5000 C   0  0  0  0  0  2  0  0  0  0  0  0
  -19.6010  -26.6570   21.4650 C   0  0  0  0  0  2  0  0  0  0  0  0
  -18.2170  -26.8050   22.1050 C   0  0  0  0  0  2  0  0  0  0  0  0
  -19.1920  -28.8480   23.3060 C   0  0  0  0  0  0  0  0  0  0  0  0
  -18.9940  -30.0920   23.9430 C   0  0  0  0  0  3  0  0  0  0  0  0
  -17.6970  -30.6150   24.1180 C   0  0  0  0  0  3  0  0  0  0  0  0
  -16.5820  -29.8900   23.6620 C   0  0  0  0  0  3  0  0  0  0  0  0
  -16.7640  -28.6490   23.0260 C   0  0  0  0  0  3  0  0  0  0  0  0
  -25.7920  -32.5500   24.0660 C   0  0  0  0  0  3  0  0  0  0  0  0
  -26.2080  -31.8240   25.4050 C   0  0  1  0  0  0  0  0  0  0  0  0
  -25.0320  -31.6370   26.3910 C   0  0  0  0  0  1  0  0  0  0  0  0
  -26.8090  -30.4300   25.1100 C   0  0  0  0  0  1  0  0  0  0  0  0
  -27.3070  -32.6420   26.1250 C   0  0  0  0  0  1  0  0  0  0  0  0
  -25.4790  -33.9620   24.3120 N   0  0  0  0  0  0  0  0  0  0  0  0
  -25.8760  -34.9770   23.5290 C   0  0  0  0  0  0  0  0  0  0  0  0
  -26.6130  -34.8210   22.5540 O   0  0  0  0  0  0  0  0  0  0  0  0
  -24.8200  -34.1570   25.0520 H   0  0  0  0  0  0  0  0  0  0  0  0
  -24.1820  -36.7550   22.9950 C   0  0  0  0  0  1  0  0  0  0  0  0
  -25.3740  -36.3860   23.8930 C   0  0  0  0  0  3  0  0  0  0  0  0
  -27.4630  -37.3040   24.8000 C   0  0  0  0  0  1  0  0  0  0  0  0
  -26.4160  -37.4300   23.7870 N   0  0  0  0  0  0  0  0  0  0  0  0
  -26.0080  -38.3570   23.8690 H   0  0  0  0  0  0  0  0  0  0  0  0
  1  4  1  0
  2  4  1  0
  3 10  1  0
  3  5  1  0
  3  1  1  0
  4 56  1  0
  5  6  1  0
  5  2  1  0
  6  8  1  0
  7  6  1  0
  9  6  1  0
 10 11  2  0
 13 12  1  0
 13 14  1  0
 13 10  1  0
 14 15  1  0
 15 16  1  0
 16 17  1  0
 17 26  1  0
 18 26  1  0
 19 24  1  0
 20 21  1  0
 20 19  1  0
 22 21  1  0
 22 31  1  0
 22 23  1  0
 24 18  1  0
 24 23  1  0
 25 18  2  0
 26 27  1  0
 28 29  2  0
 29 48  1  0
 30 29  1  0
 30 33  1  0
 31 28  1  0
 31 32  1  0
 32 30  2  0
 33 34  1  0
 34 35  2  0
 36 39  1  0
 36 35  1  0
 37 36  2  0
 38 37  1  0
 38 33  2  0
 39 40  1  0
 40 41  1  0
 41 42  2  0
 43 42  1  0
 43 47  1  0
 44 43  2  0
 45 40  2  0
 45 44  1  0
 46 45  1  0
 48 49  1  0
 49 52  1  0
 49 51  1  0
 50 48  2  0
 53 54  1  0
 53 28  1  0
 55 53  1  0
 56 58  1  0
 58 57  1  0
 59 58  1  0
 60 59  1  0
 61 72  2  0
 62 60  1  0
 62 67  1  0
 63 71  1  0
 63 73  1  0
 64 66  1  0
 65 71  1  0
 66 67  2  0
 66 65  1  0
 68 62  2  0
 69 68  1  0
 69 64  2  0
 70 64  1  0
 70 63  1  0
 71 61  1  0
 73 75  2  0
 74 73  1  0
 76 74  1  0
 77 86  2  0
 77 82  1  0
 78 74  1  0
 78 82  1  0
 79 78  1  0
 80 81  1  0
 80 79  1  0
 81 77  1  0
 82 83  2  0
 83 84  1  0
 85 84  2  0
 86 85  1  0
 87 61  1  0
 87 92  1  0
 87 88  1  0
 88 91  1  1
 88 89  1  0
 90 88  1  0
 92 95  1  0
 93 97  1  0
 93 92  1  0
 94 93  2  0
 97 96  1  0
 99100  1  0
 99 97  1  0
 99 98  1  0
M  ISO  4  18 100  26 100  59 101  60 101
M  END
>  <TORSDO>  (35) 
F 26

>  <SCORE>  (35) 
-11.822

>  <name>  (35) 
34

>  <ligand_id>  (35) 
34

>  <original_smiles>  (35) 
[H]c1c([H])c([H])c2c(c1[H])C([H])([H])C([H])([H])C([H])([H])C2([H])N([H])C(=O)C1([H])N(C(=O)C([H])(N([H])C(=O)C([H])(N([H])C([H])([H])[H])C([H])([H])[H])C(C([H])([H])[H])(C([H])([H])[H])C([H])([H])[H])C([H])([H])c2c([H])c(OC([H])([H])C([H])(C([H])([H])[H])C([H])([H])C3([H])C([H])([H])C([H])(C(=O)C([H])(C([H])([H])[H])C([H])([H])C([H])([H])C([H])([H])C([H])([H])N([H])C(=O)N4C([H])([H])C([H])([H])C([H])([H])C([H])(n5nc(-c6c([H])c([H])c(Oc7c([H])c([H])c(F)c([H])c7F)c([H])c6[H])c(C(=O)N([H])[H])c5N([H])[H])C4([H])[H])C([H])([N+]([H])([H])[H])C3([H])[H])c([H])c([H])c2C1([H])[H]

>  <smiles>  (35) 
[H]c1c([H])c([H])c2c(c1[H])C([H])([H])C([H])([H])C([H])([H])C2([H])N([H])C(=O)C1([H])N(C(=O)C([H])(N([H])C(=O)C([H])(N([H])C([H])([H])[H])C([H])([H])[H])C(C([H])([H])[H])(C([H])([H])[H])C([H])([H])[H])C([H])([H])c2c([H])c(OC([H])([H])C([H])(C([H])([H])[H])C([H])([H])C3([H])C([H])([H])C([H])(C(=O)C([H])(C([H])([H])[H])C([H])([H])C([H])([H])C([H])([H])C([H])([H])N([H])C(=O)N4C([H])([H])C([H])([H])C([H])([H])C([H])(n5nc(-c6c([H])c([H])c(Oc7c([H])c([H])c(F)c([H])c7F)c([H])c6[H])c(C(=O)N([H])[H])c5N([H])[H])C4([H])[H])C([H])([N+]([H])([H])[H])C3([H])[H])c([H])c([H])c2C1([H])[H]

$$$$
35:0:0
     RDKit          3D

 97105  0  0  1  0  0  0  0  0999 V2000
  -30.1820  -21.5600   18.5820 C   0  0  0  0  0  2  0  0  0  0  0  0
  -29.0290  -21.8880   16.3430 C   0  0  0  0  0  1  0  0  0  0  0  0
  -28.8260  -21.5370   17.8270 C   0  0  0  0  0  3  0  0  0  0  0  0
  -27.6290  -22.3250   18.4440 C   0  0  0  0  0  2  0  0  0  0  0  0
  -27.8580  -23.2760   19.6350 C   0  0  0  0  0  2  0  0  0  0  0  0
  -28.3910  -24.6700   19.2670 C   0  0  0  0  0  3  0  0  0  0  0  0
  -29.6150  -24.5910   18.7510 F   0  0  0  0  0  0  0  0  0  0  0  0
  -28.4320  -25.6040   20.4890 C   0  0  0  0  0  2  0  0  0  0  0  0
  -28.4120  -26.9750   20.1150 O   0  0  0  0  0  0  0  0  0  0  0  0
  -24.5120  -31.9800   23.2700 C   0  0  0  0  0  0  0  0  0  0  0  0
  -27.1950  -27.6150   20.1550 C   0  0  0  0  0  0  0  0  0  0  0  0
  -23.3090  -30.5830   21.6170 C   0  0  0  0  0  3  0  0  0  0  0  0
  -24.7710  -29.0610   20.1920 C   0  0  0  0  0  0  0  0  0  0  0  0
  -25.8290  -30.9710   21.4140 C   0  0  0  0  0  2  0  0  0  0  0  0
  -25.9230  -29.6070   20.7670 C   0  0  0  0  0  0  0  0  0  0  0  0
  -27.1380  -28.8970   20.7360 C   0  0  0  0  0  3  0  0  0  0  0  0
  -26.0180  -27.0550   19.6060 C   0  0  0  0  0  3  0  0  0  0  0  0
  -24.8110  -27.7790   19.6120 C   0  0  0  0  0  3  0  0  0  0  0  0
  -23.5210  -29.9090   20.2360 C   0  0  0  0  0  2  0  0  0  0  0  0
  -24.5670  -31.1920   22.1590 N   0  0  0  0  0  0  0  0  0  0  0  0
  -23.4300  -32.2420   23.8130 O   0  0  0  0  0  0  0  0  0  0  0  0
  -22.6630  -29.5550   22.5720 C   0  0  0  0  0  0  0  0  0  0  0  0
  -21.3430  -29.3570   22.4300 N   0  0  0  0  0  0  0  0  0  0  0  0
  -23.3470  -28.9360   23.3900 O   0  0  0  0  0  0  0  0  0  0  0  0
  -20.8510  -29.9080   21.7400 H   0  0  0  0  0  0  0  0  0  0  0  0
  -17.9770  -28.1190   22.8860 C   0  0  0  0  0  0  0  0  0  0  0  0
  -20.5290  -28.4090   23.1920 C   0  0  0  0  0  3  0  0  0  0  0  0
  -20.6550  -26.9790   22.6170 C   0  0  0  0  0  2  0  0  0  0  0  0
  -19.5700  -26.6430   21.5880 C   0  0  0  0  0  2  0  0  0  0  0  0
  -18.1790  -26.7720   22.2140 C   0  0  0  0  0  2  0  0  0  0  0  0
  -19.0810  -28.8950   23.3310 C   0  0  0  0  0  0  0  0  0  0  0  0
  -18.8410  -30.1570   23.9170 C   0  0  0  0  0  3  0  0  0  0  0  0
  -17.5280  -30.6440   24.0640 C   0  0  0  0  0  3  0  0  0  0  0  0
  -16.4380  -29.8660   23.6360 C   0  0  0  0  0  3  0  0  0  0  0  0
  -16.6650  -28.6060   23.0550 C   0  0  0  0  0  3  0  0  0  0  0  0
  -25.7970  -32.6100   23.8920 C   0  0  0  0  0  3  0  0  0  0  0  0
  -25.4920  -34.0070   24.2190 N   0  0  0  0  0  0  0  0  0  0  0  0
  -25.8390  -35.0590   23.4630 C   0  0  0  0  0  0  0  0  0  0  0  0
  -26.5230  -34.9520   22.4420 O   0  0  0  0  0  0  0  0  0  0  0  0
  -24.8890  -34.1640   25.0120 H   0  0  0  0  0  0  0  0  0  0  0  0
  -24.1300  -36.8600   23.0750 C   0  0  0  0  0  1  0  0  0  0  0  0
  -25.3500  -36.4480   23.9140 C   0  0  0  0  0  3  0  0  0  0  0  0
  -27.4720  -37.3160   24.7930 C   0  0  0  0  0  1  0  0  0  0  0  0
  -26.3910  -37.4950   23.8270 N   0  0  0  0  0  0  0  0  0  0  0  0
  -25.9880  -38.4170   23.9710 H   0  0  0  0  0  0  0  0  0  0  0  0
  -26.3120  -31.8370   25.1670 C   0  0  1  0  0  0  0  0  0  0  0  0
  -25.2180  -31.5960   26.2330 C   0  0  0  0  0  1  0  0  0  0  0  0
  -26.8980  -30.4610   24.7730 C   0  0  0  0  0  1  0  0  0  0  0  0
  -27.4590  -32.6330   25.8340 C   0  0  0  0  0  1  0  0  0  0  0  0
  -31.0440  -20.2860   18.3460 C   0  0  0  0  0  2  0  0  0  0  0  0
  -30.0320  -17.7410   20.8880 C   0  0  0  0  0  2  0  0  0  0  0  0
  -30.0860  -19.1900   20.3800 C   0  0  0  0  0  2  0  0  0  0  0  0
  -32.2180  -18.3520   19.3750 C   0  0  0  0  0  2  0  0  0  0  0  0
  -31.3450  -17.3530   21.5950 C   0  0  0  0  0  3  0  0  0  0  0  0
  -32.5870  -17.6480   20.7070 C   0  0  0  0  0  3  0  0  0  0  0  0
  -33.6640  -18.4130   21.5000 C   0  0  0  0  0  1  0  0  0  0  0  0
  -31.3110  -19.5130   19.5900 N   0  0  1  0  0  4  0  0  0  0  0  0
  -31.8460  -20.1400   20.1730 H   0  0  0  0  0  0  0  0  0  0  0  0
  -31.3400  -15.9280   22.2080 C   0  0  0  0  0  2  0  0  0  0  0  0
  -30.8130  -14.3470   20.3230 C   0  0  0  0  0  0  0  0  0  0  0  0
  -30.3480  -12.3680   18.9330 C   0  0  0  0  0  2  0  0  0  0  0  0
  -29.3580  -12.6570   17.7920 C   0  0  0  0  0  2  0  0  0  0  0  0
  -27.9070  -12.5000   18.2790 C   0  0  0  0  0  2  0  0  0  0  0  0
  -27.6350  -13.2850   19.5900 C   0  0  0  0  0  3  0  0  0  0  0  0
  -28.7210  -12.9760   20.6430 C   0  0  0  0  0  2  0  0  0  0  0  0
  -30.0440  -13.2660   20.0550 N   0  0  0  0  0  0  0  0  0  0  0  0
  -31.7580  -14.7020   19.6120 O   0  0  0  0  0  0  0  0  0  0  0  0
  -30.5400  -14.9340   21.4910 N   0  0  0  0  0  0  0  0  0  0  0  0
  -29.7590  -14.5410   21.9950 H   0  0  0  0  0  0  0  0  0  0  0  0
  -25.2510  -13.8900   20.3580 C   0  0  0  0  0  0  0  0  0  0  0  0
  -24.1950  -13.1150   20.7640 C   0  0  0  0  0  0  0  0  0  0  0  0
  -24.6600  -11.7650   20.7250 C   0  0  0  0  0  0  0  0  0  0  0  0
  -26.2930  -13.0110   20.1040 N   0  0  0  0  0  0  0  0  0  0  0  0
  -25.9410  -11.7290   20.3780 N   0  0  0  0  0  0  0  0  0  0  0  0
  -23.9430  -10.5030   20.9430 C   0  0  0  0  0  0  0  0  0  0  0  0
  -24.3800   -9.5620   21.9010 C   0  0  0  0  0  3  0  0  0  0  0  0
  -23.6660   -8.3630   22.1030 C   0  0  0  0  0  3  0  0  0  0  0  0
  -22.5000   -8.0950   21.3480 C   0  0  0  0  0  0  0  0  0  0  0  0
  -22.0820   -9.0250   20.3810 C   0  0  0  0  0  3  0  0  0  0  0  0
  -22.7960  -10.2170   20.1760 C   0  0  0  0  0  3  0  0  0  0  0  0
  -21.7550   -6.9460   21.4580 O   0  0  0  0  0  0  0  0  0  0  0  0
  -21.6820   -6.2470   22.6360 C   0  0  0  0  0  0  0  0  0  0  0  0
  -21.2120   -6.8420   23.8270 C   0  0  0  0  0  3  0  0  0  0  0  0
  -21.0840   -6.0680   24.9970 C   0  0  0  0  0  3  0  0  0  0  0  0
  -21.4170   -4.7010   24.9800 C   0  0  0  0  0  0  0  0  0  0  0  0
  -21.8830   -4.1060   23.7940 C   0  0  0  0  0  3  0  0  0  0  0  0
  -22.0110   -4.8770   22.6250 C   0  0  0  0  0  0  0  0  0  0  0  0
  -22.4380   -4.2920   21.4810 F   0  0  0  0  0  0  0  0  0  0  0  0
  -21.2890   -3.9560   26.1050 F   0  0  0  0  0  0  0  0  0  0  0  0
  -22.8060  -13.5930   21.0770 C   0  0  0  0  0  0  0  0  0  0  0  0
  -22.1030  -12.8990   21.9670 N   0  0  0  0  0  0  0  0  0  0  0  0
  -22.3510  -14.6160   20.5670 O   0  0  0  0  0  0  0  0  0  0  0  0
  -22.4860  -12.0740   22.4040 H   0  0  0  0  0  0  0  0  0  0  0  0
  -21.1710  -13.1980   22.2150 H   0  0  0  0  0  0  0  0  0  0  0  0
  -25.4020  -15.2610   20.1710 N   0  0  0  0  0  0  0  0  0  0  0  0
  -24.6300  -15.9070   20.2920 H   0  0  0  0  0  0  0  0  0  0  0  0
  -26.2390  -15.7070   19.8180 H   0  0  0  0  0  0  0  0  0  0  0  0
  3  2  1  0
  3  4  1  0
  3  1  1  0
  4  5  1  0
  6  7  1  0
  6  5  1  0
  6  8  1  0
  9 11  1  0
  9  8  1  0
 10 21  2  0
 11 16  1  0
 12 20  1  0
 12 22  1  0
 13 19  1  0
 13 15  1  0
 14 20  1  0
 15 14  1  0
 16 15  2  0
 17 18  1  0
 17 11  2  0
 18 13  2  0
 19 12  1  0
 20 10  1  0
 22 24  2  0
 23 22  1  0
 25 23  1  0
 26 35  2  0
 26 31  1  0
 27 23  1  0
 27 31  1  0
 28 27  1  0
 29 30  1  0
 29 28  1  0
 30 26  1  0
 31 32  2  0
 32 33  1  0
 34 33  2  0
 35 34  1  0
 36 10  1  0
 36 37  1  0
 36 46  1  0
 37 40  1  0
 38 42  1  0
 38 37  1  0
 39 38  2  0
 42 41  1  0
 44 42  1  0
 44 45  1  0
 44 43  1  0
 46 49  1  1
 46 47  1  0
 48 46  1  0
 50  1  1  0
 50 57  1  0
 51 54  1  0
 52 51  1  0
 53 57  1  0
 53 55  1  0
 54 59  1  0
 55 56  1  0
 55 54  1  0
 57 58  1  1
 57 52  1  0
 60 68  1  0
 61 66  1  0
 62 63  1  0
 62 61  1  0
 64 63  1  0
 64 73  1  0
 64 65  1  0
 66 60  1  0
 66 65  1  0
 67 60  2  0
 68 69  1  0
 68 59  1  0
 70 71  2  0
 71 90  1  0
 72 71  1  0
 72 75  1  0
 73 70  1  0
 73 74  1  0
 74 72  2  0
 75 76  1  0
 76 77  2  0
 78 81  1  0
 78 77  1  0
 79 78  2  0
 80 79  1  0
 80 75  2  0
 81 82  1  0
 82 83  1  0
 83 84  2  0
 85 84  1  0
 85 89  1  0
 86 85  2  0
 87 82  2  0
 87 86  1  0
 88 87  1  0
 90 91  1  0
 91 94  1  0
 91 93  1  0
 92 90  2  0
 95 96  1  0
 95 70  1  0
 97 95  1  0
M  ISO  4   8 101   9 101  60 100  68 100
M  END
>  <TORSDO>  (36) 
F 24

>  <SCORE>  (36) 
-10.989

>  <name>  (36) 
35

>  <ligand_id>  (36) 
35

>  <original_smiles>  (36) 
[H]c1c([H])c([H])c2c(c1[H])C([H])([H])C([H])([H])C([H])([H])C2([H])N([H])C(=O)C1([H])N(C(=O)C([H])(N([H])C(=O)C([H])(N([H])C([H])([H])[H])C([H])([H])[H])C(C([H])([H])[H])(C([H])([H])[H])C([H])([H])[H])C([H])([H])c2c([H])c(OC([H])([H])C([H])(F)C([H])([H])C([H])([H])C([H])(C([H])([H])[H])C([H])([H])C([H])([H])[N+]3([H])C([H])([H])C([H])([H])C([H])(C([H])([H])N([H])C(=O)N4C([H])([H])C([H])([H])C([H])([H])C([H])(n5nc(-c6c([H])c([H])c(Oc7c([H])c([H])c(F)c([H])c7F)c([H])c6[H])c(C(=O)N([H])[H])c5N([H])[H])C4([H])[H])C([H])(C([H])([H])[H])C3([H])[H])c([H])c([H])c2C1([H])[H]

>  <smiles>  (36) 
[H]c1c([H])c([H])c2c(c1[H])C([H])([H])C([H])([H])C([H])([H])C2([H])N([H])C(=O)C1([H])N(C(=O)C([H])(N([H])C(=O)C([H])(N([H])C([H])([H])[H])C([H])([H])[H])C(C([H])([H])[H])(C([H])([H])[H])C([H])([H])[H])C([H])([H])c2c([H])c(OC([H])([H])C([H])(F)C([H])([H])C([H])([H])C([H])(C([H])([H])[H])C([H])([H])C([H])([H])[N+]3([H])C([H])([H])C([H])([H])C([H])(C([H])([H])N([H])C(=O)N4C([H])([H])C([H])([H])C([H])([H])C([H])(n5nc(-c6c([H])c([H])c(Oc7c([H])c([H])c(F)c([H])c7F)c([H])c6[H])c(C(=O)N([H])[H])c5N([H])[H])C4([H])[H])C([H])(C([H])([H])[H])C3([H])[H])c([H])c([H])c2C1([H])[H]

$$$$
36:0:0
     RDKit          3D

 95102  0  0  1  0  0  0  0  0999 V2000
  -29.0260  -21.7380   19.9320 C   0  0  0  0  0  2  0  0  0  0  0  0
  -29.8680  -20.4540   20.2540 C   0  0  0  0  0  2  0  0  0  0  0  0
  -29.3080  -19.2160   19.4790 C   0  0  0  0  0  2  0  0  0  0  0  0
  -30.2090  -17.9770   19.1210 C   0  0  0  0  0  3  0  0  0  0  0  0
  -30.8880  -14.6270   20.4770 C   0  0  0  0  0  0  0  0  0  0  0  0
  -30.5560  -12.4040   19.4590 C   0  0  0  0  0  2  0  0  0  0  0  0
  -29.6570  -12.5740   18.2190 C   0  0  0  0  0  2  0  0  0  0  0  0
  -28.1760  -12.4650   18.6180 C   0  0  0  0  0  2  0  0  0  0  0  0
  -27.8000  -13.3450   19.8360 C   0  0  0  0  0  3  0  0  0  0  0  0
  -28.8410  -13.2270   20.9750 C   0  0  0  0  0  2  0  0  0  0  0  0
  -30.1740  -13.4690   20.4030 N   0  0  0  0  0  0  0  0  0  0  0  0
  -32.1050  -14.6550   20.2830 O   0  0  0  0  0  0  0  0  0  0  0  0
  -30.6610  -17.0230   20.2660 C   0  0  0  0  0  0  0  0  0  0  0  0
  -30.1520  -15.7610   20.3680 N   0  0  0  0  0  0  0  0  0  0  0  0
  -31.5720  -17.4200   21.0000 O   0  0  0  0  0  0  0  0  0  0  0  0
  -29.1790  -15.6030   20.1740 H   0  0  0  0  0  0  0  0  0  0  0  0
  -25.3730  -13.9200   20.4630 C   0  0  0  0  0  0  0  0  0  0  0  0
  -24.3100  -13.1350   20.8070 C   0  0  0  0  0  0  0  0  0  0  0  0
  -24.7930  -11.7910   20.8260 C   0  0  0  0  0  0  0  0  0  0  0  0
  -26.4420  -13.0550   20.2920 N   0  0  0  0  0  0  0  0  0  0  0  0
  -26.0930  -11.7720   20.5690 N   0  0  0  0  0  0  0  0  0  0  0  0
  -24.0800  -10.5200   21.0080 C   0  0  0  0  0  0  0  0  0  0  0  0
  -24.4850   -9.5790   21.9830 C   0  0  0  0  0  3  0  0  0  0  0  0
  -23.7680   -8.3760   22.1550 C   0  0  0  0  0  3  0  0  0  0  0  0
  -22.6360   -8.1000   21.3530 C   0  0  0  0  0  0  0  0  0  0  0  0
  -22.2490   -9.0290   20.3690 C   0  0  0  0  0  3  0  0  0  0  0  0
  -22.9650  -10.2250   20.1930 C   0  0  0  0  0  3  0  0  0  0  0  0
  -21.9010   -6.9410   21.4280 O   0  0  0  0  0  0  0  0  0  0  0  0
  -21.8080   -6.2270   22.5940 C   0  0  0  0  0  0  0  0  0  0  0  0
  -21.2930   -6.8010   23.7770 C   0  0  0  0  0  3  0  0  0  0  0  0
  -21.1530   -6.0160   24.9380 C   0  0  0  0  0  3  0  0  0  0  0  0
  -21.5140   -4.6540   24.9170 C   0  0  0  0  0  0  0  0  0  0  0  0
  -22.0170   -4.0780   23.7360 C   0  0  0  0  0  3  0  0  0  0  0  0
  -22.1610   -4.8630   22.5780 C   0  0  0  0  0  0  0  0  0  0  0  0
  -22.6330   -4.3020   21.4390 F   0  0  0  0  0  0  0  0  0  0  0  0
  -21.3670   -3.8920   26.0270 F   0  0  0  0  0  0  0  0  0  0  0  0
  -22.8940  -13.5920   21.0170 C   0  0  0  0  0  0  0  0  0  0  0  0
  -22.1490  -12.9060   21.8740 N   0  0  0  0  0  0  0  0  0  0  0  0
  -22.4630  -14.6030   20.4610 O   0  0  0  0  0  0  0  0  0  0  0  0
  -22.4890  -12.0700   22.3220 H   0  0  0  0  0  0  0  0  0  0  0  0
  -21.2090  -13.2160   22.0770 H   0  0  0  0  0  0  0  0  0  0  0  0
  -25.5140  -15.2900   20.2640 N   0  0  0  0  0  0  0  0  0  0  0  0
  -24.7180  -15.9150   20.3320 H   0  0  0  0  0  0  0  0  0  0  0  0
  -26.3710  -15.7670   20.0370 H   0  0  0  0  0  0  0  0  0  0  0  0
  -29.6270  -17.2040   17.9910 N   0  0  0  0  0  4  0  0  0  0  0  0
  -28.7890  -16.7330   18.2580 H   0  0  0  0  0  0  0  0  0  0  0  0
  -30.2790  -16.5310   17.6280 H   0  0  0  0  0  0  0  0  0  0  0  0
  -29.3870  -17.8230   17.2400 H   0  0  0  0  0  0  0  0  0  0  0  0
  -29.2090  -23.0280   20.8180 C   0  0  0  0  0  3  0  0  0  0  0  0
  -28.9210  -24.3560   20.0280 C   0  0  0  0  0  0  0  0  0  0  0  0
  -29.1870  -24.4330   18.8230 O   0  0  0  0  0  0  0  0  0  0  0  0
  -28.3100  -25.5850   20.7500 C   0  0  0  0  0  2  0  0  0  0  0  0
  -28.3660  -26.7990   19.9710 O   0  0  0  0  0  0  0  0  0  0  0  0
  -24.5850  -31.9210   23.1930 C   0  0  0  0  0  0  0  0  0  0  0  0
  -27.2050  -27.5450   20.0000 C   0  0  0  0  0  0  0  0  0  0  0  0
  -23.3470  -30.5380   21.5480 C   0  0  0  0  0  3  0  0  0  0  0  0
  -24.7930  -29.0280   20.0710 C   0  0  0  0  0  0  0  0  0  0  0  0
  -25.8670  -30.9120   21.3170 C   0  0  0  0  0  2  0  0  0  0  0  0
  -25.9540  -29.5510   20.6560 C   0  0  0  0  0  0  0  0  0  0  0  0
  -27.1640  -28.8170   20.6190 C   0  0  0  0  0  3  0  0  0  0  0  0
  -26.0350  -27.0440   19.3920 C   0  0  0  0  0  3  0  0  0  0  0  0
  -24.8320  -27.7780   19.4290 C   0  0  0  0  0  3  0  0  0  0  0  0
  -23.5360  -29.8710   20.1580 C   0  0  0  0  0  2  0  0  0  0  0  0
  -24.6160  -31.1390   22.0770 N   0  0  0  0  0  0  0  0  0  0  0  0
  -23.5160  -32.1830   23.7610 O   0  0  0  0  0  0  0  0  0  0  0  0
  -22.7230  -29.5020   22.5090 C   0  0  0  0  0  0  0  0  0  0  0  0
  -21.4000  -29.3070   22.3980 N   0  0  0  0  0  0  0  0  0  0  0  0
  -23.4260  -28.8740   23.3070 O   0  0  0  0  0  0  0  0  0  0  0  0
  -20.8920  -29.8610   21.7230 H   0  0  0  0  0  0  0  0  0  0  0  0
  -18.0530  -28.0650   22.9250 C   0  0  0  0  0  0  0  0  0  0  0  0
  -20.6090  -28.3530   23.1740 C   0  0  0  0  0  3  0  0  0  0  0  0
  -20.7290  -26.9290   22.5860 C   0  0  0  0  0  2  0  0  0  0  0  0
  -19.6210  -26.5990   21.5800 C   0  0  0  0  0  2  0  0  0  0  0  0
  -18.2440  -26.7230   22.2380 C   0  0  0  0  0  2  0  0  0  0  0  0
  -19.1660  -28.8350   23.3540 C   0  0  0  0  0  0  0  0  0  0  0  0
  -18.9410  -30.0920   23.9560 C   0  0  0  0  0  3  0  0  0  0  0  0
  -17.6330  -30.5780   24.1390 C   0  0  0  0  0  3  0  0  0  0  0  0
  -16.5340  -29.8030   23.7310 C   0  0  0  0  0  3  0  0  0  0  0  0
  -16.7450  -28.5490   23.1290 C   0  0  0  0  0  3  0  0  0  0  0  0
  -25.8830  -32.5460   23.7900 C   0  0  0  0  0  3  0  0  0  0  0  0
  -26.4340  -31.7590   25.0410 C   0  0  1  0  0  0  0  0  0  0  0  0
  -25.3630  -31.5070   26.1270 C   0  0  0  0  0  1  0  0  0  0  0  0
  -27.0120  -30.3850   24.6240 C   0  0  0  0  0  1  0  0  0  0  0  0
  -27.5980  -32.5460   25.6890 C   0  0  0  0  0  1  0  0  0  0  0  0
  -25.5860  -33.9410   24.1390 N   0  0  0  0  0  0  0  0  0  0  0  0
  -25.9210  -34.9990   23.3870 C   0  0  0  0  0  0  0  0  0  0  0  0
  -26.5860  -34.9040   22.3520 O   0  0  0  0  0  0  0  0  0  0  0  0
  -24.9910  -34.0920   24.9420 H   0  0  0  0  0  0  0  0  0  0  0  0
  -24.2140  -36.8130   23.0420 C   0  0  0  0  0  1  0  0  0  0  0  0
  -25.4420  -36.3850   23.8600 C   0  0  0  0  0  3  0  0  0  0  0  0
  -27.5680  -37.2440   24.7360 C   0  0  0  0  0  1  0  0  0  0  0  0
  -26.4850  -37.4290   23.7740 N   0  0  0  0  0  0  0  0  0  0  0  0
  -26.0830  -38.3500   23.9250 H   0  0  0  0  0  0  0  0  0  0  0  0
  -26.9170  -23.0840   22.1560 C   0  0  0  0  0  1  0  0  0  0  0  0
  -28.4530  -22.8850   22.1820 C   0  0  0  0  0  2  0  0  0  0  0  0
  1  2  1  0
  3  2  1  0
  4  3  1  0
  4 13  1  0
  6 11  1  0
  7  8  1  0
  7  6  1  0
  9  8  1  0
  9 20  1  0
  9 10  1  0
 11  5  1  0
 11 10  1  0
 12  5  2  0
 13 14  1  0
 13 15  2  0
 14  5  1  0
 16 14  1  0
 17 18  2  0
 18 19  1  0
 18 37  1  0
 19 22  1  0
 20 17  1  0
 20 21  1  0
 21 19  2  0
 22 23  1  0
 23 24  2  0
 25 28  1  0
 25 24  1  0
 26 25  2  0
 27 26  1  0
 27 22  2  0
 28 29  1  0
 29 30  1  0
 30 31  2  0
 32 31  1  0
 32 36  1  0
 33 32  2  0
 34 29  2  0
 34 33  1  0
 35 34  1  0
 37 38  1  0
 38 41  1  0
 38 40  1  0
 39 37  2  0
 42 43  1  0
 42 17  1  0
 44 42  1  0
 45 46  1  0
 45  4  1  0
 47 45  1  0
 48 45  1  0
 49  1  1  0
 49 95  1  0
 50 52  1  0
 50 49  1  0
 51 50  2  0
 53 55  1  0
 53 52  1  0
 54 65  2  0
 55 60  1  0
 56 64  1  0
 56 66  1  0
 57 63  1  0
 57 59  1  0
 58 64  1  0
 59 58  1  0
 60 59  2  0
 61 62  1  0
 61 55  2  0
 62 57  2  0
 63 56  1  0
 64 54  1  0
 66 68  2  0
 67 66  1  0
 69 67  1  0
 70 79  2  0
 70 75  1  0
 71 67  1  0
 71 75  1  0
 72 71  1  0
 73 74  1  0
 73 72  1  0
 74 70  1  0
 75 76  2  0
 76 77  1  0
 78 77  2  0
 79 78  1  0
 80 54  1  0
 80 85  1  0
 80 81  1  0
 81 84  1  1
 81 82  1  0
 83 81  1  0
 85 88  1  0
 86 90  1  0
 86 85  1  0
 87 86  2  0
 90 89  1  0
 92 90  1  0
 92 93  1  0
 92 91  1  0
 94 95  1  0
M  ISO  4   5 100  14 100  52 101  53 101
M  END
>  <TORSDO>  (37) 
F 24

>  <SCORE>  (37) 
-12.106

>  <name>  (37) 
36

>  <ligand_id>  (37) 
36

>  <original_smiles>  (37) 
[H]c1c([H])c([H])c2c(c1[H])C([H])([H])C([H])([H])C([H])([H])C2([H])N([H])C(=O)C1([H])N(C(=O)C([H])(N([H])C(=O)C([H])(N([H])C([H])([H])[H])C([H])([H])[H])C(C([H])([H])[H])(C([H])([H])[H])C([H])([H])[H])C([H])([H])c2c([H])c(OC([H])([H])C(=O)C([H])(C([H])([H])C([H])([H])[H])C([H])([H])C([H])([H])C([H])([H])C([H])(C(=O)N([H])C(=O)N3C([H])([H])C([H])([H])C([H])([H])C([H])(n4nc(-c5c([H])c([H])c(Oc6c([H])c([H])c(F)c([H])c6F)c([H])c5[H])c(C(=O)N([H])[H])c4N([H])[H])C3([H])[H])[N+]([H])([H])[H])c([H])c([H])c2C1([H])[H]

>  <smiles>  (37) 
[H]c1c([H])c([H])c2c(c1[H])C([H])([H])C([H])([H])C([H])([H])C2([H])N([H])C(=O)C1([H])N(C(=O)C([H])(N([H])C(=O)C([H])(N([H])C([H])([H])[H])C([H])([H])[H])C(C([H])([H])[H])(C([H])([H])[H])C([H])([H])[H])C([H])([H])c2c([H])c(OC([H])([H])C(=O)C([H])(C([H])([H])C([H])([H])[H])C([H])([H])C([H])([H])C([H])([H])C([H])(C(=O)N([H])C(=O)N3C([H])([H])C([H])([H])C([H])([H])C([H])(n4nc(-c5c([H])c([H])c(Oc6c([H])c([H])c(F)c([H])c6F)c([H])c5[H])c(C(=O)N([H])[H])c4N([H])[H])C3([H])[H])[N+]([H])([H])[H])c([H])c([H])c2C1([H])[H]

$$$$
37:0:0
     RDKit          3D

 93101  0  0  1  0  0  0  0  0999 V2000
  -28.9950  -20.6690   22.9900 C   0  0  0  0  0  1  0  0  0  0  0  0
  -29.2450  -21.4150   21.6640 C   0  0  0  0  0  3  0  0  0  0  0  0
  -29.2960  -20.4600   20.4430 C   0  0  0  0  0  2  0  0  0  0  0  0
  -32.4410  -18.2660   20.9600 C   0  0  0  0  0  3  0  0  0  0  0  0
  -31.9030  -16.9770   20.7980 C   0  0  0  0  0  3  0  0  0  0  0  0
  -29.6990  -17.9580   20.4330 C   0  0  0  0  0  3  0  0  0  0  0  0
  -31.6260  -19.4100   20.8350 C   0  0  0  0  0  0  0  0  0  0  0  0
  -30.2360  -19.2590   20.5820 C   0  0  0  0  0  0  0  0  0  0  0  0
  -30.5310  -16.8220   20.5100 C   0  0  0  0  0  0  0  0  0  0  0  0
  -32.2770  -20.7740   20.9820 C   0  0  0  0  0  1  0  0  0  0  0  0
  -30.4890  -14.5880   19.5080 C   0  0  0  0  0  0  0  0  0  0  0  0
  -30.0940  -12.3920   18.4610 C   0  0  0  0  0  2  0  0  0  0  0  0
  -28.9970  -12.4950   17.3850 C   0  0  0  0  0  2  0  0  0  0  0  0
  -27.6030  -12.3140   18.0130 C   0  0  0  0  0  2  0  0  0  0  0  0
  -27.3900  -13.2090   19.2620 C   0  0  0  0  0  3  0  0  0  0  0  0
  -28.5870  -13.0930   20.2330 C   0  0  0  0  0  2  0  0  0  0  0  0
  -29.8160  -13.4080   19.4860 N   0  0  0  0  0  0  0  0  0  0  0  0
  -31.4680  -14.8150   18.7920 O   0  0  0  0  0  0  0  0  0  0  0  0
  -29.9750  -15.5330   20.3120 N   0  0  0  0  0  0  0  0  0  0  0  0
  -29.0770  -15.3380   20.7250 H   0  0  0  0  0  0  0  0  0  0  0  0
  -25.1140  -13.7630   20.3290 C   0  0  0  0  0  0  0  0  0  0  0  0
  -24.1220  -12.9660   20.8340 C   0  0  0  0  0  0  0  0  0  0  0  0
  -24.5900  -11.6220   20.7030 C   0  0  0  0  0  0  0  0  0  0  0  0
  -26.1250  -12.9050   19.9280 N   0  0  0  0  0  0  0  0  0  0  0  0
  -25.8210  -11.6110   20.2070 N   0  0  0  0  0  0  0  0  0  0  0  0
  -23.9170  -10.3450   20.9680 C   0  0  0  0  0  0  0  0  0  0  0  0
  -24.3920   -9.4500   21.9510 C   0  0  0  0  0  3  0  0  0  0  0  0
  -23.7170   -8.2370   22.2000 C   0  0  0  0  0  3  0  0  0  0  0  0
  -22.5520   -7.9090   21.4660 C   0  0  0  0  0  0  0  0  0  0  0  0
  -22.0970   -8.7920   20.4730 C   0  0  0  0  0  3  0  0  0  0  0  0
  -22.7730   -9.9980   20.2220 C   0  0  0  0  0  3  0  0  0  0  0  0
  -21.8450   -6.7410   21.6220 O   0  0  0  0  0  0  0  0  0  0  0  0
  -21.7230   -6.1320   22.8450 C   0  0  0  0  0  0  0  0  0  0  0  0
  -21.1120   -6.7780   23.9420 C   0  0  0  0  0  3  0  0  0  0  0  0
  -20.9440   -6.0900   25.1610 C   0  0  0  0  0  3  0  0  0  0  0  0
  -21.3750   -4.7560   25.2820 C   0  0  0  0  0  0  0  0  0  0  0  0
  -21.9790   -4.1070   24.1880 C   0  0  0  0  0  3  0  0  0  0  0  0
  -22.1480   -4.7940   22.9720 C   0  0  0  0  0  0  0  0  0  0  0  0
  -22.7100   -4.1590   21.9160 F   0  0  0  0  0  0  0  0  0  0  0  0
  -21.2080   -4.0910   26.4490 F   0  0  0  0  0  0  0  0  0  0  0  0
  -22.7740  -13.4150   21.3200 C   0  0  0  0  0  0  0  0  0  0  0  0
  -22.1940  -12.6920   22.2730 N   0  0  0  0  0  0  0  0  0  0  0  0
  -22.2480  -14.4410   20.8920 O   0  0  0  0  0  0  0  0  0  0  0  0
  -22.6350  -11.8610   22.6390 H   0  0  0  0  0  0  0  0  0  0  0  0
  -21.2960  -12.9710   22.6390 H   0  0  0  0  0  0  0  0  0  0  0  0
  -25.2330  -15.1400   20.1610 N   0  0  0  0  0  0  0  0  0  0  0  0
  -24.4830  -15.7800   20.3980 H   0  0  0  0  0  0  0  0  0  0  0  0
  -26.0200  -15.5990   19.7190 H   0  0  0  0  0  0  0  0  0  0  0  0
  -28.2120  -22.5530   21.4950 C   0  0  0  0  0  2  0  0  0  0  0  0
  -28.3550  -23.3620   20.1870 C   0  0  0  0  0  2  0  0  0  0  0  0
  -27.5300  -24.6650   20.1940 C   0  0  0  0  0  2  0  0  0  0  0  0
  -27.6760  -25.4920   18.9010 C   0  0  0  0  0  2  0  0  0  0  0  0
  -27.7230  -26.8930   19.1550 O   0  0  0  0  0  0  0  0  0  0  0  0
  -24.7820  -31.7300   23.3990 C   0  0  0  0  0  0  0  0  0  0  0  0
  -26.5810  -27.6260   19.3970 C   0  0  0  0  0  0  0  0  0  0  0  0
  -23.2490  -30.7090   21.7420 C   0  0  0  0  0  3  0  0  0  0  0  0
  -24.3590  -29.2870   19.9360 C   0  0  0  0  0  0  0  0  0  0  0  0
  -25.7540  -30.8860   21.2670 C   0  0  0  0  0  2  0  0  0  0  0  0
  -25.6190  -29.6280   20.4340 C   0  0  0  0  0  0  0  0  0  0  0  0
  -26.7300  -28.8040   20.1600 C   0  0  0  0  0  3  0  0  0  0  0  0
  -25.2960  -27.2780   18.9190 C   0  0  0  0  0  3  0  0  0  0  0  0
  -24.1890  -28.1100   19.1840 C   0  0  0  0  0  3  0  0  0  0  0  0
  -23.2190  -30.2270   20.2650 C   0  0  0  0  0  2  0  0  0  0  0  0
  -24.6220  -31.1120   22.1940 N   0  0  0  0  0  0  0  0  0  0  0  0
  -23.8090  -32.0030   24.1150 O   0  0  0  0  0  0  0  0  0  0  0  0
  -22.6150  -29.6130   22.6280 C   0  0  0  0  0  0  0  0  0  0  0  0
  -21.2940  -29.4200   22.4870 N   0  0  0  0  0  0  0  0  0  0  0  0
  -23.3100  -28.9390   23.3930 O   0  0  0  0  0  0  0  0  0  0  0  0
  -20.7920  -30.0190   21.8440 H   0  0  0  0  0  0  0  0  0  0  0  0
  -17.9890  -27.9850   22.7300 C   0  0  0  0  0  0  0  0  0  0  0  0
  -20.4970  -28.4140   23.1880 C   0  0  0  0  0  3  0  0  0  0  0  0
  -20.7380  -27.0020   22.6030 C   0  0  0  0  0  2  0  0  0  0  0  0
  -19.7370  -26.6240   21.5070 C   0  0  0  0  0  2  0  0  0  0  0  0
  -18.3080  -26.6610   22.0520 C   0  0  0  0  0  2  0  0  0  0  0  0
  -19.0170  -28.8130   23.2490 C   0  0  0  0  0  0  0  0  0  0  0  0
  -18.6720  -30.0500   23.8360 C   0  0  0  0  0  3  0  0  0  0  0  0
  -17.3270  -30.4590   23.9130 C   0  0  0  0  0  3  0  0  0  0  0  0
  -16.3110  -29.6280   23.4110 C   0  0  0  0  0  3  0  0  0  0  0  0
  -16.6420  -28.3930   22.8230 C   0  0  0  0  0  3  0  0  0  0  0  0
  -26.1940  -32.1460   23.9230 C   0  0  0  0  0  3  0  0  0  0  0  0
  -26.0970  -33.5280   24.4050 N   0  0  0  0  0  0  0  0  0  0  0  0
  -26.5150  -34.6030   23.7240 C   0  0  0  0  0  0  0  0  0  0  0  0
  -27.0940  -34.5240   22.6360 O   0  0  0  0  0  0  0  0  0  0  0  0
  -25.5820  -33.6730   25.2620 H   0  0  0  0  0  0  0  0  0  0  0  0
  -25.0320  -36.6330   23.6620 C   0  0  0  0  0  1  0  0  0  0  0  0
  -26.2480  -35.9870   24.3470 C   0  0  0  0  0  3  0  0  0  0  0  0
  -28.5220  -36.4960   25.1200 C   0  0  0  0  0  1  0  0  0  0  0  0
  -27.4080  -36.9030   24.2670 N   0  0  0  0  0  0  0  0  0  0  0  0
  -27.1390  -37.8480   24.5270 H   0  0  0  0  0  0  0  0  0  0  0  0
  -26.7390  -31.1960   25.0600 C   0  0  1  0  0  0  0  0  0  0  0  0
  -25.7240  -30.9460   26.1990 C   0  0  0  0  0  1  0  0  0  0  0  0
  -27.1440  -29.8230   24.4760 C   0  0  0  0  0  1  0  0  0  0  0  0
  -28.0160  -31.8050   25.6850 C   0  0  0  0  0  1  0  0  0  0  0  0
  2  1  1  0
  3  8  1  0
  3  2  1  0
  5  4  2  0
  6  9  2  0
  6  8  1  0
  7  4  1  0
  7 10  1  0
  8  7  2  0
  9  5  1  0
 11 19  1  0
 12 17  1  0
 13 14  1  0
 13 12  1  0
 15 14  1  0
 15 24  1  0
 15 16  1  0
 17 11  1  0
 17 16  1  0
 18 11  2  0
 19  9  1  0
 19 20  1  0
 21 22  2  0
 22 41  1  0
 23 22  1  0
 23 26  1  0
 24 25  1  0
 24 21  1  0
 25 23  2  0
 26 27  1  0
 27 28  2  0
 29 32  1  0
 29 28  1  0
 30 29  2  0
 31 30  1  0
 31 26  2  0
 32 33  1  0
 33 38  2  0
 33 34  1  0
 34 35  2  0
 35 36  1  0
 36 40  1  0
 37 36  2  0
 38 37  1  0
 39 38  1  0
 41 42  1  0
 42 45  1  0
 42 44  1  0
 43 41  2  0
 46 21  1  0
 46 47  1  0
 48 46  1  0
 49  2  1  0
 50 51  1  0
 50 49  1  0
 52 53  1  0
 52 51  1  0
 53 55  1  0
 54 65  2  0
 55 60  1  0
 56 64  1  0
 56 66  1  0
 57 63  1  0
 57 59  1  0
 58 64  1  0
 59 58  1  0
 60 59  2  0
 61 62  1  0
 61 55  2  0
 62 57  2  0
 63 56  1  0
 64 54  1  0
 66 68  2  0
 67 66  1  0
 69 67  1  0
 70 79  2  0
 70 75  1  0
 71 67  1  0
 71 75  1  0
 72 71  1  0
 73 74  1  0
 73 72  1  0
 74 70  1  0
 75 76  2  0
 76 77  1  0
 78 77  2  0
 79 78  1  0
 80 54  1  0
 80 81  1  0
 80 90  1  0
 81 84  1  0
 82 86  1  0
 82 81  1  0
 83 82  2  0
 86 85  1  0
 88 86  1  0
 88 89  1  0
 88 87  1  0
 90 93  1  1
 90 91  1  0
 92 90  1  0
M  ISO  4  11 100  19 100  52 101  53 101
M  END
>  <TORSDO>  (38) 
F 22

>  <SCORE>  (38) 
-10.067

>  <name>  (38) 
37

>  <ligand_id>  (38) 
37

>  <original_smiles>  (38) 
[H]c1c([H])c([H])c2c(c1[H])C([H])([H])C([H])([H])C([H])([H])C2([H])N([H])C(=O)C1([H])N(C(=O)C([H])(N([H])C(=O)C([H])(N([H])C([H])([H])[H])C([H])([H])[H])C(C([H])([H])[H])(C([H])([H])[H])C([H])([H])[H])C([H])([H])c2c([H])c(OC([H])([H])C([H])([H])C([H])([H])C([H])([H])C([H])(C([H])([H])[H])C([H])([H])c3c([H])c(N([H])C(=O)N4C([H])([H])C([H])([H])C([H])([H])C([H])(n5nc(-c6c([H])c([H])c(Oc7c([H])c([H])c(F)c([H])c7F)c([H])c6[H])c(C(=O)N([H])[H])c5N([H])[H])C4([H])[H])c([H])c([H])c3C([H])([H])[H])c([H])c([H])c2C1([H])[H]

>  <smiles>  (38) 
[H]c1c([H])c([H])c2c(c1[H])C([H])([H])C([H])([H])C([H])([H])C2([H])N([H])C(=O)C1([H])N(C(=O)C([H])(N([H])C(=O)C([H])(N([H])C([H])([H])[H])C([H])([H])[H])C(C([H])([H])[H])(C([H])([H])[H])C([H])([H])[H])C([H])([H])c2c([H])c(OC([H])([H])C([H])([H])C([H])([H])C([H])([H])C([H])(C([H])([H])[H])C([H])([H])c3c([H])c(N([H])C(=O)N4C([H])([H])C([H])([H])C([H])([H])C([H])(n5nc(-c6c([H])c([H])c(Oc7c([H])c([H])c(F)c([H])c7F)c([H])c6[H])c(C(=O)N([H])[H])c5N([H])[H])C4([H])[H])c([H])c([H])c3C([H])([H])[H])c([H])c([H])c2C1([H])[H]

$$$$
38:0:0
     RDKit          3D

 97105  0  0  1  0  0  0  0  0999 V2000
  -29.0380  -21.2220   19.5660 C   0  0  0  0  0  3  0  0  0  0  0  0
  -28.9560  -18.5300   18.9880 C   0  0  0  0  0  2  0  0  0  0  0  0
  -30.4940  -18.3690   19.0790 C   0  0  0  0  0  3  0  0  0  0  0  0
  -29.0170  -19.6470   20.0690 C   0  0  0  0  0  3  0  0  0  0  0  0
  -30.2800  -18.7300   20.5470 C   0  0  0  0  0  3  0  0  0  0  0  0
  -32.9420  -19.0860   18.8490 C   0  0  0  0  0  1  0  0  0  0  0  0
  -31.5250  -19.1600   18.2460 C   0  0  0  0  0  3  0  0  0  0  0  0
  -32.1500  -17.3740   16.4640 C   0  0  0  0  0  1  0  0  0  0  0  0
  -31.5310  -18.7510   16.7590 C   0  0  0  0  0  2  0  0  0  0  0  0
  -30.2630  -17.4730   21.5590 C   0  0  0  0  0  2  0  0  0  0  0  0
  -30.6930  -14.9780   20.7750 C   0  0  0  0  0  0  0  0  0  0  0  0
  -30.5510  -12.7900   19.5720 C   0  0  0  0  0  2  0  0  0  0  0  0
  -29.6520  -12.9230   18.3250 C   0  0  0  0  0  2  0  0  0  0  0  0
  -28.1640  -12.7350   18.6820 C   0  0  0  0  0  2  0  0  0  0  0  0
  -27.7400  -13.5380   19.9400 C   0  0  0  0  0  3  0  0  0  0  0  0
  -28.7530  -13.3740   21.0900 C   0  0  0  0  0  2  0  0  0  0  0  0
  -30.0710  -13.7680   20.5740 N   0  0  0  0  0  0  0  0  0  0  0  0
  -31.8850  -15.1230   20.4990 O   0  0  0  0  0  0  0  0  0  0  0  0
  -29.9030  -16.0520   21.1260 N   0  0  0  0  0  0  0  0  0  0  0  0
  -28.9260  -15.8260   21.2240 H   0  0  0  0  0  0  0  0  0  0  0  0
  -25.2980  -14.0640   20.5300 C   0  0  0  0  0  0  0  0  0  0  0  0
  -24.2360  -13.2650   20.8570 C   0  0  0  0  0  0  0  0  0  0  0  0
  -24.7400  -11.9270   20.8700 C   0  0  0  0  0  0  0  0  0  0  0  0
  -26.3790  -13.2160   20.3610 N   0  0  0  0  0  0  0  0  0  0  0  0
  -26.0460  -11.9250   20.6270 N   0  0  0  0  0  0  0  0  0  0  0  0
  -24.0410  -10.6450   21.0400 C   0  0  0  0  0  0  0  0  0  0  0  0
  -24.4420   -9.7100   22.0200 C   0  0  0  0  0  3  0  0  0  0  0  0
  -23.7430   -8.4920   22.1770 C   0  0  0  0  0  3  0  0  0  0  0  0
  -22.6260   -8.2040   21.3560 C   0  0  0  0  0  0  0  0  0  0  0  0
  -22.2480   -9.1260   20.3640 C   0  0  0  0  0  3  0  0  0  0  0  0
  -22.9490  -10.3330   20.2050 C   0  0  0  0  0  3  0  0  0  0  0  0
  -21.9030   -7.0370   21.4230 O   0  0  0  0  0  0  0  0  0  0  0  0
  -21.7720   -6.3360   22.5940 C   0  0  0  0  0  0  0  0  0  0  0  0
  -21.2190   -6.9190   23.7560 C   0  0  0  0  0  3  0  0  0  0  0  0
  -21.0400   -6.1400   24.9170 C   0  0  0  0  0  3  0  0  0  0  0  0
  -21.4020   -4.7800   24.9140 C   0  0  0  0  0  0  0  0  0  0  0  0
  -21.9490   -4.1970   23.7580 C   0  0  0  0  0  3  0  0  0  0  0  0
  -22.1290   -4.9730   22.6000 C   0  0  0  0  0  0  0  0  0  0  0  0
  -22.6360   -4.4010   21.4800 F   0  0  0  0  0  0  0  0  0  0  0  0
  -21.2210   -4.0290   26.0270 F   0  0  0  0  0  0  0  0  0  0  0  0
  -22.8120  -13.7030   21.0460 C   0  0  0  0  0  0  0  0  0  0  0  0
  -22.0640  -13.0100   21.8970 N   0  0  0  0  0  0  0  0  0  0  0  0
  -22.3670  -14.6950   20.4710 O   0  0  0  0  0  0  0  0  0  0  0  0
  -22.4350  -12.2130   22.3920 H   0  0  0  0  0  0  0  0  0  0  0  0
  -21.1040  -13.2830   22.0600 H   0  0  0  0  0  0  0  0  0  0  0  0
  -25.4350  -15.4360   20.3380 N   0  0  0  0  0  0  0  0  0  0  0  0
  -24.6460  -16.0690   20.3770 H   0  0  0  0  0  0  0  0  0  0  0  0
  -26.2810  -15.8760   20.0020 H   0  0  0  0  0  0  0  0  0  0  0  0
  -28.4140  -22.2590   20.5170 N   0  0  0  0  0  4  0  0  0  0  0  0
  -27.4110  -22.2180   20.4330 H   0  0  0  0  0  0  0  0  0  0  0  0
  -28.6080  -21.8850   21.4330 H   0  0  0  0  0  0  0  0  0  0  0  0
  -28.8910  -23.7310   20.6180 C   0  0  0  0  0  3  0  0  0  0  0  0
  -27.9460  -24.9420   20.1170 C   0  0  0  0  0  3  0  0  0  0  0  0
  -28.2250  -26.3900   20.3970 O   0  0  0  0  0  0  0  0  0  0  0  0
  -24.5880  -31.9750   23.2540 C   0  0  0  0  0  0  0  0  0  0  0  0
  -27.1480  -27.3020   20.2910 C   0  0  0  0  0  0  0  0  0  0  0  0
  -23.3740  -30.5570   21.6400 C   0  0  0  0  0  3  0  0  0  0  0  0
  -24.8120  -28.9700   20.2410 C   0  0  0  0  0  0  0  0  0  0  0  0
  -25.9210  -30.8380   21.4600 C   0  0  0  0  0  2  0  0  0  0  0  0
  -25.9890  -29.4450   20.8380 C   0  0  0  0  0  0  0  0  0  0  0  0
  -27.1590  -28.6230   20.8550 C   0  0  0  0  0  3  0  0  0  0  0  0
  -25.9530  -26.9080   19.6450 C   0  0  0  0  0  3  0  0  0  0  0  0
  -24.8000  -27.7100   19.6350 C   0  0  0  0  0  3  0  0  0  0  0  0
  -23.5810  -29.8520   20.2760 C   0  0  0  0  0  2  0  0  0  0  0  0
  -24.6460  -31.1420   22.1730 N   0  0  0  0  0  0  0  0  0  0  0  0
  -23.5060  -32.2730   23.7810 O   0  0  0  0  0  0  0  0  0  0  0  0
  -22.7010  -29.5640   22.6190 C   0  0  0  0  0  0  0  0  0  0  0  0
  -21.3770  -29.3810   22.4810 N   0  0  0  0  0  0  0  0  0  0  0  0
  -23.3710  -28.9600   23.4600 O   0  0  0  0  0  0  0  0  0  0  0  0
  -20.8950  -29.9200   21.7750 H   0  0  0  0  0  0  0  0  0  0  0  0
  -17.9970  -28.1910   22.9780 C   0  0  0  0  0  0  0  0  0  0  0  0
  -20.5510  -28.4620   23.2680 C   0  0  0  0  0  3  0  0  0  0  0  0
  -20.6610  -27.0150   22.7330 C   0  0  0  0  0  2  0  0  0  0  0  0
  -19.5720  -26.6640   21.7140 C   0  0  0  0  0  2  0  0  0  0  0  0
  -18.1820  -26.8260   22.3380 C   0  0  0  0  0  2  0  0  0  0  0  0
  -19.1100  -28.9670   23.4000 C   0  0  0  0  0  0  0  0  0  0  0  0
  -18.8830  -30.2450   23.9580 C   0  0  0  0  0  3  0  0  0  0  0  0
  -17.5760  -30.7470   24.1000 C   0  0  0  0  0  3  0  0  0  0  0  0
  -16.4770  -29.9700   23.6930 C   0  0  0  0  0  3  0  0  0  0  0  0
  -16.6890  -28.6940   23.1390 C   0  0  0  0  0  3  0  0  0  0  0  0
  -25.8740  -32.6070   23.8670 C   0  0  0  0  0  3  0  0  0  0  0  0
  -26.4090  -31.8300   25.1320 C   0  0  1  0  0  0  0  0  0  0  0  0
  -25.3200  -31.5580   26.1950 C   0  0  0  0  0  1  0  0  0  0  0  0
  -27.0230  -30.4680   24.7280 C   0  0  0  0  0  1  0  0  0  0  0  0
  -27.5390  -32.6430   25.8080 C   0  0  0  0  0  1  0  0  0  0  0  0
  -25.5600  -34.0020   24.2120 N   0  0  0  0  0  0  0  0  0  0  0  0
  -25.8760  -35.0620   23.4590 C   0  0  0  0  0  0  0  0  0  0  0  0
  -26.5340  -34.9720   22.4190 O   0  0  0  0  0  0  0  0  0  0  0  0
  -24.9710  -34.1470   25.0190 H   0  0  0  0  0  0  0  0  0  0  0  0
  -24.1330  -36.8520   23.1450 C   0  0  0  0  0  1  0  0  0  0  0  0
  -25.3870  -36.4430   23.9350 C   0  0  0  0  0  3  0  0  0  0  0  0
  -27.5270  -37.3360   24.7470 C   0  0  0  0  0  1  0  0  0  0  0  0
  -26.4120  -37.5020   23.8180 N   0  0  0  0  0  0  0  0  0  0  0  0
  -26.0020  -38.4180   23.9760 H   0  0  0  0  0  0  0  0  0  0  0  0
  -28.3250  -21.3230   18.1710 C   0  0  0  0  0  2  0  0  0  0  0  0
  -29.6960  -23.2350   17.0300 C   0  0  0  0  0  1  0  0  0  0  0  0
  -28.3220  -22.6150   17.3390 C   0  0  0  0  0  2  0  0  0  0  0  0
  1 95  1  0
  1 49  1  0
  2  3  1  0
  2  4  1  0
  3  7  1  0
  3  5  1  0
  4  1  1  0
  4  5  1  0
  5 10  1  0
  7  6  1  0
  8  9  1  0
  9  7  1  0
 11 19  1  0
 12 17  1  0
 13 14  1  0
 13 12  1  0
 15 14  1  0
 15 24  1  0
 15 16  1  0
 17 11  1  0
 17 16  1  0
 18 11  2  0
 19 20  1  0
 19 10  1  0
 21 22  2  0
 22 23  1  0
 22 41  1  0
 23 26  1  0
 24 21  1  0
 24 25  1  0
 25 23  2  0
 26 27  1  0
 27 28  2  0
 29 32  1  0
 29 28  1  0
 30 29  2  0
 31 30  1  0
 31 26  2  0
 32 33  1  0
 33 38  2  0
 33 34  1  0
 34 35  2  0
 36 35  1  0
 36 40  1  0
 37 36  2  0
 38 37  1  0
 39 38  1  0
 41 42  1  0
 42 45  1  0
 42 44  1  0
 43 41  2  0
 46 47  1  0
 46 21  1  0
 48 46  1  0
 49 52  1  0
 49 51  1  0
 50 49  1  0
 53 54  1  0
 53 52  2  0
 55 66  2  0
 56 54  1  0
 56 61  1  0
 57 65  1  0
 57 67  1  0
 58 64  1  0
 58 60  1  0
 59 65  1  0
 60 61  2  0
 60 59  1  0
 62 56  2  0
 63 62  1  0
 63 58  2  0
 64 57  1  0
 65 55  1  0
 67 69  2  0
 68 67  1  0
 70 68  1  0
 71 80  2  0
 71 76  1  0
 72 68  1  0
 72 76  1  0
 73 72  1  0
 74 75  1  0
 74 73  1  0
 75 71  1  0
 76 77  2  0
 77 78  1  0
 79 78  2  0
 80 79  1  0
 81 55  1  0
 81 86  1  0
 81 82  1  0
 82 85  1  1
 82 83  1  0
 84 82  1  0
 86 89  1  0
 87 91  1  0
 87 86  1  0
 88 87  2  0
 91 90  1  0
 93 91  1  0
 93 94  1  0
 93 92  1  0
 96 97  1  0
 97 95  1  0
M  ISO  4  11 100  19 100  53 101  54 101
M  END
>  <TORSDO>  (39) 
F 25

>  <SCORE>  (39) 
-12.327

>  <name>  (39) 
38

>  <ligand_id>  (39) 
38

>  <original_smiles>  (39) 
[H]c1c([H])c([H])c2c(c1[H])C([H])([H])C([H])([H])C([H])([H])C2([H])N([H])C(=O)C1([H])N(C(=O)C([H])(N([H])C(=O)C([H])(N([H])C([H])([H])[H])C([H])([H])[H])C(C([H])([H])[H])(C([H])([H])[H])C([H])([H])[H])C([H])([H])c2c([H])c(OC([H])([H])C([H])([H])[N+]([H])([H])C([H])(C([H])([H])C([H])([H])C([H])([H])[H])C3([H])C([H])([H])C([H])(C([H])(C([H])([H])[H])C([H])([H])C([H])([H])[H])C3([H])C([H])([H])N([H])C(=O)N3C([H])([H])C([H])([H])C([H])([H])C([H])(n4nc(-c5c([H])c([H])c(Oc6c([H])c([H])c(F)c([H])c6F)c([H])c5[H])c(C(=O)N([H])[H])c4N([H])[H])C3([H])[H])c([H])c([H])c2C1([H])[H]

>  <smiles>  (39) 
[H]c1c([H])c([H])c2c(c1[H])C([H])([H])C([H])([H])C([H])([H])C2([H])N([H])C(=O)C1([H])N(C(=O)C([H])(N([H])C(=O)C([H])(N([H])C([H])([H])[H])C([H])([H])[H])C(C([H])([H])[H])(C([H])([H])[H])C([H])([H])[H])C([H])([H])c2c([H])c(OC([H])([H])C([H])([H])[N+]([H])([H])C([H])(C([H])([H])C([H])([H])C([H])([H])[H])C3([H])C([H])([H])C([H])(C([H])(C([H])([H])[H])C([H])([H])C([H])([H])[H])C3([H])C([H])([H])N([H])C(=O)N3C([H])([H])C([H])([H])C([H])([H])C([H])(n4nc(-c5c([H])c([H])c(Oc6c([H])c([H])c(F)c([H])c6F)c([H])c5[H])c(C(=O)N([H])[H])c4N([H])[H])C3([H])[H])c([H])c([H])c2C1([H])[H]

$$$$
39:0:0
     RDKit          3D

 94102  0  0  1  0  0  0  0  0999 V2000
  -30.4490  -19.9950   18.7250 C   0  0  0  0  0  3  0  0  0  0  0  0
  -28.2550  -20.7160   17.9580 C   0  0  0  0  0  3  0  0  0  0  0  0
  -30.7960  -21.3330   18.9860 C   0  0  0  0  0  3  0  0  0  0  0  0
  -28.6060  -22.0590   18.2180 C   0  0  0  0  0  3  0  0  0  0  0  0
  -29.1850  -19.6730   18.1860 C   0  0  0  0  0  0  0  0  0  0  0  0
  -29.8860  -22.3760   18.7200 C   0  0  0  0  0  0  0  0  0  0  0  0
  -28.8640  -18.2330   17.7840 C   0  0  0  0  0  2  0  0  0  0  0  0
  -29.3700  -17.1240   18.7470 C   0  0  0  0  0  2  0  0  0  0  0  0
  -27.6320  -17.9420   20.5020 C   0  0  0  0  0  1  0  0  0  0  0  0
  -29.0060  -17.2750   20.2520 C   0  0  0  0  0  3  0  0  0  0  0  0
  -29.0980  -15.9510   21.0610 C   0  0  0  0  0  2  0  0  0  0  0  0
  -30.8320  -14.3310   20.0990 C   0  0  0  0  0  0  0  0  0  0  0  0
  -30.5570  -12.1460   18.9920 C   0  0  0  0  0  2  0  0  0  0  0  0
  -29.5430  -12.2410   17.8370 C   0  0  0  0  0  2  0  0  0  0  0  0
  -28.0950  -12.0630   18.3410 C   0  0  0  0  0  2  0  0  0  0  0  0
  -27.7890  -12.9820   19.5540 C   0  0  0  0  0  3  0  0  0  0  0  0
  -28.8880  -12.7820   20.6220 C   0  0  0  0  0  2  0  0  0  0  0  0
  -30.1750  -13.1410   20.0080 N   0  0  0  0  0  0  0  0  0  0  0  0
  -31.8810  -14.5470   19.4830 O   0  0  0  0  0  0  0  0  0  0  0  0
  -30.3930  -15.2490   20.9840 N   0  0  0  0  0  0  0  0  0  0  0  0
  -31.1370  -15.8630   21.2790 H   0  0  0  0  0  0  0  0  0  0  0  0
  -25.4410  -13.6650   20.3750 C   0  0  0  0  0  0  0  0  0  0  0  0
  -24.3770  -12.9230   20.8230 C   0  0  0  0  0  0  0  0  0  0  0  0
  -24.8070  -11.5650   20.7820 C   0  0  0  0  0  0  0  0  0  0  0  0
  -26.4530  -12.7560   20.1000 N   0  0  0  0  0  0  0  0  0  0  0  0
  -26.0750  -11.4870   20.3960 N   0  0  0  0  0  0  0  0  0  0  0  0
  -24.0680  -10.3220   21.0310 C   0  0  0  0  0  0  0  0  0  0  0  0
  -24.4990   -9.3910   22.0010 C   0  0  0  0  0  3  0  0  0  0  0  0
  -23.7650   -8.2090   22.2360 C   0  0  0  0  0  3  0  0  0  0  0  0
  -22.5840   -7.9500   21.4990 C   0  0  0  0  0  0  0  0  0  0  0  0
  -22.1700   -8.8720   20.5220 C   0  0  0  0  0  3  0  0  0  0  0  0
  -22.9050  -10.0460   20.2850 C   0  0  0  0  0  3  0  0  0  0  0  0
  -21.8230   -6.8140   21.6390 O   0  0  0  0  0  0  0  0  0  0  0  0
  -21.7430   -6.1410   22.8320 C   0  0  0  0  0  0  0  0  0  0  0  0
  -21.2680   -6.7620   24.0070 C   0  0  0  0  0  3  0  0  0  0  0  0
  -21.1360   -6.0160   25.1950 C   0  0  0  0  0  3  0  0  0  0  0  0
  -21.4710   -4.6490   25.2090 C   0  0  0  0  0  0  0  0  0  0  0  0
  -21.9370   -4.0260   24.0380 C   0  0  0  0  0  3  0  0  0  0  0  0
  -22.0730   -4.7700   22.8520 C   0  0  0  0  0  0  0  0  0  0  0  0
  -22.5040   -4.1600   21.7220 F   0  0  0  0  0  0  0  0  0  0  0  0
  -21.3360   -3.9310   26.3470 F   0  0  0  0  0  0  0  0  0  0  0  0
  -23.0100  -13.4400   21.1670 C   0  0  0  0  0  0  0  0  0  0  0  0
  -22.3060  -12.7780   22.0800 N   0  0  0  0  0  0  0  0  0  0  0  0
  -22.5690  -14.4680   20.6570 O   0  0  0  0  0  0  0  0  0  0  0  0
  -22.6680  -11.9510   22.5300 H   0  0  0  0  0  0  0  0  0  0  0  0
  -21.3890  -13.1190   22.3340 H   0  0  0  0  0  0  0  0  0  0  0  0
  -25.6100  -15.0270   20.1600 N   0  0  0  0  0  0  0  0  0  0  0  0
  -24.8480  -15.6830   20.2920 H   0  0  0  0  0  0  0  0  0  0  0  0
  -26.4340  -15.4590   19.7660 H   0  0  0  0  0  0  0  0  0  0  0  0
  -30.3150  -23.8240   18.9570 C   0  0  0  0  0  2  0  0  0  0  0  0
  -29.2660  -23.6230   21.2920 C   0  0  0  0  0  1  0  0  0  0  0  0
  -29.5940  -24.5630   20.1080 C   0  0  0  0  0  3  0  0  0  0  0  0
  -28.3610  -25.3460   19.6120 C   0  0  0  0  0  2  0  0  0  0  0  0
  -28.3290  -26.6500   20.1900 O   0  0  0  0  0  0  0  0  0  0  0  0
  -24.5140  -31.8090   23.1750 C   0  0  0  0  0  0  0  0  0  0  0  0
  -27.1530  -27.3650   20.1250 C   0  0  0  0  0  0  0  0  0  0  0  0
  -23.3100  -30.4020   21.5350 C   0  0  0  0  0  3  0  0  0  0  0  0
  -24.7620  -28.8720   20.1120 C   0  0  0  0  0  0  0  0  0  0  0  0
  -25.8340  -30.7640   21.3410 C   0  0  0  0  0  2  0  0  0  0  0  0
  -25.9170  -29.3950   20.7060 C   0  0  0  0  0  0  0  0  0  0  0  0
  -27.1120  -28.6490   20.7130 C   0  0  0  0  0  3  0  0  0  0  0  0
  -25.9770  -26.8610   19.5120 C   0  0  0  0  0  3  0  0  0  0  0  0
  -24.7860  -27.6030   19.5160 C   0  0  0  0  0  3  0  0  0  0  0  0
  -23.5130  -29.7140   20.1570 C   0  0  0  0  0  2  0  0  0  0  0  0
  -24.5710  -31.0070   22.0740 N   0  0  0  0  0  0  0  0  0  0  0  0
  -23.4330  -32.0780   23.7140 O   0  0  0  0  0  0  0  0  0  0  0  0
  -22.6610  -29.3840   22.5000 C   0  0  0  0  0  0  0  0  0  0  0  0
  -21.3360  -29.2070   22.3770 N   0  0  0  0  0  0  0  0  0  0  0  0
  -23.3480  -28.7570   23.3110 O   0  0  0  0  0  0  0  0  0  0  0  0
  -20.8490  -29.7500   21.6760 H   0  0  0  0  0  0  0  0  0  0  0  0
  -17.9550  -28.0610   22.9220 C   0  0  0  0  0  0  0  0  0  0  0  0
  -20.5210  -28.2740   23.1520 C   0  0  0  0  0  3  0  0  0  0  0  0
  -20.5960  -26.8490   22.5580 C   0  0  0  0  0  2  0  0  0  0  0  0
  -19.4700  -26.5540   21.5630 C   0  0  0  0  0  2  0  0  0  0  0  0
  -18.1000  -26.7170   22.2290 C   0  0  0  0  0  2  0  0  0  0  0  0
  -19.0930  -28.8000   23.3420 C   0  0  0  0  0  0  0  0  0  0  0  0
  -18.9050  -30.0600   23.9500 C   0  0  0  0  0  3  0  0  0  0  0  0
  -17.6120  -30.5810   24.1430 C   0  0  0  0  0  3  0  0  0  0  0  0
  -16.4880  -29.8380   23.7410 C   0  0  0  0  0  3  0  0  0  0  0  0
  -16.6620  -28.5800   23.1360 C   0  0  0  0  0  3  0  0  0  0  0  0
  -25.8020  -32.4440   23.7880 C   0  0  0  0  0  3  0  0  0  0  0  0
  -25.4830  -33.8360   24.1360 N   0  0  0  0  0  0  0  0  0  0  0  0
  -25.8000  -34.8980   23.3860 C   0  0  0  0  0  0  0  0  0  0  0  0
  -26.4630  -34.8130   22.3490 O   0  0  0  0  0  0  0  0  0  0  0  0
  -24.9020  -33.9780   24.9480 H   0  0  0  0  0  0  0  0  0  0  0  0
  -24.0590  -36.6780   23.0560 C   0  0  0  0  0  1  0  0  0  0  0  0
  -25.3030  -36.2750   23.8610 C   0  0  0  0  0  3  0  0  0  0  0  0
  -27.4250  -37.1650   24.7120 C   0  0  0  0  0  1  0  0  0  0  0  0
  -26.3250  -37.3390   23.7640 N   0  0  0  0  0  0  0  0  0  0  0  0
  -25.9100  -38.2510   23.9300 H   0  0  0  0  0  0  0  0  0  0  0  0
  -26.3400  -31.6660   25.0520 C   0  0  1  0  0  0  0  0  0  0  0  0
  -25.2550  -31.4030   26.1210 C   0  0  0  0  0  1  0  0  0  0  0  0
  -26.9440  -30.3010   24.6440 C   0  0  0  0  0  1  0  0  0  0  0  0
  -27.4780  -32.4720   25.7200 C   0  0  0  0  0  1  0  0  0  0  0  0
  1  3  1  0
  2  5  1  0
  2  4  2  0
  4  6  1  0
  5  1  2  0
  6 50  1  0
  6  3  2  0
  7  5  1  0
  7  8  1  0
  8 10  1  0
 10  9  1  0
 10 11  1  0
 12 20  1  0
 13 18  1  0
 14 15  1  0
 14 13  1  0
 16 15  1  0
 16 25  1  0
 16 17  1  0
 18 12  1  0
 18 17  1  0
 19 12  2  0
 20 11  1  0
 20 21  1  0
 22 23  2  0
 23 42  1  0
 24 23  1  0
 24 27  1  0
 25 22  1  0
 25 26  1  0
 26 24  2  0
 27 28  1  0
 28 29  2  0
 30 33  1  0
 30 29  1  0
 31 30  2  0
 32 31  1  0
 32 27  2  0
 33 34  1  0
 34 39  2  0
 34 35  1  0
 35 36  2  0
 36 37  1  0
 37 41  1  0
 38 37  2  0
 39 38  1  0
 40 39  1  0
 42 43  1  0
 43 46  1  0
 43 45  1  0
 44 42  2  0
 47 48  1  0
 47 22  1  0
 49 47  1  0
 50 52  1  0
 52 51  1  0
 53 52  1  0
 53 54  1  0
 55 66  2  0
 56 54  1  0
 56 61  1  0
 57 65  1  0
 57 67  1  0
 58 64  1  0
 58 60  1  0
 59 65  1  0
 60 61  2  0
 60 59  1  0
 62 63  1  0
 62 56  2  0
 63 58  2  0
 64 57  1  0
 65 55  1  0
 67 69  2  0
 68 67  1  0
 70 68  1  0
 71 80  2  0
 71 76  1  0
 72 68  1  0
 72 76  1  0
 73 72  1  0
 74 75  1  0
 74 73  1  0
 75 71  1  0
 76 77  2  0
 77 78  1  0
 79 78  2  0
 80 79  1  0
 81 55  1  0
 81 82  1  0
 81 91  1  0
 82 85  1  0
 83 87  1  0
 83 82  1  0
 84 83  2  0
 87 86  1  0
 89 87  1  0
 89 90  1  0
 89 88  1  0
 91 94  1  1
 91 92  1  0
 93 91  1  0
M  ISO  4  12 100  20 100  53 101  54 101
M  END
>  <TORSDO>  (40) 
F 23

>  <SCORE>  (40) 
-12.499

>  <name>  (40) 
39

>  <ligand_id>  (40) 
39

>  <original_smiles>  (40) 
[H]c1c([H])c([H])c2c(c1[H])C([H])([H])C([H])([H])C([H])([H])C2([H])N([H])C(=O)C1([H])N(C(=O)C([H])(N([H])C(=O)C([H])(N([H])C([H])([H])[H])C([H])([H])[H])C(C([H])([H])[H])(C([H])([H])[H])C([H])([H])[H])C([H])([H])c2c([H])c(OC([H])([H])C([H])(C([H])([H])[H])C([H])([H])c3c([H])c([H])c(C([H])([H])C([H])([H])C([H])(C([H])([H])[H])C([H])([H])N([H])C(=O)N4C([H])([H])C([H])([H])C([H])([H])C([H])(n5nc(-c6c([H])c([H])c(Oc7c([H])c([H])c(F)c([H])c7F)c([H])c6[H])c(C(=O)N([H])[H])c5N([H])[H])C4([H])[H])c([H])c3[H])c([H])c([H])c2C1([H])[H]

>  <smiles>  (40) 
[H]c1c([H])c([H])c2c(c1[H])C([H])([H])C([H])([H])C([H])([H])C2([H])N([H])C(=O)C1([H])N(C(=O)C([H])(N([H])C(=O)C([H])(N([H])C([H])([H])[H])C([H])([H])[H])C(C([H])([H])[H])(C([H])([H])[H])C([H])([H])[H])C([H])([H])c2c([H])c(OC([H])([H])C([H])(C([H])([H])[H])C([H])([H])c3c([H])c([H])c(C([H])([H])C([H])([H])C([H])(C([H])([H])[H])C([H])([H])N([H])C(=O)N4C([H])([H])C([H])([H])C([H])([H])C([H])(n5nc(-c6c([H])c([H])c(Oc7c([H])c([H])c(F)c([H])c7F)c([H])c6[H])c(C(=O)N([H])[H])c5N([H])[H])C4([H])[H])c([H])c3[H])c([H])c([H])c2C1([H])[H]

$$$$
40:0:0
     RDKit          3D

 90 98  0  0  1  0  0  0  0  0999 V2000
  -29.6030  -20.6310   20.7670 C   0  0  0  0  0  3  0  0  0  0  0  0
  -29.5470  -22.0550   20.5320 C   0  0  0  0  0  0  0  0  0  0  0  0
  -30.3070  -22.7870   21.5740 C   0  0  0  0  0  0  0  0  0  0  0  0
  -31.4600  -23.1860   21.3840 O   0  0  0  0  0  0  0  0  0  0  0  0
  -29.8060  -24.3940   23.5340 C   0  0  0  0  0  2  0  0  0  0  0  0
  -28.4710  -23.9640   22.9810 C   0  0  0  0  0  2  0  0  0  0  0  0
  -29.6540  -23.0210   22.9130 C   0  0  0  0  0  3  0  0  0  0  0  0
  -29.1470  -19.1300   20.2730 C   0  0  0  0  0  3  0  0  0  0  0  0
  -30.0980  -17.7540   20.6030 C   0  0  0  0  0  3  0  0  0  0  0  0
  -30.4950  -15.0270   20.2840 C   0  0  0  0  0  0  0  0  0  0  0  0
  -30.3720  -12.6710   19.3430 C   0  0  0  0  0  2  0  0  0  0  0  0
  -29.4200  -12.6080   18.1260 C   0  0  0  0  0  2  0  0  0  0  0  0
  -27.9650  -12.3930   18.5820 C   0  0  0  0  0  2  0  0  0  0  0  0
  -27.5690  -13.3220   19.7600 C   0  0  0  0  0  3  0  0  0  0  0  0
  -28.6400  -13.3490   20.8680 C   0  0  0  0  0  2  0  0  0  0  0  0
  -29.8960  -13.7690   20.2320 N   0  0  0  0  0  0  0  0  0  0  0  0
  -31.7030  -15.0820   20.0300 O   0  0  0  0  0  0  0  0  0  0  0  0
  -29.7220  -16.2200   20.4210 N   0  0  0  0  0  0  0  0  0  0  0  0
  -28.7360  -16.0300   20.5220 H   0  0  0  0  0  0  0  0  0  0  0  0
  -25.2020  -13.8940   20.5450 C   0  0  0  0  0  0  0  0  0  0  0  0
  -24.1440  -13.1150   20.9260 C   0  0  0  0  0  0  0  0  0  0  0  0
  -24.6100  -11.7640   20.8790 C   0  0  0  0  0  0  0  0  0  0  0  0
  -26.2410  -13.0170   20.2820 N   0  0  0  0  0  0  0  0  0  0  0  0
  -25.8960  -11.7320   20.5490 N   0  0  0  0  0  0  0  0  0  0  0  0
  -23.8860  -10.5000   21.0710 C   0  0  0  0  0  0  0  0  0  0  0  0
  -24.3330   -9.5250   21.9900 C   0  0  0  0  0  3  0  0  0  0  0  0
  -23.6070   -8.3270   22.1690 C   0  0  0  0  0  3  0  0  0  0  0  0
  -22.4220   -8.0960   21.4320 C   0  0  0  0  0  0  0  0  0  0  0  0
  -21.9960   -9.0600   20.5010 C   0  0  0  0  0  3  0  0  0  0  0  0
  -22.7210  -10.2500   20.3190 C   0  0  0  0  0  3  0  0  0  0  0  0
  -21.6670   -6.9520   21.5220 O   0  0  0  0  0  0  0  0  0  0  0  0
  -21.6450   -6.1930   22.6650 C   0  0  0  0  0  0  0  0  0  0  0  0
  -21.2560   -6.7340   23.9100 C   0  0  0  0  0  3  0  0  0  0  0  0
  -21.1790   -5.9030   25.0450 C   0  0  0  0  0  3  0  0  0  0  0  0
  -21.4820   -4.5320   24.9370 C   0  0  0  0  0  0  0  0  0  0  0  0
  -21.8630   -3.9900   23.6960 C   0  0  0  0  0  3  0  0  0  0  0  0
  -21.9410   -4.8190   22.5630 C   0  0  0  0  0  0  0  0  0  0  0  0
  -22.2890   -4.2890   21.3670 F   0  0  0  0  0  0  0  0  0  0  0  0
  -21.4000   -3.7320   26.0260 F   0  0  0  0  0  0  0  0  0  0  0  0
  -22.7510  -13.5890   21.2190 C   0  0  0  0  0  0  0  0  0  0  0  0
  -22.0370  -12.8920   22.0930 N   0  0  0  0  0  0  0  0  0  0  0  0
  -22.3050  -14.6140   20.7050 O   0  0  0  0  0  0  0  0  0  0  0  0
  -22.4110  -12.0620   22.5310 H   0  0  0  0  0  0  0  0  0  0  0  0
  -21.1020  -13.1910   22.3310 H   0  0  0  0  0  0  0  0  0  0  0  0
  -25.3580  -15.2660   20.3720 N   0  0  0  0  0  0  0  0  0  0  0  0
  -24.5870  -15.9110   20.4940 H   0  0  0  0  0  0  0  0  0  0  0  0
  -26.1860  -15.7080   19.9940 H   0  0  0  0  0  0  0  0  0  0  0  0
  -28.9480  -23.1970   19.4890 C   0  0  0  0  0  2  0  0  0  0  0  0
  -28.2330  -24.6820   19.9700 C   0  0  0  0  0  2  0  0  0  0  0  0
  -28.3120  -26.1210   19.3600 O   0  0  0  0  0  0  0  0  0  0  0  0
  -24.7430  -31.5670   22.8850 C   0  0  0  0  0  0  0  0  0  0  0  0
  -27.2310  -27.0730   19.4710 C   0  0  0  0  0  0  0  0  0  0  0  0
  -23.4750  -30.2290   21.2480 C   0  0  0  0  0  3  0  0  0  0  0  0
  -24.8690  -28.7610   19.6630 C   0  0  0  0  0  0  0  0  0  0  0  0
  -26.0090  -30.5650   20.9460 C   0  0  0  0  0  2  0  0  0  0  0  0
  -26.0740  -29.2070   20.2220 C   0  0  0  0  0  0  0  0  0  0  0  0
  -27.2580  -28.3820   20.1040 C   0  0  0  0  0  3  0  0  0  0  0  0
  -25.9960  -26.7300   18.8820 C   0  0  0  0  0  3  0  0  0  0  0  0
  -24.8420  -27.5370   18.9770 C   0  0  0  0  0  3  0  0  0  0  0  0
  -23.6290  -29.6270   19.8270 C   0  0  0  0  0  2  0  0  0  0  0  0
  -24.7650  -30.8060   21.7480 N   0  0  0  0  0  0  0  0  0  0  0  0
  -23.6840  -31.7970   23.4900 O   0  0  0  0  0  0  0  0  0  0  0  0
  -22.8770  -29.1590   22.1960 C   0  0  0  0  0  0  0  0  0  0  0  0
  -21.5520  -28.9450   22.1200 N   0  0  0  0  0  0  0  0  0  0  0  0
  -23.6080  -28.5230   22.9610 O   0  0  0  0  0  0  0  0  0  0  0  0
  -21.0160  -29.5110   21.4780 H   0  0  0  0  0  0  0  0  0  0  0  0
  -18.2450  -27.5850   22.7030 C   0  0  0  0  0  0  0  0  0  0  0  0
  -20.7990  -27.9470   22.8860 C   0  0  0  0  0  3  0  0  0  0  0  0
  -20.9370  -26.5420   22.2560 C   0  0  0  0  0  2  0  0  0  0  0  0
  -19.8120  -26.2080   21.2700 C   0  0  0  0  0  2  0  0  0  0  0  0
  -18.4510  -26.2710   21.9690 C   0  0  0  0  0  2  0  0  0  0  0  0
  -19.3460  -28.3800   23.1200 C   0  0  0  0  0  0  0  0  0  0  0  0
  -19.0960  -29.6080   23.7690 C   0  0  0  0  0  3  0  0  0  0  0  0
  -17.7780  -30.0430   24.0040 C   0  0  0  0  0  3  0  0  0  0  0  0
  -16.6930  -29.2470   23.6020 C   0  0  0  0  0  3  0  0  0  0  0  0
  -16.9260  -28.0200   22.9580 C   0  0  0  0  0  3  0  0  0  0  0  0
  -26.0420  -32.2010   23.4690 C   0  0  0  0  0  3  0  0  0  0  0  0
  -25.6960  -33.5340   23.9900 N   0  0  0  0  0  0  0  0  0  0  0  0
  -25.9300  -34.6880   23.3520 C   0  0  0  0  0  0  0  0  0  0  0  0
  -26.5280  -34.7450   22.2740 O   0  0  0  0  0  0  0  0  0  0  0  0
  -25.1540  -33.5580   24.8410 H   0  0  0  0  0  0  0  0  0  0  0  0
  -24.1150  -36.4320   23.3440 C   0  0  0  0  0  1  0  0  0  0  0  0
  -25.4250  -35.9860   24.0140 C   0  0  0  0  0  3  0  0  0  0  0  0
  -27.5780  -36.8600   24.8100 C   0  0  0  0  0  1  0  0  0  0  0  0
  -26.4060  -37.0920   23.9690 N   0  0  0  0  0  0  0  0  0  0  0  0
  -25.9760  -37.9670   24.2580 H   0  0  0  0  0  0  0  0  0  0  0  0
  -26.7040  -31.3240   24.6020 C   0  0  1  0  0  0  0  0  0  0  0  0
  -25.7250  -30.9170   25.7280 C   0  0  0  0  0  1  0  0  0  0  0  0
  -27.3060  -30.0270   24.0140 C   0  0  0  0  0  1  0  0  0  0  0  0
  -27.8770  -32.1000   25.2470 C   0  0  0  0  0  1  0  0  0  0  0  0
  2  1  2  0
  2  3  1  0
  3  7  1  0
  4  3  2  0
  6  5  1  0
  7  6  1  0
  7  5  1  0
  8  9  2  0
  8  1  1  0
 10 18  1  0
 11 16  1  0
 12 13  1  0
 12 11  1  0
 14 13  1  0
 14 23  1  0
 14 15  1  0
 16 10  1  0
 16 15  1  0
 17 10  2  0
 18 19  1  0
 18  9  1  0
 20 21  2  0
 21 40  1  0
 22 21  1  0
 22 25  1  0
 23 20  1  0
 23 24  1  0
 24 22  2  0
 25 26  1  0
 26 27  2  0
 28 31  1  0
 28 27  1  0
 29 28  2  0
 30 29  1  0
 30 25  2  0
 31 32  1  0
 32 33  1  0
 33 34  2  0
 35 34  1  0
 35 39  1  0
 36 35  2  0
 37 32  2  0
 37 36  1  0
 38 37  1  0
 40 41  1  0
 41 44  1  0
 41 43  1  0
 42 40  2  0
 45 46  1  0
 45 20  1  0
 47 45  1  0
 48 49  1  0
 48  2  1  0
 50 52  1  0
 50 49  1  0
 51 62  2  0
 52 57  1  0
 53 61  1  0
 53 63  1  0
 54 60  1  0
 54 56  1  0
 55 61  1  0
 56 55  1  0
 57 56  2  0
 58 59  1  0
 58 52  2  0
 59 54  2  0
 60 53  1  0
 61 51  1  0
 63 65  2  0
 64 63  1  0
 66 64  1  0
 67 76  2  0
 67 72  1  0
 68 64  1  0
 68 72  1  0
 69 68  1  0
 70 71  1  0
 70 69  1  0
 71 67  1  0
 72 73  2  0
 73 74  1  0
 75 74  2  0
 76 75  1  0
 77 51  1  0
 77 78  1  0
 77 87  1  0
 78 81  1  0
 79 78  1  0
 79 83  1  0
 80 79  2  0
 83 82  1  0
 85 83  1  0
 85 86  1  0
 85 84  1  0
 87 90  1  1
 87 88  1  0
 89 87  1  0
M  ISO  4  10 100  18 100  49 101  50 101
M  END
>  <TORSDO>  (41) 
F 22

>  <SCORE>  (41) 
-12.920

>  <name>  (41) 
40

>  <ligand_id>  (41) 
40

>  <original_smiles>  (41) 
[H]C(=C(C(=O)C1([H])C([H])([H])C1([H])[H])C([H])([H])C([H])([H])Oc1c([H])c([H])c2c(c1[H])C([H])([H])N(C(=O)C([H])(N([H])C(=O)C([H])(N([H])C([H])([H])[H])C([H])([H])[H])C(C([H])([H])[H])(C([H])([H])[H])C([H])([H])[H])C([H])(C(=O)N([H])C1([H])c3c([H])c([H])c([H])c([H])c3C([H])([H])C([H])([H])C1([H])[H])C2([H])[H])C([H])([H])C([H])([H])N([H])C(=O)N1C([H])([H])C([H])([H])C([H])([H])C([H])(n2nc(-c3c([H])c([H])c(Oc4c([H])c([H])c(F)c([H])c4F)c([H])c3[H])c(C(=O)N([H])[H])c2N([H])[H])C1([H])[H]

>  <smiles>  (41) 
[H]C(=C(C(=O)C1([H])C([H])([H])C1([H])[H])C([H])([H])C([H])([H])Oc1c([H])c([H])c2c(c1[H])C([H])([H])N(C(=O)C([H])(N([H])C(=O)C([H])(N([H])C([H])([H])[H])C([H])([H])[H])C(C([H])([H])[H])(C([H])([H])[H])C([H])([H])[H])C([H])(C(=O)N([H])C1([H])c3c([H])c([H])c([H])c([H])c3C([H])([H])C([H])([H])C1([H])[H])C2([H])[H])C([H])([H])C([H])([H])N([H])C(=O)N1C([H])([H])C([H])([H])C([H])([H])C([H])(n2nc(-c3c([H])c([H])c(Oc4c([H])c([H])c(F)c([H])c4F)c([H])c3[H])c(C(=O)N([H])[H])c2N([H])[H])C1([H])[H]

$$$$
41:0:0
     RDKit          3D

 91 99  0  0  1  0  0  0  0  0999 V2000
  -29.6940  -19.6340   19.5720 C   0  0  0  0  0  2  0  0  0  0  0  0
  -29.2210  -20.8640   20.4780 C   0  0  0  0  0  3  0  0  0  0  0  0
  -29.4580  -22.3210   19.8720 C   0  0  0  0  0  3  0  0  0  0  0  0
  -28.9140  -23.6370   20.6310 C   0  0  0  0  0  2  0  0  0  0  0  0
  -27.9560  -24.8140   20.0900 C   0  0  0  0  0  2  0  0  0  0  0  0
  -28.2360  -26.2500   20.3300 O   0  0  0  0  0  0  0  0  0  0  0  0
  -24.6180  -31.8030   23.1840 C   0  0  0  0  0  0  0  0  0  0  0  0
  -27.1410  -27.1290   20.2390 C   0  0  0  0  0  0  0  0  0  0  0  0
  -23.3830  -30.3820   21.5900 C   0  0  0  0  0  3  0  0  0  0  0  0
  -24.7990  -28.7780   20.1990 C   0  0  0  0  0  0  0  0  0  0  0  0
  -25.9270  -30.6550   21.3890 C   0  0  0  0  0  2  0  0  0  0  0  0
  -25.9810  -29.2610   20.7760 C   0  0  0  0  0  0  0  0  0  0  0  0
  -27.1540  -28.4490   20.7890 C   0  0  0  0  0  3  0  0  0  0  0  0
  -25.9360  -26.7080   19.6230 C   0  0  0  0  0  3  0  0  0  0  0  0
  -24.7800  -27.5060   19.6140 C   0  0  0  0  0  3  0  0  0  0  0  0
  -23.5780  -29.6720   20.2270 C   0  0  0  0  0  2  0  0  0  0  0  0
  -24.6620  -30.9640   22.1110 N   0  0  0  0  0  0  0  0  0  0  0  0
  -23.5420  -32.1150   23.7160 O   0  0  0  0  0  0  0  0  0  0  0  0
  -22.7090  -29.4010   22.5790 C   0  0  0  0  0  0  0  0  0  0  0  0
  -21.3950  -29.1780   22.4070 N   0  0  0  0  0  0  0  0  0  0  0  0
  -23.3690  -28.8410   23.4580 O   0  0  0  0  0  0  0  0  0  0  0  0
  -20.9230  -29.6810   21.6690 H   0  0  0  0  0  0  0  0  0  0  0  0
  -18.0400  -27.8870   22.8030 C   0  0  0  0  0  0  0  0  0  0  0  0
  -20.5670  -28.2650   23.1970 C   0  0  0  0  0  3  0  0  0  0  0  0
  -20.7540  -26.8030   22.7310 C   0  0  0  0  0  2  0  0  0  0  0  0
  -19.7240  -26.3650   21.6830 C   0  0  0  0  0  2  0  0  0  0  0  0
  -18.3030  -26.5020   22.2370 C   0  0  0  0  0  2  0  0  0  0  0  0
  -19.1040  -28.7210   23.2370 C   0  0  0  0  0  0  0  0  0  0  0  0
  -18.8050  -30.0130   23.7230 C   0  0  0  0  0  3  0  0  0  0  0  0
  -17.4760  -30.4730   23.7780 C   0  0  0  0  0  3  0  0  0  0  0  0
  -16.4260  -29.6380   23.3610 C   0  0  0  0  0  3  0  0  0  0  0  0
  -16.7080  -28.3460   22.8780 C   0  0  0  0  0  3  0  0  0  0  0  0
  -25.9150  -32.4290   23.7840 C   0  0  0  0  0  3  0  0  0  0  0  0
  -25.6100  -33.8220   24.1380 N   0  0  0  0  0  0  0  0  0  0  0  0
  -25.9000  -34.8830   23.3730 C   0  0  0  0  0  0  0  0  0  0  0  0
  -26.5210  -34.7920   22.3120 O   0  0  0  0  0  0  0  0  0  0  0  0
  -25.0550  -33.9650   24.9690 H   0  0  0  0  0  0  0  0  0  0  0  0
  -24.1350  -36.6580   23.1220 C   0  0  0  0  0  1  0  0  0  0  0  0
  -25.4240  -36.2640   23.8630 C   0  0  0  0  0  3  0  0  0  0  0  0
  -27.5890  -37.1700   24.5840 C   0  0  0  0  0  1  0  0  0  0  0  0
  -26.4380  -37.3270   23.6990 N   0  0  0  0  0  0  0  0  0  0  0  0
  -26.0310  -38.2430   23.8680 H   0  0  0  0  0  0  0  0  0  0  0  0
  -26.4600  -31.6410   25.0380 C   0  0  1  0  0  0  0  0  0  0  0  0
  -25.3880  -31.3750   26.1200 C   0  0  0  0  0  1  0  0  0  0  0  0
  -27.0500  -30.2770   24.6140 C   0  0  0  0  0  1  0  0  0  0  0  0
  -27.6150  -32.4370   25.6920 C   0  0  0  0  0  1  0  0  0  0  0  0
  -29.2080  -18.1110   19.7640 C   0  0  0  0  0  3  0  0  0  0  0  0
  -25.3580  -18.1540   19.4480 C   0  0  0  0  0  2  0  0  0  0  0  0
  -25.5750  -16.8260   20.1830 C   0  0  0  0  0  2  0  0  0  0  0  0
  -26.7520  -18.7350   19.1920 C   0  0  0  0  0  2  0  0  0  0  0  0
  -27.0910  -16.6150   20.2300 C   0  0  0  0  0  2  0  0  0  0  0  0
  -27.7060  -18.0200   20.1720 C   0  0  0  0  0  3  0  0  0  0  0  0
  -30.1990  -17.1280   20.5480 C   0  0  0  0  0  2  0  0  0  0  0  0
  -30.6040  -14.5670   20.3470 C   0  0  0  0  0  0  0  0  0  0  0  0
  -30.3860  -12.3050   19.3460 C   0  0  0  0  0  2  0  0  0  0  0  0
  -29.4330  -12.3820   18.1320 C   0  0  0  0  0  2  0  0  0  0  0  0
  -27.9670  -12.2190   18.5790 C   0  0  0  0  0  2  0  0  0  0  0  0
  -27.6050  -13.1190   19.7900 C   0  0  0  0  0  3  0  0  0  0  0  0
  -28.6730  -13.0270   20.9020 C   0  0  0  0  0  2  0  0  0  0  0  0
  -29.9730  -13.3530   20.2980 N   0  0  0  0  0  0  0  0  0  0  0  0
  -31.7720  -14.6960   19.9700 O   0  0  0  0  0  0  0  0  0  0  0  0
  -29.8310  -15.6630   20.6240 N   0  0  0  0  0  0  0  0  0  0  0  0
  -28.8740  -15.4660   20.8740 H   0  0  0  0  0  0  0  0  0  0  0  0
  -25.2470  -13.7150   20.6130 C   0  0  0  0  0  0  0  0  0  0  0  0
  -24.1740  -12.9430   20.9650 C   0  0  0  0  0  0  0  0  0  0  0  0
  -24.6020  -11.5870   20.8240 C   0  0  0  0  0  0  0  0  0  0  0  0
  -26.2660  -12.8320   20.2940 N   0  0  0  0  0  0  0  0  0  0  0  0
  -25.8830  -11.5430   20.4790 N   0  0  0  0  0  0  0  0  0  0  0  0
  -23.8480  -10.3330   20.9370 C   0  0  0  0  0  0  0  0  0  0  0  0
  -24.3250   -9.2530   21.7110 C   0  0  0  0  0  3  0  0  0  0  0  0
  -23.5720   -8.0630   21.8200 C   0  0  0  0  0  3  0  0  0  0  0  0
  -22.3280   -7.9480   21.1540 C   0  0  0  0  0  0  0  0  0  0  0  0
  -21.8690   -9.0170   20.3670 C   0  0  0  0  0  3  0  0  0  0  0  0
  -22.6220  -10.1990   20.2550 C   0  0  0  0  0  3  0  0  0  0  0  0
  -21.5390   -6.8220   21.1850 O   0  0  0  0  0  0  0  0  0  0  0  0
  -21.6050   -5.9270   22.2210 C   0  0  0  0  0  0  0  0  0  0  0  0
  -21.3480   -6.3090   23.5560 C   0  0  0  0  0  3  0  0  0  0  0  0
  -21.3590   -5.3410   24.5810 C   0  0  0  0  0  3  0  0  0  0  0  0
  -21.6150   -3.9910   24.2730 C   0  0  0  0  0  0  0  0  0  0  0  0
  -21.8650   -3.6070   22.9440 C   0  0  0  0  0  3  0  0  0  0  0  0
  -21.8580   -4.5720   21.9210 C   0  0  0  0  0  0  0  0  0  0  0  0
  -22.0780   -4.1940   20.6390 F   0  0  0  0  0  0  0  0  0  0  0  0
  -21.6170   -3.0600   25.2550 F   0  0  0  0  0  0  0  0  0  0  0  0
  -22.7980  -13.4340   21.3110 C   0  0  0  0  0  0  0  0  0  0  0  0
  -22.0900  -12.7090   22.1690 N   0  0  0  0  0  0  0  0  0  0  0  0
  -22.3630  -14.4920   20.8590 O   0  0  0  0  0  0  0  0  0  0  0  0
  -22.4560  -11.8530   22.5590 H   0  0  0  0  0  0  0  0  0  0  0  0
  -21.1670  -13.0130   22.4440 H   0  0  0  0  0  0  0  0  0  0  0  0
  -25.4270  -15.0900   20.5110 N   0  0  0  0  0  0  0  0  0  0  0  0
  -24.6760  -15.7420   20.7020 H   0  0  0  0  0  0  0  0  0  0  0  0
  -26.2520  -15.5440   20.1440 H   0  0  0  0  0  0  0  0  0  0  0  0
  1  2  1  0
  3  2  2  0
  3  4  1  0
  5  6  1  0
  5  4  1  0
  7 18  2  0
  8  6  1  0
  8 13  1  0
  9 17  1  0
  9 19  1  0
 10 16  1  0
 10 12  1  0
 11 17  1  0
 12 13  2  0
 12 11  1  0
 14  8  2  0
 15 14  1  0
 15 10  2  0
 16  9  1  0
 17  7  1  0
 19 21  2  0
 20 19  1  0
 22 20  1  0
 23 32  2  0
 23 28  1  0
 24 20  1  0
 24 28  1  0
 25 24  1  0
 26 27  1  0
 26 25  1  0
 27 23  1  0
 28 29  2  0
 29 30  1  0
 31 30  2  0
 32 31  1  0
 33  7  1  0
 33 34  1  0
 33 43  1  0
 34 37  1  0
 35 39  1  0
 35 34  1  0
 36 35  2  0
 39 38  1  0
 41 39  1  0
 41 42  1  0
 41 40  1  0
 43 46  1  1
 43 44  1  0
 45 43  1  0
 47  1  1  0
 47 52  1  0
 47 53  1  0
 48 49  1  0
 49 51  1  0
 50 48  1  0
 50 52  1  0
 52 51  1  0
 53 62  1  0
 54 62  1  0
 55 60  1  0
 56 57  1  0
 56 55  1  0
 58 57  1  0
 58 67  1  0
 58 59  1  0
 60 54  1  0
 60 59  1  0
 61 54  2  0
 62 63  1  0
 64 65  2  0
 65 84  1  0
 66 69  1  0
 66 65  1  0
 67 68  1  0
 67 64  1  0
 68 66  2  0
 69 70  1  0
 70 71  2  0
 72 75  1  0
 72 71  1  0
 73 72  2  0
 74 73  1  0
 74 69  2  0
 75 76  1  0
 76 77  1  0
 77 78  2  0
 79 78  1  0
 79 83  1  0
 80 79  2  0
 81 76  2  0
 81 80  1  0
 82 81  1  0
 84 85  1  0
 85 88  1  0
 85 87  1  0
 86 84  2  0
 89 64  1  0
 89 90  1  0
 91 89  1  0
M  ISO  4   5 101   6 101  54 100  62 100
M  END
>  <TORSDO>  (42) 
F 23

>  <SCORE>  (42) 
-11.887

>  <name>  (42) 
41

>  <ligand_id>  (42) 
41

>  <original_smiles>  (42) 
[H]c1c([H])c([H])c2c(c1[H])C([H])([H])C([H])([H])C([H])([H])C2([H])N([H])C(=O)C1([H])N(C(=O)C([H])(N([H])C(=O)C([H])(N([H])C([H])([H])[H])C([H])([H])[H])C(C([H])([H])[H])(C([H])([H])[H])C([H])([H])[H])C([H])([H])c2c([H])c(OC([H])([H])C([H])([H])C([H])([H])C([H])([H])C([H])([H])C([H])(C([H])([H])N([H])C(=O)N3C([H])([H])C([H])([H])C([H])([H])C([H])(n4nc(-c5c([H])c([H])c(Oc6c([H])c([H])c(F)c([H])c6F)c([H])c5[H])c(C(=O)N([H])[H])c4N([H])[H])C3([H])[H])C3([H])C([H])([H])C([H])([H])C([H])([H])C3([H])[H])c([H])c([H])c2C1([H])[H]

>  <smiles>  (42) 
[H]c1c([H])c([H])c2c(c1[H])C([H])([H])C([H])([H])C([H])([H])C2([H])N([H])C(=O)C1([H])N(C(=O)C([H])(N([H])C(=O)C([H])(N([H])C([H])([H])[H])C([H])([H])[H])C(C([H])([H])[H])(C([H])([H])[H])C([H])([H])[H])C([H])([H])c2c([H])c(OC([H])([H])C([H])([H])C([H])([H])C([H])([H])C([H])([H])C([H])(C([H])([H])N([H])C(=O)N3C([H])([H])C([H])([H])C([H])([H])C([H])(n4nc(-c5c([H])c([H])c(Oc6c([H])c([H])c(F)c([H])c6F)c([H])c5[H])c(C(=O)N([H])[H])c4N([H])[H])C3([H])[H])C3([H])C([H])([H])C([H])([H])C([H])([H])C3([H])[H])c([H])c([H])c2C1([H])[H]

$$$$
42:0:0
     RDKit          3D

 97105  0  0  1  0  0  0  0  0999 V2000
  -32.9150  -20.5400   21.9180 C   0  0  0  0  0  2  0  0  0  0  0  0
  -31.9870  -20.5100   23.1440 C   0  0  0  0  0  2  0  0  0  0  0  0
  -30.5860  -20.5470   21.2150 C   0  0  0  0  0  3  0  0  0  0  0  0
  -32.0230  -20.6970   20.6710 C   0  0  0  0  0  3  0  0  0  0  0  0
  -30.6190  -20.8340   22.6730 N   0  0  2  0  0  4  0  0  0  0  0  0
  -29.9620  -20.2440   23.1640 H   0  0  0  0  0  0  0  0  0  0  0  0
  -29.8470  -19.2350   20.8580 C   0  0  0  0  0  0  0  0  0  0  0  0
  -28.7880  -19.2650   20.1640 N   0  0  0  0  0  0  0  0  0  0  0  0
  -28.5270  -20.1970   19.8680 H   0  0  0  0  0  0  0  0  0  0  0  0
  -30.3580  -17.8730   21.3490 C   0  0  0  0  0  2  0  0  0  0  0  0
  -30.5830  -16.8680   20.1990 C   0  0  0  0  0  2  0  0  0  0  0  0
  -30.9300  -14.4150   20.0580 C   0  0  0  0  0  0  0  0  0  0  0  0
  -30.5240  -12.2540   18.9640 C   0  0  0  0  0  2  0  0  0  0  0  0
  -29.5590  -12.4780   17.7850 C   0  0  0  0  0  2  0  0  0  0  0  0
  -28.0930  -12.3890   18.2490 C   0  0  0  0  0  2  0  0  0  0  0  0
  -27.8080  -13.2370   19.5190 C   0  0  0  0  0  3  0  0  0  0  0  0
  -28.8940  -13.0280   20.5970 C   0  0  0  0  0  2  0  0  0  0  0  0
  -30.2120  -13.2620   19.9880 N   0  0  0  0  0  0  0  0  0  0  0  0
  -32.0440  -14.5560   19.5470 O   0  0  0  0  0  0  0  0  0  0  0  0
  -30.2710  -15.4730   20.5420 N   0  0  0  0  0  0  0  0  0  0  0  0
  -29.3420  -15.2790   20.8900 H   0  0  0  0  0  0  0  0  0  0  0  0
  -25.4320  -13.8760   20.2900 C   0  0  0  0  0  0  0  0  0  0  0  0
  -24.3660  -13.1210   20.6890 C   0  0  0  0  0  0  0  0  0  0  0  0
  -24.8070  -11.7640   20.6670 C   0  0  0  0  0  0  0  0  0  0  0  0
  -26.4650  -12.9830   20.0430 N   0  0  0  0  0  0  0  0  0  0  0  0
  -26.0890  -11.7080   20.3250 N   0  0  0  0  0  0  0  0  0  0  0  0
  -24.0760  -10.5120   20.8940 C   0  0  0  0  0  0  0  0  0  0  0  0
  -24.5090   -9.5630   21.8470 C   0  0  0  0  0  3  0  0  0  0  0  0
  -23.7760   -8.3760   22.0590 C   0  0  0  0  0  3  0  0  0  0  0  0
  -22.5940   -8.1270   21.3190 C   0  0  0  0  0  0  0  0  0  0  0  0
  -22.1820   -9.0650   20.3570 C   0  0  0  0  0  3  0  0  0  0  0  0
  -22.9150  -10.2450   20.1420 C   0  0  0  0  0  3  0  0  0  0  0  0
  -21.8320   -6.9920   21.4400 O   0  0  0  0  0  0  0  0  0  0  0  0
  -21.7730   -6.2860   22.6170 C   0  0  0  0  0  0  0  0  0  0  0  0
  -21.3370   -6.8810   23.8200 C   0  0  0  0  0  3  0  0  0  0  0  0
  -21.2240   -6.1020   24.9900 C   0  0  0  0  0  3  0  0  0  0  0  0
  -21.5350   -4.7300   24.9570 C   0  0  0  0  0  0  0  0  0  0  0  0
  -21.9640   -4.1350   23.7550 C   0  0  0  0  0  3  0  0  0  0  0  0
  -22.0780   -4.9120   22.5890 C   0  0  0  0  0  0  0  0  0  0  0  0
  -22.4720   -4.3260   21.4320 F   0  0  0  0  0  0  0  0  0  0  0  0
  -21.4200   -3.9800   26.0780 F   0  0  0  0  0  0  0  0  0  0  0  0
  -22.9790  -13.6140   21.0020 C   0  0  0  0  0  0  0  0  0  0  0  0
  -22.2690  -12.9390   21.8970 N   0  0  0  0  0  0  0  0  0  0  0  0
  -22.5380  -14.6360   20.4780 O   0  0  0  0  0  0  0  0  0  0  0  0
  -22.6400  -12.1130   22.3430 H   0  0  0  0  0  0  0  0  0  0  0  0
  -21.3420  -13.2550   22.1420 H   0  0  0  0  0  0  0  0  0  0  0  0
  -25.6000  -15.2430   20.0860 N   0  0  0  0  0  0  0  0  0  0  0  0
  -24.8390  -15.9030   20.2130 H   0  0  0  0  0  0  0  0  0  0  0  0
  -26.4450  -15.6760   19.7290 H   0  0  0  0  0  0  0  0  0  0  0  0
  -33.5500  -22.2870   19.2800 C   0  0  0  0  0  1  0  0  0  0  0  0
  -32.1880  -22.0580   19.9430 C   0  0  0  0  0  2  0  0  0  0  0  0
  -30.2440  -22.2390   23.0130 C   0  0  0  0  0  2  0  0  0  0  0  0
  -28.7780  -22.6080   22.6980 C   0  0  0  0  0  2  0  0  0  0  0  0
  -28.5710  -24.1270   22.6110 C   0  0  0  0  0  2  0  0  0  0  0  0
  -28.9360  -24.7710   21.2520 C   0  0  0  0  0  2  0  0  0  0  0  0
  -27.9630  -25.9180   20.9780 C   0  0  0  0  0  2  0  0  0  0  0  0
  -28.2630  -26.7900   19.8760 O   0  0  0  0  0  0  0  0  0  0  0  0
  -24.5770  -31.8420   23.1420 C   0  0  0  0  0  0  0  0  0  0  0  0
  -27.1940  -27.6380   19.7570 C   0  0  0  0  0  0  0  0  0  0  0  0
  -23.3620  -30.5440   21.4210 C   0  0  0  0  0  3  0  0  0  0  0  0
  -24.8120  -29.1330   19.8590 C   0  0  0  0  0  0  0  0  0  0  0  0
  -25.8810  -30.9360   21.2250 C   0  0  0  0  0  2  0  0  0  0  0  0
  -25.9700  -29.6210   20.4820 C   0  0  0  0  0  0  0  0  0  0  0  0
  -27.1700  -28.8740   20.4360 C   0  0  0  0  0  3  0  0  0  0  0  0
  -26.0320  -27.1740   19.1080 C   0  0  0  0  0  3  0  0  0  0  0  0
  -24.8400  -27.9170   19.1560 C   0  0  0  0  0  3  0  0  0  0  0  0
  -23.5600  -29.9640   19.9900 C   0  0  0  0  0  2  0  0  0  0  0  0
  -24.6240  -31.1120   21.9910 N   0  0  0  0  0  0  0  0  0  0  0  0
  -23.5000  -32.0750   23.7090 O   0  0  0  0  0  0  0  0  0  0  0  0
  -22.7280  -29.4570   22.3190 C   0  0  0  0  0  0  0  0  0  0  0  0
  -21.3990  -29.3000   22.2130 N   0  0  0  0  0  0  0  0  0  0  0  0
  -23.4260  -28.7640   23.0640 O   0  0  0  0  0  0  0  0  0  0  0  0
  -20.9010  -29.9070   21.5800 H   0  0  0  0  0  0  0  0  0  0  0  0
  -18.0140  -28.1540   22.7520 C   0  0  0  0  0  0  0  0  0  0  0  0
  -20.5900  -28.3190   22.9310 C   0  0  0  0  0  3  0  0  0  0  0  0
  -20.6270  -26.9460   22.2210 C   0  0  0  0  0  2  0  0  0  0  0  0
  -19.4740  -26.7460   21.2340 C   0  0  0  0  0  2  0  0  0  0  0  0
  -18.1240  -26.8670   21.9490 C   0  0  0  0  0  2  0  0  0  0  0  0
  -19.1730  -28.8440   23.1990 C   0  0  0  0  0  0  0  0  0  0  0  0
  -19.0210  -30.0540   23.9100 C   0  0  0  0  0  3  0  0  0  0  0  0
  -17.7430  -30.5740   24.1790 C   0  0  0  0  0  3  0  0  0  0  0  0
  -16.5980  -29.8790   23.7520 C   0  0  0  0  0  3  0  0  0  0  0  0
  -16.7340  -28.6710   23.0440 C   0  0  0  0  0  3  0  0  0  0  0  0
  -25.8680  -32.4390   23.7850 C   0  0  0  0  0  3  0  0  0  0  0  0
  -26.3930  -31.5980   25.0120 C   0  0  1  0  0  0  0  0  0  0  0  0
  -25.3050  -31.3020   26.0720 C   0  0  0  0  0  1  0  0  0  0  0  0
  -26.9740  -30.2440   24.5380 C   0  0  0  0  0  1  0  0  0  0  0  0
  -27.5520  -32.3520   25.7090 C   0  0  0  0  0  1  0  0  0  0  0  0
  -25.5630  -33.8180   24.1920 N   0  0  0  0  0  0  0  0  0  0  0  0
  -25.9060  -34.9090   23.4910 C   0  0  0  0  0  0  0  0  0  0  0  0
  -26.5830  -34.8570   22.4620 O   0  0  0  0  0  0  0  0  0  0  0  0
  -24.9670  -33.9310   24.9980 H   0  0  0  0  0  0  0  0  0  0  0  0
  -24.1930  -36.7260   23.2100 C   0  0  0  0  0  1  0  0  0  0  0  0
  -25.4210  -36.2730   24.0150 C   0  0  0  0  0  3  0  0  0  0  0  0
  -27.5490  -37.0950   24.9240 C   0  0  0  0  0  1  0  0  0  0  0  0
  -26.4630  -37.3240   23.9750 N   0  0  0  0  0  0  0  0  0  0  0  0
  -26.0620  -38.2370   24.1660 H   0  0  0  0  0  0  0  0  0  0  0  0
  1  2  1  0
  3  7  1  0
  3  5  1  0
  4 51  1  0
  4  3  1  0
  4  1  1  0
  5 52  1  0
  5  2  1  0
  5  6  1  1
  7 10  1  0
  8  7  2  0
  9  8  1  0
 11 20  1  0
 11 10  1  0
 12 20  1  0
 13 18  1  0
 14 15  1  0
 14 13  1  0
 16 15  1  0
 16 25  1  0
 16 17  1  0
 18 12  1  0
 18 17  1  0
 19 12  2  0
 20 21  1  0
 22 23  2  0
 23 42  1  0
 24 23  1  0
 24 27  1  0
 25 22  1  0
 25 26  1  0
 26 24  2  0
 27 28  1  0
 28 29  2  0
 30 33  1  0
 30 29  1  0
 31 30  2  0
 32 31  1  0
 32 27  2  0
 33 34  1  0
 34 35  1  0
 35 36  2  0
 37 36  1  0
 37 41  1  0
 38 37  2  0
 39 34  2  0
 39 38  1  0
 40 39  1  0
 42 43  1  0
 43 46  1  0
 43 45  1  0
 44 42  2  0
 47 48  1  0
 47 22  1  0
 49 47  1  0
 50 51  1  0
 53 52  1  0
 54 53  1  0
 55 54  1  0
 56 55  1  0
 57 56  1  0
 58 69  2  0
 59 57  1  0
 59 64  1  0
 60 68  1  0
 60 70  1  0
 61 67  1  0
 61 63  1  0
 62 68  1  0
 63 62  1  0
 64 63  2  0
 65 66  1  0
 65 59  2  0
 66 61  2  0
 67 60  1  0
 68 58  1  0
 70 72  2  0
 71 70  1  0
 73 71  1  0
 74 83  2  0
 74 79  1  0
 75 71  1  0
 75 79  1  0
 76 75  1  0
 77 78  1  0
 77 76  1  0
 78 74  1  0
 79 80  2  0
 80 81  1  0
 82 81  2  0
 83 82  1  0
 84 58  1  0
 84 89  1  0
 84 85  1  0
 85 88  1  1
 85 86  1  0
 87 85  1  0
 89 92  1  0
 90 94  1  0
 90 89  1  0
 91 90  2  0
 94 93  1  0
 96 94  1  0
 96 97  1  0
 96 95  1  0
M  ISO  4  12 100  20 100  56 101  57 101
M  END
>  <TORSDO>  (43) 
F 25

>  <SCORE>  (43) 
-12.156

>  <name>  (43) 
42

>  <ligand_id>  (43) 
42

>  <original_smiles>  (43) 
[H]N=C(C([H])([H])C([H])([H])N([H])C(=O)N1C([H])([H])C([H])([H])C([H])([H])C([H])(n2nc(-c3c([H])c([H])c(Oc4c([H])c([H])c(F)c([H])c4F)c([H])c3[H])c(C(=O)N([H])[H])c2N([H])[H])C1([H])[H])C1([H])C([H])(C([H])([H])C([H])([H])[H])C([H])([H])C([H])([H])[N+]1([H])C([H])([H])C([H])([H])C([H])([H])C([H])([H])C([H])([H])Oc1c([H])c([H])c2c(c1[H])C([H])([H])N(C(=O)C([H])(N([H])C(=O)C([H])(N([H])C([H])([H])[H])C([H])([H])[H])C(C([H])([H])[H])(C([H])([H])[H])C([H])([H])[H])C([H])(C(=O)N([H])C1([H])c3c([H])c([H])c([H])c([H])c3C([H])([H])C([H])([H])C1([H])[H])C2([H])[H]

>  <smiles>  (43) 
[H]N=C(C([H])([H])C([H])([H])N([H])C(=O)N1C([H])([H])C([H])([H])C([H])([H])C([H])(n2nc(-c3c([H])c([H])c(Oc4c([H])c([H])c(F)c([H])c4F)c([H])c3[H])c(C(=O)N([H])[H])c2N([H])[H])C1([H])[H])C1([H])C([H])(C([H])([H])C([H])([H])[H])C([H])([H])C([H])([H])[N+]1([H])C([H])([H])C([H])([H])C([H])([H])C([H])([H])C([H])([H])Oc1c([H])c([H])c2c(c1[H])C([H])([H])N(C(=O)C([H])(N([H])C(=O)C([H])(N([H])C([H])([H])[H])C([H])([H])[H])C(C([H])([H])[H])(C([H])([H])[H])C([H])([H])[H])C([H])(C(=O)N([H])C1([H])c3c([H])c([H])c([H])c([H])c3C([H])([H])C([H])([H])C1([H])[H])C2([H])[H]

$$$$
43:0:0
     RDKit          3D

 98102  0  0  1  0  0  0  0  0999 V2000
  -20.7060  -24.2740   21.4630 C   0  0  0  0  0  2  0  0  0  0  0  0
  -20.6700  -22.7910   21.0560 C   0  0  0  0  0  2  0  0  0  0  0  0
  -22.7230  -24.5470   20.0240 C   0  0  0  0  0  2  0  0  0  0  0  0
  -21.2480  -25.2000   20.3310 C   0  0  0  0  0  3  0  0  0  0  0  0
  -22.0540  -22.1360   21.0110 C   0  0  0  0  0  3  0  0  0  0  0  0
  -23.0710  -22.9510   20.1350 C   0  0  0  0  0  3  0  0  0  0  0  0
  -24.8390  -21.5600   18.7480 C   0  0  0  0  0  0  0  0  0  0  0  0
  -23.6180  -22.2070   18.9060 N   0  0  0  0  0  0  0  0  0  0  0  0
  -25.6600  -21.5460   19.6660 O   0  0  0  0  0  0  0  0  0  0  0  0
  -22.9960  -22.1740   18.1070 H   0  0  0  0  0  0  0  0  0  0  0  0
  -25.2750  -20.8510   17.3930 C   0  0  0  0  0  2  0  0  0  0  0  0
  -26.1980  -19.5160   17.3770 C   0  0  0  0  0  3  0  0  0  0  0  0
  -27.7540  -19.5570   17.8070 C   0  0  0  0  0  3  0  0  0  0  0  0
  -28.7340  -18.2760   17.7150 C   0  0  0  0  0  2  0  0  0  0  0  0
  -30.4000  -17.0310   19.3570 C   0  0  0  0  0  0  0  0  0  0  0  0
  -31.1380  -14.7580   20.0750 C   0  0  0  0  0  2  0  0  0  0  0  0
  -30.5680  -13.7630   19.0340 C   0  0  0  0  0  2  0  0  0  0  0  0
  -29.1080  -13.4010   19.3640 C   0  0  0  0  0  2  0  0  0  0  0  0
  -28.2360  -14.6430   19.6750 C   0  0  0  0  0  3  0  0  0  0  0  0
  -28.9320  -15.5440   20.7200 C   0  0  0  0  0  2  0  0  0  0  0  0
  -30.2300  -15.9250   20.1430 N   0  0  0  0  0  0  0  0  0  0  0  0
  -31.5130  -17.3120   18.8870 O   0  0  0  0  0  0  0  0  0  0  0  0
  -29.2190  -17.6580   19.0080 N   0  0  0  0  0  0  0  0  0  0  0  0
  -28.4610  -17.3870   19.6180 H   0  0  0  0  0  0  0  0  0  0  0  0
  -25.8020  -15.0970   20.3410 C   0  0  0  0  0  0  0  0  0  0  0  0
  -24.7720  -14.2530   20.6630 C   0  0  0  0  0  0  0  0  0  0  0  0
  -25.3100  -12.9290   20.6000 C   0  0  0  0  0  0  0  0  0  0  0  0
  -26.8940  -14.2780   20.1050 N   0  0  0  0  0  0  0  0  0  0  0  0
  -26.6050  -12.9690   20.3130 N   0  0  0  0  0  0  0  0  0  0  0  0
  -24.6540  -11.6210   20.7340 C   0  0  0  0  0  0  0  0  0  0  0  0
  -24.9930  -10.7190   21.7670 C   0  0  0  0  0  3  0  0  0  0  0  0
  -24.3260   -9.4790   21.8820 C   0  0  0  0  0  3  0  0  0  0  0  0
  -23.3110   -9.1330   20.9600 C   0  0  0  0  0  0  0  0  0  0  0  0
  -22.9940  -10.0230   19.9190 C   0  0  0  0  0  3  0  0  0  0  0  0
  -23.6630  -11.2530   19.8030 C   0  0  0  0  0  3  0  0  0  0  0  0
  -22.6300   -7.9390   20.9780 O   0  0  0  0  0  0  0  0  0  0  0  0
  -22.2340   -7.3560   22.1540 C   0  0  0  0  0  0  0  0  0  0  0  0
  -21.4030   -8.0300   23.0750 C   0  0  0  0  0  3  0  0  0  0  0  0
  -20.9640   -7.3720   24.2400 C   0  0  0  0  0  3  0  0  0  0  0  0
  -21.3480   -6.0390   24.4830 C   0  0  0  0  0  0  0  0  0  0  0  0
  -22.1740   -5.3650   23.5670 C   0  0  0  0  0  3  0  0  0  0  0  0
  -22.6130   -6.0210   22.4030 C   0  0  0  0  0  0  0  0  0  0  0  0
  -23.3920   -5.3610   21.5130 F   0  0  0  0  0  0  0  0  0  0  0  0
  -20.9190   -5.4030   25.5990 F   0  0  0  0  0  0  0  0  0  0  0  0
  -23.3480  -14.6440   20.9290 C   0  0  0  0  0  0  0  0  0  0  0  0
  -22.6640  -13.9000   21.7900 N   0  0  0  0  0  0  0  0  0  0  0  0
  -22.8490  -15.6420   20.4100 O   0  0  0  0  0  0  0  0  0  0  0  0
  -23.0870  -13.0920   22.2240 H   0  0  0  0  0  0  0  0  0  0  0  0
  -21.7120  -14.1390   22.0280 H   0  0  0  0  0  0  0  0  0  0  0  0
  -25.9070  -16.4810   20.2170 N   0  0  0  0  0  0  0  0  0  0  0  0
  -25.1100  -17.0940   20.3400 H   0  0  0  0  0  0  0  0  0  0  0  0
  -26.7420  -16.9760   19.9290 H   0  0  0  0  0  0  0  0  0  0  0  0
  -21.1690  -19.7800   21.7490 C   0  0  0  0  0  1  0  0  0  0  0  0
  -21.9320  -20.6210   20.6980 C   0  0  0  0  0  2  0  0  0  0  0  0
  -19.1270  -28.5670   18.4970 C   0  0  0  0  0  3  0  0  0  0  0  0
  -20.9010  -26.9110   20.3400 C   0  0  0  0  0  1  0  0  0  0  0  0
  -23.0030  -27.1740   20.2960 C   0  0  0  0  0  1  0  0  0  0  0  0
  -24.6780  -26.9540   19.5580 O   0  0  0  0  0  0  0  0  0  0  0  0
  -25.7630  -30.4830   24.2960 C   0  0  0  0  0  0  0  0  0  0  0  0
  -25.9200  -27.7170   19.3450 C   0  0  0  0  0  3  0  0  0  0  0  0
  -24.3970  -30.8550   22.3190 C   0  0  0  0  0  3  0  0  0  0  0  0
  -25.2850  -30.1400   20.0260 C   0  0  0  0  0  0  0  0  0  0  0  0
  -26.8170  -30.2960   22.0110 C   0  0  0  0  0  2  0  0  0  0  0  0
  -26.3620  -29.6010   20.7360 C   0  0  0  0  0  3  0  0  0  0  0  0
  -26.7600  -28.3110   20.3460 C   0  0  0  0  0  2  0  0  0  0  0  0
  -25.6620  -28.5280   18.2530 C   0  0  0  0  0  2  0  0  0  0  0  0
  -24.9960  -29.6690   18.7210 C   0  0  0  0  0  3  0  0  0  0  0  0
  -24.4470  -31.1340   20.7750 C   0  0  0  0  0  2  0  0  0  0  0  0
  -25.7020  -30.5720   22.9340 N   0  0  0  0  0  0  0  0  0  0  0  0
  -24.7670  -30.6800   25.0210 O   0  0  0  0  0  0  0  0  0  0  0  0
  -23.4910  -29.7150   22.7010 C   0  0  0  0  0  0  0  0  0  0  0  0
  -22.2330  -30.0390   22.6310 N   0  0  0  0  0  0  0  0  0  0  0  0
  -23.9150  -28.6170   23.1140 O   0  0  0  0  0  0  0  0  0  0  0  0
  -21.9540  -30.9870   22.4190 H   0  0  0  0  0  0  0  0  0  0  0  0
  -18.5960  -28.5220   22.2220 C   0  0  0  0  0  0  0  0  0  0  0  0
  -21.4790  -29.0040   22.1730 C   0  0  0  0  0  2  0  0  0  0  0  0
  -21.8020  -29.0300   20.0290 C   0  0  0  0  0 15  0  0  0  0  0  0
  -20.0150  -28.2650   19.1940 C   0  0  0  0  0  3  0  0  0  0  0  0
  -18.6450  -27.8570   20.5730 C   0  0  0  0  0  1  0  0  0  0  0  0
  -19.8810  -28.9390   22.9580 C   0  0  0  0  0  0  0  0  0  0  0  0
  -19.7130  -29.8780   24.0470 C   0  0  0  0  0  3  0  0  0  0  0  0
  -18.5050  -30.5420   24.3830 C   0  0  0  0  0  3  0  0  0  0  0  0
  -17.3540  -30.2750   23.6320 C   0  0  0  0  0  3  0  0  0  0  0  0
  -17.4120  -29.3020   22.5910 C   0  0  0  0  0  3  0  0  0  0  0  0
  -27.0910  -30.1700   25.0050 C   0  0  0  0  0  3  0  0  0  0  0  0
  -27.0980  -28.8020   25.7840 C   0  0  1  0  0  0  0  0  0  0  0  0
  -25.9010  -28.5950   26.7440 C   0  0  0  0  0  1  0  0  0  0  0  0
  -27.1130  -27.6090   24.8010 C   0  0  0  0  0  1  0  0  0  0  0  0
  -28.4020  -28.7210   26.6060 C   0  0  0  0  0  1  0  0  0  0  0  0
  -27.2990  -31.2960   25.9180 N   0  0  0  0  0  0  0  0  0  0  0  0
  -28.0280  -32.3710   25.6090 C   0  0  0  0  0  0  0  0  0  0  0  0
  -28.6870  -32.4500   24.5690 O   0  0  0  0  0  0  0  0  0  0  0  0
  -26.7420  -31.3130   26.7590 H   0  0  0  0  0  0  0  0  0  0  0  0
  -27.1630  -34.6810   26.1010 C   0  0  0  0  0  1  0  0  0  0  0  0
  -28.0400  -33.5300   26.6220 C   0  0  0  0  0  3  0  0  0  0  0  0
  -30.2290  -33.0580   27.6240 C   0  0  0  0  0  1  0  0  0  0  0  0
  -29.4010  -34.0270   26.9100 N   0  0  0  0  0  0  0  0  0  0  0  0
  -29.3660  -34.8840   27.4560 H   0  0  0  0  0  0  0  0  0  0  0  0
  2  1  1  0
  3  6  1  0
  3  4  1  0
  4 56  1  0
  4  1  1  0
  5 54  1  0
  5  2  1  0
  6  8  1  0
  6  5  1  0
  7  8  1  0
  7  9  2  0
 10  8  1  0
 11  7  1  0
 12 11  1  0
 12 13  2  0
 14 13  1  0
 14 23  1  0
 15 21  1  0
 16 21  1  0
 17 18  1  0
 17 16  1  0
 19 18  1  0
 19 28  1  0
 19 20  1  0
 21 20  1  0
 22 15  2  0
 23 15  1  0
 23 24  1  0
 25 26  2  0
 26 45  1  0
 27 26  1  0
 27 30  1  0
 28 29  1  0
 28 25  1  0
 29 27  2  0
 30 31  1  0
 31 32  2  0
 33 36  1  0
 33 32  1  0
 34 33  2  0
 35 34  1  0
 35 30  2  0
 36 37  1  0
 37 42  2  0
 37 38  1  0
 38 39  2  0
 39 40  1  0
 40 44  1  0
 41 40  2  0
 42 41  1  0
 43 42  1  0
 45 46  1  0
 46 49  1  0
 46 48  1  0
 47 45  2  0
 50 51  1  0
 50 25  1  0
 52 50  1  0
 54 53  1  0
 55 78  3  0
 58 57  1  0
 59 70  2  0
 60 58  1  0
 60 65  1  0
 61 71  1  0
 61 69  1  0
 62 64  1  0
 62 68  1  0
 63 69  1  0
 64 65  1  0
 64 63  1  0
 66 67  1  0
 66 60  1  0
 67 62  2  0
 68 61  1  0
 69 59  1  0
 71 73  2  0
 72 71  1  0
 74 72  1  0
 75 84  2  0
 75 80  1  0
 76 72  1  0
 76 80  1  0
 79 75  1  0
 80 81  2  0
 81 82  1  0
 83 82  2  0
 84 83  1  0
 85 59  1  0
 85 86  1  0
 85 90  1  0
 86 89  1  1
 86 87  1  0
 88 86  1  0
 90 93  1  0
 91 90  1  0
 91 95  1  0
 92 91  2  0
 95 94  1  0
 95 97  1  0
 97 98  1  0
 97 96  1  0
M  ISO  4  15 100  23 100  57 101  58 101
M  END
>  <TORSDO>  (44) 
F 24

>  <SCORE>  (44) 
7.605

>  <name>  (44) 
43

>  <ligand_id>  (44) 
43

>  <original_smiles>  (44) 
[H]c1c([H])c([H])c2c(c1[H])C([H])([H])C([H])([H])C([H])([H])C2([H])N([H])C(=O)C1([H])N(C(=O)C([H])(N([H])C(=O)C([H])(N([H])C([H])([H])[H])C([H])([H])[H])C(C([H])([H])[H])(C([H])([H])[H])C([H])([H])[H])C([H])([H])c2c([H])c(OC([H])([H])C([H])(C([H])([H])[H])C3([H])C([H])([H])C([H])([H])C([H])(C([H])([H])C([H])([H])[H])C([H])(N([H])C(=O)C([H])([H])C([H])([H])C([H])([H])C([H])([H])N([H])C(=O)N4C([H])([H])C([H])([H])C([H])([H])C([H])(n5nc(-c6c([H])c([H])c(Oc7c([H])c([H])c(F)c([H])c7F)c([H])c6[H])c(C(=O)N([H])[H])c5N([H])[H])C4([H])[H])C3([H])[H])c([H])c([H])c2C1([H])[H]

>  <smiles>  (44) 
[H]c1c([H])c([H])c2c(c1[H])C([H])([H])C([H])([H])C([H])([H])C2([H])N([H])C(=O)C1([H])N(C(=O)C([H])(N([H])C(=O)C([H])(N([H])C([H])([H])[H])C([H])([H])[H])C(C([H])([H])[H])(C([H])([H])[H])C([H])([H])[H])C([H])([H])c2c([H])c(OC([H])([H])C([H])(C([H])([H])[H])C3([H])C([H])([H])C([H])([H])C([H])(C([H])([H])C([H])([H])[H])C([H])(N([H])C(=O)C([H])([H])C([H])([H])C([H])([H])C([H])([H])N([H])C(=O)N4C([H])([H])C([H])([H])C([H])([H])C([H])(n5nc(-c6c([H])c([H])c(Oc7c([H])c([H])c(F)c([H])c7F)c([H])c6[H])c(C(=O)N([H])[H])c5N([H])[H])C4([H])[H])C3([H])[H])c([H])c([H])c2C1([H])[H]

$$$$
44:0:0
     RDKit          3D

 96104  0  0  1  0  0  0  0  0999 V2000
  -32.7690  -21.9950   17.5250 C   0  0  0  0  0  2  0  0  0  0  0  0
  -32.1000  -24.2860   18.4180 C   0  0  0  0  0  1  0  0  0  0  0  0
  -33.2040  -23.2080   18.4140 C   0  0  0  0  0  3  0  0  0  0  0  0
  -34.5740  -23.8340   17.9770 C   0  0  0  0  0  2  0  0  0  0  0  0
  -35.7240  -22.4250   19.8280 C   0  0  0  0  0  1  0  0  0  0  0  0
  -35.8220  -23.6610   18.9170 C   0  0  0  0  0  3  0  0  0  0  0  0
  -36.0840  -24.9580   19.7540 C   0  0  0  0  0  2  0  0  0  0  0  0
  -35.8410  -26.2200   19.0890 O   0  0  0  0  0  0  0  0  0  0  0  0
  -37.9750  -32.7700   17.2600 C   0  0  0  0  0  0  0  0  0  0  0  0
  -36.8680  -26.9730   18.5370 C   0  0  0  0  0  0  0  0  0  0  0  0
  -39.3600  -30.9130   16.3960 C   0  0  0  0  0  3  0  0  0  0  0  0
  -38.8960  -28.6170   17.4120 C   0  0  0  0  0  0  0  0  0  0  0  0
  -38.0470  -30.6550   18.5790 C   0  0  0  0  0  2  0  0  0  0  0  0
  -37.9460  -29.1720   18.2760 C   0  0  0  0  0  0  0  0  0  0  0  0
  -36.9320  -28.3580   18.8350 C   0  0  0  0  0  3  0  0  0  0  0  0
  -37.8570  -26.4320   17.6800 C   0  0  0  0  0  3  0  0  0  0  0  0
  -38.8540  -27.2460   17.1120 C   0  0  0  0  0  3  0  0  0  0  0  0
  -39.9450  -29.5460   16.8430 C   0  0  0  0  0  2  0  0  0  0  0  0
  -38.4140  -31.4890   17.4080 N   0  0  0  0  0  0  0  0  0  0  0  0
  -38.3710  -33.4800   16.3250 O   0  0  0  0  0  0  0  0  0  0  0  0
  -38.7290  -30.7470   14.9950 C   0  0  0  0  0  0  0  0  0  0  0  0
  -39.4200  -31.2560   13.9620 N   0  0  0  0  0  0  0  0  0  0  0  0
  -37.6580  -30.1500   14.8510 O   0  0  0  0  0  0  0  0  0  0  0  0
  -40.2840  -31.7400   14.1620 H   0  0  0  0  0  0  0  0  0  0  0  0
  -40.1930  -32.5160   10.6650 C   0  0  0  0  0  0  0  0  0  0  0  0
  -39.0350  -31.1830   12.5530 C   0  0  0  0  0  3  0  0  0  0  0  0
  -39.6200  -29.9190   11.8810 C   0  0  0  0  0  2  0  0  0  0  0  0
  -40.9710  -30.1680   11.2020 C   0  0  0  0  0  2  0  0  0  0  0  0
  -40.8400  -31.2520   10.1270 C   0  0  0  0  0  2  0  0  0  0  0  0
  -39.3570  -32.4860   11.8130 C   0  0  0  0  0  0  0  0  0  0  0  0
  -38.8080  -33.6950   12.2950 C   0  0  0  0  0  3  0  0  0  0  0  0
  -39.0770  -34.9140   11.6460 C   0  0  0  0  0  3  0  0  0  0  0  0
  -39.8900  -34.9360   10.5000 C   0  0  0  0  0  3  0  0  0  0  0  0
  -40.4430  -33.7410   10.0100 C   0  0  0  0  0  3  0  0  0  0  0  0
  -36.9720  -33.4100   18.2710 C   0  0  0  0  0  3  0  0  0  0  0  0
  -37.3340  -34.8260   18.4140 N   0  0  0  0  0  0  0  0  0  0  0  0
  -38.2010  -35.3020   19.3190 C   0  0  0  0  0  0  0  0  0  0  0  0
  -38.7310  -34.5920   20.1760 O   0  0  0  0  0  0  0  0  0  0  0  0
  -36.9780  -35.4590   17.7120 H   0  0  0  0  0  0  0  0  0  0  0  0
  -39.9150  -37.0050   18.6190 C   0  0  0  0  0  1  0  0  0  0  0  0
  -38.5320  -36.8060   19.2600 C   0  0  0  0  0  3  0  0  0  0  0  0
  -37.1430  -37.6960   21.0770 C   0  0  0  0  0  1  0  0  0  0  0  0
  -38.4980  -37.4680   20.5830 N   0  0  0  0  0  0  0  0  0  0  0  0
  -38.9780  -38.3640   20.5480 H   0  0  0  0  0  0  0  0  0  0  0  0
  -35.4630  -33.2610   17.8310 C   0  0  1  0  0  0  0  0  0  0  0  0
  -34.8090  -34.5920   17.3910 C   0  0  0  0  0  1  0  0  0  0  0  0
  -35.3280  -32.2590   16.6610 C   0  0  0  0  0  1  0  0  0  0  0  0
  -34.6320  -32.6840   19.0010 C   0  0  0  0  0  1  0  0  0  0  0  0
  -32.5060  -20.6120   18.2270 C   0  0  0  0  0  3  0  0  0  0  0  0
  -30.0980  -21.3330   21.1350 C   0  0  0  0  0  3  0  0  0  0  0  0
  -30.6180  -21.1900   19.8340 C   0  0  0  0  0  3  0  0  0  0  0  0
  -30.9100  -21.0580   22.2510 C   0  0  0  0  0  3  0  0  0  0  0  0
  -32.7610  -20.4920   20.7670 C   0  0  0  0  0  3  0  0  0  0  0  0
  -31.9540  -20.7760   19.6410 C   0  0  0  0  0  0  0  0  0  0  0  0
  -32.2410  -20.6370   22.0670 C   0  0  0  0  0  0  0  0  0  0  0  0
  -33.0190  -20.3680   23.1420 F   0  0  0  0  0  0  0  0  0  0  0  0
  -33.7590  -19.6770   18.1890 C   0  0  0  0  0  3  0  0  0  0  0  0
  -33.9740  -18.7220   16.9690 C   0  0  0  0  0  3  0  0  0  0  0  0
  -32.2880  -17.8640   15.3050 C   0  0  0  0  0  0  0  0  0  0  0  0
  -30.7470  -17.3400   13.4440 C   0  0  0  0  0  2  0  0  0  0  0  0
  -31.4480  -17.6210   12.1000 C   0  0  0  0  0  2  0  0  0  0  0  0
  -31.2870  -19.1000   11.6960 C   0  0  0  0  0  2  0  0  0  0  0  0
  -31.6290  -20.0800   12.8510 C   0  0  0  0  0  3  0  0  0  0  0  0
  -30.9270  -19.6530   14.1590 C   0  0  0  0  0  2  0  0  0  0  0  0
  -31.3170  -18.2620   14.4390 N   0  0  0  0  0  0  0  0  0  0  0  0
  -32.5320  -16.6770   15.5380 O   0  0  0  0  0  0  0  0  0  0  0  0
  -33.0420  -18.8490   15.8340 N   0  0  0  0  0  0  0  0  0  0  0  0
  -32.8160  -19.7870   15.5330 H   0  0  0  0  0  0  0  0  0  0  0  0
  -32.1380  -22.5760   12.4970 C   0  0  0  0  0  0  0  0  0  0  0  0
  -31.3800  -23.6030   12.0050 C   0  0  0  0  0  0  0  0  0  0  0  0
  -30.1000  -23.0430   11.7110 C   0  0  0  0  0  0  0  0  0  0  0  0
  -31.3160  -21.4590   12.4920 N   0  0  0  0  0  0  0  0  0  0  0  0
  -30.0630  -21.7650   12.0650 N   0  0  0  0  0  0  0  0  0  0  0  0
  -28.9230  -23.6360   11.0610 C   0  0  0  0  0  0  0  0  0  0  0  0
  -27.8120  -24.0830   11.8100 C   0  0  0  0  0  3  0  0  0  0  0  0
  -26.7000  -24.6650   11.1630 C   0  0  0  0  0  3  0  0  0  0  0  0
  -26.6940  -24.8080    9.7550 C   0  0  0  0  0  0  0  0  0  0  0  0
  -27.7920  -24.3390    9.0130 C   0  0  0  0  0  3  0  0  0  0  0  0
  -28.8950  -23.7550    9.6570 C   0  0  0  0  0  3  0  0  0  0  0  0
  -25.6480  -25.3370    9.0390 O   0  0  0  0  0  0  0  0  0  0  0  0
  -25.0040  -26.4790    9.4420 C   0  0  0  0  0  0  0  0  0  0  0  0
  -25.6190  -27.7490    9.3590 C   0  0  0  0  0  3  0  0  0  0  0  0
  -24.8980  -28.9050    9.7180 C   0  0  0  0  0  3  0  0  0  0  0  0
  -23.5640  -28.7960   10.1520 C   0  0  0  0  0  0  0  0  0  0  0  0
  -22.9480  -27.5350   10.2290 C   0  0  0  0  0  3  0  0  0  0  0  0
  -23.6670  -26.3800    9.8720 C   0  0  0  0  0  0  0  0  0  0  0  0
  -23.0630  -25.1690    9.9290 F   0  0  0  0  0  0  0  0  0  0  0  0
  -22.8670  -29.9070   10.4890 F   0  0  0  0  0  0  0  0  0  0  0  0
  -31.8440  -25.0050   11.7290 C   0  0  0  0  0  0  0  0  0  0  0  0
  -31.1160  -25.9990   12.2240 N   0  0  0  0  0  0  0  0  0  0  0  0
  -32.8850  -25.2240   11.1100 O   0  0  0  0  0  0  0  0  0  0  0  0
  -30.2720  -25.8180   12.7480 H   0  0  0  0  0  0  0  0  0  0  0  0
  -31.4070  -26.9550   12.0790 H   0  0  0  0  0  0  0  0  0  0  0  0
  -33.4590  -22.4900   12.9280 N   0  0  0  0  0  0  0  0  0  0  0  0
  -34.0960  -23.2780   12.8770 H   0  0  0  0  0  0  0  0  0  0  0  0
  -33.9150  -21.6320   13.2080 H   0  0  0  0  0  0  0  0  0  0  0  0
  1  3  1  0
  3  2  1  0
  4  3  1  0
  4  6  1  0
  6  7  1  0
  6  5  1  0
  8  7  1  0
  9 19  1  0
 10 15  1  0
 10  8  1  0
 11 21  1  0
 11 18  1  0
 11 19  1  0
 12 14  1  0
 14 13  1  0
 14 15  2  0
 16 10  2  0
 17 12  2  0
 17 16  1  0
 18 12  1  0
 19 13  1  0
 20  9  2  0
 22 24  1  0
 22 21  1  0
 23 21  2  0
 25 30  1  0
 26 22  1  0
 27 26  1  0
 28 27  1  0
 29 25  1  0
 29 28  1  0
 30 31  2  0
 30 26  1  0
 32 31  1  0
 33 32  2  0
 34 33  1  0
 34 25  2  0
 35  9  1  0
 35 36  1  0
 36 37  1  0
 37 38  2  0
 39 36  1  0
 41 40  1  0
 41 37  1  0
 41 43  1  0
 43 42  1  0
 44 43  1  0
 45 35  1  0
 45 48  1  1
 46 45  1  0
 47 45  1  0
 49  1  1  0
 49 54  1  0
 50 52  1  0
 51 50  2  0
 53 55  1  0
 54 51  1  0
 54 53  2  0
 55 52  2  0
 55 56  1  0
 57 49  1  0
 58 57  2  0
 59 66  2  0
 59 67  1  0
 60 65  1  0
 61 60  1  0
 62 61  1  0
 63 62  1  0
 63 64  1  0
 64 65  1  0
 65 59  1  0
 67 58  1  0
 68 67  1  0
 69 94  1  0
 70 69  2  0
 71 70  1  0
 71 73  2  0
 72 69  1  0
 72 63  1  0
 73 72  1  0
 74 71  1  0
 74 75  1  0
 76 75  2  0
 77 76  1  0
 78 79  1  0
 78 77  2  0
 79 74  2  0
 80 81  1  0
 80 77  1  0
 81 86  1  0
 82 81  2  0
 82 83  1  0
 83 84  2  0
 84 85  1  0
 84 88  1  0
 86 87  1  0
 86 85  2  0
 89 70  1  0
 89 90  1  0
 90 92  1  0
 91 89  2  0
 93 90  1  0
 94 96  1  0
 95 94  1  0
M  ISO  4   7 101   8 101  59 100  67 100
M  END
>  <TORSDO>  (45) 
F 24

>  <SCORE>  (45) 
-3.091

>  <name>  (45) 
44

>  <ligand_id>  (45) 
44

>  <original_smiles>  (45) 
[H]c1c([H])c([H])c2c(c1[H])C([H])([H])C([H])([H])C([H])([H])C2([H])N([H])C(=O)C1([H])N(C(=O)C([H])(N([H])C(=O)C([H])(N([H])C([H])([H])[H])C([H])([H])[H])C(C([H])([H])[H])(C([H])([H])[H])C([H])([H])[H])C([H])([H])c2c([H])c(OC([H])([H])C([H])(C([H])([H])[H])C([H])([H])C([H])(C([H])([H])[H])C([H])([H])C([H])(c3c([H])c([H])c([H])c(F)c3[H])C([H])([H])C([H])([H])N([H])C(=O)N3C([H])([H])C([H])([H])C([H])([H])C([H])(n4nc(-c5c([H])c([H])c(Oc6c([H])c([H])c(F)c([H])c6F)c([H])c5[H])c(C(=O)N([H])[H])c4N([H])[H])C3([H])[H])c([H])c([H])c2C1([H])[H]

>  <smiles>  (45) 
[H]c1c([H])c([H])c2c(c1[H])C([H])([H])C([H])([H])C([H])([H])C2([H])N([H])C(=O)C1([H])N(C(=O)C([H])(N([H])C(=O)C([H])(N([H])C([H])([H])[H])C([H])([H])[H])C(C([H])([H])[H])(C([H])([H])[H])C([H])([H])[H])C([H])([H])c2c([H])c(OC([H])([H])C([H])(C([H])([H])[H])C([H])([H])C([H])(C([H])([H])[H])C([H])([H])C([H])(c3c([H])c([H])c([H])c(F)c3[H])C([H])([H])C([H])([H])N([H])C(=O)N3C([H])([H])C([H])([H])C([H])([H])C([H])(n4nc(-c5c([H])c([H])c(Oc6c([H])c([H])c(F)c([H])c6F)c([H])c5[H])c(C(=O)N([H])[H])c4N([H])[H])C3([H])[H])c([H])c([H])c2C1([H])[H]

$$$$
45:0:0
     RDKit          3D

 97104  0  0  1  0  0  0  0  0999 V2000
  -28.3100  -19.6600   19.8670 C   0  0  0  0  0  0  0  0  0  0  0  0
  -29.1540  -19.8590   18.9890 O   0  0  0  0  0  0  0  0  0  0  0  0
  -28.6400  -18.8550   21.1320 C   0  0  0  0  0  2  0  0  0  0  0  0
  -30.1070  -18.3390   21.2430 C   0  0  0  0  0  3  0  0  0  0  0  0
  -30.5790  -18.3060   22.7110 C   0  0  0  0  0  0  0  0  0  0  0  0
  -30.1440  -19.2460   23.5430 N   0  0  0  0  0  0  0  0  0  0  0  0
  -31.3480  -17.4350   23.1140 O   0  0  0  0  0  0  0  0  0  0  0  0
  -29.5260  -19.9780   23.2240 H   0  0  0  0  0  0  0  0  0  0  0  0
  -30.4150  -19.2250   24.5160 H   0  0  0  0  0  0  0  0  0  0  0  0
  -30.3310  -16.9690   20.5300 C   0  0  0  0  0  2  0  0  0  0  0  0
  -31.7660  -16.4020   20.6400 C   0  0  0  0  0  2  0  0  0  0  0  0
  -32.6770  -14.3230   19.6040 C   0  0  0  0  0  0  0  0  0  0  0  0
  -32.0610  -12.0460   18.9270 C   0  0  0  0  0  2  0  0  0  0  0  0
  -31.0770  -12.1550   17.7430 C   0  0  0  0  0  2  0  0  0  0  0  0
  -29.6280  -12.2820   18.2540 C   0  0  0  0  0  2  0  0  0  0  0  0
  -29.4700  -13.3740   19.3490 C   0  0  0  0  0  3  0  0  0  0  0  0
  -30.5640  -13.2290   20.4300 C   0  0  0  0  0  2  0  0  0  0  0  0
  -31.8700  -13.2440   19.7570 N   0  0  0  0  0  0  0  0  0  0  0  0
  -33.8050  -14.2610   19.1140 O   0  0  0  0  0  0  0  0  0  0  0  0
  -32.0380  -15.4950   19.5280 N   0  0  0  0  0  0  0  0  0  0  0  0
  -32.4130  -16.0200   18.7520 H   0  0  0  0  0  0  0  0  0  0  0  0
  -27.3240  -14.4230   20.3110 C   0  0  0  0  0  0  0  0  0  0  0  0
  -26.1480  -13.8690   20.7380 C   0  0  0  0  0  0  0  0  0  0  0  0
  -26.2920  -12.4580   20.5680 C   0  0  0  0  0  0  0  0  0  0  0  0
  -28.1300  -13.3610   19.9330 N   0  0  0  0  0  0  0  0  0  0  0  0
  -27.5130  -12.1680   20.1370 N   0  0  0  0  0  0  0  0  0  0  0  0
  -25.3180  -11.3740   20.7320 C   0  0  0  0  0  0  0  0  0  0  0  0
  -25.5580  -10.2930   21.6070 C   0  0  0  0  0  3  0  0  0  0  0  0
  -24.5970   -9.2700   21.7610 C   0  0  0  0  0  3  0  0  0  0  0  0
  -23.3820   -9.3260   21.0400 C   0  0  0  0  0  0  0  0  0  0  0  0
  -23.1560  -10.3940   20.1550 C   0  0  0  0  0  3  0  0  0  0  0  0
  -24.1170  -11.4060   19.9960 C   0  0  0  0  0  3  0  0  0  0  0  0
  -22.4020   -8.3660   21.1050 O   0  0  0  0  0  0  0  0  0  0  0  0
  -22.1700   -7.6530   22.2530 C   0  0  0  0  0  0  0  0  0  0  0  0
  -21.8300   -8.2870   23.4670 C   0  0  0  0  0  3  0  0  0  0  0  0
  -21.5360   -7.5130   24.6080 C   0  0  0  0  0  3  0  0  0  0  0  0
  -21.5680   -6.1090   24.5330 C   0  0  0  0  0  0  0  0  0  0  0  0
  -21.8990   -5.4750   23.3240 C   0  0  0  0  0  3  0  0  0  0  0  0
  -22.1970   -6.2450   22.1860 C   0  0  0  0  0  0  0  0  0  0  0  0
  -22.4950   -5.6290   21.0170 F   0  0  0  0  0  0  0  0  0  0  0  0
  -21.2770   -5.3650   25.6270 F   0  0  0  0  0  0  0  0  0  0  0  0
  -24.9200  -14.6140   21.1750 C   0  0  0  0  0  0  0  0  0  0  0  0
  -24.1410  -14.0350   22.0820 N   0  0  0  0  0  0  0  0  0  0  0  0
  -24.6730  -15.7410   20.7480 O   0  0  0  0  0  0  0  0  0  0  0  0
  -24.3520  -13.1180   22.4460 H   0  0  0  0  0  0  0  0  0  0  0  0
  -23.3180  -14.5180   22.4140 H   0  0  0  0  0  0  0  0  0  0  0  0
  -27.7550  -15.7400   20.1850 N   0  0  0  0  0  0  0  0  0  0  0  0
  -27.1250  -16.5220   20.3310 H   0  0  0  0  0  0  0  0  0  0  0  0
  -28.6380  -16.0110   19.7720 H   0  0  0  0  0  0  0  0  0  0  0  0
  -26.8840  -20.2360   19.7440 C   0  0  0  0  0  3  0  0  0  0  0  0
  -25.5140  -18.0330   19.6530 C   0  0  0  0  0  1  0  0  0  0  0  0
  -25.9470  -19.3140   18.9260 C   0  0  0  0  0  2  0  0  0  0  0  0
  -26.8850  -21.6680   19.1530 C   0  0  0  0  0  2  0  0  0  0  0  0
  -27.5790  -22.7040   20.0550 C   0  0  0  0  0  2  0  0  0  0  0  0
  -27.7470  -24.0760   19.3780 C   0  0  0  0  0  2  0  0  0  0  0  0
  -28.0040  -25.1970   20.4000 C   0  0  0  0  0  2  0  0  0  0  0  0
  -28.0960  -26.4760   19.7720 O   0  0  0  0  0  0  0  0  0  0  0  0
  -24.7630  -31.6070   23.3640 C   0  0  0  0  0  0  0  0  0  0  0  0
  -26.9680  -27.2560   19.8700 C   0  0  0  0  0  0  0  0  0  0  0  0
  -23.3930  -30.4040   21.6950 C   0  0  0  0  0  3  0  0  0  0  0  0
  -24.6760  -28.8880   20.0990 C   0  0  0  0  0  0  0  0  0  0  0  0
  -25.9230  -30.6260   21.3910 C   0  0  0  0  0  2  0  0  0  0  0  0
  -25.8920  -29.3020   20.6590 C   0  0  0  0  0  0  0  0  0  0  0  0
  -27.0420  -28.4960   20.5360 C   0  0  0  0  0  3  0  0  0  0  0  0
  -25.7360  -26.8460   19.3150 C   0  0  0  0  0  3  0  0  0  0  0  0
  -24.5910  -27.6560   19.4270 C   0  0  0  0  0  3  0  0  0  0  0  0
  -23.4920  -29.8110   20.2640 C   0  0  0  0  0  2  0  0  0  0  0  0
  -24.7140  -30.8880   22.2090 N   0  0  0  0  0  0  0  0  0  0  0  0
  -23.7290  -31.9090   23.9770 O   0  0  0  0  0  0  0  0  0  0  0  0
  -22.7220  -29.3580   22.6150 C   0  0  0  0  0  0  0  0  0  0  0  0
  -21.3980  -29.1940   22.4640 N   0  0  0  0  0  0  0  0  0  0  0  0
  -23.3890  -28.7000   23.4160 O   0  0  0  0  0  0  0  0  0  0  0  0
  -20.9230  -29.7740   21.7850 H   0  0  0  0  0  0  0  0  0  0  0  0
  -18.0260  -27.9420   22.7860 C   0  0  0  0  0  0  0  0  0  0  0  0
  -20.5610  -28.2430   23.1940 C   0  0  0  0  0  3  0  0  0  0  0  0
  -20.7190  -26.8140   22.6270 C   0  0  0  0  0  2  0  0  0  0  0  0
  -19.6780  -26.4710   21.5560 C   0  0  0  0  0  2  0  0  0  0  0  0
  -18.2610  -26.5940   22.1260 C   0  0  0  0  0  2  0  0  0  0  0  0
  -19.1070  -28.7220   23.2730 C   0  0  0  0  0  0  0  0  0  0  0  0
  -18.8380  -29.9830   23.8480 C   0  0  0  0  0  3  0  0  0  0  0  0
  -17.5180  -30.4670   23.9400 C   0  0  0  0  0  3  0  0  0  0  0  0
  -16.4490  -29.6830   23.4720 C   0  0  0  0  0  3  0  0  0  0  0  0
  -16.7040  -28.4220   22.9010 C   0  0  0  0  0  3  0  0  0  0  0  0
  -26.1160  -32.1060   23.9590 C   0  0  0  0  0  3  0  0  0  0  0  0
  -26.6270  -31.2310   25.1670 C   0  0  1  0  0  0  0  0  0  0  0  0
  -25.5590  -31.0040   26.2630 C   0  0  0  0  0  1  0  0  0  0  0  0
  -27.1010  -29.8430   24.6740 C   0  0  0  0  0  1  0  0  0  0  0  0
  -27.8530  -31.9070   25.8260 C   0  0  0  0  0  1  0  0  0  0  0  0
  -25.9320  -33.5040   24.3680 N   0  0  0  0  0  0  0  0  0  0  0  0
  -26.3450  -34.5630   23.6620 C   0  0  0  0  0  0  0  0  0  0  0  0
  -26.9970  -34.4600   22.6180 O   0  0  0  0  0  0  0  0  0  0  0  0
  -25.3550  -33.6650   25.1810 H   0  0  0  0  0  0  0  0  0  0  0  0
  -24.7820  -36.5150   23.4080 C   0  0  0  0  0  1  0  0  0  0  0  0
  -25.9780  -35.9600   24.1960 C   0  0  0  0  0  3  0  0  0  0  0  0
  -28.1810  -36.6080   25.0710 C   0  0  0  0  0  1  0  0  0  0  0  0
  -27.0980  -36.9230   24.1410 N   0  0  0  0  0  0  0  0  0  0  0  0
  -26.7750  -37.8660   24.3400 H   0  0  0  0  0  0  0  0  0  0  0  0
  1  3  1  0
  2  1  2  0
  3  4  1  0
  4 10  1  0
  4  5  1  0
  5  7  2  0
  5  6  1  0
  6  9  1  0
  8  6  1  0
 10 11  1  0
 12 18  1  0
 13 18  1  0
 14 15  1  0
 14 13  1  0
 16 15  1  0
 16 25  1  0
 16 17  1  0
 18 17  1  0
 19 12  2  0
 20 12  1  0
 20 11  1  0
 21 20  1  0
 22 23  2  0
 23 42  1  0
 24 27  1  0
 24 23  1  0
 25 26  1  0
 25 22  1  0
 26 24  2  0
 27 28  1  0
 28 29  2  0
 30 33  1  0
 30 29  1  0
 31 30  2  0
 32 31  1  0
 32 27  2  0
 33 34  1  0
 34 35  1  0
 35 36  2  0
 37 36  1  0
 37 41  1  0
 38 37  2  0
 39 34  2  0
 39 38  1  0
 40 39  1  0
 42 43  1  0
 43 46  1  0
 43 45  1  0
 44 42  2  0
 47 22  1  0
 47 48  1  0
 49 47  1  0
 50 52  1  0
 50  1  1  0
 52 51  1  0
 53 50  1  0
 53 54  1  0
 55 54  1  0
 55 56  1  0
 57 59  1  0
 57 56  1  0
 58 69  2  0
 59 64  1  0
 60 68  1  0
 60 70  1  0
 61 67  1  0
 61 63  1  0
 62 68  1  0
 63 62  1  0
 64 63  2  0
 65 66  1  0
 65 59  2  0
 66 61  2  0
 67 60  1  0
 68 58  1  0
 70 72  2  0
 71 70  1  0
 73 71  1  0
 74 83  2  0
 74 79  1  0
 75 71  1  0
 75 79  1  0
 76 75  1  0
 77 78  1  0
 77 76  1  0
 78 74  1  0
 79 80  2  0
 80 81  1  0
 82 81  2  0
 83 82  1  0
 84 58  1  0
 84 89  1  0
 84 85  1  0
 85 88  1  1
 85 86  1  0
 87 85  1  0
 89 92  1  0
 90 94  1  0
 90 89  1  0
 91 90  2  0
 94 93  1  0
 96 94  1  0
 96 97  1  0
 96 95  1  0
M  ISO  4  12 100  20 100  56 101  57 101
M  END
>  <TORSDO>  (46) 
F 27

>  <SCORE>  (46) 
-6.845

>  <name>  (46) 
45

>  <ligand_id>  (46) 
45

>  <original_smiles>  (46) 
[H]c1c([H])c([H])c2c(c1[H])C([H])([H])C([H])([H])C([H])([H])C2([H])N([H])C(=O)C1([H])N(C(=O)C([H])(N([H])C(=O)C([H])(N([H])C([H])([H])[H])C([H])([H])[H])C(C([H])([H])[H])(C([H])([H])[H])C([H])([H])[H])C([H])([H])c2c([H])c(OC([H])([H])C([H])([H])C([H])([H])C([H])([H])C([H])(C(=O)C([H])([H])C([H])(C(=O)N([H])[H])C([H])([H])C([H])([H])N([H])C(=O)N3C([H])([H])C([H])([H])C([H])([H])C([H])(n4nc(-c5c([H])c([H])c(Oc6c([H])c([H])c(F)c([H])c6F)c([H])c5[H])c(C(=O)N([H])[H])c4N([H])[H])C3([H])[H])C([H])([H])C([H])([H])[H])c([H])c([H])c2C1([H])[H]

>  <smiles>  (46) 
[H]c1c([H])c([H])c2c(c1[H])C([H])([H])C([H])([H])C([H])([H])C2([H])N([H])C(=O)C1([H])N(C(=O)C([H])(N([H])C(=O)C([H])(N([H])C([H])([H])[H])C([H])([H])[H])C(C([H])([H])[H])(C([H])([H])[H])C([H])([H])[H])C([H])([H])c2c([H])c(OC([H])([H])C([H])([H])C([H])([H])C([H])([H])C([H])(C(=O)C([H])([H])C([H])(C(=O)N([H])[H])C([H])([H])C([H])([H])N([H])C(=O)N3C([H])([H])C([H])([H])C([H])([H])C([H])(n4nc(-c5c([H])c([H])c(Oc6c([H])c([H])c(F)c([H])c6F)c([H])c5[H])c(C(=O)N([H])[H])c4N([H])[H])C3([H])[H])C([H])([H])C([H])([H])[H])c([H])c([H])c2C1([H])[H]

$$$$
46:0:0
     RDKit          3D

 97105  0  0  1  0  0  0  0  0999 V2000
  -30.1160  -18.5310   20.1350 C   0  0  0  0  0  3  0  0  0  0  0  0
  -30.0620  -19.2080   17.5390 C   0  0  0  0  0  2  0  0  0  0  0  0
  -30.8630  -17.2570   17.9170 C   0  0  0  0  0  2  0  0  0  0  0  0
  -31.0820  -18.3130   16.8280 C   0  0  0  0  0  3  0  0  0  0  0  0
  -29.8600  -18.1630   18.6570 C   0  0  0  0  0  3  0  0  0  0  0  0
  -32.5070  -18.8910   16.7990 C   0  0  0  0  0  0  0  0  0  0  0  0
  -33.0710  -19.0860   15.6140 N   0  0  0  0  0  0  0  0  0  0  0  0
  -33.1090  -19.1610   17.8380 O   0  0  0  0  0  0  0  0  0  0  0  0
  -32.5660  -18.8940   14.7610 H   0  0  0  0  0  0  0  0  0  0  0  0
  -34.0140  -19.4450   15.5550 H   0  0  0  0  0  0  0  0  0  0  0  0
  -29.3270  -19.7880   20.5410 N   0  0  0  0  0  4  0  0  0  0  0  0
  -28.4550  -19.7550   20.0400 H   0  0  0  0  0  0  0  0  0  0  0  0
  -29.0990  -19.6880   21.5160 H   0  0  0  0  0  0  0  0  0  0  0  0
  -29.8740  -21.2110   20.4020 C   0  0  0  0  0  3  0  0  0  0  0  0
  -28.7900  -22.4030   20.3680 C   0  0  0  0  0  3  0  0  0  0  0  0
  -29.2300  -23.9530   20.3850 C   0  0  0  0  0  3  0  0  0  0  0  0
  -28.1050  -25.0520   20.0800 C   0  0  0  0  0  3  0  0  0  0  0  0
  -28.3360  -26.5160   20.2470 O   0  0  0  0  0  0  0  0  0  0  0  0
  -24.6260  -31.9940   23.2170 C   0  0  0  0  0  0  0  0  0  0  0  0
  -27.2140  -27.3720   20.2070 C   0  0  0  0  0  0  0  0  0  0  0  0
  -23.4080  -30.5610   21.6250 C   0  0  0  0  0  3  0  0  0  0  0  0
  -24.8430  -28.9910   20.2050 C   0  0  0  0  0  0  0  0  0  0  0  0
  -25.9420  -30.8800   21.3970 C   0  0  0  0  0  2  0  0  0  0  0  0
  -26.0220  -29.4870   20.7760 C   0  0  0  0  0  0  0  0  0  0  0  0
  -27.2120  -28.6910   20.7630 C   0  0  0  0  0  3  0  0  0  0  0  0
  -26.0050  -26.9330   19.6130 C   0  0  0  0  0  3  0  0  0  0  0  0
  -24.8390  -27.7190   19.6140 C   0  0  0  0  0  3  0  0  0  0  0  0
  -23.6040  -29.8620   20.2550 C   0  0  0  0  0  2  0  0  0  0  0  0
  -24.6800  -31.1610   22.1370 N   0  0  0  0  0  0  0  0  0  0  0  0
  -23.5460  -32.2780   23.7580 O   0  0  0  0  0  0  0  0  0  0  0  0
  -22.7590  -29.5610   22.6090 C   0  0  0  0  0  0  0  0  0  0  0  0
  -21.4370  -29.3540   22.4770 N   0  0  0  0  0  0  0  0  0  0  0  0
  -23.4420  -28.9740   23.4520 O   0  0  0  0  0  0  0  0  0  0  0  0
  -20.9410  -29.8760   21.7670 H   0  0  0  0  0  0  0  0  0  0  0  0
  -18.0790  -28.1160   23.0050 C   0  0  0  0  0  0  0  0  0  0  0  0
  -20.6320  -28.4250   23.2730 C   0  0  0  0  0  3  0  0  0  0  0  0
  -20.7610  -26.9800   22.7390 C   0  0  0  0  0  2  0  0  0  0  0  0
  -19.6680  -26.6080   21.7330 C   0  0  0  0  0  2  0  0  0  0  0  0
  -18.2800  -26.7500   22.3700 C   0  0  0  0  0  2  0  0  0  0  0  0
  -19.1830  -28.9080   23.4160 C   0  0  0  0  0  0  0  0  0  0  0  0
  -18.9430  -30.1820   23.9710 C   0  0  0  0  0  3  0  0  0  0  0  0
  -17.6310  -30.6700   24.1130 C   0  0  0  0  0  3  0  0  0  0  0  0
  -16.5400  -29.8740   23.7210 C   0  0  0  0  0  3  0  0  0  0  0  0
  -16.7640  -28.5990   23.1750 C   0  0  0  0  0  3  0  0  0  0  0  0
  -25.9120  -32.6450   23.8080 C   0  0  0  0  0  3  0  0  0  0  0  0
  -25.5900  -34.0390   24.1430 N   0  0  0  0  0  0  0  0  0  0  0  0
  -25.9010  -35.0980   23.3810 C   0  0  0  0  0  0  0  0  0  0  0  0
  -26.5540  -35.0010   22.3380 O   0  0  0  0  0  0  0  0  0  0  0  0
  -25.0000  -34.1830   24.9490 H   0  0  0  0  0  0  0  0  0  0  0  0
  -24.1620  -36.8830   23.0360 C   0  0  0  0  0  1  0  0  0  0  0  0
  -25.4060  -36.4800   23.8440 C   0  0  0  0  0  3  0  0  0  0  0  0
  -27.5350  -37.3770   24.6840 C   0  0  0  0  0  1  0  0  0  0  0  0
  -26.4350  -37.5370   23.7360 N   0  0  0  0  0  0  0  0  0  0  0  0
  -26.0240  -38.4540   23.8860 H   0  0  0  0  0  0  0  0  0  0  0  0
  -26.4660  -31.8820   25.0730 C   0  0  1  0  0  0  0  0  0  0  0  0
  -25.3920  -31.6050   26.1540 C   0  0  0  0  0  1  0  0  0  0  0  0
  -27.0790  -30.5220   24.6650 C   0  0  0  0  0  1  0  0  0  0  0  0
  -27.6060  -32.7020   25.7220 C   0  0  0  0  0  1  0  0  0  0  0  0
  -29.8840  -17.2860   21.1380 C   0  0  0  0  0  2  0  0  0  0  0  0
  -30.6410  -14.7780   20.5170 C   0  0  0  0  0  0  0  0  0  0  0  0
  -30.4850  -12.5540   19.3990 C   0  0  0  0  0  2  0  0  0  0  0  0
  -29.5430  -12.6630   18.1780 C   0  0  0  0  0  2  0  0  0  0  0  0
  -28.0690  -12.4820   18.5940 C   0  0  0  0  0  2  0  0  0  0  0  0
  -27.6850  -13.3390   19.8270 C   0  0  0  0  0  3  0  0  0  0  0  0
  -28.7330  -13.1840   20.9520 C   0  0  0  0  0  2  0  0  0  0  0  0
  -30.0390  -13.5530   20.3840 N   0  0  0  0  0  0  0  0  0  0  0  0
  -31.8400  -14.9390   20.2820 O   0  0  0  0  0  0  0  0  0  0  0  0
  -29.7790  -15.8290   20.7110 N   0  0  0  0  0  0  0  0  0  0  0  0
  -28.8270  -15.4970   20.7330 H   0  0  0  0  0  0  0  0  0  0  0  0
  -25.2750  -13.9260   20.4960 C   0  0  0  0  0  0  0  0  0  0  0  0
  -24.2070  -13.1460   20.8480 C   0  0  0  0  0  0  0  0  0  0  0  0
  -24.6830  -11.7980   20.8370 C   0  0  0  0  0  0  0  0  0  0  0  0
  -26.3310  -13.0520   20.2900 N   0  0  0  0  0  0  0  0  0  0  0  0
  -25.9790  -11.7690   20.5580 N   0  0  0  0  0  0  0  0  0  0  0  0
  -23.9630  -10.5310   21.0170 C   0  0  0  0  0  0  0  0  0  0  0  0
  -24.3600   -9.5870   21.9900 C   0  0  0  0  0  3  0  0  0  0  0  0
  -23.6410   -8.3840   22.1570 C   0  0  0  0  0  3  0  0  0  0  0  0
  -22.5110   -8.1150   21.3500 C   0  0  0  0  0  0  0  0  0  0  0  0
  -22.1320   -9.0460   20.3670 C   0  0  0  0  0  3  0  0  0  0  0  0
  -22.8530  -10.2420   20.1980 C   0  0  0  0  0  3  0  0  0  0  0  0
  -21.7670   -6.9620   21.4240 O   0  0  0  0  0  0  0  0  0  0  0  0
  -21.6470   -6.2570   22.5950 C   0  0  0  0  0  0  0  0  0  0  0  0
  -21.0790   -6.8310   23.7530 C   0  0  0  0  0  3  0  0  0  0  0  0
  -20.9110   -6.0500   24.9150 C   0  0  0  0  0  3  0  0  0  0  0  0
  -21.3010   -4.6980   24.9170 C   0  0  0  0  0  0  0  0  0  0  0  0
  -21.8620   -4.1240   23.7620 C   0  0  0  0  0  3  0  0  0  0  0  0
  -22.0320   -4.9010   22.6040 C   0  0  0  0  0  0  0  0  0  0  0  0
  -22.5540   -4.3380   21.4860 F   0  0  0  0  0  0  0  0  0  0  0  0
  -21.1330   -3.9440   26.0290 F   0  0  0  0  0  0  0  0  0  0  0  0
  -22.7990  -13.6100   21.0840 C   0  0  0  0  0  0  0  0  0  0  0  0
  -22.0550  -12.9010   21.9260 N   0  0  0  0  0  0  0  0  0  0  0  0
  -22.3690  -14.6360   20.5600 O   0  0  0  0  0  0  0  0  0  0  0  0
  -22.4170  -12.0690   22.3680 H   0  0  0  0  0  0  0  0  0  0  0  0
  -21.1090  -13.1940   22.1310 H   0  0  0  0  0  0  0  0  0  0  0  0
  -25.4270  -15.2950   20.3080 N   0  0  0  0  0  0  0  0  0  0  0  0
  -24.6400  -15.9310   20.3770 H   0  0  0  0  0  0  0  0  0  0  0  0
  -26.2530  -15.7380   19.9280 H   0  0  0  0  0  0  0  0  0  0  0  0
  1 11  1  0
  1 59  1  0
  2  5  1  0
  3  5  1  0
  4  6  1  0
  4  2  1  0
  4  3  1  0
  5  1  1  0
  6  8  2  0
  7  6  1  0
  9  7  1  0
 10  7  1  0
 11 13  1  0
 12 11  1  0
 14 11  1  0
 15 16  1  0
 15 14  2  0
 17 18  1  0
 17 16  2  0
 19 30  2  0
 20 18  1  0
 20 25  1  0
 21 29  1  0
 21 31  1  0
 22 28  1  0
 22 24  1  0
 23 29  1  0
 24 23  1  0
 25 24  2  0
 26 27  1  0
 26 20  2  0
 27 22  2  0
 28 21  1  0
 29 19  1  0
 31 33  2  0
 32 31  1  0
 34 32  1  0
 35 44  2  0
 35 40  1  0
 36 32  1  0
 36 40  1  0
 37 36  1  0
 38 39  1  0
 38 37  1  0
 39 35  1  0
 40 41  2  0
 41 42  1  0
 43 42  2  0
 44 43  1  0
 45 19  1  0
 45 46  1  0
 45 55  1  0
 46 49  1  0
 47 51  1  0
 47 46  1  0
 48 47  2  0
 51 50  1  0
 53 51  1  0
 53 54  1  0
 53 52  1  0
 55 58  1  1
 55 56  1  0
 57 55  1  0
 60 68  1  0
 61 66  1  0
 62 63  1  0
 62 61  1  0
 64 63  1  0
 64 73  1  0
 64 65  1  0
 66 60  1  0
 66 65  1  0
 67 60  2  0
 68 69  1  0
 68 59  1  0
 70 71  2  0
 71 90  1  0
 72 71  1  0
 72 75  1  0
 73 70  1  0
 73 74  1  0
 74 72  2  0
 75 76  1  0
 76 77  2  0
 78 81  1  0
 78 77  1  0
 79 78  2  0
 80 79  1  0
 80 75  2  0
 81 82  1  0
 82 87  2  0
 82 83  1  0
 83 84  2  0
 84 85  1  0
 85 89  1  0
 86 85  2  0
 87 86  1  0
 88 87  1  0
 90 91  1  0
 91 94  1  0
 91 93  1  0
 92 90  2  0
 95 96  1  0
 95 70  1  0
 97 95  1  0
M  ISO  4  17 101  18 101  60 100  68 100
M  END
>  <TORSDO>  (47) 
F 24

>  <SCORE>  (47) 
-12.472

>  <name>  (47) 
46

>  <ligand_id>  (47) 
46

>  <original_smiles>  (47) 
[H]c1c([H])c([H])c2c(c1[H])C([H])([H])C([H])([H])C([H])([H])C2([H])N([H])C(=O)C1([H])N(C(=O)C([H])(N([H])C(=O)C([H])(N([H])C([H])([H])[H])C([H])([H])[H])C(C([H])([H])[H])(C([H])([H])[H])C([H])([H])[H])C([H])([H])c2c([H])c(OC([H])([H])C([H])([H])C([H])([H])C([H])([H])[N+]([H])([H])C([H])(C([H])([H])N([H])C(=O)N3C([H])([H])C([H])([H])C([H])([H])C([H])(n4nc(-c5c([H])c([H])c(Oc6c([H])c([H])c(F)c([H])c6F)c([H])c5[H])c(C(=O)N([H])[H])c4N([H])[H])C3([H])[H])C3([H])C([H])([H])C([H])(C(=O)N([H])[H])C3([H])[H])c([H])c([H])c2C1([H])[H]

>  <smiles>  (47) 
[H]c1c([H])c([H])c2c(c1[H])C([H])([H])C([H])([H])C([H])([H])C2([H])N([H])C(=O)C1([H])N(C(=O)C([H])(N([H])C(=O)C([H])(N([H])C([H])([H])[H])C([H])([H])[H])C(C([H])([H])[H])(C([H])([H])[H])C([H])([H])[H])C([H])([H])c2c([H])c(OC([H])([H])C([H])([H])C([H])([H])C([H])([H])[N+]([H])([H])C([H])(C([H])([H])N([H])C(=O)N3C([H])([H])C([H])([H])C([H])([H])C([H])(n4nc(-c5c([H])c([H])c(Oc6c([H])c([H])c(F)c([H])c6F)c([H])c5[H])c(C(=O)N([H])[H])c4N([H])[H])C3([H])[H])C3([H])C([H])([H])C([H])(C(=O)N([H])[H])C3([H])[H])c([H])c([H])c2C1([H])[H]

$$$$
47:0:0
     RDKit          3D

 89 96  0  0  1  0  0  0  0  0999 V2000
  -29.1560  -22.3530   20.8310 C   0  0  0  0  0  2  0  0  0  0  0  0
  -29.5820  -21.3810   19.7230 C   0  0  0  0  0  0  0  0  0  0  0  0
  -30.2970  -21.7320   18.7810 O   0  0  0  0  0  0  0  0  0  0  0  0
  -29.0990  -19.9350   19.8310 C   0  0  0  0  0  2  0  0  0  0  0  0
  -30.0200  -19.0630   20.7030 C   0  0  0  0  0  2  0  0  0  0  0  0
  -29.6130  -17.5810   20.6630 C   0  0  0  0  0  2  0  0  0  0  0  0
  -30.5000  -16.6770   21.5380 C   0  0  0  0  0  2  0  0  0  0  0  0
  -30.6980  -14.4010   20.5310 C   0  0  0  0  0  0  0  0  0  0  0  0
  -30.3570  -12.3120   19.2660 C   0  0  0  0  0  2  0  0  0  0  0  0
  -29.4100  -12.5750   18.0770 C   0  0  0  0  0  2  0  0  0  0  0  0
  -27.9360  -12.4370   18.5090 C   0  0  0  0  0  2  0  0  0  0  0  0
  -27.6180  -13.2390   19.7990 C   0  0  0  0  0  3  0  0  0  0  0  0
  -28.6700  -12.9480   20.8930 C   0  0  0  0  0  2  0  0  0  0  0  0
  -30.0050  -13.2490   20.3420 N   0  0  0  0  0  0  0  0  0  0  0  0
  -31.7480  -14.6690   19.9360 O   0  0  0  0  0  0  0  0  0  0  0  0
  -30.1220  -15.2750   21.3680 N   0  0  0  0  0  0  0  0  0  0  0  0
  -29.2840  -14.9630   21.8350 H   0  0  0  0  0  0  0  0  0  0  0  0
  -25.2150  -13.8520   20.4980 C   0  0  0  0  0  0  0  0  0  0  0  0
  -24.1460  -13.0810   20.8720 C   0  0  0  0  0  0  0  0  0  0  0  0
  -24.6090  -11.7290   20.8490 C   0  0  0  0  0  0  0  0  0  0  0  0
  -26.2610  -12.9700   20.2740 N   0  0  0  0  0  0  0  0  0  0  0  0
  -25.8980  -11.6880   20.5390 N   0  0  0  0  0  0  0  0  0  0  0  0
  -23.8850  -10.4670   21.0480 C   0  0  0  0  0  0  0  0  0  0  0  0
  -24.3330   -9.4980   21.9710 C   0  0  0  0  0  3  0  0  0  0  0  0
  -23.6120   -8.2990   22.1570 C   0  0  0  0  0  3  0  0  0  0  0  0
  -22.4280   -8.0610   21.4190 C   0  0  0  0  0  0  0  0  0  0  0  0
  -21.9990   -9.0200   20.4840 C   0  0  0  0  0  3  0  0  0  0  0  0
  -22.7200  -10.2100   20.2970 C   0  0  0  0  0  3  0  0  0  0  0  0
  -21.6750   -6.9160   21.5160 O   0  0  0  0  0  0  0  0  0  0  0  0
  -21.6590   -6.1600   22.6590 C   0  0  0  0  0  0  0  0  0  0  0  0
  -21.2730   -6.7000   23.9060 C   0  0  0  0  0  3  0  0  0  0  0  0
  -21.2020   -5.8710   25.0420 C   0  0  0  0  0  3  0  0  0  0  0  0
  -21.5090   -4.5010   24.9350 C   0  0  0  0  0  0  0  0  0  0  0  0
  -21.8880   -3.9590   23.6940 C   0  0  0  0  0  3  0  0  0  0  0  0
  -21.9590   -4.7870   22.5600 C   0  0  0  0  0  0  0  0  0  0  0  0
  -22.3050   -4.2550   21.3620 F   0  0  0  0  0  0  0  0  0  0  0  0
  -21.4330   -3.7010   26.0240 F   0  0  0  0  0  0  0  0  0  0  0  0
  -22.7490  -13.5570   21.1450 C   0  0  0  0  0  0  0  0  0  0  0  0
  -22.0240  -12.8650   22.0160 N   0  0  0  0  0  0  0  0  0  0  0  0
  -22.3080  -14.5770   20.6190 O   0  0  0  0  0  0  0  0  0  0  0  0
  -22.3930  -12.0400   22.4640 H   0  0  0  0  0  0  0  0  0  0  0  0
  -21.0860  -13.1660   22.2400 H   0  0  0  0  0  0  0  0  0  0  0  0
  -25.3800  -15.2220   20.3140 N   0  0  0  0  0  0  0  0  0  0  0  0
  -24.6170  -15.8810   20.4220 H   0  0  0  0  0  0  0  0  0  0  0  0
  -26.2350  -15.6560   19.9880 H   0  0  0  0  0  0  0  0  0  0  0  0
  -29.3700  -23.8500   20.5050 C   0  0  0  0  0  2  0  0  0  0  0  0
  -28.3800  -24.4180   19.4660 C   0  0  0  0  0  2  0  0  0  0  0  0
  -28.6900  -25.8720   19.0640 C   0  0  0  0  0  2  0  0  0  0  0  0
  -28.4350  -26.8030   20.1180 O   0  0  0  0  0  0  0  0  0  0  0  0
  -24.5880  -31.8920   23.2550 C   0  0  0  0  0  0  0  0  0  0  0  0
  -27.2300  -27.4740   20.1340 C   0  0  0  0  0  0  0  0  0  0  0  0
  -23.3740  -30.4920   21.6160 C   0  0  0  0  0  3  0  0  0  0  0  0
  -24.8210  -28.9560   20.1860 C   0  0  0  0  0  0  0  0  0  0  0  0
  -25.8980  -30.8520   21.4080 C   0  0  0  0  0  2  0  0  0  0  0  0
  -25.9780  -29.4820   20.7700 C   0  0  0  0  0  0  0  0  0  0  0  0
  -27.1810  -28.7420   20.7540 C   0  0  0  0  0  3  0  0  0  0  0  0
  -26.0470  -26.9510   19.5640 C   0  0  0  0  0  3  0  0  0  0  0  0
  -24.8450  -27.6830   19.5910 C   0  0  0  0  0  3  0  0  0  0  0  0
  -23.5780  -29.8140   20.2350 C   0  0  0  0  0  2  0  0  0  0  0  0
  -24.6380  -31.0940   22.1520 N   0  0  0  0  0  0  0  0  0  0  0  0
  -23.5100  -32.1640   23.8020 O   0  0  0  0  0  0  0  0  0  0  0  0
  -22.7290  -29.4690   22.5780 C   0  0  0  0  0  0  0  0  0  0  0  0
  -21.4050  -29.2830   22.4510 N   0  0  0  0  0  0  0  0  0  0  0  0
  -23.4160  -28.8460   23.3920 O   0  0  0  0  0  0  0  0  0  0  0  0
  -20.9130  -29.8380   21.7650 H   0  0  0  0  0  0  0  0  0  0  0  0
  -18.0370  -28.0760   22.9460 C   0  0  0  0  0  0  0  0  0  0  0  0
  -20.5920  -28.3440   23.2230 C   0  0  0  0  0  3  0  0  0  0  0  0
  -20.7020  -26.9120   22.6510 C   0  0  0  0  0  2  0  0  0  0  0  0
  -19.6040  -26.5820   21.6350 C   0  0  0  0  0  2  0  0  0  0  0  0
  -18.2200  -26.7250   22.2750 C   0  0  0  0  0  2  0  0  0  0  0  0
  -19.1510  -28.8430   23.3760 C   0  0  0  0  0  0  0  0  0  0  0  0
  -18.9280  -30.1080   23.9620 C   0  0  0  0  0  3  0  0  0  0  0  0
  -17.6210  -30.6060   24.1230 C   0  0  0  0  0  3  0  0  0  0  0  0
  -16.5200  -29.8350   23.7090 C   0  0  0  0  0  3  0  0  0  0  0  0
  -16.7290  -28.5730   23.1260 C   0  0  0  0  0  3  0  0  0  0  0  0
  -25.8790  -32.5210   23.8680 C   0  0  0  0  0  3  0  0  0  0  0  0
  -25.5750  -33.9200   24.1950 N   0  0  0  0  0  0  0  0  0  0  0  0
  -25.9100  -34.9690   23.4310 C   0  0  0  0  0  0  0  0  0  0  0  0
  -26.5790  -34.8610   22.4000 O   0  0  0  0  0  0  0  0  0  0  0  0
  -24.9830  -34.0800   24.9970 H   0  0  0  0  0  0  0  0  0  0  0  0
  -24.1870  -36.7640   23.0680 C   0  0  0  0  0  1  0  0  0  0  0  0
  -25.4250  -36.3590   23.8840 C   0  0  0  0  0  3  0  0  0  0  0  0
  -27.5600  -37.2380   24.7170 C   0  0  0  0  0  1  0  0  0  0  0  0
  -26.4610  -37.4090   23.7720 N   0  0  0  0  0  0  0  0  0  0  0  0
  -26.0560  -38.3300   23.9200 H   0  0  0  0  0  0  0  0  0  0  0  0
  -26.4040  -31.7500   25.1420 C   0  0  1  0  0  0  0  0  0  0  0  0
  -25.3190  -31.5140   26.2190 C   0  0  0  0  0  1  0  0  0  0  0  0
  -26.9830  -30.3720   24.7470 C   0  0  0  0  0  1  0  0  0  0  0  0
  -27.5590  -32.5450   25.7970 C   0  0  0  0  0  1  0  0  0  0  0  0
  2  4  1  0
  2  1  1  0
  3  2  2  0
  4  5  1  0
  6  5  1  0
  6  7  1  0
  8 16  1  0
  9 14  1  0
 10 11  1  0
 10  9  1  0
 12 11  1  0
 12 21  1  0
 12 13  1  0
 14  8  1  0
 14 13  1  0
 15  8  2  0
 16  7  1  0
 16 17  1  0
 18 19  2  0
 19 38  1  0
 20 19  1  0
 20 23  1  0
 21 18  1  0
 21 22  1  0
 22 20  2  0
 23 24  1  0
 24 25  2  0
 26 29  1  0
 26 25  1  0
 27 26  2  0
 28 27  1  0
 28 23  2  0
 29 30  1  0
 30 31  1  0
 31 32  2  0
 33 32  1  0
 33 37  1  0
 34 33  2  0
 35 30  2  0
 35 34  1  0
 36 35  1  0
 38 39  1  0
 39 42  1  0
 39 41  1  0
 40 38  2  0
 43 44  1  0
 43 18  1  0
 45 43  1  0
 46  1  1  0
 47 46  1  0
 48 47  1  0
 48 49  1  0
 49 51  1  0
 50 61  2  0
 51 56  1  0
 52 60  1  0
 52 62  1  0
 53 59  1  0
 53 55  1  0
 54 60  1  0
 55 54  1  0
 56 55  2  0
 57 58  1  0
 57 51  2  0
 58 53  2  0
 59 52  1  0
 60 50  1  0
 62 64  2  0
 63 62  1  0
 65 63  1  0
 66 75  2  0
 66 71  1  0
 67 63  1  0
 67 71  1  0
 68 67  1  0
 69 70  1  0
 69 68  1  0
 70 66  1  0
 71 72  2  0
 72 73  1  0
 74 73  2  0
 75 74  1  0
 76 50  1  0
 76 77  1  0
 76 86  1  0
 77 80  1  0
 78 82  1  0
 78 77  1  0
 79 78  2  0
 82 81  1  0
 84 82  1  0
 84 85  1  0
 84 83  1  0
 86 89  1  1
 86 87  1  0
 88 86  1  0
M  ISO  4   8 100  16 100  48 101  49 101
M  END
>  <TORSDO>  (48) 
F 24

>  <SCORE>  (48) 
-12.457

>  <name>  (48) 
47

>  <ligand_id>  (48) 
47

>  <original_smiles>  (48) 
[H]c1c([H])c([H])c2c(c1[H])C([H])([H])C([H])([H])C([H])([H])C2([H])N([H])C(=O)C1([H])N(C(=O)C([H])(N([H])C(=O)C([H])(N([H])C([H])([H])[H])C([H])([H])[H])C(C([H])([H])[H])(C([H])([H])[H])C([H])([H])[H])C([H])([H])c2c([H])c(OC([H])([H])C([H])([H])C([H])([H])C([H])([H])C(=O)C([H])([H])C([H])([H])C([H])([H])C([H])([H])N([H])C(=O)N3C([H])([H])C([H])([H])C([H])([H])C([H])(n4nc(-c5c([H])c([H])c(Oc6c([H])c([H])c(F)c([H])c6F)c([H])c5[H])c(C(=O)N([H])[H])c4N([H])[H])C3([H])[H])c([H])c([H])c2C1([H])[H]

>  <smiles>  (48) 
[H]c1c([H])c([H])c2c(c1[H])C([H])([H])C([H])([H])C([H])([H])C2([H])N([H])C(=O)C1([H])N(C(=O)C([H])(N([H])C(=O)C([H])(N([H])C([H])([H])[H])C([H])([H])[H])C(C([H])([H])[H])(C([H])([H])[H])C([H])([H])[H])C([H])([H])c2c([H])c(OC([H])([H])C([H])([H])C([H])([H])C([H])([H])C(=O)C([H])([H])C([H])([H])C([H])([H])C([H])([H])N([H])C(=O)N3C([H])([H])C([H])([H])C([H])([H])C([H])(n4nc(-c5c([H])c([H])c(Oc6c([H])c([H])c(F)c([H])c6F)c([H])c5[H])c(C(=O)N([H])[H])c4N([H])[H])C3([H])[H])c([H])c([H])c2C1([H])[H]

$$$$
48:0:0
     RDKit          3D

 94102  0  0  1  0  0  0  0  0999 V2000
  -32.2540  -20.4380   18.1470 C   0  0  0  0  0  1  0  0  0  0  0  0
  -30.2870  -18.9790   17.8790 C   0  0  0  0  0  1  0  0  0  0  0  0
  -31.0540  -19.8350   18.9110 C   0  0  1  0  0  0  0  0  0  0  0  0
  -32.0330  -19.4240   21.4170 C   0  0  0  0  0  2  0  0  0  0  0  0
  -31.6610  -18.0410   21.9880 C   0  0  0  0  0  3  0  0  0  0  0  0
  -31.5940  -18.9150   20.0390 C   0  0  0  0  0  3  0  0  0  0  0  0
  -30.6970  -17.9010   20.7880 C   0  0  0  0  0  3  0  0  0  0  0  0
  -30.1820  -16.8150   23.7100 C   0  0  0  0  0  1  0  0  0  0  0  0
  -31.1700  -17.9580   23.4370 C   0  0  0  0  0  2  0  0  0  0  0  0
  -30.4380  -16.5710   20.0650 C   0  0  0  0  0  2  0  0  0  0  0  0
  -31.1530  -14.3020   20.5810 C   0  0  0  0  0  0  0  0  0  0  0  0
  -30.8140  -12.1770   19.4080 C   0  0  0  0  0  2  0  0  0  0  0  0
  -29.9230  -12.4680   18.1790 C   0  0  0  0  0  2  0  0  0  0  0  0
  -28.4290  -12.3940   18.5520 C   0  0  0  0  0  2  0  0  0  0  0  0
  -28.0880  -13.2060   19.8270 C   0  0  0  0  0  3  0  0  0  0  0  0
  -29.0950  -12.9100   20.9670 C   0  0  0  0  0  2  0  0  0  0  0  0
  -30.4570  -13.1450   20.4540 N   0  0  0  0  0  0  0  0  0  0  0  0
  -32.3100  -14.4470   20.1710 O   0  0  0  0  0  0  0  0  0  0  0  0
  -30.3950  -15.3620   20.8850 N   0  0  0  0  0  0  0  0  0  0  0  0
  -29.4970  -15.1420   21.2860 H   0  0  0  0  0  0  0  0  0  0  0  0
  -25.6730  -13.8870   20.3930 C   0  0  0  0  0  0  0  0  0  0  0  0
  -24.5730  -13.1500   20.7400 C   0  0  0  0  0  0  0  0  0  0  0  0
  -25.0060  -11.7890   20.7750 C   0  0  0  0  0  0  0  0  0  0  0  0
  -26.7090  -12.9770   20.2480 N   0  0  0  0  0  0  0  0  0  0  0  0
  -26.3070  -11.7120   20.5310 N   0  0  0  0  0  0  0  0  0  0  0  0
  -24.2440  -10.5500   20.9770 C   0  0  0  0  0  0  0  0  0  0  0  0
  -24.6170   -9.6040   21.9560 C   0  0  0  0  0  3  0  0  0  0  0  0
  -23.8590   -8.4270   22.1420 C   0  0  0  0  0  3  0  0  0  0  0  0
  -22.7140   -8.1910   21.3460 C   0  0  0  0  0  0  0  0  0  0  0  0
  -22.3610   -9.1230   20.3540 C   0  0  0  0  0  3  0  0  0  0  0  0
  -23.1200  -10.2900   20.1670 C   0  0  0  0  0  3  0  0  0  0  0  0
  -21.9320   -7.0640   21.4400 O   0  0  0  0  0  0  0  0  0  0  0  0
  -21.8110   -6.3670   22.6150 C   0  0  0  0  0  0  0  0  0  0  0  0
  -21.3540   -6.9810   23.8020 C   0  0  0  0  0  3  0  0  0  0  0  0
  -21.1780   -6.2110   24.9690 C   0  0  0  0  0  3  0  0  0  0  0  0
  -21.4490   -4.8290   24.9500 C   0  0  0  0  0  0  0  0  0  0  0  0
  -21.8970   -4.2160   23.7680 C   0  0  0  0  0  3  0  0  0  0  0  0
  -22.0740   -4.9830   22.6030 C   0  0  0  0  0  0  0  0  0  0  0  0
  -22.4860   -4.3820   21.4600 F   0  0  0  0  0  0  0  0  0  0  0  0
  -21.2740   -4.0870   26.0680 F   0  0  0  0  0  0  0  0  0  0  0  0
  -23.1750  -13.6620   20.9360 C   0  0  0  0  0  0  0  0  0  0  0  0
  -22.4050  -13.0180   21.8040 N   0  0  0  0  0  0  0  0  0  0  0  0
  -22.7760  -14.6710   20.3540 O   0  0  0  0  0  0  0  0  0  0  0  0
  -22.7400  -12.1980   22.2910 H   0  0  0  0  0  0  0  0  0  0  0  0
  -21.4680  -13.3450   21.9870 H   0  0  0  0  0  0  0  0  0  0  0  0
  -25.8770  -15.2470   20.1720 N   0  0  0  0  0  0  0  0  0  0  0  0
  -25.1220  -15.9220   20.2070 H   0  0  0  0  0  0  0  0  0  0  0  0
  -26.7520  -15.6530   19.8680 H   0  0  0  0  0  0  0  0  0  0  0  0
  -30.0780  -20.9510   19.4160 C   0  0  0  0  0  2  0  0  0  0  0  0
  -30.6850  -22.3220   19.8140 C   0  0  0  0  0  2  0  0  0  0  0  0
  -29.6210  -23.4350   20.0100 C   0  0  0  0  0  2  0  0  0  0  0  0
  -30.0880  -24.8300   19.5260 C   0  0  0  0  0  2  0  0  0  0  0  0
  -28.9520  -25.8220   19.1820 C   0  0  0  0  0  2  0  0  0  0  0  0
  -28.5110  -26.5540   20.3280 O   0  0  0  0  0  0  0  0  0  0  0  0
  -24.5970  -31.7730   23.1620 C   0  0  0  0  0  0  0  0  0  0  0  0
  -27.3320  -27.2710   20.2390 C   0  0  0  0  0  0  0  0  0  0  0  0
  -23.4350  -30.3350   21.5170 C   0  0  0  0  0  3  0  0  0  0  0  0
  -24.9270  -28.7650   20.1670 C   0  0  0  0  0  0  0  0  0  0  0  0
  -25.9660  -30.6880   21.3840 C   0  0  0  0  0  2  0  0  0  0  0  0
  -26.0650  -29.3020   20.7770 C   0  0  0  0  0  0  0  0  0  0  0  0
  -27.2660  -28.5550   20.8220 C   0  0  0  0  0  3  0  0  0  0  0  0
  -26.1690  -26.7400   19.6340 C   0  0  0  0  0  3  0  0  0  0  0  0
  -24.9710  -27.4810   19.5970 C   0  0  0  0  0  3  0  0  0  0  0  0
  -23.6820  -29.6230   20.1600 C   0  0  0  0  0  2  0  0  0  0  0  0
  -24.6820  -30.9480   22.0790 N   0  0  0  0  0  0  0  0  0  0  0  0
  -23.5020  -32.0600   23.6650 O   0  0  0  0  0  0  0  0  0  0  0  0
  -22.7550  -29.3390   22.4830 C   0  0  0  0  0  0  0  0  0  0  0  0
  -21.4320  -29.1680   22.3320 N   0  0  0  0  0  0  0  0  0  0  0  0
  -23.4150  -28.7210   23.3230 O   0  0  0  0  0  0  0  0  0  0  0  0
  -20.9630  -29.7170   21.6250 H   0  0  0  0  0  0  0  0  0  0  0  0
  -18.0340  -28.0220   22.7780 C   0  0  0  0  0  0  0  0  0  0  0  0
  -20.5880  -28.2510   23.0990 C   0  0  0  0  0  3  0  0  0  0  0  0
  -20.6840  -26.8110   22.5430 C   0  0  0  0  0  2  0  0  0  0  0  0
  -19.5980  -26.4870   21.5120 C   0  0  0  0  0  2  0  0  0  0  0  0
  -18.2060  -26.6600   22.1250 C   0  0  0  0  0  2  0  0  0  0  0  0
  -19.1530  -28.7750   23.2200 C   0  0  0  0  0  0  0  0  0  0  0  0
  -18.9400  -30.0500   23.7870 C   0  0  0  0  0  3  0  0  0  0  0  0
  -17.6380  -30.5710   23.9190 C   0  0  0  0  0  3  0  0  0  0  0  0
  -16.5330  -29.8130   23.4970 C   0  0  0  0  0  3  0  0  0  0  0  0
  -16.7300  -28.5410   22.9320 C   0  0  0  0  0  3  0  0  0  0  0  0
  -25.8680  -32.4150   23.8040 C   0  0  0  0  0  3  0  0  0  0  0  0
  -25.5380  -33.8050   24.1450 N   0  0  0  0  0  0  0  0  0  0  0  0
  -25.8570  -34.8690   23.3950 C   0  0  0  0  0  0  0  0  0  0  0  0
  -26.5320  -34.7840   22.3660 O   0  0  0  0  0  0  0  0  0  0  0  0
  -24.9410  -33.9450   24.9480 H   0  0  0  0  0  0  0  0  0  0  0  0
  -24.0960  -36.6320   23.0530 C   0  0  0  0  0  1  0  0  0  0  0  0
  -25.3450  -36.2460   23.8610 C   0  0  0  0  0  3  0  0  0  0  0  0
  -27.4660  -37.1620   24.6920 C   0  0  0  0  0  1  0  0  0  0  0  0
  -26.3580  -37.3180   23.7520 N   0  0  0  0  0  0  0  0  0  0  0  0
  -25.9360  -38.2290   23.9090 H   0  0  0  0  0  0  0  0  0  0  0  0
  -26.3830  -31.6370   25.0770 C   0  0  1  0  0  0  0  0  0  0  0  0
  -25.2830  -31.3740   26.1320 C   0  0  0  0  0  1  0  0  0  0  0  0
  -26.9870  -30.2730   24.6740 C   0  0  0  0  0  1  0  0  0  0  0  0
  -27.5160  -32.4410   25.7590 C   0  0  0  0  0  1  0  0  0  0  0  0
  3  1  1  6
  2  3  1  0
  3 49  1  0
  4  5  1  0
  5  9  1  0
  6  3  1  0
  6  7  1  0
  6  4  1  0
  7 10  1  0
  7  5  1  0
  9  8  1  0
 10 19  1  0
 11 19  1  0
 12 17  1  0
 13 14  1  0
 13 12  1  0
 15 14  1  0
 15 24  1  0
 15 16  1  0
 17 11  1  0
 17 16  1  0
 18 11  2  0
 19 20  1  0
 21 22  2  0
 22 23  1  0
 22 41  1  0
 23 26  1  0
 24 21  1  0
 24 25  1  0
 25 23  2  0
 26 27  1  0
 27 28  2  0
 29 32  1  0
 29 28  1  0
 30 29  2  0
 31 30  1  0
 31 26  2  0
 32 33  1  0
 33 34  1  0
 34 35  2  0
 36 35  1  0
 36 40  1  0
 37 36  2  0
 38 33  2  0
 38 37  1  0
 39 38  1  0
 41 42  1  0
 42 45  1  0
 42 44  1  0
 43 41  2  0
 46 47  1  0
 46 21  1  0
 48 46  1  0
 49 50  1  0
 50 51  1  0
 52 51  1  0
 53 52  1  0
 53 54  1  0
 55 66  2  0
 56 54  1  0
 56 61  1  0
 57 65  1  0
 57 67  1  0
 58 60  1  0
 59 65  1  0
 60 61  2  0
 60 59  1  0
 62 56  2  0
 63 62  1  0
 63 58  2  0
 64 58  1  0
 64 57  1  0
 65 55  1  0
 67 69  2  0
 68 67  1  0
 70 68  1  0
 71 80  2  0
 71 76  1  0
 72 68  1  0
 72 76  1  0
 73 72  1  0
 74 75  1  0
 74 73  1  0
 75 71  1  0
 76 77  2  0
 77 78  1  0
 79 78  2  0
 80 79  1  0
 81 55  1  0
 81 82  1  0
 81 91  1  0
 82 85  1  0
 83 87  1  0
 83 82  1  0
 84 83  2  0
 87 86  1  0
 89 87  1  0
 89 90  1  0
 89 88  1  0
 91 94  1  1
 91 92  1  0
 93 91  1  0
M  ISO  4  11 100  19 100  53 101  54 101
M  END
>  <TORSDO>  (49) 
F 24

>  <SCORE>  (49) 
-9.825

>  <name>  (49) 
48

>  <ligand_id>  (49) 
48

>  <original_smiles>  (49) 
[H]c1c([H])c([H])c2c(c1[H])C([H])([H])C([H])([H])C([H])([H])C2([H])N([H])C(=O)C1([H])N(C(=O)C([H])(N([H])C(=O)C([H])(N([H])C([H])([H])[H])C([H])([H])[H])C(C([H])([H])[H])(C([H])([H])[H])C([H])([H])[H])C([H])([H])c2c([H])c(OC([H])([H])C([H])([H])C([H])([H])C([H])([H])C([H])([H])C(C([H])([H])[H])(C([H])([H])[H])C3([H])C([H])([H])C([H])(C([H])([H])C([H])([H])[H])C3([H])C([H])([H])N([H])C(=O)N3C([H])([H])C([H])([H])C([H])([H])C([H])(n4nc(-c5c([H])c([H])c(Oc6c([H])c([H])c(F)c([H])c6F)c([H])c5[H])c(C(=O)N([H])[H])c4N([H])[H])C3([H])[H])c([H])c([H])c2C1([H])[H]

>  <smiles>  (49) 
[H]c1c([H])c([H])c2c(c1[H])C([H])([H])C([H])([H])C([H])([H])C2([H])N([H])C(=O)C1([H])N(C(=O)C([H])(N([H])C(=O)C([H])(N([H])C([H])([H])[H])C([H])([H])[H])C(C([H])([H])[H])(C([H])([H])[H])C([H])([H])[H])C([H])([H])c2c([H])c(OC([H])([H])C([H])([H])C([H])([H])C([H])([H])C([H])([H])C(C([H])([H])[H])(C([H])([H])[H])C3([H])C([H])([H])C([H])(C([H])([H])C([H])([H])[H])C3([H])C([H])([H])N([H])C(=O)N3C([H])([H])C([H])([H])C([H])([H])C([H])(n4nc(-c5c([H])c([H])c(Oc6c([H])c([H])c(F)c([H])c6F)c([H])c5[H])c(C(=O)N([H])[H])c4N([H])[H])C3([H])[H])c([H])c([H])c2C1([H])[H]

$$$$
49:0:0
     RDKit          3D

 94102  0  0  1  0  0  0  0  0999 V2000
  -30.6670  -19.4590   19.6870 C   0  0  0  0  0  0  0  0  0  0  0  0
  -31.4290  -19.5450   20.6560 O   0  0  0  0  0  0  0  0  0  0  0  0
  -31.0000  -14.4750   19.4330 C   0  0  0  0  0  0  0  0  0  0  0  0
  -30.4850  -12.3930   18.2050 C   0  0  0  0  0  2  0  0  0  0  0  0
  -29.3620  -12.6550   17.1780 C   0  0  0  0  0  2  0  0  0  0  0  0
  -27.9660  -12.5130   17.8250 C   0  0  0  0  0  2  0  0  0  0  0  0
  -27.8610  -13.2710   19.1750 C   0  0  0  0  0  3  0  0  0  0  0  0
  -29.0710  -12.9030   20.0670 C   0  0  0  0  0  2  0  0  0  0  0  0
  -30.2740  -13.3170   19.3360 N   0  0  0  0  0  0  0  0  0  0  0  0
  -32.0820  -14.5690   18.8400 O   0  0  0  0  0  0  0  0  0  0  0  0
  -28.7040  -17.9510   20.1870 C   0  0  0  0  0  2  0  0  0  0  0  0
  -30.9350  -16.9170   19.3750 C   0  0  0  0  0  2  0  0  0  0  0  0
  -29.4690  -15.7330   21.0370 C   0  0  0  0  0  2  0  0  0  0  0  0
  -29.9630  -18.1360   19.3240 C   0  0  0  0  0  3  0  0  0  0  0  0
  -29.0490  -17.1600   21.4520 C   0  0  0  0  0  3  0  0  0  0  0  0
  -30.3840  -15.6270   19.8720 N   0  0  0  0  0  0  0  0  0  0  0  0
  -25.6420  -13.9220   20.3140 C   0  0  0  0  0  0  0  0  0  0  0  0
  -24.6110  -13.1610   20.7940 C   0  0  0  0  0  0  0  0  0  0  0  0
  -24.9920  -11.8010   20.5810 C   0  0  0  0  0  0  0  0  0  0  0  0
  -26.5900  -13.0210   19.8450 N   0  0  0  0  0  0  0  0  0  0  0  0
  -26.2100  -11.7380   20.0620 N   0  0  0  0  0  0  0  0  0  0  0  0
  -24.2500  -10.5530   20.7920 C   0  0  0  0  0  0  0  0  0  0  0  0
  -24.7680   -9.5150   21.5970 C   0  0  0  0  0  3  0  0  0  0  0  0
  -24.0280   -8.3300   21.7990 C   0  0  0  0  0  3  0  0  0  0  0  0
  -22.7580   -8.1760   21.1970 C   0  0  0  0  0  0  0  0  0  0  0  0
  -22.2560   -9.2040   20.3770 C   0  0  0  0  0  3  0  0  0  0  0  0
  -22.9960  -10.3810   20.1730 C   0  0  0  0  0  3  0  0  0  0  0  0
  -21.9770   -7.0530   21.3190 O   0  0  0  0  0  0  0  0  0  0  0  0
  -21.9750   -6.3000   22.4650 C   0  0  0  0  0  0  0  0  0  0  0  0
  -21.6120   -6.8480   23.7160 C   0  0  0  0  0  3  0  0  0  0  0  0
  -21.5550   -6.0210   24.8550 C   0  0  0  0  0  3  0  0  0  0  0  0
  -21.8510   -4.6480   24.7470 C   0  0  0  0  0  0  0  0  0  0  0  0
  -22.2050   -4.1020   23.5010 C   0  0  0  0  0  3  0  0  0  0  0  0
  -22.2640   -4.9240   22.3640 C   0  0  0  0  0  0  0  0  0  0  0  0
  -22.5880   -4.3880   21.1620 F   0  0  0  0  0  0  0  0  0  0  0  0
  -21.7880   -3.8530   25.8400 F   0  0  0  0  0  0  0  0  0  0  0  0
  -23.3000  -13.6640   21.3210 C   0  0  0  0  0  0  0  0  0  0  0  0
  -22.7110  -12.9550   22.2760 N   0  0  0  0  0  0  0  0  0  0  0  0
  -22.8120  -14.7210   20.9210 O   0  0  0  0  0  0  0  0  0  0  0  0
  -23.1220  -12.1020   22.6230 H   0  0  0  0  0  0  0  0  0  0  0  0
  -21.8330  -13.2730   22.6680 H   0  0  0  0  0  0  0  0  0  0  0  0
  -25.8430  -15.2990   20.2190 N   0  0  0  0  0  0  0  0  0  0  0  0
  -25.0040  -15.8620   20.3230 H   0  0  0  0  0  0  0  0  0  0  0  0
  -26.4160  -15.6260   19.4540 H   0  0  0  0  0  0  0  0  0  0  0  0
  -27.9130  -17.1240   22.3970 N   0  0  0  0  0  4  0  0  0  0  0  0
  -27.1230  -16.6510   21.9910 H   0  0  0  0  0  0  0  0  0  0  0  0
  -27.6280  -18.0560   22.6440 H   0  0  0  0  0  0  0  0  0  0  0  0
  -28.1690  -16.6510   23.2470 H   0  0  0  0  0  0  0  0  0  0  0  0
  -30.3330  -20.6760   18.8220 C   0  0  0  0  0  2  0  0  0  0  0  0
  -30.5650  -22.0420   19.5010 C   0  0  0  0  0  2  0  0  0  0  0  0
  -29.7060  -23.1300   18.8350 C   0  0  0  0  0  2  0  0  0  0  0  0
  -29.8560  -24.5420   19.4400 C   0  0  0  0  0  2  0  0  0  0  0  0
  -28.6230  -25.3940   19.1060 C   0  0  0  0  0  2  0  0  0  0  0  0
  -28.6410  -26.6770   19.7380 O   0  0  0  0  0  0  0  0  0  0  0  0
  -24.8120  -31.6410   23.1200 C   0  0  0  0  0  0  0  0  0  0  0  0
  -27.4490  -27.3800   19.7740 C   0  0  0  0  0  0  0  0  0  0  0  0
  -23.5980  -30.3220   21.4190 C   0  0  0  0  0  3  0  0  0  0  0  0
  -25.0430  -28.8710   19.9040 C   0  0  0  0  0  0  0  0  0  0  0  0
  -26.1220  -30.6960   21.2230 C   0  0  0  0  0  2  0  0  0  0  0  0
  -26.2050  -29.3610   20.5130 C   0  0  0  0  0  0  0  0  0  0  0  0
  -27.4060  -28.6200   20.4550 C   0  0  0  0  0  3  0  0  0  0  0  0
  -26.2620  -26.9120   19.1530 C   0  0  0  0  0  3  0  0  0  0  0  0
  -25.0660  -27.6430   19.2280 C   0  0  0  0  0  3  0  0  0  0  0  0
  -23.7970  -29.7180   20.0050 C   0  0  0  0  0  2  0  0  0  0  0  0
  -24.8640  -30.8970   21.9790 N   0  0  0  0  0  0  0  0  0  0  0  0
  -23.7340  -31.8820   23.6800 O   0  0  0  0  0  0  0  0  0  0  0  0
  -22.9600  -29.2470   22.3280 C   0  0  0  0  0  0  0  0  0  0  0  0
  -21.6310  -29.0860   22.2200 N   0  0  0  0  0  0  0  0  0  0  0  0
  -23.6550  -28.5660   23.0860 O   0  0  0  0  0  0  0  0  0  0  0  0
  -21.1340  -29.6840   21.5760 H   0  0  0  0  0  0  0  0  0  0  0  0
  -18.2500  -27.9380   22.7630 C   0  0  0  0  0  0  0  0  0  0  0  0
  -20.8210  -28.1130   22.9510 C   0  0  0  0  0  3  0  0  0  0  0  0
  -20.8650  -26.7280   22.2660 C   0  0  0  0  0  2  0  0  0  0  0  0
  -19.7170  -26.5080   21.2760 C   0  0  0  0  0  2  0  0  0  0  0  0
  -18.3650  -26.6390   21.9820 C   0  0  0  0  0  2  0  0  0  0  0  0
  -19.4040  -28.6380   23.2030 C   0  0  0  0  0  0  0  0  0  0  0  0
  -19.2430  -29.8590   23.8930 C   0  0  0  0  0  3  0  0  0  0  0  0
  -17.9610  -30.3790   24.1470 C   0  0  0  0  0  3  0  0  0  0  0  0
  -16.8210  -29.6750   23.7220 C   0  0  0  0  0  3  0  0  0  0  0  0
  -16.9670  -28.4560   23.0360 C   0  0  0  0  0  3  0  0  0  0  0  0
  -26.1030  -32.2430   23.7600 C   0  0  0  0  0  3  0  0  0  0  0  0
  -26.6230  -31.4180   25.0010 C   0  0  1  0  0  0  0  0  0  0  0  0
  -25.5320  -31.1340   26.0580 C   0  0  0  0  0  1  0  0  0  0  0  0
  -27.2090  -30.0610   24.5480 C   0  0  0  0  0  1  0  0  0  0  0  0
  -27.7750  -32.1870   25.6920 C   0  0  0  0  0  1  0  0  0  0  0  0
  -25.7990  -33.6270   24.1450 N   0  0  0  0  0  0  0  0  0  0  0  0
  -26.1320  -34.7060   23.4240 C   0  0  0  0  0  0  0  0  0  0  0  0
  -26.7990  -34.6400   22.3880 O   0  0  0  0  0  0  0  0  0  0  0  0
  -25.2040  -33.7520   24.9510 H   0  0  0  0  0  0  0  0  0  0  0  0
  -24.4110  -36.5170   23.1310 C   0  0  0  0  0  1  0  0  0  0  0  0
  -25.6460  -36.0760   23.9340 C   0  0  0  0  0  3  0  0  0  0  0  0
  -27.7680  -36.9270   24.8270 C   0  0  0  0  0  1  0  0  0  0  0  0
  -26.6820  -37.1290   23.8710 N   0  0  0  0  0  0  0  0  0  0  0  0
  -26.2770  -38.0460   24.0390 H   0  0  0  0  0  0  0  0  0  0  0  0
  1  2  2  0
  3 16  1  0
  4  9  1  0
  5  6  1  0
  5  4  1  0
  7  6  1  0
  7 20  1  0
  7  8  1  0
  9  3  1  0
  9  8  1  0
 10  3  2  0
 11 15  1  0
 12 16  1  0
 13 15  1  0
 14 12  1  0
 14  1  1  0
 14 11  1  0
 15 45  1  0
 16 13  1  0
 17 18  2  0
 18 37  1  0
 19 22  1  0
 19 18  1  0
 20 21  1  0
 20 17  1  0
 21 19  2  0
 22 23  1  0
 23 24  2  0
 25 28  1  0
 25 24  1  0
 26 25  2  0
 27 26  1  0
 27 22  2  0
 28 29  1  0
 29 30  1  0
 30 31  2  0
 32 31  1  0
 32 36  1  0
 33 32  2  0
 34 29  2  0
 34 33  1  0
 35 34  1  0
 37 38  1  0
 38 40  1  0
 38 41  1  0
 39 37  2  0
 42 17  1  0
 42 43  1  0
 44 42  1  0
 45 47  1  0
 45 48  1  0
 46 45  1  0
 49 50  1  0
 49  1  1  0
 51 52  1  0
 51 50  1  0
 53 52  1  0
 53 54  1  0
 54 56  1  0
 55 66  2  0
 56 61  1  0
 57 65  1  0
 57 67  1  0
 58 64  1  0
 58 60  1  0
 59 65  1  0
 60 59  1  0
 61 60  2  0
 62 63  1  0
 62 56  2  0
 63 58  2  0
 64 57  1  0
 65 55  1  0
 67 69  2  0
 68 67  1  0
 70 68  1  0
 71 80  2  0
 71 76  1  0
 72 68  1  0
 72 76  1  0
 73 72  1  0
 74 75  1  0
 74 73  1  0
 75 71  1  0
 76 77  2  0
 77 78  1  0
 79 78  2  0
 80 79  1  0
 81 55  1  0
 81 86  1  0
 81 82  1  0
 82 85  1  1
 82 83  1  0
 84 82  1  0
 86 89  1  0
 87 91  1  0
 87 86  1  0
 88 87  2  0
 91 90  1  0
 93 91  1  0
 93 94  1  0
 93 92  1  0
M  ISO  4   3 100  16 100  53 101  54 101
M  END
>  <TORSDO>  (50) 
F 22

>  <SCORE>  (50) 
-7.059

>  <name>  (50) 
49

>  <ligand_id>  (50) 
49

>  <original_smiles>  (50) 
[H]c1c([H])c([H])c2c(c1[H])C([H])([H])C([H])([H])C([H])([H])C2([H])N([H])C(=O)C1([H])N(C(=O)C([H])(N([H])C(=O)C([H])(N([H])C([H])([H])[H])C([H])([H])[H])C(C([H])([H])[H])(C([H])([H])[H])C([H])([H])[H])C([H])([H])c2c([H])c(OC([H])([H])C([H])([H])C([H])([H])C([H])([H])C([H])([H])C(=O)C3([H])C([H])([H])N(C(=O)N4C([H])([H])C([H])([H])C([H])([H])C([H])(n5nc(-c6c([H])c([H])c(Oc7c([H])c([H])c(F)c([H])c7F)c([H])c6[H])c(C(=O)N([H])[H])c5N([H])[H])C4([H])[H])C([H])([H])C([H])([N+]([H])([H])[H])C3([H])[H])c([H])c([H])c2C1([H])[H]

>  <smiles>  (50) 
[H]c1c([H])c([H])c2c(c1[H])C([H])([H])C([H])([H])C([H])([H])C2([H])N([H])C(=O)C1([H])N(C(=O)C([H])(N([H])C(=O)C([H])(N([H])C([H])([H])[H])C([H])([H])[H])C(C([H])([H])[H])(C([H])([H])[H])C([H])([H])[H])C([H])([H])c2c([H])c(OC([H])([H])C([H])([H])C([H])([H])C([H])([H])C([H])([H])C(=O)C3([H])C([H])([H])N(C(=O)N4C([H])([H])C([H])([H])C([H])([H])C([H])(n5nc(-c6c([H])c([H])c(Oc7c([H])c([H])c(F)c([H])c7F)c([H])c6[H])c(C(=O)N([H])[H])c5N([H])[H])C4([H])[H])C([H])([H])C([H])([N+]([H])([H])[H])C3([H])[H])c([H])c([H])c2C1([H])[H]

$$$$
50:0:0
     RDKit          3D

 95103  0  0  1  0  0  0  0  0999 V2000
  -29.4700  -19.2830   19.9710 N   0  0  0  0  0  4  0  0  0  0  0  0
  -30.4370  -19.5240   19.8200 H   0  0  0  0  0  0  0  0  0  0  0  0
  -29.1410  -19.8350   20.7480 H   0  0  0  0  0  0  0  0  0  0  0  0
  -31.0230  -14.5970   20.2290 C   0  0  0  0  0  0  0  0  0  0  0  0
  -30.6820  -12.5160   18.9580 C   0  0  0  0  0  2  0  0  0  0  0  0
  -29.6870  -12.7880   17.8110 C   0  0  0  0  0  2  0  0  0  0  0  0
  -28.2250  -12.6580   18.2920 C   0  0  0  0  0  2  0  0  0  0  0  0
  -27.9510  -13.4050   19.6260 C   0  0  0  0  0  3  0  0  0  0  0  0
  -29.0500  -13.0730   20.6600 C   0  0  0  0  0  2  0  0  0  0  0  0
  -30.3460  -13.4310   20.0590 N   0  0  0  0  0  0  0  0  0  0  0  0
  -32.1570  -14.7790   19.7720 O   0  0  0  0  0  0  0  0  0  0  0  0
  -29.6370  -17.5770   21.8290 C   0  0  0  0  0  2  0  0  0  0  0  0
  -29.7950  -16.0500   21.8340 C   0  0  0  0  0  2  0  0  0  0  0  0
  -30.3330  -16.8950   19.6710 C   0  0  0  0  0  3  0  0  0  0  0  0
  -29.3520  -17.8610   20.3600 C   0  0  0  0  0  3  0  0  0  0  0  0
  -30.2350  -15.6680   20.4800 N   0  0  0  0  0  0  0  0  0  0  0  0
  -25.5670  -13.9860   20.4100 C   0  0  0  0  0  0  0  0  0  0  0  0
  -24.5150  -13.1960   20.7940 C   0  0  0  0  0  0  0  0  0  0  0  0
  -24.9900  -11.8500   20.7280 C   0  0  0  0  0  0  0  0  0  0  0  0
  -26.6140  -13.1180   20.1390 N   0  0  0  0  0  0  0  0  0  0  0  0
  -26.2710  -11.8280   20.3870 N   0  0  0  0  0  0  0  0  0  0  0  0
  -24.2830  -10.5780   20.9170 C   0  0  0  0  0  0  0  0  0  0  0  0
  -24.6970   -9.6420   21.8900 C   0  0  0  0  0  3  0  0  0  0  0  0
  -23.9900   -8.4330   22.0660 C   0  0  0  0  0  3  0  0  0  0  0  0
  -22.8560   -8.1520   21.2670 C   0  0  0  0  0  0  0  0  0  0  0  0
  -22.4620   -9.0770   20.2840 C   0  0  0  0  0  3  0  0  0  0  0  0
  -23.1710  -10.2770   20.1070 C   0  0  0  0  0  3  0  0  0  0  0  0
  -22.1240   -6.9910   21.3510 O   0  0  0  0  0  0  0  0  0  0  0  0
  -21.9470   -6.3360   22.5430 C   0  0  0  0  0  0  0  0  0  0  0  0
  -21.3280   -6.9560   23.6510 C   0  0  0  0  0  3  0  0  0  0  0  0
  -21.1020   -6.2240   24.8330 C   0  0  0  0  0  3  0  0  0  0  0  0
  -21.4880   -4.8720   24.9090 C   0  0  0  0  0  0  0  0  0  0  0  0
  -22.1030   -4.2510   23.8070 C   0  0  0  0  0  3  0  0  0  0  0  0
  -22.3280   -4.9820   22.6260 C   0  0  0  0  0  0  0  0  0  0  0  0
  -22.9010   -4.3740   21.5600 F   0  0  0  0  0  0  0  0  0  0  0  0
  -21.2660   -4.1660   26.0420 F   0  0  0  0  0  0  0  0  0  0  0  0
  -23.1220  -13.6540   21.1130 C   0  0  0  0  0  0  0  0  0  0  0  0
  -22.4290  -12.9420   21.9950 N   0  0  0  0  0  0  0  0  0  0  0  0
  -22.6570  -14.6800   20.6180 O   0  0  0  0  0  0  0  0  0  0  0  0
  -22.8200  -12.1120   22.4170 H   0  0  0  0  0  0  0  0  0  0  0  0
  -21.4970  -13.2310   22.2520 H   0  0  0  0  0  0  0  0  0  0  0  0
  -25.7080  -15.3600   20.2510 N   0  0  0  0  0  0  0  0  0  0  0  0
  -24.9280  -15.9940   20.3910 H   0  0  0  0  0  0  0  0  0  0  0  0
  -26.5420  -15.8220   19.9260 H   0  0  0  0  0  0  0  0  0  0  0  0
  -30.0830  -16.6630   18.1720 C   0  0  0  0  0  0  0  0  0  0  0  0
  -31.2760  -16.8600   17.2620 C   0  0  0  0  0  1  0  0  0  0  0  0
  -28.9600  -16.3190   17.7060 N   0  0  0  0  0  0  0  0  0  0  0  0
  -28.2390  -16.2040   18.4050 H   0  0  0  0  0  0  0  0  0  0  0  0
  -28.6530  -19.6720   18.7950 C   0  0  0  0  0  2  0  0  0  0  0  0
  -28.9200  -21.1100   18.3500 C   0  0  0  0  0  2  0  0  0  0  0  0
  -28.4810  -22.1570   19.3790 C   0  0  0  0  0  2  0  0  0  0  0  0
  -28.7640  -23.5690   18.8670 C   0  0  0  0  0  2  0  0  0  0  0  0
  -28.5600  -24.6370   19.9400 C   0  0  0  0  0  2  0  0  0  0  0  0
  -28.9630  -26.0190   19.4120 C   0  0  0  0  0  2  0  0  0  0  0  0
  -28.7090  -27.0230   20.3810 O   0  0  0  0  0  0  0  0  0  0  0  0
  -24.6950  -32.0030   23.4320 C   0  0  0  0  0  0  0  0  0  0  0  0
  -27.4870  -27.6570   20.3660 C   0  0  0  0  0  0  0  0  0  0  0  0
  -23.5480  -30.5970   21.7500 C   0  0  0  0  0  3  0  0  0  0  0  0
  -25.0560  -29.0950   20.3530 C   0  0  0  0  0  0  0  0  0  0  0  0
  -26.0690  -31.0000   21.6150 C   0  0  0  0  0  2  0  0  0  0  0  0
  -26.1880  -29.6360   20.9740 C   0  0  0  0  0  0  0  0  0  0  0  0
  -27.4000  -28.9180   20.9920 C   0  0  0  0  0  3  0  0  0  0  0  0
  -26.3330  -27.1170   19.7520 C   0  0  0  0  0  3  0  0  0  0  0  0
  -25.1200  -27.8290   19.7480 C   0  0  0  0  0  3  0  0  0  0  0  0
  -23.7990  -29.9320   20.3710 C   0  0  0  0  0  2  0  0  0  0  0  0
  -24.7870  -31.2150   22.3250 N   0  0  0  0  0  0  0  0  0  0  0  0
  -23.6000  -32.2550   23.9490 O   0  0  0  0  0  0  0  0  0  0  0  0
  -22.8940  -29.5550   22.6860 C   0  0  0  0  0  0  0  0  0  0  0  0
  -21.5830  -29.3330   22.5070 N   0  0  0  0  0  0  0  0  0  0  0  0
  -23.5650  -28.9500   23.5270 O   0  0  0  0  0  0  0  0  0  0  0  0
  -21.1040  -29.8740   21.8000 H   0  0  0  0  0  0  0  0  0  0  0  0
  -18.2280  -28.0440   22.8720 C   0  0  0  0  0  0  0  0  0  0  0  0
  -20.7640  -28.3740   23.2480 C   0  0  0  0  0  3  0  0  0  0  0  0
  -20.9320  -26.9460   22.6790 C   0  0  0  0  0  2  0  0  0  0  0  0
  -19.8820  -26.5910   21.6220 C   0  0  0  0  0  2  0  0  0  0  0  0
  -18.4710  -26.6980   22.2090 C   0  0  0  0  0  2  0  0  0  0  0  0
  -19.3070  -28.8370   23.3460 C   0  0  0  0  0  0  0  0  0  0  0  0
  -19.0310  -30.0960   23.9220 C   0  0  0  0  0  3  0  0  0  0  0  0
  -17.7070  -30.5630   24.0300 C   0  0  0  0  0  3  0  0  0  0  0  0
  -16.6420  -29.7670   23.5720 C   0  0  0  0  0  3  0  0  0  0  0  0
  -16.9030  -28.5090   23.0000 C   0  0  0  0  0  3  0  0  0  0  0  0
  -25.9590  -32.6450   24.0850 C   0  0  0  0  0  3  0  0  0  0  0  0
  -25.6370  -34.0470   24.3790 N   0  0  0  0  0  0  0  0  0  0  0  0
  -25.9950  -35.0860   23.6110 C   0  0  0  0  0  0  0  0  0  0  0  0
  -26.7020  -34.9650   22.6070 O   0  0  0  0  0  0  0  0  0  0  0  0
  -25.0130  -34.2160   25.1540 H   0  0  0  0  0  0  0  0  0  0  0  0
  -24.2780  -36.8650   23.1530 C   0  0  0  0  0  1  0  0  0  0  0  0
  -25.4860  -36.4790   24.0230 C   0  0  0  0  0  3  0  0  0  0  0  0
  -27.5790  -37.3860   24.9300 C   0  0  0  0  0  1  0  0  0  0  0  0
  -26.5200  -37.5330   23.9350 N   0  0  0  0  0  0  0  0  0  0  0  0
  -26.1060  -38.4540   24.0460 H   0  0  0  0  0  0  0  0  0  0  0  0
  -26.4380  -31.8930   25.3870 C   0  0  1  0  0  0  0  0  0  0  0  0
  -25.3080  -31.6520   26.4150 C   0  0  0  0  0  1  0  0  0  0  0  0
  -27.0490  -30.5180   25.0300 C   0  0  0  0  0  1  0  0  0  0  0  0
  -27.5570  -32.7050   26.0810 C   0  0  0  0  0  1  0  0  0  0  0  0
  1  3  1  0
  2  1  1  0
  4 16  1  0
  5 10  1  0
  6  7  1  0
  6  5  1  0
  8  7  1  0
  8 20  1  0
  8  9  1  0
 10  4  1  0
 10  9  1  0
 11  4  2  0
 12 13  1  0
 14 45  1  0
 14 15  1  0
 14 16  1  0
 15  1  1  0
 15 12  1  0
 16 13  1  0
 17 18  2  0
 18 37  1  0
 19 18  1  0
 19 22  1  0
 20 21  1  0
 20 17  1  0
 21 19  2  0
 22 23  1  0
 23 24  2  0
 25 28  1  0
 25 24  1  0
 26 25  2  0
 27 26  1  0
 27 22  2  0
 28 29  1  0
 29 34  2  0
 29 30  1  0
 30 31  2  0
 31 32  1  0
 32 36  1  0
 33 32  2  0
 34 33  1  0
 35 34  1  0
 37 38  1  0
 38 41  1  0
 38 40  1  0
 39 37  2  0
 42 43  1  0
 42 17  1  0
 44 42  1  0
 46 45  1  0
 47 45  2  0
 47 48  1  0
 49  1  1  0
 50 49  1  0
 50 51  1  0
 52 51  1  0
 52 53  1  0
 54 53  1  0
 54 55  1  0
 56 67  2  0
 57 55  1  0
 57 62  1  0
 58 66  1  0
 58 68  1  0
 59 65  1  0
 59 61  1  0
 60 66  1  0
 61 62  2  0
 61 60  1  0
 63 57  2  0
 64 63  1  0
 64 59  2  0
 65 58  1  0
 66 56  1  0
 68 70  2  0
 69 68  1  0
 71 69  1  0
 72 81  2  0
 72 77  1  0
 73 69  1  0
 73 77  1  0
 74 73  1  0
 75 76  1  0
 75 74  1  0
 76 72  1  0
 77 78  2  0
 78 79  1  0
 80 79  2  0
 81 80  1  0
 82 56  1  0
 82 83  1  0
 82 92  1  0
 83 86  1  0
 84 88  1  0
 84 83  1  0
 85 84  2  0
 88 87  1  0
 90 88  1  0
 90 91  1  0
 90 89  1  0
 92 95  1  1
 92 93  1  0
 94 92  1  0
M  ISO  4   4 100  16 100  54 101  55 101
M  END
>  <TORSDO>  (51) 
F 23

>  <SCORE>  (51) 
-10.281

>  <name>  (51) 
50

>  <ligand_id>  (51) 
50

>  <original_smiles>  (51) 
[H]N=C(C([H])([H])[H])C1([H])N(C(=O)N2C([H])([H])C([H])([H])C([H])([H])C([H])(n3nc(-c4c([H])c([H])c(Oc5c([H])c([H])c(F)c([H])c5F)c([H])c4[H])c(C(=O)N([H])[H])c3N([H])[H])C2([H])[H])C([H])([H])C([H])([H])C1([H])[N+]([H])([H])C([H])([H])C([H])([H])C([H])([H])C([H])([H])C([H])([H])C([H])([H])Oc1c([H])c([H])c2c(c1[H])C([H])([H])N(C(=O)C([H])(N([H])C(=O)C([H])(N([H])C([H])([H])[H])C([H])([H])[H])C(C([H])([H])[H])(C([H])([H])[H])C([H])([H])[H])C([H])(C(=O)N([H])C1([H])c3c([H])c([H])c([H])c([H])c3C([H])([H])C([H])([H])C1([H])[H])C2([H])[H]

>  <smiles>  (51) 
[H]N=C(C([H])([H])[H])C1([H])N(C(=O)N2C([H])([H])C([H])([H])C([H])([H])C([H])(n3nc(-c4c([H])c([H])c(Oc5c([H])c([H])c(F)c([H])c5F)c([H])c4[H])c(C(=O)N([H])[H])c3N([H])[H])C2([H])[H])C([H])([H])C([H])([H])C1([H])[N+]([H])([H])C([H])([H])C([H])([H])C([H])([H])C([H])([H])C([H])([H])C([H])([H])Oc1c([H])c([H])c2c(c1[H])C([H])([H])N(C(=O)C([H])(N([H])C(=O)C([H])(N([H])C([H])([H])[H])C([H])([H])[H])C(C([H])([H])[H])(C([H])([H])[H])C([H])([H])[H])C([H])(C(=O)N([H])C1([H])c3c([H])c([H])c([H])c([H])c3C([H])([H])C([H])([H])C1([H])[H])C2([H])[H]

$$$$
51:0:0
     RDKit          3D

 96104  0  0  1  0  0  0  0  0999 V2000
  -29.5280  -19.1490   19.1710 C   0  0  0  0  0  2  0  0  0  0  0  0
  -33.2280  -18.6900   19.5280 C   0  0  0  0  0  2  0  0  0  0  0  0
  -32.0060  -19.6160   19.5430 C   0  0  0  0  0  2  0  0  0  0  0  0
  -31.2400  -17.3470   19.7090 C   0  0  0  0  0  3  0  0  0  0  0  0
  -32.7370  -17.3640   20.1060 C   0  0  0  0  0  3  0  0  0  0  0  0
  -30.8180  -18.7770   19.8430 N   0  0  2  0  0  4  0  0  0  0  0  0
  -30.6420  -18.8700   20.8350 H   0  0  0  0  0  0  0  0  0  0  0  0
  -30.6150  -14.2860   19.5040 C   0  0  0  0  0  0  0  0  0  0  0  0
  -30.1030  -12.2040   18.2760 C   0  0  0  0  0  2  0  0  0  0  0  0
  -28.9660  -12.4830   17.2730 C   0  0  0  0  0  2  0  0  0  0  0  0
  -27.5840  -12.3350   17.9470 C   0  0  0  0  0  2  0  0  0  0  0  0
  -27.4930  -13.0920   19.2990 C   0  0  0  0  0  3  0  0  0  0  0  0
  -28.7170  -12.7670   20.1840 C   0  0  0  0  0  2  0  0  0  0  0  0
  -29.9310  -13.1120   19.4240 N   0  0  0  0  0  0  0  0  0  0  0  0
  -31.5610  -14.5400   18.7560 O   0  0  0  0  0  0  0  0  0  0  0  0
  -30.3890  -16.4540   20.6480 C   0  0  0  0  0  0  0  0  0  0  0  0
  -30.1240  -15.1510   20.4170 N   0  0  0  0  0  0  0  0  0  0  0  0
  -29.8820  -17.0050   21.6300 O   0  0  0  0  0  0  0  0  0  0  0  0
  -29.4300  -14.7500   21.0250 H   0  0  0  0  0  0  0  0  0  0  0  0
  -25.2530  -13.6830   20.4230 C   0  0  0  0  0  0  0  0  0  0  0  0
  -24.2530  -12.9000   20.9330 C   0  0  0  0  0  0  0  0  0  0  0  0
  -24.6840  -11.5480   20.7640 C   0  0  0  0  0  0  0  0  0  0  0  0
  -26.2340  -12.8070   19.9840 N   0  0  0  0  0  0  0  0  0  0  0  0
  -25.9020  -11.5160   20.2420 N   0  0  0  0  0  0  0  0  0  0  0  0
  -23.9830  -10.2840   21.0180 C   0  0  0  0  0  0  0  0  0  0  0  0
  -24.4890   -9.3320   21.9320 C   0  0  0  0  0  3  0  0  0  0  0  0
  -23.7900   -8.1310   22.1750 C   0  0  0  0  0  3  0  0  0  0  0  0
  -22.5710   -7.8710   21.5030 C   0  0  0  0  0  0  0  0  0  0  0  0
  -22.0840   -8.8110   20.5780 C   0  0  0  0  0  3  0  0  0  0  0  0
  -22.7840  -10.0040   20.3350 C   0  0  0  0  0  3  0  0  0  0  0  0
  -21.8350   -6.7200   21.6560 O   0  0  0  0  0  0  0  0  0  0  0  0
  -21.7770   -6.0600   22.8570 C   0  0  0  0  0  0  0  0  0  0  0  0
  -21.3330   -6.6960   24.0370 C   0  0  0  0  0  3  0  0  0  0  0  0
  -21.2230   -5.9610   25.2330 C   0  0  0  0  0  3  0  0  0  0  0  0
  -21.5420   -4.5900   25.2520 C   0  0  0  0  0  0  0  0  0  0  0  0
  -21.9770   -3.9530   24.0760 C   0  0  0  0  0  3  0  0  0  0  0  0
  -22.0920   -4.6860   22.8820 C   0  0  0  0  0  0  0  0  0  0  0  0
  -22.4900   -4.0630   21.7470 F   0  0  0  0  0  0  0  0  0  0  0  0
  -21.4280   -3.8800   26.3990 F   0  0  0  0  0  0  0  0  0  0  0  0
  -22.9280  -13.3700   21.4620 C   0  0  0  0  0  0  0  0  0  0  0  0
  -22.3720  -12.6600   22.4370 N   0  0  0  0  0  0  0  0  0  0  0  0
  -22.4020  -14.4010   21.0450 O   0  0  0  0  0  0  0  0  0  0  0  0
  -22.8140  -11.8270   22.7950 H   0  0  0  0  0  0  0  0  0  0  0  0
  -21.4900  -12.9540   22.8310 H   0  0  0  0  0  0  0  0  0  0  0  0
  -25.4040  -15.0600   20.2770 N   0  0  0  0  0  0  0  0  0  0  0  0
  -24.6790  -15.7160   20.5420 H   0  0  0  0  0  0  0  0  0  0  0  0
  -26.1920  -15.5020   19.8220 H   0  0  0  0  0  0  0  0  0  0  0  0
  -35.0950  -16.4220   19.7020 C   0  0  0  0  0  1  0  0  0  0  0  0
  -33.5840  -16.1580   19.6530 C   0  0  0  0  0  2  0  0  0  0  0  0
  -28.0700  -20.6280   17.7600 C   0  0  0  0  0  1  0  0  0  0  0  0
  -29.3280  -20.6200   18.6560 C   0  0  0  0  0  3  0  0  0  0  0  0
  -29.2240  -21.7510   19.7300 C   0  0  0  0  0  2  0  0  0  0  0  0
  -29.2610  -23.1880   19.1250 C   0  0  0  0  0  2  0  0  0  0  0  0
  -28.9810  -24.3650   20.0980 C   0  0  0  0  0  2  0  0  0  0  0  0
  -29.0500  -25.7470   19.3960 C   0  0  0  0  0  2  0  0  0  0  0  0
  -28.7660  -26.8620   20.2580 O   0  0  0  0  0  0  0  0  0  0  0  0
  -24.7260  -31.8940   23.2720 C   0  0  0  0  0  0  0  0  0  0  0  0
  -27.5460  -27.5160   20.2200 C   0  0  0  0  0  0  0  0  0  0  0  0
  -23.5830  -30.4630   21.6070 C   0  0  0  0  0  3  0  0  0  0  0  0
  -25.1000  -28.9590   20.2050 C   0  0  0  0  0  0  0  0  0  0  0  0
  -26.1030  -30.8760   21.4610 C   0  0  0  0  0  2  0  0  0  0  0  0
  -26.2330  -29.5090   20.8170 C   0  0  0  0  0  0  0  0  0  0  0  0
  -27.4490  -28.7890   20.8290 C   0  0  0  0  0  3  0  0  0  0  0  0
  -26.3870  -26.9720   19.6200 C   0  0  0  0  0  3  0  0  0  0  0  0
  -25.1730  -27.6870   19.6100 C   0  0  0  0  0  3  0  0  0  0  0  0
  -23.8320  -29.7840   20.2330 C   0  0  0  0  0  2  0  0  0  0  0  0
  -24.8200  -31.0950   22.1700 N   0  0  0  0  0  0  0  0  0  0  0  0
  -23.6290  -32.1380   23.7940 O   0  0  0  0  0  0  0  0  0  0  0  0
  -22.9420  -29.4250   22.5570 C   0  0  0  0  0  0  0  0  0  0  0  0
  -21.6300  -29.1910   22.3900 N   0  0  0  0  0  0  0  0  0  0  0  0
  -23.6240  -28.8310   23.3950 O   0  0  0  0  0  0  0  0  0  0  0  0
  -21.1380  -29.7240   21.6860 H   0  0  0  0  0  0  0  0  0  0  0  0
  -18.2960  -27.8590   22.7810 C   0  0  0  0  0  0  0  0  0  0  0  0
  -20.8290  -28.2270   23.1430 C   0  0  0  0  0  3  0  0  0  0  0  0
  -21.0120  -26.7970   22.5880 C   0  0  0  0  0  2  0  0  0  0  0  0
  -19.9650  -26.4170   21.5380 C   0  0  0  0  0  2  0  0  0  0  0  0
  -18.5550  -26.5120   22.1300 C   0  0  0  0  0  2  0  0  0  0  0  0
  -19.3660  -28.6720   23.2420 C   0  0  0  0  0  0  0  0  0  0  0  0
  -19.0730  -29.9330   23.8070 C   0  0  0  0  0  3  0  0  0  0  0  0
  -17.7440  -30.3820   23.9160 C   0  0  0  0  0  3  0  0  0  0  0  0
  -16.6890  -29.5660   23.4740 C   0  0  0  0  0  3  0  0  0  0  0  0
  -16.9650  -28.3070   22.9130 C   0  0  0  0  0  3  0  0  0  0  0  0
  -25.9850  -32.5570   23.9110 C   0  0  0  0  0  3  0  0  0  0  0  0
  -25.6350  -33.9450   24.2410 N   0  0  0  0  0  0  0  0  0  0  0  0
  -25.9510  -35.0070   23.4880 C   0  0  0  0  0  0  0  0  0  0  0  0
  -26.6360  -34.9230   22.4650 O   0  0  0  0  0  0  0  0  0  0  0  0
  -25.0260  -34.0830   25.0340 H   0  0  0  0  0  0  0  0  0  0  0  0
  -24.1790  -36.7510   23.1150 C   0  0  0  0  0  1  0  0  0  0  0  0
  -25.4210  -36.3800   23.9420 C   0  0  0  0  0  3  0  0  0  0  0  0
  -27.5190  -37.3190   24.8040 C   0  0  0  0  0  1  0  0  0  0  0  0
  -26.4260  -37.4610   23.8450 N   0  0  0  0  0  0  0  0  0  0  0  0
  -25.9930  -38.3690   23.9940 H   0  0  0  0  0  0  0  0  0  0  0  0
  -26.5060  -31.7960   25.1920 C   0  0  1  0  0  0  0  0  0  0  0  0
  -25.4020  -31.5100   26.2360 C   0  0  0  0  0  1  0  0  0  0  0  0
  -27.1450  -30.4440   24.8000 C   0  0  0  0  0  1  0  0  0  0  0  0
  -27.6150  -32.6250   25.8800 C   0  0  0  0  0  1  0  0  0  0  0  0
  1  6  1  0
  2  3  1  0
  2  5  1  0
  3  6  1  0
  4  6  1  0
  4  5  1  0
  4 16  1  0
  5 49  1  0
  6  7  1  1
  8 17  1  0
  9 14  1  0
 10 11  1  0
 10  9  1  0
 12 11  1  0
 12 23  1  0
 12 13  1  0
 14  8  1  0
 14 13  1  0
 15  8  2  0
 16 18  2  0
 17 16  1  0
 17 19  1  0
 20 21  2  0
 21 40  1  0
 22 21  1  0
 22 25  1  0
 23 24  1  0
 23 20  1  0
 24 22  2  0
 25 26  1  0
 26 27  2  0
 28 31  1  0
 28 27  1  0
 29 28  2  0
 30 29  1  0
 30 25  2  0
 31 32  1  0
 32 37  2  0
 32 33  1  0
 33 34  2  0
 34 35  1  0
 35 39  1  0
 36 35  2  0
 37 36  1  0
 38 37  1  0
 40 41  1  0
 41 43  1  0
 41 44  1  0
 42 40  2  0
 45 20  1  0
 45 46  1  0
 47 45  1  0
 49 48  1  0
 51 50  1  0
 51  1  1  0
 51 52  1  0
 53 52  1  0
 53 54  1  0
 55 54  1  0
 55 56  1  0
 57 68  2  0
 58 56  1  0
 58 63  1  0
 59 67  1  0
 59 69  1  0
 60 66  1  0
 60 62  1  0
 61 67  1  0
 62 63  2  0
 62 61  1  0
 64 58  2  0
 65 64  1  0
 65 60  2  0
 66 59  1  0
 67 57  1  0
 69 71  2  0
 70 69  1  0
 72 70  1  0
 73 82  2  0
 73 78  1  0
 74 70  1  0
 74 78  1  0
 75 74  1  0
 76 77  1  0
 76 75  1  0
 77 73  1  0
 78 79  2  0
 79 80  1  0
 81 80  2  0
 82 81  1  0
 83 57  1  0
 83 84  1  0
 83 93  1  0
 84 87  1  0
 85 89  1  0
 85 84  1  0
 86 85  2  0
 89 88  1  0
 91 89  1  0
 91 92  1  0
 91 90  1  0
 93 96  1  1
 93 94  1  0
 95 93  1  0
M  ISO  4   8 100  17 100  55 101  56 101
M  END
>  <TORSDO>  (52) 
F 23

>  <SCORE>  (52) 
-11.087

>  <name>  (52) 
51

>  <ligand_id>  (52) 
51

>  <original_smiles>  (52) 
[H]c1c([H])c([H])c2c(c1[H])C([H])([H])C([H])([H])C([H])([H])C2([H])N([H])C(=O)C1([H])N(C(=O)C([H])(N([H])C(=O)C([H])(N([H])C([H])([H])[H])C([H])([H])[H])C(C([H])([H])[H])(C([H])([H])[H])C([H])([H])[H])C([H])([H])c2c([H])c(OC([H])([H])C([H])([H])C([H])([H])C([H])([H])C([H])(C([H])([H])[H])C([H])([H])[N+]3([H])C([H])([H])C([H])([H])C([H])(C([H])([H])C([H])([H])[H])C3([H])C(=O)N([H])C(=O)N3C([H])([H])C([H])([H])C([H])([H])C([H])(n4nc(-c5c([H])c([H])c(Oc6c([H])c([H])c(F)c([H])c6F)c([H])c5[H])c(C(=O)N([H])[H])c4N([H])[H])C3([H])[H])c([H])c([H])c2C1([H])[H]

>  <smiles>  (52) 
[H]c1c([H])c([H])c2c(c1[H])C([H])([H])C([H])([H])C([H])([H])C2([H])N([H])C(=O)C1([H])N(C(=O)C([H])(N([H])C(=O)C([H])(N([H])C([H])([H])[H])C([H])([H])[H])C(C([H])([H])[H])(C([H])([H])[H])C([H])([H])[H])C([H])([H])c2c([H])c(OC([H])([H])C([H])([H])C([H])([H])C([H])([H])C([H])(C([H])([H])[H])C([H])([H])[N+]3([H])C([H])([H])C([H])([H])C([H])(C([H])([H])C([H])([H])[H])C3([H])C(=O)N([H])C(=O)N3C([H])([H])C([H])([H])C([H])([H])C([H])(n4nc(-c5c([H])c([H])c(Oc6c([H])c([H])c(F)c([H])c6F)c([H])c5[H])c(C(=O)N([H])[H])c4N([H])[H])C3([H])[H])c([H])c([H])c2C1([H])[H]

$$$$
52:0:0
     RDKit          3D

 90 97  0  0  1  0  0  0  0  0999 V2000
  -28.5280  -22.6550   20.8990 C   0  0  0  0  0  0  0  0  0  0  0  0
  -28.0280  -22.5780   19.7740 O   0  0  0  0  0  0  0  0  0  0  0  0
  -29.0270  -21.4230   21.6710 C   0  0  0  0  0  2  0  0  0  0  0  0
  -28.6640  -20.0310   21.1000 C   0  0  0  0  0  2  0  0  0  0  0  0
  -29.8590  -19.2540   20.5130 C   0  0  0  0  0  2  0  0  0  0  0  0
  -29.5560  -17.7500   20.3640 C   0  0  0  0  0  2  0  0  0  0  0  0
  -30.8290  -16.9040   20.1940 C   0  0  0  0  0  2  0  0  0  0  0  0
  -31.2030  -14.4530   19.9370 C   0  0  0  0  0  0  0  0  0  0  0  0
  -30.8660  -12.1360   19.1800 C   0  0  0  0  0  2  0  0  0  0  0  0
  -29.8870  -12.1540   17.9880 C   0  0  0  0  0  2  0  0  0  0  0  0
  -28.4270  -12.0920   18.4790 C   0  0  0  0  0  2  0  0  0  0  0  0
  -28.1330  -13.1340   19.5900 C   0  0  0  0  0  3  0  0  0  0  0  0
  -29.2200  -13.0950   20.6890 C   0  0  0  0  0  2  0  0  0  0  0  0
  -30.5340  -13.2740   20.0430 N   0  0  0  0  0  0  0  0  0  0  0  0
  -32.2610  -14.5920   19.3180 O   0  0  0  0  0  0  0  0  0  0  0  0
  -30.5430  -15.4980   20.4470 N   0  0  0  0  0  0  0  0  0  0  0  0
  -29.6870  -15.2820   20.9360 H   0  0  0  0  0  0  0  0  0  0  0  0
  -25.8420  -13.9220   20.4580 C   0  0  0  0  0  0  0  0  0  0  0  0
  -24.7410  -13.2290   20.8860 C   0  0  0  0  0  0  0  0  0  0  0  0
  -25.0870  -11.8460   20.8020 C   0  0  0  0  0  0  0  0  0  0  0  0
  -26.7950  -12.9640   20.1470 N   0  0  0  0  0  0  0  0  0  0  0  0
  -26.3460  -11.7100   20.4070 N   0  0  0  0  0  0  0  0  0  0  0  0
  -24.2750  -10.6420   21.0190 C   0  0  0  0  0  0  0  0  0  0  0  0
  -24.6320   -9.6790   21.9870 C   0  0  0  0  0  3  0  0  0  0  0  0
  -23.8280   -8.5380   22.1940 C   0  0  0  0  0  3  0  0  0  0  0  0
  -22.6510   -8.3510   21.4310 C   0  0  0  0  0  0  0  0  0  0  0  0
  -22.3110   -9.3040   20.4550 C   0  0  0  0  0  3  0  0  0  0  0  0
  -23.1150  -10.4360   20.2460 C   0  0  0  0  0  3  0  0  0  0  0  0
  -21.8220   -7.2610   21.5440 O   0  0  0  0  0  0  0  0  0  0  0  0
  -21.6320   -6.6220   22.7430 C   0  0  0  0  0  0  0  0  0  0  0  0
  -21.1140   -7.2940   23.8720 C   0  0  0  0  0  3  0  0  0  0  0  0
  -20.8700   -6.5830   25.0630 C   0  0  0  0  0  3  0  0  0  0  0  0
  -21.1340   -5.2000   25.1260 C   0  0  0  0  0  0  0  0  0  0  0  0
  -21.6450   -4.5300   24.0010 C   0  0  0  0  0  3  0  0  0  0  0  0
  -21.8920   -5.2390   22.8120 C   0  0  0  0  0  0  0  0  0  0  0  0
  -22.3640   -4.5830   21.7240 F   0  0  0  0  0  0  0  0  0  0  0  0
  -20.8910   -4.5130   26.2660 F   0  0  0  0  0  0  0  0  0  0  0  0
  -23.4120  -13.8110   21.2640 C   0  0  0  0  0  0  0  0  0  0  0  0
  -22.7010  -13.1640   22.1830 N   0  0  0  0  0  0  0  0  0  0  0  0
  -23.0180  -14.8730   20.7850 O   0  0  0  0  0  0  0  0  0  0  0  0
  -23.0300  -12.3020   22.5910 H   0  0  0  0  0  0  0  0  0  0  0  0
  -21.8150  -13.5410   22.4840 H   0  0  0  0  0  0  0  0  0  0  0  0
  -26.1000  -15.2790   20.2920 N   0  0  0  0  0  0  0  0  0  0  0  0
  -25.3860  -15.9830   20.4450 H   0  0  0  0  0  0  0  0  0  0  0  0
  -26.9560  -15.6640   19.9100 H   0  0  0  0  0  0  0  0  0  0  0  0
  -28.6600  -23.9920   21.6390 C   0  0  0  0  0  2  0  0  0  0  0  0
  -29.5370  -25.0470   20.9370 C   0  0  0  0  0  3  0  0  0  0  0  0
  -30.7140  -24.5270   20.5730 F   0  0  0  0  0  0  0  0  0  0  0  0
  -28.8760  -25.7460   19.7320 C   0  0  0  0  0  2  0  0  0  0  0  0
  -28.7410  -27.1340   20.0570 O   0  0  0  0  0  0  0  0  0  0  0  0
  -24.7540  -31.9430   23.4740 C   0  0  0  0  0  0  0  0  0  0  0  0
  -27.5060  -27.7400   20.1420 C   0  0  0  0  0  0  0  0  0  0  0  0
  -23.5780  -30.5880   21.7710 C   0  0  0  0  0  3  0  0  0  0  0  0
  -25.0600  -29.1590   20.2730 C   0  0  0  0  0  0  0  0  0  0  0  0
  -26.0920  -31.0220   21.5830 C   0  0  0  0  0  2  0  0  0  0  0  0
  -26.2070  -29.6870   20.8770 C   0  0  0  0  0  0  0  0  0  0  0  0
  -27.4300  -28.9840   20.8110 C   0  0  0  0  0  3  0  0  0  0  0  0
  -26.3340  -27.2180   19.5450 C   0  0  0  0  0  3  0  0  0  0  0  0
  -25.1150  -27.9180   19.6160 C   0  0  0  0  0  3  0  0  0  0  0  0
  -23.7960  -29.9820   20.3610 C   0  0  0  0  0  2  0  0  0  0  0  0
  -24.8250  -31.2000   22.3330 N   0  0  0  0  0  0  0  0  0  0  0  0
  -23.6690  -32.1570   24.0310 O   0  0  0  0  0  0  0  0  0  0  0  0
  -22.9670  -29.4990   22.6830 C   0  0  0  0  0  0  0  0  0  0  0  0
  -21.6600  -29.2480   22.5140 N   0  0  0  0  0  0  0  0  0  0  0  0
  -23.6660  -28.8850   23.4930 O   0  0  0  0  0  0  0  0  0  0  0  0
  -21.1540  -29.7970   21.8320 H   0  0  0  0  0  0  0  0  0  0  0  0
  -18.3590  -27.8150   22.8500 C   0  0  0  0  0  0  0  0  0  0  0  0
  -20.8790  -28.2410   23.2300 C   0  0  0  0  0  3  0  0  0  0  0  0
  -21.1040  -26.8320   22.6350 C   0  0  0  0  0  2  0  0  0  0  0  0
  -20.0640  -26.4440   21.5770 C   0  0  0  0  0  2  0  0  0  0  0  0
  -18.6510  -26.4900   22.1650 C   0  0  0  0  0  2  0  0  0  0  0  0
  -19.4050  -28.6420   23.3370 C   0  0  0  0  0  0  0  0  0  0  0  0
  -19.0820  -29.8760   23.9410 C   0  0  0  0  0  3  0  0  0  0  0  0
  -17.7420  -30.2850   24.0640 C   0  0  0  0  0  3  0  0  0  0  0  0
  -16.7070  -29.4560   23.5950 C   0  0  0  0  0  3  0  0  0  0  0  0
  -17.0150  -28.2230   22.9930 C   0  0  0  0  0  3  0  0  0  0  0  0
  -26.0250  -32.5800   24.1170 C   0  0  0  0  0  3  0  0  0  0  0  0
  -25.7010  -33.9740   24.4430 N   0  0  0  0  0  0  0  0  0  0  0  0
  -26.0410  -35.0300   23.6910 C   0  0  0  0  0  0  0  0  0  0  0  0
  -26.7340  -34.9350   22.6730 O   0  0  0  0  0  0  0  0  0  0  0  0
  -25.0950  -34.1240   25.2360 H   0  0  0  0  0  0  0  0  0  0  0  0
  -24.3060  -36.8090   23.3040 C   0  0  0  0  0  1  0  0  0  0  0  0
  -25.5320  -36.4130   24.1420 C   0  0  0  0  0  3  0  0  0  0  0  0
  -27.6370  -37.3170   25.0260 C   0  0  0  0  0  1  0  0  0  0  0  0
  -26.5610  -37.4730   24.0520 N   0  0  0  0  0  0  0  0  0  0  0  0
  -26.1440  -38.3900   24.1860 H   0  0  0  0  0  0  0  0  0  0  0  0
  -26.5290  -31.8070   25.3970 C   0  0  1  0  0  0  0  0  0  0  0  0
  -25.4190  -31.5490   26.4410 C   0  0  0  0  0  1  0  0  0  0  0  0
  -27.1430  -30.4420   25.0080 C   0  0  0  0  0  1  0  0  0  0  0  0
  -27.6530  -32.6180   26.0860 C   0  0  0  0  0  1  0  0  0  0  0  0
  1 46  1  0
  1  3  1  0
  2  1  2  0
  4  3  1  0
  5  4  1  0
  6  5  1  0
  7  6  1  0
  7 16  1  0
  8 14  1  0
  8 16  1  0
  9 14  1  0
 10 11  1  0
 10  9  1  0
 12 11  1  0
 12 21  1  0
 12 13  1  0
 14 13  1  0
 15  8  2  0
 16 17  1  0
 18 19  2  0
 19 38  1  0
 20 19  1  0
 20 23  1  0
 21 22  1  0
 21 18  1  0
 22 20  2  0
 23 24  1  0
 24 25  2  0
 26 29  1  0
 26 25  1  0
 27 26  2  0
 28 27  1  0
 28 23  2  0
 29 30  1  0
 30 35  2  0
 30 31  1  0
 31 32  2  0
 32 33  1  0
 33 37  1  0
 34 33  2  0
 35 34  1  0
 36 35  1  0
 38 39  1  0
 39 42  1  0
 39 41  1  0
 40 38  2  0
 43 44  1  0
 43 18  1  0
 45 43  1  0
 47 48  1  0
 47 46  1  0
 49 50  1  0
 49 47  1  0
 50 52  1  0
 51 62  2  0
 52 57  1  0
 53 61  1  0
 53 63  1  0
 54 60  1  0
 54 56  1  0
 55 61  1  0
 56 55  1  0
 57 56  2  0
 58 59  1  0
 58 52  2  0
 59 54  2  0
 60 53  1  0
 61 51  1  0
 63 65  2  0
 64 63  1  0
 66 64  1  0
 67 76  2  0
 67 72  1  0
 68 64  1  0
 68 72  1  0
 69 68  1  0
 70 71  1  0
 70 69  1  0
 71 67  1  0
 72 73  2  0
 73 74  1  0
 75 74  2  0
 76 75  1  0
 77 51  1  0
 77 78  1  0
 77 87  1  0
 78 81  1  0
 79 83  1  0
 79 78  1  0
 80 79  2  0
 83 82  1  0
 85 83  1  0
 85 86  1  0
 85 84  1  0
 87 90  1  1
 87 88  1  0
 89 87  1  0
M  ISO  4   8 100  16 100  49 101  50 101
M  END
>  <TORSDO>  (53) 
F 24

>  <SCORE>  (53) 
-11.314

>  <name>  (53) 
52

>  <ligand_id>  (53) 
52

>  <original_smiles>  (53) 
[H]c1c([H])c([H])c2c(c1[H])C([H])([H])C([H])([H])C([H])([H])C2([H])N([H])C(=O)C1([H])N(C(=O)C([H])(N([H])C(=O)C([H])(N([H])C([H])([H])[H])C([H])([H])[H])C(C([H])([H])[H])(C([H])([H])[H])C([H])([H])[H])C([H])([H])c2c([H])c(OC([H])([H])C([H])(F)C([H])([H])C(=O)C([H])([H])C([H])([H])C([H])([H])C([H])([H])C([H])([H])N([H])C(=O)N3C([H])([H])C([H])([H])C([H])([H])C([H])(n4nc(-c5c([H])c([H])c(Oc6c([H])c([H])c(F)c([H])c6F)c([H])c5[H])c(C(=O)N([H])[H])c4N([H])[H])C3([H])[H])c([H])c([H])c2C1([H])[H]

>  <smiles>  (53) 
[H]c1c([H])c([H])c2c(c1[H])C([H])([H])C([H])([H])C([H])([H])C2([H])N([H])C(=O)C1([H])N(C(=O)C([H])(N([H])C(=O)C([H])(N([H])C([H])([H])[H])C([H])([H])[H])C(C([H])([H])[H])(C([H])([H])[H])C([H])([H])[H])C([H])([H])c2c([H])c(OC([H])([H])C([H])(F)C([H])([H])C(=O)C([H])([H])C([H])([H])C([H])([H])C([H])([H])C([H])([H])N([H])C(=O)N3C([H])([H])C([H])([H])C([H])([H])C([H])(n4nc(-c5c([H])c([H])c(Oc6c([H])c([H])c(F)c([H])c6F)c([H])c5[H])c(C(=O)N([H])[H])c4N([H])[H])C3([H])[H])c([H])c([H])c2C1([H])[H]

$$$$
53:0:0
     RDKit          3D

 92100  0  0  1  0  0  0  0  0999 V2000
  -28.4910  -21.4920   18.6380 C   0  0  0  0  0  2  0  0  0  0  0  0
  -27.7460  -22.5430   17.7980 C   0  0  0  0  0  2  0  0  0  0  0  0
  -27.4320  -23.8220   18.5840 C   0  0  0  0  0  2  0  0  0  0  0  0
  -28.6710  -24.5850   19.0970 C   0  0  0  0  0  2  0  0  0  0  0  0
  -28.4320  -25.3730   20.3990 C   0  0  0  0  0  2  0  0  0  0  0  0
  -28.4530  -26.7820   20.1950 O   0  0  0  0  0  0  0  0  0  0  0  0
  -24.6000  -31.8970   23.2410 C   0  0  0  0  0  0  0  0  0  0  0  0
  -27.2520  -27.4530   20.2070 C   0  0  0  0  0  0  0  0  0  0  0  0
  -23.3930  -30.4820   21.6090 C   0  0  0  0  0  3  0  0  0  0  0  0
  -24.8470  -28.9320   20.2070 C   0  0  0  0  0  0  0  0  0  0  0  0
  -25.9160  -30.8510   21.4040 C   0  0  0  0  0  2  0  0  0  0  0  0
  -26.0040  -29.4750   20.7800 C   0  0  0  0  0  0  0  0  0  0  0  0
  -27.2100  -28.7450   20.7710 C   0  0  0  0  0  3  0  0  0  0  0  0
  -26.0730  -26.9110   19.6520 C   0  0  0  0  0  3  0  0  0  0  0  0
  -24.8750  -27.6470   19.6400 C   0  0  0  0  0  3  0  0  0  0  0  0
  -23.6020  -29.7880   20.2370 C   0  0  0  0  0  2  0  0  0  0  0  0
  -24.6550  -31.0900   22.1440 N   0  0  0  0  0  0  0  0  0  0  0  0
  -23.5180  -32.1740   23.7780 O   0  0  0  0  0  0  0  0  0  0  0  0
  -22.7410  -29.4690   22.5760 C   0  0  0  0  0  0  0  0  0  0  0  0
  -21.4160  -29.2910   22.4480 N   0  0  0  0  0  0  0  0  0  0  0  0
  -23.4220  -28.8480   23.3960 O   0  0  0  0  0  0  0  0  0  0  0  0
  -20.9290  -29.8440   21.7580 H   0  0  0  0  0  0  0  0  0  0  0  0
  -18.0350  -28.1260   22.9520 C   0  0  0  0  0  0  0  0  0  0  0  0
  -20.5940  -28.3630   23.2230 C   0  0  0  0  0  3  0  0  0  0  0  0
  -20.6850  -26.9280   22.6510 C   0  0  0  0  0  2  0  0  0  0  0  0
  -19.5800  -26.6110   21.6390 C   0  0  0  0  0  2  0  0  0  0  0  0
  -18.2000  -26.7720   22.2830 C   0  0  0  0  0  2  0  0  0  0  0  0
  -19.1610  -28.8790   23.3790 C   0  0  0  0  0  0  0  0  0  0  0  0
  -18.9530  -30.1480   23.9620 C   0  0  0  0  0  3  0  0  0  0  0  0
  -17.6530  -30.6630   24.1240 C   0  0  0  0  0  3  0  0  0  0  0  0
  -16.5420  -29.9050   23.7140 C   0  0  0  0  0  3  0  0  0  0  0  0
  -16.7340  -28.6390   23.1340 C   0  0  0  0  0  3  0  0  0  0  0  0
  -25.8860  -32.5290   23.8580 C   0  0  0  0  0  3  0  0  0  0  0  0
  -25.5770  -33.9260   24.1860 N   0  0  0  0  0  0  0  0  0  0  0  0
  -25.9100  -34.9780   23.4250 C   0  0  0  0  0  0  0  0  0  0  0  0
  -26.5820  -34.8720   22.3950 O   0  0  0  0  0  0  0  0  0  0  0  0
  -24.9800  -34.0830   24.9850 H   0  0  0  0  0  0  0  0  0  0  0  0
  -24.1800  -36.7650   23.0630 C   0  0  0  0  0  1  0  0  0  0  0  0
  -25.4210  -36.3650   23.8780 C   0  0  0  0  0  3  0  0  0  0  0  0
  -27.5530  -37.2500   24.7110 C   0  0  0  0  0  1  0  0  0  0  0  0
  -26.4530  -37.4190   23.7670 N   0  0  0  0  0  0  0  0  0  0  0  0
  -26.0460  -38.3390   23.9160 H   0  0  0  0  0  0  0  0  0  0  0  0
  -26.4100  -31.7580   25.1310 C   0  0  1  0  0  0  0  0  0  0  0  0
  -25.3210  -31.5120   26.2010 C   0  0  0  0  0  1  0  0  0  0  0  0
  -27.0000  -30.3860   24.7300 C   0  0  0  0  0  1  0  0  0  0  0  0
  -27.5570  -32.5580   25.7920 C   0  0  0  0  0  1  0  0  0  0  0  0
  -28.1050  -20.0580   18.2590 C   0  0  0  0  0  2  0  0  0  0  0  0
  -29.9180  -18.3920   18.2990 C   0  0  0  0  0  0  0  0  0  0  0  0
  -30.4440  -17.0810   18.9030 C   0  0  0  0  0  2  0  0  0  0  0  0
  -28.7470  -17.4110   20.7840 C   0  0  0  0  0  2  0  0  0  0  0  0
  -28.6700  -18.8810   20.3740 C   0  0  0  0  0  2  0  0  0  0  0  0
  -30.0910  -16.7830   20.3900 C   0  0  0  0  0  3  0  0  0  0  0  0
  -28.9470  -19.0730   18.9460 N   0  0  0  0  0  0  0  0  0  0  0  0
  -30.3340  -18.7250   17.1840 O   0  0  0  0  0  0  0  0  0  0  0  0
  -30.7280  -14.3420   20.1900 C   0  0  0  0  0  0  0  0  0  0  0  0
  -30.3530  -12.2310   18.9960 C   0  0  0  0  0  2  0  0  0  0  0  0
  -29.3670  -12.5090   17.8410 C   0  0  0  0  0  2  0  0  0  0  0  0
  -27.9060  -12.3970   18.3230 C   0  0  0  0  0  2  0  0  0  0  0  0
  -27.6400  -13.1980   19.6260 C   0  0  0  0  0  3  0  0  0  0  0  0
  -28.7300  -12.8930   20.6820 C   0  0  0  0  0  2  0  0  0  0  0  0
  -30.0460  -13.1740   20.0770 N   0  0  0  0  0  0  0  0  0  0  0  0
  -31.8410  -14.5390   19.6970 O   0  0  0  0  0  0  0  0  0  0  0  0
  -29.9760  -15.3450   20.6640 N   0  0  0  0  0  0  0  0  0  0  0  0
  -29.1050  -15.0470   21.0770 H   0  0  0  0  0  0  0  0  0  0  0  0
  -25.2730  -13.8420   20.4130 C   0  0  0  0  0  0  0  0  0  0  0  0
  -24.2060  -13.0840   20.8140 C   0  0  0  0  0  0  0  0  0  0  0  0
  -24.6450  -11.7260   20.7600 C   0  0  0  0  0  0  0  0  0  0  0  0
  -26.2970  -12.9470   20.1440 N   0  0  0  0  0  0  0  0  0  0  0  0
  -25.9230  -11.6700   20.4090 N   0  0  0  0  0  0  0  0  0  0  0  0
  -23.9090  -10.4740   20.9700 C   0  0  0  0  0  0  0  0  0  0  0  0
  -24.3550   -9.5010   21.8910 C   0  0  0  0  0  3  0  0  0  0  0  0
  -23.6210   -8.3110   22.0880 C   0  0  0  0  0  3  0  0  0  0  0  0
  -22.4270   -8.0860   21.3620 C   0  0  0  0  0  0  0  0  0  0  0  0
  -21.9990   -9.0480   20.4310 C   0  0  0  0  0  3  0  0  0  0  0  0
  -22.7330  -10.2290   20.2320 C   0  0  0  0  0  3  0  0  0  0  0  0
  -21.6630   -6.9490   21.4690 O   0  0  0  0  0  0  0  0  0  0  0  0
  -21.6280   -6.2100   22.6230 C   0  0  0  0  0  0  0  0  0  0  0  0
  -21.2330   -6.7740   23.8560 C   0  0  0  0  0  3  0  0  0  0  0  0
  -21.1470   -5.9630   25.0060 C   0  0  0  0  0  3  0  0  0  0  0  0
  -21.4430   -4.5880   24.9230 C   0  0  0  0  0  0  0  0  0  0  0  0
  -21.8290   -4.0250   23.6940 C   0  0  0  0  0  3  0  0  0  0  0  0
  -21.9190   -4.8330   22.5470 C   0  0  0  0  0  0  0  0  0  0  0  0
  -22.2720   -4.2810   21.3610 F   0  0  0  0  0  0  0  0  0  0  0  0
  -21.3520   -3.8070   26.0230 F   0  0  0  0  0  0  0  0  0  0  0  0
  -22.8260  -13.5800   21.1370 C   0  0  0  0  0  0  0  0  0  0  0  0
  -22.1180  -12.8910   22.0260 N   0  0  0  0  0  0  0  0  0  0  0  0
  -22.3820  -14.6120   20.6360 O   0  0  0  0  0  0  0  0  0  0  0  0
  -22.4890  -12.0550   22.4540 H   0  0  0  0  0  0  0  0  0  0  0  0
  -21.1950  -13.2050   22.2840 H   0  0  0  0  0  0  0  0  0  0  0  0
  -25.4490  -15.2110   20.2360 N   0  0  0  0  0  0  0  0  0  0  0  0
  -24.6910  -15.8710   20.3690 H   0  0  0  0  0  0  0  0  0  0  0  0
  -26.2870  -15.6410   19.8700 H   0  0  0  0  0  0  0  0  0  0  0  0
  2  3  1  0
  2  1  1  0
  3  4  1  0
  4  5  1  0
  6  8  1  0
  6  5  1  0
  7 18  2  0
  8 13  1  0
  9 17  1  0
  9 19  1  0
 10 16  1  0
 10 12  1  0
 11 17  1  0
 12 11  1  0
 13 12  2  0
 14  8  2  0
 15 14  1  0
 15 10  2  0
 16  9  1  0
 17  7  1  0
 19 21  2  0
 20 19  1  0
 22 20  1  0
 23 32  2  0
 23 28  1  0
 24 20  1  0
 24 28  1  0
 25 24  1  0
 26 27  1  0
 26 25  1  0
 27 23  1  0
 28 29  2  0
 29 30  1  0
 31 30  2  0
 32 31  1  0
 33  7  1  0
 33 34  1  0
 33 43  1  0
 34 37  1  0
 35 39  1  0
 35 34  1  0
 36 35  2  0
 39 38  1  0
 41 39  1  0
 41 42  1  0
 41 40  1  0
 43 46  1  1
 43 44  1  0
 45 43  1  0
 47  1  1  0
 47 53  1  0
 48 49  1  0
 48 53  1  0
 49 52  1  0
 51 50  1  0
 52 63  1  0
 52 50  1  0
 53 51  1  0
 54 48  2  0
 55 63  1  0
 56 61  1  0
 57 58  1  0
 57 56  1  0
 59 58  1  0
 59 68  1  0
 59 60  1  0
 61 55  1  0
 61 60  1  0
 62 55  2  0
 63 64  1  0
 65 66  2  0
 66 85  1  0
 67 66  1  0
 67 70  1  0
 68 69  1  0
 68 65  1  0
 69 67  2  0
 70 71  1  0
 71 72  2  0
 73 76  1  0
 73 72  1  0
 74 73  2  0
 75 74  1  0
 75 70  2  0
 76 77  1  0
 77 78  1  0
 78 79  2  0
 80 79  1  0
 80 84  1  0
 81 80  2  0
 82 77  2  0
 82 81  1  0
 83 82  1  0
 85 86  1  0
 86 89  1  0
 86 88  1  0
 87 85  2  0
 90 91  1  0
 90 65  1  0
 92 90  1  0
M  ISO  4   5 101   6 101  55 100  63 100
M  END
>  <TORSDO>  (54) 
F 22

>  <SCORE>  (54) 
-13.140

>  <name>  (54) 
53

>  <ligand_id>  (54) 
53

>  <original_smiles>  (54) 
[H]c1c([H])c([H])c2c(c1[H])C([H])([H])C([H])([H])C([H])([H])C2([H])N([H])C(=O)C1([H])N(C(=O)C([H])(N([H])C(=O)C([H])(N([H])C([H])([H])[H])C([H])([H])[H])C(C([H])([H])[H])(C([H])([H])[H])C([H])([H])[H])C([H])([H])c2c([H])c(OC([H])([H])C([H])([H])C([H])([H])C([H])([H])C([H])([H])C([H])([H])N3C(=O)C([H])([H])C([H])(N([H])C(=O)N4C([H])([H])C([H])([H])C([H])([H])C([H])(n5nc(-c6c([H])c([H])c(Oc7c([H])c([H])c(F)c([H])c7F)c([H])c6[H])c(C(=O)N([H])[H])c5N([H])[H])C4([H])[H])C([H])([H])C3([H])[H])c([H])c([H])c2C1([H])[H]

>  <smiles>  (54) 
[H]c1c([H])c([H])c2c(c1[H])C([H])([H])C([H])([H])C([H])([H])C2([H])N([H])C(=O)C1([H])N(C(=O)C([H])(N([H])C(=O)C([H])(N([H])C([H])([H])[H])C([H])([H])[H])C(C([H])([H])[H])(C([H])([H])[H])C([H])([H])[H])C([H])([H])c2c([H])c(OC([H])([H])C([H])([H])C([H])([H])C([H])([H])C([H])([H])C([H])([H])N3C(=O)C([H])([H])C([H])(N([H])C(=O)N4C([H])([H])C([H])([H])C([H])([H])C([H])(n5nc(-c6c([H])c([H])c(Oc7c([H])c([H])c(F)c([H])c7F)c([H])c6[H])c(C(=O)N([H])[H])c5N([H])[H])C4([H])[H])C([H])([H])C3([H])[H])c([H])c([H])c2C1([H])[H]

$$$$
54:0:0
     RDKit          3D

 99107  0  0  1  0  0  0  0  0999 V2000
  -31.6200  -22.7310   23.2980 C   0  0  0  0  0  2  0  0  0  0  0  0
  -29.3450  -22.6420   24.3990 C   0  0  0  0  0  2  0  0  0  0  0  0
  -30.9200  -22.8650   21.9350 C   0  0  0  0  0  2  0  0  0  0  0  0
  -28.6990  -22.8250   23.0080 C   0  0  0  0  0  2  0  0  0  0  0  0
  -30.7520  -21.9970   24.3430 C   0  0  0  0  0  3  0  0  0  0  0  0
  -29.6040  -23.5440   22.0750 N   0  0  2  0  0  4  0  0  0  0  0  0
  -29.7820  -24.4360   22.5080 H   0  0  0  0  0  0  0  0  0  0  0  0
  -30.7220  -20.4730   24.1180 C   0  0  0  0  0  0  0  0  0  0  0  0
  -31.8710  -19.9110   23.7300 N   0  0  0  0  0  0  0  0  0  0  0  0
  -29.7000  -19.8190   24.3280 O   0  0  0  0  0  0  0  0  0  0  0  0
  -32.6550  -20.5320   23.5760 H   0  0  0  0  0  0  0  0  0  0  0  0
  -32.1390  -18.4760   23.6430 C   0  0  0  0  0  2  0  0  0  0  0  0
  -31.4330  -17.7640   22.4700 C   0  0  0  0  0  2  0  0  0  0  0  0
  -31.6910  -18.3950   21.0890 C   0  0  0  0  0  2  0  0  0  0  0  0
  -30.5440  -19.2810   20.5790 C   0  0  0  0  0  2  0  0  0  0  0  0
  -29.7110  -18.6890   19.4280 C   0  0  0  0  0  2  0  0  0  0  0  0
  -28.4160  -17.9450   19.8270 C   0  0  0  0  0  2  0  0  0  0  0  0
  -29.5000  -15.7130   19.9120 C   0  0  0  0  0  0  0  0  0  0  0  0
  -29.7530  -13.3680   19.2130 C   0  0  0  0  0  2  0  0  0  0  0  0
  -28.7740  -13.0880   18.0560 C   0  0  0  0  0  2  0  0  0  0  0  0
  -27.3940  -12.6720   18.6020 C   0  0  0  0  0  2  0  0  0  0  0  0
  -26.8650  -13.6360   19.6970 C   0  0  0  0  0  3  0  0  0  0  0  0
  -27.9560  -13.9070   20.7600 C   0  0  0  0  0  2  0  0  0  0  0  0
  -29.1580  -14.4080   20.0670 N   0  0  0  0  0  0  0  0  0  0  0  0
  -30.4770  -16.0760   19.2530 O   0  0  0  0  0  0  0  0  0  0  0  0
  -28.6130  -16.6020   20.3860 N   0  0  0  0  0  0  0  0  0  0  0  0
  -27.8650  -16.2290   20.9520 H   0  0  0  0  0  0  0  0  0  0  0  0
  -24.5170  -13.8180   20.7400 C   0  0  0  0  0  0  0  0  0  0  0  0
  -23.6220  -12.8650   21.1480 C   0  0  0  0  0  0  0  0  0  0  0  0
  -24.2550  -11.6050   20.9180 C   0  0  0  0  0  0  0  0  0  0  0  0
  -25.6340  -13.1250   20.2980 N   0  0  0  0  0  0  0  0  0  0  0  0
  -25.4880  -11.7860   20.4610 N   0  0  0  0  0  0  0  0  0  0  0  0
  -23.7410  -10.2360   21.0580 C   0  0  0  0  0  0  0  0  0  0  0  0
  -24.2820   -9.3410   22.0060 C   0  0  0  0  0  3  0  0  0  0  0  0
  -23.7640   -8.0340   22.1370 C   0  0  0  0  0  3  0  0  0  0  0  0
  -22.6890   -7.6150   21.3180 C   0  0  0  0  0  0  0  0  0  0  0  0
  -22.1660   -8.5040   20.3620 C   0  0  0  0  0  3  0  0  0  0  0  0
  -22.6860   -9.8030   20.2300 C   0  0  0  0  0  3  0  0  0  0  0  0
  -22.1360   -6.3570   21.3540 O   0  0  0  0  0  0  0  0  0  0  0  0
  -21.9600   -5.6830   22.5350 C   0  0  0  0  0  0  0  0  0  0  0  0
  -21.1780   -6.2120   23.5840 C   0  0  0  0  0  3  0  0  0  0  0  0
  -20.9640   -5.4550   24.7550 C   0  0  0  0  0  3  0  0  0  0  0  0
  -21.5230   -4.1690   24.8730 C   0  0  0  0  0  0  0  0  0  0  0  0
  -22.2980   -3.6380   23.8270 C   0  0  0  0  0  3  0  0  0  0  0  0
  -22.5130   -4.3930   22.6610 C   0  0  0  0  0  0  0  0  0  0  0  0
  -23.2420   -3.8680   21.6470 F   0  0  0  0  0  0  0  0  0  0  0  0
  -21.3120   -3.4400   25.9940 F   0  0  0  0  0  0  0  0  0  0  0  0
  -22.2220  -13.1010   21.6330 C   0  0  0  0  0  0  0  0  0  0  0  0
  -21.7270  -12.2480   22.5220 N   0  0  0  0  0  0  0  0  0  0  0  0
  -21.5710  -14.0760   21.2600 O   0  0  0  0  0  0  0  0  0  0  0  0
  -22.2640  -11.4550   22.8420 H   0  0  0  0  0  0  0  0  0  0  0  0
  -20.7990  -12.3940   22.8910 H   0  0  0  0  0  0  0  0  0  0  0  0
  -24.4660  -15.2070   20.6900 N   0  0  0  0  0  0  0  0  0  0  0  0
  -23.6440  -15.7280   20.9750 H   0  0  0  0  0  0  0  0  0  0  0  0
  -25.1970  -15.7990   20.3120 H   0  0  0  0  0  0  0  0  0  0  0  0
  -28.9650  -23.8260   20.7660 C   0  0  0  0  0  2  0  0  0  0  0  0
  -29.5270  -25.0860   20.0780 C   0  0  0  0  0  2  0  0  0  0  0  0
  -29.1900  -26.3860   20.8270 C   0  0  0  0  0  2  0  0  0  0  0  0
  -29.1120  -27.4790   19.9120 O   0  0  0  0  0  0  0  0  0  0  0  0
  -24.7900  -31.8400   23.4460 C   0  0  0  0  0  0  0  0  0  0  0  0
  -27.8870  -28.0950   19.9370 C   0  0  0  0  0  0  0  0  0  0  0  0
  -23.7380  -30.5220   21.6340 C   0  0  0  0  0  3  0  0  0  0  0  0
  -25.3490  -29.3110   20.0670 C   0  0  0  0  0  0  0  0  0  0  0  0
  -26.2110  -31.1570   21.5240 C   0  0  0  0  0  2  0  0  0  0  0  0
  -26.4400  -29.8910   20.7290 C   0  0  0  0  0  0  0  0  0  0  0  0
  -27.7130  -29.2890   20.6630 C   0  0  0  0  0  3  0  0  0  0  0  0
  -26.7870  -27.5150   19.2710 C   0  0  0  0  0  3  0  0  0  0  0  0
  -25.5170  -28.1200   19.3350 C   0  0  0  0  0  3  0  0  0  0  0  0
  -24.0200  -30.0210   20.1910 C   0  0  0  0  0  2  0  0  0  0  0  0
  -24.9290  -31.1840   22.2600 N   0  0  0  0  0  0  0  0  0  0  0  0
  -23.6870  -31.9400   23.9970 O   0  0  0  0  0  0  0  0  0  0  0  0
  -23.1880  -29.3400   22.4640 C   0  0  0  0  0  0  0  0  0  0  0  0
  -21.9070  -29.0010   22.2430 N   0  0  0  0  0  0  0  0  0  0  0  0
  -23.9120  -28.7340   23.2580 O   0  0  0  0  0  0  0  0  0  0  0  0
  -21.3730  -29.5560   21.5880 H   0  0  0  0  0  0  0  0  0  0  0  0
  -18.7270  -27.2980   22.3820 C   0  0  0  0  0  0  0  0  0  0  0  0
  -21.1920  -27.8970   22.8790 C   0  0  0  0  0  3  0  0  0  0  0  0
  -21.5480  -26.5460   22.2160 C   0  0  0  0  0  2  0  0  0  0  0  0
  -20.5810  -26.1500   21.0960 C   0  0  0  0  0  2  0  0  0  0  0  0
  -19.1500  -26.0450   21.6320 C   0  0  0  0  0  2  0  0  0  0  0  0
  -19.6860  -28.1740   22.9530 C   0  0  0  0  0  0  0  0  0  0  0  0
  -19.2420  -29.3460   23.6050 C   0  0  0  0  0  3  0  0  0  0  0  0
  -17.8680  -29.6420   23.6950 C   0  0  0  0  0  3  0  0  0  0  0  0
  -16.9230  -28.7610   23.1420 C   0  0  0  0  0  3  0  0  0  0  0  0
  -17.3520  -27.5890   22.4910 C   0  0  0  0  0  3  0  0  0  0  0  0
  -26.0060  -32.5150   24.1560 C   0  0  0  0  0  3  0  0  0  0  0  0
  -26.4950  -31.7360   25.4390 C   0  0  1  0  0  0  0  0  0  0  0  0
  -25.3560  -31.4010   26.4290 C   0  0  0  0  0  1  0  0  0  0  0  0
  -27.1800  -30.4060   25.0430 C   0  0  0  0  0  1  0  0  0  0  0  0
  -27.5500  -32.5790   26.1900 C   0  0  0  0  0  1  0  0  0  0  0  0
  -25.6100  -33.8880   24.4960 N   0  0  0  0  0  0  0  0  0  0  0  0
  -25.9480  -34.9750   23.7870 C   0  0  0  0  0  0  0  0  0  0  0  0
  -26.6930  -34.9320   22.8050 O   0  0  0  0  0  0  0  0  0  0  0  0
  -24.9550  -33.9980   25.2550 H   0  0  0  0  0  0  0  0  0  0  0  0
  -24.1650  -36.6970   23.3570 C   0  0  0  0  0  1  0  0  0  0  0  0
  -25.3630  -36.3250   24.2450 C   0  0  0  0  0  3  0  0  0  0  0  0
  -27.3880  -37.2840   25.2480 C   0  0  0  0  0  1  0  0  0  0  0  0
  -26.3460  -37.4280   24.2330 N   0  0  0  0  0  0  0  0  0  0  0  0
  -25.8860  -38.3230   24.3760 H   0  0  0  0  0  0  0  0  0  0  0  0
  1  5  1  0
  3  6  1  0
  3  1  1  0
  4  2  1  0
  5  8  1  0
  5  2  1  0
  6  7  1  1
  6  4  1  0
  8 10  2  0
  9  8  1  0
 11  9  1  0
 12  9  1  0
 13 12  1  0
 14 13  1  0
 15 14  1  0
 16 17  1  0
 16 15  1  0
 17 26  1  0
 18 24  1  0
 18 26  1  0
 19 24  1  0
 20 21  1  0
 20 19  1  0
 22 21  1  0
 22 31  1  0
 22 23  1  0
 24 23  1  0
 25 18  2  0
 26 27  1  0
 28 29  2  0
 29 48  1  0
 30 33  1  0
 30 29  1  0
 31 32  1  0
 31 28  1  0
 32 30  2  0
 33 34  1  0
 34 35  2  0
 36 39  1  0
 36 35  1  0
 37 36  2  0
 38 37  1  0
 38 33  2  0
 39 40  1  0
 40 45  2  0
 40 41  1  0
 41 42  2  0
 42 43  1  0
 43 47  1  0
 44 43  2  0
 45 44  1  0
 46 45  1  0
 48 49  1  0
 49 51  1  0
 49 52  1  0
 50 48  2  0
 53 28  1  0
 53 54  1  0
 55 53  1  0
 56  6  1  0
 57 56  1  0
 57 58  1  0
 59 61  1  0
 59 58  1  0
 60 71  2  0
 61 66  1  0
 62 70  1  0
 62 72  1  0
 63 69  1  0
 63 65  1  0
 64 70  1  0
 65 64  1  0
 66 65  2  0
 67 68  1  0
 67 61  2  0
 68 63  2  0
 69 62  1  0
 70 60  1  0
 72 74  2  0
 73 72  1  0
 75 73  1  0
 76 85  2  0
 76 81  1  0
 77 73  1  0
 77 81  1  0
 78 77  1  0
 79 80  1  0
 79 78  1  0
 80 76  1  0
 81 82  2  0
 82 83  1  0
 84 83  2  0
 85 84  1  0
 86 60  1  0
 86 91  1  0
 86 87  1  0
 87 90  1  1
 87 88  1  0
 89 87  1  0
 91 94  1  0
 92 96  1  0
 92 91  1  0
 93 92  2  0
 96 95  1  0
 98 96  1  0
 98 99  1  0
 98 97  1  0
M  ISO  4  18 100  26 100  58 101  59 101
M  END
>  <TORSDO>  (55) 
F 26

>  <SCORE>  (55) 
-5.437

>  <name>  (55) 
54

>  <ligand_id>  (55) 
54

>  <original_smiles>  (55) 
[H]c1c([H])c([H])c2c(c1[H])C([H])([H])C([H])([H])C([H])([H])C2([H])N([H])C(=O)C1([H])N(C(=O)C([H])(N([H])C(=O)C([H])(N([H])C([H])([H])[H])C([H])([H])[H])C(C([H])([H])[H])(C([H])([H])[H])C([H])([H])[H])C([H])([H])c2c([H])c(OC([H])([H])C([H])([H])C([H])([H])[N+]3([H])C([H])([H])C([H])([H])C([H])(C(=O)N([H])C([H])([H])C([H])([H])C([H])([H])C([H])([H])C([H])([H])C([H])([H])N([H])C(=O)N4C([H])([H])C([H])([H])C([H])([H])C([H])(n5nc(-c6c([H])c([H])c(Oc7c([H])c([H])c(F)c([H])c7F)c([H])c6[H])c(C(=O)N([H])[H])c5N([H])[H])C4([H])[H])C([H])([H])C3([H])[H])c([H])c([H])c2C1([H])[H]

>  <smiles>  (55) 
[H]c1c([H])c([H])c2c(c1[H])C([H])([H])C([H])([H])C([H])([H])C2([H])N([H])C(=O)C1([H])N(C(=O)C([H])(N([H])C(=O)C([H])(N([H])C([H])([H])[H])C([H])([H])[H])C(C([H])([H])[H])(C([H])([H])[H])C([H])([H])[H])C([H])([H])c2c([H])c(OC([H])([H])C([H])([H])C([H])([H])[N+]3([H])C([H])([H])C([H])([H])C([H])(C(=O)N([H])C([H])([H])C([H])([H])C([H])([H])C([H])([H])C([H])([H])C([H])([H])N([H])C(=O)N4C([H])([H])C([H])([H])C([H])([H])C([H])(n5nc(-c6c([H])c([H])c(Oc7c([H])c([H])c(F)c([H])c7F)c([H])c6[H])c(C(=O)N([H])[H])c5N([H])[H])C4([H])[H])C([H])([H])C3([H])[H])c([H])c([H])c2C1([H])[H]

$$$$
55:0:0
     RDKit          3D

 94101  0  0  1  0  0  0  0  0999 V2000
  -29.8130  -19.1770   20.2610 N   0  0  0  0  0  4  0  0  0  0  0  0
  -29.7290  -19.2550   19.2630 H   0  0  0  0  0  0  0  0  0  0  0  0
  -28.9010  -18.9030   20.6150 H   0  0  0  0  0  0  0  0  0  0  0  0
  -30.6420  -17.9750   20.6040 C   0  0  0  0  0  3  0  0  0  0  0  0
  -30.6410  -14.5550   20.4950 C   0  0  0  0  0  0  0  0  0  0  0  0
  -30.4620  -12.3710   19.3420 C   0  0  0  0  0  2  0  0  0  0  0  0
  -29.5270  -12.5610   18.1250 C   0  0  0  0  0  2  0  0  0  0  0  0
  -28.0430  -12.4110   18.5250 C   0  0  0  0  0  2  0  0  0  0  0  0
  -27.6790  -13.2370   19.7880 C   0  0  0  0  0  3  0  0  0  0  0  0
  -28.7160  -12.9820   20.9070 C   0  0  0  0  0  2  0  0  0  0  0  0
  -30.0480  -13.3310   20.3760 N   0  0  0  0  0  0  0  0  0  0  0  0
  -31.7920  -14.7710   20.1160 O   0  0  0  0  0  0  0  0  0  0  0  0
  -29.6180  -16.8410   20.9290 C   0  0  0  0  0  0  0  0  0  0  0  0
  -29.7470  -15.4910   20.8910 N   0  0  0  0  0  0  0  0  0  0  0  0
  -28.5020  -17.2440   21.2730 O   0  0  0  0  0  0  0  0  0  0  0  0
  -28.8850  -15.0500   21.1650 H   0  0  0  0  0  0  0  0  0  0  0  0
  -25.2620  -13.8590   20.4270 C   0  0  0  0  0  0  0  0  0  0  0  0
  -24.1870  -13.0920   20.7880 C   0  0  0  0  0  0  0  0  0  0  0  0
  -24.6530  -11.7400   20.7980 C   0  0  0  0  0  0  0  0  0  0  0  0
  -26.3140  -12.9740   20.2390 N   0  0  0  0  0  0  0  0  0  0  0  0
  -25.9500  -11.6980   20.5200 N   0  0  0  0  0  0  0  0  0  0  0  0
  -23.9280  -10.4810   21.0010 C   0  0  0  0  0  0  0  0  0  0  0  0
  -24.3560   -9.5280   21.9510 C   0  0  0  0  0  3  0  0  0  0  0  0
  -23.6320   -8.3320   22.1410 C   0  0  0  0  0  3  0  0  0  0  0  0
  -22.4670   -8.0790   21.3790 C   0  0  0  0  0  0  0  0  0  0  0  0
  -22.0580   -9.0210   20.4190 C   0  0  0  0  0  3  0  0  0  0  0  0
  -22.7820  -10.2090   20.2280 C   0  0  0  0  0  3  0  0  0  0  0  0
  -21.7160   -6.9330   21.4760 O   0  0  0  0  0  0  0  0  0  0  0  0
  -21.6700   -6.1990   22.6340 C   0  0  0  0  0  0  0  0  0  0  0  0
  -21.2530   -6.7650   23.8590 C   0  0  0  0  0  3  0  0  0  0  0  0
  -21.1520   -5.9570   25.0090 C   0  0  0  0  0  3  0  0  0  0  0  0
  -21.4590   -4.5860   24.9360 C   0  0  0  0  0  0  0  0  0  0  0  0
  -21.8720   -4.0200   23.7170 C   0  0  0  0  0  3  0  0  0  0  0  0
  -21.9730   -4.8240   22.5690 C   0  0  0  0  0  0  0  0  0  0  0  0
  -22.3490   -4.2690   21.3910 F   0  0  0  0  0  0  0  0  0  0  0  0
  -21.3550   -3.8080   26.0390 F   0  0  0  0  0  0  0  0  0  0  0  0
  -22.7830  -13.5690   21.0210 C   0  0  0  0  0  0  0  0  0  0  0  0
  -22.0430  -12.8980   21.8950 N   0  0  0  0  0  0  0  0  0  0  0  0
  -22.3500  -14.5750   20.4600 O   0  0  0  0  0  0  0  0  0  0  0  0
  -22.4040  -12.0840   22.3710 H   0  0  0  0  0  0  0  0  0  0  0  0
  -21.1000  -13.2040   22.0940 H   0  0  0  0  0  0  0  0  0  0  0  0
  -25.4270  -15.2270   20.2310 N   0  0  0  0  0  0  0  0  0  0  0  0
  -24.6580  -15.8800   20.3410 H   0  0  0  0  0  0  0  0  0  0  0  0
  -26.2940  -15.6820   19.9740 H   0  0  0  0  0  0  0  0  0  0  0  0
  -31.7230  -17.7450   19.5180 C   0  0  0  0  0  2  0  0  0  0  0  0
  -31.2310  -17.3380   18.1120 C   0  0  0  0  0  2  0  0  0  0  0  0
  -31.9550  -16.7080   15.7440 C   0  0  0  0  0  1  0  0  0  0  0  0
  -32.4050  -17.1420   17.1430 C   0  0  0  0  0  2  0  0  0  0  0  0
  -30.1550  -20.5000   20.8620 C   0  0  0  0  0  2  0  0  0  0  0  0
  -29.4370  -21.6970   20.1520 C   0  0  0  0  0  2  0  0  0  0  0  0
  -29.3730  -23.0360   20.9500 C   0  0  0  0  0  2  0  0  0  0  0  0
  -28.9290  -24.2780   20.1150 C   0  0  0  0  0  2  0  0  0  0  0  0
  -28.5160  -25.5210   20.9540 C   0  0  0  0  0  2  0  0  0  0  0  0
  -28.4830  -26.7390   20.1860 O   0  0  0  0  0  0  0  0  0  0  0  0
  -24.6000  -31.8930   23.2480 C   0  0  0  0  0  0  0  0  0  0  0  0
  -27.3050  -27.4560   20.2120 C   0  0  0  0  0  0  0  0  0  0  0  0
  -23.4190  -30.4790   21.5960 C   0  0  0  0  0  3  0  0  0  0  0  0
  -24.8970  -28.9420   20.1930 C   0  0  0  0  0  0  0  0  0  0  0  0
  -25.9430  -30.8560   21.4190 C   0  0  0  0  0  2  0  0  0  0  0  0
  -26.0460  -29.4800   20.7880 C   0  0  0  0  0  0  0  0  0  0  0  0
  -27.2550  -28.7460   20.7900 C   0  0  0  0  0  3  0  0  0  0  0  0
  -26.1410  -26.9280   19.6170 C   0  0  0  0  0  3  0  0  0  0  0  0
  -24.9390  -27.6650   19.6050 C   0  0  0  0  0  3  0  0  0  0  0  0
  -23.6460  -29.7940   20.2210 C   0  0  0  0  0  2  0  0  0  0  0  0
  -24.6720  -31.0910   22.1470 N   0  0  0  0  0  0  0  0  0  0  0  0
  -23.5120  -32.1600   23.7770 O   0  0  0  0  0  0  0  0  0  0  0  0
  -22.7620  -29.4590   22.5520 C   0  0  0  0  0  0  0  0  0  0  0  0
  -21.4390  -29.2770   22.4160 N   0  0  0  0  0  0  0  0  0  0  0  0
  -23.4400  -28.8340   23.3710 O   0  0  0  0  0  0  0  0  0  0  0  0
  -20.9530  -29.8330   21.7260 H   0  0  0  0  0  0  0  0  0  0  0  0
  -18.0620  -28.0840   22.8920 C   0  0  0  0  0  0  0  0  0  0  0  0
  -20.6190  -28.3380   23.1800 C   0  0  0  0  0  3  0  0  0  0  0  0
  -20.7230  -26.9080   22.6000 C   0  0  0  0  0  2  0  0  0  0  0  0
  -19.6260  -26.5910   21.5770 C   0  0  0  0  0  2  0  0  0  0  0  0
  -18.2410  -26.7360   22.2140 C   0  0  0  0  0  2  0  0  0  0  0  0
  -19.1800  -28.8430   23.3320 C   0  0  0  0  0  0  0  0  0  0  0  0
  -18.9590  -30.1040   23.9250 C   0  0  0  0  0  3  0  0  0  0  0  0
  -17.6550  -30.6080   24.0820 C   0  0  0  0  0  3  0  0  0  0  0  0
  -16.5510  -29.8460   23.6610 C   0  0  0  0  0  3  0  0  0  0  0  0
  -16.7560  -28.5860   23.0720 C   0  0  0  0  0  3  0  0  0  0  0  0
  -25.8770  -32.5300   23.8800 C   0  0  0  0  0  3  0  0  0  0  0  0
  -26.3860  -31.7650   25.1620 C   0  0  1  0  0  0  0  0  0  0  0  0
  -25.2840  -31.5290   26.2220 C   0  0  0  0  0  1  0  0  0  0  0  0
  -26.9730  -30.3870   24.7750 C   0  0  0  0  0  1  0  0  0  0  0  0
  -27.5300  -32.5630   25.8310 C   0  0  0  0  0  1  0  0  0  0  0  0
  -25.5620  -33.9290   24.1990 N   0  0  0  0  0  0  0  0  0  0  0  0
  -25.9020  -34.9780   23.4380 C   0  0  0  0  0  0  0  0  0  0  0  0
  -26.5830  -34.8710   22.4150 O   0  0  0  0  0  0  0  0  0  0  0  0
  -24.9590  -34.0850   24.9930 H   0  0  0  0  0  0  0  0  0  0  0  0
  -24.1730  -36.7630   23.0530 C   0  0  0  0  0  1  0  0  0  0  0  0
  -25.4050  -36.3670   23.8820 C   0  0  0  0  0  3  0  0  0  0  0  0
  -27.5280  -37.2600   24.7340 C   0  0  0  0  0  1  0  0  0  0  0  0
  -26.4360  -37.4220   23.7780 N   0  0  0  0  0  0  0  0  0  0  0  0
  -26.0260  -38.3410   23.9170 H   0  0  0  0  0  0  0  0  0  0  0  0
  1  4  1  0
  1  3  1  0
  1 49  1  0
  2  1  1  0
  4 45  1  0
  4 13  1  0
  5 14  1  0
  6 11  1  0
  7  8  1  0
  7  6  1  0
  9  8  1  0
  9 20  1  0
  9 10  1  0
 11  5  1  0
 11 10  1  0
 12  5  2  0
 13 15  2  0
 14 13  1  0
 14 16  1  0
 17 18  2  0
 18 19  1  0
 18 37  1  0
 19 22  1  0
 20 17  1  0
 20 21  1  0
 21 19  2  0
 22 23  1  0
 23 24  2  0
 25 28  1  0
 25 24  1  0
 26 25  2  0
 27 26  1  0
 27 22  2  0
 28 29  1  0
 29 30  1  0
 30 31  2  0
 32 31  1  0
 32 36  1  0
 33 32  2  0
 34 29  2  0
 34 33  1  0
 35 34  1  0
 37 38  1  0
 38 41  1  0
 38 40  1  0
 39 37  2  0
 42 43  1  0
 42 17  1  0
 44 42  1  0
 46 45  1  0
 47 48  1  0
 48 46  1  0
 50 49  1  0
 50 51  1  0
 52 51  1  0
 52 53  1  0
 54 56  1  0
 54 53  1  0
 55 66  2  0
 56 61  1  0
 57 65  1  0
 57 67  1  0
 58 64  1  0
 58 60  1  0
 59 65  1  0
 60 61  2  0
 60 59  1  0
 62 56  2  0
 63 62  1  0
 63 58  2  0
 64 57  1  0
 65 55  1  0
 67 69  2  0
 68 67  1  0
 70 68  1  0
 71 80  2  0
 71 76  1  0
 72 68  1  0
 72 76  1  0
 73 72  1  0
 74 75  1  0
 74 73  1  0
 75 71  1  0
 76 77  2  0
 77 78  1  0
 79 78  2  0
 80 79  1  0
 81 55  1  0
 81 86  1  0
 81 82  1  0
 82 85  1  1
 82 83  1  0
 84 82  1  0
 86 89  1  0
 87 91  1  0
 87 86  1  0
 88 87  2  0
 91 90  1  0
 93 91  1  0
 93 94  1  0
 93 92  1  0
M  ISO  4   5 100  14 100  53 101  54 101
M  END
>  <TORSDO>  (56) 
F 25

>  <SCORE>  (56) 
-12.128

>  <name>  (56) 
55

>  <ligand_id>  (56) 
55

>  <original_smiles>  (56) 
[H]c1c([H])c([H])c2c(c1[H])C([H])([H])C([H])([H])C([H])([H])C2([H])N([H])C(=O)C1([H])N(C(=O)C([H])(N([H])C(=O)C([H])(N([H])C([H])([H])[H])C([H])([H])[H])C(C([H])([H])[H])(C([H])([H])[H])C([H])([H])[H])C([H])([H])c2c([H])c(OC([H])([H])C([H])([H])C([H])([H])C([H])([H])C([H])([H])[N+]([H])([H])C([H])(C(=O)N([H])C(=O)N3C([H])([H])C([H])([H])C([H])([H])C([H])(n4nc(-c5c([H])c([H])c(Oc6c([H])c([H])c(F)c([H])c6F)c([H])c5[H])c(C(=O)N([H])[H])c4N([H])[H])C3([H])[H])C([H])([H])C([H])([H])C([H])([H])C([H])([H])[H])c([H])c([H])c2C1([H])[H]

>  <smiles>  (56) 
[H]c1c([H])c([H])c2c(c1[H])C([H])([H])C([H])([H])C([H])([H])C2([H])N([H])C(=O)C1([H])N(C(=O)C([H])(N([H])C(=O)C([H])(N([H])C([H])([H])[H])C([H])([H])[H])C(C([H])([H])[H])(C([H])([H])[H])C([H])([H])[H])C([H])([H])c2c([H])c(OC([H])([H])C([H])([H])C([H])([H])C([H])([H])C([H])([H])[N+]([H])([H])C([H])(C(=O)N([H])C(=O)N3C([H])([H])C([H])([H])C([H])([H])C([H])(n4nc(-c5c([H])c([H])c(Oc6c([H])c([H])c(F)c([H])c6F)c([H])c5[H])c(C(=O)N([H])[H])c4N([H])[H])C3([H])[H])C([H])([H])C([H])([H])C([H])([H])C([H])([H])[H])c([H])c([H])c2C1([H])[H]

$$$$
56:0:0
     RDKit          3D

 92100  0  0  1  0  0  0  0  0999 V2000
  -29.3900  -23.8410   21.0980 C   0  0  0  0  0  2  0  0  0  0  0  0
  -28.4250  -24.3240   20.0060 C   0  0  0  0  0  3  0  0  0  0  0  0
  -29.2370  -22.3940   20.6000 C   0  0  0  0  0  3  0  0  0  0  0  0
  -28.7640  -23.0060   19.2570 C   0  0  0  0  0  3  0  0  0  0  0  0
  -31.1060  -21.4590   22.0750 C   0  0  0  0  0  1  0  0  0  0  0  0
  -30.4660  -21.4570   20.6720 C   0  0  0  0  0  3  0  0  0  0  0  0
  -30.2400  -20.0050   20.1630 C   0  0  0  0  0  3  0  0  0  0  0  0
  -29.1580  -19.1800   20.8960 C   0  0  0  0  0  3  0  0  0  0  0  0
  -29.1200  -17.6760   20.5300 C   0  0  0  0  0  2  0  0  0  0  0  0
  -30.3370  -16.8490   21.0100 C   0  0  0  0  0  2  0  0  0  0  0  0
  -30.6970  -14.4570   20.2920 C   0  0  0  0  0  0  0  0  0  0  0  0
  -30.3730  -12.3140   19.1120 C   0  0  0  0  0  2  0  0  0  0  0  0
  -29.4100  -12.5220   17.9240 C   0  0  0  0  0  2  0  0  0  0  0  0
  -27.9390  -12.4100   18.3740 C   0  0  0  0  0  2  0  0  0  0  0  0
  -27.6340  -13.2440   19.6470 C   0  0  0  0  0  3  0  0  0  0  0  0
  -28.6990  -12.9820   20.7360 C   0  0  0  0  0  2  0  0  0  0  0  0
  -30.0230  -13.2840   20.1600 N   0  0  0  0  0  0  0  0  0  0  0  0
  -31.7780  -14.6840   19.7380 O   0  0  0  0  0  0  0  0  0  0  0  0
  -30.0410  -15.4110   20.9730 N   0  0  0  0  0  0  0  0  0  0  0  0
  -29.1960  -15.1110   21.4370 H   0  0  0  0  0  0  0  0  0  0  0  0
  -25.2450  -13.8800   20.3720 C   0  0  0  0  0  0  0  0  0  0  0  0
  -24.1750  -13.1200   20.7600 C   0  0  0  0  0  0  0  0  0  0  0  0
  -24.6260  -11.7650   20.7400 C   0  0  0  0  0  0  0  0  0  0  0  0
  -26.2810  -12.9890   20.1410 N   0  0  0  0  0  0  0  0  0  0  0  0
  -25.9110  -11.7120   20.4160 N   0  0  0  0  0  0  0  0  0  0  0  0
  -23.8940  -10.5090   20.9510 C   0  0  0  0  0  0  0  0  0  0  0  0
  -24.3320   -9.5480   21.8900 C   0  0  0  0  0  3  0  0  0  0  0  0
  -23.6030   -8.3580   22.0890 C   0  0  0  0  0  3  0  0  0  0  0  0
  -22.4220   -8.1170   21.3480 C   0  0  0  0  0  0  0  0  0  0  0  0
  -22.0010   -9.0670   20.4000 C   0  0  0  0  0  3  0  0  0  0  0  0
  -22.7310  -10.2500   20.2000 C   0  0  0  0  0  3  0  0  0  0  0  0
  -21.6620   -6.9770   21.4560 O   0  0  0  0  0  0  0  0  0  0  0  0
  -21.6270   -6.2420   22.6150 C   0  0  0  0  0  0  0  0  0  0  0  0
  -21.2310   -6.8110   23.8450 C   0  0  0  0  0  3  0  0  0  0  0  0
  -21.1420   -6.0040   24.9960 C   0  0  0  0  0  3  0  0  0  0  0  0
  -21.4370   -4.6300   24.9200 C   0  0  0  0  0  0  0  0  0  0  0  0
  -21.8260   -4.0620   23.6940 C   0  0  0  0  0  3  0  0  0  0  0  0
  -21.9180   -4.8650   22.5440 C   0  0  0  0  0  0  0  0  0  0  0  0
  -22.2730   -4.3080   21.3600 F   0  0  0  0  0  0  0  0  0  0  0  0
  -21.3440   -3.8530   26.0240 F   0  0  0  0  0  0  0  0  0  0  0  0
  -22.7840  -13.6090   21.0460 C   0  0  0  0  0  0  0  0  0  0  0  0
  -22.0630  -12.9260   21.9280 N   0  0  0  0  0  0  0  0  0  0  0  0
  -22.3450  -14.6310   20.5200 O   0  0  0  0  0  0  0  0  0  0  0  0
  -22.4290  -12.0980   22.3730 H   0  0  0  0  0  0  0  0  0  0  0  0
  -21.1290  -13.2350   22.1590 H   0  0  0  0  0  0  0  0  0  0  0  0
  -25.4220  -15.2480   20.1780 N   0  0  0  0  0  0  0  0  0  0  0  0
  -24.6710  -15.9190   20.3020 H   0  0  0  0  0  0  0  0  0  0  0  0
  -26.2770  -15.6700   19.8410 H   0  0  0  0  0  0  0  0  0  0  0  0
  -27.1840  -23.1410   17.2510 C   0  0  0  0  0  1  0  0  0  0  0  0
  -27.6790  -22.3020   18.4390 C   0  0  0  0  0  2  0  0  0  0  0  0
  -28.6760  -25.6840   19.3290 C   0  0  0  0  0  2  0  0  0  0  0  0
  -28.4380  -26.8040   20.1920 O   0  0  0  0  0  0  0  0  0  0  0  0
  -24.5960  -31.9330   23.2580 C   0  0  0  0  0  0  0  0  0  0  0  0
  -27.2330  -27.4790   20.1740 C   0  0  0  0  0  0  0  0  0  0  0  0
  -23.3830  -30.5340   21.6160 C   0  0  0  0  0  3  0  0  0  0  0  0
  -24.8290  -28.9830   20.1950 C   0  0  0  0  0  0  0  0  0  0  0  0
  -25.9070  -30.8820   21.4130 C   0  0  0  0  0  2  0  0  0  0  0  0
  -25.9860  -29.5060   20.7870 C   0  0  0  0  0  0  0  0  0  0  0  0
  -27.1830  -28.7560   20.7800 C   0  0  0  0  0  3  0  0  0  0  0  0
  -26.0550  -26.9680   19.5830 C   0  0  0  0  0  3  0  0  0  0  0  0
  -24.8600  -27.7150   19.5920 C   0  0  0  0  0  3  0  0  0  0  0  0
  -23.5910  -29.8480   20.2370 C   0  0  0  0  0  2  0  0  0  0  0  0
  -24.6450  -31.1330   22.1540 N   0  0  0  0  0  0  0  0  0  0  0  0
  -23.5170  -32.2120   23.7990 O   0  0  0  0  0  0  0  0  0  0  0  0
  -22.7280  -29.5200   22.5810 C   0  0  0  0  0  0  0  0  0  0  0  0
  -21.4030  -29.3480   22.4570 N   0  0  0  0  0  0  0  0  0  0  0  0
  -23.4110  -28.8920   23.3950 O   0  0  0  0  0  0  0  0  0  0  0  0
  -20.9150  -29.9090   21.7730 H   0  0  0  0  0  0  0  0  0  0  0  0
  -18.0240  -28.1710   22.9530 C   0  0  0  0  0  0  0  0  0  0  0  0
  -20.5810  -28.4180   23.2300 C   0  0  0  0  0  3  0  0  0  0  0  0
  -20.6800  -26.9850   22.6600 C   0  0  0  0  0  2  0  0  0  0  0  0
  -19.5780  -26.6640   21.6450 C   0  0  0  0  0  2  0  0  0  0  0  0
  -18.1950  -26.8180   22.2860 C   0  0  0  0  0  2  0  0  0  0  0  0
  -19.1450  -28.9280   23.3830 C   0  0  0  0  0  0  0  0  0  0  0  0
  -18.9350  -30.1970   23.9690 C   0  0  0  0  0  3  0  0  0  0  0  0
  -17.6330  -30.7030   24.1380 C   0  0  0  0  0  3  0  0  0  0  0  0
  -16.5260  -29.9450   23.7210 C   0  0  0  0  0  3  0  0  0  0  0  0
  -16.7200  -28.6820   23.1320 C   0  0  0  0  0  3  0  0  0  0  0  0
  -25.8850  -32.5570   23.8740 C   0  0  0  0  0  3  0  0  0  0  0  0
  -25.5880  -33.9620   24.1870 N   0  0  0  0  0  0  0  0  0  0  0  0
  -25.9460  -35.0030   23.4230 C   0  0  0  0  0  0  0  0  0  0  0  0
  -26.6300  -34.8820   22.4040 O   0  0  0  0  0  0  0  0  0  0  0  0
  -24.9680  -34.1270   24.9660 H   0  0  0  0  0  0  0  0  0  0  0  0
  -24.2450  -36.8200   23.0270 C   0  0  0  0  0  1  0  0  0  0  0  0
  -25.4660  -36.4010   23.8600 C   0  0  0  0  0  3  0  0  0  0  0  0
  -27.6020  -37.2680   24.7120 C   0  0  0  0  0  1  0  0  0  0  0  0
  -26.5120  -37.4430   23.7550 N   0  0  0  0  0  0  0  0  0  0  0  0
  -26.1130  -38.3680   23.8960 H   0  0  0  0  0  0  0  0  0  0  0  0
  -26.3930  -31.7940   25.1590 C   0  0  1  0  0  0  0  0  0  0  0  0
  -25.3010  -31.5810   26.2330 C   0  0  0  0  0  1  0  0  0  0  0  0
  -26.9600  -30.4040   24.7790 C   0  0  0  0  0  1  0  0  0  0  0  0
  -27.5430  -32.5890   25.8210 C   0  0  0  0  0  1  0  0  0  0  0  0
  2 51  1  0
  2  1  1  0
  3  6  1  0
  3  1  1  0
  4 50  1  0
  4  2  1  0
  4  3  1  0
  6  5  1  0
  7  6  1  0
  7  8  2  0
  9  8  1  0
  9 10  1  0
 11 19  1  0
 12 17  1  0
 13 14  1  0
 13 12  1  0
 15 14  1  0
 15 24  1  0
 15 16  1  0
 17 11  1  0
 17 16  1  0
 18 11  2  0
 19 10  1  0
 19 20  1  0
 21 22  2  0
 22 41  1  0
 23 22  1  0
 23 26  1  0
 24 21  1  0
 24 25  1  0
 25 23  2  0
 26 27  1  0
 27 28  2  0
 29 32  1  0
 29 28  1  0
 30 29  2  0
 31 30  1  0
 31 26  2  0
 32 33  1  0
 33 34  1  0
 34 35  2  0
 36 35  1  0
 36 40  1  0
 37 36  2  0
 38 33  2  0
 38 37  1  0
 39 38  1  0
 41 42  1  0
 42 45  1  0
 42 44  1  0
 43 41  2  0
 46 47  1  0
 46 21  1  0
 48 46  1  0
 49 50  1  0
 51 52  1  0
 53 64  2  0
 54 52  1  0
 54 59  1  0
 55 63  1  0
 55 65  1  0
 56 62  1  0
 56 58  1  0
 57 63  1  0
 58 57  1  0
 59 58  2  0
 60 61  1  0
 60 54  2  0
 61 56  2  0
 62 55  1  0
 63 53  1  0
 65 67  2  0
 66 65  1  0
 68 66  1  0
 69 78  2  0
 69 74  1  0
 70 66  1  0
 70 74  1  0
 71 70  1  0
 72 73  1  0
 72 71  1  0
 73 69  1  0
 74 75  2  0
 75 76  1  0
 77 76  2  0
 78 77  1  0
 79 53  1  0
 79 80  1  0
 79 89  1  0
 80 83  1  0
 81 85  1  0
 81 80  1  0
 82 81  2  0
 85 84  1  0
 87 85  1  0
 87 88  1  0
 87 86  1  0
 89 92  1  1
 89 90  1  0
 91 89  1  0
M  ISO  4  11 100  19 100  51 101  52 101
M  END
>  <TORSDO>  (57) 
F 23

>  <SCORE>  (57) 
-12.443

>  <name>  (57) 
56

>  <ligand_id>  (57) 
56

>  <original_smiles>  (57) 
[H]c1c([H])c([H])c2c(c1[H])C([H])([H])C([H])([H])C([H])([H])C2([H])N([H])C(=O)C1([H])N(C(=O)C([H])(N([H])C(=O)C([H])(N([H])C([H])([H])[H])C([H])([H])[H])C(C([H])([H])[H])(C([H])([H])[H])C([H])([H])[H])C([H])([H])c2c([H])c(OC([H])([H])C3([H])C([H])([H])C([H])(C([H])(C([H])([H])[H])C([H])([H])C([H])([H])C([H])([H])C([H])([H])N([H])C(=O)N4C([H])([H])C([H])([H])C([H])([H])C([H])(n5nc(-c6c([H])c([H])c(Oc7c([H])c([H])c(F)c([H])c7F)c([H])c6[H])c(C(=O)N([H])[H])c5N([H])[H])C4([H])[H])C3([H])C([H])([H])C([H])([H])[H])c([H])c([H])c2C1([H])[H]

>  <smiles>  (57) 
[H]c1c([H])c([H])c2c(c1[H])C([H])([H])C([H])([H])C([H])([H])C2([H])N([H])C(=O)C1([H])N(C(=O)C([H])(N([H])C(=O)C([H])(N([H])C([H])([H])[H])C([H])([H])[H])C(C([H])([H])[H])(C([H])([H])[H])C([H])([H])[H])C([H])([H])c2c([H])c(OC([H])([H])C3([H])C([H])([H])C([H])(C([H])(C([H])([H])[H])C([H])([H])C([H])([H])C([H])([H])C([H])([H])N([H])C(=O)N4C([H])([H])C([H])([H])C([H])([H])C([H])(n5nc(-c6c([H])c([H])c(Oc7c([H])c([H])c(F)c([H])c7F)c([H])c6[H])c(C(=O)N([H])[H])c5N([H])[H])C4([H])[H])C3([H])C([H])([H])C([H])([H])[H])c([H])c([H])c2C1([H])[H]

$$$$
57:0:0
     RDKit          3D

 93101  0  0  1  0  0  0  0  0999 V2000
  -28.7820  -19.1630   20.6600 N   0  0  0  0  0  4  0  0  0  0  0  0
  -28.4270  -19.3150   21.5900 H   0  0  0  0  0  0  0  0  0  0  0  0
  -28.0060  -18.8430   20.1050 H   0  0  0  0  0  0  0  0  0  0  0  0
  -30.7860  -14.7070   19.9910 C   0  0  0  0  0  0  0  0  0  0  0  0
  -30.4790  -12.5390   18.8230 C   0  0  0  0  0  2  0  0  0  0  0  0
  -29.4490  -12.6720   17.6840 C   0  0  0  0  0  2  0  0  0  0  0  0
  -28.0170  -12.4640   18.2150 C   0  0  0  0  0  2  0  0  0  0  0  0
  -27.7300  -13.3060   19.4850 C   0  0  0  0  0  3  0  0  0  0  0  0
  -28.8620  -13.1500   20.5230 C   0  0  0  0  0  2  0  0  0  0  0  0
  -30.1310  -13.5140   19.8720 N   0  0  0  0  0  0  0  0  0  0  0  0
  -31.8420  -14.9410   19.3920 O   0  0  0  0  0  0  0  0  0  0  0  0
  -30.9520  -16.3040   21.8730 C   0  0  0  0  0  2  0  0  0  0  0  0
  -29.3040  -16.6830   20.2160 C   0  0  0  0  0  2  0  0  0  0  0  0
  -30.3330  -17.7030   22.0960 C   0  0  0  0  0  3  0  0  0  0  0  0
  -29.8080  -18.0650   20.6990 C   0  0  0  0  0  3  0  0  0  0  0  0
  -30.2060  -15.6540   20.7780 N   0  0  0  0  0  0  0  0  0  0  0  0
  -25.3860  -13.8380   20.3960 C   0  0  0  0  0  0  0  0  0  0  0  0
  -24.3620  -13.0310   20.8180 C   0  0  0  0  0  0  0  0  0  0  0  0
  -24.8410  -11.6920   20.6930 C   0  0  0  0  0  0  0  0  0  0  0  0
  -26.4230  -12.9870   20.0520 N   0  0  0  0  0  0  0  0  0  0  0  0
  -26.1020  -11.6880   20.2850 N   0  0  0  0  0  0  0  0  0  0  0  0
  -24.1500  -10.4090   20.8810 C   0  0  0  0  0  0  0  0  0  0  0  0
  -24.5980   -9.4630   21.8290 C   0  0  0  0  0  3  0  0  0  0  0  0
  -23.9080   -8.2450   22.0060 C   0  0  0  0  0  3  0  0  0  0  0  0
  -22.7550   -7.9640   21.2360 C   0  0  0  0  0  0  0  0  0  0  0  0
  -22.3250   -8.9000   20.2780 C   0  0  0  0  0  3  0  0  0  0  0  0
  -23.0160  -10.1100   20.0990 C   0  0  0  0  0  3  0  0  0  0  0  0
  -22.0340   -6.7970   21.3230 O   0  0  0  0  0  0  0  0  0  0  0  0
  -21.8950   -6.1220   22.5080 C   0  0  0  0  0  0  0  0  0  0  0  0
  -21.2920   -6.7170   23.6380 C   0  0  0  0  0  3  0  0  0  0  0  0
  -21.1090   -5.9650   24.8150 C   0  0  0  0  0  3  0  0  0  0  0  0
  -21.5180   -4.6190   24.8640 C   0  0  0  0  0  0  0  0  0  0  0  0
  -22.1160   -4.0240   23.7380 C   0  0  0  0  0  3  0  0  0  0  0  0
  -22.3010   -4.7740   22.5630 C   0  0  0  0  0  0  0  0  0  0  0  0
  -22.8570   -4.1890   21.4740 F   0  0  0  0  0  0  0  0  0  0  0  0
  -21.3360   -3.8930   25.9920 F   0  0  0  0  0  0  0  0  0  0  0  0
  -22.9830  -13.4720   21.2160 C   0  0  0  0  0  0  0  0  0  0  0  0
  -22.3360  -12.7240   22.1040 N   0  0  0  0  0  0  0  0  0  0  0  0
  -22.4920  -14.5110   20.7790 O   0  0  0  0  0  0  0  0  0  0  0  0
  -22.7450  -11.8780   22.4710 H   0  0  0  0  0  0  0  0  0  0  0  0
  -21.4120  -12.9970   22.4130 H   0  0  0  0  0  0  0  0  0  0  0  0
  -25.5150  -15.2160   20.2550 N   0  0  0  0  0  0  0  0  0  0  0  0
  -24.7360  -15.8490   20.4020 H   0  0  0  0  0  0  0  0  0  0  0  0
  -26.3030  -15.6580   19.7980 H   0  0  0  0  0  0  0  0  0  0  0  0
  -31.3150  -18.7130   22.7090 C   0  0  0  0  0  0  0  0  0  0  0  0
  -31.1080  -19.0750   24.1740 C   0  0  0  0  0  1  0  0  0  0  0  0
  -32.2220  -19.2250   22.0520 O   0  0  0  0  0  0  0  0  0  0  0  0
  -29.2240  -20.4770   20.0910 C   0  0  0  0  0  2  0  0  0  0  0  0
  -28.2580  -21.6820   20.3600 C   0  0  0  0  0  2  0  0  0  0  0  0
  -28.6760  -23.0160   19.6590 C   0  0  0  0  0  2  0  0  0  0  0  0
  -27.9590  -24.3280   20.1230 C   0  0  0  0  0  2  0  0  0  0  0  0
  -28.2960  -25.5830   19.2550 C   0  0  0  0  0  2  0  0  0  0  0  0
  -28.1620  -26.8660   19.9050 O   0  0  0  0  0  0  0  0  0  0  0  0
  -24.4950  -31.9730   23.2320 C   0  0  0  0  0  0  0  0  0  0  0  0
  -26.9660  -27.5680   19.9390 C   0  0  0  0  0  0  0  0  0  0  0  0
  -23.1980  -30.6070   21.6260 C   0  0  0  0  0  3  0  0  0  0  0  0
  -24.5700  -29.0870   20.1000 C   0  0  0  0  0  0  0  0  0  0  0  0
  -25.7070  -30.9640   21.2960 C   0  0  0  0  0  2  0  0  0  0  0  0
  -25.7570  -29.5990   20.6360 C   0  0  0  0  0  0  0  0  0  0  0  0
  -26.9530  -28.8450   20.5530 C   0  0  0  0  0  3  0  0  0  0  0  0
  -25.7560  -27.0700   19.4030 C   0  0  0  0  0  3  0  0  0  0  0  0
  -24.5660  -27.8220   19.4830 C   0  0  0  0  0  3  0  0  0  0  0  0
  -23.3340  -29.9500   20.2250 C   0  0  0  0  0  2  0  0  0  0  0  0
  -24.4890  -31.1950   22.1110 N   0  0  0  0  0  0  0  0  0  0  0  0
  -23.4460  -32.2370   23.8360 O   0  0  0  0  0  0  0  0  0  0  0  0
  -22.5930  -29.5720   22.6010 C   0  0  0  0  0  0  0  0  0  0  0  0
  -21.2740  -29.3430   22.4920 N   0  0  0  0  0  0  0  0  0  0  0  0
  -23.3070  -28.9750   23.4100 O   0  0  0  0  0  0  0  0  0  0  0  0
  -20.7570  -29.8790   21.8090 H   0  0  0  0  0  0  0  0  0  0  0  0
  -17.9630  -27.9840   22.9870 C   0  0  0  0  0  0  0  0  0  0  0  0
  -20.5000  -28.3830   23.2780 C   0  0  0  0  0  3  0  0  0  0  0  0
  -20.6830  -26.9460   22.7380 C   0  0  0  0  0  2  0  0  0  0  0  0
  -19.6130  -26.5460   21.7160 C   0  0  0  0  0  2  0  0  0  0  0  0
  -18.2170  -26.6340   22.3370 C   0  0  0  0  0  2  0  0  0  0  0  0
  -19.0360  -28.8130   23.4110 C   0  0  0  0  0  0  0  0  0  0  0  0
  -18.7440  -30.0750   23.9740 C   0  0  0  0  0  3  0  0  0  0  0  0
  -17.4150  -30.5110   24.1160 C   0  0  0  0  0  3  0  0  0  0  0  0
  -16.3570  -29.6820   23.7060 C   0  0  0  0  0  3  0  0  0  0  0  0
  -16.6320  -28.4210   23.1480 C   0  0  0  0  0  3  0  0  0  0  0  0
  -25.8160  -32.5860   23.7980 C   0  0  0  0  0  3  0  0  0  0  0  0
  -25.5480  -33.9930   24.1260 N   0  0  0  0  0  0  0  0  0  0  0  0
  -25.8650  -35.0310   23.3390 C   0  0  0  0  0  0  0  0  0  0  0  0
  -26.4880  -34.9020   22.2810 O   0  0  0  0  0  0  0  0  0  0  0  0
  -25.0020  -34.1680   24.9560 H   0  0  0  0  0  0  0  0  0  0  0  0
  -24.1540  -36.8460   23.0230 C   0  0  0  0  0  1  0  0  0  0  0  0
  -25.4170  -36.4320   23.7960 C   0  0  0  0  0  3  0  0  0  0  0  0
  -27.5930  -37.2920   24.5390 C   0  0  0  0  0  1  0  0  0  0  0  0
  -26.4610  -37.4670   23.6340 N   0  0  0  0  0  0  0  0  0  0  0  0
  -26.0740  -38.3950   23.7880 H   0  0  0  0  0  0  0  0  0  0  0  0
  -26.3660  -31.8160   25.0600 C   0  0  1  0  0  0  0  0  0  0  0  0
  -25.3040  -31.5950   26.1630 C   0  0  0  0  0  1  0  0  0  0  0  0
  -26.9150  -30.4290   24.6510 C   0  0  0  0  0  1  0  0  0  0  0  0
  -27.5550  -32.5910   25.6770 C   0  0  0  0  0  1  0  0  0  0  0  0
  1  2  1  0
  3  1  1  0
  4 16  1  0
  5 10  1  0
  6  7  1  0
  6  5  1  0
  8  7  1  0
  8 20  1  0
  8  9  1  0
 10  4  1  0
 10  9  1  0
 11  4  2  0
 12 14  1  0
 13 15  1  0
 13 16  1  0
 14 45  1  0
 15  1  1  0
 15 14  1  0
 16 12  1  0
 17 18  2  0
 18 37  1  0
 19 18  1  0
 19 22  1  0
 20 21  1  0
 20 17  1  0
 21 19  2  0
 22 23  1  0
 23 24  2  0
 25 28  1  0
 25 24  1  0
 26 25  2  0
 27 26  1  0
 27 22  2  0
 28 29  1  0
 29 34  2  0
 29 30  1  0
 30 31  2  0
 31 32  1  0
 32 36  1  0
 33 32  2  0
 34 33  1  0
 35 34  1  0
 37 38  1  0
 38 41  1  0
 38 40  1  0
 39 37  2  0
 42 17  1  0
 42 43  1  0
 44 42  1  0
 45 46  1  0
 47 45  2  0
 48 49  1  0
 48  1  1  0
 50 51  1  0
 50 49  1  0
 52 53  1  0
 52 51  1  0
 53 55  1  0
 54 65  2  0
 55 60  1  0
 56 64  1  0
 56 66  1  0
 57 63  1  0
 57 59  1  0
 58 64  1  0
 59 58  1  0
 60 59  2  0
 61 62  1  0
 61 55  2  0
 62 57  2  0
 63 56  1  0
 64 54  1  0
 66 68  2  0
 67 66  1  0
 69 67  1  0
 70 79  2  0
 70 75  1  0
 71 67  1  0
 71 75  1  0
 72 71  1  0
 73 74  1  0
 73 72  1  0
 74 70  1  0
 75 76  2  0
 76 77  1  0
 78 77  2  0
 79 78  1  0
 80 54  1  0
 80 81  1  0
 80 90  1  0
 81 84  1  0
 82 86  1  0
 82 81  1  0
 83 82  2  0
 86 85  1  0
 88 89  1  0
 88 86  1  0
 88 87  1  0
 90 93  1  1
 90 91  1  0
 92 90  1  0
M  ISO  4   4 100  16 100  52 101  53 101
M  END
>  <TORSDO>  (58) 
F 22

>  <SCORE>  (58) 
-12.129

>  <name>  (58) 
57

>  <ligand_id>  (58) 
57

>  <original_smiles>  (58) 
[H]c1c([H])c([H])c2c(c1[H])C([H])([H])C([H])([H])C([H])([H])C2([H])N([H])C(=O)C1([H])N(C(=O)C([H])(N([H])C(=O)C([H])(N([H])C([H])([H])[H])C([H])([H])[H])C(C([H])([H])[H])(C([H])([H])[H])C([H])([H])[H])C([H])([H])c2c([H])c(OC([H])([H])C([H])([H])C([H])([H])C([H])([H])C([H])([H])[N+]([H])([H])C3([H])C([H])([H])N(C(=O)N4C([H])([H])C([H])([H])C([H])([H])C([H])(n5nc(-c6c([H])c([H])c(Oc7c([H])c([H])c(F)c([H])c7F)c([H])c6[H])c(C(=O)N([H])[H])c5N([H])[H])C4([H])[H])C([H])([H])C3([H])C(=O)C([H])([H])[H])c([H])c([H])c2C1([H])[H]

>  <smiles>  (58) 
[H]c1c([H])c([H])c2c(c1[H])C([H])([H])C([H])([H])C([H])([H])C2([H])N([H])C(=O)C1([H])N(C(=O)C([H])(N([H])C(=O)C([H])(N([H])C([H])([H])[H])C([H])([H])[H])C(C([H])([H])[H])(C([H])([H])[H])C([H])([H])[H])C([H])([H])c2c([H])c(OC([H])([H])C([H])([H])C([H])([H])C([H])([H])C([H])([H])[N+]([H])([H])C3([H])C([H])([H])N(C(=O)N4C([H])([H])C([H])([H])C([H])([H])C([H])(n5nc(-c6c([H])c([H])c(Oc7c([H])c([H])c(F)c([H])c7F)c([H])c6[H])c(C(=O)N([H])[H])c5N([H])[H])C4([H])[H])C([H])([H])C3([H])C(=O)C([H])([H])[H])c([H])c([H])c2C1([H])[H]

$$$$
58:0:0
     RDKit          3D

 95103  0  0  1  0  0  0  0  0999 V2000
  -29.6360  -20.1620   22.2180 C   0  0  0  0  0  2  0  0  0  0  0  0
  -31.1610  -21.1390   20.6360 C   0  0  0  0  0  2  0  0  0  0  0  0
  -30.7430  -19.1180   21.9450 C   0  0  0  0  0  3  0  0  0  0  0  0
  -29.6910  -21.1720   21.0640 C   0  0  0  0  0  3  0  0  0  0  0  0
  -31.5340  -19.6600   20.7300 C   0  0  0  0  0  3  0  0  0  0  0  0
  -33.0490  -19.4090   20.7990 C   0  0  0  0  0  1  0  0  0  0  0  0
  -30.1990  -17.7060   21.6810 C   0  0  0  0  0  0  0  0  0  0  0  0
  -30.7960  -16.7000   22.3340 N   0  0  0  0  0  0  0  0  0  0  0  0
  -29.2830  -17.5270   20.8750 O   0  0  0  0  0  0  0  0  0  0  0  0
  -31.5290  -16.9420   22.9860 H   0  0  0  0  0  0  0  0  0  0  0  0
  -30.5330  -15.2770   22.1330 C   0  0  0  0  0  2  0  0  0  0  0  0
  -31.6570  -14.6120   21.3150 C   0  0  0  0  0  2  0  0  0  0  0  0
  -31.5260  -13.9570   18.9060 C   0  0  0  0  0  0  0  0  0  0  0  0
  -30.8570  -11.7200   18.1180 C   0  0  0  0  0  2  0  0  0  0  0  0
  -29.7180  -11.7570   17.0850 C   0  0  0  0  0  2  0  0  0  0  0  0
  -28.3510  -11.7500   17.7900 C   0  0  0  0  0  2  0  0  0  0  0  0
  -28.2560  -12.8400   18.8860 C   0  0  0  0  0  3  0  0  0  0  0  0
  -29.4800  -12.7900   19.8230 C   0  0  0  0  0  2  0  0  0  0  0  0
  -30.7210  -12.8680   19.0270 N   0  0  0  0  0  0  0  0  0  0  0  0
  -32.2860  -14.1350   17.9520 O   0  0  0  0  0  0  0  0  0  0  0  0
  -31.4870  -14.8680   19.8840 N   0  0  0  0  0  0  0  0  0  0  0  0
  -31.8870  -15.7510   19.6020 H   0  0  0  0  0  0  0  0  0  0  0  0
  -26.2130  -13.7350   20.1800 C   0  0  0  0  0  0  0  0  0  0  0  0
  -25.1240  -13.1030   20.7180 C   0  0  0  0  0  0  0  0  0  0  0  0
  -25.3120  -11.7100   20.4660 C   0  0  0  0  0  0  0  0  0  0  0  0
  -27.0060  -12.7330   19.6390 N   0  0  0  0  0  0  0  0  0  0  0  0
  -26.4760  -11.5030   19.8650 N   0  0  0  0  0  0  0  0  0  0  0  0
  -24.4240  -10.5650   20.7120 C   0  0  0  0  0  0  0  0  0  0  0  0
  -24.8220   -9.4840   21.5300 C   0  0  0  0  0  3  0  0  0  0  0  0
  -23.9450   -8.4040   21.7650 C   0  0  0  0  0  3  0  0  0  0  0  0
  -22.6550   -8.3980   21.1850 C   0  0  0  0  0  0  0  0  0  0  0  0
  -22.2720   -9.4660   20.3530 C   0  0  0  0  0  3  0  0  0  0  0  0
  -23.1480  -10.5380   20.1160 C   0  0  0  0  0  3  0  0  0  0  0  0
  -21.7450   -7.3790   21.3350 O   0  0  0  0  0  0  0  0  0  0  0  0
  -21.6080   -6.7070   22.5230 C   0  0  0  0  0  0  0  0  0  0  0  0
  -21.3840   -7.3850   23.7420 C   0  0  0  0  0  3  0  0  0  0  0  0
  -21.1800   -6.6520   24.9280 C   0  0  0  0  0  3  0  0  0  0  0  0
  -21.1880   -5.2450   24.8970 C   0  0  0  0  0  0  0  0  0  0  0  0
  -21.4050   -4.5680   23.6830 C   0  0  0  0  0  3  0  0  0  0  0  0
  -21.6110   -5.2980   22.4990 C   0  0  0  0  0  0  0  0  0  0  0  0
  -21.7980   -4.6410   21.3290 F   0  0  0  0  0  0  0  0  0  0  0  0
  -20.9840   -4.5400   26.0340 F   0  0  0  0  0  0  0  0  0  0  0  0
  -23.9280  -13.7590   21.3470 C   0  0  0  0  0  0  0  0  0  0  0  0
  -23.3510  -13.1330   22.3680 N   0  0  0  0  0  0  0  0  0  0  0  0
  -23.5260  -14.8580   20.9660 O   0  0  0  0  0  0  0  0  0  0  0  0
  -23.6920  -12.2420   22.6940 H   0  0  0  0  0  0  0  0  0  0  0  0
  -22.5580  -13.5540   22.8310 H   0  0  0  0  0  0  0  0  0  0  0  0
  -26.5870  -15.0710   20.0890 N   0  0  0  0  0  0  0  0  0  0  0  0
  -26.0160  -15.8250   20.4550 H   0  0  0  0  0  0  0  0  0  0  0  0
  -27.4610  -15.3950   19.6910 H   0  0  0  0  0  0  0  0  0  0  0  0
  -29.1700  -22.5700   21.4410 C   0  0  0  0  0  2  0  0  0  0  0  0
  -29.1680  -23.5440   20.2520 C   0  0  0  0  0  2  0  0  0  0  0  0
  -28.7870  -24.9770   20.6500 C   0  0  0  0  0  2  0  0  0  0  0  0
  -29.0360  -25.9770   19.5090 C   0  0  0  0  0  2  0  0  0  0  0  0
  -28.8660  -27.3100   19.9740 O   0  0  0  0  0  0  0  0  0  0  0  0
  -24.7420  -31.9440   23.3940 C   0  0  0  0  0  0  0  0  0  0  0  0
  -27.6110  -27.8750   20.0320 C   0  0  0  0  0  0  0  0  0  0  0  0
  -23.6000  -30.5800   21.6730 C   0  0  0  0  0  3  0  0  0  0  0  0
  -25.1240  -29.2110   20.1570 C   0  0  0  0  0  0  0  0  0  0  0  0
  -26.0970  -31.0960   21.4830 C   0  0  0  0  0  2  0  0  0  0  0  0
  -26.2510  -29.7730   20.7670 C   0  0  0  0  0  0  0  0  0  0  0  0
  -27.4940  -29.1110   20.7020 C   0  0  0  0  0  3  0  0  0  0  0  0
  -26.4600  -27.3090   19.4360 C   0  0  0  0  0  3  0  0  0  0  0  0
  -25.2210  -27.9760   19.4930 C   0  0  0  0  0  3  0  0  0  0  0  0
  -23.8350  -29.9930   20.2550 C   0  0  0  0  0  2  0  0  0  0  0  0
  -24.8310  -31.2190   22.2440 N   0  0  0  0  0  0  0  0  0  0  0  0
  -23.6520  -32.1210   23.9570 O   0  0  0  0  0  0  0  0  0  0  0  0
  -23.0150  -29.4690   22.5740 C   0  0  0  0  0  0  0  0  0  0  0  0
  -21.7200  -29.1690   22.3860 N   0  0  0  0  0  0  0  0  0  0  0  0
  -23.7240  -28.8790   23.3930 O   0  0  0  0  0  0  0  0  0  0  0  0
  -21.2070  -29.7040   21.7000 H   0  0  0  0  0  0  0  0  0  0  0  0
  -18.4660  -27.6300   22.6710 C   0  0  0  0  0  0  0  0  0  0  0  0
  -20.9660  -28.1330   23.0890 C   0  0  0  0  0  3  0  0  0  0  0  0
  -21.2440  -26.7370   22.4850 C   0  0  0  0  0  2  0  0  0  0  0  0
  -20.2350  -26.3350   21.4050 C   0  0  0  0  0  2  0  0  0  0  0  0
  -18.8130  -26.3240   21.9760 C   0  0  0  0  0  2  0  0  0  0  0  0
  -19.4770  -28.4860   23.1800 C   0  0  0  0  0  0  0  0  0  0  0  0
  -19.1030  -29.7050   23.7860 C   0  0  0  0  0  3  0  0  0  0  0  0
  -17.7470  -30.0690   23.8910 C   0  0  0  0  0  3  0  0  0  0  0  0
  -16.7490  -29.2110   23.3990 C   0  0  0  0  0  3  0  0  0  0  0  0
  -17.1090  -27.9920   22.7960 C   0  0  0  0  0  3  0  0  0  0  0  0
  -25.9990  -32.6020   24.0470 C   0  0  0  0  0  3  0  0  0  0  0  0
  -25.6500  -33.9920   24.3700 N   0  0  0  0  0  0  0  0  0  0  0  0
  -25.9760  -35.0520   23.6180 C   0  0  0  0  0  0  0  0  0  0  0  0
  -26.6730  -34.9630   22.6040 O   0  0  0  0  0  0  0  0  0  0  0  0
  -25.0320  -34.1320   25.1560 H   0  0  0  0  0  0  0  0  0  0  0  0
  -24.2150  -36.8010   23.2190 C   0  0  0  0  0  1  0  0  0  0  0  0
  -25.4440  -36.4270   24.0630 C   0  0  0  0  0  3  0  0  0  0  0  0
  -27.5400  -37.3560   24.9420 C   0  0  0  0  0  1  0  0  0  0  0  0
  -26.4540  -37.5040   23.9760 N   0  0  0  0  0  0  0  0  0  0  0  0
  -26.0250  -38.4150   24.1160 H   0  0  0  0  0  0  0  0  0  0  0  0
  -26.5040  -31.8390   25.3320 C   0  0  1  0  0  0  0  0  0  0  0  0
  -25.3810  -31.5120   26.3430 C   0  0  0  0  0  1  0  0  0  0  0  0
  -27.1910  -30.5090   24.9390 C   0  0  0  0  0  1  0  0  0  0  0  0
  -27.5730  -32.6900   26.0600 C   0  0  0  0  0  1  0  0  0  0  0  0
  2  5  1  0
  2  4  1  0
  3  7  1  0
  3  1  1  0
  4 51  1  0
  4  1  1  0
  5  6  1  0
  5  3  1  0
  7  8  1  0
  8 10  1  0
  9  7  2  0
 11  8  1  0
 12 11  1  0
 13 19  1  0
 13 21  1  0
 14 19  1  0
 15 16  1  0
 15 14  1  0
 17 16  1  0
 17 26  1  0
 17 18  1  0
 19 18  1  0
 20 13  2  0
 21 12  1  0
 22 21  1  0
 23 24  2  0
 24 43  1  0
 25 28  1  0
 25 24  1  0
 26 27  1  0
 26 23  1  0
 27 25  2  0
 28 29  1  0
 29 30  2  0
 31 34  1  0
 31 30  1  0
 32 31  2  0
 33 32  1  0
 33 28  2  0
 34 35  1  0
 35 36  1  0
 36 37  2  0
 38 37  1  0
 38 42  1  0
 39 38  2  0
 40 35  2  0
 40 39  1  0
 41 40  1  0
 43 44  1  0
 44 46  1  0
 44 47  1  0
 45 43  2  0
 48 23  1  0
 48 49  1  0
 50 48  1  0
 52 53  1  0
 52 51  1  0
 54 55  1  0
 54 53  1  0
 55 57  1  0
 56 67  2  0
 57 62  1  0
 58 66  1  0
 58 68  1  0
 59 65  1  0
 59 61  1  0
 60 66  1  0
 61 60  1  0
 62 61  2  0
 63 64  1  0
 63 57  2  0
 64 59  2  0
 65 58  1  0
 66 56  1  0
 68 70  2  0
 69 68  1  0
 71 69  1  0
 72 81  2  0
 72 77  1  0
 73 69  1  0
 73 77  1  0
 74 73  1  0
 75 76  1  0
 75 74  1  0
 76 72  1  0
 77 78  2  0
 78 79  1  0
 80 79  2  0
 81 80  1  0
 82 56  1  0
 82 83  1  0
 82 92  1  0
 83 86  1  0
 84 88  1  0
 84 83  1  0
 85 84  2  0
 88 87  1  0
 90 88  1  0
 90 91  1  0
 90 89  1  0
 92 95  1  1
 92 93  1  0
 94 92  1  0
M  ISO  4  13 100  21 100  54 101  55 101
M  END
>  <TORSDO>  (59) 
F 23

>  <SCORE>  (59) 
-9.399

>  <name>  (59) 
58

>  <ligand_id>  (59) 
58

>  <original_smiles>  (59) 
[H]c1c([H])c([H])c2c(c1[H])C([H])([H])C([H])([H])C([H])([H])C2([H])N([H])C(=O)C1([H])N(C(=O)C([H])(N([H])C(=O)C([H])(N([H])C([H])([H])[H])C([H])([H])[H])C(C([H])([H])[H])(C([H])([H])[H])C([H])([H])[H])C([H])([H])c2c([H])c(OC([H])([H])C([H])([H])C([H])([H])C([H])([H])C3([H])C([H])([H])C([H])(C(=O)N([H])C([H])([H])C([H])([H])N([H])C(=O)N4C([H])([H])C([H])([H])C([H])([H])C([H])(n5nc(-c6c([H])c([H])c(Oc7c([H])c([H])c(F)c([H])c7F)c([H])c6[H])c(C(=O)N([H])[H])c5N([H])[H])C4([H])[H])C([H])(C([H])([H])[H])C3([H])[H])c([H])c([H])c2C1([H])[H]

>  <smiles>  (59) 
[H]c1c([H])c([H])c2c(c1[H])C([H])([H])C([H])([H])C([H])([H])C2([H])N([H])C(=O)C1([H])N(C(=O)C([H])(N([H])C(=O)C([H])(N([H])C([H])([H])[H])C([H])([H])[H])C(C([H])([H])[H])(C([H])([H])[H])C([H])([H])[H])C([H])([H])c2c([H])c(OC([H])([H])C([H])([H])C([H])([H])C([H])([H])C3([H])C([H])([H])C([H])(C(=O)N([H])C([H])([H])C([H])([H])N([H])C(=O)N4C([H])([H])C([H])([H])C([H])([H])C([H])(n5nc(-c6c([H])c([H])c(Oc7c([H])c([H])c(F)c([H])c7F)c([H])c6[H])c(C(=O)N([H])[H])c5N([H])[H])C4([H])[H])C([H])(C([H])([H])[H])C3([H])[H])c([H])c([H])c2C1([H])[H]

$$$$
59:0:0
     RDKit          3D

 93101  0  0  1  0  0  0  0  0999 V2000
  -28.9660  -20.1530   19.9700 C   0  0  0  0  0  0  0  0  0  0  0  0
  -29.7870  -19.0860   20.0180 N   0  0  0  0  0  0  0  0  0  0  0  0
  -27.7770  -20.0470   19.6660 O   0  0  0  0  0  0  0  0  0  0  0  0
  -30.7560  -19.2600   20.2540 H   0  0  0  0  0  0  0  0  0  0  0  0
  -30.6270  -14.3430   18.9230 C   0  0  0  0  0  0  0  0  0  0  0  0
  -29.9430  -12.3490   17.6310 C   0  0  0  0  0  2  0  0  0  0  0  0
  -28.7200  -12.7020   16.7550 C   0  0  0  0  0  2  0  0  0  0  0  0
  -27.4010  -12.5400   17.5410 C   0  0  0  0  0  2  0  0  0  0  0  0
  -27.4570  -13.1990   18.9450 C   0  0  0  0  0  3  0  0  0  0  0  0
  -28.7480  -12.7660   19.6680 C   0  0  0  0  0  2  0  0  0  0  0  0
  -29.8850  -13.1950   18.8390 N   0  0  0  0  0  0  0  0  0  0  0  0
  -31.5770  -14.5390   18.1550 O   0  0  0  0  0  0  0  0  0  0  0  0
  -29.4260  -16.9940   21.2940 C   0  0  0  0  0  2  0  0  0  0  0  0
  -30.2660  -16.7820   19.0820 C   0  0  0  0  0  2  0  0  0  0  0  0
  -29.3600  -17.6810   19.9360 C   0  0  0  0  0  3  0  0  0  0  0  0
  -29.5680  -15.4970   20.9730 C   0  0  0  0  0  3  0  0  0  0  0  0
  -30.1030  -15.4110   19.5990 N   0  0  0  0  0  0  0  0  0  0  0  0
  -25.3540  -13.7630   20.3190 C   0  0  0  0  0  0  0  0  0  0  0  0
  -24.3880  -12.9690   20.8770 C   0  0  0  0  0  0  0  0  0  0  0  0
  -24.7680  -11.6230   20.5880 C   0  0  0  0  0  0  0  0  0  0  0  0
  -26.2650  -12.8970   19.7330 N   0  0  0  0  0  0  0  0  0  0  0  0
  -25.9270  -11.5990   19.9440 N   0  0  0  0  0  0  0  0  0  0  0  0
  -24.0650  -10.3580   20.8360 C   0  0  0  0  0  0  0  0  0  0  0  0
  -24.5550   -9.4110   21.7620 C   0  0  0  0  0  3  0  0  0  0  0  0
  -23.8520   -8.2100   21.9970 C   0  0  0  0  0  3  0  0  0  0  0  0
  -22.6470   -7.9460   21.3040 C   0  0  0  0  0  0  0  0  0  0  0  0
  -22.1760   -8.8820   20.3670 C   0  0  0  0  0  3  0  0  0  0  0  0
  -22.8790  -10.0760   20.1300 C   0  0  0  0  0  3  0  0  0  0  0  0
  -21.9110   -6.7950   21.4490 O   0  0  0  0  0  0  0  0  0  0  0  0
  -21.7500   -6.1920   22.6700 C   0  0  0  0  0  0  0  0  0  0  0  0
  -21.1910   -6.8760   23.7710 C   0  0  0  0  0  3  0  0  0  0  0  0
  -20.9790   -6.1980   24.9890 C   0  0  0  0  0  3  0  0  0  0  0  0
  -21.3170   -4.8370   25.1040 C   0  0  0  0  0  0  0  0  0  0  0  0
  -21.8680   -4.1520   24.0080 C   0  0  0  0  0  3  0  0  0  0  0  0
  -22.0820   -4.8270   22.7920 C   0  0  0  0  0  0  0  0  0  0  0  0
  -22.5940   -4.1580   21.7330 F   0  0  0  0  0  0  0  0  0  0  0  0
  -21.1080   -4.1820   26.2700 F   0  0  0  0  0  0  0  0  0  0  0  0
  -23.1350  -13.4310   21.5610 C   0  0  0  0  0  0  0  0  0  0  0  0
  -22.6690  -12.6880   22.5600 N   0  0  0  0  0  0  0  0  0  0  0  0
  -22.5830  -14.4840   21.2420 O   0  0  0  0  0  0  0  0  0  0  0  0
  -23.1330  -11.8350   22.8370 H   0  0  0  0  0  0  0  0  0  0  0  0
  -21.8390  -12.9780   23.0550 H   0  0  0  0  0  0  0  0  0  0  0  0
  -25.5230  -15.1420   20.2440 N   0  0  0  0  0  0  0  0  0  0  0  0
  -24.8310  -15.7880   20.6080 H   0  0  0  0  0  0  0  0  0  0  0  0
  -26.2780  -15.6050   19.7570 H   0  0  0  0  0  0  0  0  0  0  0  0
  -29.6040  -14.3660   23.2680 C   0  0  0  0  0  1  0  0  0  0  0  0
  -30.4210  -14.7520   22.0290 C   0  0  0  0  0  2  0  0  0  0  0  0
  -29.5400  -21.5250   20.3820 C   0  0  0  0  0  2  0  0  0  0  0  0
  -29.0490  -22.7440   19.5420 C   0  0  0  0  0  2  0  0  0  0  0  0
  -27.8970  -24.1640   21.3180 C   0  0  0  0  0  1  0  0  0  0  0  0
  -29.0450  -24.1080   20.2930 C   0  0  0  0  0  3  0  0  0  0  0  0
  -28.9970  -25.3160   19.3110 C   0  0  0  0  0  2  0  0  0  0  0  0
  -28.8070  -26.5910   19.9570 O   0  0  0  0  0  0  0  0  0  0  0  0
  -24.7850  -31.6550   22.9530 C   0  0  0  0  0  0  0  0  0  0  0  0
  -27.5870  -27.2470   19.9290 C   0  0  0  0  0  0  0  0  0  0  0  0
  -23.6370  -30.2070   21.3100 C   0  0  0  0  0  3  0  0  0  0  0  0
  -25.1460  -28.6980   19.9160 C   0  0  0  0  0  0  0  0  0  0  0  0
  -26.1560  -30.6270   21.1390 C   0  0  0  0  0  2  0  0  0  0  0  0
  -26.2830  -29.2530   20.5100 C   0  0  0  0  0  0  0  0  0  0  0  0
  -27.5040  -28.5360   20.5140 C   0  0  0  0  0  3  0  0  0  0  0  0
  -26.4160  -26.7030   19.3490 C   0  0  0  0  0  3  0  0  0  0  0  0
  -25.2070  -27.4200   19.3370 C   0  0  0  0  0  3  0  0  0  0  0  0
  -23.8810  -29.5270   19.9380 C   0  0  0  0  0  2  0  0  0  0  0  0
  -24.8770  -30.8460   21.8590 N   0  0  0  0  0  0  0  0  0  0  0  0
  -23.6910  -31.9010   23.4780 O   0  0  0  0  0  0  0  0  0  0  0  0
  -23.0020  -29.1740   22.2710 C   0  0  0  0  0  0  0  0  0  0  0  0
  -21.6800  -28.9750   22.1450 N   0  0  0  0  0  0  0  0  0  0  0  0
  -23.6970  -28.5550   23.0810 O   0  0  0  0  0  0  0  0  0  0  0  0
  -21.1820  -29.5250   21.4600 H   0  0  0  0  0  0  0  0  0  0  0  0
  -18.3140  -27.7830   22.7000 C   0  0  0  0  0  0  0  0  0  0  0  0
  -20.8780  -28.0260   22.9180 C   0  0  0  0  0  3  0  0  0  0  0  0
  -20.9620  -26.6060   22.3120 C   0  0  0  0  0  2  0  0  0  0  0  0
  -19.8350  -26.3080   21.3180 C   0  0  0  0  0  2  0  0  0  0  0  0
  -18.4690  -26.4460   21.9960 C   0  0  0  0  0  2  0  0  0  0  0  0
  -19.4460  -28.5320   23.1190 C   0  0  0  0  0  0  0  0  0  0  0  0
  -19.2460  -29.7860   23.7370 C   0  0  0  0  0  3  0  0  0  0  0  0
  -17.9480  -30.2920   23.9390 C   0  0  0  0  0  3  0  0  0  0  0  0
  -16.8310  -29.5390   23.5360 C   0  0  0  0  0  3  0  0  0  0  0  0
  -17.0160  -28.2870   22.9240 C   0  0  0  0  0  3  0  0  0  0  0  0
  -26.0460  -32.3250   23.5810 C   0  0  0  0  0  3  0  0  0  0  0  0
  -25.6730  -33.6910   23.9700 N   0  0  0  0  0  0  0  0  0  0  0  0
  -25.9360  -34.7860   23.2440 C   0  0  0  0  0  0  0  0  0  0  0  0
  -26.5920  -34.7560   22.1980 O   0  0  0  0  0  0  0  0  0  0  0  0
  -25.0890  -33.7840   24.7870 H   0  0  0  0  0  0  0  0  0  0  0  0
  -24.1170  -36.5000   22.9730 C   0  0  0  0  0  1  0  0  0  0  0  0
  -25.3850  -36.1280   23.7590 C   0  0  0  0  0  3  0  0  0  0  0  0
  -27.4820  -37.0860   24.6050 C   0  0  0  0  0  1  0  0  0  0  0  0
  -26.3630  -37.2360   23.6780 N   0  0  0  0  0  0  0  0  0  0  0  0
  -25.9140  -38.1280   23.8650 H   0  0  0  0  0  0  0  0  0  0  0  0
  -26.6200  -31.5290   24.8180 C   0  0  1  0  0  0  0  0  0  0  0  0
  -25.5520  -31.1680   25.8770 C   0  0  0  0  0  1  0  0  0  0  0  0
  -27.2910  -30.2140   24.3570 C   0  0  0  0  0  1  0  0  0  0  0  0
  -27.7190  -32.3670   25.5160 C   0  0  0  0  0  1  0  0  0  0  0  0
  1  2  1  0
  1 48  1  0
  2  4  1  0
  3  1  2  0
  5 17  1  0
  6 11  1  0
  7  8  1  0
  7  6  1  0
  9  8  1  0
  9 10  1  0
  9 21  1  0
 11  5  1  0
 11 10  1  0
 12  5  2  0
 14 17  1  0
 14 15  1  0
 15  2  1  0
 15 13  1  0
 16 13  1  0
 16 47  1  0
 17 16  1  0
 18 19  2  0
 19 38  1  0
 20 23  1  0
 20 19  1  0
 21 22  1  0
 21 18  1  0
 22 20  2  0
 23 24  1  0
 24 25  2  0
 26 29  1  0
 26 25  1  0
 27 26  2  0
 28 27  1  0
 28 23  2  0
 29 30  1  0
 30 35  2  0
 30 31  1  0
 31 32  2  0
 32 33  1  0
 33 37  1  0
 34 33  2  0
 35 34  1  0
 36 35  1  0
 38 39  1  0
 39 41  1  0
 39 42  1  0
 40 38  2  0
 43 18  1  0
 43 44  1  0
 45 43  1  0
 47 46  1  0
 49 51  1  0
 49 48  1  0
 51 50  1  0
 52 53  1  0
 52 51  1  0
 54 65  2  0
 55 53  1  0
 55 60  1  0
 56 64  1  0
 56 66  1  0
 57 63  1  0
 57 59  1  0
 58 64  1  0
 59 60  2  0
 59 58  1  0
 61 55  2  0
 62 61  1  0
 62 57  2  0
 63 56  1  0
 64 54  1  0
 66 68  2  0
 67 66  1  0
 69 67  1  0
 70 79  2  0
 70 75  1  0
 71 67  1  0
 71 75  1  0
 72 71  1  0
 73 74  1  0
 73 72  1  0
 74 70  1  0
 75 76  2  0
 76 77  1  0
 78 77  2  0
 79 78  1  0
 80 54  1  0
 80 81  1  0
 80 90  1  0
 81 84  1  0
 82 86  1  0
 82 81  1  0
 83 82  2  0
 86 85  1  0
 88 86  1  0
 88 89  1  0
 88 87  1  0
 90 93  1  1
 90 91  1  0
 92 90  1  0
M  ISO  4   5 100  17 100  52 101  53 101
M  END
>  <TORSDO>  (60) 
F 21

>  <SCORE>  (60) 
-4.279

>  <name>  (60) 
59

>  <ligand_id>  (60) 
59

>  <original_smiles>  (60) 
[H]c1c([H])c([H])c2c(c1[H])C([H])([H])C([H])([H])C([H])([H])C2([H])N([H])C(=O)C1([H])N(C(=O)C([H])(N([H])C(=O)C([H])(N([H])C([H])([H])[H])C([H])([H])[H])C(C([H])([H])[H])(C([H])([H])[H])C([H])([H])[H])C([H])([H])c2c([H])c(OC([H])([H])C([H])(C([H])([H])[H])C([H])([H])C([H])([H])C(=O)N([H])C3([H])C([H])([H])N(C(=O)N4C([H])([H])C([H])([H])C([H])([H])C([H])(n5nc(-c6c([H])c([H])c(Oc7c([H])c([H])c(F)c([H])c7F)c([H])c6[H])c(C(=O)N([H])[H])c5N([H])[H])C4([H])[H])C([H])(C([H])([H])C([H])([H])[H])C3([H])[H])c([H])c([H])c2C1([H])[H]

>  <smiles>  (60) 
[H]c1c([H])c([H])c2c(c1[H])C([H])([H])C([H])([H])C([H])([H])C2([H])N([H])C(=O)C1([H])N(C(=O)C([H])(N([H])C(=O)C([H])(N([H])C([H])([H])[H])C([H])([H])[H])C(C([H])([H])[H])(C([H])([H])[H])C([H])([H])[H])C([H])([H])c2c([H])c(OC([H])([H])C([H])(C([H])([H])[H])C([H])([H])C([H])([H])C(=O)N([H])C3([H])C([H])([H])N(C(=O)N4C([H])([H])C([H])([H])C([H])([H])C([H])(n5nc(-c6c([H])c([H])c(Oc7c([H])c([H])c(F)c([H])c7F)c([H])c6[H])c(C(=O)N([H])[H])c5N([H])[H])C4([H])[H])C([H])(C([H])([H])C([H])([H])[H])C3([H])[H])c([H])c([H])c2C1([H])[H]

$$$$
60:0:0
     RDKit          3D

 92 99  0  0  1  0  0  0  0  0999 V2000
  -27.3250  -22.0200   19.5590 C   0  0  0  0  0  2  0  0  0  0  0  0
  -27.2700  -23.3050   20.3740 C   0  0  0  0  0  0  0  0  0  0  0  0
  -26.4140  -23.4600   21.2490 O   0  0  0  0  0  0  0  0  0  0  0  0
  -28.3100  -24.3700   20.0240 C   0  0  0  0  0  2  0  0  0  0  0  0
  -28.3870  -25.5600   20.9980 C   0  0  0  0  0  2  0  0  0  0  0  0
  -28.4240  -26.7930   20.2860 O   0  0  0  0  0  0  0  0  0  0  0  0
  -24.5310  -31.9130   23.2640 C   0  0  0  0  0  0  0  0  0  0  0  0
  -27.2370  -27.4800   20.2700 C   0  0  0  0  0  0  0  0  0  0  0  0
  -23.3470  -30.4920   21.6160 C   0  0  0  0  0  3  0  0  0  0  0  0
  -24.8250  -28.9410   20.2340 C   0  0  0  0  0  0  0  0  0  0  0  0
  -25.8680  -30.8680   21.4410 C   0  0  0  0  0  2  0  0  0  0  0  0
  -25.9700  -29.4900   20.8260 C   0  0  0  0  0  0  0  0  0  0  0  0
  -27.1800  -28.7670   20.8390 C   0  0  0  0  0  3  0  0  0  0  0  0
  -26.0770  -26.9270   19.6830 C   0  0  0  0  0  3  0  0  0  0  0  0
  -24.8730  -27.6560   19.6600 C   0  0  0  0  0  3  0  0  0  0  0  0
  -23.5770  -29.7920   20.2480 C   0  0  0  0  0  2  0  0  0  0  0  0
  -24.5980  -31.1060   22.1670 N   0  0  0  0  0  0  0  0  0  0  0  0
  -23.4430  -32.1890   23.7870 O   0  0  0  0  0  0  0  0  0  0  0  0
  -22.6850  -29.4820   22.5790 C   0  0  0  0  0  0  0  0  0  0  0  0
  -21.3610  -29.3100   22.4430 N   0  0  0  0  0  0  0  0  0  0  0  0
  -23.3600  -28.8540   23.3990 O   0  0  0  0  0  0  0  0  0  0  0  0
  -20.8820  -29.8690   21.7510 H   0  0  0  0  0  0  0  0  0  0  0  0
  -17.9690  -28.1750   22.9410 C   0  0  0  0  0  0  0  0  0  0  0  0
  -20.5310  -28.3840   23.2110 C   0  0  0  0  0  3  0  0  0  0  0  0
  -20.6060  -26.9550   22.6260 C   0  0  0  0  0  2  0  0  0  0  0  0
  -19.4960  -26.6580   21.6130 C   0  0  0  0  0  2  0  0  0  0  0  0
  -18.1190  -26.8250   22.2610 C   0  0  0  0  0  2  0  0  0  0  0  0
  -19.1010  -28.9140   23.3730 C   0  0  0  0  0  0  0  0  0  0  0  0
  -18.9080  -30.1800   23.9690 C   0  0  0  0  0  3  0  0  0  0  0  0
  -17.6130  -30.7040   24.1380 C   0  0  0  0  0  3  0  0  0  0  0  0
  -16.4950  -29.9630   23.7230 C   0  0  0  0  0  3  0  0  0  0  0  0
  -16.6730  -28.7000   23.1310 C   0  0  0  0  0  3  0  0  0  0  0  0
  -25.8100  -32.5470   23.8950 C   0  0  0  0  0  3  0  0  0  0  0  0
  -26.3070  -31.7890   25.1870 C   0  0  1  0  0  0  0  0  0  0  0  0
  -25.1980  -31.5680   26.2420 C   0  0  0  0  0  1  0  0  0  0  0  0
  -26.8910  -30.4080   24.8150 C   0  0  0  0  0  1  0  0  0  0  0  0
  -27.4500  -32.5890   25.8570 C   0  0  0  0  0  1  0  0  0  0  0  0
  -25.5040  -33.9510   24.2010 N   0  0  0  0  0  0  0  0  0  0  0  0
  -25.8510  -34.9890   23.4270 C   0  0  0  0  0  0  0  0  0  0  0  0
  -26.5350  -34.8670   22.4080 O   0  0  0  0  0  0  0  0  0  0  0  0
  -24.8990  -34.1190   24.9910 H   0  0  0  0  0  0  0  0  0  0  0  0
  -24.1310  -36.7760   23.0130 C   0  0  0  0  0  1  0  0  0  0  0  0
  -25.3580  -36.3850   23.8520 C   0  0  0  0  0  3  0  0  0  0  0  0
  -27.4810  -37.2800   24.7020 C   0  0  0  0  0  1  0  0  0  0  0  0
  -26.3950  -37.4340   23.7370 N   0  0  0  0  0  0  0  0  0  0  0  0
  -25.9880  -38.3570   23.8640 H   0  0  0  0  0  0  0  0  0  0  0  0
  -26.1700  -21.9030   18.5520 C   0  0  0  0  0  2  0  0  0  0  0  0
  -26.3530  -20.7670   17.5250 C   0  0  0  0  0  2  0  0  0  0  0  0
  -26.5170  -19.3680   18.1510 C   0  0  0  0  0  2  0  0  0  0  0  0
  -27.9790  -18.9250   18.3720 C   0  0  0  0  0  2  0  0  0  0  0  0
  -28.0570  -17.6490   19.2260 C   0  0  0  0  0  2  0  0  0  0  0  0
  -29.4660  -17.3350   19.7720 C   0  0  0  0  0  2  0  0  0  0  0  0
  -31.0460  -14.4510   20.1420 C   0  0  0  0  0  0  0  0  0  0  0  0
  -30.6360  -12.3270   18.9480 C   0  0  0  0  0  2  0  0  0  0  0  0
  -29.6590  -12.5330   17.7750 C   0  0  0  0  0  2  0  0  0  0  0  0
  -28.1990  -12.4090   18.2510 C   0  0  0  0  0  2  0  0  0  0  0  0
  -27.9130  -13.2460   19.5260 C   0  0  0  0  0  3  0  0  0  0  0  0
  -29.0020  -12.9860   20.5940 C   0  0  0  0  0  2  0  0  0  0  0  0
  -30.3000  -13.3160   19.9870 N   0  0  0  0  0  0  0  0  0  0  0  0
  -32.1260  -14.6000   19.5720 O   0  0  0  0  0  0  0  0  0  0  0  0
  -29.4630  -16.1400   20.7380 C   0  0  0  0  0  0  0  0  0  0  0  0
  -30.6120  -15.4720   20.9010 N   0  0  0  0  0  0  0  0  0  0  0  0
  -28.4370  -15.8720   21.3670 O   0  0  0  0  0  0  0  0  0  0  0  0
  -31.3810  -16.1240   20.9050 H   0  0  0  0  0  0  0  0  0  0  0  0
  -25.5450  -13.9040   20.2940 C   0  0  0  0  0  0  0  0  0  0  0  0
  -24.4720  -13.1520   20.6850 C   0  0  0  0  0  0  0  0  0  0  0  0
  -24.9100  -11.7930   20.6470 C   0  0  0  0  0  0  0  0  0  0  0  0
  -26.5700  -13.0040   20.0440 N   0  0  0  0  0  0  0  0  0  0  0  0
  -26.1900  -11.7290   20.3090 N   0  0  0  0  0  0  0  0  0  0  0  0
  -24.1710  -10.5460   20.8640 C   0  0  0  0  0  0  0  0  0  0  0  0
  -24.5820   -9.6050   21.8330 C   0  0  0  0  0  3  0  0  0  0  0  0
  -23.8440   -8.4190   22.0360 C   0  0  0  0  0  3  0  0  0  0  0  0
  -22.6810   -8.1680   21.2690 C   0  0  0  0  0  0  0  0  0  0  0  0
  -22.2890   -9.0980   20.2900 C   0  0  0  0  0  3  0  0  0  0  0  0
  -23.0280  -10.2750   20.0850 C   0  0  0  0  0  3  0  0  0  0  0  0
  -21.9180   -7.0310   21.3770 O   0  0  0  0  0  0  0  0  0  0  0  0
  -21.8000   -6.3530   22.5630 C   0  0  0  0  0  0  0  0  0  0  0  0
  -21.3130   -6.9750   23.7320 C   0  0  0  0  0  3  0  0  0  0  0  0
  -21.1390   -6.2220   24.9110 C   0  0  0  0  0  3  0  0  0  0  0  0
  -21.4460   -4.8480   24.9210 C   0  0  0  0  0  0  0  0  0  0  0  0
  -21.9290   -4.2260   23.7560 C   0  0  0  0  0  3  0  0  0  0  0  0
  -22.1010   -4.9760   22.5790 C   0  0  0  0  0  0  0  0  0  0  0  0
  -22.5460   -4.3670   21.4540 F   0  0  0  0  0  0  0  0  0  0  0  0
  -21.2740   -4.1230   26.0510 F   0  0  0  0  0  0  0  0  0  0  0  0
  -23.0920  -13.6560   21.0000 C   0  0  0  0  0  0  0  0  0  0  0  0
  -22.3820  -12.9740   21.8920 N   0  0  0  0  0  0  0  0  0  0  0  0
  -22.6560  -14.6870   20.4920 O   0  0  0  0  0  0  0  0  0  0  0  0
  -22.7520  -12.1430   22.3260 H   0  0  0  0  0  0  0  0  0  0  0  0
  -21.4560  -13.2900   22.1470 H   0  0  0  0  0  0  0  0  0  0  0  0
  -25.7320  -15.2710   20.1260 N   0  0  0  0  0  0  0  0  0  0  0  0
  -25.0030  -15.9130   20.4140 H   0  0  0  0  0  0  0  0  0  0  0  0
  -26.6660  -15.6430   20.2840 H   0  0  0  0  0  0  0  0  0  0  0  0
  1  2  1  0
  2  3  2  0
  4  2  1  0
  4  5  1  0
  6  5  1  0
  7 18  2  0
  8  6  1  0
  8 13  1  0
  9 17  1  0
  9 19  1  0
 10 16  1  0
 10 12  1  0
 11 17  1  0
 12 13  2  0
 12 11  1  0
 14  8  2  0
 15 14  1  0
 15 10  2  0
 16  9  1  0
 17  7  1  0
 19 21  2  0
 20 19  1  0
 22 20  1  0
 23 32  2  0
 23 28  1  0
 24 20  1  0
 24 28  1  0
 25 24  1  0
 26 27  1  0
 26 25  1  0
 27 23  1  0
 28 29  2  0
 29 30  1  0
 31 30  2  0
 32 31  1  0
 33  7  1  0
 33 38  1  0
 33 34  1  0
 34 37  1  1
 34 35  1  0
 36 34  1  0
 38 41  1  0
 39 43  1  0
 39 38  1  0
 40 39  2  0
 43 42  1  0
 45 43  1  0
 45 46  1  0
 45 44  1  0
 47  1  1  0
 48 49  1  0
 48 47  1  0
 49 50  1  0
 50 51  1  0
 51 52  1  0
 52 61  1  0
 53 62  1  0
 54 59  1  0
 55 56  1  0
 55 54  1  0
 57 56  1  0
 57 68  1  0
 57 58  1  0
 59 53  1  0
 59 58  1  0
 60 53  2  0
 61 62  1  0
 61 63  2  0
 62 64  1  0
 65 66  2  0
 66 85  1  0
 67 66  1  0
 67 70  1  0
 68 65  1  0
 68 69  1  0
 69 67  2  0
 70 71  1  0
 71 72  2  0
 73 76  1  0
 73 72  1  0
 74 73  2  0
 75 74  1  0
 75 70  2  0
 76 77  1  0
 77 82  2  0
 77 78  1  0
 78 79  2  0
 79 80  1  0
 80 84  1  0
 81 80  2  0
 82 81  1  0
 83 82  1  0
 85 86  1  0
 86 89  1  0
 86 88  1  0
 87 85  2  0
 90 92  1  0
 90 65  1  0
 90 91  1  0
M  ISO  4   5 101   6 101  53 100  62 100
M  END
>  <TORSDO>  (61) 
F 25

>  <SCORE>  (61) 
-11.989

>  <name>  (61) 
60

>  <ligand_id>  (61) 
60

>  <original_smiles>  (61) 
[H]c1c([H])c([H])c2c(c1[H])C([H])([H])C([H])([H])C([H])([H])C2([H])N([H])C(=O)C1([H])N(C(=O)C([H])(N([H])C(=O)C([H])(N([H])C([H])([H])[H])C([H])([H])[H])C(C([H])([H])[H])(C([H])([H])[H])C([H])([H])[H])C([H])([H])c2c([H])c(OC([H])([H])C([H])([H])C(=O)C([H])([H])C([H])([H])C([H])([H])C([H])([H])C([H])([H])C([H])([H])C([H])([H])C(=O)N([H])C(=O)N3C([H])([H])C([H])([H])C([H])([H])C([H])(n4nc(-c5c([H])c([H])c(Oc6c([H])c([H])c(F)c([H])c6F)c([H])c5[H])c(C(=O)N([H])[H])c4N([H])[H])C3([H])[H])c([H])c([H])c2C1([H])[H]

>  <smiles>  (61) 
[H]c1c([H])c([H])c2c(c1[H])C([H])([H])C([H])([H])C([H])([H])C2([H])N([H])C(=O)C1([H])N(C(=O)C([H])(N([H])C(=O)C([H])(N([H])C([H])([H])[H])C([H])([H])[H])C(C([H])([H])[H])(C([H])([H])[H])C([H])([H])[H])C([H])([H])c2c([H])c(OC([H])([H])C([H])([H])C(=O)C([H])([H])C([H])([H])C([H])([H])C([H])([H])C([H])([H])C([H])([H])C([H])([H])C(=O)N([H])C(=O)N3C([H])([H])C([H])([H])C([H])([H])C([H])(n4nc(-c5c([H])c([H])c(Oc6c([H])c([H])c(F)c([H])c6F)c([H])c5[H])c(C(=O)N([H])[H])c4N([H])[H])C3([H])[H])c([H])c([H])c2C1([H])[H]

$$$$
61:0:0
     RDKit          3D

 91 99  0  0  1  0  0  0  0  0999 V2000
  -28.5680  -20.5950   20.6710 C   0  0  0  0  0  2  0  0  0  0  0  0
  -28.4570  -19.1860   20.0370 C   0  0  0  0  0  0  0  0  0  0  0  0
  -27.6510  -18.9500   19.1330 O   0  0  0  0  0  0  0  0  0  0  0  0
  -30.5380  -14.6600   19.5840 C   0  0  0  0  0  0  0  0  0  0  0  0
  -30.0680  -12.5410   18.4210 C   0  0  0  0  0  2  0  0  0  0  0  0
  -28.9480  -12.7290   17.3820 C   0  0  0  0  0  2  0  0  0  0  0  0
  -27.5720  -12.5230   18.0410 C   0  0  0  0  0  2  0  0  0  0  0  0
  -27.4000  -13.3350   19.3470 C   0  0  0  0  0  3  0  0  0  0  0  0
  -28.6210  -13.1570   20.2770 C   0  0  0  0  0  2  0  0  0  0  0  0
  -29.8350  -13.4980   19.5160 N   0  0  0  0  0  0  0  0  0  0  0  0
  -31.5270  -14.8780   18.8760 O   0  0  0  0  0  0  0  0  0  0  0  0
  -30.8790  -18.4830   20.5660 C   0  0  0  0  0  2  0  0  0  0  0  0
  -29.1970  -16.6650   19.9350 C   0  0  0  0  0  2  0  0  0  0  0  0
  -31.0830  -16.0860   21.4510 C   0  0  0  0  0  2  0  0  0  0  0  0
  -29.3880  -18.0690   20.5960 C   0  0  0  0  0  3  0  0  0  0  0  0
  -31.8430  -17.3350   20.9450 C   0  0  0  0  0  3  0  0  0  0  0  0
  -32.9410  -17.7840   21.9240 C   0  0  0  0  0  1  0  0  0  0  0  0
  -30.1100  -15.6060   20.4510 N   0  0  0  0  0  0  0  0  0  0  0  0
  -25.1530  -13.8390   20.4930 C   0  0  0  0  0  0  0  0  0  0  0  0
  -24.1710  -13.0150   20.9760 C   0  0  0  0  0  0  0  0  0  0  0  0
  -24.6360  -11.6790   20.7700 C   0  0  0  0  0  0  0  0  0  0  0  0
  -26.1520  -13.0000   20.0280 N   0  0  0  0  0  0  0  0  0  0  0  0
  -25.8570  -11.6950   20.2500 N   0  0  0  0  0  0  0  0  0  0  0  0
  -23.9670  -10.3870   20.9760 C   0  0  0  0  0  0  0  0  0  0  0  0
  -24.4480   -9.4450   21.9130 C   0  0  0  0  0  3  0  0  0  0  0  0
  -23.7750   -8.2210   22.1080 C   0  0  0  0  0  3  0  0  0  0  0  0
  -22.6080   -7.9280   21.3630 C   0  0  0  0  0  0  0  0  0  0  0  0
  -22.1480   -8.8550   20.4110 C   0  0  0  0  0  3  0  0  0  0  0  0
  -22.8250  -10.0710   20.2140 C   0  0  0  0  0  3  0  0  0  0  0  0
  -21.9050   -6.7510   21.4660 O   0  0  0  0  0  0  0  0  0  0  0  0
  -21.7700   -6.0950   22.6630 C   0  0  0  0  0  0  0  0  0  0  0  0
  -21.1480   -6.7000   23.7770 C   0  0  0  0  0  3  0  0  0  0  0  0
  -20.9700   -5.9680   24.9680 C   0  0  0  0  0  3  0  0  0  0  0  0
  -21.4030   -4.6300   25.0430 C   0  0  0  0  0  0  0  0  0  0  0  0
  -22.0180   -4.0250   23.9340 C   0  0  0  0  0  3  0  0  0  0  0  0
  -22.1990   -4.7550   22.7450 C   0  0  0  0  0  0  0  0  0  0  0  0
  -22.7720   -4.1620   21.6720 F   0  0  0  0  0  0  0  0  0  0  0  0
  -21.2240   -3.9220   26.1830 F   0  0  0  0  0  0  0  0  0  0  0  0
  -22.8320  -13.4320   21.5130 C   0  0  0  0  0  0  0  0  0  0  0  0
  -22.2820  -12.6590   22.4410 N   0  0  0  0  0  0  0  0  0  0  0  0
  -22.2890  -14.4730   21.1430 O   0  0  0  0  0  0  0  0  0  0  0  0
  -22.7360  -11.8120   22.7490 H   0  0  0  0  0  0  0  0  0  0  0  0
  -21.3930  -12.9130   22.8470 H   0  0  0  0  0  0  0  0  0  0  0  0
  -25.2760  -15.2220   20.3950 N   0  0  0  0  0  0  0  0  0  0  0  0
  -24.5360  -15.8600   20.6710 H   0  0  0  0  0  0  0  0  0  0  0  0
  -26.0610  -15.6900   19.9650 H   0  0  0  0  0  0  0  0  0  0  0  0
  -27.6780  -21.7540   20.1060 C   0  0  0  0  0  2  0  0  0  0  0  0
  -28.4760  -23.0170   19.6630 C   0  0  0  0  0  2  0  0  0  0  0  0
  -27.7460  -24.3820   19.8130 C   0  0  0  0  0  2  0  0  0  0  0  0
  -28.4290  -25.5380   19.0240 C   0  0  0  0  0  2  0  0  0  0  0  0
  -28.2990  -26.8680   19.5550 O   0  0  0  0  0  0  0  0  0  0  0  0
  -24.5490  -31.7230   23.1210 C   0  0  0  0  0  0  0  0  0  0  0  0
  -27.0960  -27.5460   19.6070 C   0  0  0  0  0  0  0  0  0  0  0  0
  -23.2810  -30.4400   21.4270 C   0  0  0  0  0  3  0  0  0  0  0  0
  -24.6850  -29.0210   19.8310 C   0  0  0  0  0  0  0  0  0  0  0  0
  -25.7920  -30.8340   21.1530 C   0  0  0  0  0  2  0  0  0  0  0  0
  -25.8600  -29.5130   20.4140 C   0  0  0  0  0  0  0  0  0  0  0  0
  -27.0600  -28.7770   20.3070 C   0  0  0  0  0  3  0  0  0  0  0  0
  -25.9060  -27.0780   19.0080 C   0  0  0  0  0  3  0  0  0  0  0  0
  -24.7050  -27.8020   19.1270 C   0  0  0  0  0  3  0  0  0  0  0  0
  -23.4360  -29.8560   19.9950 C   0  0  0  0  0  2  0  0  0  0  0  0
  -24.5610  -31.0110   21.9600 N   0  0  0  0  0  0  0  0  0  0  0  0
  -23.4910  -31.9440   23.7250 O   0  0  0  0  0  0  0  0  0  0  0  0
  -22.6750  -29.3450   22.3360 C   0  0  0  0  0  0  0  0  0  0  0  0
  -21.3570  -29.1210   22.2110 N   0  0  0  0  0  0  0  0  0  0  0  0
  -23.3910  -28.7010   23.1090 O   0  0  0  0  0  0  0  0  0  0  0  0
  -20.8390  -29.6990   21.5640 H   0  0  0  0  0  0  0  0  0  0  0  0
  -18.0390  -27.7630   22.6540 C   0  0  0  0  0  0  0  0  0  0  0  0
  -20.5850  -28.1070   22.9300 C   0  0  0  0  0  3  0  0  0  0  0  0
  -20.7430  -26.7160   22.2750 C   0  0  0  0  0  2  0  0  0  0  0  0
  -19.6490  -26.4060   21.2490 C   0  0  0  0  0  2  0  0  0  0  0  0
  -18.2650  -26.4600   21.9040 C   0  0  0  0  0  2  0  0  0  0  0  0
  -19.1290  -28.5440   23.1220 C   0  0  0  0  0  0  0  0  0  0  0  0
  -18.8650  -29.7650   23.7800 C   0  0  0  0  0  3  0  0  0  0  0  0
  -17.5440  -30.2060   23.9740 C   0  0  0  0  0  3  0  0  0  0  0  0
  -16.4670  -29.4200   23.5240 C   0  0  0  0  0  3  0  0  0  0  0  0
  -16.7180  -28.2000   22.8720 C   0  0  0  0  0  3  0  0  0  0  0  0
  -25.8560  -32.3160   23.7350 C   0  0  0  0  0  3  0  0  0  0  0  0
  -25.5740  -33.7010   24.1330 N   0  0  0  0  0  0  0  0  0  0  0  0
  -25.8770  -34.7810   23.4000 C   0  0  0  0  0  0  0  0  0  0  0  0
  -26.4980  -34.7140   22.3340 O   0  0  0  0  0  0  0  0  0  0  0  0
  -25.0110  -33.8290   24.9620 H   0  0  0  0  0  0  0  0  0  0  0  0
  -24.1270  -36.5750   23.2180 C   0  0  0  0  0  1  0  0  0  0  0  0
  -25.4210  -36.1520   23.9320 C   0  0  0  0  0  3  0  0  0  0  0  0
  -27.6010  -37.0230   24.6470 C   0  0  0  0  0  1  0  0  0  0  0  0
  -26.4430  -37.2110   23.7770 N   0  0  0  0  0  0  0  0  0  0  0  0
  -26.0470  -38.1270   23.9710 H   0  0  0  0  0  0  0  0  0  0  0  0
  -26.4050  -31.4850   24.9600 C   0  0  1  0  0  0  0  0  0  0  0  0
  -25.3300  -31.1710   26.0280 C   0  0  0  0  0  1  0  0  0  0  0  0
  -27.0050  -30.1410   24.4840 C   0  0  0  0  0  1  0  0  0  0  0  0
  -27.5490  -32.2570   25.6560 C   0  0  0  0  0  1  0  0  0  0  0  0
  2  1  1  0
  3  2  2  0
  4 18  1  0
  5 10  1  0
  6  7  1  0
  6  5  1  0
  8  7  1  0
  8 22  1  0
  8  9  1  0
 10  4  1  0
 10  9  1  0
 11  4  2  0
 12 15  1  0
 12 16  1  0
 13 18  1  0
 13 15  1  0
 15  2  1  0
 16 14  1  0
 16 17  1  0
 18 14  1  0
 19 20  2  0
 20 39  1  0
 21 20  1  0
 21 24  1  0
 22 23  1  0
 22 19  1  0
 23 21  2  0
 24 25  1  0
 25 26  2  0
 27 30  1  0
 27 26  1  0
 28 27  2  0
 29 28  1  0
 29 24  2  0
 30 31  1  0
 31 36  2  0
 31 32  1  0
 32 33  2  0
 33 34  1  0
 34 38  1  0
 35 34  2  0
 36 35  1  0
 37 36  1  0
 39 40  1  0
 40 42  1  0
 40 43  1  0
 41 39  2  0
 44 19  1  0
 44 45  1  0
 46 44  1  0
 47  1  1  0
 48 49  1  0
 48 47  1  0
 50 51  1  0
 50 49  1  0
 51 53  1  0
 52 63  2  0
 53 58  1  0
 54 62  1  0
 54 64  1  0
 55 61  1  0
 55 57  1  0
 56 62  1  0
 57 56  1  0
 58 57  2  0
 59 60  1  0
 59 53  2  0
 60 55  2  0
 61 54  1  0
 62 52  1  0
 64 66  2  0
 65 64  1  0
 67 65  1  0
 68 77  2  0
 68 73  1  0
 69 65  1  0
 69 73  1  0
 70 69  1  0
 71 72  1  0
 71 70  1  0
 72 68  1  0
 73 74  2  0
 74 75  1  0
 76 75  2  0
 77 76  1  0
 78 52  1  0
 78 79  1  0
 78 88  1  0
 79 82  1  0
 80 84  1  0
 80 79  1  0
 81 80  2  0
 84 83  1  0
 86 84  1  0
 86 87  1  0
 86 85  1  0
 88 91  1  1
 88 89  1  0
 90 88  1  0
M  ISO  4   4 100  18 100  50 101  51 101
M  END
>  <TORSDO>  (62) 
F 21

>  <SCORE>  (62) 
-10.725

>  <name>  (62) 
61

>  <ligand_id>  (62) 
61

>  <original_smiles>  (62) 
[H]c1c([H])c([H])c2c(c1[H])C([H])([H])C([H])([H])C([H])([H])C2([H])N([H])C(=O)C1([H])N(C(=O)C([H])(N([H])C(=O)C([H])(N([H])C([H])([H])[H])C([H])([H])[H])C(C([H])([H])[H])(C([H])([H])[H])C([H])([H])[H])C([H])([H])c2c([H])c(OC([H])([H])C([H])([H])C([H])([H])C([H])([H])C([H])([H])C(=O)C3([H])C([H])([H])N(C(=O)N4C([H])([H])C([H])([H])C([H])([H])C([H])(n5nc(-c6c([H])c([H])c(Oc7c([H])c([H])c(F)c([H])c7F)c([H])c6[H])c(C(=O)N([H])[H])c5N([H])[H])C4([H])[H])C([H])([H])C([H])(C([H])([H])[H])C3([H])[H])c([H])c([H])c2C1([H])[H]

>  <smiles>  (62) 
[H]c1c([H])c([H])c2c(c1[H])C([H])([H])C([H])([H])C([H])([H])C2([H])N([H])C(=O)C1([H])N(C(=O)C([H])(N([H])C(=O)C([H])(N([H])C([H])([H])[H])C([H])([H])[H])C(C([H])([H])[H])(C([H])([H])[H])C([H])([H])[H])C([H])([H])c2c([H])c(OC([H])([H])C([H])([H])C([H])([H])C([H])([H])C([H])([H])C(=O)C3([H])C([H])([H])N(C(=O)N4C([H])([H])C([H])([H])C([H])([H])C([H])(n5nc(-c6c([H])c([H])c(Oc7c([H])c([H])c(F)c([H])c7F)c([H])c6[H])c(C(=O)N([H])[H])c5N([H])[H])C4([H])[H])C([H])([H])C([H])(C([H])([H])[H])C3([H])[H])c([H])c([H])c2C1([H])[H]

$$$$
62:0:0
     RDKit          3D

 99107  0  0  1  0  0  0  0  0999 V2000
  -31.7170  -16.9970   22.0080 C   0  0  0  0  0  2  0  0  0  0  0  0
  -30.6900  -16.8840   20.8670 C   0  0  0  0  0  3  0  0  0  0  0  0
  -29.7560  -18.1360   21.0480 C   0  0  0  0  0  3  0  0  0  0  0  0
  -30.3930  -18.9320   22.2260 C   0  0  0  0  0  3  0  0  0  0  0  0
  -31.7710  -18.4230   22.3210 N   0  0  0  0  0  4  0  0  0  0  0  0
  -32.3190  -18.8880   21.6170 H   0  0  0  0  0  0  0  0  0  0  0  0
  -32.1560  -18.6200   23.2360 H   0  0  0  0  0  0  0  0  0  0  0  0
  -30.6790  -14.4330   20.3800 C   0  0  0  0  0  0  0  0  0  0  0  0
  -30.3270  -12.1830   19.4320 C   0  0  0  0  0  2  0  0  0  0  0  0
  -29.3920  -12.2700   18.2110 C   0  0  0  0  0  2  0  0  0  0  0  0
  -27.9180  -12.1900   18.6530 C   0  0  0  0  0  2  0  0  0  0  0  0
  -27.5880  -13.1540   19.8220 C   0  0  0  0  0  3  0  0  0  0  0  0
  -28.6400  -13.0480   20.9510 C   0  0  0  0  0  2  0  0  0  0  0  0
  -29.9640  -13.2740   20.3540 N   0  0  0  0  0  0  0  0  0  0  0  0
  -31.8020  -14.5220   19.8820 O   0  0  0  0  0  0  0  0  0  0  0  0
  -30.0680  -15.5380   20.8690 N   0  0  0  0  0  0  0  0  0  0  0  0
  -29.1360  -15.4340   21.2430 H   0  0  0  0  0  0  0  0  0  0  0  0
  -25.2330  -13.8690   20.5760 C   0  0  0  0  0  0  0  0  0  0  0  0
  -24.1350  -13.1450   20.9550 C   0  0  0  0  0  0  0  0  0  0  0  0
  -24.5290  -11.7730   20.9040 C   0  0  0  0  0  0  0  0  0  0  0  0
  -26.2300  -12.9400   20.3210 N   0  0  0  0  0  0  0  0  0  0  0  0
  -25.8110  -11.6730   20.5770 N   0  0  0  0  0  0  0  0  0  0  0  0
  -23.7450  -10.5460   21.0920 C   0  0  0  0  0  0  0  0  0  0  0  0
  -24.1580   -9.5340   21.9880 C   0  0  0  0  0  3  0  0  0  0  0  0
  -23.3750   -8.3720   22.1640 C   0  0  0  0  0  3  0  0  0  0  0  0
  -22.1660   -8.2140   21.4460 C   0  0  0  0  0  0  0  0  0  0  0  0
  -21.7740   -9.2130   20.5380 C   0  0  0  0  0  3  0  0  0  0  0  0
  -22.5550  -10.3660   20.3590 C   0  0  0  0  0  3  0  0  0  0  0  0
  -21.3560   -7.1100   21.5350 O   0  0  0  0  0  0  0  0  0  0  0  0
  -21.3180   -6.3340   22.6660 C   0  0  0  0  0  0  0  0  0  0  0  0
  -20.9860   -6.8730   23.9290 C   0  0  0  0  0  3  0  0  0  0  0  0
  -20.8910   -6.0260   25.0530 C   0  0  0  0  0  3  0  0  0  0  0  0
  -21.1180   -4.6430   24.9150 C   0  0  0  0  0  0  0  0  0  0  0  0
  -21.4430   -4.1060   23.6580 C   0  0  0  0  0  3  0  0  0  0  0  0
  -21.5410   -4.9480   22.5350 C   0  0  0  0  0  0  0  0  0  0  0  0
  -21.8320   -4.4200   21.3230 F   0  0  0  0  0  0  0  0  0  0  0  0
  -21.0200   -3.8280   25.9920 F   0  0  0  0  0  0  0  0  0  0  0  0
  -22.7660  -13.6860   21.2530 C   0  0  0  0  0  0  0  0  0  0  0  0
  -22.0210  -13.0230   22.1290 N   0  0  0  0  0  0  0  0  0  0  0  0
  -22.3700  -14.7340   20.7430 O   0  0  0  0  0  0  0  0  0  0  0  0
  -22.3550  -12.1730   22.5630 H   0  0  0  0  0  0  0  0  0  0  0  0
  -21.1020  -13.3660   22.3700 H   0  0  0  0  0  0  0  0  0  0  0  0
  -25.4650  -15.2300   20.4070 N   0  0  0  0  0  0  0  0  0  0  0  0
  -24.7330  -15.9220   20.5260 H   0  0  0  0  0  0  0  0  0  0  0  0
  -26.3290  -15.6250   20.0610 H   0  0  0  0  0  0  0  0  0  0  0  0
  -29.8110  -19.0000   19.8510 N   0  0  0  0  0  0  0  0  0  0  0  0
  -29.7330  -18.4230   19.0160 H   0  0  0  0  0  0  0  0  0  0  0  0
  -28.7730  -20.0490   19.8070 C   0  0  0  0  0  2  0  0  0  0  0  0
  -29.3180  -21.4080   19.2810 C   0  0  0  0  0  2  0  0  0  0  0  0
  -28.5220  -22.6360   19.8080 C   0  0  0  0  0  2  0  0  0  0  0  0
  -28.8440  -24.0150   19.1610 C   0  0  0  0  0  2  0  0  0  0  0  0
  -28.2330  -25.2020   19.9530 C   0  0  0  0  0  2  0  0  0  0  0  0
  -28.3080  -26.4820   19.2850 O   0  0  0  0  0  0  0  0  0  0  0  0
  -24.6090  -31.4260   22.8780 C   0  0  0  0  0  0  0  0  0  0  0  0
  -27.1590  -27.2420   19.3760 C   0  0  0  0  0  0  0  0  0  0  0  0
  -23.3540  -30.1360   21.1840 C   0  0  0  0  0  3  0  0  0  0  0  0
  -24.7640  -28.7310   19.5870 C   0  0  0  0  0  0  0  0  0  0  0  0
  -25.8680  -30.5360   20.9170 C   0  0  0  0  0  2  0  0  0  0  0  0
  -25.9410  -29.2170   20.1720 C   0  0  0  0  0  0  0  0  0  0  0  0
  -27.1460  -28.4830   20.0570 C   0  0  0  0  0  3  0  0  0  0  0  0
  -25.9680  -26.7790   18.7790 C   0  0  0  0  0  3  0  0  0  0  0  0
  -24.7720  -27.5130   18.8850 C   0  0  0  0  0  3  0  0  0  0  0  0
  -23.5150  -29.5670   19.7500 C   0  0  0  0  0  2  0  0  0  0  0  0
  -24.6320  -30.7090   21.7190 N   0  0  0  0  0  0  0  0  0  0  0  0
  -23.5450  -31.6490   23.4740 O   0  0  0  0  0  0  0  0  0  0  0  0
  -22.7480  -29.0390   22.0880 C   0  0  0  0  0  0  0  0  0  0  0  0
  -21.4160  -28.8760   22.0180 N   0  0  0  0  0  0  0  0  0  0  0  0
  -23.4670  -28.3450   22.8100 O   0  0  0  0  0  0  0  0  0  0  0  0
  -20.8960  -29.4910   21.4090 H   0  0  0  0  0  0  0  0  0  0  0  0
  -18.0610  -27.6740   22.6170 C   0  0  0  0  0  0  0  0  0  0  0  0
  -20.6330  -27.8800   22.7510 C   0  0  0  0  0  3  0  0  0  0  0  0
  -20.6780  -26.5070   22.0400 C   0  0  0  0  0  2  0  0  0  0  0  0
  -19.5110  -26.2910   21.0720 C   0  0  0  0  0  2  0  0  0  0  0  0
  -18.1740  -26.3910   21.8120 C   0  0  0  0  0  2  0  0  0  0  0  0
  -19.2150  -28.3820   23.0440 C   0  0  0  0  0  0  0  0  0  0  0  0
  -19.0530  -29.5900   23.7570 C   0  0  0  0  0  3  0  0  0  0  0  0
  -17.7690  -30.0870   24.0470 C   0  0  0  0  0  3  0  0  0  0  0  0
  -16.6290  -29.3730   23.6360 C   0  0  0  0  0  3  0  0  0  0  0  0
  -16.7770  -28.1690   22.9250 C   0  0  0  0  0  3  0  0  0  0  0  0
  -25.9110  -32.0220   23.4950 C   0  0  0  0  0  3  0  0  0  0  0  0
  -25.5970  -33.3730   23.9750 N   0  0  0  0  0  0  0  0  0  0  0  0
  -25.8870  -34.5030   23.3160 C   0  0  0  0  0  0  0  0  0  0  0  0
  -26.5220  -34.5170   22.2590 O   0  0  0  0  0  0  0  0  0  0  0  0
  -25.0150  -33.4340   24.7990 H   0  0  0  0  0  0  0  0  0  0  0  0
  -24.1260  -36.2970   23.2040 C   0  0  0  0  0  1  0  0  0  0  0  0
  -25.3980  -35.8280   23.9280 C   0  0  0  0  0  3  0  0  0  0  0  0
  -27.5500  -36.6540   24.7770 C   0  0  0  0  0  1  0  0  0  0  0  0
  -26.4130  -36.9030   23.8930 N   0  0  0  0  0  0  0  0  0  0  0  0
  -26.0030  -37.7960   24.1490 H   0  0  0  0  0  0  0  0  0  0  0  0
  -26.5120  -31.1390   24.6560 C   0  0  1  0  0  0  0  0  0  0  0  0
  -25.4830  -30.7730   25.7530 C   0  0  0  0  0  1  0  0  0  0  0  0
  -27.0910  -29.8180   24.0950 C   0  0  0  0  0  1  0  0  0  0  0  0
  -27.6890  -31.8860   25.3270 C   0  0  0  0  0  1  0  0  0  0  0  0
  -29.6040  -18.8280   23.5570 C   0  0  0  0  0  2  0  0  0  0  0  0
  -30.0620  -19.8520   24.6070 C   0  0  0  0  0  0  0  0  0  0  0  0
  -29.1450  -20.5000   25.3180 N   0  0  0  0  0  0  0  0  0  0  0  0
  -31.2610  -20.0690   24.7810 O   0  0  0  0  0  0  0  0  0  0  0  0
  -28.1570  -20.3250   25.1940 H   0  0  0  0  0  0  0  0  0  0  0  0
  -29.4350  -21.1900   25.9970 H   0  0  0  0  0  0  0  0  0  0  0  0
  1  5  1  0
  2 16  1  0
  2  3  1  0
  2  1  1  0
  3 46  1  0
  3  4  1  0
  4  5  1  0
  4 94  1  0
  5  7  1  0
  6  5  1  0
  8 16  1  0
  9 14  1  0
 10 11  1  0
 10  9  1  0
 12 11  1  0
 12 21  1  0
 12 13  1  0
 14  8  1  0
 14 13  1  0
 15  8  2  0
 16 17  1  0
 18 19  2  0
 19 38  1  0
 20 19  1  0
 20 23  1  0
 21 18  1  0
 21 22  1  0
 22 20  2  0
 23 24  1  0
 24 25  2  0
 26 29  1  0
 26 25  1  0
 27 26  2  0
 28 27  1  0
 28 23  2  0
 29 30  1  0
 30 31  1  0
 31 32  2  0
 33 32  1  0
 33 37  1  0
 34 33  2  0
 35 30  2  0
 35 34  1  0
 36 35  1  0
 38 39  1  0
 39 42  1  0
 39 41  1  0
 40 38  2  0
 43 44  1  0
 43 18  1  0
 45 43  1  0
 47 46  1  0
 48 46  1  0
 49 48  1  0
 49 50  1  0
 51 50  1  0
 51 52  1  0
 53 55  1  0
 53 52  1  0
 54 65  2  0
 55 60  1  0
 56 64  1  0
 56 66  1  0
 57 63  1  0
 57 59  1  0
 58 64  1  0
 59 58  1  0
 60 59  2  0
 61 62  1  0
 61 55  2  0
 62 57  2  0
 63 56  1  0
 64 54  1  0
 66 68  2  0
 67 66  1  0
 69 67  1  0
 70 79  2  0
 70 75  1  0
 71 67  1  0
 71 75  1  0
 72 71  1  0
 73 74  1  0
 73 72  1  0
 74 70  1  0
 75 76  2  0
 76 77  1  0
 78 77  2  0
 79 78  1  0
 80 54  1  0
 80 81  1  0
 80 90  1  0
 81 84  1  0
 82 86  1  0
 82 81  1  0
 83 82  2  0
 86 85  1  0
 88 86  1  0
 88 89  1  0
 88 87  1  0
 90 93  1  1
 90 91  1  0
 92 90  1  0
 94 95  1  0
 95 97  2  0
 95 96  1  0
 96 99  1  0
 98 96  1  0
M  ISO  4   8 100  16 100  52 101  53 101
M  END
>  <TORSDO>  (63) 
F 24

>  <SCORE>  (63) 
-6.229

>  <name>  (63) 
62

>  <ligand_id>  (63) 
62

>  <original_smiles>  (63) 
[H]c1c([H])c([H])c2c(c1[H])C([H])([H])C([H])([H])C([H])([H])C2([H])N([H])C(=O)C1([H])N(C(=O)C([H])(N([H])C(=O)C([H])(N([H])C([H])([H])[H])C([H])([H])[H])C(C([H])([H])[H])(C([H])([H])[H])C([H])([H])[H])C([H])([H])c2c([H])c(OC([H])([H])C([H])([H])C([H])([H])C([H])([H])C([H])([H])N([H])C3([H])C([H])(N([H])C(=O)N4C([H])([H])C([H])([H])C([H])([H])C([H])(n5nc(-c6c([H])c([H])c(Oc7c([H])c([H])c(F)c([H])c7F)c([H])c6[H])c(C(=O)N([H])[H])c5N([H])[H])C4([H])[H])C([H])([H])[N+]([H])([H])C3([H])C([H])([H])C(=O)N([H])[H])c([H])c([H])c2C1([H])[H]

>  <smiles>  (63) 
[H]c1c([H])c([H])c2c(c1[H])C([H])([H])C([H])([H])C([H])([H])C2([H])N([H])C(=O)C1([H])N(C(=O)C([H])(N([H])C(=O)C([H])(N([H])C([H])([H])[H])C([H])([H])[H])C(C([H])([H])[H])(C([H])([H])[H])C([H])([H])[H])C([H])([H])c2c([H])c(OC([H])([H])C([H])([H])C([H])([H])C([H])([H])C([H])([H])N([H])C3([H])C([H])(N([H])C(=O)N4C([H])([H])C([H])([H])C([H])([H])C([H])(n5nc(-c6c([H])c([H])c(Oc7c([H])c([H])c(F)c([H])c7F)c([H])c6[H])c(C(=O)N([H])[H])c5N([H])[H])C4([H])[H])C([H])([H])[N+]([H])([H])C3([H])C([H])([H])C(=O)N([H])[H])c([H])c([H])c2C1([H])[H]

$$$$
63:0:0
     RDKit          3D

 93100  0  0  1  0  0  0  0  0999 V2000
  -29.4590  -21.1280   18.2370 C   0  0  0  0  0  0  0  0  0  0  0  0
  -30.6920  -21.2480   18.2170 O   0  0  0  0  0  0  0  0  0  0  0  0
  -28.5230  -22.3370   18.1520 C   0  0  0  0  0  2  0  0  0  0  0  0
  -29.7930  -24.0910   16.7770 C   0  0  0  0  0  1  0  0  0  0  0  0
  -29.2150  -23.7240   18.1570 C   0  0  0  0  0  3  0  0  0  0  0  0
  -28.2200  -24.7840   18.6590 C   0  0  0  0  0  2  0  0  0  0  0  0
  -28.8100  -26.1900   18.8850 C   0  0  0  0  0  2  0  0  0  0  0  0
  -28.3940  -26.7770   20.1180 O   0  0  0  0  0  0  0  0  0  0  0  0
  -24.5720  -31.8760   23.2580 C   0  0  0  0  0  0  0  0  0  0  0  0
  -27.2020  -27.4620   20.1330 C   0  0  0  0  0  0  0  0  0  0  0  0
  -23.3540  -30.4820   21.6180 C   0  0  0  0  0  3  0  0  0  0  0  0
  -24.7970  -28.9430   20.1900 C   0  0  0  0  0  0  0  0  0  0  0  0
  -25.8800  -30.8360   21.4110 C   0  0  0  0  0  2  0  0  0  0  0  0
  -25.9570  -29.4650   20.7770 C   0  0  0  0  0  0  0  0  0  0  0  0
  -27.1570  -28.7270   20.7580 C   0  0  0  0  0  3  0  0  0  0  0  0
  -26.0180  -26.9390   19.5680 C   0  0  0  0  0  3  0  0  0  0  0  0
  -24.8190  -27.6740   19.5900 C   0  0  0  0  0  3  0  0  0  0  0  0
  -23.5570  -29.8030   20.2350 C   0  0  0  0  0  2  0  0  0  0  0  0
  -24.6200  -31.0800   22.1540 N   0  0  0  0  0  0  0  0  0  0  0  0
  -23.4950  -32.1510   23.8060 O   0  0  0  0  0  0  0  0  0  0  0  0
  -22.7060  -29.4590   22.5790 C   0  0  0  0  0  0  0  0  0  0  0  0
  -21.3810  -29.2780   22.4560 N   0  0  0  0  0  0  0  0  0  0  0  0
  -23.3920  -28.8310   23.3900 O   0  0  0  0  0  0  0  0  0  0  0  0
  -20.8880  -29.8390   21.7760 H   0  0  0  0  0  0  0  0  0  0  0  0
  -18.0090  -28.0850   22.9640 C   0  0  0  0  0  0  0  0  0  0  0  0
  -20.5660  -28.3430   23.2320 C   0  0  0  0  0  3  0  0  0  0  0  0
  -20.6680  -26.9100   22.6610 C   0  0  0  0  0  2  0  0  0  0  0  0
  -19.5660  -26.5840   21.6490 C   0  0  0  0  0  2  0  0  0  0  0  0
  -18.1840  -26.7330   22.2930 C   0  0  0  0  0  2  0  0  0  0  0  0
  -19.1280  -28.8480   23.3910 C   0  0  0  0  0  0  0  0  0  0  0  0
  -18.9110  -30.1140   23.9750 C   0  0  0  0  0  3  0  0  0  0  0  0
  -17.6060  -30.6170   24.1380 C   0  0  0  0  0  3  0  0  0  0  0  0
  -16.5010  -29.8540   23.7260 C   0  0  0  0  0  3  0  0  0  0  0  0
  -16.7040  -28.5890   23.1450 C   0  0  0  0  0  3  0  0  0  0  0  0
  -25.8640  -32.5020   23.8690 C   0  0  0  0  0  3  0  0  0  0  0  0
  -26.3890  -31.7270   25.1380 C   0  0  1  0  0  0  0  0  0  0  0  0
  -25.3060  -31.4820   26.2150 C   0  0  0  0  0  1  0  0  0  0  0  0
  -26.9650  -30.3500   24.7350 C   0  0  0  0  0  1  0  0  0  0  0  0
  -27.5500  -32.5150   25.7900 C   0  0  0  0  0  1  0  0  0  0  0  0
  -25.5640  -33.9010   24.1990 N   0  0  0  0  0  0  0  0  0  0  0  0
  -25.8960  -34.9500   23.4350 C   0  0  0  0  0  0  0  0  0  0  0  0
  -26.5610  -34.8420   22.3990 O   0  0  0  0  0  0  0  0  0  0  0  0
  -24.9760  -34.0610   25.0050 H   0  0  0  0  0  0  0  0  0  0  0  0
  -24.1720  -36.7470   23.0780 C   0  0  0  0  0  1  0  0  0  0  0  0
  -25.4150  -36.3410   23.8880 C   0  0  0  0  0  3  0  0  0  0  0  0
  -27.5570  -37.2180   24.7060 C   0  0  0  0  0  1  0  0  0  0  0  0
  -26.4500  -37.3920   23.7690 N   0  0  0  0  0  0  0  0  0  0  0  0
  -26.0490  -38.3130   23.9210 H   0  0  0  0  0  0  0  0  0  0  0  0
  -28.8100  -19.7520   18.3970 C   0  0  0  0  0  2  0  0  0  0  0  0
  -29.8880  -18.8450   18.8300 N   0  0  0  0  0  4  0  0  0  0  0  0
  -30.6670  -19.4790   18.9520 H   0  0  0  0  0  0  0  0  0  0  0  0
  -30.1260  -18.2200   18.0770 H   0  0  0  0  0  0  0  0  0  0  0  0
  -29.6270  -18.1020   20.0800 C   0  0  0  0  0  2  0  0  0  0  0  0
  -30.9360  -17.5980   20.7150 C   0  0  0  0  0  2  0  0  0  0  0  0
  -30.7430  -16.5750   21.8570 C   0  0  0  0  0  2  0  0  0  0  0  0
  -30.7360  -14.4040   20.6110 C   0  0  0  0  0  0  0  0  0  0  0  0
  -30.3830  -12.3220   19.3440 C   0  0  0  0  0  2  0  0  0  0  0  0
  -29.4460  -12.5700   18.1470 C   0  0  0  0  0  2  0  0  0  0  0  0
  -27.9700  -12.4380   18.5690 C   0  0  0  0  0  2  0  0  0  0  0  0
  -27.6380  -13.2540   19.8470 C   0  0  0  0  0  3  0  0  0  0  0  0
  -28.6810  -12.9800   20.9530 C   0  0  0  0  0  2  0  0  0  0  0  0
  -30.0190  -13.2700   20.4060 N   0  0  0  0  0  0  0  0  0  0  0  0
  -31.8120  -14.6360   20.0540 O   0  0  0  0  0  0  0  0  0  0  0  0
  -30.1660  -15.2990   21.4280 N   0  0  0  0  0  0  0  0  0  0  0  0
  -29.2850  -15.0270   21.8400 H   0  0  0  0  0  0  0  0  0  0  0  0
  -25.2290  -13.8740   20.5220 C   0  0  0  0  0  0  0  0  0  0  0  0
  -24.1570  -13.1050   20.8850 C   0  0  0  0  0  0  0  0  0  0  0  0
  -24.6160  -11.7520   20.8700 C   0  0  0  0  0  0  0  0  0  0  0  0
  -26.2770  -12.9890   20.3100 N   0  0  0  0  0  0  0  0  0  0  0  0
  -25.9090  -11.7080   20.5740 N   0  0  0  0  0  0  0  0  0  0  0  0
  -23.8870  -10.4930   21.0600 C   0  0  0  0  0  0  0  0  0  0  0  0
  -24.3240   -9.5210   21.9870 C   0  0  0  0  0  3  0  0  0  0  0  0
  -23.5950   -8.3250   22.1660 C   0  0  0  0  0  3  0  0  0  0  0  0
  -22.4160   -8.0930   21.4180 C   0  0  0  0  0  0  0  0  0  0  0  0
  -22.0000   -9.0540   20.4790 C   0  0  0  0  0  3  0  0  0  0  0  0
  -22.7290  -10.2400   20.2990 C   0  0  0  0  0  3  0  0  0  0  0  0
  -21.6590   -6.9500   21.5050 O   0  0  0  0  0  0  0  0  0  0  0  0
  -21.6310   -6.1920   22.6480 C   0  0  0  0  0  0  0  0  0  0  0  0
  -21.2480   -6.7340   23.8940 C   0  0  0  0  0  3  0  0  0  0  0  0
  -21.1670   -5.9030   25.0290 C   0  0  0  0  0  3  0  0  0  0  0  0
  -21.4570   -4.5310   24.9200 C   0  0  0  0  0  0  0  0  0  0  0  0
  -21.8330   -3.9870   23.6790 C   0  0  0  0  0  3  0  0  0  0  0  0
  -21.9160   -4.8140   22.5450 C   0  0  0  0  0  0  0  0  0  0  0  0
  -22.2590   -4.2820   21.3480 F   0  0  0  0  0  0  0  0  0  0  0  0
  -21.3710   -3.7300   26.0080 F   0  0  0  0  0  0  0  0  0  0  0  0
  -22.7570  -13.5850   21.1410 C   0  0  0  0  0  0  0  0  0  0  0  0
  -22.0210  -12.8960   22.0050 N   0  0  0  0  0  0  0  0  0  0  0  0
  -22.3260  -14.6080   20.6100 O   0  0  0  0  0  0  0  0  0  0  0  0
  -22.3830  -12.0690   22.4550 H   0  0  0  0  0  0  0  0  0  0  0  0
  -21.0820  -13.2010   22.2210 H   0  0  0  0  0  0  0  0  0  0  0  0
  -25.3960  -15.2440   20.3380 N   0  0  0  0  0  0  0  0  0  0  0  0
  -24.6230  -15.8930   20.4380 H   0  0  0  0  0  0  0  0  0  0  0  0
  -26.2500  -15.6850   20.0230 H   0  0  0  0  0  0  0  0  0  0  0  0
  1 49  1  0
  2  1  2  0
  3  5  1  0
  3  1  1  0
  5  4  1  0
  5  6  1  0
  6  7  1  0
  7  8  1  0
  8 10  1  0
  9 20  2  0
 10 15  1  0
 11 19  1  0
 11 21  1  0
 12 18  1  0
 12 14  1  0
 13 19  1  0
 14 13  1  0
 15 14  2  0
 16 17  1  0
 16 10  2  0
 17 12  2  0
 18 11  1  0
 19  9  1  0
 21 23  2  0
 22 21  1  0
 24 22  1  0
 25 34  2  0
 25 30  1  0
 26 22  1  0
 26 30  1  0
 27 26  1  0
 28 29  1  0
 28 27  1  0
 29 25  1  0
 30 31  2  0
 31 32  1  0
 33 32  2  0
 34 33  1  0
 35  9  1  0
 35 40  1  0
 35 36  1  0
 36 39  1  1
 36 37  1  0
 38 36  1  0
 40 43  1  0
 41 45  1  0
 41 40  1  0
 42 41  2  0
 45 44  1  0
 47 45  1  0
 47 48  1  0
 47 46  1  0
 49 50  1  0
 50 51  1  0
 50 53  1  0
 52 50  1  0
 53 54  1  0
 54 55  1  0
 56 64  1  0
 57 62  1  0
 58 59  1  0
 58 57  1  0
 60 59  1  0
 60 69  1  0
 60 61  1  0
 62 56  1  0
 62 61  1  0
 63 56  2  0
 64 65  1  0
 64 55  1  0
 66 67  2  0
 67 86  1  0
 68 67  1  0
 68 71  1  0
 69 66  1  0
 69 70  1  0
 70 68  2  0
 71 72  1  0
 72 73  2  0
 74 77  1  0
 74 73  1  0
 75 74  2  0
 76 75  1  0
 76 71  2  0
 77 78  1  0
 78 79  1  0
 79 80  2  0
 81 80  1  0
 81 85  1  0
 82 81  2  0
 83 78  2  0
 83 82  1  0
 84 83  1  0
 86 87  1  0
 87 90  1  0
 87 89  1  0
 88 86  2  0
 91 92  1  0
 91 66  1  0
 93 91  1  0
M  ISO  4   7 101   8 101  56 100  64 100
M  END
>  <TORSDO>  (64) 
F 25

>  <SCORE>  (64) 
-12.191

>  <name>  (64) 
63

>  <ligand_id>  (64) 
63

>  <original_smiles>  (64) 
[H]c1c([H])c([H])c2c(c1[H])C([H])([H])C([H])([H])C([H])([H])C2([H])N([H])C(=O)C1([H])N(C(=O)C([H])(N([H])C(=O)C([H])(N([H])C([H])([H])[H])C([H])([H])[H])C(C([H])([H])[H])(C([H])([H])[H])C([H])([H])[H])C([H])([H])c2c([H])c(OC([H])([H])C([H])([H])C([H])(C([H])([H])[H])C([H])([H])C(=O)C([H])([H])[N+]([H])([H])C([H])([H])C([H])([H])C([H])([H])N([H])C(=O)N3C([H])([H])C([H])([H])C([H])([H])C([H])(n4nc(-c5c([H])c([H])c(Oc6c([H])c([H])c(F)c([H])c6F)c([H])c5[H])c(C(=O)N([H])[H])c4N([H])[H])C3([H])[H])c([H])c([H])c2C1([H])[H]

>  <smiles>  (64) 
[H]c1c([H])c([H])c2c(c1[H])C([H])([H])C([H])([H])C([H])([H])C2([H])N([H])C(=O)C1([H])N(C(=O)C([H])(N([H])C(=O)C([H])(N([H])C([H])([H])[H])C([H])([H])[H])C(C([H])([H])[H])(C([H])([H])[H])C([H])([H])[H])C([H])([H])c2c([H])c(OC([H])([H])C([H])([H])C([H])(C([H])([H])[H])C([H])([H])C(=O)C([H])([H])[N+]([H])([H])C([H])([H])C([H])([H])C([H])([H])N([H])C(=O)N3C([H])([H])C([H])([H])C([H])([H])C([H])(n4nc(-c5c([H])c([H])c(Oc6c([H])c([H])c(F)c([H])c6F)c([H])c5[H])c(C(=O)N([H])[H])c4N([H])[H])C3([H])[H])c([H])c([H])c2C1([H])[H]

$$$$
64:0:0
     RDKit          3D

100108  0  0  1  0  0  0  0  0999 V2000
  -29.7990  -21.4960   19.3520 C   0  0  0  0  0  2  0  0  0  0  0  0
  -29.4600  -20.3310   18.4000 C   0  0  0  0  0  2  0  0  0  0  0  0
  -32.0940  -21.6400   18.3440 C   0  0  0  0  0  2  0  0  0  0  0  0
  -30.8490  -22.4500   18.7460 C   0  0  0  0  0  3  0  0  0  0  0  0
  -31.7520  -20.4970   17.3630 C   0  0  0  0  0  3  0  0  0  0  0  0
  -30.6940  -19.4980   17.9420 C   0  0  2  0  0  0  0  0  0  0  0  0
  -33.0480  -19.8330   16.8540 C   0  0  0  0  0  1  0  0  0  0  0  0
  -30.2560  -18.6090   16.8400 N   0  0  0  0  0  4  0  0  0  0  0  0
  -29.8120  -19.1340   16.1050 H   0  0  0  0  0  0  0  0  0  0  0  0
  -29.5960  -17.9340   17.1970 H   0  0  0  0  0  0  0  0  0  0  0  0
  -31.0320  -18.1100   16.4390 H   0  0  0  0  0  0  0  0  0  0  0  0
  -31.2950  -18.6600   19.1280 C   0  0  0  0  0  2  0  0  0  0  0  0
  -30.4600  -17.4940   19.6920 C   0  0  0  0  0  0  0  0  0  0  0  0
  -29.4350  -17.1180   19.1140 O   0  0  0  0  0  0  0  0  0  0  0  0
  -30.9870  -16.7960   20.9680 C   0  0  0  0  0  3  0  0  0  0  0  0
  -31.1940  -14.4090   20.2710 C   0  0  0  0  0  0  0  0  0  0  0  0
  -30.7980  -12.2700   19.1150 C   0  0  0  0  0  2  0  0  0  0  0  0
  -29.8580  -12.5010   17.9140 C   0  0  0  0  0  2  0  0  0  0  0  0
  -28.3820  -12.4310   18.3490 C   0  0  0  0  0  2  0  0  0  0  0  0
  -28.0860  -13.3030   19.5990 C   0  0  0  0  0  3  0  0  0  0  0  0
  -29.1280  -13.0320   20.7080 C   0  0  0  0  0  2  0  0  0  0  0  0
  -30.4700  -13.2670   20.1430 N   0  0  0  0  0  0  0  0  0  0  0  0
  -32.2760  -14.5960   19.7070 O   0  0  0  0  0  0  0  0  0  0  0  0
  -30.5910  -15.3840   20.9650 N   0  0  0  0  0  0  0  0  0  0  0  0
  -29.7010  -15.1580   21.3790 H   0  0  0  0  0  0  0  0  0  0  0  0
  -25.7160  -14.0350   20.2910 C   0  0  0  0  0  0  0  0  0  0  0  0
  -24.6150  -13.3190   20.6760 C   0  0  0  0  0  0  0  0  0  0  0  0
  -25.0150  -11.9460   20.6710 C   0  0  0  0  0  0  0  0  0  0  0  0
  -26.7210  -13.1020   20.0800 N   0  0  0  0  0  0  0  0  0  0  0  0
  -26.3010  -11.8430   20.3630 N   0  0  0  0  0  0  0  0  0  0  0  0
  -24.2340  -10.7220   20.8890 C   0  0  0  0  0  0  0  0  0  0  0  0
  -24.6240   -9.7570   21.8440 C   0  0  0  0  0  3  0  0  0  0  0  0
  -23.8480   -8.5950   22.0460 C   0  0  0  0  0  3  0  0  0  0  0  0
  -22.6660   -8.3910   21.2930 C   0  0  0  0  0  0  0  0  0  0  0  0
  -22.2940   -9.3430   20.3280 C   0  0  0  0  0  3  0  0  0  0  0  0
  -23.0720  -10.4960   20.1240 C   0  0  0  0  0  3  0  0  0  0  0  0
  -21.8630   -7.2810   21.4040 O   0  0  0  0  0  0  0  0  0  0  0  0
  -21.7700   -6.5760   22.5770 C   0  0  0  0  0  0  0  0  0  0  0  0
  -21.3790   -7.1890   23.7870 C   0  0  0  0  0  3  0  0  0  0  0  0
  -21.2280   -6.4120   24.9530 C   0  0  0  0  0  3  0  0  0  0  0  0
  -21.4560   -5.0230   24.9100 C   0  0  0  0  0  0  0  0  0  0  0  0
  -21.8400   -4.4100   23.7050 C   0  0  0  0  0  3  0  0  0  0  0  0
  -21.9930   -5.1850   22.5400 C   0  0  0  0  0  0  0  0  0  0  0  0
  -22.3420   -4.5850   21.3760 F   0  0  0  0  0  0  0  0  0  0  0  0
  -21.3040   -4.2750   26.0270 F   0  0  0  0  0  0  0  0  0  0  0  0
  -23.2410  -13.8620   20.9410 C   0  0  0  0  0  0  0  0  0  0  0  0
  -22.4900  -13.2240   21.8320 N   0  0  0  0  0  0  0  0  0  0  0  0
  -22.8420  -14.8890   20.3940 O   0  0  0  0  0  0  0  0  0  0  0  0
  -22.8250  -12.3930   22.2970 H   0  0  0  0  0  0  0  0  0  0  0  0
  -21.5670  -13.5710   22.0520 H   0  0  0  0  0  0  0  0  0  0  0  0
  -25.9450  -15.3930   20.0850 N   0  0  0  0  0  0  0  0  0  0  0  0
  -25.2110  -16.0850   20.1790 H   0  0  0  0  0  0  0  0  0  0  0  0
  -26.8220  -15.7840   19.7610 H   0  0  0  0  0  0  0  0  0  0  0  0
  -30.9350  -16.9870   23.5410 C   0  0  0  0  0  1  0  0  0  0  0  0
  -30.3600  -17.4820   22.2030 C   0  0  0  0  0  2  0  0  0  0  0  0
  -31.2030  -23.6170   19.6970 C   0  0  0  0  0  2  0  0  0  0  0  0
  -30.2560  -24.8270   19.5670 C   0  0  0  0  0  2  0  0  0  0  0  0
  -30.3950  -25.8430   20.7220 C   0  0  0  0  0  2  0  0  0  0  0  0
  -29.5070  -27.0990   20.5840 C   0  0  0  0  0  2  0  0  0  0  0  0
  -28.2290  -26.6790   20.1320 O   0  0  0  0  0  0  0  0  0  0  0  0
  -24.5520  -31.9750   23.2630 C   0  0  0  0  0  0  0  0  0  0  0  0
  -27.1350  -27.5080   20.1960 C   0  0  0  0  0  0  0  0  0  0  0  0
  -23.3140  -30.5690   21.6480 C   0  0  0  0  0  3  0  0  0  0  0  0
  -24.7420  -29.0090   20.2230 C   0  0  0  0  0  0  0  0  0  0  0  0
  -25.8360  -30.9160   21.4110 C   0  0  0  0  0  2  0  0  0  0  0  0
  -25.9090  -29.5390   20.7880 C   0  0  0  0  0  0  0  0  0  0  0  0
  -27.1120  -28.8000   20.7750 C   0  0  0  0  0  3  0  0  0  0  0  0
  -25.9490  -26.9870   19.6410 C   0  0  0  0  0  3  0  0  0  0  0  0
  -24.7540  -27.7290   19.6470 C   0  0  0  0  0  3  0  0  0  0  0  0
  -23.5020  -29.8730   20.2740 C   0  0  0  0  0  2  0  0  0  0  0  0
  -24.5870  -31.1670   22.1670 N   0  0  0  0  0  0  0  0  0  0  0  0
  -23.4810  -32.2620   23.8150 O   0  0  0  0  0  0  0  0  0  0  0  0
  -22.6670  -29.5620   22.6250 C   0  0  0  0  0  0  0  0  0  0  0  0
  -21.3430  -29.3710   22.4970 N   0  0  0  0  0  0  0  0  0  0  0  0
  -23.3510  -28.9530   23.4520 O   0  0  0  0  0  0  0  0  0  0  0  0
  -20.8520  -29.9160   21.8020 H   0  0  0  0  0  0  0  0  0  0  0  0
  -17.9780  -28.1510   22.9700 C   0  0  0  0  0  0  0  0  0  0  0  0
  -20.5280  -28.4470   23.2820 C   0  0  0  0  0  3  0  0  0  0  0  0
  -20.6580  -27.0020   22.7480 C   0  0  0  0  0  2  0  0  0  0  0  0
  -19.5780  -26.6360   21.7250 C   0  0  0  0  0  2  0  0  0  0  0  0
  -18.1830  -26.7850   22.3390 C   0  0  0  0  0  2  0  0  0  0  0  0
  -19.0800  -28.9390   23.3990 C   0  0  0  0  0  0  0  0  0  0  0  0
  -18.8350  -30.2180   23.9460 C   0  0  0  0  0  3  0  0  0  0  0  0
  -17.5230  -30.7070   24.0740 C   0  0  0  0  0  3  0  0  0  0  0  0
  -16.4350  -29.9180   23.6640 C   0  0  0  0  0  3  0  0  0  0  0  0
  -16.6630  -28.6420   23.1160 C   0  0  0  0  0  3  0  0  0  0  0  0
  -25.8520  -32.5980   23.8610 C   0  0  0  0  0  3  0  0  0  0  0  0
  -26.3910  -31.8180   25.1220 C   0  0  1  0  0  0  0  0  0  0  0  0
  -25.3180  -31.5820   26.2090 C   0  0  0  0  0  1  0  0  0  0  0  0
  -26.9590  -30.4400   24.7050 C   0  0  0  0  0  1  0  0  0  0  0  0
  -27.5560  -32.6040   25.7670 C   0  0  0  0  0  1  0  0  0  0  0  0
  -25.5580  -33.9950   24.2000 N   0  0  0  0  0  0  0  0  0  0  0  0
  -25.8830  -35.0460   23.4360 C   0  0  0  0  0  0  0  0  0  0  0  0
  -26.5340  -34.9410   22.3920 O   0  0  0  0  0  0  0  0  0  0  0  0
  -24.9790  -34.1510   25.0130 H   0  0  0  0  0  0  0  0  0  0  0  0
  -24.1510  -36.8390   23.1200 C   0  0  0  0  0  1  0  0  0  0  0  0
  -25.4100  -36.4340   23.9040 C   0  0  0  0  0  3  0  0  0  0  0  0
  -27.5730  -37.3090   24.6740 C   0  0  0  0  0  1  0  0  0  0  0  0
  -26.4400  -37.4860   23.7680 N   0  0  0  0  0  0  0  0  0  0  0  0
  -26.0390  -38.4040   23.9410 H   0  0  0  0  0  0  0  0  0  0  0  0
  2  1  1  0
  3  4  1  0
  4  1  1  0
  4 56  1  0
  5  7  1  0
  5  6  1  0
  5  3  1  0
  6  2  1  0
  6 12  1  1
  8 10  1  0
  8  6  1  0
  9  8  1  0
 11  8  1  0
 12 13  1  0
 13 15  1  0
 14 13  2  0
 15 55  1  0
 16 24  1  0
 17 22  1  0
 18 19  1  0
 18 17  1  0
 20 19  1  0
 20 29  1  0
 20 21  1  0
 22 16  1  0
 22 21  1  0
 23 16  2  0
 24 15  1  0
 24 25  1  0
 26 27  2  0
 27 46  1  0
 28 27  1  0
 28 31  1  0
 29 26  1  0
 29 30  1  0
 30 28  2  0
 31 32  1  0
 32 33  2  0
 34 37  1  0
 34 33  1  0
 35 34  2  0
 36 35  1  0
 36 31  2  0
 37 38  1  0
 38 39  1  0
 39 40  2  0
 41 40  1  0
 41 45  1  0
 42 41  2  0
 43 38  2  0
 43 42  1  0
 44 43  1  0
 46 47  1  0
 47 50  1  0
 47 49  1  0
 48 46  2  0
 51 52  1  0
 51 26  1  0
 53 51  1  0
 55 54  1  0
 57 56  1  0
 57 58  1  0
 59 58  1  0
 60 62  1  0
 60 59  1  0
 61 72  2  0
 62 67  1  0
 63 71  1  0
 63 73  1  0
 64 70  1  0
 64 66  1  0
 65 71  1  0
 66 65  1  0
 67 66  2  0
 68 69  1  0
 68 62  2  0
 69 64  2  0
 70 63  1  0
 71 61  1  0
 73 75  2  0
 74 73  1  0
 76 74  1  0
 77 86  2  0
 77 82  1  0
 78 74  1  0
 78 82  1  0
 79 78  1  0
 80 81  1  0
 80 79  1  0
 81 77  1  0
 82 83  2  0
 83 84  1  0
 85 84  2  0
 86 85  1  0
 87 61  1  0
 87 92  1  0
 87 88  1  0
 88 91  1  1
 88 89  1  0
 90 88  1  0
 92 95  1  0
 93 97  1  0
 93 92  1  0
 94 93  2  0
 97 96  1  0
 99 97  1  0
 99100  1  0
 99 98  1  0
M  ISO  4  16 100  24 100  59 101  60 101
M  END
>  <TORSDO>  (65) 
F 25

>  <SCORE>  (65) 
-11.475

>  <name>  (65) 
64

>  <ligand_id>  (65) 
64

>  <original_smiles>  (65) 
[H]c1c([H])c([H])c2c(c1[H])C([H])([H])C([H])([H])C([H])([H])C2([H])N([H])C(=O)C1([H])N(C(=O)C([H])(N([H])C(=O)C([H])(N([H])C([H])([H])[H])C([H])([H])[H])C(C([H])([H])[H])(C([H])([H])[H])C([H])([H])[H])C([H])([H])c2c([H])c(OC([H])([H])C([H])([H])C([H])([H])C([H])([H])C3([H])C([H])([H])C([H])([H])C(C([H])([H])C(=O)C([H])(N([H])C(=O)N4C([H])([H])C([H])([H])C([H])([H])C([H])(n5nc(-c6c([H])c([H])c(Oc7c([H])c([H])c(F)c([H])c7F)c([H])c6[H])c(C(=O)N([H])[H])c5N([H])[H])C4([H])[H])C([H])([H])C([H])([H])[H])([N+]([H])([H])[H])C([H])(C([H])([H])[H])C3([H])[H])c([H])c([H])c2C1([H])[H]

>  <smiles>  (65) 
[H]c1c([H])c([H])c2c(c1[H])C([H])([H])C([H])([H])C([H])([H])C2([H])N([H])C(=O)C1([H])N(C(=O)C([H])(N([H])C(=O)C([H])(N([H])C([H])([H])[H])C([H])([H])[H])C(C([H])([H])[H])(C([H])([H])[H])C([H])([H])[H])C([H])([H])c2c([H])c(OC([H])([H])C([H])([H])C([H])([H])C([H])([H])C3([H])C([H])([H])C([H])([H])C(C([H])([H])C(=O)C([H])(N([H])C(=O)N4C([H])([H])C([H])([H])C([H])([H])C([H])(n5nc(-c6c([H])c([H])c(Oc7c([H])c([H])c(F)c([H])c7F)c([H])c6[H])c(C(=O)N([H])[H])c5N([H])[H])C4([H])[H])C([H])([H])C([H])([H])[H])([N+]([H])([H])[H])C([H])(C([H])([H])[H])C3([H])[H])c([H])c([H])c2C1([H])[H]

$$$$
65:0:0
     RDKit          3D

 93101  0  0  1  0  0  0  0  0999 V2000
  -29.2300  -20.2900   20.7200 C   0  0  0  0  0  2  0  0  0  0  0  0
  -29.4620  -18.9770   19.9440 C   0  0  0  0  0  0  0  0  0  0  0  0
  -30.0560  -18.9960   18.8640 O   0  0  0  0  0  0  0  0  0  0  0  0
  -30.4720  -14.5050   19.2060 C   0  0  0  0  0  0  0  0  0  0  0  0
  -29.9200  -12.4380   17.9650 C   0  0  0  0  0  2  0  0  0  0  0  0
  -28.7200  -12.6610   17.0210 C   0  0  0  0  0  2  0  0  0  0  0  0
  -27.3960  -12.4230   17.7710 C   0  0  0  0  0  2  0  0  0  0  0  0
  -27.3250  -13.2100   19.1010 C   0  0  0  0  0  3  0  0  0  0  0  0
  -28.6000  -12.9800   19.9420 C   0  0  0  0  0  2  0  0  0  0  0  0
  -29.7610  -13.3460   19.1150 N   0  0  0  0  0  0  0  0  0  0  0  0
  -31.4770  -14.7150   18.5260 O   0  0  0  0  0  0  0  0  0  0  0  0
  -29.8820  -17.1730   21.7120 C   0  0  0  0  0  2  0  0  0  0  0  0
  -28.9220  -16.4030   19.6540 C   0  0  0  0  0  2  0  0  0  0  0  0
  -28.9790  -17.6490   20.5780 C   0  0  0  0  0  3  0  0  0  0  0  0
  -30.8020  -16.0900   21.1080 C   0  0  0  0  0  3  0  0  0  0  0  0
  -29.9980  -15.4680   20.0440 N   0  0  0  0  0  0  0  0  0  0  0  0
  -25.1630  -13.7610   20.3890 C   0  0  0  0  0  0  0  0  0  0  0  0
  -24.1960  -12.9570   20.9240 C   0  0  0  0  0  0  0  0  0  0  0  0
  -24.6210  -11.6130   20.6850 C   0  0  0  0  0  0  0  0  0  0  0  0
  -26.1150  -12.9040   19.8570 N   0  0  0  0  0  0  0  0  0  0  0  0
  -25.8070  -11.6050   20.0960 N   0  0  0  0  0  0  0  0  0  0  0  0
  -23.9430  -10.3360   20.9300 C   0  0  0  0  0  0  0  0  0  0  0  0
  -24.4280   -9.4130   21.8840 C   0  0  0  0  0  3  0  0  0  0  0  0
  -23.7480   -8.1990   22.1110 C   0  0  0  0  0  3  0  0  0  0  0  0
  -22.5710   -7.8960   21.3850 C   0  0  0  0  0  0  0  0  0  0  0  0
  -22.1040   -8.8100   20.4240 C   0  0  0  0  0  3  0  0  0  0  0  0
  -22.7850  -10.0170   20.1940 C   0  0  0  0  0  3  0  0  0  0  0  0
  -21.8570   -6.7300   21.5230 O   0  0  0  0  0  0  0  0  0  0  0  0
  -21.7390   -6.1010   22.7360 C   0  0  0  0  0  0  0  0  0  0  0  0
  -21.1930   -6.7530   23.8620 C   0  0  0  0  0  3  0  0  0  0  0  0
  -21.0230   -6.0480   25.0700 C   0  0  0  0  0  3  0  0  0  0  0  0
  -21.3880   -4.6910   25.1530 C   0  0  0  0  0  0  0  0  0  0  0  0
  -21.9300   -4.0380   24.0310 C   0  0  0  0  0  3  0  0  0  0  0  0
  -22.1010   -4.7410   22.8250 C   0  0  0  0  0  0  0  0  0  0  0  0
  -22.6010   -4.1000   21.7400 F   0  0  0  0  0  0  0  0  0  0  0  0
  -21.2180   -4.0100   26.3110 F   0  0  0  0  0  0  0  0  0  0  0  0
  -22.8980  -13.4020   21.5360 C   0  0  0  0  0  0  0  0  0  0  0  0
  -22.4080  -12.6790   22.5350 N   0  0  0  0  0  0  0  0  0  0  0  0
  -22.3340  -14.4310   21.1610 O   0  0  0  0  0  0  0  0  0  0  0  0
  -22.8780  -11.8480   22.8630 H   0  0  0  0  0  0  0  0  0  0  0  0
  -21.5450  -12.9600   22.9830 H   0  0  0  0  0  0  0  0  0  0  0  0
  -25.2990  -15.1440   20.2890 N   0  0  0  0  0  0  0  0  0  0  0  0
  -24.5900  -15.7780   20.6380 H   0  0  0  0  0  0  0  0  0  0  0  0
  -26.0540  -15.6150   19.8150 H   0  0  0  0  0  0  0  0  0  0  0  0
  -31.2060  -15.1050   22.2290 C   0  0  0  0  0  0  0  0  0  0  0  0
  -31.7060  -15.7230   23.5270 C   0  0  0  0  0  1  0  0  0  0  0  0
  -31.1300  -13.8770   22.1330 O   0  0  0  0  0  0  0  0  0  0  0  0
  -28.1710  -21.2390   20.1000 C   0  0  0  0  0  2  0  0  0  0  0  0
  -28.2400  -22.6990   20.6240 C   0  0  0  0  0  2  0  0  0  0  0  0
  -29.2060  -23.6050   19.8200 C   0  0  0  0  0  2  0  0  0  0  0  0
  -29.8910  -24.7700   20.5790 C   0  0  0  0  0  2  0  0  0  0  0  0
  -29.0270  -26.0000   20.9570 C   0  0  0  0  0  2  0  0  0  0  0  0
  -28.6110  -26.6990   19.7850 O   0  0  0  0  0  0  0  0  0  0  0  0
  -24.5860  -31.6610   23.0420 C   0  0  0  0  0  0  0  0  0  0  0  0
  -27.4280  -27.3930   19.8860 C   0  0  0  0  0  0  0  0  0  0  0  0
  -23.4520  -30.2650   21.3430 C   0  0  0  0  0  3  0  0  0  0  0  0
  -24.9810  -28.8100   19.9070 C   0  0  0  0  0  0  0  0  0  0  0  0
  -25.9650  -30.7120   21.1940 C   0  0  0  0  0  2  0  0  0  0  0  0
  -26.1120  -29.3580   20.5270 C   0  0  0  0  0  0  0  0  0  0  0  0
  -27.3400  -28.6530   20.5220 C   0  0  0  0  0  3  0  0  0  0  0  0
  -26.2800  -26.8530   19.2740 C   0  0  0  0  0  3  0  0  0  0  0  0
  -25.0590  -27.5530   19.2810 C   0  0  0  0  0  3  0  0  0  0  0  0
  -23.7100  -29.6290   19.9510 C   0  0  0  0  0  2  0  0  0  0  0  0
  -24.6830  -30.8940   21.9190 N   0  0  0  0  0  0  0  0  0  0  0  0
  -23.4890  -31.8800   23.5730 O   0  0  0  0  0  0  0  0  0  0  0  0
  -22.8200  -29.1980   22.2660 C   0  0  0  0  0  0  0  0  0  0  0  0
  -21.4950  -29.0180   22.1500 N   0  0  0  0  0  0  0  0  0  0  0  0
  -23.5200  -28.5400   23.0390 O   0  0  0  0  0  0  0  0  0  0  0  0
  -20.9960  -29.5930   21.4870 H   0  0  0  0  0  0  0  0  0  0  0  0
  -18.1180  -27.8720   22.7180 C   0  0  0  0  0  0  0  0  0  0  0  0
  -20.6920  -28.0420   22.8860 C   0  0  0  0  0  3  0  0  0  0  0  0
  -20.7270  -26.6580   22.1960 C   0  0  0  0  0  2  0  0  0  0  0  0
  -19.5710  -26.4450   21.2140 C   0  0  0  0  0  2  0  0  0  0  0  0
  -18.2290  -26.5700   21.9410 C   0  0  0  0  0  2  0  0  0  0  0  0
  -19.2770  -28.5690   23.1510 C   0  0  0  0  0  0  0  0  0  0  0  0
  -19.1220  -29.7880   23.8480 C   0  0  0  0  0  3  0  0  0  0  0  0
  -17.8420  -30.3090   24.1090 C   0  0  0  0  0  3  0  0  0  0  0  0
  -16.6980  -29.6070   23.6920 C   0  0  0  0  0  3  0  0  0  0  0  0
  -16.8380  -28.3900   23.0000 C   0  0  0  0  0  3  0  0  0  0  0  0
  -25.8440  -32.3130   23.6990 C   0  0  0  0  0  3  0  0  0  0  0  0
  -25.4830  -33.6880   24.0720 N   0  0  0  0  0  0  0  0  0  0  0  0
  -25.8220  -34.7770   23.3710 C   0  0  0  0  0  0  0  0  0  0  0  0
  -26.5360  -34.7310   22.3670 O   0  0  0  0  0  0  0  0  0  0  0  0
  -24.8460  -33.7890   24.8470 H   0  0  0  0  0  0  0  0  0  0  0  0
  -24.0920  -36.5590   22.9760 C   0  0  0  0  0  1  0  0  0  0  0  0
  -25.2770  -36.1320   23.8560 C   0  0  0  0  0  3  0  0  0  0  0  0
  -27.3250  -37.0060   24.8920 C   0  0  0  0  0  1  0  0  0  0  0  0
  -26.2970  -37.2020   23.8730 N   0  0  0  0  0  0  0  0  0  0  0  0
  -25.8650  -38.1080   24.0340 H   0  0  0  0  0  0  0  0  0  0  0  0
  -26.3720  -31.5180   24.9570 C   0  0  1  0  0  0  0  0  0  0  0  0
  -25.2670  -31.1710   25.9830 C   0  0  0  0  0  1  0  0  0  0  0  0
  -27.0490  -30.1980   24.5220 C   0  0  0  0  0  1  0  0  0  0  0  0
  -27.4530  -32.3480   25.6840 C   0  0  0  0  0  1  0  0  0  0  0  0
  2  1  1  0
  3  2  2  0
  4 16  1  0
  5 10  1  0
  6  7  1  0
  6  5  1  0
  8  7  1  0
  8 20  1  0
  8  9  1  0
 10  4  1  0
 10  9  1  0
 11  4  2  0
 13 16  1  0
 13 14  1  0
 14  2  1  0
 14 12  1  0
 15 12  1  0
 15 45  1  0
 16 15  1  0
 17 18  2  0
 18 37  1  0
 19 18  1  0
 19 22  1  0
 20 21  1  0
 20 17  1  0
 21 19  2  0
 22 23  1  0
 23 24  2  0
 25 28  1  0
 25 24  1  0
 26 25  2  0
 27 26  1  0
 27 22  2  0
 28 29  1  0
 29 34  2  0
 29 30  1  0
 30 31  2  0
 31 32  1  0
 32 36  1  0
 33 32  2  0
 34 33  1  0
 35 34  1  0
 37 38  1  0
 38 40  1  0
 38 41  1  0
 39 37  2  0
 42 17  1  0
 42 43  1  0
 44 42  1  0
 45 46  1  0
 47 45  2  0
 48 49  1  0
 48  1  1  0
 50 51  1  0
 50 49  1  0
 51 52  1  0
 53 55  1  0
 53 52  1  0
 54 65  2  0
 55 60  1  0
 56 64  1  0
 56 66  1  0
 57 63  1  0
 57 59  1  0
 58 64  1  0
 59 58  1  0
 60 59  2  0
 61 62  1  0
 61 55  2  0
 62 57  2  0
 63 56  1  0
 64 54  1  0
 66 68  2  0
 67 66  1  0
 69 67  1  0
 70 79  2  0
 70 75  1  0
 71 67  1  0
 71 75  1  0
 72 71  1  0
 73 74  1  0
 73 72  1  0
 74 70  1  0
 75 76  2  0
 76 77  1  0
 78 77  2  0
 79 78  1  0
 80 54  1  0
 80 81  1  0
 80 90  1  0
 81 84  1  0
 82 86  1  0
 82 81  1  0
 83 82  2  0
 86 85  1  0
 86 88  1  0
 88 89  1  0
 88 87  1  0
 90 93  1  1
 90 91  1  0
 92 90  1  0
M  ISO  4   4 100  16 100  52 101  53 101
M  END
>  <TORSDO>  (66) 
F 23

>  <SCORE>  (66) 
-7.303

>  <name>  (66) 
65

>  <ligand_id>  (66) 
65

>  <original_smiles>  (66) 
[H]c1c([H])c([H])c2c(c1[H])C([H])([H])C([H])([H])C([H])([H])C2([H])N([H])C(=O)C1([H])N(C(=O)C([H])(N([H])C(=O)C([H])(N([H])C([H])([H])[H])C([H])([H])[H])C(C([H])([H])[H])(C([H])([H])[H])C([H])([H])[H])C([H])([H])c2c([H])c(OC([H])([H])C([H])([H])C([H])([H])C([H])([H])C([H])([H])C([H])([H])C(=O)C3([H])C([H])([H])N(C(=O)N4C([H])([H])C([H])([H])C([H])([H])C([H])(n5nc(-c6c([H])c([H])c(Oc7c([H])c([H])c(F)c([H])c7F)c([H])c6[H])c(C(=O)N([H])[H])c5N([H])[H])C4([H])[H])C([H])(C(=O)C([H])([H])[H])C3([H])[H])c([H])c([H])c2C1([H])[H]

>  <smiles>  (66) 
[H]c1c([H])c([H])c2c(c1[H])C([H])([H])C([H])([H])C([H])([H])C2([H])N([H])C(=O)C1([H])N(C(=O)C([H])(N([H])C(=O)C([H])(N([H])C([H])([H])[H])C([H])([H])[H])C(C([H])([H])[H])(C([H])([H])[H])C([H])([H])[H])C([H])([H])c2c([H])c(OC([H])([H])C([H])([H])C([H])([H])C([H])([H])C([H])([H])C([H])([H])C(=O)C3([H])C([H])([H])N(C(=O)N4C([H])([H])C([H])([H])C([H])([H])C([H])(n5nc(-c6c([H])c([H])c(Oc7c([H])c([H])c(F)c([H])c7F)c([H])c6[H])c(C(=O)N([H])[H])c5N([H])[H])C4([H])[H])C([H])(C(=O)C([H])([H])[H])C3([H])[H])c([H])c([H])c2C1([H])[H]

$$$$
66:0:0
     RDKit          3D

103111  0  0  1  0  0  0  0  0999 V2000
  -28.9100  -19.7820   19.9790 C   0  0  0  0  0  3  0  0  0  0  0  0
  -29.1700  -17.4330   18.8760 C   0  0  0  0  0  2  0  0  0  0  0  0
  -28.7540  -19.3290   17.4170 C   0  0  0  0  0  2  0  0  0  0  0  0
  -29.4140  -18.9590   18.7570 C   0  0  0  0  0  3  0  0  0  0  0  0
  -28.5780  -16.9320   17.5400 C   0  0  0  0  0  3  0  0  0  0  0  0
  -28.8730  -18.0750   16.5470 C   0  0  0  0  0  3  0  0  0  0  0  0
  -27.9660  -18.1160   15.3830 N   0  0  0  0  0  4  0  0  0  0  0  0
  -27.0040  -18.1780   15.6630 H   0  0  0  0  0  0  0  0  0  0  0  0
  -28.0750  -17.3050   14.8000 H   0  0  0  0  0  0  0  0  0  0  0  0
  -28.1730  -18.9180   14.8150 H   0  0  0  0  0  0  0  0  0  0  0  0
  -29.1040  -15.5400   17.1080 C   0  0  0  0  0  2  0  0  0  0  0  0
  -28.8940  -14.5080   18.1410 N   0  0  0  0  0  4  0  0  0  0  0  0
  -29.4230  -14.7060   18.9700 H   0  0  0  0  0  0  0  0  0  0  0  0
  -29.1810  -13.6110   17.7880 H   0  0  0  0  0  0  0  0  0  0  0  0
  -27.9210  -14.4380   18.3890 H   0  0  0  0  0  0  0  0  0  0  0  0
  -29.4470  -21.2520   19.9930 C   0  0  0  0  0  2  0  0  0  0  0  0
  -28.5450  -22.2830   20.7140 C   0  0  0  0  0  2  0  0  0  0  0  0
  -29.0300  -23.7470   20.5500 C   0  0  0  0  0  2  0  0  0  0  0  0
  -28.2330  -24.7670   21.4000 C   0  0  0  0  0  2  0  0  0  0  0  0
  -28.7970  -26.2140   21.4200 C   0  0  0  0  0  2  0  0  0  0  0  0
  -28.5070  -26.9830   20.2470 O   0  0  0  0  0  0  0  0  0  0  0  0
  -24.5930  -32.0560   23.4010 C   0  0  0  0  0  0  0  0  0  0  0  0
  -27.3280  -27.6890   20.3030 C   0  0  0  0  0  0  0  0  0  0  0  0
  -23.4000  -30.5810   21.8130 C   0  0  0  0  0  3  0  0  0  0  0  0
  -24.8760  -29.0870   20.3650 C   0  0  0  0  0  0  0  0  0  0  0  0
  -25.8990  -31.0450   21.5360 C   0  0  0  0  0  2  0  0  0  0  0  0
  -26.0260  -29.6680   20.9160 C   0  0  0  0  0  0  0  0  0  0  0  0
  -27.2560  -28.9740   20.8890 C   0  0  0  0  0  3  0  0  0  0  0  0
  -26.1680  -27.1210   19.7410 C   0  0  0  0  0  3  0  0  0  0  0  0
  -24.9400  -27.8100   19.7780 C   0  0  0  0  0  3  0  0  0  0  0  0
  -23.5990  -29.8920   20.4360 C   0  0  0  0  0  2  0  0  0  0  0  0
  -24.6500  -31.2430   22.3080 N   0  0  0  0  0  0  0  0  0  0  0  0
  -23.5170  -32.2900   23.9700 O   0  0  0  0  0  0  0  0  0  0  0  0
  -22.8230  -29.5460   22.8050 C   0  0  0  0  0  0  0  0  0  0  0  0
  -21.5430  -29.1840   22.6150 N   0  0  0  0  0  0  0  0  0  0  0  0
  -23.5250  -29.0660   23.6990 O   0  0  0  0  0  0  0  0  0  0  0  0
  -21.0340  -29.6290   21.8640 H   0  0  0  0  0  0  0  0  0  0  0  0
  -18.3720  -27.4740   22.8910 C   0  0  0  0  0  0  0  0  0  0  0  0
  -20.8010  -28.1970   23.3990 C   0  0  0  0  0  3  0  0  0  0  0  0
  -21.2040  -26.7580   23.0060 C   0  0  0  0  0  2  0  0  0  0  0  0
  -20.3010  -26.1520   21.9260 C   0  0  0  0  0  2  0  0  0  0  0  0
  -18.8460  -26.1170   22.4010 C   0  0  0  0  0  2  0  0  0  0  0  0
  -19.2920  -28.4570   23.3450 C   0  0  0  0  0  0  0  0  0  0  0  0
  -18.8020  -29.7150   23.7580 C   0  0  0  0  0  3  0  0  0  0  0  0
  -17.4240  -29.9980   23.7230 C   0  0  0  0  0  3  0  0  0  0  0  0
  -16.5160  -29.0160   23.2900 C   0  0  0  0  0  3  0  0  0  0  0  0
  -16.9900  -27.7560   22.8800 C   0  0  0  0  0  3  0  0  0  0  0  0
  -25.8690  -32.7470   23.9750 C   0  0  0  0  0  3  0  0  0  0  0  0
  -26.4130  -32.0580   25.2860 C   0  0  1  0  0  0  0  0  0  0  0  0
  -25.3280  -31.8290   26.3640 C   0  0  0  0  0  1  0  0  0  0  0  0
  -27.0520  -30.6890   24.9570 C   0  0  0  0  0  1  0  0  0  0  0  0
  -27.5290  -32.9280   25.9120 C   0  0  0  0  0  1  0  0  0  0  0  0
  -25.5340  -34.1540   24.2280 N   0  0  0  0  0  0  0  0  0  0  0  0
  -25.8440  -35.1680   23.4090 C   0  0  0  0  0  0  0  0  0  0  0  0
  -26.5140  -35.0200   22.3830 O   0  0  0  0  0  0  0  0  0  0  0  0
  -24.9380  -34.3420   25.0210 H   0  0  0  0  0  0  0  0  0  0  0  0
  -24.0700  -36.8950   22.9640 C   0  0  0  0  0  1  0  0  0  0  0  0
  -25.3270  -36.5690   23.7870 C   0  0  0  0  0  3  0  0  0  0  0  0
  -27.4440  -37.5510   24.5510 C   0  0  0  0  0  1  0  0  0  0  0  0
  -26.3330  -37.6370   23.6050 N   0  0  0  0  0  0  0  0  0  0  0  0
  -25.9070  -38.5540   23.7000 H   0  0  0  0  0  0  0  0  0  0  0  0
  -29.0260  -19.0300   21.3520 C   0  0  0  0  0  2  0  0  0  0  0  0
  -30.3890  -18.4830   23.4280 C   0  0  0  0  0  1  0  0  0  0  0  0
  -30.4200  -18.5930   21.8950 C   0  0  0  0  0  3  0  0  0  0  0  0
  -31.0620  -17.3150   21.2830 C   0  0  0  0  0  2  0  0  0  0  0  0
  -31.2220  -14.8760   21.6380 C   0  0  0  0  0  0  0  0  0  0  0  0
  -31.0650  -12.5680   20.8170 C   0  0  0  0  0  2  0  0  0  0  0  0
  -30.4040  -12.5910   19.4250 C   0  0  0  0  0  2  0  0  0  0  0  0
  -28.8700  -12.5370   19.5520 C   0  0  0  0  0  2  0  0  0  0  0  0
  -28.3110  -13.5570   20.5790 C   0  0  0  0  0  3  0  0  0  0  0  0
  -29.1080  -13.5150   21.9010 C   0  0  0  0  0  2  0  0  0  0  0  0
  -30.5290  -13.7080   21.5780 N   0  0  0  0  0  0  0  0  0  0  0  0
  -32.4380  -14.9310   21.4450 O   0  0  0  0  0  0  0  0  0  0  0  0
  -30.4930  -16.0120   21.6820 N   0  0  0  0  0  0  0  0  0  0  0  0
  -29.4970  -15.9390   21.8210 H   0  0  0  0  0  0  0  0  0  0  0  0
  -25.8670  -14.3070   20.8770 C   0  0  0  0  0  0  0  0  0  0  0  0
  -24.7030  -13.6000   21.0170 C   0  0  0  0  0  0  0  0  0  0  0  0
  -25.0750  -12.2220   21.0130 C   0  0  0  0  0  0  0  0  0  0  0  0
  -26.8790  -13.3630   20.8010 N   0  0  0  0  0  0  0  0  0  0  0  0
  -26.3950  -12.1020   20.9380 N   0  0  0  0  0  0  0  0  0  0  0  0
  -24.2490  -11.0080   21.0170 C   0  0  0  0  0  0  0  0  0  0  0  0
  -24.4820   -9.9590   21.9340 C   0  0  0  0  0  3  0  0  0  0  0  0
  -23.6600   -8.8110   21.9320 C   0  0  0  0  0  3  0  0  0  0  0  0
  -22.5930   -8.7030   21.0100 C   0  0  0  0  0  0  0  0  0  0  0  0
  -22.3810   -9.7390   20.0840 C   0  0  0  0  0  3  0  0  0  0  0  0
  -23.2020  -10.8790   20.0830 C   0  0  0  0  0  3  0  0  0  0  0  0
  -21.7630   -7.6120   20.9150 O   0  0  0  0  0  0  0  0  0  0  0  0
  -21.5020   -6.8110   21.9980 C   0  0  0  0  0  0  0  0  0  0  0  0
  -20.9490   -7.3280   23.1910 C   0  0  0  0  0  3  0  0  0  0  0  0
  -20.6300   -6.4580   24.2530 C   0  0  0  0  0  3  0  0  0  0  0  0
  -20.8540   -5.0750   24.1230 C   0  0  0  0  0  0  0  0  0  0  0  0
  -21.3980   -4.5590   22.9350 C   0  0  0  0  0  3  0  0  0  0  0  0
  -21.7190   -5.4250   21.8750 C   0  0  0  0  0  0  0  0  0  0  0  0
  -22.2230   -4.9200   20.7230 F   0  0  0  0  0  0  0  0  0  0  0  0
  -20.5410   -4.2390   25.1410 F   0  0  0  0  0  0  0  0  0  0  0  0
  -23.3130  -14.1670   21.0620 C   0  0  0  0  0  0  0  0  0  0  0  0
  -22.4020  -13.5070   21.7690 N   0  0  0  0  0  0  0  0  0  0  0  0
  -23.0390  -15.2300   20.5070 O   0  0  0  0  0  0  0  0  0  0  0  0
  -22.6330  -12.6500   22.2490 H   0  0  0  0  0  0  0  0  0  0  0  0
  -21.4610  -13.8690   21.8350 H   0  0  0  0  0  0  0  0  0  0  0  0
  -26.1520  -15.6660   20.7880 N   0  0  0  0  0  0  0  0  0  0  0  0
  -25.4210  -16.3650   20.8610 H   0  0  0  0  0  0  0  0  0  0  0  0
  -27.0790  -16.0620   20.8070 H   0  0  0  0  0  0  0  0  0  0  0  0
  1 16  1  0
  1 62  1  0
  3  4  1  0
  4  2  1  0
  4  1  1  0
  5 11  1  0
  5  2  1  0
  6  7  1  0
  6  3  1  0
  6  5  1  0
  7  8  1  0
  9  7  1  0
 10  7  1  0
 11 12  1  0
 12 15  1  0
 12 13  1  0
 14 12  1  0
 16 17  1  0
 18 17  1  0
 18 19  1  0
 19 20  1  0
 21 23  1  0
 21 20  1  0
 22 33  2  0
 23 28  1  0
 24 32  1  0
 24 34  1  0
 25 31  1  0
 25 27  1  0
 26 32  1  0
 27 26  1  0
 28 27  2  0
 29 30  1  0
 29 23  2  0
 30 25  2  0
 31 24  1  0
 32 22  1  0
 34 36  2  0
 35 34  1  0
 37 35  1  0
 38 43  1  0
 39 35  1  0
 40 39  1  0
 41 42  1  0
 41 40  1  0
 42 38  1  0
 43 39  1  0
 43 44  2  0
 45 44  1  0
 46 45  2  0
 47 38  2  0
 47 46  1  0
 48 22  1  0
 48 53  1  0
 48 49  1  0
 49 52  1  1
 49 50  1  0
 51 49  1  0
 53 56  1  0
 54 58  1  0
 54 53  1  0
 55 54  2  0
 58 57  1  0
 60 61  1  0
 60 58  1  0
 60 59  1  0
 62 64  1  0
 64 63  1  0
 65 74  1  0
 65 64  1  0
 66 74  1  0
 67 72  1  0
 68 69  1  0
 68 67  1  0
 70 69  1  0
 70 79  1  0
 70 71  1  0
 72 66  1  0
 72 71  1  0
 73 66  2  0
 74 75  1  0
 76 77  2  0
 77 96  1  0
 78 81  1  0
 78 77  1  0
 79 76  1  0
 79 80  1  0
 80 78  2  0
 81 82  1  0
 83 82  2  0
 84 83  1  0
 85 84  2  0
 86 85  1  0
 86 81  2  0
 87 84  1  0
 87 88  1  0
 88 89  1  0
 89 90  2  0
 91 90  1  0
 91 95  1  0
 92 91  2  0
 93 88  2  0
 93 92  1  0
 94 93  1  0
 96 97  1  0
 97100  1  0
 97 99  1  0
 98 96  2  0
101103  1  0
101102  1  0
101 76  1  0
M  ISO  4  20 101  21 101  66 100  74 100
M  END
>  <TORSDO>  (67) 
F 28

>  <SCORE>  (67) 
-2.390

>  <name>  (67) 
66

>  <ligand_id>  (67) 
66

>  <original_smiles>  (67) 
[H]c1c([H])c([H])c2c(c1[H])C([H])([H])C([H])([H])C([H])([H])C2([H])N([H])C(=O)C1([H])N(C(=O)C([H])(N([H])C(=O)C([H])(N([H])C([H])([H])[H])C([H])([H])[H])C(C([H])([H])[H])(C([H])([H])[H])C([H])([H])[H])C([H])([H])c2c([H])c(OC([H])([H])C([H])([H])C([H])([H])C([H])([H])C([H])([H])C([H])(C([H])([H])C([H])(C([H])([H])[H])C([H])([H])N([H])C(=O)N3C([H])([H])C([H])([H])C([H])([H])C([H])(n4nc(-c5c([H])c([H])c(Oc6c([H])c([H])c(F)c([H])c6F)c([H])c5[H])c(C(=O)N([H])[H])c4N([H])[H])C3([H])[H])C3([H])C([H])([H])C([H])(C([H])([H])[N+]([H])([H])[H])C([H])([N+]([H])([H])[H])C3([H])[H])c([H])c([H])c2C1([H])[H]

>  <smiles>  (67) 
[H]c1c([H])c([H])c2c(c1[H])C([H])([H])C([H])([H])C([H])([H])C2([H])N([H])C(=O)C1([H])N(C(=O)C([H])(N([H])C(=O)C([H])(N([H])C([H])([H])[H])C([H])([H])[H])C(C([H])([H])[H])(C([H])([H])[H])C([H])([H])[H])C([H])([H])c2c([H])c(OC([H])([H])C([H])([H])C([H])([H])C([H])([H])C([H])([H])C([H])(C([H])([H])C([H])(C([H])([H])[H])C([H])([H])N([H])C(=O)N3C([H])([H])C([H])([H])C([H])([H])C([H])(n4nc(-c5c([H])c([H])c(Oc6c([H])c([H])c(F)c([H])c6F)c([H])c5[H])c(C(=O)N([H])[H])c4N([H])[H])C3([H])[H])C3([H])C([H])([H])C([H])(C([H])([H])[N+]([H])([H])[H])C([H])([N+]([H])([H])[H])C3([H])[H])c([H])c([H])c2C1([H])[H]

$$$$
67:0:0
     RDKit          3D

 99107  0  0  1  0  0  0  0  0999 V2000
  -28.1740  -19.5830   17.8910 C   0  0  0  0  0  0  0  0  0  0  0  0
  -28.0390  -20.6020   17.0220 N   0  0  0  0  0  0  0  0  0  0  0  0
  -27.1660  -18.9470   18.1960 O   0  0  0  0  0  0  0  0  0  0  0  0
  -27.0860  -20.7550   16.7240 H   0  0  0  0  0  0  0  0  0  0  0  0
  -30.1250  -20.4980   19.1650 C   0  0  0  0  0  2  0  0  0  0  0  0
  -29.3780  -18.0810   19.6180 C   0  0  0  0  0  2  0  0  0  0  0  0
  -31.2800  -20.2340   20.1380 C   0  0  0  0  0  2  0  0  0  0  0  0
  -29.5330  -19.2170   18.5440 C   0  0  0  0  0  3  0  0  0  0  0  0
  -30.5300  -17.9440   20.6550 C   0  0  0  0  0  3  0  0  0  0  0  0
  -30.8790  -19.2860   21.2020 N   0  0  2  0  0  4  0  0  0  0  0  0
  -31.7030  -19.1350   21.7640 H   0  0  0  0  0  0  0  0  0  0  0  0
  -31.7660  -17.1340   20.1490 C   0  0  0  0  0  2  0  0  0  0  0  0
  -32.2580  -14.6220   19.9900 C   0  0  0  0  0  0  0  0  0  0  0  0
  -31.8500  -12.2810   19.3380 C   0  0  0  0  0  2  0  0  0  0  0  0
  -30.8880  -12.2880   18.1290 C   0  0  0  0  0  2  0  0  0  0  0  0
  -29.4170  -12.3730   18.5810 C   0  0  0  0  0  2  0  0  0  0  0  0
  -29.1740  -13.4990   19.6180 C   0  0  0  0  0  3  0  0  0  0  0  0
  -30.2160  -13.3890   20.7560 C   0  0  0  0  0  2  0  0  0  0  0  0
  -31.5550  -13.4710   20.1410 N   0  0  0  0  0  0  0  0  0  0  0  0
  -33.4040  -14.6830   19.5360 O   0  0  0  0  0  0  0  0  0  0  0  0
  -31.4950  -15.6980   20.2290 N   0  0  0  0  0  0  0  0  0  0  0  0
  -30.5700  -15.4480   20.5430 H   0  0  0  0  0  0  0  0  0  0  0  0
  -26.9940  -14.5390   20.5120 C   0  0  0  0  0  0  0  0  0  0  0  0
  -25.7940  -13.9810   20.8570 C   0  0  0  0  0  0  0  0  0  0  0  0
  -25.9420  -12.5720   20.6570 C   0  0  0  0  0  0  0  0  0  0  0  0
  -27.8100  -13.4820   20.1340 N   0  0  0  0  0  0  0  0  0  0  0  0
  -27.1800  -12.2900   20.2760 N   0  0  0  0  0  0  0  0  0  0  0  0
  -24.9630  -11.4840   20.7460 C   0  0  0  0  0  0  0  0  0  0  0  0
  -25.2430  -10.3010   21.4630 C   0  0  0  0  0  3  0  0  0  0  0  0
  -24.2810   -9.2720   21.5490 C   0  0  0  0  0  3  0  0  0  0  0  0
  -23.0230   -9.4230   20.9180 C   0  0  0  0  0  0  0  0  0  0  0  0
  -22.7570  -10.5940   20.1880 C   0  0  0  0  0  3  0  0  0  0  0  0
  -23.7180  -11.6150   20.0990 C   0  0  0  0  0  3  0  0  0  0  0  0
  -22.0340   -8.4680   20.9270 O   0  0  0  0  0  0  0  0  0  0  0  0
  -21.8970   -7.5880   21.9690 C   0  0  0  0  0  0  0  0  0  0  0  0
  -21.7530   -8.0240   23.3040 C   0  0  0  0  0  3  0  0  0  0  0  0
  -21.5480   -7.0830   24.3330 C   0  0  0  0  0  3  0  0  0  0  0  0
  -21.4760   -5.7100   24.0300 C   0  0  0  0  0  0  0  0  0  0  0  0
  -21.6120   -5.2750   22.7000 C   0  0  0  0  0  3  0  0  0  0  0  0
  -21.8210   -6.2130   21.6720 C   0  0  0  0  0  0  0  0  0  0  0  0
  -21.9330   -5.7880   20.3900 F   0  0  0  0  0  0  0  0  0  0  0  0
  -21.2690   -4.8070   25.0180 F   0  0  0  0  0  0  0  0  0  0  0  0
  -24.5450  -14.7120   21.2530 C   0  0  0  0  0  0  0  0  0  0  0  0
  -23.7280  -14.1060   22.1070 N   0  0  0  0  0  0  0  0  0  0  0  0
  -24.3120  -15.8500   20.8420 O   0  0  0  0  0  0  0  0  0  0  0  0
  -23.9340  -13.1810   22.4510 H   0  0  0  0  0  0  0  0  0  0  0  0
  -22.8850  -14.5680   22.4180 H   0  0  0  0  0  0  0  0  0  0  0  0
  -27.4570  -15.8520   20.4720 N   0  0  0  0  0  0  0  0  0  0  0  0
  -26.8240  -16.6300   20.6240 H   0  0  0  0  0  0  0  0  0  0  0  0
  -28.3060  -16.1220   19.9930 H   0  0  0  0  0  0  0  0  0  0  0  0
  -29.8380  -19.8100   22.1410 C   0  0  0  0  0  2  0  0  0  0  0  0
  -29.3560  -22.3470   21.9930 C   0  0  0  0  0  1  0  0  0  0  0  0
  -30.1130  -21.2200   22.7140 C   0  0  0  0  0  2  0  0  0  0  0  0
  -29.0230  -21.4590   16.3610 C   0  0  0  0  0  2  0  0  0  0  0  0
  -28.7220  -22.9600   16.5810 C   0  0  0  0  0  2  0  0  0  0  0  0
  -28.6950  -23.3740   18.0680 C   0  0  0  0  0  2  0  0  0  0  0  0
  -28.4120  -24.8620   18.3370 C   0  0  0  0  0  2  0  0  0  0  0  0
  -28.2190  -25.1270   19.8470 C   0  0  0  0  0  2  0  0  0  0  0  0
  -28.2390  -26.5120   20.1800 O   0  0  0  0  0  0  0  0  0  0  0  0
  -24.4930  -31.6510   23.3510 C   0  0  0  0  0  0  0  0  0  0  0  0
  -27.0560  -27.2200   20.1900 C   0  0  0  0  0  0  0  0  0  0  0  0
  -23.2690  -30.3320   21.6550 C   0  0  0  0  0  3  0  0  0  0  0  0
  -24.6970  -28.7750   20.2280 C   0  0  0  0  0  0  0  0  0  0  0  0
  -25.8050  -30.6150   21.5060 C   0  0  0  0  0  2  0  0  0  0  0  0
  -25.8600  -29.2550   20.8450 C   0  0  0  0  0  0  0  0  0  0  0  0
  -27.0380  -28.4790   20.8280 C   0  0  0  0  0  3  0  0  0  0  0  0
  -25.8730  -26.7480   19.5780 C   0  0  0  0  0  3  0  0  0  0  0  0
  -24.6970  -27.5220   19.5950 C   0  0  0  0  0  3  0  0  0  0  0  0
  -23.4810  -29.6720   20.2660 C   0  0  0  0  0  2  0  0  0  0  0  0
  -24.5400  -30.8770   22.2300 N   0  0  0  0  0  0  0  0  0  0  0  0
  -23.4130  -31.9400   23.8820 O   0  0  0  0  0  0  0  0  0  0  0  0
  -22.5700  -29.3060   22.5780 C   0  0  0  0  0  0  0  0  0  0  0  0
  -21.2420  -29.1770   22.4300 N   0  0  0  0  0  0  0  0  0  0  0  0
  -23.2210  -28.6280   23.3800 O   0  0  0  0  0  0  0  0  0  0  0  0
  -20.7790  -29.7890   21.7730 H   0  0  0  0  0  0  0  0  0  0  0  0
  -17.8270  -28.0650   22.8430 C   0  0  0  0  0  0  0  0  0  0  0  0
  -20.3850  -28.2420   23.1570 C   0  0  0  0  0  3  0  0  0  0  0  0
  -20.4590  -26.8220   22.5460 C   0  0  0  0  0  2  0  0  0  0  0  0
  -19.3560  -26.5420   21.5220 C   0  0  0  0  0  2  0  0  0  0  0  0
  -17.9700  -26.7190   22.1550 C   0  0  0  0  0  2  0  0  0  0  0  0
  -18.9600  -28.7840   23.3060 C   0  0  0  0  0  0  0  0  0  0  0  0
  -18.7730  -30.0430   23.9130 C   0  0  0  0  0  3  0  0  0  0  0  0
  -17.4820  -30.5830   24.0650 C   0  0  0  0  0  3  0  0  0  0  0  0
  -16.3610  -29.8610   23.6150 C   0  0  0  0  0  3  0  0  0  0  0  0
  -16.5350  -28.6040   23.0110 C   0  0  0  0  0  3  0  0  0  0  0  0
  -25.7890  -32.2240   24.0100 C   0  0  0  0  0  3  0  0  0  0  0  0
  -26.2030  -31.4690   25.3330 C   0  0  1  0  0  0  0  0  0  0  0  0
  -25.0600  -31.3580   26.3680 C   0  0  0  0  0  1  0  0  0  0  0  0
  -26.6960  -30.0400   25.0110 C   0  0  0  0  0  1  0  0  0  0  0  0
  -27.3870  -32.2040   26.0070 C   0  0  0  0  0  1  0  0  0  0  0  0
  -25.5540  -33.6470   24.2790 N   0  0  0  0  0  0  0  0  0  0  0  0
  -25.9750  -34.6480   23.4900 C   0  0  0  0  0  0  0  0  0  0  0  0
  -26.6680  -34.4630   22.4850 O   0  0  0  0  0  0  0  0  0  0  0  0
  -24.9440  -33.8710   25.0530 H   0  0  0  0  0  0  0  0  0  0  0  0
  -24.3540  -36.5110   23.0190 C   0  0  0  0  0  1  0  0  0  0  0  0
  -25.5540  -36.0770   23.8760 C   0  0  0  0  0  3  0  0  0  0  0  0
  -27.7110  -36.8820   24.7270 C   0  0  0  0  0  1  0  0  0  0  0  0
  -26.6450  -37.0650   23.7460 N   0  0  0  0  0  0  0  0  0  0  0  0
  -26.2850  -38.0110   23.8380 H   0  0  0  0  0  0  0  0  0  0  0  0
  1  3  2  0
  2  1  1  0
  4  2  1  0
  5  7  1  0
  6  9  1  0
  7 10  1  0
  8  1  1  0
  8  5  1  0
  8  6  1  0
  9 12  1  0
  9 10  1  0
 10 11  1  1
 10 51  1  0
 12 21  1  0
 13 19  1  0
 13 21  1  0
 14 19  1  0
 15 16  1  0
 15 14  1  0
 17 16  1  0
 17 26  1  0
 17 18  1  0
 19 18  1  0
 20 13  2  0
 21 22  1  0
 23 24  2  0
 24 43  1  0
 25 28  1  0
 25 24  1  0
 26 27  1  0
 26 23  1  0
 27 25  2  0
 28 29  1  0
 29 30  2  0
 31 34  1  0
 31 30  1  0
 32 31  2  0
 33 32  1  0
 33 28  2  0
 34 35  1  0
 35 36  1  0
 36 37  2  0
 38 37  1  0
 38 42  1  0
 39 38  2  0
 40 35  2  0
 40 39  1  0
 41 40  1  0
 43 44  1  0
 44 47  1  0
 44 46  1  0
 45 43  2  0
 48 23  1  0
 48 49  1  0
 50 48  1  0
 51 53  1  0
 52 53  1  0
 54 55  1  0
 54  2  1  0
 55 56  1  0
 56 57  1  0
 57 58  1  0
 58 59  1  0
 59 61  1  0
 60 71  2  0
 61 66  1  0
 62 70  1  0
 62 72  1  0
 63 69  1  0
 63 65  1  0
 64 70  1  0
 65 64  1  0
 66 65  2  0
 67 68  1  0
 67 61  2  0
 68 63  2  0
 69 62  1  0
 70 60  1  0
 72 74  2  0
 73 72  1  0
 75 73  1  0
 76 85  2  0
 76 81  1  0
 77 73  1  0
 77 81  1  0
 78 77  1  0
 79 80  1  0
 79 78  1  0
 80 76  1  0
 81 82  2  0
 82 83  1  0
 84 83  2  0
 85 84  1  0
 86 60  1  0
 86 91  1  0
 86 87  1  0
 87 90  1  1
 87 88  1  0
 89 87  1  0
 91 94  1  0
 92 96  1  0
 92 91  1  0
 93 92  2  0
 96 95  1  0
 98 99  1  0
 98 96  1  0
 98 97  1  0
M  ISO  4  13 100  21 100  58 101  59 101
M  END
>  <TORSDO>  (68) 
F 25

>  <SCORE>  (68) 
-9.465

>  <name>  (68) 
67

>  <ligand_id>  (68) 
67

>  <original_smiles>  (68) 
[H]c1c([H])c([H])c2c(c1[H])C([H])([H])C([H])([H])C([H])([H])C2([H])N([H])C(=O)C1([H])N(C(=O)C([H])(N([H])C(=O)C([H])(N([H])C([H])([H])[H])C([H])([H])[H])C(C([H])([H])[H])(C([H])([H])[H])C([H])([H])[H])C([H])([H])c2c([H])c(OC([H])([H])C([H])([H])C([H])([H])C([H])([H])C([H])([H])N([H])C(=O)C3([H])C([H])([H])C([H])([H])[N+]([H])(C([H])([H])C([H])([H])C([H])([H])[H])C([H])(C([H])([H])N([H])C(=O)N4C([H])([H])C([H])([H])C([H])([H])C([H])(n5nc(-c6c([H])c([H])c(Oc7c([H])c([H])c(F)c([H])c7F)c([H])c6[H])c(C(=O)N([H])[H])c5N([H])[H])C4([H])[H])C3([H])[H])c([H])c([H])c2C1([H])[H]

>  <smiles>  (68) 
[H]c1c([H])c([H])c2c(c1[H])C([H])([H])C([H])([H])C([H])([H])C2([H])N([H])C(=O)C1([H])N(C(=O)C([H])(N([H])C(=O)C([H])(N([H])C([H])([H])[H])C([H])([H])[H])C(C([H])([H])[H])(C([H])([H])[H])C([H])([H])[H])C([H])([H])c2c([H])c(OC([H])([H])C([H])([H])C([H])([H])C([H])([H])C([H])([H])N([H])C(=O)C3([H])C([H])([H])C([H])([H])[N+]([H])(C([H])([H])C([H])([H])C([H])([H])[H])C([H])(C([H])([H])N([H])C(=O)N4C([H])([H])C([H])([H])C([H])([H])C([H])(n5nc(-c6c([H])c([H])c(Oc7c([H])c([H])c(F)c([H])c7F)c([H])c6[H])c(C(=O)N([H])[H])c5N([H])[H])C4([H])[H])C3([H])[H])c([H])c([H])c2C1([H])[H]

$$$$
68:0:0
     RDKit          3D

 98106  0  0  1  0  0  0  0  0999 V2000
  -30.1750  -20.7210   20.2650 C   0  0  0  0  0  2  0  0  0  0  0  0
  -29.2270  -21.3370   21.3090 C   0  0  0  0  0  2  0  0  0  0  0  0
  -27.2930  -20.4960   20.0140 C   0  0  0  0  0  2  0  0  0  0  0  0
  -29.5970  -19.4160   19.6840 C   0  0  0  0  0  3  0  0  0  0  0  0
  -28.2400  -19.7700   19.0200 C   0  0  0  0  0  3  0  0  0  0  0  0
  -27.9020  -21.6640   20.7180 N   0  0  1  0  0  4  0  0  0  0  0  0
  -28.0630  -22.3720   20.0170 H   0  0  0  0  0  0  0  0  0  0  0  0
  -28.3520  -17.7550   17.3750 C   0  0  0  0  0  1  0  0  0  0  0  0
  -27.5140  -18.5620   18.3780 C   0  0  0  0  0  2  0  0  0  0  0  0
  -26.9280  -22.2290   21.6950 C   0  0  0  0  0  2  0  0  0  0  0  0
  -27.3710  -23.4810   22.4890 C   0  0  0  0  0  2  0  0  0  0  0  0
  -27.2040  -24.8480   21.7980 C   0  0  0  0  0  2  0  0  0  0  0  0
  -28.2990  -25.2170   20.7750 C   0  0  0  0  0  2  0  0  0  0  0  0
  -29.7720  -26.9470   21.9220 C   0  0  0  0  0  1  0  0  0  0  0  0
  -28.6960  -26.7090   20.8450 C   0  0  0  0  0  3  0  0  0  0  0  0
  -29.1680  -27.2550   19.4770 C   0  0  0  0  0  2  0  0  0  0  0  0
  -28.1090  -27.2710   18.5230 O   0  0  0  0  0  0  0  0  0  0  0  0
  -24.5390  -31.6870   22.8800 C   0  0  0  0  0  0  0  0  0  0  0  0
  -26.9570  -27.9570   18.8410 C   0  0  0  0  0  0  0  0  0  0  0  0
  -23.1880  -30.4720   21.1980 C   0  0  0  0  0  3  0  0  0  0  0  0
  -24.5100  -29.2590   19.3870 C   0  0  0  0  0  0  0  0  0  0  0  0
  -25.6470  -31.0190   20.7570 C   0  0  0  0  0  2  0  0  0  0  0  0
  -25.7070  -29.7690   19.9060 C   0  0  0  0  0  0  0  0  0  0  0  0
  -26.9310  -29.1230   19.6430 C   0  0  0  0  0  3  0  0  0  0  0  0
  -25.7480  -27.4600   18.3170 C   0  0  0  0  0  3  0  0  0  0  0  0
  -24.5240  -28.0980   18.5940 C   0  0  0  0  0  3  0  0  0  0  0  0
  -23.2440  -30.0160   19.7160 C   0  0  0  0  0  2  0  0  0  0  0  0
  -24.4810  -31.0680   21.6680 N   0  0  0  0  0  0  0  0  0  0  0  0
  -23.5280  -31.8100   23.5850 O   0  0  0  0  0  0  0  0  0  0  0  0
  -22.7140  -29.2810   22.0600 C   0  0  0  0  0  0  0  0  0  0  0  0
  -21.3990  -29.0130   22.0350 N   0  0  0  0  0  0  0  0  0  0  0  0
  -23.5200  -28.6040   22.7040 O   0  0  0  0  0  0  0  0  0  0  0  0
  -20.8010  -29.6160   21.4880 H   0  0  0  0  0  0  0  0  0  0  0  0
  -18.1930  -27.4550   22.6110 C   0  0  0  0  0  0  0  0  0  0  0  0
  -20.7320  -27.9180   22.7380 C   0  0  0  0  0  3  0  0  0  0  0  0
  -20.9110  -26.5810   21.9800 C   0  0  0  0  0  2  0  0  0  0  0  0
  -19.7640  -26.2780   21.0100 C   0  0  0  0  0  2  0  0  0  0  0  0
  -18.4290  -26.2180   21.7610 C   0  0  0  0  0  2  0  0  0  0  0  0
  -19.2730  -28.2620   23.0560 C   0  0  0  0  0  0  0  0  0  0  0  0
  -18.9970  -29.4220   23.8110 C   0  0  0  0  0  3  0  0  0  0  0  0
  -17.6710  -29.7790   24.1230 C   0  0  0  0  0  3  0  0  0  0  0  0
  -16.6060  -28.9660   23.6970 C   0  0  0  0  0  3  0  0  0  0  0  0
  -16.8680  -27.8050   22.9470 C   0  0  0  0  0  3  0  0  0  0  0  0
  -25.8720  -32.2930   23.4260 C   0  0  0  0  0  3  0  0  0  0  0  0
  -26.5730  -31.3810   24.5070 C   0  0  1  0  0  0  0  0  0  0  0  0
  -25.6330  -30.9480   25.6550 C   0  0  0  0  0  1  0  0  0  0  0  0
  -27.1430  -30.1010   23.8540 C   0  0  0  0  0  1  0  0  0  0  0  0
  -27.7720  -32.1300   25.1320 C   0  0  0  0  0  1  0  0  0  0  0  0
  -25.5630  -33.6170   23.9820 N   0  0  0  0  0  0  0  0  0  0  0  0
  -25.7850  -34.7770   23.3500 C   0  0  0  0  0  0  0  0  0  0  0  0
  -26.3490  -34.8460   22.2540 O   0  0  0  0  0  0  0  0  0  0  0  0
  -25.0570  -33.6340   24.8560 H   0  0  0  0  0  0  0  0  0  0  0  0
  -23.9820  -36.5230   23.4030 C   0  0  0  0  0  1  0  0  0  0  0  0
  -25.3030  -36.0650   24.0420 C   0  0  0  0  0  3  0  0  0  0  0  0
  -27.4810  -36.9050   24.7970 C   0  0  0  0  0  1  0  0  0  0  0  0
  -26.2920  -37.1640   23.9900 N   0  0  0  0  0  0  0  0  0  0  0  0
  -25.8790  -38.0380   24.3030 H   0  0  0  0  0  0  0  0  0  0  0  0
  -29.4910  -18.2710   20.7280 C   0  0  0  0  0  2  0  0  0  0  0  0
  -30.8350  -17.8330   21.3390 C   0  0  0  0  0  2  0  0  0  0  0  0
  -30.7020  -16.6930   22.3650 C   0  0  0  0  0  2  0  0  0  0  0  0
  -30.6120  -14.7350   20.8400 C   0  0  0  0  0  0  0  0  0  0  0  0
  -30.3350  -12.7140   19.4590 C   0  0  0  0  0  2  0  0  0  0  0  0
  -29.4190  -12.9930   18.2530 C   0  0  0  0  0  2  0  0  0  0  0  0
  -27.9400  -12.7860   18.6350 C   0  0  0  0  0  2  0  0  0  0  0  0
  -27.5540  -13.5300   19.9400 C   0  0  0  0  0  3  0  0  0  0  0  0
  -28.5820  -13.2480   21.0570 C   0  0  0  0  0  2  0  0  0  0  0  0
  -29.9230  -13.5990   20.5560 N   0  0  0  0  0  0  0  0  0  0  0  0
  -31.6570  -15.0560   20.2680 O   0  0  0  0  0  0  0  0  0  0  0  0
  -30.0920  -15.4880   21.8130 N   0  0  0  0  0  0  0  0  0  0  0  0
  -29.2320  -15.1650   22.2320 H   0  0  0  0  0  0  0  0  0  0  0  0
  -25.1290  -14.0350   20.6440 C   0  0  0  0  0  0  0  0  0  0  0  0
  -24.0670  -13.2160   20.9210 C   0  0  0  0  0  0  0  0  0  0  0  0
  -24.5540  -11.8810   20.7840 C   0  0  0  0  0  0  0  0  0  0  0  0
  -26.1940  -13.1940   20.3620 N   0  0  0  0  0  0  0  0  0  0  0  0
  -25.8500  -11.8890   20.5000 N   0  0  0  0  0  0  0  0  0  0  0  0
  -23.8470  -10.5960   20.8490 C   0  0  0  0  0  0  0  0  0  0  0  0
  -24.3110   -9.5390   21.6630 C   0  0  0  0  0  3  0  0  0  0  0  0
  -23.6050   -8.3180   21.7240 C   0  0  0  0  0  3  0  0  0  0  0  0
  -22.4200   -8.1460   20.9700 C   0  0  0  0  0  0  0  0  0  0  0  0
  -21.9750   -9.1930   20.1440 C   0  0  0  0  0  3  0  0  0  0  0  0
  -22.6820  -10.4050   20.0800 C   0  0  0  0  0  3  0  0  0  0  0  0
  -21.6820   -6.9870   20.9470 O   0  0  0  0  0  0  0  0  0  0  0  0
  -21.7010   -6.1010   21.9930 C   0  0  0  0  0  0  0  0  0  0  0  0
  -21.3590   -6.4900   23.3060 C   0  0  0  0  0  3  0  0  0  0  0  0
  -21.3230   -5.5310   24.3390 C   0  0  0  0  0  3  0  0  0  0  0  0
  -21.6200   -4.1850   24.0590 C   0  0  0  0  0  0  0  0  0  0  0  0
  -21.9560   -3.7930   22.7520 C   0  0  0  0  0  3  0  0  0  0  0  0
  -21.9930   -4.7490   21.7210 C   0  0  0  0  0  0  0  0  0  0  0  0
  -22.2960   -4.3630   20.4580 F   0  0  0  0  0  0  0  0  0  0  0  0
  -21.5790   -3.2620   25.0500 F   0  0  0  0  0  0  0  0  0  0  0  0
  -22.6570  -13.6460   21.2040 C   0  0  0  0  0  0  0  0  0  0  0  0
  -21.9310  -12.8730   22.0060 N   0  0  0  0  0  0  0  0  0  0  0  0
  -22.2050  -14.6970   20.7540 O   0  0  0  0  0  0  0  0  0  0  0  0
  -22.3100  -12.0200   22.3910 H   0  0  0  0  0  0  0  0  0  0  0  0
  -20.9840  -13.1370   22.2360 H   0  0  0  0  0  0  0  0  0  0  0  0
  -25.2740  -15.4190   20.5910 N   0  0  0  0  0  0  0  0  0  0  0  0
  -24.4950  -16.0510   20.7380 H   0  0  0  0  0  0  0  0  0  0  0  0
  -26.1280  -15.8900   20.3260 H   0  0  0  0  0  0  0  0  0  0  0  0
  1  2  1  0
  3  6  1  0
  4  1  1  0
  4 58  1  0
  5  9  1  0
  5  4  1  0
  5  3  1  0
  6  2  1  0
  6 10  1  0
  6  7  1  6
  8  9  1  0
 10 11  1  0
 12 11  1  0
 13 15  1  0
 13 12  1  0
 15 14  1  0
 16 15  1  0
 17 19  1  0
 17 16  1  0
 18 29  2  0
 19 24  1  0
 20 28  1  0
 20 30  1  0
 21 27  1  0
 21 23  1  0
 22 28  1  0
 23 22  1  0
 24 23  2  0
 25 26  1  0
 25 19  2  0
 26 21  2  0
 27 20  1  0
 28 18  1  0
 30 32  2  0
 31 30  1  0
 33 31  1  0
 34 43  2  0
 34 39  1  0
 35 31  1  0
 35 39  1  0
 36 35  1  0
 37 38  1  0
 37 36  1  0
 38 34  1  0
 39 40  2  0
 40 41  1  0
 42 41  2  0
 43 42  1  0
 44 18  1  0
 44 49  1  0
 44 45  1  0
 45 48  1  1
 45 46  1  0
 47 45  1  0
 49 52  1  0
 50 49  1  0
 50 54  1  0
 51 50  2  0
 54 53  1  0
 56 54  1  0
 56 57  1  0
 56 55  1  0
 58 59  1  0
 59 60  1  0
 61 69  1  0
 62 67  1  0
 63 64  1  0
 63 62  1  0
 65 64  1  0
 65 74  1  0
 65 66  1  0
 67 61  1  0
 67 66  1  0
 68 61  2  0
 69 70  1  0
 69 60  1  0
 71 72  2  0
 72 91  1  0
 73 76  1  0
 73 72  1  0
 74 75  1  0
 74 71  1  0
 75 73  2  0
 76 77  1  0
 77 78  2  0
 79 78  1  0
 80 79  2  0
 81 80  1  0
 81 76  2  0
 82 79  1  0
 82 83  1  0
 83 84  1  0
 84 85  2  0
 86 85  1  0
 86 90  1  0
 87 86  2  0
 88 83  2  0
 88 87  1  0
 89 88  1  0
 91 92  1  0
 92 95  1  0
 92 94  1  0
 93 91  2  0
 96 71  1  0
 96 97  1  0
 98 96  1  0
M  ISO  4  16 101  17 101  61 100  69 100
M  END
>  <TORSDO>  (69) 
F 26

>  <SCORE>  (69) 
-8.812

>  <name>  (69) 
68

>  <ligand_id>  (69) 
68

>  <original_smiles>  (69) 
[H]c1c([H])c([H])c2c(c1[H])C([H])([H])C([H])([H])C([H])([H])C2([H])N([H])C(=O)C1([H])N(C(=O)C([H])(N([H])C(=O)C([H])(N([H])C([H])([H])[H])C([H])([H])[H])C(C([H])([H])[H])(C([H])([H])[H])C([H])([H])[H])C([H])([H])c2c([H])c(OC([H])([H])C([H])(C([H])([H])[H])C([H])([H])C([H])([H])C([H])([H])C([H])([H])[N+]3([H])C([H])([H])C([H])([H])C([H])(C([H])([H])C([H])([H])C([H])([H])N([H])C(=O)N4C([H])([H])C([H])([H])C([H])([H])C([H])(n5nc(-c6c([H])c([H])c(Oc7c([H])c([H])c(F)c([H])c7F)c([H])c6[H])c(C(=O)N([H])[H])c5N([H])[H])C4([H])[H])C([H])(C([H])([H])C([H])([H])[H])C3([H])[H])c([H])c([H])c2C1([H])[H]

>  <smiles>  (69) 
[H]c1c([H])c([H])c2c(c1[H])C([H])([H])C([H])([H])C([H])([H])C2([H])N([H])C(=O)C1([H])N(C(=O)C([H])(N([H])C(=O)C([H])(N([H])C([H])([H])[H])C([H])([H])[H])C(C([H])([H])[H])(C([H])([H])[H])C([H])([H])[H])C([H])([H])c2c([H])c(OC([H])([H])C([H])(C([H])([H])[H])C([H])([H])C([H])([H])C([H])([H])C([H])([H])[N+]3([H])C([H])([H])C([H])([H])C([H])(C([H])([H])C([H])([H])C([H])([H])N([H])C(=O)N4C([H])([H])C([H])([H])C([H])([H])C([H])(n5nc(-c6c([H])c([H])c(Oc7c([H])c([H])c(F)c([H])c7F)c([H])c6[H])c(C(=O)N([H])[H])c5N([H])[H])C4([H])[H])C([H])(C([H])([H])C([H])([H])[H])C3([H])[H])c([H])c([H])c2C1([H])[H]

$$$$
69:0:0
     RDKit          3D

 94102  0  0  1  0  0  0  0  0999 V2000
  -29.4200  -21.0080   20.0460 C   0  0  0  0  0  0  0  0  0  0  0  0
  -30.4520  -20.6520   19.4650 O   0  0  0  0  0  0  0  0  0  0  0  0
  -27.8800  -18.7320   18.0350 C   0  0  0  0  0  3  0  0  0  0  0  0
  -28.7840  -18.1570   18.8540 C   0  0  0  0  0  0  0  0  0  0  0  0
  -28.8300  -18.5290   20.3360 C   0  0  0  0  0  2  0  0  0  0  0  0
  -26.9720  -20.1490   19.9610 C   0  0  0  0  0  2  0  0  0  0  0  0
  -26.8980  -19.8240   18.4510 C   0  0  0  0  0  3  0  0  0  0  0  0
  -28.3840  -19.9840   20.5660 C   0  0  0  0  0  3  0  0  0  0  0  0
  -25.4620  -19.5010   18.0110 C   0  0  0  0  0  1  0  0  0  0  0  0
  -29.8090  -17.1830   18.2880 C   0  0  0  0  0  2  0  0  0  0  0  0
  -31.0130  -16.8160   19.1770 C   0  0  0  0  0  2  0  0  0  0  0  0
  -31.4020  -14.7450   20.3880 C   0  0  0  0  0  0  0  0  0  0  0  0
  -31.0310  -12.5440   19.4360 C   0  0  0  0  0  2  0  0  0  0  0  0
  -30.1640  -12.7510   18.1770 C   0  0  0  0  0  2  0  0  0  0  0  0
  -28.6670  -12.7070   18.5410 C   0  0  0  0  0  2  0  0  0  0  0  0
  -28.3100  -13.6340   19.7330 C   0  0  0  0  0  3  0  0  0  0  0  0
  -29.3070  -13.4620   20.9060 C   0  0  0  0  0  2  0  0  0  0  0  0
  -30.6750  -13.6040   20.3850 N   0  0  0  0  0  0  0  0  0  0  0  0
  -32.6100  -14.7980   20.1520 O   0  0  0  0  0  0  0  0  0  0  0  0
  -30.6480  -15.8320   20.1950 N   0  0  0  0  0  0  0  0  0  0  0  0
  -29.6680  -15.7390   20.4100 H   0  0  0  0  0  0  0  0  0  0  0  0
  -25.9360  -14.3980   20.3700 C   0  0  0  0  0  0  0  0  0  0  0  0
  -24.8060  -13.6950   20.6880 C   0  0  0  0  0  0  0  0  0  0  0  0
  -25.1760  -12.3150   20.6550 C   0  0  0  0  0  0  0  0  0  0  0  0
  -26.9270  -13.4500   20.1640 N   0  0  0  0  0  0  0  0  0  0  0  0
  -26.4710  -12.1930   20.3960 N   0  0  0  0  0  0  0  0  0  0  0  0
  -24.3620  -11.1010   20.7960 C   0  0  0  0  0  0  0  0  0  0  0  0
  -24.7280  -10.0700   21.6890 C   0  0  0  0  0  3  0  0  0  0  0  0
  -23.9220   -8.9190   21.8230 C   0  0  0  0  0  3  0  0  0  0  0  0
  -22.7320   -8.7930   21.0640 C   0  0  0  0  0  0  0  0  0  0  0  0
  -22.3860   -9.8120   20.1600 C   0  0  0  0  0  3  0  0  0  0  0  0
  -23.1930  -10.9540   20.0230 C   0  0  0  0  0  3  0  0  0  0  0  0
  -21.8990   -7.7030   21.1120 O   0  0  0  0  0  0  0  0  0  0  0  0
  -21.8150   -6.9090   22.2270 C   0  0  0  0  0  0  0  0  0  0  0  0
  -21.4670   -7.4350   23.4910 C   0  0  0  0  0  3  0  0  0  0  0  0
  -21.3240   -6.5730   24.5960 C   0  0  0  0  0  3  0  0  0  0  0  0
  -21.5180   -5.1880   24.4400 C   0  0  0  0  0  0  0  0  0  0  0  0
  -21.8580   -4.6630   23.1800 C   0  0  0  0  0  3  0  0  0  0  0  0
  -22.0030   -5.5210   22.0770 C   0  0  0  0  0  0  0  0  0  0  0  0
  -22.3110   -5.0080   20.8610 F   0  0  0  0  0  0  0  0  0  0  0  0
  -21.3720   -4.3570   25.5000 F   0  0  0  0  0  0  0  0  0  0  0  0
  -23.4330  -14.2580   20.9140 C   0  0  0  0  0  0  0  0  0  0  0  0
  -22.6380  -13.6110   21.7580 N   0  0  0  0  0  0  0  0  0  0  0  0
  -23.0760  -15.3060   20.3750 O   0  0  0  0  0  0  0  0  0  0  0  0
  -22.9430  -12.7660   22.2180 H   0  0  0  0  0  0  0  0  0  0  0  0
  -21.7130  -13.9670   21.9470 H   0  0  0  0  0  0  0  0  0  0  0  0
  -26.2000  -15.7570   20.2140 N   0  0  0  0  0  0  0  0  0  0  0  0
  -25.4760  -16.4610   20.3000 H   0  0  0  0  0  0  0  0  0  0  0  0
  -27.0830  -16.1420   19.9080 H   0  0  0  0  0  0  0  0  0  0  0  0
  -29.1510  -22.4850   20.3280 C   0  0  0  0  0  2  0  0  0  0  0  0
  -30.1910  -23.4380   19.7010 C   0  0  0  0  0  2  0  0  0  0  0  0
  -30.0380  -24.8900   20.1760 C   0  0  0  0  0  2  0  0  0  0  0  0
  -28.6510  -25.4730   19.8930 C   0  0  0  0  0  2  0  0  0  0  0  0
  -28.6180  -26.8170   20.3450 O   0  0  0  0  0  0  0  0  0  0  0  0
  -24.6480  -31.8960   23.2880 C   0  0  0  0  0  0  0  0  0  0  0  0
  -27.4050  -27.4690   20.3160 C   0  0  0  0  0  0  0  0  0  0  0  0
  -23.4860  -30.4590   21.6430 C   0  0  0  0  0  3  0  0  0  0  0  0
  -24.9820  -28.9180   20.2740 C   0  0  0  0  0  0  0  0  0  0  0  0
  -26.0050  -30.8570   21.4720 C   0  0  0  0  0  2  0  0  0  0  0  0
  -26.1220  -29.4740   20.8700 C   0  0  0  0  0  0  0  0  0  0  0  0
  -27.3340  -28.7550   20.8900 C   0  0  0  0  0  3  0  0  0  0  0  0
  -26.2420  -26.9150   19.7290 C   0  0  0  0  0  3  0  0  0  0  0  0
  -25.0350  -27.6370   19.7030 C   0  0  0  0  0  3  0  0  0  0  0  0
  -23.7260  -29.7570   20.2790 C   0  0  0  0  0  2  0  0  0  0  0  0
  -24.7330  -31.0850   22.1960 N   0  0  0  0  0  0  0  0  0  0  0  0
  -23.5550  -32.1650   23.8020 O   0  0  0  0  0  0  0  0  0  0  0  0
  -22.8300  -29.4440   22.6050 C   0  0  0  0  0  0  0  0  0  0  0  0
  -21.5070  -29.2600   22.4650 N   0  0  0  0  0  0  0  0  0  0  0  0
  -23.5060  -28.8220   23.4280 O   0  0  0  0  0  0  0  0  0  0  0  0
  -21.0260  -29.8150   21.7710 H   0  0  0  0  0  0  0  0  0  0  0  0
  -18.1200  -28.1100   22.9650 C   0  0  0  0  0  0  0  0  0  0  0  0
  -20.6810  -28.3290   23.2300 C   0  0  0  0  0  3  0  0  0  0  0  0
  -20.7620  -26.9020   22.6420 C   0  0  0  0  0  2  0  0  0  0  0  0
  -19.6510  -26.6030   21.6300 C   0  0  0  0  0  2  0  0  0  0  0  0
  -18.2740  -26.7630   22.2790 C   0  0  0  0  0  2  0  0  0  0  0  0
  -19.2510  -28.8540   23.3950 C   0  0  0  0  0  0  0  0  0  0  0  0
  -19.0530  -30.1180   23.9920 C   0  0  0  0  0  3  0  0  0  0  0  0
  -17.7560  -30.6380   24.1630 C   0  0  0  0  0  3  0  0  0  0  0  0
  -16.6400  -29.8910   23.7480 C   0  0  0  0  0  3  0  0  0  0  0  0
  -16.8220  -28.6300   23.1560 C   0  0  0  0  0  3  0  0  0  0  0  0
  -25.9160  -32.5460   23.9260 C   0  0  0  0  0  3  0  0  0  0  0  0
  -25.5920  -33.9470   24.2270 N   0  0  0  0  0  0  0  0  0  0  0  0
  -25.9300  -34.9880   23.4540 C   0  0  0  0  0  0  0  0  0  0  0  0
  -26.6250  -34.8720   22.4400 O   0  0  0  0  0  0  0  0  0  0  0  0
  -24.9850  -34.1100   25.0170 H   0  0  0  0  0  0  0  0  0  0  0  0
  -24.1930  -36.7530   23.0190 C   0  0  0  0  0  1  0  0  0  0  0  0
  -25.4160  -36.3790   23.8720 C   0  0  0  0  0  3  0  0  0  0  0  0
  -27.5200  -37.2990   24.7390 C   0  0  0  0  0  1  0  0  0  0  0  0
  -26.4410  -37.4410   23.7650 N   0  0  0  0  0  0  0  0  0  0  0  0
  -26.0220  -38.3580   23.8930 H   0  0  0  0  0  0  0  0  0  0  0  0
  -26.4160  -31.7950   25.2200 C   0  0  1  0  0  0  0  0  0  0  0  0
  -25.3040  -31.5400   26.2620 C   0  0  0  0  0  1  0  0  0  0  0  0
  -27.0330  -30.4280   24.8430 C   0  0  0  0  0  1  0  0  0  0  0  0
  -27.5400  -32.6100   25.9020 C   0  0  0  0  0  1  0  0  0  0  0  0
  1 50  1  0
  2  1  2  0
  3  7  1  0
  3  4  2  0
  4  5  1  0
  5  8  1  0
  6  8  1  0
  7  9  1  0
  7  6  1  0
  8  1  1  0
 10  4  1  0
 10 11  1  0
 11 20  1  0
 13 18  1  0
 14 15  1  0
 14 13  1  0
 16 15  1  0
 16 25  1  0
 16 17  1  0
 18 12  1  0
 18 17  1  0
 19 12  2  0
 20 12  1  0
 20 21  1  0
 22 23  2  0
 23 42  1  0
 24 23  1  0
 24 27  1  0
 25 22  1  0
 25 26  1  0
 26 24  2  0
 27 28  1  0
 28 29  2  0
 30 33  1  0
 30 29  1  0
 31 30  2  0
 32 31  1  0
 32 27  2  0
 33 34  1  0
 34 35  1  0
 35 36  2  0
 37 36  1  0
 37 41  1  0
 38 37  2  0
 39 34  2  0
 39 38  1  0
 40 39  1  0
 42 43  1  0
 43 46  1  0
 43 45  1  0
 44 42  2  0
 47 48  1  0
 47 22  1  0
 49 47  1  0
 51 52  1  0
 51 50  1  0
 53 52  1  0
 53 54  1  0
 55 66  2  0
 56 54  1  0
 56 61  1  0
 57 65  1  0
 57 67  1  0
 58 64  1  0
 58 60  1  0
 59 65  1  0
 60 61  2  0
 60 59  1  0
 62 56  2  0
 63 62  1  0
 63 58  2  0
 64 57  1  0
 65 55  1  0
 67 69  2  0
 68 67  1  0
 70 68  1  0
 71 80  2  0
 71 76  1  0
 72 68  1  0
 72 76  1  0
 73 72  1  0
 74 75  1  0
 74 73  1  0
 75 71  1  0
 76 77  2  0
 77 78  1  0
 79 78  2  0
 80 79  1  0
 81 55  1  0
 81 82  1  0
 81 91  1  0
 82 85  1  0
 83 87  1  0
 83 82  1  0
 84 83  2  0
 87 86  1  0
 89 87  1  0
 89 90  1  0
 89 88  1  0
 91 94  1  1
 91 92  1  0
 93 91  1  0
M  ISO  4  12 100  20 100  53 101  54 101
M  END
>  <TORSDO>  (70) 
F 23

>  <SCORE>  (70) 
-11.150

>  <name>  (70) 
69

>  <ligand_id>  (70) 
69

>  <original_smiles>  (70) 
[H]C1=C(C([H])([H])C([H])([H])N([H])C(=O)N2C([H])([H])C([H])([H])C([H])([H])C([H])(n3nc(-c4c([H])c([H])c(Oc5c([H])c([H])c(F)c([H])c5F)c([H])c4[H])c(C(=O)N([H])[H])c3N([H])[H])C2([H])[H])C([H])([H])C([H])(C(=O)C([H])([H])C([H])([H])C([H])([H])C([H])([H])Oc2c([H])c([H])c3c(c2[H])C([H])([H])N(C(=O)C([H])(N([H])C(=O)C([H])(N([H])C([H])([H])[H])C([H])([H])[H])C(C([H])([H])[H])(C([H])([H])[H])C([H])([H])[H])C([H])(C(=O)N([H])C2([H])c4c([H])c([H])c([H])c([H])c4C([H])([H])C([H])([H])C2([H])[H])C3([H])[H])C([H])([H])C1([H])C([H])([H])[H]

>  <smiles>  (70) 
[H]C1=C(C([H])([H])C([H])([H])N([H])C(=O)N2C([H])([H])C([H])([H])C([H])([H])C([H])(n3nc(-c4c([H])c([H])c(Oc5c([H])c([H])c(F)c([H])c5F)c([H])c4[H])c(C(=O)N([H])[H])c3N([H])[H])C2([H])[H])C([H])([H])C([H])(C(=O)C([H])([H])C([H])([H])C([H])([H])C([H])([H])Oc2c([H])c([H])c3c(c2[H])C([H])([H])N(C(=O)C([H])(N([H])C(=O)C([H])(N([H])C([H])([H])[H])C([H])([H])[H])C(C([H])([H])[H])(C([H])([H])[H])C([H])([H])[H])C([H])(C(=O)N([H])C2([H])c4c([H])c([H])c([H])c([H])c4C([H])([H])C([H])([H])C2([H])[H])C3([H])[H])C([H])([H])C1([H])C([H])([H])[H]

$$$$
70:0:0
     RDKit          3D

 96104  0  0  1  0  0  0  0  0999 V2000
  -29.8270  -19.9430   21.3740 C   0  0  0  0  0  2  0  0  0  0  0  0
  -28.1810  -18.1290   20.7330 C   0  0  0  0  0  1  0  0  0  0  0  0
  -30.0230  -17.5870   22.2880 C   0  0  0  0  0  1  0  0  0  0  0  0
  -29.6700  -18.4260   21.0390 C   0  0  2  0  0  0  0  0  0  0  0  0
  -30.5170  -17.9530   19.8110 C   0  0  0  0  0  2  0  0  0  0  0  0
  -31.8930  -17.2380   20.0370 C   0  0  0  0  0  3  0  0  0  0  0  0
  -32.2920  -14.6940   19.8940 C   0  0  0  0  0  0  0  0  0  0  0  0
  -31.8120  -12.4760   18.9390 C   0  0  0  0  0  2  0  0  0  0  0  0
  -30.8640  -12.6660   17.7370 C   0  0  0  0  0  2  0  0  0  0  0  0
  -29.3920  -12.6820   18.1990 C   0  0  0  0  0  2  0  0  0  0  0  0
  -29.1460  -13.6350   19.4000 C   0  0  0  0  0  3  0  0  0  0  0  0
  -30.2060  -13.4130   20.5030 C   0  0  0  0  0  2  0  0  0  0  0  0
  -31.5380  -13.5620   19.8910 N   0  0  0  0  0  0  0  0  0  0  0  0
  -33.4380  -14.7310   19.4520 O   0  0  0  0  0  0  0  0  0  0  0  0
  -31.6070  -15.8010   20.2280 N   0  0  0  0  0  0  0  0  0  0  0  0
  -30.6950  -15.6020   20.6050 H   0  0  0  0  0  0  0  0  0  0  0  0
  -26.8530  -14.4850   20.2040 C   0  0  0  0  0  0  0  0  0  0  0  0
  -25.7190  -13.8260   20.5980 C   0  0  0  0  0  0  0  0  0  0  0  0
  -26.0280  -12.4330   20.5230 C   0  0  0  0  0  0  0  0  0  0  0  0
  -27.7860  -13.5010   19.9180 N   0  0  0  0  0  0  0  0  0  0  0  0
  -27.2940  -12.2610   20.1680 N   0  0  0  0  0  0  0  0  0  0  0  0
  -25.1740  -11.2540   20.7140 C   0  0  0  0  0  0  0  0  0  0  0  0
  -25.4900  -10.2620   21.6690 C   0  0  0  0  0  3  0  0  0  0  0  0
  -24.6450   -9.1450   21.8460 C   0  0  0  0  0  3  0  0  0  0  0  0
  -23.4690   -9.0150   21.0700 C   0  0  0  0  0  0  0  0  0  0  0  0
  -23.1720   -9.9930   20.1060 C   0  0  0  0  0  3  0  0  0  0  0  0
  -24.0160  -11.1020   19.9260 C   0  0  0  0  0  3  0  0  0  0  0  0
  -22.6020   -7.9510   21.1580 O   0  0  0  0  0  0  0  0  0  0  0  0
  -22.3680   -7.3100   22.3470 C   0  0  0  0  0  0  0  0  0  0  0  0
  -21.8660   -7.9930   23.4770 C   0  0  0  0  0  3  0  0  0  0  0  0
  -21.5740   -7.2820   24.6580 C   0  0  0  0  0  3  0  0  0  0  0  0
  -21.7710   -5.8900   24.7090 C   0  0  0  0  0  0  0  0  0  0  0  0
  -22.2630   -5.2060   23.5820 C   0  0  0  0  0  3  0  0  0  0  0  0
  -22.5580   -5.9150   22.4040 C   0  0  0  0  0  0  0  0  0  0  0  0
  -23.0130   -5.2480   21.3150 F   0  0  0  0  0  0  0  0  0  0  0  0
  -21.4810   -5.2030   25.8390 F   0  0  0  0  0  0  0  0  0  0  0  0
  -24.3920  -14.4480   20.9270 C   0  0  0  0  0  0  0  0  0  0  0  0
  -23.6330  -13.8340   21.8270 N   0  0  0  0  0  0  0  0  0  0  0  0
  -24.0410  -15.5130   20.4190 O   0  0  0  0  0  0  0  0  0  0  0  0
  -23.9310  -12.9710   22.2580 H   0  0  0  0  0  0  0  0  0  0  0  0
  -22.7420  -14.2300   22.0890 H   0  0  0  0  0  0  0  0  0  0  0  0
  -27.1580  -15.8330   20.0420 N   0  0  0  0  0  0  0  0  0  0  0  0
  -26.4570  -16.5540   20.1780 H   0  0  0  0  0  0  0  0  0  0  0  0
  -28.0150  -16.1820   19.6370 H   0  0  0  0  0  0  0  0  0  0  0  0
  -34.5240  -18.6240   18.0490 C   0  0  0  0  0  2  0  0  0  0  0  0
  -34.3950  -17.5040   19.0800 C   0  0  0  0  0  2  0  0  0  0  0  0
  -33.0590  -18.9500   18.3310 C   0  0  0  0  0  2  0  0  0  0  0  0
  -32.8650  -17.5160   18.8650 C   0  0  0  0  0  3  0  0  0  0  0  0
  -29.2230  -20.8360   20.3510 N   0  0  0  0  0  4  0  0  0  0  0  0
  -29.5540  -20.5580   19.4410 H   0  0  0  0  0  0  0  0  0  0  0  0
  -28.2270  -20.6870   20.3760 H   0  0  0  0  0  0  0  0  0  0  0  0
  -29.4810  -22.2870   20.5220 C   0  0  0  0  0  2  0  0  0  0  0  0
  -28.8100  -23.1190   19.4020 C   0  0  0  0  0  2  0  0  0  0  0  0
  -29.2050  -24.6150   19.3270 C   0  0  0  0  0  2  0  0  0  0  0  0
  -28.6790  -25.4930   20.4780 C   0  0  0  0  0  2  0  0  0  0  0  0
  -28.7820  -26.8910   20.1650 O   0  0  0  0  0  0  0  0  0  0  0  0
  -24.6890  -31.7600   23.3350 C   0  0  0  0  0  0  0  0  0  0  0  0
  -27.5910  -27.5830   20.1320 C   0  0  0  0  0  0  0  0  0  0  0  0
  -23.5880  -30.4000   21.5850 C   0  0  0  0  0  3  0  0  0  0  0  0
  -25.1410  -28.9910   20.1320 C   0  0  0  0  0  0  0  0  0  0  0  0
  -26.1020  -30.8640   21.4860 C   0  0  0  0  0  2  0  0  0  0  0  0
  -26.2590  -29.5330   20.7800 C   0  0  0  0  0  0  0  0  0  0  0  0
  -27.4890  -28.8390   20.7690 C   0  0  0  0  0  3  0  0  0  0  0  0
  -26.4590  -27.0550   19.4700 C   0  0  0  0  0  3  0  0  0  0  0  0
  -25.2380  -27.7550   19.4710 C   0  0  0  0  0  3  0  0  0  0  0  0
  -23.8630  -29.7980   20.1830 C   0  0  0  0  0  2  0  0  0  0  0  0
  -24.8090  -31.0210   22.1950 N   0  0  0  0  0  0  0  0  0  0  0  0
  -23.5820  -31.9630   23.8530 O   0  0  0  0  0  0  0  0  0  0  0  0
  -22.9470  -29.3100   22.4740 C   0  0  0  0  0  0  0  0  0  0  0  0
  -21.6360  -29.0820   22.2890 N   0  0  0  0  0  0  0  0  0  0  0  0
  -23.6280  -28.6740   23.2810 O   0  0  0  0  0  0  0  0  0  0  0  0
  -21.1480  -29.6500   21.6130 H   0  0  0  0  0  0  0  0  0  0  0  0
  -18.2940  -27.7500   22.6170 C   0  0  0  0  0  0  0  0  0  0  0  0
  -20.8310  -28.0770   22.9830 C   0  0  0  0  0  3  0  0  0  0  0  0
  -21.0000  -26.6840   22.3340 C   0  0  0  0  0  2  0  0  0  0  0  0
  -19.9400  -26.3800   21.2710 C   0  0  0  0  0  2  0  0  0  0  0  0
  -18.5360  -26.4450   21.8780 C   0  0  0  0  0  2  0  0  0  0  0  0
  -19.3720  -28.5250   23.1230 C   0  0  0  0  0  0  0  0  0  0  0  0
  -19.0910  -29.7470   23.7700 C   0  0  0  0  0  3  0  0  0  0  0  0
  -17.7650  -30.1940   23.9220 C   0  0  0  0  0  3  0  0  0  0  0  0
  -16.7010  -29.4160   23.4350 C   0  0  0  0  0  3  0  0  0  0  0  0
  -16.9670  -28.1960   22.7850 C   0  0  0  0  0  3  0  0  0  0  0  0
  -25.9310  -32.4030   24.0280 C   0  0  0  0  0  3  0  0  0  0  0  0
  -26.3930  -31.6270   25.3230 C   0  0  1  0  0  0  0  0  0  0  0  0
  -25.2460  -31.3480   26.3220 C   0  0  0  0  0  1  0  0  0  0  0  0
  -27.0320  -30.2700   24.9440 C   0  0  0  0  0  1  0  0  0  0  0  0
  -27.4870  -32.4390   26.0560 C   0  0  0  0  0  1  0  0  0  0  0  0
  -25.5860  -33.7930   24.3510 N   0  0  0  0  0  0  0  0  0  0  0  0
  -25.9460  -34.8550   23.6170 C   0  0  0  0  0  0  0  0  0  0  0  0
  -26.6740  -34.7660   22.6240 O   0  0  0  0  0  0  0  0  0  0  0  0
  -24.9480  -33.9360   25.1200 H   0  0  0  0  0  0  0  0  0  0  0  0
  -24.2130  -36.6230   23.1790 C   0  0  0  0  0  1  0  0  0  0  0  0
  -25.4150  -36.2340   24.0550 C   0  0  0  0  0  3  0  0  0  0  0  0
  -27.4890  -37.1450   25.0010 C   0  0  0  0  0  1  0  0  0  0  0  0
  -26.4360  -37.3020   24.0010 N   0  0  0  0  0  0  0  0  0  0  0  0
  -26.0090  -38.2160   24.1290 H   0  0  0  0  0  0  0  0  0  0  0  0
  4  2  1  6
  4  1  1  0
  4  3  1  0
  5  4  1  0
  6  5  1  0
  6 15  1  0
  7 15  1  0
  8 13  1  0
  9 10  1  0
  9  8  1  0
 11 10  1  0
 11 20  1  0
 11 12  1  0
 13  7  1  0
 13 12  1  0
 14  7  2  0
 15 16  1  0
 17 18  2  0
 18 37  1  0
 19 18  1  0
 19 22  1  0
 20 21  1  0
 20 17  1  0
 21 19  2  0
 22 23  1  0
 23 24  2  0
 25 28  1  0
 25 24  1  0
 26 25  2  0
 27 26  1  0
 27 22  2  0
 28 29  1  0
 29 34  2  0
 29 30  1  0
 30 31  2  0
 31 32  1  0
 32 36  1  0
 33 32  2  0
 34 33  1  0
 35 34  1  0
 37 38  1  0
 38 41  1  0
 38 40  1  0
 39 37  2  0
 42 43  1  0
 42 17  1  0
 44 42  1  0
 45 47  1  0
 45 46  1  0
 47 48  1  0
 48 46  1  0
 48  6  1  0
 49 51  1  0
 49 52  1  0
 49  1  1  0
 50 49  1  0
 53 52  1  0
 54 53  1  0
 54 55  1  0
 56 55  1  0
 57 68  2  0
 58 56  1  0
 58 63  1  0
 59 67  1  0
 59 69  1  0
 60 66  1  0
 60 62  1  0
 61 67  1  0
 62 61  1  0
 63 62  2  0
 64 65  1  0
 64 58  2  0
 65 60  2  0
 66 59  1  0
 67 57  1  0
 69 71  2  0
 70 69  1  0
 72 70  1  0
 73 82  2  0
 73 78  1  0
 74 70  1  0
 74 78  1  0
 75 74  1  0
 76 77  1  0
 76 75  1  0
 77 73  1  0
 78 79  2  0
 79 80  1  0
 81 80  2  0
 82 81  1  0
 83 57  1  0
 83 88  1  0
 83 84  1  0
 84 87  1  1
 84 85  1  0
 86 84  1  0
 88 91  1  0
 89 93  1  0
 89 88  1  0
 90 89  2  0
 93 92  1  0
 95 93  1  0
 95 96  1  0
 95 94  1  0
M  ISO  4   7 100  15 100  55 101  56 101
M  END
>  <TORSDO>  (71) 
F 25

>  <SCORE>  (71) 
-9.761

>  <name>  (71) 
70

>  <ligand_id>  (71) 
70

>  <original_smiles>  (71) 
[H]c1c([H])c([H])c2c(c1[H])C([H])([H])C([H])([H])C([H])([H])C2([H])N([H])C(=O)C1([H])N(C(=O)C([H])(N([H])C(=O)C([H])(N([H])C([H])([H])[H])C([H])([H])[H])C(C([H])([H])[H])(C([H])([H])[H])C([H])([H])[H])C([H])([H])c2c([H])c(OC([H])([H])C([H])([H])C([H])([H])C([H])([H])[N+]([H])([H])C([H])([H])C(C([H])([H])[H])(C([H])([H])[H])C([H])([H])C([H])(N([H])C(=O)N3C([H])([H])C([H])([H])C([H])([H])C([H])(n4nc(-c5c([H])c([H])c(Oc6c([H])c([H])c(F)c([H])c6F)c([H])c5[H])c(C(=O)N([H])[H])c4N([H])[H])C3([H])[H])C3([H])C([H])([H])C([H])([H])C3([H])[H])c([H])c([H])c2C1([H])[H]

>  <smiles>  (71) 
[H]c1c([H])c([H])c2c(c1[H])C([H])([H])C([H])([H])C([H])([H])C2([H])N([H])C(=O)C1([H])N(C(=O)C([H])(N([H])C(=O)C([H])(N([H])C([H])([H])[H])C([H])([H])[H])C(C([H])([H])[H])(C([H])([H])[H])C([H])([H])[H])C([H])([H])c2c([H])c(OC([H])([H])C([H])([H])C([H])([H])C([H])([H])[N+]([H])([H])C([H])([H])C(C([H])([H])[H])(C([H])([H])[H])C([H])([H])C([H])(N([H])C(=O)N3C([H])([H])C([H])([H])C([H])([H])C([H])(n4nc(-c5c([H])c([H])c(Oc6c([H])c([H])c(F)c([H])c6F)c([H])c5[H])c(C(=O)N([H])[H])c4N([H])[H])C3([H])[H])C3([H])C([H])([H])C([H])([H])C3([H])[H])c([H])c([H])c2C1([H])[H]

$$$$
71:0:0
     RDKit          3D

 94102  0  0  1  0  0  0  0  0999 V2000
  -30.0260  -20.5800   23.7680 C   0  0  0  0  0  1  0  0  0  0  0  0
  -30.3830  -21.2750   22.4400 C   0  0  0  0  0  3  0  0  0  0  0  0
  -30.2110  -22.8160   22.6000 C   0  0  0  0  0  2  0  0  0  0  0  0
  -30.3980  -23.6750   21.3270 C   0  0  0  0  0  2  0  0  0  0  0  0
  -29.9930  -25.1550   21.5390 C   0  0  0  0  0  2  0  0  0  0  0  0
  -30.1900  -26.0460   20.2940 C   0  0  0  0  0  2  0  0  0  0  0  0
  -29.8520  -27.4120   20.5780 O   0  0  0  0  0  0  0  0  0  0  0  0
  -24.9220  -31.7470   23.3120 C   0  0  0  0  0  0  0  0  0  0  0  0
  -28.5520  -27.8690   20.4760 C   0  0  0  0  0  0  0  0  0  0  0  0
  -24.1260  -30.2030   21.5520 C   0  0  0  0  0  3  0  0  0  0  0  0
  -25.9420  -28.9570   20.2690 C   0  0  0  0  0  0  0  0  0  0  0  0
  -26.5650  -30.9770   21.6020 C   0  0  0  0  0  2  0  0  0  0  0  0
  -26.9350  -29.6530   20.9660 C   0  0  0  0  0  0  0  0  0  0  0  0
  -28.2380  -29.1170   21.0640 C   0  0  0  0  0  3  0  0  0  0  0  0
  -27.5310  -27.1810   19.7760 C   0  0  0  0  0  3  0  0  0  0  0  0
  -26.2350  -27.7190   19.6740 C   0  0  0  0  0  3  0  0  0  0  0  0
  -24.5750  -29.5990   20.1940 C   0  0  0  0  0  2  0  0  0  0  0  0
  -25.2140  -30.9930   22.2150 N   0  0  0  0  0  0  0  0  0  0  0  0
  -23.7650  -31.8240   23.7470 O   0  0  0  0  0  0  0  0  0  0  0  0
  -23.5680  -29.0650   22.4370 C   0  0  0  0  0  0  0  0  0  0  0  0
  -22.3060  -28.6790   22.1890 N   0  0  0  0  0  0  0  0  0  0  0  0
  -24.2710  -28.5340   23.3010 O   0  0  0  0  0  0  0  0  0  0  0  0
  -21.7930  -29.1700   21.4700 H   0  0  0  0  0  0  0  0  0  0  0  0
  -19.1380  -26.9530   22.3630 C   0  0  0  0  0  0  0  0  0  0  0  0
  -21.5860  -27.6040   22.8720 C   0  0  0  0  0  3  0  0  0  0  0  0
  -21.9680  -26.2230   22.2910 C   0  0  0  0  0  2  0  0  0  0  0  0
  -21.0260  -25.7560   21.1770 C   0  0  0  0  0  2  0  0  0  0  0  0
  -19.5870  -25.6660   21.6930 C   0  0  0  0  0  2  0  0  0  0  0  0
  -20.0770  -27.8700   22.9030 C   0  0  0  0  0  0  0  0  0  0  0  0
  -19.6080  -29.0690   23.4820 C   0  0  0  0  0  3  0  0  0  0  0  0
  -18.2300  -29.3530   23.5330 C   0  0  0  0  0  3  0  0  0  0  0  0
  -17.3030  -28.4340   23.0110 C   0  0  0  0  0  3  0  0  0  0  0  0
  -17.7570  -27.2350   22.4320 C   0  0  0  0  0  3  0  0  0  0  0  0
  -26.0210  -32.5670   24.0570 C   0  0  0  0  0  3  0  0  0  0  0  0
  -25.4940  -33.9220   24.2690 N   0  0  0  0  0  0  0  0  0  0  0  0
  -25.7840  -34.9790   23.4980 C   0  0  0  0  0  0  0  0  0  0  0  0
  -26.5920  -34.9280   22.5670 O   0  0  0  0  0  0  0  0  0  0  0  0
  -24.7850  -34.0260   24.9800 H   0  0  0  0  0  0  0  0  0  0  0  0
  -23.8910  -36.4970   22.8380 C   0  0  0  0  0  1  0  0  0  0  0  0
  -25.0640  -36.3040   23.8120 C   0  0  0  0  0  3  0  0  0  0  0  0
  -26.9520  -37.5050   24.8250 C   0  0  0  0  0  1  0  0  0  0  0  0
  -25.9550  -37.4840   23.7580 N   0  0  0  0  0  0  0  0  0  0  0  0
  -25.4160  -38.3450   23.8120 H   0  0  0  0  0  0  0  0  0  0  0  0
  -26.4590  -31.9190   25.4280 C   0  0  1  0  0  0  0  0  0  0  0  0
  -25.2740  -31.5720   26.3590 C   0  0  0  0  0  1  0  0  0  0  0  0
  -27.2630  -30.6200   25.1840 C   0  0  0  0  0  1  0  0  0  0  0  0
  -27.3990  -32.8840   26.1880 C   0  0  0  0  0  1  0  0  0  0  0  0
  -29.6420  -20.6410   21.2160 C   0  0  0  0  0  3  0  0  0  0  0  0
  -27.5990  -20.9540   19.6260 C   0  0  0  0  0  1  0  0  0  0  0  0
  -28.2410  -21.2740   20.9870 C   0  0  0  0  0  2  0  0  0  0  0  0
  -29.5370  -19.0790   21.2430 C   0  0  0  0  0  2  0  0  0  0  0  0
  -31.8770  -14.6950   20.6150 C   0  0  0  0  0  0  0  0  0  0  0  0
  -31.5470  -12.3370   19.9980 C   0  0  0  0  0  2  0  0  0  0  0  0
  -30.7720  -12.3020   18.6650 C   0  0  0  0  0  2  0  0  0  0  0  0
  -29.2470  -12.3720   18.9090 C   0  0  0  0  0  2  0  0  0  0  0  0
  -28.8290  -13.4680   19.9290 C   0  0  0  0  0  3  0  0  0  0  0  0
  -29.7440  -13.4620   21.1730 C   0  0  0  0  0  2  0  0  0  0  0  0
  -31.1320  -13.5580   20.7040 N   0  0  0  0  0  0  0  0  0  0  0  0
  -33.1050  -14.6560   20.4880 O   0  0  0  0  0  0  0  0  0  0  0  0
  -31.0750  -18.5930   19.2570 C   0  0  0  0  0  2  0  0  0  0  0  0
  -32.1020  -17.6240   18.6860 C   0  0  0  0  0  2  0  0  0  0  0  0
  -30.3830  -16.6930   20.8620 C   0  0  0  0  0  2  0  0  0  0  0  0
  -30.7150  -18.2190   20.7030 C   0  0  0  0  0  3  0  0  0  0  0  0
  -31.5510  -16.1940   18.6940 C   0  0  0  0  0  3  0  0  0  0  0  0
  -30.3620  -16.0290   17.7210 C   0  0  0  0  0  1  0  0  0  0  0  0
  -31.2090  -15.7510   20.0670 N   0  0  0  0  0  0  0  0  0  0  0  0
  -26.4710  -14.3760   20.4070 C   0  0  0  0  0  0  0  0  0  0  0  0
  -25.2870  -13.7470   20.6790 C   0  0  0  0  0  0  0  0  0  0  0  0
  -25.5810  -12.3480   20.7010 C   0  0  0  0  0  0  0  0  0  0  0  0
  -27.4170  -13.3700   20.2830 N   0  0  0  0  0  0  0  0  0  0  0  0
  -26.8790  -12.1460   20.5200 N   0  0  0  0  0  0  0  0  0  0  0  0
  -24.6930  -11.1860   20.8260 C   0  0  0  0  0  0  0  0  0  0  0  0
  -24.9730  -10.1370   21.7280 C   0  0  0  0  0  3  0  0  0  0  0  0
  -24.0950   -9.0380   21.8430 C   0  0  0  0  0  3  0  0  0  0  0  0
  -22.9200   -8.9850   21.0550 C   0  0  0  0  0  0  0  0  0  0  0  0
  -22.6570  -10.0210   20.1430 C   0  0  0  0  0  3  0  0  0  0  0  0
  -23.5360  -11.1110   20.0250 C   0  0  0  0  0  3  0  0  0  0  0  0
  -22.0210   -7.9460   21.0820 O   0  0  0  0  0  0  0  0  0  0  0  0
  -21.8780   -7.1460   22.1880 C   0  0  0  0  0  0  0  0  0  0  0  0
  -21.5730   -7.6790   23.4600 C   0  0  0  0  0  3  0  0  0  0  0  0
  -21.3670   -6.8150   24.5540 C   0  0  0  0  0  3  0  0  0  0  0  0
  -21.4570   -5.4210   24.3780 C   0  0  0  0  0  0  0  0  0  0  0  0
  -21.7570   -4.8890   23.1120 C   0  0  0  0  0  3  0  0  0  0  0  0
  -21.9640   -5.7500   22.0190 C   0  0  0  0  0  0  0  0  0  0  0  0
  -22.2320   -5.2310   20.7970 F   0  0  0  0  0  0  0  0  0  0  0  0
  -21.2520   -4.5910   25.4270 F   0  0  0  0  0  0  0  0  0  0  0  0
  -23.9400  -14.3940   20.8130 C   0  0  0  0  0  0  0  0  0  0  0  0
  -23.0580  -13.8160   21.6220 N   0  0  0  0  0  0  0  0  0  0  0  0
  -23.6760  -15.4490   20.2350 O   0  0  0  0  0  0  0  0  0  0  0  0
  -23.2800  -12.9620   22.1110 H   0  0  0  0  0  0  0  0  0  0  0  0
  -22.1480  -14.2340   21.7520 H   0  0  0  0  0  0  0  0  0  0  0  0
  -26.8150  -15.7130   20.2330 N   0  0  0  0  0  0  0  0  0  0  0  0
  -26.1220  -16.4540   20.2590 H   0  0  0  0  0  0  0  0  0  0  0  0
  -27.7340  -16.0390   19.9680 H   0  0  0  0  0  0  0  0  0  0  0  0
  2  3  1  0
  2  1  1  0
  4  5  1  0
  4  3  1  0
  6  7  1  0
  6  5  1  0
  8 19  2  0
  9  7  1  0
  9 14  1  0
 10 18  1  0
 10 20  1  0
 11 13  1  0
 12 18  1  0
 13 14  2  0
 13 12  1  0
 15  9  2  0
 16 15  1  0
 16 11  2  0
 17 11  1  0
 17 10  1  0
 18  8  1  0
 20 22  2  0
 21 20  1  0
 23 21  1  0
 24 33  2  0
 24 29  1  0
 25 21  1  0
 25 29  1  0
 26 25  1  0
 27 28  1  0
 27 26  1  0
 28 24  1  0
 29 30  2  0
 30 31  1  0
 32 31  2  0
 33 32  1  0
 34  8  1  0
 34 35  1  0
 34 44  1  0
 35 38  1  0
 36 40  1  0
 36 35  1  0
 37 36  2  0
 40 39  1  0
 42 40  1  0
 42 43  1  0
 42 41  1  0
 44 47  1  1
 44 45  1  0
 46 44  1  0
 48 50  1  0
 48 51  1  0
 48  2  1  0
 49 50  1  0
 52 58  1  0
 53 58  1  0
 54 55  1  0
 54 53  1  0
 56 55  1  0
 56 70  1  0
 56 57  1  0
 58 57  1  0
 59 52  2  0
 60 63  1  0
 61 64  1  0
 61 60  1  0
 63 62  1  0
 63 51  1  0
 64 65  1  0
 64 66  1  0
 66 52  1  0
 66 62  1  0
 67 68  2  0
 68 69  1  0
 68 87  1  0
 69 72  1  0
 70 67  1  0
 70 71  1  0
 71 69  2  0
 72 73  1  0
 73 74  2  0
 75 78  1  0
 75 74  1  0
 76 75  2  0
 77 76  1  0
 77 72  2  0
 78 79  1  0
 79 80  1  0
 80 81  2  0
 82 81  1  0
 82 86  1  0
 83 82  2  0
 84 79  2  0
 84 83  1  0
 85 84  1  0
 87 88  1  0
 88 91  1  0
 88 90  1  0
 89 87  2  0
 92 93  1  0
 92 67  1  0
 94 92  1  0
M  ISO  4   6 101   7 101  52 100  66 100
M  END
>  <TORSDO>  (72) 
F 23

>  <SCORE>  (72) 
-9.128

>  <name>  (72) 
71

>  <ligand_id>  (72) 
71

>  <original_smiles>  (72) 
[H]c1c([H])c([H])c2c(c1[H])C([H])([H])C([H])([H])C([H])([H])C2([H])N([H])C(=O)C1([H])N(C(=O)C([H])(N([H])C(=O)C([H])(N([H])C([H])([H])[H])C([H])([H])[H])C(C([H])([H])[H])(C([H])([H])[H])C([H])([H])[H])C([H])([H])c2c([H])c(OC([H])([H])C([H])([H])C([H])([H])C([H])([H])C([H])(C([H])([H])[H])C([H])(C([H])([H])C([H])([H])[H])C([H])([H])C3([H])C([H])([H])N(C(=O)N4C([H])([H])C([H])([H])C([H])([H])C([H])(n5nc(-c6c([H])c([H])c(Oc7c([H])c([H])c(F)c([H])c7F)c([H])c6[H])c(C(=O)N([H])[H])c5N([H])[H])C4([H])[H])C([H])(C([H])([H])[H])C([H])([H])C3([H])[H])c([H])c([H])c2C1([H])[H]

>  <smiles>  (72) 
[H]c1c([H])c([H])c2c(c1[H])C([H])([H])C([H])([H])C([H])([H])C2([H])N([H])C(=O)C1([H])N(C(=O)C([H])(N([H])C(=O)C([H])(N([H])C([H])([H])[H])C([H])([H])[H])C(C([H])([H])[H])(C([H])([H])[H])C([H])([H])[H])C([H])([H])c2c([H])c(OC([H])([H])C([H])([H])C([H])([H])C([H])([H])C([H])(C([H])([H])[H])C([H])(C([H])([H])C([H])([H])[H])C([H])([H])C3([H])C([H])([H])N(C(=O)N4C([H])([H])C([H])([H])C([H])([H])C([H])(n5nc(-c6c([H])c([H])c(Oc7c([H])c([H])c(F)c([H])c7F)c([H])c6[H])c(C(=O)N([H])[H])c5N([H])[H])C4([H])[H])C([H])(C([H])([H])[H])C([H])([H])C3([H])[H])c([H])c([H])c2C1([H])[H]

$$$$
72:0:0
     RDKit          3D

 92100  0  0  1  0  0  0  0  0999 V2000
  -29.5580  -21.5830   19.5770 C   0  0  0  0  0  2  0  0  0  0  0  0
  -31.6440  -20.2780   18.9430 C   0  0  0  0  0  1  0  0  0  0  0  0
  -30.5220  -20.4450   19.9890 C   0  0  0  0  0  3  0  0  0  0  0  0
  -28.7030  -18.6800   19.2270 C   0  0  0  0  0  2  0  0  0  0  0  0
  -29.3130  -17.2820   19.2300 C   0  0  0  0  0  3  0  0  0  0  0  0
  -29.7140  -19.1570   20.2720 C   0  0  0  0  0  3  0  0  0  0  0  0
  -30.3220  -17.7340   20.3130 C   0  0  0  0  0  3  0  0  0  0  0  0
  -29.8490  -16.7440   17.9090 C   0  0  0  0  0  1  0  0  0  0  0  0
  -30.3910  -16.9970   21.6650 C   0  0  0  0  0  2  0  0  0  0  0  0
  -30.7950  -14.6040   21.0350 C   0  0  0  0  0  0  0  0  0  0  0  0
  -30.6170  -12.4080   19.9270 C   0  0  0  0  0  2  0  0  0  0  0  0
  -29.7760  -12.5440   18.6410 C   0  0  0  0  0  2  0  0  0  0  0  0
  -28.2690  -12.4240   18.9420 C   0  0  0  0  0  2  0  0  0  0  0  0
  -27.8160  -13.3010   20.1410 C   0  0  0  0  0  3  0  0  0  0  0  0
  -28.7750  -13.1300   21.3440 C   0  0  0  0  0  2  0  0  0  0  0  0
  -30.1460  -13.4200   20.8810 N   0  0  0  0  0  0  0  0  0  0  0  0
  -31.9410  -14.8120   20.6270 O   0  0  0  0  0  0  0  0  0  0  0  0
  -30.0470  -15.5810   21.5600 N   0  0  0  0  0  0  0  0  0  0  0  0
  -29.1110  -15.3240   21.8300 H   0  0  0  0  0  0  0  0  0  0  0  0
  -25.3590  -13.9010   20.6440 C   0  0  0  0  0  0  0  0  0  0  0  0
  -24.2750  -13.1240   20.9440 C   0  0  0  0  0  0  0  0  0  0  0  0
  -24.7490  -11.7780   20.9790 C   0  0  0  0  0  0  0  0  0  0  0  0
  -26.4300  -13.0290   20.5140 N   0  0  0  0  0  0  0  0  0  0  0  0
  -26.0610  -11.7500   20.7750 N   0  0  0  0  0  0  0  0  0  0  0  0
  -24.0240  -10.5130   21.1400 C   0  0  0  0  0  0  0  0  0  0  0  0
  -24.4030   -9.5650   22.1170 C   0  0  0  0  0  3  0  0  0  0  0  0
  -23.6780   -8.3620   22.2620 C   0  0  0  0  0  3  0  0  0  0  0  0
  -22.5640   -8.0990   21.4290 C   0  0  0  0  0  0  0  0  0  0  0  0
  -22.2070   -9.0370   20.4440 C   0  0  0  0  0  3  0  0  0  0  0  0
  -22.9300  -10.2320   20.2980 C   0  0  0  0  0  3  0  0  0  0  0  0
  -21.8160   -6.9490   21.4810 O   0  0  0  0  0  0  0  0  0  0  0  0
  -21.6950   -6.2190   22.6360 C   0  0  0  0  0  0  0  0  0  0  0  0
  -21.1730   -6.7810   23.8210 C   0  0  0  0  0  3  0  0  0  0  0  0
  -21.0070   -5.9780   24.9680 C   0  0  0  0  0  3  0  0  0  0  0  0
  -21.3480   -4.6140   24.9250 C   0  0  0  0  0  0  0  0  0  0  0  0
  -21.8590   -4.0480   23.7450 C   0  0  0  0  0  3  0  0  0  0  0  0
  -22.0320   -4.8510   22.6040 C   0  0  0  0  0  0  0  0  0  0  0  0
  -22.5080   -4.2980   21.4620 F   0  0  0  0  0  0  0  0  0  0  0  0
  -21.1800   -3.8400   26.0220 F   0  0  0  0  0  0  0  0  0  0  0  0
  -22.8550  -13.5920   21.0960 C   0  0  0  0  0  0  0  0  0  0  0  0
  -22.0750  -12.9030   21.9190 N   0  0  0  0  0  0  0  0  0  0  0  0
  -22.4490  -14.6030   20.5240 O   0  0  0  0  0  0  0  0  0  0  0  0
  -22.4180  -12.0820   22.3970 H   0  0  0  0  0  0  0  0  0  0  0  0
  -21.1230  -13.1980   22.0740 H   0  0  0  0  0  0  0  0  0  0  0  0
  -25.5160  -15.2730   20.4530 N   0  0  0  0  0  0  0  0  0  0  0  0
  -24.7170  -15.8970   20.4700 H   0  0  0  0  0  0  0  0  0  0  0  0
  -26.3650  -15.7280   20.1450 H   0  0  0  0  0  0  0  0  0  0  0  0
  -30.1720  -22.9900   19.5440 C   0  0  0  0  0  2  0  0  0  0  0  0
  -29.1530  -24.0580   19.1230 C   0  0  0  0  0  2  0  0  0  0  0  0
  -29.8200  -25.4130   18.8420 C   0  0  0  0  0  2  0  0  0  0  0  0
  -28.8190  -26.5680   18.7660 C   0  0  0  0  0  2  0  0  0  0  0  0
  -28.3440  -26.8490   20.0790 O   0  0  0  0  0  0  0  0  0  0  0  0
  -24.5160  -31.9250   23.2710 C   0  0  0  0  0  0  0  0  0  0  0  0
  -27.1640  -27.5420   20.1300 C   0  0  0  0  0  0  0  0  0  0  0  0
  -23.3050  -30.5340   21.6190 C   0  0  0  0  0  3  0  0  0  0  0  0
  -24.7570  -29.0040   20.1880 C   0  0  0  0  0  0  0  0  0  0  0  0
  -25.8260  -30.9020   21.4170 C   0  0  0  0  0  2  0  0  0  0  0  0
  -25.9120  -29.5340   20.7770 C   0  0  0  0  0  0  0  0  0  0  0  0
  -27.1160  -28.8010   20.7610 C   0  0  0  0  0  3  0  0  0  0  0  0
  -25.9860  -27.0030   19.5680 C   0  0  0  0  0  3  0  0  0  0  0  0
  -24.7840  -27.7310   19.5910 C   0  0  0  0  0  3  0  0  0  0  0  0
  -23.5170  -29.8640   20.2340 C   0  0  0  0  0  2  0  0  0  0  0  0
  -24.5680  -31.1340   22.1620 N   0  0  0  0  0  0  0  0  0  0  0  0
  -23.4370  -32.1900   23.8180 O   0  0  0  0  0  0  0  0  0  0  0  0
  -22.6590  -29.5040   22.5720 C   0  0  0  0  0  0  0  0  0  0  0  0
  -21.3340  -29.3240   22.4490 N   0  0  0  0  0  0  0  0  0  0  0  0
  -23.3470  -28.8720   23.3780 O   0  0  0  0  0  0  0  0  0  0  0  0
  -20.8400  -29.8900   21.7720 H   0  0  0  0  0  0  0  0  0  0  0  0
  -17.9640  -28.1260   22.9490 C   0  0  0  0  0  0  0  0  0  0  0  0
  -20.5220  -28.3820   23.2170 C   0  0  0  0  0  3  0  0  0  0  0  0
  -20.6230  -26.9530   22.6320 C   0  0  0  0  0  2  0  0  0  0  0  0
  -19.5200  -26.6370   21.6170 C   0  0  0  0  0  2  0  0  0  0  0  0
  -18.1400  -26.7790   22.2660 C   0  0  0  0  0  2  0  0  0  0  0  0
  -19.0850  -28.8840   23.3820 C   0  0  0  0  0  0  0  0  0  0  0  0
  -18.8700  -30.1440   23.9820 C   0  0  0  0  0  3  0  0  0  0  0  0
  -17.5660  -30.6470   24.1510 C   0  0  0  0  0  3  0  0  0  0  0  0
  -16.4600  -29.8880   23.7320 C   0  0  0  0  0  3  0  0  0  0  0  0
  -16.6590  -28.6280   23.1380 C   0  0  0  0  0  3  0  0  0  0  0  0
  -25.8060  -32.5520   23.8880 C   0  0  0  0  0  3  0  0  0  0  0  0
  -25.5070  -33.9570   24.1990 N   0  0  0  0  0  0  0  0  0  0  0  0
  -25.8660  -34.9980   23.4340 C   0  0  0  0  0  0  0  0  0  0  0  0
  -26.5530  -34.8740   22.4160 O   0  0  0  0  0  0  0  0  0  0  0  0
  -24.8930  -34.1260   24.9830 H   0  0  0  0  0  0  0  0  0  0  0  0
  -24.1750  -36.8110   23.0140 C   0  0  0  0  0  1  0  0  0  0  0  0
  -25.3850  -36.3950   23.8670 C   0  0  0  0  0  3  0  0  0  0  0  0
  -27.5070  -37.2530   24.7550 C   0  0  0  0  0  1  0  0  0  0  0  0
  -26.4350  -37.4340   23.7800 N   0  0  0  0  0  0  0  0  0  0  0  0
  -26.0360  -38.3590   23.9170 H   0  0  0  0  0  0  0  0  0  0  0  0
  -26.3140  -31.7910   25.1720 C   0  0  1  0  0  0  0  0  0  0  0  0
  -25.2190  -31.5700   26.2410 C   0  0  0  0  0  1  0  0  0  0  0  0
  -26.8910  -30.4070   24.7930 C   0  0  0  0  0  1  0  0  0  0  0  0
  -27.4680  -32.5820   25.8320 C   0  0  0  0  0  1  0  0  0  0  0  0
  1  3  1  0
  3  2  1  0
  4  5  1  0
  4  6  1  0
  5  8  1  0
  5  7  1  0
  6  3  1  0
  6  7  1  0
  7  9  1  0
 10 18  1  0
 11 16  1  0
 12 13  1  0
 12 11  1  0
 14 13  1  0
 14 23  1  0
 14 15  1  0
 16 10  1  0
 16 15  1  0
 17 10  2  0
 18  9  1  0
 18 19  1  0
 20 21  2  0
 21 22  1  0
 21 40  1  0
 22 25  1  0
 23 20  1  0
 23 24  1  0
 24 22  2  0
 25 26  1  0
 26 27  2  0
 28 31  1  0
 28 27  1  0
 29 28  2  0
 30 29  1  0
 30 25  2  0
 31 32  1  0
 32 33  1  0
 33 34  2  0
 35 34  1  0
 35 39  1  0
 36 35  2  0
 37 32  2  0
 37 36  1  0
 38 37  1  0
 40 41  1  0
 41 44  1  0
 41 43  1  0
 42 40  2  0
 45 46  1  0
 45 20  1  0
 47 45  1  0
 48  1  1  0
 49 48  1  0
 50 49  1  0
 51 50  1  0
 51 52  1  0
 52 54  1  0
 53 64  2  0
 54 59  1  0
 55 63  1  0
 55 65  1  0
 56 62  1  0
 56 58  1  0
 57 63  1  0
 58 57  1  0
 59 58  2  0
 60 61  1  0
 60 54  2  0
 61 56  2  0
 62 55  1  0
 63 53  1  0
 65 67  2  0
 66 65  1  0
 68 66  1  0
 69 78  2  0
 69 74  1  0
 70 66  1  0
 70 74  1  0
 71 70  1  0
 72 73  1  0
 72 71  1  0
 73 69  1  0
 74 75  2  0
 75 76  1  0
 77 76  2  0
 78 77  1  0
 79 53  1  0
 79 80  1  0
 79 89  1  0
 80 83  1  0
 81 85  1  0
 81 80  1  0
 82 81  2  0
 85 84  1  0
 87 85  1  0
 87 88  1  0
 87 86  1  0
 89 92  1  1
 89 90  1  0
 91 89  1  0
M  ISO  4  10 100  18 100  51 101  52 101
M  END
>  <TORSDO>  (73) 
F 23

>  <SCORE>  (73) 
-12.142

>  <name>  (73) 
72

>  <ligand_id>  (73) 
72

>  <original_smiles>  (73) 
[H]c1c([H])c([H])c2c(c1[H])C([H])([H])C([H])([H])C([H])([H])C2([H])N([H])C(=O)C1([H])N(C(=O)C([H])(N([H])C(=O)C([H])(N([H])C([H])([H])[H])C([H])([H])[H])C(C([H])([H])[H])(C([H])([H])[H])C([H])([H])[H])C([H])([H])c2c([H])c(OC([H])([H])C([H])([H])C([H])([H])C([H])([H])C([H])([H])C([H])(C([H])([H])[H])C3([H])C([H])([H])C([H])(C([H])([H])[H])C3([H])C([H])([H])N([H])C(=O)N3C([H])([H])C([H])([H])C([H])([H])C([H])(n4nc(-c5c([H])c([H])c(Oc6c([H])c([H])c(F)c([H])c6F)c([H])c5[H])c(C(=O)N([H])[H])c4N([H])[H])C3([H])[H])c([H])c([H])c2C1([H])[H]

>  <smiles>  (73) 
[H]c1c([H])c([H])c2c(c1[H])C([H])([H])C([H])([H])C([H])([H])C2([H])N([H])C(=O)C1([H])N(C(=O)C([H])(N([H])C(=O)C([H])(N([H])C([H])([H])[H])C([H])([H])[H])C(C([H])([H])[H])(C([H])([H])[H])C([H])([H])[H])C([H])([H])c2c([H])c(OC([H])([H])C([H])([H])C([H])([H])C([H])([H])C([H])([H])C([H])(C([H])([H])[H])C3([H])C([H])([H])C([H])(C([H])([H])[H])C3([H])C([H])([H])N([H])C(=O)N3C([H])([H])C([H])([H])C([H])([H])C([H])(n4nc(-c5c([H])c([H])c(Oc6c([H])c([H])c(F)c([H])c6F)c([H])c5[H])c(C(=O)N([H])[H])c4N([H])[H])C3([H])[H])c([H])c([H])c2C1([H])[H]

$$$$
73:0:0
     RDKit          3D

 94102  0  0  1  0  0  0  0  0999 V2000
  -30.7080  -22.5080   21.7910 C   0  0  0  0  0  2  0  0  0  0  0  0
  -30.0320  -23.8410   22.1690 C   0  0  0  0  0  2  0  0  0  0  0  0
  -28.3430  -23.4740   20.3270 C   0  0  0  0  0  2  0  0  0  0  0  0
  -29.7100  -21.4840   21.2010 C   0  0  0  0  0  3  0  0  0  0  0  0
  -29.3120  -24.4980   20.9690 C   0  0  0  0  0  3  0  0  0  0  0  0
  -29.0180  -22.1220   19.9590 C   0  0  0  0  0  3  0  0  0  0  0  0
  -27.9790  -21.1910   19.3040 C   0  0  0  0  0  1  0  0  0  0  0  0
  -30.4240  -20.1290   20.9300 C   0  0  0  0  0  0  0  0  0  0  0  0
  -29.9330  -19.0380   21.5440 N   0  0  0  0  0  0  0  0  0  0  0  0
  -31.4300  -20.0850   20.2220 O   0  0  0  0  0  0  0  0  0  0  0  0
  -29.0880  -19.1780   22.0820 H   0  0  0  0  0  0  0  0  0  0  0  0
  -30.5570  -17.7120   21.6810 C   0  0  0  0  0  2  0  0  0  0  0  0
  -30.5890  -16.8650   20.3870 C   0  0  0  0  0  2  0  0  0  0  0  0
  -31.0340  -14.4080   20.0860 C   0  0  0  0  0  0  0  0  0  0  0  0
  -30.6600  -12.2470   18.9600 C   0  0  0  0  0  2  0  0  0  0  0  0
  -29.6820  -12.4760   17.7900 C   0  0  0  0  0  2  0  0  0  0  0  0
  -28.2190  -12.3740   18.2680 C   0  0  0  0  0  2  0  0  0  0  0  0
  -27.9470  -13.2200   19.5400 C   0  0  0  0  0  3  0  0  0  0  0  0
  -29.0330  -12.9660   20.6130 C   0  0  0  0  0  2  0  0  0  0  0  0
  -30.3470  -13.2370   20.0030 N   0  0  0  0  0  0  0  0  0  0  0  0
  -32.1320  -14.5840   19.5510 O   0  0  0  0  0  0  0  0  0  0  0  0
  -30.3510  -15.4310   20.6300 N   0  0  0  0  0  0  0  0  0  0  0  0
  -29.4680  -15.1890   21.0560 H   0  0  0  0  0  0  0  0  0  0  0  0
  -25.5990  -13.8950   20.3490 C   0  0  0  0  0  0  0  0  0  0  0  0
  -24.5210  -13.1520   20.7490 C   0  0  0  0  0  0  0  0  0  0  0  0
  -24.9350  -11.7860   20.6810 C   0  0  0  0  0  0  0  0  0  0  0  0
  -26.6050  -12.9830   20.0650 N   0  0  0  0  0  0  0  0  0  0  0  0
  -26.2090  -11.7090   20.3200 N   0  0  0  0  0  0  0  0  0  0  0  0
  -24.1760  -10.5460   20.8820 C   0  0  0  0  0  0  0  0  0  0  0  0
  -24.5700   -9.5860   21.8410 C   0  0  0  0  0  3  0  0  0  0  0  0
  -23.8130   -8.4100   22.0290 C   0  0  0  0  0  3  0  0  0  0  0  0
  -22.6490   -8.1840   21.2580 C   0  0  0  0  0  0  0  0  0  0  0  0
  -22.2730   -9.1310   20.2890 C   0  0  0  0  0  3  0  0  0  0  0  0
  -23.0310  -10.3000   20.0990 C   0  0  0  0  0  3  0  0  0  0  0  0
  -21.8660   -7.0590   21.3540 O   0  0  0  0  0  0  0  0  0  0  0  0
  -21.7230   -6.3810   22.5380 C   0  0  0  0  0  0  0  0  0  0  0  0
  -21.2010   -7.0010   23.6930 C   0  0  0  0  0  3  0  0  0  0  0  0
  -21.0050   -6.2480   24.8680 C   0  0  0  0  0  3  0  0  0  0  0  0
  -21.3220   -4.8770   24.8880 C   0  0  0  0  0  0  0  0  0  0  0  0
  -21.8360   -4.2560   23.7360 C   0  0  0  0  0  3  0  0  0  0  0  0
  -22.0330   -5.0060   22.5630 C   0  0  0  0  0  0  0  0  0  0  0  0
  -22.5090   -4.3990   21.4500 F   0  0  0  0  0  0  0  0  0  0  0  0
  -21.1250   -4.1510   26.0140 F   0  0  0  0  0  0  0  0  0  0  0  0
  -23.1510  -13.6700   21.0850 C   0  0  0  0  0  0  0  0  0  0  0  0
  -22.4410  -12.9900   21.9780 N   0  0  0  0  0  0  0  0  0  0  0  0
  -22.7220  -14.7120   20.5920 O   0  0  0  0  0  0  0  0  0  0  0  0
  -22.8030  -12.1460   22.4010 H   0  0  0  0  0  0  0  0  0  0  0  0
  -21.5230  -13.3150   22.2430 H   0  0  0  0  0  0  0  0  0  0  0  0
  -25.8030  -15.2620   20.1850 N   0  0  0  0  0  0  0  0  0  0  0  0
  -25.0660  -15.9430   20.3340 H   0  0  0  0  0  0  0  0  0  0  0  0
  -26.6570  -15.6740   19.8300 H   0  0  0  0  0  0  0  0  0  0  0  0
  -27.4730  -25.7180   22.3390 C   0  0  0  0  0  1  0  0  0  0  0  0
  -28.6490  -25.8700   21.3360 C   0  0  0  0  0  3  0  0  0  0  0  0
  -28.3440  -26.5890   20.1190 O   0  0  0  0  0  0  0  0  0  0  0  0
  -24.5310  -31.8100   23.1410 C   0  0  0  0  0  0  0  0  0  0  0  0
  -27.2170  -27.3810   20.0990 C   0  0  0  0  0  0  0  0  0  0  0  0
  -23.3510  -30.4160   21.4720 C   0  0  0  0  0  3  0  0  0  0  0  0
  -24.8280  -28.8850   20.0620 C   0  0  0  0  0  0  0  0  0  0  0  0
  -25.8780  -30.7770   21.3170 C   0  0  0  0  0  2  0  0  0  0  0  0
  -25.9760  -29.4100   20.6720 C   0  0  0  0  0  0  0  0  0  0  0  0
  -27.1780  -28.6650   20.6880 C   0  0  0  0  0  3  0  0  0  0  0  0
  -26.0630  -26.8760   19.4690 C   0  0  0  0  0  3  0  0  0  0  0  0
  -24.8660  -27.6170   19.4550 C   0  0  0  0  0  3  0  0  0  0  0  0
  -23.5810  -29.7420   20.0930 C   0  0  0  0  0  2  0  0  0  0  0  0
  -24.6040  -31.0160   22.0360 N   0  0  0  0  0  0  0  0  0  0  0  0
  -23.4430  -32.0820   23.6660 O   0  0  0  0  0  0  0  0  0  0  0  0
  -22.6820  -29.3920   22.4180 C   0  0  0  0  0  0  0  0  0  0  0  0
  -21.3550  -29.2370   22.2890 N   0  0  0  0  0  0  0  0  0  0  0  0
  -23.3540  -28.7430   23.2250 O   0  0  0  0  0  0  0  0  0  0  0  0
  -20.8750  -29.8120   21.6110 H   0  0  0  0  0  0  0  0  0  0  0  0
  -17.9530  -28.1340   22.8040 C   0  0  0  0  0  0  0  0  0  0  0  0
  -20.5210  -28.3030   23.0440 C   0  0  0  0  0  3  0  0  0  0  0  0
  -20.5700  -26.8870   22.4250 C   0  0  0  0  0  2  0  0  0  0  0  0
  -19.4430  -26.6300   21.4200 C   0  0  0  0  0  2  0  0  0  0  0  0
  -18.0760  -26.7990   22.0880 C   0  0  0  0  0  2  0  0  0  0  0  0
  -19.1010  -28.8470   23.2390 C   0  0  0  0  0  0  0  0  0  0  0  0
  -18.9310  -30.1000   23.8670 C   0  0  0  0  0  3  0  0  0  0  0  0
  -17.6460  -30.6380   24.0670 C   0  0  0  0  0  3  0  0  0  0  0  0
  -16.5110  -29.9200   23.6490 C   0  0  0  0  0  3  0  0  0  0  0  0
  -16.6670  -28.6700   23.0230 C   0  0  0  0  0  3  0  0  0  0  0  0
  -25.8080  -32.4340   23.7840 C   0  0  0  0  0  3  0  0  0  0  0  0
  -26.3160  -31.6440   25.0520 C   0  0  1  0  0  0  0  0  0  0  0  0
  -25.2140  -31.3840   26.1060 C   0  0  0  0  0  1  0  0  0  0  0  0
  -26.9090  -30.2760   24.6400 C   0  0  0  0  0  1  0  0  0  0  0  0
  -27.4590  -32.4320   25.7370 C   0  0  0  0  0  1  0  0  0  0  0  0
  -25.4950  -33.8260   24.1300 N   0  0  0  0  0  0  0  0  0  0  0  0
  -25.8430  -34.8900   23.3940 C   0  0  0  0  0  0  0  0  0  0  0  0
  -26.5320  -34.8020   22.3730 O   0  0  0  0  0  0  0  0  0  0  0  0
  -24.8860  -33.9690   24.9220 H   0  0  0  0  0  0  0  0  0  0  0  0
  -24.1300  -36.6940   23.0200 C   0  0  0  0  0  1  0  0  0  0  0  0
  -25.3450  -36.2710   23.8620 C   0  0  0  0  0  3  0  0  0  0  0  0
  -27.4530  -37.1360   24.7760 C   0  0  0  0  0  1  0  0  0  0  0  0
  -26.3830  -37.3220   23.7990 N   0  0  0  0  0  0  0  0  0  0  0  0
  -25.9760  -38.2420   23.9450 H   0  0  0  0  0  0  0  0  0  0  0  0
  1  2  1  0
  3  5  1  0
  4  8  1  0
  4  1  1  0
  5 53  1  0
  5  2  1  0
  6  7  1  0
  6  3  1  0
  6  4  1  0
  8  9  1  0
  9 12  1  0
  9 11  1  0
 10  8  2  0
 13 22  1  0
 13 12  1  0
 14 22  1  0
 15 20  1  0
 16 17  1  0
 16 15  1  0
 18 17  1  0
 18 27  1  0
 18 19  1  0
 20 14  1  0
 20 19  1  0
 21 14  2  0
 22 23  1  0
 24 25  2  0
 25 44  1  0
 26 25  1  0
 26 29  1  0
 27 28  1  0
 27 24  1  0
 28 26  2  0
 29 30  1  0
 30 31  2  0
 32 35  1  0
 32 31  1  0
 33 32  2  0
 34 33  1  0
 34 29  2  0
 35 36  1  0
 36 41  2  0
 36 37  1  0
 37 38  2  0
 38 39  1  0
 39 43  1  0
 40 39  2  0
 41 40  1  0
 42 41  1  0
 44 45  1  0
 45 48  1  0
 45 47  1  0
 46 44  2  0
 49 50  1  0
 49 24  1  0
 51 49  1  0
 53 52  1  0
 54 53  1  0
 55 66  2  0
 56 54  1  0
 56 61  1  0
 57 65  1  0
 57 67  1  0
 58 64  1  0
 58 60  1  0
 59 65  1  0
 60 61  2  0
 60 59  1  0
 62 56  2  0
 63 62  1  0
 63 58  2  0
 64 57  1  0
 65 55  1  0
 67 69  2  0
 68 67  1  0
 70 68  1  0
 71 80  2  0
 71 76  1  0
 72 68  1  0
 72 76  1  0
 73 72  1  0
 74 75  1  0
 74 73  1  0
 75 71  1  0
 76 77  2  0
 77 78  1  0
 79 78  2  0
 80 79  1  0
 81 55  1  0
 81 86  1  0
 81 82  1  0
 82 85  1  1
 82 83  1  0
 84 82  1  0
 86 89  1  0
 87 91  1  0
 87 86  1  0
 88 87  2  0
 91 90  1  0
 93 91  1  0
 93 94  1  0
 93 92  1  0
M  ISO  4  14 100  22 100  53 101  54 101
M  END
>  <TORSDO>  (74) 
F 20

>  <SCORE>  (74) 
-14.005

>  <name>  (74) 
73

>  <ligand_id>  (74) 
73

>  <original_smiles>  (74) 
[H]c1c([H])c([H])c2c(c1[H])C([H])([H])C([H])([H])C([H])([H])C2([H])N([H])C(=O)C1([H])N(C(=O)C([H])(N([H])C(=O)C([H])(N([H])C([H])([H])[H])C([H])([H])[H])C(C([H])([H])[H])(C([H])([H])[H])C([H])([H])[H])C([H])([H])c2c([H])c(OC([H])(C([H])([H])[H])C3([H])C([H])([H])C([H])([H])C([H])(C(=O)N([H])C([H])([H])C([H])([H])N([H])C(=O)N4C([H])([H])C([H])([H])C([H])([H])C([H])(n5nc(-c6c([H])c([H])c(Oc7c([H])c([H])c(F)c([H])c7F)c([H])c6[H])c(C(=O)N([H])[H])c5N([H])[H])C4([H])[H])C([H])(C([H])([H])[H])C3([H])[H])c([H])c([H])c2C1([H])[H]

>  <smiles>  (74) 
[H]c1c([H])c([H])c2c(c1[H])C([H])([H])C([H])([H])C([H])([H])C2([H])N([H])C(=O)C1([H])N(C(=O)C([H])(N([H])C(=O)C([H])(N([H])C([H])([H])[H])C([H])([H])[H])C(C([H])([H])[H])(C([H])([H])[H])C([H])([H])[H])C([H])([H])c2c([H])c(OC([H])(C([H])([H])[H])C3([H])C([H])([H])C([H])([H])C([H])(C(=O)N([H])C([H])([H])C([H])([H])N([H])C(=O)N4C([H])([H])C([H])([H])C([H])([H])C([H])(n5nc(-c6c([H])c([H])c(Oc7c([H])c([H])c(F)c([H])c7F)c([H])c6[H])c(C(=O)N([H])[H])c5N([H])[H])C4([H])[H])C([H])(C([H])([H])[H])C3([H])[H])c([H])c([H])c2C1([H])[H]

$$$$
74:0:0
     RDKit          3D

 97105  0  0  1  0  0  0  0  0999 V2000
  -27.1660  -20.8050   19.2680 C   0  0  0  0  0  0  0  0  0  0  0  0
  -26.5540  -21.0310   18.2200 O   0  0  0  0  0  0  0  0  0  0  0  0
  -27.5140  -21.8720   20.3100 C   0  0  0  0  0  2  0  0  0  0  0  0
  -28.1670  -23.1630   19.7310 C   0  0  0  0  0  2  0  0  0  0  0  0
  -27.2190  -24.7300   21.3970 C   0  0  0  0  0  1  0  0  0  0  0  0
  -25.9060  -24.0320   19.2480 C   0  0  0  0  0  1  0  0  0  0  0  0
  -27.2920  -24.4300   19.8620 C   0  0  2  0  0  0  0  0  0  0  0  0
  -27.9550  -25.6040   19.0160 C   0  0  0  0  0  2  0  0  0  0  0  0
  -28.1320  -26.9130   19.6240 O   0  0  0  0  0  0  0  0  0  0  0  0
  -24.5390  -31.8300   23.3570 C   0  0  0  0  0  0  0  0  0  0  0  0
  -27.0400  -27.7550   19.6880 C   0  0  0  0  0  0  0  0  0  0  0  0
  -23.2820  -30.6340   21.6090 C   0  0  0  0  0  3  0  0  0  0  0  0
  -24.6830  -29.2820   19.9800 C   0  0  0  0  0  0  0  0  0  0  0  0
  -25.8110  -30.9800   21.3970 C   0  0  0  0  0  2  0  0  0  0  0  0
  -25.8630  -29.6940   20.6050 C   0  0  0  0  0  0  0  0  0  0  0  0
  -27.0470  -28.9210   20.4900 C   0  0  0  0  0  3  0  0  0  0  0  0
  -25.8710  -27.4660   18.9640 C   0  0  0  0  0  3  0  0  0  0  0  0
  -24.6760  -28.1520   19.1660 C   0  0  0  0  0  3  0  0  0  0  0  0
  -23.4460  -30.1220   20.1590 C   0  0  0  0  0  2  0  0  0  0  0  0
  -24.5660  -31.1530   22.1790 N   0  0  0  0  0  0  0  0  0  0  0  0
  -23.4710  -32.0520   23.9390 O   0  0  0  0  0  0  0  0  0  0  0  0
  -22.6400  -29.5120   22.4560 C   0  0  0  0  0  0  0  0  0  0  0  0
  -21.3180  -29.3230   22.2930 N   0  0  0  0  0  0  0  0  0  0  0  0
  -23.3270  -28.8220   23.2130 O   0  0  0  0  0  0  0  0  0  0  0  0
  -20.8310  -29.8950   21.6150 H   0  0  0  0  0  0  0  0  0  0  0  0
  -17.9460  -28.0840   22.6930 C   0  0  0  0  0  0  0  0  0  0  0  0
  -20.5020  -28.3260   22.9830 C   0  0  0  0  0  3  0  0  0  0  0  0
  -20.6110  -26.9440   22.2950 C   0  0  0  0  0  2  0  0  0  0  0  0
  -19.5150  -26.7280   21.2440 C   0  0  0  0  0  2  0  0  0  0  0  0
  -18.1310  -26.7960   21.9060 C   0  0  0  0  0  2  0  0  0  0  0  0
  -19.0610  -28.8150   23.1790 C   0  0  0  0  0  0  0  0  0  0  0  0
  -18.8410  -30.0320   23.8610 C   0  0  0  0  0  3  0  0  0  0  0  0
  -17.5310  -30.5050   24.0820 C   0  0  0  0  0  3  0  0  0  0  0  0
  -16.4260  -29.7680   23.6180 C   0  0  0  0  0  3  0  0  0  0  0  0
  -16.6350  -28.5620   22.9210 C   0  0  0  0  0  3  0  0  0  0  0  0
  -25.8520  -32.3730   24.0060 C   0  0  0  0  0  3  0  0  0  0  0  0
  -25.6200  -33.7860   24.3340 N   0  0  0  0  0  0  0  0  0  0  0  0
  -26.0130  -34.8170   23.5780 C   0  0  0  0  0  0  0  0  0  0  0  0
  -26.6830  -34.6760   22.5500 O   0  0  0  0  0  0  0  0  0  0  0  0
  -25.0180  -33.9760   25.1230 H   0  0  0  0  0  0  0  0  0  0  0  0
  -24.4160  -36.7160   23.1870 C   0  0  0  0  0  1  0  0  0  0  0  0
  -25.6030  -36.2300   24.0310 C   0  0  0  0  0  3  0  0  0  0  0  0
  -27.7540  -36.9790   24.9380 C   0  0  0  0  0  1  0  0  0  0  0  0
  -26.7000  -37.2150   23.9540 N   0  0  0  0  0  0  0  0  0  0  0  0
  -26.3450  -38.1560   24.0920 H   0  0  0  0  0  0  0  0  0  0  0  0
  -26.2960  -31.5620   25.2840 C   0  0  1  0  0  0  0  0  0  0  0  0
  -25.1800  -31.3980   26.3370 C   0  0  0  0  0  1  0  0  0  0  0  0
  -26.7780  -30.1480   24.8820 C   0  0  0  0  0  1  0  0  0  0  0  0
  -27.4880  -32.2740   25.9640 C   0  0  0  0  0  1  0  0  0  0  0  0
  -27.6420  -19.4070   19.5840 C   0  0  0  0  0  2  0  0  0  0  0  0
  -29.1830  -19.3480   19.5730 C   0  0  0  0  0  2  0  0  0  0  0  0
  -31.6770  -13.9990   19.4020 C   0  0  0  0  0  0  0  0  0  0  0  0
  -31.0090  -11.6930   18.9130 C   0  0  0  0  0  2  0  0  0  0  0  0
  -30.0090  -11.6470   17.7360 C   0  0  0  0  0  2  0  0  0  0  0  0
  -28.5640  -11.7660   18.2520 C   0  0  0  0  0  2  0  0  0  0  0  0
  -28.3770  -12.9590   19.2080 C   0  0  0  0  0  3  0  0  0  0  0  0
  -29.4980  -13.0280   20.2780 C   0  0  0  0  0  2  0  0  0  0  0  0
  -30.8110  -12.9730   19.6130 N   0  0  0  0  0  0  0  0  0  0  0  0
  -32.7200  -13.8720   18.7550 O   0  0  0  0  0  0  0  0  0  0  0  0
  -31.9110  -16.5240   21.9440 C   0  0  0  0  0  2  0  0  0  0  0  0
  -32.3900  -15.9520   20.5920 C   0  0  0  0  0  2  0  0  0  0  0  0
  -30.7410  -15.9760   18.6800 C   0  0  0  0  0  2  0  0  0  0  0  0
  -30.6230  -17.4970   18.8200 C   0  0  0  0  0  2  0  0  0  0  0  0
  -29.7160  -17.5530   21.2000 C   0  0  0  0  0  2  0  0  0  0  0  0
  -31.1100  -17.8410   21.8200 C   0  0  0  0  0  3  0  0  0  0  0  0
  -30.9660  -18.5930   23.1560 C   0  0  0  0  0  1  0  0  0  0  0  0
  -31.3380  -15.2370   19.8140 N   0  0  0  0  0  0  0  0  0  0  0  0
  -29.5760  -17.9380   19.7770 N   0  0  1  0  0  4  0  0  0  0  0  0
  -28.7440  -17.4470   19.4870 H   0  0  0  0  0  0  0  0  0  0  0  0
  -26.1870  -14.0220   20.0740 C   0  0  0  0  0  0  0  0  0  0  0  0
  -25.0360  -13.4700   20.5520 C   0  0  0  0  0  0  0  0  0  0  0  0
  -25.2370  -12.0520   20.5400 C   0  0  0  0  0  0  0  0  0  0  0  0
  -27.0380  -12.9590   19.8010 N   0  0  0  0  0  0  0  0  0  0  0  0
  -26.4640  -11.7710   20.1300 N   0  0  0  0  0  0  0  0  0  0  0  0
  -24.3090  -10.9470   20.8250 C   0  0  0  0  0  0  0  0  0  0  0  0
  -24.6370   -9.9120   21.7300 C   0  0  0  0  0  3  0  0  0  0  0  0
  -23.7200   -8.8730   22.0000 C   0  0  0  0  0  3  0  0  0  0  0  0
  -22.4550   -8.8610   21.3640 C   0  0  0  0  0  0  0  0  0  0  0  0
  -22.1440   -9.8720   20.4340 C   0  0  0  0  0  3  0  0  0  0  0  0
  -23.0650  -10.9010   20.1620 C   0  0  0  0  0  3  0  0  0  0  0  0
  -21.5140   -7.8770   21.5470 O   0  0  0  0  0  0  0  0  0  0  0  0
  -21.4920   -7.1070   22.6830 C   0  0  0  0  0  0  0  0  0  0  0  0
  -21.3280   -7.6730   23.9650 C   0  0  0  0  0  3  0  0  0  0  0  0
  -21.2440   -6.8400   25.0970 C   0  0  0  0  0  3  0  0  0  0  0  0
  -21.3110   -5.4420   24.9510 C   0  0  0  0  0  0  0  0  0  0  0  0
  -21.4640   -4.8760   23.6730 C   0  0  0  0  0  3  0  0  0  0  0  0
  -21.5530   -5.7060   22.5420 C   0  0  0  0  0  0  0  0  0  0  0  0
  -21.6840   -5.1530   21.3120 F   0  0  0  0  0  0  0  0  0  0  0  0
  -21.2210   -4.6390   26.0370 F   0  0  0  0  0  0  0  0  0  0  0  0
  -23.7690  -14.1960   20.9020 C   0  0  0  0  0  0  0  0  0  0  0  0
  -23.0620  -13.7460   21.9280 N   0  0  0  0  0  0  0  0  0  0  0  0
  -23.4190  -15.2010   20.2790 O   0  0  0  0  0  0  0  0  0  0  0  0
  -23.3650  -12.9370   22.4530 H   0  0  0  0  0  0  0  0  0  0  0  0
  -22.2020  -14.2040   22.1920 H   0  0  0  0  0  0  0  0  0  0  0  0
  -26.5760  -15.3360   19.8180 N   0  0  0  0  0  0  0  0  0  0  0  0
  -25.8340  -16.0270   19.8230 H   0  0  0  0  0  0  0  0  0  0  0  0
  -27.2610  -15.5230   19.1020 H   0  0  0  0  0  0  0  0  0  0  0  0
  1 50  1  0
  1  3  1  0
  2  1  2  0
  4  7  1  0
  4  3  1  0
  7  6  1  6
  7  5  1  0
  8  9  1  0
  8  7  1  0
  9 11  1  0
 10 21  2  0
 11 16  1  0
 12 20  1  0
 12 22  1  0
 13 19  1  0
 13 15  1  0
 14 20  1  0
 15 14  1  0
 16 15  2  0
 17 18  1  0
 17 11  2  0
 18 13  2  0
 19 12  1  0
 20 10  1  0
 22 24  2  0
 23 22  1  0
 25 23  1  0
 26 35  2  0
 26 31  1  0
 27 23  1  0
 27 31  1  0
 28 27  1  0
 29 30  1  0
 29 28  1  0
 30 26  1  0
 31 32  2  0
 32 33  1  0
 34 33  2  0
 35 34  1  0
 36 10  1  0
 36 37  1  0
 36 46  1  0
 37 40  1  0
 38 42  1  0
 38 37  1  0
 39 38  2  0
 42 41  1  0
 44 42  1  0
 44 45  1  0
 44 43  1  0
 46 49  1  1
 46 47  1  0
 48 46  1  0
 51 50  1  0
 51 68  1  0
 52 58  1  0
 52 67  1  0
 53 58  1  0
 54 55  1  0
 54 53  1  0
 56 55  1  0
 56 73  1  0
 56 57  1  0
 58 57  1  0
 59 52  2  0
 61 60  1  0
 62 63  1  0
 62 67  1  0
 63 68  1  0
 64 65  1  0
 65 60  1  0
 65 66  1  0
 67 61  1  0
 68 64  1  0
 68 69  1  6
 70 71  2  0
 71 90  1  0
 72 71  1  0
 72 75  1  0
 73 70  1  0
 73 74  1  0
 74 72  2  0
 75 76  1  0
 76 77  2  0
 78 81  1  0
 78 77  1  0
 79 78  2  0
 80 79  1  0
 80 75  2  0
 81 82  1  0
 82 83  1  0
 83 84  2  0
 85 84  1  0
 85 89  1  0
 86 85  2  0
 87 82  2  0
 87 86  1  0
 88 87  1  0
 90 91  1  0
 91 94  1  0
 91 93  1  0
 92 90  2  0
 95 96  1  0
 95 70  1  0
 97 95  1  0
M  ISO  4   8 101   9 101  52 100  67 100
M  END
>  <TORSDO>  (75) 
F 22

>  <SCORE>  (75) 
-10.533

>  <name>  (75) 
74

>  <ligand_id>  (75) 
74

>  <original_smiles>  (75) 
[H]c1c([H])c([H])c2c(c1[H])C([H])([H])C([H])([H])C([H])([H])C2([H])N([H])C(=O)C1([H])N(C(=O)C([H])(N([H])C(=O)C([H])(N([H])C([H])([H])[H])C([H])([H])[H])C(C([H])([H])[H])(C([H])([H])[H])C([H])([H])[H])C([H])([H])c2c([H])c(OC([H])([H])C(C([H])([H])[H])(C([H])([H])[H])C([H])([H])C([H])([H])C(=O)C([H])([H])C([H])([H])[N+]3([H])C([H])([H])C([H])([H])N(C(=O)N4C([H])([H])C([H])([H])C([H])([H])C([H])(n5nc(-c6c([H])c([H])c(Oc7c([H])c([H])c(F)c([H])c7F)c([H])c6[H])c(C(=O)N([H])[H])c5N([H])[H])C4([H])[H])C([H])([H])C([H])([H])C([H])(C([H])([H])[H])C3([H])[H])c([H])c([H])c2C1([H])[H]

>  <smiles>  (75) 
[H]c1c([H])c([H])c2c(c1[H])C([H])([H])C([H])([H])C([H])([H])C2([H])N([H])C(=O)C1([H])N(C(=O)C([H])(N([H])C(=O)C([H])(N([H])C([H])([H])[H])C([H])([H])[H])C(C([H])([H])[H])(C([H])([H])[H])C([H])([H])[H])C([H])([H])c2c([H])c(OC([H])([H])C(C([H])([H])[H])(C([H])([H])[H])C([H])([H])C([H])([H])C(=O)C([H])([H])C([H])([H])[N+]3([H])C([H])([H])C([H])([H])N(C(=O)N4C([H])([H])C([H])([H])C([H])([H])C([H])(n5nc(-c6c([H])c([H])c(Oc7c([H])c([H])c(F)c([H])c7F)c([H])c6[H])c(C(=O)N([H])[H])c5N([H])[H])C4([H])[H])C([H])([H])C([H])([H])C([H])(C([H])([H])[H])C3([H])[H])c([H])c([H])c2C1([H])[H]

$$$$
75:0:0
     RDKit          3D

 94102  0  0  1  0  0  0  0  0999 V2000
  -28.8580  -20.9520   20.6100 C   0  0  0  0  0  0  0  0  0  0  0  0
  -29.8650  -20.7200   21.2850 O   0  0  0  0  0  0  0  0  0  0  0  0
  -27.2110  -19.0890   20.0000 C   0  0  0  0  0  2  0  0  0  0  0  0
  -29.4170  -18.9270   19.0790 C   0  0  0  0  0  2  0  0  0  0  0  0
  -28.3710  -19.9690   19.5280 C   0  0  0  0  0  3  0  0  0  0  0  0
  -27.8780  -17.8180   20.5410 C   0  0  0  0  0  3  0  0  0  0  0  0
  -26.9790  -16.5850   20.3760 C   0  0  0  0  0  1  0  0  0  0  0  0
  -29.1820  -17.6700   19.8380 N   0  0  2  0  0  4  0  0  0  0  0  0
  -29.0610  -16.9390   19.1540 H   0  0  0  0  0  0  0  0  0  0  0  0
  -30.2890  -17.2590   20.7540 C   0  0  0  0  0  2  0  0  0  0  0  0
  -31.2450  -16.1480   20.2380 C   0  0  0  0  0  2  0  0  0  0  0  0
  -31.2270  -13.7310   19.6430 C   0  0  0  0  0  0  0  0  0  0  0  0
  -30.7800  -11.4120   18.9170 C   0  0  0  0  0  2  0  0  0  0  0  0
  -29.7620  -11.4190   17.7610 C   0  0  0  0  0  2  0  0  0  0  0  0
  -28.3180  -11.4390   18.3080 C   0  0  0  0  0  2  0  0  0  0  0  0
  -28.1040  -12.5230   19.3990 C   0  0  0  0  0  3  0  0  0  0  0  0
  -29.2190  -12.4490   20.4600 C   0  0  0  0  0  2  0  0  0  0  0  0
  -30.5140  -12.5810   19.7670 N   0  0  0  0  0  0  0  0  0  0  0  0
  -32.2490  -13.8270   18.9560 O   0  0  0  0  0  0  0  0  0  0  0  0
  -30.6980  -14.7890   20.2830 N   0  0  0  0  0  0  0  0  0  0  0  0
  -29.9060  -14.5950   20.8790 H   0  0  0  0  0  0  0  0  0  0  0  0
  -25.9020  -13.4390   20.3710 C   0  0  0  0  0  0  0  0  0  0  0  0
  -24.7800  -12.8110   20.8390 C   0  0  0  0  0  0  0  0  0  0  0  0
  -25.0340  -11.4110   20.7210 C   0  0  0  0  0  0  0  0  0  0  0  0
  -26.7780  -12.4290   20.0030 N   0  0  0  0  0  0  0  0  0  0  0  0
  -26.2630  -11.2010   20.2690 N   0  0  0  0  0  0  0  0  0  0  0  0
  -24.1600  -10.2550   20.9610 C   0  0  0  0  0  0  0  0  0  0  0  0
  -24.5410   -9.2060   21.8270 C   0  0  0  0  0  3  0  0  0  0  0  0
  -23.6740   -8.1150   22.0520 C   0  0  0  0  0  3  0  0  0  0  0  0
  -22.4140   -8.0670   21.4120 C   0  0  0  0  0  0  0  0  0  0  0  0
  -22.0510   -9.1000   20.5310 C   0  0  0  0  0  3  0  0  0  0  0  0
  -22.9160  -10.1830   20.3030 C   0  0  0  0  0  3  0  0  0  0  0  0
  -21.5190   -7.0330   21.5500 O   0  0  0  0  0  0  0  0  0  0  0  0
  -21.4790   -6.2610   22.6820 C   0  0  0  0  0  0  0  0  0  0  0  0
  -21.2580   -6.8220   23.9600 C   0  0  0  0  0  3  0  0  0  0  0  0
  -21.1550   -5.9860   25.0870 C   0  0  0  0  0  3  0  0  0  0  0  0
  -21.2650   -4.5900   24.9430 C   0  0  0  0  0  0  0  0  0  0  0  0
  -21.4790   -4.0300   23.6720 C   0  0  0  0  0  3  0  0  0  0  0  0
  -21.5840   -4.8620   22.5440 C   0  0  0  0  0  0  0  0  0  0  0  0
  -21.7700   -4.3160   21.3180 F   0  0  0  0  0  0  0  0  0  0  0  0
  -21.1590   -3.7850   26.0250 F   0  0  0  0  0  0  0  0  0  0  0  0
  -23.5020  -13.4690   21.2740 C   0  0  0  0  0  0  0  0  0  0  0  0
  -22.7770  -12.8560   22.2060 N   0  0  0  0  0  0  0  0  0  0  0  0
  -23.1620  -14.5620   20.8210 O   0  0  0  0  0  0  0  0  0  0  0  0
  -23.0630  -11.9710   22.5930 H   0  0  0  0  0  0  0  0  0  0  0  0
  -21.9220  -13.2820   22.5350 H   0  0  0  0  0  0  0  0  0  0  0  0
  -26.2430  -14.7800   20.2030 N   0  0  0  0  0  0  0  0  0  0  0  0
  -25.5080  -15.4740   20.2740 H   0  0  0  0  0  0  0  0  0  0  0  0
  -26.9570  -15.0390   19.5350 H   0  0  0  0  0  0  0  0  0  0  0  0
  -28.0100  -22.2190   20.8310 C   0  0  0  0  0  2  0  0  0  0  0  0
  -28.7920  -23.5160   21.1680 C   0  0  0  0  0  2  0  0  0  0  0  0
  -27.9180  -24.5590   21.9040 C   0  0  0  0  0  2  0  0  0  0  0  0
  -28.4490  -26.0070   21.8490 C   0  0  0  0  0  2  0  0  0  0  0  0
  -28.1250  -26.6380   20.6060 O   0  0  0  0  0  0  0  0  0  0  0  0
  -24.3630  -32.0270   23.4100 C   0  0  0  0  0  0  0  0  0  0  0  0
  -26.9950  -27.4200   20.5980 C   0  0  0  0  0  0  0  0  0  0  0  0
  -23.1780  -30.6040   21.7670 C   0  0  0  0  0  3  0  0  0  0  0  0
  -24.6400  -28.9730   20.4580 C   0  0  0  0  0  0  0  0  0  0  0  0
  -25.7120  -30.8920   21.6490 C   0  0  0  0  0  2  0  0  0  0  0  0
  -25.7840  -29.4900   21.0800 C   0  0  0  0  0  0  0  0  0  0  0  0
  -26.9650  -28.7180   21.1590 C   0  0  0  0  0  3  0  0  0  0  0  0
  -25.8430  -26.9160   19.9610 C   0  0  0  0  0  3  0  0  0  0  0  0
  -24.6630  -27.6840   19.8970 C   0  0  0  0  0  3  0  0  0  0  0  0
  -23.4180  -29.8650   20.4210 C   0  0  0  0  0  2  0  0  0  0  0  0
  -24.4330  -31.1900   22.3370 N   0  0  0  0  0  0  0  0  0  0  0  0
  -23.2710  -32.3510   23.8970 O   0  0  0  0  0  0  0  0  0  0  0  0
  -22.4590  -29.6380   22.7350 C   0  0  0  0  0  0  0  0  0  0  0  0
  -21.1330  -29.5030   22.5690 N   0  0  0  0  0  0  0  0  0  0  0  0
  -23.0910  -29.0130   23.5920 O   0  0  0  0  0  0  0  0  0  0  0  0
  -20.6920  -30.0580   21.8490 H   0  0  0  0  0  0  0  0  0  0  0  0
  -17.6950  -28.4880   23.0090 C   0  0  0  0  0  0  0  0  0  0  0  0
  -20.2540  -28.6210   23.3350 C   0  0  0  0  0  3  0  0  0  0  0  0
  -20.2980  -27.1780   22.7850 C   0  0  0  0  0  2  0  0  0  0  0  0
  -19.2050  -26.8950   21.7490 C   0  0  0  0  0  2  0  0  0  0  0  0
  -17.8180  -27.1190   22.3600 C   0  0  0  0  0  2  0  0  0  0  0  0
  -18.8390  -29.2000   23.4520 C   0  0  0  0  0  0  0  0  0  0  0  0
  -18.6710  -30.4820   24.0170 C   0  0  0  0  0  3  0  0  0  0  0  0
  -17.3900  -31.0500   24.1490 C   0  0  0  0  0  3  0  0  0  0  0  0
  -16.2590  -30.3350   23.7210 C   0  0  0  0  0  3  0  0  0  0  0  0
  -16.4110  -29.0580   23.1540 C   0  0  0  0  0  3  0  0  0  0  0  0
  -25.6450  -32.6340   24.0620 C   0  0  0  0  0  3  0  0  0  0  0  0
  -25.3730  -34.0520   24.3330 N   0  0  0  0  0  0  0  0  0  0  0  0
  -25.7800  -35.0660   23.5560 C   0  0  0  0  0  0  0  0  0  0  0  0
  -26.4910  -34.9030   22.5610 O   0  0  0  0  0  0  0  0  0  0  0  0
  -24.7500  -34.2560   25.1000 H   0  0  0  0  0  0  0  0  0  0  0  0
  -24.1340  -36.9020   23.0570 C   0  0  0  0  0  1  0  0  0  0  0  0
  -25.3200  -36.4840   23.9440 C   0  0  0  0  0  3  0  0  0  0  0  0
  -27.4480  -37.3200   24.8430 C   0  0  0  0  0  1  0  0  0  0  0  0
  -26.3910  -37.4980   23.8480 N   0  0  0  0  0  0  0  0  0  0  0  0
  -26.0120  -38.4350   23.9510 H   0  0  0  0  0  0  0  0  0  0  0  0
  -26.0900  -31.8840   25.3760 C   0  0  1  0  0  0  0  0  0  0  0  0
  -24.9480  -31.6880   26.3960 C   0  0  0  0  0  1  0  0  0  0  0  0
  -26.6600  -30.4860   25.0370 C   0  0  0  0  0  1  0  0  0  0  0  0
  -27.2240  -32.6700   26.0750 C   0  0  0  0  0  1  0  0  0  0  0  0
  1 50  1  0
  1  2  2  0
  3  6  1  0
  4  5  1  0
  4  8  1  0
  5  3  1  0
  5  1  1  0
  6  7  1  0
  8  6  1  0
  8 10  1  0
  8  9  1  6
 11 20  1  0
 11 10  1  0
 12 18  1  0
 12 20  1  0
 13 18  1  0
 14 15  1  0
 14 13  1  0
 16 15  1  0
 16 25  1  0
 16 17  1  0
 18 17  1  0
 19 12  2  0
 20 21  1  0
 22 23  2  0
 23 42  1  0
 24 23  1  0
 24 27  1  0
 25 26  1  0
 25 22  1  0
 26 24  2  0
 27 28  1  0
 28 29  2  0
 30 33  1  0
 30 29  1  0
 31 30  2  0
 32 31  1  0
 32 27  2  0
 33 34  1  0
 34 35  1  0
 35 36  2  0
 37 36  1  0
 37 41  1  0
 38 37  2  0
 39 34  2  0
 39 38  1  0
 40 39  1  0
 42 43  1  0
 43 46  1  0
 43 45  1  0
 44 42  2  0
 47 48  1  0
 47 22  1  0
 49 47  1  0
 50 51  1  0
 51 52  1  0
 53 52  1  0
 54 53  1  0
 55 66  2  0
 56 54  1  0
 56 61  1  0
 57 65  1  0
 57 67  1  0
 58 60  1  0
 59 65  1  0
 60 61  2  0
 60 59  1  0
 62 56  2  0
 63 62  1  0
 63 58  2  0
 64 58  1  0
 64 57  1  0
 65 55  1  0
 67 69  2  0
 68 67  1  0
 70 68  1  0
 71 80  2  0
 71 76  1  0
 72 68  1  0
 72 76  1  0
 73 72  1  0
 74 75  1  0
 74 73  1  0
 75 71  1  0
 76 77  2  0
 77 78  1  0
 79 78  2  0
 80 79  1  0
 81 55  1  0
 81 82  1  0
 81 91  1  0
 82 85  1  0
 83 87  1  0
 83 82  1  0
 84 83  2  0
 87 86  1  0
 89 87  1  0
 89 90  1  0
 89 88  1  0
 91 94  1  1
 91 92  1  0
 93 91  1  0
M  ISO  4  12 100  20 100  53 101  54 101
M  END
>  <TORSDO>  (76) 
F 23

>  <SCORE>  (76) 
-11.319

>  <name>  (76) 
75

>  <ligand_id>  (76) 
75

>  <original_smiles>  (76) 
[H]c1c([H])c([H])c2c(c1[H])C([H])([H])C([H])([H])C([H])([H])C2([H])N([H])C(=O)C1([H])N(C(=O)C([H])(N([H])C(=O)C([H])(N([H])C([H])([H])[H])C([H])([H])[H])C(C([H])([H])[H])(C([H])([H])[H])C([H])([H])[H])C([H])([H])c2c([H])c(OC([H])([H])C([H])([H])C([H])([H])C([H])([H])C(=O)C3([H])C([H])([H])C([H])(C([H])([H])[H])[N+]([H])(C([H])([H])C([H])([H])N([H])C(=O)N4C([H])([H])C([H])([H])C([H])([H])C([H])(n5nc(-c6c([H])c([H])c(Oc7c([H])c([H])c(F)c([H])c7F)c([H])c6[H])c(C(=O)N([H])[H])c5N([H])[H])C4([H])[H])C3([H])[H])c([H])c([H])c2C1([H])[H]

>  <smiles>  (76) 
[H]c1c([H])c([H])c2c(c1[H])C([H])([H])C([H])([H])C([H])([H])C2([H])N([H])C(=O)C1([H])N(C(=O)C([H])(N([H])C(=O)C([H])(N([H])C([H])([H])[H])C([H])([H])[H])C(C([H])([H])[H])(C([H])([H])[H])C([H])([H])[H])C([H])([H])c2c([H])c(OC([H])([H])C([H])([H])C([H])([H])C([H])([H])C(=O)C3([H])C([H])([H])C([H])(C([H])([H])[H])[N+]([H])(C([H])([H])C([H])([H])N([H])C(=O)N4C([H])([H])C([H])([H])C([H])([H])C([H])(n5nc(-c6c([H])c([H])c(Oc7c([H])c([H])c(F)c([H])c7F)c([H])c6[H])c(C(=O)N([H])[H])c5N([H])[H])C4([H])[H])C3([H])[H])c([H])c([H])c2C1([H])[H]

$$$$
76:0:0
     RDKit          3D

 95103  0  0  1  0  0  0  0  0999 V2000
  -28.7150  -22.4840   20.4100 C   0  0  0  0  0  3  0  0  0  0  0  0
  -28.9290  -22.3510   21.8620 N   0  0  0  0  0  4  0  0  0  0  0  0
  -29.8600  -22.6330   22.1140 H   0  0  0  0  0  0  0  0  0  0  0  0
  -28.8240  -21.3800   22.0960 H   0  0  0  0  0  0  0  0  0  0  0  0
  -28.2590  -22.8700   22.4000 H   0  0  0  0  0  0  0  0  0  0  0  0
  -28.9880  -24.0130   20.0210 C   0  0  0  0  0  0  0  0  0  0  0  0
  -29.8720  -24.3330   19.2190 O   0  0  0  0  0  0  0  0  0  0  0  0
  -28.1250  -25.1510   20.6880 C   0  0  0  0  0  2  0  0  0  0  0  0
  -28.5100  -26.5510   20.4020 O   0  0  0  0  0  0  0  0  0  0  0  0
  -24.7440  -31.9150   23.3810 C   0  0  0  0  0  0  0  0  0  0  0  0
  -27.4330  -27.4330   20.3250 C   0  0  0  0  0  0  0  0  0  0  0  0
  -23.5890  -30.5430   21.6800 C   0  0  0  0  0  3  0  0  0  0  0  0
  -25.0790  -29.0300   20.2680 C   0  0  0  0  0  0  0  0  0  0  0  0
  -26.1300  -30.8760   21.5770 C   0  0  0  0  0  2  0  0  0  0  0  0
  -26.2290  -29.5140   20.9060 C   0  0  0  0  0  0  0  0  0  0  0  0
  -27.4180  -28.7260   20.9260 C   0  0  0  0  0  3  0  0  0  0  0  0
  -26.2720  -27.0030   19.6490 C   0  0  0  0  0  3  0  0  0  0  0  0
  -25.1030  -27.7800   19.6280 C   0  0  0  0  0  3  0  0  0  0  0  0
  -23.8400  -29.8960   20.2940 C   0  0  0  0  0  2  0  0  0  0  0  0
  -24.8370  -31.1260   22.2710 N   0  0  0  0  0  0  0  0  0  0  0  0
  -23.6460  -32.1800   23.8900 O   0  0  0  0  0  0  0  0  0  0  0  0
  -22.9000  -29.5100   22.6030 C   0  0  0  0  0  0  0  0  0  0  0  0
  -21.5750  -29.3500   22.4490 N   0  0  0  0  0  0  0  0  0  0  0  0
  -23.5590  -28.8510   23.4120 O   0  0  0  0  0  0  0  0  0  0  0  0
  -21.1040  -29.9360   21.7740 H   0  0  0  0  0  0  0  0  0  0  0  0
  -18.1760  -28.1860   22.8540 C   0  0  0  0  0  0  0  0  0  0  0  0
  -20.7320  -28.4030   23.1790 C   0  0  0  0  0  3  0  0  0  0  0  0
  -20.8250  -26.9850   22.5680 C   0  0  0  0  0  2  0  0  0  0  0  0
  -19.7380  -26.7040   21.5250 C   0  0  0  0  0  2  0  0  0  0  0  0
  -18.3470  -26.8520   22.1480 C   0  0  0  0  0  2  0  0  0  0  0  0
  -19.2950  -28.9200   23.3250 C   0  0  0  0  0  0  0  0  0  0  0  0
  -19.0840  -30.1710   23.9450 C   0  0  0  0  0  3  0  0  0  0  0  0
  -17.7840  -30.6880   24.0990 C   0  0  0  0  0  3  0  0  0  0  0  0
  -16.6770  -29.9490   23.6470 C   0  0  0  0  0  3  0  0  0  0  0  0
  -16.8740  -28.6990   23.0310 C   0  0  0  0  0  3  0  0  0  0  0  0
  -26.0070  -32.5340   24.0520 C   0  0  0  0  0  3  0  0  0  0  0  0
  -25.7100  -33.9400   24.3560 N   0  0  0  0  0  0  0  0  0  0  0  0
  -26.0970  -34.9790   23.6040 C   0  0  0  0  0  0  0  0  0  0  0  0
  -26.8110  -34.8520   22.6060 O   0  0  0  0  0  0  0  0  0  0  0  0
  -25.0840  -34.1150   25.1280 H   0  0  0  0  0  0  0  0  0  0  0  0
  -24.4160  -36.7920   23.1550 C   0  0  0  0  0  1  0  0  0  0  0  0
  -25.6140  -36.3790   24.0250 C   0  0  0  0  0  3  0  0  0  0  0  0
  -27.7250  -37.2390   24.9360 C   0  0  0  0  0  1  0  0  0  0  0  0
  -26.6680  -37.4140   23.9440 N   0  0  0  0  0  0  0  0  0  0  0  0
  -26.2730  -38.3450   24.0640 H   0  0  0  0  0  0  0  0  0  0  0  0
  -26.4550  -31.7670   25.3580 C   0  0  1  0  0  0  0  0  0  0  0  0
  -25.3060  -31.5370   26.3660 C   0  0  0  0  0  1  0  0  0  0  0  0
  -27.0500  -30.3860   24.9970 C   0  0  0  0  0  1  0  0  0  0  0  0
  -27.5700  -32.5600   26.0760 C   0  0  0  0  0  1  0  0  0  0  0  0
  -29.5920  -21.3890   19.6540 C   0  0  0  0  0  2  0  0  0  0  0  0
  -28.5130  -17.9690   21.2440 C   0  0  0  0  0  3  0  0  0  0  0  0
  -28.5130  -19.3350   20.8830 C   0  0  0  0  0  3  0  0  0  0  0  0
  -29.4870  -17.0730   20.7500 C   0  0  0  0  0  3  0  0  0  0  0  0
  -30.4680  -18.9260   19.5240 C   0  0  0  0  0  3  0  0  0  0  0  0
  -29.5100  -19.8640   20.0280 C   0  0  0  0  0  0  0  0  0  0  0  0
  -30.4880  -17.5260   19.8630 C   0  0  0  0  0  0  0  0  0  0  0  0
  -31.4360  -16.6700   17.6520 C   0  0  0  0  0  1  0  0  0  0  0  0
  -31.5620  -16.5970   19.1950 C   0  0  1  0  0  0  0  0  0  0  0  0
  -32.6420  -17.3800   19.3260 F   0  0  0  0  0  0  0  0  0  0  0  0
  -32.0440  -15.1680   19.7960 C   0  0  0  0  0  0  0  0  0  0  0  0
  -31.6370  -12.8780   18.9850 C   0  0  0  0  0  2  0  0  0  0  0  0
  -30.6900  -12.9330   17.7710 C   0  0  0  0  0  2  0  0  0  0  0  0
  -29.2130  -12.9390   18.2180 C   0  0  0  0  0  2  0  0  0  0  0  0
  -28.9170  -13.8610   19.4320 C   0  0  0  0  0  3  0  0  0  0  0  0
  -30.0030  -13.7970   20.5140 C   0  0  0  0  0  2  0  0  0  0  0  0
  -31.2960  -14.0180   19.8560 N   0  0  0  0  0  0  0  0  0  0  0  0
  -33.2710  -15.0380   19.8220 O   0  0  0  0  0  0  0  0  0  0  0  0
  -26.6040  -14.6220   20.2330 C   0  0  0  0  0  0  0  0  0  0  0  0
  -25.4870  -13.9240   20.5950 C   0  0  0  0  0  0  0  0  0  0  0  0
  -25.8440  -12.5410   20.5190 C   0  0  0  0  0  0  0  0  0  0  0  0
  -27.5730  -13.6710   19.9560 N   0  0  0  0  0  0  0  0  0  0  0  0
  -27.1240  -12.4120   20.1890 N   0  0  0  0  0  0  0  0  0  0  0  0
  -25.0300  -11.3330   20.6850 C   0  0  0  0  0  0  0  0  0  0  0  0
  -25.3470  -10.3580   21.6580 C   0  0  0  0  0  3  0  0  0  0  0  0
  -24.5400   -9.2120   21.8120 C   0  0  0  0  0  3  0  0  0  0  0  0
  -23.3990   -9.0340   20.9930 C   0  0  0  0  0  0  0  0  0  0  0  0
  -23.1000   -9.9940   20.0120 C   0  0  0  0  0  3  0  0  0  0  0  0
  -23.9070  -11.1330   19.8550 C   0  0  0  0  0  3  0  0  0  0  0  0
  -22.5690   -7.9430   21.0560 O   0  0  0  0  0  0  0  0  0  0  0  0
  -22.3160   -7.2990   22.2410 C   0  0  0  0  0  0  0  0  0  0  0  0
  -21.7690   -7.9740   23.3520 C   0  0  0  0  0  3  0  0  0  0  0  0
  -21.4620   -7.2620   24.5290 C   0  0  0  0  0  3  0  0  0  0  0  0
  -21.6900   -5.8740   24.5920 C   0  0  0  0  0  0  0  0  0  0  0  0
  -22.2290   -5.1980   23.4840 C   0  0  0  0  0  3  0  0  0  0  0  0
  -22.5400   -5.9090   22.3110 C   0  0  0  0  0  0  0  0  0  0  0  0
  -23.0420   -5.2500   21.2380 F   0  0  0  0  0  0  0  0  0  0  0  0
  -21.3890   -5.1870   25.7180 F   0  0  0  0  0  0  0  0  0  0  0  0
  -24.1350  -14.4970   20.9050 C   0  0  0  0  0  0  0  0  0  0  0  0
  -23.3790  -13.8520   21.7860 N   0  0  0  0  0  0  0  0  0  0  0  0
  -23.7600  -15.5530   20.3970 O   0  0  0  0  0  0  0  0  0  0  0  0
  -23.6870  -12.9940   22.2190 H   0  0  0  0  0  0  0  0  0  0  0  0
  -22.4690  -14.2220   22.0290 H   0  0  0  0  0  0  0  0  0  0  0  0
  -26.8780  -15.9820   20.1000 N   0  0  0  0  0  0  0  0  0  0  0  0
  -26.1880  -16.6990   20.2910 H   0  0  0  0  0  0  0  0  0  0  0  0
  -27.7880  -16.3610   19.8720 H   0  0  0  0  0  0  0  0  0  0  0  0
  1 50  1  0
  1  2  1  0
  2  4  1  0
  2  3  1  0
  2  5  1  0
  6  1  1  0
  6  8  1  0
  7  6  2  0
  9  8  1  0
 10 21  2  0
 11  9  1  0
 11 16  1  0
 12 20  1  0
 12 22  1  0
 13 19  1  0
 13 15  1  0
 14 20  1  0
 15 16  2  0
 15 14  1  0
 17 11  2  0
 18 17  1  0
 18 13  2  0
 19 12  1  0
 20 10  1  0
 22 24  2  0
 23 22  1  0
 25 23  1  0
 26 35  2  0
 26 31  1  0
 27 23  1  0
 27 31  1  0
 28 27  1  0
 29 30  1  0
 29 28  1  0
 30 26  1  0
 31 32  2  0
 32 33  1  0
 34 33  2  0
 35 34  1  0
 36 10  1  0
 36 37  1  0
 36 46  1  0
 37 40  1  0
 38 42  1  0
 38 37  1  0
 39 38  2  0
 42 41  1  0
 44 42  1  0
 44 45  1  0
 44 43  1  0
 46 49  1  1
 46 47  1  0
 48 46  1  0
 50 55  1  0
 52 51  1  0
 53 51  2  0
 54 56  2  0
 54 55  1  0
 55 52  2  0
 56 53  1  0
 58 57  1  6
 58 59  1  0
 58 60  1  0
 58 56  1  0
 60 67  2  0
 60 66  1  0
 61 66  1  0
 62 63  1  0
 62 61  1  0
 64 63  1  0
 64 71  1  0
 64 65  1  0
 66 65  1  0
 68 69  2  0
 69 88  1  0
 70 69  1  0
 70 73  1  0
 71 72  1  0
 71 68  1  0
 72 70  2  0
 73 74  1  0
 74 75  2  0
 76 79  1  0
 76 75  1  0
 77 76  2  0
 78 77  1  0
 78 73  2  0
 79 80  1  0
 80 85  2  0
 80 81  1  0
 81 82  2  0
 82 83  1  0
 83 87  1  0
 84 83  2  0
 85 84  1  0
 86 85  1  0
 88 89  1  0
 89 92  1  0
 89 91  1  0
 90 88  2  0
 93 68  1  0
 93 94  1  0
 95 93  1  0
M  ISO  4   8 101   9 101  58 100  60 100
M  END
>  <TORSDO>  (77) 
F 22

>  <SCORE>  (77) 
-10.551

>  <name>  (77) 
76

>  <ligand_id>  (77) 
76

>  <original_smiles>  (77) 
[H]c1c([H])c([H])c2c(c1[H])C([H])([H])C([H])([H])C([H])([H])C2([H])N([H])C(=O)C1([H])N(C(=O)C([H])(N([H])C(=O)C([H])(N([H])C([H])([H])[H])C([H])([H])[H])C(C([H])([H])[H])(C([H])([H])[H])C([H])([H])[H])C([H])([H])c2c([H])c(OC([H])([H])C(=O)C([H])(C([H])([H])c3c([H])c([H])c([H])c(C(F)(C(=O)N4C([H])([H])C([H])([H])C([H])([H])C([H])(n5nc(-c6c([H])c([H])c(Oc7c([H])c([H])c(F)c([H])c7F)c([H])c6[H])c(C(=O)N([H])[H])c5N([H])[H])C4([H])[H])C([H])([H])[H])c3[H])[N+]([H])([H])[H])c([H])c([H])c2C1([H])[H]

>  <smiles>  (77) 
[H]c1c([H])c([H])c2c(c1[H])C([H])([H])C([H])([H])C([H])([H])C2([H])N([H])C(=O)C1([H])N(C(=O)C([H])(N([H])C(=O)C([H])(N([H])C([H])([H])[H])C([H])([H])[H])C(C([H])([H])[H])(C([H])([H])[H])C([H])([H])[H])C([H])([H])c2c([H])c(OC([H])([H])C(=O)C([H])(C([H])([H])c3c([H])c([H])c([H])c(C(F)(C(=O)N4C([H])([H])C([H])([H])C([H])([H])C([H])(n5nc(-c6c([H])c([H])c(Oc7c([H])c([H])c(F)c([H])c7F)c([H])c6[H])c(C(=O)N([H])[H])c5N([H])[H])C4([H])[H])C([H])([H])[H])c3[H])[N+]([H])([H])[H])c([H])c([H])c2C1([H])[H]

$$$$
77:0:0
     RDKit          3D

 99107  0  0  1  0  0  0  0  0999 V2000
  -27.8050  -18.1610   19.4020 C   0  0  0  0  0  0  0  0  0  0  0  0
  -27.5260  -19.4690   19.3420 N   0  0  0  0  0  0  0  0  0  0  0  0
  -26.9630  -17.3370   19.0430 O   0  0  0  0  0  0  0  0  0  0  0  0
  -26.6180  -19.7170   18.9650 H   0  0  0  0  0  0  0  0  0  0  0  0
  -30.8170  -14.4430   20.4830 C   0  0  0  0  0  0  0  0  0  0  0  0
  -30.3090  -12.3210   19.3630 C   0  0  0  0  0  2  0  0  0  0  0  0
  -29.3960  -12.4830   18.1420 C   0  0  0  0  0  2  0  0  0  0  0  0
  -27.9310  -12.3110   18.5700 C   0  0  0  0  0  2  0  0  0  0  0  0
  -27.5580  -13.2190   19.7670 C   0  0  0  0  0  3  0  0  0  0  0  0
  -28.6260  -13.1680   20.8990 C   0  0  0  0  0  2  0  0  0  0  0  0
  -29.9590  -13.3950   20.3150 N   0  0  0  0  0  0  0  0  0  0  0  0
  -31.9850  -14.3410   20.1220 O   0  0  0  0  0  0  0  0  0  0  0  0
  -30.1150  -17.7090   18.6050 C   0  0  0  0  0  2  0  0  0  0  0  0
  -29.1390  -16.3350   20.6440 C   0  0  0  0  0  2  0  0  0  0  0  0
  -31.4620  -16.6850   21.2720 C   0  0  0  0  0  2  0  0  0  0  0  0
  -29.2100  -17.6890   19.8640 C   0  0  0  0  0  3  0  0  0  0  0  0
  -31.5420  -17.1110   18.6450 C   0  0  0  0  0  3  0  0  0  0  0  0
  -32.2850  -17.1740   20.0280 C   0  0  0  0  0  3  0  0  0  0  0  0
  -30.4260  -15.6800   20.9290 N   0  0  0  0  0  0  0  0  0  0  0  0
  -25.1760  -13.8430   20.5000 C   0  0  0  0  0  0  0  0  0  0  0  0
  -24.1100  -13.0730   20.8850 C   0  0  0  0  0  0  0  0  0  0  0  0
  -24.5690  -11.7250   20.8570 C   0  0  0  0  0  0  0  0  0  0  0  0
  -26.2130  -12.9530   20.2630 N   0  0  0  0  0  0  0  0  0  0  0  0
  -25.8570  -11.6770   20.5450 N   0  0  0  0  0  0  0  0  0  0  0  0
  -23.8360  -10.4680   21.0500 C   0  0  0  0  0  0  0  0  0  0  0  0
  -24.2660   -9.4960   21.9780 C   0  0  0  0  0  3  0  0  0  0  0  0
  -23.5360   -8.3030   22.1510 C   0  0  0  0  0  3  0  0  0  0  0  0
  -22.3630   -8.0680   21.3980 C   0  0  0  0  0  0  0  0  0  0  0  0
  -21.9490   -9.0280   20.4610 C   0  0  0  0  0  3  0  0  0  0  0  0
  -22.6800  -10.2140   20.2830 C   0  0  0  0  0  3  0  0  0  0  0  0
  -21.6050   -6.9240   21.4900 O   0  0  0  0  0  0  0  0  0  0  0  0
  -21.5610   -6.1770   22.6390 C   0  0  0  0  0  0  0  0  0  0  0  0
  -21.1600   -6.7310   23.8740 C   0  0  0  0  0  3  0  0  0  0  0  0
  -21.0690   -5.9130   25.0170 C   0  0  0  0  0  3  0  0  0  0  0  0
  -21.3680   -4.5410   24.9280 C   0  0  0  0  0  0  0  0  0  0  0  0
  -21.7590   -3.9840   23.6980 C   0  0  0  0  0  3  0  0  0  0  0  0
  -21.8550   -4.8010   22.5550 C   0  0  0  0  0  0  0  0  0  0  0  0
  -22.2160   -4.2590   21.3700 F   0  0  0  0  0  0  0  0  0  0  0  0
  -21.2710   -3.7490   26.0230 F   0  0  0  0  0  0  0  0  0  0  0  0
  -22.7110  -13.5530   21.1500 C   0  0  0  0  0  0  0  0  0  0  0  0
  -21.9810  -12.8600   22.0230 N   0  0  0  0  0  0  0  0  0  0  0  0
  -22.2780  -14.5750   20.6250 O   0  0  0  0  0  0  0  0  0  0  0  0
  -22.3430  -12.0300   22.4680 H   0  0  0  0  0  0  0  0  0  0  0  0
  -21.0420  -13.1600   22.2520 H   0  0  0  0  0  0  0  0  0  0  0  0
  -25.3230  -15.2110   20.3140 N   0  0  0  0  0  0  0  0  0  0  0  0
  -24.5230  -15.8220   20.4330 H   0  0  0  0  0  0  0  0  0  0  0  0
  -26.0780  -15.6720   19.8100 H   0  0  0  0  0  0  0  0  0  0  0  0
  -32.9400  -18.4680   20.2570 N   0  0  0  0  0  4  0  0  0  0  0  0
  -32.3020  -19.1840   20.5650 H   0  0  0  0  0  0  0  0  0  0  0  0
  -33.3480  -18.7740   19.3950 H   0  0  0  0  0  0  0  0  0  0  0  0
  -33.6820  -18.3730   20.9270 H   0  0  0  0  0  0  0  0  0  0  0  0
  -33.5660  -16.8940   16.9540 C   0  0  0  0  0  1  0  0  0  0  0  0
  -32.3410  -17.6920   17.4460 C   0  0  0  0  0  2  0  0  0  0  0  0
  -28.3240  -20.5570   19.8990 C   0  0  0  0  0  2  0  0  0  0  0  0
  -27.8990  -21.9330   19.3760 C   0  0  0  0  0  2  0  0  0  0  0  0
  -28.1990  -23.0170   20.4260 C   0  0  0  0  0  2  0  0  0  0  0  0
  -28.5100  -24.3920   19.8280 C   0  0  0  0  0  2  0  0  0  0  0  0
  -28.3160  -25.5050   20.8660 C   0  0  0  0  0  2  0  0  0  0  0  0
  -28.4470  -26.7830   20.2550 O   0  0  0  0  0  0  0  0  0  0  0  0
  -24.6130  -31.9120   23.2670 C   0  0  0  0  0  0  0  0  0  0  0  0
  -27.2720  -27.4920   20.2220 C   0  0  0  0  0  0  0  0  0  0  0  0
  -23.4100  -30.4990   21.6320 C   0  0  0  0  0  3  0  0  0  0  0  0
  -24.8640  -28.9510   20.2190 C   0  0  0  0  0  0  0  0  0  0  0  0
  -25.9310  -30.8670   21.4430 C   0  0  0  0  0  2  0  0  0  0  0  0
  -26.0130  -29.4930   20.8100 C   0  0  0  0  0  0  0  0  0  0  0  0
  -27.2230  -28.7690   20.8150 C   0  0  0  0  0  3  0  0  0  0  0  0
  -26.1130  -26.9550   19.6170 C   0  0  0  0  0  3  0  0  0  0  0  0
  -24.9090  -27.6800   19.6170 C   0  0  0  0  0  3  0  0  0  0  0  0
  -23.6120  -29.8000   20.2590 C   0  0  0  0  0  2  0  0  0  0  0  0
  -24.6700  -31.1090   22.1690 N   0  0  0  0  0  0  0  0  0  0  0  0
  -23.5320  -32.1940   23.8030 O   0  0  0  0  0  0  0  0  0  0  0  0
  -22.7610  -29.4860   22.6030 C   0  0  0  0  0  0  0  0  0  0  0  0
  -21.4390  -29.2970   22.4710 N   0  0  0  0  0  0  0  0  0  0  0  0
  -23.4440  -28.8670   23.4230 O   0  0  0  0  0  0  0  0  0  0  0  0
  -20.9580  -29.8520   21.7750 H   0  0  0  0  0  0  0  0  0  0  0  0
  -18.0600  -28.1120   22.9680 C   0  0  0  0  0  0  0  0  0  0  0  0
  -20.6200  -28.3650   23.2420 C   0  0  0  0  0  3  0  0  0  0  0  0
  -20.7140  -26.9320   22.6680 C   0  0  0  0  0  2  0  0  0  0  0  0
  -19.6100  -26.6100   21.6570 C   0  0  0  0  0  2  0  0  0  0  0  0
  -18.2310  -26.7580   22.2990 C   0  0  0  0  0  2  0  0  0  0  0  0
  -19.1820  -28.8730   23.3920 C   0  0  0  0  0  0  0  0  0  0  0  0
  -18.9680  -30.1380   23.9820 C   0  0  0  0  0  3  0  0  0  0  0  0
  -17.6640  -30.6470   24.1370 C   0  0  0  0  0  3  0  0  0  0  0  0
  -16.5590  -29.8880   23.7170 C   0  0  0  0  0  3  0  0  0  0  0  0
  -16.7560  -28.6190   23.1400 C   0  0  0  0  0  3  0  0  0  0  0  0
  -25.9030  -32.5410   23.8870 C   0  0  0  0  0  3  0  0  0  0  0  0
  -26.4170  -31.7770   25.1670 C   0  0  1  0  0  0  0  0  0  0  0  0
  -25.3110  -31.5520   26.2250 C   0  0  0  0  0  1  0  0  0  0  0  0
  -27.0060  -30.3990   24.7940 C   0  0  0  0  0  1  0  0  0  0  0  0
  -27.5730  -32.5740   25.8020 C   0  0  0  0  0  1  0  0  0  0  0  0
  -25.6030  -33.9440   24.2090 N   0  0  0  0  0  0  0  0  0  0  0  0
  -25.9250  -34.9850   23.4310 C   0  0  0  0  0  0  0  0  0  0  0  0
  -26.5890  -34.8710   22.3990 O   0  0  0  0  0  0  0  0  0  0  0  0
  -25.0210  -34.1030   25.0160 H   0  0  0  0  0  0  0  0  0  0  0  0
  -24.1840  -36.7620   23.0590 C   0  0  0  0  0  1  0  0  0  0  0  0
  -25.4330  -36.3760   23.8710 C   0  0  0  0  0  3  0  0  0  0  0  0
  -27.5690  -37.2660   24.6870 C   0  0  0  0  0  1  0  0  0  0  0  0
  -26.4630  -37.4340   23.7500 N   0  0  0  0  0  0  0  0  0  0  0  0
  -26.0490  -38.3520   23.8940 H   0  0  0  0  0  0  0  0  0  0  0  0
  2  1  1  0
  2 54  1  0
  3  1  2  0
  4  2  1  0
  5 19  1  0
  6 11  1  0
  7  8  1  0
  7  6  1  0
  9  8  1  0
  9 23  1  0
  9 10  1  0
 11  5  1  0
 11 10  1  0
 12  5  2  0
 13 17  1  0
 13 16  1  0
 14 19  1  0
 16  1  1  0
 16 14  1  0
 17 53  1  0
 17 18  1  0
 18 48  1  0
 18 15  1  0
 19 15  1  0
 20 21  2  0
 21 40  1  0
 22 21  1  0
 22 25  1  0
 23 20  1  0
 23 24  1  0
 24 22  2  0
 25 26  1  0
 26 27  2  0
 28 31  1  0
 28 27  1  0
 29 28  2  0
 30 29  1  0
 30 25  2  0
 31 32  1  0
 32 33  1  0
 33 34  2  0
 35 34  1  0
 35 39  1  0
 36 35  2  0
 37 32  2  0
 37 36  1  0
 38 37  1  0
 40 41  1  0
 41 44  1  0
 41 43  1  0
 42 40  2  0
 45 46  1  0
 45 20  1  0
 47 45  1  0
 48 49  1  0
 48 51  1  0
 50 48  1  0
 52 53  1  0
 55 54  1  0
 55 56  1  0
 57 56  1  0
 57 58  1  0
 59 58  1  0
 60 71  2  0
 61 59  1  0
 61 66  1  0
 62 70  1  0
 62 72  1  0
 63 69  1  0
 63 65  1  0
 64 70  1  0
 65 66  2  0
 65 64  1  0
 67 61  2  0
 68 67  1  0
 68 63  2  0
 69 62  1  0
 70 60  1  0
 72 74  2  0
 73 72  1  0
 75 73  1  0
 76 85  2  0
 76 81  1  0
 77 73  1  0
 77 81  1  0
 78 77  1  0
 79 80  1  0
 79 78  1  0
 80 76  1  0
 81 82  2  0
 82 83  1  0
 84 83  2  0
 85 84  1  0
 86 60  1  0
 86 91  1  0
 86 87  1  0
 87 90  1  1
 87 88  1  0
 89 87  1  0
 91 94  1  0
 92 96  1  0
 92 91  1  0
 93 92  2  0
 96 95  1  0
 98 96  1  0
 98 99  1  0
 98 97  1  0
M  ISO  4   5 100  19 100  58 101  59 101
M  END
>  <TORSDO>  (78) 
F 23

>  <SCORE>  (78) 
-13.410

>  <name>  (78) 
77

>  <ligand_id>  (78) 
77

>  <original_smiles>  (78) 
[H]c1c([H])c([H])c2c(c1[H])C([H])([H])C([H])([H])C([H])([H])C2([H])N([H])C(=O)C1([H])N(C(=O)C([H])(N([H])C(=O)C([H])(N([H])C([H])([H])[H])C([H])([H])[H])C(C([H])([H])[H])(C([H])([H])[H])C([H])([H])[H])C([H])([H])c2c([H])c(OC([H])([H])C([H])([H])C([H])([H])C([H])([H])C([H])([H])N([H])C(=O)C3([H])C([H])([H])N(C(=O)N4C([H])([H])C([H])([H])C([H])([H])C([H])(n5nc(-c6c([H])c([H])c(Oc7c([H])c([H])c(F)c([H])c7F)c([H])c6[H])c(C(=O)N([H])[H])c5N([H])[H])C4([H])[H])C([H])([H])C([H])([N+]([H])([H])[H])C([H])(C([H])([H])C([H])([H])[H])C3([H])[H])c([H])c([H])c2C1([H])[H]

>  <smiles>  (78) 
[H]c1c([H])c([H])c2c(c1[H])C([H])([H])C([H])([H])C([H])([H])C2([H])N([H])C(=O)C1([H])N(C(=O)C([H])(N([H])C(=O)C([H])(N([H])C([H])([H])[H])C([H])([H])[H])C(C([H])([H])[H])(C([H])([H])[H])C([H])([H])[H])C([H])([H])c2c([H])c(OC([H])([H])C([H])([H])C([H])([H])C([H])([H])C([H])([H])N([H])C(=O)C3([H])C([H])([H])N(C(=O)N4C([H])([H])C([H])([H])C([H])([H])C([H])(n5nc(-c6c([H])c([H])c(Oc7c([H])c([H])c(F)c([H])c7F)c([H])c6[H])c(C(=O)N([H])[H])c5N([H])[H])C4([H])[H])C([H])([H])C([H])([N+]([H])([H])[H])C([H])(C([H])([H])C([H])([H])[H])C3([H])[H])c([H])c([H])c2C1([H])[H]

$$$$
78:0:0
     RDKit          3D

 97105  0  0  1  0  0  0  0  0999 V2000
  -27.7460  -21.8060   19.5830 C   0  0  0  0  0  3  0  0  0  0  0  0
  -28.7600  -22.9730   19.5900 C   0  0  0  0  0  3  0  0  0  0  0  0
  -29.7580  -22.7730   20.4530 F   0  0  0  0  0  0  0  0  0  0  0  0
  -28.1140  -24.3360   19.8710 C   0  0  0  0  0  2  0  0  0  0  0  0
  -28.8970  -25.4840   19.2480 C   0  0  0  0  0  0  0  0  0  0  0  0
  -29.1860  -25.4850   18.0470 O   0  0  0  0  0  0  0  0  0  0  0  0
  -29.2890  -26.6370   20.1640 C   0  0  0  0  0  2  0  0  0  0  0  0
  -28.4560  -27.7590   19.8920 O   0  0  0  0  0  0  0  0  0  0  0  0
  -27.1370  -32.0750   25.3540 C   0  0  0  0  0  0  0  0  0  0  0  0
  -27.6080  -28.0730   20.9210 C   0  0  0  0  0  0  0  0  0  0  0  0
  -25.6550  -30.1010   25.1730 C   0  0  0  0  0  3  0  0  0  0  0  0
  -25.8440  -28.7790   23.0010 C   0  0  0  0  0  0  0  0  0  0  0  0
  -26.7520  -31.1080   23.0970 C   0  0  0  0  0  2  0  0  0  0  0  0
  -26.7520  -29.7190   22.4990 C   0  0  0  0  0  0  0  0  0  0  0  0
  -27.6350  -29.3730   21.4590 C   0  0  0  0  0  3  0  0  0  0  0  0
  -26.6910  -27.1270   21.4300 C   0  0  0  0  0  3  0  0  0  0  0  0
  -25.8120  -27.4760   22.4730 C   0  0  0  0  0  3  0  0  0  0  0  0
  -24.9240  -29.2420   24.1050 C   0  0  0  0  0  2  0  0  0  0  0  0
  -26.5660  -31.1230   24.5640 N   0  0  0  0  0  0  0  0  0  0  0  0
  -26.8830  -32.1380   26.5640 O   0  0  0  0  0  0  0  0  0  0  0  0
  -26.3730  -29.1500   26.1550 C   0  0  0  0  0  0  0  0  0  0  0  0
  -25.7870  -28.9740   27.3490 N   0  0  0  0  0  0  0  0  0  0  0  0
  -27.4130  -28.5710   25.8280 O   0  0  0  0  0  0  0  0  0  0  0  0
  -24.9430  -29.4930   27.5450 H   0  0  0  0  0  0  0  0  0  0  0  0
  -25.5490  -28.3140   30.8920 C   0  0  0  0  0  0  0  0  0  0  0  0
  -26.2600  -28.0930   28.4160 C   0  0  0  0  0  3  0  0  0  0  0  0
  -25.4890  -26.7540   28.4200 C   0  0  0  0  0  2  0  0  0  0  0  0
  -24.2740  -26.7590   29.3530 C   0  0  0  0  0  2  0  0  0  0  0  0
  -24.7060  -27.0520   30.7920 C   0  0  0  0  0  2  0  0  0  0  0  0
  -26.2670  -28.8100   29.7710 C   0  0  0  0  0  0  0  0  0  0  0  0
  -27.0070  -30.0030   29.9060 C   0  0  0  0  0  3  0  0  0  0  0  0
  -27.0410  -30.6950   31.1320 C   0  0  0  0  0  3  0  0  0  0  0  0
  -26.3400  -30.1920   32.2420 C   0  0  0  0  0  3  0  0  0  0  0  0
  -25.6000  -29.0030   32.1210 C   0  0  0  0  0  3  0  0  0  0  0  0
  -28.1160  -33.1430   24.7710 C   0  0  0  0  0  3  0  0  0  0  0  0
  -29.5080  -33.1790   25.5120 C   0  0  1  0  0  0  0  0  0  0  0  0
  -29.4020  -33.4920   27.0210 C   0  0  0  0  0  1  0  0  0  0  0  0
  -30.2410  -31.8240   25.3600 C   0  0  0  0  0  1  0  0  0  0  0  0
  -30.4200  -34.2500   24.8670 C   0  0  0  0  0  1  0  0  0  0  0  0
  -27.4510  -34.4500   24.8530 N   0  0  0  0  0  0  0  0  0  0  0  0
  -27.1900  -35.2370   23.8010 C   0  0  0  0  0  0  0  0  0  0  0  0
  -27.5570  -34.9650   22.6550 O   0  0  0  0  0  0  0  0  0  0  0  0
  -27.0770  -34.7090   25.7540 H   0  0  0  0  0  0  0  0  0  0  0  0
  -25.0850  -36.5000   23.2560 C   0  0  0  0  0  1  0  0  0  0  0  0
  -26.3930  -36.5300   24.0630 C   0  0  0  0  0  3  0  0  0  0  0  0
  -28.2510  -38.0200   24.6640 C   0  0  0  0  0  1  0  0  0  0  0  0
  -27.1480  -37.7620   23.7410 N   0  0  0  0  0  0  0  0  0  0  0  0
  -26.5340  -38.5720   23.7460 H   0  0  0  0  0  0  0  0  0  0  0  0
  -28.3540  -20.5050   20.1350 C   0  0  0  0  0  2  0  0  0  0  0  0
  -29.3350  -19.7910   19.1750 C   0  0  0  0  0  2  0  0  0  0  0  0
  -31.4940  -14.8170   18.8580 C   0  0  0  0  0  0  0  0  0  0  0  0
  -31.0900  -12.5520   17.9460 C   0  0  0  0  0  2  0  0  0  0  0  0
  -29.8920  -12.5820   16.9710 C   0  0  0  0  0  2  0  0  0  0  0  0
  -28.5510  -12.4160   17.7190 C   0  0  0  0  0  2  0  0  0  0  0  0
  -28.4580  -13.3470   18.9540 C   0  0  0  0  0  3  0  0  0  0  0  0
  -29.7420  -13.1690   19.8060 C   0  0  0  0  0  2  0  0  0  0  0  0
  -30.8770  -13.5950   18.9720 N   0  0  0  0  0  0  0  0  0  0  0  0
  -32.3840  -14.9720   18.0080 O   0  0  0  0  0  0  0  0  0  0  0  0
  -31.4110  -18.2810   19.1210 C   0  0  0  0  0  2  0  0  0  0  0  0
  -29.2280  -17.3740   19.9230 C   0  0  0  0  0  2  0  0  0  0  0  0
  -32.0870  -17.0440   19.7540 C   0  0  0  0  0  2  0  0  0  0  0  0
  -30.0980  -18.6310   19.8470 C   0  0  0  0  0  3  0  0  0  0  0  0
  -29.9560  -16.1390   20.4670 C   0  0  0  0  0  3  0  0  0  0  0  0
  -31.2010  -15.8550   19.7110 N   0  0  0  0  0  0  0  0  0  0  0  0
  -26.4060  -14.0180   20.3690 C   0  0  0  0  0  0  0  0  0  0  0  0
  -25.3790  -13.2750   20.8860 C   0  0  0  0  0  0  0  0  0  0  0  0
  -25.6480  -11.9230   20.5150 C   0  0  0  0  0  0  0  0  0  0  0  0
  -27.2430  -13.1130   19.7290 N   0  0  0  0  0  0  0  0  0  0  0  0
  -26.7980  -11.8410   19.8640 N   0  0  0  0  0  0  0  0  0  0  0  0
  -24.8490  -10.7040   20.6870 C   0  0  0  0  0  0  0  0  0  0  0  0
  -25.2060   -9.7190   21.6340 C   0  0  0  0  0  3  0  0  0  0  0  0
  -24.4140   -8.5620   21.7920 C   0  0  0  0  0  3  0  0  0  0  0  0
  -23.2520   -8.3850   21.0020 C   0  0  0  0  0  0  0  0  0  0  0  0
  -22.9160   -9.3580   20.0450 C   0  0  0  0  0  3  0  0  0  0  0  0
  -23.7090  -10.5060   19.8840 C   0  0  0  0  0  3  0  0  0  0  0  0
  -22.4340   -7.2830   21.0730 O   0  0  0  0  0  0  0  0  0  0  0  0
  -21.9570   -6.8140   22.2700 C   0  0  0  0  0  0  0  0  0  0  0  0
  -21.1180   -7.5940   23.0960 C   0  0  0  0  0  3  0  0  0  0  0  0
  -20.5960   -7.0470   24.2850 C   0  0  0  0  0  3  0  0  0  0  0  0
  -20.9020   -5.7210   24.6460 C   0  0  0  0  0  0  0  0  0  0  0  0
  -21.7310   -4.9400   23.8210 C   0  0  0  0  0  3  0  0  0  0  0  0
  -22.2560   -5.4860   22.6360 C   0  0  0  0  0  0  0  0  0  0  0  0
  -23.0380   -4.7230   21.8360 F   0  0  0  0  0  0  0  0  0  0  0  0
  -20.3940   -5.1920   25.7830 F   0  0  0  0  0  0  0  0  0  0  0  0
  -24.1680  -13.7980   21.6040 C   0  0  0  0  0  0  0  0  0  0  0  0
  -23.6630  -13.0480   22.5780 N   0  0  0  0  0  0  0  0  0  0  0  0
  -23.6840  -14.8960   21.3370 O   0  0  0  0  0  0  0  0  0  0  0  0
  -24.0680  -12.1550   22.8140 H   0  0  0  0  0  0  0  0  0  0  0  0
  -22.8560  -13.3720   23.0900 H   0  0  0  0  0  0  0  0  0  0  0  0
  -26.6870  -15.3810   20.3780 N   0  0  0  0  0  0  0  0  0  0  0  0
  -26.0750  -16.0540   20.8260 H   0  0  0  0  0  0  0  0  0  0  0  0
  -27.4930  -15.8070   19.9410 H   0  0  0  0  0  0  0  0  0  0  0  0
  -29.5990  -14.8830   22.6940 C   0  0  0  0  0  1  0  0  0  0  0  0
  -30.1930  -16.1160   21.9970 C   0  0  0  0  0  2  0  0  0  0  0  0
  -26.3860  -22.1270   20.2570 C   0  0  0  0  0  2  0  0  0  0  0  0
  -24.9300  -23.8910   21.3890 C   0  0  0  0  0  1  0  0  0  0  0  0
  -26.3570  -23.4030   21.1190 C   0  0  0  0  0  2  0  0  0  0  0  0
  1  2  1  0
  1 49  1  0
  1 95  1  0
  2  4  1  0
  2  3  1  0
  5  4  1  0
  5  7  1  0
  6  5  2  0
  8  7  1  0
  8 10  1  0
  9 20  2  0
 10 16  2  0
 10 15  1  0
 11 21  1  0
 12 18  1  0
 13 19  1  0
 14 12  1  0
 14 13  1  0
 15 14  2  0
 16 17  1  0
 17 12  2  0
 18 11  1  0
 19 11  1  0
 19  9  1  0
 21 22  1  0
 22 24  1  0
 23 21  2  0
 25 34  1  0
 26 22  1  0
 26 27  1  0
 26 30  1  0
 27 28  1  0
 28 29  1  0
 29 25  1  0
 30 31  1  0
 30 25  2  0
 31 32  2  0
 32 33  1  0
 34 33  2  0
 35 40  1  0
 35  9  1  0
 35 36  1  0
 36 37  1  1
 38 36  1  0
 39 36  1  0
 40 43  1  0
 41 45  1  0
 41 40  1  0
 42 41  2  0
 45 44  1  0
 47 48  1  0
 47 45  1  0
 47 46  1  0
 50 49  1  0
 51 57  1  0
 51 64  1  0
 52 57  1  0
 53 54  1  0
 53 52  1  0
 55 54  1  0
 55 68  1  0
 55 56  1  0
 57 56  1  0
 58 51  2  0
 59 61  1  0
 59 62  1  0
 60 63  1  0
 62 50  1  0
 62 60  1  0
 63 94  1  0
 64 61  1  0
 64 63  1  0
 65 90  1  0
 65 66  2  0
 66 85  1  0
 67 70  1  0
 67 66  1  0
 68 69  1  0
 68 65  1  0
 69 67  2  0
 70 71  1  0
 71 72  2  0
 73 76  1  0
 73 72  1  0
 74 73  2  0
 75 74  1  0
 75 70  2  0
 76 77  1  0
 77 82  2  0
 77 78  1  0
 78 79  2  0
 79 80  1  0
 80 84  1  0
 81 80  2  0
 82 81  1  0
 83 82  1  0
 85 86  1  0
 86 88  1  0
 86 89  1  0
 87 85  2  0
 90 91  1  0
 92 90  1  0
 94 93  1  0
 95 97  1  0
 97 96  1  0
M  ISO  4   7 101   8 101  51 100  64 100
M  END
>  <TORSDO>  (79) 
F 25

>  <SCORE>  (79) 
-4.377

>  <name>  (79) 
78

>  <ligand_id>  (79) 
78

>  <original_smiles>  (79) 
[H]c1c([H])c([H])c2c(c1[H])C([H])([H])C([H])([H])C([H])([H])C2([H])N([H])C(=O)C1([H])N(C(=O)C([H])(N([H])C(=O)C([H])(N([H])C([H])([H])[H])C([H])([H])[H])C(C([H])([H])[H])(C([H])([H])[H])C([H])([H])[H])C([H])([H])c2c([H])c(OC([H])([H])C(=O)C([H])([H])C([H])(F)C([H])(C([H])([H])C([H])([H])C([H])([H])[H])C([H])([H])C([H])([H])C3([H])C([H])([H])C([H])([H])N(C(=O)N4C([H])([H])C([H])([H])C([H])([H])C([H])(n5nc(-c6c([H])c([H])c(Oc7c([H])c([H])c(F)c([H])c7F)c([H])c6[H])c(C(=O)N([H])[H])c5N([H])[H])C4([H])[H])C([H])(C([H])([H])C([H])([H])[H])C3([H])[H])c([H])c([H])c2C1([H])[H]

>  <smiles>  (79) 
[H]c1c([H])c([H])c2c(c1[H])C([H])([H])C([H])([H])C([H])([H])C2([H])N([H])C(=O)C1([H])N(C(=O)C([H])(N([H])C(=O)C([H])(N([H])C([H])([H])[H])C([H])([H])[H])C(C([H])([H])[H])(C([H])([H])[H])C([H])([H])[H])C([H])([H])c2c([H])c(OC([H])([H])C(=O)C([H])([H])C([H])(F)C([H])(C([H])([H])C([H])([H])C([H])([H])[H])C([H])([H])C([H])([H])C3([H])C([H])([H])C([H])([H])N(C(=O)N4C([H])([H])C([H])([H])C([H])([H])C([H])(n5nc(-c6c([H])c([H])c(Oc7c([H])c([H])c(F)c([H])c7F)c([H])c6[H])c(C(=O)N([H])[H])c5N([H])[H])C4([H])[H])C([H])(C([H])([H])C([H])([H])[H])C3([H])[H])c([H])c([H])c2C1([H])[H]

$$$$
79:0:0
     RDKit          3D

 94102  0  0  1  0  0  0  0  0999 V2000
  -29.9080  -19.3290   17.9550 C   0  0  0  0  0  2  0  0  0  0  0  0
  -31.1090  -19.8530   18.7250 C   0  0  0  0  0  2  0  0  0  0  0  0
  -29.9300  -18.4540   20.2520 C   0  0  0  0  0  3  0  0  0  0  0  0
  -29.4630  -18.1300   18.7980 C   0  0  0  0  0  3  0  0  0  0  0  0
  -30.7440  -19.7070   20.1550 N   0  0  2  0  0  4  0  0  0  0  0  0
  -31.5920  -19.5040   20.6730 H   0  0  0  0  0  0  0  0  0  0  0  0
  -31.1360  -14.9510   20.5140 C   0  0  0  0  0  0  0  0  0  0  0  0
  -30.7510  -12.9580   19.1380 C   0  0  0  0  0  2  0  0  0  0  0  0
  -29.7890  -13.3530   18.0000 C   0  0  0  0  0  2  0  0  0  0  0  0
  -28.3250  -13.1740   18.4470 C   0  0  0  0  0  2  0  0  0  0  0  0
  -28.0290  -13.8330   19.8180 C   0  0  0  0  0  3  0  0  0  0  0  0
  -29.1130  -13.4820   20.8610 C   0  0  0  0  0  2  0  0  0  0  0  0
  -30.4240  -13.8170   20.2830 N   0  0  0  0  0  0  0  0  0  0  0  0
  -32.3350  -15.0360   20.2380 O   0  0  0  0  0  0  0  0  0  0  0  0
  -30.8210  -17.3250   20.8280 C   0  0  0  0  0  0  0  0  0  0  0  0
  -30.3790  -16.0500   20.7240 N   0  0  0  0  0  0  0  0  0  0  0  0
  -31.9100  -17.6410   21.3240 O   0  0  0  0  0  0  0  0  0  0  0  0
  -29.3920  -15.9130   20.5860 H   0  0  0  0  0  0  0  0  0  0  0  0
  -25.6130  -14.3620   20.5260 C   0  0  0  0  0  0  0  0  0  0  0  0
  -24.5650  -13.5540   20.8750 C   0  0  0  0  0  0  0  0  0  0  0  0
  -25.0660  -12.2160   20.8290 C   0  0  0  0  0  0  0  0  0  0  0  0
  -26.6840  -13.5140   20.2890 N   0  0  0  0  0  0  0  0  0  0  0  0
  -26.3590  -12.2190   20.5310 N   0  0  0  0  0  0  0  0  0  0  0  0
  -24.3750  -10.9310   20.9900 C   0  0  0  0  0  0  0  0  0  0  0  0
  -24.7560  -10.0100   21.9910 C   0  0  0  0  0  3  0  0  0  0  0  0
  -24.0640   -8.7890   22.1400 C   0  0  0  0  0  3  0  0  0  0  0  0
  -22.9770   -8.4820   21.2880 C   0  0  0  0  0  0  0  0  0  0  0  0
  -22.6150   -9.3930   20.2810 C   0  0  0  0  0  3  0  0  0  0  0  0
  -23.3090  -10.6050   20.1290 C   0  0  0  0  0  3  0  0  0  0  0  0
  -22.2600   -7.3100   21.3450 O   0  0  0  0  0  0  0  0  0  0  0  0
  -22.0260   -6.6660   22.5330 C   0  0  0  0  0  0  0  0  0  0  0  0
  -21.3180   -7.2820   23.5880 C   0  0  0  0  0  3  0  0  0  0  0  0
  -21.0410   -6.5600   24.7660 C   0  0  0  0  0  3  0  0  0  0  0  0
  -21.4590   -5.2210   24.8860 C   0  0  0  0  0  0  0  0  0  0  0  0
  -22.1590   -4.6040   23.8350 C   0  0  0  0  0  3  0  0  0  0  0  0
  -22.4390   -5.3240   22.6610 C   0  0  0  0  0  0  0  0  0  0  0  0
  -23.0950   -4.7190   21.6410 F   0  0  0  0  0  0  0  0  0  0  0  0
  -21.1870   -4.5240   26.0140 F   0  0  0  0  0  0  0  0  0  0  0  0
  -23.1520  -13.9890   21.1390 C   0  0  0  0  0  0  0  0  0  0  0  0
  -22.4350  -13.2570   21.9860 N   0  0  0  0  0  0  0  0  0  0  0  0
  -22.6920  -15.0090   20.6320 O   0  0  0  0  0  0  0  0  0  0  0  0
  -22.8220  -12.4290   22.4170 H   0  0  0  0  0  0  0  0  0  0  0  0
  -21.4880  -13.5260   22.2080 H   0  0  0  0  0  0  0  0  0  0  0  0
  -25.7380  -15.7390   20.3700 N   0  0  0  0  0  0  0  0  0  0  0  0
  -24.9380  -16.3540   20.4700 H   0  0  0  0  0  0  0  0  0  0  0  0
  -26.5600  -16.2130   20.0270 H   0  0  0  0  0  0  0  0  0  0  0  0
  -27.4670  -17.9010   17.2080 C   0  0  0  0  0  1  0  0  0  0  0  0
  -27.9620  -17.8140   18.6590 C   0  0  0  0  0  2  0  0  0  0  0  0
  -30.0790  -20.9020   20.7730 C   0  0  0  0  0  2  0  0  0  0  0  0
  -30.7950  -22.2720   20.5700 C   0  0  0  0  0  2  0  0  0  0  0  0
  -30.1800  -23.4220   21.4020 C   0  0  0  0  0  2  0  0  0  0  0  0
  -30.4650  -24.8390   20.8450 C   0  0  0  0  0  2  0  0  0  0  0  0
  -29.6490  -25.9330   21.5660 C   0  0  0  0  0  2  0  0  0  0  0  0
  -29.6280  -27.1820   20.8510 O   0  0  0  0  0  0  0  0  0  0  0  0
  -24.8700  -31.8040   23.4680 C   0  0  0  0  0  0  0  0  0  0  0  0
  -28.3820  -27.7600   20.7250 C   0  0  0  0  0  0  0  0  0  0  0  0
  -24.0330  -30.2460   21.7390 C   0  0  0  0  0  3  0  0  0  0  0  0
  -25.8150  -28.9220   20.4820 C   0  0  0  0  0  0  0  0  0  0  0  0
  -26.4930  -30.9510   21.7780 C   0  0  0  0  0  2  0  0  0  0  0  0
  -26.8290  -29.6040   21.1670 C   0  0  0  0  0  0  0  0  0  0  0  0
  -28.1170  -29.0310   21.2830 C   0  0  0  0  0  3  0  0  0  0  0  0
  -27.3510  -27.0960   20.0230 C   0  0  0  0  0  3  0  0  0  0  0  0
  -26.0710  -27.6670   19.9060 C   0  0  0  0  0  3  0  0  0  0  0  0
  -24.4670  -29.6000   20.3960 C   0  0  0  0  0  2  0  0  0  0  0  0
  -25.1430  -31.0170   22.3890 N   0  0  0  0  0  0  0  0  0  0  0  0
  -23.7140  -31.9230   23.8990 O   0  0  0  0  0  0  0  0  0  0  0  0
  -23.4380  -29.1450   22.6470 C   0  0  0  0  0  0  0  0  0  0  0  0
  -22.1860  -28.7470   22.3650 N   0  0  0  0  0  0  0  0  0  0  0  0
  -24.1030  -28.6500   23.5610 O   0  0  0  0  0  0  0  0  0  0  0  0
  -21.7040  -29.2060   21.6040 H   0  0  0  0  0  0  0  0  0  0  0  0
  -19.0190  -27.0120   22.4700 C   0  0  0  0  0  0  0  0  0  0  0  0
  -21.4390  -27.7000   23.0630 C   0  0  0  0  0  3  0  0  0  0  0  0
  -21.8530  -26.2960   22.5650 C   0  0  0  0  0  2  0  0  0  0  0  0
  -20.9670  -25.7740   21.4290 C   0  0  0  0  0  2  0  0  0  0  0  0
  -19.5050  -25.6990   21.8800 C   0  0  0  0  0  2  0  0  0  0  0  0
  -19.9290  -27.9580   23.0110 C   0  0  0  0  0  0  0  0  0  0  0  0
  -19.4280  -29.1790   23.5140 C   0  0  0  0  0  3  0  0  0  0  0  0
  -18.0480  -29.4590   23.4840 C   0  0  0  0  0  3  0  0  0  0  0  0
  -17.1510  -28.5120   22.9620 C   0  0  0  0  0  3  0  0  0  0  0  0
  -17.6360  -27.2910   22.4620 C   0  0  0  0  0  3  0  0  0  0  0  0
  -25.9920  -32.6060   24.1990 C   0  0  0  0  0  3  0  0  0  0  0  0
  -25.4900  -33.9680   24.4200 N   0  0  0  0  0  0  0  0  0  0  0  0
  -25.7610  -35.0150   23.6310 C   0  0  0  0  0  0  0  0  0  0  0  0
  -26.5270  -34.9460   22.6660 O   0  0  0  0  0  0  0  0  0  0  0  0
  -24.8160  -34.0890   25.1630 H   0  0  0  0  0  0  0  0  0  0  0  0
  -23.8500  -36.5400   23.0470 C   0  0  0  0  0  1  0  0  0  0  0  0
  -25.0700  -36.3510   23.9620 C   0  0  0  0  0  3  0  0  0  0  0  0
  -27.0040  -37.5570   24.8740 C   0  0  0  0  0  1  0  0  0  0  0  0
  -25.9660  -37.5230   23.8480 N   0  0  0  0  0  0  0  0  0  0  0  0
  -25.4350  -38.3880   23.9070 H   0  0  0  0  0  0  0  0  0  0  0  0
  -26.4390  -31.9500   25.5630 C   0  0  1  0  0  0  0  0  0  0  0  0
  -25.2600  -31.6120   26.5040 C   0  0  0  0  0  1  0  0  0  0  0  0
  -27.2280  -30.6470   25.3040 C   0  0  0  0  0  1  0  0  0  0  0  0
  -27.3920  -32.9060   26.3180 C   0  0  0  0  0  1  0  0  0  0  0  0
  1  2  1  0
  1  4  1  0
  2  5  1  0
  3 15  1  0
  4 48  1  0
  4  3  1  0
  5  3  1  0
  5  6  1  1
  5 49  1  0
  7 16  1  0
  8 13  1  0
  9 10  1  0
  9  8  1  0
 11 10  1  0
 11 22  1  0
 11 12  1  0
 13  7  1  0
 13 12  1  0
 14  7  2  0
 15 17  2  0
 16 15  1  0
 18 16  1  0
 19 20  2  0
 20 39  1  0
 21 20  1  0
 21 24  1  0
 22 19  1  0
 22 23  1  0
 23 21  2  0
 24 25  1  0
 25 26  2  0
 27 30  1  0
 27 26  1  0
 28 27  2  0
 29 28  1  0
 29 24  2  0
 30 31  1  0
 31 36  2  0
 31 32  1  0
 32 33  2  0
 33 34  1  0
 34 38  1  0
 35 34  2  0
 36 35  1  0
 37 36  1  0
 39 40  1  0
 40 43  1  0
 40 42  1  0
 41 39  2  0
 44 45  1  0
 44 19  1  0
 46 44  1  0
 47 48  1  0
 50 49  1  0
 50 51  1  0
 52 51  1  0
 52 53  1  0
 54 53  1  0
 55 66  2  0
 56 54  1  0
 56 61  1  0
 57 65  1  0
 57 67  1  0
 58 60  1  0
 59 65  1  0
 60 61  2  0
 60 59  1  0
 62 56  2  0
 63 62  1  0
 63 58  2  0
 64 58  1  0
 64 57  1  0
 65 55  1  0
 67 69  2  0
 68 67  1  0
 70 68  1  0
 71 76  1  0
 72 68  1  0
 73 72  1  0
 74 75  1  0
 74 73  1  0
 75 71  1  0
 76 72  1  0
 76 77  2  0
 78 77  1  0
 79 78  2  0
 80 71  2  0
 80 79  1  0
 81 55  1  0
 81 82  1  0
 81 91  1  0
 82 85  1  0
 83 87  1  0
 83 82  1  0
 84 83  2  0
 87 86  1  0
 89 90  1  0
 89 87  1  0
 89 88  1  0
 91 94  1  1
 91 92  1  0
 93 91  1  0
M  ISO  4   7 100  16 100  53 101  54 101
M  END
>  <TORSDO>  (80) 
F 22

>  <SCORE>  (80) 
-10.860

>  <name>  (80) 
79

>  <ligand_id>  (80) 
79

>  <original_smiles>  (80) 
[H]c1c([H])c([H])c2c(c1[H])C([H])([H])C([H])([H])C([H])([H])C2([H])N([H])C(=O)C1([H])N(C(=O)C([H])(N([H])C(=O)C([H])(N([H])C([H])([H])[H])C([H])([H])[H])C(C([H])([H])[H])(C([H])([H])[H])C([H])([H])[H])C([H])([H])c2c([H])c(OC([H])([H])C([H])([H])C([H])([H])C([H])([H])C([H])([H])[N+]3([H])C([H])([H])C([H])([H])C([H])(C([H])([H])C([H])([H])[H])C3([H])C(=O)N([H])C(=O)N3C([H])([H])C([H])([H])C([H])([H])C([H])(n4nc(-c5c([H])c([H])c(Oc6c([H])c([H])c(F)c([H])c6F)c([H])c5[H])c(C(=O)N([H])[H])c4N([H])[H])C3([H])[H])c([H])c([H])c2C1([H])[H]

>  <smiles>  (80) 
[H]c1c([H])c([H])c2c(c1[H])C([H])([H])C([H])([H])C([H])([H])C2([H])N([H])C(=O)C1([H])N(C(=O)C([H])(N([H])C(=O)C([H])(N([H])C([H])([H])[H])C([H])([H])[H])C(C([H])([H])[H])(C([H])([H])[H])C([H])([H])[H])C([H])([H])c2c([H])c(OC([H])([H])C([H])([H])C([H])([H])C([H])([H])C([H])([H])[N+]3([H])C([H])([H])C([H])([H])C([H])(C([H])([H])C([H])([H])[H])C3([H])C(=O)N([H])C(=O)N3C([H])([H])C([H])([H])C([H])([H])C([H])(n4nc(-c5c([H])c([H])c(Oc6c([H])c([H])c(F)c([H])c6F)c([H])c5[H])c(C(=O)N([H])[H])c4N([H])[H])C3([H])[H])c([H])c([H])c2C1([H])[H]

$$$$
80:0:0
     RDKit          3D

 95103  0  0  1  0  0  0  0  0999 V2000
  -29.8220  -19.5370   22.5100 C   0  0  0  0  0  3  0  0  0  0  0  0
  -30.7730  -20.0100   20.3120 C   0  0  0  0  0  3  0  0  0  0  0  0
  -29.8460  -20.9080   22.8180 C   0  0  0  0  0  3  0  0  0  0  0  0
  -30.7850  -21.3850   20.6160 C   0  0  0  0  0  3  0  0  0  0  0  0
  -30.2820  -19.0830   21.2570 C   0  0  0  0  0  0  0  0  0  0  0  0
  -30.3180  -21.8370   21.8700 C   0  0  0  0  0  0  0  0  0  0  0  0
  -30.2450  -17.6020   20.9350 C   0  0  0  0  0  2  0  0  0  0  0  0
  -30.9500  -16.7550   22.0030 C   0  0  0  0  0  2  0  0  0  0  0  0
  -32.2800  -14.6830   22.5740 C   0  0  0  0  0  1  0  0  0  0  0  0
  -31.4540  -15.3940   21.4920 C   0  0  0  0  0  3  0  0  0  0  0  0
  -30.0970  -14.2520   19.7240 C   0  0  0  0  0  0  0  0  0  0  0  0
  -29.4430  -12.3650   18.2950 C   0  0  0  0  0  2  0  0  0  0  0  0
  -28.2870  -12.6670   17.3310 C   0  0  0  0  0  2  0  0  0  0  0  0
  -26.9430  -12.3790   18.0160 C   0  0  0  0  0  2  0  0  0  0  0  0
  -26.8230  -13.0810   19.3920 C   0  0  0  0  0  3  0  0  0  0  0  0
  -28.0770  -12.8360   20.2740 C   0  0  0  0  0  2  0  0  0  0  0  0
  -29.2930  -13.1810   19.5100 N   0  0  0  0  0  0  0  0  0  0  0  0
  -30.7490  -14.7900   18.8250 O   0  0  0  0  0  0  0  0  0  0  0  0
  -30.3550  -14.5310   21.0150 N   0  0  0  0  0  0  0  0  0  0  0  0
  -29.8400  -14.0070   21.7070 H   0  0  0  0  0  0  0  0  0  0  0  0
  -24.5440  -13.4810   20.5310 C   0  0  0  0  0  0  0  0  0  0  0  0
  -23.5980  -12.6150   21.0190 C   0  0  0  0  0  0  0  0  0  0  0  0
  -24.1230  -11.3030   20.8160 C   0  0  0  0  0  0  0  0  0  0  0  0
  -25.5840  -12.6880   20.0690 N   0  0  0  0  0  0  0  0  0  0  0  0
  -25.3400  -11.3690   20.2900 N   0  0  0  0  0  0  0  0  0  0  0  0
  -23.5100   -9.9850   21.0380 C   0  0  0  0  0  0  0  0  0  0  0  0
  -24.0750   -9.0500   21.9330 C   0  0  0  0  0  3  0  0  0  0  0  0
  -23.4560   -7.7990   22.1470 C   0  0  0  0  0  3  0  0  0  0  0  0
  -22.2600   -7.4730   21.4650 C   0  0  0  0  0  0  0  0  0  0  0  0
  -21.7140   -8.3980   20.5560 C   0  0  0  0  0  3  0  0  0  0  0  0
  -22.3340   -9.6410   20.3420 C   0  0  0  0  0  3  0  0  0  0  0  0
  -21.6060   -6.2710   21.5900 O   0  0  0  0  0  0  0  0  0  0  0  0
  -21.6260   -5.5560   22.7610 C   0  0  0  0  0  0  0  0  0  0  0  0
  -21.1470   -6.1000   23.9740 C   0  0  0  0  0  3  0  0  0  0  0  0
  -21.1230   -5.3080   25.1390 C   0  0  0  0  0  3  0  0  0  0  0  0
  -21.5680   -3.9730   25.0930 C   0  0  0  0  0  0  0  0  0  0  0  0
  -22.0400   -3.4280   23.8850 C   0  0  0  0  0  3  0  0  0  0  0  0
  -22.0660   -4.2180   22.7220 C   0  0  0  0  0  0  0  0  0  0  0  0
  -22.5020   -3.6810   21.5580 F   0  0  0  0  0  0  0  0  0  0  0  0
  -21.5370   -3.2100   26.2110 F   0  0  0  0  0  0  0  0  0  0  0  0
  -22.2480  -12.9810   21.5640 C   0  0  0  0  0  0  0  0  0  0  0  0
  -21.7330  -12.1950   22.5040 N   0  0  0  0  0  0  0  0  0  0  0  0
  -21.6610  -13.9970   21.1930 O   0  0  0  0  0  0  0  0  0  0  0  0
  -22.2250  -11.3730   22.8210 H   0  0  0  0  0  0  0  0  0  0  0  0
  -20.8350  -12.4160   22.9090 H   0  0  0  0  0  0  0  0  0  0  0  0
  -24.5970  -14.8660   20.4270 N   0  0  0  0  0  0  0  0  0  0  0  0
  -23.8310  -15.4620   20.7250 H   0  0  0  0  0  0  0  0  0  0  0  0
  -25.3700  -15.3820   20.0220 H   0  0  0  0  0  0  0  0  0  0  0  0
  -30.3030  -23.3170   22.1990 C   0  0  0  0  0  2  0  0  0  0  0  0
  -28.8690  -23.8580   22.4220 C   0  0  0  0  0  2  0  0  0  0  0  0
  -29.7510  -26.2180   22.7700 C   0  0  0  0  0  1  0  0  0  0  0  0
  -27.2930  -25.7770   22.7300 C   0  0  0  0  0  1  0  0  0  0  0  0
  -28.6510  -25.3650   22.1040 C   0  0  2  0  0  0  0  0  0  0  0  0
  -28.6540  -25.5510   20.5480 C   0  0  0  0  0  2  0  0  0  0  0  0
  -28.6980  -26.9020   20.0760 O   0  0  0  0  0  0  0  0  0  0  0  0
  -24.7220  -31.8240   23.2350 C   0  0  0  0  0  0  0  0  0  0  0  0
  -27.5110  -27.5930   20.0230 C   0  0  0  0  0  0  0  0  0  0  0  0
  -23.5720  -30.4650   21.5200 C   0  0  0  0  0  3  0  0  0  0  0  0
  -25.0790  -29.0210   20.0540 C   0  0  0  0  0  0  0  0  0  0  0  0
  -26.0880  -30.8960   21.3670 C   0  0  0  0  0  2  0  0  0  0  0  0
  -26.2170  -29.5590   20.6700 C   0  0  0  0  0  0  0  0  0  0  0  0
  -27.4400  -28.8560   20.6430 C   0  0  0  0  0  3  0  0  0  0  0  0
  -26.3640  -27.0660   19.3900 C   0  0  0  0  0  3  0  0  0  0  0  0
  -25.1470  -27.7730   19.4100 C   0  0  0  0  0  3  0  0  0  0  0  0
  -23.8130  -29.8410   20.1210 C   0  0  0  0  0  2  0  0  0  0  0  0
  -24.8110  -31.0760   22.1000 N   0  0  0  0  0  0  0  0  0  0  0  0
  -23.6280  -32.0490   23.7730 O   0  0  0  0  0  0  0  0  0  0  0  0
  -22.9310  -29.3940   22.4290 C   0  0  0  0  0  0  0  0  0  0  0  0
  -21.6130  -29.1970   22.2730 N   0  0  0  0  0  0  0  0  0  0  0  0
  -23.6130  -28.7420   23.2240 O   0  0  0  0  0  0  0  0  0  0  0  0
  -21.1310  -29.7640   21.5900 H   0  0  0  0  0  0  0  0  0  0  0  0
  -18.2470  -27.9420   22.6750 C   0  0  0  0  0  0  0  0  0  0  0  0
  -20.7980  -28.2160   22.9910 C   0  0  0  0  0  3  0  0  0  0  0  0
  -20.9280  -26.8160   22.3490 C   0  0  0  0  0  2  0  0  0  0  0  0
  -19.8400  -26.5260   21.3080 C   0  0  0  0  0  2  0  0  0  0  0  0
  -18.4470  -26.6250   21.9390 C   0  0  0  0  0  2  0  0  0  0  0  0
  -19.3510  -28.6970   23.1510 C   0  0  0  0  0  0  0  0  0  0  0  0
  -19.1090  -29.9280   23.7950 C   0  0  0  0  0  3  0  0  0  0  0  0
  -17.7960  -30.4060   23.9710 C   0  0  0  0  0  3  0  0  0  0  0  0
  -16.7060  -29.6470   23.5100 C   0  0  0  0  0  3  0  0  0  0  0  0
  -16.9330  -28.4160   22.8680 C   0  0  0  0  0  3  0  0  0  0  0  0
  -25.9830  -32.4550   23.9030 C   0  0  0  0  0  3  0  0  0  0  0  0
  -25.6360  -33.8300   24.2810 N   0  0  0  0  0  0  0  0  0  0  0  0
  -25.9600  -34.9190   23.5700 C   0  0  0  0  0  0  0  0  0  0  0  0
  -26.6500  -34.8730   22.5470 O   0  0  0  0  0  0  0  0  0  0  0  0
  -25.0150  -33.9330   25.0690 H   0  0  0  0  0  0  0  0  0  0  0  0
  -24.1910  -36.6880   23.2650 C   0  0  0  0  0  1  0  0  0  0  0  0
  -25.4330  -36.2780   24.0740 C   0  0  0  0  0  3  0  0  0  0  0  0
  -27.5310  -37.1820   24.9720 C   0  0  0  0  0  1  0  0  0  0  0  0
  -26.4410  -37.3590   24.0170 N   0  0  0  0  0  0  0  0  0  0  0  0
  -26.0110  -38.2630   24.1910 H   0  0  0  0  0  0  0  0  0  0  0  0
  -26.4990  -31.6390   25.1530 C   0  0  1  0  0  0  0  0  0  0  0  0
  -25.3910  -31.2960   26.1760 C   0  0  0  0  0  1  0  0  0  0  0  0
  -27.1510  -30.3100   24.7070 C   0  0  0  0  0  1  0  0  0  0  0  0
  -27.5990  -32.4450   25.8820 C   0  0  0  0  0  1  0  0  0  0  0  0
  1  3  1  0
  2  4  2  0
  2  5  1  0
  4  6  1  0
  5  1  2  0
  6 49  1  0
  6  3  2  0
  7  5  1  0
  7  8  1  0
 10  8  1  0
 10  9  1  0
 11 19  1  0
 12 17  1  0
 13 14  1  0
 13 12  1  0
 15 14  1  0
 15 24  1  0
 15 16  1  0
 17 11  1  0
 17 16  1  0
 18 11  2  0
 19 10  1  0
 19 20  1  0
 21 22  2  0
 22 41  1  0
 23 22  1  0
 23 26  1  0
 24 25  1  0
 24 21  1  0
 25 23  2  0
 26 27  1  0
 27 28  2  0
 29 32  1  0
 29 28  1  0
 30 29  2  0
 31 30  1  0
 31 26  2  0
 32 33  1  0
 33 34  1  0
 34 35  2  0
 36 35  1  0
 36 40  1  0
 37 36  2  0
 38 33  2  0
 38 37  1  0
 39 38  1  0
 41 42  1  0
 42 44  1  0
 42 45  1  0
 43 41  2  0
 46 21  1  0
 46 47  1  0
 48 46  1  0
 49 50  1  0
 53 50  1  0
 53 52  1  1
 53 51  1  0
 54 53  1  0
 55 54  1  0
 56 67  2  0
 57 55  1  0
 57 62  1  0
 58 66  1  0
 58 68  1  0
 59 65  1  0
 59 61  1  0
 60 66  1  0
 61 60  1  0
 62 61  2  0
 63 64  1  0
 63 57  2  0
 64 59  2  0
 65 58  1  0
 66 56  1  0
 68 70  2  0
 69 68  1  0
 71 69  1  0
 72 81  2  0
 72 77  1  0
 73 69  1  0
 73 77  1  0
 74 73  1  0
 75 76  1  0
 75 74  1  0
 76 72  1  0
 77 78  2  0
 78 79  1  0
 80 79  2  0
 81 80  1  0
 82 56  1  0
 82 83  1  0
 82 92  1  0
 83 86  1  0
 84 88  1  0
 84 83  1  0
 85 84  2  0
 88 87  1  0
 90 88  1  0
 90 91  1  0
 90 89  1  0
 92 95  1  1
 92 93  1  0
 94 92  1  0
M  ISO  4  11 100  19 100  54 101  55 101
M  END
>  <TORSDO>  (81) 
F 23

>  <SCORE>  (81) 
-7.870

>  <name>  (81) 
80

>  <ligand_id>  (81) 
80

>  <original_smiles>  (81) 
[H]c1c([H])c([H])c2c(c1[H])C([H])([H])C([H])([H])C([H])([H])C2([H])N([H])C(=O)C1([H])N(C(=O)C([H])(N([H])C(=O)C([H])(N([H])C([H])([H])[H])C([H])([H])[H])C(C([H])([H])[H])(C([H])([H])[H])C([H])([H])[H])C([H])([H])c2c([H])c(OC([H])([H])C(C([H])([H])[H])(C([H])([H])[H])C([H])([H])C([H])([H])c3c([H])c([H])c(C([H])([H])C([H])([H])C([H])(N([H])C(=O)N4C([H])([H])C([H])([H])C([H])([H])C([H])(n5nc(-c6c([H])c([H])c(Oc7c([H])c([H])c(F)c([H])c7F)c([H])c6[H])c(C(=O)N([H])[H])c5N([H])[H])C4([H])[H])C([H])([H])[H])c([H])c3[H])c([H])c([H])c2C1([H])[H]

>  <smiles>  (81) 
[H]c1c([H])c([H])c2c(c1[H])C([H])([H])C([H])([H])C([H])([H])C2([H])N([H])C(=O)C1([H])N(C(=O)C([H])(N([H])C(=O)C([H])(N([H])C([H])([H])[H])C([H])([H])[H])C(C([H])([H])[H])(C([H])([H])[H])C([H])([H])[H])C([H])([H])c2c([H])c(OC([H])([H])C(C([H])([H])[H])(C([H])([H])[H])C([H])([H])C([H])([H])c3c([H])c([H])c(C([H])([H])C([H])([H])C([H])(N([H])C(=O)N4C([H])([H])C([H])([H])C([H])([H])C([H])(n5nc(-c6c([H])c([H])c(Oc7c([H])c([H])c(F)c([H])c7F)c([H])c6[H])c(C(=O)N([H])[H])c5N([H])[H])C4([H])[H])C([H])([H])[H])c([H])c3[H])c([H])c([H])c2C1([H])[H]

$$$$
81:0:0
     RDKit          3D

 92100  0  0  1  0  0  0  0  0999 V2000
  -30.8230  -19.4820   20.5660 C   0  0  0  0  0  2  0  0  0  0  0  0
  -31.3400  -18.4840   21.6060 C   0  0  0  0  0  0  0  0  0  0  0  0
  -32.0970  -18.8460   22.5110 O   0  0  0  0  0  0  0  0  0  0  0  0
  -31.0470  -14.4180   18.8190 C   0  0  0  0  0  0  0  0  0  0  0  0
  -30.2180  -12.5370   17.4540 C   0  0  0  0  0  2  0  0  0  0  0  0
  -28.9610  -12.8910   16.6390 C   0  0  0  0  0  2  0  0  0  0  0  0
  -27.6890  -12.6570   17.4740 C   0  0  0  0  0  2  0  0  0  0  0  0
  -27.7700  -13.3360   18.8630 C   0  0  0  0  0  3  0  0  0  0  0  0
  -29.0950  -12.9890   19.5690 C   0  0  0  0  0  2  0  0  0  0  0  0
  -30.2260  -13.3390   18.6860 N   0  0  0  0  0  0  0  0  0  0  0  0
  -31.7000  -14.8770   17.8720 O   0  0  0  0  0  0  0  0  0  0  0  0
  -31.2820  -16.1680   22.6980 C   0  0  0  0  0  2  0  0  0  0  0  0
  -31.4850  -16.3980   20.1730 C   0  0  0  0  0  2  0  0  0  0  0  0
  -31.5990  -14.1840   21.1920 C   0  0  0  0  0  2  0  0  0  0  0  0
  -30.9000  -17.0170   21.4620 C   0  0  0  0  0  3  0  0  0  0  0  0
  -30.9460  -14.6810   22.4940 C   0  0  0  0  0  3  0  0  0  0  0  0
  -31.3830  -13.8360   23.6990 C   0  0  0  0  0  1  0  0  0  0  0  0
  -31.1220  -14.9780   20.0470 N   0  0  0  0  0  0  0  0  0  0  0  0
  -25.7380  -13.8200   20.3730 C   0  0  0  0  0  0  0  0  0  0  0  0
  -24.8000  -12.9970   20.9370 C   0  0  0  0  0  0  0  0  0  0  0  0
  -25.1630  -11.6690   20.5570 C   0  0  0  0  0  0  0  0  0  0  0  0
  -26.6160  -12.9890   19.6940 N   0  0  0  0  0  0  0  0  0  0  0  0
  -26.2890  -11.6820   19.8550 N   0  0  0  0  0  0  0  0  0  0  0  0
  -24.4730  -10.3900   20.7690 C   0  0  0  0  0  0  0  0  0  0  0  0
  -24.8910   -9.4800   21.7650 C   0  0  0  0  0  3  0  0  0  0  0  0
  -24.2000   -8.2650   21.9630 C   0  0  0  0  0  3  0  0  0  0  0  0
  -23.0760   -7.9510   21.1620 C   0  0  0  0  0  0  0  0  0  0  0  0
  -22.6770   -8.8490   20.1570 C   0  0  0  0  0  3  0  0  0  0  0  0
  -23.3700  -10.0560   19.9580 C   0  0  0  0  0  3  0  0  0  0  0  0
  -22.3600   -6.7840   21.2640 O   0  0  0  0  0  0  0  0  0  0  0  0
  -21.8940   -6.3280   22.4720 C   0  0  0  0  0  0  0  0  0  0  0  0
  -21.1150   -7.1410   23.3250 C   0  0  0  0  0  3  0  0  0  0  0  0
  -20.5980   -6.6110   24.5230 C   0  0  0  0  0  3  0  0  0  0  0  0
  -20.8480   -5.2690   24.8660 C   0  0  0  0  0  0  0  0  0  0  0  0
  -21.6180   -4.4570   24.0150 C   0  0  0  0  0  3  0  0  0  0  0  0
  -22.1360   -4.9840   22.8200 C   0  0  0  0  0  0  0  0  0  0  0  0
  -22.8590   -4.1910   21.9930 F   0  0  0  0  0  0  0  0  0  0  0  0
  -20.3450   -4.7560   26.0130 F   0  0  0  0  0  0  0  0  0  0  0  0
  -23.5810  -13.4200   21.7050 C   0  0  0  0  0  0  0  0  0  0  0  0
  -23.1680  -12.6260   22.6870 N   0  0  0  0  0  0  0  0  0  0  0  0
  -23.0120  -14.4850   21.4670 O   0  0  0  0  0  0  0  0  0  0  0  0
  -23.6450  -11.7610   22.8950 H   0  0  0  0  0  0  0  0  0  0  0  0
  -22.3640  -12.8870   23.2410 H   0  0  0  0  0  0  0  0  0  0  0  0
  -25.9090  -15.2020   20.3660 N   0  0  0  0  0  0  0  0  0  0  0  0
  -25.2540  -15.8350   20.8130 H   0  0  0  0  0  0  0  0  0  0  0  0
  -26.6510  -15.6810   19.8730 H   0  0  0  0  0  0  0  0  0  0  0  0
  -30.4220  -20.8270   21.1960 C   0  0  0  0  0  2  0  0  0  0  0  0
  -29.9920  -21.8900   20.1740 C   0  0  0  0  0  2  0  0  0  0  0  0
  -29.6190  -23.2000   20.8850 C   0  0  0  0  0  2  0  0  0  0  0  0
  -29.3200  -24.3790   19.9470 C   0  0  0  0  0  2  0  0  0  0  0  0
  -28.9650  -25.6360   20.7540 C   0  0  0  0  0  2  0  0  0  0  0  0
  -28.9810  -26.8010   19.9340 O   0  0  0  0  0  0  0  0  0  0  0  0
  -24.7550  -31.6340   22.9860 C   0  0  0  0  0  0  0  0  0  0  0  0
  -27.7780  -27.4540   19.9160 C   0  0  0  0  0  0  0  0  0  0  0  0
  -23.6960  -30.1850   21.2830 C   0  0  0  0  0  3  0  0  0  0  0  0
  -25.2890  -28.7690   19.8840 C   0  0  0  0  0  0  0  0  0  0  0  0
  -26.1930  -30.7210   21.1670 C   0  0  0  0  0  2  0  0  0  0  0  0
  -26.3890  -29.3680   20.5130 C   0  0  0  0  0  0  0  0  0  0  0  0
  -27.6390  -28.7170   20.5290 C   0  0  0  0  0  3  0  0  0  0  0  0
  -26.6660  -26.8550   19.2920 C   0  0  0  0  0  3  0  0  0  0  0  0
  -25.4210  -27.5090   19.2710 C   0  0  0  0  0  3  0  0  0  0  0  0
  -23.9910  -29.5420   19.9000 C   0  0  0  0  0  2  0  0  0  0  0  0
  -24.8970  -30.8610   21.8720 N   0  0  0  0  0  0  0  0  0  0  0  0
  -23.6430  -31.8230   23.4970 O   0  0  0  0  0  0  0  0  0  0  0  0
  -23.0840  -29.1070   22.2060 C   0  0  0  0  0  0  0  0  0  0  0  0
  -21.7710  -28.8680   22.0580 N   0  0  0  0  0  0  0  0  0  0  0  0
  -23.7880  -28.4890   23.0100 O   0  0  0  0  0  0  0  0  0  0  0  0
  -21.2630  -29.4230   21.3830 H   0  0  0  0  0  0  0  0  0  0  0  0
  -18.4290  -27.5930   22.5610 C   0  0  0  0  0  0  0  0  0  0  0  0
  -20.9890  -27.8740   22.7900 C   0  0  0  0  0  3  0  0  0  0  0  0
  -21.0970  -26.4820   22.1250 C   0  0  0  0  0  2  0  0  0  0  0  0
  -19.9750  -26.2040   21.1200 C   0  0  0  0  0  2  0  0  0  0  0  0
  -18.6080  -26.2890   21.8040 C   0  0  0  0  0  2  0  0  0  0  0  0
  -19.5470  -28.3450   23.0120 C   0  0  0  0  0  0  0  0  0  0  0  0
  -19.3240  -29.5680   23.6790 C   0  0  0  0  0  3  0  0  0  0  0  0
  -18.0170  -30.0390   23.9050 C   0  0  0  0  0  3  0  0  0  0  0  0
  -16.9140  -29.2820   23.4710 C   0  0  0  0  0  3  0  0  0  0  0  0
  -17.1220  -28.0620   22.8060 C   0  0  0  0  0  3  0  0  0  0  0  0
  -25.9770  -32.3350   23.6570 C   0  0  0  0  0  3  0  0  0  0  0  0
  -26.5750  -31.5180   24.8670 C   0  0  1  0  0  0  0  0  0  0  0  0
  -25.5050  -30.9850   25.8470 C   0  0  0  0  0  1  0  0  0  0  0  0
  -27.3900  -30.3100   24.3540 C   0  0  0  0  0  1  0  0  0  0  0  0
  -27.5560  -32.4070   25.6680 C   0  0  0  0  0  1  0  0  0  0  0  0
  -25.5390  -33.6660   24.0970 N   0  0  0  0  0  0  0  0  0  0  0  0
  -25.7550  -34.8000   23.4180 C   0  0  0  0  0  0  0  0  0  0  0  0
  -26.4190  -34.8420   22.3790 O   0  0  0  0  0  0  0  0  0  0  0  0
  -24.9450  -33.7000   24.9130 H   0  0  0  0  0  0  0  0  0  0  0  0
  -23.8570  -36.4320   23.2020 C   0  0  0  0  0  1  0  0  0  0  0  0
  -25.1380  -36.0940   23.9810 C   0  0  0  0  0  3  0  0  0  0  0  0
  -27.1970  -37.1070   24.8540 C   0  0  0  0  0  1  0  0  0  0  0  0
  -26.0600  -37.2510   23.9470 N   0  0  0  0  0  0  0  0  0  0  0  0
  -25.5720  -38.1100   24.1870 H   0  0  0  0  0  0  0  0  0  0  0  0
  1 47  1  0
  1  2  1  0
  2  3  2  0
  4 18  1  0
  5 10  1  0
  6  5  1  0
  6  7  1  0
  8  7  1  0
  8  9  1  0
  8 22  1  0
 10  4  1  0
 10  9  1  0
 11  4  2  0
 13 15  1  0
 14 16  1  0
 15  2  1  0
 15 12  1  0
 16 12  1  0
 16 17  1  0
 18 13  1  0
 18 14  1  0
 19 20  2  0
 20 39  1  0
 21 24  1  0
 21 20  1  0
 22 23  1  0
 22 19  1  0
 23 21  2  0
 24 25  1  0
 25 26  2  0
 27 30  1  0
 27 26  1  0
 28 27  2  0
 29 28  1  0
 29 24  2  0
 30 31  1  0
 31 36  2  0
 31 32  1  0
 32 33  2  0
 33 34  1  0
 34 38  1  0
 35 34  2  0
 36 35  1  0
 37 36  1  0
 39 40  1  0
 40 42  1  0
 40 43  1  0
 41 39  2  0
 44 19  1  0
 44 45  1  0
 46 44  1  0
 48 49  1  0
 48 47  1  0
 50 51  1  0
 50 49  1  0
 52 51  1  0
 53 64  2  0
 54 52  1  0
 54 59  1  0
 55 63  1  0
 55 65  1  0
 56 62  1  0
 56 58  1  0
 57 63  1  0
 58 59  2  0
 58 57  1  0
 60 54  2  0
 61 60  1  0
 61 56  2  0
 62 55  1  0
 63 53  1  0
 65 67  2  0
 66 65  1  0
 68 66  1  0
 69 78  2  0
 69 74  1  0
 70 66  1  0
 70 74  1  0
 71 70  1  0
 72 73  1  0
 72 71  1  0
 73 69  1  0
 74 75  2  0
 75 76  1  0
 77 76  2  0
 78 77  1  0
 79 53  1  0
 79 84  1  0
 79 80  1  0
 80 83  1  1
 80 81  1  0
 82 80  1  0
 84 87  1  0
 85 89  1  0
 85 84  1  0
 86 85  2  0
 89 88  1  0
 91 89  1  0
 91 92  1  0
 91 90  1  0
M  ISO  4   4 100  18 100  51 101  52 101
M  END
>  <TORSDO>  (82) 
F 22

>  <SCORE>  (82) 
-0.885

>  <name>  (82) 
81

>  <ligand_id>  (82) 
81

>  <original_smiles>  (82) 
[H]c1c([H])c([H])c2c(c1[H])C([H])([H])C([H])([H])C([H])([H])C2([H])N([H])C(=O)C1([H])N(C(=O)C([H])(N([H])C(=O)C([H])(N([H])C([H])([H])[H])C([H])([H])[H])C(C([H])([H])[H])(C([H])([H])[H])C([H])([H])[H])C([H])([H])c2c([H])c(OC([H])([H])C([H])([H])C([H])([H])C([H])([H])C([H])([H])C([H])([H])C(=O)C3([H])C([H])([H])N(C(=O)N4C([H])([H])C([H])([H])C([H])([H])C([H])(n5nc(-c6c([H])c([H])c(Oc7c([H])c([H])c(F)c([H])c7F)c([H])c6[H])c(C(=O)N([H])[H])c5N([H])[H])C4([H])[H])C([H])([H])C([H])(C([H])([H])[H])C3([H])[H])c([H])c([H])c2C1([H])[H]

>  <smiles>  (82) 
[H]c1c([H])c([H])c2c(c1[H])C([H])([H])C([H])([H])C([H])([H])C2([H])N([H])C(=O)C1([H])N(C(=O)C([H])(N([H])C(=O)C([H])(N([H])C([H])([H])[H])C([H])([H])[H])C(C([H])([H])[H])(C([H])([H])[H])C([H])([H])[H])C([H])([H])c2c([H])c(OC([H])([H])C([H])([H])C([H])([H])C([H])([H])C([H])([H])C([H])([H])C(=O)C3([H])C([H])([H])N(C(=O)N4C([H])([H])C([H])([H])C([H])([H])C([H])(n5nc(-c6c([H])c([H])c(Oc7c([H])c([H])c(F)c([H])c7F)c([H])c6[H])c(C(=O)N([H])[H])c5N([H])[H])C4([H])[H])C([H])([H])C([H])(C([H])([H])[H])C3([H])[H])c([H])c([H])c2C1([H])[H]

$$$$
82:0:0
     RDKit          3D

 96104  0  0  1  0  0  0  0  0999 V2000
  -28.4750  -18.7350   18.0830 C   0  0  0  0  0  2  0  0  0  0  0  0
  -29.4120  -17.9860   20.1820 C   0  0  0  0  0  3  0  0  0  0  0  0
  -27.3300  -18.6330   19.0910 C   0  0  0  0  0  3  0  0  0  0  0  0
  -27.8990  -17.6430   20.1230 C   0  0  0  0  0  3  0  0  0  0  0  0
  -25.9960  -18.2250   18.4350 C   0  0  0  0  0  1  0  0  0  0  0  0
  -29.7200  -18.6360   18.8790 N   0  0  2  0  0  4  0  0  0  0  0  0
  -30.2870  -17.9510   18.3990 H   0  0  0  0  0  0  0  0  0  0  0  0
  -30.7600  -14.4360   20.0610 C   0  0  0  0  0  0  0  0  0  0  0  0
  -30.3560  -12.2960   18.9160 C   0  0  0  0  0  2  0  0  0  0  0  0
  -29.3450  -12.5310   17.7720 C   0  0  0  0  0  2  0  0  0  0  0  0
  -27.8940  -12.4430   18.2830 C   0  0  0  0  0  2  0  0  0  0  0  0
  -27.6520  -13.2430   19.5910 C   0  0  0  0  0  3  0  0  0  0  0  0
  -28.7730  -12.9830   20.6210 C   0  0  0  0  0  2  0  0  0  0  0  0
  -30.0570  -13.2760   19.9700 N   0  0  0  0  0  0  0  0  0  0  0  0
  -31.9160  -14.5200   19.6380 O   0  0  0  0  0  0  0  0  0  0  0  0
  -30.4280  -16.8250   20.3670 C   0  0  0  0  0  0  0  0  0  0  0  0
  -30.0200  -15.5280   20.3770 N   0  0  0  0  0  0  0  0  0  0  0  0
  -31.6170  -17.1570   20.4220 O   0  0  0  0  0  0  0  0  0  0  0  0
  -29.0440  -15.3520   20.5400 H   0  0  0  0  0  0  0  0  0  0  0  0
  -25.3050  -13.8690   20.4370 C   0  0  0  0  0  0  0  0  0  0  0  0
  -24.2530  -13.1110   20.8730 C   0  0  0  0  0  0  0  0  0  0  0  0
  -24.6910  -11.7550   20.7970 C   0  0  0  0  0  0  0  0  0  0  0  0
  -26.3250  -12.9780   20.1460 N   0  0  0  0  0  0  0  0  0  0  0  0
  -25.9620  -11.7000   20.4180 N   0  0  0  0  0  0  0  0  0  0  0  0
  -23.9570  -10.5020   21.0040 C   0  0  0  0  0  0  0  0  0  0  0  0
  -24.4140   -9.5230   21.9110 C   0  0  0  0  0  3  0  0  0  0  0  0
  -23.6830   -8.3330   22.1100 C   0  0  0  0  0  3  0  0  0  0  0  0
  -22.4780   -8.1160   21.4000 C   0  0  0  0  0  0  0  0  0  0  0  0
  -22.0380   -9.0850   20.4800 C   0  0  0  0  0  3  0  0  0  0  0  0
  -22.7720  -10.2670   20.2820 C   0  0  0  0  0  3  0  0  0  0  0  0
  -21.7150   -6.9780   21.5100 O   0  0  0  0  0  0  0  0  0  0  0  0
  -21.6920   -6.2330   22.6610 C   0  0  0  0  0  0  0  0  0  0  0  0
  -21.2840   -6.7840   23.8960 C   0  0  0  0  0  3  0  0  0  0  0  0
  -21.2120   -5.9670   25.0430 C   0  0  0  0  0  3  0  0  0  0  0  0
  -21.5350   -4.6010   24.9550 C   0  0  0  0  0  0  0  0  0  0  0  0
  -21.9340   -4.0490   23.7240 C   0  0  0  0  0  3  0  0  0  0  0  0
  -22.0090   -4.8640   22.5810 C   0  0  0  0  0  0  0  0  0  0  0  0
  -22.3740   -4.3240   21.3940 F   0  0  0  0  0  0  0  0  0  0  0  0
  -21.4590   -3.8120   26.0520 F   0  0  0  0  0  0  0  0  0  0  0  0
  -22.8800  -13.6080   21.2210 C   0  0  0  0  0  0  0  0  0  0  0  0
  -22.1850  -12.9140   22.1160 N   0  0  0  0  0  0  0  0  0  0  0  0
  -22.4370  -14.6480   20.7350 O   0  0  0  0  0  0  0  0  0  0  0  0
  -22.5580  -12.0720   22.5300 H   0  0  0  0  0  0  0  0  0  0  0  0
  -21.2650  -13.2290   22.3870 H   0  0  0  0  0  0  0  0  0  0  0  0
  -25.4630  -15.2290   20.2130 N   0  0  0  0  0  0  0  0  0  0  0  0
  -24.5610  -15.6930   20.1790 H   0  0  0  0  0  0  0  0  0  0  0  0
  -25.9600  -15.3740   19.3430 H   0  0  0  0  0  0  0  0  0  0  0  0
  -27.2470  -17.7530   21.3800 O   0  0  0  0  0  0  0  0  0  0  0  0
  -26.4150  -17.2880   21.3190 H   0  0  0  0  0  0  0  0  0  0  0  0
  -30.5840  -19.8540   18.9070 C   0  0  0  0  0  2  0  0  0  0  0  0
  -29.8940  -21.2110   19.2310 C   0  0  0  0  0  2  0  0  0  0  0  0
  -30.8870  -22.3920   19.1090 C   0  0  0  0  0  2  0  0  0  0  0  0
  -30.2840  -23.7540   18.6950 C   0  0  0  0  0  2  0  0  0  0  0  0
  -29.4210  -24.4870   19.7440 C   0  0  0  0  0  2  0  0  0  0  0  0
  -28.9680  -25.8750   19.2330 C   0  0  0  0  0  2  0  0  0  0  0  0
  -28.5510  -26.7220   20.3130 O   0  0  0  0  0  0  0  0  0  0  0  0
  -24.5670  -31.8050   23.2840 C   0  0  0  0  0  0  0  0  0  0  0  0
  -27.3580  -27.4110   20.2430 C   0  0  0  0  0  0  0  0  0  0  0  0
  -23.4280  -30.4080   21.5890 C   0  0  0  0  0  3  0  0  0  0  0  0
  -24.9420  -28.8900   20.2030 C   0  0  0  0  0  0  0  0  0  0  0  0
  -25.9570  -30.7790   21.4900 C   0  0  0  0  0  2  0  0  0  0  0  0
  -26.0730  -29.4160   20.8390 C   0  0  0  0  0  0  0  0  0  0  0  0
  -27.2770  -28.6770   20.8660 C   0  0  0  0  0  3  0  0  0  0  0  0
  -26.2010  -26.8890   19.6180 C   0  0  0  0  0  3  0  0  0  0  0  0
  -25.0000  -27.6230   19.5960 C   0  0  0  0  0  3  0  0  0  0  0  0
  -23.6910  -29.7390   20.2140 C   0  0  0  0  0  2  0  0  0  0  0  0
  -24.6670  -31.0140   22.1780 N   0  0  0  0  0  0  0  0  0  0  0  0
  -23.4660  -32.0670   23.7870 O   0  0  0  0  0  0  0  0  0  0  0  0
  -22.7520  -29.3760   22.5190 C   0  0  0  0  0  0  0  0  0  0  0  0
  -21.4350  -29.1790   22.3390 N   0  0  0  0  0  0  0  0  0  0  0  0
  -23.4100  -28.7500   23.3560 O   0  0  0  0  0  0  0  0  0  0  0  0
  -20.9660  -29.7360   21.6380 H   0  0  0  0  0  0  0  0  0  0  0  0
  -18.0590  -27.9510   22.7030 C   0  0  0  0  0  0  0  0  0  0  0  0
  -20.6000  -28.2300   23.0740 C   0  0  0  0  0  3  0  0  0  0  0  0
  -20.7390  -26.8030   22.4940 C   0  0  0  0  0  2  0  0  0  0  0  0
  -19.6810  -26.4760   21.4360 C   0  0  0  0  0  2  0  0  0  0  0  0
  -18.2740  -26.6060   22.0280 C   0  0  0  0  0  2  0  0  0  0  0  0
  -19.1530  -28.7200   23.1790 C   0  0  0  0  0  0  0  0  0  0  0  0
  -18.9010  -29.9790   23.7660 C   0  0  0  0  0  3  0  0  0  0  0  0
  -17.5860  -30.4680   23.8810 C   0  0  0  0  0  3  0  0  0  0  0  0
  -16.5060  -29.6960   23.4210 C   0  0  0  0  0  3  0  0  0  0  0  0
  -16.7420  -28.4380   22.8390 C   0  0  0  0  0  3  0  0  0  0  0  0
  -25.8280  -32.4380   23.9520 C   0  0  0  0  0  3  0  0  0  0  0  0
  -25.5160  -33.8420   24.2410 N   0  0  0  0  0  0  0  0  0  0  0  0
  -25.8800  -34.8780   23.4710 C   0  0  0  0  0  0  0  0  0  0  0  0
  -26.5840  -34.7480   22.4640 O   0  0  0  0  0  0  0  0  0  0  0  0
  -24.8940  -34.0200   25.0160 H   0  0  0  0  0  0  0  0  0  0  0  0
  -24.1690  -36.6640   23.0210 C   0  0  0  0  0  1  0  0  0  0  0  0
  -25.3830  -36.2760   23.8810 C   0  0  0  0  0  3  0  0  0  0  0  0
  -27.4870  -37.1780   24.7650 C   0  0  0  0  0  1  0  0  0  0  0  0
  -26.4210  -37.3240   23.7790 N   0  0  0  0  0  0  0  0  0  0  0  0
  -26.0120  -38.2490   23.8890 H   0  0  0  0  0  0  0  0  0  0  0  0
  -26.2850  -31.6860   25.2620 C   0  0  1  0  0  0  0  0  0  0  0  0
  -25.1430  -31.4690   26.2820 C   0  0  0  0  0  1  0  0  0  0  0  0
  -26.8810  -30.3000   24.9200 C   0  0  0  0  0  1  0  0  0  0  0  0
  -27.4100  -32.4870   25.9610 C   0  0  0  0  0  1  0  0  0  0  0  0
  1  6  1  0
  1  3  1  0
  2 16  1  0
  3  5  1  0
  3  4  1  0
  4  2  1  0
  4 48  1  0
  6 50  1  0
  6  2  1  0
  6  7  1  6
  8 17  1  0
  9 14  1  0
 10 11  1  0
 10  9  1  0
 12 11  1  0
 12 23  1  0
 12 13  1  0
 14  8  1  0
 14 13  1  0
 15  8  2  0
 16 17  1  0
 16 18  2  0
 17 19  1  0
 20 21  2  0
 21 40  1  0
 22 21  1  0
 22 25  1  0
 23 24  1  0
 23 20  1  0
 24 22  2  0
 25 26  1  0
 26 27  2  0
 28 31  1  0
 28 27  1  0
 29 28  2  0
 30 29  1  0
 30 25  2  0
 31 32  1  0
 32 33  1  0
 33 34  2  0
 35 34  1  0
 35 39  1  0
 36 35  2  0
 37 32  2  0
 37 36  1  0
 38 37  1  0
 40 41  1  0
 41 44  1  0
 41 43  1  0
 42 40  2  0
 45 20  1  0
 46 45  1  0
 47 45  1  0
 49 48  1  0
 50 51  1  0
 52 51  1  0
 53 52  1  0
 53 54  1  0
 55 54  1  0
 55 56  1  0
 57 68  2  0
 58 56  1  0
 58 63  1  0
 59 67  1  0
 59 69  1  0
 60 66  1  0
 60 62  1  0
 61 67  1  0
 62 63  2  0
 62 61  1  0
 64 58  2  0
 65 64  1  0
 65 60  2  0
 66 59  1  0
 67 57  1  0
 69 71  2  0
 70 69  1  0
 72 70  1  0
 73 82  2  0
 73 78  1  0
 74 70  1  0
 74 78  1  0
 75 74  1  0
 76 77  1  0
 76 75  1  0
 77 73  1  0
 78 79  2  0
 79 80  1  0
 81 80  2  0
 82 81  1  0
 83 57  1  0
 83 84  1  0
 83 93  1  0
 84 87  1  0
 85 89  1  0
 85 84  1  0
 86 85  2  0
 89 88  1  0
 91 89  1  0
 91 92  1  0
 91 90  1  0
 93 96  1  1
 93 94  1  0
 95 93  1  0
M  ISO  4   8 100  17 100  55 101  56 101
M  END
>  <TORSDO>  (83) 
F 23

>  <SCORE>  (83) 
-11.314

>  <name>  (83) 
82

>  <ligand_id>  (83) 
82

>  <original_smiles>  (83) 
[H]OC1([H])C([H])(C([H])([H])[H])C([H])([H])[N+]([H])(C([H])([H])C([H])([H])C([H])([H])C([H])([H])C([H])([H])C([H])([H])Oc2c([H])c([H])c3c(c2[H])C([H])([H])N(C(=O)C([H])(N([H])C(=O)C([H])(N([H])C([H])([H])[H])C([H])([H])[H])C(C([H])([H])[H])(C([H])([H])[H])C([H])([H])[H])C([H])(C(=O)N([H])C2([H])c4c([H])c([H])c([H])c([H])c4C([H])([H])C([H])([H])C2([H])[H])C3([H])[H])C1([H])C(=O)N([H])C(=O)N1C([H])([H])C([H])([H])C([H])([H])C([H])(n2nc(-c3c([H])c([H])c(Oc4c([H])c([H])c(F)c([H])c4F)c([H])c3[H])c(C(=O)N([H])[H])c2N([H])[H])C1([H])[H]

>  <smiles>  (83) 
[H]OC1([H])C([H])(C([H])([H])[H])C([H])([H])[N+]([H])(C([H])([H])C([H])([H])C([H])([H])C([H])([H])C([H])([H])C([H])([H])Oc2c([H])c([H])c3c(c2[H])C([H])([H])N(C(=O)C([H])(N([H])C(=O)C([H])(N([H])C([H])([H])[H])C([H])([H])[H])C(C([H])([H])[H])(C([H])([H])[H])C([H])([H])[H])C([H])(C(=O)N([H])C2([H])c4c([H])c([H])c([H])c([H])c4C([H])([H])C([H])([H])C2([H])[H])C3([H])[H])C1([H])C(=O)N([H])C(=O)N1C([H])([H])C([H])([H])C([H])([H])C([H])(n2nc(-c3c([H])c([H])c(Oc4c([H])c([H])c(F)c([H])c4F)c([H])c3[H])c(C(=O)N([H])[H])c2N([H])[H])C1([H])[H]

$$$$
83:0:0
     RDKit          3D

 95103  0  0  1  0  0  0  0  0999 V2000
  -28.3650  -21.0990   20.5110 C   0  0  0  0  0  2  0  0  0  0  0  0
  -27.2330  -21.6950   19.6540 C   0  0  0  0  0  2  0  0  0  0  0  0
  -27.0950  -23.2220   19.7640 C   0  0  0  0  0  2  0  0  0  0  0  0
  -28.3020  -24.0170   19.2160 C   0  0  0  0  0  2  0  0  0  0  0  0
  -29.2140  -24.6330   20.2950 C   0  0  0  0  0  2  0  0  0  0  0  0
  -29.5100  -26.3180   22.1750 C   0  0  0  0  0  1  0  0  0  0  0  0
  -28.6240  -25.8700   21.0050 C   0  0  0  0  0  3  0  0  0  0  0  0
  -28.5340  -26.9480   20.0760 O   0  0  0  0  0  0  0  0  0  0  0  0
  -24.5990  -31.9340   23.2690 C   0  0  0  0  0  0  0  0  0  0  0  0
  -27.3490  -27.6360   20.1200 C   0  0  0  0  0  0  0  0  0  0  0  0
  -23.4230  -30.5310   21.6080 C   0  0  0  0  0  3  0  0  0  0  0  0
  -24.9130  -29.0550   20.1580 C   0  0  0  0  0  0  0  0  0  0  0  0
  -25.9360  -30.9690   21.4030 C   0  0  0  0  0  2  0  0  0  0  0  0
  -26.0570  -29.6090   20.7490 C   0  0  0  0  0  0  0  0  0  0  0  0
  -27.2790  -28.9060   20.7290 C   0  0  0  0  0  3  0  0  0  0  0  0
  -26.1940  -27.0850   19.5260 C   0  0  0  0  0  3  0  0  0  0  0  0
  -24.9760  -27.7910   19.5440 C   0  0  0  0  0  3  0  0  0  0  0  0
  -23.6470  -29.8830   20.2170 C   0  0  0  0  0  2  0  0  0  0  0  0
  -24.6720  -31.1570   22.1530 N   0  0  0  0  0  0  0  0  0  0  0  0
  -23.5130  -32.1670   23.8160 O   0  0  0  0  0  0  0  0  0  0  0  0
  -22.8000  -29.4770   22.5500 C   0  0  0  0  0  0  0  0  0  0  0  0
  -21.4900  -29.2320   22.3890 N   0  0  0  0  0  0  0  0  0  0  0  0
  -23.4920  -28.8830   23.3800 O   0  0  0  0  0  0  0  0  0  0  0  0
  -20.9990  -29.7610   21.6810 H   0  0  0  0  0  0  0  0  0  0  0  0
  -18.1740  -27.8450   22.7530 C   0  0  0  0  0  0  0  0  0  0  0  0
  -20.6970  -28.2540   23.1340 C   0  0  0  0  0  3  0  0  0  0  0  0
  -20.9120  -26.8300   22.5680 C   0  0  0  0  0  2  0  0  0  0  0  0
  -19.8720  -26.4450   21.5110 C   0  0  0  0  0  2  0  0  0  0  0  0
  -18.4590  -26.5040   22.0970 C   0  0  0  0  0  2  0  0  0  0  0  0
  -19.2250  -28.6750   23.2230 C   0  0  0  0  0  0  0  0  0  0  0  0
  -18.9070  -29.9300   23.7860 C   0  0  0  0  0  3  0  0  0  0  0  0
  -17.5680  -30.3580   23.8810 C   0  0  0  0  0  3  0  0  0  0  0  0
  -16.5300  -29.5240   23.4300 C   0  0  0  0  0  3  0  0  0  0  0  0
  -16.8350  -28.2710   22.8700 C   0  0  0  0  0  3  0  0  0  0  0  0
  -25.8700  -32.5840   23.9010 C   0  0  0  0  0  3  0  0  0  0  0  0
  -26.3760  -31.8290   25.1910 C   0  0  1  0  0  0  0  0  0  0  0  0
  -25.2650  -31.5810   26.2380 C   0  0  0  0  0  1  0  0  0  0  0  0
  -26.9890  -30.4610   24.8150 C   0  0  0  0  0  1  0  0  0  0  0  0
  -27.5020  -32.6490   25.8650 C   0  0  0  0  0  1  0  0  0  0  0  0
  -25.5470  -33.9830   24.2060 N   0  0  0  0  0  0  0  0  0  0  0  0
  -25.9000  -35.0270   23.4450 C   0  0  0  0  0  0  0  0  0  0  0  0
  -26.6030  -34.9130   22.4380 O   0  0  0  0  0  0  0  0  0  0  0  0
  -24.9180  -34.1460   24.9790 H   0  0  0  0  0  0  0  0  0  0  0  0
  -24.1880  -36.8150   23.0010 C   0  0  0  0  0  1  0  0  0  0  0  0
  -25.3920  -36.4180   23.8700 C   0  0  0  0  0  3  0  0  0  0  0  0
  -27.4870  -37.3070   24.7910 C   0  0  0  0  0  1  0  0  0  0  0  0
  -26.4280  -37.4710   23.7970 N   0  0  0  0  0  0  0  0  0  0  0  0
  -26.0180  -38.3930   23.9140 H   0  0  0  0  0  0  0  0  0  0  0  0
  -28.5280  -19.5860   20.2850 C   0  0  0  0  0  2  0  0  0  0  0  0
  -29.7480  -19.0460   20.9320 N   0  0  0  0  0  4  0  0  0  0  0  0
  -30.5660  -19.3330   20.4200 H   0  0  0  0  0  0  0  0  0  0  0  0
  -29.8030  -19.4590   21.8490 H   0  0  0  0  0  0  0  0  0  0  0  0
  -31.3730  -14.4630   20.0120 C   0  0  0  0  0  0  0  0  0  0  0  0
  -30.9820  -12.2880   18.9190 C   0  0  0  0  0  2  0  0  0  0  0  0
  -29.9680  -12.4500   17.7670 C   0  0  0  0  0  2  0  0  0  0  0  0
  -28.5160  -12.3560   18.2780 C   0  0  0  0  0  2  0  0  0  0  0  0
  -28.2630  -13.2510   19.5170 C   0  0  0  0  0  3  0  0  0  0  0  0
  -29.3670  -13.0250   20.5700 C   0  0  0  0  0  2  0  0  0  0  0  0
  -30.6730  -13.2990   19.9400 N   0  0  0  0  0  0  0  0  0  0  0  0
  -32.4150  -14.6660   19.3760 O   0  0  0  0  0  0  0  0  0  0  0  0
  -30.4720  -17.1120   22.3870 C   0  0  0  0  0  2  0  0  0  0  0  0
  -30.8560  -15.6550   22.0930 C   0  0  0  0  0  2  0  0  0  0  0  0
  -30.5640  -16.8000   20.0380 C   0  0  0  0  0  3  0  0  0  0  0  0
  -29.7770  -17.5740   21.1080 C   0  0  0  0  0  3  0  0  0  0  0  0
  -30.7290  -15.4710   20.6390 N   0  0  0  0  0  0  0  0  0  0  0  0
  -25.9600  -13.9680   20.4290 C   0  0  0  0  0  0  0  0  0  0  0  0
  -24.8780  -13.2390   20.8420 C   0  0  0  0  0  0  0  0  0  0  0  0
  -25.2520  -11.8660   20.7120 C   0  0  0  0  0  0  0  0  0  0  0  0
  -26.9300  -13.0400   20.0780 N   0  0  0  0  0  0  0  0  0  0  0  0
  -26.5100  -11.7690   20.3020 N   0  0  0  0  0  0  0  0  0  0  0  0
  -24.4680  -10.6390   20.8910 C   0  0  0  0  0  0  0  0  0  0  0  0
  -24.8350   -9.6640   21.8440 C   0  0  0  0  0  3  0  0  0  0  0  0
  -24.0550   -8.4990   22.0120 C   0  0  0  0  0  3  0  0  0  0  0  0
  -22.8950   -8.3020   21.2250 C   0  0  0  0  0  0  0  0  0  0  0  0
  -22.5480   -9.2660   20.2620 C   0  0  0  0  0  3  0  0  0  0  0  0
  -23.3280  -10.4220   20.0930 C   0  0  0  0  0  3  0  0  0  0  0  0
  -22.0920   -7.1900   21.3010 O   0  0  0  0  0  0  0  0  0  0  0  0
  -21.9100   -6.5140   22.4820 C   0  0  0  0  0  0  0  0  0  0  0  0
  -21.3870   -7.1460   23.6310 C   0  0  0  0  0  3  0  0  0  0  0  0
  -21.1500   -6.3960   24.8000 C   0  0  0  0  0  3  0  0  0  0  0  0
  -21.4270   -5.0160   24.8210 C   0  0  0  0  0  0  0  0  0  0  0  0
  -21.9410   -4.3840   23.6750 C   0  0  0  0  0  3  0  0  0  0  0  0
  -22.1800   -5.1310   22.5080 C   0  0  0  0  0  0  0  0  0  0  0  0
  -22.6550   -4.5120   21.4010 F   0  0  0  0  0  0  0  0  0  0  0  0
  -21.1920   -4.2940   25.9410 F   0  0  0  0  0  0  0  0  0  0  0  0
  -23.5350  -13.7790   21.2440 C   0  0  0  0  0  0  0  0  0  0  0  0
  -22.8470  -13.1010   22.1550 N   0  0  0  0  0  0  0  0  0  0  0  0
  -23.1080  -14.8390   20.7840 O   0  0  0  0  0  0  0  0  0  0  0  0
  -23.2060  -12.2450   22.5520 H   0  0  0  0  0  0  0  0  0  0  0  0
  -21.9500  -13.4450   22.4650 H   0  0  0  0  0  0  0  0  0  0  0  0
  -26.1920  -15.3350   20.3010 N   0  0  0  0  0  0  0  0  0  0  0  0
  -25.4500  -16.0100   20.4520 H   0  0  0  0  0  0  0  0  0  0  0  0
  -26.9980  -15.7280   19.8370 H   0  0  0  0  0  0  0  0  0  0  0  0
  -30.4330  -17.2730   17.5560 C   0  0  0  0  0  2  0  0  0  0  0  0
  -29.8870  -16.7700   18.6750 C   0  0  0  0  0  3  0  0  0  0  0  0
  2  3  1  0
  2  1  1  0
  4  3  1  0
  4  5  1  0
  5  7  1  0
  7  6  1  0
  8 10  1  0
  8  7  1  0
  9 20  2  0
 10 15  1  0
 11 19  1  0
 11 21  1  0
 12 18  1  0
 12 14  1  0
 13 19  1  0
 14 13  1  0
 15 14  2  0
 16 17  1  0
 16 10  2  0
 17 12  2  0
 18 11  1  0
 19  9  1  0
 21 23  2  0
 22 21  1  0
 24 22  1  0
 25 34  2  0
 25 30  1  0
 26 22  1  0
 26 30  1  0
 27 26  1  0
 28 29  1  0
 28 27  1  0
 29 25  1  0
 30 31  2  0
 31 32  1  0
 33 32  2  0
 34 33  1  0
 35  9  1  0
 35 40  1  0
 35 36  1  0
 36 39  1  1
 36 37  1  0
 38 36  1  0
 40 43  1  0
 41 45  1  0
 41 40  1  0
 42 41  2  0
 45 44  1  0
 47 45  1  0
 47 48  1  0
 47 46  1  0
 49  1  1  0
 49 50  1  0
 50 52  1  0
 51 50  1  0
 53 65  1  0
 54 59  1  0
 55 56  1  0
 55 54  1  0
 57 56  1  0
 57 69  1  0
 57 58  1  0
 59 53  1  0
 59 58  1  0
 60 53  2  0
 62 61  1  0
 63 95  1  0
 63 65  1  0
 63 64  1  0
 64 50  1  0
 64 61  1  0
 65 62  1  0
 66 67  2  0
 67 86  1  0
 68 67  1  0
 68 71  1  0
 69 70  1  0
 69 66  1  0
 70 68  2  0
 71 72  1  0
 72 73  2  0
 74 77  1  0
 74 73  1  0
 75 74  2  0
 76 75  1  0
 76 71  2  0
 77 78  1  0
 78 83  2  0
 78 79  1  0
 79 80  2  0
 80 81  1  0
 81 85  1  0
 82 81  2  0
 83 82  1  0
 84 83  1  0
 86 87  1  0
 87 90  1  0
 87 89  1  0
 88 86  2  0
 91 66  1  0
 91 92  1  0
 93 91  1  0
 94 95  2  0
M  ISO  4   7 101   8 101  53 100  65 100
M  END
>  <TORSDO>  (84) 
F 24

>  <SCORE>  (84) 
-11.579

>  <name>  (84) 
83

>  <ligand_id>  (84) 
83

>  <original_smiles>  (84) 
[H]C([H])=C([H])C1([H])N(C(=O)N2C([H])([H])C([H])([H])C([H])([H])C([H])(n3nc(-c4c([H])c([H])c(Oc5c([H])c([H])c(F)c([H])c5F)c([H])c4[H])c(C(=O)N([H])[H])c3N([H])[H])C2([H])[H])C([H])([H])C([H])([H])C1([H])[N+]([H])([H])C([H])([H])C([H])([H])C([H])([H])C([H])([H])C([H])([H])C([H])([H])C([H])(Oc1c([H])c([H])c2c(c1[H])C([H])([H])N(C(=O)C([H])(N([H])C(=O)C([H])(N([H])C([H])([H])[H])C([H])([H])[H])C(C([H])([H])[H])(C([H])([H])[H])C([H])([H])[H])C([H])(C(=O)N([H])C1([H])c3c([H])c([H])c([H])c([H])c3C([H])([H])C([H])([H])C1([H])[H])C2([H])[H])C([H])([H])[H]

>  <smiles>  (84) 
[H]C([H])=C([H])C1([H])N(C(=O)N2C([H])([H])C([H])([H])C([H])([H])C([H])(n3nc(-c4c([H])c([H])c(Oc5c([H])c([H])c(F)c([H])c5F)c([H])c4[H])c(C(=O)N([H])[H])c3N([H])[H])C2([H])[H])C([H])([H])C([H])([H])C1([H])[N+]([H])([H])C([H])([H])C([H])([H])C([H])([H])C([H])([H])C([H])([H])C([H])([H])C([H])(Oc1c([H])c([H])c2c(c1[H])C([H])([H])N(C(=O)C([H])(N([H])C(=O)C([H])(N([H])C([H])([H])[H])C([H])([H])[H])C(C([H])([H])[H])(C([H])([H])[H])C([H])([H])[H])C([H])(C(=O)N([H])C1([H])c3c([H])c([H])c([H])c([H])c3C([H])([H])C([H])([H])C1([H])[H])C2([H])[H])C([H])([H])[H]

$$$$
84:0:0
     RDKit          3D

 96104  0  0  1  0  0  0  0  0999 V2000
  -28.5200  -20.5540   20.8610 C   0  0  0  0  0  2  0  0  0  0  0  0
  -27.1400  -21.2220   20.7340 C   0  0  0  0  0  2  0  0  0  0  0  0
  -27.1150  -22.7240   21.0480 C   0  0  0  0  0  2  0  0  0  0  0  0
  -27.6000  -23.5970   19.8710 C   0  0  0  0  0  2  0  0  0  0  0  0
  -28.9910  -24.2330   20.0230 C   0  0  0  0  0  0  0  0  0  0  0  0
  -29.7160  -24.0080   20.9960 O   0  0  0  0  0  0  0  0  0  0  0  0
  -29.4460  -25.1810   18.9060 C   0  0  0  0  0  2  0  0  0  0  0  0
  -29.3650  -26.5340   19.3570 O   0  0  0  0  0  0  0  0  0  0  0  0
  -25.0530  -30.8350   23.0170 C   0  0  0  0  0  0  0  0  0  0  0  0
  -28.1250  -27.1420   19.4000 C   0  0  0  0  0  0  0  0  0  0  0  0
  -24.0210  -29.6680   21.0990 C   0  0  0  0  0  3  0  0  0  0  0  0
  -25.6340  -28.4670   19.5430 C   0  0  0  0  0  0  0  0  0  0  0  0
  -26.5300  -30.1840   21.1210 C   0  0  0  0  0  2  0  0  0  0  0  0
  -26.7270  -28.9510   20.2710 C   0  0  0  0  0  0  0  0  0  0  0  0
  -27.9730  -28.2950   20.1970 C   0  0  0  0  0  3  0  0  0  0  0  0
  -27.0080  -26.6690   18.6680 C   0  0  0  0  0  3  0  0  0  0  0  0
  -25.7670  -27.3210   18.7470 C   0  0  0  0  0  3  0  0  0  0  0  0
  -24.3400  -29.2370   19.6470 C   0  0  0  0  0  2  0  0  0  0  0  0
  -25.2160  -30.2350   21.8060 N   0  0  0  0  0  0  0  0  0  0  0  0
  -23.9290  -30.9630   23.5220 O   0  0  0  0  0  0  0  0  0  0  0  0
  -23.3820  -28.4700   21.8380 C   0  0  0  0  0  0  0  0  0  0  0  0
  -22.0700  -28.2740   21.6330 N   0  0  0  0  0  0  0  0  0  0  0  0
  -24.0620  -27.7280   22.5490 O   0  0  0  0  0  0  0  0  0  0  0  0
  -21.5850  -28.9160   21.0220 H   0  0  0  0  0  0  0  0  0  0  0  0
  -18.7100  -26.9790   21.8950 C   0  0  0  0  0  0  0  0  0  0  0  0
  -21.2670  -27.1920   22.1990 C   0  0  0  0  0  3  0  0  0  0  0  0
  -21.3770  -25.9170   21.3330 C   0  0  0  0  0  2  0  0  0  0  0  0
  -20.2670  -25.8050   20.2830 C   0  0  0  0  0  2  0  0  0  0  0  0
  -18.8880  -25.8030   20.9490 C   0  0  0  0  0  2  0  0  0  0  0  0
  -19.8270  -27.6420   22.4690 C   0  0  0  0  0  0  0  0  0  0  0  0
  -19.6060  -28.7520   23.3120 C   0  0  0  0  0  3  0  0  0  0  0  0
  -18.3000  -29.1980   23.5870 C   0  0  0  0  0  3  0  0  0  0  0  0
  -17.1970  -28.5300   23.0300 C   0  0  0  0  0  3  0  0  0  0  0  0
  -17.4030  -27.4200   22.1900 C   0  0  0  0  0  3  0  0  0  0  0  0
  -26.2650  -31.4150   23.8100 C   0  0  0  0  0  3  0  0  0  0  0  0
  -26.7270  -30.4910   25.0050 C   0  0  1  0  0  0  0  0  0  0  0  0
  -25.5740  -30.0720   25.9460 C   0  0  0  0  0  1  0  0  0  0  0  0
  -27.4010  -29.2030   24.4740 C   0  0  0  0  0  1  0  0  0  0  0  0
  -27.7900  -31.2290   25.8510 C   0  0  0  0  0  1  0  0  0  0  0  0
  -25.8770  -32.7450   24.2980 N   0  0  0  0  0  0  0  0  0  0  0  0
  -26.2230  -33.9000   23.7160 C   0  0  0  0  0  0  0  0  0  0  0  0
  -26.9750  -33.9580   22.7400 O   0  0  0  0  0  0  0  0  0  0  0  0
  -25.2150  -32.7670   25.0600 H   0  0  0  0  0  0  0  0  0  0  0  0
  -24.4580  -35.6720   23.4560 C   0  0  0  0  0  1  0  0  0  0  0  0
  -25.6410  -35.1950   24.3130 C   0  0  0  0  0  3  0  0  0  0  0  0
  -27.6540  -36.0230   25.4460 C   0  0  0  0  0  1  0  0  0  0  0  0
  -26.6330  -36.2820   24.4350 N   0  0  0  0  0  0  0  0  0  0  0  0
  -26.1770  -37.1630   24.6620 H   0  0  0  0  0  0  0  0  0  0  0  0
  -28.4820  -19.1610   20.2220 C   0  0  0  0  0  2  0  0  0  0  0  0
  -29.7310  -18.3860   20.3920 N   0  0  0  0  0  4  0  0  0  0  0  0
  -30.3800  -18.6670   19.6730 H   0  0  0  0  0  0  0  0  0  0  0  0
  -30.1470  -18.5810   21.2890 H   0  0  0  0  0  0  0  0  0  0  0  0
  -30.5650  -13.7470   18.9850 C   0  0  0  0  0  0  0  0  0  0  0  0
  -29.7060  -11.9020   17.5960 C   0  0  0  0  0  2  0  0  0  0  0  0
  -28.4940  -12.4090   16.7810 C   0  0  0  0  0  2  0  0  0  0  0  0
  -27.1840  -12.2840   17.5930 C   0  0  0  0  0  2  0  0  0  0  0  0
  -27.3170  -12.8470   19.0330 C   0  0  0  0  0  3  0  0  0  0  0  0
  -28.5870  -12.2580   19.6810 C   0  0  0  0  0  2  0  0  0  0  0  0
  -29.7400  -12.6620   18.8580 N   0  0  0  0  0  0  0  0  0  0  0  0
  -31.4690  -13.9620   18.1670 O   0  0  0  0  0  0  0  0  0  0  0  0
  -29.5440  -16.2060   21.6210 C   0  0  0  0  0  2  0  0  0  0  0  0
  -30.4930  -16.1490   19.4580 C   0  0  0  0  0  2  0  0  0  0  0  0
  -29.4920  -16.9360   20.2900 C   0  0  0  0  0  3  0  0  0  0  0  0
  -29.6200  -14.7420   21.1800 C   0  0  0  0  0  3  0  0  0  0  0  0
  -30.1970  -14.7560   19.8190 N   0  0  0  0  0  0  0  0  0  0  0  0
  -25.2210  -13.4700   20.4020 C   0  0  0  0  0  0  0  0  0  0  0  0
  -24.2460  -12.6980   20.9800 C   0  0  0  0  0  0  0  0  0  0  0  0
  -24.6060  -11.3460   20.7050 C   0  0  0  0  0  0  0  0  0  0  0  0
  -26.1190  -12.5800   19.8280 N   0  0  0  0  0  0  0  0  0  0  0  0
  -25.7600  -11.2950   20.0550 N   0  0  0  0  0  0  0  0  0  0  0  0
  -23.8870  -10.0930   20.9700 C   0  0  0  0  0  0  0  0  0  0  0  0
  -24.3880   -9.1400   21.8830 C   0  0  0  0  0  3  0  0  0  0  0  0
  -23.6690   -7.9510   22.1380 C   0  0  0  0  0  3  0  0  0  0  0  0
  -22.4390   -7.7110   21.4790 C   0  0  0  0  0  0  0  0  0  0  0  0
  -21.9570   -8.6570   20.5570 C   0  0  0  0  0  3  0  0  0  0  0  0
  -22.6730   -9.8380   20.3030 C   0  0  0  0  0  3  0  0  0  0  0  0
  -21.6860   -6.5750   21.6470 O   0  0  0  0  0  0  0  0  0  0  0  0
  -21.6450   -5.9060   22.8430 C   0  0  0  0  0  0  0  0  0  0  0  0
  -21.1740   -6.5230   24.0230 C   0  0  0  0  0  3  0  0  0  0  0  0
  -21.0790   -5.7820   25.2170 C   0  0  0  0  0  3  0  0  0  0  0  0
  -21.4470   -4.4220   25.2310 C   0  0  0  0  0  0  0  0  0  0  0  0
  -21.9130   -3.8060   24.0570 C   0  0  0  0  0  3  0  0  0  0  0  0
  -22.0090   -4.5440   22.8660 C   0  0  0  0  0  0  0  0  0  0  0  0
  -22.4370   -3.9390   21.7320 F   0  0  0  0  0  0  0  0  0  0  0  0
  -21.3490   -3.7080   26.3760 F   0  0  0  0  0  0  0  0  0  0  0  0
  -22.9990  -13.1930   21.6580 C   0  0  0  0  0  0  0  0  0  0  0  0
  -22.5190  -12.4840   22.6730 N   0  0  0  0  0  0  0  0  0  0  0  0
  -22.4650  -14.2470   21.3190 O   0  0  0  0  0  0  0  0  0  0  0  0
  -22.9620  -11.6320   22.9830 H   0  0  0  0  0  0  0  0  0  0  0  0
  -21.6970  -12.8160   23.1570 H   0  0  0  0  0  0  0  0  0  0  0  0
  -25.4030  -14.8430   20.2980 N   0  0  0  0  0  0  0  0  0  0  0  0
  -24.7190  -15.5030   20.6530 H   0  0  0  0  0  0  0  0  0  0  0  0
  -26.1000  -15.2740   19.7060 H   0  0  0  0  0  0  0  0  0  0  0  0
  -30.3930  -13.8650   22.1930 C   0  0  0  0  0  2  0  0  0  0  0  0
  -31.0060  -11.3720   22.2760 C   0  0  0  0  0  1  0  0  0  0  0  0
  -29.8850  -12.4120   22.1910 C   0  0  0  0  0  2  0  0  0  0  0  0
  2  1  1  0
  2  3  1  0
  4  5  1  0
  4  3  1  0
  5  6  2  0
  7  8  1  0
  7  5  1  0
  8 10  1  0
  9 20  2  0
 10 15  1  0
 11 19  1  0
 11 21  1  0
 12 18  1  0
 12 14  1  0
 13 19  1  0
 14 13  1  0
 15 14  2  0
 16 17  1  0
 16 10  2  0
 17 12  2  0
 18 11  1  0
 19  9  1  0
 21 23  2  0
 22 21  1  0
 24 22  1  0
 25 34  2  0
 25 30  1  0
 26 22  1  0
 26 30  1  0
 27 26  1  0
 28 29  1  0
 28 27  1  0
 29 25  1  0
 30 31  2  0
 31 32  1  0
 33 32  2  0
 34 33  1  0
 35  9  1  0
 35 40  1  0
 35 36  1  0
 36 39  1  1
 36 37  1  0
 38 36  1  0
 40 43  1  0
 41 40  1  0
 41 45  1  0
 42 41  2  0
 45 44  1  0
 45 47  1  0
 47 48  1  0
 47 46  1  0
 49 50  1  0
 49  1  1  0
 50 52  1  0
 51 50  1  0
 53 65  1  0
 54 59  1  0
 55 56  1  0
 55 54  1  0
 57 56  1  0
 57 58  1  0
 57 69  1  0
 59 53  1  0
 59 58  1  0
 60 53  2  0
 62 65  1  0
 62 63  1  0
 63 50  1  0
 63 61  1  0
 64 61  1  0
 64 94  1  0
 65 64  1  0
 66 67  2  0
 67 86  1  0
 68 71  1  0
 68 67  1  0
 69 70  1  0
 69 66  1  0
 70 68  2  0
 71 72  1  0
 72 73  2  0
 74 77  1  0
 74 73  1  0
 75 74  2  0
 76 75  1  0
 76 71  2  0
 77 78  1  0
 78 83  2  0
 78 79  1  0
 79 80  2  0
 80 81  1  0
 81 85  1  0
 82 81  2  0
 83 82  1  0
 84 83  1  0
 86 87  1  0
 87 89  1  0
 87 90  1  0
 88 86  2  0
 91 66  1  0
 91 92  1  0
 93 91  1  0
 96 94  1  0
 96 95  1  0
M  ISO  4   7 101   8 101  53 100  65 100
M  END
>  <TORSDO>  (85) 
F 25

>  <SCORE>  (85) 
-5.260

>  <name>  (85) 
84

>  <ligand_id>  (85) 
84

>  <original_smiles>  (85) 
[H]c1c([H])c([H])c2c(c1[H])C([H])([H])C([H])([H])C([H])([H])C2([H])N([H])C(=O)C1([H])N(C(=O)C([H])(N([H])C(=O)C([H])(N([H])C([H])([H])[H])C([H])([H])[H])C(C([H])([H])[H])(C([H])([H])[H])C([H])([H])[H])C([H])([H])c2c([H])c(OC([H])([H])C(=O)C([H])([H])C([H])([H])C([H])([H])C([H])([H])C([H])([H])[N+]([H])([H])C3([H])C([H])([H])N(C(=O)N4C([H])([H])C([H])([H])C([H])([H])C([H])(n5nc(-c6c([H])c([H])c(Oc7c([H])c([H])c(F)c([H])c7F)c([H])c6[H])c(C(=O)N([H])[H])c5N([H])[H])C4([H])[H])C([H])(C([H])([H])C([H])([H])C([H])([H])[H])C3([H])[H])c([H])c([H])c2C1([H])[H]

>  <smiles>  (85) 
[H]c1c([H])c([H])c2c(c1[H])C([H])([H])C([H])([H])C([H])([H])C2([H])N([H])C(=O)C1([H])N(C(=O)C([H])(N([H])C(=O)C([H])(N([H])C([H])([H])[H])C([H])([H])[H])C(C([H])([H])[H])(C([H])([H])[H])C([H])([H])[H])C([H])([H])c2c([H])c(OC([H])([H])C(=O)C([H])([H])C([H])([H])C([H])([H])C([H])([H])C([H])([H])[N+]([H])([H])C3([H])C([H])([H])N(C(=O)N4C([H])([H])C([H])([H])C([H])([H])C([H])(n5nc(-c6c([H])c([H])c(Oc7c([H])c([H])c(F)c([H])c7F)c([H])c6[H])c(C(=O)N([H])[H])c5N([H])[H])C4([H])[H])C([H])(C([H])([H])C([H])([H])C([H])([H])[H])C3([H])[H])c([H])c([H])c2C1([H])[H]

$$$$
85:0:0
     RDKit          3D

 90 98  0  0  1  0  0  0  0  0999 V2000
  -27.9760  -23.0630   20.6590 C   0  0  0  0  0  2  0  0  0  0  0  0
  -28.6390  -24.3940   20.2690 C   0  0  0  0  0  0  0  0  0  0  0  0
  -29.5020  -24.4420   19.3860 O   0  0  0  0  0  0  0  0  0  0  0  0
  -28.1770  -25.6600   21.0050 C   0  0  0  0  0  2  0  0  0  0  0  0
  -28.3230  -26.8390   20.1930 O   0  0  0  0  0  0  0  0  0  0  0  0
  -24.5170  -31.9710   23.2870 C   0  0  0  0  0  0  0  0  0  0  0  0
  -27.1750  -27.5910   20.1620 C   0  0  0  0  0  0  0  0  0  0  0  0
  -23.3120  -30.5780   21.6350 C   0  0  0  0  0  3  0  0  0  0  0  0
  -24.7730  -29.0680   20.1860 C   0  0  0  0  0  0  0  0  0  0  0  0
  -25.8330  -30.9650   21.4260 C   0  0  0  0  0  2  0  0  0  0  0  0
  -25.9280  -29.6020   20.7730 C   0  0  0  0  0  0  0  0  0  0  0  0
  -27.1360  -28.8710   20.7570 C   0  0  0  0  0  3  0  0  0  0  0  0
  -26.0110  -27.0700   19.5610 C   0  0  0  0  0  3  0  0  0  0  0  0
  -24.8080  -27.8030   19.5730 C   0  0  0  0  0  3  0  0  0  0  0  0
  -23.5200  -29.9130   20.2470 C   0  0  0  0  0  2  0  0  0  0  0  0
  -24.5720  -31.1850   22.1750 N   0  0  0  0  0  0  0  0  0  0  0  0
  -23.4370  -32.2290   23.8360 O   0  0  0  0  0  0  0  0  0  0  0  0
  -22.6740  -29.5410   22.5880 C   0  0  0  0  0  0  0  0  0  0  0  0
  -21.3510  -29.3500   22.4620 N   0  0  0  0  0  0  0  0  0  0  0  0
  -23.3660  -28.9140   23.3950 O   0  0  0  0  0  0  0  0  0  0  0  0
  -20.8560  -29.9090   21.7820 H   0  0  0  0  0  0  0  0  0  0  0  0
  -17.9890  -28.1210   22.9460 C   0  0  0  0  0  0  0  0  0  0  0  0
  -20.5430  -28.3990   23.2240 C   0  0  0  0  0  3  0  0  0  0  0  0
  -20.6590  -26.9730   22.6360 C   0  0  0  0  0  2  0  0  0  0  0  0
  -19.5610  -26.6490   21.6180 C   0  0  0  0  0  2  0  0  0  0  0  0
  -18.1780  -26.7780   22.2610 C   0  0  0  0  0  2  0  0  0  0  0  0
  -19.1000  -28.8890   23.3840 C   0  0  0  0  0  0  0  0  0  0  0  0
  -18.8710  -30.1470   23.9820 C   0  0  0  0  0  3  0  0  0  0  0  0
  -17.5620  -30.6360   24.1490 C   0  0  0  0  0  3  0  0  0  0  0  0
  -16.4640  -29.8650   23.7300 C   0  0  0  0  0  3  0  0  0  0  0  0
  -16.6790  -28.6100   23.1340 C   0  0  0  0  0  3  0  0  0  0  0  0
  -25.8020  -32.6030   23.9080 C   0  0  0  0  0  3  0  0  0  0  0  0
  -25.5010  -34.0080   24.2160 N   0  0  0  0  0  0  0  0  0  0  0  0
  -25.8610  -35.0470   23.4520 C   0  0  0  0  0  0  0  0  0  0  0  0
  -26.5550  -34.9240   22.4370 O   0  0  0  0  0  0  0  0  0  0  0  0
  -24.8910  -34.1770   25.0020 H   0  0  0  0  0  0  0  0  0  0  0  0
  -24.1720  -36.8580   23.0170 C   0  0  0  0  0  1  0  0  0  0  0  0
  -25.3750  -36.4450   23.8800 C   0  0  0  0  0  3  0  0  0  0  0  0
  -27.4880  -37.3080   24.7860 C   0  0  0  0  0  1  0  0  0  0  0  0
  -26.4260  -37.4830   23.7990 N   0  0  0  0  0  0  0  0  0  0  0  0
  -26.0270  -38.4090   23.9210 H   0  0  0  0  0  0  0  0  0  0  0  0
  -26.3080  -31.8440   25.1960 C   0  0  1  0  0  0  0  0  0  0  0  0
  -25.2090  -31.6210   26.2600 C   0  0  0  0  0  1  0  0  0  0  0  0
  -26.8910  -30.4620   24.8200 C   0  0  0  0  0  1  0  0  0  0  0  0
  -27.4570  -32.6430   25.8570 C   0  0  0  0  0  1  0  0  0  0  0  0
  -28.9650  -21.9430   21.0750 C   0  0  0  0  0  2  0  0  0  0  0  0
  -28.4250  -20.5230   20.7880 C   0  0  0  0  0  2  0  0  0  0  0  0
  -29.4330  -19.3960   21.1360 C   0  0  0  0  0  2  0  0  0  0  0  0
  -31.0160  -14.6620   20.6420 C   0  0  0  0  0  0  0  0  0  0  0  0
  -30.7850  -12.3980   19.7370 C   0  0  0  0  0  2  0  0  0  0  0  0
  -29.9180  -12.4400   18.4590 C   0  0  0  0  0  2  0  0  0  0  0  0
  -28.4180  -12.3790   18.8050 C   0  0  0  0  0  2  0  0  0  0  0  0
  -27.9970  -13.3310   19.9590 C   0  0  0  0  0  3  0  0  0  0  0  0
  -28.9850  -13.2630   21.1430 C   0  0  0  0  0  2  0  0  0  0  0  0
  -30.3360  -13.4870   20.6120 N   0  0  0  0  0  0  0  0  0  0  0  0
  -32.2460  -14.7250   20.5610 O   0  0  0  0  0  0  0  0  0  0  0  0
  -29.3940  -16.8260   18.2010 C   0  0  0  0  0  2  0  0  0  0  0  0
  -29.2130  -18.1520   18.9310 C   0  0  0  0  0  2  0  0  0  0  0  0
  -30.5930  -16.1040   18.8040 C   0  0  0  0  0  2  0  0  0  0  0  0
  -30.2250  -16.9610   21.0030 C   0  0  0  0  0  2  0  0  0  0  0  0
  -29.1870  -18.0110   20.4740 C   0  0  0  0  0  3  0  0  0  0  0  0
  -30.2990  -15.7260   20.1960 N   0  0  0  0  0  0  0  0  0  0  0  0
  -25.5700  -13.9750   20.5170 C   0  0  0  0  0  0  0  0  0  0  0  0
  -24.4740  -13.2190   20.8350 C   0  0  0  0  0  0  0  0  0  0  0  0
  -24.9240  -11.8640   20.8700 C   0  0  0  0  0  0  0  0  0  0  0  0
  -26.6200  -13.0810   20.3760 N   0  0  0  0  0  0  0  0  0  0  0  0
  -26.2320  -11.8090   20.6530 N   0  0  0  0  0  0  0  0  0  0  0  0
  -24.1800  -10.6100   21.0440 C   0  0  0  0  0  0  0  0  0  0  0  0
  -24.5430   -9.6640   22.0260 C   0  0  0  0  0  3  0  0  0  0  0  0
  -23.7990   -8.4750   22.1870 C   0  0  0  0  0  3  0  0  0  0  0  0
  -22.6780   -8.2240   21.3620 C   0  0  0  0  0  0  0  0  0  0  0  0
  -22.3320   -9.1590   20.3690 C   0  0  0  0  0  3  0  0  0  0  0  0
  -23.0770  -10.3390   20.2070 C   0  0  0  0  0  3  0  0  0  0  0  0
  -21.9100   -7.0860   21.4280 O   0  0  0  0  0  0  0  0  0  0  0  0
  -21.7670   -6.3820   22.5970 C   0  0  0  0  0  0  0  0  0  0  0  0
  -21.2340   -6.9730   23.7630 C   0  0  0  0  0  3  0  0  0  0  0  0
  -21.0400   -6.1940   24.9210 C   0  0  0  0  0  3  0  0  0  0  0  0
  -21.3680   -4.8260   24.9140 C   0  0  0  0  0  0  0  0  0  0  0  0
  -21.8920   -4.2340   23.7520 C   0  0  0  0  0  3  0  0  0  0  0  0
  -22.0880   -5.0090   22.5960 C   0  0  0  0  0  0  0  0  0  0  0  0
  -22.5750   -4.4290   21.4730 F   0  0  0  0  0  0  0  0  0  0  0  0
  -21.1750   -4.0760   26.0240 F   0  0  0  0  0  0  0  0  0  0  0  0
  -23.0640  -13.7100   21.0000 C   0  0  0  0  0  0  0  0  0  0  0  0
  -22.2780  -13.0470   21.8400 N   0  0  0  0  0  0  0  0  0  0  0  0
  -22.6660  -14.7180   20.4180 O   0  0  0  0  0  0  0  0  0  0  0  0
  -22.6120  -12.2320   22.3340 H   0  0  0  0  0  0  0  0  0  0  0  0
  -21.3290  -13.3580   21.9910 H   0  0  0  0  0  0  0  0  0  0  0  0
  -25.7600  -15.3400   20.3150 N   0  0  0  0  0  0  0  0  0  0  0  0
  -25.0010  -16.0110   20.3630 H   0  0  0  0  0  0  0  0  0  0  0  0
  -26.6470  -15.7580   20.0660 H   0  0  0  0  0  0  0  0  0  0  0  0
  1 46  1  0
  2  1  1  0
  2  4  1  0
  3  2  2  0
  5  4  1  0
  6 17  2  0
  7  5  1  0
  7 12  1  0
  8 16  1  0
  8 18  1  0
  9 15  1  0
  9 11  1  0
 10 16  1  0
 11 10  1  0
 12 11  2  0
 13 14  1  0
 13  7  2  0
 14  9  2  0
 15  8  1  0
 16  6  1  0
 18 20  2  0
 19 18  1  0
 21 19  1  0
 22 31  2  0
 22 27  1  0
 23 19  1  0
 23 27  1  0
 24 23  1  0
 25 26  1  0
 25 24  1  0
 26 22  1  0
 27 28  2  0
 28 29  1  0
 30 29  2  0
 31 30  1  0
 32  6  1  0
 32 33  1  0
 32 42  1  0
 33 36  1  0
 34 38  1  0
 34 33  1  0
 35 34  2  0
 38 37  1  0
 40 38  1  0
 40 41  1  0
 40 39  1  0
 42 45  1  1
 42 43  1  0
 44 42  1  0
 47 46  1  0
 47 48  1  0
 50 55  1  0
 51 52  1  0
 51 50  1  0
 53 52  1  0
 53 66  1  0
 53 54  1  0
 55 49  1  0
 55 54  1  0
 56 49  2  0
 57 59  1  0
 57 58  1  0
 58 61  1  0
 59 62  1  0
 61 60  1  0
 61 48  1  0
 62 49  1  0
 62 60  1  0
 63 64  2  0
 64 65  1  0
 64 83  1  0
 65 68  1  0
 66 63  1  0
 66 67  1  0
 67 65  2  0
 68 69  1  0
 69 70  2  0
 71 74  1  0
 71 70  1  0
 72 71  2  0
 73 72  1  0
 73 68  2  0
 74 75  1  0
 75 76  1  0
 76 77  2  0
 78 77  1  0
 78 82  1  0
 79 78  2  0
 80 75  2  0
 80 79  1  0
 81 80  1  0
 83 84  1  0
 84 87  1  0
 84 86  1  0
 85 83  2  0
 88 89  1  0
 88 63  1  0
 90 88  1  0
M  ISO  4   4 101   5 101  49 100  62 100
M  END
>  <TORSDO>  (86) 
F 21

>  <SCORE>  (86) 
-12.648

>  <name>  (86) 
85

>  <ligand_id>  (86) 
85

>  <original_smiles>  (86) 
[H]c1c([H])c([H])c2c(c1[H])C([H])([H])C([H])([H])C([H])([H])C2([H])N([H])C(=O)C1([H])N(C(=O)C([H])(N([H])C(=O)C([H])(N([H])C([H])([H])[H])C([H])([H])[H])C(C([H])([H])[H])(C([H])([H])[H])C([H])([H])[H])C([H])([H])c2c([H])c(OC([H])([H])C(=O)C([H])([H])C([H])([H])C([H])([H])C([H])([H])C3([H])C([H])([H])N(C(=O)N4C([H])([H])C([H])([H])C([H])([H])C([H])(n5nc(-c6c([H])c([H])c(Oc7c([H])c([H])c(F)c([H])c7F)c([H])c6[H])c(C(=O)N([H])[H])c5N([H])[H])C4([H])[H])C([H])([H])C([H])([H])C3([H])[H])c([H])c([H])c2C1([H])[H]

>  <smiles>  (86) 
[H]c1c([H])c([H])c2c(c1[H])C([H])([H])C([H])([H])C([H])([H])C2([H])N([H])C(=O)C1([H])N(C(=O)C([H])(N([H])C(=O)C([H])(N([H])C([H])([H])[H])C([H])([H])[H])C(C([H])([H])[H])(C([H])([H])[H])C([H])([H])[H])C([H])([H])c2c([H])c(OC([H])([H])C(=O)C([H])([H])C([H])([H])C([H])([H])C([H])([H])C3([H])C([H])([H])N(C(=O)N4C([H])([H])C([H])([H])C([H])([H])C([H])(n5nc(-c6c([H])c([H])c(Oc7c([H])c([H])c(F)c([H])c7F)c([H])c6[H])c(C(=O)N([H])[H])c5N([H])[H])C4([H])[H])C([H])([H])C([H])([H])C3([H])[H])c([H])c([H])c2C1([H])[H]

$$$$
86:0:0
     RDKit          3D

 94102  0  0  1  0  0  0  0  0999 V2000
  -32.0310  -20.6790   22.7130 C   0  0  0  0  0  0  0  0  0  0  0  0
  -33.2560  -20.8030   22.8180 O   0  0  0  0  0  0  0  0  0  0  0  0
  -32.4220  -18.4230   21.6480 C   0  0  0  0  0  1  0  0  0  0  0  0
  -31.3840  -19.3140   22.3720 C   0  0  0  0  0  3  0  0  0  0  0  0
  -30.0290  -19.4990   21.6280 C   0  0  0  0  0  2  0  0  0  0  0  0
  -30.5120  -14.9840   20.1700 C   0  0  0  0  0  0  0  0  0  0  0  0
  -30.2040  -12.9180   18.9100 C   0  0  0  0  0  2  0  0  0  0  0  0
  -29.2060  -13.2500   17.7830 C   0  0  0  0  0  2  0  0  0  0  0  0
  -27.7480  -13.0900   18.2680 C   0  0  0  0  0  2  0  0  0  0  0  0
  -27.4690  -13.7410   19.6540 C   0  0  0  0  0  3  0  0  0  0  0  0
  -28.5960  -13.4340   20.6640 C   0  0  0  0  0  2  0  0  0  0  0  0
  -29.8730  -13.7950   20.0360 N   0  0  0  0  0  0  0  0  0  0  0  0
  -31.7150  -15.1250   19.9340 O   0  0  0  0  0  0  0  0  0  0  0  0
  -30.2030  -18.3040   19.3620 C   0  0  0  0  0  2  0  0  0  0  0  0
  -29.4560  -16.9230   21.2150 C   0  0  0  0  0  2  0  0  0  0  0  0
  -29.5030  -18.3770   20.7060 C   0  0  0  0  0  3  0  0  0  0  0  0
  -29.8090  -16.9260   18.8400 C   0  0  0  0  0  3  0  0  0  0  0  0
  -29.6880  -16.0590   20.0430 N   0  0  0  0  0  0  0  0  0  0  0  0
  -25.0570  -14.1920   20.4190 C   0  0  0  0  0  0  0  0  0  0  0  0
  -24.0490  -13.3500   20.8030 C   0  0  0  0  0  0  0  0  0  0  0  0
  -24.5970  -12.0320   20.7610 C   0  0  0  0  0  0  0  0  0  0  0  0
  -26.1520  -13.3790   20.1670 N   0  0  0  0  0  0  0  0  0  0  0  0
  -25.8810  -12.0770   20.4320 N   0  0  0  0  0  0  0  0  0  0  0  0
  -23.9590  -10.7250   20.9580 C   0  0  0  0  0  0  0  0  0  0  0  0
  -24.4160   -9.8220   21.9430 C   0  0  0  0  0  3  0  0  0  0  0  0
  -23.7760   -8.5790   22.1260 C   0  0  0  0  0  3  0  0  0  0  0  0
  -22.6660   -8.2270   21.3220 C   0  0  0  0  0  0  0  0  0  0  0  0
  -22.2310   -9.1190   20.3250 C   0  0  0  0  0  3  0  0  0  0  0  0
  -22.8720  -10.3540   20.1420 C   0  0  0  0  0  3  0  0  0  0  0  0
  -21.9990   -7.0310   21.4120 O   0  0  0  0  0  0  0  0  0  0  0  0
  -21.8940   -6.3520   22.6000 C   0  0  0  0  0  0  0  0  0  0  0  0
  -21.3220   -6.9430   23.7480 C   0  0  0  0  0  3  0  0  0  0  0  0
  -21.1710   -6.1860   24.9270 C   0  0  0  0  0  3  0  0  0  0  0  0
  -21.5800   -4.8400   24.9580 C   0  0  0  0  0  0  0  0  0  0  0  0
  -22.1430   -4.2490   23.8140 C   0  0  0  0  0  3  0  0  0  0  0  0
  -22.2970   -5.0020   22.6370 C   0  0  0  0  0  0  0  0  0  0  0  0
  -22.8220   -4.4220   21.5310 F   0  0  0  0  0  0  0  0  0  0  0  0
  -21.4290   -4.1100   26.0880 F   0  0  0  0  0  0  0  0  0  0  0  0
  -22.6270  -13.7340   21.1010 C   0  0  0  0  0  0  0  0  0  0  0  0
  -21.9750  -13.0130   22.0050 N   0  0  0  0  0  0  0  0  0  0  0  0
  -22.1000  -14.7080   20.5620 O   0  0  0  0  0  0  0  0  0  0  0  0
  -22.4160  -12.2230   22.4550 H   0  0  0  0  0  0  0  0  0  0  0  0
  -21.0240  -13.2480   22.2490 H   0  0  0  0  0  0  0  0  0  0  0  0
  -25.1300  -15.5720   20.2440 N   0  0  0  0  0  0  0  0  0  0  0  0
  -24.3290  -16.1790   20.3780 H   0  0  0  0  0  0  0  0  0  0  0  0
  -25.9530  -16.0690   19.9260 H   0  0  0  0  0  0  0  0  0  0  0  0
  -28.4990  -18.1060   16.9470 C   0  0  0  0  0  1  0  0  0  0  0  0
  -28.4950  -17.0020   18.0200 C   0  0  0  0  0  2  0  0  0  0  0  0
  -31.1330  -21.8940   22.9480 C   0  0  0  0  0  2  0  0  0  0  0  0
  -31.0880  -22.8440   21.7330 C   0  0  0  0  0  2  0  0  0  0  0  0
  -29.9650  -23.8890   21.8700 C   0  0  0  0  0  2  0  0  0  0  0  0
  -29.8190  -24.8060   20.6150 C   0  0  0  0  0  2  0  0  0  0  0  0
  -28.5240  -25.3680   19.9580 C   0  0  0  0  0  2  0  0  0  0  0  0
  -28.5500  -26.8020   19.9530 O   0  0  0  0  0  0  0  0  0  0  0  0
  -24.6550  -31.7650   23.1970 C   0  0  0  0  0  0  0  0  0  0  0  0
  -27.3430  -27.4630   19.9740 C   0  0  0  0  0  0  0  0  0  0  0  0
  -23.4510  -30.3720   21.5460 C   0  0  0  0  0  3  0  0  0  0  0  0
  -24.9120  -28.8990   20.0640 C   0  0  0  0  0  0  0  0  0  0  0  0
  -25.9630  -30.7970   21.3090 C   0  0  0  0  0  2  0  0  0  0  0  0
  -26.0670  -29.4410   20.6420 C   0  0  0  0  0  0  0  0  0  0  0  0
  -27.2850  -28.7300   20.5920 C   0  0  0  0  0  3  0  0  0  0  0  0
  -26.1700  -26.9290   19.3950 C   0  0  0  0  0  3  0  0  0  0  0  0
  -24.9560  -27.6410   19.4400 C   0  0  0  0  0  3  0  0  0  0  0  0
  -23.6500  -29.7260   20.1490 C   0  0  0  0  0  2  0  0  0  0  0  0
  -24.7080  -30.9920   22.0750 N   0  0  0  0  0  0  0  0  0  0  0  0
  -23.5770  -32.0000   23.7620 O   0  0  0  0  0  0  0  0  0  0  0  0
  -22.8430  -29.3130   22.4940 C   0  0  0  0  0  0  0  0  0  0  0  0
  -21.5350  -29.0590   22.3410 N   0  0  0  0  0  0  0  0  0  0  0  0
  -23.5450  -28.7210   23.3180 O   0  0  0  0  0  0  0  0  0  0  0  0
  -21.0300  -29.5970   21.6520 H   0  0  0  0  0  0  0  0  0  0  0  0
  -18.2250  -27.6610   22.7390 C   0  0  0  0  0  0  0  0  0  0  0  0
  -20.7520  -28.0790   23.0930 C   0  0  0  0  0  3  0  0  0  0  0  0
  -20.9620  -26.6530   22.5310 C   0  0  0  0  0  2  0  0  0  0  0  0
  -19.9140  -26.2550   21.4860 C   0  0  0  0  0  2  0  0  0  0  0  0
  -18.5050  -26.3190   22.0850 C   0  0  0  0  0  2  0  0  0  0  0  0
  -19.2800  -28.4930   23.1980 C   0  0  0  0  0  0  0  0  0  0  0  0
  -18.9660  -29.7460   23.7680 C   0  0  0  0  0  3  0  0  0  0  0  0
  -17.6290  -30.1690   23.8850 C   0  0  0  0  0  3  0  0  0  0  0  0
  -16.5870  -29.3340   23.4430 C   0  0  0  0  0  3  0  0  0  0  0  0
  -16.8860  -28.0820   22.8760 C   0  0  0  0  0  3  0  0  0  0  0  0
  -25.9360  -32.4110   23.8110 C   0  0  0  0  0  3  0  0  0  0  0  0
  -25.6060  -33.7960   24.1680 N   0  0  0  0  0  0  0  0  0  0  0  0
  -25.9190  -34.8680   23.4260 C   0  0  0  0  0  0  0  0  0  0  0  0
  -26.5890  -34.7950   22.3930 O   0  0  0  0  0  0  0  0  0  0  0  0
  -25.0080  -33.9260   24.9700 H   0  0  0  0  0  0  0  0  0  0  0  0
  -24.1600  -36.6370   23.1000 C   0  0  0  0  0  1  0  0  0  0  0  0
  -25.4050  -36.2380   23.9080 C   0  0  0  0  0  3  0  0  0  0  0  0
  -27.5240  -37.1410   24.7610 C   0  0  0  0  0  1  0  0  0  0  0  0
  -26.4200  -37.3100   23.8180 N   0  0  0  0  0  0  0  0  0  0  0  0
  -26.0000  -38.2210   23.9840 H   0  0  0  0  0  0  0  0  0  0  0  0
  -26.4860  -31.6290   25.0670 C   0  0  1  0  0  0  0  0  0  0  0  0
  -25.4040  -31.3200   26.1300 C   0  0  0  0  0  1  0  0  0  0  0  0
  -27.1250  -30.2890   24.6340 C   0  0  0  0  0  1  0  0  0  0  0  0
  -27.6020  -32.4540   25.7490 C   0  0  0  0  0  1  0  0  0  0  0  0
  1  2  2  0
  1 49  1  0
  4  3  1  0
  4  1  1  0
  5  4  1  0
  7 12  1  0
  8  9  1  0
  8  7  1  0
 10  9  1  0
 10 22  1  0
 10 11  1  0
 12  6  1  0
 12 11  1  0
 13  6  2  0
 14 16  1  0
 16 15  1  0
 16  5  1  0
 17 48  1  0
 17 14  1  0
 17 18  1  0
 18  6  1  0
 18 15  1  0
 19 20  2  0
 20 39  1  0
 21 20  1  0
 21 24  1  0
 22 19  1  0
 22 23  1  0
 23 21  2  0
 24 25  1  0
 25 26  2  0
 27 30  1  0
 27 26  1  0
 28 27  2  0
 29 28  1  0
 29 24  2  0
 30 31  1  0
 31 36  2  0
 31 32  1  0
 32 33  2  0
 33 34  1  0
 34 38  1  0
 35 34  2  0
 36 35  1  0
 37 36  1  0
 39 40  1  0
 40 43  1  0
 40 42  1  0
 41 39  2  0
 44 45  1  0
 44 19  1  0
 46 44  1  0
 47 48  1  0
 50 51  1  0
 50 49  1  0
 52 51  1  0
 53 52  1  0
 54 53  1  0
 54 56  1  0
 55 66  2  0
 56 61  1  0
 57 65  1  0
 57 67  1  0
 58 64  1  0
 58 60  1  0
 59 65  1  0
 60 59  1  0
 61 60  2  0
 62 63  1  0
 62 56  2  0
 63 58  2  0
 64 57  1  0
 65 55  1  0
 67 69  2  0
 68 67  1  0
 70 68  1  0
 71 80  2  0
 71 76  1  0
 72 68  1  0
 72 76  1  0
 73 72  1  0
 74 75  1  0
 74 73  1  0
 75 71  1  0
 76 77  2  0
 77 78  1  0
 79 78  2  0
 80 79  1  0
 81 55  1  0
 81 82  1  0
 81 91  1  0
 82 85  1  0
 83 87  1  0
 83 82  1  0
 84 83  2  0
 87 86  1  0
 89 87  1  0
 89 90  1  0
 89 88  1  0
 91 94  1  1
 91 92  1  0
 93 91  1  0
M  ISO  4   6 100  18 100  53 101  54 101
M  END
>  <TORSDO>  (87) 
F 24

>  <SCORE>  (87) 
-10.986

>  <name>  (87) 
86

>  <ligand_id>  (87) 
86

>  <original_smiles>  (87) 
[H]c1c([H])c([H])c2c(c1[H])C([H])([H])C([H])([H])C([H])([H])C2([H])N([H])C(=O)C1([H])N(C(=O)C([H])(N([H])C(=O)C([H])(N([H])C([H])([H])[H])C([H])([H])[H])C(C([H])([H])[H])(C([H])([H])[H])C([H])([H])[H])C([H])([H])c2c([H])c(OC([H])([H])C([H])([H])C([H])([H])C([H])([H])C([H])([H])C(=O)C([H])(C([H])([H])[H])C([H])([H])C3([H])C([H])([H])N(C(=O)N4C([H])([H])C([H])([H])C([H])([H])C([H])(n5nc(-c6c([H])c([H])c(Oc7c([H])c([H])c(F)c([H])c7F)c([H])c6[H])c(C(=O)N([H])[H])c5N([H])[H])C4([H])[H])C([H])(C([H])([H])C([H])([H])[H])C3([H])[H])c([H])c([H])c2C1([H])[H]

>  <smiles>  (87) 
[H]c1c([H])c([H])c2c(c1[H])C([H])([H])C([H])([H])C([H])([H])C2([H])N([H])C(=O)C1([H])N(C(=O)C([H])(N([H])C(=O)C([H])(N([H])C([H])([H])[H])C([H])([H])[H])C(C([H])([H])[H])(C([H])([H])[H])C([H])([H])[H])C([H])([H])c2c([H])c(OC([H])([H])C([H])([H])C([H])([H])C([H])([H])C([H])([H])C(=O)C([H])(C([H])([H])[H])C([H])([H])C3([H])C([H])([H])N(C(=O)N4C([H])([H])C([H])([H])C([H])([H])C([H])(n5nc(-c6c([H])c([H])c(Oc7c([H])c([H])c(F)c([H])c7F)c([H])c6[H])c(C(=O)N([H])[H])c5N([H])[H])C4([H])[H])C([H])(C([H])([H])C([H])([H])[H])C3([H])[H])c([H])c([H])c2C1([H])[H]

$$$$
87:0:0
     RDKit          3D

 99107  0  0  1  0  0  0  0  0999 V2000
  -29.2710  -22.4590   19.5530 C   0  0  0  0  0  2  0  0  0  0  0  0
  -26.7560  -19.2540   17.9190 C   0  0  0  0  0  2  0  0  0  0  0  0
  -28.0140  -18.8810   18.6980 C   0  0  0  0  0  2  0  0  0  0  0  0
  -27.0890  -21.6200   18.6740 C   0  0  0  0  0  2  0  0  0  0  0  0
  -26.0900  -20.4520   18.5860 C   0  0  0  0  0  3  0  0  0  0  0  0
  -29.0220  -20.0560   18.8260 C   0  0  0  0  0  3  0  0  0  0  0  0
  -24.8060  -20.8600   17.8480 C   0  0  0  0  0  1  0  0  0  0  0  0
  -28.3520  -21.2780   19.4020 N   0  0  1  0  0  4  0  0  0  0  0  0
  -28.0650  -21.0230   20.3360 H   0  0  0  0  0  0  0  0  0  0  0  0
  -30.2930  -19.6050   19.6160 C   0  0  0  0  0  2  0  0  0  0  0  0
  -30.5520  -18.0840   19.5580 C   0  0  0  0  0  2  0  0  0  0  0  0
  -31.9640  -17.6120   19.9450 C   0  0  0  0  0  2  0  0  0  0  0  0
  -32.5390  -15.1780   20.2000 C   0  0  0  0  0  0  0  0  0  0  0  0
  -32.3600  -12.7300   19.9640 C   0  0  0  0  0  2  0  0  0  0  0  0
  -31.5020  -12.3950   18.7270 C   0  0  0  0  0  2  0  0  0  0  0  0
  -30.0000  -12.3900   19.0750 C   0  0  0  0  0  2  0  0  0  0  0  0
  -29.5650  -13.6580   19.8560 C   0  0  0  0  0  3  0  0  0  0  0  0
  -30.5270  -13.9120   21.0380 C   0  0  0  0  0  2  0  0  0  0  0  0
  -31.9000  -14.0180   20.5020 N   0  0  0  0  0  0  0  0  0  0  0  0
  -33.6270  -15.2380   19.6190 O   0  0  0  0  0  0  0  0  0  0  0  0
  -31.8330  -16.2720   20.5060 N   0  0  0  0  0  0  0  0  0  0  0  0
  -30.9920  -16.0920   21.0340 H   0  0  0  0  0  0  0  0  0  0  0  0
  -27.2600  -14.5700   20.5640 C   0  0  0  0  0  0  0  0  0  0  0  0
  -26.0850  -13.9380   20.8810 C   0  0  0  0  0  0  0  0  0  0  0  0
  -26.3510  -12.5390   20.7790 C   0  0  0  0  0  0  0  0  0  0  0  0
  -28.1750  -13.5620   20.2990 N   0  0  0  0  0  0  0  0  0  0  0  0
  -27.6270  -12.3320   20.4820 N   0  0  0  0  0  0  0  0  0  0  0  0
  -25.4510  -11.3830   20.8940 C   0  0  0  0  0  0  0  0  0  0  0  0
  -25.6540  -10.3850   21.8730 C   0  0  0  0  0  3  0  0  0  0  0  0
  -24.7670   -9.2920   21.9750 C   0  0  0  0  0  3  0  0  0  0  0  0
  -23.6600   -9.1930   21.0980 C   0  0  0  0  0  0  0  0  0  0  0  0
  -23.4770  -10.1770   20.1100 C   0  0  0  0  0  3  0  0  0  0  0  0
  -24.3630  -11.2610   20.0070 C   0  0  0  0  0  3  0  0  0  0  0  0
  -22.7600   -8.1550   21.1070 O   0  0  0  0  0  0  0  0  0  0  0  0
  -22.4110   -7.5140   22.2700 C   0  0  0  0  0  0  0  0  0  0  0  0
  -21.8210   -8.2040   23.3510 C   0  0  0  0  0  3  0  0  0  0  0  0
  -21.4140   -7.4940   24.4990 C   0  0  0  0  0  3  0  0  0  0  0  0
  -21.5880   -6.1000   24.5650 C   0  0  0  0  0  0  0  0  0  0  0  0
  -22.1710   -5.4110   23.4880 C   0  0  0  0  0  3  0  0  0  0  0  0
  -22.5780   -6.1170   22.3410 C   0  0  0  0  0  0  0  0  0  0  0  0
  -23.1200   -5.4450   21.2970 F   0  0  0  0  0  0  0  0  0  0  0  0
  -21.1890   -5.4180   25.6650 F   0  0  0  0  0  0  0  0  0  0  0  0
  -24.7640  -14.5930   21.1680 C   0  0  0  0  0  0  0  0  0  0  0  0
  -23.9350  -13.9660   21.9960 N   0  0  0  0  0  0  0  0  0  0  0  0
  -24.4790  -15.6920   20.6950 O   0  0  0  0  0  0  0  0  0  0  0  0
  -24.1760  -13.0730   22.4010 H   0  0  0  0  0  0  0  0  0  0  0  0
  -23.0450  -14.3820   22.2270 H   0  0  0  0  0  0  0  0  0  0  0  0
  -27.6190  -15.9090   20.4610 N   0  0  0  0  0  0  0  0  0  0  0  0
  -26.9440  -16.6580   20.5730 H   0  0  0  0  0  0  0  0  0  0  0  0
  -28.5220  -16.2310   20.1380 H   0  0  0  0  0  0  0  0  0  0  0  0
  -28.6450  -23.6870   20.2790 C   0  0  0  0  0  2  0  0  0  0  0  0
  -30.0810  -25.4490   19.1540 C   0  0  0  0  0  1  0  0  0  0  0  0
  -29.5050  -24.9720   20.5090 C   0  0  2  0  0  0  0  0  0  0  0  0
  -30.6680  -24.7260   21.5130 C   0  0  1  0  0  0  0  0  0  0  0  0
  -31.2660  -25.8740   21.8330 F   0  0  0  0  0  0  0  0  0  0  0  0
  -30.2120  -24.1630   22.6320 F   0  0  0  0  0  0  0  0  0  0  0  0
  -31.5930  -23.9180   20.9920 F   0  0  0  0  0  0  0  0  0  0  0  0
  -28.5350  -26.0490   21.1030 C   0  0  0  0  0  2  0  0  0  0  0  0
  -28.7400  -27.3930   20.6470 O   0  0  0  0  0  0  0  0  0  0  0  0
  -24.6980  -32.3750   23.7150 C   0  0  0  0  0  0  0  0  0  0  0  0
  -27.5740  -28.1190   20.6040 C   0  0  0  0  0  0  0  0  0  0  0  0
  -23.5910  -30.9940   21.9860 C   0  0  0  0  0  3  0  0  0  0  0  0
  -25.1390  -29.5390   20.5740 C   0  0  0  0  0  0  0  0  0  0  0  0
  -26.1090  -31.4280   21.8950 C   0  0  0  0  0  2  0  0  0  0  0  0
  -26.2580  -30.0820   21.2200 C   0  0  0  0  0  0  0  0  0  0  0  0
  -27.4820  -29.3770   21.2350 C   0  0  0  0  0  3  0  0  0  0  0  0
  -26.4430  -27.5860   19.9550 C   0  0  0  0  0  3  0  0  0  0  0  0
  -25.2240  -28.2880   19.9400 C   0  0  0  0  0  3  0  0  0  0  0  0
  -23.8700  -30.3590   20.5970 C   0  0  0  0  0  2  0  0  0  0  0  0
  -24.8150  -31.6110   22.5930 N   0  0  0  0  0  0  0  0  0  0  0  0
  -23.5910  -32.6040   24.2210 O   0  0  0  0  0  0  0  0  0  0  0  0
  -22.9310  -29.9280   22.8910 C   0  0  0  0  0  0  0  0  0  0  0  0
  -21.6260  -29.6920   22.6820 N   0  0  0  0  0  0  0  0  0  0  0  0
  -23.5930  -29.3160   23.7330 O   0  0  0  0  0  0  0  0  0  0  0  0
  -21.1530  -30.2420   21.9780 H   0  0  0  0  0  0  0  0  0  0  0  0
  -18.2820  -28.3530   22.9570 C   0  0  0  0  0  0  0  0  0  0  0  0
  -20.8060  -28.7080   23.3880 C   0  0  0  0  0  3  0  0  0  0  0  0
  -21.0030  -27.2930   22.7960 C   0  0  0  0  0  2  0  0  0  0  0  0
  -19.9780  -26.9440   21.7120 C   0  0  0  0  0  2  0  0  0  0  0  0
  -18.5540  -27.0240   22.2740 C   0  0  0  0  0  2  0  0  0  0  0  0
  -19.3400  -29.1510   23.4660 C   0  0  0  0  0  0  0  0  0  0  0  0
  -19.0350  -30.3940   24.0600 C   0  0  0  0  0  3  0  0  0  0  0  0
  -17.7030  -30.8420   24.1530 C   0  0  0  0  0  3  0  0  0  0  0  0
  -16.6580  -30.0400   23.6630 C   0  0  0  0  0  3  0  0  0  0  0  0
  -16.9480  -28.7980   23.0700 C   0  0  0  0  0  3  0  0  0  0  0  0
  -25.9440  -33.0160   24.4010 C   0  0  0  0  0  3  0  0  0  0  0  0
  -26.3050  -32.3490   25.7850 C   0  0  1  0  0  0  0  0  0  0  0  0
  -25.0930  -32.1860   26.7310 C   0  0  0  0  0  1  0  0  0  0  0  0
  -26.9280  -30.9500   25.5690 C   0  0  0  0  0  1  0  0  0  0  0  0
  -27.3700  -33.2010   26.5160 C   0  0  0  0  0  1  0  0  0  0  0  0
  -25.6670  -34.4490   24.5710 N   0  0  0  0  0  0  0  0  0  0  0  0
  -26.1080  -35.4100   23.7490 C   0  0  0  0  0  0  0  0  0  0  0  0
  -26.8610  -35.1860   22.7970 O   0  0  0  0  0  0  0  0  0  0  0  0
  -25.0130  -34.7010   25.2970 H   0  0  0  0  0  0  0  0  0  0  0  0
  -24.4860  -37.2090   23.0780 C   0  0  0  0  0  1  0  0  0  0  0  0
  -25.6400  -36.8510   24.0270 C   0  0  0  0  0  3  0  0  0  0  0  0
  -27.7370  -37.7420   24.9410 C   0  0  0  0  0  1  0  0  0  0  0  0
  -26.7180  -37.8560   23.9000 N   0  0  0  0  0  0  0  0  0  0  0  0
  -26.3380  -38.7980   23.9320 H   0  0  0  0  0  0  0  0  0  0  0  0
  1 51  1  0
  2  5  1  0
  2  3  1  0
  3  6  1  0
  4  8  1  0
  5  7  1  0
  5  4  1  0
  6  8  1  0
  6 10  1  0
  8  1  1  0
  8  9  1  1
 11 10  1  0
 11 12  1  0
 12 21  1  0
 13 19  1  0
 13 21  1  0
 14 19  1  0
 15 16  1  0
 15 14  1  0
 17 16  1  0
 17 26  1  0
 17 18  1  0
 19 18  1  0
 20 13  2  0
 21 22  1  0
 23 24  2  0
 24 43  1  0
 25 24  1  0
 25 28  1  0
 26 27  1  0
 26 23  1  0
 27 25  2  0
 28 29  1  0
 29 30  2  0
 31 34  1  0
 31 30  1  0
 32 31  2  0
 33 32  1  0
 33 28  2  0
 34 35  1  0
 35 40  2  0
 35 36  1  0
 36 37  2  0
 37 38  1  0
 38 42  1  0
 39 38  2  0
 40 39  1  0
 41 40  1  0
 43 44  1  0
 44 47  1  0
 44 46  1  0
 45 43  2  0
 48 23  1  0
 48 49  1  0
 50 48  1  0
 51 53  1  0
 53 52  1  6
 53 58  1  0
 53 54  1  0
 54 55  1  1
 54 56  1  0
 57 54  1  0
 59 58  1  0
 60 71  2  0
 61 59  1  0
 61 66  1  0
 62 70  1  0
 62 72  1  0
 63 69  1  0
 63 65  1  0
 64 70  1  0
 65 66  2  0
 65 64  1  0
 67 61  2  0
 68 67  1  0
 68 63  2  0
 69 62  1  0
 70 60  1  0
 72 74  2  0
 73 72  1  0
 75 73  1  0
 76 85  2  0
 76 81  1  0
 77 73  1  0
 77 81  1  0
 78 77  1  0
 79 80  1  0
 79 78  1  0
 80 76  1  0
 81 82  2  0
 82 83  1  0
 84 83  2  0
 85 84  1  0
 86 60  1  0
 86 91  1  0
 86 87  1  0
 87 90  1  1
 87 88  1  0
 89 87  1  0
 91 94  1  0
 92 96  1  0
 92 91  1  0
 93 92  2  0
 96 95  1  0
 98 99  1  0
 98 96  1  0
 98 97  1  0
M  ISO  4  13 100  21 100  58 101  59 101
M  END
>  <TORSDO>  (88) 
F 24

>  <SCORE>  (88) 
-8.884

>  <name>  (88) 
87

>  <ligand_id>  (88) 
87

>  <original_smiles>  (88) 
[H]c1c([H])c([H])c2c(c1[H])C([H])([H])C([H])([H])C([H])([H])C2([H])N([H])C(=O)C1([H])N(C(=O)C([H])(N([H])C(=O)C([H])(N([H])C([H])([H])[H])C([H])([H])[H])C(C([H])([H])[H])(C([H])([H])[H])C([H])([H])[H])C([H])([H])c2c([H])c(OC([H])([H])C(C([H])([H])[H])(C(F)(F)F)C([H])([H])C([H])([H])[N+]3([H])C([H])([H])C([H])(C([H])([H])[H])C([H])([H])C([H])([H])C3([H])C([H])([H])C([H])([H])C([H])([H])N([H])C(=O)N3C([H])([H])C([H])([H])C([H])([H])C([H])(n4nc(-c5c([H])c([H])c(Oc6c([H])c([H])c(F)c([H])c6F)c([H])c5[H])c(C(=O)N([H])[H])c4N([H])[H])C3([H])[H])c([H])c([H])c2C1([H])[H]

>  <smiles>  (88) 
[H]c1c([H])c([H])c2c(c1[H])C([H])([H])C([H])([H])C([H])([H])C2([H])N([H])C(=O)C1([H])N(C(=O)C([H])(N([H])C(=O)C([H])(N([H])C([H])([H])[H])C([H])([H])[H])C(C([H])([H])[H])(C([H])([H])[H])C([H])([H])[H])C([H])([H])c2c([H])c(OC([H])([H])C(C([H])([H])[H])(C(F)(F)F)C([H])([H])C([H])([H])[N+]3([H])C([H])([H])C([H])(C([H])([H])[H])C([H])([H])C([H])([H])C3([H])C([H])([H])C([H])([H])C([H])([H])N([H])C(=O)N3C([H])([H])C([H])([H])C([H])([H])C([H])(n4nc(-c5c([H])c([H])c(Oc6c([H])c([H])c(F)c([H])c6F)c([H])c5[H])c(C(=O)N([H])[H])c4N([H])[H])C3([H])[H])c([H])c([H])c2C1([H])[H]

$$$$
88:0:0
     RDKit          3D

 91 98  0  0  1  0  0  0  0  0999 V2000
  -30.4920  -21.9760   18.4770 C   0  0  0  0  0  0  0  0  0  0  0  0
  -29.2870  -21.8060   18.6870 O   0  0  0  0  0  0  0  0  0  0  0  0
  -31.7360  -21.0270   16.4890 C   0  0  0  0  0  1  0  0  0  0  0  0
  -31.3880  -20.8280   17.9780 C   0  0  0  0  0  3  0  0  0  0  0  0
  -30.7750  -19.4200   18.1940 C   0  0  0  0  0  2  0  0  0  0  0  0
  -30.8000  -18.9070   19.6470 C   0  0  0  0  0  2  0  0  0  0  0  0
  -30.2150  -17.4870   19.7560 C   0  0  0  0  0  2  0  0  0  0  0  0
  -30.4500  -16.8160   21.1260 C   0  0  0  0  0  2  0  0  0  0  0  0
  -30.6890  -14.4140   20.5340 C   0  0  0  0  0  0  0  0  0  0  0  0
  -30.3490  -12.2870   19.3500 C   0  0  0  0  0  2  0  0  0  0  0  0
  -29.4080  -12.5240   18.1510 C   0  0  0  0  0  2  0  0  0  0  0  0
  -27.9320  -12.4060   18.5800 C   0  0  0  0  0  2  0  0  0  0  0  0
  -27.6110  -13.2310   19.8570 C   0  0  0  0  0  3  0  0  0  0  0  0
  -28.6630  -12.9720   20.9590 C   0  0  0  0  0  2  0  0  0  0  0  0
  -29.9930  -13.2570   20.3940 N   0  0  0  0  0  0  0  0  0  0  0  0
  -31.8020  -14.6000   20.0360 O   0  0  0  0  0  0  0  0  0  0  0  0
  -30.0200  -15.4160   21.1190 N   0  0  0  0  0  0  0  0  0  0  0  0
  -29.1080  -15.2010   21.4930 H   0  0  0  0  0  0  0  0  0  0  0  0
  -25.2120  -13.8550   20.5550 C   0  0  0  0  0  0  0  0  0  0  0  0
  -24.1390  -13.0890   20.9240 C   0  0  0  0  0  0  0  0  0  0  0  0
  -24.5930  -11.7340   20.8980 C   0  0  0  0  0  0  0  0  0  0  0  0
  -26.2530  -12.9680   20.3310 N   0  0  0  0  0  0  0  0  0  0  0  0
  -25.8840  -11.6870   20.5940 N   0  0  0  0  0  0  0  0  0  0  0  0
  -23.8610  -10.4750   21.0890 C   0  0  0  0  0  0  0  0  0  0  0  0
  -24.3040   -9.4950   22.0040 C   0  0  0  0  0  3  0  0  0  0  0  0
  -23.5740   -8.3000   22.1850 C   0  0  0  0  0  3  0  0  0  0  0  0
  -22.3870   -8.0760   21.4490 C   0  0  0  0  0  0  0  0  0  0  0  0
  -21.9630   -9.0450   20.5210 C   0  0  0  0  0  3  0  0  0  0  0  0
  -22.6930  -10.2300   20.3380 C   0  0  0  0  0  3  0  0  0  0  0  0
  -21.6260   -6.9350   21.5380 O   0  0  0  0  0  0  0  0  0  0  0  0
  -21.6110   -6.1690   22.6760 C   0  0  0  0  0  0  0  0  0  0  0  0
  -21.2520   -6.7060   23.9310 C   0  0  0  0  0  3  0  0  0  0  0  0
  -21.1810   -5.8670   25.0630 C   0  0  0  0  0  3  0  0  0  0  0  0
  -21.4590   -4.4930   24.9380 C   0  0  0  0  0  0  0  0  0  0  0  0
  -21.8100   -3.9550   23.6870 C   0  0  0  0  0  3  0  0  0  0  0  0
  -21.8830   -4.7910   22.5590 C   0  0  0  0  0  0  0  0  0  0  0  0
  -22.2010   -4.2630   21.3530 F   0  0  0  0  0  0  0  0  0  0  0  0
  -21.3830   -3.6860   26.0210 F   0  0  0  0  0  0  0  0  0  0  0  0
  -22.7430  -13.5720   21.1920 C   0  0  0  0  0  0  0  0  0  0  0  0
  -22.0110  -12.8830   22.0610 N   0  0  0  0  0  0  0  0  0  0  0  0
  -22.3090  -14.5970   20.6670 O   0  0  0  0  0  0  0  0  0  0  0  0
  -22.3730  -12.0530   22.5080 H   0  0  0  0  0  0  0  0  0  0  0  0
  -21.0740  -13.1880   22.2830 H   0  0  0  0  0  0  0  0  0  0  0  0
  -25.3870  -15.2240   20.3740 N   0  0  0  0  0  0  0  0  0  0  0  0
  -24.6320  -15.8900   20.4810 H   0  0  0  0  0  0  0  0  0  0  0  0
  -26.2490  -15.6500   20.0530 H   0  0  0  0  0  0  0  0  0  0  0  0
  -31.1530  -23.3490   18.6810 C   0  0  0  0  0  2  0  0  0  0  0  0
  -30.1600  -24.5100   18.9100 C   0  0  0  0  0  2  0  0  0  0  0  0
  -29.6430  -24.6180   20.3590 C   0  0  0  0  0  2  0  0  0  0  0  0
  -28.2990  -25.3470   20.4580 C   0  0  0  0  0  2  0  0  0  0  0  0
  -28.4240  -26.7320   20.1280 O   0  0  0  0  0  0  0  0  0  0  0  0
  -24.6230  -31.8810   23.2340 C   0  0  0  0  0  0  0  0  0  0  0  0
  -27.2450  -27.4450   20.1380 C   0  0  0  0  0  0  0  0  0  0  0  0
  -23.4050  -30.4740   21.6050 C   0  0  0  0  0  3  0  0  0  0  0  0
  -24.8470  -28.9390   20.1730 C   0  0  0  0  0  0  0  0  0  0  0  0
  -25.9270  -30.8380   21.3850 C   0  0  0  0  0  2  0  0  0  0  0  0
  -26.0100  -29.4680   20.7470 C   0  0  0  0  0  0  0  0  0  0  0  0
  -27.2140  -28.7290   20.7250 C   0  0  0  0  0  3  0  0  0  0  0  0
  -26.0640  -26.9320   19.5540 C   0  0  0  0  0  3  0  0  0  0  0  0
  -24.8680  -27.6700   19.5750 C   0  0  0  0  0  3  0  0  0  0  0  0
  -23.6020  -29.7940   20.2250 C   0  0  0  0  0  2  0  0  0  0  0  0
  -24.6700  -31.0780   22.1330 N   0  0  0  0  0  0  0  0  0  0  0  0
  -23.5460  -32.1540   23.7810 O   0  0  0  0  0  0  0  0  0  0  0  0
  -22.7630  -29.4520   22.5710 C   0  0  0  0  0  0  0  0  0  0  0  0
  -21.4370  -29.2700   22.4530 N   0  0  0  0  0  0  0  0  0  0  0  0
  -23.4530  -28.8280   23.3810 O   0  0  0  0  0  0  0  0  0  0  0  0
  -20.9420  -29.8260   21.7700 H   0  0  0  0  0  0  0  0  0  0  0  0
  -18.0670  -28.0770   22.9670 C   0  0  0  0  0  0  0  0  0  0  0  0
  -20.6250  -28.3350   23.2310 C   0  0  0  0  0  3  0  0  0  0  0  0
  -20.7260  -26.9020   22.6590 C   0  0  0  0  0  2  0  0  0  0  0  0
  -19.6210  -26.5750   21.6500 C   0  0  0  0  0  2  0  0  0  0  0  0
  -18.2420  -26.7230   22.2990 C   0  0  0  0  0  2  0  0  0  0  0  0
  -19.1870  -28.8400   23.3900 C   0  0  0  0  0  0  0  0  0  0  0  0
  -18.9710  -30.1080   23.9740 C   0  0  0  0  0  3  0  0  0  0  0  0
  -17.6680  -30.6120   24.1400 C   0  0  0  0  0  3  0  0  0  0  0  0
  -16.5620  -29.8440   23.7350 C   0  0  0  0  0  3  0  0  0  0  0  0
  -16.7620  -28.5800   23.1540 C   0  0  0  0  0  3  0  0  0  0  0  0
  -25.9140  -32.5120   23.8400 C   0  0  0  0  0  3  0  0  0  0  0  0
  -26.4530  -31.7340   25.1040 C   0  0  1  0  0  0  0  0  0  0  0  0
  -25.3770  -31.4860   26.1860 C   0  0  0  0  0  1  0  0  0  0  0  0
  -27.0320  -30.3610   24.6910 C   0  0  0  0  0  1  0  0  0  0  0  0
  -27.6110  -32.5270   25.7540 C   0  0  0  0  0  1  0  0  0  0  0  0
  -25.6050  -33.9070   24.1800 N   0  0  0  0  0  0  0  0  0  0  0  0
  -25.9290  -34.9630   23.4210 C   0  0  0  0  0  0  0  0  0  0  0  0
  -26.5900  -34.8660   22.3840 O   0  0  0  0  0  0  0  0  0  0  0  0
  -25.0160  -34.0570   24.9860 H   0  0  0  0  0  0  0  0  0  0  0  0
  -24.1900  -36.7490   23.0880 C   0  0  0  0  0  1  0  0  0  0  0  0
  -25.4390  -36.3470   23.8880 C   0  0  0  0  0  3  0  0  0  0  0  0
  -27.5800  -37.2310   24.7020 C   0  0  0  0  0  1  0  0  0  0  0  0
  -26.4670  -37.4040   23.7710 N   0  0  0  0  0  0  0  0  0  0  0  0
  -26.0590  -38.3220   23.9310 H   0  0  0  0  0  0  0  0  0  0  0  0
  1 47  1  0
  1  2  2  0
  4  3  1  0
  4  5  1  0
  4  1  1  0
  5  6  1  0
  6  7  1  0
  7  8  1  0
  9 17  1  0
 10 15  1  0
 11 12  1  0
 11 10  1  0
 13 12  1  0
 13 22  1  0
 13 14  1  0
 15  9  1  0
 15 14  1  0
 16  9  2  0
 17  8  1  0
 17 18  1  0
 19 20  2  0
 20 39  1  0
 21 20  1  0
 21 24  1  0
 22 19  1  0
 22 23  1  0
 23 21  2  0
 24 25  1  0
 25 26  2  0
 27 30  1  0
 27 26  1  0
 28 27  2  0
 29 28  1  0
 29 24  2  0
 30 31  1  0
 31 32  1  0
 32 33  2  0
 34 33  1  0
 34 38  1  0
 35 34  2  0
 36 31  2  0
 36 35  1  0
 37 36  1  0
 39 40  1  0
 40 43  1  0
 40 42  1  0
 41 39  2  0
 44 45  1  0
 44 19  1  0
 46 44  1  0
 47 48  1  0
 48 49  1  0
 49 50  1  0
 51 53  1  0
 51 50  1  0
 52 63  2  0
 53 58  1  0
 54 62  1  0
 54 64  1  0
 55 61  1  0
 55 57  1  0
 56 62  1  0
 57 56  1  0
 58 57  2  0
 59 60  1  0
 59 53  2  0
 60 55  2  0
 61 54  1  0
 62 52  1  0
 64 66  2  0
 65 64  1  0
 67 65  1  0
 68 77  2  0
 68 73  1  0
 69 65  1  0
 69 73  1  0
 70 69  1  0
 71 72  1  0
 71 70  1  0
 72 68  1  0
 73 74  2  0
 74 75  1  0
 76 75  2  0
 77 76  1  0
 78 52  1  0
 78 83  1  0
 78 79  1  0
 79 82  1  1
 79 80  1  0
 81 79  1  0
 83 86  1  0
 84 88  1  0
 84 83  1  0
 85 84  2  0
 88 87  1  0
 90 88  1  0
 90 91  1  0
 90 89  1  0
M  ISO  4   9 100  17 100  50 101  51 101
M  END
>  <TORSDO>  (89) 
F 25

>  <SCORE>  (89) 
-12.002

>  <name>  (89) 
88

>  <ligand_id>  (89) 
88

>  <original_smiles>  (89) 
[H]c1c([H])c([H])c2c(c1[H])C([H])([H])C([H])([H])C([H])([H])C2([H])N([H])C(=O)C1([H])N(C(=O)C([H])(N([H])C(=O)C([H])(N([H])C([H])([H])[H])C([H])([H])[H])C(C([H])([H])[H])(C([H])([H])[H])C([H])([H])[H])C([H])([H])c2c([H])c(OC([H])([H])C([H])([H])C([H])([H])C([H])([H])C(=O)C([H])(C([H])([H])[H])C([H])([H])C([H])([H])C([H])([H])C([H])([H])N([H])C(=O)N3C([H])([H])C([H])([H])C([H])([H])C([H])(n4nc(-c5c([H])c([H])c(Oc6c([H])c([H])c(F)c([H])c6F)c([H])c5[H])c(C(=O)N([H])[H])c4N([H])[H])C3([H])[H])c([H])c([H])c2C1([H])[H]

>  <smiles>  (89) 
[H]c1c([H])c([H])c2c(c1[H])C([H])([H])C([H])([H])C([H])([H])C2([H])N([H])C(=O)C1([H])N(C(=O)C([H])(N([H])C(=O)C([H])(N([H])C([H])([H])[H])C([H])([H])[H])C(C([H])([H])[H])(C([H])([H])[H])C([H])([H])[H])C([H])([H])c2c([H])c(OC([H])([H])C([H])([H])C([H])([H])C([H])([H])C(=O)C([H])(C([H])([H])[H])C([H])([H])C([H])([H])C([H])([H])C([H])([H])N([H])C(=O)N3C([H])([H])C([H])([H])C([H])([H])C([H])(n4nc(-c5c([H])c([H])c(Oc6c([H])c([H])c(F)c([H])c6F)c([H])c5[H])c(C(=O)N([H])[H])c4N([H])[H])C3([H])[H])c([H])c([H])c2C1([H])[H]

$$$$
89:0:0
     RDKit          3D

101103  0  0  1  0  0  0  0  0999 V2000
  -24.0950  -13.3970   22.1330 C   0  0  0  0  0 15  0  0  0  0  0  0
  -28.2350  -13.7340   21.0720 C   0  0  0  0  0  2  0  0  0  0  0  0
  -27.7280  -13.2120   17.7310 C   0  0  0  0  0 15  0  0  0  0  0  0
  -28.9230  -13.9940   19.2650 C   0  0  0  0  0  2  0  0  0  0  0  0
  -25.1050  -12.4050   20.0140 C   0  0  0  0  0 15  0  0  0  0  0  0
  -25.8330  -12.5040   18.0700 C   0  0  0  0  0  1  0  0  0  0  0  0
  -31.9910  -12.6180   19.8200 C   0  0  0  0  0  0  0  0  0  0  0  0
  -31.3150  -10.2830   19.8440 C   0  0  0  0  0  2  0  0  0  0  0  0
  -30.2380  -10.0020   18.7660 C   0  0  0  0  0  2  0  0  0  0  0  0
  -28.7770  -10.2240   19.3060 C   0  0  0  0  0  2  0  0  0  0  0  0
  -28.7050  -11.5620   19.9760 C   0  0  0  0  0  3  0  0  0  0  0  0
  -29.8920  -11.7730   21.0250 C   0  0  0  0  0  2  0  0  0  0  0  0
  -31.1660  -11.6510   20.3110 N   0  0  0  0  0  0  0  0  0  0  0  0
  -33.2010  -12.4580   19.6700 O   0  0  0  0  0  0  0  0  0  0  0  0
  -30.4350  -14.3660   19.3050 C   0  0  0  0  0  0  0  0  0  0  0  0
  -31.4330  -13.5380   19.0200 N   0  0  0  0  0  0  0  0  0  0  0  0
  -30.7510  -15.5150   19.6400 O   0  0  0  0  0  0  0  0  0  0  0  0
  -32.2010  -14.0560   18.6210 H   0  0  0  0  0  0  0  0  0  0  0  0
  -26.6640  -14.2280   20.0950 C   0  0  0  0  0  3  0  0  0  0  0  0
  -25.8390  -14.2620   21.2220 C   0  0  0  0  0  3  0  0  0  0  0  0
  -25.8680  -12.4500   21.9340 C   0  0  0  0  0  3  0  0  0  0  0  0
  -27.3090  -12.2860   20.1390 N   0  0  0  0  0  2  0  0  0  0  0  0
  -26.7590  -11.5760   21.2530 N   0  0  0  0  0  2  0  0  0  0  0  0
  -24.6760  -11.1170   21.8320 C   0  0  0  0  0  0  0  0  0  0  0  0
  -24.8410   -9.8060   22.3620 C   0  0  0  0  0  3  0  0  0  0  0  0
  -23.7940   -8.8150   22.4600 C   0  0  0  0  0  3  0  0  0  0  0  0
  -22.4660   -9.0230   21.9950 C   0  0  0  0  0  0  0  0  0  0  0  0
  -22.2480  -10.1960   21.3110 C   0  0  0  0  0  3  0  0  0  0  0  0
  -23.2940  -11.1320   21.2260 C   0  0  0  0  0  3  0  0  0  0  0  0
  -21.3970   -8.1600   22.1200 O   0  0  0  0  0  0  0  0  0  0  0  0
  -21.3930   -7.1500   23.0500 C   0  0  0  0  0  0  0  0  0  0  0  0
  -20.7910   -7.3070   24.3140 C   0  0  0  0  0  3  0  0  0  0  0  0
  -20.8150   -6.2480   25.2440 C   0  0  0  0  0  3  0  0  0  0  0  0
  -21.4290   -5.0280   24.9100 C   0  0  0  0  0  0  0  0  0  0  0  0
  -22.0010   -4.8560   23.6390 C   0  0  0  0  0  3  0  0  0  0  0  0
  -21.9740   -5.9120   22.7060 C   0  0  0  0  0  0  0  0  0  0  0  0
  -22.5090   -5.7250   21.4740 F   0  0  0  0  0  0  0  0  0  0  0  0
  -21.4730   -4.0220   25.8130 F   0  0  0  0  0  0  0  0  0  0  0  0
  -24.6420  -15.2510   20.3630 C   0  0  0  0  0  0  0  0  0  0  0  0
  -23.3540  -15.0010   20.0380 N   0  0  0  0  0  0  0  0  0  0  0  0
  -24.7110  -16.3830   20.0360 O   0  0  0  0  0  0  0  0  0  0  0  0
  -22.9150  -14.1290   20.2870 H   0  0  0  0  0  0  0  0  0  0  0  0
  -22.8420  -15.7320   19.5640 H   0  0  0  0  0  0  0  0  0  0  0  0
  -27.0100  -15.4580   19.4440 N   0  0  0  0  0  0  0  0  0  0  0  0
  -26.3720  -16.2530   19.5260 H   0  0  0  0  0  0  0  0  0  0  0  0
  -27.5420  -15.4530   18.5840 H   0  0  0  0  0  0  0  0  0  0  0  0
  -24.8270  -13.0620   17.0210 C   0  0  0  0  0  2  0  0  0  0  0  0
  -23.4180  -12.9490   17.4560 N   0  0  0  0  0  4  0  0  0  0  0  0
  -23.2730  -12.0900   17.9590 H   0  0  0  0  0  0  0  0  0  0  0  0
  -22.7910  -12.9520   16.6690 H   0  0  0  0  0  0  0  0  0  0  0  0
  -23.1620  -13.7130   18.0580 H   0  0  0  0  0  0  0  0  0  0  0  0
  -24.7200  -15.0940   22.9950 C   0  0  0  0  0  2  0  0  0  0  0  0
  -25.6790  -16.3250   22.6060 N   0  0  0  0  0  0  0  0  0  0  0  0
  -24.3140  -15.1660   24.1510 O   0  0  0  0  0  1  0  0  0  0  0  0
  -25.8710  -16.7850   23.4850 H   0  0  0  0  0  0  0  0  0  0  0  0
  -26.4800  -17.3800   21.3870 C   0  0  0  0  0  3  0  0  0  0  0  0
  -28.1530  -17.8060   20.5160 C   0  0  0  0  0  3  0  0  0  0  0  0
  -28.9330  -19.1720   19.3860 C   0  0  0  0  0  2  0  0  0  0  0  0
  -30.6100  -19.7880   18.6360 C   0  0  0  0  0  3  0  0  0  0  0  0
  -31.3810  -21.3450   17.7810 C   0  0  0  0  0  3  0  0  0  0  0  0
  -32.8670  -22.0780   17.1680 O   0  0  0  0  0  0  0  0  0  0  0  0
  -34.7300  -28.4540   20.3580 C   0  0  0  0  0  0  0  0  0  0  0  0
  -33.1560  -23.5450   16.9560 C   0  0  0  0  0  0  0  0  0  0  0  0
  -32.7180  -28.2350   18.9540 C   0  0  0  0  0  3  0  0  0  0  0  0
  -32.7540  -26.4260   17.1190 C   0  0  0  0  0  0  0  0  0  0  0  0
  -34.8700  -27.0010   18.2740 C   0  0  0  0  0  2  0  0  0  0  0  0
  -33.9760  -25.9260   17.5830 C   0  0  0  0  0  0  0  0  0  0  0  0
  -34.1940  -24.4800   17.4900 C   0  0  0  0  0  3  0  0  0  0  0  0
  -32.1690  -24.2120   16.2310 C   0  0  0  0  0  3  0  0  0  0  0  0
  -31.9140  -25.5920   16.3720 C   0  0  0  0  0  3  0  0  0  0  0  0
  -32.3390  -27.8400   17.4960 C   0  0  0  0  0  2  0  0  0  0  0  0
  -34.1530  -27.9080   19.2410 N   0  0  0  0  0  0  0  0  0  0  0  0
  -34.0910  -29.1880   21.1330 O   0  0  0  0  0  0  0  0  0  0  0  0
  -31.7490  -27.5830   19.9800 C   0  0  0  0  0  0  0  0  0  0  0  0
  -30.6180  -28.2470   20.2870 N   0  0  0  0  0  0  0  0  0  0  0  0
  -32.0260  -26.4950   20.4900 O   0  0  0  0  0  0  0  0  0  0  0  0
  -30.4610  -29.1440   19.8530 H   0  0  0  0  0  0  0  0  0  0  0  0
  -27.5130  -29.1710   21.9250 C   0  0  0  0  0  0  0  0  0  0  0  0
  -29.5650  -27.7720   21.1920 C   0  0  0  0  0  3  0  0  0  0  0  0
  -28.5500  -26.8700   20.4530 C   0  0  0  0  0  2  0  0  0  0  0  0
  -27.3390  -27.6370   19.9170 C   0  0  0  0  0  2  0  0  0  0  0  0
  -26.5880  -28.3250   21.0620 C   0  0  0  0  0  2  0  0  0  0  0  0
  -28.9120  -28.9200   21.9740 C   0  0  0  0  0  0  0  0  0  0  0  0
  -29.7250  -29.7530   22.7710 C   0  0  0  0  0  3  0  0  0  0  0  0
  -29.1720  -30.8230   23.4990 C   0  0  0  0  0  3  0  0  0  0  0  0
  -27.7890  -31.0600   23.4570 C   0  0  0  0  0  3  0  0  0  0  0  0
  -26.9610  -30.2330   22.6780 C   0  0  0  0  0  3  0  0  0  0  0  0
  -36.2310  -28.2060   20.7070 C   0  0  0  0  0  3  0  0  0  0  0  0
  -36.4390  -27.1520   21.8660 C   0  0  1  0  0  0  0  0  0  0  0  0
  -35.6270  -27.4620   23.1440 C   0  0  0  0  0  1  0  0  0  0  0  0
  -36.0590  -25.7270   21.4060 C   0  0  0  0  0  1  0  0  0  0  0  0
  -37.9320  -27.0990   22.2680 C   0  0  0  0  0  1  0  0  0  0  0  0
  -36.8230  -29.4990   21.0980 N   0  0  0  0  0  0  0  0  0  0  0  0
  -37.4920  -30.3230   20.2790 C   0  0  0  0  0  0  0  0  0  0  0  0
  -37.7320  -30.0410   19.1030 O   0  0  0  0  0  0  0  0  0  0  0  0
  -36.6240  -29.8160   22.0360 H   0  0  0  0  0  0  0  0  0  0  0  0
  -37.0530  -32.8050   20.3710 C   0  0  0  0  0  1  0  0  0  0  0  0
  -37.9730  -31.6720   20.8560 C   0  0  0  0  0  3  0  0  0  0  0  0
  -40.3510  -31.1720   21.2250 C   0  0  0  0  0  1  0  0  0  0  0  0
  -39.3760  -31.9960   20.5160 N   0  0  0  0  0  0  0  0  0  0  0  0
  -39.5760  -32.9710   20.7190 H   0  0  0  0  0  0  0  0  0  0  0  0
  4 15  1  0
  4  2  1  0
  7 13  1  0
  8 13  1  0
  9 10  1  0
  9  8  1  0
 11 10  1  0
 11 22  1  0
 11 12  1  0
 13 12  1  0
 14  7  2  0
 15 17  2  0
 16 15  1  0
 16  7  1  0
 18 16  1  0
 19 44  1  0
 19  2  1  0
 19 20  1  0
 20 39  1  0
 20 21  1  0
 21 24  1  0
 22 23  1  0
 23 21  1  0
 24 25  1  0
 25 26  2  0
 27 30  1  0
 27 26  1  0
 28 27  2  0
 29 28  1  0
 29 24  2  0
 30 31  1  0
 31 32  1  0
 32 33  2  0
 34 33  1  0
 34 38  1  0
 35 34  2  0
 36 31  2  0
 36 35  1  0
 37 36  1  0
 40 42  1  0
 40 39  1  0
 41 39  2  0
 43 40  1  0
 44 45  1  0
 46 44  1  0
 47 48  1  0
 47  6  1  0
 48 49  1  0
 48 51  1  0
 50 48  1  0
 52 54  1  0
 53 52  1  0
 53 55  1  0
 56 53  1  0
 57 56  2  0
 58 57  1  0
 59 58  1  0
 60 59  2  0
 61 60  1  0
 62 73  2  0
 63 61  1  0
 63 68  1  0
 64 72  1  0
 64 74  1  0
 65 71  1  0
 65 67  1  0
 66 72  1  0
 67 66  1  0
 68 67  2  0
 69 70  1  0
 69 63  2  0
 70 65  2  0
 71 64  1  0
 72 62  1  0
 74 75  1  0
 74 76  2  0
 77 75  1  0
 78 83  2  0
 78 87  1  0
 79 75  1  0
 79 83  1  0
 80 79  1  0
 81 80  1  0
 81 82  1  0
 82 78  1  0
 83 84  1  0
 84 85  2  0
 86 85  1  0
 87 86  2  0
 88 62  1  0
 88 93  1  0
 88 89  1  0
 89 92  1  1
 89 90  1  0
 91 89  1  0
 93 96  1  0
 94 98  1  0
 94 93  1  0
 95 94  2  0
 98 97  1  0
100101  1  0
100 98  1  0
100 99  1  0
M  ISO  4   7 100  16 100  60 101  61 101
M  END
>  <TORSDO>  (90) 
F 25

>  <SCORE>  (90) 
14.671

>  <name>  (90) 
89

>  <ligand_id>  (90) 
89

>  <original_smiles>  (90) 
[H]c1c([H])c([H])c2c(c1[H])C([H])([H])C([H])([H])C([H])([H])C2([H])N([H])C(=O)C1([H])N(C(=O)C([H])(N([H])C(=O)C([H])(N([H])C([H])([H])[H])C([H])([H])[H])C(C([H])([H])[H])(C([H])([H])[H])C([H])([H])[H])C([H])([H])c2c([H])c(OC([H])([H])C([H])([H])C([H])([H])C([H])([H])C([H])([H])N([H])C(=O)C([H])([H])C3([H])C([H])([H])C([H])(C(=O)N([H])C(=O)N4C([H])([H])C([H])([H])C([H])([H])C([H])(n5nc(-c6c([H])c([H])c(Oc7c([H])c([H])c(F)c([H])c7F)c([H])c6[H])c(C(=O)N([H])[H])c5N([H])[H])C4([H])[H])C([H])([H])C3([H])C([H])([H])[N+]([H])([H])[H])c([H])c([H])c2C1([H])[H]

>  <smiles>  (90) 
[H]c1c([H])c([H])c2c(c1[H])C([H])([H])C([H])([H])C([H])([H])C2([H])N([H])C(=O)C1([H])N(C(=O)C([H])(N([H])C(=O)C([H])(N([H])C([H])([H])[H])C([H])([H])[H])C(C([H])([H])[H])(C([H])([H])[H])C([H])([H])[H])C([H])([H])c2c([H])c(OC([H])([H])C([H])([H])C([H])([H])C([H])([H])C([H])([H])N([H])C(=O)C([H])([H])C3([H])C([H])([H])C([H])(C(=O)N([H])C(=O)N4C([H])([H])C([H])([H])C([H])([H])C([H])(n5nc(-c6c([H])c([H])c(Oc7c([H])c([H])c(F)c([H])c7F)c([H])c6[H])c(C(=O)N([H])[H])c5N([H])[H])C4([H])[H])C([H])([H])C3([H])C([H])([H])[N+]([H])([H])[H])c([H])c([H])c2C1([H])[H]

$$$$
90:0:0
     RDKit          3D

102110  0  0  1  0  0  0  0  0999 V2000
  -31.7290  -21.0720   20.2930 C   0  0  0  0  0  3  0  0  0  0  0  0
  -31.3120  -22.4780   20.4950 N   0  0  0  0  0  4  0  0  0  0  0  0
  -30.6050  -22.4290   21.2200 H   0  0  0  0  0  0  0  0  0  0  0  0
  -32.0950  -23.0040   20.8470 H   0  0  0  0  0  0  0  0  0  0  0  0
  -30.7410  -23.1350   19.2990 C   0  0  0  0  0  2  0  0  0  0  0  0
  -30.4290  -24.6270   19.5280 C   0  0  0  0  0  2  0  0  0  0  0  0
  -29.5610  -25.2250   18.4040 C   0  0  0  0  0  2  0  0  0  0  0  0
  -29.3950  -26.7480   18.4930 C   0  0  0  0  0  2  0  0  0  0  0  0
  -28.8970  -27.1270   19.7710 O   0  0  0  0  0  0  0  0  0  0  0  0
  -24.7330  -31.7720   23.1410 C   0  0  0  0  0  0  0  0  0  0  0  0
  -27.6600  -27.7220   19.8090 C   0  0  0  0  0  0  0  0  0  0  0  0
  -23.6070  -30.3700   21.4380 C   0  0  0  0  0  3  0  0  0  0  0  0
  -25.1510  -29.0090   19.9280 C   0  0  0  0  0  0  0  0  0  0  0  0
  -26.0940  -30.9210   21.2410 C   0  0  0  0  0  2  0  0  0  0  0  0
  -26.2680  -29.5910   20.5400 C   0  0  0  0  0  0  0  0  0  0  0  0
  -27.5200  -28.9430   20.4960 C   0  0  0  0  0  3  0  0  0  0  0  0
  -26.5280  -27.1350   19.2010 C   0  0  0  0  0  3  0  0  0  0  0  0
  -25.2720  -27.7750   19.2630 C   0  0  0  0  0  3  0  0  0  0  0  0
  -23.8490  -29.7700   20.0250 C   0  0  0  0  0  2  0  0  0  0  0  0
  -24.8280  -31.0340   21.9990 N   0  0  0  0  0  0  0  0  0  0  0  0
  -23.6420  -31.9400   23.7040 O   0  0  0  0  0  0  0  0  0  0  0  0
  -23.0420  -29.2600   22.3510 C   0  0  0  0  0  0  0  0  0  0  0  0
  -21.7390  -28.9740   22.2060 N   0  0  0  0  0  0  0  0  0  0  0  0
  -23.7720  -28.6610   23.1460 O   0  0  0  0  0  0  0  0  0  0  0  0
  -21.2070  -29.5160   21.5400 H   0  0  0  0  0  0  0  0  0  0  0  0
  -18.4750  -27.4820   22.6140 C   0  0  0  0  0  0  0  0  0  0  0  0
  -20.9990  -27.9410   22.9290 C   0  0  0  0  0  3  0  0  0  0  0  0
  -21.2270  -26.5470   22.3010 C   0  0  0  0  0  2  0  0  0  0  0  0
  -20.1660  -26.1740   21.2600 C   0  0  0  0  0  2  0  0  0  0  0  0
  -18.7710  -26.1790   21.8920 C   0  0  0  0  0  2  0  0  0  0  0  0
  -19.5210  -28.3180   23.0870 C   0  0  0  0  0  0  0  0  0  0  0  0
  -19.1910  -29.5350   23.7210 C   0  0  0  0  0  3  0  0  0  0  0  0
  -17.8480  -29.9200   23.8860 C   0  0  0  0  0  3  0  0  0  0  0  0
  -16.8160  -29.0810   23.4300 C   0  0  0  0  0  3  0  0  0  0  0  0
  -17.1300  -27.8640   22.8000 C   0  0  0  0  0  3  0  0  0  0  0  0
  -25.9810  -32.4580   23.7800 C   0  0  0  0  0  3  0  0  0  0  0  0
  -26.5450  -31.6820   25.0340 C   0  0  1  0  0  0  0  0  0  0  0  0
  -25.4680  -31.3390   26.0900 C   0  0  0  0  0  1  0  0  0  0  0  0
  -27.2180  -30.3590   24.5990 C   0  0  0  0  0  1  0  0  0  0  0  0
  -27.6390  -32.5280   25.7260 C   0  0  0  0  0  1  0  0  0  0  0  0
  -25.5940  -33.8260   24.1470 N   0  0  0  0  0  0  0  0  0  0  0  0
  -25.8720  -34.9150   23.4160 C   0  0  0  0  0  0  0  0  0  0  0  0
  -26.5520  -34.8770   22.3880 O   0  0  0  0  0  0  0  0  0  0  0  0
  -24.9860  -33.9270   24.9460 H   0  0  0  0  0  0  0  0  0  0  0  0
  -24.0470  -36.6150   23.0940 C   0  0  0  0  0  1  0  0  0  0  0  0
  -25.3040  -36.2610   23.9060 C   0  0  0  0  0  3  0  0  0  0  0  0
  -27.3770  -37.2450   24.7780 C   0  0  0  0  0  1  0  0  0  0  0  0
  -26.2760  -37.3730   23.8270 N   0  0  0  0  0  0  0  0  0  0  0  0
  -25.8170  -38.2650   23.9910 H   0  0  0  0  0  0  0  0  0  0  0  0
  -34.1510  -21.2760   19.5480 C   0  0  0  0  0  1  0  0  0  0  0  0
  -33.2200  -20.8400   20.6960 C   0  0  0  0  0  3  0  0  0  0  0  0
  -32.9890  -21.0070   23.2940 C   0  0  0  0  0  1  0  0  0  0  0  0
  -33.6940  -21.4950   22.0210 C   0  0  0  0  0  2  0  0  0  0  0  0
  -30.7110  -20.1960   21.0620 C   0  0  0  0  0  0  0  0  0  0  0  0
  -29.8340  -20.6930   21.7750 O   0  0  0  0  0  0  0  0  0  0  0  0
  -31.2630  -14.8540   19.9390 C   0  0  0  0  0  0  0  0  0  0  0  0
  -30.9500  -12.6970   18.7950 C   0  0  0  0  0  2  0  0  0  0  0  0
  -29.9230  -12.8960   17.6600 C   0  0  0  0  0  2  0  0  0  0  0  0
  -28.4820  -12.7290   18.1830 C   0  0  0  0  0  2  0  0  0  0  0  0
  -28.2150  -13.5460   19.4750 C   0  0  0  0  0  3  0  0  0  0  0  0
  -29.3430  -13.3160   20.5050 C   0  0  0  0  0  2  0  0  0  0  0  0
  -30.6210  -13.6580   19.8580 N   0  0  0  0  0  0  0  0  0  0  0  0
  -32.3610  -15.0600   19.4070 O   0  0  0  0  0  0  0  0  0  0  0  0
  -29.7330  -18.2570   19.7620 C   0  0  0  0  0  2  0  0  0  0  0  0
  -30.1170  -16.8790   19.2000 C   0  0  0  0  0  2  0  0  0  0  0  0
  -30.1460  -16.3010   21.6360 C   0  0  0  0  0  2  0  0  0  0  0  0
  -30.7670  -18.6690   20.8210 C   0  0  0  0  0  3  0  0  0  0  0  0
  -30.7480  -17.6840   22.0480 C   0  0  0  0  0  3  0  0  0  0  0  0
  -30.4570  -15.9000   20.2500 N   0  0  0  0  0  0  0  0  0  0  0  0
  -25.8800  -14.1270   20.3810 C   0  0  0  0  0  0  0  0  0  0  0  0
  -24.8410  -13.3380   20.7950 C   0  0  0  0  0  0  0  0  0  0  0  0
  -25.2950  -11.9890   20.6710 C   0  0  0  0  0  0  0  0  0  0  0  0
  -26.9010  -13.2550   20.0360 N   0  0  0  0  0  0  0  0  0  0  0  0
  -26.5570  -11.9630   20.2650 N   0  0  0  0  0  0  0  0  0  0  0  0
  -24.5840  -10.7200   20.8630 C   0  0  0  0  0  0  0  0  0  0  0  0
  -24.9740   -9.8000   21.8620 C   0  0  0  0  0  3  0  0  0  0  0  0
  -24.2650   -8.5930   22.0360 C   0  0  0  0  0  3  0  0  0  0  0  0
  -23.1530   -8.2980   21.2120 C   0  0  0  0  0  0  0  0  0  0  0  0
  -22.7830   -9.2080   20.2050 C   0  0  0  0  0  3  0  0  0  0  0  0
  -23.4930  -10.4060   20.0290 C   0  0  0  0  0  3  0  0  0  0  0  0
  -22.4200   -7.1380   21.2910 O   0  0  0  0  0  0  0  0  0  0  0  0
  -22.1550   -6.5360   22.4950 C   0  0  0  0  0  0  0  0  0  0  0  0
  -21.4750   -7.2120   23.5310 C   0  0  0  0  0  3  0  0  0  0  0  0
  -21.1590   -6.5340   24.7270 C   0  0  0  0  0  3  0  0  0  0  0  0
  -21.5150   -5.1800   24.8840 C   0  0  0  0  0  0  0  0  0  0  0  0
  -22.1890   -4.5050   23.8510 C   0  0  0  0  0  3  0  0  0  0  0  0
  -22.5060   -5.1810   22.6600 C   0  0  0  0  0  0  0  0  0  0  0  0
  -23.1360   -4.5180   21.6590 F   0  0  0  0  0  0  0  0  0  0  0  0
  -21.2050   -4.5280   26.0280 F   0  0  0  0  0  0  0  0  0  0  0  0
  -23.4690  -13.8020   21.1940 C   0  0  0  0  0  0  0  0  0  0  0  0
  -22.8310  -13.1020   22.1240 N   0  0  0  0  0  0  0  0  0  0  0  0
  -22.9740  -14.8220   20.7150 O   0  0  0  0  0  0  0  0  0  0  0  0
  -23.2450  -12.2780   22.5350 H   0  0  0  0  0  0  0  0  0  0  0  0
  -21.9140  -13.3950   22.4330 H   0  0  0  0  0  0  0  0  0  0  0  0
  -26.0370  -15.5050   20.2550 N   0  0  0  0  0  0  0  0  0  0  0  0
  -25.2820  -16.1510   20.4540 H   0  0  0  0  0  0  0  0  0  0  0  0
  -26.8650  -15.9600   19.8920 H   0  0  0  0  0  0  0  0  0  0  0  0
  -30.0870  -18.2140   23.3560 C   0  0  0  0  0  2  0  0  0  0  0  0
  -30.5570  -17.5390   24.5820 N   0  0  0  0  0  4  0  0  0  0  0  0
  -30.2710  -16.5790   24.6190 H   0  0  0  0  0  0  0  0  0  0  0  0
  -30.1610  -18.0000   25.3840 H   0  0  0  0  0  0  0  0  0  0  0  0
  -31.5570  -17.5840   24.6650 H   0  0  0  0  0  0  0  0  0  0  0  0
  1  2  1  0
  1 51  1  0
  1 54  1  0
  2  4  1  0
  2  3  1  0
  5  6  1  0
  5  2  1  0
  7  8  1  0
  7  6  1  0
  8  9  1  0
  9 11  1  0
 10 21  2  0
 11 16  1  0
 12 20  1  0
 12 22  1  0
 13 19  1  0
 13 15  1  0
 14 20  1  0
 15 14  1  0
 16 15  2  0
 17 18  1  0
 17 11  2  0
 18 13  2  0
 19 12  1  0
 20 10  1  0
 22 24  2  0
 23 22  1  0
 25 23  1  0
 26 35  2  0
 26 31  1  0
 27 23  1  0
 27 31  1  0
 28 27  1  0
 29 30  1  0
 29 28  1  0
 30 26  1  0
 31 32  2  0
 32 33  1  0
 34 33  2  0
 35 34  1  0
 36 10  1  0
 36 41  1  0
 36 37  1  0
 37 40  1  1
 37 38  1  0
 39 37  1  0
 41 44  1  0
 42 46  1  0
 42 41  1  0
 43 42  2  0
 46 45  1  0
 48 46  1  0
 48 49  1  0
 48 47  1  0
 51 50  1  0
 51 53  1  0
 53 52  1  0
 54 55  2  0
 56 69  1  0
 57 62  1  0
 58 59  1  0
 58 57  1  0
 60 59  1  0
 60 73  1  0
 60 61  1  0
 62 56  1  0
 62 61  1  0
 63 56  2  0
 64 67  1  0
 65 64  1  0
 65 69  1  0
 66 68  1  0
 67 54  1  0
 67 68  1  0
 68 98  1  0
 69 66  1  0
 70 71  2  0
 71 90  1  0
 72 71  1  0
 72 75  1  0
 73 74  1  0
 73 70  1  0
 74 72  2  0
 75 76  1  0
 76 77  2  0
 78 81  1  0
 78 77  1  0
 79 78  2  0
 80 79  1  0
 80 75  2  0
 81 82  1  0
 82 87  2  0
 82 83  1  0
 83 84  2  0
 84 85  1  0
 85 89  1  0
 86 85  2  0
 87 86  1  0
 88 87  1  0
 90 91  1  0
 91 94  1  0
 91 93  1  0
 92 90  2  0
 95 70  1  0
 95 96  1  0
 97 95  1  0
 98 99  1  0
 99100  1  0
 99102  1  0
 99101  1  0
M  ISO  4   8 101   9 101  56 100  69 100
M  END
>  <TORSDO>  (91) 
F 26

>  <SCORE>  (91) 
-8.811

>  <name>  (91) 
90

>  <ligand_id>  (91) 
90

>  <original_smiles>  (91) 
[H]c1c([H])c([H])c2c(c1[H])C([H])([H])C([H])([H])C([H])([H])C2([H])N([H])C(=O)C1([H])N(C(=O)C([H])(N([H])C(=O)C([H])(N([H])C([H])([H])[H])C([H])([H])[H])C(C([H])([H])[H])(C([H])([H])[H])C([H])([H])[H])C([H])([H])c2c([H])c(OC([H])([H])C([H])([H])C([H])([H])C([H])([H])[N+]([H])([H])C([H])(C(=O)C3([H])C([H])([H])C([H])([H])N(C(=O)N4C([H])([H])C([H])([H])C([H])([H])C([H])(n5nc(-c6c([H])c([H])c(Oc7c([H])c([H])c(F)c([H])c7F)c([H])c6[H])c(C(=O)N([H])[H])c5N([H])[H])C4([H])[H])C([H])([H])C3([H])C([H])([H])[N+]([H])([H])[H])C([H])(C([H])([H])[H])C([H])([H])C([H])([H])[H])c([H])c([H])c2C1([H])[H]

>  <smiles>  (91) 
[H]c1c([H])c([H])c2c(c1[H])C([H])([H])C([H])([H])C([H])([H])C2([H])N([H])C(=O)C1([H])N(C(=O)C([H])(N([H])C(=O)C([H])(N([H])C([H])([H])[H])C([H])([H])[H])C(C([H])([H])[H])(C([H])([H])[H])C([H])([H])[H])C([H])([H])c2c([H])c(OC([H])([H])C([H])([H])C([H])([H])C([H])([H])[N+]([H])([H])C([H])(C(=O)C3([H])C([H])([H])C([H])([H])N(C(=O)N4C([H])([H])C([H])([H])C([H])([H])C([H])(n5nc(-c6c([H])c([H])c(Oc7c([H])c([H])c(F)c([H])c7F)c([H])c6[H])c(C(=O)N([H])[H])c5N([H])[H])C4([H])[H])C([H])([H])C3([H])C([H])([H])[N+]([H])([H])[H])C([H])(C([H])([H])[H])C([H])([H])C([H])([H])[H])c([H])c([H])c2C1([H])[H]

$$$$
91:0:0
     RDKit          3D

 91 98  0  0  1  0  0  0  0  0999 V2000
  -29.7690  -22.9590   19.5910 N   0  0  0  0  0  4  0  0  0  0  0  0
  -30.1710  -23.0370   20.5130 H   0  0  0  0  0  0  0  0  0  0  0  0
  -30.5680  -22.8810   18.9780 H   0  0  0  0  0  0  0  0  0  0  0  0
  -29.0630  -24.2680   19.1890 C   0  0  0  0  0  2  0  0  0  0  0  0
  -28.8120  -25.4070   20.2990 C   0  0  0  0  0  2  0  0  0  0  0  0
  -28.8130  -26.8610   19.9640 O   0  0  0  0  0  0  0  0  0  0  0  0
  -24.7130  -31.7910   23.3460 C   0  0  0  0  0  0  0  0  0  0  0  0
  -27.6330  -27.6130   20.0280 C   0  0  0  0  0  0  0  0  0  0  0  0
  -23.6220  -30.4560   21.5770 C   0  0  0  0  0  3  0  0  0  0  0  0
  -25.1800  -29.0850   20.0820 C   0  0  0  0  0  0  0  0  0  0  0  0
  -26.1410  -30.9220   21.4740 C   0  0  0  0  0  2  0  0  0  0  0  0
  -26.3080  -29.5980   20.7350 C   0  0  0  0  0  0  0  0  0  0  0  0
  -27.5390  -28.8800   20.6910 C   0  0  0  0  0  3  0  0  0  0  0  0
  -26.4800  -27.1450   19.3660 C   0  0  0  0  0  3  0  0  0  0  0  0
  -25.2680  -27.8650   19.3880 C   0  0  0  0  0  3  0  0  0  0  0  0
  -23.9000  -29.8940   20.1570 C   0  0  0  0  0  2  0  0  0  0  0  0
  -24.8430  -31.0730   22.1900 N   0  0  0  0  0  0  0  0  0  0  0  0
  -23.6070  -31.9640   23.8750 O   0  0  0  0  0  0  0  0  0  0  0  0
  -22.9970  -29.3390   22.4470 C   0  0  0  0  0  0  0  0  0  0  0  0
  -21.6870  -29.0950   22.2700 N   0  0  0  0  0  0  0  0  0  0  0  0
  -23.6920  -28.6960   23.2390 O   0  0  0  0  0  0  0  0  0  0  0  0
  -21.1810  -29.6720   21.6120 H   0  0  0  0  0  0  0  0  0  0  0  0
  -18.3720  -27.6810   22.5930 C   0  0  0  0  0  0  0  0  0  0  0  0
  -20.9060  -28.0560   22.9450 C   0  0  0  0  0  3  0  0  0  0  0  0
  -21.1000  -26.6820   22.2640 C   0  0  0  0  0  2  0  0  0  0  0  0
  -20.0400  -26.3780   21.2030 C   0  0  0  0  0  2  0  0  0  0  0  0
  -18.6380  -26.3980   21.8210 C   0  0  0  0  0  2  0  0  0  0  0  0
  -19.4370  -28.4670   23.1060 C   0  0  0  0  0  0  0  0  0  0  0  0
  -19.1360  -29.6670   23.7870 C   0  0  0  0  0  3  0  0  0  0  0  0
  -17.8020  -30.0810   23.9590 C   0  0  0  0  0  3  0  0  0  0  0  0
  -16.7500  -29.2910   23.4610 C   0  0  0  0  0  3  0  0  0  0  0  0
  -17.0360  -28.0930   22.7830 C   0  0  0  0  0  3  0  0  0  0  0  0
  -25.9460  -32.4420   24.0470 C   0  0  0  0  0  3  0  0  0  0  0  0
  -26.3920  -31.6790   25.3570 C   0  0  1  0  0  0  0  0  0  0  0  0
  -25.2350  -31.4130   26.3490 C   0  0  0  0  0  1  0  0  0  0  0  0
  -27.0310  -30.3170   25.0040 C   0  0  0  0  0  1  0  0  0  0  0  0
  -27.4780  -32.4970   26.0960 C   0  0  0  0  0  1  0  0  0  0  0  0
  -25.5960  -33.8370   24.3600 N   0  0  0  0  0  0  0  0  0  0  0  0
  -25.9480  -34.8950   23.6180 C   0  0  0  0  0  0  0  0  0  0  0  0
  -26.6700  -34.8020   22.6200 O   0  0  0  0  0  0  0  0  0  0  0  0
  -24.9660  -33.9820   25.1340 H   0  0  0  0  0  0  0  0  0  0  0  0
  -24.2010  -36.6530   23.1850 C   0  0  0  0  0  1  0  0  0  0  0  0
  -25.4160  -36.2760   24.0500 C   0  0  0  0  0  3  0  0  0  0  0  0
  -27.4900  -37.2100   24.9710 C   0  0  0  0  0  1  0  0  0  0  0  0
  -26.4320  -37.3490   23.9730 N   0  0  0  0  0  0  0  0  0  0  0  0
  -26.0020  -38.2640   24.0900 H   0  0  0  0  0  0  0  0  0  0  0  0
  -29.0870  -21.5940   19.4660 C   0  0  0  0  0  3  0  0  0  0  0  0
  -30.1450  -20.3750   19.6770 C   0  0  0  0  0  0  0  0  0  0  0  0
  -31.3300  -20.6340   19.9020 O   0  0  0  0  0  0  0  0  0  0  0  0
  -29.7420  -18.8250   19.6100 C   0  0  0  0  0  3  0  0  0  0  0  0
  -30.8690  -17.6940   19.8560 C   0  0  0  0  0  3  0  0  0  0  0  0
  -31.2320  -15.1100   19.9580 C   0  0  0  0  0  0  0  0  0  0  0  0
  -31.0230  -12.7610   19.1600 C   0  0  0  0  0  2  0  0  0  0  0  0
  -30.0760  -12.7310   17.9400 C   0  0  0  0  0  2  0  0  0  0  0  0
  -28.6040  -12.6180   18.3890 C   0  0  0  0  0  2  0  0  0  0  0  0
  -28.2460  -13.6140   19.5240 C   0  0  0  0  0  3  0  0  0  0  0  0
  -29.3080  -13.6040   20.6450 C   0  0  0  0  0  2  0  0  0  0  0  0
  -30.6040  -13.8910   20.0170 N   0  0  0  0  0  0  0  0  0  0  0  0
  -32.4060  -15.1930   19.5910 O   0  0  0  0  0  0  0  0  0  0  0  0
  -30.4600  -16.2470   20.1080 N   0  0  0  0  0  0  0  0  0  0  0  0
  -29.5050  -16.0840   20.3900 H   0  0  0  0  0  0  0  0  0  0  0  0
  -25.9210  -14.3050   20.3650 C   0  0  0  0  0  0  0  0  0  0  0  0
  -24.8250  -13.5750   20.7380 C   0  0  0  0  0  0  0  0  0  0  0  0
  -25.2080  -12.2030   20.6280 C   0  0  0  0  0  0  0  0  0  0  0  0
  -26.9030  -13.3800   20.0480 N   0  0  0  0  0  0  0  0  0  0  0  0
  -26.4830  -12.1080   20.2720 N   0  0  0  0  0  0  0  0  0  0  0  0
  -24.4160  -10.9750   20.7880 C   0  0  0  0  0  0  0  0  0  0  0  0
  -24.7760   -9.9820   21.7270 C   0  0  0  0  0  3  0  0  0  0  0  0
  -23.9880   -8.8190   21.8740 C   0  0  0  0  0  3  0  0  0  0  0  0
  -22.8270   -8.6420   21.0820 C   0  0  0  0  0  0  0  0  0  0  0  0
  -22.4880   -9.6240   20.1350 C   0  0  0  0  0  3  0  0  0  0  0  0
  -23.2740  -10.7780   19.9860 C   0  0  0  0  0  3  0  0  0  0  0  0
  -22.0150   -7.5350   21.1410 O   0  0  0  0  0  0  0  0  0  0  0  0
  -21.8470   -6.8270   22.3030 C   0  0  0  0  0  0  0  0  0  0  0  0
  -21.2940   -7.4180   23.4620 C   0  0  0  0  0  3  0  0  0  0  0  0
  -21.0730   -6.6350   24.6130 C   0  0  0  0  0  3  0  0  0  0  0  0
  -21.3920   -5.2640   24.6050 C   0  0  0  0  0  0  0  0  0  0  0  0
  -21.9360   -4.6750   23.4510 C   0  0  0  0  0  3  0  0  0  0  0  0
  -22.1590   -5.4530   22.3030 C   0  0  0  0  0  0  0  0  0  0  0  0
  -22.6640   -4.8750   21.1870 F   0  0  0  0  0  0  0  0  0  0  0  0
  -21.1720   -4.5110   25.7080 F   0  0  0  0  0  0  0  0  0  0  0  0
  -23.4660  -14.1160   21.0770 C   0  0  0  0  0  0  0  0  0  0  0  0
  -22.7330  -13.4320   21.9470 N   0  0  0  0  0  0  0  0  0  0  0  0
  -23.0660  -15.1790   20.6050 O   0  0  0  0  0  0  0  0  0  0  0  0
  -23.0700  -12.5730   22.3530 H   0  0  0  0  0  0  0  0  0  0  0  0
  -21.8190  -13.7740   22.2120 H   0  0  0  0  0  0  0  0  0  0  0  0
  -26.1570  -15.6710   20.2410 N   0  0  0  0  0  0  0  0  0  0  0  0
  -25.4280  -16.3560   20.4020 H   0  0  0  0  0  0  0  0  0  0  0  0
  -26.9990  -16.0710   19.8470 H   0  0  0  0  0  0  0  0  0  0  0  0
  -26.7790  -20.5610   20.2320 C   0  0  0  0  0  1  0  0  0  0  0  0
  -27.9180  -21.5600   20.4910 C   0  0  0  0  0  2  0  0  0  0  0  0
  1  2  1  0
  3  1  1  0
  4  1  1  0
  4  5  1  0
  6  8  1  0
  6  5  1  0
  7 18  2  0
  8 13  1  0
  9 17  1  0
  9 19  1  0
 10 16  1  0
 10 12  1  0
 11 17  1  0
 12 11  1  0
 13 12  2  0
 14 15  1  0
 14  8  2  0
 15 10  2  0
 16  9  1  0
 17  7  1  0
 19 21  2  0
 20 19  1  0
 22 20  1  0
 23 32  2  0
 23 28  1  0
 24 20  1  0
 24 28  1  0
 25 24  1  0
 26 27  1  0
 26 25  1  0
 27 23  1  0
 28 29  2  0
 29 30  1  0
 31 30  2  0
 32 31  1  0
 33  7  1  0
 33 38  1  0
 33 34  1  0
 34 37  1  1
 34 35  1  0
 36 34  1  0
 38 41  1  0
 39 43  1  0
 39 38  1  0
 40 39  2  0
 43 42  1  0
 45 43  1  0
 45 46  1  0
 45 44  1  0
 47  1  1  0
 47 48  1  0
 47 91  1  0
 48 49  2  0
 50 48  1  0
 50 51  2  0
 51 60  1  0
 52 58  1  0
 52 60  1  0
 53 58  1  0
 54 55  1  0
 54 53  1  0
 56 55  1  0
 56 65  1  0
 56 57  1  0
 58 57  1  0
 59 52  2  0
 60 61  1  0
 62 63  2  0
 63 82  1  0
 64 63  1  0
 64 67  1  0
 65 66  1  0
 65 62  1  0
 66 64  2  0
 67 68  1  0
 68 69  2  0
 70 73  1  0
 70 69  1  0
 71 70  2  0
 72 71  1  0
 72 67  2  0
 73 74  1  0
 74 79  2  0
 74 75  1  0
 75 76  2  0
 77 76  1  0
 77 81  1  0
 78 77  2  0
 79 78  1  0
 80 79  1  0
 82 83  1  0
 83 86  1  0
 83 85  1  0
 84 82  2  0
 87 62  1  0
 87 88  1  0
 89 87  1  0
 90 91  1  0
M  ISO  4   5 101   6 101  52 100  60 100
M  END
>  <TORSDO>  (92) 
F 23

>  <SCORE>  (92) 
-10.638

>  <name>  (92) 
91

>  <ligand_id>  (92) 
91

>  <original_smiles>  (92) 
[H]c1c([H])c([H])c2c(c1[H])C([H])([H])C([H])([H])C([H])([H])C2([H])N([H])C(=O)C1([H])N(C(=O)C([H])(N([H])C(=O)C([H])(N([H])C([H])([H])[H])C([H])([H])[H])C(C([H])([H])[H])(C([H])([H])[H])C([H])([H])[H])C([H])([H])c2c([H])c(OC([H])([H])C([H])([H])[N+]([H])([H])C([H])(C(=O)C([H])([H])C([H])([H])N([H])C(=O)N3C([H])([H])C([H])([H])C([H])([H])C([H])(n4nc(-c5c([H])c([H])c(Oc6c([H])c([H])c(F)c([H])c6F)c([H])c5[H])c(C(=O)N([H])[H])c4N([H])[H])C3([H])[H])C([H])([H])C([H])([H])[H])c([H])c([H])c2C1([H])[H]

>  <smiles>  (92) 
[H]c1c([H])c([H])c2c(c1[H])C([H])([H])C([H])([H])C([H])([H])C2([H])N([H])C(=O)C1([H])N(C(=O)C([H])(N([H])C(=O)C([H])(N([H])C([H])([H])[H])C([H])([H])[H])C(C([H])([H])[H])(C([H])([H])[H])C([H])([H])[H])C([H])([H])c2c([H])c(OC([H])([H])C([H])([H])[N+]([H])([H])C([H])(C(=O)C([H])([H])C([H])([H])N([H])C(=O)N3C([H])([H])C([H])([H])C([H])([H])C([H])(n4nc(-c5c([H])c([H])c(Oc6c([H])c([H])c(F)c([H])c6F)c([H])c5[H])c(C(=O)N([H])[H])c4N([H])[H])C3([H])[H])C([H])([H])C([H])([H])[H])c([H])c([H])c2C1([H])[H]

$$$$
92:0:0
     RDKit          3D

 99 99  0  0  1  0  0  0  0  0999 V2000
  -20.2610  -28.1530   24.5850 C   0  0  0  0  0 15  0  0  0  0  0  0
  -22.1430  -26.9710   23.7960 C   0  0  0  0  0 15  0  0  0  0  0  0
  -18.0970  -28.0380   23.2330 C   0  0  0  0  0 15  0  0  0  0  0  0
  -22.0340  -25.3120   20.5180 C   0  0  0  0  0  2  0  0  0  0  0  0
  -18.8710  -26.1030   19.4570 C   0  0  0  0  0 15  0  0  0  0  0  0
  -23.0610  -26.0950   21.9550 C   0  0  0  0  0  2  0  0  0  0  0  0
  -17.6720  -27.0320   21.2160 C   0  0  0  0  0  1  0  0  0  0  0  0
  -16.3560  -27.5570   20.5610 C   0  0  0  0  0  1  0  0  0  0  0  0
  -20.8300  -25.8890   19.3320 N   0  0  0  0  0  0  0  0  0  0  0  0
  -20.7580  -26.5300   20.1060 H   0  0  0  0  0  0  0  0  0  0  0  0
  -24.7740  -26.2650   21.0900 C   0  0  0  0  0  0  0  0  0  0  0  0
  -25.5060  -26.8090   19.7920 N   0  0  0  0  0  0  0  0  0  0  0  0
  -25.5590  -25.5560   21.7090 O   0  0  0  0  0  0  0  0  0  0  0  0
  -24.7960  -27.3060   19.2580 H   0  0  0  0  0  0  0  0  0  0  0  0
  -26.9690  -26.6240   18.7150 C   0  0  0  0  0  1  0  0  0  0  0  0
  -28.5560  -27.4600   17.8040 C   0  0  0  0  0 15  0  0  0  0  0  0
  -29.8130  -27.2310   16.2280 C   0  0  0  0  0  1  0  0  0  0  0  0
  -32.8300  -27.8430   14.6560 C   0  0  0  0  0  0  0  0  0  0  0  0
  -34.2340  -28.5120   12.3750 C   0  0  0  0  0  2  0  0  0  0  0  0
  -33.7200  -29.6860   11.4610 C   0  0  0  0  0  2  0  0  0  0  0  0
  -32.4860  -29.2450   10.6560 C   0  0  0  0  0  2  0  0  0  0  0  0
  -31.5990  -28.3310   11.5350 C   0  0  0  0  0  3  0  0  0  0  0  0
  -32.3280  -27.1730   12.2120 C   0  0  0  0  0  2  0  0  0  0  0  0
  -33.0940  -27.8430   13.2150 N   0  0  0  0  0  0  0  0  0  0  0  0
  -33.9560  -28.2260   15.0910 O   0  0  0  0  0  0  0  0  0  0  0  0
  -31.5640  -27.5230   15.6500 N   0  0  0  0  0  0  0  0  0  0  0  0
  -32.0820  -27.3780   16.5110 H   0  0  0  0  0  0  0  0  0  0  0  0
  -29.1830  -27.6980   11.4210 C   0  0  0  0  0  0  0  0  0  0  0  0
  -28.4400  -27.1100   10.4470 C   0  0  0  0  0  0  0  0  0  0  0  0
  -29.3460  -26.8130    9.3810 C   0  0  0  0  0  0  0  0  0  0  0  0
  -30.4580  -27.7740   10.8980 N   0  0  0  0  0  0  0  0  0  0  0  0
  -30.5840  -27.1590    9.7030 N   0  0  0  0  0  0  0  0  0  0  0  0
  -29.0980  -26.2840    8.0420 C   0  0  0  0  0  0  0  0  0  0  0  0
  -29.7220  -25.1070    7.5770 C   0  0  0  0  0  3  0  0  0  0  0  0
  -29.4410  -24.6190    6.2820 C   0  0  0  0  0  3  0  0  0  0  0  0
  -28.5350  -25.3100    5.4460 C   0  0  0  0  0  0  0  0  0  0  0  0
  -27.9370  -26.4950    5.9080 C   0  0  0  0  0  3  0  0  0  0  0  0
  -28.2210  -26.9830    7.1940 C   0  0  0  0  0  3  0  0  0  0  0  0
  -28.2190  -24.9270    4.1680 O   0  0  0  0  0  0  0  0  0  0  0  0
  -28.2730  -23.6140    3.7800 C   0  0  0  0  0  0  0  0  0  0  0  0
  -27.5000  -22.6160    4.4130 C   0  0  0  0  0  3  0  0  0  0  0  0
  -27.5350  -21.2900    3.9360 C   0  0  0  0  0  3  0  0  0  0  0  0
  -28.3330  -20.9640    2.8220 C   0  0  0  0  0  0  0  0  0  0  0  0
  -29.0990  -21.9570    2.1870 C   0  0  0  0  0  3  0  0  0  0  0  0
  -29.0670  -23.2790    2.6650 C   0  0  0  0  0  0  0  0  0  0  0  0
  -29.7900  -24.2370    2.0370 F   0  0  0  0  0  0  0  0  0  0  0  0
  -28.3590  -19.6930    2.3590 F   0  0  0  0  0  0  0  0  0  0  0  0
  -26.9560  -26.9370   10.4640 C   0  0  0  0  0  0  0  0  0  0  0  0
  -26.4570  -25.8520    9.8910 N   0  0  0  0  0  0  0  0  0  0  0  0
  -26.2350  -27.7500   11.0400 O   0  0  0  0  0  0  0  0  0  0  0  0
  -27.0560  -25.1740    9.4450 H   0  0  0  0  0  0  0  0  0  0  0  0
  -25.4620  -25.6970    9.8970 H   0  0  0  0  0  0  0  0  0  0  0  0
  -28.8800  -28.1940   12.6870 N   0  0  0  0  0  0  0  0  0  0  0  0
  -27.9230  -28.1870   13.0270 H   0  0  0  0  0  0  0  0  0  0  0  0
  -29.5300  -28.6340   13.3280 H   0  0  0  0  0  0  0  0  0  0  0  0
  -21.7360  -26.8720   18.3660 C   0  0  0  0  0  2  0  0  0  0  0  0
  -23.2780  -27.6610   18.7410 C   0  0  0  0  0  3  0  0  0  0  0  0
  -24.4970  -28.5640   17.9040 C   0  0  0  0  0  3  0  0  0  0  0  0
  -25.6880  -29.5030   18.4930 O   0  0  0  0  0  0  0  0  0  0  0  0
  -29.9150  -31.2320   23.8560 C   0  0  0  0  0  0  0  0  0  0  0  0
  -25.5800  -29.8430   19.8270 C   0  0  0  0  0  0  0  0  0  0  0  0
  -28.7110  -29.1730   23.5740 C   0  0  0  0  0  3  0  0  0  0  0  0
  -26.5930  -29.0840   22.2420 C   0  0  0  0  0  0  0  0  0  0  0  0
  -27.5940  -31.2980   22.8270 C   0  0  0  0  0  2  0  0  0  0  0  0
  -26.8030  -30.4130   21.8490 C   0  0  0  0  0  0  0  0  0  0  0  0
  -26.3390  -30.8140   20.5660 C   0  0  0  0  0  3  0  0  0  0  0  0
  -25.0070  -28.7750   20.4900 C   0  0  0  0  0  3  0  0  0  0  0  0
  -25.6570  -28.2750   21.6000 C   0  0  0  0  0  3  0  0  0  0  0  0
  -27.2730  -28.6410   23.4890 C   0  0  0  0  0  2  0  0  0  0  0  0
  -28.7550  -30.6320   23.4890 N   0  0  0  0  0  0  0  0  0  0  0  0
  -30.8750  -30.5950   24.3070 O   0  0  0  0  0  0  0  0  0  0  0  0
  -29.4880  -28.6900   22.3790 C   0  0  0  0  0  0  0  0  0  0  0  0
  -29.3290  -27.4180   22.1800 N   0  0  0  0  0  0  0  0  0  0  0  0
  -30.1340  -29.3780   21.5930 O   0  0  0  0  0  0  0  0  0  0  0  0
  -28.7970  -27.0200   22.9230 H   0  0  0  0  0  0  0  0  0  0  0  0
  -28.7730  -24.5630   19.1160 C   0  0  0  0  0  0  0  0  0  0  0  0
  -29.9770  -26.3410   21.1170 C   0  0  0  0  0  3  0  0  0  0  0  0
  -30.9780  -27.1490   20.7470 C   0  0  0  0  0  2  0  0  0  0  0  0
  -30.0960  -26.8340   19.8560 C   0  0  0  0  0  3  0  0  0  0  0  0
  -29.7950  -25.5070   18.6300 C   0  0  0  0  0  2  0  0  0  0  0  0
  -29.2280  -24.5460   20.3800 C   0  0  0  0  0  2  0  0  0  0  0  0
  -28.2870  -23.4930   21.0040 C   0  0  0  0  0  2  0  0  0  0  0  0
  -26.9440  -23.1400   20.6800 C   0  0  0  0  0  3  0  0  0  0  0  0
  -26.5540  -23.4150   19.3710 C   0  0  0  0  0  3  0  0  0  0  0  0
  -27.5400  -24.0210   18.5620 C   0  0  0  0  0  3  0  0  0  0  0  0
  -30.0510  -32.7610   23.7250 C   0  0  0  0  0  3  0  0  0  0  0  0
  -30.5540  -33.2320   25.0170 N   0  0  0  0  0  0  0  0  0  0  0  0
  -29.7610  -33.6520   26.0030 C   0  0  0  0  0  0  0  0  0  0  0  0
  -28.5390  -33.7490   25.8780 O   0  0  0  0  0  0  0  0  0  0  0  0
  -31.5450  -33.1440   25.1970 H   0  0  0  0  0  0  0  0  0  0  0  0
  -30.3120  -32.8150   28.3030 C   0  0  0  0  0  1  0  0  0  0  0  0
  -30.4310  -34.0060   27.3380 C   0  0  0  0  0  3  0  0  0  0  0  0
  -30.1770  -36.4420   27.2280 C   0  0  0  0  0  1  0  0  0  0  0  0
  -29.8710  -35.2180   27.9620 N   0  0  0  0  0  0  0  0  0  0  0  0
  -30.2130  -35.3210   28.9130 H   0  0  0  0  0  0  0  0  0  0  0  0
  -30.9950  -33.2320   22.5510 C   0  0  1  0  0  0  0  0  0  0  0  0
  -32.4010  -32.5970   22.5920 C   0  0  0  0  0  1  0  0  0  0  0  0
  -30.3810  -32.9270   21.1650 C   0  0  0  0  0  1  0  0  0  0  0  0
  -31.1530  -34.7670   22.6170 C   0  0  0  0  0  1  0  0  0  0  0  0
  4  6  1  0
  8  7  1  0
  9 10  1  0
  9  4  1  0
 11 13  2  0
 11  6  1  0
 12 11  1  0
 14 12  1  0
 15 12  1  0
 18 25  2  0
 18 26  1  0
 19 24  1  0
 20 19  1  0
 21 20  1  0
 22 21  1  0
 22 23  1  0
 23 24  1  0
 24 18  1  0
 26 17  1  0
 26 27  1  0
 28 53  1  0
 29 48  1  0
 29 28  2  0
 30 32  2  0
 30 29  1  0
 31 28  1  0
 31 22  1  0
 32 31  1  0
 33 30  1  0
 34 33  1  0
 35 34  2  0
 36 37  2  0
 36 35  1  0
 37 38  1  0
 38 33  2  0
 39 36  1  0
 40 39  1  0
 40 41  1  0
 42 41  2  0
 43 42  1  0
 44 45  1  0
 44 43  2  0
 45 40  2  0
 46 45  1  0
 47 43  1  0
 48 50  2  0
 49 52  1  0
 49 48  1  0
 51 49  1  0
 53 54  1  0
 53 55  1  0
 56 57  1  0
 56  9  1  0
 58 59  1  0
 58 57  2  0
 59 61  1  0
 60 71  2  0
 61 67  2  0
 61 66  1  0
 62 72  1  0
 63 69  1  0
 64 70  1  0
 65 63  1  0
 65 64  1  0
 66 65  2  0
 67 68  1  0
 68 63  2  0
 69 62  1  0
 70 62  1  0
 70 60  1  0
 73 72  1  0
 73 75  1  0
 74 72  2  0
 76 81  1  0
 77 73  1  0
 78 77  1  0
 79 80  1  0
 79 78  1  0
 79 77  1  0
 80 76  1  0
 81 82  1  0
 83 82  1  0
 84 83  2  0
 85 76  2  0
 85 84  1  0
 86 60  1  0
 86 87  1  0
 87 90  1  0
 87 88  1  0
 88 92  1  0
 89 88  2  0
 92 94  1  0
 92 91  1  0
 93 94  1  0
 94 95  1  0
 96 97  1  6
 96 99  1  0
 96 86  1  0
 98 96  1  0
M  ISO  4  18 100  26 100  58 101  59 101
M  END
>  <TORSDO>  (93) 
F 23

>  <SCORE>  (93) 
6.573

>  <name>  (93) 
92

>  <ligand_id>  (93) 
92

>  <original_smiles>  (93) 
[H]c1c([H])c([H])c2c(c1[H])C([H])([H])C([H])([H])C([H])([H])C2([H])N([H])C(=O)C1([H])N(C(=O)C([H])(N([H])C(=O)C([H])(N([H])C([H])([H])[H])C([H])([H])[H])C(C([H])([H])[H])(C([H])([H])[H])C([H])([H])[H])C([H])([H])c2c([H])c(OC([H])([H])C([H])([H])C([H])([H])[N+]3([H])C([H])([H])C([H])(C(=O)N([H])C([H])([H])C([H])([H])C([H])([H])N([H])C(=O)N4C([H])([H])C([H])([H])C([H])([H])C([H])(n5nc(-c6c([H])c([H])c(Oc7c([H])c([H])c(F)c([H])c7F)c([H])c6[H])c(C(=O)N([H])[H])c5N([H])[H])C4([H])[H])C([H])([H])C([H])([H])C([H])([H])C([H])(C([H])([H])[H])C3([H])[H])c([H])c([H])c2C1([H])[H]

>  <smiles>  (93) 
[H]c1c([H])c([H])c2c(c1[H])C([H])([H])C([H])([H])C([H])([H])C2([H])N([H])C(=O)C1([H])N(C(=O)C([H])(N([H])C(=O)C([H])(N([H])C([H])([H])[H])C([H])([H])[H])C(C([H])([H])[H])(C([H])([H])[H])C([H])([H])[H])C([H])([H])c2c([H])c(OC([H])([H])C([H])([H])C([H])([H])[N+]3([H])C([H])([H])C([H])(C(=O)N([H])C([H])([H])C([H])([H])C([H])([H])N([H])C(=O)N4C([H])([H])C([H])([H])C([H])([H])C([H])(n5nc(-c6c([H])c([H])c(Oc7c([H])c([H])c(F)c([H])c7F)c([H])c6[H])c(C(=O)N([H])[H])c5N([H])[H])C4([H])[H])C([H])([H])C([H])([H])C([H])([H])C([H])(C([H])([H])[H])C3([H])[H])c([H])c([H])c2C1([H])[H]

$$$$
93:0:0
     RDKit          3D

 97105  0  0  1  0  0  0  0  0999 V2000
  -29.1130  -18.9550   19.7960 C   0  0  0  0  0  2  0  0  0  0  0  0
  -29.9970  -19.4620   18.6430 C   0  0  0  0  0  2  0  0  0  0  0  0
  -29.8360  -17.0570   17.9820 C   0  0  0  0  0  2  0  0  0  0  0  0
  -29.6860  -17.6870   20.4770 C   0  0  0  0  0  3  0  0  0  0  0  0
  -30.3410  -16.7310   19.4120 C   0  0  0  0  0  3  0  0  0  0  0  0
  -30.1610  -18.4540   17.5680 N   0  0  1  0  0  4  0  0  0  0  0  0
  -31.1470  -18.4500   17.3560 H   0  0  0  0  0  0  0  0  0  0  0  0
  -29.0980  -17.5370   22.9670 C   0  0  0  0  0  1  0  0  0  0  0  0
  -27.2010  -17.3550   21.3350 C   0  0  0  0  0  1  0  0  0  0  0  0
  -28.7060  -17.0900   21.5480 C   0  0  0  0  0  3  0  0  0  0  0  0
  -30.2660  -15.2170   19.7310 C   0  0  0  0  0  2  0  0  0  0  0  0
  -31.7760  -13.3350   19.0420 C   0  0  0  0  0  0  0  0  0  0  0  0
  -31.3410  -10.9640   18.5900 C   0  0  0  0  0  2  0  0  0  0  0  0
  -30.2830  -10.8790   17.4720 C   0  0  0  0  0  2  0  0  0  0  0  0
  -28.8550  -10.9440   18.0520 C   0  0  0  0  0  2  0  0  0  0  0  0
  -28.6640  -12.0970   19.0740 C   0  0  0  0  0  3  0  0  0  0  0  0
  -29.8290  -12.1060   20.0950 C   0  0  0  0  0  2  0  0  0  0  0  0
  -31.0780  -12.2040   19.3300 N   0  0  0  0  0  0  0  0  0  0  0  0
  -32.9060  -13.3210   18.5560 O   0  0  0  0  0  0  0  0  0  0  0  0
  -31.0370  -14.4210   18.7790 N   0  0  0  0  0  0  0  0  0  0  0  0
  -31.4710  -14.9790   18.0570 H   0  0  0  0  0  0  0  0  0  0  0  0
  -26.4470  -13.0400   19.9790 C   0  0  0  0  0  0  0  0  0  0  0  0
  -25.3560  -12.4320   20.5520 C   0  0  0  0  0  0  0  0  0  0  0  0
  -25.6570  -11.0350   20.5740 C   0  0  0  0  0  0  0  0  0  0  0  0
  -27.3560  -12.0270   19.7210 N   0  0  0  0  0  0  0  0  0  0  0  0
  -26.8870  -10.8200   20.1270 N   0  0  0  0  0  0  0  0  0  0  0  0
  -24.8180   -9.8850   20.9340 C   0  0  0  0  0  0  0  0  0  0  0  0
  -24.9630   -9.2310   22.1760 C   0  0  0  0  0  3  0  0  0  0  0  0
  -24.1360   -8.1390   22.5130 C   0  0  0  0  0  3  0  0  0  0  0  0
  -23.1500   -7.6890   21.6030 C   0  0  0  0  0  0  0  0  0  0  0  0
  -23.0230   -8.3290   20.3590 C   0  0  0  0  0  3  0  0  0  0  0  0
  -23.8510   -9.4140   20.0230 C   0  0  0  0  0  3  0  0  0  0  0  0
  -22.3210   -6.6170   21.8310 O   0  0  0  0  0  0  0  0  0  0  0  0
  -21.6340   -6.4810   23.0080 C   0  0  0  0  0  0  0  0  0  0  0  0
  -20.6750   -7.4290   23.4270 C   0  0  0  0  0  3  0  0  0  0  0  0
  -19.9410   -7.2130   24.6100 C   0  0  0  0  0  3  0  0  0  0  0  0
  -20.1590   -6.0500   25.3720 C   0  0  0  0  0  0  0  0  0  0  0  0
  -21.1140   -5.1030   24.9570 C   0  0  0  0  0  3  0  0  0  0  0  0
  -21.8460   -5.3180   23.7770 C   0  0  0  0  0  0  0  0  0  0  0  0
  -22.7490   -4.3930   23.3670 F   0  0  0  0  0  0  0  0  0  0  0  0
  -19.4510   -5.8380   26.5060 F   0  0  0  0  0  0  0  0  0  0  0  0
  -24.0640  -13.0930   20.9350 C   0  0  0  0  0  0  0  0  0  0  0  0
  -23.3800  -12.5710   21.9500 N   0  0  0  0  0  0  0  0  0  0  0  0
  -23.6720  -14.1080   20.3650 O   0  0  0  0  0  0  0  0  0  0  0  0
  -23.7070  -11.7530   22.4440 H   0  0  0  0  0  0  0  0  0  0  0  0
  -22.5230  -13.0120   22.2430 H   0  0  0  0  0  0  0  0  0  0  0  0
  -26.7120  -14.3570   19.6230 N   0  0  0  0  0  0  0  0  0  0  0  0
  -25.9610  -15.0380   19.6710 H   0  0  0  0  0  0  0  0  0  0  0  0
  -27.3670  -14.5460   18.8770 H   0  0  0  0  0  0  0  0  0  0  0  0
  -29.4930  -18.8410   16.2990 C   0  0  0  0  0  2  0  0  0  0  0  0
  -30.4210  -19.5790   15.3010 C   0  0  0  0  0  2  0  0  0  0  0  0
  -29.6070  -21.9610   16.0090 C   0  0  0  0  0  1  0  0  0  0  0  0
  -30.7680  -21.0970   15.4720 C   0  0  0  0  0  3  0  0  0  0  0  0
  -32.2530  -21.3860   15.9230 C   0  0  0  0  0  2  0  0  0  0  0  0
  -32.6550  -22.4710   16.9780 C   0  0  0  0  0  3  0  0  0  0  0  0
  -31.7380  -23.6970   17.0290 C   0  0  0  0  0  3  0  0  0  0  0  0
  -31.9430  -24.7570   17.9930 O   0  0  0  0  0  0  0  0  0  0  0  0
  -27.7880  -28.2430   22.7010 C   0  0  0  0  0  0  0  0  0  0  0  0
  -30.8160  -25.5410   18.2310 C   0  0  0  0  0  0  0  0  0  0  0  0
  -26.8520  -27.9010   20.4510 C   0  0  0  0  0  3  0  0  0  0  0  0
  -28.4880  -27.1040   18.6840 C   0  0  0  0  0  0  0  0  0  0  0  0
  -29.3860  -28.0590   20.7960 C   0  0  0  0  0  2  0  0  0  0  0  0
  -29.5490  -27.1440   19.5980 C   0  0  0  0  0  0  0  0  0  0  0  0
  -30.7120  -26.3600   19.3880 C   0  0  0  0  0  3  0  0  0  0  0  0
  -29.7220  -25.5500   17.3230 C   0  0  0  0  0  3  0  0  0  0  0  0
  -28.5660  -26.2960   17.5510 C   0  0  0  0  0  3  0  0  0  0  0  0
  -27.2860  -27.9660   18.9690 C   0  0  0  0  0  2  0  0  0  0  0  0
  -28.0200  -28.0510   21.3770 N   0  0  0  0  0  0  0  0  0  0  0  0
  -26.6370  -28.3260   23.1500 O   0  0  0  0  0  0  0  0  0  0  0  0
  -26.0440  -26.6030   20.6910 C   0  0  0  0  0  0  0  0  0  0  0  0
  -24.9860  -26.3930   19.8850 N   0  0  0  0  0  0  0  0  0  0  0  0
  -26.3760  -25.8070   21.5700 O   0  0  0  0  0  0  0  0  0  0  0  0
  -24.7650  -27.0920   19.1920 H   0  0  0  0  0  0  0  0  0  0  0  0
  -22.3730  -24.6660   18.0690 C   0  0  0  0  0  0  0  0  0  0  0  0
  -24.0970  -25.2320   19.9150 C   0  0  0  0  0  3  0  0  0  0  0  0
  -24.8330  -23.9470   19.4720 C   0  0  0  0  0  2  0  0  0  0  0  0
  -24.6840  -23.6840   17.9690 C   0  0  0  0  0  2  0  0  0  0  0  0
  -23.2080  -23.4820   17.6140 C   0  0  0  0  0  2  0  0  0  0  0  0
  -22.7910  -25.4910   19.1490 C   0  0  0  0  0  0  0  0  0  0  0  0
  -21.9760  -26.5790   19.5350 C   0  0  0  0  0  3  0  0  0  0  0  0
  -20.7690  -26.8460   18.8580 C   0  0  0  0  0  3  0  0  0  0  0  0
  -20.3560  -26.0170   17.8020 C   0  0  0  0  0  3  0  0  0  0  0  0
  -21.1550  -24.9280   17.4130 C   0  0  0  0  0  3  0  0  0  0  0  0
  -28.9620  -28.3970   23.7110 C   0  0  0  0  0  3  0  0  0  0  0  0
  -28.7770  -29.6770   24.4050 N   0  0  0  0  0  0  0  0  0  0  0  0
  -29.4200  -30.8090   24.0960 C   0  0  0  0  0  0  0  0  0  0  0  0
  -30.3000  -30.8650   23.2300 O   0  0  0  0  0  0  0  0  0  0  0  0
  -28.0340  -29.7200   25.0880 H   0  0  0  0  0  0  0  0  0  0  0  0
  -28.0900  -32.9440   24.0100 C   0  0  0  0  0  1  0  0  0  0  0  0
  -29.0290  -32.0830   24.8720 C   0  0  0  0  0  3  0  0  0  0  0  0
  -30.9740  -32.2600   26.3620 C   0  0  0  0  0  1  0  0  0  0  0  0
  -30.1900  -32.8920   25.3040 N   0  0  0  0  0  0  0  0  0  0  0  0
  -29.8890  -33.8070   25.6310 H   0  0  0  0  0  0  0  0  0  0  0  0
  -29.0480  -27.2080   24.7440 C   0  0  1  0  0  0  0  0  0  0  0  0
  -27.6970  -26.8730   25.4220 C   0  0  0  0  0  1  0  0  0  0  0  0
  -29.5700  -25.9250   24.0530 C   0  0  0  0  0  1  0  0  0  0  0  0
  -30.0640  -27.5550   25.8560 C   0  0  0  0  0  1  0  0  0  0  0  0
  1  4  1  0
  2  1  1  0
  3  5  1  0
  4 10  1  0
  5 11  1  0
  5  4  1  0
  6  3  1  0
  6  2  1  0
  6  7  1  6
  9 10  1  0
 10  8  1  0
 12 18  1  0
 13 18  1  0
 14 15  1  0
 14 13  1  0
 16 15  1  0
 16 25  1  0
 16 17  1  0
 18 17  1  0
 19 12  2  0
 20 12  1  0
 20 11  1  0
 21 20  1  0
 22 23  2  0
 23 24  1  0
 23 42  1  0
 24 27  1  0
 25 22  1  0
 25 26  1  0
 26 24  2  0
 27 28  1  0
 28 29  2  0
 30 33  1  0
 30 29  1  0
 31 30  2  0
 32 31  1  0
 32 27  2  0
 33 34  1  0
 34 35  2  0
 34 39  1  0
 35 36  1  0
 36 37  2  0
 37 41  1  0
 38 37  1  0
 39 38  2  0
 40 39  1  0
 42 43  1  0
 43 46  1  0
 43 45  1  0
 44 42  2  0
 47 48  1  0
 47 22  1  0
 49 47  1  0
 50  6  1  0
 51 53  1  0
 51 50  1  0
 53 54  1  0
 53 52  1  0
 54 55  1  0
 55 56  2  0
 56 57  1  0
 57 59  1  0
 58 69  2  0
 59 64  1  0
 60 70  1  0
 60 68  1  0
 61 67  1  0
 61 63  1  0
 62 68  1  0
 63 62  1  0
 64 63  2  0
 65 66  1  0
 65 59  2  0
 66 61  2  0
 67 60  1  0
 68 58  1  0
 70 72  2  0
 71 70  1  0
 73 71  1  0
 74 79  1  0
 75 71  1  0
 76 75  1  0
 77 76  1  0
 78 77  1  0
 78 74  1  0
 79 80  2  0
 79 75  1  0
 81 80  1  0
 82 81  2  0
 83 82  1  0
 83 74  2  0
 84 58  1  0
 84 85  1  0
 84 94  1  0
 85 88  1  0
 86 85  1  0
 86 90  1  0
 87 86  2  0
 90 89  1  0
 90 92  1  0
 92 93  1  0
 92 91  1  0
 94 95  1  1
 94 97  1  0
 96 94  1  0
M  ISO  4  12 100  20 100  56 101  57 101
M  END
>  <TORSDO>  (94) 
F 24

>  <SCORE>  (94) 
2.139

>  <name>  (94) 
93

>  <ligand_id>  (94) 
93

>  <original_smiles>  (94) 
[H]c1c([H])c([H])c2c(c1[H])C([H])([H])C([H])([H])C([H])([H])C2([H])N([H])C(=O)C1([H])N(C(=O)C([H])(N([H])C(=O)C([H])(N([H])C([H])([H])[H])C([H])([H])[H])C(C([H])([H])[H])(C([H])([H])[H])C([H])([H])[H])C([H])([H])c2c([H])c(OC([H])([H])C([H])([H])C([H])([H])C([H])(C([H])([H])[H])C([H])([H])C([H])([H])[N+]3([H])C([H])([H])C([H])([H])C([H])(C([H])(C([H])([H])[H])C([H])([H])[H])C([H])(C([H])([H])N([H])C(=O)N4C([H])([H])C([H])([H])C([H])([H])C([H])(n5nc(-c6c([H])c([H])c(Oc7c([H])c([H])c(F)c([H])c7F)c([H])c6[H])c(C(=O)N([H])[H])c5N([H])[H])C4([H])[H])C3([H])[H])c([H])c([H])c2C1([H])[H]

>  <smiles>  (94) 
[H]c1c([H])c([H])c2c(c1[H])C([H])([H])C([H])([H])C([H])([H])C2([H])N([H])C(=O)C1([H])N(C(=O)C([H])(N([H])C(=O)C([H])(N([H])C([H])([H])[H])C([H])([H])[H])C(C([H])([H])[H])(C([H])([H])[H])C([H])([H])[H])C([H])([H])c2c([H])c(OC([H])([H])C([H])([H])C([H])([H])C([H])(C([H])([H])[H])C([H])([H])C([H])([H])[N+]3([H])C([H])([H])C([H])([H])C([H])(C([H])(C([H])([H])[H])C([H])([H])[H])C([H])(C([H])([H])N([H])C(=O)N4C([H])([H])C([H])([H])C([H])([H])C([H])(n5nc(-c6c([H])c([H])c(Oc7c([H])c([H])c(F)c([H])c7F)c([H])c6[H])c(C(=O)N([H])[H])c5N([H])[H])C4([H])[H])C3([H])[H])c([H])c([H])c2C1([H])[H]

$$$$
94:0:0
     RDKit          3D

100108  0  0  1  0  0  0  0  0999 V2000
  -30.9630  -17.9910   20.3500 C   0  0  0  0  0  0  0  0  0  0  0  0
  -31.4840  -15.4030   20.5000 C   0  0  0  0  0  0  0  0  0  0  0  0
  -31.2030  -13.3070   19.1890 C   0  0  0  0  0  2  0  0  0  0  0  0
  -30.2560  -13.5930   18.0040 C   0  0  0  0  0  2  0  0  0  0  0  0
  -28.7830  -13.4160   18.4270 C   0  0  0  0  0  2  0  0  0  0  0  0
  -28.4540  -14.1020   19.7820 C   0  0  0  0  0  3  0  0  0  0  0  0
  -29.5290  -13.8150   20.8560 C   0  0  0  0  0  2  0  0  0  0  0  0
  -30.8260  -14.2120   20.2970 N   0  0  0  0  0  0  0  0  0  0  0  0
  -32.6750  -15.5080   20.1980 O   0  0  0  0  0  0  0  0  0  0  0  0
  -30.7190  -16.5290   20.7660 N   0  0  0  0  0  4  0  0  0  0  0  0
  -29.7710  -16.3260   21.0430 H   0  0  0  0  0  0  0  0  0  0  0  0
  -26.0420  -14.6260   20.4960 C   0  0  0  0  0  0  0  0  0  0  0  0
  -24.9870  -13.8200   20.8180 C   0  0  0  0  0  0  0  0  0  0  0  0
  -25.4780  -12.4830   20.7490 C   0  0  0  0  0  0  0  0  0  0  0  0
  -27.1090  -13.7760   20.2430 N   0  0  0  0  0  0  0  0  0  0  0  0
  -26.7740  -12.4790   20.4600 N   0  0  0  0  0  0  0  0  0  0  0  0
  -24.7750  -11.2040   20.8790 C   0  0  0  0  0  0  0  0  0  0  0  0
  -25.1230  -10.2710   21.8790 C   0  0  0  0  0  3  0  0  0  0  0  0
  -24.4160   -9.0540   21.9960 C   0  0  0  0  0  3  0  0  0  0  0  0
  -23.3510   -8.7640   21.1110 C   0  0  0  0  0  0  0  0  0  0  0  0
  -23.0280   -9.6860   20.1010 C   0  0  0  0  0  3  0  0  0  0  0  0
  -23.7350  -10.8930   19.9810 C   0  0  0  0  0  3  0  0  0  0  0  0
  -22.6260   -7.5990   21.1330 O   0  0  0  0  0  0  0  0  0  0  0  0
  -22.3300   -6.9600   22.3110 C   0  0  0  0  0  0  0  0  0  0  0  0
  -21.6300   -7.6040   23.3530 C   0  0  0  0  0  3  0  0  0  0  0  0
  -21.2830   -6.8860   24.5160 C   0  0  0  0  0  3  0  0  0  0  0  0
  -21.6280   -5.5260   24.6330 C   0  0  0  0  0  0  0  0  0  0  0  0
  -22.3290   -4.8850   23.5960 C   0  0  0  0  0  3  0  0  0  0  0  0
  -22.6720   -5.5990   22.4350 C   0  0  0  0  0  0  0  0  0  0  0  0
  -23.3230   -4.9690   21.4280 F   0  0  0  0  0  0  0  0  0  0  0  0
  -21.2920   -4.8340   25.7470 F   0  0  0  0  0  0  0  0  0  0  0  0
  -23.5770  -14.2630   21.0750 C   0  0  0  0  0  0  0  0  0  0  0  0
  -22.8810  -13.5870   21.9830 N   0  0  0  0  0  0  0  0  0  0  0  0
  -23.1010  -15.2480   20.5090 O   0  0  0  0  0  0  0  0  0  0  0  0
  -23.2810  -12.7950   22.4640 H   0  0  0  0  0  0  0  0  0  0  0  0
  -21.9350  -13.8680   22.2010 H   0  0  0  0  0  0  0  0  0  0  0  0
  -26.1610  -16.0030   20.3770 N   0  0  0  0  0  0  0  0  0  0  0  0
  -25.3460  -16.5950   20.4770 H   0  0  0  0  0  0  0  0  0  0  0  0
  -26.9650  -16.5000   20.0210 H   0  0  0  0  0  0  0  0  0  0  0  0
  -27.6030  -18.2950   18.3060 C   0  0  0  0  0  2  0  0  0  0  0  0
  -28.6620  -17.6350   19.1940 C   0  0  0  0  0  2  0  0  0  0  0  0
  -30.5010  -18.6210   17.8420 C   0  0  0  0  0  2  0  0  0  0  0  0
  -28.1220  -18.4990   16.8750 C   0  0  0  0  0  3  0  0  0  0  0  0
  -29.9380  -18.4890   19.2790 C   0  0  0  0  0  3  0  0  0  0  0  0
  -29.4680  -19.2700   16.8760 C   0  0  0  0  0  3  0  0  0  0  0  0
  -30.0020  -19.3910   15.5040 N   0  0  0  0  0  4  0  0  0  0  0  0
  -30.1750  -18.4890   15.0950 H   0  0  0  0  0  0  0  0  0  0  0  0
  -30.8510  -19.9260   15.4930 H   0  0  0  0  0  0  0  0  0  0  0  0
  -29.3350  -19.8670   14.9210 H   0  0  0  0  0  0  0  0  0  0  0  0
  -26.3300  -18.6470   15.0780 C   0  0  0  0  0  2  0  0  0  0  0  0
  -27.0670  -19.2140   16.0460 C   0  0  0  0  0  3  0  0  0  0  0  0
  -31.3170  -19.1530   21.4320 C   0  0  0  0  0  2  0  0  0  0  0  0
  -30.4300  -20.4470   21.7430 C   0  0  0  0  0  0  0  0  0  0  0  0
  -30.6050  -21.6480   21.0850 N   0  0  0  0  0  0  0  0  0  0  0  0
  -29.6160  -20.3850   22.6660 O   0  0  0  0  0  0  0  0  0  0  0  0
  -31.3420  -21.6770   20.3910 H   0  0  0  0  0  0  0  0  0  0  0  0
  -29.7350  -22.8920   21.1870 C   0  0  0  0  0  2  0  0  0  0  0  0
  -30.1940  -24.2990   20.5540 C   0  0  0  0  0  2  0  0  0  0  0  0
  -28.9980  -25.2720   20.0950 C   0  0  0  0  0  2  0  0  0  0  0  0
  -29.1080  -26.7620   20.0070 O   0  0  0  0  0  0  0  0  0  0  0  0
  -24.8400  -31.7810   23.0450 C   0  0  0  0  0  0  0  0  0  0  0  0
  -27.9160  -27.5220   19.9530 C   0  0  0  0  0  0  0  0  0  0  0  0
  -23.7980  -30.3000   21.3700 C   0  0  0  0  0  3  0  0  0  0  0  0
  -25.4080  -28.9220   19.9400 C   0  0  0  0  0  0  0  0  0  0  0  0
  -26.2940  -30.8630   21.2220 C   0  0  0  0  0  2  0  0  0  0  0  0
  -26.5180  -29.5050   20.5580 C   0  0  0  0  0  0  0  0  0  0  0  0
  -27.7760  -28.8150   20.5570 C   0  0  0  0  0  3  0  0  0  0  0  0
  -26.7680  -27.0010   19.3100 C   0  0  0  0  0  3  0  0  0  0  0  0
  -25.5340  -27.6750   19.3120 C   0  0  0  0  0  3  0  0  0  0  0  0
  -24.0940  -29.6730   19.9810 C   0  0  0  0  0  2  0  0  0  0  0  0
  -24.9950  -30.9990   21.9390 N   0  0  0  0  0  0  0  0  0  0  0  0
  -23.7290  -31.9480   23.5700 O   0  0  0  0  0  0  0  0  0  0  0  0
  -23.2180  -29.2090   22.3050 C   0  0  0  0  0  0  0  0  0  0  0  0
  -21.9220  -28.8930   22.1340 N   0  0  0  0  0  0  0  0  0  0  0  0
  -23.9350  -28.6510   23.1410 O   0  0  0  0  0  0  0  0  0  0  0  0
  -21.3990  -29.4030   21.4380 H   0  0  0  0  0  0  0  0  0  0  0  0
  -18.6410  -27.4730   22.6650 C   0  0  0  0  0  0  0  0  0  0  0  0
  -21.1850  -27.8710   22.8770 C   0  0  0  0  0  3  0  0  0  0  0  0
  -21.3550  -26.4790   22.2240 C   0  0  0  0  0  2  0  0  0  0  0  0
  -20.2440  -26.1430   21.2240 C   0  0  0  0  0  2  0  0  0  0  0  0
  -18.8770  -26.1730   21.9150 C   0  0  0  0  0  2  0  0  0  0  0  0
  -19.7240  -28.2790   23.1030 C   0  0  0  0  0  0  0  0  0  0  0  0
  -19.4520  -29.4950   23.7650 C   0  0  0  0  0  3  0  0  0  0  0  0
  -18.1270  -29.9030   24.0020 C   0  0  0  0  0  3  0  0  0  0  0  0
  -17.0570  -29.0930   23.5800 C   0  0  0  0  0  3  0  0  0  0  0  0
  -17.3150  -27.8830   22.9120 C   0  0  0  0  0  3  0  0  0  0  0  0
  -26.0500  -32.5180   23.6950 C   0  0  0  0  0  3  0  0  0  0  0  0
  -26.6590  -31.7450   24.9290 C   0  0  1  0  0  0  0  0  0  0  0  0
  -25.5900  -31.2000   25.9050 C   0  0  0  0  0  1  0  0  0  0  0  0
  -27.5200  -30.5540   24.4520 C   0  0  0  0  0  1  0  0  0  0  0  0
  -27.6100  -32.6820   25.7130 C   0  0  0  0  0  1  0  0  0  0  0  0
  -25.5940  -33.8540   24.0980 N   0  0  0  0  0  0  0  0  0  0  0  0
  -25.7790  -34.9680   23.3780 C   0  0  0  0  0  0  0  0  0  0  0  0
  -26.4200  -34.9850   22.3250 O   0  0  0  0  0  0  0  0  0  0  0  0
  -25.0060  -33.9040   24.9180 H   0  0  0  0  0  0  0  0  0  0  0  0
  -23.8350  -36.5500   23.1650 C   0  0  0  0  0  1  0  0  0  0  0  0
  -25.1470  -36.2670   23.9100 C   0  0  0  0  0  3  0  0  0  0  0  0
  -27.1970  -37.3730   24.6980 C   0  0  0  0  0  1  0  0  0  0  0  0
  -26.0390  -37.4420   23.8070 N   0  0  0  0  0  0  0  0  0  0  0  0
  -25.5310  -38.2980   24.0150 H   0  0  0  0  0  0  0  0  0  0  0  0
  1 10  2  3
  1 52  1  0
  2 10  1  0
  3  8  1  0
  4  5  1  0
  4  3  1  0
  6  5  1  0
  6 15  1  0
  6  7  1  0
  8  2  1  0
  8  7  1  0
  9  2  2  0
 10 11  1  0
 12 13  2  0
 13 32  1  0
 14 13  1  0
 14 17  1  0
 15 16  1  0
 15 12  1  0
 16 14  2  0
 17 18  1  0
 18 19  2  0
 20 23  1  0
 20 19  1  0
 21 20  2  0
 22 21  1  0
 22 17  2  0
 23 24  1  0
 24 29  2  0
 24 25  1  0
 25 26  2  0
 26 27  1  0
 27 31  1  0
 28 27  2  0
 29 28  1  0
 30 29  1  0
 32 33  1  0
 33 36  1  0
 33 35  1  0
 34 32  2  0
 37 38  1  0
 37 12  1  0
 39 37  1  0
 40 41  1  0
 41 44  1  0
 42 44  1  0
 43 51  1  0
 43 45  1  0
 43 40  1  0
 44  1  1  0
 45 46  1  0
 45 42  1  0
 47 46  1  0
 48 46  1  0
 49 46  1  0
 50 51  2  0
 52 53  1  0
 53 55  2  0
 54 57  1  0
 54 53  1  0
 56 54  1  0
 58 57  1  0
 59 58  1  0
 60 59  1  0
 61 72  2  0
 62 60  1  0
 62 67  1  0
 63 71  1  0
 63 73  1  0
 64 70  1  0
 64 66  1  0
 65 71  1  0
 66 65  1  0
 67 66  2  0
 68 69  1  0
 68 62  2  0
 69 64  2  0
 70 63  1  0
 71 61  1  0
 73 75  2  0
 74 73  1  0
 76 74  1  0
 77 86  2  0
 77 82  1  0
 78 74  1  0
 78 82  1  0
 79 78  1  0
 80 81  1  0
 80 79  1  0
 81 77  1  0
 82 83  2  0
 83 84  1  0
 85 84  2  0
 86 85  1  0
 87 61  1  0
 87 92  1  0
 87 88  1  0
 88 91  1  1
 88 89  1  0
 90 88  1  0
 92 95  1  0
 93 97  1  0
 93 92  1  0
 94 93  2  0
 97 96  1  0
 99 97  1  0
 99100  1  0
 99 98  1  0
M  ISO  4   2 100  10 100  59 101  60 101
M  END
>  <TORSDO>  (95) 
F 24

>  <SCORE>  (95) 
-8.351

>  <name>  (95) 
94

>  <ligand_id>  (95) 
94

>  <original_smiles>  (95) 
[H]C([H])=C([H])C1([H])C([H])([H])C([H])([H])C([H])(C([H])(N([H])C(=O)N2C([H])([H])C([H])([H])C([H])([H])C([H])(n3nc(-c4c([H])c([H])c(Oc5c([H])c([H])c(F)c([H])c5F)c([H])c4[H])c(C(=O)N([H])[H])c3N([H])[H])C2([H])[H])C([H])([H])C(=O)N([H])C([H])([H])C([H])([H])C([H])([H])Oc2c([H])c([H])c3c(c2[H])C([H])([H])N(C(=O)C([H])(N([H])C(=O)C([H])(N([H])C([H])([H])[H])C([H])([H])[H])C(C([H])([H])[H])(C([H])([H])[H])C([H])([H])[H])C([H])(C(=O)N([H])C2([H])c4c([H])c([H])c([H])c([H])c4C([H])([H])C([H])([H])C2([H])[H])C3([H])[H])C([H])([H])C1([H])[N+]([H])([H])[H]

>  <smiles>  (95) 
[H]C([H])=C([H])C1([H])C([H])([H])C([H])([H])C([H])(C([H])(N([H])C(=O)N2C([H])([H])C([H])([H])C([H])([H])C([H])(n3nc(-c4c([H])c([H])c(Oc5c([H])c([H])c(F)c([H])c5F)c([H])c4[H])c(C(=O)N([H])[H])c3N([H])[H])C2([H])[H])C([H])([H])C(=O)N([H])C([H])([H])C([H])([H])C([H])([H])Oc2c([H])c([H])c3c(c2[H])C([H])([H])N(C(=O)C([H])(N([H])C(=O)C([H])(N([H])C([H])([H])[H])C([H])([H])[H])C(C([H])([H])[H])(C([H])([H])[H])C([H])([H])[H])C([H])(C(=O)N([H])C2([H])c4c([H])c([H])c([H])c([H])c4C([H])([H])C([H])([H])C2([H])[H])C3([H])[H])C([H])([H])C1([H])[N+]([H])([H])[H]

$$$$
95:0:0
     RDKit          3D

 93101  0  0  1  0  0  0  0  0999 V2000
  -29.2230  -22.8330   22.3300 C   0  0  0  0  0  0  0  0  0  0  0  0
  -29.2320  -24.1750   22.2750 N   0  0  0  0  0  0  0  0  0  0  0  0
  -29.5060  -22.2640   23.3820 O   0  0  0  0  0  0  0  0  0  0  0  0
  -29.4510  -24.6650   23.1330 H   0  0  0  0  0  0  0  0  0  0  0  0
  -27.3560  -21.5760   21.1480 C   0  0  0  0  0  1  0  0  0  0  0  0
  -28.8290  -22.0040   21.0830 C   0  0  0  0  0  3  0  0  0  0  0  0
  -29.7890  -20.8300   20.7600 C   0  0  0  0  0  2  0  0  0  0  0  0
  -30.1420  -19.8180   21.8820 C   0  0  0  0  0  2  0  0  0  0  0  0
  -30.9600  -16.8300   19.5770 C   0  0  0  0  0  3  0  0  0  0  0  0
  -31.2440  -16.1210   21.8860 C   0  0  0  0  0  3  0  0  0  0  0  0
  -30.5700  -18.1080   20.0050 C   0  0  0  0  0  3  0  0  0  0  0  0
  -30.8540  -17.4110   22.3190 C   0  0  0  0  0  3  0  0  0  0  0  0
  -31.3060  -15.8310   20.5040 C   0  0  0  0  0  0  0  0  0  0  0  0
  -30.5220  -18.4200   21.3840 C   0  0  0  0  0  0  0  0  0  0  0  0
  -31.8490  -14.5380   19.9670 C   0  0  0  0  0  0  0  0  0  0  0  0
  -31.2990  -12.3860   18.9280 C   0  0  0  0  0  2  0  0  0  0  0  0
  -30.3520  -12.6460   17.7380 C   0  0  0  0  0  2  0  0  0  0  0  0
  -28.8870  -12.6460   18.2120 C   0  0  0  0  0  2  0  0  0  0  0  0
  -28.6610  -13.5650   19.4430 C   0  0  0  0  0  3  0  0  0  0  0  0
  -29.7230  -13.3100   20.5350 C   0  0  0  0  0  2  0  0  0  0  0  0
  -31.0560  -13.4360   19.9280 N   0  0  0  0  0  0  0  0  0  0  0  0
  -32.9470  -14.5960   19.4060 O   0  0  0  0  0  0  0  0  0  0  0  0
  -26.3790  -14.4070   20.2890 C   0  0  0  0  0  0  0  0  0  0  0  0
  -25.2450  -13.7410   20.6760 C   0  0  0  0  0  0  0  0  0  0  0  0
  -25.5490  -12.3490   20.5710 C   0  0  0  0  0  0  0  0  0  0  0  0
  -27.3050  -13.4250   19.9730 N   0  0  0  0  0  0  0  0  0  0  0  0
  -26.8110  -12.1810   20.1970 N   0  0  0  0  0  0  0  0  0  0  0  0
  -24.6930  -11.1680   20.7490 C   0  0  0  0  0  0  0  0  0  0  0  0
  -25.0270  -10.1450   21.6650 C   0  0  0  0  0  3  0  0  0  0  0  0
  -24.1780   -9.0290   21.8290 C   0  0  0  0  0  3  0  0  0  0  0  0
  -22.9830   -8.9290   21.0780 C   0  0  0  0  0  0  0  0  0  0  0  0
  -22.6690   -9.9370   20.1500 C   0  0  0  0  0  3  0  0  0  0  0  0
  -23.5170  -11.0440   19.9830 C   0  0  0  0  0  3  0  0  0  0  0  0
  -22.1110   -7.8700   21.1540 O   0  0  0  0  0  0  0  0  0  0  0  0
  -21.9190   -7.1770   22.3220 C   0  0  0  0  0  0  0  0  0  0  0  0
  -21.5130   -7.8210   23.5120 C   0  0  0  0  0  3  0  0  0  0  0  0
  -21.2600   -7.0630   24.6710 C   0  0  0  0  0  3  0  0  0  0  0  0
  -21.4020   -5.6620   24.6450 C   0  0  0  0  0  0  0  0  0  0  0  0
  -21.8020   -5.0190   23.4600 C   0  0  0  0  0  3  0  0  0  0  0  0
  -22.0570   -5.7750   22.3020 C   0  0  0  0  0  0  0  0  0  0  0  0
  -22.4200   -5.1470   21.1580 F   0  0  0  0  0  0  0  0  0  0  0  0
  -21.1510   -4.9330   25.7560 F   0  0  0  0  0  0  0  0  0  0  0  0
  -23.9260  -14.3590   21.0370 C   0  0  0  0  0  0  0  0  0  0  0  0
  -23.1890  -13.7390   21.9540 N   0  0  0  0  0  0  0  0  0  0  0  0
  -23.5600  -15.4240   20.5420 O   0  0  0  0  0  0  0  0  0  0  0  0
  -23.4940  -12.8730   22.3750 H   0  0  0  0  0  0  0  0  0  0  0  0
  -22.3060  -14.1380   22.2410 H   0  0  0  0  0  0  0  0  0  0  0  0
  -26.6960  -15.7550   20.1620 N   0  0  0  0  0  0  0  0  0  0  0  0
  -26.0340  -16.4950   20.3640 H   0  0  0  0  0  0  0  0  0  0  0  0
  -27.6120  -16.1020   19.9020 H   0  0  0  0  0  0  0  0  0  0  0  0
  -28.9610  -25.0130   21.1090 C   0  0  0  0  0  2  0  0  0  0  0  0
  -29.3680  -26.4790   21.3350 C   0  0  0  0  0  2  0  0  0  0  0  0
  -29.0520  -27.2330   20.1670 O   0  0  0  0  0  0  0  0  0  0  0  0
  -24.7970  -31.9520   23.3800 C   0  0  0  0  0  0  0  0  0  0  0  0
  -27.8430  -27.8750   20.2030 C   0  0  0  0  0  0  0  0  0  0  0  0
  -23.7700  -30.5760   21.6200 C   0  0  0  0  0  3  0  0  0  0  0  0
  -25.3590  -29.2040   20.1780 C   0  0  0  0  0  0  0  0  0  0  0  0
  -26.2570  -31.0990   21.5460 C   0  0  0  0  0  2  0  0  0  0  0  0
  -26.4490  -29.7690   20.8510 C   0  0  0  0  0  0  0  0  0  0  0  0
  -27.6910  -29.1070   20.8730 C   0  0  0  0  0  3  0  0  0  0  0  0
  -26.7440  -27.3170   19.5190 C   0  0  0  0  0  3  0  0  0  0  0  0
  -25.4960  -27.9700   19.5140 C   0  0  0  0  0  3  0  0  0  0  0  0
  -24.0640  -29.9800   20.2140 C   0  0  0  0  0  2  0  0  0  0  0  0
  -24.9580  -31.2210   22.2420 N   0  0  0  0  0  0  0  0  0  0  0  0
  -23.6750  -32.1280   23.8760 O   0  0  0  0  0  0  0  0  0  0  0  0
  -23.1440  -29.4740   22.4990 C   0  0  0  0  0  0  0  0  0  0  0  0
  -21.8370  -29.3490   22.3080 N   0  0  0  0  0  0  0  0  0  0  0  0
  -23.8090  -28.7660   23.2560 O   0  0  0  0  0  0  0  0  0  0  0  0
  -21.4370  -30.0590   21.7110 H   0  0  0  0  0  0  0  0  0  0  0  0
  -18.4560  -27.7920   22.6230 C   0  0  0  0  0  0  0  0  0  0  0  0
  -20.9170  -28.2810   22.6000 C   0  0  0  0  0  3  0  0  0  0  0  0
  -21.2240  -26.8220   22.2440 C   0  0  0  0  0  2  0  0  0  0  0  0
  -20.1290  -26.3200   21.2770 C   0  0  0  0  0  2  0  0  0  0  0  0
  -18.7080  -26.4900   21.8580 C   0  0  0  0  0  2  0  0  0  0  0  0
  -19.5220  -28.6030   23.0790 C   0  0  0  0  0  0  0  0  0  0  0  0
  -19.2590  -29.7910   23.7890 C   0  0  0  0  0  3  0  0  0  0  0  0
  -17.9320  -30.2020   24.0030 C   0  0  0  0  0  3  0  0  0  0  0  0
  -16.8680  -29.4150   23.5250 C   0  0  0  0  0  3  0  0  0  0  0  0
  -17.1310  -28.2070   22.8540 C   0  0  0  0  0  3  0  0  0  0  0  0
  -26.0090  -32.6190   24.0950 C   0  0  0  0  0  3  0  0  0  0  0  0
  -25.6420  -34.0140   24.3700 N   0  0  0  0  0  0  0  0  0  0  0  0
  -26.0020  -35.0550   23.6090 C   0  0  0  0  0  0  0  0  0  0  0  0
  -26.7500  -34.9450   22.6330 O   0  0  0  0  0  0  0  0  0  0  0  0
  -24.9890  -34.1700   25.1240 H   0  0  0  0  0  0  0  0  0  0  0  0
  -24.2590  -36.7900   23.0840 C   0  0  0  0  0  1  0  0  0  0  0  0
  -25.4460  -36.4390   23.9950 C   0  0  0  0  0  3  0  0  0  0  0  0
  -27.4980  -37.3930   24.9490 C   0  0  0  0  0  1  0  0  0  0  0  0
  -26.4580  -37.5160   23.9310 N   0  0  0  0  0  0  0  0  0  0  0  0
  -26.0200  -38.4280   24.0330 H   0  0  0  0  0  0  0  0  0  0  0  0
  -26.4280  -31.8760   25.4210 C   0  0  1  0  0  0  0  0  0  0  0  0
  -25.2470  -31.5970   26.3810 C   0  0  0  0  0  1  0  0  0  0  0  0
  -27.1010  -30.5220   25.0930 C   0  0  0  0  0  1  0  0  0  0  0  0
  -27.4740  -32.7210   26.1830 C   0  0  0  0  0  1  0  0  0  0  0  0
  1  3  2  0
  2  1  1  0
  2  4  1  0
  6  5  1  0
  6  1  1  0
  7  6  1  0
  7  8  1  0
  9 11  2  0
  9 13  1  0
 10 12  1  0
 11 14  1  0
 13 10  2  0
 14  8  1  0
 14 12  2  0
 15 13  1  0
 16 21  1  0
 17 18  1  0
 17 16  1  0
 19 18  1  0
 19 26  1  0
 19 20  1  0
 21 15  1  0
 21 20  1  0
 22 15  2  0
 23 24  2  0
 24 43  1  0
 25 24  1  0
 25 28  1  0
 26 27  1  0
 26 23  1  0
 27 25  2  0
 28 29  1  0
 29 30  2  0
 31 34  1  0
 31 30  1  0
 32 31  2  0
 33 32  1  0
 33 28  2  0
 34 35  1  0
 35 36  1  0
 36 37  2  0
 38 37  1  0
 38 42  1  0
 39 38  2  0
 40 35  2  0
 40 39  1  0
 41 40  1  0
 43 44  1  0
 44 47  1  0
 44 46  1  0
 45 43  2  0
 48 23  1  0
 48 49  1  0
 50 48  1  0
 51 52  1  0
 51  2  1  0
 53 55  1  0
 53 52  1  0
 54 65  2  0
 55 60  1  0
 56 64  1  0
 56 66  1  0
 57 63  1  0
 57 59  1  0
 58 64  1  0
 59 60  2  0
 59 58  1  0
 61 55  2  0
 62 61  1  0
 62 57  2  0
 63 56  1  0
 64 54  1  0
 66 68  2  0
 67 66  1  0
 69 67  1  0
 70 79  2  0
 70 75  1  0
 71 67  1  0
 71 75  1  0
 72 71  1  0
 73 74  1  0
 73 72  1  0
 74 70  1  0
 75 76  2  0
 76 77  1  0
 78 77  2  0
 79 78  1  0
 80 54  1  0
 80 81  1  0
 80 90  1  0
 81 84  1  0
 82 86  1  0
 82 81  1  0
 83 82  2  0
 86 85  1  0
 88 86  1  0
 88 89  1  0
 88 87  1  0
 90 93  1  1
 90 91  1  0
 92 90  1  0
M  ISO  4  13 100  15 100  52 101  53 101
M  END
>  <TORSDO>  (96) 
F 22

>  <SCORE>  (96) 
-11.081

>  <name>  (96) 
95

>  <ligand_id>  (96) 
95

>  <original_smiles>  (96) 
[H]c1c([H])c([H])c2c(c1[H])C([H])([H])C([H])([H])C([H])([H])C2([H])N([H])C(=O)C1([H])N(C(=O)C([H])(N([H])C(=O)C([H])(N([H])C([H])([H])[H])C([H])([H])[H])C(C([H])([H])[H])(C([H])([H])[H])C([H])([H])[H])C([H])([H])c2c([H])c(OC([H])([H])C([H])([H])N([H])C(=O)C([H])(C([H])([H])[H])C([H])([H])C([H])([H])c3c([H])c([H])c(C(=O)N4C([H])([H])C([H])([H])C([H])([H])C([H])(n5nc(-c6c([H])c([H])c(Oc7c([H])c([H])c(F)c([H])c7F)c([H])c6[H])c(C(=O)N([H])[H])c5N([H])[H])C4([H])[H])c([H])c3[H])c([H])c([H])c2C1([H])[H]

>  <smiles>  (96) 
[H]c1c([H])c([H])c2c(c1[H])C([H])([H])C([H])([H])C([H])([H])C2([H])N([H])C(=O)C1([H])N(C(=O)C([H])(N([H])C(=O)C([H])(N([H])C([H])([H])[H])C([H])([H])[H])C(C([H])([H])[H])(C([H])([H])[H])C([H])([H])[H])C([H])([H])c2c([H])c(OC([H])([H])C([H])([H])N([H])C(=O)C([H])(C([H])([H])[H])C([H])([H])C([H])([H])c3c([H])c([H])c(C(=O)N4C([H])([H])C([H])([H])C([H])([H])C([H])(n5nc(-c6c([H])c([H])c(Oc7c([H])c([H])c(F)c([H])c7F)c([H])c6[H])c(C(=O)N([H])[H])c5N([H])[H])C4([H])[H])c([H])c3[H])c([H])c([H])c2C1([H])[H]

$$$$
97:0:0
     RDKit          3D

 87 94  0  0  1  0  0  0  0  0999 V2000
  -28.5360  -21.7890   20.2570 C   0  0  0  0  0  0  0  0  0  0  0  0
  -29.3510  -20.6330   20.4470 N   0  0  0  0  0  0  0  0  0  0  0  0
  -27.3550  -21.5930   19.9680 O   0  0  0  0  0  0  0  0  0  0  0  0
  -30.3170  -20.8380   20.6750 H   0  0  0  0  0  0  0  0  0  0  0  0
  -28.9820  -23.3870   20.3930 C   0  0  0  0  0  3  0  0  0  0  0  0
  -27.9680  -24.7180   20.1040 C   0  0  0  0  0  3  0  0  0  0  0  0
  -28.2450  -26.2490   20.2930 O   0  0  0  0  0  0  0  0  0  0  0  0
  -24.6260  -31.9510   23.2800 C   0  0  0  0  0  0  0  0  0  0  0  0
  -27.1910  -27.2390   20.2290 C   0  0  0  0  0  0  0  0  0  0  0  0
  -23.4220  -30.5630   21.6390 C   0  0  0  0  0  3  0  0  0  0  0  0
  -24.8660  -28.9920   20.2050 C   0  0  0  0  0  0  0  0  0  0  0  0
  -25.9760  -30.8240   21.4710 C   0  0  0  0  0  2  0  0  0  0  0  0
  -26.0480  -29.4350   20.8130 C   0  0  0  0  0  0  0  0  0  0  0  0
  -27.2120  -28.5740   20.8060 C   0  0  0  0  0  3  0  0  0  0  0  0
  -25.9820  -26.9010   19.5820 C   0  0  0  0  0  3  0  0  0  0  0  0
  -24.8460  -27.7400   19.5730 C   0  0  0  0  0  3  0  0  0  0  0  0
  -23.6410  -29.8910   20.2560 C   0  0  0  0  0  2  0  0  0  0  0  0
  -24.6950  -31.1340   22.1850 N   0  0  0  0  0  0  0  0  0  0  0  0
  -23.5400  -32.2350   23.8110 O   0  0  0  0  0  0  0  0  0  0  0  0
  -22.7440  -29.5530   22.5980 C   0  0  0  0  0  0  0  0  0  0  0  0
  -21.4170  -29.3740   22.4640 N   0  0  0  0  0  0  0  0  0  0  0  0
  -23.4130  -28.9330   23.4280 O   0  0  0  0  0  0  0  0  0  0  0  0
  -20.9320  -29.9260   21.7690 H   0  0  0  0  0  0  0  0  0  0  0  0
  -18.0360  -28.1720   22.9650 C   0  0  0  0  0  0  0  0  0  0  0  0
  -20.5950  -28.4350   23.2320 C   0  0  0  0  0  3  0  0  0  0  0  0
  -20.6970  -27.0040   22.6520 C   0  0  0  0  0  2  0  0  0  0  0  0
  -19.5950  -26.6840   21.6370 C   0  0  0  0  0  2  0  0  0  0  0  0
  -18.2140  -26.8260   22.2820 C   0  0  0  0  0  2  0  0  0  0  0  0
  -19.1540  -28.9340   23.3960 C   0  0  0  0  0  0  0  0  0  0  0  0
  -18.9330  -30.1930   23.9960 C   0  0  0  0  0  3  0  0  0  0  0  0
  -17.6280  -30.6890   24.1670 C   0  0  0  0  0  3  0  0  0  0  0  0
  -16.5240  -29.9250   23.7500 C   0  0  0  0  0  3  0  0  0  0  0  0
  -16.7290  -28.6670   23.1550 C   0  0  0  0  0  3  0  0  0  0  0  0
  -25.9060  -32.5840   23.9080 C   0  0  0  0  0  3  0  0  0  0  0  0
  -26.4080  -31.8180   25.1940 C   0  0  1  0  0  0  0  0  0  0  0  0
  -25.3040  -31.5850   26.2510 C   0  0  0  0  0  1  0  0  0  0  0  0
  -26.9960  -30.4390   24.8180 C   0  0  0  0  0  1  0  0  0  0  0  0
  -27.5510  -32.6160   25.8640 C   0  0  0  0  0  1  0  0  0  0  0  0
  -25.5990  -33.9850   24.2350 N   0  0  0  0  0  0  0  0  0  0  0  0
  -25.9050  -35.0350   23.4620 C   0  0  0  0  0  0  0  0  0  0  0  0
  -26.5440  -34.9260   22.4120 O   0  0  0  0  0  0  0  0  0  0  0  0
  -25.0270  -34.1430   25.0520 H   0  0  0  0  0  0  0  0  0  0  0  0
  -24.1580  -36.8220   23.1620 C   0  0  0  0  0  1  0  0  0  0  0  0
  -25.4320  -36.4280   23.9270 C   0  0  0  0  0  3  0  0  0  0  0  0
  -27.5850  -37.3400   24.6780 C   0  0  0  0  0  1  0  0  0  0  0  0
  -26.4550  -37.4830   23.7630 N   0  0  0  0  0  0  0  0  0  0  0  0
  -26.0480  -38.4040   23.9030 H   0  0  0  0  0  0  0  0  0  0  0  0
  -29.0040  -19.0830   20.4080 C   0  0  0  0  0  3  0  0  0  0  0  0
  -30.1100  -17.8050   20.4950 C   0  0  0  0  0  3  0  0  0  0  0  0
  -30.5060  -15.0730   20.3590 C   0  0  0  0  0  0  0  0  0  0  0  0
  -30.3760  -12.7400   19.3720 C   0  0  0  0  0  2  0  0  0  0  0  0
  -29.4320  -12.7170   18.1480 C   0  0  0  0  0  2  0  0  0  0  0  0
  -27.9730  -12.4950   18.5910 C   0  0  0  0  0  2  0  0  0  0  0  0
  -27.5760  -13.3950   19.7900 C   0  0  0  0  0  3  0  0  0  0  0  0
  -28.6420  -13.3900   20.9060 C   0  0  0  0  0  2  0  0  0  0  0  0
  -29.9040  -13.8170   20.2900 N   0  0  0  0  0  0  0  0  0  0  0  0
  -31.7060  -15.1380   20.0720 O   0  0  0  0  0  0  0  0  0  0  0  0
  -29.7400  -16.2610   20.5410 N   0  0  0  0  0  0  0  0  0  0  0  0
  -28.7640  -16.0790   20.7210 H   0  0  0  0  0  0  0  0  0  0  0  0
  -25.2000  -13.9500   20.5610 C   0  0  0  0  0  0  0  0  0  0  0  0
  -24.1420  -13.1630   20.9260 C   0  0  0  0  0  0  0  0  0  0  0  0
  -24.6120  -11.8150   20.8670 C   0  0  0  0  0  0  0  0  0  0  0  0
  -26.2440  -13.0810   20.2960 N   0  0  0  0  0  0  0  0  0  0  0  0
  -25.9020  -11.7900   20.5470 N   0  0  0  0  0  0  0  0  0  0  0  0
  -23.8930  -10.5460   21.0400 C   0  0  0  0  0  0  0  0  0  0  0  0
  -24.3110   -9.5810   21.9810 C   0  0  0  0  0  3  0  0  0  0  0  0
  -23.5890   -8.3780   22.1420 C   0  0  0  0  0  3  0  0  0  0  0  0
  -22.4350   -8.1330   21.3600 C   0  0  0  0  0  0  0  0  0  0  0  0
  -22.0360   -9.0880   20.4090 C   0  0  0  0  0  3  0  0  0  0  0  0
  -22.7580  -10.2810   20.2470 C   0  0  0  0  0  3  0  0  0  0  0  0
  -21.6860   -6.9830   21.4310 O   0  0  0  0  0  0  0  0  0  0  0  0
  -21.5870   -6.2580   22.5910 C   0  0  0  0  0  0  0  0  0  0  0  0
  -21.0250   -6.8050   23.7650 C   0  0  0  0  0  3  0  0  0  0  0  0
  -20.8780   -6.0030   24.9150 C   0  0  0  0  0  3  0  0  0  0  0  0
  -21.2830   -4.6560   24.8910 C   0  0  0  0  0  0  0  0  0  0  0  0
  -21.8380   -4.1080   23.7210 C   0  0  0  0  0  3  0  0  0  0  0  0
  -21.9860   -4.9060   22.5730 C   0  0  0  0  0  0  0  0  0  0  0  0
  -22.5020   -4.3680   21.4420 F   0  0  0  0  0  0  0  0  0  0  0  0
  -21.1360   -3.8820   25.9930 F   0  0  0  0  0  0  0  0  0  0  0  0
  -22.7450  -13.6300   21.2140 C   0  0  0  0  0  0  0  0  0  0  0  0
  -22.0250  -12.9160   22.0720 N   0  0  0  0  0  0  0  0  0  0  0  0
  -22.3020  -14.6620   20.7140 O   0  0  0  0  0  0  0  0  0  0  0  0
  -22.3980  -12.0800   22.4990 H   0  0  0  0  0  0  0  0  0  0  0  0
  -21.0880  -13.2090   22.3070 H   0  0  0  0  0  0  0  0  0  0  0  0
  -25.3530  -15.3230   20.4050 N   0  0  0  0  0  0  0  0  0  0  0  0
  -24.5780  -15.9660   20.5260 H   0  0  0  0  0  0  0  0  0  0  0  0
  -26.1810  -15.7710   20.0330 H   0  0  0  0  0  0  0  0  0  0  0  0
  1  5  1  0
  1  2  1  0
  2  4  1  0
  3  1  2  0
  6  7  1  0
  6  5  2  0
  8 19  2  0
  9  7  1  0
  9 14  1  0
 10 18  1  0
 10 20  1  0
 11 17  1  0
 11 13  1  0
 12 18  1  0
 13 12  1  0
 14 13  2  0
 15  9  2  0
 16 15  1  0
 16 11  2  0
 17 10  1  0
 18  8  1  0
 20 22  2  0
 21 20  1  0
 23 21  1  0
 24 33  2  0
 24 29  1  0
 25 21  1  0
 25 29  1  0
 26 25  1  0
 27 28  1  0
 27 26  1  0
 28 24  1  0
 29 30  2  0
 30 31  1  0
 32 31  2  0
 33 32  1  0
 34  8  1  0
 34 39  1  0
 34 35  1  0
 35 38  1  1
 35 36  1  0
 37 35  1  0
 39 42  1  0
 40 44  1  0
 40 39  1  0
 41 40  2  0
 44 43  1  0
 46 47  1  0
 46 44  1  0
 46 45  1  0
 48  2  1  0
 48 49  2  0
 49 58  1  0
 50 58  1  0
 51 56  1  0
 52 53  1  0
 52 51  1  0
 54 53  1  0
 54 63  1  0
 54 55  1  0
 56 50  1  0
 56 55  1  0
 57 50  2  0
 58 59  1  0
 60 61  2  0
 61 80  1  0
 62 61  1  0
 62 65  1  0
 63 64  1  0
 63 60  1  0
 64 62  2  0
 65 66  1  0
 66 67  2  0
 68 71  1  0
 68 67  1  0
 69 68  2  0
 70 69  1  0
 70 65  2  0
 71 72  1  0
 72 73  1  0
 73 74  2  0
 75 74  1  0
 75 79  1  0
 76 75  2  0
 77 72  2  0
 77 76  1  0
 78 77  1  0
 80 81  1  0
 81 84  1  0
 81 83  1  0
 82 80  2  0
 85 86  1  0
 85 60  1  0
 87 85  1  0
M  ISO  4   6 101   7 101  50 100  58 100
M  END
>  <TORSDO>  (97) 
F 20

>  <SCORE>  (97) 
-14.337

>  <name>  (97) 
97

>  <ligand_id>  (97) 
97

>  <original_smiles>  (97) 
[H]c1c([H])c([H])c2c(c1[H])C([H])([H])C([H])([H])C([H])([H])C2([H])N([H])C(=O)C1([H])N(C(=O)C([H])(N([H])C(=O)C([H])(N([H])C([H])([H])[H])C([H])([H])[H])C(C([H])([H])[H])(C([H])([H])[H])C([H])([H])[H])C([H])([H])c2c([H])c(OC([H])([H])C([H])([H])C(=O)N([H])C([H])([H])C([H])([H])N([H])C(=O)N3C([H])([H])C([H])([H])C([H])([H])C([H])(n4nc(-c5c([H])c([H])c(Oc6c([H])c([H])c(F)c([H])c6F)c([H])c5[H])c(C(=O)N([H])[H])c4N([H])[H])C3([H])[H])c([H])c([H])c2C1([H])[H]

>  <smiles>  (97) 
[H]c1c([H])c([H])c2c(c1[H])C([H])([H])C([H])([H])C([H])([H])C2([H])N([H])C(=O)C1([H])N(C(=O)C([H])(N([H])C(=O)C([H])(N([H])C([H])([H])[H])C([H])([H])[H])C(C([H])([H])[H])(C([H])([H])[H])C([H])([H])[H])C([H])([H])c2c([H])c(OC([H])([H])C([H])([H])C(=O)N([H])C([H])([H])C([H])([H])N([H])C(=O)N3C([H])([H])C([H])([H])C([H])([H])C([H])(n4nc(-c5c([H])c([H])c(Oc6c([H])c([H])c(F)c([H])c6F)c([H])c5[H])c(C(=O)N([H])[H])c4N([H])[H])C3([H])[H])c([H])c([H])c2C1([H])[H]

$$$$
98:0:0
     RDKit          3D

 93101  0  0  1  0  0  0  0  0999 V2000
  -30.2490  -23.1770   20.3150 C   0  0  0  0  0  3  0  0  0  0  0  0
  -30.1820  -24.3360   19.6070 C   0  0  0  0  0  0  0  0  0  0  0  0
  -29.8140  -24.4090   18.3160 O   0  0  0  0  0  0  0  0  0  0  0  0
  -29.5940  -23.5240   18.0340 H   0  0  0  0  0  0  0  0  0  0  0  0
  -29.9270  -21.8250   19.7860 C   0  0  0  0  0  0  0  0  0  0  0  0
  -29.3750  -21.6610   18.6910 O   0  0  0  0  0  0  0  0  0  0  0  0
  -30.2990  -20.5900   20.6360 C   0  0  0  0  0  2  0  0  0  0  0  0
  -30.0110  -19.2270   19.9450 C   0  0  0  0  0  2  0  0  0  0  0  0
  -30.5660  -16.7870   22.8850 C   0  0  0  0  0  3  0  0  0  0  0  0
  -30.9720  -15.6160   22.2120 C   0  0  0  0  0  3  0  0  0  0  0  0
  -30.2510  -17.9560   22.1620 C   0  0  0  0  0  3  0  0  0  0  0  0
  -30.7450  -16.7870   20.0900 C   0  0  0  0  0  3  0  0  0  0  0  0
  -31.0360  -15.5930   20.8010 C   0  0  0  0  0  0  0  0  0  0  0  0
  -30.3560  -17.9740   20.7550 C   0  0  0  0  0  0  0  0  0  0  0  0
  -31.5130  -14.3810   20.0330 C   0  0  0  0  0  0  0  0  0  0  0  0
  -30.9170  -12.3590   18.7560 C   0  0  0  0  0  2  0  0  0  0  0  0
  -29.9390  -12.7590   17.6330 C   0  0  0  0  0  2  0  0  0  0  0  0
  -28.4840  -12.7180   18.1390 C   0  0  0  0  0  2  0  0  0  0  0  0
  -28.3010  -13.4660   19.4880 C   0  0  0  0  0  3  0  0  0  0  0  0
  -29.3960  -13.0660   20.5020 C   0  0  0  0  0  2  0  0  0  0  0  0
  -30.7110  -13.2870   19.8830 N   0  0  0  0  0  0  0  0  0  0  0  0
  -32.5840  -14.5000   19.4330 O   0  0  0  0  0  0  0  0  0  0  0  0
  -26.0000  -14.2030   20.3750 C   0  0  0  0  0  0  0  0  0  0  0  0
  -24.9020  -13.4890   20.7730 C   0  0  0  0  0  0  0  0  0  0  0  0
  -25.2570  -12.1110   20.6480 C   0  0  0  0  0  0  0  0  0  0  0  0
  -26.9610  -13.2630   20.0370 N   0  0  0  0  0  0  0  0  0  0  0  0
  -26.5200  -11.9960   20.2560 N   0  0  0  0  0  0  0  0  0  0  0  0
  -24.4510  -10.8950   20.8220 C   0  0  0  0  0  0  0  0  0  0  0  0
  -24.8370   -9.8720   21.7180 C   0  0  0  0  0  3  0  0  0  0  0  0
  -24.0350   -8.7230   21.8810 C   0  0  0  0  0  3  0  0  0  0  0  0
  -22.8290   -8.5880   21.1510 C   0  0  0  0  0  0  0  0  0  0  0  0
  -22.4600   -9.5990   20.2460 C   0  0  0  0  0  3  0  0  0  0  0  0
  -23.2630  -10.7400   20.0790 C   0  0  0  0  0  3  0  0  0  0  0  0
  -22.0020   -7.4950   21.2260 O   0  0  0  0  0  0  0  0  0  0  0  0
  -21.8980   -6.7480   22.3710 C   0  0  0  0  0  0  0  0  0  0  0  0
  -21.5380   -7.3250   23.6080 C   0  0  0  0  0  3  0  0  0  0  0  0
  -21.3760   -6.5090   24.7460 C   0  0  0  0  0  3  0  0  0  0  0  0
  -21.5640   -5.1170   24.6470 C   0  0  0  0  0  0  0  0  0  0  0  0
  -21.9170   -4.5400   23.4150 C   0  0  0  0  0  3  0  0  0  0  0  0
  -22.0800   -5.3520   22.2790 C   0  0  0  0  0  0  0  0  0  0  0  0
  -22.3990   -4.7870   21.0900 F   0  0  0  0  0  0  0  0  0  0  0  0
  -21.4000   -4.3330   25.7380 F   0  0  0  0  0  0  0  0  0  0  0  0
  -23.5620  -14.0490   21.1610 C   0  0  0  0  0  0  0  0  0  0  0  0
  -22.8540  -13.3770   22.0630 N   0  0  0  0  0  0  0  0  0  0  0  0
  -23.1580  -15.1140   20.6990 O   0  0  0  0  0  0  0  0  0  0  0  0
  -23.1920  -12.5120   22.4550 H   0  0  0  0  0  0  0  0  0  0  0  0
  -21.9590  -13.7370   22.3630 H   0  0  0  0  0  0  0  0  0  0  0  0
  -26.2590  -15.5650   20.2570 N   0  0  0  0  0  0  0  0  0  0  0  0
  -25.5680  -16.2720   20.4850 H   0  0  0  0  0  0  0  0  0  0  0  0
  -27.1420  -15.9580   19.9560 H   0  0  0  0  0  0  0  0  0  0  0  0
  -30.5140  -25.7340   20.1560 C   0  0  0  0  0  2  0  0  0  0  0  0
  -29.5870  -26.8990   19.7060 C   0  0  0  0  0  2  0  0  0  0  0  0
  -28.2580  -26.4920   19.9660 O   0  0  0  0  0  0  0  0  0  0  0  0
  -24.6220  -31.8040   23.0870 C   0  0  0  0  0  0  0  0  0  0  0  0
  -27.2030  -27.3730   19.9470 C   0  0  0  0  0  0  0  0  0  0  0  0
  -23.3850  -30.4080   21.4650 C   0  0  0  0  0  3  0  0  0  0  0  0
  -24.8160  -28.8810   20.0050 C   0  0  0  0  0  0  0  0  0  0  0  0
  -25.9090  -30.7700   21.2180 C   0  0  0  0  0  2  0  0  0  0  0  0
  -25.9880  -29.4050   20.5670 C   0  0  0  0  0  0  0  0  0  0  0  0
  -27.1950  -28.6610   20.5340 C   0  0  0  0  0  3  0  0  0  0  0  0
  -26.0130  -26.8610   19.3950 C   0  0  0  0  0  3  0  0  0  0  0  0
  -24.8230  -27.6080   19.4120 C   0  0  0  0  0  3  0  0  0  0  0  0
  -23.5680  -29.7340   20.0800 C   0  0  0  0  0  2  0  0  0  0  0  0
  -24.6580  -31.0080   21.9820 N   0  0  0  0  0  0  0  0  0  0  0  0
  -23.5510  -32.0740   23.6480 O   0  0  0  0  0  0  0  0  0  0  0  0
  -22.7510  -29.3840   22.4350 C   0  0  0  0  0  0  0  0  0  0  0  0
  -21.4210  -29.2140   22.3410 N   0  0  0  0  0  0  0  0  0  0  0  0
  -23.4490  -28.7480   23.2270 O   0  0  0  0  0  0  0  0  0  0  0  0
  -20.9180  -29.7790   21.6720 H   0  0  0  0  0  0  0  0  0  0  0  0
  -18.0510  -28.0430   22.9200 C   0  0  0  0  0  0  0  0  0  0  0  0
  -20.6180  -28.2780   23.1280 C   0  0  0  0  0  3  0  0  0  0  0  0
  -20.6930  -26.8500   22.5400 C   0  0  0  0  0  2  0  0  0  0  0  0
  -19.5630  -26.5430   21.5530 C   0  0  0  0  0  2  0  0  0  0  0  0
  -18.2000  -26.6970   22.2330 C   0  0  0  0  0  2  0  0  0  0  0  0
  -19.1870  -28.7930   23.3260 C   0  0  0  0  0  0  0  0  0  0  0  0
  -18.9960  -30.0550   23.9290 C   0  0  0  0  0  3  0  0  0  0  0  0
  -17.7010  -30.5670   24.1310 C   0  0  0  0  0  3  0  0  0  0  0  0
  -16.5790  -29.8140   23.7410 C   0  0  0  0  0  3  0  0  0  0  0  0
  -16.7560  -28.5550   23.1420 C   0  0  0  0  0  3  0  0  0  0  0  0
  -25.9190  -32.4330   23.6830 C   0  0  0  0  0  3  0  0  0  0  0  0
  -25.6030  -33.8120   24.0770 N   0  0  0  0  0  0  0  0  0  0  0  0
  -25.9030  -34.8980   23.3520 C   0  0  0  0  0  0  0  0  0  0  0  0
  -26.5480  -34.8440   22.3010 O   0  0  0  0  0  0  0  0  0  0  0  0
  -25.0290  -33.9270   24.9000 H   0  0  0  0  0  0  0  0  0  0  0  0
  -24.1460  -36.6800   23.1090 C   0  0  0  0  0  1  0  0  0  0  0  0
  -25.4120  -36.2600   23.8760 C   0  0  0  0  0  3  0  0  0  0  0  0
  -27.5560  -37.1350   24.6900 C   0  0  0  0  0  1  0  0  0  0  0  0
  -26.4290  -37.3290   23.7810 N   0  0  0  0  0  0  0  0  0  0  0  0
  -26.0170  -38.2380   23.9750 H   0  0  0  0  0  0  0  0  0  0  0  0
  -26.5000  -31.6210   24.9060 C   0  0  1  0  0  0  0  0  0  0  0  0
  -25.4540  -31.3190   26.0040 C   0  0  0  0  0  1  0  0  0  0  0  0
  -27.0910  -30.2720   24.4330 C   0  0  0  0  0  1  0  0  0  0  0  0
  -27.6620  -32.4090   25.5540 C   0  0  0  0  0  1  0  0  0  0  0  0
  2 51  1  0
  2  1  2  0
  3  2  1  0
  4  3  1  0
  5  1  1  0
  5  7  1  0
  6  5  2  0
  8  7  1  0
  8 14  1  0
 10  9  1  0
 11  9  2  0
 12 14  2  0
 12 13  1  0
 13 10  2  0
 14 11  1  0
 15 13  1  0
 16 21  1  0
 17 18  1  0
 17 16  1  0
 19 18  1  0
 19 26  1  0
 19 20  1  0
 21 15  1  0
 21 20  1  0
 22 15  2  0
 23 24  2  0
 24 43  1  0
 25 24  1  0
 25 28  1  0
 26 27  1  0
 26 23  1  0
 27 25  2  0
 28 29  1  0
 29 30  2  0
 31 34  1  0
 31 30  1  0
 32 31  2  0
 33 32  1  0
 33 28  2  0
 34 35  1  0
 35 36  1  0
 36 37  2  0
 38 37  1  0
 38 42  1  0
 39 38  2  0
 40 35  2  0
 40 39  1  0
 41 40  1  0
 43 44  1  0
 44 47  1  0
 44 46  1  0
 45 43  2  0
 48 23  1  0
 48 49  1  0
 50 48  1  0
 52 53  1  0
 52 51  1  0
 54 65  2  0
 55 53  1  0
 55 60  1  0
 56 64  1  0
 56 66  1  0
 57 63  1  0
 57 59  1  0
 58 64  1  0
 59 58  1  0
 60 59  2  0
 61 62  1  0
 61 55  2  0
 62 57  2  0
 63 56  1  0
 64 54  1  0
 66 68  2  0
 67 66  1  0
 69 67  1  0
 70 79  2  0
 70 75  1  0
 71 67  1  0
 71 75  1  0
 72 71  1  0
 73 74  1  0
 73 72  1  0
 74 70  1  0
 75 76  2  0
 76 77  1  0
 78 77  2  0
 79 78  1  0
 80 54  1  0
 80 81  1  0
 80 90  1  0
 81 84  1  0
 82 86  1  0
 82 81  1  0
 83 82  2  0
 86 85  1  0
 88 86  1  0
 88 89  1  0
 88 87  1  0
 90 93  1  1
 90 91  1  0
 92 90  1  0
M  ISO  4  13 100  15 100  52 101  53 101
M  END
>  <TORSDO>  (98) 
F 23

>  <SCORE>  (98) 
-11.421

>  <name>  (98) 
98

>  <ligand_id>  (98) 
98

>  <original_smiles>  (98) 
[H]OC(=C([H])C(=O)C([H])([H])C([H])([H])c1c([H])c([H])c([H])c(C(=O)N2C([H])([H])C([H])([H])C([H])([H])C([H])(n3nc(-c4c([H])c([H])c(Oc5c([H])c([H])c(F)c([H])c5F)c([H])c4[H])c(C(=O)N([H])[H])c3N([H])[H])C2([H])[H])c1[H])C([H])([H])C([H])([H])Oc1c([H])c([H])c2c(c1[H])C([H])([H])N(C(=O)C([H])(N([H])C(=O)C([H])(N([H])C([H])([H])[H])C([H])([H])[H])C(C([H])([H])[H])(C([H])([H])[H])C([H])([H])[H])C([H])(C(=O)N([H])C1([H])c3c([H])c([H])c([H])c([H])c3C([H])([H])C([H])([H])C1([H])[H])C2([H])[H]

>  <smiles>  (98) 
[H]OC(=C([H])C(=O)C([H])([H])C([H])([H])c1c([H])c([H])c([H])c(C(=O)N2C([H])([H])C([H])([H])C([H])([H])C([H])(n3nc(-c4c([H])c([H])c(Oc5c([H])c([H])c(F)c([H])c5F)c([H])c4[H])c(C(=O)N([H])[H])c3N([H])[H])C2([H])[H])c1[H])C([H])([H])C([H])([H])Oc1c([H])c([H])c2c(c1[H])C([H])([H])N(C(=O)C([H])(N([H])C(=O)C([H])(N([H])C([H])([H])[H])C([H])([H])[H])C(C([H])([H])[H])(C([H])([H])[H])C([H])([H])[H])C([H])(C(=O)N([H])C1([H])c3c([H])c([H])c([H])c([H])c3C([H])([H])C([H])([H])C1([H])[H])C2([H])[H]

$$$$
99:0:0
     RDKit          3D

 95103  0  0  1  0  0  0  0  0999 V2000
  -29.7460  -20.5260   19.9400 C   0  0  0  0  0  3  0  0  0  0  0  0
  -29.8250  -20.9340   17.3320 C   0  0  0  0  0  2  0  0  0  0  0  0
  -30.3200  -19.5240   17.5540 C   0  0  0  0  0  3  0  0  0  0  0  0
  -29.3330  -20.1410   18.5240 C   0  0  0  0  0  3  0  0  0  0  0  0
  -29.8980  -18.4070   16.6210 C   0  0  0  0  0  2  0  0  0  0  0  0
  -30.9340  -18.1380   15.6140 N   0  0  0  0  0  4  0  0  0  0  0  0
  -31.1920  -18.9860   15.1420 H   0  0  0  0  0  0  0  0  0  0  0  0
  -30.5880  -17.4880   14.9320 H   0  0  0  0  0  0  0  0  0  0  0  0
  -31.7530  -17.7450   16.0410 H   0  0  0  0  0  0  0  0  0  0  0  0
  -29.6860  -19.3210   20.9420 C   0  0  0  0  0  3  0  0  0  0  0  0
  -30.0720  -17.9040   20.4010 C   0  0  0  0  0  3  0  0  0  0  0  0
  -30.4320  -16.8430   21.4830 C   0  0  0  0  0  2  0  0  0  0  0  0
  -30.6850  -14.5060   20.4910 C   0  0  0  0  0  0  0  0  0  0  0  0
  -30.3770  -12.3700   19.2740 C   0  0  0  0  0  2  0  0  0  0  0  0
  -29.4190  -12.5790   18.0840 C   0  0  0  0  0  2  0  0  0  0  0  0
  -27.9510  -12.4310   18.5260 C   0  0  0  0  0  2  0  0  0  0  0  0
  -27.6250  -13.2590   19.7970 C   0  0  0  0  0  3  0  0  0  0  0  0
  -28.6870  -13.0190   20.8920 C   0  0  0  0  0  2  0  0  0  0  0  0
  -30.0080  -13.3340   20.3230 N   0  0  0  0  0  0  0  0  0  0  0  0
  -31.7970  -14.7160   19.9980 O   0  0  0  0  0  0  0  0  0  0  0  0
  -30.0090  -15.4710   21.1450 N   0  0  0  0  0  0  0  0  0  0  0  0
  -29.0950  -15.1980   21.4740 H   0  0  0  0  0  0  0  0  0  0  0  0
  -25.2280  -13.8680   20.5090 C   0  0  0  0  0  0  0  0  0  0  0  0
  -24.1620  -13.0970   20.8820 C   0  0  0  0  0  0  0  0  0  0  0  0
  -24.6250  -11.7450   20.8570 C   0  0  0  0  0  0  0  0  0  0  0  0
  -26.2740  -12.9870   20.2790 N   0  0  0  0  0  0  0  0  0  0  0  0
  -25.9140  -11.7060   20.5450 N   0  0  0  0  0  0  0  0  0  0  0  0
  -23.8990  -10.4830   21.0520 C   0  0  0  0  0  0  0  0  0  0  0  0
  -24.3440   -9.5140   21.9790 C   0  0  0  0  0  3  0  0  0  0  0  0
  -23.6200   -8.3160   22.1640 C   0  0  0  0  0  3  0  0  0  0  0  0
  -22.4380   -8.0790   21.4220 C   0  0  0  0  0  0  0  0  0  0  0  0
  -22.0130   -9.0370   20.4840 C   0  0  0  0  0  3  0  0  0  0  0  0
  -22.7380  -10.2270   20.2970 C   0  0  0  0  0  3  0  0  0  0  0  0
  -21.6850   -6.9330   21.5170 O   0  0  0  0  0  0  0  0  0  0  0  0
  -21.6590   -6.1820   22.6650 C   0  0  0  0  0  0  0  0  0  0  0  0
  -21.2610   -6.7310   23.9060 C   0  0  0  0  0  3  0  0  0  0  0  0
  -21.1830   -5.9060   25.0450 C   0  0  0  0  0  3  0  0  0  0  0  0
  -21.4870   -4.5350   24.9460 C   0  0  0  0  0  0  0  0  0  0  0  0
  -21.8760   -3.9880   23.7110 C   0  0  0  0  0  3  0  0  0  0  0  0
  -21.9580   -4.8090   22.5730 C   0  0  0  0  0  0  0  0  0  0  0  0
  -22.3130   -4.2700   21.3810 F   0  0  0  0  0  0  0  0  0  0  0  0
  -21.4040   -3.7410   26.0400 F   0  0  0  0  0  0  0  0  0  0  0  0
  -22.7650  -13.5720   21.1570 C   0  0  0  0  0  0  0  0  0  0  0  0
  -22.0410  -12.8760   22.0270 N   0  0  0  0  0  0  0  0  0  0  0  0
  -22.3250  -14.5950   20.6360 O   0  0  0  0  0  0  0  0  0  0  0  0
  -22.4130  -12.0470   22.4680 H   0  0  0  0  0  0  0  0  0  0  0  0
  -21.1040  -13.1740   22.2570 H   0  0  0  0  0  0  0  0  0  0  0  0
  -25.3960  -15.2380   20.3290 N   0  0  0  0  0  0  0  0  0  0  0  0
  -24.6370  -15.8980   20.4500 H   0  0  0  0  0  0  0  0  0  0  0  0
  -26.2540  -15.6750   20.0220 H   0  0  0  0  0  0  0  0  0  0  0  0
  -28.9280  -21.7620   20.4360 C   0  0  0  0  0  3  0  0  0  0  0  0
  -29.1920  -23.1000   19.6880 C   0  0  0  0  0  3  0  0  0  0  0  0
  -28.4010  -24.3250   20.2160 C   0  0  0  0  0  2  0  0  0  0  0  0
  -28.6620  -25.6160   19.4010 C   0  0  0  0  0  2  0  0  0  0  0  0
  -28.4600  -26.8080   20.1700 O   0  0  0  0  0  0  0  0  0  0  0  0
  -24.5870  -31.9140   23.2480 C   0  0  0  0  0  0  0  0  0  0  0  0
  -27.2480  -27.4700   20.1650 C   0  0  0  0  0  0  0  0  0  0  0  0
  -23.3840  -30.5030   21.6120 C   0  0  0  0  0  3  0  0  0  0  0  0
  -24.8380  -28.9590   20.1940 C   0  0  0  0  0  0  0  0  0  0  0  0
  -25.9100  -30.8620   21.4160 C   0  0  0  0  0  2  0  0  0  0  0  0
  -25.9950  -29.4890   20.7800 C   0  0  0  0  0  0  0  0  0  0  0  0
  -27.1950  -28.7450   20.7740 C   0  0  0  0  0  3  0  0  0  0  0  0
  -26.0670  -26.9450   19.5920 C   0  0  0  0  0  3  0  0  0  0  0  0
  -24.8660  -27.6830   19.6040 C   0  0  0  0  0  3  0  0  0  0  0  0
  -23.5970  -29.8200   20.2360 C   0  0  0  0  0  2  0  0  0  0  0  0
  -24.6460  -31.1080   22.1500 N   0  0  0  0  0  0  0  0  0  0  0  0
  -23.5050  -32.1880   23.7840 O   0  0  0  0  0  0  0  0  0  0  0  0
  -22.7340  -29.4840   22.5750 C   0  0  0  0  0  0  0  0  0  0  0  0
  -21.4080  -29.3030   22.4530 N   0  0  0  0  0  0  0  0  0  0  0  0
  -23.4210  -28.8600   23.3900 O   0  0  0  0  0  0  0  0  0  0  0  0
  -20.9150  -29.8630   21.7700 H   0  0  0  0  0  0  0  0  0  0  0  0
  -18.0320  -28.1210   22.9630 C   0  0  0  0  0  0  0  0  0  0  0  0
  -20.5910  -28.3700   23.2290 C   0  0  0  0  0  3  0  0  0  0  0  0
  -20.6880  -26.9380   22.6520 C   0  0  0  0  0  2  0  0  0  0  0  0
  -19.5810  -26.6180   21.6430 C   0  0  0  0  0  2  0  0  0  0  0  0
  -18.2010  -26.7710   22.2900 C   0  0  0  0  0  2  0  0  0  0  0  0
  -19.1550  -28.8800   23.3900 C   0  0  0  0  0  0  0  0  0  0  0  0
  -18.9430  -30.1450   23.9780 C   0  0  0  0  0  3  0  0  0  0  0  0
  -17.6400  -30.6530   24.1450 C   0  0  0  0  0  3  0  0  0  0  0  0
  -16.5310  -29.8910   23.7370 C   0  0  0  0  0  3  0  0  0  0  0  0
  -16.7290  -28.6270   23.1510 C   0  0  0  0  0  3  0  0  0  0  0  0
  -25.8720  -32.5490   23.8650 C   0  0  0  0  0  3  0  0  0  0  0  0
  -26.3960  -31.7790   25.1380 C   0  0  1  0  0  0  0  0  0  0  0  0
  -25.3080  -31.5330   26.2100 C   0  0  0  0  0  1  0  0  0  0  0  0
  -26.9850  -30.4030   24.7450 C   0  0  0  0  0  1  0  0  0  0  0  0
  -27.5500  -32.5770   25.7940 C   0  0  0  0  0  1  0  0  0  0  0  0
  -25.5610  -33.9460   24.1900 N   0  0  0  0  0  0  0  0  0  0  0  0
  -25.8980  -34.9950   23.4280 C   0  0  0  0  0  0  0  0  0  0  0  0
  -26.5740  -34.8890   22.4010 O   0  0  0  0  0  0  0  0  0  0  0  0
  -24.9540  -34.1020   24.9820 H   0  0  0  0  0  0  0  0  0  0  0  0
  -24.1750  -36.7880   23.0540 C   0  0  0  0  0  1  0  0  0  0  0  0
  -25.4090  -36.3860   23.8770 C   0  0  0  0  0  3  0  0  0  0  0  0
  -27.5380  -37.2670   24.7210 C   0  0  0  0  0  1  0  0  0  0  0  0
  -26.4440  -37.4370   23.7700 N   0  0  0  0  0  0  0  0  0  0  0  0
  -26.0360  -38.3570   23.9150 H   0  0  0  0  0  0  0  0  0  0  0  0
  1 51  1  0
  1 10  1  0
  2  3  1  0
  2  4  1  0
  3  5  1  0
  3  4  1  0
  4  1  1  0
  6  9  1  0
  6  5  1  0
  7  6  1  0
  8  6  1  0
 11 10  2  0
 11 12  1  0
 13 21  1  0
 14 19  1  0
 15 16  1  0
 15 14  1  0
 17 16  1  0
 17 26  1  0
 17 18  1  0
 19 13  1  0
 19 18  1  0
 20 13  2  0
 21 22  1  0
 21 12  1  0
 23 24  2  0
 24 43  1  0
 25 24  1  0
 25 28  1  0
 26 23  1  0
 26 27  1  0
 27 25  2  0
 28 29  1  0
 29 30  2  0
 31 34  1  0
 31 30  1  0
 32 31  2  0
 33 32  1  0
 33 28  2  0
 34 35  1  0
 35 36  1  0
 36 37  2  0
 38 37  1  0
 38 42  1  0
 39 38  2  0
 40 35  2  0
 40 39  1  0
 41 40  1  0
 43 44  1  0
 44 47  1  0
 44 46  1  0
 45 43  2  0
 48 49  1  0
 48 23  1  0
 50 48  1  0
 52 53  1  0
 52 51  2  0
 54 55  1  0
 54 53  1  0
 56 67  2  0
 57 55  1  0
 57 62  1  0
 58 66  1  0
 58 68  1  0
 59 65  1  0
 59 61  1  0
 60 66  1  0
 61 60  1  0
 62 61  2  0
 63 64  1  0
 63 57  2  0
 64 59  2  0
 65 58  1  0
 66 56  1  0
 68 70  2  0
 69 68  1  0
 71 69  1  0
 72 81  2  0
 72 77  1  0
 73 69  1  0
 73 77  1  0
 74 73  1  0
 75 76  1  0
 75 74  1  0
 76 72  1  0
 77 78  2  0
 78 79  1  0
 80 79  2  0
 81 80  1  0
 82 56  1  0
 82 87  1  0
 82 83  1  0
 83 86  1  1
 83 84  1  0
 85 83  1  0
 87 90  1  0
 88 92  1  0
 88 87  1  0
 89 88  2  0
 92 91  1  0
 94 92  1  0
 94 95  1  0
 94 93  1  0
M  ISO  4  13 100  21 100  54 101  55 101
M  END
>  <TORSDO>  (99) 
F 26

>  <SCORE>  (99) 
-12.114

>  <name>  (99) 
99

>  <ligand_id>  (99) 
99

>  <original_smiles>  (99) 
[H]c1c([H])c([H])c2c(c1[H])C([H])([H])C([H])([H])C([H])([H])C2([H])N([H])C(=O)C1([H])N(C(=O)C([H])(N([H])C(=O)C([H])(N([H])C([H])([H])[H])C([H])([H])[H])C(C([H])([H])[H])(C([H])([H])[H])C([H])([H])[H])C([H])([H])c2c([H])c(OC([H])([H])C([H])([H])C([H])([H])C([H])([H])C([H])(C([H])([H])C([H])([H])C([H])([H])N([H])C(=O)N3C([H])([H])C([H])([H])C([H])([H])C([H])(n4nc(-c5c([H])c([H])c(Oc6c([H])c([H])c(F)c([H])c6F)c([H])c5[H])c(C(=O)N([H])[H])c4N([H])[H])C3([H])[H])C3([H])C([H])([H])C3([H])C([H])([H])[N+]([H])([H])[H])c([H])c([H])c2C1([H])[H]

>  <smiles>  (99) 
[H]c1c([H])c([H])c2c(c1[H])C([H])([H])C([H])([H])C([H])([H])C2([H])N([H])C(=O)C1([H])N(C(=O)C([H])(N([H])C(=O)C([H])(N([H])C([H])([H])[H])C([H])([H])[H])C(C([H])([H])[H])(C([H])([H])[H])C([H])([H])[H])C([H])([H])c2c([H])c(OC([H])([H])C([H])([H])C([H])([H])C([H])([H])C([H])(C([H])([H])C([H])([H])C([H])([H])N([H])C(=O)N3C([H])([H])C([H])([H])C([H])([H])C([H])(n4nc(-c5c([H])c([H])c(Oc6c([H])c([H])c(F)c([H])c6F)c([H])c5[H])c(C(=O)N([H])[H])c4N([H])[H])C3([H])[H])C3([H])C([H])([H])C3([H])C([H])([H])[N+]([H])([H])[H])c([H])c([H])c2C1([H])[H]

$$$$
