0:0:0
     RDKit          3D

 97105  0  0  1  0  0  0  0  0999 V2000
  -30.7530  -21.1770   21.9830 C   0  0  0  0  0  2  0  0  0  0  0  0
  -31.5480  -18.7550   22.1060 C   0  0  0  0  0  2  0  0  0  0  0  0
  -31.1530  -17.2640   22.0900 C   0  0  0  0  0  2  0  0  0  0  0  0
  -29.5390  -19.3160   20.6880 C   0  0  0  0  0  2  0  0  0  0  0  0
  -30.3240  -19.6870   21.9650 C   0  0  0  0  0  3  0  0  0  0  0  0
  -30.3740  -16.9090   20.8100 C   0  0  0  0  0  3  0  0  0  0  0  0
  -29.1320  -17.8260   20.6650 C   0  0  0  0  0  3  0  0  0  0  0  0
  -30.6310  -14.5300   20.0650 C   0  0  0  0  0  0  0  0  0  0  0  0
  -30.2590  -12.4090   18.8710 C   0  0  0  0  0  2  0  0  0  0  0  0
  -29.2390  -12.6360   17.7350 C   0  0  0  0  0  2  0  0  0  0  0  0
  -27.7960  -12.4770   18.2560 C   0  0  0  0  0  2  0  0  0  0  0  0
  -27.5370  -13.2850   19.5550 C   0  0  0  0  0  3  0  0  0  0  0  0
  -28.6610  -13.0400   20.5890 C   0  0  0  0  0  2  0  0  0  0  0  0
  -29.9520  -13.3590   19.9490 N   0  0  0  0  0  0  0  0  0  0  0  0
  -31.6770  -14.7670   19.4570 O   0  0  0  0  0  0  0  0  0  0  0  0
  -30.0080  -15.4840   20.7780 N   0  0  0  0  0  0  0  0  0  0  0  0
  -29.1960  -15.1890   21.3010 H   0  0  0  0  0  0  0  0  0  0  0  0
  -25.1770  -13.8680   20.4040 C   0  0  0  0  0  0  0  0  0  0  0  0
  -24.1460  -13.0840   20.8490 C   0  0  0  0  0  0  0  0  0  0  0  0
  -24.6200  -11.7380   20.7850 C   0  0  0  0  0  0  0  0  0  0  0  0
  -26.2160  -12.9980   20.1090 N   0  0  0  0  0  0  0  0  0  0  0  0
  -25.8870  -11.7130   20.3930 N   0  0  0  0  0  0  0  0  0  0  0  0
  -23.9220  -10.4670   21.0160 C   0  0  0  0  0  0  0  0  0  0  0  0
  -24.3470   -9.5650   22.0160 C   0  0  0  0  0  3  0  0  0  0  0  0
  -23.6500   -8.3570   22.2320 C   0  0  0  0  0  3  0  0  0  0  0  0
  -22.5150   -8.0410   21.4460 C   0  0  0  0  0  0  0  0  0  0  0  0
  -22.1120   -8.9320   20.4360 C   0  0  0  0  0  3  0  0  0  0  0  0
  -22.8090  -10.1330   20.2190 C   0  0  0  0  0  3  0  0  0  0  0  0
  -21.7920   -6.8800   21.5690 O   0  0  0  0  0  0  0  0  0  0  0  0
  -21.6300   -6.2580   22.7810 C   0  0  0  0  0  0  0  0  0  0  0  0
  -20.9800   -6.8920   23.8630 C   0  0  0  0  0  3  0  0  0  0  0  0
  -20.7730   -6.1910   25.0670 C   0  0  0  0  0  3  0  0  0  0  0  0
  -21.2050   -4.8560   25.1910 C   0  0  0  0  0  0  0  0  0  0  0  0
  -21.8480   -4.2220   24.1130 C   0  0  0  0  0  3  0  0  0  0  0  0
  -22.0570   -4.9210   22.9100 C   0  0  0  0  0  0  0  0  0  0  0  0
  -22.6580   -4.2980   21.8680 F   0  0  0  0  0  0  0  0  0  0  0  0
  -21.0000   -4.1810   26.3450 F   0  0  0  0  0  0  0  0  0  0  0  0
  -22.7620  -13.5450   21.2050 C   0  0  0  0  0  0  0  0  0  0  0  0
  -22.0910  -12.8350   22.1060 N   0  0  0  0  0  0  0  0  0  0  0  0
  -22.2860  -14.5680   20.7170 O   0  0  0  0  0  0  0  0  0  0  0  0
  -22.4900  -12.0050   22.5210 H   0  0  0  0  0  0  0  0  0  0  0  0
  -21.1660  -13.1260   22.3870 H   0  0  0  0  0  0  0  0  0  0  0  0
  -25.3070  -15.2370   20.1920 N   0  0  0  0  0  0  0  0  0  0  0  0
  -24.4360  -15.7520   20.2760 H   0  0  0  0  0  0  0  0  0  0  0  0
  -25.7740  -15.4760   19.3290 H   0  0  0  0  0  0  0  0  0  0  0  0
  -28.3650  -17.5110   19.4480 N   0  0  0  0  0  4  0  0  0  0  0  0
  -28.9200  -17.6590   18.6230 H   0  0  0  0  0  0  0  0  0  0  0  0
  -27.5470  -18.0920   19.3920 H   0  0  0  0  0  0  0  0  0  0  0  0
  -28.0670  -16.5550   19.4690 H   0  0  0  0  0  0  0  0  0  0  0  0
  -29.5180  -22.5110   23.7720 C   0  0  0  0  0  1  0  0  0  0  0  0
  -29.6280  -22.2150   22.2590 C   0  0  0  0  0  3  0  0  0  0  0  0
  -31.0950  -24.2710   21.7110 C   0  0  0  0  0  1  0  0  0  0  0  0
  -29.7960  -23.5040   21.3920 C   0  0  0  0  0  3  0  0  0  0  0  0
  -28.5850  -24.4740   21.4470 C   0  0  0  0  0  2  0  0  0  0  0  0
  -27.4630  -24.1950   20.4240 C   0  0  0  0  0  2  0  0  0  0  0  0
  -27.6520  -24.9460   19.0900 C   0  0  0  0  0  2  0  0  0  0  0  0
  -27.7540  -26.3570   19.2960 O   0  0  0  0  0  0  0  0  0  0  0  0
  -24.6770  -31.5100   23.0860 C   0  0  0  0  0  0  0  0  0  0  0  0
  -26.6190  -27.1270   19.4500 C   0  0  0  0  0  0  0  0  0  0  0  0
  -23.2110  -30.3810   21.4440 C   0  0  0  0  0  3  0  0  0  0  0  0
  -24.3860  -28.8370   19.7900 C   0  0  0  0  0  0  0  0  0  0  0  0
  -25.7370  -30.5120   21.0640 C   0  0  0  0  0  2  0  0  0  0  0  0
  -25.6320  -29.2000   20.3150 C   0  0  0  0  0  0  0  0  0  0  0  0
  -26.7480  -28.3530   20.1420 C   0  0  0  0  0  3  0  0  0  0  0  0
  -25.3500  -26.7690   18.9370 C   0  0  0  0  0  3  0  0  0  0  0  0
  -24.2390  -27.6190   19.1010 C   0  0  0  0  0  3  0  0  0  0  0  0
  -23.2440  -29.8030   20.0040 C   0  0  0  0  0  2  0  0  0  0  0  0
  -24.5660  -30.8090   21.9220 N   0  0  0  0  0  0  0  0  0  0  0  0
  -23.6740  -31.8390   23.7340 O   0  0  0  0  0  0  0  0  0  0  0  0
  -22.5330  -29.3480   22.3720 C   0  0  0  0  0  0  0  0  0  0  0  0
  -21.1940  -29.2720   22.3010 N   0  0  0  0  0  0  0  0  0  0  0  0
  -23.2040  -28.6220   23.1090 O   0  0  0  0  0  0  0  0  0  0  0  0
  -20.7160  -29.9100   21.6790 H   0  0  0  0  0  0  0  0  0  0  0  0
  -17.7670  -28.2730   22.8560 C   0  0  0  0  0  0  0  0  0  0  0  0
  -20.3430  -28.3490   23.0510 C   0  0  0  0  0  3  0  0  0  0  0  0
  -20.3320  -26.9470   22.3980 C   0  0  0  0  0  2  0  0  0  0  0  0
  -19.1790  -26.7520   21.4090 C   0  0  0  0  0  2  0  0  0  0  0  0
  -17.8310  -26.9520   22.1080 C   0  0  0  0  0  2  0  0  0  0  0  0
  -18.9470  -28.9370   23.2850 C   0  0  0  0  0  0  0  0  0  0  0  0
  -18.8330  -30.1780   23.9460 C   0  0  0  0  0  3  0  0  0  0  0  0
  -17.5710  -30.7560   24.1810 C   0  0  0  0  0  3  0  0  0  0  0  0
  -16.4050  -30.0870   23.7700 C   0  0  0  0  0  3  0  0  0  0  0  0
  -16.5040  -28.8470   23.1130 C   0  0  0  0  0  3  0  0  0  0  0  0
  -26.0660  -31.9540   23.6450 C   0  0  0  0  0  3  0  0  0  0  0  0
  -26.6030  -31.0150   24.7940 C   0  0  1  0  0  0  0  0  0  0  0  0
  -25.5800  -30.7750   25.9290 C   0  0  0  0  0  1  0  0  0  0  0  0
  -27.0090  -29.6360   24.2250 C   0  0  0  0  0  1  0  0  0  0  0  0
  -27.8780  -31.6280   25.4190 C   0  0  0  0  0  1  0  0  0  0  0  0
  -25.9290  -33.3360   24.1220 N   0  0  0  0  0  0  0  0  0  0  0  0
  -26.3520  -34.4170   23.4530 C   0  0  0  0  0  0  0  0  0  0  0  0
  -26.9700  -34.3460   22.3870 O   0  0  0  0  0  0  0  0  0  0  0  0
  -25.3820  -33.4730   24.9600 H   0  0  0  0  0  0  0  0  0  0  0  0
  -24.8550  -36.4320   23.3150 C   0  0  0  0  0  1  0  0  0  0  0  0
  -26.0380  -35.7970   24.0620 C   0  0  0  0  0  3  0  0  0  0  0  0
  -28.2570  -36.3300   24.9660 C   0  0  0  0  0  1  0  0  0  0  0  0
  -27.1910  -36.7220   24.0470 N   0  0  0  0  0  0  0  0  0  0  0  0
  -26.9010  -37.6670   24.2840 H   0  0  0  0  0  0  0  0  0  0  0  0
  1 51  1  0
  3  2  1  0
  4  5  1  0
  5  1  1  0
  5  2  1  0
  6 16  1  0
  6  3  1  0
  7 46  1  0
  7  4  1  0
  7  6  1  0
  8 16  1  0
  9 14  1  0
 10 11  1  0
 10  9  1  0
 12 11  1  0
 12 21  1  0
 12 13  1  0
 14  8  1  0
 14 13  1  0
 15  8  2  0
 16 17  1  0
 18 19  2  0
 19 38  1  0
 20 19  1  0
 20 23  1  0
 21 22  1  0
 21 18  1  0
 22 20  2  0
 23 24  1  0
 24 25  2  0
 26 29  1  0
 26 25  1  0
 27 26  2  0
 28 27  1  0
 28 23  2  0
 29 30  1  0
 30 35  2  0
 30 31  1  0
 31 32  2  0
 32 33  1  0
 33 37  1  0
 34 33  2  0
 35 34  1  0
 36 35  1  0
 38 39  1  0
 39 42  1  0
 39 41  1  0
 40 38  2  0
 43 44  1  0
 43 18  1  0
 45 43  1  0
 46 49  1  0
 47 46  1  0
 48 46  1  0
 51 50  1  0
 53 54  1  0
 53 52  1  0
 53 51  1  0
 55 54  1  0
 56 57  1  0
 56 55  1  0
 57 59  1  0
 58 69  2  0
 59 64  1  0
 60 68  1  0
 60 70  1  0
 61 67  1  0
 61 63  1  0
 62 68  1  0
 63 62  1  0
 64 63  2  0
 65 66  1  0
 65 59  2  0
 66 61  2  0
 67 60  1  0
 68 58  1  0
 70 72  2  0
 71 70  1  0
 73 71  1  0
 74 83  2  0
 74 79  1  0
 75 71  1  0
 75 79  1  0
 76 75  1  0
 77 78  1  0
 77 76  1  0
 78 74  1  0
 79 80  2  0
 80 81  1  0
 82 81  2  0
 83 82  1  0
 84 58  1  0
 84 89  1  0
 84 85  1  0
 85 88  1  1
 85 86  1  0
 87 85  1  0
 89 92  1  0
 90 94  1  0
 90 89  1  0
 91 90  2  0
 94 93  1  0
 96 94  1  0
 96 97  1  0
 96 95  1  0
M  ISO  4   8 100  16 100  56 101  57 101
M  END
>  <TORSDO>  (1) 
F 23

>  <SCORE>  (1) 
-11.259

>  <name>  (1) 
0

>  <ligand_id>  (1) 
0

>  <original_smiles>  (1) 
[H]c1c([H])c([H])c2c(c1[H])C([H])([H])C([H])([H])C([H])([H])C2([H])N([H])C(=O)C1([H])N(C(=O)C([H])(N([H])C(=O)C([H])(N([H])C([H])([H])[H])C([H])([H])[H])C(C([H])([H])[H])(C([H])([H])[H])C([H])([H])[H])C([H])([H])c2c([H])c(OC([H])([H])C([H])([H])C([H])([H])C([H])(C([H])([H])[H])C([H])(C([H])([H])[H])C([H])([H])C3([H])C([H])([H])C([H])([H])C([H])(N([H])C(=O)N4C([H])([H])C([H])([H])C([H])([H])C([H])(n5nc(-c6c([H])c([H])c(Oc7c([H])c([H])c(F)c([H])c7F)c([H])c6[H])c(C(=O)N([H])[H])c5N([H])[H])C4([H])[H])C([H])([N+]([H])([H])[H])C3([H])[H])c([H])c([H])c2C1([H])[H]

>  <smiles>  (1) 
[H]c1c([H])c([H])c2c(c1[H])C([H])([H])C([H])([H])C([H])([H])C2([H])N([H])C(=O)C1([H])N(C(=O)C([H])(N([H])C(=O)C([H])(N([H])C([H])([H])[H])C([H])([H])[H])C(C([H])([H])[H])(C([H])([H])[H])C([H])([H])[H])C([H])([H])c2c([H])c(OC([H])([H])C([H])([H])C([H])([H])C([H])(C([H])([H])[H])C([H])(C([H])([H])[H])C([H])([H])C3([H])C([H])([H])C([H])([H])C([H])(N([H])C(=O)N4C([H])([H])C([H])([H])C([H])([H])C([H])(n5nc(-c6c([H])c([H])c(Oc7c([H])c([H])c(F)c([H])c7F)c([H])c6[H])c(C(=O)N([H])[H])c5N([H])[H])C4([H])[H])C([H])([N+]([H])([H])[H])C3([H])[H])c([H])c([H])c2C1([H])[H]

$$$$
1:0:0
     RDKit          3D

 93101  0  0  1  0  0  0  0  0999 V2000
  -29.9770  -19.9360   20.1730 N   0  0  0  0  0  4  0  0  0  0  0  0
  -30.4500  -20.0570   19.2910 H   0  0  0  0  0  0  0  0  0  0  0  0
  -30.6710  -20.0760   20.8900 H   0  0  0  0  0  0  0  0  0  0  0  0
  -30.8520  -14.8410   20.0960 C   0  0  0  0  0  0  0  0  0  0  0  0
  -30.5570  -12.6390   18.9690 C   0  0  0  0  0  2  0  0  0  0  0  0
  -29.5500  -12.7870   17.8090 C   0  0  0  0  0  2  0  0  0  0  0  0
  -28.1010  -12.6140   18.3110 C   0  0  0  0  0  2  0  0  0  0  0  0
  -27.8120  -13.4260   19.6040 C   0  0  0  0  0  3  0  0  0  0  0  0
  -28.9340  -13.2350   20.6470 C   0  0  0  0  0  2  0  0  0  0  0  0
  -30.1890  -13.6370   19.9980 N   0  0  0  0  0  0  0  0  0  0  0  0
  -32.0130  -14.9260   19.6810 O   0  0  0  0  0  0  0  0  0  0  0  0
  -29.3040  -17.8890   21.6350 C   0  0  0  0  0  2  0  0  0  0  0  0
  -29.3080  -16.3470   21.4470 C   0  0  0  0  0  2  0  0  0  0  0  0
  -30.4630  -17.3460   19.6360 C   0  0  0  0  0  3  0  0  0  0  0  0
  -29.5180  -18.4730   20.2370 C   0  0  0  0  0  3  0  0  0  0  0  0
  -30.1160  -16.0130   20.2600 N   0  0  0  0  0  0  0  0  0  0  0  0
  -25.4580  -13.9850   20.4630 C   0  0  0  0  0  0  0  0  0  0  0  0
  -24.4160  -13.1940   20.8620 C   0  0  0  0  0  0  0  0  0  0  0  0
  -24.8830  -11.8470   20.7660 C   0  0  0  0  0  0  0  0  0  0  0  0
  -26.4940  -13.1190   20.1510 N   0  0  0  0  0  0  0  0  0  0  0  0
  -26.1570  -11.8270   20.3940 N   0  0  0  0  0  0  0  0  0  0  0  0
  -24.1720  -10.5750   20.9510 C   0  0  0  0  0  0  0  0  0  0  0  0
  -24.5990   -9.6230   21.9020 C   0  0  0  0  0  3  0  0  0  0  0  0
  -23.8880   -8.4150   22.0740 C   0  0  0  0  0  3  0  0  0  0  0  0
  -22.7350   -8.1530   21.2970 C   0  0  0  0  0  0  0  0  0  0  0  0
  -22.3300   -9.0940   20.3350 C   0  0  0  0  0  3  0  0  0  0  0  0
  -23.0400  -10.2930   20.1610 C   0  0  0  0  0  3  0  0  0  0  0  0
  -21.9970   -6.9980   21.3790 O   0  0  0  0  0  0  0  0  0  0  0  0
  -21.8500   -6.3200   22.5610 C   0  0  0  0  0  0  0  0  0  0  0  0
  -21.2630   -6.9200   23.6980 C   0  0  0  0  0  3  0  0  0  0  0  0
  -21.0680   -6.1660   24.8710 C   0  0  0  0  0  3  0  0  0  0  0  0
  -21.4480   -4.8100   24.9100 C   0  0  0  0  0  0  0  0  0  0  0  0
  -22.0270   -4.2100   23.7780 C   0  0  0  0  0  3  0  0  0  0  0  0
  -22.2240   -4.9620   22.6070 C   0  0  0  0  0  0  0  0  0  0  0  0
  -22.7630   -4.3710   21.5130 F   0  0  0  0  0  0  0  0  0  0  0  0
  -21.2540   -4.0840   26.0340 F   0  0  0  0  0  0  0  0  0  0  0  0
  -23.0320  -13.6530   21.2190 C   0  0  0  0  0  0  0  0  0  0  0  0
  -22.3540  -12.9290   22.1020 N   0  0  0  0  0  0  0  0  0  0  0  0
  -22.5620  -14.6890   20.7480 O   0  0  0  0  0  0  0  0  0  0  0  0
  -22.7500  -12.0920   22.5030 H   0  0  0  0  0  0  0  0  0  0  0  0
  -21.4260  -13.2140   22.3800 H   0  0  0  0  0  0  0  0  0  0  0  0
  -25.6030  -15.3610   20.3100 N   0  0  0  0  0  0  0  0  0  0  0  0
  -24.8280  -16.0000   20.4580 H   0  0  0  0  0  0  0  0  0  0  0  0
  -26.4150  -15.8090   19.9110 H   0  0  0  0  0  0  0  0  0  0  0  0
  -30.3980  -17.2810   18.1030 C   0  0  0  0  0  0  0  0  0  0  0  0
  -31.5740  -17.8550   17.3390 C   0  0  0  0  0  1  0  0  0  0  0  0
  -29.4110  -16.7770   17.4940 N   0  0  0  0  0  0  0  0  0  0  0  0
  -28.6960  -16.4300   18.1220 H   0  0  0  0  0  0  0  0  0  0  0  0
  -28.9680  -21.0840   20.2540 C   0  0  0  0  0  3  0  0  0  0  0  0
  -29.5690  -22.5820   20.2650 C   0  0  0  0  0  3  0  0  0  0  0  0
  -28.6370  -23.8970   20.0740 C   0  0  0  0  0  2  0  0  0  0  0  0
  -28.4070  -25.2620   20.9160 C   0  0  0  0  0  2  0  0  0  0  0  0
  -28.5590  -26.6160   20.3210 O   0  0  0  0  0  0  0  0  0  0  0  0
  -24.6050  -31.9320   23.2380 C   0  0  0  0  0  0  0  0  0  0  0  0
  -27.4270  -27.4400   20.2770 C   0  0  0  0  0  0  0  0  0  0  0  0
  -23.4920  -30.5010   21.5620 C   0  0  0  0  0  3  0  0  0  0  0  0
  -25.0250  -28.9830   20.1880 C   0  0  0  0  0  0  0  0  0  0  0  0
  -26.0240  -30.8860   21.4570 C   0  0  0  0  0  2  0  0  0  0  0  0
  -26.1620  -29.5090   20.8150 C   0  0  0  0  0  0  0  0  0  0  0  0
  -27.3720  -28.7500   20.8450 C   0  0  0  0  0  3  0  0  0  0  0  0
  -26.2690  -26.9590   19.6320 C   0  0  0  0  0  3  0  0  0  0  0  0
  -25.0800  -27.7140   19.5850 C   0  0  0  0  0  3  0  0  0  0  0  0
  -23.7660  -29.8270   20.1930 C   0  0  0  0  0  2  0  0  0  0  0  0
  -24.7240  -31.1240   22.1430 N   0  0  0  0  0  0  0  0  0  0  0  0
  -23.5010  -32.1800   23.7400 O   0  0  0  0  0  0  0  0  0  0  0  0
  -22.8230  -29.4690   22.5030 C   0  0  0  0  0  0  0  0  0  0  0  0
  -21.5030  -29.2750   22.3480 N   0  0  0  0  0  0  0  0  0  0  0  0
  -23.4940  -28.8460   23.3310 O   0  0  0  0  0  0  0  0  0  0  0  0
  -21.0200  -29.8300   21.6540 H   0  0  0  0  0  0  0  0  0  0  0  0
  -18.1230  -28.0710   22.8110 C   0  0  0  0  0  0  0  0  0  0  0  0
  -20.6800  -28.3210   23.0940 C   0  0  0  0  0  3  0  0  0  0  0  0
  -20.7840  -26.9020   22.4890 C   0  0  0  0  0  2  0  0  0  0  0  0
  -19.6860  -26.6030   21.4630 C   0  0  0  0  0  2  0  0  0  0  0  0
  -18.3020  -26.7360   22.1070 C   0  0  0  0  0  2  0  0  0  0  0  0
  -19.2410  -28.8220   23.2600 C   0  0  0  0  0  0  0  0  0  0  0  0
  -19.0240  -30.0720   23.8800 C   0  0  0  0  0  3  0  0  0  0  0  0
  -17.7190  -30.5720   24.0530 C   0  0  0  0  0  3  0  0  0  0  0  0
  -16.6150  -29.8160   23.6210 C   0  0  0  0  0  3  0  0  0  0  0  0
  -16.8180  -28.5690   23.0060 C   0  0  0  0  0  3  0  0  0  0  0  0
  -25.8520  -32.5970   23.8980 C   0  0  0  0  0  3  0  0  0  0  0  0
  -25.5080  -33.9950   24.1930 N   0  0  0  0  0  0  0  0  0  0  0  0
  -25.8570  -35.0410   23.4340 C   0  0  0  0  0  0  0  0  0  0  0  0
  -26.5720  -34.9330   22.4350 O   0  0  0  0  0  0  0  0  0  0  0  0
  -24.8770  -34.1500   24.9650 H   0  0  0  0  0  0  0  0  0  0  0  0
  -24.1300  -36.8080   22.9680 C   0  0  0  0  0  1  0  0  0  0  0  0
  -25.3310  -36.4270   23.8490 C   0  0  0  0  0  3  0  0  0  0  0  0
  -27.4040  -37.3530   24.7840 C   0  0  0  0  0  1  0  0  0  0  0  0
  -26.3540  -37.4940   23.7780 N   0  0  0  0  0  0  0  0  0  0  0  0
  -25.9290  -38.4100   23.8900 H   0  0  0  0  0  0  0  0  0  0  0  0
  -26.3300  -31.8570   25.2080 C   0  0  1  0  0  0  0  0  0  0  0  0
  -25.1970  -31.6120   26.2310 C   0  0  0  0  0  1  0  0  0  0  0  0
  -26.9580  -30.4860   24.8620 C   0  0  0  0  0  1  0  0  0  0  0  0
  -27.4350  -32.6840   25.9050 C   0  0  0  0  0  1  0  0  0  0  0  0
  1 49  1  0
  1  3  1  0
  2  1  1  0
  4 16  1  0
  5 10  1  0
  6  7  1  0
  6  5  1  0
  8  7  1  0
  8 20  1  0
  8  9  1  0
 10  4  1  0
 10  9  1  0
 11  4  2  0
 13 12  1  0
 14 45  1  0
 14 15  1  0
 14 16  1  0
 15  1  1  0
 15 12  1  0
 16 13  1  0
 17 18  2  0
 18 37  1  0
 19 18  1  0
 19 22  1  0
 20 21  1  0
 20 17  1  0
 21 19  2  0
 22 23  1  0
 23 24  2  0
 25 28  1  0
 25 24  1  0
 26 25  2  0
 27 26  1  0
 27 22  2  0
 28 29  1  0
 29 34  2  0
 29 30  1  0
 30 31  2  0
 31 32  1  0
 32 36  1  0
 33 32  2  0
 34 33  1  0
 35 34  1  0
 37 38  1  0
 38 41  1  0
 38 40  1  0
 39 37  2  0
 42 43  1  0
 42 17  1  0
 44 42  1  0
 46 45  1  0
 47 45  2  0
 47 48  1  0
 49 50  2  0
 51 50  1  0
 51 52  1  0
 53 52  1  0
 54 65  2  0
 55 53  1  0
 55 60  1  0
 56 64  1  0
 56 66  1  0
 57 63  1  0
 57 59  1  0
 58 64  1  0
 59 60  2  0
 59 58  1  0
 61 55  2  0
 62 61  1  0
 62 57  2  0
 63 56  1  0
 64 54  1  0
 66 68  2  0
 67 66  1  0
 69 67  1  0
 70 79  2  0
 70 75  1  0
 71 67  1  0
 71 75  1  0
 72 71  1  0
 73 74  1  0
 73 72  1  0
 74 70  1  0
 75 76  2  0
 76 77  1  0
 78 77  2  0
 79 78  1  0
 80 54  1  0
 80 81  1  0
 80 90  1  0
 81 84  1  0
 82 86  1  0
 82 81  1  0
 83 82  2  0
 86 85  1  0
 88 86  1  0
 88 89  1  0
 88 87  1  0
 90 93  1  1
 90 91  1  0
 92 90  1  0
M  ISO  4   4 100  16 100  52 101  53 101
M  END
>  <TORSDO>  (2) 
F 21

>  <SCORE>  (2) 
-11.646

>  <name>  (2) 
1

>  <ligand_id>  (2) 
1

>  <original_smiles>  (2) 
[H]N=C(C([H])([H])[H])C1([H])N(C(=O)N2C([H])([H])C([H])([H])C([H])([H])C([H])(n3nc(-c4c([H])c([H])c(Oc5c([H])c([H])c(F)c([H])c5F)c([H])c4[H])c(C(=O)N([H])[H])c3N([H])[H])C2([H])[H])C([H])([H])C([H])([H])C1([H])[N+]([H])([H])C([H])([H])C([H])([H])C([H])([H])C([H])([H])Oc1c([H])c([H])c2c(c1[H])C([H])([H])N(C(=O)C([H])(N([H])C(=O)C([H])(N([H])C([H])([H])[H])C([H])([H])[H])C(C([H])([H])[H])(C([H])([H])[H])C([H])([H])[H])C([H])(C(=O)N([H])C1([H])c3c([H])c([H])c([H])c([H])c3C([H])([H])C([H])([H])C1([H])[H])C2([H])[H]

>  <smiles>  (2) 
[H]N=C(C([H])([H])[H])C1([H])N(C(=O)N2C([H])([H])C([H])([H])C([H])([H])C([H])(n3nc(-c4c([H])c([H])c(Oc5c([H])c([H])c(F)c([H])c5F)c([H])c4[H])c(C(=O)N([H])[H])c3N([H])[H])C2([H])[H])C([H])([H])C([H])([H])C1([H])[N+]([H])([H])C([H])([H])C([H])([H])C([H])([H])C([H])([H])Oc1c([H])c([H])c2c(c1[H])C([H])([H])N(C(=O)C([H])(N([H])C(=O)C([H])(N([H])C([H])([H])[H])C([H])([H])[H])C(C([H])([H])[H])(C([H])([H])[H])C([H])([H])[H])C([H])(C(=O)N([H])C1([H])c3c([H])c([H])c([H])c([H])c3C([H])([H])C([H])([H])C1([H])[H])C2([H])[H]

$$$$
2:0:0
     RDKit          3D

 97104  0  0  1  0  0  0  0  0999 V2000
  -26.7240  -22.4090   21.5780 C   0  0  0  0  0  0  0  0  0  0  0  0
  -27.3780  -23.1610   22.4730 N   0  0  0  0  0  0  0  0  0  0  0  0
  -25.6730  -22.7720   21.0430 O   0  0  0  0  0  0  0  0  0  0  0  0
  -28.2330  -22.7890   22.8640 H   0  0  0  0  0  0  0  0  0  0  0  0
  -27.3220  -21.0300   21.2510 C   0  0  0  0  0  2  0  0  0  0  0  0
  -27.7400  -20.8140   19.7700 C   0  0  0  0  0  3  0  0  0  0  0  0
  -26.5890  -20.9350   18.8480 N   0  0  0  0  0  4  0  0  0  0  0  0
  -25.9760  -20.1390   18.9100 H   0  0  0  0  0  0  0  0  0  0  0  0
  -26.8930  -21.0300   17.8950 H   0  0  0  0  0  0  0  0  0  0  0  0
  -26.0660  -21.7630   19.0950 H   0  0  0  0  0  0  0  0  0  0  0  0
  -28.4530  -19.4590   19.5380 C   0  0  0  0  0  2  0  0  0  0  0  0
  -29.8140  -19.2770   20.2420 C   0  0  0  0  0  2  0  0  0  0  0  0
  -30.2770  -17.8170   20.1970 C   0  0  0  0  0  2  0  0  0  0  0  0
  -31.5970  -17.5350   20.9410 C   0  0  0  0  0  2  0  0  0  0  0  0
  -32.1330  -15.1770   20.3840 C   0  0  0  0  0  0  0  0  0  0  0  0
  -31.7210  -12.9220   19.4740 C   0  0  0  0  0  2  0  0  0  0  0  0
  -30.8610  -13.0090   18.1990 C   0  0  0  0  0  2  0  0  0  0  0  0
  -29.3600  -13.0420   18.5440 C   0  0  0  0  0  2  0  0  0  0  0  0
  -29.0260  -14.0930   19.6320 C   0  0  0  0  0  3  0  0  0  0  0  0
  -29.9860  -13.9460   20.8340 C   0  0  0  0  0  2  0  0  0  0  0  0
  -31.3800  -14.0500   20.3490 N   0  0  0  0  0  0  0  0  0  0  0  0
  -33.1560  -15.3530   19.7140 O   0  0  0  0  0  0  0  0  0  0  0  0
  -31.6510  -16.1060   21.2150 N   0  0  0  0  0  0  0  0  0  0  0  0
  -30.9500  -15.7610   21.8530 H   0  0  0  0  0  0  0  0  0  0  0  0
  -26.7050  -15.0250   20.2640 C   0  0  0  0  0  0  0  0  0  0  0  0
  -25.5250  -14.4030   20.5730 C   0  0  0  0  0  0  0  0  0  0  0  0
  -25.7900  -13.0010   20.5070 C   0  0  0  0  0  0  0  0  0  0  0  0
  -27.6260  -14.0110   20.0450 N   0  0  0  0  0  0  0  0  0  0  0  0
  -27.0710  -12.7870   20.2410 N   0  0  0  0  0  0  0  0  0  0  0  0
  -24.8850  -11.8500   20.6250 C   0  0  0  0  0  0  0  0  0  0  0  0
  -25.1430  -10.8050   21.5390 C   0  0  0  0  0  3  0  0  0  0  0  0
  -24.2530   -9.7150   21.6510 C   0  0  0  0  0  3  0  0  0  0  0  0
  -23.0880   -9.6660   20.8480 C   0  0  0  0  0  0  0  0  0  0  0  0
  -22.8460  -10.6990   19.9250 C   0  0  0  0  0  3  0  0  0  0  0  0
  -23.7360  -11.7800   19.8110 C   0  0  0  0  0  3  0  0  0  0  0  0
  -22.1790   -8.6360   20.8690 O   0  0  0  0  0  0  0  0  0  0  0  0
  -21.9500   -7.9020   22.0040 C   0  0  0  0  0  0  0  0  0  0  0  0
  -21.5500   -8.5060   23.2160 C   0  0  0  0  0  3  0  0  0  0  0  0
  -21.2600   -7.7070   24.3390 C   0  0  0  0  0  3  0  0  0  0  0  0
  -21.3570   -6.3060   24.2510 C   0  0  0  0  0  0  0  0  0  0  0  0
  -21.7500   -5.7010   23.0450 C   0  0  0  0  0  3  0  0  0  0  0  0
  -22.0440   -6.4980   21.9240 C   0  0  0  0  0  0  0  0  0  0  0  0
  -22.4010   -5.9100   20.7570 F   0  0  0  0  0  0  0  0  0  0  0  0
  -21.0690   -5.5370   25.3260 F   0  0  0  0  0  0  0  0  0  0  0  0
  -24.2000  -15.0640   20.8210 C   0  0  0  0  0  0  0  0  0  0  0  0
  -23.3550  -14.4510   21.6430 N   0  0  0  0  0  0  0  0  0  0  0  0
  -23.9260  -16.1570   20.3260 O   0  0  0  0  0  0  0  0  0  0  0  0
  -23.5940  -13.5660   22.0670 H   0  0  0  0  0  0  0  0  0  0  0  0
  -22.4600  -14.8710   21.8500 H   0  0  0  0  0  0  0  0  0  0  0  0
  -27.0670  -16.3610   20.1330 N   0  0  0  0  0  0  0  0  0  0  0  0
  -26.3800  -17.1060   20.1840 H   0  0  0  0  0  0  0  0  0  0  0  0
  -27.9760  -16.6760   19.8240 H   0  0  0  0  0  0  0  0  0  0  0  0
  -26.9390  -24.4560   22.9870 C   0  0  0  0  0  2  0  0  0  0  0  0
  -27.9620  -25.5670   22.6940 C   0  0  0  0  0  2  0  0  0  0  0  0
  -28.3710  -25.6360   21.2120 C   0  0  0  0  0  2  0  0  0  0  0  0
  -29.1720  -26.8970   20.8440 C   0  0  0  0  0  2  0  0  0  0  0  0
  -28.7000  -27.4190   19.6000 O   0  0  0  0  0  0  0  0  0  0  0  0
  -24.7270  -31.9120   23.4000 C   0  0  0  0  0  0  0  0  0  0  0  0
  -27.5170  -28.1060   19.7100 C   0  0  0  0  0  0  0  0  0  0  0  0
  -23.5510  -30.6920   21.5930 C   0  0  0  0  0  3  0  0  0  0  0  0
  -25.0480  -29.4380   19.9510 C   0  0  0  0  0  0  0  0  0  0  0  0
  -26.0420  -31.2140   21.4060 C   0  0  0  0  0  2  0  0  0  0  0  0
  -26.1810  -29.9460   20.5960 C   0  0  0  0  0  0  0  0  0  0  0  0
  -27.4190  -29.2860   20.4790 C   0  0  0  0  0  3  0  0  0  0  0  0
  -26.3770  -27.6140   19.0450 C   0  0  0  0  0  3  0  0  0  0  0  0
  -25.1360  -28.2690   19.1730 C   0  0  0  0  0  3  0  0  0  0  0  0
  -23.7630  -30.2120   20.1330 C   0  0  0  0  0  2  0  0  0  0  0  0
  -24.7920  -31.2790   22.1950 N   0  0  0  0  0  0  0  0  0  0  0  0
  -23.6460  -32.0550   23.9870 O   0  0  0  0  0  0  0  0  0  0  0  0
  -22.9660  -29.5230   22.4170 C   0  0  0  0  0  0  0  0  0  0  0  0
  -21.6570  -29.2760   22.2540 N   0  0  0  0  0  0  0  0  0  0  0  0
  -23.6870  -28.8440   23.1540 O   0  0  0  0  0  0  0  0  0  0  0  0
  -21.1350  -29.8740   21.6280 H   0  0  0  0  0  0  0  0  0  0  0  0
  -18.3720  -27.8040   22.5290 C   0  0  0  0  0  0  0  0  0  0  0  0
  -20.9000  -28.2030   22.8940 C   0  0  0  0  0  3  0  0  0  0  0  0
  -21.1110  -26.8570   22.1610 C   0  0  0  0  0  2  0  0  0  0  0  0
  -20.0550  -26.5850   21.0860 C   0  0  0  0  0  2  0  0  0  0  0  0
  -18.6560  -26.5580   21.7070 C   0  0  0  0  0  2  0  0  0  0  0  0
  -19.4260  -28.5860   23.0750 C   0  0  0  0  0  0  0  0  0  0  0  0
  -19.1070  -29.7590   23.7920 C   0  0  0  0  0  3  0  0  0  0  0  0
  -17.7660  -30.1470   23.9770 C   0  0  0  0  0  3  0  0  0  0  0  0
  -16.7270  -29.3610   23.4500 C   0  0  0  0  0  3  0  0  0  0  0  0
  -17.0310  -28.1890   22.7320 C   0  0  0  0  0  3  0  0  0  0  0  0
  -25.9990  -32.5080   24.0850 C   0  0  0  0  0  3  0  0  0  0  0  0
  -26.5120  -31.6470   25.3030 C   0  0  1  0  0  0  0  0  0  0  0  0
  -25.4020  -31.2860   26.3180 C   0  0  0  0  0  1  0  0  0  0  0  0
  -27.1430  -30.3280   24.8020 C   0  0  0  0  0  1  0  0  0  0  0  0
  -27.6240  -32.4130   26.0580 C   0  0  0  0  0  1  0  0  0  0  0  0
  -25.6720  -33.8760   24.5100 N   0  0  0  0  0  0  0  0  0  0  0  0
  -26.0280  -34.9830   23.8430 C   0  0  0  0  0  0  0  0  0  0  0  0
  -26.7380  -34.9560   22.8340 O   0  0  0  0  0  0  0  0  0  0  0  0
  -25.0440  -33.9680   25.2960 H   0  0  0  0  0  0  0  0  0  0  0  0
  -24.3110  -36.7940   23.5560 C   0  0  0  0  0  1  0  0  0  0  0  0
  -25.5200  -36.3320   24.3850 C   0  0  0  0  0  3  0  0  0  0  0  0
  -27.6240  -37.1440   25.3580 C   0  0  0  0  0  1  0  0  0  0  0  0
  -26.5540  -37.3910   24.3940 N   0  0  0  0  0  0  0  0  0  0  0  0
  -26.1400  -38.2960   24.6050 H   0  0  0  0  0  0  0  0  0  0  0  0
  1  2  1  0
  2  4  1  0
  2 53  1  0
  3  1  2  0
  5  1  1  0
  6 11  1  0
  6  5  1  0
  7  8  1  0
  7 10  1  0
  7  6  1  0
  9  7  1  0
 11 12  1  0
 13 12  1  0
 13 14  1  0
 14 23  1  0
 15 23  1  0
 16 21  1  0
 17 18  1  0
 17 16  1  0
 19 18  1  0
 19 28  1  0
 19 20  1  0
 21 15  1  0
 21 20  1  0
 22 15  2  0
 23 24  1  0
 25 26  2  0
 26 45  1  0
 27 26  1  0
 27 30  1  0
 28 29  1  0
 28 25  1  0
 29 27  2  0
 30 31  1  0
 31 32  2  0
 33 36  1  0
 33 32  1  0
 34 33  2  0
 35 34  1  0
 35 30  2  0
 36 37  1  0
 37 38  1  0
 38 39  2  0
 40 39  1  0
 40 44  1  0
 41 40  2  0
 42 37  2  0
 42 41  1  0
 43 42  1  0
 45 46  1  0
 46 49  1  0
 46 48  1  0
 47 45  2  0
 50 51  1  0
 50 25  1  0
 52 50  1  0
 54 53  1  0
 55 54  1  0
 56 55  1  0
 57 59  1  0
 57 56  1  0
 58 69  2  0
 59 64  1  0
 60 68  1  0
 60 70  1  0
 61 67  1  0
 61 63  1  0
 62 68  1  0
 63 62  1  0
 64 63  2  0
 65 66  1  0
 65 59  2  0
 66 61  2  0
 67 60  1  0
 68 58  1  0
 70 72  2  0
 71 70  1  0
 73 71  1  0
 74 83  2  0
 74 79  1  0
 75 71  1  0
 75 79  1  0
 76 75  1  0
 77 78  1  0
 77 76  1  0
 78 74  1  0
 79 80  2  0
 80 81  1  0
 82 81  2  0
 83 82  1  0
 84 58  1  0
 84 89  1  0
 84 85  1  0
 85 88  1  1
 85 86  1  0
 87 85  1  0
 89 92  1  0
 90 94  1  0
 90 89  1  0
 91 90  2  0
 94 93  1  0
 94 96  1  0
 96 97  1  0
 96 95  1  0
M  ISO  4  15 100  23 100  56 101  57 101
M  END
>  <TORSDO>  (3) 
F 27

>  <SCORE>  (3) 
-6.328

>  <name>  (3) 
2

>  <ligand_id>  (3) 
2

>  <original_smiles>  (3) 
[H]c1c([H])c([H])c2c(c1[H])C([H])([H])C([H])([H])C([H])([H])C2([H])N([H])C(=O)C1([H])N(C(=O)C([H])(N([H])C(=O)C([H])(N([H])C([H])([H])[H])C([H])([H])[H])C(C([H])([H])[H])(C([H])([H])[H])C([H])([H])[H])C([H])([H])c2c([H])c(OC([H])([H])C([H])([H])C([H])([H])C([H])([H])N([H])C(=O)C([H])([H])C([H])(C([H])([H])C([H])([H])C([H])([H])C([H])([H])N([H])C(=O)N3C([H])([H])C([H])([H])C([H])([H])C([H])(n4nc(-c5c([H])c([H])c(Oc6c([H])c([H])c(F)c([H])c6F)c([H])c5[H])c(C(=O)N([H])[H])c4N([H])[H])C3([H])[H])[N+]([H])([H])[H])c([H])c([H])c2C1([H])[H]

>  <smiles>  (3) 
[H]c1c([H])c([H])c2c(c1[H])C([H])([H])C([H])([H])C([H])([H])C2([H])N([H])C(=O)C1([H])N(C(=O)C([H])(N([H])C(=O)C([H])(N([H])C([H])([H])[H])C([H])([H])[H])C(C([H])([H])[H])(C([H])([H])[H])C([H])([H])[H])C([H])([H])c2c([H])c(OC([H])([H])C([H])([H])C([H])([H])C([H])([H])N([H])C(=O)C([H])([H])C([H])(C([H])([H])C([H])([H])C([H])([H])C([H])([H])N([H])C(=O)N3C([H])([H])C([H])([H])C([H])([H])C([H])(n4nc(-c5c([H])c([H])c(Oc6c([H])c([H])c(F)c([H])c6F)c([H])c5[H])c(C(=O)N([H])[H])c4N([H])[H])C3([H])[H])[N+]([H])([H])[H])c([H])c([H])c2C1([H])[H]

$$$$
3:0:0
     RDKit          3D

 93101  0  0  1  0  0  0  0  0999 V2000
  -27.3520  -19.7320   19.8700 C   0  0  0  0  0  2  0  0  0  0  0  0
  -27.6010  -20.9980   20.7130 C   0  0  0  0  0  2  0  0  0  0  0  0
  -28.6960  -19.4630   19.1450 C   0  0  0  0  0  3  0  0  0  0  0  0
  -29.7510  -20.0720   20.1030 C   0  0  0  0  0  3  0  0  0  0  0  0
  -28.9810  -21.3780   20.3740 N   0  0  2  0  0  4  0  0  0  0  0  0
  -28.8690  -21.6490   19.4090 H   0  0  0  0  0  0  0  0  0  0  0  0
  -27.9400  -17.6030   17.5410 C   0  0  0  0  0  1  0  0  0  0  0  0
  -28.9110  -18.0170   18.6530 C   0  0  0  0  0  2  0  0  0  0  0  0
  -30.0630  -18.9740   21.2620 C   0  0  0  0  0  2  0  0  0  0  0  0
  -31.0260  -17.6980   20.9230 C   0  0  0  0  0  2  0  0  0  0  0  0
  -31.2950  -15.1080   20.7430 C   0  0  0  0  0  0  0  0  0  0  0  0
  -31.0460  -12.9200   19.5620 C   0  0  0  0  0  2  0  0  0  0  0  0
  -30.1740  -13.1180   18.3020 C   0  0  0  0  0  2  0  0  0  0  0  0
  -28.6830  -12.9610   18.6530 C   0  0  0  0  0  2  0  0  0  0  0  0
  -28.2820  -13.7840   19.9080 C   0  0  0  0  0  3  0  0  0  0  0  0
  -29.2830  -13.5900   21.0710 C   0  0  0  0  0  2  0  0  0  0  0  0
  -30.6200  -13.9250   20.5640 N   0  0  0  0  0  0  0  0  0  0  0  0
  -32.4840  -15.1980   20.4240 O   0  0  0  0  0  0  0  0  0  0  0  0
  -30.5750  -16.2450   21.0740 N   0  0  0  0  0  0  0  0  0  0  0  0
  -29.6040  -16.0900   21.3010 H   0  0  0  0  0  0  0  0  0  0  0  0
  -25.8720  -14.4060   20.5310 C   0  0  0  0  0  0  0  0  0  0  0  0
  -24.7740  -13.6430   20.8240 C   0  0  0  0  0  0  0  0  0  0  0  0
  -25.2160  -12.2850   20.7790 C   0  0  0  0  0  0  0  0  0  0  0  0
  -26.9100  -13.5110   20.3210 N   0  0  0  0  0  0  0  0  0  0  0  0
  -26.5200  -12.2300   20.5360 N   0  0  0  0  0  0  0  0  0  0  0  0
  -24.4580  -11.0310   20.8990 C   0  0  0  0  0  0  0  0  0  0  0  0
  -24.8020  -10.0490   21.8560 C   0  0  0  0  0  3  0  0  0  0  0  0
  -24.0470   -8.8600   21.9650 C   0  0  0  0  0  3  0  0  0  0  0  0
  -22.9340   -8.6480   21.1170 C   0  0  0  0  0  0  0  0  0  0  0  0
  -22.6090   -9.6170   20.1550 C   0  0  0  0  0  3  0  0  0  0  0  0
  -23.3630  -10.7980   20.0420 C   0  0  0  0  0  3  0  0  0  0  0  0
  -22.1580   -7.5140   21.1340 O   0  0  0  0  0  0  0  0  0  0  0  0
  -21.9510   -6.7990   22.2870 C   0  0  0  0  0  0  0  0  0  0  0  0
  -21.3190   -7.3710   23.4130 C   0  0  0  0  0  3  0  0  0  0  0  0
  -21.0650   -6.5820   24.5540 C   0  0  0  0  0  3  0  0  0  0  0  0
  -21.4290   -5.2220   24.5650 C   0  0  0  0  0  0  0  0  0  0  0  0
  -22.0530   -4.6510   23.4430 C   0  0  0  0  0  3  0  0  0  0  0  0
  -22.3110   -5.4360   22.3060 C   0  0  0  0  0  0  0  0  0  0  0  0
  -22.8940   -4.8750   21.2180 F   0  0  0  0  0  0  0  0  0  0  0  0
  -21.1780   -4.4630   25.6570 F   0  0  0  0  0  0  0  0  0  0  0  0
  -23.3730  -14.1390   21.0340 C   0  0  0  0  0  0  0  0  0  0  0  0
  -22.5910  -13.4400   21.8490 N   0  0  0  0  0  0  0  0  0  0  0  0
  -22.9790  -15.1810   20.5110 O   0  0  0  0  0  0  0  0  0  0  0  0
  -22.9200  -12.5920   22.2890 H   0  0  0  0  0  0  0  0  0  0  0  0
  -21.6490  -13.7550   22.0350 H   0  0  0  0  0  0  0  0  0  0  0  0
  -26.0690  -15.7770   20.3970 N   0  0  0  0  0  0  0  0  0  0  0  0
  -25.2990  -16.4320   20.4610 H   0  0  0  0  0  0  0  0  0  0  0  0
  -26.9190  -16.2020   20.0540 H   0  0  0  0  0  0  0  0  0  0  0  0
  -29.4930  -22.7240   20.9000 C   0  0  0  0  0  3  0  0  0  0  0  0
  -28.8680  -24.0720   20.2130 C   0  0  0  0  0  3  0  0  0  0  0  0
  -28.1900  -25.5160   22.2740 C   0  0  0  0  0  1  0  0  0  0  0  0
  -28.9700  -25.5070   20.9480 C   0  0  0  0  0  3  0  0  0  0  0  0
  -28.7910  -26.8130   20.2300 O   0  0  0  0  0  0  0  0  0  0  0  0
  -24.6540  -31.9080   23.3240 C   0  0  0  0  0  0  0  0  0  0  0  0
  -27.6060  -27.5690   20.2500 C   0  0  0  0  0  0  0  0  0  0  0  0
  -23.5780  -30.5080   21.5930 C   0  0  0  0  0  3  0  0  0  0  0  0
  -25.1560  -29.0550   20.1920 C   0  0  0  0  0  0  0  0  0  0  0  0
  -26.1010  -30.9510   21.5150 C   0  0  0  0  0  2  0  0  0  0  0  0
  -26.2760  -29.5930   20.8410 C   0  0  0  0  0  0  0  0  0  0  0  0
  -27.5030  -28.8630   20.8580 C   0  0  0  0  0  3  0  0  0  0  0  0
  -26.4660  -27.0810   19.5810 C   0  0  0  0  0  3  0  0  0  0  0  0
  -25.2520  -27.8030   19.5560 C   0  0  0  0  0  3  0  0  0  0  0  0
  -23.8780  -29.8740   20.2080 C   0  0  0  0  0  2  0  0  0  0  0  0
  -24.7930  -31.1390   22.2010 N   0  0  0  0  0  0  0  0  0  0  0  0
  -23.5410  -32.1150   23.8260 O   0  0  0  0  0  0  0  0  0  0  0  0
  -22.9290  -29.4370   22.5010 C   0  0  0  0  0  0  0  0  0  0  0  0
  -21.6210  -29.1880   22.3060 N   0  0  0  0  0  0  0  0  0  0  0  0
  -23.6000  -28.8290   23.3380 O   0  0  0  0  0  0  0  0  0  0  0  0
  -21.1300  -29.7250   21.6050 H   0  0  0  0  0  0  0  0  0  0  0  0
  -18.2990  -27.8020   22.6430 C   0  0  0  0  0  0  0  0  0  0  0  0
  -20.8280  -28.1840   23.0160 C   0  0  0  0  0  3  0  0  0  0  0  0
  -21.0260  -26.7800   22.3980 C   0  0  0  0  0  2  0  0  0  0  0  0
  -19.9810  -26.4370   21.3330 C   0  0  0  0  0  2  0  0  0  0  0  0
  -18.5700  -26.4890   21.9280 C   0  0  0  0  0  2  0  0  0  0  0  0
  -19.3600  -28.6050   23.1390 C   0  0  0  0  0  0  0  0  0  0  0  0
  -19.0550  -29.8330   23.7660 C   0  0  0  0  0  3  0  0  0  0  0  0
  -17.7210  -30.2610   23.9020 C   0  0  0  0  0  3  0  0  0  0  0  0
  -16.6740  -29.4570   23.4200 C   0  0  0  0  0  3  0  0  0  0  0  0
  -16.9630  -28.2290   22.7970 C   0  0  0  0  0  3  0  0  0  0  0  0
  -25.8820  -32.5790   24.0130 C   0  0  0  0  0  3  0  0  0  0  0  0
  -25.5210  -33.9740   24.3030 N   0  0  0  0  0  0  0  0  0  0  0  0
  -25.8880  -35.0270   23.5590 C   0  0  0  0  0  0  0  0  0  0  0  0
  -26.6330  -34.9270   22.5800 O   0  0  0  0  0  0  0  0  0  0  0  0
  -24.8710  -34.1270   25.0610 H   0  0  0  0  0  0  0  0  0  0  0  0
  -24.1630  -36.7860   23.0560 C   0  0  0  0  0  1  0  0  0  0  0  0
  -25.3440  -36.4100   23.9660 C   0  0  0  0  0  3  0  0  0  0  0  0
  -27.3840  -37.3510   24.9580 C   0  0  0  0  0  1  0  0  0  0  0  0
  -26.3630  -37.4810   23.9210 N   0  0  0  0  0  0  0  0  0  0  0  0
  -25.9290  -38.3960   24.0140 H   0  0  0  0  0  0  0  0  0  0  0  0
  -26.3380  -31.8390   25.3300 C   0  0  1  0  0  0  0  0  0  0  0  0
  -25.1810  -31.5580   26.3180 C   0  0  0  0  0  1  0  0  0  0  0  0
  -27.0130  -30.4870   24.9990 C   0  0  0  0  0  1  0  0  0  0  0  0
  -27.3980  -32.6880   26.0710 C   0  0  0  0  0  1  0  0  0  0  0  0
  1  2  1  0
  3  8  1  0
  3  1  1  0
  3  4  1  0
  4  5  1  0
  4  9  1  0
  5  2  1  0
  5 49  1  0
  5  6  1  6
  7  8  1  0
 10 19  1  0
 10  9  1  0
 11 19  1  0
 12 17  1  0
 13 14  1  0
 13 12  1  0
 15 14  1  0
 15 24  1  0
 15 16  1  0
 17 11  1  0
 17 16  1  0
 18 11  2  0
 19 20  1  0
 21 22  2  0
 22 41  1  0
 23 22  1  0
 23 26  1  0
 24 21  1  0
 24 25  1  0
 25 23  2  0
 26 27  1  0
 27 28  2  0
 29 32  1  0
 29 28  1  0
 30 29  2  0
 31 30  1  0
 31 26  2  0
 32 33  1  0
 33 38  2  0
 33 34  1  0
 34 35  2  0
 35 36  1  0
 36 40  1  0
 37 36  2  0
 38 37  1  0
 39 38  1  0
 41 42  1  0
 42 45  1  0
 42 44  1  0
 43 41  2  0
 46 47  1  0
 46 21  1  0
 48 46  1  0
 50 49  2  0
 50 52  1  0
 52 51  1  0
 53 55  1  0
 53 52  1  0
 54 65  2  0
 55 60  1  0
 56 64  1  0
 56 66  1  0
 57 63  1  0
 57 59  1  0
 58 64  1  0
 59 60  2  0
 59 58  1  0
 61 55  2  0
 62 61  1  0
 62 57  2  0
 63 56  1  0
 64 54  1  0
 66 68  2  0
 67 66  1  0
 69 67  1  0
 70 79  2  0
 70 75  1  0
 71 67  1  0
 71 75  1  0
 72 71  1  0
 73 74  1  0
 73 72  1  0
 74 70  1  0
 75 76  2  0
 76 77  1  0
 78 77  2  0
 79 78  1  0
 80 54  1  0
 80 81  1  0
 80 90  1  0
 81 84  1  0
 82 86  1  0
 82 81  1  0
 83 82  2  0
 86 85  1  0
 88 86  1  0
 88 89  1  0
 88 87  1  0
 90 93  1  1
 90 91  1  0
 92 90  1  0
M  ISO  4  11 100  19 100  52 101  53 101
M  END
>  <TORSDO>  (4) 
F 22

>  <SCORE>  (4) 
-11.355

>  <name>  (4) 
3

>  <ligand_id>  (4) 
3

>  <original_smiles>  (4) 
[H]c1c([H])c([H])c2c(c1[H])C([H])([H])C([H])([H])C([H])([H])C2([H])N([H])C(=O)C1([H])N(C(=O)C([H])(N([H])C(=O)C([H])(N([H])C([H])([H])[H])C([H])([H])[H])C(C([H])([H])[H])(C([H])([H])[H])C([H])([H])[H])C([H])([H])c2c([H])c(OC([H])(C([H])([H])[H])C([H])([H])C([H])([H])[N+]3([H])C([H])([H])C([H])([H])C([H])(C([H])([H])C([H])([H])[H])C3([H])C([H])([H])C([H])([H])N([H])C(=O)N3C([H])([H])C([H])([H])C([H])([H])C([H])(n4nc(-c5c([H])c([H])c(Oc6c([H])c([H])c(F)c([H])c6F)c([H])c5[H])c(C(=O)N([H])[H])c4N([H])[H])C3([H])[H])c([H])c([H])c2C1([H])[H]

>  <smiles>  (4) 
[H]c1c([H])c([H])c2c(c1[H])C([H])([H])C([H])([H])C([H])([H])C2([H])N([H])C(=O)C1([H])N(C(=O)C([H])(N([H])C(=O)C([H])(N([H])C([H])([H])[H])C([H])([H])[H])C(C([H])([H])[H])(C([H])([H])[H])C([H])([H])[H])C([H])([H])c2c([H])c(OC([H])(C([H])([H])[H])C([H])([H])C([H])([H])[N+]3([H])C([H])([H])C([H])([H])C([H])(C([H])([H])C([H])([H])[H])C3([H])C([H])([H])C([H])([H])N([H])C(=O)N3C([H])([H])C([H])([H])C([H])([H])C([H])(n4nc(-c5c([H])c([H])c(Oc6c([H])c([H])c(F)c([H])c6F)c([H])c5[H])c(C(=O)N([H])[H])c4N([H])[H])C3([H])[H])c([H])c([H])c2C1([H])[H]

$$$$
4:0:0
     RDKit          3D

 90 98  0  0  1  0  0  0  0  0999 V2000
  -29.6620  -21.1060   20.1480 C   0  0  0  0  0  0  0  0  0  0  0  0
  -30.5900  -21.2360   20.9490 O   0  0  0  0  0  0  0  0  0  0  0  0
  -27.6520  -19.5320   19.7460 C   0  0  0  0  0  2  0  0  0  0  0  0
  -29.1650  -19.7400   19.5720 C   0  0  0  0  0  3  0  0  0  0  0  0
  -29.3600  -18.3110   20.2880 C   0  0  0  0  0  3  0  0  0  0  0  0
  -27.9020  -18.0380   19.8940 C   0  0  0  0  0  3  0  0  0  0  0  0
  -27.1870  -17.4560   20.8590 F   0  0  0  0  0  0  0  0  0  0  0  0
  -30.4100  -17.1860   19.8990 C   0  0  0  0  0  2  0  0  0  0  0  0
  -30.8190  -14.6340   20.0010 C   0  0  0  0  0  0  0  0  0  0  0  0
  -30.4890  -12.4120   18.9480 C   0  0  0  0  0  2  0  0  0  0  0  0
  -29.5200  -12.5690   17.7560 C   0  0  0  0  0  2  0  0  0  0  0  0
  -28.0560  -12.4540   18.2220 C   0  0  0  0  0  2  0  0  0  0  0  0
  -27.7530  -13.3180   19.4750 C   0  0  0  0  0  3  0  0  0  0  0  0
  -28.8400  -13.1470   20.5630 C   0  0  0  0  0  2  0  0  0  0  0  0
  -30.1420  -13.4440   19.9480 N   0  0  0  0  0  0  0  0  0  0  0  0
  -31.9720  -14.7310   19.5740 O   0  0  0  0  0  0  0  0  0  0  0  0
  -30.1010  -15.7620   20.3070 N   0  0  0  0  0  0  0  0  0  0  0  0
  -29.1740  -15.5950   20.6670 H   0  0  0  0  0  0  0  0  0  0  0  0
  -25.3860  -13.9590   20.2410 C   0  0  0  0  0  0  0  0  0  0  0  0
  -24.3180  -13.2080   20.6490 C   0  0  0  0  0  0  0  0  0  0  0  0
  -24.7590  -11.8500   20.6280 C   0  0  0  0  0  0  0  0  0  0  0  0
  -26.4130  -13.0610   19.9960 N   0  0  0  0  0  0  0  0  0  0  0  0
  -26.0410  -11.7870   20.2890 N   0  0  0  0  0  0  0  0  0  0  0  0
  -24.0200  -10.6000   20.8490 C   0  0  0  0  0  0  0  0  0  0  0  0
  -24.4310   -9.6620   21.8210 C   0  0  0  0  0  3  0  0  0  0  0  0
  -23.6940   -8.4770   22.0310 C   0  0  0  0  0  3  0  0  0  0  0  0
  -22.5290   -8.2220   21.2690 C   0  0  0  0  0  0  0  0  0  0  0  0
  -22.1360   -9.1480   20.2860 C   0  0  0  0  0  3  0  0  0  0  0  0
  -22.8750  -10.3240   20.0740 C   0  0  0  0  0  3  0  0  0  0  0  0
  -21.7650   -7.0850   21.3860 O   0  0  0  0  0  0  0  0  0  0  0  0
  -21.6460   -6.4160   22.5770 C   0  0  0  0  0  0  0  0  0  0  0  0
  -21.1680   -7.0500   23.7460 C   0  0  0  0  0  3  0  0  0  0  0  0
  -20.9990   -6.3070   24.9320 C   0  0  0  0  0  3  0  0  0  0  0  0
  -21.2970   -4.9310   24.9500 C   0  0  0  0  0  0  0  0  0  0  0  0
  -21.7690   -4.2970   23.7870 C   0  0  0  0  0  3  0  0  0  0  0  0
  -21.9390   -5.0380   22.6030 C   0  0  0  0  0  0  0  0  0  0  0  0
  -22.3760   -4.4180   21.4810 F   0  0  0  0  0  0  0  0  0  0  0  0
  -21.1250   -4.2150   26.0850 F   0  0  0  0  0  0  0  0  0  0  0  0
  -22.9340  -13.7090   20.9430 C   0  0  0  0  0  0  0  0  0  0  0  0
  -22.2230  -13.0460   21.8500 N   0  0  0  0  0  0  0  0  0  0  0  0
  -22.4920  -14.7230   20.4020 O   0  0  0  0  0  0  0  0  0  0  0  0
  -22.5940  -12.2270   22.3070 H   0  0  0  0  0  0  0  0  0  0  0  0
  -21.2950  -13.3650   22.0920 H   0  0  0  0  0  0  0  0  0  0  0  0
  -25.5620  -15.3220   20.0290 N   0  0  0  0  0  0  0  0  0  0  0  0
  -24.7950  -15.9800   20.1250 H   0  0  0  0  0  0  0  0  0  0  0  0
  -26.3740  -15.7240   19.5820 H   0  0  0  0  0  0  0  0  0  0  0  0
  -28.8950  -22.4030   19.6670 C   0  0  0  0  0  2  0  0  0  0  0  0
  -29.2460  -23.8570   20.2390 C   0  0  0  0  0  3  0  0  0  0  0  0
  -28.2750  -25.0240   19.7610 C   0  0  0  0  0  3  0  0  0  0  0  0
  -28.4570  -26.4410   20.1710 O   0  0  0  0  0  0  0  0  0  0  0  0
  -24.5930  -31.7440   23.2060 C   0  0  0  0  0  0  0  0  0  0  0  0
  -27.3350  -27.2900   20.1020 C   0  0  0  0  0  0  0  0  0  0  0  0
  -23.4460  -30.3710   21.5060 C   0  0  0  0  0  3  0  0  0  0  0  0
  -24.9500  -28.8760   20.0770 C   0  0  0  0  0  0  0  0  0  0  0  0
  -25.9860  -30.7230   21.3920 C   0  0  0  0  0  2  0  0  0  0  0  0
  -26.0980  -29.3620   20.7150 C   0  0  0  0  0  0  0  0  0  0  0  0
  -27.2930  -28.5800   20.7180 C   0  0  0  0  0  3  0  0  0  0  0  0
  -26.1590  -26.8670   19.4340 C   0  0  0  0  0  3  0  0  0  0  0  0
  -24.9830  -27.6350   19.4280 C   0  0  0  0  0  3  0  0  0  0  0  0
  -23.7010  -29.7320   20.1180 C   0  0  0  0  0  2  0  0  0  0  0  0
  -24.6920  -30.9620   22.0930 N   0  0  0  0  0  0  0  0  0  0  0  0
  -23.4940  -31.9980   23.7190 O   0  0  0  0  0  0  0  0  0  0  0  0
  -22.7740  -29.3220   22.4250 C   0  0  0  0  0  0  0  0  0  0  0  0
  -21.4540  -29.1340   22.2620 N   0  0  0  0  0  0  0  0  0  0  0  0
  -23.4420  -28.6820   23.2410 O   0  0  0  0  0  0  0  0  0  0  0  0
  -20.9770  -29.7010   21.5760 H   0  0  0  0  0  0  0  0  0  0  0  0
  -18.0750  -27.9090   22.6760 C   0  0  0  0  0  0  0  0  0  0  0  0
  -20.6270  -28.1710   22.9910 C   0  0  0  0  0  3  0  0  0  0  0  0
  -20.7450  -26.7570   22.3760 C   0  0  0  0  0  2  0  0  0  0  0  0
  -19.6600  -26.4610   21.3340 C   0  0  0  0  0  2  0  0  0  0  0  0
  -18.2680  -26.5810   21.9610 C   0  0  0  0  0  2  0  0  0  0  0  0
  -19.1830  -28.6620   23.1450 C   0  0  0  0  0  0  0  0  0  0  0  0
  -18.9500  -29.9050   23.7720 C   0  0  0  0  0  3  0  0  0  0  0  0
  -17.6400  -30.3960   23.9330 C   0  0  0  0  0  3  0  0  0  0  0  0
  -16.5460  -29.6390   23.4780 C   0  0  0  0  0  3  0  0  0  0  0  0
  -16.7640  -28.3970   22.8570 C   0  0  0  0  0  3  0  0  0  0  0  0
  -25.8530  -32.3770   23.8720 C   0  0  0  0  0  3  0  0  0  0  0  0
  -25.5320  -33.7750   24.1940 N   0  0  0  0  0  0  0  0  0  0  0  0
  -25.8690  -34.8260   23.4360 C   0  0  0  0  0  0  0  0  0  0  0  0
  -26.5560  -34.7230   22.4160 O   0  0  0  0  0  0  0  0  0  0  0  0
  -24.9250  -33.9300   24.9850 H   0  0  0  0  0  0  0  0  0  0  0  0
  -24.1280  -36.6000   23.0590 C   0  0  0  0  0  1  0  0  0  0  0  0
  -25.3670  -36.2120   23.8810 C   0  0  0  0  0  3  0  0  0  0  0  0
  -27.4870  -37.1240   24.7240 C   0  0  0  0  0  1  0  0  0  0  0  0
  -26.3920  -37.2740   23.7680 N   0  0  0  0  0  0  0  0  0  0  0  0
  -25.9780  -38.1910   23.9050 H   0  0  0  0  0  0  0  0  0  0  0  0
  -26.3240  -31.6040   25.1650 C   0  0  1  0  0  0  0  0  0  0  0  0
  -25.1920  -31.3590   26.1890 C   0  0  0  0  0  1  0  0  0  0  0  0
  -26.9270  -30.2310   24.7920 C   0  0  0  0  0  1  0  0  0  0  0  0
  -27.4460  -32.4010   25.8740 C   0  0  0  0  0  1  0  0  0  0  0  0
  1  2  2  0
  3  6  1  0
  4  3  1  0
  4  1  1  0
  4  5  1  0
  5  8  1  0
  6  5  1  0
  6  7  1  0
  8 17  1  0
  9 17  1  0
 10 15  1  0
 11 12  1  0
 11 10  1  0
 13 12  1  0
 13 22  1  0
 13 14  1  0
 15  9  1  0
 15 14  1  0
 16  9  2  0
 17 18  1  0
 19 20  2  0
 20 39  1  0
 21 20  1  0
 21 24  1  0
 22 19  1  0
 22 23  1  0
 23 21  2  0
 24 25  1  0
 25 26  2  0
 27 30  1  0
 27 26  1  0
 28 27  2  0
 29 28  1  0
 29 24  2  0
 30 31  1  0
 31 36  2  0
 31 32  1  0
 32 33  2  0
 33 34  1  0
 34 38  1  0
 35 34  2  0
 36 35  1  0
 37 36  1  0
 39 40  1  0
 40 43  1  0
 40 42  1  0
 41 39  2  0
 44 45  1  0
 44 19  1  0
 46 44  1  0
 47  1  1  0
 47 48  1  0
 49 50  1  0
 49 48  2  0
 51 62  2  0
 52 50  1  0
 52 57  1  0
 53 61  1  0
 53 63  1  0
 54 60  1  0
 54 56  1  0
 55 61  1  0
 56 57  2  0
 56 55  1  0
 58 52  2  0
 59 58  1  0
 59 54  2  0
 60 53  1  0
 61 51  1  0
 63 65  2  0
 64 63  1  0
 66 64  1  0
 67 76  2  0
 67 72  1  0
 68 64  1  0
 68 72  1  0
 69 68  1  0
 70 71  1  0
 70 69  1  0
 71 67  1  0
 72 73  2  0
 73 74  1  0
 75 74  2  0
 76 75  1  0
 77 51  1  0
 77 78  1  0
 77 87  1  0
 78 81  1  0
 79 83  1  0
 79 78  1  0
 80 79  2  0
 83 82  1  0
 85 83  1  0
 85 86  1  0
 85 84  1  0
 87 90  1  1
 87 88  1  0
 89 87  1  0
M  ISO  4   9 100  17 100  49 101  50 101
M  END
>  <TORSDO>  (5) 
F 21

>  <SCORE>  (5) 
-13.052

>  <name>  (5) 
4

>  <ligand_id>  (5) 
4

>  <original_smiles>  (5) 
[H]c1c([H])c([H])c2c(c1[H])C([H])([H])C([H])([H])C([H])([H])C2([H])N([H])C(=O)C1([H])N(C(=O)C([H])(N([H])C(=O)C([H])(N([H])C([H])([H])[H])C([H])([H])[H])C(C([H])([H])[H])(C([H])([H])[H])C([H])([H])[H])C([H])([H])c2c([H])c(OC([H])([H])C([H])([H])C([H])([H])C(=O)C3([H])C([H])([H])C([H])(F)C3([H])C([H])([H])N([H])C(=O)N3C([H])([H])C([H])([H])C([H])([H])C([H])(n4nc(-c5c([H])c([H])c(Oc6c([H])c([H])c(F)c([H])c6F)c([H])c5[H])c(C(=O)N([H])[H])c4N([H])[H])C3([H])[H])c([H])c([H])c2C1([H])[H]

>  <smiles>  (5) 
[H]c1c([H])c([H])c2c(c1[H])C([H])([H])C([H])([H])C([H])([H])C2([H])N([H])C(=O)C1([H])N(C(=O)C([H])(N([H])C(=O)C([H])(N([H])C([H])([H])[H])C([H])([H])[H])C(C([H])([H])[H])(C([H])([H])[H])C([H])([H])[H])C([H])([H])c2c([H])c(OC([H])([H])C([H])([H])C([H])([H])C(=O)C3([H])C([H])([H])C([H])(F)C3([H])C([H])([H])N([H])C(=O)N3C([H])([H])C([H])([H])C([H])([H])C([H])(n4nc(-c5c([H])c([H])c(Oc6c([H])c([H])c(F)c([H])c6F)c([H])c5[H])c(C(=O)N([H])[H])c4N([H])[H])C3([H])[H])c([H])c([H])c2C1([H])[H]

$$$$
5:0:0
     RDKit          3D

 99107  0  0  1  0  0  0  0  0999 V2000
  -30.2050  -19.8980   20.0090 C   0  0  0  0  0  3  0  0  0  0  0  0
  -30.1980  -21.2590   22.0090 C   0  0  0  0  0  3  0  0  0  0  0  0
  -31.0170  -18.9410   22.0770 C   0  0  0  0  0  3  0  0  0  0  0  0
  -29.9360  -21.1660   20.6300 C   0  0  0  0  0  0  0  0  0  0  0  0
  -30.7710  -18.7610   20.6970 C   0  0  0  0  0  0  0  0  0  0  0  0
  -30.7140  -20.1620   22.7370 C   0  0  0  0  0  0  0  0  0  0  0  0
  -30.9790  -20.3240   24.2300 C   0  0  1  0  0  0  0  0  0  0  0  0
  -31.0680  -19.1470   24.8510 F   0  0  0  0  0  0  0  0  0  0  0  0
  -32.1230  -20.9840   24.4080 F   0  0  0  0  0  0  0  0  0  0  0  0
  -29.9990  -21.0200   24.8070 F   0  0  0  0  0  0  0  0  0  0  0  0
  -29.3570  -22.3820   19.8160 C   0  0  0  0  0  2  0  0  0  0  0  0
  -29.1490  -23.8520   20.4720 C   0  0  0  0  0  2  0  0  0  0  0  0
  -28.0500  -25.0000   20.1530 C   0  0  0  0  0  2  0  0  0  0  0  0
  -28.3490  -26.4610   20.2110 O   0  0  0  0  0  0  0  0  0  0  0  0
  -24.6310  -31.9320   23.1400 C   0  0  0  0  0  0  0  0  0  0  0  0
  -27.2520  -27.3440   20.1160 C   0  0  0  0  0  0  0  0  0  0  0  0
  -23.4260  -30.5140   21.5120 C   0  0  0  0  0  3  0  0  0  0  0  0
  -24.8890  -28.9660   20.0860 C   0  0  0  0  0  0  0  0  0  0  0  0
  -25.9650  -30.8340   21.3290 C   0  0  0  0  0  2  0  0  0  0  0  0
  -26.0510  -29.4500   20.6950 C   0  0  0  0  0  0  0  0  0  0  0  0
  -27.2330  -28.6450   20.7110 C   0  0  0  0  0  3  0  0  0  0  0  0
  -26.0700  -26.9370   19.4470 C   0  0  0  0  0  3  0  0  0  0  0  0
  -24.9010  -27.7180   19.4510 C   0  0  0  0  0  3  0  0  0  0  0  0
  -23.6450  -29.8340   20.1350 C   0  0  0  0  0  2  0  0  0  0  0  0
  -24.6910  -31.1120   22.0520 N   0  0  0  0  0  0  0  0  0  0  0  0
  -23.5500  -32.2120   23.6790 O   0  0  0  0  0  0  0  0  0  0  0  0
  -22.7850  -29.4960   22.4850 C   0  0  0  0  0  0  0  0  0  0  0  0
  -21.4640  -29.2830   22.3530 N   0  0  0  0  0  0  0  0  0  0  0  0
  -23.4740  -28.9020   23.3190 O   0  0  0  0  0  0  0  0  0  0  0  0
  -20.9760  -29.8180   21.6490 H   0  0  0  0  0  0  0  0  0  0  0  0
  -18.1150  -27.9940   22.8100 C   0  0  0  0  0  0  0  0  0  0  0  0
  -20.6550  -28.3450   23.1340 C   0  0  0  0  0  3  0  0  0  0  0  0
  -20.8160  -26.9020   22.6030 C   0  0  0  0  0  2  0  0  0  0  0  0
  -19.7500  -26.5110   21.5740 C   0  0  0  0  0  2  0  0  0  0  0  0
  -18.3500  -26.6320   22.1810 C   0  0  0  0  0  2  0  0  0  0  0  0
  -19.1990  -28.8050   23.2420 C   0  0  0  0  0  0  0  0  0  0  0  0
  -18.9280  -30.0780   23.7890 C   0  0  0  0  0  3  0  0  0  0  0  0
  -17.6040  -30.5400   23.9120 C   0  0  0  0  0  3  0  0  0  0  0  0
  -16.5340  -29.7280   23.4930 C   0  0  0  0  0  3  0  0  0  0  0  0
  -16.7910  -28.4580   22.9500 C   0  0  0  0  0  3  0  0  0  0  0  0
  -25.9170  -32.5750   23.7460 C   0  0  0  0  0  3  0  0  0  0  0  0
  -26.4710  -31.7910   24.9970 C   0  0  1  0  0  0  0  0  0  0  0  0
  -25.4050  -31.5200   26.0820 C   0  0  0  0  0  1  0  0  0  0  0  0
  -27.0710  -30.4280   24.5740 C   0  0  0  0  0  1  0  0  0  0  0  0
  -27.6160  -32.5940   25.6600 C   0  0  0  0  0  1  0  0  0  0  0  0
  -25.5880  -33.9600   24.1100 N   0  0  0  0  0  0  0  0  0  0  0  0
  -25.8890  -35.0350   23.3680 C   0  0  0  0  0  0  0  0  0  0  0  0
  -26.5510  -34.9640   22.3260 O   0  0  0  0  0  0  0  0  0  0  0  0
  -24.9980  -34.0840   24.9190 H   0  0  0  0  0  0  0  0  0  0  0  0
  -24.1290  -36.8080   23.0480 C   0  0  0  0  0  1  0  0  0  0  0  0
  -25.3760  -36.4050   23.8520 C   0  0  0  0  0  3  0  0  0  0  0  0
  -27.4950  -37.3110   24.7040 C   0  0  0  0  0  1  0  0  0  0  0  0
  -26.3910  -37.4770   23.7630 N   0  0  0  0  0  0  0  0  0  0  0  0
  -25.9680  -38.3860   23.9320 H   0  0  0  0  0  0  0  0  0  0  0  0
  -31.2410  -17.4200   19.9850 C   0  0  0  0  0  3  0  0  0  0  0  0
  -31.2840  -14.8840   20.4000 C   0  0  0  0  0  0  0  0  0  0  0  0
  -30.9810  -12.5450   19.6240 C   0  0  0  0  0  2  0  0  0  0  0  0
  -30.1270  -12.5260   18.3390 C   0  0  0  0  0  2  0  0  0  0  0  0
  -28.6290  -12.4510   18.6950 C   0  0  0  0  0  2  0  0  0  0  0  0
  -28.2180  -13.4820   19.7840 C   0  0  0  0  0  3  0  0  0  0  0  0
  -29.2170  -13.5140   20.9630 C   0  0  0  0  0  2  0  0  0  0  0  0
  -30.5610  -13.7200   20.4180 N   0  0  0  0  0  0  0  0  0  0  0  0
  -32.4920  -14.8650   20.1620 O   0  0  0  0  0  0  0  0  0  0  0  0
  -30.6200  -16.0900   20.3820 N   0  0  0  0  0  0  0  0  0  0  0  0
  -29.6250  -16.0700   20.5340 H   0  0  0  0  0  0  0  0  0  0  0  0
  -25.8480  -14.2080   20.4480 C   0  0  0  0  0  0  0  0  0  0  0  0
  -24.7260  -13.4930   20.7800 C   0  0  0  0  0  0  0  0  0  0  0  0
  -25.1090  -12.1190   20.7490 C   0  0  0  0  0  0  0  0  0  0  0  0
  -26.8440  -13.2710   20.2340 N   0  0  0  0  0  0  0  0  0  0  0  0
  -26.4050  -12.0080   20.4780 N   0  0  0  0  0  0  0  0  0  0  0  0
  -24.3020  -10.9000   20.9050 C   0  0  0  0  0  0  0  0  0  0  0  0
  -24.6620   -9.8850   21.8190 C   0  0  0  0  0  3  0  0  0  0  0  0
  -23.8570   -8.7330   21.9650 C   0  0  0  0  0  3  0  0  0  0  0  0
  -22.6780   -8.5900   21.1960 C   0  0  0  0  0  0  0  0  0  0  0  0
  -22.3370   -9.5940   20.2710 C   0  0  0  0  0  3  0  0  0  0  0  0
  -23.1410  -10.7360   20.1240 C   0  0  0  0  0  3  0  0  0  0  0  0
  -21.8470   -7.4980   21.2530 O   0  0  0  0  0  0  0  0  0  0  0  0
  -21.7530   -6.7240   22.3830 C   0  0  0  0  0  0  0  0  0  0  0  0
  -21.3750   -7.2660   23.6300 C   0  0  0  0  0  3  0  0  0  0  0  0
  -21.2210   -6.4220   24.7480 C   0  0  0  0  0  3  0  0  0  0  0  0
  -21.4400   -5.0370   24.6190 C   0  0  0  0  0  0  0  0  0  0  0  0
  -21.8110   -4.4940   23.3760 C   0  0  0  0  0  3  0  0  0  0  0  0
  -21.9640   -5.3350   22.2610 C   0  0  0  0  0  0  0  0  0  0  0  0
  -22.3010   -4.8050   21.0600 F   0  0  0  0  0  0  0  0  0  0  0  0
  -21.2850   -4.2240   25.6900 F   0  0  0  0  0  0  0  0  0  0  0  0
  -23.3510  -14.0520   21.0110 C   0  0  0  0  0  0  0  0  0  0  0  0
  -22.5620  -13.4040   21.8620 N   0  0  0  0  0  0  0  0  0  0  0  0
  -22.9840  -15.0970   20.4750 O   0  0  0  0  0  0  0  0  0  0  0  0
  -22.8690  -12.5530   22.3100 H   0  0  0  0  0  0  0  0  0  0  0  0
  -21.6400  -13.7620   22.0660 H   0  0  0  0  0  0  0  0  0  0  0  0
  -26.0930  -15.5660   20.2800 N   0  0  0  0  0  0  0  0  0  0  0  0
  -25.3550  -16.2600   20.3620 H   0  0  0  0  0  0  0  0  0  0  0  0
  -26.9650  -15.9570   19.9440 H   0  0  0  0  0  0  0  0  0  0  0  0
  -31.3440  -17.5670   18.4330 C   0  0  0  0  0  2  0  0  0  0  0  0
  -32.6050  -18.3250   17.9380 C   0  0  0  0  0  2  0  0  0  0  0  0
  -33.8590  -17.5570   18.0390 N   0  0  0  0  0  4  0  0  0  0  0  0
  -34.1150  -17.3820   18.9960 H   0  0  0  0  0  0  0  0  0  0  0  0
  -34.5880  -18.0970   17.6050 H   0  0  0  0  0  0  0  0  0  0  0  0
  -33.8030  -16.6850   17.5460 H   0  0  0  0  0  0  0  0  0  0  0  0
  1  4  2  0
  1  5  1  0
  2  6  2  0
  3  6  1  0
  4  2  1  0
  5  3  2  0
  6  7  1  0
  7  9  1  6
  7 10  1  0
  7  8  1  0
 11 12  1  0
 11  4  1  0
 13 14  1  0
 13 12  1  0
 15 26  2  0
 16 14  1  0
 16 21  1  0
 17 25  1  0
 17 27  1  0
 18 24  1  0
 18 20  1  0
 19 25  1  0
 20 21  2  0
 20 19  1  0
 22 23  1  0
 22 16  2  0
 23 18  2  0
 24 17  1  0
 25 15  1  0
 27 29  2  0
 28 27  1  0
 30 28  1  0
 31 40  2  0
 31 36  1  0
 32 28  1  0
 32 36  1  0
 33 32  1  0
 34 35  1  0
 34 33  1  0
 35 31  1  0
 36 37  2  0
 37 38  1  0
 39 38  2  0
 40 39  1  0
 41 15  1  0
 41 46  1  0
 41 42  1  0
 42 45  1  1
 42 43  1  0
 44 42  1  0
 46 49  1  0
 47 51  1  0
 47 46  1  0
 48 47  2  0
 51 50  1  0
 53 51  1  0
 53 54  1  0
 53 52  1  0
 55 94  1  0
 55 64  1  0
 55  5  1  0
 56 62  1  0
 57 62  1  0
 58 59  1  0
 58 57  1  0
 60 59  1  0
 60 69  1  0
 60 61  1  0
 62 61  1  0
 63 56  2  0
 64 56  1  0
 64 65  1  0
 66 67  2  0
 67 86  1  0
 68 67  1  0
 68 71  1  0
 69 66  1  0
 69 70  1  0
 70 68  2  0
 71 72  1  0
 72 73  2  0
 74 77  1  0
 74 73  1  0
 75 74  2  0
 76 75  1  0
 76 71  2  0
 77 78  1  0
 78 79  1  0
 79 80  2  0
 81 80  1  0
 81 85  1  0
 82 81  2  0
 83 78  2  0
 83 82  1  0
 84 83  1  0
 86 87  1  0
 87 90  1  0
 87 89  1  0
 88 86  2  0
 91 92  1  0
 91 66  1  0
 93 91  1  0
 95 96  1  0
 95 94  1  0
 96 97  1  0
 98 96  1  0
 99 96  1  0
M  ISO  4  13 101  14 101  56 100  64 100
M  END
>  <TORSDO>  (6) 
F 24

>  <SCORE>  (6) 
-12.594

>  <name>  (6) 
5

>  <ligand_id>  (6) 
5

>  <original_smiles>  (6) 
[H]c1c([H])c([H])c2c(c1[H])C([H])([H])C([H])([H])C([H])([H])C2([H])N([H])C(=O)C1([H])N(C(=O)C([H])(N([H])C(=O)C([H])(N([H])C([H])([H])[H])C([H])([H])[H])C(C([H])([H])[H])(C([H])([H])[H])C([H])([H])[H])C([H])([H])c2c([H])c(OC([H])([H])C([H])([H])C([H])([H])c3c([H])c(C(F)(F)F)c([H])c(C([H])(N([H])C(=O)N4C([H])([H])C([H])([H])C([H])([H])C([H])(n5nc(-c6c([H])c([H])c(Oc7c([H])c([H])c(F)c([H])c7F)c([H])c6[H])c(C(=O)N([H])[H])c5N([H])[H])C4([H])[H])C([H])([H])C([H])([H])[N+]([H])([H])[H])c3[H])c([H])c([H])c2C1([H])[H]

>  <smiles>  (6) 
[H]c1c([H])c([H])c2c(c1[H])C([H])([H])C([H])([H])C([H])([H])C2([H])N([H])C(=O)C1([H])N(C(=O)C([H])(N([H])C(=O)C([H])(N([H])C([H])([H])[H])C([H])([H])[H])C(C([H])([H])[H])(C([H])([H])[H])C([H])([H])[H])C([H])([H])c2c([H])c(OC([H])([H])C([H])([H])C([H])([H])c3c([H])c(C(F)(F)F)c([H])c(C([H])(N([H])C(=O)N4C([H])([H])C([H])([H])C([H])([H])C([H])(n5nc(-c6c([H])c([H])c(Oc7c([H])c([H])c(F)c([H])c7F)c([H])c6[H])c(C(=O)N([H])[H])c5N([H])[H])C4([H])[H])C([H])([H])C([H])([H])[N+]([H])([H])[H])c3[H])c([H])c([H])c2C1([H])[H]

$$$$
6:0:0
     RDKit          3D

 94102  0  0  1  0  0  0  0  0999 V2000
  -30.5790  -20.1200   20.4620 N   0  0  0  0  0  4  0  0  0  0  0  0
  -30.8930  -20.3270   19.5290 H   0  0  0  0  0  0  0  0  0  0  0  0
  -31.4170  -19.9790   21.0050 H   0  0  0  0  0  0  0  0  0  0  0  0
  -30.6760  -14.8160   20.4130 C   0  0  0  0  0  0  0  0  0  0  0  0
  -30.4170  -12.5460   19.3780 C   0  0  0  0  0  2  0  0  0  0  0  0
  -29.4670  -12.5610   18.1600 C   0  0  0  0  0  2  0  0  0  0  0  0
  -28.0120  -12.3130   18.6020 C   0  0  0  0  0  2  0  0  0  0  0  0
  -27.6040  -13.2250   19.7770 C   0  0  0  0  0  3  0  0  0  0  0  0
  -28.6830  -13.2340   20.9020 C   0  0  0  0  0  2  0  0  0  0  0  0
  -29.9740  -13.6210   20.2970 N   0  0  0  0  0  0  0  0  0  0  0  0
  -31.8990  -14.7970   20.2600 O   0  0  0  0  0  0  0  0  0  0  0  0
  -27.9920  -17.5120   19.6230 C   0  0  0  0  0  2  0  0  0  0  0  0
  -28.6730  -16.1670   19.8860 C   0  0  0  0  0  2  0  0  0  0  0  0
  -30.7260  -17.4230   20.6010 C   0  0  0  0  0  2  0  0  0  0  0  0
  -28.9620  -18.6030   19.2120 C   0  0  0  0  0  3  0  0  0  0  0  0
  -29.8510  -18.7820   20.4640 C   0  0  0  0  0  3  0  0  0  0  0  0
  -30.0230  -16.0680   20.4590 N   0  0  0  0  0  0  0  0  0  0  0  0
  -25.2340  -13.9020   20.4830 C   0  0  0  0  0  0  0  0  0  0  0  0
  -24.1530  -13.1520   20.8460 C   0  0  0  0  0  0  0  0  0  0  0  0
  -24.6020  -11.7960   20.8420 C   0  0  0  0  0  0  0  0  0  0  0  0
  -26.2650  -12.9940   20.2760 N   0  0  0  0  0  0  0  0  0  0  0  0
  -25.8930  -11.7290   20.5600 N   0  0  0  0  0  0  0  0  0  0  0  0
  -23.8660  -10.5470   21.0260 C   0  0  0  0  0  0  0  0  0  0  0  0
  -24.2790   -9.5880   21.9740 C   0  0  0  0  0  3  0  0  0  0  0  0
  -23.5470   -8.3950   22.1450 C   0  0  0  0  0  3  0  0  0  0  0  0
  -22.3920   -8.1570   21.3640 C   0  0  0  0  0  0  0  0  0  0  0  0
  -22.0020   -9.1050   20.4020 C   0  0  0  0  0  3  0  0  0  0  0  0
  -22.7340  -10.2900   20.2310 C   0  0  0  0  0  3  0  0  0  0  0  0
  -21.6300   -7.0180   21.4480 O   0  0  0  0  0  0  0  0  0  0  0  0
  -21.5600   -6.2860   22.6060 C   0  0  0  0  0  0  0  0  0  0  0  0
  -21.1070   -6.8510   23.8180 C   0  0  0  0  0  3  0  0  0  0  0  0
  -20.9840   -6.0440   24.9660 C   0  0  0  0  0  3  0  0  0  0  0  0
  -21.3030   -4.6740   24.9030 C   0  0  0  0  0  0  0  0  0  0  0  0
  -21.7500   -4.1090   23.6950 C   0  0  0  0  0  3  0  0  0  0  0  0
  -21.8750   -4.9140   22.5490 C   0  0  0  0  0  0  0  0  0  0  0  0
  -22.2870   -4.3620   21.3820 F   0  0  0  0  0  0  0  0  0  0  0  0
  -21.1760   -3.8960   26.0030 F   0  0  0  0  0  0  0  0  0  0  0  0
  -22.7560  -13.6500   21.0820 C   0  0  0  0  0  0  0  0  0  0  0  0
  -22.0030  -12.9710   21.9400 N   0  0  0  0  0  0  0  0  0  0  0  0
  -22.3420  -14.6740   20.5410 O   0  0  0  0  0  0  0  0  0  0  0  0
  -22.3530  -12.1440   22.4010 H   0  0  0  0  0  0  0  0  0  0  0  0
  -21.0650  -13.2870   22.1430 H   0  0  0  0  0  0  0  0  0  0  0  0
  -25.4010  -15.2690   20.2830 N   0  0  0  0  0  0  0  0  0  0  0  0
  -24.6270  -15.9180   20.3780 H   0  0  0  0  0  0  0  0  0  0  0  0
  -26.2500  -15.7080   19.9550 H   0  0  0  0  0  0  0  0  0  0  0  0
  -28.1700  -19.8190   18.6630 C   0  0  0  0  0  2  0  0  0  0  0  0
  -29.0070  -20.7640   17.7760 C   0  0  0  0  0  2  0  0  0  0  0  0
  -29.1470  -23.1410   16.8440 C   0  0  0  0  0  1  0  0  0  0  0  0
  -28.2310  -22.0270   17.3630 C   0  0  0  0  0  2  0  0  0  0  0  0
  -29.9170  -21.3530   21.0850 C   0  0  0  0  0  3  0  0  0  0  0  0
  -29.7040  -22.6660   20.1920 C   0  0  0  0  0  3  0  0  0  0  0  0
  -29.2910  -24.0530   20.8700 C   0  0  0  0  0  3  0  0  0  0  0  0
  -28.7030  -25.1950   19.9220 C   0  0  0  0  0  3  0  0  0  0  0  0
  -28.5430  -26.5650   20.4630 O   0  0  0  0  0  0  0  0  0  0  0  0
  -24.6050  -31.8910   23.2790 C   0  0  0  0  0  0  0  0  0  0  0  0
  -27.3710  -27.3370   20.3430 C   0  0  0  0  0  0  0  0  0  0  0  0
  -23.4610  -30.4640   21.6170 C   0  0  0  0  0  3  0  0  0  0  0  0
  -24.9690  -28.9090   20.2520 C   0  0  0  0  0  0  0  0  0  0  0  0
  -25.9990  -30.8070   21.5030 C   0  0  0  0  0  2  0  0  0  0  0  0
  -26.1120  -29.4210   20.8770 C   0  0  0  0  0  0  0  0  0  0  0  0
  -27.3070  -28.6460   20.9130 C   0  0  0  0  0  3  0  0  0  0  0  0
  -26.1990  -26.8720   19.6950 C   0  0  0  0  0  3  0  0  0  0  0  0
  -25.0160  -27.6380   19.6550 C   0  0  0  0  0  3  0  0  0  0  0  0
  -23.7210  -29.7680   20.2540 C   0  0  0  0  0  2  0  0  0  0  0  0
  -24.7060  -31.0720   22.1910 N   0  0  0  0  0  0  0  0  0  0  0  0
  -23.5050  -32.1670   23.7780 O   0  0  0  0  0  0  0  0  0  0  0  0
  -22.7780  -29.4550   22.5700 C   0  0  0  0  0  0  0  0  0  0  0  0
  -21.4590  -29.2580   22.3970 N   0  0  0  0  0  0  0  0  0  0  0  0
  -23.4320  -28.8510   23.4230 O   0  0  0  0  0  0  0  0  0  0  0  0
  -20.9900  -29.7960   21.6820 H   0  0  0  0  0  0  0  0  0  0  0  0
  -18.0820  -28.0220   22.7840 C   0  0  0  0  0  0  0  0  0  0  0  0
  -20.6230  -28.3210   23.1500 C   0  0  0  0  0  3  0  0  0  0  0  0
  -20.7670  -26.8810   22.6020 C   0  0  0  0  0  2  0  0  0  0  0  0
  -19.7090  -26.5290   21.5510 C   0  0  0  0  0  2  0  0  0  0  0  0
  -18.3020  -26.6640   22.1380 C   0  0  0  0  0  2  0  0  0  0  0  0
  -19.1720  -28.8070   23.2450 C   0  0  0  0  0  0  0  0  0  0  0  0
  -18.9120  -30.0760   23.8050 C   0  0  0  0  0  3  0  0  0  0  0  0
  -17.5950  -30.5610   23.9110 C   0  0  0  0  0  3  0  0  0  0  0  0
  -16.5190  -29.7720   23.4680 C   0  0  0  0  0  3  0  0  0  0  0  0
  -16.7630  -28.5050   22.9100 C   0  0  0  0  0  3  0  0  0  0  0  0
  -25.8640  -32.5390   23.9320 C   0  0  0  0  0  3  0  0  0  0  0  0
  -26.3380  -31.7940   25.2400 C   0  0  1  0  0  0  0  0  0  0  0  0
  -25.2080  -31.5710   26.2740 C   0  0  0  0  0  1  0  0  0  0  0  0
  -26.9390  -30.4120   24.8950 C   0  0  0  0  0  1  0  0  0  0  0  0
  -27.4610  -32.6050   25.9270 C   0  0  0  0  0  1  0  0  0  0  0  0
  -25.5390  -33.9430   24.2250 N   0  0  0  0  0  0  0  0  0  0  0  0
  -25.8950  -34.9830   23.4590 C   0  0  0  0  0  0  0  0  0  0  0  0
  -26.5960  -34.8620   22.4510 O   0  0  0  0  0  0  0  0  0  0  0  0
  -24.9170  -34.1100   25.0030 H   0  0  0  0  0  0  0  0  0  0  0  0
  -24.1710  -36.7630   23.0220 C   0  0  0  0  0  1  0  0  0  0  0  0
  -25.3910  -36.3780   23.8760 C   0  0  0  0  0  3  0  0  0  0  0  0
  -27.4970  -37.2880   24.7520 C   0  0  0  0  0  1  0  0  0  0  0  0
  -26.4240  -37.4320   23.7710 N   0  0  0  0  0  0  0  0  0  0  0  0
  -26.0110  -38.3540   23.8850 H   0  0  0  0  0  0  0  0  0  0  0  0
  1  3  1  0
  1 50  1  0
  2  1  1  0
  4 17  1  0
  5 10  1  0
  6  7  1  0
  6  5  1  0
  8  7  1  0
  8 21  1  0
  8  9  1  0
 10  4  1  0
 10  9  1  0
 11  4  2  0
 12 13  1  0
 13 17  1  0
 15 46  1  0
 15 12  1  0
 15 16  1  0
 16  1  1  0
 16 14  1  0
 17 14  1  0
 18 19  2  0
 19 38  1  0
 20 19  1  0
 20 23  1  0
 21 18  1  0
 21 22  1  0
 22 20  2  0
 23 24  1  0
 24 25  2  0
 26 29  1  0
 26 25  1  0
 27 26  2  0
 28 27  1  0
 28 23  2  0
 29 30  1  0
 30 31  1  0
 31 32  2  0
 33 32  1  0
 33 37  1  0
 34 33  2  0
 35 30  2  0
 35 34  1  0
 36 35  1  0
 38 39  1  0
 39 42  1  0
 39 41  1  0
 40 38  2  0
 43 44  1  0
 43 18  1  0
 45 43  1  0
 47 46  1  0
 48 49  1  0
 49 47  1  0
 51 52  1  0
 51 50  2  0
 53 54  1  0
 53 52  2  0
 55 66  2  0
 56 54  1  0
 56 61  1  0
 57 65  1  0
 57 67  1  0
 58 64  1  0
 58 60  1  0
 59 65  1  0
 60 61  2  0
 60 59  1  0
 62 56  2  0
 63 62  1  0
 63 58  2  0
 64 57  1  0
 65 55  1  0
 67 69  2  0
 68 67  1  0
 70 68  1  0
 71 80  2  0
 71 76  1  0
 72 68  1  0
 72 76  1  0
 73 72  1  0
 74 75  1  0
 74 73  1  0
 75 71  1  0
 76 77  2  0
 77 78  1  0
 79 78  2  0
 80 79  1  0
 81 55  1  0
 81 86  1  0
 81 82  1  0
 82 85  1  1
 82 83  1  0
 84 82  1  0
 86 89  1  0
 87 91  1  0
 87 86  1  0
 88 87  2  0
 91 90  1  0
 93 91  1  0
 93 94  1  0
 93 92  1  0
M  ISO  4   4 100  17 100  53 101  54 101
M  END
>  <TORSDO>  (7) 
F 23

>  <SCORE>  (7) 
-12.877

>  <name>  (7) 
6

>  <ligand_id>  (7) 
6

>  <original_smiles>  (7) 
[H]c1c([H])c([H])c2c(c1[H])C([H])([H])C([H])([H])C([H])([H])C2([H])N([H])C(=O)C1([H])N(C(=O)C([H])(N([H])C(=O)C([H])(N([H])C([H])([H])[H])C([H])([H])[H])C(C([H])([H])[H])(C([H])([H])[H])C([H])([H])[H])C([H])([H])c2c([H])c(OC([H])([H])C([H])([H])C([H])([H])C([H])([H])[N+]([H])([H])C3([H])C([H])([H])N(C(=O)N4C([H])([H])C([H])([H])C([H])([H])C([H])(n5nc(-c6c([H])c([H])c(Oc7c([H])c([H])c(F)c([H])c7F)c([H])c6[H])c(C(=O)N([H])[H])c5N([H])[H])C4([H])[H])C([H])([H])C([H])([H])C3([H])C([H])([H])C([H])([H])C([H])([H])C([H])([H])[H])c([H])c([H])c2C1([H])[H]

>  <smiles>  (7) 
[H]c1c([H])c([H])c2c(c1[H])C([H])([H])C([H])([H])C([H])([H])C2([H])N([H])C(=O)C1([H])N(C(=O)C([H])(N([H])C(=O)C([H])(N([H])C([H])([H])[H])C([H])([H])[H])C(C([H])([H])[H])(C([H])([H])[H])C([H])([H])[H])C([H])([H])c2c([H])c(OC([H])([H])C([H])([H])C([H])([H])C([H])([H])[N+]([H])([H])C3([H])C([H])([H])N(C(=O)N4C([H])([H])C([H])([H])C([H])([H])C([H])(n5nc(-c6c([H])c([H])c(Oc7c([H])c([H])c(F)c([H])c7F)c([H])c6[H])c(C(=O)N([H])[H])c5N([H])[H])C4([H])[H])C([H])([H])C([H])([H])C3([H])C([H])([H])C([H])([H])C([H])([H])C([H])([H])[H])c([H])c([H])c2C1([H])[H]

$$$$
7:0:0
     RDKit          3D

 96 99  0  0  1  0  0  0  0  0999 V2000
  -27.2640  -13.3920   19.9680 C   0  0  0  0  0  3  0  0  0  0  0  0
  -23.5150  -12.8540   19.6630 C   0  0  0  0  0  1  0  0  0  0  0  0
  -26.5370  -14.7770   20.6040 C   0  0  0  0  0  2  0  0  0  0  0  0
  -23.4370  -14.4190   20.2430 C   0  0  0  0  0  3  0  0  0  0  0  0
  -26.6220  -12.2800   19.3290 C   0  0  0  0  0  2  0  0  0  0  0  0
  -24.8670  -15.4610   20.5720 C   0  0  0  0  0  3  0  0  0  0  0  0
  -28.1820  -12.7910   18.4640 C   0  0  0  0  0  3  0  0  0  0  0  0
  -29.8670  -12.5830   19.3230 C   0  0  0  0  0  0  0  0  0  0  0  0
  -30.6950  -13.4370   19.1880 N   0  0  0  0  0  0  0  0  0  0  0  0
  -30.5380  -14.1530   18.5240 H   0  0  0  0  0  0  0  0  0  0  0  0
  -30.0190  -11.3320   20.6620 C   0  0  0  0  0  0  0  0  0  0  0  0
  -29.6900  -10.4840   23.5590 C   0  0  0  0  0  0  0  0  0  0  0  0
  -29.6890   -8.1280   23.1810 C   0  0  0  0  0  2  0  0  0  0  0  0
  -29.6150   -8.2220   21.6900 C   0  0  0  0  0  2  0  0  0  0  0  0
  -28.1030   -8.3950   21.2780 C   0  0  0  0  0  2  0  0  0  0  0  0
  -27.2240   -9.4370   22.1490 C   0  0  0  0  0  3  0  0  0  0  0  0
  -27.5020   -9.2710   23.5930 C   0  0  0  0  0  2  0  0  0  0  0  0
  -29.0050   -9.3350   23.6550 N   0  0  0  0  0  0  0  0  0  0  0  0
  -30.2640  -10.7470   24.7250 O   0  0  0  0  0  0  0  0  0  0  0  0
  -29.7780  -11.3140   22.3810 N   0  0  0  0  0  4  0  0  0  0  0  0
  -30.1000  -12.2040   22.7010 H   0  0  0  0  0  0  0  0  0  0  0  0
  -24.5210  -10.5920   19.8260 C   0  0  0  0  0  2  0  0  0  0  0  0
  -23.3610   -9.4000   20.2270 C   0  0  0  0  0  3  0  0  0  0  0  0
  -23.8410   -8.5590   21.7850 C   0  0  0  0  0  3  0  0  0  0  0  0
  -25.9170  -10.0880   21.8610 N   0  0  0  0  0  2  0  0  0  0  0  0
  -25.1980   -9.0080   22.6210 N   0  0  0  0  0  2  0  0  0  0  0  0
  -23.3190   -7.5550   22.5640 C   0  0  0  0  0  0  0  0  0  0  0  0
  -23.1360   -7.3590   23.9060 C   0  0  0  0  0  3  0  0  0  0  0  0
  -22.1470   -6.4090   24.2880 C   0  0  0  0  0  3  0  0  0  0  0  0
  -21.3750   -5.6770   23.3470 C   0  0  0  0  0  0  0  0  0  0  0  0
  -21.5900   -6.0320   21.9930 C   0  0  0  0  0  3  0  0  0  0  0  0
  -22.5470   -6.9770   21.6540 C   0  0  0  0  0  3  0  0  0  0  0  0
  -20.4290   -4.6850   23.6740 O   0  0  0  0  0  0  0  0  0  0  0  0
  -19.4450   -4.7940   24.6560 C   0  0  0  0  0  0  0  0  0  0  0  0
  -18.5220   -5.8720   24.6320 C   0  0  0  0  0  3  0  0  0  0  0  0
  -17.4950   -5.9660   25.5950 C   0  0  0  0  0  3  0  0  0  0  0  0
  -17.3480   -4.9910   26.5940 C   0  0  0  0  0  0  0  0  0  0  0  0
  -18.2230   -3.8850   26.5990 C   0  0  0  0  0  3  0  0  0  0  0  0
  -19.2510   -3.7900   25.6410 C   0  0  0  0  0  0  0  0  0  0  0  0
  -20.0550   -2.6950   25.6740 F   0  0  0  0  0  0  0  0  0  0  0  0
  -16.3690   -5.0980   27.5240 F   0  0  0  0  0  0  0  0  0  0  0  0
  -22.2240   -9.9470   19.4210 C   0  0  0  0  0  0  0  0  0  0  0  0
  -21.3800   -9.6760   20.1790 N   0  0  0  0  0  0  0  0  0  0  0  0
  -22.2240  -10.5320   18.2780 O   0  0  0  0  0  0  0  0  0  0  0  0
  -21.7460   -9.1190   20.9410 H   0  0  0  0  0  0  0  0  0  0  0  0
  -20.5470   -9.4580   19.7610 H   0  0  0  0  0  0  0  0  0  0  0  0
  -24.8240  -11.2390   18.6650 N   0  0  0  0  0  0  0  0  0  0  0  0
  -24.0670  -11.2410   18.0400 H   0  0  0  0  0  0  0  0  0  0  0  0
  -25.7540  -11.4280   18.2840 H   0  0  0  0  0  0  0  0  0  0  0  0
  -31.9670  -10.3460   19.2050 C   0  0  0  0  0  1  0  0  0  0  0  0
  -31.3750  -10.6550   20.5860 C   0  0  0  0  0  2  0  0  0  0  0  0
  -24.7880  -17.5450   20.4440 C   0  0  0  0  0 15  0  0  0  0  0  0
  -26.9170  -19.1160   19.0190 C   0  0  0  0  0  1  0  0  0  0  0  0
  -25.5280  -19.5180   19.6210 C   0  0  0  0  0  1  0  0  0  0  0  0
  -25.6180  -21.8220   19.5070 C   0  0  0  0  0 15  0  0  0  0  0  0
  -25.9280  -23.6840   18.6850 O   0  0  0  0  0  1  0  0  0  0  0  0
  -24.9100  -30.8520   22.3340 C   0  0  0  0  0  0  0  0  0  0  0  0
  -25.5690  -25.3230   18.7950 C   0  0  0  0  0  0  0  0  0  0  0  0
  -23.2440  -29.8230   20.8600 C   0  0  0  0  0  3  0  0  0  0  0  0
  -24.0670  -28.0780   19.0870 C   0  0  0  0  0  0  0  0  0  0  0  0
  -25.7340  -29.4250   20.2960 C   0  0  0  0  0  2  0  0  0  0  0  0
  -25.3720  -28.0220   19.5710 C   0  0  0  0  0  0  0  0  0  0  0  0
  -26.1180  -26.6830   19.3810 C   0  0  0  0  0  3  0  0  0  0  0  0
  -24.3930  -25.7640   18.1310 C   0  0  0  0  0  3  0  0  0  0  0  0
  -23.6680  -26.9920   18.2870 C   0  0  0  0  0  3  0  0  0  0  0  0
  -23.1320  -29.2600   19.4060 C   0  0  0  0  0  2  0  0  0  0  0  0
  -24.6780  -30.0760   21.2090 N   0  0  0  0  0  0  0  0  0  0  0  0
  -23.9830  -31.2640   23.0580 O   0  0  0  0  0  0  0  0  0  0  0  0
  -22.5570  -28.8740   21.8800 C   0  0  0  0  0  0  0  0  0  0  0  0
  -21.2120  -28.7840   21.8740 N   0  0  0  0  0  0  0  0  0  0  0  0
  -23.2500  -28.2150   22.6550 O   0  0  0  0  0  0  0  0  0  0  0  0
  -20.6920  -29.3700   21.2350 H   0  0  0  0  0  0  0  0  0  0  0  0
  -17.8420  -27.6680   22.6850 C   0  0  0  0  0  0  0  0  0  0  0  0
  -20.4240  -27.8560   22.7030 C   0  0  0  0  0  3  0  0  0  0  0  0
  -20.4210  -26.4340   22.0910 C   0  0  0  0  0  2  0  0  0  0  0  0
  -19.2220  -26.1740   21.1780 C   0  0  0  0  0  2  0  0  0  0  0  0
  -17.9150  -26.3360   21.9560 C   0  0  0  0  0  2  0  0  0  0  0  0
  -19.0190  -28.3900   23.0240 C   0  0  0  0  0  0  0  0  0  0  0  0
  -18.8930  -29.6370   23.6730 C   0  0  0  0  0  3  0  0  0  0  0  0
  -17.6240  -30.1580   23.9840 C   0  0  0  0  0  3  0  0  0  0  0  0
  -16.4640  -29.4340   23.6600 C   0  0  0  0  0  3  0  0  0  0  0  0
  -16.5760  -28.1930   23.0140 C   0  0  0  0  0  3  0  0  0  0  0  0
  -26.3440  -31.2730   22.7740 C   0  0  0  0  0  3  0  0  0  0  0  0
  -26.2420  -32.4540   23.6630 N   0  0  0  0  0  0  0  0  0  0  0  0
  -26.5170  -33.7210   23.3190 C   0  0  0  0  0  0  0  0  0  0  0  0
  -26.9340  -34.0270   22.2010 O   0  0  0  0  0  0  0  0  0  0  0  0
  -25.8490  -32.2880   24.5790 H   0  0  0  0  0  0  0  0  0  0  0  0
  -24.9770  -35.5550   24.1190 C   0  0  0  0  0  1  0  0  0  0  0  0
  -26.3060  -34.8270   24.3810 C   0  0  0  0  0  3  0  0  0  0  0  0
  -28.6520  -35.2830   24.9630 C   0  0  0  0  0  1  0  0  0  0  0  0
  -27.4030  -35.8210   24.4340 N   0  0  0  0  0  0  0  0  0  0  0  0
  -27.1350  -36.6200   25.0030 H   0  0  0  0  0  0  0  0  0  0  0  0
  -27.1180  -30.1230   23.5340 C   0  0  1  0  0  0  0  0  0  0  0  0
  -26.3290  -29.5090   24.7170 C   0  0  0  0  0  1  0  0  0  0  0  0
  -27.4780  -28.9660   22.5790 C   0  0  0  0  0  1  0  0  0  0  0  0
  -28.4570  -30.6670   24.0840 C   0  0  0  0  0  1  0  0  0  0  0  0
  1  3  1  0
  2  4  1  0
  4  6  2  0
  5  1  1  0
  6  3  1  0
  7  8  1  0
  7  5  1  0
  7  1  1  0
  8 11  1  0
  9  8  2  0
 10  9  1  0
 11 20  2  0
 12 18  1  0
 12 19  2  0
 13 18  1  0
 14 13  1  0
 15 14  1  0
 15 16  1  0
 16 25  1  0
 16 17  1  0
 17 18  1  0
 20 21  1  0
 20 12  1  0
 23 22  1  0
 23 24  1  0
 24 27  1  0
 24 26  1  0
 25 26  1  0
 27 28  1  0
 28 29  2  0
 30 33  1  0
 30 29  1  0
 31 30  2  0
 32 31  1  0
 32 27  2  0
 33 34  1  0
 34 39  1  0
 35 34  2  0
 35 36  1  0
 36 37  2  0
 37 38  1  0
 37 41  1  0
 39 40  1  0
 39 38  2  0
 42 43  1  0
 42 23  1  0
 43 45  1  0
 44 42  2  0
 46 43  1  0
 47 22  1  0
 48 47  1  0
 49 47  1  0
 50 51  1  0
 51 11  1  0
 53 54  1  0
 56 58  1  0
 57 68  2  0
 58 63  1  0
 59 67  1  0
 59 69  1  0
 60 66  1  0
 60 62  1  0
 61 67  1  0
 62 61  1  0
 63 62  2  0
 64 65  1  0
 64 58  2  0
 65 60  2  0
 66 59  1  0
 67 57  1  0
 69 71  2  0
 70 69  1  0
 72 70  1  0
 73 82  2  0
 73 78  1  0
 74 70  1  0
 74 78  1  0
 75 74  1  0
 76 77  1  0
 76 75  1  0
 77 73  1  0
 78 79  2  0
 79 80  1  0
 81 80  2  0
 82 81  1  0
 83 57  1  0
 83 93  1  0
 83 84  1  0
 84 87  1  0
 85 84  1  0
 85 89  1  0
 86 85  2  0
 89 88  1  0
 89 91  1  0
 91 90  1  0
 91 92  1  0
 93 96  1  1
 93 94  1  0
 95 93  1  0
M  ISO  4  12 100  20 100  55 101  56 101
M  END
>  <TORSDO>  (8) 
F 23

>  <SCORE>  (8) 
7.809

>  <name>  (8) 
7

>  <ligand_id>  (8) 
7

>  <original_smiles>  (8) 
[H]N=C(C([H])([H])c1c([H])c([H])c(C([H])([H])C([H])(C([H])([H])[H])C([H])([H])Oc2c([H])c([H])c3c(c2[H])C([H])([H])N(C(=O)C([H])(N([H])C(=O)C([H])(N([H])C([H])([H])[H])C([H])([H])[H])C(C([H])([H])[H])(C([H])([H])[H])C([H])([H])[H])C([H])(C(=O)N([H])C2([H])c4c([H])c([H])c([H])c([H])c4C([H])([H])C([H])([H])C2([H])[H])C3([H])[H])c([H])c1[H])C([H])(N([H])C(=O)N1C([H])([H])C([H])([H])C([H])([H])C([H])(n2nc(-c3c([H])c([H])c(Oc4c([H])c([H])c(F)c([H])c4F)c([H])c3[H])c(C(=O)N([H])[H])c2N([H])[H])C1([H])[H])C([H])([H])C([H])([H])[H]

>  <smiles>  (8) 
[H]N=C(C([H])([H])c1c([H])c([H])c(C([H])([H])C([H])(C([H])([H])[H])C([H])([H])Oc2c([H])c([H])c3c(c2[H])C([H])([H])N(C(=O)C([H])(N([H])C(=O)C([H])(N([H])C([H])([H])[H])C([H])([H])[H])C(C([H])([H])[H])(C([H])([H])[H])C([H])([H])[H])C([H])(C(=O)N([H])C2([H])c4c([H])c([H])c([H])c([H])c4C([H])([H])C([H])([H])C2([H])[H])C3([H])[H])c([H])c1[H])C([H])(N([H])C(=O)N1C([H])([H])C([H])([H])C([H])([H])C([H])(n2nc(-c3c([H])c([H])c(Oc4c([H])c([H])c(F)c([H])c4F)c([H])c3[H])c(C(=O)N([H])[H])c2N([H])[H])C1([H])[H])C([H])([H])C([H])([H])[H]

$$$$
8:0:0
     RDKit          3D

 95103  0  0  1  0  0  0  0  0999 V2000
  -29.2250  -20.8360   22.8680 C   0  0  0  0  0  2  0  0  0  0  0  0
  -28.7520  -21.6990   21.7010 C   0  0  0  0  0  2  0  0  0  0  0  0
  -30.5700  -20.2780   22.3980 C   0  0  0  0  0  3  0  0  0  0  0  0
  -30.3870  -20.1410   20.8600 C   0  0  0  0  0  3  0  0  0  0  0  0
  -29.2640  -21.0420   20.4810 N   0  0  2  0  0  4  0  0  0  0  0  0
  -28.5190  -20.4210   20.2040 H   0  0  0  0  0  0  0  0  0  0  0  0
  -33.1340  -20.6110   22.4960 C   0  0  0  0  0  1  0  0  0  0  0  0
  -31.7490  -21.1700   22.8500 C   0  0  0  0  0  2  0  0  0  0  0  0
  -30.0470  -18.6870   20.4530 C   0  0  0  0  0  2  0  0  0  0  0  0
  -31.2080  -17.6900   20.6450 C   0  0  0  0  0  2  0  0  0  0  0  0
  -31.0150  -16.6520   21.7820 C   0  0  0  0  0  2  0  0  0  0  0  0
  -30.8650  -14.5200   20.5040 C   0  0  0  0  0  0  0  0  0  0  0  0
  -30.4920  -12.4470   19.2320 C   0  0  0  0  0  2  0  0  0  0  0  0
  -29.5520  -12.6990   18.0370 C   0  0  0  0  0  2  0  0  0  0  0  0
  -28.0780  -12.5680   18.4620 C   0  0  0  0  0  2  0  0  0  0  0  0
  -27.7490  -13.3720   19.7480 C   0  0  0  0  0  3  0  0  0  0  0  0
  -28.7990  -13.1080   20.8520 C   0  0  0  0  0  2  0  0  0  0  0  0
  -30.1340  -13.3960   20.2980 N   0  0  0  0  0  0  0  0  0  0  0  0
  -31.9360  -14.7370   19.9330 O   0  0  0  0  0  0  0  0  0  0  0  0
  -30.3480  -15.4180   21.3560 N   0  0  0  0  0  0  0  0  0  0  0  0
  -29.4750  -15.1750   21.8030 H   0  0  0  0  0  0  0  0  0  0  0  0
  -25.3390  -13.9730   20.4260 C   0  0  0  0  0  0  0  0  0  0  0  0
  -24.2710  -13.2000   20.7910 C   0  0  0  0  0  0  0  0  0  0  0  0
  -24.7370  -11.8490   20.7740 C   0  0  0  0  0  0  0  0  0  0  0  0
  -26.3910  -13.0960   20.2130 N   0  0  0  0  0  0  0  0  0  0  0  0
  -26.0300  -11.8130   20.4770 N   0  0  0  0  0  0  0  0  0  0  0  0
  -24.0140  -10.5860   20.9670 C   0  0  0  0  0  0  0  0  0  0  0  0
  -24.4320   -9.6300   21.9200 C   0  0  0  0  0  3  0  0  0  0  0  0
  -23.7080   -8.4330   22.0980 C   0  0  0  0  0  3  0  0  0  0  0  0
  -22.5500   -8.1800   21.3230 C   0  0  0  0  0  0  0  0  0  0  0  0
  -22.1530   -9.1240   20.3590 C   0  0  0  0  0  3  0  0  0  0  0  0
  -22.8780  -10.3130   20.1790 C   0  0  0  0  0  3  0  0  0  0  0  0
  -21.8000   -7.0340   21.4100 O   0  0  0  0  0  0  0  0  0  0  0  0
  -21.7180   -6.3130   22.5750 C   0  0  0  0  0  0  0  0  0  0  0  0
  -21.2420   -6.8860   23.7740 C   0  0  0  0  0  3  0  0  0  0  0  0
  -21.1080   -6.0910   24.9310 C   0  0  0  0  0  3  0  0  0  0  0  0
  -21.4420   -4.7250   24.8880 C   0  0  0  0  0  0  0  0  0  0  0  0
  -21.9110   -4.1510   23.6940 C   0  0  0  0  0  3  0  0  0  0  0  0
  -22.0460   -4.9420   22.5400 C   0  0  0  0  0  0  0  0  0  0  0  0
  -22.4780   -4.3790   21.3870 F   0  0  0  0  0  0  0  0  0  0  0  0
  -21.3060   -3.9590   25.9970 F   0  0  0  0  0  0  0  0  0  0  0  0
  -22.8700  -13.6740   21.0490 C   0  0  0  0  0  0  0  0  0  0  0  0
  -22.1400  -12.9860   21.9200 N   0  0  0  0  0  0  0  0  0  0  0  0
  -22.4300  -14.6920   20.5140 O   0  0  0  0  0  0  0  0  0  0  0  0
  -22.5050  -12.1630   22.3760 H   0  0  0  0  0  0  0  0  0  0  0  0
  -21.2000  -13.2890   22.1350 H   0  0  0  0  0  0  0  0  0  0  0  0
  -25.5020  -15.3430   20.2390 N   0  0  0  0  0  0  0  0  0  0  0  0
  -24.7370  -16.0020   20.3350 H   0  0  0  0  0  0  0  0  0  0  0  0
  -26.3600  -15.7790   19.9230 H   0  0  0  0  0  0  0  0  0  0  0  0
  -29.4500  -21.9560   19.3160 C   0  0  0  0  0  2  0  0  0  0  0  0
  -30.7160  -22.8430   19.3760 C   0  0  0  0  0  2  0  0  0  0  0  0
  -30.6490  -24.1220   18.5110 C   0  0  0  0  0  2  0  0  0  0  0  0
  -30.2850  -25.4080   19.2860 C   0  0  0  0  0  2  0  0  0  0  0  0
  -28.7780  -25.6630   19.4470 C   0  0  0  0  0  2  0  0  0  0  0  0
  -28.6170  -26.9020   20.1330 O   0  0  0  0  0  0  0  0  0  0  0  0
  -24.6070  -31.8770   23.2330 C   0  0  0  0  0  0  0  0  0  0  0  0
  -27.3880  -27.5320   20.1340 C   0  0  0  0  0  0  0  0  0  0  0  0
  -23.4500  -30.4680   21.5600 C   0  0  0  0  0  3  0  0  0  0  0  0
  -24.9510  -28.9650   20.1470 C   0  0  0  0  0  0  0  0  0  0  0  0
  -25.9690  -30.8750   21.4030 C   0  0  0  0  0  2  0  0  0  0  0  0
  -26.0870  -29.5120   20.7570 C   0  0  0  0  0  0  0  0  0  0  0  0
  -27.3040  -28.7990   20.7510 C   0  0  0  0  0  3  0  0  0  0  0  0
  -26.2260  -26.9830   19.5430 C   0  0  0  0  0  3  0  0  0  0  0  0
  -25.0130  -27.6980   19.5410 C   0  0  0  0  0  3  0  0  0  0  0  0
  -23.6940  -29.8030   20.1770 C   0  0  0  0  0  2  0  0  0  0  0  0
  -24.6930  -31.0870   22.1270 N   0  0  0  0  0  0  0  0  0  0  0  0
  -23.5120  -32.1280   23.7560 O   0  0  0  0  0  0  0  0  0  0  0  0
  -22.8050  -29.4260   22.5030 C   0  0  0  0  0  0  0  0  0  0  0  0
  -21.4870  -29.2220   22.3530 N   0  0  0  0  0  0  0  0  0  0  0  0
  -23.4850  -28.8100   23.3280 O   0  0  0  0  0  0  0  0  0  0  0  0
  -21.0010  -29.7760   21.6620 H   0  0  0  0  0  0  0  0  0  0  0  0
  -18.1230  -27.9690   22.7800 C   0  0  0  0  0  0  0  0  0  0  0  0
  -20.6710  -28.2620   23.0980 C   0  0  0  0  0  3  0  0  0  0  0  0
  -20.8070  -26.8430   22.5030 C   0  0  0  0  0  2  0  0  0  0  0  0
  -19.7250  -26.5160   21.4700 C   0  0  0  0  0  2  0  0  0  0  0  0
  -18.3310  -26.6310   22.0940 C   0  0  0  0  0  2  0  0  0  0  0  0
  -19.2230  -28.7430   23.2390 C   0  0  0  0  0  0  0  0  0  0  0  0
  -18.9770  -29.9950   23.8400 C   0  0  0  0  0  3  0  0  0  0  0  0
  -17.6630  -30.4770   23.9880 C   0  0  0  0  0  3  0  0  0  0  0  0
  -16.5770  -29.7010   23.5470 C   0  0  0  0  0  3  0  0  0  0  0  0
  -16.8080  -28.4480   22.9490 C   0  0  0  0  0  3  0  0  0  0  0  0
  -25.8720  -32.5220   23.8810 C   0  0  0  0  0  3  0  0  0  0  0  0
  -26.3640  -31.7620   25.1750 C   0  0  1  0  0  0  0  0  0  0  0  0
  -25.2430  -31.5230   26.2140 C   0  0  0  0  0  1  0  0  0  0  0  0
  -26.9660  -30.3870   24.7980 C   0  0  0  0  0  1  0  0  0  0  0  0
  -27.4920  -32.5680   25.8590 C   0  0  0  0  0  1  0  0  0  0  0  0
  -25.5450  -33.9200   24.1950 N   0  0  0  0  0  0  0  0  0  0  0  0
  -25.8970  -34.9680   23.4410 C   0  0  0  0  0  0  0  0  0  0  0  0
  -26.6050  -34.8650   22.4350 O   0  0  0  0  0  0  0  0  0  0  0  0
  -24.9250  -34.0770   24.9760 H   0  0  0  0  0  0  0  0  0  0  0  0
  -24.1800  -36.7510   23.0060 C   0  0  0  0  0  1  0  0  0  0  0  0
  -25.3870  -36.3560   23.8720 C   0  0  0  0  0  3  0  0  0  0  0  0
  -27.4810  -37.2480   24.7920 C   0  0  0  0  0  1  0  0  0  0  0  0
  -26.4200  -37.4100   23.8010 N   0  0  0  0  0  0  0  0  0  0  0  0
  -26.0050  -38.3300   23.9290 H   0  0  0  0  0  0  0  0  0  0  0  0
  2  1  1  0
  3  8  1  0
  3  1  1  0
  4  9  1  0
  4  3  1  0
  5  4  1  0
  5  2  1  0
  5  6  1  6
  7  8  1  0
  9 10  1  0
 10 11  1  0
 12 20  1  0
 13 18  1  0
 14 15  1  0
 14 13  1  0
 16 15  1  0
 16 25  1  0
 16 17  1  0
 18 12  1  0
 18 17  1  0
 19 12  2  0
 20 11  1  0
 20 21  1  0
 22 23  2  0
 23 42  1  0
 24 23  1  0
 24 27  1  0
 25 22  1  0
 25 26  1  0
 26 24  2  0
 27 28  1  0
 28 29  2  0
 30 33  1  0
 30 29  1  0
 31 30  2  0
 32 31  1  0
 32 27  2  0
 33 34  1  0
 34 35  1  0
 35 36  2  0
 37 36  1  0
 37 41  1  0
 38 37  2  0
 39 34  2  0
 39 38  1  0
 40 39  1  0
 42 43  1  0
 43 46  1  0
 43 45  1  0
 44 42  2  0
 47 48  1  0
 47 22  1  0
 49 47  1  0
 50 51  1  0
 50  5  1  0
 52 53  1  0
 52 51  1  0
 53 54  1  0
 54 55  1  0
 55 57  1  0
 56 67  2  0
 57 62  1  0
 58 66  1  0
 58 68  1  0
 59 65  1  0
 59 61  1  0
 60 66  1  0
 61 60  1  0
 62 61  2  0
 63 57  2  0
 64 63  1  0
 64 59  2  0
 65 58  1  0
 66 56  1  0
 68 70  2  0
 69 68  1  0
 71 69  1  0
 72 81  2  0
 72 77  1  0
 73 69  1  0
 73 77  1  0
 74 73  1  0
 75 76  1  0
 75 74  1  0
 76 72  1  0
 77 78  2  0
 78 79  1  0
 80 79  2  0
 81 80  1  0
 82 56  1  0
 82 87  1  0
 82 83  1  0
 83 86  1  1
 83 84  1  0
 85 83  1  0
 87 90  1  0
 88 92  1  0
 88 87  1  0
 89 88  2  0
 92 91  1  0
 94 92  1  0
 94 95  1  0
 94 93  1  0
M  ISO  4  12 100  20 100  54 101  55 101
M  END
>  <TORSDO>  (9) 
F 25

>  <SCORE>  (9) 
-11.776

>  <name>  (9) 
8

>  <ligand_id>  (9) 
8

>  <original_smiles>  (9) 
[H]c1c([H])c([H])c2c(c1[H])C([H])([H])C([H])([H])C([H])([H])C2([H])N([H])C(=O)C1([H])N(C(=O)C([H])(N([H])C(=O)C([H])(N([H])C([H])([H])[H])C([H])([H])[H])C(C([H])([H])[H])(C([H])([H])[H])C([H])([H])[H])C([H])([H])c2c([H])c(OC([H])([H])C([H])([H])C([H])([H])C([H])([H])C([H])([H])[N+]3([H])C([H])([H])C([H])([H])C([H])(C([H])([H])C([H])([H])[H])C3([H])C([H])([H])C([H])([H])C([H])([H])N([H])C(=O)N3C([H])([H])C([H])([H])C([H])([H])C([H])(n4nc(-c5c([H])c([H])c(Oc6c([H])c([H])c(F)c([H])c6F)c([H])c5[H])c(C(=O)N([H])[H])c4N([H])[H])C3([H])[H])c([H])c([H])c2C1([H])[H]

>  <smiles>  (9) 
[H]c1c([H])c([H])c2c(c1[H])C([H])([H])C([H])([H])C([H])([H])C2([H])N([H])C(=O)C1([H])N(C(=O)C([H])(N([H])C(=O)C([H])(N([H])C([H])([H])[H])C([H])([H])[H])C(C([H])([H])[H])(C([H])([H])[H])C([H])([H])[H])C([H])([H])c2c([H])c(OC([H])([H])C([H])([H])C([H])([H])C([H])([H])C([H])([H])[N+]3([H])C([H])([H])C([H])([H])C([H])(C([H])([H])C([H])([H])[H])C3([H])C([H])([H])C([H])([H])C([H])([H])N([H])C(=O)N3C([H])([H])C([H])([H])C([H])([H])C([H])(n4nc(-c5c([H])c([H])c(Oc6c([H])c([H])c(F)c([H])c6F)c([H])c5[H])c(C(=O)N([H])[H])c4N([H])[H])C3([H])[H])c([H])c([H])c2C1([H])[H]

$$$$
9:0:0
     RDKit          3D

 92100  0  0  1  0  0  0  0  0999 V2000
  -28.0510  -21.5830   21.5800 N   0  0  0  0  0  4  0  0  0  0  0  0
  -28.0490  -21.4090   22.5730 H   0  0  0  0  0  0  0  0  0  0  0  0
  -27.0880  -21.5770   21.2840 H   0  0  0  0  0  0  0  0  0  0  0  0
  -28.7700  -20.4720   20.9210 C   0  0  0  0  0  2  0  0  0  0  0  0
  -28.3370  -19.1150   21.5080 C   0  0  0  0  0  2  0  0  0  0  0  0
  -29.6030  -16.3000   19.2450 C   0  0  0  0  0  3  0  0  0  0  0  0
  -30.8500  -16.2080   21.3380 C   0  0  0  0  0  3  0  0  0  0  0  0
  -28.8890  -17.4180   19.7120 C   0  0  0  0  0  3  0  0  0  0  0  0
  -30.1410  -17.3370   21.8040 C   0  0  0  0  0  3  0  0  0  0  0  0
  -30.5720  -15.6770   20.0600 C   0  0  0  0  0  0  0  0  0  0  0  0
  -29.1520  -17.9390   20.9950 C   0  0  0  0  0  0  0  0  0  0  0  0
  -31.2780  -14.4560   19.5440 C   0  0  0  0  0  0  0  0  0  0  0  0
  -30.8780  -12.1950   18.6650 C   0  0  0  0  0  2  0  0  0  0  0  0
  -29.8000  -12.2850   17.5650 C   0  0  0  0  0  2  0  0  0  0  0  0
  -28.3830  -12.2080   18.1700 C   0  0  0  0  0  2  0  0  0  0  0  0
  -28.1880  -13.1800   19.3630 C   0  0  0  0  0  3  0  0  0  0  0  0
  -29.3610  -13.0560   20.3600 C   0  0  0  0  0  2  0  0  0  0  0  0
  -30.6170  -13.2730   19.6270 N   0  0  0  0  0  0  0  0  0  0  0  0
  -32.3240  -14.6120   18.9050 O   0  0  0  0  0  0  0  0  0  0  0  0
  -26.0440  -13.9060   20.5950 C   0  0  0  0  0  0  0  0  0  0  0  0
  -24.9410  -13.2030   20.9990 C   0  0  0  0  0  0  0  0  0  0  0  0
  -25.1860  -11.8420   20.6380 C   0  0  0  0  0  0  0  0  0  0  0  0
  -26.8980  -12.9760   20.0200 N   0  0  0  0  0  0  0  0  0  0  0  0
  -26.3910  -11.7190   20.0980 N   0  0  0  0  0  0  0  0  0  0  0  0
  -24.3190  -10.6610   20.7230 C   0  0  0  0  0  0  0  0  0  0  0  0
  -24.6580   -9.5530   21.5310 C   0  0  0  0  0  3  0  0  0  0  0  0
  -23.7990   -8.4340   21.6090 C   0  0  0  0  0  3  0  0  0  0  0  0
  -22.5880   -8.4180   20.8790 C   0  0  0  0  0  0  0  0  0  0  0  0
  -22.2670   -9.5130   20.0590 C   0  0  0  0  0  3  0  0  0  0  0  0
  -23.1250  -10.6220   19.9780 C   0  0  0  0  0  3  0  0  0  0  0  0
  -21.7060   -7.3640   20.8730 O   0  0  0  0  0  0  0  0  0  0  0  0
  -21.4910   -6.6000   21.9920 C   0  0  0  0  0  0  0  0  0  0  0  0
  -21.0820   -7.1710   23.2170 C   0  0  0  0  0  3  0  0  0  0  0  0
  -20.8040   -6.3420   24.3210 C   0  0  0  0  0  3  0  0  0  0  0  0
  -20.9240   -4.9440   24.2030 C   0  0  0  0  0  0  0  0  0  0  0  0
  -21.3240   -4.3730   22.9810 C   0  0  0  0  0  3  0  0  0  0  0  0
  -21.6030   -5.2000   21.8780 C   0  0  0  0  0  0  0  0  0  0  0  0
  -21.9680   -4.6430   20.6980 F   0  0  0  0  0  0  0  0  0  0  0  0
  -20.6490   -4.1470   25.2610 F   0  0  0  0  0  0  0  0  0  0  0  0
  -23.6900  -13.7700   21.6060 C   0  0  0  0  0  0  0  0  0  0  0  0
  -23.0410  -13.0160   22.4880 N   0  0  0  0  0  0  0  0  0  0  0  0
  -23.3070  -14.9070   21.3380 O   0  0  0  0  0  0  0  0  0  0  0  0
  -23.3670  -12.0910   22.7260 H   0  0  0  0  0  0  0  0  0  0  0  0
  -22.2060  -13.3700   22.9320 H   0  0  0  0  0  0  0  0  0  0  0  0
  -26.3860  -15.2530   20.6520 N   0  0  0  0  0  0  0  0  0  0  0  0
  -25.7680  -15.9530   21.0460 H   0  0  0  0  0  0  0  0  0  0  0  0
  -27.2800  -15.6290   20.3600 H   0  0  0  0  0  0  0  0  0  0  0  0
  -28.6120  -22.9360   21.3830 C   0  0  0  0  0  2  0  0  0  0  0  0
  -28.5770  -23.4250   19.9200 C   0  0  0  0  0  2  0  0  0  0  0  0
  -28.6410  -24.9590   19.8370 C   0  0  0  0  0  2  0  0  0  0  0  0
  -28.6850  -25.5070   18.4020 C   0  0  0  0  0  2  0  0  0  0  0  0
  -28.5080  -26.9230   18.4140 O   0  0  0  0  0  0  0  0  0  0  0  0
  -24.6010  -30.9860   22.7280 C   0  0  0  0  0  0  0  0  0  0  0  0
  -27.2570  -27.4510   18.6530 C   0  0  0  0  0  0  0  0  0  0  0  0
  -23.3410  -29.7920   20.9650 C   0  0  0  0  0  3  0  0  0  0  0  0
  -24.7560  -28.6700   19.1650 C   0  0  0  0  0  0  0  0  0  0  0  0
  -25.7980  -30.4180   20.6190 C   0  0  0  0  0  2  0  0  0  0  0  0
  -25.9210  -29.1970   19.7340 C   0  0  0  0  0  0  0  0  0  0  0  0
  -27.1700  -28.5950   19.4750 C   0  0  0  0  0  3  0  0  0  0  0  0
  -26.0680  -26.9240   18.0910 C   0  0  0  0  0  3  0  0  0  0  0  0
  -24.8230  -27.5310   18.3450 C   0  0  0  0  0  3  0  0  0  0  0  0
  -23.4600  -29.3860   19.4720 C   0  0  0  0  0  2  0  0  0  0  0  0
  -24.6030  -30.4050   21.4960 N   0  0  0  0  0  0  0  0  0  0  0  0
  -23.5630  -31.0580   23.4010 O   0  0  0  0  0  0  0  0  0  0  0  0
  -22.8720  -28.5620   21.7720 C   0  0  0  0  0  0  0  0  0  0  0  0
  -21.5780  -28.2250   21.6470 N   0  0  0  0  0  0  0  0  0  0  0  0
  -23.6650  -27.9190   22.4640 O   0  0  0  0  0  0  0  0  0  0  0  0
  -20.9910  -28.8110   21.0710 H   0  0  0  0  0  0  0  0  0  0  0  0
  -18.4420  -26.4580   21.9220 C   0  0  0  0  0  0  0  0  0  0  0  0
  -20.9250  -27.0790   22.2790 C   0  0  0  0  0  3  0  0  0  0  0  0
  -21.2560  -25.7660   21.5310 C   0  0  0  0  0  2  0  0  0  0  0  0
  -20.2190  -25.4030   20.4630 C   0  0  0  0  0  2  0  0  0  0  0  0
  -18.8320  -25.2460   21.0910 C   0  0  0  0  0  2  0  0  0  0  0  0
  -19.4240  -27.3250   22.4680 C   0  0  0  0  0  0  0  0  0  0  0  0
  -19.0090  -28.4560   23.2020 C   0  0  0  0  0  3  0  0  0  0  0  0
  -17.6420  -28.7230   23.4000 C   0  0  0  0  0  3  0  0  0  0  0  0
  -16.6730  -27.8520   22.8710 C   0  0  0  0  0  3  0  0  0  0  0  0
  -17.0730  -26.7200   22.1390 C   0  0  0  0  0  3  0  0  0  0  0  0
  -25.8950  -31.6110   23.3400 C   0  0  0  0  0  3  0  0  0  0  0  0
  -25.5180  -32.8890   23.9590 N   0  0  0  0  0  0  0  0  0  0  0  0
  -25.7300  -34.0910   23.4080 C   0  0  0  0  0  0  0  0  0  0  0  0
  -26.3370  -34.2440   22.3440 O   0  0  0  0  0  0  0  0  0  0  0  0
  -24.9650  -32.8370   24.8020 H   0  0  0  0  0  0  0  0  0  0  0  0
  -23.8860  -35.7990   23.4810 C   0  0  0  0  0  1  0  0  0  0  0  0
  -25.1810  -35.3210   24.1560 C   0  0  0  0  0  3  0  0  0  0  0  0
  -27.2900  -36.1570   25.0930 C   0  0  0  0  0  1  0  0  0  0  0  0
  -26.1450  -36.4410   24.2340 N   0  0  0  0  0  0  0  0  0  0  0  0
  -25.6920  -37.2830   24.5760 H   0  0  0  0  0  0  0  0  0  0  0  0
  -26.6040  -30.6700   24.3900 C   0  0  1  0  0  0  0  0  0  0  0  0
  -25.6490  -30.1220   25.4750 C   0  0  0  0  0  1  0  0  0  0  0  0
  -27.2600  -29.4600   23.6830 C   0  0  0  0  0  1  0  0  0  0  0  0
  -27.7430  -31.4390   25.0990 C   0  0  0  0  0  1  0  0  0  0  0  0
  1  2  1  0
  3  1  1  0
  4  5  1  0
  4  1  1  0
  6  8  2  0
  6 10  1  0
  7  9  1  0
  8 11  1  0
 10  7  2  0
 11  5  1  0
 11  9  2  0
 12 18  1  0
 12 10  1  0
 13 18  1  0
 14 15  1  0
 14 13  1  0
 16 15  1  0
 16 23  1  0
 16 17  1  0
 18 17  1  0
 19 12  2  0
 20 45  1  0
 20 21  2  0
 21 40  1  0
 22 25  1  0
 22 21  1  0
 23 24  1  0
 23 20  1  0
 24 22  2  0
 25 26  1  0
 26 27  2  0
 28 27  1  0
 29 28  2  0
 30 29  1  0
 30 25  2  0
 31 28  1  0
 31 32  1  0
 32 33  1  0
 33 34  2  0
 35 34  1  0
 35 39  1  0
 36 35  2  0
 37 32  2  0
 37 36  1  0
 38 37  1  0
 40 41  1  0
 41 43  1  0
 41 44  1  0
 42 40  2  0
 45 46  1  0
 47 45  1  0
 48  1  1  0
 49 48  1  0
 50 49  1  0
 51 52  1  0
 51 50  1  0
 52 54  1  0
 53 64  2  0
 54 59  1  0
 55 63  1  0
 55 65  1  0
 56 62  1  0
 56 58  1  0
 57 63  1  0
 58 57  1  0
 59 58  2  0
 60 61  1  0
 60 54  2  0
 61 56  2  0
 62 55  1  0
 63 53  1  0
 65 67  2  0
 66 65  1  0
 68 66  1  0
 69 78  2  0
 69 74  1  0
 70 66  1  0
 70 74  1  0
 71 70  1  0
 72 73  1  0
 72 71  1  0
 73 69  1  0
 74 75  2  0
 75 76  1  0
 77 76  2  0
 78 77  1  0
 79 53  1  0
 79 80  1  0
 79 89  1  0
 80 83  1  0
 81 80  1  0
 81 85  1  0
 82 81  2  0
 85 84  1  0
 85 87  1  0
 87 88  1  0
 87 86  1  0
 89 92  1  1
 89 90  1  0
 91 89  1  0
M  ISO  4  10 100  12 100  51 101  52 101
M  END
>  <TORSDO>  (10) 
F 23

>  <SCORE>  (10) 
-7.666

>  <name>  (10) 
9

>  <ligand_id>  (10) 
9

>  <original_smiles>  (10) 
[H]c1c([H])c([H])c2c(c1[H])C([H])([H])C([H])([H])C([H])([H])C2([H])N([H])C(=O)C1([H])N(C(=O)C([H])(N([H])C(=O)C([H])(N([H])C([H])([H])[H])C([H])([H])[H])C(C([H])([H])[H])(C([H])([H])[H])C([H])([H])[H])C([H])([H])c2c([H])c(OC([H])([H])C([H])([H])C([H])([H])C([H])([H])[N+]([H])([H])C([H])([H])C([H])([H])c3c([H])c([H])c(C(=O)N4C([H])([H])C([H])([H])C([H])([H])C([H])(n5nc(-c6c([H])c([H])c(Oc7c([H])c([H])c(F)c([H])c7F)c([H])c6[H])c(C(=O)N([H])[H])c5N([H])[H])C4([H])[H])c([H])c3[H])c([H])c([H])c2C1([H])[H]

>  <smiles>  (10) 
[H]c1c([H])c([H])c2c(c1[H])C([H])([H])C([H])([H])C([H])([H])C2([H])N([H])C(=O)C1([H])N(C(=O)C([H])(N([H])C(=O)C([H])(N([H])C([H])([H])[H])C([H])([H])[H])C(C([H])([H])[H])(C([H])([H])[H])C([H])([H])[H])C([H])([H])c2c([H])c(OC([H])([H])C([H])([H])C([H])([H])C([H])([H])[N+]([H])([H])C([H])([H])C([H])([H])c3c([H])c([H])c(C(=O)N4C([H])([H])C([H])([H])C([H])([H])C([H])(n5nc(-c6c([H])c([H])c(Oc7c([H])c([H])c(F)c([H])c7F)c([H])c6[H])c(C(=O)N([H])[H])c5N([H])[H])C4([H])[H])c([H])c3[H])c([H])c([H])c2C1([H])[H]

$$$$
10:0:0
     RDKit          3D

 91 99  0  0  1  0  0  0  0  0999 V2000
  -28.8480  -21.6060   19.9600 C   0  0  0  0  0  2  0  0  0  0  0  0
  -29.6530  -20.4200   19.4070 C   0  0  0  0  0  2  0  0  0  0  0  0
  -29.8900  -19.3080   20.4360 C   0  0  0  0  0  0  0  0  0  0  0  0
  -30.8590  -19.3690   21.1970 O   0  0  0  0  0  0  0  0  0  0  0  0
  -30.8840  -14.4040   19.9680 C   0  0  0  0  0  0  0  0  0  0  0  0
  -30.4540  -12.2590   18.8600 C   0  0  0  0  0  2  0  0  0  0  0  0
  -29.4610  -12.4970   17.7060 C   0  0  0  0  0  2  0  0  0  0  0  0
  -28.0080  -12.4070   18.2120 C   0  0  0  0  0  2  0  0  0  0  0  0
  -27.7560  -13.2610   19.4840 C   0  0  0  0  0  3  0  0  0  0  0  0
  -28.8610  -13.0250   20.5410 C   0  0  0  0  0  2  0  0  0  0  0  0
  -30.1630  -13.2570   19.8960 N   0  0  0  0  0  0  0  0  0  0  0  0
  -32.0290  -14.5210   19.5150 O   0  0  0  0  0  0  0  0  0  0  0  0
  -28.7800  -17.3210   19.2170 C   0  0  0  0  0  2  0  0  0  0  0  0
  -29.1030  -17.1860   21.7030 C   0  0  0  0  0  2  0  0  0  0  0  0
  -30.0140  -16.4270   19.0470 C   0  0  0  0  0  2  0  0  0  0  0  0
  -30.2850  -16.2150   21.4650 C   0  0  0  0  0  2  0  0  0  0  0  0
  -28.8620  -18.1550   20.5160 C   0  0  0  0  0  3  0  0  0  0  0  0
  -30.1440  -15.5090   20.1860 N   0  0  0  0  0  0  0  0  0  0  0  0
  -25.4110  -13.9340   20.3080 C   0  0  0  0  0  0  0  0  0  0  0  0
  -24.3410  -13.1900   20.7240 C   0  0  0  0  0  0  0  0  0  0  0  0
  -24.7660  -11.8270   20.6690 C   0  0  0  0  0  0  0  0  0  0  0  0
  -26.4210  -13.0270   20.0290 N   0  0  0  0  0  0  0  0  0  0  0  0
  -26.0380  -11.7530   20.3030 N   0  0  0  0  0  0  0  0  0  0  0  0
  -24.0160  -10.5830   20.8880 C   0  0  0  0  0  0  0  0  0  0  0  0
  -24.4420   -9.6210   21.8310 C   0  0  0  0  0  3  0  0  0  0  0  0
  -23.6930   -8.4430   22.0370 C   0  0  0  0  0  3  0  0  0  0  0  0
  -22.5070   -8.2160   21.3000 C   0  0  0  0  0  0  0  0  0  0  0  0
  -22.1000   -9.1660   20.3470 C   0  0  0  0  0  3  0  0  0  0  0  0
  -22.8480  -10.3370   20.1390 C   0  0  0  0  0  3  0  0  0  0  0  0
  -21.7310   -7.0880   21.4160 O   0  0  0  0  0  0  0  0  0  0  0  0
  -21.6470   -6.3900   22.5940 C   0  0  0  0  0  0  0  0  0  0  0  0
  -21.2120   -7.0000   23.7920 C   0  0  0  0  0  3  0  0  0  0  0  0
  -21.0730   -6.2300   24.9620 C   0  0  0  0  0  3  0  0  0  0  0  0
  -21.3580   -4.8510   24.9390 C   0  0  0  0  0  0  0  0  0  0  0  0
  -21.7860   -4.2420   23.7460 C   0  0  0  0  0  3  0  0  0  0  0  0
  -21.9260   -5.0090   22.5760 C   0  0  0  0  0  0  0  0  0  0  0  0
  -22.3180   -4.4130   21.4240 F   0  0  0  0  0  0  0  0  0  0  0  0
  -21.2170   -4.1100   26.0620 F   0  0  0  0  0  0  0  0  0  0  0  0
  -22.9720  -13.7020   21.0640 C   0  0  0  0  0  0  0  0  0  0  0  0
  -22.2800  -13.0380   21.9810 N   0  0  0  0  0  0  0  0  0  0  0  0
  -22.5260  -14.7280   20.5490 O   0  0  0  0  0  0  0  0  0  0  0  0
  -22.6540  -12.2060   22.4160 H   0  0  0  0  0  0  0  0  0  0  0  0
  -21.3660  -13.3650   22.2570 H   0  0  0  0  0  0  0  0  0  0  0  0
  -25.6040  -15.3000   20.1270 N   0  0  0  0  0  0  0  0  0  0  0  0
  -24.8670  -15.9790   20.2810 H   0  0  0  0  0  0  0  0  0  0  0  0
  -26.4640  -15.7130   19.7910 H   0  0  0  0  0  0  0  0  0  0  0  0
  -29.7410  -22.6960   20.5660 C   0  0  0  0  0  2  0  0  0  0  0  0
  -28.9440  -23.9510   20.9390 C   0  0  0  0  0  2  0  0  0  0  0  0
  -29.8560  -25.1520   21.2400 C   0  0  0  0  0  2  0  0  0  0  0  0
  -29.0820  -26.4690   21.3620 C   0  0  0  0  0  2  0  0  0  0  0  0
  -28.4520  -26.7000   20.1110 O   0  0  0  0  0  0  0  0  0  0  0  0
  -24.5400  -31.8090   23.1900 C   0  0  0  0  0  0  0  0  0  0  0  0
  -27.2990  -27.4360   20.1530 C   0  0  0  0  0  0  0  0  0  0  0  0
  -23.3820  -30.4050   21.5110 C   0  0  0  0  0  3  0  0  0  0  0  0
  -24.8850  -28.8870   20.1170 C   0  0  0  0  0  0  0  0  0  0  0  0
  -25.9030  -30.7950   21.3720 C   0  0  0  0  0  2  0  0  0  0  0  0
  -26.0180  -29.4260   20.7410 C   0  0  0  0  0  0  0  0  0  0  0  0
  -27.2280  -28.7040   20.7690 C   0  0  0  0  0  3  0  0  0  0  0  0
  -26.1570  -26.9060   19.5190 C   0  0  0  0  0  3  0  0  0  0  0  0
  -24.9460  -27.6220   19.5060 C   0  0  0  0  0  3  0  0  0  0  0  0
  -23.6310  -29.7310   20.1350 C   0  0  0  0  0  2  0  0  0  0  0  0
  -24.6250  -31.0170   22.0840 N   0  0  0  0  0  0  0  0  0  0  0  0
  -23.4450  -32.0710   23.7060 O   0  0  0  0  0  0  0  0  0  0  0  0
  -22.7190  -29.3740   22.4510 C   0  0  0  0  0  0  0  0  0  0  0  0
  -21.4010  -29.1820   22.2900 N   0  0  0  0  0  0  0  0  0  0  0  0
  -23.3880  -28.7500   23.2800 O   0  0  0  0  0  0  0  0  0  0  0  0
  -20.9260  -29.7360   21.5900 H   0  0  0  0  0  0  0  0  0  0  0  0
  -18.0250  -27.9630   22.6870 C   0  0  0  0  0  0  0  0  0  0  0  0
  -20.5720  -28.2350   23.0330 C   0  0  0  0  0  3  0  0  0  0  0  0
  -20.7010  -26.8080   22.4550 C   0  0  0  0  0  2  0  0  0  0  0  0
  -19.6310  -26.4820   21.4080 C   0  0  0  0  0  2  0  0  0  0  0  0
  -18.2300  -26.6160   22.0130 C   0  0  0  0  0  2  0  0  0  0  0  0
  -19.1260  -28.7290   23.1520 C   0  0  0  0  0  0  0  0  0  0  0  0
  -18.8840  -29.9890   23.7400 C   0  0  0  0  0  3  0  0  0  0  0  0
  -17.5730  -30.4860   23.8690 C   0  0  0  0  0  3  0  0  0  0  0  0
  -16.4850  -29.7160   23.4210 C   0  0  0  0  0  3  0  0  0  0  0  0
  -16.7110  -28.4560   22.8380 C   0  0  0  0  0  3  0  0  0  0  0  0
  -25.8090  -32.4440   23.8430 C   0  0  0  0  0  3  0  0  0  0  0  0
  -26.3050  -31.6650   25.1220 C   0  0  1  0  0  0  0  0  0  0  0  0
  -25.1900  -31.4120   26.1630 C   0  0  0  0  0  1  0  0  0  0  0  0
  -26.9110  -30.2990   24.7250 C   0  0  0  0  0  1  0  0  0  0  0  0
  -27.4360  -32.4610   25.8160 C   0  0  0  0  0  1  0  0  0  0  0  0
  -25.4840  -33.8360   24.1740 N   0  0  0  0  0  0  0  0  0  0  0  0
  -25.8220  -34.8950   23.4240 C   0  0  0  0  0  0  0  0  0  0  0  0
  -26.5130  -34.8010   22.4060 O   0  0  0  0  0  0  0  0  0  0  0  0
  -24.8720  -33.9820   24.9640 H   0  0  0  0  0  0  0  0  0  0  0  0
  -24.0810  -36.6700   23.0450 C   0  0  0  0  0  1  0  0  0  0  0  0
  -25.3130  -36.2770   23.8770 C   0  0  0  0  0  3  0  0  0  0  0  0
  -27.4250  -37.1810   24.7430 C   0  0  0  0  0  1  0  0  0  0  0  0
  -26.3370  -37.3400   23.7810 N   0  0  0  0  0  0  0  0  0  0  0  0
  -25.9200  -38.2550   23.9270 H   0  0  0  0  0  0  0  0  0  0  0  0
  1 47  1  0
  2  1  1  0
  2  3  1  0
  3  4  2  0
  5 18  1  0
  6 11  1  0
  7  8  1  0
  7  6  1  0
  9  8  1  0
  9 22  1  0
  9 10  1  0
 11  5  1  0
 11 10  1  0
 12  5  2  0
 13 17  1  0
 15 13  1  0
 15 18  1  0
 16 14  1  0
 17  3  1  0
 17 14  1  0
 18 16  1  0
 19 20  2  0
 20 39  1  0
 21 20  1  0
 21 24  1  0
 22 23  1  0
 22 19  1  0
 23 21  2  0
 24 25  1  0
 25 26  2  0
 27 30  1  0
 27 26  1  0
 28 27  2  0
 29 28  1  0
 29 24  2  0
 30 31  1  0
 31 32  1  0
 32 33  2  0
 34 33  1  0
 34 38  1  0
 35 34  2  0
 36 31  2  0
 36 35  1  0
 37 36  1  0
 39 40  1  0
 40 43  1  0
 40 42  1  0
 41 39  2  0
 44 45  1  0
 44 19  1  0
 46 44  1  0
 47 48  1  0
 48 49  1  0
 49 50  1  0
 51 53  1  0
 51 50  1  0
 52 63  2  0
 53 58  1  0
 54 62  1  0
 54 64  1  0
 55 61  1  0
 55 57  1  0
 56 62  1  0
 57 58  2  0
 57 56  1  0
 59 53  2  0
 60 59  1  0
 60 55  2  0
 61 54  1  0
 62 52  1  0
 64 66  2  0
 65 64  1  0
 67 65  1  0
 68 77  2  0
 68 73  1  0
 69 65  1  0
 69 73  1  0
 70 69  1  0
 71 72  1  0
 71 70  1  0
 72 68  1  0
 73 74  2  0
 74 75  1  0
 76 75  2  0
 77 76  1  0
 78 52  1  0
 78 83  1  0
 78 79  1  0
 79 82  1  1
 79 80  1  0
 81 79  1  0
 83 86  1  0
 84 88  1  0
 84 83  1  0
 85 84  2  0
 88 87  1  0
 90 88  1  0
 90 91  1  0
 90 89  1  0
M  ISO  4   5 100  18 100  50 101  51 101
M  END
>  <TORSDO>  (11) 
F 22

>  <SCORE>  (11) 
-12.539

>  <name>  (11) 
10

>  <ligand_id>  (11) 
10

>  <original_smiles>  (11) 
[H]c1c([H])c([H])c2c(c1[H])C([H])([H])C([H])([H])C([H])([H])C2([H])N([H])C(=O)C1([H])N(C(=O)C([H])(N([H])C(=O)C([H])(N([H])C([H])([H])[H])C([H])([H])[H])C(C([H])([H])[H])(C([H])([H])[H])C([H])([H])[H])C([H])([H])c2c([H])c(OC([H])([H])C([H])([H])C([H])([H])C([H])([H])C([H])([H])C([H])([H])C(=O)C3([H])C([H])([H])C([H])([H])N(C(=O)N4C([H])([H])C([H])([H])C([H])([H])C([H])(n5nc(-c6c([H])c([H])c(Oc7c([H])c([H])c(F)c([H])c7F)c([H])c6[H])c(C(=O)N([H])[H])c5N([H])[H])C4([H])[H])C([H])([H])C3([H])[H])c([H])c([H])c2C1([H])[H]

>  <smiles>  (11) 
[H]c1c([H])c([H])c2c(c1[H])C([H])([H])C([H])([H])C([H])([H])C2([H])N([H])C(=O)C1([H])N(C(=O)C([H])(N([H])C(=O)C([H])(N([H])C([H])([H])[H])C([H])([H])[H])C(C([H])([H])[H])(C([H])([H])[H])C([H])([H])[H])C([H])([H])c2c([H])c(OC([H])([H])C([H])([H])C([H])([H])C([H])([H])C([H])([H])C([H])([H])C(=O)C3([H])C([H])([H])C([H])([H])N(C(=O)N4C([H])([H])C([H])([H])C([H])([H])C([H])(n5nc(-c6c([H])c([H])c(Oc7c([H])c([H])c(F)c([H])c7F)c([H])c6[H])c(C(=O)N([H])[H])c5N([H])[H])C4([H])[H])C([H])([H])C3([H])[H])c([H])c([H])c2C1([H])[H]

$$$$
11:0:0
     RDKit          3D

 97105  0  0  1  0  0  0  0  0999 V2000
  -32.0350  -18.9040   22.2300 C   0  0  0  0  0  2  0  0  0  0  0  0
  -32.0590  -20.4280   22.4060 C   0  0  0  0  0  2  0  0  0  0  0  0
  -29.5980  -19.1930   21.3490 C   0  0  0  0  0  2  0  0  0  0  0  0
  -30.9070  -18.3130   21.3350 C   0  0  0  0  0  3  0  0  0  0  0  0
  -30.6810  -20.9210   22.8780 C   0  0  0  0  0  3  0  0  0  0  0  0
  -29.6890  -20.7380   21.6990 C   0  0  0  0  0  3  0  0  0  0  0  0
  -29.9830  -21.6750   20.5480 N   0  0  0  0  0  4  0  0  0  0  0  0
  -29.9650  -21.1180   19.7070 H   0  0  0  0  0  0  0  0  0  0  0  0
  -30.9250  -22.0240   20.6210 H   0  0  0  0  0  0  0  0  0  0  0  0
  -29.0120  -22.8060   20.3010 C   0  0  0  0  0  2  0  0  0  0  0  0
  -29.5810  -24.2740   20.1520 C   0  0  0  0  0  2  0  0  0  0  0  0
  -28.4690  -25.2990   19.7370 C   0  0  0  0  0  2  0  0  0  0  0  0
  -28.6690  -26.7400   19.9060 O   0  0  0  0  0  0  0  0  0  0  0  0
  -24.6720  -31.7680   23.1310 C   0  0  0  0  0  0  0  0  0  0  0  0
  -27.5050  -27.5140   19.8850 C   0  0  0  0  0  0  0  0  0  0  0  0
  -23.5360  -30.3800   21.4350 C   0  0  0  0  0  3  0  0  0  0  0  0
  -25.0570  -28.9760   19.9470 C   0  0  0  0  0  0  0  0  0  0  0  0
  -26.0540  -30.8430   21.2640 C   0  0  0  0  0  2  0  0  0  0  0  0
  -26.2010  -29.5040   20.5620 C   0  0  0  0  0  0  0  0  0  0  0  0
  -27.4280  -28.7840   20.5250 C   0  0  0  0  0  3  0  0  0  0  0  0
  -26.3330  -27.0360   19.2450 C   0  0  0  0  0  3  0  0  0  0  0  0
  -25.1230  -27.7460   19.2820 C   0  0  0  0  0  3  0  0  0  0  0  0
  -23.7780  -29.7790   20.0270 C   0  0  0  0  0  2  0  0  0  0  0  0
  -24.7720  -31.0110   22.0010 N   0  0  0  0  0  0  0  0  0  0  0  0
  -23.5780  -31.9690   23.6750 O   0  0  0  0  0  0  0  0  0  0  0  0
  -22.9300  -29.2890   22.3490 C   0  0  0  0  0  0  0  0  0  0  0  0
  -21.6140  -29.0550   22.2140 N   0  0  0  0  0  0  0  0  0  0  0  0
  -23.6410  -28.6620   23.1380 O   0  0  0  0  0  0  0  0  0  0  0  0
  -21.0970  -29.6170   21.5540 H   0  0  0  0  0  0  0  0  0  0  0  0
  -18.2930  -27.7000   22.6790 C   0  0  0  0  0  0  0  0  0  0  0  0
  -20.8410  -28.0500   22.9460 C   0  0  0  0  0  3  0  0  0  0  0  0
  -20.9960  -26.6510   22.3060 C   0  0  0  0  0  2  0  0  0  0  0  0
  -19.9010  -26.3290   21.2840 C   0  0  0  0  0  2  0  0  0  0  0  0
  -18.5190  -26.3900   21.9420 C   0  0  0  0  0  2  0  0  0  0  0  0
  -19.3830  -28.4860   23.1350 C   0  0  0  0  0  0  0  0  0  0  0  0
  -19.1180  -29.7120   23.7850 C   0  0  0  0  0  3  0  0  0  0  0  0
  -17.7960  -30.1520   23.9800 C   0  0  0  0  0  3  0  0  0  0  0  0
  -16.7200  -29.3620   23.5390 C   0  0  0  0  0  3  0  0  0  0  0  0
  -16.9700  -28.1380   22.8930 C   0  0  0  0  0  3  0  0  0  0  0  0
  -25.9250  -32.4350   23.7780 C   0  0  0  0  0  3  0  0  0  0  0  0
  -25.5600  -33.8150   24.1260 N   0  0  0  0  0  0  0  0  0  0  0  0
  -25.8580  -34.8900   23.3830 C   0  0  0  0  0  0  0  0  0  0  0  0
  -26.5400  -34.8270   22.3560 O   0  0  0  0  0  0  0  0  0  0  0  0
  -24.9540  -33.9360   24.9230 H   0  0  0  0  0  0  0  0  0  0  0  0
  -24.0620  -36.6180   23.0450 C   0  0  0  0  0  1  0  0  0  0  0  0
  -25.3150  -36.2520   23.8560 C   0  0  0  0  0  3  0  0  0  0  0  0
  -27.4080  -37.2110   24.7090 C   0  0  0  0  0  1  0  0  0  0  0  0
  -26.3060  -37.3470   23.7600 N   0  0  0  0  0  0  0  0  0  0  0  0
  -25.8630  -38.2490   23.9140 H   0  0  0  0  0  0  0  0  0  0  0  0
  -26.4540  -31.6610   25.0470 C   0  0  1  0  0  0  0  0  0  0  0  0
  -25.3580  -31.3650   26.0970 C   0  0  0  0  0  1  0  0  0  0  0  0
  -27.0940  -30.3130   24.6400 C   0  0  0  0  0  1  0  0  0  0  0  0
  -27.5660  -32.4860   25.7370 C   0  0  0  0  0  1  0  0  0  0  0  0
  -30.7540  -16.8180   21.8370 C   0  0  0  0  0  2  0  0  0  0  0  0
  -30.7010  -14.7790   20.3700 C   0  0  0  0  0  0  0  0  0  0  0  0
  -30.3790  -12.6570   19.1270 C   0  0  0  0  0  2  0  0  0  0  0  0
  -29.4020  -12.8630   17.9530 C   0  0  0  0  0  2  0  0  0  0  0  0
  -27.9450  -12.6820   18.4210 C   0  0  0  0  0  2  0  0  0  0  0  0
  -27.6280  -13.4820   19.7140 C   0  0  0  0  0  3  0  0  0  0  0  0
  -28.7160  -13.2640   20.7860 C   0  0  0  0  0  2  0  0  0  0  0  0
  -30.0110  -13.6160   20.1830 N   0  0  0  0  0  0  0  0  0  0  0  0
  -31.8280  -14.9550   19.8980 O   0  0  0  0  0  0  0  0  0  0  0  0
  -30.0690  -15.7750   21.0390 N   0  0  0  0  0  0  0  0  0  0  0  0
  -29.1070  -15.5880   21.2820 H   0  0  0  0  0  0  0  0  0  0  0  0
  -25.2400  -14.0330   20.4900 C   0  0  0  0  0  0  0  0  0  0  0  0
  -24.1920  -13.2370   20.8690 C   0  0  0  0  0  0  0  0  0  0  0  0
  -24.6750  -11.8940   20.8060 C   0  0  0  0  0  0  0  0  0  0  0  0
  -26.2930  -13.1740   20.2210 N   0  0  0  0  0  0  0  0  0  0  0  0
  -25.9590  -11.8810   20.4700 N   0  0  0  0  0  0  0  0  0  0  0  0
  -23.9730  -10.6170   20.9890 C   0  0  0  0  0  0  0  0  0  0  0  0
  -24.4220   -9.6540   21.9190 C   0  0  0  0  0  3  0  0  0  0  0  0
  -23.7190   -8.4410   22.0900 C   0  0  0  0  0  3  0  0  0  0  0  0
  -22.5530   -8.1840   21.3310 C   0  0  0  0  0  0  0  0  0  0  0  0
  -22.1230   -9.1360   20.3910 C   0  0  0  0  0  3  0  0  0  0  0  0
  -22.8260  -10.3400   20.2170 C   0  0  0  0  0  3  0  0  0  0  0  0
  -21.8210   -7.0250   21.4130 O   0  0  0  0  0  0  0  0  0  0  0  0
  -21.7680   -6.2850   22.5680 C   0  0  0  0  0  0  0  0  0  0  0  0
  -21.3030   -6.8350   23.7820 C   0  0  0  0  0  3  0  0  0  0  0  0
  -21.2000   -6.0210   24.9280 C   0  0  0  0  0  3  0  0  0  0  0  0
  -21.5510   -4.6590   24.8610 C   0  0  0  0  0  0  0  0  0  0  0  0
  -22.0080   -4.1100   23.6490 C   0  0  0  0  0  3  0  0  0  0  0  0
  -22.1130   -4.9200   22.5060 C   0  0  0  0  0  0  0  0  0  0  0  0
  -22.5340   -4.3810   21.3370 F   0  0  0  0  0  0  0  0  0  0  0  0
  -21.4440   -3.8760   25.9590 F   0  0  0  0  0  0  0  0  0  0  0  0
  -22.7940  -13.6870   21.1780 C   0  0  0  0  0  0  0  0  0  0  0  0
  -22.0960  -12.9660   22.0490 N   0  0  0  0  0  0  0  0  0  0  0  0
  -22.3280  -14.7120   20.6820 O   0  0  0  0  0  0  0  0  0  0  0  0
  -22.4860  -12.1360   22.4690 H   0  0  0  0  0  0  0  0  0  0  0  0
  -21.1580  -13.2480   22.2970 H   0  0  0  0  0  0  0  0  0  0  0  0
  -25.3790  -15.4080   20.3310 N   0  0  0  0  0  0  0  0  0  0  0  0
  -24.6020  -16.0480   20.4610 H   0  0  0  0  0  0  0  0  0  0  0  0
  -26.2120  -15.8640   19.9790 H   0  0  0  0  0  0  0  0  0  0  0  0
  -30.7330  -22.3190   23.5560 C   0  0  0  0  0  2  0  0  0  0  0  0
  -29.6510  -22.5450   24.5370 N   0  0  0  0  0  4  0  0  0  0  0  0
  -28.7350  -22.5180   24.1290 H   0  0  0  0  0  0  0  0  0  0  0  0
  -29.7680  -23.4480   24.9640 H   0  0  0  0  0  0  0  0  0  0  0  0
  -29.6920  -21.8630   25.2760 H   0  0  0  0  0  0  0  0  0  0  0  0
  1  2  1  0
  2  5  1  0
  3  6  1  0
  4  3  1  0
  4 54  1  0
  4  1  1  0
  5 93  1  0
  6  7  1  0
  6  5  1  0
  7  9  1  0
  8  7  1  0
 10  7  1  0
 11 10  1  0
 12 13  1  0
 12 11  1  0
 14 25  2  0
 15 13  1  0
 15 20  1  0
 16 24  1  0
 16 26  1  0
 17 23  1  0
 17 19  1  0
 18 24  1  0
 19 18  1  0
 20 19  2  0
 21 22  1  0
 21 15  2  0
 22 17  2  0
 23 16  1  0
 24 14  1  0
 26 28  2  0
 27 26  1  0
 29 27  1  0
 30 39  2  0
 30 35  1  0
 31 27  1  0
 31 35  1  0
 32 31  1  0
 33 34  1  0
 33 32  1  0
 34 30  1  0
 35 36  2  0
 36 37  1  0
 38 37  2  0
 39 38  1  0
 40 14  1  0
 40 41  1  0
 40 50  1  0
 41 44  1  0
 42 46  1  0
 42 41  1  0
 43 42  2  0
 46 45  1  0
 48 46  1  0
 48 49  1  0
 48 47  1  0
 50 53  1  1
 50 51  1  0
 52 50  1  0
 55 63  1  0
 56 61  1  0
 57 58  1  0
 57 56  1  0
 59 58  1  0
 59 68  1  0
 59 60  1  0
 61 55  1  0
 61 60  1  0
 62 55  2  0
 63 64  1  0
 63 54  1  0
 65 66  2  0
 66 85  1  0
 67 66  1  0
 67 70  1  0
 68 69  1  0
 68 65  1  0
 69 67  2  0
 70 71  1  0
 71 72  2  0
 73 76  1  0
 73 72  1  0
 74 73  2  0
 75 74  1  0
 75 70  2  0
 76 77  1  0
 77 78  1  0
 78 79  2  0
 80 79  1  0
 80 84  1  0
 81 80  2  0
 82 77  2  0
 82 81  1  0
 83 82  1  0
 85 86  1  0
 86 89  1  0
 86 88  1  0
 87 85  2  0
 90 91  1  0
 90 65  1  0
 92 90  1  0
 93 94  1  0
 94 96  1  0
 94 97  1  0
 95 94  1  0
M  ISO  4  12 101  13 101  55 100  63 100
M  END
>  <TORSDO>  (12) 
F 23

>  <SCORE>  (12) 
-12.559

>  <name>  (12) 
11

>  <ligand_id>  (12) 
11

>  <original_smiles>  (12) 
[H]c1c([H])c([H])c2c(c1[H])C([H])([H])C([H])([H])C([H])([H])C2([H])N([H])C(=O)C1([H])N(C(=O)C([H])(N([H])C(=O)C([H])(N([H])C([H])([H])[H])C([H])([H])[H])C(C([H])([H])[H])(C([H])([H])[H])C([H])([H])[H])C([H])([H])c2c([H])c(OC([H])([H])C([H])([H])C([H])([H])[N+]([H])([H])C3([H])C([H])([H])C([H])(C([H])([H])N([H])C(=O)N4C([H])([H])C([H])([H])C([H])([H])C([H])(n5nc(-c6c([H])c([H])c(Oc7c([H])c([H])c(F)c([H])c7F)c([H])c6[H])c(C(=O)N([H])[H])c5N([H])[H])C4([H])[H])C([H])([H])C([H])([H])C3([H])C([H])([H])[N+]([H])([H])[H])c([H])c([H])c2C1([H])[H]

>  <smiles>  (12) 
[H]c1c([H])c([H])c2c(c1[H])C([H])([H])C([H])([H])C([H])([H])C2([H])N([H])C(=O)C1([H])N(C(=O)C([H])(N([H])C(=O)C([H])(N([H])C([H])([H])[H])C([H])([H])[H])C(C([H])([H])[H])(C([H])([H])[H])C([H])([H])[H])C([H])([H])c2c([H])c(OC([H])([H])C([H])([H])C([H])([H])[N+]([H])([H])C3([H])C([H])([H])C([H])(C([H])([H])N([H])C(=O)N4C([H])([H])C([H])([H])C([H])([H])C([H])(n5nc(-c6c([H])c([H])c(Oc7c([H])c([H])c(F)c([H])c7F)c([H])c6[H])c(C(=O)N([H])[H])c5N([H])[H])C4([H])[H])C([H])([H])C([H])([H])C3([H])C([H])([H])[N+]([H])([H])[H])c([H])c([H])c2C1([H])[H]

$$$$
12:0:0
     RDKit          3D

 93101  0  0  1  0  0  0  0  0999 V2000
  -29.5080  -20.5580   20.9520 C   0  0  0  0  0  0  0  0  0  0  0  0
  -30.6620  -20.7250   21.3520 O   0  0  0  0  0  0  0  0  0  0  0  0
  -28.8440  -19.1680   21.0570 C   0  0  0  0  0  2  0  0  0  0  0  0
  -30.7870  -14.5780   20.4010 C   0  0  0  0  0  0  0  0  0  0  0  0
  -30.5210  -12.3510   19.4130 C   0  0  0  0  0  2  0  0  0  0  0  0
  -29.6080  -12.4920   18.1770 C   0  0  0  0  0  2  0  0  0  0  0  0
  -28.1270  -12.3640   18.5850 C   0  0  0  0  0  2  0  0  0  0  0  0
  -27.7490  -13.2580   19.7970 C   0  0  0  0  0  3  0  0  0  0  0  0
  -28.7900  -13.1410   20.9350 C   0  0  0  0  0  2  0  0  0  0  0  0
  -30.1160  -13.3990   20.3600 N   0  0  0  0  0  0  0  0  0  0  0  0
  -31.9990  -14.6500   20.1830 O   0  0  0  0  0  0  0  0  0  0  0  0
  -29.4010  -16.5710   21.0290 C   0  0  0  0  0  2  0  0  0  0  0  0
  -30.3190  -16.3940   18.8260 C   0  0  0  0  0  2  0  0  0  0  0  0
  -29.7290  -17.9980   20.5300 C   0  0  0  0  0  3  0  0  0  0  0  0
  -29.8540  -17.8460   19.0080 C   0  0  0  0  0  3  0  0  0  0  0  0
  -30.0170  -15.6480   20.0630 N   0  0  0  0  0  0  0  0  0  0  0  0
  -25.3440  -13.8630   20.4740 C   0  0  0  0  0  0  0  0  0  0  0  0
  -24.2720  -13.0900   20.8290 C   0  0  0  0  0  0  0  0  0  0  0  0
  -24.7380  -11.7400   20.8180 C   0  0  0  0  0  0  0  0  0  0  0  0
  -26.3950  -12.9820   20.2680 N   0  0  0  0  0  0  0  0  0  0  0  0
  -26.0330  -11.7020   20.5350 N   0  0  0  0  0  0  0  0  0  0  0  0
  -24.0110  -10.4780   21.0050 C   0  0  0  0  0  0  0  0  0  0  0  0
  -24.4130   -9.5290   21.9710 C   0  0  0  0  0  3  0  0  0  0  0  0
  -23.6870   -8.3320   22.1450 C   0  0  0  0  0  3  0  0  0  0  0  0
  -22.5460   -8.0730   21.3490 C   0  0  0  0  0  0  0  0  0  0  0  0
  -22.1640   -9.0090   20.3720 C   0  0  0  0  0  3  0  0  0  0  0  0
  -22.8910  -10.1990   20.1970 C   0  0  0  0  0  3  0  0  0  0  0  0
  -21.7950   -6.9260   21.4290 O   0  0  0  0  0  0  0  0  0  0  0  0
  -21.6850   -6.2170   22.5990 C   0  0  0  0  0  0  0  0  0  0  0  0
  -21.1510   -6.7960   23.7710 C   0  0  0  0  0  3  0  0  0  0  0  0
  -20.9890   -6.0130   24.9320 C   0  0  0  0  0  3  0  0  0  0  0  0
  -21.3550   -4.6530   24.9210 C   0  0  0  0  0  0  0  0  0  0  0  0
  -21.8820   -4.0750   23.7530 C   0  0  0  0  0  3  0  0  0  0  0  0
  -22.0430   -4.8550   22.5950 C   0  0  0  0  0  0  0  0  0  0  0  0
  -22.5330   -4.2880   21.4650 F   0  0  0  0  0  0  0  0  0  0  0  0
  -21.1920   -3.8990   26.0330 F   0  0  0  0  0  0  0  0  0  0  0  0
  -22.8680  -13.5670   21.0720 C   0  0  0  0  0  0  0  0  0  0  0  0
  -22.1290  -12.8750   21.9310 N   0  0  0  0  0  0  0  0  0  0  0  0
  -22.4370  -14.5860   20.5360 O   0  0  0  0  0  0  0  0  0  0  0  0
  -22.4900  -12.0490   22.3840 H   0  0  0  0  0  0  0  0  0  0  0  0
  -21.1860  -13.1750   22.1380 H   0  0  0  0  0  0  0  0  0  0  0  0
  -25.5110  -15.2320   20.2900 N   0  0  0  0  0  0  0  0  0  0  0  0
  -24.7480  -15.8930   20.3940 H   0  0  0  0  0  0  0  0  0  0  0  0
  -26.3830  -15.6640   20.0260 H   0  0  0  0  0  0  0  0  0  0  0  0
  -28.6090  -18.0990   18.2520 N   0  0  0  0  0  4  0  0  0  0  0  0
  -27.8520  -17.5230   18.5720 H   0  0  0  0  0  0  0  0  0  0  0  0
  -28.7590  -17.8990   17.2790 H   0  0  0  0  0  0  0  0  0  0  0  0
  -28.3310  -19.0610   18.3100 H   0  0  0  0  0  0  0  0  0  0  0  0
  -28.7220  -21.7220   20.3130 C   0  0  0  0  0  2  0  0  0  0  0  0
  -28.8390  -23.0740   21.0710 C   0  0  0  0  0  2  0  0  0  0  0  0
  -28.5180  -24.3290   20.2160 C   0  0  0  0  0  2  0  0  0  0  0  0
  -28.5240  -25.6420   21.0370 C   0  0  0  0  0  2  0  0  0  0  0  0
  -28.5220  -26.8230   20.2250 O   0  0  0  0  0  0  0  0  0  0  0  0
  -24.5890  -31.9190   23.2770 C   0  0  0  0  0  0  0  0  0  0  0  0
  -27.3460  -27.5360   20.2290 C   0  0  0  0  0  0  0  0  0  0  0  0
  -23.4300  -30.5100   21.6060 C   0  0  0  0  0  3  0  0  0  0  0  0
  -24.9320  -28.9980   20.2000 C   0  0  0  0  0  0  0  0  0  0  0  0
  -25.9520  -30.9080   21.4510 C   0  0  0  0  0  2  0  0  0  0  0  0
  -26.0700  -29.5410   20.8090 C   0  0  0  0  0  0  0  0  0  0  0  0
  -27.2840  -28.8190   20.8170 C   0  0  0  0  0  3  0  0  0  0  0  0
  -26.1940  -26.9990   19.6200 C   0  0  0  0  0  3  0  0  0  0  0  0
  -24.9880  -27.7260   19.6020 C   0  0  0  0  0  3  0  0  0  0  0  0
  -23.6730  -29.8380   20.2270 C   0  0  0  0  0  2  0  0  0  0  0  0
  -24.6740  -31.1270   22.1700 N   0  0  0  0  0  0  0  0  0  0  0  0
  -23.4960  -32.1730   23.8010 O   0  0  0  0  0  0  0  0  0  0  0  0
  -22.7780  -29.4750   22.5520 C   0  0  0  0  0  0  0  0  0  0  0  0
  -21.4570  -29.2870   22.4090 N   0  0  0  0  0  0  0  0  0  0  0  0
  -23.4580  -28.8440   23.3650 O   0  0  0  0  0  0  0  0  0  0  0  0
  -20.9700  -29.8480   21.7240 H   0  0  0  0  0  0  0  0  0  0  0  0
  -18.0760  -28.1080   22.8970 C   0  0  0  0  0  0  0  0  0  0  0  0
  -20.6370  -28.3370   23.1600 C   0  0  0  0  0  3  0  0  0  0  0  0
  -20.7250  -26.9220   22.5460 C   0  0  0  0  0  2  0  0  0  0  0  0
  -19.6140  -26.6340   21.5300 C   0  0  0  0  0  2  0  0  0  0  0  0
  -18.2360  -26.7750   22.1860 C   0  0  0  0  0  2  0  0  0  0  0  0
  -19.2040  -28.8490   23.3400 C   0  0  0  0  0  0  0  0  0  0  0  0
  -19.0010  -30.1000   23.9630 C   0  0  0  0  0  3  0  0  0  0  0  0
  -17.7020  -30.6100   24.1470 C   0  0  0  0  0  3  0  0  0  0  0  0
  -16.5890  -29.8650   23.7220 C   0  0  0  0  0  3  0  0  0  0  0  0
  -16.7760  -28.6160   23.1030 C   0  0  0  0  0  3  0  0  0  0  0  0
  -25.8570  -32.5620   23.9230 C   0  0  0  0  0  3  0  0  0  0  0  0
  -26.3390  -31.8150   25.2270 C   0  0  1  0  0  0  0  0  0  0  0  0
  -25.2130  -31.5870   26.2630 C   0  0  0  0  0  1  0  0  0  0  0  0
  -26.9420  -30.4350   24.8730 C   0  0  0  0  0  1  0  0  0  0  0  0
  -27.4630  -32.6270   25.9110 C   0  0  0  0  0  1  0  0  0  0  0  0
  -25.5390  -33.9660   24.2150 N   0  0  0  0  0  0  0  0  0  0  0  0
  -25.8990  -35.0020   23.4460 C   0  0  0  0  0  0  0  0  0  0  0  0
  -26.6030  -34.8760   22.4400 O   0  0  0  0  0  0  0  0  0  0  0  0
  -24.9160  -34.1360   24.9910 H   0  0  0  0  0  0  0  0  0  0  0  0
  -24.1940  -36.7920   22.9830 C   0  0  0  0  0  1  0  0  0  0  0  0
  -25.3960  -36.3990   23.8570 C   0  0  0  0  0  3  0  0  0  0  0  0
  -27.4900  -37.2940   24.7740 C   0  0  0  0  0  1  0  0  0  0  0  0
  -26.4370  -37.4460   23.7730 N   0  0  0  0  0  0  0  0  0  0  0  0
  -26.0270  -38.3710   23.8800 H   0  0  0  0  0  0  0  0  0  0  0  0
  1  3  1  0
  1  2  2  0
  5 10  1  0
  6  7  1  0
  6  5  1  0
  8  7  1  0
  8 20  1  0
  8  9  1  0
 10  4  1  0
 10  9  1  0
 11  4  2  0
 13 15  1  0
 13 16  1  0
 14 12  1  0
 14  3  1  0
 15 45  1  0
 15 14  1  0
 16  4  1  0
 16 12  1  0
 17 18  2  0
 18 37  1  0
 19 18  1  0
 19 22  1  0
 20 17  1  0
 20 21  1  0
 21 19  2  0
 22 23  1  0
 23 24  2  0
 25 28  1  0
 25 24  1  0
 26 25  2  0
 27 26  1  0
 27 22  2  0
 28 29  1  0
 29 30  1  0
 30 31  2  0
 32 31  1  0
 32 36  1  0
 33 32  2  0
 34 29  2  0
 34 33  1  0
 35 34  1  0
 37 38  1  0
 38 41  1  0
 38 40  1  0
 39 37  2  0
 42 43  1  0
 42 17  1  0
 44 42  1  0
 45 48  1  0
 45 46  1  0
 47 45  1  0
 49  1  1  0
 49 50  1  0
 51 52  1  0
 51 50  1  0
 53 55  1  0
 53 52  1  0
 54 65  2  0
 55 60  1  0
 56 64  1  0
 56 66  1  0
 57 63  1  0
 57 59  1  0
 58 64  1  0
 59 60  2  0
 59 58  1  0
 61 55  2  0
 62 61  1  0
 62 57  2  0
 63 56  1  0
 64 54  1  0
 66 68  2  0
 67 66  1  0
 69 67  1  0
 70 79  2  0
 70 75  1  0
 71 67  1  0
 71 75  1  0
 72 71  1  0
 73 74  1  0
 73 72  1  0
 74 70  1  0
 75 76  2  0
 76 77  1  0
 78 77  2  0
 79 78  1  0
 80 54  1  0
 80 85  1  0
 80 81  1  0
 81 84  1  1
 81 82  1  0
 83 81  1  0
 85 88  1  0
 86 90  1  0
 86 85  1  0
 87 86  2  0
 90 89  1  0
 92 90  1  0
 92 93  1  0
 92 91  1  0
M  ISO  4   4 100  16 100  52 101  53 101
M  END
>  <TORSDO>  (13) 
F 22

>  <SCORE>  (13) 
-13.117

>  <name>  (13) 
12

>  <ligand_id>  (13) 
12

>  <original_smiles>  (13) 
[H]c1c([H])c([H])c2c(c1[H])C([H])([H])C([H])([H])C([H])([H])C2([H])N([H])C(=O)C1([H])N(C(=O)C([H])(N([H])C(=O)C([H])(N([H])C([H])([H])[H])C([H])([H])[H])C(C([H])([H])[H])(C([H])([H])[H])C([H])([H])[H])C([H])([H])c2c([H])c(OC([H])([H])C([H])([H])C([H])([H])C([H])([H])C(=O)C([H])([H])C3([H])C([H])([H])N(C(=O)N4C([H])([H])C([H])([H])C([H])([H])C([H])(n5nc(-c6c([H])c([H])c(Oc7c([H])c([H])c(F)c([H])c7F)c([H])c6[H])c(C(=O)N([H])[H])c5N([H])[H])C4([H])[H])C([H])([H])C3([H])[N+]([H])([H])[H])c([H])c([H])c2C1([H])[H]

>  <smiles>  (13) 
[H]c1c([H])c([H])c2c(c1[H])C([H])([H])C([H])([H])C([H])([H])C2([H])N([H])C(=O)C1([H])N(C(=O)C([H])(N([H])C(=O)C([H])(N([H])C([H])([H])[H])C([H])([H])[H])C(C([H])([H])[H])(C([H])([H])[H])C([H])([H])[H])C([H])([H])c2c([H])c(OC([H])([H])C([H])([H])C([H])([H])C([H])([H])C(=O)C([H])([H])C3([H])C([H])([H])N(C(=O)N4C([H])([H])C([H])([H])C([H])([H])C([H])(n5nc(-c6c([H])c([H])c(Oc7c([H])c([H])c(F)c([H])c7F)c([H])c6[H])c(C(=O)N([H])[H])c5N([H])[H])C4([H])[H])C([H])([H])C3([H])[N+]([H])([H])[H])c([H])c([H])c2C1([H])[H]

$$$$
13:0:0
     RDKit          3D

 94102  0  0  1  0  0  0  0  0999 V2000
  -30.9080  -20.4800   20.0090 C   0  0  0  0  0  2  0  0  0  0  0  0
  -31.2490  -19.2500   20.8750 C   0  0  0  0  0  2  0  0  0  0  0  0
  -28.6350  -19.3070   20.1010 C   0  0  0  0  0  2  0  0  0  0  0  0
  -29.4130  -20.5460   19.5840 C   0  0  0  0  0  3  0  0  0  0  0  0
  -30.7260  -17.9060   20.2850 C   0  0  0  0  0  3  0  0  0  0  0  0
  -29.3330  -18.0350   19.7790 N   0  0  0  0  0  4  0  0  0  0  0  0
  -29.3650  -17.9520   18.7750 H   0  0  0  0  0  0  0  0  0  0  0  0
  -28.7900  -17.2640   20.1240 H   0  0  0  0  0  0  0  0  0  0  0  0
  -30.2680  -16.9820   22.6640 C   0  0  0  0  0  1  0  0  0  0  0  0
  -30.8890  -16.7010   21.2750 C   0  0  0  0  0  3  0  0  0  0  0  0
  -31.0400  -14.4130   20.1960 C   0  0  0  0  0  0  0  0  0  0  0  0
  -30.6850  -12.2750   19.0190 C   0  0  0  0  0  2  0  0  0  0  0  0
  -29.7200  -12.4920   17.8350 C   0  0  0  0  0  2  0  0  0  0  0  0
  -28.2520  -12.3810   18.2980 C   0  0  0  0  0  2  0  0  0  0  0  0
  -27.9590  -13.2340   19.5610 C   0  0  0  0  0  3  0  0  0  0  0  0
  -29.0230  -12.9740   20.6480 C   0  0  0  0  0  2  0  0  0  0  0  0
  -30.3410  -13.2560   20.0540 N   0  0  0  0  0  0  0  0  0  0  0  0
  -32.1670  -14.5840   19.7250 O   0  0  0  0  0  0  0  0  0  0  0  0
  -30.3560  -15.4150   20.7880 N   0  0  0  0  0  0  0  0  0  0  0  0
  -29.4250  -15.1630   21.0860 H   0  0  0  0  0  0  0  0  0  0  0  0
  -25.5960  -13.9320   20.3020 C   0  0  0  0  0  0  0  0  0  0  0  0
  -24.5070  -13.2030   20.6930 C   0  0  0  0  0  0  0  0  0  0  0  0
  -24.9220  -11.8350   20.6670 C   0  0  0  0  0  0  0  0  0  0  0  0
  -26.6060  -13.0140   20.0590 N   0  0  0  0  0  0  0  0  0  0  0  0
  -26.2050  -11.7480   20.3400 N   0  0  0  0  0  0  0  0  0  0  0  0
  -24.1590  -10.5990   20.8800 C   0  0  0  0  0  0  0  0  0  0  0  0
  -24.5500   -9.6470   21.8470 C   0  0  0  0  0  3  0  0  0  0  0  0
  -23.7900   -8.4730   22.0400 C   0  0  0  0  0  3  0  0  0  0  0  0
  -22.6280   -8.2430   21.2660 C   0  0  0  0  0  0  0  0  0  0  0  0
  -22.2580   -9.1840   20.2890 C   0  0  0  0  0  3  0  0  0  0  0  0
  -23.0180  -10.3490   20.0950 C   0  0  0  0  0  3  0  0  0  0  0  0
  -21.8440   -7.1210   21.3690 O   0  0  0  0  0  0  0  0  0  0  0  0
  -21.7200   -6.4370   22.5500 C   0  0  0  0  0  0  0  0  0  0  0  0
  -21.2370   -7.0580   23.7240 C   0  0  0  0  0  3  0  0  0  0  0  0
  -21.0580   -6.3010   24.8980 C   0  0  0  0  0  3  0  0  0  0  0  0
  -21.3520   -4.9240   24.9010 C   0  0  0  0  0  0  0  0  0  0  0  0
  -21.8260   -4.3020   23.7330 C   0  0  0  0  0  3  0  0  0  0  0  0
  -22.0070   -5.0570   22.5600 C   0  0  0  0  0  0  0  0  0  0  0  0
  -22.4460   -4.4490   21.4300 F   0  0  0  0  0  0  0  0  0  0  0  0
  -21.1720   -4.1930   26.0270 F   0  0  0  0  0  0  0  0  0  0  0  0
  -23.1310  -13.7290   20.9750 C   0  0  0  0  0  0  0  0  0  0  0  0
  -22.3900  -13.0740   21.8620 N   0  0  0  0  0  0  0  0  0  0  0  0
  -22.7210  -14.7590   20.4420 O   0  0  0  0  0  0  0  0  0  0  0  0
  -22.7310  -12.2430   22.3200 H   0  0  0  0  0  0  0  0  0  0  0  0
  -21.4650  -13.4140   22.0860 H   0  0  0  0  0  0  0  0  0  0  0  0
  -25.8040  -15.2960   20.1080 N   0  0  0  0  0  0  0  0  0  0  0  0
  -25.0420  -15.9610   20.1970 H   0  0  0  0  0  0  0  0  0  0  0  0
  -26.6250  -15.6860   19.6680 H   0  0  0  0  0  0  0  0  0  0  0  0
  -28.6920  -21.8810   19.9630 C   0  0  0  0  0  2  0  0  0  0  0  0
  -29.1640  -23.1400   19.2090 C   0  0  0  0  0  0  0  0  0  0  0  0
  -30.2350  -23.1560   18.5950 O   0  0  0  0  0  0  0  0  0  0  0  0
  -28.2510  -24.3790   19.1990 C   0  0  0  0  0  2  0  0  0  0  0  0
  -28.2380  -25.1750   20.5240 C   0  0  0  0  0  2  0  0  0  0  0  0
  -28.2680  -26.5980   20.3300 O   0  0  0  0  0  0  0  0  0  0  0  0
  -24.5230  -31.8840   23.2750 C   0  0  0  0  0  0  0  0  0  0  0  0
  -27.0820  -27.3020   20.3260 C   0  0  0  0  0  0  0  0  0  0  0  0
  -23.2880  -30.4600   21.6730 C   0  0  0  0  0  3  0  0  0  0  0  0
  -24.7100  -28.8470   20.2970 C   0  0  0  0  0  0  0  0  0  0  0  0
  -25.8180  -30.7640   21.4600 C   0  0  0  0  0  2  0  0  0  0  0  0
  -25.8790  -29.3710   20.8620 C   0  0  0  0  0  0  0  0  0  0  0  0
  -27.0680  -28.6090   20.8640 C   0  0  0  0  0  3  0  0  0  0  0  0
  -25.8920  -26.7800   19.7710 C   0  0  0  0  0  3  0  0  0  0  0  0
  -24.7130  -27.5520   19.7480 C   0  0  0  0  0  3  0  0  0  0  0  0
  -23.4830  -29.7320   20.3170 C   0  0  0  0  0  2  0  0  0  0  0  0
  -24.5620  -31.0520   22.1960 N   0  0  0  0  0  0  0  0  0  0  0  0
  -23.4480  -32.1960   23.8040 O   0  0  0  0  0  0  0  0  0  0  0  0
  -22.6140  -29.4820   22.6610 C   0  0  0  0  0  0  0  0  0  0  0  0
  -21.2920  -29.2990   22.5090 N   0  0  0  0  0  0  0  0  0  0  0  0
  -23.2770  -28.8880   23.5150 O   0  0  0  0  0  0  0  0  0  0  0  0
  -20.8230  -29.8280   21.7870 H   0  0  0  0  0  0  0  0  0  0  0  0
  -17.9100  -28.1060   22.9390 C   0  0  0  0  0  0  0  0  0  0  0  0
  -20.4530  -28.3970   23.2960 C   0  0  0  0  0  3  0  0  0  0  0  0
  -20.5850  -26.9390   22.7960 C   0  0  0  0  0  2  0  0  0  0  0  0
  -19.5240  -26.5560   21.7600 C   0  0  0  0  0  2  0  0  0  0  0  0
  -18.1180  -26.7240   22.3430 C   0  0  0  0  0  2  0  0  0  0  0  0
  -19.0070  -28.8980   23.3720 C   0  0  0  0  0  0  0  0  0  0  0  0
  -18.7600  -30.1910   23.8840 C   0  0  0  0  0  3  0  0  0  0  0  0
  -17.4480  -30.6900   23.9710 C   0  0  0  0  0  3  0  0  0  0  0  0
  -16.3640  -29.8960   23.5590 C   0  0  0  0  0  3  0  0  0  0  0  0
  -16.5950  -28.6060   23.0480 C   0  0  0  0  0  3  0  0  0  0  0  0
  -25.8230  -32.5020   23.8830 C   0  0  0  0  0  3  0  0  0  0  0  0
  -25.5330  -33.9050   24.2110 N   0  0  0  0  0  0  0  0  0  0  0  0
  -25.8750  -34.9490   23.4440 C   0  0  0  0  0  0  0  0  0  0  0  0
  -26.5370  -34.8330   22.4090 O   0  0  0  0  0  0  0  0  0  0  0  0
  -24.9470  -34.0680   25.0160 H   0  0  0  0  0  0  0  0  0  0  0  0
  -24.1670  -36.7590   23.0840 C   0  0  0  0  0  1  0  0  0  0  0  0
  -25.4040  -36.3450   23.8960 C   0  0  0  0  0  3  0  0  0  0  0  0
  -27.5510  -37.2040   24.7250 C   0  0  0  0  0  1  0  0  0  0  0  0
  -26.4500  -37.3840   23.7800 N   0  0  0  0  0  0  0  0  0  0  0  0
  -26.0560  -38.3100   23.9260 H   0  0  0  0  0  0  0  0  0  0  0  0
  -26.3450  -31.7280   25.1560 C   0  0  1  0  0  0  0  0  0  0  0  0
  -25.2570  -31.4930   26.2310 C   0  0  0  0  0  1  0  0  0  0  0  0
  -26.9200  -30.3510   24.7530 C   0  0  0  0  0  1  0  0  0  0  0  0
  -27.5030  -32.5180   25.8110 C   0  0  0  0  0  1  0  0  0  0  0  0
  1  2  1  0
  4 49  1  0
  4  1  1  0
  4  3  1  0
  5  2  1  0
  5 10  1  0
  6  3  1  0
  6  8  1  0
  6  5  1  0
  7  6  1  0
 10  9  1  0
 11 19  1  0
 12 17  1  0
 13 14  1  0
 13 12  1  0
 15 14  1  0
 15 24  1  0
 15 16  1  0
 17 11  1  0
 17 16  1  0
 18 11  2  0
 19 20  1  0
 19 10  1  0
 21 22  2  0
 22 41  1  0
 23 22  1  0
 23 26  1  0
 24 21  1  0
 24 25  1  0
 25 23  2  0
 26 27  1  0
 27 28  2  0
 29 32  1  0
 29 28  1  0
 30 29  2  0
 31 30  1  0
 31 26  2  0
 32 33  1  0
 33 38  2  0
 33 34  1  0
 34 35  2  0
 35 36  1  0
 36 40  1  0
 37 36  2  0
 38 37  1  0
 39 38  1  0
 41 42  1  0
 42 45  1  0
 42 44  1  0
 43 41  2  0
 46 47  1  0
 46 21  1  0
 48 46  1  0
 50 49  1  0
 51 50  2  0
 52 50  1  0
 52 53  1  0
 54 53  1  0
 55 66  2  0
 56 54  1  0
 56 61  1  0
 57 65  1  0
 57 67  1  0
 58 64  1  0
 58 60  1  0
 59 65  1  0
 60 61  2  0
 60 59  1  0
 62 56  2  0
 63 62  1  0
 63 58  2  0
 64 57  1  0
 65 55  1  0
 67 69  2  0
 68 67  1  0
 70 68  1  0
 71 80  2  0
 71 76  1  0
 72 68  1  0
 72 76  1  0
 73 72  1  0
 74 75  1  0
 74 73  1  0
 75 71  1  0
 76 77  2  0
 77 78  1  0
 79 78  2  0
 80 79  1  0
 81 55  1  0
 81 82  1  0
 81 91  1  0
 82 85  1  0
 83 87  1  0
 83 82  1  0
 84 83  2  0
 87 86  1  0
 89 87  1  0
 89 90  1  0
 89 88  1  0
 91 94  1  1
 91 92  1  0
 93 91  1  0
M  ISO  4  11 100  19 100  53 101  54 101
M  END
>  <TORSDO>  (14) 
F 21

>  <SCORE>  (14) 
-13.208

>  <name>  (14) 
13

>  <ligand_id>  (14) 
13

>  <original_smiles>  (14) 
[H]c1c([H])c([H])c2c(c1[H])C([H])([H])C([H])([H])C([H])([H])C2([H])N([H])C(=O)C1([H])N(C(=O)C([H])(N([H])C(=O)C([H])(N([H])C([H])([H])[H])C([H])([H])[H])C(C([H])([H])[H])(C([H])([H])[H])C([H])([H])[H])C([H])([H])c2c([H])c(OC([H])([H])C([H])([H])C(=O)C([H])([H])C3([H])C([H])([H])C([H])([H])C([H])(C([H])(N([H])C(=O)N4C([H])([H])C([H])([H])C([H])([H])C([H])(n5nc(-c6c([H])c([H])c(Oc7c([H])c([H])c(F)c([H])c7F)c([H])c6[H])c(C(=O)N([H])[H])c5N([H])[H])C4([H])[H])C([H])([H])[H])[N+]([H])([H])C3([H])[H])c([H])c([H])c2C1([H])[H]

>  <smiles>  (14) 
[H]c1c([H])c([H])c2c(c1[H])C([H])([H])C([H])([H])C([H])([H])C2([H])N([H])C(=O)C1([H])N(C(=O)C([H])(N([H])C(=O)C([H])(N([H])C([H])([H])[H])C([H])([H])[H])C(C([H])([H])[H])(C([H])([H])[H])C([H])([H])[H])C([H])([H])c2c([H])c(OC([H])([H])C([H])([H])C(=O)C([H])([H])C3([H])C([H])([H])C([H])([H])C([H])(C([H])(N([H])C(=O)N4C([H])([H])C([H])([H])C([H])([H])C([H])(n5nc(-c6c([H])c([H])c(Oc7c([H])c([H])c(F)c([H])c7F)c([H])c6[H])c(C(=O)N([H])[H])c5N([H])[H])C4([H])[H])C([H])([H])[H])[N+]([H])([H])C3([H])[H])c([H])c([H])c2C1([H])[H]

$$$$
14:0:0
     RDKit          3D

 93101  0  0  1  0  0  0  0  0999 V2000
  -29.1390  -20.4810   18.7350 C   0  0  0  0  0  2  0  0  0  0  0  0
  -29.5600  -21.1320   20.0160 C   0  0  0  0  0  3  0  0  0  0  0  0
  -29.2220  -19.5570   19.9350 C   0  0  1  0  0  0  0  0  0  0  0  0
  -28.6060  -22.3300   20.3550 C   0  0  0  0  0  0  0  0  0  0  0  0
  -27.3940  -22.1260   20.4830 O   0  0  0  0  0  0  0  0  0  0  0  0
  -29.1130  -23.8230   20.4890 C   0  0  0  0  0  3  0  0  0  0  0  0
  -28.0640  -24.9510   20.0860 C   0  0  0  0  0  3  0  0  0  0  0  0
  -28.3180  -26.3970   20.3070 O   0  0  0  0  0  0  0  0  0  0  0  0
  -24.5790  -31.8430   23.2250 C   0  0  0  0  0  0  0  0  0  0  0  0
  -27.2080  -27.2590   20.2240 C   0  0  0  0  0  0  0  0  0  0  0  0
  -23.3810  -30.4280   21.5930 C   0  0  0  0  0  3  0  0  0  0  0  0
  -24.8410  -28.8690   20.1850 C   0  0  0  0  0  0  0  0  0  0  0  0
  -25.9220  -30.7440   21.4220 C   0  0  0  0  0  2  0  0  0  0  0  0
  -26.0050  -29.3610   20.7890 C   0  0  0  0  0  0  0  0  0  0  0  0
  -27.1900  -28.5650   20.8040 C   0  0  0  0  0  3  0  0  0  0  0  0
  -26.0220  -26.8350   19.5740 C   0  0  0  0  0  3  0  0  0  0  0  0
  -24.8540  -27.6130   19.5640 C   0  0  0  0  0  3  0  0  0  0  0  0
  -23.6010  -29.7390   20.2210 C   0  0  0  0  0  2  0  0  0  0  0  0
  -24.6450  -31.0210   22.1360 N   0  0  0  0  0  0  0  0  0  0  0  0
  -23.4940  -32.1310   23.7480 O   0  0  0  0  0  0  0  0  0  0  0  0
  -22.7090  -29.4230   22.5580 C   0  0  0  0  0  0  0  0  0  0  0  0
  -21.3810  -29.2600   22.4300 N   0  0  0  0  0  0  0  0  0  0  0  0
  -23.3820  -28.7950   23.3800 O   0  0  0  0  0  0  0  0  0  0  0  0
  -20.8980  -29.8180   21.7390 H   0  0  0  0  0  0  0  0  0  0  0  0
  -17.9840  -28.1340   22.9560 C   0  0  0  0  0  0  0  0  0  0  0  0
  -20.5500  -28.3370   23.2060 C   0  0  0  0  0  3  0  0  0  0  0  0
  -20.6160  -26.9050   22.6250 C   0  0  0  0  0  2  0  0  0  0  0  0
  -19.5000  -26.6090   21.6190 C   0  0  0  0  0  2  0  0  0  0  0  0
  -18.1280  -26.7830   22.2750 C   0  0  0  0  0  2  0  0  0  0  0  0
  -19.1220  -28.8710   23.3770 C   0  0  0  0  0  0  0  0  0  0  0  0
  -18.9360  -30.1380   23.9710 C   0  0  0  0  0  3  0  0  0  0  0  0
  -17.6440  -30.6670   24.1470 C   0  0  0  0  0  3  0  0  0  0  0  0
  -16.5200  -29.9250   23.7460 C   0  0  0  0  0  3  0  0  0  0  0  0
  -16.6900  -28.6600   23.1570 C   0  0  0  0  0  3  0  0  0  0  0  0
  -25.8610  -32.4760   23.8490 C   0  0  0  0  0  3  0  0  0  0  0  0
  -26.3770  -31.7020   25.1260 C   0  0  1  0  0  0  0  0  0  0  0  0
  -25.2790  -31.4500   26.1860 C   0  0  0  0  0  1  0  0  0  0  0  0
  -26.9710  -30.3310   24.7310 C   0  0  0  0  0  1  0  0  0  0  0  0
  -27.5230  -32.4970   25.7950 C   0  0  0  0  0  1  0  0  0  0  0  0
  -25.5540  -33.8750   24.1780 N   0  0  0  0  0  0  0  0  0  0  0  0
  -25.8910  -34.9260   23.4190 C   0  0  0  0  0  0  0  0  0  0  0  0
  -26.5660  -34.8200   22.3910 O   0  0  0  0  0  0  0  0  0  0  0  0
  -24.9620  -34.0320   24.9800 H   0  0  0  0  0  0  0  0  0  0  0  0
  -24.1810  -36.7280   23.0320 C   0  0  0  0  0  1  0  0  0  0  0  0
  -25.4030  -36.3170   23.8700 C   0  0  0  0  0  3  0  0  0  0  0  0
  -27.5200  -37.1910   24.7530 C   0  0  0  0  0  1  0  0  0  0  0  0
  -26.4430  -37.3640   23.7800 N   0  0  0  0  0  0  0  0  0  0  0  0
  -26.0390  -38.2860   23.9170 H   0  0  0  0  0  0  0  0  0  0  0  0
  -26.9600  -18.3740   19.5230 C   0  0  0  0  0  1  0  0  0  0  0  0
  -27.9300  -18.9920   20.5470 C   0  0  0  0  0  2  0  0  0  0  0  0
  -30.2080  -18.3570   19.6180 C   0  0  0  0  0  2  0  0  0  0  0  0
  -30.6780  -17.3110   20.7300 C   0  0  0  0  0  3  0  0  0  0  0  0
  -32.1560  -17.2410   20.7580 N   0  0  0  0  0  4  0  0  0  0  0  0
  -32.4690  -16.6690   19.9880 H   0  0  0  0  0  0  0  0  0  0  0  0
  -32.4840  -16.8130   21.6060 H   0  0  0  0  0  0  0  0  0  0  0  0
  -32.5770  -18.1510   20.6920 H   0  0  0  0  0  0  0  0  0  0  0  0
  -30.0200  -15.8440   20.7320 C   0  0  0  0  0  2  0  0  0  0  0  0
  -30.7360  -14.5830   20.0920 C   0  0  0  0  0  0  0  0  0  0  0  0
  -30.4250  -12.4030   18.9400 C   0  0  0  0  0  2  0  0  0  0  0  0
  -29.4190  -12.6180   17.7880 C   0  0  0  0  0  2  0  0  0  0  0  0
  -27.9580  -12.4950   18.2760 C   0  0  0  0  0  2  0  0  0  0  0  0
  -27.6930  -13.2800   19.5870 C   0  0  0  0  0  3  0  0  0  0  0  0
  -28.8080  -13.0430   20.6270 C   0  0  0  0  0  2  0  0  0  0  0  0
  -30.0940  -13.3770   19.9990 N   0  0  0  0  0  0  0  0  0  0  0  0
  -31.8500  -14.7350   19.5830 O   0  0  0  0  0  0  0  0  0  0  0  0
  -25.3400  -13.8770   20.4310 C   0  0  0  0  0  0  0  0  0  0  0  0
  -24.2880  -13.1030   20.8420 C   0  0  0  0  0  0  0  0  0  0  0  0
  -24.7410  -11.7500   20.7690 C   0  0  0  0  0  0  0  0  0  0  0  0
  -26.3680  -12.9960   20.1360 N   0  0  0  0  0  0  0  0  0  0  0  0
  -26.0140  -11.7090   20.3950 N   0  0  0  0  0  0  0  0  0  0  0  0
  -24.0180  -10.4910   20.9860 C   0  0  0  0  0  0  0  0  0  0  0  0
  -24.4650   -9.5280   21.9190 C   0  0  0  0  0  3  0  0  0  0  0  0
  -23.7390   -8.3330   22.1190 C   0  0  0  0  0  3  0  0  0  0  0  0
  -22.5510   -8.0940   21.3840 C   0  0  0  0  0  0  0  0  0  0  0  0
  -22.1270   -9.0450   20.4380 C   0  0  0  0  0  3  0  0  0  0  0  0
  -22.8550  -10.2280   20.2360 C   0  0  0  0  0  3  0  0  0  0  0  0
  -21.7970   -6.9510   21.4920 O   0  0  0  0  0  0  0  0  0  0  0  0
  -21.7420   -6.2310   22.6600 C   0  0  0  0  0  0  0  0  0  0  0  0
  -21.2780   -6.8040   23.8630 C   0  0  0  0  0  3  0  0  0  0  0  0
  -21.1690   -6.0140   25.0240 C   0  0  0  0  0  3  0  0  0  0  0  0
  -21.5170   -4.6500   24.9820 C   0  0  0  0  0  0  0  0  0  0  0  0
  -21.9750   -4.0760   23.7840 C   0  0  0  0  0  3  0  0  0  0  0  0
  -22.0830   -4.8640   22.6250 C   0  0  0  0  0  0  0  0  0  0  0  0
  -22.5060   -4.2990   21.4660 F   0  0  0  0  0  0  0  0  0  0  0  0
  -21.4070   -3.8860   26.0950 F   0  0  0  0  0  0  0  0  0  0  0  0
  -22.9090  -13.5830   21.1900 C   0  0  0  0  0  0  0  0  0  0  0  0
  -22.2190  -12.8730   22.0770 N   0  0  0  0  0  0  0  0  0  0  0  0
  -22.4500  -14.6190   20.7110 O   0  0  0  0  0  0  0  0  0  0  0  0
  -22.6060  -12.0350   22.4850 H   0  0  0  0  0  0  0  0  0  0  0  0
  -21.2880  -13.1660   22.3460 H   0  0  0  0  0  0  0  0  0  0  0  0
  -25.4990  -15.2500   20.2710 N   0  0  0  0  0  0  0  0  0  0  0  0
  -24.7410  -15.9030   20.4370 H   0  0  0  0  0  0  0  0  0  0  0  0
  -26.3330  -15.6960   19.9210 H   0  0  0  0  0  0  0  0  0  0  0  0
  1  3  1  0
  1  2  1  0
  2  4  1  0
  3 51  1  6
  3  2  1  0
  3 50  1  0
  4  5  2  0
  4  6  1  0
  7  8  1  0
  7  6  2  0
  9 20  2  0
 10  8  1  0
 10 15  1  0
 11 19  1  0
 11 21  1  0
 12 18  1  0
 12 14  1  0
 13 19  1  0
 14 15  2  0
 14 13  1  0
 16 10  2  0
 17 16  1  0
 17 12  2  0
 18 11  1  0
 19  9  1  0
 21 23  2  0
 22 21  1  0
 24 22  1  0
 25 34  2  0
 25 30  1  0
 26 22  1  0
 26 30  1  0
 27 26  1  0
 28 29  1  0
 28 27  1  0
 29 25  1  0
 30 31  2  0
 31 32  1  0
 33 32  2  0
 34 33  1  0
 35  9  1  0
 35 40  1  0
 35 36  1  0
 36 39  1  1
 36 37  1  0
 38 36  1  0
 40 43  1  0
 41 45  1  0
 41 40  1  0
 42 41  2  0
 45 44  1  0
 47 45  1  0
 47 48  1  0
 47 46  1  0
 49 50  1  0
 52 51  1  0
 52 57  1  0
 52 53  1  0
 53 55  1  0
 54 53  1  0
 56 53  1  0
 58 57  1  0
 59 64  1  0
 60 61  1  0
 60 59  1  0
 62 61  1  0
 62 69  1  0
 62 63  1  0
 64 58  1  0
 64 63  1  0
 65 58  2  0
 66 67  2  0
 67 86  1  0
 68 67  1  0
 68 71  1  0
 69 70  1  0
 69 66  1  0
 70 68  2  0
 71 72  1  0
 72 73  2  0
 74 77  1  0
 74 73  1  0
 75 74  2  0
 76 75  1  0
 76 71  2  0
 77 78  1  0
 78 79  1  0
 79 80  2  0
 81 80  1  0
 81 85  1  0
 82 81  2  0
 83 78  2  0
 83 82  1  0
 84 83  1  0
 86 87  1  0
 87 90  1  0
 87 89  1  0
 88 86  2  0
 91 66  1  0
 91 92  1  0
 93 91  1  0
M  ISO  4   7 101   8 101  57 100  58 100
M  END
>  <TORSDO>  (15) 
F 24

>  <SCORE>  (15) 
-12.494

>  <name>  (15) 
14

>  <ligand_id>  (15) 
14

>  <original_smiles>  (15) 
[H]c1c([H])c([H])c2c(c1[H])C([H])([H])C([H])([H])C([H])([H])C2([H])N([H])C(=O)C1([H])N(C(=O)C([H])(N([H])C(=O)C([H])(N([H])C([H])([H])[H])C([H])([H])[H])C(C([H])([H])[H])(C([H])([H])[H])C([H])([H])[H])C([H])([H])c2c([H])c(OC([H])([H])C([H])([H])C(=O)C3([H])C([H])([H])C3(C([H])([H])C([H])([H])[H])C([H])([H])C([H])(C([H])([H])C(=O)N3C([H])([H])C([H])([H])C([H])([H])C([H])(n4nc(-c5c([H])c([H])c(Oc6c([H])c([H])c(F)c([H])c6F)c([H])c5[H])c(C(=O)N([H])[H])c4N([H])[H])C3([H])[H])[N+]([H])([H])[H])c([H])c([H])c2C1([H])[H]

>  <smiles>  (15) 
[H]c1c([H])c([H])c2c(c1[H])C([H])([H])C([H])([H])C([H])([H])C2([H])N([H])C(=O)C1([H])N(C(=O)C([H])(N([H])C(=O)C([H])(N([H])C([H])([H])[H])C([H])([H])[H])C(C([H])([H])[H])(C([H])([H])[H])C([H])([H])[H])C([H])([H])c2c([H])c(OC([H])([H])C([H])([H])C(=O)C3([H])C([H])([H])C3(C([H])([H])C([H])([H])[H])C([H])([H])C([H])(C([H])([H])C(=O)N3C([H])([H])C([H])([H])C([H])([H])C([H])(n4nc(-c5c([H])c([H])c(Oc6c([H])c([H])c(F)c([H])c6F)c([H])c5[H])c(C(=O)N([H])[H])c4N([H])[H])C3([H])[H])[N+]([H])([H])[H])c([H])c([H])c2C1([H])[H]

$$$$
15:0:0
     RDKit          3D

 89 97  0  0  1  0  0  0  0  0999 V2000
  -30.0450  -21.7310   20.6720 C   0  0  0  0  0  2  0  0  0  0  0  0
  -29.5240  -20.4000   21.2970 C   0  0  0  0  0  2  0  0  0  0  0  0
  -30.0800  -19.0640   20.7530 C   0  0  0  0  0  0  0  0  0  0  0  0
  -30.9300  -19.0290   19.8580 O   0  0  0  0  0  0  0  0  0  0  0  0
  -30.7330  -14.4930   20.1310 C   0  0  0  0  0  0  0  0  0  0  0  0
  -30.2970  -12.3970   18.8990 C   0  0  0  0  0  2  0  0  0  0  0  0
  -29.2740  -12.6400   17.7700 C   0  0  0  0  0  2  0  0  0  0  0  0
  -27.8370  -12.4760   18.3010 C   0  0  0  0  0  2  0  0  0  0  0  0
  -27.5870  -13.2690   19.6080 C   0  0  0  0  0  3  0  0  0  0  0  0
  -28.7210  -13.0330   20.6340 C   0  0  0  0  0  2  0  0  0  0  0  0
  -30.0060  -13.3480   19.9850 N   0  0  0  0  0  0  0  0  0  0  0  0
  -31.7950  -14.6820   19.5270 O   0  0  0  0  0  0  0  0  0  0  0  0
  -30.4130  -17.2560   22.5490 C   0  0  0  0  0  2  0  0  0  0  0  0
  -31.1390  -16.0280   21.9890 C   0  0  0  0  0  2  0  0  0  0  0  0
  -29.3710  -16.5160   20.4940 C   0  0  0  0  0  2  0  0  0  0  0  0
  -29.5290  -17.7660   21.4080 C   0  0  0  0  0  3  0  0  0  0  0  0
  -30.2560  -15.4380   20.9800 N   0  0  0  0  0  0  0  0  0  0  0  0
  -25.2410  -13.8450   20.4920 C   0  0  0  0  0  0  0  0  0  0  0  0
  -24.2010  -13.0580   20.9070 C   0  0  0  0  0  0  0  0  0  0  0  0
  -24.6600  -11.7100   20.8070 C   0  0  0  0  0  0  0  0  0  0  0  0
  -26.2710  -12.9750   20.1690 N   0  0  0  0  0  0  0  0  0  0  0  0
  -25.9280  -11.6840   20.4140 N   0  0  0  0  0  0  0  0  0  0  0  0
  -23.9510  -10.4400   21.0050 C   0  0  0  0  0  0  0  0  0  0  0  0
  -24.4180   -9.4660   21.9150 C   0  0  0  0  0  3  0  0  0  0  0  0
  -23.7070   -8.2610   22.1030 C   0  0  0  0  0  3  0  0  0  0  0  0
  -22.5140   -8.0210   21.3800 C   0  0  0  0  0  0  0  0  0  0  0  0
  -22.0650   -8.9830   20.4590 C   0  0  0  0  0  3  0  0  0  0  0  0
  -22.7780  -10.1790   20.2690 C   0  0  0  0  0  3  0  0  0  0  0  0
  -21.7730   -6.8690   21.4790 O   0  0  0  0  0  0  0  0  0  0  0  0
  -21.7290   -6.1360   22.6390 C   0  0  0  0  0  0  0  0  0  0  0  0
  -21.3080   -6.7000   23.8630 C   0  0  0  0  0  3  0  0  0  0  0  0
  -21.2090   -5.8930   25.0130 C   0  0  0  0  0  3  0  0  0  0  0  0
  -21.5280   -4.5230   24.9430 C   0  0  0  0  0  0  0  0  0  0  0  0
  -21.9440   -3.9590   23.7240 C   0  0  0  0  0  3  0  0  0  0  0  0
  -22.0410   -4.7630   22.5740 C   0  0  0  0  0  0  0  0  0  0  0  0
  -22.4220   -4.2090   21.3980 F   0  0  0  0  0  0  0  0  0  0  0  0
  -21.4280   -3.7460   26.0450 F   0  0  0  0  0  0  0  0  0  0  0  0
  -22.8230  -13.5220   21.2850 C   0  0  0  0  0  0  0  0  0  0  0  0
  -22.1560  -12.8030   22.1810 N   0  0  0  0  0  0  0  0  0  0  0  0
  -22.3490  -14.5580   20.8190 O   0  0  0  0  0  0  0  0  0  0  0  0
  -22.5530  -11.9650   22.5810 H   0  0  0  0  0  0  0  0  0  0  0  0
  -21.2340  -13.0950   22.4720 H   0  0  0  0  0  0  0  0  0  0  0  0
  -25.3930  -15.2210   20.3410 N   0  0  0  0  0  0  0  0  0  0  0  0
  -24.6320  -15.8720   20.5030 H   0  0  0  0  0  0  0  0  0  0  0  0
  -26.2230  -15.6630   19.9670 H   0  0  0  0  0  0  0  0  0  0  0  0
  -29.1200  -22.9300   21.0310 C   0  0  0  0  0  2  0  0  0  0  0  0
  -29.4930  -24.3530   20.5070 C   0  0  0  0  0  2  0  0  0  0  0  0
  -28.2290  -25.2330   20.2860 C   0  0  0  0  0  2  0  0  0  0  0  0
  -28.4190  -26.6640   20.1990 O   0  0  0  0  0  0  0  0  0  0  0  0
  -24.6030  -31.8920   23.2290 C   0  0  0  0  0  0  0  0  0  0  0  0
  -27.2540  -27.4220   20.1670 C   0  0  0  0  0  0  0  0  0  0  0  0
  -23.3990  -30.4860   21.5890 C   0  0  0  0  0  3  0  0  0  0  0  0
  -24.8560  -28.9490   20.1710 C   0  0  0  0  0  0  0  0  0  0  0  0
  -25.9310  -30.8400   21.3980 C   0  0  0  0  0  2  0  0  0  0  0  0
  -26.0190  -29.4690   20.7530 C   0  0  0  0  0  0  0  0  0  0  0  0
  -27.2210  -28.7180   20.7400 C   0  0  0  0  0  3  0  0  0  0  0  0
  -26.0660  -26.9290   19.5730 C   0  0  0  0  0  3  0  0  0  0  0  0
  -24.8770  -27.6790   19.5750 C   0  0  0  0  0  3  0  0  0  0  0  0
  -23.6110  -29.8070   20.2120 C   0  0  0  0  0  2  0  0  0  0  0  0
  -24.6620  -31.0880   22.1290 N   0  0  0  0  0  0  0  0  0  0  0  0
  -23.5200  -32.1650   23.7660 O   0  0  0  0  0  0  0  0  0  0  0  0
  -22.7460  -29.4660   22.5510 C   0  0  0  0  0  0  0  0  0  0  0  0
  -21.4190  -29.2920   22.4290 N   0  0  0  0  0  0  0  0  0  0  0  0
  -23.4290  -28.8360   23.3610 O   0  0  0  0  0  0  0  0  0  0  0  0
  -20.9280  -29.8560   21.7510 H   0  0  0  0  0  0  0  0  0  0  0  0
  -18.0380  -28.1260   22.9520 C   0  0  0  0  0  0  0  0  0  0  0  0
  -20.6000  -28.3590   23.2040 C   0  0  0  0  0  3  0  0  0  0  0  0
  -20.6840  -26.9270   22.6240 C   0  0  0  0  0  2  0  0  0  0  0  0
  -19.5720  -26.6200   21.6150 C   0  0  0  0  0  2  0  0  0  0  0  0
  -18.1960  -26.7780   22.2670 C   0  0  0  0  0  2  0  0  0  0  0  0
  -19.1680  -28.8760   23.3760 C   0  0  0  0  0  0  0  0  0  0  0  0
  -18.9640  -30.1390   23.9710 C   0  0  0  0  0  3  0  0  0  0  0  0
  -17.6660  -30.6510   24.1510 C   0  0  0  0  0  3  0  0  0  0  0  0
  -16.5520  -29.8970   23.7430 C   0  0  0  0  0  3  0  0  0  0  0  0
  -16.7390  -28.6370   23.1490 C   0  0  0  0  0  3  0  0  0  0  0  0
  -25.8880  -32.5240   23.8470 C   0  0  0  0  0  3  0  0  0  0  0  0
  -25.5810  -33.9230   24.1750 N   0  0  0  0  0  0  0  0  0  0  0  0
  -25.9130  -34.9750   23.4130 C   0  0  0  0  0  0  0  0  0  0  0  0
  -26.5800  -34.8700   22.3810 O   0  0  0  0  0  0  0  0  0  0  0  0
  -24.9940  -34.0810   24.9810 H   0  0  0  0  0  0  0  0  0  0  0  0
  -24.1850  -36.7670   23.0490 C   0  0  0  0  0  1  0  0  0  0  0  0
  -25.4220  -36.3630   23.8670 C   0  0  0  0  0  3  0  0  0  0  0  0
  -27.5550  -37.2460   24.7050 C   0  0  0  0  0  1  0  0  0  0  0  0
  -26.4540  -37.4170   23.7600 N   0  0  0  0  0  0  0  0  0  0  0  0
  -26.0470  -38.3360   23.9110 H   0  0  0  0  0  0  0  0  0  0  0  0
  -26.4090  -31.7540   25.1230 C   0  0  1  0  0  0  0  0  0  0  0  0
  -25.3220  -31.5170   26.1950 C   0  0  0  0  0  1  0  0  0  0  0  0
  -26.9910  -30.3760   24.7300 C   0  0  0  0  0  1  0  0  0  0  0  0
  -27.5600  -32.5520   25.7810 C   0  0  0  0  0  1  0  0  0  0  0  0
  1 46  1  0
  1  2  1  0
  3  2  1  0
  4  3  2  0
  5 17  1  0
  6 11  1  0
  7  8  1  0
  7  6  1  0
  9  8  1  0
  9 21  1  0
  9 10  1  0
 11  5  1  0
 11 10  1  0
 12  5  2  0
 14 13  1  0
 15 17  1  0
 15 16  1  0
 16  3  1  0
 16 13  1  0
 17 14  1  0
 18 19  2  0
 19 38  1  0
 20 19  1  0
 20 23  1  0
 21 22  1  0
 21 18  1  0
 22 20  2  0
 23 24  1  0
 24 25  2  0
 26 29  1  0
 26 25  1  0
 27 26  2  0
 28 27  1  0
 28 23  2  0
 29 30  1  0
 30 31  1  0
 31 32  2  0
 33 32  1  0
 33 37  1  0
 34 33  2  0
 35 30  2  0
 35 34  1  0
 36 35  1  0
 38 39  1  0
 39 42  1  0
 39 41  1  0
 40 38  2  0
 43 18  1  0
 43 44  1  0
 45 43  1  0
 47 46  1  0
 48 47  1  0
 49 48  1  0
 50 61  2  0
 51 49  1  0
 51 56  1  0
 52 60  1  0
 52 62  1  0
 53 59  1  0
 53 55  1  0
 54 60  1  0
 55 54  1  0
 56 55  2  0
 57 58  1  0
 57 51  2  0
 58 53  2  0
 59 52  1  0
 60 50  1  0
 62 64  2  0
 63 62  1  0
 65 63  1  0
 66 75  2  0
 66 71  1  0
 67 63  1  0
 67 71  1  0
 68 67  1  0
 69 70  1  0
 69 68  1  0
 70 66  1  0
 71 72  2  0
 72 73  1  0
 74 73  2  0
 75 74  1  0
 76 50  1  0
 76 77  1  0
 76 86  1  0
 77 80  1  0
 78 82  1  0
 78 77  1  0
 79 78  2  0
 82 81  1  0
 84 82  1  0
 84 85  1  0
 84 83  1  0
 86 89  1  1
 86 87  1  0
 88 86  1  0
M  ISO  4   5 100  17 100  48 101  49 101
M  END
>  <TORSDO>  (16) 
F 21

>  <SCORE>  (16) 
-13.034

>  <name>  (16) 
15

>  <ligand_id>  (16) 
15

>  <original_smiles>  (16) 
[H]c1c([H])c([H])c2c(c1[H])C([H])([H])C([H])([H])C([H])([H])C2([H])N([H])C(=O)C1([H])N(C(=O)C([H])(N([H])C(=O)C([H])(N([H])C([H])([H])[H])C([H])([H])[H])C(C([H])([H])[H])(C([H])([H])[H])C([H])([H])[H])C([H])([H])c2c([H])c(OC([H])([H])C([H])([H])C([H])([H])C([H])([H])C([H])([H])C(=O)C3([H])C([H])([H])N(C(=O)N4C([H])([H])C([H])([H])C([H])([H])C([H])(n5nc(-c6c([H])c([H])c(Oc7c([H])c([H])c(F)c([H])c7F)c([H])c6[H])c(C(=O)N([H])[H])c5N([H])[H])C4([H])[H])C([H])([H])C3([H])[H])c([H])c([H])c2C1([H])[H]

>  <smiles>  (16) 
[H]c1c([H])c([H])c2c(c1[H])C([H])([H])C([H])([H])C([H])([H])C2([H])N([H])C(=O)C1([H])N(C(=O)C([H])(N([H])C(=O)C([H])(N([H])C([H])([H])[H])C([H])([H])[H])C(C([H])([H])[H])(C([H])([H])[H])C([H])([H])[H])C([H])([H])c2c([H])c(OC([H])([H])C([H])([H])C([H])([H])C([H])([H])C([H])([H])C(=O)C3([H])C([H])([H])N(C(=O)N4C([H])([H])C([H])([H])C([H])([H])C([H])(n5nc(-c6c([H])c([H])c(Oc7c([H])c([H])c(F)c([H])c7F)c([H])c6[H])c(C(=O)N([H])[H])c5N([H])[H])C4([H])[H])C([H])([H])C3([H])[H])c([H])c([H])c2C1([H])[H]

$$$$
16:0:0
     RDKit          3D

 92100  0  0  1  0  0  0  0  0999 V2000
  -29.0990  -21.4050   20.6420 C   0  0  0  0  0  2  0  0  0  0  0  0
  -29.8860  -20.1990   21.1830 C   0  0  0  0  0  0  0  0  0  0  0  0
  -30.6310  -20.3050   22.1620 O   0  0  0  0  0  0  0  0  0  0  0  0
  -30.8770  -14.5440   20.0750 C   0  0  0  0  0  0  0  0  0  0  0  0
  -30.5390  -12.3840   18.9490 C   0  0  0  0  0  2  0  0  0  0  0  0
  -29.5540  -12.6020   17.7830 C   0  0  0  0  0  2  0  0  0  0  0  0
  -28.0920  -12.4940   18.2670 C   0  0  0  0  0  2  0  0  0  0  0  0
  -27.8040  -13.3130   19.5590 C   0  0  0  0  0  3  0  0  0  0  0  0
  -28.9070  -13.0750   20.6150 C   0  0  0  0  0  2  0  0  0  0  0  0
  -30.2050  -13.3640   19.9900 N   0  0  0  0  0  0  0  0  0  0  0  0
  -32.0400  -14.6930   19.6920 O   0  0  0  0  0  0  0  0  0  0  0  0
  -30.6170  -17.4240   18.5370 C   0  0  0  0  0  2  0  0  0  0  0  0
  -30.9290  -18.4680   19.6250 C   0  0  0  0  0  2  0  0  0  0  0  0
  -29.2190  -17.7080   21.4520 C   0  0  0  0  0  2  0  0  0  0  0  0
  -29.6440  -16.3170   18.9820 C   0  0  0  0  0  2  0  0  0  0  0  0
  -30.0220  -16.3740   21.4800 C   0  0  0  0  0  2  0  0  0  0  0  0
  -29.6890  -18.8410   20.4780 C   0  0  0  0  0  3  0  0  0  0  0  0
  -30.0680  -15.6210   20.2100 N   0  0  0  0  0  0  0  0  0  0  0  0
  -25.4360  -13.9200   20.3680 C   0  0  0  0  0  0  0  0  0  0  0  0
  -24.3870  -13.1420   20.7790 C   0  0  0  0  0  0  0  0  0  0  0  0
  -24.8500  -11.7930   20.7300 C   0  0  0  0  0  0  0  0  0  0  0  0
  -26.4750  -13.0400   20.0940 N   0  0  0  0  0  0  0  0  0  0  0  0
  -26.1290  -11.7580   20.3740 N   0  0  0  0  0  0  0  0  0  0  0  0
  -24.1370  -10.5310   20.9490 C   0  0  0  0  0  0  0  0  0  0  0  0
  -24.5770   -9.5920   21.9090 C   0  0  0  0  0  3  0  0  0  0  0  0
  -23.8670   -8.3900   22.1120 C   0  0  0  0  0  3  0  0  0  0  0  0
  -22.6990   -8.1210   21.3600 C   0  0  0  0  0  0  0  0  0  0  0  0
  -22.2790   -9.0460   20.3880 C   0  0  0  0  0  3  0  0  0  0  0  0
  -22.9890  -10.2400   20.1820 C   0  0  0  0  0  3  0  0  0  0  0  0
  -21.9560   -6.9700   21.4730 O   0  0  0  0  0  0  0  0  0  0  0  0
  -21.8600   -6.2920   22.6610 C   0  0  0  0  0  0  0  0  0  0  0  0
  -21.3600   -6.9010   23.8320 C   0  0  0  0  0  3  0  0  0  0  0  0
  -21.2100   -6.1420   25.0100 C   0  0  0  0  0  3  0  0  0  0  0  0
  -21.5520   -4.7780   25.0190 C   0  0  0  0  0  0  0  0  0  0  0  0
  -22.0460   -4.1690   23.8540 C   0  0  0  0  0  3  0  0  0  0  0  0
  -22.1960   -4.9230   22.6760 C   0  0  0  0  0  0  0  0  0  0  0  0
  -22.6500   -4.3240   21.5490 F   0  0  0  0  0  0  0  0  0  0  0  0
  -21.4010   -4.0490   26.1510 F   0  0  0  0  0  0  0  0  0  0  0  0
  -23.0000  -13.6140   21.1060 C   0  0  0  0  0  0  0  0  0  0  0  0
  -22.3110  -12.9200   22.0040 N   0  0  0  0  0  0  0  0  0  0  0  0
  -22.5360  -14.6340   20.5960 O   0  0  0  0  0  0  0  0  0  0  0  0
  -22.7030  -12.0960   22.4390 H   0  0  0  0  0  0  0  0  0  0  0  0
  -21.3790  -13.2130   22.2590 H   0  0  0  0  0  0  0  0  0  0  0  0
  -25.5830  -15.2900   20.1850 N   0  0  0  0  0  0  0  0  0  0  0  0
  -24.8010  -15.9260   20.2970 H   0  0  0  0  0  0  0  0  0  0  0  0
  -26.4200  -15.7510   19.8550 H   0  0  0  0  0  0  0  0  0  0  0  0
  -29.8500  -22.7650   20.7180 C   0  0  0  0  0  2  0  0  0  0  0  0
  -28.3990  -23.7980   22.5570 C   0  0  0  0  0  1  0  0  0  0  0  0
  -28.9990  -23.9910   21.1460 C   0  0  0  0  0  3  0  0  0  0  0  0
  -29.8660  -25.2750   21.0670 C   0  0  0  0  0  2  0  0  0  0  0  0
  -29.1030  -26.6090   21.1420 C   0  0  0  0  0  2  0  0  0  0  0  0
  -28.3720  -26.7550   19.9350 O   0  0  0  0  0  0  0  0  0  0  0  0
  -24.5820  -31.8960   23.1380 C   0  0  0  0  0  0  0  0  0  0  0  0
  -27.2350  -27.5180   20.0070 C   0  0  0  0  0  0  0  0  0  0  0  0
  -23.3770  -30.5080   21.4770 C   0  0  0  0  0  3  0  0  0  0  0  0
  -24.8350  -28.9900   20.0390 C   0  0  0  0  0  0  0  0  0  0  0  0
  -25.8960  -30.8810   21.2820 C   0  0  0  0  0  2  0  0  0  0  0  0
  -25.9860  -29.5160   20.6400 C   0  0  0  0  0  0  0  0  0  0  0  0
  -27.1900  -28.7820   20.6360 C   0  0  0  0  0  3  0  0  0  0  0  0
  -26.0780  -27.0060   19.3920 C   0  0  0  0  0  3  0  0  0  0  0  0
  -24.8700  -27.7310   19.4160 C   0  0  0  0  0  3  0  0  0  0  0  0
  -23.5870  -29.8430   20.0910 C   0  0  0  0  0  2  0  0  0  0  0  0
  -24.6360  -31.1100   22.0260 N   0  0  0  0  0  0  0  0  0  0  0  0
  -23.5000  -32.1590   23.6820 O   0  0  0  0  0  0  0  0  0  0  0  0
  -22.7310  -29.4750   22.4290 C   0  0  0  0  0  0  0  0  0  0  0  0
  -21.4080  -29.2890   22.2970 N   0  0  0  0  0  0  0  0  0  0  0  0
  -23.4160  -28.8460   23.2390 O   0  0  0  0  0  0  0  0  0  0  0  0
  -20.9190  -29.8470   21.6120 H   0  0  0  0  0  0  0  0  0  0  0  0
  -18.0390  -28.0810   22.7770 C   0  0  0  0  0  0  0  0  0  0  0  0
  -20.5950  -28.3420   23.0590 C   0  0  0  0  0  3  0  0  0  0  0  0
  -20.7050  -26.9170   22.4700 C   0  0  0  0  0  2  0  0  0  0  0  0
  -19.6050  -26.6000   21.4510 C   0  0  0  0  0  2  0  0  0  0  0  0
  -18.2210  -26.7380   22.0880 C   0  0  0  0  0  2  0  0  0  0  0  0
  -19.1540  -28.8400   23.2190 C   0  0  0  0  0  0  0  0  0  0  0  0
  -18.9300  -30.0980   23.8210 C   0  0  0  0  0  3  0  0  0  0  0  0
  -17.6240  -30.5940   23.9890 C   0  0  0  0  0  3  0  0  0  0  0  0
  -16.5230  -29.8300   23.5640 C   0  0  0  0  0  3  0  0  0  0  0  0
  -16.7320  -28.5760   22.9630 C   0  0  0  0  0  3  0  0  0  0  0  0
  -25.8680  -32.5220   23.7630 C   0  0  0  0  0  3  0  0  0  0  0  0
  -25.5550  -33.9130   24.1150 N   0  0  0  0  0  0  0  0  0  0  0  0
  -25.8760  -34.9760   23.3670 C   0  0  0  0  0  0  0  0  0  0  0  0
  -26.5430  -34.8920   22.3320 O   0  0  0  0  0  0  0  0  0  0  0  0
  -24.9680  -34.0530   24.9230 H   0  0  0  0  0  0  0  0  0  0  0  0
  -24.1380  -36.7640   23.0400 C   0  0  0  0  0  1  0  0  0  0  0  0
  -25.3820  -36.3550   23.8440 C   0  0  0  0  0  3  0  0  0  0  0  0
  -27.5110  -37.2420   24.6860 C   0  0  0  0  0  1  0  0  0  0  0  0
  -26.4070  -37.4150   23.7450 N   0  0  0  0  0  0  0  0  0  0  0  0
  -25.9950  -38.3310   23.9040 H   0  0  0  0  0  0  0  0  0  0  0  0
  -26.3950  -31.7310   25.0240 C   0  0  1  0  0  0  0  0  0  0  0  0
  -25.3090  -31.4720   26.0910 C   0  0  0  0  0  1  0  0  0  0  0  0
  -26.9840  -30.3630   24.6070 C   0  0  0  0  0  1  0  0  0  0  0  0
  -27.5420  -32.5210   25.6970 C   0  0  0  0  0  1  0  0  0  0  0  0
  1 47  1  0
  1  2  1  0
  2  3  2  0
  4 18  1  0
  5 10  1  0
  6  7  1  0
  6  5  1  0
  8  7  1  0
  8 22  1  0
  8  9  1  0
 10  4  1  0
 10  9  1  0
 11  4  2  0
 12 15  1  0
 12 13  1  0
 13 17  1  0
 14 16  1  0
 15 18  1  0
 17  2  1  0
 17 14  1  0
 18 16  1  0
 19 20  2  0
 20 39  1  0
 21 20  1  0
 21 24  1  0
 22 19  1  0
 22 23  1  0
 23 21  2  0
 24 25  1  0
 25 26  2  0
 27 30  1  0
 27 26  1  0
 28 27  2  0
 29 28  1  0
 29 24  2  0
 30 31  1  0
 31 36  2  0
 31 32  1  0
 32 33  2  0
 33 34  1  0
 34 38  1  0
 35 34  2  0
 36 35  1  0
 37 36  1  0
 39 40  1  0
 40 43  1  0
 40 42  1  0
 41 39  2  0
 44 45  1  0
 44 19  1  0
 46 44  1  0
 47 49  1  0
 49 48  1  0
 50 51  1  0
 50 49  1  0
 52 54  1  0
 52 51  1  0
 53 64  2  0
 54 59  1  0
 55 63  1  0
 55 65  1  0
 56 62  1  0
 56 58  1  0
 57 63  1  0
 58 57  1  0
 59 58  2  0
 60 61  1  0
 60 54  2  0
 61 56  2  0
 62 55  1  0
 63 53  1  0
 65 67  2  0
 66 65  1  0
 68 66  1  0
 69 78  2  0
 69 74  1  0
 70 66  1  0
 70 74  1  0
 71 70  1  0
 72 73  1  0
 72 71  1  0
 73 69  1  0
 74 75  2  0
 75 76  1  0
 77 76  2  0
 78 77  1  0
 79 53  1  0
 79 80  1  0
 79 89  1  0
 80 83  1  0
 81 85  1  0
 81 80  1  0
 82 81  2  0
 85 84  1  0
 87 85  1  0
 87 88  1  0
 87 86  1  0
 89 92  1  1
 89 90  1  0
 91 89  1  0
M  ISO  4   4 100  18 100  51 101  52 101
M  END
>  <TORSDO>  (17) 
F 21

>  <SCORE>  (17) 
-12.807

>  <name>  (17) 
16

>  <ligand_id>  (17) 
16

>  <original_smiles>  (17) 
[H]c1c([H])c([H])c2c(c1[H])C([H])([H])C([H])([H])C([H])([H])C2([H])N([H])C(=O)C1([H])N(C(=O)C([H])(N([H])C(=O)C([H])(N([H])C([H])([H])[H])C([H])([H])[H])C(C([H])([H])[H])(C([H])([H])[H])C([H])([H])[H])C([H])([H])c2c([H])c(OC([H])([H])C([H])([H])C([H])(C([H])([H])[H])C([H])([H])C([H])([H])C(=O)C3([H])C([H])([H])C([H])([H])N(C(=O)N4C([H])([H])C([H])([H])C([H])([H])C([H])(n5nc(-c6c([H])c([H])c(Oc7c([H])c([H])c(F)c([H])c7F)c([H])c6[H])c(C(=O)N([H])[H])c5N([H])[H])C4([H])[H])C([H])([H])C([H])([H])C3([H])[H])c([H])c([H])c2C1([H])[H]

>  <smiles>  (17) 
[H]c1c([H])c([H])c2c(c1[H])C([H])([H])C([H])([H])C([H])([H])C2([H])N([H])C(=O)C1([H])N(C(=O)C([H])(N([H])C(=O)C([H])(N([H])C([H])([H])[H])C([H])([H])[H])C(C([H])([H])[H])(C([H])([H])[H])C([H])([H])[H])C([H])([H])c2c([H])c(OC([H])([H])C([H])([H])C([H])(C([H])([H])[H])C([H])([H])C([H])([H])C(=O)C3([H])C([H])([H])C([H])([H])N(C(=O)N4C([H])([H])C([H])([H])C([H])([H])C([H])(n5nc(-c6c([H])c([H])c(Oc7c([H])c([H])c(F)c([H])c7F)c([H])c6[H])c(C(=O)N([H])[H])c5N([H])[H])C4([H])[H])C([H])([H])C([H])([H])C3([H])[H])c([H])c([H])c2C1([H])[H]

$$$$
17:0:0
     RDKit          3D

 92100  0  0  1  0  0  0  0  0999 V2000
  -29.3550  -21.9010   20.3360 C   0  0  0  0  0  0  0  0  0  0  0  0
  -29.1340  -22.9840   21.1070 N   0  0  0  0  0  0  0  0  0  0  0  0
  -29.6540  -22.0060   19.1470 O   0  0  0  0  0  0  0  0  0  0  0  0
  -28.8690  -22.8040   22.0680 H   0  0  0  0  0  0  0  0  0  0  0  0
  -29.2480  -20.5020   21.0010 C   0  0  0  0  0  3  0  0  0  0  0  0
  -29.3130  -19.2800   20.0280 C   0  0  0  0  0  3  0  0  0  0  0  0
  -30.3310  -14.4730   19.7730 C   0  0  0  0  0  0  0  0  0  0  0  0
  -29.8400  -12.3950   18.5370 C   0  0  0  0  0  2  0  0  0  0  0  0
  -28.7850  -12.6900   17.4520 C   0  0  0  0  0  2  0  0  0  0  0  0
  -27.3620  -12.5370   18.0270 C   0  0  0  0  0  2  0  0  0  0  0  0
  -27.1730  -13.2990   19.3650 C   0  0  0  0  0  3  0  0  0  0  0  0
  -28.3380  -13.0160   20.3420 C   0  0  0  0  0  2  0  0  0  0  0  0
  -29.5990  -13.3290   19.6480 N   0  0  0  0  0  0  0  0  0  0  0  0
  -31.3860  -14.6510   19.1560 O   0  0  0  0  0  0  0  0  0  0  0  0
  -30.3560  -17.5210   21.6590 C   0  0  0  0  0  2  0  0  0  0  0  0
  -29.2670  -16.6670   19.7370 C   0  0  0  0  0  2  0  0  0  0  0  0
  -29.2280  -17.8720   20.7000 C   0  0  0  0  0  3  0  0  0  0  0  0
  -30.3000  -15.9860   21.7720 C   0  0  0  0  0  3  0  0  0  0  0  0
  -29.7720  -15.4900   20.4790 N   0  0  0  0  0  0  0  0  0  0  0  0
  -24.8330  -13.8720   20.2730 C   0  0  0  0  0  0  0  0  0  0  0  0
  -23.8170  -13.0860   20.7450 C   0  0  0  0  0  0  0  0  0  0  0  0
  -24.3020  -11.7430   20.7000 C   0  0  0  0  0  0  0  0  0  0  0  0
  -25.8720  -13.0060   19.9690 N   0  0  0  0  0  0  0  0  0  0  0  0
  -25.5600  -11.7220   20.2810 N   0  0  0  0  0  0  0  0  0  0  0  0
  -23.6210  -10.4710   20.9780 C   0  0  0  0  0  0  0  0  0  0  0  0
  -24.1370   -9.5440   21.9090 C   0  0  0  0  0  3  0  0  0  0  0  0
  -23.4540   -8.3370   22.1730 C   0  0  0  0  0  3  0  0  0  0  0  0
  -22.2390   -8.0480   21.5060 C   0  0  0  0  0  0  0  0  0  0  0  0
  -21.7410   -8.9640   20.5630 C   0  0  0  0  0  3  0  0  0  0  0  0
  -22.4270  -10.1620   20.2960 C   0  0  0  0  0  3  0  0  0  0  0  0
  -21.5210   -6.8890   21.6800 O   0  0  0  0  0  0  0  0  0  0  0  0
  -21.5650   -6.1840   22.8560 C   0  0  0  0  0  0  0  0  0  0  0  0
  -21.2110   -6.7710   24.0900 C   0  0  0  0  0  3  0  0  0  0  0  0
  -21.2030   -5.9930   25.2650 C   0  0  0  0  0  3  0  0  0  0  0  0
  -21.5380   -4.6270   25.2070 C   0  0  0  0  0  0  0  0  0  0  0  0
  -21.8880   -4.0390   23.9780 C   0  0  0  0  0  3  0  0  0  0  0  0
  -21.8980   -4.8150   22.8060 C   0  0  0  0  0  0  0  0  0  0  0  0
  -22.2140   -4.2380   21.6210 F   0  0  0  0  0  0  0  0  0  0  0  0
  -21.5230   -3.8760   26.3330 F   0  0  0  0  0  0  0  0  0  0  0  0
  -22.4380  -13.5420   21.1290 C   0  0  0  0  0  0  0  0  0  0  0  0
  -21.8040  -12.8530   22.0710 N   0  0  0  0  0  0  0  0  0  0  0  0
  -21.9330  -14.5460   20.6300 O   0  0  0  0  0  0  0  0  0  0  0  0
  -22.2270  -12.0460   22.5030 H   0  0  0  0  0  0  0  0  0  0  0  0
  -20.8820  -13.1390   22.3700 H   0  0  0  0  0  0  0  0  0  0  0  0
  -24.9530  -15.2410   20.0590 N   0  0  0  0  0  0  0  0  0  0  0  0
  -24.1860  -15.8830   20.2280 H   0  0  0  0  0  0  0  0  0  0  0  0
  -25.7750  -15.6970   19.6860 H   0  0  0  0  0  0  0  0  0  0  0  0
  -32.0590  -15.7850   23.6580 C   0  0  0  0  0  1  0  0  0  0  0  0
  -31.6410  -15.3620   22.2430 C   0  0  0  0  0  2  0  0  0  0  0  0
  -29.3860  -24.4040   20.7680 C   0  0  0  0  0  2  0  0  0  0  0  0
  -28.1420  -25.1840   20.2610 C   0  0  0  0  0  2  0  0  0  0  0  0
  -28.3230  -26.6230   20.2560 O   0  0  0  0  0  0  0  0  0  0  0  0
  -24.5740  -31.8980   23.2620 C   0  0  0  0  0  0  0  0  0  0  0  0
  -27.1730  -27.3980   20.2050 C   0  0  0  0  0  0  0  0  0  0  0  0
  -23.3550  -30.5060   21.6250 C   0  0  0  0  0  3  0  0  0  0  0  0
  -24.7950  -28.9530   20.1990 C   0  0  0  0  0  0  0  0  0  0  0  0
  -25.8870  -30.8350   21.4260 C   0  0  0  0  0  2  0  0  0  0  0  0
  -25.9610  -29.4630   20.7840 C   0  0  0  0  0  0  0  0  0  0  0  0
  -27.1550  -28.6970   20.7720 C   0  0  0  0  0  3  0  0  0  0  0  0
  -25.9870  -26.9160   19.6030 C   0  0  0  0  0  3  0  0  0  0  0  0
  -24.8060  -27.6830   19.5980 C   0  0  0  0  0  3  0  0  0  0  0  0
  -23.5570  -29.8210   20.2460 C   0  0  0  0  0  2  0  0  0  0  0  0
  -24.6240  -31.0960   22.1610 N   0  0  0  0  0  0  0  0  0  0  0  0
  -23.4960  -32.1810   23.8040 O   0  0  0  0  0  0  0  0  0  0  0  0
  -22.6950  -29.4920   22.5880 C   0  0  0  0  0  0  0  0  0  0  0  0
  -21.3690  -29.3180   22.4590 N   0  0  0  0  0  0  0  0  0  0  0  0
  -23.3720  -28.8660   23.4080 O   0  0  0  0  0  0  0  0  0  0  0  0
  -20.8840  -29.8740   21.7680 H   0  0  0  0  0  0  0  0  0  0  0  0
  -17.9830  -28.1570   22.9670 C   0  0  0  0  0  0  0  0  0  0  0  0
  -20.5430  -28.3890   23.2320 C   0  0  0  0  0  3  0  0  0  0  0  0
  -20.6300  -26.9570   22.6560 C   0  0  0  0  0  2  0  0  0  0  0  0
  -19.5220  -26.6450   21.6440 C   0  0  0  0  0  2  0  0  0  0  0  0
  -18.1430  -26.8050   22.2920 C   0  0  0  0  0  2  0  0  0  0  0  0
  -19.1110  -28.9070   23.3940 C   0  0  0  0  0  0  0  0  0  0  0  0
  -18.9060  -30.1720   23.9870 C   0  0  0  0  0  3  0  0  0  0  0  0
  -17.6080  -30.6870   24.1540 C   0  0  0  0  0  3  0  0  0  0  0  0
  -16.4950  -29.9350   23.7430 C   0  0  0  0  0  3  0  0  0  0  0  0
  -16.6820  -28.6710   23.1550 C   0  0  0  0  0  3  0  0  0  0  0  0
  -25.8660  -32.5200   23.8800 C   0  0  0  0  0  3  0  0  0  0  0  0
  -25.5700  -33.9230   24.2040 N   0  0  0  0  0  0  0  0  0  0  0  0
  -25.9000  -34.9670   23.4320 C   0  0  0  0  0  0  0  0  0  0  0  0
  -26.5570  -34.8510   22.3940 O   0  0  0  0  0  0  0  0  0  0  0  0
  -24.9860  -34.0860   25.0120 H   0  0  0  0  0  0  0  0  0  0  0  0
  -24.1720  -36.7620   23.0920 C   0  0  0  0  0  1  0  0  0  0  0  0
  -25.4260  -36.3620   23.8840 C   0  0  0  0  0  3  0  0  0  0  0  0
  -27.5800  -37.2480   24.6630 C   0  0  0  0  0  1  0  0  0  0  0  0
  -26.4600  -37.4100   23.7390 N   0  0  0  0  0  0  0  0  0  0  0  0
  -26.0600  -38.3330   23.8840 H   0  0  0  0  0  0  0  0  0  0  0  0
  -26.3760  -31.7500   25.1600 C   0  0  1  0  0  0  0  0  0  0  0  0
  -25.2820  -31.5240   26.2280 C   0  0  0  0  0  1  0  0  0  0  0  0
  -26.9480  -30.3670   24.7730 C   0  0  0  0  0  1  0  0  0  0  0  0
  -27.5320  -32.5380   25.8200 C   0  0  0  0  0  1  0  0  0  0  0  0
  1  5  1  0
  1  2  1  0
  2  4  1  0
  3  1  2  0
  6  5  2  0
  7 19  1  0
  8 13  1  0
  9 10  1  0
  9  8  1  0
 11 10  1  0
 11 23  1  0
 11 12  1  0
 13  7  1  0
 13 12  1  0
 14  7  2  0
 15 18  1  0
 16 19  1  0
 16 17  1  0
 17  6  1  0
 17 15  1  0
 18 49  1  0
 19 18  1  0
 20 21  2  0
 21 40  1  0
 22 21  1  0
 22 25  1  0
 23 20  1  0
 23 24  1  0
 24 22  2  0
 25 26  1  0
 26 27  2  0
 28 31  1  0
 28 27  1  0
 29 28  2  0
 30 29  1  0
 30 25  2  0
 31 32  1  0
 32 33  1  0
 33 34  2  0
 35 34  1  0
 35 39  1  0
 36 35  2  0
 37 32  2  0
 37 36  1  0
 38 37  1  0
 40 41  1  0
 41 44  1  0
 41 43  1  0
 42 40  2  0
 45 46  1  0
 45 20  1  0
 47 45  1  0
 49 48  1  0
 50  2  1  0
 51 50  1  0
 52 51  1  0
 53 64  2  0
 54 52  1  0
 54 59  1  0
 55 63  1  0
 55 65  1  0
 56 62  1  0
 56 58  1  0
 57 63  1  0
 58 57  1  0
 59 58  2  0
 60 54  2  0
 61 60  1  0
 61 56  2  0
 62 55  1  0
 63 53  1  0
 65 67  2  0
 66 65  1  0
 68 66  1  0
 69 78  2  0
 69 74  1  0
 70 66  1  0
 70 74  1  0
 71 70  1  0
 72 73  1  0
 72 71  1  0
 73 69  1  0
 74 75  2  0
 75 76  1  0
 77 76  2  0
 78 77  1  0
 79 53  1  0
 79 80  1  0
 79 89  1  0
 80 83  1  0
 81 85  1  0
 81 80  1  0
 82 81  2  0
 85 84  1  0
 87 85  1  0
 87 88  1  0
 87 86  1  0
 89 92  1  1
 89 90  1  0
 91 89  1  0
M  ISO  4   7 100  19 100  51 101  52 101
M  END
>  <TORSDO>  (18) 
F 21

>  <SCORE>  (18) 
-7.914

>  <name>  (18) 
17

>  <ligand_id>  (18) 
17

>  <original_smiles>  (18) 
[H]c1c([H])c([H])c2c(c1[H])C([H])([H])C([H])([H])C([H])([H])C2([H])N([H])C(=O)C1([H])N(C(=O)C([H])(N([H])C(=O)C([H])(N([H])C([H])([H])[H])C([H])([H])[H])C(C([H])([H])[H])(C([H])([H])[H])C([H])([H])[H])C([H])([H])c2c([H])c(OC([H])([H])C([H])([H])N([H])C(=O)C([H])([H])C([H])([H])C3([H])C([H])([H])N(C(=O)N4C([H])([H])C([H])([H])C([H])([H])C([H])(n5nc(-c6c([H])c([H])c(Oc7c([H])c([H])c(F)c([H])c7F)c([H])c6[H])c(C(=O)N([H])[H])c5N([H])[H])C4([H])[H])C([H])(C([H])([H])C([H])([H])[H])C3([H])[H])c([H])c([H])c2C1([H])[H]

>  <smiles>  (18) 
[H]c1c([H])c([H])c2c(c1[H])C([H])([H])C([H])([H])C([H])([H])C2([H])N([H])C(=O)C1([H])N(C(=O)C([H])(N([H])C(=O)C([H])(N([H])C([H])([H])[H])C([H])([H])[H])C(C([H])([H])[H])(C([H])([H])[H])C([H])([H])[H])C([H])([H])c2c([H])c(OC([H])([H])C([H])([H])N([H])C(=O)C([H])([H])C([H])([H])C3([H])C([H])([H])N(C(=O)N4C([H])([H])C([H])([H])C([H])([H])C([H])(n5nc(-c6c([H])c([H])c(Oc7c([H])c([H])c(F)c([H])c7F)c([H])c6[H])c(C(=O)N([H])[H])c5N([H])[H])C4([H])[H])C([H])(C([H])([H])C([H])([H])[H])C3([H])[H])c([H])c([H])c2C1([H])[H]

$$$$
18:0:0
     RDKit          3D

 90 97  0  0  1  0  0  0  0  0999 V2000
  -27.2720  -22.3970   20.6740 C   0  0  0  0  0  0  0  0  0  0  0  0
  -27.4680  -23.7220   20.5970 N   0  0  0  0  0  0  0  0  0  0  0  0
  -26.1390  -21.9640   20.8770 O   0  0  0  0  0  0  0  0  0  0  0  0
  -26.6440  -24.2960   20.7110 H   0  0  0  0  0  0  0  0  0  0  0  0
  -28.4540  -21.4200   20.4980 C   0  0  0  0  0  2  0  0  0  0  0  0
  -28.0260  -19.9290   20.4650 C   0  0  0  0  0  2  0  0  0  0  0  0
  -29.1810  -18.9650   20.2290 C   0  0  0  0  0  3  0  0  0  0  0  0
  -29.4970  -17.9270   21.0290 C   0  0  0  0  0  3  0  0  0  0  0  0
  -30.6560  -16.9670   20.7850 C   0  0  0  0  0  2  0  0  0  0  0  0
  -30.8800  -14.5740   20.1110 C   0  0  0  0  0  0  0  0  0  0  0  0
  -30.5480  -12.4040   18.9890 C   0  0  0  0  0  2  0  0  0  0  0  0
  -29.5600  -12.5870   17.8200 C   0  0  0  0  0  2  0  0  0  0  0  0
  -28.1050  -12.4440   18.3070 C   0  0  0  0  0  2  0  0  0  0  0  0
  -27.8110  -13.3010   19.5680 C   0  0  0  0  0  3  0  0  0  0  0  0
  -28.9060  -13.0960   20.6400 C   0  0  0  0  0  2  0  0  0  0  0  0
  -30.2080  -13.3960   20.0200 N   0  0  0  0  0  0  0  0  0  0  0  0
  -31.9660  -14.7750   19.5590 O   0  0  0  0  0  0  0  0  0  0  0  0
  -30.2210  -15.5670   20.7320 N   0  0  0  0  0  0  0  0  0  0  0  0
  -29.3360  -15.3290   21.1540 H   0  0  0  0  0  0  0  0  0  0  0  0
  -25.4490  -13.9200   20.3820 C   0  0  0  0  0  0  0  0  0  0  0  0
  -24.3930  -13.1500   20.7930 C   0  0  0  0  0  0  0  0  0  0  0  0
  -24.8450  -11.7960   20.7330 C   0  0  0  0  0  0  0  0  0  0  0  0
  -26.4770  -13.0330   20.1010 N   0  0  0  0  0  0  0  0  0  0  0  0
  -26.1190  -11.7510   20.3660 N   0  0  0  0  0  0  0  0  0  0  0  0
  -24.1220  -10.5370   20.9460 C   0  0  0  0  0  0  0  0  0  0  0  0
  -24.5650   -9.5820   21.8870 C   0  0  0  0  0  3  0  0  0  0  0  0
  -23.8450   -8.3850   22.0880 C   0  0  0  0  0  3  0  0  0  0  0  0
  -22.6670   -8.1340   21.3440 C   0  0  0  0  0  0  0  0  0  0  0  0
  -22.2410   -9.0780   20.3930 C   0  0  0  0  0  3  0  0  0  0  0  0
  -22.9630  -10.2670   20.1920 C   0  0  0  0  0  3  0  0  0  0  0  0
  -21.9170   -6.9870   21.4530 O   0  0  0  0  0  0  0  0  0  0  0  0
  -21.8450   -6.2820   22.6270 C   0  0  0  0  0  0  0  0  0  0  0  0
  -21.3730   -6.8690   23.8210 C   0  0  0  0  0  3  0  0  0  0  0  0
  -21.2500   -6.0890   24.9890 C   0  0  0  0  0  3  0  0  0  0  0  0
  -21.5870   -4.7230   24.9620 C   0  0  0  0  0  0  0  0  0  0  0  0
  -22.0520   -4.1350   23.7720 C   0  0  0  0  0  3  0  0  0  0  0  0
  -22.1780   -4.9130   22.6070 C   0  0  0  0  0  0  0  0  0  0  0  0
  -22.6040   -4.3360   21.4580 F   0  0  0  0  0  0  0  0  0  0  0  0
  -21.4630   -3.9710   26.0800 F   0  0  0  0  0  0  0  0  0  0  0  0
  -23.0120  -13.6330   21.1330 C   0  0  0  0  0  0  0  0  0  0  0  0
  -22.3200  -12.9340   22.0260 N   0  0  0  0  0  0  0  0  0  0  0  0
  -22.5560  -14.6660   20.6440 O   0  0  0  0  0  0  0  0  0  0  0  0
  -22.7020  -12.0980   22.4450 H   0  0  0  0  0  0  0  0  0  0  0  0
  -21.3970  -13.2410   22.2970 H   0  0  0  0  0  0  0  0  0  0  0  0
  -25.6180  -15.2890   20.2080 N   0  0  0  0  0  0  0  0  0  0  0  0
  -24.8670  -15.9560   20.3560 H   0  0  0  0  0  0  0  0  0  0  0  0
  -26.4630  -15.7190   19.8520 H   0  0  0  0  0  0  0  0  0  0  0  0
  -28.7280  -24.4470   20.4260 C   0  0  0  0  0  2  0  0  0  0  0  0
  -28.6950  -25.8180   21.1400 C   0  0  0  0  0  2  0  0  0  0  0  0
  -28.6190  -26.9070   20.2180 O   0  0  0  0  0  0  0  0  0  0  0  0
  -24.7660  -31.9690   23.4100 C   0  0  0  0  0  0  0  0  0  0  0  0
  -27.4490  -27.6200   20.2600 C   0  0  0  0  0  0  0  0  0  0  0  0
  -23.5750  -30.6040   21.7220 C   0  0  0  0  0  3  0  0  0  0  0  0
  -25.0480  -29.0980   20.2820 C   0  0  0  0  0  0  0  0  0  0  0  0
  -26.1000  -30.9770   21.5560 C   0  0  0  0  0  2  0  0  0  0  0  0
  -26.1960  -29.6200   20.8910 C   0  0  0  0  0  0  0  0  0  0  0  0
  -27.4010  -28.8860   20.8800 C   0  0  0  0  0  3  0  0  0  0  0  0
  -26.2910  -27.1030   19.6470 C   0  0  0  0  0  3  0  0  0  0  0  0
  -25.0890  -27.8370   19.6580 C   0  0  0  0  0  3  0  0  0  0  0  0
  -23.8010  -29.9530   20.3300 C   0  0  0  0  0  2  0  0  0  0  0  0
  -24.8300  -31.1980   22.2880 N   0  0  0  0  0  0  0  0  0  0  0  0
  -23.6790  -32.2280   23.9480 O   0  0  0  0  0  0  0  0  0  0  0  0
  -22.9180  -29.5610   22.6530 C   0  0  0  0  0  0  0  0  0  0  0  0
  -21.5940  -29.3820   22.5090 N   0  0  0  0  0  0  0  0  0  0  0  0
  -23.5950  -28.9160   23.4580 O   0  0  0  0  0  0  0  0  0  0  0  0
  -21.1100  -29.9620   21.8370 H   0  0  0  0  0  0  0  0  0  0  0  0
  -18.2180  -28.1670   22.9300 C   0  0  0  0  0  0  0  0  0  0  0  0
  -20.7710  -28.4240   23.2470 C   0  0  0  0  0  3  0  0  0  0  0  0
  -20.8860  -27.0060   22.6400 C   0  0  0  0  0  2  0  0  0  0  0  0
  -19.8000  -26.7060   21.6010 C   0  0  0  0  0  2  0  0  0  0  0  0
  -18.4080  -26.8330   22.2260 C   0  0  0  0  0  2  0  0  0  0  0  0
  -19.3280  -28.9210   23.3930 C   0  0  0  0  0  0  0  0  0  0  0  0
  -19.0990  -30.1710   24.0070 C   0  0  0  0  0  3  0  0  0  0  0  0
  -17.7920  -30.6680   24.1640 C   0  0  0  0  0  3  0  0  0  0  0  0
  -16.6950  -29.9120   23.7170 C   0  0  0  0  0  3  0  0  0  0  0  0
  -16.9080  -28.6630   23.1060 C   0  0  0  0  0  3  0  0  0  0  0  0
  -26.0450  -32.5850   24.0580 C   0  0  0  0  0  3  0  0  0  0  0  0
  -25.7420  -33.9810   24.3980 N   0  0  0  0  0  0  0  0  0  0  0  0
  -26.0900  -35.0380   23.6530 C   0  0  0  0  0  0  0  0  0  0  0  0
  -26.7740  -34.9410   22.6300 O   0  0  0  0  0  0  0  0  0  0  0  0
  -25.1380  -34.1310   25.1940 H   0  0  0  0  0  0  0  0  0  0  0  0
  -24.3740  -36.8400   23.2930 C   0  0  0  0  0  1  0  0  0  0  0  0
  -25.6020  -36.4250   24.1160 C   0  0  0  0  0  3  0  0  0  0  0  0
  -27.7310  -37.2920   24.9790 C   0  0  0  0  0  1  0  0  0  0  0  0
  -26.6410  -37.4740   24.0240 N   0  0  0  0  0  0  0  0  0  0  0  0
  -26.2380  -38.3940   24.1740 H   0  0  0  0  0  0  0  0  0  0  0  0
  -26.5410  -31.7940   25.3310 C   0  0  1  0  0  0  0  0  0  0  0  0
  -25.4320  -31.5490   26.3800 C   0  0  0  0  0  1  0  0  0  0  0  0
  -27.1220  -30.4190   24.9250 C   0  0  0  0  0  1  0  0  0  0  0  0
  -27.6870  -32.5740   26.0180 C   0  0  0  0  0  1  0  0  0  0  0  0
  1  3  2  0
  2  1  1  0
  2  4  1  0
  5  1  1  0
  6  5  1  0
  7  6  1  0
  7  8  2  0
  9  8  1  0
 10 18  1  0
 11 16  1  0
 12 13  1  0
 12 11  1  0
 14 13  1  0
 14 23  1  0
 14 15  1  0
 16 10  1  0
 16 15  1  0
 17 10  2  0
 18  9  1  0
 18 19  1  0
 20 21  2  0
 21 40  1  0
 22 21  1  0
 22 25  1  0
 23 24  1  0
 23 20  1  0
 24 22  2  0
 25 26  1  0
 26 27  2  0
 28 31  1  0
 28 27  1  0
 29 28  2  0
 30 29  1  0
 30 25  2  0
 31 32  1  0
 32 33  1  0
 33 34  2  0
 35 34  1  0
 35 39  1  0
 36 35  2  0
 37 32  2  0
 37 36  1  0
 38 37  1  0
 40 41  1  0
 41 44  1  0
 41 43  1  0
 42 40  2  0
 45 46  1  0
 45 20  1  0
 47 45  1  0
 48  2  1  0
 48 49  1  0
 50 52  1  0
 50 49  1  0
 51 62  2  0
 52 57  1  0
 53 61  1  0
 53 63  1  0
 54 60  1  0
 54 56  1  0
 55 61  1  0
 56 55  1  0
 57 56  2  0
 58 59  1  0
 58 52  2  0
 59 54  2  0
 60 53  1  0
 61 51  1  0
 63 65  2  0
 64 63  1  0
 66 64  1  0
 67 76  2  0
 67 72  1  0
 68 64  1  0
 68 72  1  0
 69 68  1  0
 70 71  1  0
 70 69  1  0
 71 67  1  0
 72 73  2  0
 73 74  1  0
 75 74  2  0
 76 75  1  0
 77 51  1  0
 77 78  1  0
 77 87  1  0
 78 81  1  0
 79 83  1  0
 79 78  1  0
 80 79  2  0
 83 82  1  0
 85 83  1  0
 85 86  1  0
 85 84  1  0
 87 90  1  1
 87 88  1  0
 89 87  1  0
M  ISO  4  10 100  18 100  49 101  50 101
M  END
>  <TORSDO>  (19) 
F 22

>  <SCORE>  (19) 
-11.847

>  <name>  (19) 
18

>  <ligand_id>  (19) 
18

>  <original_smiles>  (19) 
[H]C(=C([H])C([H])([H])C([H])([H])C(=O)N([H])C([H])([H])C([H])([H])Oc1c([H])c([H])c2c(c1[H])C([H])([H])N(C(=O)C([H])(N([H])C(=O)C([H])(N([H])C([H])([H])[H])C([H])([H])[H])C(C([H])([H])[H])(C([H])([H])[H])C([H])([H])[H])C([H])(C(=O)N([H])C1([H])c3c([H])c([H])c([H])c([H])c3C([H])([H])C([H])([H])C1([H])[H])C2([H])[H])C([H])([H])N([H])C(=O)N1C([H])([H])C([H])([H])C([H])([H])C([H])(n2nc(-c3c([H])c([H])c(Oc4c([H])c([H])c(F)c([H])c4F)c([H])c3[H])c(C(=O)N([H])[H])c2N([H])[H])C1([H])[H]

>  <smiles>  (19) 
[H]C(=C([H])C([H])([H])C([H])([H])C(=O)N([H])C([H])([H])C([H])([H])Oc1c([H])c([H])c2c(c1[H])C([H])([H])N(C(=O)C([H])(N([H])C(=O)C([H])(N([H])C([H])([H])[H])C([H])([H])[H])C(C([H])([H])[H])(C([H])([H])[H])C([H])([H])[H])C([H])(C(=O)N([H])C1([H])c3c([H])c([H])c([H])c([H])c3C([H])([H])C([H])([H])C1([H])[H])C2([H])[H])C([H])([H])N([H])C(=O)N1C([H])([H])C([H])([H])C([H])([H])C([H])(n2nc(-c3c([H])c([H])c(Oc4c([H])c([H])c(F)c([H])c4F)c([H])c3[H])c(C(=O)N([H])[H])c2N([H])[H])C1([H])[H]

$$$$
19:0:0
     RDKit          3D

 97105  0  0  1  0  0  0  0  0999 V2000
  -26.5250  -22.8560   21.4380 C   0  0  0  0  0  2  0  0  0  0  0  0
  -28.4860  -22.7730   19.8760 C   0  0  0  0  0  2  0  0  0  0  0  0
  -26.3630  -21.3310   21.2730 C   0  0  0  0  0  2  0  0  0  0  0  0
  -27.1490  -23.4840   20.1760 C   0  0  0  0  0  3  0  0  0  0  0  0
  -28.2930  -21.2510   19.7180 C   0  0  0  0  0  3  0  0  0  0  0  0
  -27.6510  -20.6840   20.9330 N   0  0  0  0  0  4  0  0  0  0  0  0
  -27.4840  -19.6980   20.7970 H   0  0  0  0  0  0  0  0  0  0  0  0
  -28.2690  -20.7750   21.7250 H   0  0  0  0  0  0  0  0  0  0  0  0
  -27.3120  -25.0160   20.3030 C   0  0  0  0  0  2  0  0  0  0  0  0
  -27.8770  -25.6990   19.0510 C   0  0  0  0  0  0  0  0  0  0  0  0
  -27.8310  -25.1650   17.9370 O   0  0  0  0  0  0  0  0  0  0  0  0
  -28.4750  -27.0940   19.2290 C   0  0  0  0  0  2  0  0  0  0  0  0
  -27.9000  -27.9870   18.2780 O   0  0  0  0  0  0  0  0  0  0  0  0
  -24.5180  -31.6300   23.3420 C   0  0  0  0  0  0  0  0  0  0  0  0
  -26.7170  -28.5180   18.7160 C   0  0  0  0  0  0  0  0  0  0  0  0
  -23.0740  -30.5210   21.6640 C   0  0  0  0  0  3  0  0  0  0  0  0
  -24.2750  -29.5910   19.6130 C   0  0  0  0  0  0  0  0  0  0  0  0
  -25.4410  -31.2680   21.0600 C   0  0  0  0  0  2  0  0  0  0  0  0
  -25.4870  -30.1190   20.0800 C   0  0  0  0  0  0  0  0  0  0  0  0
  -26.7130  -29.5850   19.6360 C   0  0  0  0  0  3  0  0  0  0  0  0
  -25.4970  -27.9930   18.2470 C   0  0  0  0  0  3  0  0  0  0  0  0
  -24.2720  -28.5220   18.6990 C   0  0  0  0  0  3  0  0  0  0  0  0
  -23.0100  -30.2310   20.1400 C   0  0  0  0  0  2  0  0  0  0  0  0
  -24.3740  -31.1400   22.0780 N   0  0  0  0  0  0  0  0  0  0  0  0
  -23.5750  -31.6110   24.1450 O   0  0  0  0  0  0  0  0  0  0  0  0
  -22.7470  -29.2160   22.4250 C   0  0  0  0  0  0  0  0  0  0  0  0
  -21.5190  -28.7080   22.2380 N   0  0  0  0  0  0  0  0  0  0  0  0
  -23.5940  -28.6710   23.1390 O   0  0  0  0  0  0  0  0  0  0  0  0
  -20.8770  -29.2230   21.6510 H   0  0  0  0  0  0  0  0  0  0  0  0
  -18.7650  -26.3770   22.1270 C   0  0  0  0  0  0  0  0  0  0  0  0
  -21.0020  -27.4710   22.8200 C   0  0  0  0  0  3  0  0  0  0  0  0
  -21.6850  -26.2330   22.1960 C   0  0  0  0  0  2  0  0  0  0  0  0
  -20.9160  -25.6580   21.0010 C   0  0  0  0  0  2  0  0  0  0  0  0
  -19.5010  -25.2500   21.4220 C   0  0  0  0  0  2  0  0  0  0  0  0
  -19.4710  -27.4290   22.7700 C   0  0  0  0  0  0  0  0  0  0  0  0
  -18.7400  -28.4720   23.3780 C   0  0  0  0  0  3  0  0  0  0  0  0
  -17.3320  -28.4730   23.3560 C   0  0  0  0  0  3  0  0  0  0  0  0
  -16.6390  -27.4200   22.7340 C   0  0  0  0  0  3  0  0  0  0  0  0
  -17.3550  -26.3740   22.1250 C   0  0  0  0  0  3  0  0  0  0  0  0
  -25.8630  -32.2550   23.8320 C   0  0  0  0  0  3  0  0  0  0  0  0
  -25.5780  -33.6300   24.2640 N   0  0  0  0  0  0  0  0  0  0  0  0
  -25.8450  -34.7240   23.5380 C   0  0  0  0  0  0  0  0  0  0  0  0
  -26.4260  -34.6820   22.4500 O   0  0  0  0  0  0  0  0  0  0  0  0
  -25.0550  -33.7380   25.1190 H   0  0  0  0  0  0  0  0  0  0  0  0
  -24.0930  -36.5240   23.4090 C   0  0  0  0  0  1  0  0  0  0  0  0
  -25.3900  -36.0810   24.1070 C   0  0  0  0  0  3  0  0  0  0  0  0
  -27.5800  -36.9230   24.8290 C   0  0  0  0  0  1  0  0  0  0  0  0
  -26.4110  -37.1440   23.9810 N   0  0  0  0  0  0  0  0  0  0  0  0
  -26.0170  -38.0500   24.2140 H   0  0  0  0  0  0  0  0  0  0  0  0
  -26.5450  -31.4330   24.9920 C   0  0  1  0  0  0  0  0  0  0  0  0
  -25.5800  -31.0570   26.1400 C   0  0  0  0  0  1  0  0  0  0  0  0
  -27.1580  -30.1220   24.4430 C   0  0  0  0  0  1  0  0  0  0  0  0
  -27.7130  -32.2470   25.5960 C   0  0  0  0  0  1  0  0  0  0  0  0
  -29.6270  -20.5540   19.3750 C   0  0  0  0  0  2  0  0  0  0  0  0
  -29.4360  -19.0920   18.9690 C   0  0  0  0  0  0  0  0  0  0  0  0
  -28.3760  -18.5060   19.2080 O   0  0  0  0  0  0  0  0  0  0  0  0
  -30.5980  -18.4070   18.2380 C   0  0  0  0  0  3  0  0  0  0  0  0
  -30.1770  -17.2680   17.6760 F   0  0  0  0  0  0  0  0  0  0  0  0
  -31.8190  -18.1370   19.1470 C   0  0  0  0  0  2  0  0  0  0  0  0
  -32.3970  -15.8980   20.0660 C   0  0  0  0  0  0  0  0  0  0  0  0
  -32.5200  -13.5130   20.6760 C   0  0  0  0  0  2  0  0  0  0  0  0
  -31.8480  -12.6440   19.5950 C   0  0  0  0  0  2  0  0  0  0  0  0
  -30.3300  -12.5350   19.8350 C   0  0  0  0  0  2  0  0  0  0  0  0
  -29.6620  -13.9120   20.0930 C   0  0  0  0  0  3  0  0  0  0  0  0
  -30.4560  -14.7100   21.1510 C   0  0  0  0  0  2  0  0  0  0  0  0
  -31.8540  -14.8230   20.6920 N   0  0  0  0  0  0  0  0  0  0  0  0
  -33.5180  -15.8890   19.5470 O   0  0  0  0  0  0  0  0  0  0  0  0
  -31.6100  -16.9790   20.0190 N   0  0  0  0  0  0  0  0  0  0  0  0
  -30.7170  -16.9060   20.4870 H   0  0  0  0  0  0  0  0  0  0  0  0
  -27.2940  -14.7260   20.6960 C   0  0  0  0  0  0  0  0  0  0  0  0
  -26.1320  -14.0490   20.9550 C   0  0  0  0  0  0  0  0  0  0  0  0
  -26.4570  -12.6610   20.8630 C   0  0  0  0  0  0  0  0  0  0  0  0
  -28.2590  -13.7570   20.4720 N   0  0  0  0  0  0  0  0  0  0  0  0
  -27.7540  -12.5060   20.6260 N   0  0  0  0  0  0  0  0  0  0  0  0
  -25.5980  -11.4710   20.9300 C   0  0  0  0  0  0  0  0  0  0  0  0
  -25.7960  -10.4730   21.9110 C   0  0  0  0  0  3  0  0  0  0  0  0
  -24.9470   -9.3480   21.9670 C   0  0  0  0  0  3  0  0  0  0  0  0
  -23.8850   -9.2120   21.0420 C   0  0  0  0  0  0  0  0  0  0  0  0
  -23.7080  -10.1960   20.0540 C   0  0  0  0  0  3  0  0  0  0  0  0
  -24.5570  -11.3140   19.9950 C   0  0  0  0  0  3  0  0  0  0  0  0
  -23.0260   -8.1410   21.0060 O   0  0  0  0  0  0  0  0  0  0  0  0
  -22.5840   -7.5330   22.1530 C   0  0  0  0  0  0  0  0  0  0  0  0
  -21.8810   -8.2430   23.1510 C   0  0  0  0  0  3  0  0  0  0  0  0
  -21.3850   -7.5630   24.2810 C   0  0  0  0  0  3  0  0  0  0  0  0
  -21.5820   -6.1750   24.4120 C   0  0  0  0  0  0  0  0  0  0  0  0
  -22.2790   -5.4660   23.4180 C   0  0  0  0  0  3  0  0  0  0  0  0
  -22.7740   -6.1430   22.2910 C   0  0  0  0  0  0  0  0  0  0  0  0
  -23.4260   -5.4520   21.3240 F   0  0  0  0  0  0  0  0  0  0  0  0
  -21.1000   -5.5210   25.4950 F   0  0  0  0  0  0  0  0  0  0  0  0
  -24.7770  -14.6500   21.1880 C   0  0  0  0  0  0  0  0  0  0  0  0
  -23.9480  -14.0020   22.0000 N   0  0  0  0  0  0  0  0  0  0  0  0
  -24.4600  -15.7270   20.6860 O   0  0  0  0  0  0  0  0  0  0  0  0
  -24.2140  -13.1290   22.4310 H   0  0  0  0  0  0  0  0  0  0  0  0
  -23.0330  -14.3830   22.1930 H   0  0  0  0  0  0  0  0  0  0  0  0
  -27.6090  -16.0790   20.6160 N   0  0  0  0  0  0  0  0  0  0  0  0
  -26.9200  -16.8080   20.7570 H   0  0  0  0  0  0  0  0  0  0  0  0
  -28.5460  -16.4400   20.4780 H   0  0  0  0  0  0  0  0  0  0  0  0
  2  4  1  0
  3  1  1  0
  4  9  1  0
  4  1  1  0
  5 54  1  0
  5  2  1  0
  5  6  1  0
  6  3  1  0
  6  8  1  0
  7  6  1  0
 10 12  1  0
 10  9  1  0
 11 10  2  0
 13 15  1  0
 13 12  1  0
 14 25  2  0
 15 20  1  0
 16 24  1  0
 16 26  1  0
 17 19  1  0
 17 23  1  0
 18 24  1  0
 19 18  1  0
 20 19  2  0
 21 22  1  0
 21 15  2  0
 22 17  2  0
 23 16  1  0
 24 14  1  0
 26 28  2  0
 27 26  1  0
 29 27  1  0
 30 35  1  0
 31 27  1  0
 32 31  1  0
 33 34  1  0
 33 32  1  0
 34 30  1  0
 35 31  1  0
 35 36  2  0
 37 36  1  0
 38 37  2  0
 39 30  2  0
 39 38  1  0
 40 14  1  0
 40 41  1  0
 40 50  1  0
 41 44  1  0
 42 46  1  0
 42 41  1  0
 43 42  2  0
 46 45  1  0
 48 46  1  0
 48 49  1  0
 48 47  1  0
 50 53  1  1
 50 51  1  0
 52 50  1  0
 55 56  2  0
 55 54  1  0
 57 58  1  0
 57 55  1  0
 57 59  1  0
 59 68  1  0
 60 66  1  0
 61 66  1  0
 62 63  1  0
 62 61  1  0
 64 63  1  0
 64 73  1  0
 64 65  1  0
 66 65  1  0
 67 60  2  0
 68 60  1  0
 68 69  1  0
 70 71  2  0
 71 90  1  0
 72 75  1  0
 72 71  1  0
 73 74  1  0
 73 70  1  0
 74 72  2  0
 75 76  1  0
 76 77  2  0
 78 77  1  0
 79 78  2  0
 80 79  1  0
 80 75  2  0
 81 78  1  0
 81 82  1  0
 82 87  2  0
 82 83  1  0
 83 84  2  0
 84 85  1  0
 85 89  1  0
 86 85  2  0
 87 86  1  0
 88 87  1  0
 90 91  1  0
 91 94  1  0
 91 93  1  0
 92 90  2  0
 95 70  1  0
 95 96  1  0
 97 95  1  0
M  ISO  4  12 101  13 101  60 100  68 100
M  END
>  <TORSDO>  (20) 
F 23

>  <SCORE>  (20) 
-5.306

>  <name>  (20) 
19

>  <ligand_id>  (20) 
19

>  <original_smiles>  (20) 
[H]c1c([H])c([H])c2c(c1[H])C([H])([H])C([H])([H])C([H])([H])C2([H])N([H])C(=O)C1([H])N(C(=O)C([H])(N([H])C(=O)C([H])(N([H])C([H])([H])[H])C([H])([H])[H])C(C([H])([H])[H])(C([H])([H])[H])C([H])([H])[H])C([H])([H])c2c([H])c(OC([H])([H])C(=O)C([H])([H])C3([H])C([H])([H])C([H])([H])[N+]([H])([H])C([H])(C([H])([H])C(=O)C([H])(F)C([H])([H])N([H])C(=O)N4C([H])([H])C([H])([H])C([H])([H])C([H])(n5nc(-c6c([H])c([H])c(Oc7c([H])c([H])c(F)c([H])c7F)c([H])c6[H])c(C(=O)N([H])[H])c5N([H])[H])C4([H])[H])C3([H])[H])c([H])c([H])c2C1([H])[H]

>  <smiles>  (20) 
[H]c1c([H])c([H])c2c(c1[H])C([H])([H])C([H])([H])C([H])([H])C2([H])N([H])C(=O)C1([H])N(C(=O)C([H])(N([H])C(=O)C([H])(N([H])C([H])([H])[H])C([H])([H])[H])C(C([H])([H])[H])(C([H])([H])[H])C([H])([H])[H])C([H])([H])c2c([H])c(OC([H])([H])C(=O)C([H])([H])C3([H])C([H])([H])C([H])([H])[N+]([H])([H])C([H])(C([H])([H])C(=O)C([H])(F)C([H])([H])N([H])C(=O)N4C([H])([H])C([H])([H])C([H])([H])C([H])(n5nc(-c6c([H])c([H])c(Oc7c([H])c([H])c(F)c([H])c7F)c([H])c6[H])c(C(=O)N([H])[H])c5N([H])[H])C4([H])[H])C3([H])[H])c([H])c([H])c2C1([H])[H]

$$$$
20:0:0
     RDKit          3D

 95103  0  0  1  0  0  0  0  0999 V2000
  -28.9860  -23.4460   20.9460 C   0  0  0  0  0  2  0  0  0  0  0  0
  -29.9770  -22.2480   21.0660 C   0  0  0  0  0  2  0  0  0  0  0  0
  -29.3690  -20.8250   21.0380 C   0  0  0  0  0  0  0  0  0  0  0  0
  -28.2400  -20.6660   20.5690 O   0  0  0  0  0  0  0  0  0  0  0  0
  -30.7600  -14.5070   19.9720 C   0  0  0  0  0  0  0  0  0  0  0  0
  -30.2830  -12.3600   18.8420 C   0  0  0  0  0  2  0  0  0  0  0  0
  -29.2730  -12.5500   17.6940 C   0  0  0  0  0  2  0  0  0  0  0  0
  -27.8370  -12.3930   18.2260 C   0  0  0  0  0  2  0  0  0  0  0  0
  -27.5820  -13.2610   19.4820 C   0  0  0  0  0  3  0  0  0  0  0  0
  -28.7110  -13.1060   20.5320 C   0  0  0  0  0  2  0  0  0  0  0  0
  -29.9950  -13.3780   19.8730 N   0  0  0  0  0  0  0  0  0  0  0  0
  -31.8550  -14.5750   19.4040 O   0  0  0  0  0  0  0  0  0  0  0  0
  -29.9560  -18.3960   21.6730 C   0  0  0  0  0  0  0  0  0  0  0  0
  -30.2030  -19.7340   21.6170 C   0  0  0  0  0  3  0  0  0  0  0  0
  -30.9080  -17.4410   22.3590 C   0  0  0  0  0  2  0  0  0  0  0  0
  -28.7720  -17.6210   21.1250 C   0  0  0  0  0  2  0  0  0  0  0  0
  -31.3850  -16.3410   21.3960 C   0  0  0  0  0  2  0  0  0  0  0  0
  -29.1800  -16.4230   20.2200 C   0  0  0  0  0  3  0  0  0  0  0  0
  -29.3850  -16.9030   18.7650 C   0  0  0  0  0  1  0  0  0  0  0  0
  -30.3170  -15.5790   20.7050 N   0  0  0  0  0  0  0  0  0  0  0  0
  -25.2670  -13.9110   20.3930 C   0  0  0  0  0  0  0  0  0  0  0  0
  -24.2150  -13.1550   20.8290 C   0  0  0  0  0  0  0  0  0  0  0  0
  -24.6450  -11.7950   20.7450 C   0  0  0  0  0  0  0  0  0  0  0  0
  -26.2700  -13.0110   20.0660 N   0  0  0  0  0  0  0  0  0  0  0  0
  -25.9060  -11.7340   20.3420 N   0  0  0  0  0  0  0  0  0  0  0  0
  -23.9100  -10.5440   20.9670 C   0  0  0  0  0  0  0  0  0  0  0  0
  -24.3740   -9.5680   21.8770 C   0  0  0  0  0  3  0  0  0  0  0  0
  -23.6420   -8.3790   22.0840 C   0  0  0  0  0  3  0  0  0  0  0  0
  -22.4320   -8.1610   21.3840 C   0  0  0  0  0  0  0  0  0  0  0  0
  -21.9880   -9.1250   20.4620 C   0  0  0  0  0  3  0  0  0  0  0  0
  -22.7200  -10.3040   20.2520 C   0  0  0  0  0  3  0  0  0  0  0  0
  -21.6660   -7.0250   21.5030 O   0  0  0  0  0  0  0  0  0  0  0  0
  -21.6410   -6.2940   22.6630 C   0  0  0  0  0  0  0  0  0  0  0  0
  -21.2730   -6.8690   23.9000 C   0  0  0  0  0  3  0  0  0  0  0  0
  -21.1940   -6.0650   25.0540 C   0  0  0  0  0  3  0  0  0  0  0  0
  -21.4730   -4.6870   24.9730 C   0  0  0  0  0  0  0  0  0  0  0  0
  -21.8350   -4.1120   23.7420 C   0  0  0  0  0  3  0  0  0  0  0  0
  -21.9160   -4.9140   22.5900 C   0  0  0  0  0  0  0  0  0  0  0  0
  -22.2450   -4.3520   21.4030 F   0  0  0  0  0  0  0  0  0  0  0  0
  -21.3890   -3.9120   26.0800 F   0  0  0  0  0  0  0  0  0  0  0  0
  -22.8510  -13.6540   21.2090 C   0  0  0  0  0  0  0  0  0  0  0  0
  -22.1790  -12.9660   22.1250 N   0  0  0  0  0  0  0  0  0  0  0  0
  -22.3910  -14.6890   20.7280 O   0  0  0  0  0  0  0  0  0  0  0  0
  -22.5640  -12.1290   22.5360 H   0  0  0  0  0  0  0  0  0  0  0  0
  -21.2660  -13.2820   22.4220 H   0  0  0  0  0  0  0  0  0  0  0  0
  -25.4460  -15.2820   20.2240 N   0  0  0  0  0  0  0  0  0  0  0  0
  -24.7020  -15.9460   20.4030 H   0  0  0  0  0  0  0  0  0  0  0  0
  -26.2720  -15.7090   19.8270 H   0  0  0  0  0  0  0  0  0  0  0  0
  -29.6620  -24.8360   21.1810 C   0  0  0  0  0  3  0  0  0  0  0  0
  -30.6790  -25.1380   20.1480 N   0  0  0  0  0  4  0  0  0  0  0  0
  -30.2410  -25.2610   19.2500 H   0  0  0  0  0  0  0  0  0  0  0  0
  -31.3730  -24.4150   20.0760 H   0  0  0  0  0  0  0  0  0  0  0  0
  -31.1530  -25.9990   20.3680 H   0  0  0  0  0  0  0  0  0  0  0  0
  -28.6940  -26.0460   21.3470 C   0  0  0  0  0  2  0  0  0  0  0  0
  -28.3810  -26.6750   20.0970 O   0  0  0  0  0  0  0  0  0  0  0  0
  -24.5130  -31.8220   23.2030 C   0  0  0  0  0  0  0  0  0  0  0  0
  -27.2340  -27.4340   20.1220 C   0  0  0  0  0  0  0  0  0  0  0  0
  -23.3300  -30.3980   21.5620 C   0  0  0  0  0  3  0  0  0  0  0  0
  -24.8130  -28.8900   20.1320 C   0  0  0  0  0  0  0  0  0  0  0  0
  -25.8470  -30.8070   21.3580 C   0  0  0  0  0  2  0  0  0  0  0  0
  -25.9600  -29.4360   20.7240 C   0  0  0  0  0  0  0  0  0  0  0  0
  -27.1760  -28.7130   20.7240 C   0  0  0  0  0  3  0  0  0  0  0  0
  -26.0790  -26.9060   19.5140 C   0  0  0  0  0  3  0  0  0  0  0  0
  -24.8670  -27.6230   19.5250 C   0  0  0  0  0  3  0  0  0  0  0  0
  -23.5510  -29.7220   20.1820 C   0  0  0  0  0  2  0  0  0  0  0  0
  -24.5820  -31.0250   22.1000 N   0  0  0  0  0  0  0  0  0  0  0  0
  -23.4280  -32.0720   23.7470 O   0  0  0  0  0  0  0  0  0  0  0  0
  -22.7030  -29.3630   22.5240 C   0  0  0  0  0  0  0  0  0  0  0  0
  -21.3830  -29.1490   22.3960 N   0  0  0  0  0  0  0  0  0  0  0  0
  -23.4010  -28.7550   23.3410 O   0  0  0  0  0  0  0  0  0  0  0  0
  -20.8800  -29.6940   21.7080 H   0  0  0  0  0  0  0  0  0  0  0  0
  -18.0400  -27.8650   22.8760 C   0  0  0  0  0  0  0  0  0  0  0  0
  -20.5870  -28.1940   23.1660 C   0  0  0  0  0  3  0  0  0  0  0  0
  -20.7330  -26.7630   22.5980 C   0  0  0  0  0  2  0  0  0  0  0  0
  -19.6480  -26.4050   21.5770 C   0  0  0  0  0  2  0  0  0  0  0  0
  -18.2580  -26.5160   22.2100 C   0  0  0  0  0  2  0  0  0  0  0  0
  -19.1340  -28.6590   23.3110 C   0  0  0  0  0  0  0  0  0  0  0  0
  -18.8770  -29.9200   23.8910 C   0  0  0  0  0  3  0  0  0  0  0  0
  -17.5580  -30.3880   24.0430 C   0  0  0  0  0  3  0  0  0  0  0  0
  -16.4780  -29.5910   23.6250 C   0  0  0  0  0  3  0  0  0  0  0  0
  -16.7200  -28.3310   23.0480 C   0  0  0  0  0  3  0  0  0  0  0  0
  -25.7890  -32.4770   23.8190 C   0  0  0  0  0  3  0  0  0  0  0  0
  -25.4590  -33.8710   24.1420 N   0  0  0  0  0  0  0  0  0  0  0  0
  -25.7740  -34.9240   23.3740 C   0  0  0  0  0  0  0  0  0  0  0  0
  -26.4450  -34.8240   22.3420 O   0  0  0  0  0  0  0  0  0  0  0  0
  -24.8630  -34.0230   24.9420 H   0  0  0  0  0  0  0  0  0  0  0  0
  -24.0130  -36.6820   23.0090 C   0  0  0  0  0  1  0  0  0  0  0  0
  -25.2630  -36.3070   23.8200 C   0  0  0  0  0  3  0  0  0  0  0  0
  -27.3870  -37.2330   24.6350 C   0  0  0  0  0  1  0  0  0  0  0  0
  -26.2780  -37.3770   23.6950 N   0  0  0  0  0  0  0  0  0  0  0  0
  -25.8570  -38.2910   23.8370 H   0  0  0  0  0  0  0  0  0  0  0  0
  -26.3220  -31.7200   25.0970 C   0  0  1  0  0  0  0  0  0  0  0  0
  -25.2360  -31.4690   26.1690 C   0  0  0  0  0  1  0  0  0  0  0  0
  -26.9260  -30.3510   24.7080 C   0  0  0  0  0  1  0  0  0  0  0  0
  -27.4610  -32.5360   25.7530 C   0  0  0  0  0  1  0  0  0  0  0  0
  1  2  1  0
  3  2  1  0
  3 14  1  0
  4  3  2  0
  5 20  1  0
  6 11  1  0
  7  8  1  0
  7  6  1  0
  9  8  1  0
  9 24  1  0
  9 10  1  0
 11  5  1  0
 11 10  1  0
 12  5  2  0
 13 15  1  0
 14 13  2  0
 16 13  1  0
 17 15  1  0
 18 19  1  0
 18 20  1  0
 18 16  1  0
 20 17  1  0
 21 22  2  0
 22 41  1  0
 23 22  1  0
 23 26  1  0
 24 25  1  0
 24 21  1  0
 25 23  2  0
 26 27  1  0
 27 28  2  0
 29 32  1  0
 29 28  1  0
 30 29  2  0
 31 30  1  0
 31 26  2  0
 32 33  1  0
 33 34  1  0
 34 35  2  0
 36 35  1  0
 36 40  1  0
 37 36  2  0
 38 33  2  0
 38 37  1  0
 39 38  1  0
 41 42  1  0
 42 45  1  0
 42 44  1  0
 43 41  2  0
 46 21  1  0
 46 47  1  0
 48 46  1  0
 49  1  1  0
 49 54  1  0
 50 53  1  0
 50 49  1  0
 51 50  1  0
 52 50  1  0
 55 57  1  0
 55 54  1  0
 56 67  2  0
 57 62  1  0
 58 66  1  0
 58 68  1  0
 59 65  1  0
 59 61  1  0
 60 66  1  0
 61 62  2  0
 61 60  1  0
 63 64  1  0
 63 57  2  0
 64 59  2  0
 65 58  1  0
 66 56  1  0
 68 70  2  0
 69 68  1  0
 71 69  1  0
 72 81  2  0
 72 77  1  0
 73 69  1  0
 73 77  1  0
 74 73  1  0
 75 76  1  0
 75 74  1  0
 76 72  1  0
 77 78  2  0
 78 79  1  0
 80 79  2  0
 81 80  1  0
 82 56  1  0
 82 83  1  0
 82 92  1  0
 83 86  1  0
 84 88  1  0
 84 83  1  0
 85 84  2  0
 88 87  1  0
 90 88  1  0
 90 91  1  0
 90 89  1  0
 92 95  1  1
 92 93  1  0
 94 92  1  0
M  ISO  4   5 100  20 100  54 101  55 101
M  END
>  <TORSDO>  (21) 
F 21

>  <SCORE>  (21) 
-12.823

>  <name>  (21) 
20

>  <ligand_id>  (21) 
20

>  <original_smiles>  (21) 
[H]C(C(=O)C([H])([H])C([H])([H])C([H])(C([H])([H])Oc1c([H])c([H])c2c(c1[H])C([H])([H])N(C(=O)C([H])(N([H])C(=O)C([H])(N([H])C([H])([H])[H])C([H])([H])[H])C(C([H])([H])[H])(C([H])([H])[H])C([H])([H])[H])C([H])(C(=O)N([H])C1([H])c3c([H])c([H])c([H])c([H])c3C([H])([H])C([H])([H])C1([H])[H])C2([H])[H])[N+]([H])([H])[H])=C1C([H])([H])C([H])([H])N(C(=O)N2C([H])([H])C([H])([H])C([H])([H])C([H])(n3nc(-c4c([H])c([H])c(Oc5c([H])c([H])c(F)c([H])c5F)c([H])c4[H])c(C(=O)N([H])[H])c3N([H])[H])C2([H])[H])C([H])(C([H])([H])[H])C1([H])[H]

>  <smiles>  (21) 
[H]C(C(=O)C([H])([H])C([H])([H])C([H])(C([H])([H])Oc1c([H])c([H])c2c(c1[H])C([H])([H])N(C(=O)C([H])(N([H])C(=O)C([H])(N([H])C([H])([H])[H])C([H])([H])[H])C(C([H])([H])[H])(C([H])([H])[H])C([H])([H])[H])C([H])(C(=O)N([H])C1([H])c3c([H])c([H])c([H])c([H])c3C([H])([H])C([H])([H])C1([H])[H])C2([H])[H])[N+]([H])([H])[H])=C1C([H])([H])C([H])([H])N(C(=O)N2C([H])([H])C([H])([H])C([H])([H])C([H])(n3nc(-c4c([H])c([H])c(Oc5c([H])c([H])c(F)c([H])c5F)c([H])c4[H])c(C(=O)N([H])[H])c3N([H])[H])C2([H])[H])C([H])(C([H])([H])[H])C1([H])[H]

$$$$
21:0:0
     RDKit          3D

 89 97  0  0  1  0  0  0  0  0999 V2000
  -29.3420  -21.5510   20.0710 C   0  0  0  0  0  3  0  0  0  0  0  0
  -28.7090  -22.7850   20.7880 C   0  0  0  0  0  3  0  0  0  0  0  0
  -28.8750  -24.1580   20.0590 C   0  0  0  0  0  2  0  0  0  0  0  0
  -28.2470  -25.3600   20.8220 C   0  0  0  0  0  2  0  0  0  0  0  0
  -28.3740  -26.6410   20.1570 O   0  0  0  0  0  0  0  0  0  0  0  0
  -24.6080  -31.8810   23.2250 C   0  0  0  0  0  0  0  0  0  0  0  0
  -27.2280  -27.4140   20.1490 C   0  0  0  0  0  0  0  0  0  0  0  0
  -23.3930  -30.4770   21.5920 C   0  0  0  0  0  3  0  0  0  0  0  0
  -24.8400  -28.9370   20.1590 C   0  0  0  0  0  0  0  0  0  0  0  0
  -25.9190  -30.8320   21.3800 C   0  0  0  0  0  2  0  0  0  0  0  0
  -26.0030  -29.4590   20.7390 C   0  0  0  0  0  0  0  0  0  0  0  0
  -27.2040  -28.7080   20.7260 C   0  0  0  0  0  3  0  0  0  0  0  0
  -26.0510  -26.9150   19.5540 C   0  0  0  0  0  3  0  0  0  0  0  0
  -24.8600  -27.6650   19.5610 C   0  0  0  0  0  3  0  0  0  0  0  0
  -23.5950  -29.7960   20.2120 C   0  0  0  0  0  2  0  0  0  0  0  0
  -24.6590  -31.0790   22.1240 N   0  0  0  0  0  0  0  0  0  0  0  0
  -23.5290  -32.1530   23.7710 O   0  0  0  0  0  0  0  0  0  0  0  0
  -22.7460  -29.4570   22.5570 C   0  0  0  0  0  0  0  0  0  0  0  0
  -21.4210  -29.2760   22.4380 N   0  0  0  0  0  0  0  0  0  0  0  0
  -23.4340  -28.8320   23.3690 O   0  0  0  0  0  0  0  0  0  0  0  0
  -20.9270  -29.8320   21.7550 H   0  0  0  0  0  0  0  0  0  0  0  0
  -18.0490  -28.0770   22.9500 C   0  0  0  0  0  0  0  0  0  0  0  0
  -20.6080  -28.3380   23.2130 C   0  0  0  0  0  3  0  0  0  0  0  0
  -20.7100  -26.9060   22.6400 C   0  0  0  0  0  2  0  0  0  0  0  0
  -19.6050  -26.5800   21.6300 C   0  0  0  0  0  2  0  0  0  0  0  0
  -18.2250  -26.7260   22.2780 C   0  0  0  0  0  2  0  0  0  0  0  0
  -19.1680  -28.8420   23.3760 C   0  0  0  0  0  0  0  0  0  0  0  0
  -18.9510  -30.1060   23.9630 C   0  0  0  0  0  3  0  0  0  0  0  0
  -17.6460  -30.6080   24.1310 C   0  0  0  0  0  3  0  0  0  0  0  0
  -16.5410  -29.8400   23.7230 C   0  0  0  0  0  3  0  0  0  0  0  0
  -16.7440  -28.5780   23.1390 C   0  0  0  0  0  3  0  0  0  0  0  0
  -25.8960  -32.5120   23.8380 C   0  0  0  0  0  3  0  0  0  0  0  0
  -25.5870  -33.9080   24.1770 N   0  0  0  0  0  0  0  0  0  0  0  0
  -25.9120  -34.9650   23.4200 C   0  0  0  0  0  0  0  0  0  0  0  0
  -26.5740  -34.8680   22.3830 O   0  0  0  0  0  0  0  0  0  0  0  0
  -24.9990  -34.0570   24.9840 H   0  0  0  0  0  0  0  0  0  0  0  0
  -24.1750  -36.7520   23.0870 C   0  0  0  0  0  1  0  0  0  0  0  0
  -25.4230  -36.3500   23.8870 C   0  0  0  0  0  3  0  0  0  0  0  0
  -27.5640  -37.2340   24.7000 C   0  0  0  0  0  1  0  0  0  0  0  0
  -26.4510  -37.4060   23.7700 N   0  0  0  0  0  0  0  0  0  0  0  0
  -26.0440  -38.3240   23.9290 H   0  0  0  0  0  0  0  0  0  0  0  0
  -26.4290  -31.7360   25.1040 C   0  0  1  0  0  0  0  0  0  0  0  0
  -25.3500  -31.4890   26.1820 C   0  0  0  0  0  1  0  0  0  0  0  0
  -27.0110  -30.3620   24.6950 C   0  0  0  0  0  1  0  0  0  0  0  0
  -27.5870  -32.5280   25.7560 C   0  0  0  0  0  1  0  0  0  0  0  0
  -29.1200  -20.1690   20.7800 C   0  0  0  0  0  2  0  0  0  0  0  0
  -29.7120  -19.0130   20.0410 N   0  0  0  0  0  4  0  0  0  0  0  0
  -29.3700  -19.0820   19.0960 H   0  0  0  0  0  0  0  0  0  0  0  0
  -30.7120  -19.1230   19.9980 H   0  0  0  0  0  0  0  0  0  0  0  0
  -30.6420  -14.5250   20.4310 C   0  0  0  0  0  0  0  0  0  0  0  0
  -30.3540  -12.3330   19.3460 C   0  0  0  0  0  2  0  0  0  0  0  0
  -29.4180  -12.5200   18.1340 C   0  0  0  0  0  2  0  0  0  0  0  0
  -27.9430  -12.3820   18.5610 C   0  0  0  0  0  2  0  0  0  0  0  0
  -27.5970  -13.2340   19.8130 C   0  0  0  0  0  3  0  0  0  0  0  0
  -28.6540  -13.0560   20.9270 C   0  0  0  0  0  2  0  0  0  0  0  0
  -29.9740  -13.3420   20.3450 N   0  0  0  0  0  0  0  0  0  0  0  0
  -31.8170  -14.6500   20.0750 O   0  0  0  0  0  0  0  0  0  0  0  0
  -29.5530  -16.5080   19.5170 C   0  0  0  0  0  2  0  0  0  0  0  0
  -30.4170  -16.8490   21.3230 C   0  0  0  0  0  2  0  0  0  0  0  0
  -29.3710  -17.6350   20.5280 C   0  0  0  0  0  3  0  0  0  0  0  0
  -29.8780  -15.6260   20.6660 N   0  0  0  0  0  0  0  0  0  0  0  0
  -25.2020  -13.8470   20.5150 C   0  0  0  0  0  0  0  0  0  0  0  0
  -24.1310  -13.0790   20.8830 C   0  0  0  0  0  0  0  0  0  0  0  0
  -24.5920  -11.7270   20.8640 C   0  0  0  0  0  0  0  0  0  0  0  0
  -26.2460  -12.9620   20.2940 N   0  0  0  0  0  0  0  0  0  0  0  0
  -25.8830  -11.6830   20.5620 N   0  0  0  0  0  0  0  0  0  0  0  0
  -23.8630  -10.4670   21.0580 C   0  0  0  0  0  0  0  0  0  0  0  0
  -24.3060   -9.4930   21.9820 C   0  0  0  0  0  3  0  0  0  0  0  0
  -23.5780   -8.2980   22.1650 C   0  0  0  0  0  3  0  0  0  0  0  0
  -22.3960   -8.0660   21.4240 C   0  0  0  0  0  0  0  0  0  0  0  0
  -21.9730   -9.0280   20.4890 C   0  0  0  0  0  3  0  0  0  0  0  0
  -22.7000  -10.2150   20.3040 C   0  0  0  0  0  3  0  0  0  0  0  0
  -21.6380   -6.9230   21.5170 O   0  0  0  0  0  0  0  0  0  0  0  0
  -21.6190   -6.1640   22.6590 C   0  0  0  0  0  0  0  0  0  0  0  0
  -21.2470   -6.7080   23.9080 C   0  0  0  0  0  3  0  0  0  0  0  0
  -21.1730   -5.8760   25.0430 C   0  0  0  0  0  3  0  0  0  0  0  0
  -21.4610   -4.5020   24.9310 C   0  0  0  0  0  0  0  0  0  0  0  0
  -21.8260   -3.9590   23.6860 C   0  0  0  0  0  3  0  0  0  0  0  0
  -21.9020   -4.7880   22.5540 C   0  0  0  0  0  0  0  0  0  0  0  0
  -22.2330   -4.2550   21.3530 F   0  0  0  0  0  0  0  0  0  0  0  0
  -21.3820   -3.7020   26.0190 F   0  0  0  0  0  0  0  0  0  0  0  0
  -22.7340  -13.5600   21.1470 C   0  0  0  0  0  0  0  0  0  0  0  0
  -22.0020  -12.8710   22.0140 N   0  0  0  0  0  0  0  0  0  0  0  0
  -22.2990  -14.5820   20.6170 O   0  0  0  0  0  0  0  0  0  0  0  0
  -22.3670  -12.0440   22.4640 H   0  0  0  0  0  0  0  0  0  0  0  0
  -21.0640  -13.1750   22.2340 H   0  0  0  0  0  0  0  0  0  0  0  0
  -25.3720  -15.2170   20.3300 N   0  0  0  0  0  0  0  0  0  0  0  0
  -24.6100  -15.8780   20.4360 H   0  0  0  0  0  0  0  0  0  0  0  0
  -26.2350  -15.6490   20.0300 H   0  0  0  0  0  0  0  0  0  0  0  0
  1 46  1  0
  1  2  2  0
  3  2  1  0
  3  4  1  0
  5  4  1  0
  6 17  2  0
  7  5  1  0
  7 12  1  0
  8 16  1  0
  8 18  1  0
  9 15  1  0
  9 11  1  0
 10 16  1  0
 11 10  1  0
 12 11  2  0
 13 14  1  0
 13  7  2  0
 14  9  2  0
 15  8  1  0
 16  6  1  0
 18 20  2  0
 19 18  1  0
 21 19  1  0
 22 31  2  0
 22 27  1  0
 23 19  1  0
 23 27  1  0
 24 23  1  0
 25 26  1  0
 25 24  1  0
 26 22  1  0
 27 28  2  0
 28 29  1  0
 30 29  2  0
 31 30  1  0
 32  6  1  0
 32 33  1  0
 32 42  1  0
 33 36  1  0
 34 38  1  0
 34 33  1  0
 35 34  2  0
 38 37  1  0
 40 38  1  0
 40 41  1  0
 40 39  1  0
 42 45  1  1
 42 43  1  0
 44 42  1  0
 47 46  1  0
 48 47  1  0
 49 47  1  0
 50 61  1  0
 51 56  1  0
 52 53  1  0
 52 51  1  0
 54 53  1  0
 54 65  1  0
 54 55  1  0
 56 50  1  0
 56 55  1  0
 57 50  2  0
 58 60  1  0
 58 61  1  0
 60 47  1  0
 60 59  1  0
 61 59  1  0
 62 63  2  0
 63 82  1  0
 64 63  1  0
 64 67  1  0
 65 62  1  0
 65 66  1  0
 66 64  2  0
 67 68  1  0
 68 69  2  0
 70 73  1  0
 70 69  1  0
 71 70  2  0
 72 71  1  0
 72 67  2  0
 73 74  1  0
 74 75  1  0
 75 76  2  0
 77 76  1  0
 77 81  1  0
 78 77  2  0
 79 74  2  0
 79 78  1  0
 80 79  1  0
 82 83  1  0
 83 86  1  0
 83 85  1  0
 84 82  2  0
 87 88  1  0
 87 62  1  0
 89 87  1  0
M  ISO  4   4 101   5 101  50 100  61 100
M  END
>  <TORSDO>  (22) 
F 21

>  <SCORE>  (22) 
-13.426

>  <name>  (22) 
21

>  <ligand_id>  (22) 
21

>  <original_smiles>  (22) 
[H]c1c([H])c([H])c2c(c1[H])C([H])([H])C([H])([H])C([H])([H])C2([H])N([H])C(=O)C1([H])N(C(=O)C([H])(N([H])C(=O)C([H])(N([H])C([H])([H])[H])C([H])([H])[H])C(C([H])([H])[H])(C([H])([H])[H])C([H])([H])[H])C([H])([H])c2c([H])c(OC([H])([H])C([H])([H])C([H])([H])C([H])([H])C([H])([H])[N+]([H])([H])C3([H])C([H])([H])N(C(=O)N4C([H])([H])C([H])([H])C([H])([H])C([H])(n5nc(-c6c([H])c([H])c(Oc7c([H])c([H])c(F)c([H])c7F)c([H])c6[H])c(C(=O)N([H])[H])c5N([H])[H])C4([H])[H])C3([H])[H])c([H])c([H])c2C1([H])[H]

>  <smiles>  (22) 
[H]c1c([H])c([H])c2c(c1[H])C([H])([H])C([H])([H])C([H])([H])C2([H])N([H])C(=O)C1([H])N(C(=O)C([H])(N([H])C(=O)C([H])(N([H])C([H])([H])[H])C([H])([H])[H])C(C([H])([H])[H])(C([H])([H])[H])C([H])([H])[H])C([H])([H])c2c([H])c(OC([H])([H])C([H])([H])C([H])([H])C([H])([H])C([H])([H])[N+]([H])([H])C3([H])C([H])([H])N(C(=O)N4C([H])([H])C([H])([H])C([H])([H])C([H])(n5nc(-c6c([H])c([H])c(Oc7c([H])c([H])c(F)c([H])c7F)c([H])c6[H])c(C(=O)N([H])[H])c5N([H])[H])C4([H])[H])C3([H])[H])c([H])c([H])c2C1([H])[H]

$$$$
22:0:0
     RDKit          3D

 87 94  0  0  1  0  0  0  0  0999 V2000
  -29.2040  -23.8820   20.4310 C   0  0  0  0  0  3  0  0  0  0  0  0
  -27.1480  -24.7180   21.6460 C   0  0  0  0  0  1  0  0  0  0  0  0
  -28.0010  -24.9380   20.3760 C   0  0  0  0  0  3  0  0  0  0  0  0
  -28.2800  -26.4070   20.2520 O   0  0  0  0  0  0  0  0  0  0  0  0
  -24.5250  -31.8400   23.1870 C   0  0  0  0  0  0  0  0  0  0  0  0
  -27.1840  -27.2930   20.1450 C   0  0  0  0  0  0  0  0  0  0  0  0
  -23.3470  -30.4460   21.5250 C   0  0  0  0  0  3  0  0  0  0  0  0
  -24.8200  -28.9140   20.1050 C   0  0  0  0  0  0  0  0  0  0  0  0
  -25.8890  -30.7700   21.3790 C   0  0  0  0  0  2  0  0  0  0  0  0
  -25.9810  -29.3960   20.7230 C   0  0  0  0  0  0  0  0  0  0  0  0
  -27.1660  -28.5970   20.7350 C   0  0  0  0  0  3  0  0  0  0  0  0
  -26.0040  -26.8840   19.4780 C   0  0  0  0  0  3  0  0  0  0  0  0
  -24.8340  -27.6640   19.4730 C   0  0  0  0  0  3  0  0  0  0  0  0
  -23.5790  -29.7810   20.1450 C   0  0  0  0  0  2  0  0  0  0  0  0
  -24.6040  -31.0360   22.0870 N   0  0  0  0  0  0  0  0  0  0  0  0
  -23.4330  -32.1130   23.7080 O   0  0  0  0  0  0  0  0  0  0  0  0
  -22.6750  -29.4230   22.4730 C   0  0  0  0  0  0  0  0  0  0  0  0
  -21.3520  -29.2370   22.3240 N   0  0  0  0  0  0  0  0  0  0  0  0
  -23.3440  -28.8000   23.3010 O   0  0  0  0  0  0  0  0  0  0  0  0
  -20.8710  -29.7910   21.6300 H   0  0  0  0  0  0  0  0  0  0  0  0
  -17.9760  -28.0100   22.7610 C   0  0  0  0  0  0  0  0  0  0  0  0
  -20.5250  -28.2940   23.0810 C   0  0  0  0  0  3  0  0  0  0  0  0
  -20.6530  -26.8620   22.5120 C   0  0  0  0  0  2  0  0  0  0  0  0
  -19.5740  -26.5270   21.4780 C   0  0  0  0  0  2  0  0  0  0  0  0
  -18.1780  -26.6610   22.0920 C   0  0  0  0  0  2  0  0  0  0  0  0
  -19.0790  -28.7840   23.2110 C   0  0  0  0  0  0  0  0  0  0  0  0
  -18.8350  -30.0470   23.7930 C   0  0  0  0  0  3  0  0  0  0  0  0
  -17.5210  -30.5350   23.9320 C   0  0  0  0  0  3  0  0  0  0  0  0
  -16.4330  -29.7590   23.4970 C   0  0  0  0  0  3  0  0  0  0  0  0
  -16.6620  -28.4980   22.9160 C   0  0  0  0  0  3  0  0  0  0  0  0
  -25.7970  -32.4740   23.8280 C   0  0  0  0  0  3  0  0  0  0  0  0
  -25.4790  -33.8710   24.1550 N   0  0  0  0  0  0  0  0  0  0  0  0
  -25.8180  -34.9250   23.4020 C   0  0  0  0  0  0  0  0  0  0  0  0
  -26.4950  -34.8250   22.3750 O   0  0  0  0  0  0  0  0  0  0  0  0
  -24.8770  -34.0240   24.9510 H   0  0  0  0  0  0  0  0  0  0  0  0
  -24.0850  -36.7130   23.0390 C   0  0  0  0  0  1  0  0  0  0  0  0
  -25.3240  -36.3120   23.8570 C   0  0  0  0  0  3  0  0  0  0  0  0
  -27.4530  -37.2020   24.6950 C   0  0  0  0  0  1  0  0  0  0  0  0
  -26.3540  -37.3680   23.7490 N   0  0  0  0  0  0  0  0  0  0  0  0
  -25.9450  -38.2870   23.8950 H   0  0  0  0  0  0  0  0  0  0  0  0
  -26.2970  -31.7020   25.1110 C   0  0  1  0  0  0  0  0  0  0  0  0
  -25.1900  -31.4650   26.1650 C   0  0  0  0  0  1  0  0  0  0  0  0
  -26.8850  -30.3240   24.7270 C   0  0  0  0  0  1  0  0  0  0  0  0
  -27.4380  -32.4970   25.7870 C   0  0  0  0  0  1  0  0  0  0  0  0
  -28.8600  -22.3220   20.2070 C   0  0  0  0  0  3  0  0  0  0  0  0
  -29.8750  -21.1940   20.7050 C   0  0  0  0  0  2  0  0  0  0  0  0
  -29.8000  -19.7510   20.0820 C   0  0  0  0  0  3  0  0  0  0  0  0
  -30.0390  -18.5250   20.6650 C   0  0  0  0  0  3  0  0  0  0  0  0
  -30.1420  -17.1510   19.9050 C   0  0  0  0  0  2  0  0  0  0  0  0
  -30.6290  -14.6710   20.3750 C   0  0  0  0  0  0  0  0  0  0  0  0
  -30.3610  -12.4130   19.3780 C   0  0  0  0  0  2  0  0  0  0  0  0
  -29.4340  -12.5270   18.1490 C   0  0  0  0  0  2  0  0  0  0  0  0
  -27.9580  -12.3910   18.5700 C   0  0  0  0  0  2  0  0  0  0  0  0
  -27.6010  -13.2790   19.7930 C   0  0  0  0  0  3  0  0  0  0  0  0
  -28.6540  -13.1650   20.9190 C   0  0  0  0  0  2  0  0  0  0  0  0
  -29.9660  -13.4690   20.3350 N   0  0  0  0  0  0  0  0  0  0  0  0
  -31.8000  -14.7510   20.0000 O   0  0  0  0  0  0  0  0  0  0  0  0
  -29.8920  -15.8170   20.5800 N   0  0  0  0  0  0  0  0  0  0  0  0
  -28.9540  -15.6690   20.9190 H   0  0  0  0  0  0  0  0  0  0  0  0
  -25.2130  -13.8970   20.5050 C   0  0  0  0  0  0  0  0  0  0  0  0
  -24.1400  -13.1340   20.8760 C   0  0  0  0  0  0  0  0  0  0  0  0
  -24.5900  -11.7790   20.8530 C   0  0  0  0  0  0  0  0  0  0  0  0
  -26.2500  -13.0070   20.2770 N   0  0  0  0  0  0  0  0  0  0  0  0
  -25.8810  -11.7280   20.5500 N   0  0  0  0  0  0  0  0  0  0  0  0
  -23.8520  -10.5240   21.0470 C   0  0  0  0  0  0  0  0  0  0  0  0
  -24.2840   -9.5500   21.9730 C   0  0  0  0  0  3  0  0  0  0  0  0
  -23.5480   -8.3590   22.1560 C   0  0  0  0  0  3  0  0  0  0  0  0
  -22.3650   -8.1350   21.4120 C   0  0  0  0  0  0  0  0  0  0  0  0
  -21.9520   -9.0980   20.4750 C   0  0  0  0  0  3  0  0  0  0  0  0
  -22.6880  -10.2800   20.2900 C   0  0  0  0  0  3  0  0  0  0  0  0
  -21.5980   -6.9980   21.5050 O   0  0  0  0  0  0  0  0  0  0  0  0
  -21.5640   -6.2430   22.6500 C   0  0  0  0  0  0  0  0  0  0  0  0
  -21.1760   -6.7920   23.8910 C   0  0  0  0  0  3  0  0  0  0  0  0
  -21.0890   -5.9650   25.0300 C   0  0  0  0  0  3  0  0  0  0  0  0
  -21.3790   -4.5910   24.9270 C   0  0  0  0  0  0  0  0  0  0  0  0
  -21.7590   -4.0420   23.6900 C   0  0  0  0  0  3  0  0  0  0  0  0
  -21.8490   -4.8670   22.5550 C   0  0  0  0  0  0  0  0  0  0  0  0
  -22.1960   -4.3280   21.3610 F   0  0  0  0  0  0  0  0  0  0  0  0
  -21.2880   -3.7950   26.0180 F   0  0  0  0  0  0  0  0  0  0  0  0
  -22.7450  -13.6250   21.1390 C   0  0  0  0  0  0  0  0  0  0  0  0
  -22.0080  -12.9410   22.0080 N   0  0  0  0  0  0  0  0  0  0  0  0
  -22.3170  -14.6490   20.6100 O   0  0  0  0  0  0  0  0  0  0  0  0
  -22.3680  -12.1130   22.4590 H   0  0  0  0  0  0  0  0  0  0  0  0
  -21.0730  -13.2510   22.2260 H   0  0  0  0  0  0  0  0  0  0  0  0
  -25.3910  -15.2660   20.3190 N   0  0  0  0  0  0  0  0  0  0  0  0
  -24.6290  -15.9280   20.4220 H   0  0  0  0  0  0  0  0  0  0  0  0
  -26.2400  -15.6920   19.9660 H   0  0  0  0  0  0  0  0  0  0  0  0
  3  1  1  0
  3  2  1  0
  4  3  1  0
  5 16  2  0
  6  4  1  0
  6 11  1  0
  7 15  1  0
  7 17  1  0
  8 14  1  0
  8 10  1  0
  9 15  1  0
 10 11  2  0
 10  9  1  0
 12  6  2  0
 13 12  1  0
 13  8  2  0
 14  7  1  0
 15  5  1  0
 17 19  2  0
 18 17  1  0
 20 18  1  0
 21 30  2  0
 21 26  1  0
 22 18  1  0
 22 26  1  0
 23 22  1  0
 24 25  1  0
 24 23  1  0
 25 21  1  0
 26 27  2  0
 27 28  1  0
 29 28  2  0
 30 29  1  0
 31  5  1  0
 31 32  1  0
 31 41  1  0
 32 35  1  0
 33 37  1  0
 33 32  1  0
 34 33  2  0
 37 36  1  0
 39 37  1  0
 39 40  1  0
 39 38  1  0
 41 44  1  1
 41 42  1  0
 43 41  1  0
 45  1  2  0
 45 46  1  0
 47 48  2  0
 47 46  1  0
 49 58  1  0
 49 48  1  0
 50 58  1  0
 51 56  1  0
 52 53  1  0
 52 51  1  0
 54 53  1  0
 54 63  1  0
 54 55  1  0
 56 50  1  0
 56 55  1  0
 57 50  2  0
 58 59  1  0
 60 61  2  0
 61 80  1  0
 62 61  1  0
 62 65  1  0
 63 60  1  0
 63 64  1  0
 64 62  2  0
 65 66  1  0
 66 67  2  0
 68 71  1  0
 68 67  1  0
 69 68  2  0
 70 69  1  0
 70 65  2  0
 71 72  1  0
 72 73  1  0
 73 74  2  0
 75 74  1  0
 75 79  1  0
 76 75  2  0
 77 72  2  0
 77 76  1  0
 78 77  1  0
 80 81  1  0
 81 84  1  0
 81 83  1  0
 82 80  2  0
 85 86  1  0
 85 60  1  0
 87 85  1  0
M  ISO  4   3 101   4 101  50 100  58 100
M  END
>  <TORSDO>  (23) 
F 21

>  <SCORE>  (23) 
-13.232

>  <name>  (23) 
22

>  <ligand_id>  (23) 
22

>  <original_smiles>  (23) 
[H]C(=C([H])C([H])([H])C([H])([H])C([H])([H])C([H])(Oc1c([H])c([H])c2c(c1[H])C([H])([H])N(C(=O)C([H])(N([H])C(=O)C([H])(N([H])C([H])([H])[H])C([H])([H])[H])C(C([H])([H])[H])(C([H])([H])[H])C([H])([H])[H])C([H])(C(=O)N([H])C1([H])c3c([H])c([H])c([H])c([H])c3C([H])([H])C([H])([H])C1([H])[H])C2([H])[H])C([H])([H])[H])C([H])([H])N([H])C(=O)N1C([H])([H])C([H])([H])C([H])([H])C([H])(n2nc(-c3c([H])c([H])c(Oc4c([H])c([H])c(F)c([H])c4F)c([H])c3[H])c(C(=O)N([H])[H])c2N([H])[H])C1([H])[H]

>  <smiles>  (23) 
[H]C(=C([H])C([H])([H])C([H])([H])C([H])([H])C([H])(Oc1c([H])c([H])c2c(c1[H])C([H])([H])N(C(=O)C([H])(N([H])C(=O)C([H])(N([H])C([H])([H])[H])C([H])([H])[H])C(C([H])([H])[H])(C([H])([H])[H])C([H])([H])[H])C([H])(C(=O)N([H])C1([H])c3c([H])c([H])c([H])c([H])c3C([H])([H])C([H])([H])C1([H])[H])C2([H])[H])C([H])([H])[H])C([H])([H])N([H])C(=O)N1C([H])([H])C([H])([H])C([H])([H])C([H])(n2nc(-c3c([H])c([H])c(Oc4c([H])c([H])c(F)c([H])c4F)c([H])c3[H])c(C(=O)N([H])[H])c2N([H])[H])C1([H])[H]

$$$$
23:0:0
     RDKit          3D

 93101  0  0  1  0  0  0  0  0999 V2000
  -29.8310  -20.0820   21.5700 C   0  0  0  0  0  0  0  0  0  0  0  0
  -30.5830  -20.1640   22.5430 O   0  0  0  0  0  0  0  0  0  0  0  0
  -27.9370  -18.8440   20.4080 C   0  0  0  0  0  1  0  0  0  0  0  0
  -29.3020  -18.7050   21.1180 C   0  0  0  0  0  3  0  0  0  0  0  0
  -31.9780  -14.5330   20.3170 C   0  0  0  0  0  0  0  0  0  0  0  0
  -31.8280  -12.1120   19.9230 C   0  0  0  0  0  2  0  0  0  0  0  0
  -30.9740  -11.8840   18.6560 C   0  0  0  0  0  2  0  0  0  0  0  0
  -29.4680  -11.8510   18.9960 C   0  0  0  0  0  2  0  0  0  0  0  0
  -29.0240  -13.0320   19.8970 C   0  0  0  0  0  3  0  0  0  0  0  0
  -29.9940  -13.1830   21.0940 C   0  0  0  0  0  2  0  0  0  0  0  0
  -31.3510  -13.3500   20.5550 N   0  0  0  0  0  0  0  0  0  0  0  0
  -33.1770  -14.5960   20.0190 O   0  0  0  0  0  0  0  0  0  0  0  0
  -30.4250  -18.1330   18.8480 C   0  0  0  0  0  2  0  0  0  0  0  0
  -31.1270  -15.7730   18.4000 C   0  0  0  0  0  2  0  0  0  0  0  0
  -30.2430  -16.3260   20.6600 C   0  0  0  0  0  2  0  0  0  0  0  0
  -31.4390  -17.2440   18.1180 C   0  0  0  0  0  3  0  0  0  0  0  0
  -30.3730  -17.8500   20.3660 C   0  0  0  0  0  3  0  0  0  0  0  0
  -31.4390  -17.5290   16.6110 C   0  0  0  0  0  1  0  0  0  0  0  0
  -31.1400  -15.4880   19.8420 N   0  0  0  0  0  0  0  0  0  0  0  0
  -26.6790  -13.8810   20.5390 C   0  0  0  0  0  0  0  0  0  0  0  0
  -25.5290  -13.2160   20.8660 C   0  0  0  0  0  0  0  0  0  0  0  0
  -25.8530  -11.8250   20.8230 C   0  0  0  0  0  0  0  0  0  0  0  0
  -27.6370  -12.8990   20.3300 N   0  0  0  0  0  0  0  0  0  0  0  0
  -27.1400  -11.6580   20.5540 N   0  0  0  0  0  0  0  0  0  0  0  0
  -25.0020  -10.6390   20.9660 C   0  0  0  0  0  0  0  0  0  0  0  0
  -25.2600   -9.6600   21.9490 C   0  0  0  0  0  3  0  0  0  0  0  0
  -24.4190   -8.5340   22.0780 C   0  0  0  0  0  3  0  0  0  0  0  0
  -23.3040   -8.3800   21.2230 C   0  0  0  0  0  0  0  0  0  0  0  0
  -23.0640   -9.3460   20.2280 C   0  0  0  0  0  3  0  0  0  0  0  0
  -23.9060  -10.4620   20.0970 C   0  0  0  0  0  3  0  0  0  0  0  0
  -22.4470   -7.3060   21.2540 O   0  0  0  0  0  0  0  0  0  0  0  0
  -22.0610   -6.7300   22.4390 C   0  0  0  0  0  0  0  0  0  0  0  0
  -21.4520   -7.4780   23.4690 C   0  0  0  0  0  3  0  0  0  0  0  0
  -21.0090   -6.8330   24.6400 C   0  0  0  0  0  3  0  0  0  0  0  0
  -21.1660   -5.4410   24.7810 C   0  0  0  0  0  0  0  0  0  0  0  0
  -21.7690   -4.6930   23.7530 C   0  0  0  0  0  3  0  0  0  0  0  0
  -22.2130   -5.3360   22.5850 C   0  0  0  0  0  0  0  0  0  0  0  0
  -22.7710   -4.6070   21.5890 F   0  0  0  0  0  0  0  0  0  0  0  0
  -20.7350   -4.8200   25.9030 F   0  0  0  0  0  0  0  0  0  0  0  0
  -24.1770  -13.8240   21.1080 C   0  0  0  0  0  0  0  0  0  0  0  0
  -23.3710  -13.2030   21.9610 N   0  0  0  0  0  0  0  0  0  0  0  0
  -23.8470  -14.8860   20.5780 O   0  0  0  0  0  0  0  0  0  0  0  0
  -23.6500  -12.3440   22.4100 H   0  0  0  0  0  0  0  0  0  0  0  0
  -22.4590  -13.5890   22.1590 H   0  0  0  0  0  0  0  0  0  0  0  0
  -26.9810  -15.2310   20.3770 N   0  0  0  0  0  0  0  0  0  0  0  0
  -26.2780  -15.9570   20.4590 H   0  0  0  0  0  0  0  0  0  0  0  0
  -27.8760  -15.5770   20.0590 H   0  0  0  0  0  0  0  0  0  0  0  0
  -29.4250  -21.3410   20.7810 C   0  0  0  0  0  2  0  0  0  0  0  0
  -30.3350  -22.5580   21.0800 C   0  0  0  0  0  2  0  0  0  0  0  0
  -29.9580  -23.8220   20.2330 C   0  0  0  0  0  2  0  0  0  0  0  0
  -29.7090  -25.2820   20.7420 C   0  0  0  0  0  2  0  0  0  0  0  0
  -30.3560  -26.3840   19.8560 C   0  0  0  0  0  2  0  0  0  0  0  0
  -29.9650  -27.7030   20.2420 O   0  0  0  0  0  0  0  0  0  0  0  0
  -24.8060  -31.3910   23.3960 C   0  0  0  0  0  0  0  0  0  0  0  0
  -28.6380  -28.0670   20.1790 C   0  0  0  0  0  0  0  0  0  0  0  0
  -24.0800  -29.9190   21.5440 C   0  0  0  0  0  3  0  0  0  0  0  0
  -25.9490  -28.9240   20.1240 C   0  0  0  0  0  0  0  0  0  0  0  0
  -26.4440  -30.8950   21.5860 C   0  0  0  0  0  2  0  0  0  0  0  0
  -26.8990  -29.6570   20.8420 C   0  0  0  0  0  0  0  0  0  0  0  0
  -28.2450  -29.2380   20.8640 C   0  0  0  0  0  3  0  0  0  0  0  0
  -27.6680  -27.3400   19.4520 C   0  0  0  0  0  3  0  0  0  0  0  0
  -26.3270  -27.7650   19.4230 C   0  0  0  0  0  3  0  0  0  0  0  0
  -24.5310  -29.4440   20.1360 C   0  0  0  0  0  2  0  0  0  0  0  0
  -25.1210  -30.7470   22.2360 N   0  0  0  0  0  0  0  0  0  0  0  0
  -23.6600  -31.3400   23.8670 O   0  0  0  0  0  0  0  0  0  0  0  0
  -23.6410  -28.6800   22.3580 C   0  0  0  0  0  0  0  0  0  0  0  0
  -22.4590  -28.1340   22.0280 N   0  0  0  0  0  0  0  0  0  0  0  0
  -24.3640  -28.2140   23.2400 O   0  0  0  0  0  0  0  0  0  0  0  0
  -21.9200  -28.5800   21.3000 H   0  0  0  0  0  0  0  0  0  0  0  0
  -19.6040  -25.9250   21.9100 C   0  0  0  0  0  0  0  0  0  0  0  0
  -21.8670  -26.9410   22.6370 C   0  0  0  0  0  3  0  0  0  0  0  0
  -22.5030  -25.6450   22.0830 C   0  0  0  0  0  2  0  0  0  0  0  0
  -21.7500  -25.0760   20.8750 C   0  0  0  0  0  2  0  0  0  0  0  0
  -20.3020  -24.7490   21.2470 C   0  0  0  0  0  2  0  0  0  0  0  0
  -20.3380  -26.9610   22.5460 C   0  0  0  0  0  0  0  0  0  0  0  0
  -19.6380  -28.0510   23.1070 C   0  0  0  0  0  3  0  0  0  0  0  0
  -18.2340  -28.1190   23.0360 C   0  0  0  0  0  3  0  0  0  0  0  0
  -17.5130  -27.0850   22.4180 C   0  0  0  0  0  3  0  0  0  0  0  0
  -18.1960  -25.9870   21.8640 C   0  0  0  0  0  3  0  0  0  0  0  0
  -25.8580  -32.2420   24.1720 C   0  0  0  0  0  3  0  0  0  0  0  0
  -26.2240  -31.6400   25.5830 C   0  0  1  0  0  0  0  0  0  0  0  0
  -24.9910  -31.3160   26.4590 C   0  0  0  0  0  1  0  0  0  0  0  0
  -27.0470  -30.3420   25.4250 C   0  0  0  0  0  1  0  0  0  0  0  0
  -27.1190  -32.6360   26.3550 C   0  0  0  0  0  1  0  0  0  0  0  0
  -25.3140  -33.5990   24.3090 N   0  0  0  0  0  0  0  0  0  0  0  0
  -25.6460  -34.6350   23.5270 C   0  0  0  0  0  0  0  0  0  0  0  0
  -26.5080  -34.5570   22.6470 O   0  0  0  0  0  0  0  0  0  0  0  0
  -24.5590  -33.7170   24.9690 H   0  0  0  0  0  0  0  0  0  0  0  0
  -23.8000  -36.1270   22.7030 C   0  0  0  0  0  1  0  0  0  0  0  0
  -24.9070  -35.9680   23.7570 C   0  0  0  0  0  3  0  0  0  0  0  0
  -26.7190  -37.2050   24.8580 C   0  0  0  0  0  1  0  0  0  0  0  0
  -25.8000  -37.1470   23.7250 N   0  0  0  0  0  0  0  0  0  0  0  0
  -25.2610  -38.0090   23.7070 H   0  0  0  0  0  0  0  0  0  0  0  0
  1  2  2  0
  4  3  1  0
  4  1  1  0
  5 11  1  0
  6 11  1  0
  7  8  1  0
  7  6  1  0
  9  8  1  0
  9 23  1  0
  9 10  1  0
 11 10  1  0
 12  5  2  0
 13 17  1  0
 14 19  1  0
 16 18  1  0
 16 14  1  0
 16 13  1  0
 17 15  1  0
 17  4  1  0
 19  5  1  0
 19 15  1  0
 20 21  2  0
 21 40  1  0
 22 21  1  0
 22 25  1  0
 23 20  1  0
 23 24  1  0
 24 22  2  0
 25 26  1  0
 26 27  2  0
 28 31  1  0
 28 27  1  0
 29 28  2  0
 30 29  1  0
 30 25  2  0
 31 32  1  0
 32 37  2  0
 32 33  1  0
 33 34  2  0
 34 35  1  0
 35 39  1  0
 36 35  2  0
 37 36  1  0
 38 37  1  0
 40 41  1  0
 41 44  1  0
 41 43  1  0
 42 40  2  0
 45 46  1  0
 45 20  1  0
 47 45  1  0
 48 49  1  0
 48  1  1  0
 50 51  1  0
 50 49  1  0
 52 53  1  0
 52 51  1  0
 54 65  2  0
 55 53  1  0
 55 60  1  0
 56 64  1  0
 56 66  1  0
 57 63  1  0
 57 59  1  0
 58 64  1  0
 59 60  2  0
 59 58  1  0
 61 55  2  0
 62 61  1  0
 62 57  2  0
 63 56  1  0
 64 54  1  0
 66 68  2  0
 67 66  1  0
 69 67  1  0
 70 75  1  0
 71 67  1  0
 72 71  1  0
 73 74  1  0
 73 72  1  0
 74 70  1  0
 75 71  1  0
 75 76  2  0
 77 76  1  0
 78 77  2  0
 79 70  2  0
 79 78  1  0
 80 54  1  0
 80 85  1  0
 80 81  1  0
 81 84  1  1
 81 82  1  0
 83 81  1  0
 85 88  1  0
 86 90  1  0
 86 85  1  0
 87 86  2  0
 90 89  1  0
 92 90  1  0
 92 91  1  0
 93 92  1  0
M  ISO  4   5 100  19 100  52 101  53 101
M  END
>  <TORSDO>  (24) 
F 22

>  <SCORE>  (24) 
-8.959

>  <name>  (24) 
23

>  <ligand_id>  (24) 
23

>  <original_smiles>  (24) 
[H]c1c([H])c([H])c2c(c1[H])C([H])([H])C([H])([H])C([H])([H])C2([H])N([H])C(=O)C1([H])N(C(=O)C([H])(N([H])C(=O)C([H])(N([H])C([H])([H])[H])C([H])([H])[H])C(C([H])([H])[H])(C([H])([H])[H])C([H])([H])[H])C([H])([H])c2c([H])c(OC([H])([H])C([H])([H])C([H])([H])C([H])([H])C([H])([H])C(=O)C([H])(C([H])([H])[H])C3([H])C([H])([H])N(C(=O)N4C([H])([H])C([H])([H])C([H])([H])C([H])(n5nc(-c6c([H])c([H])c(Oc7c([H])c([H])c(F)c([H])c7F)c([H])c6[H])c(C(=O)N([H])[H])c5N([H])[H])C4([H])[H])C([H])([H])C([H])(C([H])([H])[H])C3([H])[H])c([H])c([H])c2C1([H])[H]

>  <smiles>  (24) 
[H]c1c([H])c([H])c2c(c1[H])C([H])([H])C([H])([H])C([H])([H])C2([H])N([H])C(=O)C1([H])N(C(=O)C([H])(N([H])C(=O)C([H])(N([H])C([H])([H])[H])C([H])([H])[H])C(C([H])([H])[H])(C([H])([H])[H])C([H])([H])[H])C([H])([H])c2c([H])c(OC([H])([H])C([H])([H])C([H])([H])C([H])([H])C([H])([H])C(=O)C([H])(C([H])([H])[H])C3([H])C([H])([H])N(C(=O)N4C([H])([H])C([H])([H])C([H])([H])C([H])(n5nc(-c6c([H])c([H])c(Oc7c([H])c([H])c(F)c([H])c7F)c([H])c6[H])c(C(=O)N([H])[H])c5N([H])[H])C4([H])[H])C([H])([H])C([H])(C([H])([H])[H])C3([H])[H])c([H])c([H])c2C1([H])[H]

$$$$
24:0:0
     RDKit          3D

 92100  0  0  1  0  0  0  0  0999 V2000
  -30.7880  -21.4550   20.2210 C   0  0  0  0  0  0  0  0  0  0  0  0
  -31.4340  -22.1490   21.0090 O   0  0  0  0  0  0  0  0  0  0  0  0
  -31.2880  -20.0530   19.8170 C   0  0  0  0  0  2  0  0  0  0  0  0
  -30.7800  -14.5060   20.0590 C   0  0  0  0  0  0  0  0  0  0  0  0
  -30.4440  -12.3500   18.8780 C   0  0  0  0  0  2  0  0  0  0  0  0
  -29.4490  -12.5280   17.7140 C   0  0  0  0  0  2  0  0  0  0  0  0
  -27.9980  -12.3420   18.2020 C   0  0  0  0  0  2  0  0  0  0  0  0
  -27.6980  -13.1670   19.4780 C   0  0  0  0  0  3  0  0  0  0  0  0
  -28.8080  -12.9420   20.5370 C   0  0  0  0  0  2  0  0  0  0  0  0
  -30.0880  -13.3280   19.9280 N   0  0  0  0  0  0  0  0  0  0  0  0
  -31.8800  -14.6380   19.5120 O   0  0  0  0  0  0  0  0  0  0  0  0
  -31.6700  -17.6500   20.6130 C   0  0  0  0  0  2  0  0  0  0  0  0
  -29.3000  -18.5160   20.2400 C   0  0  0  0  0  2  0  0  0  0  0  0
  -31.2450  -16.4430   21.4940 C   0  0  0  0  0  2  0  0  0  0  0  0
  -28.8940  -16.0350   20.7450 C   0  0  0  0  0  2  0  0  0  0  0  0
  -30.7310  -18.8780   20.6670 C   0  0  0  0  0  3  0  0  0  0  0  0
  -28.6040  -17.5010   21.1600 C   0  0  0  0  0  3  0  0  0  0  0  0
  -27.0910  -17.7740   21.1510 C   0  0  0  0  0  1  0  0  0  0  0  0
  -30.2860  -15.5240   20.8410 N   0  0  0  0  0  0  0  0  0  0  0  0
  -25.3190  -13.7770   20.2410 C   0  0  0  0  0  0  0  0  0  0  0  0
  -24.2730  -13.0070   20.6650 C   0  0  0  0  0  0  0  0  0  0  0  0
  -24.7500  -11.6610   20.6480 C   0  0  0  0  0  0  0  0  0  0  0  0
  -26.3680  -12.8990   20.0060 N   0  0  0  0  0  0  0  0  0  0  0  0
  -26.0300  -11.6230   20.3060 N   0  0  0  0  0  0  0  0  0  0  0  0
  -24.0460  -10.3970   20.8830 C   0  0  0  0  0  0  0  0  0  0  0  0
  -24.5040   -9.4710   21.8460 C   0  0  0  0  0  3  0  0  0  0  0  0
  -23.8020   -8.2680   22.0670 C   0  0  0  0  0  3  0  0  0  0  0  0
  -22.6310   -7.9820   21.3270 C   0  0  0  0  0  0  0  0  0  0  0  0
  -22.1930   -8.8990   20.3530 C   0  0  0  0  0  3  0  0  0  0  0  0
  -22.8950  -10.0940   20.1290 C   0  0  0  0  0  3  0  0  0  0  0  0
  -21.9000   -6.8270   21.4560 O   0  0  0  0  0  0  0  0  0  0  0  0
  -21.8190   -6.1580   22.6500 C   0  0  0  0  0  0  0  0  0  0  0  0
  -21.3090   -6.7700   23.8160 C   0  0  0  0  0  3  0  0  0  0  0  0
  -21.1800   -6.0240   25.0040 C   0  0  0  0  0  3  0  0  0  0  0  0
  -21.5510   -4.6650   25.0270 C   0  0  0  0  0  0  0  0  0  0  0  0
  -22.0550   -4.0530   23.8670 C   0  0  0  0  0  3  0  0  0  0  0  0
  -22.1860   -4.7970   22.6810 C   0  0  0  0  0  0  0  0  0  0  0  0
  -22.6510   -4.1980   21.5590 F   0  0  0  0  0  0  0  0  0  0  0  0
  -21.4210   -3.9460   26.1650 F   0  0  0  0  0  0  0  0  0  0  0  0
  -22.8800  -13.4760   20.9720 C   0  0  0  0  0  0  0  0  0  0  0  0
  -22.2020  -12.8110   21.9010 N   0  0  0  0  0  0  0  0  0  0  0  0
  -22.4020  -14.4690   20.4240 O   0  0  0  0  0  0  0  0  0  0  0  0
  -22.5970  -12.0090   22.3680 H   0  0  0  0  0  0  0  0  0  0  0  0
  -21.2690  -13.1100   22.1510 H   0  0  0  0  0  0  0  0  0  0  0  0
  -25.4550  -15.1400   20.0140 N   0  0  0  0  0  0  0  0  0  0  0  0
  -24.6890  -15.7890   20.1540 H   0  0  0  0  0  0  0  0  0  0  0  0
  -26.2960  -15.5850   19.6740 H   0  0  0  0  0  0  0  0  0  0  0  0
  -29.4730  -21.9650   19.6130 C   0  0  0  0  0  2  0  0  0  0  0  0
  -29.5120  -23.4040   19.0430 C   0  0  0  0  0  2  0  0  0  0  0  0
  -28.9650  -24.4970   19.9870 C   0  0  0  0  0  2  0  0  0  0  0  0
  -28.8920  -25.8780   19.3070 C   0  0  0  0  0  2  0  0  0  0  0  0
  -28.5130  -26.8910   20.2370 O   0  0  0  0  0  0  0  0  0  0  0  0
  -24.3540  -31.7460   23.2780 C   0  0  0  0  0  0  0  0  0  0  0  0
  -27.2750  -27.5000   20.1800 C   0  0  0  0  0  0  0  0  0  0  0  0
  -23.2580  -30.3570   21.5440 C   0  0  0  0  0  3  0  0  0  0  0  0
  -24.8150  -28.9010   20.1400 C   0  0  0  0  0  0  0  0  0  0  0  0
  -25.7690  -30.8080   21.4500 C   0  0  0  0  0  2  0  0  0  0  0  0
  -25.9250  -29.4550   20.7870 C   0  0  0  0  0  0  0  0  0  0  0  0
  -27.1500  -28.7570   20.8120 C   0  0  0  0  0  3  0  0  0  0  0  0
  -26.1410  -26.9420   19.5440 C   0  0  0  0  0  3  0  0  0  0  0  0
  -24.9160  -27.6420   19.5200 C   0  0  0  0  0  3  0  0  0  0  0  0
  -23.5410  -29.7170   20.1560 C   0  0  0  0  0  2  0  0  0  0  0  0
  -24.4770  -30.9840   22.1530 N   0  0  0  0  0  0  0  0  0  0  0  0
  -23.2430  -31.9660   23.7820 O   0  0  0  0  0  0  0  0  0  0  0  0
  -22.6020  -29.2910   22.4500 C   0  0  0  0  0  0  0  0  0  0  0  0
  -21.2870  -29.0840   22.2730 N   0  0  0  0  0  0  0  0  0  0  0  0
  -23.2740  -28.6510   23.2650 O   0  0  0  0  0  0  0  0  0  0  0  0
  -20.8040  -29.6570   21.5950 H   0  0  0  0  0  0  0  0  0  0  0  0
  -17.9250  -27.8130   22.6320 C   0  0  0  0  0  0  0  0  0  0  0  0
  -20.4690  -28.1000   22.9840 C   0  0  0  0  0  3  0  0  0  0  0  0
  -20.6110  -26.6960   22.3510 C   0  0  0  0  0  2  0  0  0  0  0  0
  -19.5420  -26.3980   21.2950 C   0  0  0  0  0  2  0  0  0  0  0  0
  -18.1410  -26.4960   21.9070 C   0  0  0  0  0  2  0  0  0  0  0  0
  -19.0180  -28.5750   23.1240 C   0  0  0  0  0  0  0  0  0  0  0  0
  -18.7630  -29.8090   23.7570 C   0  0  0  0  0  3  0  0  0  0  0  0
  -17.4450  -30.2840   23.9030 C   0  0  0  0  0  3  0  0  0  0  0  0
  -16.3660  -29.5210   23.4260 C   0  0  0  0  0  3  0  0  0  0  0  0
  -16.6060  -28.2860   22.7990 C   0  0  0  0  0  3  0  0  0  0  0  0
  -25.5950  -32.3940   23.9680 C   0  0  0  0  0  3  0  0  0  0  0  0
  -25.2490  -33.7860   24.2850 N   0  0  0  0  0  0  0  0  0  0  0  0
  -25.5980  -34.8450   23.5430 C   0  0  0  0  0  0  0  0  0  0  0  0
  -26.3140  -34.7550   22.5420 O   0  0  0  0  0  0  0  0  0  0  0  0
  -24.6230  -33.9280   25.0640 H   0  0  0  0  0  0  0  0  0  0  0  0
  -23.8580  -36.6050   23.1050 C   0  0  0  0  0  1  0  0  0  0  0  0
  -25.0650  -36.2230   23.9780 C   0  0  0  0  0  3  0  0  0  0  0  0
  -27.1330  -37.1470   24.9240 C   0  0  0  0  0  1  0  0  0  0  0  0
  -26.0820  -37.2950   23.9200 N   0  0  0  0  0  0  0  0  0  0  0  0
  -25.6520  -38.2060   24.0430 H   0  0  0  0  0  0  0  0  0  0  0  0
  -26.0590  -31.6260   25.2650 C   0  0  1  0  0  0  0  0  0  0  0  0
  -24.9180  -31.3580   26.2730 C   0  0  0  0  0  1  0  0  0  0  0  0
  -26.6900  -30.2660   24.8850 C   0  0  0  0  0  1  0  0  0  0  0  0
  -27.1580  -32.4360   25.9920 C   0  0  0  0  0  1  0  0  0  0  0  0
  1  2  2  0
  3  1  1  0
  4 19  1  0
  5 10  1  0
  6  7  1  0
  6  5  1  0
  8  7  1  0
  8 23  1  0
  8  9  1  0
 10  4  1  0
 10  9  1  0
 11  4  2  0
 12 16  1  0
 12 14  1  0
 13 16  1  0
 13 17  1  0
 15 19  1  0
 15 17  1  0
 16  3  1  0
 17 18  1  0
 19 14  1  0
 20 21  2  0
 21 40  1  0
 22 21  1  0
 22 25  1  0
 23 20  1  0
 23 24  1  0
 24 22  2  0
 25 26  1  0
 26 27  2  0
 28 31  1  0
 28 27  1  0
 29 28  2  0
 30 29  1  0
 30 25  2  0
 31 32  1  0
 32 37  2  0
 32 33  1  0
 33 34  2  0
 34 35  1  0
 35 39  1  0
 36 35  2  0
 37 36  1  0
 38 37  1  0
 40 41  1  0
 41 44  1  0
 41 43  1  0
 42 40  2  0
 45 46  1  0
 45 20  1  0
 47 45  1  0
 48  1  1  0
 49 48  1  0
 49 50  1  0
 51 50  1  0
 51 52  1  0
 53 64  2  0
 54 52  1  0
 54 59  1  0
 55 63  1  0
 55 65  1  0
 56 62  1  0
 56 58  1  0
 57 63  1  0
 58 59  2  0
 58 57  1  0
 60 54  2  0
 61 60  1  0
 61 56  2  0
 62 55  1  0
 63 53  1  0
 65 67  2  0
 66 65  1  0
 68 66  1  0
 69 78  2  0
 69 74  1  0
 70 66  1  0
 70 74  1  0
 71 70  1  0
 72 73  1  0
 72 71  1  0
 73 69  1  0
 74 75  2  0
 75 76  1  0
 77 76  2  0
 78 77  1  0
 79 53  1  0
 79 80  1  0
 79 89  1  0
 80 83  1  0
 81 85  1  0
 81 80  1  0
 82 81  2  0
 85 84  1  0
 87 85  1  0
 87 88  1  0
 87 86  1  0
 89 92  1  1
 89 90  1  0
 91 89  1  0
M  ISO  4   4 100  19 100  51 101  52 101
M  END
>  <TORSDO>  (25) 
F 21

>  <SCORE>  (25) 
-11.190

>  <name>  (25) 
24

>  <ligand_id>  (25) 
24

>  <original_smiles>  (25) 
[H]c1c([H])c([H])c2c(c1[H])C([H])([H])C([H])([H])C([H])([H])C2([H])N([H])C(=O)C1([H])N(C(=O)C([H])(N([H])C(=O)C([H])(N([H])C([H])([H])[H])C([H])([H])[H])C(C([H])([H])[H])(C([H])([H])[H])C([H])([H])[H])C([H])([H])c2c([H])c(OC([H])([H])C([H])([H])C([H])([H])C([H])([H])C(=O)C([H])([H])C3([H])C([H])([H])C([H])([H])N(C(=O)N4C([H])([H])C([H])([H])C([H])([H])C([H])(n5nc(-c6c([H])c([H])c(Oc7c([H])c([H])c(F)c([H])c7F)c([H])c6[H])c(C(=O)N([H])[H])c5N([H])[H])C4([H])[H])C([H])([H])C([H])(C([H])([H])[H])C3([H])[H])c([H])c([H])c2C1([H])[H]

>  <smiles>  (25) 
[H]c1c([H])c([H])c2c(c1[H])C([H])([H])C([H])([H])C([H])([H])C2([H])N([H])C(=O)C1([H])N(C(=O)C([H])(N([H])C(=O)C([H])(N([H])C([H])([H])[H])C([H])([H])[H])C(C([H])([H])[H])(C([H])([H])[H])C([H])([H])[H])C([H])([H])c2c([H])c(OC([H])([H])C([H])([H])C([H])([H])C([H])([H])C(=O)C([H])([H])C3([H])C([H])([H])C([H])([H])N(C(=O)N4C([H])([H])C([H])([H])C([H])([H])C([H])(n5nc(-c6c([H])c([H])c(Oc7c([H])c([H])c(F)c([H])c7F)c([H])c6[H])c(C(=O)N([H])[H])c5N([H])[H])C4([H])[H])C([H])([H])C([H])(C([H])([H])[H])C3([H])[H])c([H])c([H])c2C1([H])[H]

$$$$
25:0:0
     RDKit          3D

 93101  0  0  1  0  0  0  0  0999 V2000
  -29.0550  -20.5540   22.0270 C   0  0  0  0  0  3  0  0  0  0  0  0
  -29.3540  -20.9320   19.6420 C   0  0  0  0  0  3  0  0  0  0  0  0
  -28.6770  -21.9030   22.1930 C   0  0  0  0  0  3  0  0  0  0  0  0
  -28.9740  -22.2790   19.8070 C   0  0  0  0  0  3  0  0  0  0  0  0
  -29.4140  -20.0540   20.7500 C   0  0  0  0  0  0  0  0  0  0  0  0
  -28.6440  -22.7730   21.0850 C   0  0  0  0  0  0  0  0  0  0  0  0
  -29.8400  -18.6330   20.5380 C   0  0  0  0  0  0  0  0  0  0  0  0
  -29.8940  -18.1140   19.4180 O   0  0  0  0  0  0  0  0  0  0  0  0
  -30.2460  -17.8120   21.7760 C   0  0  0  0  0  2  0  0  0  0  0  0
  -31.2060  -16.6240   21.5180 C   0  0  0  0  0  2  0  0  0  0  0  0
  -30.9910  -14.5360   20.1570 C   0  0  0  0  0  0  0  0  0  0  0  0
  -30.5770  -12.4300   18.9360 C   0  0  0  0  0  2  0  0  0  0  0  0
  -29.6060  -12.6590   17.7620 C   0  0  0  0  0  2  0  0  0  0  0  0
  -28.1460  -12.5380   18.2360 C   0  0  0  0  0  2  0  0  0  0  0  0
  -27.8590  -13.3800   19.5080 C   0  0  0  0  0  3  0  0  0  0  0  0
  -28.9360  -13.1340   20.5880 C   0  0  0  0  0  2  0  0  0  0  0  0
  -30.2590  -13.4040   19.9910 N   0  0  0  0  0  0  0  0  0  0  0  0
  -32.0150  -14.7760   19.5110 O   0  0  0  0  0  0  0  0  0  0  0  0
  -30.5390  -15.3870   21.0900 N   0  0  0  0  0  0  0  0  0  0  0  0
  -29.7030  -15.1070   21.5830 H   0  0  0  0  0  0  0  0  0  0  0  0
  -25.4910  -14.0230   20.2890 C   0  0  0  0  0  0  0  0  0  0  0  0
  -24.4230  -13.2650   20.6900 C   0  0  0  0  0  0  0  0  0  0  0  0
  -24.8630  -11.9060   20.6420 C   0  0  0  0  0  0  0  0  0  0  0  0
  -26.5160  -13.1260   20.0230 N   0  0  0  0  0  0  0  0  0  0  0  0
  -26.1420  -11.8490   20.2910 N   0  0  0  0  0  0  0  0  0  0  0  0
  -24.1260  -10.6540   20.8540 C   0  0  0  0  0  0  0  0  0  0  0  0
  -24.5310   -9.7140   21.8270 C   0  0  0  0  0  3  0  0  0  0  0  0
  -23.7960   -8.5250   22.0250 C   0  0  0  0  0  3  0  0  0  0  0  0
  -22.6420   -8.2680   21.2490 C   0  0  0  0  0  0  0  0  0  0  0  0
  -22.2550   -9.1960   20.2660 C   0  0  0  0  0  3  0  0  0  0  0  0
  -22.9900  -10.3760   20.0670 C   0  0  0  0  0  3  0  0  0  0  0  0
  -21.8810   -7.1280   21.3520 O   0  0  0  0  0  0  0  0  0  0  0  0
  -21.7440   -6.4580   22.5420 C   0  0  0  0  0  0  0  0  0  0  0  0
  -21.2140   -7.0840   23.6920 C   0  0  0  0  0  3  0  0  0  0  0  0
  -21.0260   -6.3410   24.8740 C   0  0  0  0  0  3  0  0  0  0  0  0
  -21.3580   -4.9730   24.9070 C   0  0  0  0  0  0  0  0  0  0  0  0
  -21.8820   -4.3480   23.7620 C   0  0  0  0  0  3  0  0  0  0  0  0
  -22.0720   -5.0880   22.5820 C   0  0  0  0  0  0  0  0  0  0  0  0
  -22.5550   -4.4750   21.4750 F   0  0  0  0  0  0  0  0  0  0  0  0
  -21.1710   -4.2570   26.0410 F   0  0  0  0  0  0  0  0  0  0  0  0
  -23.0430  -13.7610   21.0090 C   0  0  0  0  0  0  0  0  0  0  0  0
  -22.3370  -13.0770   21.9020 N   0  0  0  0  0  0  0  0  0  0  0  0
  -22.5990  -14.7900   20.5000 O   0  0  0  0  0  0  0  0  0  0  0  0
  -22.7070  -12.2410   22.3310 H   0  0  0  0  0  0  0  0  0  0  0  0
  -21.4120  -13.3920   22.1610 H   0  0  0  0  0  0  0  0  0  0  0  0
  -25.6750  -15.3900   20.1070 N   0  0  0  0  0  0  0  0  0  0  0  0
  -24.9310  -16.0660   20.2440 H   0  0  0  0  0  0  0  0  0  0  0  0
  -26.5260  -15.8070   19.7510 H   0  0  0  0  0  0  0  0  0  0  0  0
  -28.2740  -24.2380   21.2600 C   0  0  0  0  0  2  0  0  0  0  0  0
  -29.5220  -25.1440   21.2820 C   0  0  0  0  0  2  0  0  0  0  0  0
  -30.5100  -27.4850   21.2350 C   0  0  0  0  0  1  0  0  0  0  0  0
  -29.2210  -26.6510   21.1980 C   0  0  0  0  0  3  0  0  0  0  0  0
  -28.5670  -26.8820   19.9540 O   0  0  0  0  0  0  0  0  0  0  0  0
  -24.5240  -31.8130   23.1520 C   0  0  0  0  0  0  0  0  0  0  0  0
  -27.3870  -27.5800   20.0130 C   0  0  0  0  0  0  0  0  0  0  0  0
  -23.3890  -30.3860   21.4760 C   0  0  0  0  0  3  0  0  0  0  0  0
  -24.9180  -28.9430   20.0360 C   0  0  0  0  0  0  0  0  0  0  0  0
  -25.8900  -30.8750   21.2970 C   0  0  0  0  0  2  0  0  0  0  0  0
  -26.0410  -29.5180   20.6440 C   0  0  0  0  0  0  0  0  0  0  0  0
  -27.2750  -28.8400   20.6430 C   0  0  0  0  0  3  0  0  0  0  0  0
  -26.2540  -27.0160   19.3950 C   0  0  0  0  0  3  0  0  0  0  0  0
  -25.0160  -27.6840   19.4150 C   0  0  0  0  0  3  0  0  0  0  0  0
  -23.6360  -29.7420   20.0860 C   0  0  0  0  0  2  0  0  0  0  0  0
  -24.6180  -31.0390   22.0350 N   0  0  0  0  0  0  0  0  0  0  0  0
  -23.4300  -32.0280   23.6920 O   0  0  0  0  0  0  0  0  0  0  0  0
  -22.7850  -29.3190   22.4150 C   0  0  0  0  0  0  0  0  0  0  0  0
  -21.4720  -29.0770   22.2740 N   0  0  0  0  0  0  0  0  0  0  0  0
  -23.4920  -28.7140   23.2240 O   0  0  0  0  0  0  0  0  0  0  0  0
  -20.9620  -29.6240   21.5950 H   0  0  0  0  0  0  0  0  0  0  0  0
  -18.1530  -27.7210   22.7140 C   0  0  0  0  0  0  0  0  0  0  0  0
  -20.6940  -28.0890   23.0190 C   0  0  0  0  0  3  0  0  0  0  0  0
  -20.8670  -26.6750   22.4190 C   0  0  0  0  0  2  0  0  0  0  0  0
  -19.7920  -26.3180   21.3890 C   0  0  0  0  0  2  0  0  0  0  0  0
  -18.3980  -26.3900   22.0220 C   0  0  0  0  0  2  0  0  0  0  0  0
  -19.2320  -28.5250   23.1690 C   0  0  0  0  0  0  0  0  0  0  0  0
  -18.9550  -29.7690   23.7770 C   0  0  0  0  0  3  0  0  0  0  0  0
  -17.6290  -30.2090   23.9360 C   0  0  0  0  0  3  0  0  0  0  0  0
  -16.5630  -29.4020   23.5010 C   0  0  0  0  0  3  0  0  0  0  0  0
  -16.8240  -28.1600   22.8950 C   0  0  0  0  0  3  0  0  0  0  0  0
  -25.7790  -32.4880   23.7890 C   0  0  0  0  0  3  0  0  0  0  0  0
  -25.4190  -33.8710   24.1230 N   0  0  0  0  0  0  0  0  0  0  0  0
  -25.7270  -34.9400   23.3760 C   0  0  0  0  0  0  0  0  0  0  0  0
  -26.4180  -34.8670   22.3560 O   0  0  0  0  0  0  0  0  0  0  0  0
  -24.8080  -34.0000   24.9160 H   0  0  0  0  0  0  0  0  0  0  0  0
  -23.9460  -36.6720   22.9920 C   0  0  0  0  0  1  0  0  0  0  0  0
  -25.1800  -36.3060   23.8310 C   0  0  0  0  0  3  0  0  0  0  0  0
  -27.2580  -37.2570   24.7250 C   0  0  0  0  0  1  0  0  0  0  0  0
  -26.1770  -37.3950   23.7550 N   0  0  0  0  0  0  0  0  0  0  0  0
  -25.7350  -38.2980   23.9010 H   0  0  0  0  0  0  0  0  0  0  0  0
  -26.3180  -31.7250   25.0610 C   0  0  1  0  0  0  0  0  0  0  0  0
  -25.2230  -31.4320   26.1160 C   0  0  0  0  0  1  0  0  0  0  0  0
  -26.9640  -30.3800   24.6540 C   0  0  0  0  0  1  0  0  0  0  0  0
  -27.4250  -32.5610   25.7440 C   0  0  0  0  0  1  0  0  0  0  0  0
  1  3  1  0
  2  4  2  0
  2  5  1  0
  4  6  1  0
  5  1  2  0
  6 49  1  0
  6  3  2  0
  7  5  1  0
  7  9  1  0
  8  7  2  0
 10  9  1  0
 11 19  1  0
 12 17  1  0
 13 14  1  0
 13 12  1  0
 15 14  1  0
 15 24  1  0
 15 16  1  0
 17 11  1  0
 17 16  1  0
 18 11  2  0
 19 10  1  0
 19 20  1  0
 21 22  2  0
 22 41  1  0
 23 22  1  0
 23 26  1  0
 24 21  1  0
 24 25  1  0
 25 23  2  0
 26 27  1  0
 27 28  2  0
 29 32  1  0
 29 28  1  0
 30 29  2  0
 31 30  1  0
 31 26  2  0
 32 33  1  0
 33 38  2  0
 33 34  1  0
 34 35  2  0
 35 36  1  0
 36 40  1  0
 37 36  2  0
 38 37  1  0
 39 38  1  0
 41 42  1  0
 42 45  1  0
 42 44  1  0
 43 41  2  0
 46 47  1  0
 46 21  1  0
 48 46  1  0
 49 50  1  0
 52 51  1  0
 52 50  1  0
 53 55  1  0
 53 52  1  0
 54 65  2  0
 55 60  1  0
 56 64  1  0
 56 66  1  0
 57 63  1  0
 57 59  1  0
 58 64  1  0
 59 58  1  0
 60 59  2  0
 61 62  1  0
 61 55  2  0
 62 57  2  0
 63 56  1  0
 64 54  1  0
 66 68  2  0
 67 66  1  0
 69 67  1  0
 70 79  2  0
 70 75  1  0
 71 67  1  0
 71 75  1  0
 72 71  1  0
 73 74  1  0
 73 72  1  0
 74 70  1  0
 75 76  2  0
 76 77  1  0
 78 77  2  0
 79 78  1  0
 80 54  1  0
 80 81  1  0
 80 90  1  0
 81 84  1  0
 82 86  1  0
 82 81  1  0
 83 82  2  0
 86 85  1  0
 88 86  1  0
 88 89  1  0
 88 87  1  0
 90 93  1  1
 90 91  1  0
 92 90  1  0
M  ISO  4  11 100  19 100  52 101  53 101
M  END
>  <TORSDO>  (26) 
F 22

>  <SCORE>  (26) 
-12.347

>  <name>  (26) 
25

>  <ligand_id>  (26) 
25

>  <original_smiles>  (26) 
[H]c1c([H])c([H])c2c(c1[H])C([H])([H])C([H])([H])C([H])([H])C2([H])N([H])C(=O)C1([H])N(C(=O)C([H])(N([H])C(=O)C([H])(N([H])C([H])([H])[H])C([H])([H])[H])C(C([H])([H])[H])(C([H])([H])[H])C([H])([H])[H])C([H])([H])c2c([H])c(OC([H])(C([H])([H])[H])C([H])([H])C([H])([H])c3c([H])c([H])c(C(=O)C([H])([H])C([H])([H])N([H])C(=O)N4C([H])([H])C([H])([H])C([H])([H])C([H])(n5nc(-c6c([H])c([H])c(Oc7c([H])c([H])c(F)c([H])c7F)c([H])c6[H])c(C(=O)N([H])[H])c5N([H])[H])C4([H])[H])c([H])c3[H])c([H])c([H])c2C1([H])[H]

>  <smiles>  (26) 
[H]c1c([H])c([H])c2c(c1[H])C([H])([H])C([H])([H])C([H])([H])C2([H])N([H])C(=O)C1([H])N(C(=O)C([H])(N([H])C(=O)C([H])(N([H])C([H])([H])[H])C([H])([H])[H])C(C([H])([H])[H])(C([H])([H])[H])C([H])([H])[H])C([H])([H])c2c([H])c(OC([H])(C([H])([H])[H])C([H])([H])C([H])([H])c3c([H])c([H])c(C(=O)C([H])([H])C([H])([H])N([H])C(=O)N4C([H])([H])C([H])([H])C([H])([H])C([H])(n5nc(-c6c([H])c([H])c(Oc7c([H])c([H])c(F)c([H])c7F)c([H])c6[H])c(C(=O)N([H])[H])c5N([H])[H])C4([H])[H])c([H])c3[H])c([H])c([H])c2C1([H])[H]

$$$$
26:0:0
     RDKit          3D

101109  0  0  1  0  0  0  0  0999 V2000
  -28.2000  -18.1330   18.0810 C   0  0  0  0  0  2  0  0  0  0  0  0
  -29.3950  -18.6450   20.6390 C   0  0  0  0  0  2  0  0  0  0  0  0
  -28.6350  -19.5910   17.8560 C   0  0  0  0  0  2  0  0  0  0  0  0
  -29.2550  -20.1350   20.2500 C   0  0  0  0  0  2  0  0  0  0  0  0
  -29.3370  -17.1960   18.5450 C   0  0  0  0  0  3  0  0  0  0  0  0
  -30.2520  -17.8480   19.6230 C   0  0  0  0  0  3  0  0  0  0  0  0
  -30.1230  -16.6710   17.3270 C   0  0  0  0  0  1  0  0  0  0  0  0
  -28.4310  -20.4740   19.0440 N   0  0  1  0  0  4  0  0  0  0  0  0
  -27.4630  -20.3890   19.3150 H   0  0  0  0  0  0  0  0  0  0  0  0
  -28.6700  -21.9060   18.7070 C   0  0  0  0  0  2  0  0  0  0  0  0
  -27.4560  -22.7140   18.1870 C   0  0  0  0  0  2  0  0  0  0  0  0
  -27.7280  -24.2300   18.2510 C   0  0  0  0  0  2  0  0  0  0  0  0
  -28.7740  -24.7090   17.2210 C   0  0  0  0  0  2  0  0  0  0  0  0
  -29.5780  -25.9430   17.6730 C   0  0  0  0  0  2  0  0  0  0  0  0
  -28.7430  -27.0100   18.3960 C   0  0  0  0  0  2  0  0  0  0  0  0
  -27.6110  -27.3130   17.5930 O   0  0  0  0  0  0  0  0  0  0  0  0
  -25.1380  -30.1460   23.6370 C   0  0  0  0  0  0  0  0  0  0  0  0
  -26.5520  -27.8190   18.2970 C   0  0  0  0  0  0  0  0  0  0  0  0
  -23.4320  -29.4420   21.9880 C   0  0  0  0  0  3  0  0  0  0  0  0
  -24.3190  -28.8360   19.6740 C   0  0  0  0  0  0  0  0  0  0  0  0
  -25.7570  -30.1700   21.2280 C   0  0  0  0  0  2  0  0  0  0  0  0
  -25.6110  -29.2080   20.0670 C   0  0  0  0  0  0  0  0  0  0  0  0
  -26.7350  -28.6940   19.3900 C   0  0  0  0  0  3  0  0  0  0  0  0
  -25.2510  -27.4550   17.9030 C   0  0  0  0  0  3  0  0  0  0  0  0
  -24.1290  -27.9480   18.5990 C   0  0  0  0  0  3  0  0  0  0  0  0
  -23.1710  -29.4360   20.4580 C   0  0  0  0  0  2  0  0  0  0  0  0
  -24.8140  -29.9080   22.3350 N   0  0  0  0  0  0  0  0  0  0  0  0
  -24.2970  -30.0280   24.5370 O   0  0  0  0  0  0  0  0  0  0  0  0
  -23.1010  -28.0420   22.5470 C   0  0  0  0  0  0  0  0  0  0  0  0
  -21.9310  -27.5090   22.1600 N   0  0  0  0  0  0  0  0  0  0  0  0
  -23.8960  -27.4480   23.2820 O   0  0  0  0  0  0  0  0  0  0  0  0
  -21.3360  -28.0610   21.5590 H   0  0  0  0  0  0  0  0  0  0  0  0
  -19.6920  -24.8630   21.1400 C   0  0  0  0  0  0  0  0  0  0  0  0
  -21.4230  -26.1890   22.5280 C   0  0  0  0  0  3  0  0  0  0  0  0
  -22.4300  -25.0810   22.1440 C   0  0  0  0  0  2  0  0  0  0  0  0
  -22.1660  -24.4800   20.7590 C   0  0  0  0  0  2  0  0  0  0  0  0
  -20.7580  -23.8760   20.6930 C   0  0  0  0  0  2  0  0  0  0  0  0
  -20.0070  -25.9570   21.9890 C   0  0  0  0  0  0  0  0  0  0  0  0
  -18.9860  -26.8640   22.3460 C   0  0  0  0  0  3  0  0  0  0  0  0
  -17.6720  -26.6930   21.8730 C   0  0  0  0  0  3  0  0  0  0  0  0
  -17.3620  -25.6000   21.0470 C   0  0  0  0  0  3  0  0  0  0  0  0
  -18.3680  -24.6870   20.6850 C   0  0  0  0  0  3  0  0  0  0  0  0
  -26.5720  -30.6030   24.0560 C   0  0  0  0  0  3  0  0  0  0  0  0
  -27.0960  -29.8890   25.3620 C   0  0  1  0  0  0  0  0  0  0  0  0
  -26.1300  -30.0030   26.5640 C   0  0  0  0  0  1  0  0  0  0  0  0
  -27.3440  -28.3840   25.0980 C   0  0  0  0  0  1  0  0  0  0  0  0
  -28.4580  -30.4920   25.7840 C   0  0  0  0  0  1  0  0  0  0  0  0
  -26.5370  -32.0590   24.2360 N   0  0  0  0  0  0  0  0  0  0  0  0
  -27.2990  -32.9270   23.5540 C   0  0  0  0  0  0  0  0  0  0  0  0
  -28.1670  -32.5710   22.7530 O   0  0  0  0  0  0  0  0  0  0  0  0
  -25.8150  -32.4230   24.8390 H   0  0  0  0  0  0  0  0  0  0  0  0
  -26.4000  -35.0570   22.5660 C   0  0  0  0  0  1  0  0  0  0  0  0
  -27.0610  -34.4280   23.8020 C   0  0  0  0  0  3  0  0  0  0  0  0
  -28.8630  -34.7920   25.4290 C   0  0  0  0  0  1  0  0  0  0  0  0
  -28.2970  -35.1690   24.1380 N   0  0  0  0  0  0  0  0  0  0  0  0
  -28.1250  -36.1700   24.1480 H   0  0  0  0  0  0  0  0  0  0  0  0
  -31.2620  -16.8540   20.2640 C   0  0  0  0  0  3  0  0  0  0  0  0
  -31.1760  -14.5330   19.3780 C   0  0  0  0  0  0  0  0  0  0  0  0
  -30.7480  -12.2950   18.4520 C   0  0  0  0  0  2  0  0  0  0  0  0
  -29.6920  -12.3710   17.3350 C   0  0  0  0  0  2  0  0  0  0  0  0
  -28.2740  -12.2710   17.9250 C   0  0  0  0  0  2  0  0  0  0  0  0
  -28.0510  -13.2470   19.1100 C   0  0  0  0  0  3  0  0  0  0  0  0
  -29.2070  -13.1480   20.1290 C   0  0  0  0  0  2  0  0  0  0  0  0
  -30.4770  -13.3730   19.4120 N   0  0  0  0  0  0  0  0  0  0  0  0
  -32.1370  -14.7230   18.6250 O   0  0  0  0  0  0  0  0  0  0  0  0
  -30.7570  -15.4810   20.2220 N   0  0  0  0  0  0  0  0  0  0  0  0
  -29.9760  -15.2480   20.8180 H   0  0  0  0  0  0  0  0  0  0  0  0
  -25.7560  -13.9310   20.0550 C   0  0  0  0  0  0  0  0  0  0  0  0
  -24.7220  -13.1940   20.5680 C   0  0  0  0  0  0  0  0  0  0  0  0
  -25.1530  -11.8320   20.5320 C   0  0  0  0  0  0  0  0  0  0  0  0
  -26.7530  -13.0200   19.7420 N   0  0  0  0  0  0  0  0  0  0  0  0
  -26.3980  -11.7550   20.0830 N   0  0  0  0  0  0  0  0  0  0  0  0
  -24.4330  -10.5930   20.8500 C   0  0  0  0  0  0  0  0  0  0  0  0
  -24.6590   -9.8970   22.0580 C   0  0  0  0  0  3  0  0  0  0  0  0
  -23.9420   -8.7150   22.3470 C   0  0  0  0  0  3  0  0  0  0  0  0
  -22.9880   -8.2210   21.4250 C   0  0  0  0  0  0  0  0  0  0  0  0
  -22.7850   -8.9070   20.2150 C   0  0  0  0  0  3  0  0  0  0  0  0
  -23.5010  -10.0790   19.9280 C   0  0  0  0  0  3  0  0  0  0  0  0
  -22.2640   -7.0690   21.6110 O   0  0  0  0  0  0  0  0  0  0  0  0
  -21.6580   -6.7830   22.8080 C   0  0  0  0  0  0  0  0  0  0  0  0
  -20.6630   -7.6220   23.3580 C   0  0  0  0  0  3  0  0  0  0  0  0
  -20.0160   -7.2550   24.5540 C   0  0  0  0  0  3  0  0  0  0  0  0
  -20.3550   -6.0490   25.1980 C   0  0  0  0  0  0  0  0  0  0  0  0
  -21.3410   -5.2100   24.6490 C   0  0  0  0  0  3  0  0  0  0  0  0
  -21.9880   -5.5760   23.4560 C   0  0  0  0  0  0  0  0  0  0  0  0
  -22.9230   -4.7540   22.9210 F   0  0  0  0  0  0  0  0  0  0  0  0
  -19.7280   -5.6940   26.3430 F   0  0  0  0  0  0  0  0  0  0  0  0
  -23.3740  -13.7090   20.9810 C   0  0  0  0  0  0  0  0  0  0  0  0
  -22.7610  -13.0860   21.9810 N   0  0  0  0  0  0  0  0  0  0  0  0
  -22.8800  -14.7030   20.4510 O   0  0  0  0  0  0  0  0  0  0  0  0
  -23.1790  -12.2820   22.4260 H   0  0  0  0  0  0  0  0  0  0  0  0
  -21.8630  -13.4150   22.3030 H   0  0  0  0  0  0  0  0  0  0  0  0
  -25.9250  -15.2920   19.8120 N   0  0  0  0  0  0  0  0  0  0  0  0
  -25.1790  -15.9600   19.9740 H   0  0  0  0  0  0  0  0  0  0  0  0
  -26.7350  -15.6920   19.3580 H   0  0  0  0  0  0  0  0  0  0  0  0
  -31.7430  -17.2300   21.6850 C   0  0  0  0  0  2  0  0  0  0  0  0
  -31.4030  -16.1520   22.7410 C   0  0  0  0  0  2  0  0  0  0  0  0
  -31.2050  -16.7140   24.0880 N   0  0  0  0  0  4  0  0  0  0  0  0
  -32.0340  -17.1860   24.4040 H   0  0  0  0  0  0  0  0  0  0  0  0
  -31.0050  -15.9770   24.7410 H   0  0  0  0  0  0  0  0  0  0  0  0
  -30.4360  -17.3600   24.1040 H   0  0  0  0  0  0  0  0  0  0  0  0
  1  5  1  0
  3  1  1  0
  3  8  1  0
  4  2  1  0
  5  7  1  0
  5  6  1  0
  6 57  1  0
  6  2  1  0
  8  9  1  1
  8  4  1  0
 10  8  1  0
 11 12  1  0
 11 10  1  0
 13 14  1  0
 13 12  1  0
 14 15  1  0
 16 18  1  0
 16 15  1  0
 17 28  2  0
 18 23  1  0
 19 27  1  0
 19 29  1  0
 20 22  1  0
 20 26  1  0
 21 27  1  0
 22 21  1  0
 23 22  2  0
 24 18  2  0
 24 25  1  0
 25 20  2  0
 26 19  1  0
 27 17  1  0
 29 31  2  0
 30 29  1  0
 32 30  1  0
 33 38  1  0
 34 30  1  0
 35 34  1  0
 36 35  1  0
 37 36  1  0
 37 33  1  0
 38 39  2  0
 38 34  1  0
 40 39  1  0
 41 40  2  0
 42 41  1  0
 42 33  2  0
 43 17  1  0
 43 48  1  0
 43 44  1  0
 44 47  1  1
 44 45  1  0
 46 44  1  0
 48 51  1  0
 49 53  1  0
 49 48  1  0
 50 49  2  0
 53 52  1  0
 53 55  1  0
 55 56  1  0
 55 54  1  0
 57 96  1  0
 58 64  1  0
 58 66  1  0
 59 64  1  0
 60 61  1  0
 60 59  1  0
 62 61  1  0
 62 71  1  0
 62 63  1  0
 64 63  1  0
 65 58  2  0
 66 57  1  0
 66 67  1  0
 68 69  2  0
 69 88  1  0
 70 69  1  0
 70 73  1  0
 71 68  1  0
 71 72  1  0
 72 70  2  0
 73 74  1  0
 74 75  2  0
 76 79  1  0
 76 75  1  0
 77 76  2  0
 78 77  1  0
 78 73  2  0
 79 80  1  0
 80 81  2  0
 80 85  1  0
 81 82  1  0
 82 83  2  0
 83 87  1  0
 84 83  1  0
 85 84  2  0
 86 85  1  0
 88 89  1  0
 89 92  1  0
 89 91  1  0
 90 88  2  0
 93 94  1  0
 93 68  1  0
 95 93  1  0
 96 97  1  0
 97 98  1  0
 98101  1  0
 98 99  1  0
 98100  1  0
M  ISO  4  15 101  16 101  58 100  66 100
M  END
>  <TORSDO>  (27) 
F 26

>  <SCORE>  (27) 
-3.889

>  <name>  (27) 
26

>  <ligand_id>  (27) 
26

>  <original_smiles>  (27) 
[H]c1c([H])c([H])c2c(c1[H])C([H])([H])C([H])([H])C([H])([H])C2([H])N([H])C(=O)C1([H])N(C(=O)C([H])(N([H])C(=O)C([H])(N([H])C([H])([H])[H])C([H])([H])[H])C(C([H])([H])[H])(C([H])([H])[H])C([H])([H])[H])C([H])([H])c2c([H])c(OC([H])([H])C([H])([H])C([H])([H])C([H])([H])C([H])([H])C([H])([H])[N+]3([H])C([H])([H])C([H])([H])C([H])(C([H])([H])[H])C([H])(C([H])(N([H])C(=O)N4C([H])([H])C([H])([H])C([H])([H])C([H])(n5nc(-c6c([H])c([H])c(Oc7c([H])c([H])c(F)c([H])c7F)c([H])c6[H])c(C(=O)N([H])[H])c5N([H])[H])C4([H])[H])C([H])([H])C([H])([H])[N+]([H])([H])[H])C([H])([H])C3([H])[H])c([H])c([H])c2C1([H])[H]

>  <smiles>  (27) 
[H]c1c([H])c([H])c2c(c1[H])C([H])([H])C([H])([H])C([H])([H])C2([H])N([H])C(=O)C1([H])N(C(=O)C([H])(N([H])C(=O)C([H])(N([H])C([H])([H])[H])C([H])([H])[H])C(C([H])([H])[H])(C([H])([H])[H])C([H])([H])[H])C([H])([H])c2c([H])c(OC([H])([H])C([H])([H])C([H])([H])C([H])([H])C([H])([H])C([H])([H])[N+]3([H])C([H])([H])C([H])([H])C([H])(C([H])([H])[H])C([H])(C([H])(N([H])C(=O)N4C([H])([H])C([H])([H])C([H])([H])C([H])(n5nc(-c6c([H])c([H])c(Oc7c([H])c([H])c(F)c([H])c7F)c([H])c6[H])c(C(=O)N([H])[H])c5N([H])[H])C4([H])[H])C([H])([H])C([H])([H])[N+]([H])([H])[H])C([H])([H])C3([H])[H])c([H])c([H])c2C1([H])[H]

$$$$
27:0:0
     RDKit          3D

 91 99  0  0  1  0  0  0  0  0999 V2000
  -27.7890  -22.0040   20.6330 C   0  0  0  0  0  1  0  0  0  0  0  0
  -29.0850  -22.5680   20.0150 C   0  0  0  0  0  3  0  0  0  0  0  0
  -29.2600  -24.1110   20.3350 C   0  0  0  0  0  0  0  0  0  0  0  0
  -30.2180  -24.5040   21.0090 O   0  0  0  0  0  0  0  0  0  0  0  0
  -28.1960  -25.1330   19.7790 C   0  0  0  0  0  2  0  0  0  0  0  0
  -28.3600  -26.5550   20.1500 O   0  0  0  0  0  0  0  0  0  0  0  0
  -24.6410  -31.8660   23.2490 C   0  0  0  0  0  0  0  0  0  0  0  0
  -27.2260  -27.3800   20.0970 C   0  0  0  0  0  0  0  0  0  0  0  0
  -23.4130  -30.4950   21.5990 C   0  0  0  0  0  3  0  0  0  0  0  0
  -24.8520  -28.9730   20.1300 C   0  0  0  0  0  0  0  0  0  0  0  0
  -25.9490  -30.8250   21.3880 C   0  0  0  0  0  2  0  0  0  0  0  0
  -26.0230  -29.4580   20.7230 C   0  0  0  0  0  0  0  0  0  0  0  0
  -27.2100  -28.6720   20.7010 C   0  0  0  0  0  3  0  0  0  0  0  0
  -26.0350  -26.9520   19.4610 C   0  0  0  0  0  3  0  0  0  0  0  0
  -24.8590  -27.7250   19.4890 C   0  0  0  0  0  3  0  0  0  0  0  0
  -23.6110  -29.8390   20.2060 C   0  0  0  0  0  2  0  0  0  0  0  0
  -24.6880  -31.0770   22.1380 N   0  0  0  0  0  0  0  0  0  0  0  0
  -23.5660  -32.1370   23.8030 O   0  0  0  0  0  0  0  0  0  0  0  0
  -22.7630  -29.4630   22.5510 C   0  0  0  0  0  0  0  0  0  0  0  0
  -21.4370  -29.2850   22.4340 N   0  0  0  0  0  0  0  0  0  0  0  0
  -23.4510  -28.8250   23.3520 O   0  0  0  0  0  0  0  0  0  0  0  0
  -20.9410  -29.8600   21.7680 H   0  0  0  0  0  0  0  0  0  0  0  0
  -18.0670  -28.0840   22.9350 C   0  0  0  0  0  0  0  0  0  0  0  0
  -20.6260  -28.3380   23.1990 C   0  0  0  0  0  3  0  0  0  0  0  0
  -20.7250  -26.9110   22.6110 C   0  0  0  0  0  2  0  0  0  0  0  0
  -19.6230  -26.6020   21.5920 C   0  0  0  0  0  2  0  0  0  0  0  0
  -18.2400  -26.7460   22.2360 C   0  0  0  0  0  2  0  0  0  0  0  0
  -19.1860  -28.8400   23.3710 C   0  0  0  0  0  0  0  0  0  0  0  0
  -18.9690  -30.0950   23.9800 C   0  0  0  0  0  3  0  0  0  0  0  0
  -17.6640  -30.5960   24.1600 C   0  0  0  0  0  3  0  0  0  0  0  0
  -16.5590  -29.8380   23.7360 C   0  0  0  0  0  3  0  0  0  0  0  0
  -16.7610  -28.5850   23.1300 C   0  0  0  0  0  3  0  0  0  0  0  0
  -25.9370  -32.4840   23.8650 C   0  0  0  0  0  3  0  0  0  0  0  0
  -26.4590  -31.6970   25.1290 C   0  0  1  0  0  0  0  0  0  0  0  0
  -25.3710  -31.4650   26.2020 C   0  0  0  0  0  1  0  0  0  0  0  0
  -27.0270  -30.3160   24.7250 C   0  0  0  0  0  1  0  0  0  0  0  0
  -27.6190  -32.4810   25.7910 C   0  0  0  0  0  1  0  0  0  0  0  0
  -25.6410  -33.8800   24.2090 N   0  0  0  0  0  0  0  0  0  0  0  0
  -25.9530  -34.9350   23.4450 C   0  0  0  0  0  0  0  0  0  0  0  0
  -26.5920  -34.8340   22.3930 O   0  0  0  0  0  0  0  0  0  0  0  0
  -25.0750  -34.0330   25.0300 H   0  0  0  0  0  0  0  0  0  0  0  0
  -24.2090  -36.7270   23.1660 C   0  0  0  0  0  1  0  0  0  0  0  0
  -25.4830  -36.3220   23.9230 C   0  0  0  0  0  3  0  0  0  0  0  0
  -27.6480  -37.2150   24.6670 C   0  0  0  0  0  1  0  0  0  0  0  0
  -26.5070  -37.3770   23.7680 N   0  0  0  0  0  0  0  0  0  0  0  0
  -26.1030  -38.2960   23.9350 H   0  0  0  0  0  0  0  0  0  0  0  0
  -30.3350  -21.6140   20.2960 C   0  0  0  0  0  2  0  0  0  0  0  0
  -30.7540  -19.2140   19.3180 C   0  0  0  0  0  3  0  0  0  0  0  0
  -29.6150  -19.3710   21.4300 C   0  0  0  0  0  3  0  0  0  0  0  0
  -30.7520  -17.7900   19.4200 C   0  0  0  0  0  3  0  0  0  0  0  0
  -29.5880  -17.9480   21.5210 C   0  0  0  0  0  3  0  0  0  0  0  0
  -30.1870  -20.0470   20.3230 C   0  0  0  0  0  0  0  0  0  0  0  0
  -30.1650  -17.1160   20.5280 C   0  0  0  0  0  0  0  0  0  0  0  0
  -30.7180  -14.6490   20.0320 C   0  0  0  0  0  0  0  0  0  0  0  0
  -30.4020  -12.4440   18.9280 C   0  0  0  0  0  2  0  0  0  0  0  0
  -29.3800  -12.6000   17.7780 C   0  0  0  0  0  2  0  0  0  0  0  0
  -27.9410  -12.4240   18.3010 C   0  0  0  0  0  2  0  0  0  0  0  0
  -27.6680  -13.2640   19.5790 C   0  0  0  0  0  3  0  0  0  0  0  0
  -28.7990  -13.0860   20.6200 C   0  0  0  0  0  2  0  0  0  0  0  0
  -30.0730  -13.4380   19.9700 N   0  0  0  0  0  0  0  0  0  0  0  0
  -31.8000  -14.8270   19.4680 O   0  0  0  0  0  0  0  0  0  0  0  0
  -30.0710  -15.6640   20.6740 N   0  0  0  0  0  0  0  0  0  0  0  0
  -29.3330  -15.3480   21.2820 H   0  0  0  0  0  0  0  0  0  0  0  0
  -25.3370  -13.8480   20.4920 C   0  0  0  0  0  0  0  0  0  0  0  0
  -24.2910  -13.0660   20.9060 C   0  0  0  0  0  0  0  0  0  0  0  0
  -24.7360  -11.7150   20.7840 C   0  0  0  0  0  0  0  0  0  0  0  0
  -26.3560  -12.9710   20.1490 N   0  0  0  0  0  0  0  0  0  0  0  0
  -26.0000  -11.6800   20.3780 N   0  0  0  0  0  0  0  0  0  0  0  0
  -24.0140  -10.4500   20.9760 C   0  0  0  0  0  0  0  0  0  0  0  0
  -24.4750   -9.4690   21.8800 C   0  0  0  0  0  3  0  0  0  0  0  0
  -23.7570   -8.2660   22.0590 C   0  0  0  0  0  3  0  0  0  0  0  0
  -22.5650   -8.0370   21.3360 C   0  0  0  0  0  0  0  0  0  0  0  0
  -22.1200   -9.0080   20.4210 C   0  0  0  0  0  3  0  0  0  0  0  0
  -22.8370  -10.2020   20.2390 C   0  0  0  0  0  3  0  0  0  0  0  0
  -21.8130   -6.8880   21.4300 O   0  0  0  0  0  0  0  0  0  0  0  0
  -21.7520   -6.1590   22.5900 C   0  0  0  0  0  0  0  0  0  0  0  0
  -21.3040   -6.7250   23.8050 C   0  0  0  0  0  3  0  0  0  0  0  0
  -21.1890   -5.9200   24.9570 C   0  0  0  0  0  3  0  0  0  0  0  0
  -21.5120   -4.5520   24.8970 C   0  0  0  0  0  0  0  0  0  0  0  0
  -21.9540   -3.9860   23.6890 C   0  0  0  0  0  3  0  0  0  0  0  0
  -22.0720   -4.7870   22.5400 C   0  0  0  0  0  0  0  0  0  0  0  0
  -22.4750   -4.2290   21.3730 F   0  0  0  0  0  0  0  0  0  0  0  0
  -21.3970   -3.7810   26.0040 F   0  0  0  0  0  0  0  0  0  0  0  0
  -22.9180  -13.5410   21.2940 C   0  0  0  0  0  0  0  0  0  0  0  0
  -22.2460  -12.8250   22.1890 N   0  0  0  0  0  0  0  0  0  0  0  0
  -22.4510  -14.5830   20.8380 O   0  0  0  0  0  0  0  0  0  0  0  0
  -22.6320  -11.9860   22.5960 H   0  0  0  0  0  0  0  0  0  0  0  0
  -21.3280  -13.1320   22.4800 H   0  0  0  0  0  0  0  0  0  0  0  0
  -25.5020  -15.2230   20.3590 N   0  0  0  0  0  0  0  0  0  0  0  0
  -24.7550  -15.8820   20.5380 H   0  0  0  0  0  0  0  0  0  0  0  0
  -26.3370  -15.6630   19.9910 H   0  0  0  0  0  0  0  0  0  0  0  0
  2 47  1  0
  2  3  1  0
  2  1  1  0
  3  4  2  0
  5  6  1  0
  5  3  1  0
  7 18  2  0
  8  6  1  0
  8 13  1  0
  9 17  1  0
  9 19  1  0
 10 16  1  0
 10 12  1  0
 11 17  1  0
 12 11  1  0
 13 12  2  0
 14 15  1  0
 14  8  2  0
 15 10  2  0
 16  9  1  0
 17  7  1  0
 19 21  2  0
 20 19  1  0
 22 20  1  0
 23 32  2  0
 23 28  1  0
 24 20  1  0
 24 28  1  0
 25 24  1  0
 26 27  1  0
 26 25  1  0
 27 23  1  0
 28 29  2  0
 29 30  1  0
 31 30  2  0
 32 31  1  0
 33  7  1  0
 33 38  1  0
 33 34  1  0
 34 37  1  1
 34 35  1  0
 36 34  1  0
 38 41  1  0
 39 43  1  0
 39 38  1  0
 40 39  2  0
 43 42  1  0
 45 43  1  0
 45 46  1  0
 45 44  1  0
 47 52  1  0
 48 50  2  0
 48 52  1  0
 49 51  1  0
 50 53  1  0
 52 49  2  0
 53 62  1  0
 53 51  2  0
 54 62  1  0
 55 60  1  0
 56 57  1  0
 56 55  1  0
 58 57  1  0
 58 67  1  0
 58 59  1  0
 60 54  1  0
 60 59  1  0
 61 54  2  0
 62 63  1  0
 64 65  2  0
 65 84  1  0
 66 65  1  0
 66 69  1  0
 67 68  1  0
 67 64  1  0
 68 66  2  0
 69 70  1  0
 70 71  2  0
 72 75  1  0
 72 71  1  0
 73 72  2  0
 74 73  1  0
 74 69  2  0
 75 76  1  0
 76 77  1  0
 77 78  2  0
 79 78  1  0
 79 83  1  0
 80 79  2  0
 81 76  2  0
 81 80  1  0
 82 81  1  0
 84 85  1  0
 85 88  1  0
 85 87  1  0
 86 84  2  0
 89 64  1  0
 89 90  1  0
 91 89  1  0
M  ISO  4   5 101   6 101  54 100  62 100
M  END
>  <TORSDO>  (28) 
F 20

>  <SCORE>  (28) 
-13.097

>  <name>  (28) 
27

>  <ligand_id>  (28) 
27

>  <original_smiles>  (28) 
[H]c1c([H])c([H])c2c(c1[H])C([H])([H])C([H])([H])C([H])([H])C2([H])N([H])C(=O)C1([H])N(C(=O)C([H])(N([H])C(=O)C([H])(N([H])C([H])([H])[H])C([H])([H])[H])C(C([H])([H])[H])(C([H])([H])[H])C([H])([H])[H])C([H])([H])c2c([H])c(OC([H])([H])C(=O)C([H])(C([H])([H])[H])C([H])([H])c3c([H])c([H])c(N([H])C(=O)N4C([H])([H])C([H])([H])C([H])([H])C([H])(n5nc(-c6c([H])c([H])c(Oc7c([H])c([H])c(F)c([H])c7F)c([H])c6[H])c(C(=O)N([H])[H])c5N([H])[H])C4([H])[H])c([H])c3[H])c([H])c([H])c2C1([H])[H]

>  <smiles>  (28) 
[H]c1c([H])c([H])c2c(c1[H])C([H])([H])C([H])([H])C([H])([H])C2([H])N([H])C(=O)C1([H])N(C(=O)C([H])(N([H])C(=O)C([H])(N([H])C([H])([H])[H])C([H])([H])[H])C(C([H])([H])[H])(C([H])([H])[H])C([H])([H])[H])C([H])([H])c2c([H])c(OC([H])([H])C(=O)C([H])(C([H])([H])[H])C([H])([H])c3c([H])c([H])c(N([H])C(=O)N4C([H])([H])C([H])([H])C([H])([H])C([H])(n5nc(-c6c([H])c([H])c(Oc7c([H])c([H])c(F)c([H])c7F)c([H])c6[H])c(C(=O)N([H])[H])c5N([H])[H])C4([H])[H])c([H])c3[H])c([H])c([H])c2C1([H])[H]

$$$$
28:0:0
     RDKit          3D

 92100  0  0  1  0  0  0  0  0999 V2000
  -29.7310  -21.2370   22.2150 C   0  0  0  0  0  0  0  0  0  0  0  0
  -29.4510  -22.1760   21.2930 N   0  0  0  0  0  0  0  0  0  0  0  0
  -29.9500  -21.5550   23.3870 O   0  0  0  0  0  0  0  0  0  0  0  0
  -29.2830  -21.8860   20.3380 H   0  0  0  0  0  0  0  0  0  0  0  0
  -29.7130  -19.4190   20.3230 C   0  0  0  0  0  2  0  0  0  0  0  0
  -30.9370  -18.9830   22.4710 C   0  0  0  0  0  2  0  0  0  0  0  0
  -29.6160  -17.8940   20.0650 C   0  0  0  0  0  2  0  0  0  0  0  0
  -30.8550  -17.4620   22.2420 C   0  0  0  0  0  2  0  0  0  0  0  0
  -29.7410  -19.7330   21.8350 C   0  0  0  0  0  3  0  0  0  0  0  0
  -30.7370  -17.0750   20.7520 C   0  0  0  0  0  3  0  0  0  0  0  0
  -31.1020  -14.6840   19.9890 C   0  0  0  0  0  0  0  0  0  0  0  0
  -30.7970  -12.4710   18.9290 C   0  0  0  0  0  2  0  0  0  0  0  0
  -29.7850  -12.5960   17.7720 C   0  0  0  0  0  2  0  0  0  0  0  0
  -28.3340  -12.4710   18.2830 C   0  0  0  0  0  2  0  0  0  0  0  0
  -28.0530  -13.3670   19.5190 C   0  0  0  0  0  3  0  0  0  0  0  0
  -29.1640  -13.1840   20.5760 C   0  0  0  0  0  2  0  0  0  0  0  0
  -30.4570  -13.4870   19.9360 N   0  0  0  0  0  0  0  0  0  0  0  0
  -32.1570  -14.9140   19.3890 O   0  0  0  0  0  0  0  0  0  0  0  0
  -30.4410  -15.6390   20.6630 N   0  0  0  0  0  0  0  0  0  0  0  0
  -29.5920  -15.3320   21.1150 H   0  0  0  0  0  0  0  0  0  0  0  0
  -25.7270  -14.0050   20.4250 C   0  0  0  0  0  0  0  0  0  0  0  0
  -24.6650  -13.2430   20.8340 C   0  0  0  0  0  0  0  0  0  0  0  0
  -25.0830  -11.8840   20.7070 C   0  0  0  0  0  0  0  0  0  0  0  0
  -26.7280  -13.1080   20.0770 N   0  0  0  0  0  0  0  0  0  0  0  0
  -26.3450  -11.8250   20.3020 N   0  0  0  0  0  0  0  0  0  0  0  0
  -24.3350  -10.6340   20.8940 C   0  0  0  0  0  0  0  0  0  0  0  0
  -24.7250   -9.6770   21.8580 C   0  0  0  0  0  3  0  0  0  0  0  0
  -23.9800   -8.4910   22.0300 C   0  0  0  0  0  3  0  0  0  0  0  0
  -22.8310   -8.2520   21.2400 C   0  0  0  0  0  0  0  0  0  0  0  0
  -22.4600   -9.1970   20.2660 C   0  0  0  0  0  3  0  0  0  0  0  0
  -23.2050  -10.3750   20.0920 C   0  0  0  0  0  3  0  0  0  0  0  0
  -22.0620   -7.1170   21.3210 O   0  0  0  0  0  0  0  0  0  0  0  0
  -21.8410   -6.4810   22.5160 C   0  0  0  0  0  0  0  0  0  0  0  0
  -21.2150   -7.1300   23.6030 C   0  0  0  0  0  3  0  0  0  0  0  0
  -20.9460   -6.4170   24.7880 C   0  0  0  0  0  3  0  0  0  0  0  0
  -21.2910   -5.0560   24.8860 C   0  0  0  0  0  0  0  0  0  0  0  0
  -21.9100   -4.4070   23.8030 C   0  0  0  0  0  3  0  0  0  0  0  0
  -22.1800   -5.1170   22.6210 C   0  0  0  0  0  0  0  0  0  0  0  0
  -22.7570   -4.4810   21.5720 F   0  0  0  0  0  0  0  0  0  0  0  0
  -21.0260   -4.3670   26.0220 F   0  0  0  0  0  0  0  0  0  0  0  0
  -23.3050  -13.7440   21.2300 C   0  0  0  0  0  0  0  0  0  0  0  0
  -22.6290  -13.0360   22.1280 N   0  0  0  0  0  0  0  0  0  0  0  0
  -22.8540  -14.7950   20.7770 O   0  0  0  0  0  0  0  0  0  0  0  0
  -23.0090  -12.1860   22.5160 H   0  0  0  0  0  0  0  0  0  0  0  0
  -21.7170  -13.3490   22.4300 H   0  0  0  0  0  0  0  0  0  0  0  0
  -25.9170  -15.3760   20.3030 N   0  0  0  0  0  0  0  0  0  0  0  0
  -25.1830  -16.0420   20.5160 H   0  0  0  0  0  0  0  0  0  0  0  0
  -26.7570  -15.8140   19.9430 H   0  0  0  0  0  0  0  0  0  0  0  0
  -29.3470  -23.6040   21.6310 C   0  0  0  0  0  2  0  0  0  0  0  0
  -29.0240  -24.5450   20.4470 C   0  0  0  0  0  2  0  0  0  0  0  0
  -28.8120  -25.9950   20.9410 C   0  0  0  0  0  2  0  0  0  0  0  0
  -28.6800  -26.9480   19.8790 O   0  0  0  0  0  0  0  0  0  0  0  0
  -24.7330  -31.8650   23.1960 C   0  0  0  0  0  0  0  0  0  0  0  0
  -27.5030  -27.6530   19.9260 C   0  0  0  0  0  0  0  0  0  0  0  0
  -23.5550  -30.4610   21.5340 C   0  0  0  0  0  3  0  0  0  0  0  0
  -25.0450  -29.0320   20.0360 C   0  0  0  0  0  0  0  0  0  0  0  0
  -26.0570  -30.9420   21.2960 C   0  0  0  0  0  2  0  0  0  0  0  0
  -26.1900  -29.5970   20.6130 C   0  0  0  0  0  0  0  0  0  0  0  0
  -27.4260  -28.9140   20.5560 C   0  0  0  0  0  3  0  0  0  0  0  0
  -26.3460  -27.0950   19.3460 C   0  0  0  0  0  3  0  0  0  0  0  0
  -25.1160  -27.7790   19.4010 C   0  0  0  0  0  3  0  0  0  0  0  0
  -23.7640  -29.8320   20.1300 C   0  0  0  0  0  2  0  0  0  0  0  0
  -24.8010  -31.1030   22.0670 N   0  0  0  0  0  0  0  0  0  0  0  0
  -23.6520  -32.0720   23.7660 O   0  0  0  0  0  0  0  0  0  0  0  0
  -22.9690  -29.3830   22.4750 C   0  0  0  0  0  0  0  0  0  0  0  0
  -21.6630  -29.1090   22.3300 N   0  0  0  0  0  0  0  0  0  0  0  0
  -23.6880  -28.7960   23.2880 O   0  0  0  0  0  0  0  0  0  0  0  0
  -21.1430  -29.6420   21.6470 H   0  0  0  0  0  0  0  0  0  0  0  0
  -18.3900  -27.6380   22.7300 C   0  0  0  0  0  0  0  0  0  0  0  0
  -20.9070  -28.1050   23.0780 C   0  0  0  0  0  3  0  0  0  0  0  0
  -21.1460  -26.6890   22.5060 C   0  0  0  0  0  2  0  0  0  0  0  0
  -20.1050  -26.2770   21.4610 C   0  0  0  0  0  2  0  0  0  0  0  0
  -18.6970  -26.3080   22.0620 C   0  0  0  0  0  2  0  0  0  0  0  0
  -19.4270  -28.4890   23.1920 C   0  0  0  0  0  0  0  0  0  0  0  0
  -19.0860  -29.7320   23.7690 C   0  0  0  0  0  3  0  0  0  0  0  0
  -17.7410  -30.1240   23.8920 C   0  0  0  0  0  3  0  0  0  0  0  0
  -16.7170  -29.2710   23.4490 C   0  0  0  0  0  3  0  0  0  0  0  0
  -17.0420  -28.0300   22.8720 C   0  0  0  0  0  3  0  0  0  0  0  0
  -26.0020  -32.5330   23.8110 C   0  0  0  0  0  3  0  0  0  0  0  0
  -26.5640  -31.7610   25.0670 C   0  0  1  0  0  0  0  0  0  0  0  0
  -25.4920  -31.4420   26.1340 C   0  0  0  0  0  1  0  0  0  0  0  0
  -27.2130  -30.4250   24.6370 C   0  0  0  0  0  1  0  0  0  0  0  0
  -27.6780  -32.5980   25.7410 C   0  0  0  0  0  1  0  0  0  0  0  0
  -25.6490  -33.9160   24.1640 N   0  0  0  0  0  0  0  0  0  0  0  0
  -25.9300  -34.9870   23.4110 C   0  0  0  0  0  0  0  0  0  0  0  0
  -26.5880  -34.9200   22.3680 O   0  0  0  0  0  0  0  0  0  0  0  0
  -25.0650  -34.0400   24.9780 H   0  0  0  0  0  0  0  0  0  0  0  0
  -24.1290  -36.7140   23.1060 C   0  0  0  0  0  1  0  0  0  0  0  0
  -25.4000  -36.3510   23.8910 C   0  0  0  0  0  3  0  0  0  0  0  0
  -27.5120  -37.3100   24.6970 C   0  0  0  0  0  1  0  0  0  0  0  0
  -26.3900  -37.4440   23.7710 N   0  0  0  0  0  0  0  0  0  0  0  0
  -25.9510  -38.3470   23.9330 H   0  0  0  0  0  0  0  0  0  0  0  0
  1  3  2  0
  2 49  1  0
  2  1  1  0
  4  2  1  0
  5  9  1  0
  7  5  1  0
  7 10  1  0
  8  6  1  0
  9  1  1  0
  9  6  1  0
 10 19  1  0
 10  8  1  0
 11 19  1  0
 12 17  1  0
 13 14  1  0
 13 12  1  0
 15 14  1  0
 15 24  1  0
 15 16  1  0
 17 11  1  0
 17 16  1  0
 18 11  2  0
 19 20  1  0
 21 22  2  0
 22 41  1  0
 23 22  1  0
 23 26  1  0
 24 25  1  0
 24 21  1  0
 25 23  2  0
 26 27  1  0
 27 28  2  0
 29 32  1  0
 29 28  1  0
 30 29  2  0
 31 30  1  0
 31 26  2  0
 32 33  1  0
 33 38  2  0
 33 34  1  0
 34 35  2  0
 35 36  1  0
 36 40  1  0
 37 36  2  0
 38 37  1  0
 39 38  1  0
 41 42  1  0
 42 45  1  0
 42 44  1  0
 43 41  2  0
 46 21  1  0
 46 47  1  0
 48 46  1  0
 50 51  1  0
 50 49  1  0
 52 54  1  0
 52 51  1  0
 53 64  2  0
 54 59  1  0
 55 63  1  0
 55 65  1  0
 56 62  1  0
 56 58  1  0
 57 63  1  0
 58 57  1  0
 59 58  2  0
 60 61  1  0
 60 54  2  0
 61 56  2  0
 62 55  1  0
 63 53  1  0
 65 67  2  0
 66 65  1  0
 68 66  1  0
 69 78  2  0
 69 74  1  0
 70 66  1  0
 70 74  1  0
 71 70  1  0
 72 73  1  0
 72 71  1  0
 73 69  1  0
 74 75  2  0
 75 76  1  0
 77 76  2  0
 78 77  1  0
 79 53  1  0
 79 84  1  0
 79 80  1  0
 80 83  1  1
 80 81  1  0
 82 80  1  0
 84 87  1  0
 85 89  1  0
 85 84  1  0
 86 85  2  0
 89 88  1  0
 91 89  1  0
 91 92  1  0
 91 90  1  0
M  ISO  4  11 100  19 100  51 101  52 101
M  END
>  <TORSDO>  (29) 
F 20

>  <SCORE>  (29) 
-12.566

>  <name>  (29) 
28

>  <ligand_id>  (29) 
28

>  <original_smiles>  (29) 
[H]c1c([H])c([H])c2c(c1[H])C([H])([H])C([H])([H])C([H])([H])C2([H])N([H])C(=O)C1([H])N(C(=O)C([H])(N([H])C(=O)C([H])(N([H])C([H])([H])[H])C([H])([H])[H])C(C([H])([H])[H])(C([H])([H])[H])C([H])([H])[H])C([H])([H])c2c([H])c(OC([H])([H])C([H])([H])C([H])([H])N([H])C(=O)C3([H])C([H])([H])C([H])([H])C([H])(N([H])C(=O)N4C([H])([H])C([H])([H])C([H])([H])C([H])(n5nc(-c6c([H])c([H])c(Oc7c([H])c([H])c(F)c([H])c7F)c([H])c6[H])c(C(=O)N([H])[H])c5N([H])[H])C4([H])[H])C([H])([H])C3([H])[H])c([H])c([H])c2C1([H])[H]

>  <smiles>  (29) 
[H]c1c([H])c([H])c2c(c1[H])C([H])([H])C([H])([H])C([H])([H])C2([H])N([H])C(=O)C1([H])N(C(=O)C([H])(N([H])C(=O)C([H])(N([H])C([H])([H])[H])C([H])([H])[H])C(C([H])([H])[H])(C([H])([H])[H])C([H])([H])[H])C([H])([H])c2c([H])c(OC([H])([H])C([H])([H])C([H])([H])N([H])C(=O)C3([H])C([H])([H])C([H])([H])C([H])(N([H])C(=O)N4C([H])([H])C([H])([H])C([H])([H])C([H])(n5nc(-c6c([H])c([H])c(Oc7c([H])c([H])c(F)c([H])c7F)c([H])c6[H])c(C(=O)N([H])[H])c5N([H])[H])C4([H])[H])C([H])([H])C3([H])[H])c([H])c([H])c2C1([H])[H]

$$$$
29:0:0
     RDKit          3D

 92100  0  0  1  0  0  0  0  0999 V2000
  -29.5690  -19.9040   19.7240 C   0  0  0  0  0  0  0  0  0  0  0  0
  -29.0730  -21.0510   20.3230 N   0  0  0  0  0  0  0  0  0  0  0  0
  -30.0290  -19.9840   18.5850 O   0  0  0  0  0  0  0  0  0  0  0  0
  -28.7050  -20.9500   21.2600 H   0  0  0  0  0  0  0  0  0  0  0  0
  -30.6370  -14.8470   19.4030 C   0  0  0  0  0  0  0  0  0  0  0  0
  -30.1470  -12.6890   18.2420 C   0  0  0  0  0  2  0  0  0  0  0  0
  -29.0380  -12.8960   17.1870 C   0  0  0  0  0  2  0  0  0  0  0  0
  -27.6480  -12.7330   17.8280 C   0  0  0  0  0  2  0  0  0  0  0  0
  -27.5090  -13.5080   19.1680 C   0  0  0  0  0  3  0  0  0  0  0  0
  -28.7260  -13.3000   20.0950 C   0  0  0  0  0  2  0  0  0  0  0  0
  -29.9250  -13.6670   19.3350 N   0  0  0  0  0  0  0  0  0  0  0  0
  -31.7020  -14.9430   18.7810 O   0  0  0  0  0  0  0  0  0  0  0  0
  -30.8770  -18.1060   21.1320 C   0  0  0  0  0  2  0  0  0  0  0  0
  -29.4500  -17.1370   19.5080 C   0  0  0  0  0  2  0  0  0  0  0  0
  -29.5670  -18.4510   20.4160 C   0  0  0  0  0  3  0  0  0  0  0  0
  -31.0560  -16.5530   21.1200 C   0  0  0  0  0  3  0  0  0  0  0  0
  -30.1510  -15.9420   20.1180 N   0  0  0  0  0  0  0  0  0  0  0  0
  -25.2870  -14.0700   20.3150 C   0  0  0  0  0  0  0  0  0  0  0  0
  -24.2690  -13.2860   20.7810 C   0  0  0  0  0  0  0  0  0  0  0  0
  -24.6770  -11.9340   20.5620 C   0  0  0  0  0  0  0  0  0  0  0  0
  -26.2520  -13.1980   19.8410 N   0  0  0  0  0  0  0  0  0  0  0  0
  -25.9020  -11.9030   20.0480 N   0  0  0  0  0  0  0  0  0  0  0  0
  -23.9490  -10.6730   20.7610 C   0  0  0  0  0  0  0  0  0  0  0  0
  -24.4490   -9.6570   21.6040 C   0  0  0  0  0  3  0  0  0  0  0  0
  -23.7230   -8.4620   21.7930 C   0  0  0  0  0  3  0  0  0  0  0  0
  -22.4810   -8.2750   21.1410 C   0  0  0  0  0  0  0  0  0  0  0  0
  -21.9990   -9.2810   20.2870 C   0  0  0  0  0  3  0  0  0  0  0  0
  -22.7250  -10.4680   20.0950 C   0  0  0  0  0  3  0  0  0  0  0  0
  -21.7190   -7.1380   21.2470 O   0  0  0  0  0  0  0  0  0  0  0  0
  -21.6930   -6.3920   22.3980 C   0  0  0  0  0  0  0  0  0  0  0  0
  -21.3180   -6.9480   23.6410 C   0  0  0  0  0  3  0  0  0  0  0  0
  -21.2400   -6.1270   24.7830 C   0  0  0  0  0  3  0  0  0  0  0  0
  -21.5260   -4.7510   24.6850 C   0  0  0  0  0  0  0  0  0  0  0  0
  -21.8930   -4.1970   23.4470 C   0  0  0  0  0  3  0  0  0  0  0  0
  -21.9740   -5.0140   22.3070 C   0  0  0  0  0  0  0  0  0  0  0  0
  -22.3100   -4.4690   21.1130 F   0  0  0  0  0  0  0  0  0  0  0  0
  -21.4430   -3.9610   25.7820 F   0  0  0  0  0  0  0  0  0  0  0  0
  -22.9480  -13.7630   21.3120 C   0  0  0  0  0  0  0  0  0  0  0  0
  -22.3560  -13.0200   22.2400 N   0  0  0  0  0  0  0  0  0  0  0  0
  -22.4580  -14.8280   20.9400 O   0  0  0  0  0  0  0  0  0  0  0  0
  -22.7700  -12.1600   22.5670 H   0  0  0  0  0  0  0  0  0  0  0  0
  -21.4740  -13.3200   22.6300 H   0  0  0  0  0  0  0  0  0  0  0  0
  -25.4640  -15.4480   20.2260 N   0  0  0  0  0  0  0  0  0  0  0  0
  -24.7440  -16.1010   20.5190 H   0  0  0  0  0  0  0  0  0  0  0  0
  -26.2800  -15.9060   19.8400 H   0  0  0  0  0  0  0  0  0  0  0  0
  -32.1070  -16.1690   23.4210 C   0  0  0  0  0  1  0  0  0  0  0  0
  -29.5730  -16.1180   23.1860 C   0  0  0  0  0  1  0  0  0  0  0  0
  -30.9200  -15.8470   22.4960 C   0  0  0  0  0  3  0  0  0  0  0  0
  -28.9640  -22.4410   19.6890 C   0  0  0  0  0  2  0  0  0  0  0  0
  -28.5300  -23.7570   20.5350 C   0  0  0  0  0  3  0  0  0  0  0  0
  -28.3760  -25.1670   19.7460 C   0  0  0  0  0  3  0  0  0  0  0  0
  -28.2420  -26.5050   20.4210 O   0  0  0  0  0  0  0  0  0  0  0  0
  -24.5410  -31.9850   23.3590 C   0  0  0  0  0  0  0  0  0  0  0  0
  -27.1170  -27.3580   20.3280 C   0  0  0  0  0  0  0  0  0  0  0  0
  -23.3290  -30.5850   21.7270 C   0  0  0  0  0  3  0  0  0  0  0  0
  -24.7670  -29.0180   20.2990 C   0  0  0  0  0  0  0  0  0  0  0  0
  -25.8710  -30.8810   21.5400 C   0  0  0  0  0  2  0  0  0  0  0  0
  -25.9400  -29.4950   20.8970 C   0  0  0  0  0  0  0  0  0  0  0  0
  -27.1120  -28.6750   20.8990 C   0  0  0  0  0  3  0  0  0  0  0  0
  -25.9160  -26.9450   19.7040 C   0  0  0  0  0  3  0  0  0  0  0  0
  -24.7620  -27.7530   19.6950 C   0  0  0  0  0  3  0  0  0  0  0  0
  -23.5350  -29.9020   20.3490 C   0  0  0  0  0  2  0  0  0  0  0  0
  -24.6000  -31.1690   22.2660 N   0  0  0  0  0  0  0  0  0  0  0  0
  -23.4610  -32.2710   23.8920 O   0  0  0  0  0  0  0  0  0  0  0  0
  -22.6600  -29.5770   22.6930 C   0  0  0  0  0  0  0  0  0  0  0  0
  -21.3390  -29.3770   22.5460 N   0  0  0  0  0  0  0  0  0  0  0  0
  -23.3310  -28.9780   23.5390 O   0  0  0  0  0  0  0  0  0  0  0  0
  -20.8520  -29.9170   21.8430 H   0  0  0  0  0  0  0  0  0  0  0  0
  -17.9810  -28.0930   22.9630 C   0  0  0  0  0  0  0  0  0  0  0  0
  -20.5200  -28.4390   23.3180 C   0  0  0  0  0  3  0  0  0  0  0  0
  -20.6850  -26.9910   22.7990 C   0  0  0  0  0  2  0  0  0  0  0  0
  -19.6320  -26.6040   21.7560 C   0  0  0  0  0  2  0  0  0  0  0  0
  -18.2230  -26.7270   22.3430 C   0  0  0  0  0  2  0  0  0  0  0  0
  -19.0610  -28.9030   23.4070 C   0  0  0  0  0  0  0  0  0  0  0  0
  -18.7820  -30.1790   23.9450 C   0  0  0  0  0  3  0  0  0  0  0  0
  -17.4580  -30.6430   24.0470 C   0  0  0  0  0  3  0  0  0  0  0  0
  -16.3930  -29.8320   23.6200 C   0  0  0  0  0  3  0  0  0  0  0  0
  -16.6550  -28.5590   23.0850 C   0  0  0  0  0  3  0  0  0  0  0  0
  -25.8260  -32.6170   23.9740 C   0  0  0  0  0  3  0  0  0  0  0  0
  -26.3200  -31.8740   25.2770 C   0  0  1  0  0  0  0  0  0  0  0  0
  -25.2120  -31.6680   26.3360 C   0  0  0  0  0  1  0  0  0  0  0  0
  -26.8970  -30.4820   24.9310 C   0  0  0  0  0  1  0  0  0  0  0  0
  -27.4680  -32.6760   25.9350 C   0  0  0  0  0  1  0  0  0  0  0  0
  -25.5350  -34.0290   24.2640 N   0  0  0  0  0  0  0  0  0  0  0  0
  -25.8800  -35.0570   23.4750 C   0  0  0  0  0  0  0  0  0  0  0  0
  -26.5450  -34.9160   22.4460 O   0  0  0  0  0  0  0  0  0  0  0  0
  -24.9450  -34.2120   25.0620 H   0  0  0  0  0  0  0  0  0  0  0  0
  -24.1700  -36.8590   23.0780 C   0  0  0  0  0  1  0  0  0  0  0  0
  -25.4120  -36.4650   23.8930 C   0  0  0  0  0  3  0  0  0  0  0  0
  -27.5640  -37.3460   24.6760 C   0  0  0  0  0  1  0  0  0  0  0  0
  -26.4560  -37.5010   23.7370 N   0  0  0  0  0  0  0  0  0  0  0  0
  -26.0620  -38.4300   23.8650 H   0  0  0  0  0  0  0  0  0  0  0  0
  1  2  1  0
  2  4  1  0
  3  1  2  0
  5 17  1  0
  6 11  1  0
  7  8  1  0
  7  6  1  0
  9  8  1  0
  9 21  1  0
  9 10  1  0
 11  5  1  0
 11 10  1  0
 12  5  2  0
 14 17  1  0
 14 15  1  0
 15  1  1  0
 15 13  1  0
 16 13  1  0
 16 48  1  0
 17 16  1  0
 18 19  2  0
 19 38  1  0
 20 23  1  0
 20 19  1  0
 21 22  1  0
 21 18  1  0
 22 20  2  0
 23 24  1  0
 24 25  2  0
 26 29  1  0
 26 25  1  0
 27 26  2  0
 28 27  1  0
 28 23  2  0
 29 30  1  0
 30 31  1  0
 31 32  2  0
 33 32  1  0
 33 37  1  0
 34 33  2  0
 35 30  2  0
 35 34  1  0
 36 35  1  0
 38 39  1  0
 39 41  1  0
 39 42  1  0
 40 38  2  0
 43 18  1  0
 43 44  1  0
 45 43  1  0
 48 47  1  0
 48 46  1  0
 49  2  1  0
 49 50  1  0
 51 52  1  0
 51 50  2  0
 53 64  2  0
 54 52  1  0
 54 59  1  0
 55 63  1  0
 55 65  1  0
 56 62  1  0
 56 58  1  0
 57 63  1  0
 58 59  2  0
 58 57  1  0
 60 54  2  0
 61 60  1  0
 61 56  2  0
 62 55  1  0
 63 53  1  0
 65 67  2  0
 66 65  1  0
 68 66  1  0
 69 78  2  0
 69 74  1  0
 70 66  1  0
 70 74  1  0
 71 70  1  0
 72 73  1  0
 72 71  1  0
 73 69  1  0
 74 75  2  0
 75 76  1  0
 77 76  2  0
 78 77  1  0
 79 53  1  0
 79 84  1  0
 79 80  1  0
 80 83  1  1
 80 81  1  0
 82 80  1  0
 84 87  1  0
 85 89  1  0
 85 84  1  0
 86 85  2  0
 89 88  1  0
 91 92  1  0
 91 89  1  0
 91 90  1  0
M  ISO  4   5 100  17 100  51 101  52 101
M  END
>  <TORSDO>  (30) 
F 20

>  <SCORE>  (30) 
-4.974

>  <name>  (30) 
29

>  <ligand_id>  (30) 
29

>  <original_smiles>  (30) 
[H]c1c([H])c([H])c2c(c1[H])C([H])([H])C([H])([H])C([H])([H])C2([H])N([H])C(=O)C1([H])N(C(=O)C([H])(N([H])C(=O)C([H])(N([H])C([H])([H])[H])C([H])([H])[H])C(C([H])([H])[H])(C([H])([H])[H])C([H])([H])[H])C([H])([H])c2c([H])c(OC([H])([H])C([H])([H])C([H])([H])N([H])C(=O)C3([H])C([H])([H])N(C(=O)N4C([H])([H])C([H])([H])C([H])([H])C([H])(n5nc(-c6c([H])c([H])c(Oc7c([H])c([H])c(F)c([H])c7F)c([H])c6[H])c(C(=O)N([H])[H])c5N([H])[H])C4([H])[H])C([H])(C([H])(C([H])([H])[H])C([H])([H])[H])C3([H])[H])c([H])c([H])c2C1([H])[H]

>  <smiles>  (30) 
[H]c1c([H])c([H])c2c(c1[H])C([H])([H])C([H])([H])C([H])([H])C2([H])N([H])C(=O)C1([H])N(C(=O)C([H])(N([H])C(=O)C([H])(N([H])C([H])([H])[H])C([H])([H])[H])C(C([H])([H])[H])(C([H])([H])[H])C([H])([H])[H])C([H])([H])c2c([H])c(OC([H])([H])C([H])([H])C([H])([H])N([H])C(=O)C3([H])C([H])([H])N(C(=O)N4C([H])([H])C([H])([H])C([H])([H])C([H])(n5nc(-c6c([H])c([H])c(Oc7c([H])c([H])c(F)c([H])c7F)c([H])c6[H])c(C(=O)N([H])[H])c5N([H])[H])C4([H])[H])C([H])(C([H])(C([H])([H])[H])C([H])([H])[H])C3([H])[H])c([H])c([H])c2C1([H])[H]

$$$$
30:0:0
     RDKit          3D

 92100  0  0  1  0  0  0  0  0999 V2000
  -29.6850  -20.1540   20.1930 C   0  0  0  0  0  2  0  0  0  0  0  0
  -30.3750  -19.0980   21.0090 N   0  0  0  0  0  4  0  0  0  0  0  0
  -31.2970  -19.4590   21.1960 H   0  0  0  0  0  0  0  0  0  0  0  0
  -29.9200  -19.0180   21.9070 H   0  0  0  0  0  0  0  0  0  0  0  0
  -30.7690  -14.6610   19.8010 C   0  0  0  0  0  0  0  0  0  0  0  0
  -30.2860  -12.5560   18.5970 C   0  0  0  0  0  2  0  0  0  0  0  0
  -29.2250  -12.8130   17.5080 C   0  0  0  0  0  2  0  0  0  0  0  0
  -27.8100  -12.6550   18.0900 C   0  0  0  0  0  2  0  0  0  0  0  0
  -27.6160  -13.4420   19.4160 C   0  0  0  0  0  3  0  0  0  0  0  0
  -28.7880  -13.1950   20.3950 C   0  0  0  0  0  2  0  0  0  0  0  0
  -30.0440  -13.5100   19.6950 N   0  0  0  0  0  0  0  0  0  0  0  0
  -31.8180  -14.8310   19.1750 O   0  0  0  0  0  0  0  0  0  0  0  0
  -29.3820  -16.7490   20.2660 C   0  0  0  0  0  2  0  0  0  0  0  0
  -31.2090  -16.6180   21.2950 C   0  0  0  0  0  3  0  0  0  0  0  0
  -30.5660  -17.7180   20.4170 C   0  0  0  0  0  3  0  0  0  0  0  0
  -30.3090  -15.6380   20.6300 N   0  0  0  0  0  0  0  0  0  0  0  0
  -25.3180  -14.0210   20.4140 C   0  0  0  0  0  0  0  0  0  0  0  0
  -24.2850  -13.2380   20.8510 C   0  0  0  0  0  0  0  0  0  0  0  0
  -24.7220  -11.8860   20.6970 C   0  0  0  0  0  0  0  0  0  0  0  0
  -26.3220  -13.1470   20.0250 N   0  0  0  0  0  0  0  0  0  0  0  0
  -25.9720  -11.8550   20.2500 N   0  0  0  0  0  0  0  0  0  0  0  0
  -24.0010  -10.6210   20.8920 C   0  0  0  0  0  0  0  0  0  0  0  0
  -24.4820   -9.6230   21.7670 C   0  0  0  0  0  3  0  0  0  0  0  0
  -23.7600   -8.4240   21.9550 C   0  0  0  0  0  3  0  0  0  0  0  0
  -22.5420   -8.2160   21.2650 C   0  0  0  0  0  0  0  0  0  0  0  0
  -22.0790   -9.2020   20.3760 C   0  0  0  0  0  3  0  0  0  0  0  0
  -22.8030  -10.3920   20.1880 C   0  0  0  0  0  3  0  0  0  0  0  0
  -21.7870   -7.0720   21.3640 O   0  0  0  0  0  0  0  0  0  0  0  0
  -21.7510   -6.3300   22.5180 C   0  0  0  0  0  0  0  0  0  0  0  0
  -21.3500   -6.8920   23.7510 C   0  0  0  0  0  3  0  0  0  0  0  0
  -21.2590   -6.0780   24.8980 C   0  0  0  0  0  3  0  0  0  0  0  0
  -21.5570   -4.7050   24.8140 C   0  0  0  0  0  0  0  0  0  0  0  0
  -21.9530   -4.1450   23.5870 C   0  0  0  0  0  3  0  0  0  0  0  0
  -22.0450   -4.9540   22.4410 C   0  0  0  0  0  0  0  0  0  0  0  0
  -22.4040   -4.4050   21.2560 F   0  0  0  0  0  0  0  0  0  0  0  0
  -21.4640   -3.9210   25.9140 F   0  0  0  0  0  0  0  0  0  0  0  0
  -22.9330  -13.7100   21.2990 C   0  0  0  0  0  0  0  0  0  0  0  0
  -22.3040  -12.9850   22.2170 N   0  0  0  0  0  0  0  0  0  0  0  0
  -22.4500  -14.7580   20.8720 O   0  0  0  0  0  0  0  0  0  0  0  0
  -22.7080  -12.1330   22.5800 H   0  0  0  0  0  0  0  0  0  0  0  0
  -21.4030  -13.2840   22.5630 H   0  0  0  0  0  0  0  0  0  0  0  0
  -25.4810  -15.3990   20.2950 N   0  0  0  0  0  0  0  0  0  0  0  0
  -24.7360  -16.0490   20.5180 H   0  0  0  0  0  0  0  0  0  0  0  0
  -26.2940  -15.8500   19.8980 H   0  0  0  0  0  0  0  0  0  0  0  0
  -30.9910  -16.6060   22.7890 C   0  0  0  0  0  0  0  0  0  0  0  0
  -31.6040  -15.4210   23.5220 C   0  0  0  0  0  1  0  0  0  0  0  0
  -30.3680  -17.4540   23.4320 O   0  0  0  0  0  0  0  0  0  0  0  0
  -29.8050  -21.6170   20.7810 C   0  0  0  0  0  3  0  0  0  0  0  0
  -29.0280  -22.7590   20.0280 C   0  0  0  0  0  3  0  0  0  0  0  0
  -29.1620  -24.2270   20.5890 C   0  0  0  0  0  2  0  0  0  0  0  0
  -28.1200  -25.2480   20.0080 C   0  0  0  0  0  2  0  0  0  0  0  0
  -28.2460  -26.6520   20.3950 O   0  0  0  0  0  0  0  0  0  0  0  0
  -24.5270  -32.0220   23.3610 C   0  0  0  0  0  0  0  0  0  0  0  0
  -27.1070  -27.4590   20.3250 C   0  0  0  0  0  0  0  0  0  0  0  0
  -23.3060  -30.6160   21.7410 C   0  0  0  0  0  3  0  0  0  0  0  0
  -24.7380  -29.0510   20.3180 C   0  0  0  0  0  0  0  0  0  0  0  0
  -25.8410  -30.9260   21.5390 C   0  0  0  0  0  2  0  0  0  0  0  0
  -25.9090  -29.5450   20.9070 C   0  0  0  0  0  0  0  0  0  0  0  0
  -27.0920  -28.7580   20.9060 C   0  0  0  0  0  3  0  0  0  0  0  0
  -25.9150  -27.0120   19.7040 C   0  0  0  0  0  3  0  0  0  0  0  0
  -24.7400  -27.7860   19.7110 C   0  0  0  0  0  3  0  0  0  0  0  0
  -23.5040  -29.9260   20.3670 C   0  0  0  0  0  2  0  0  0  0  0  0
  -24.5770  -31.2030   22.2720 N   0  0  0  0  0  0  0  0  0  0  0  0
  -23.4480  -32.3120   23.8990 O   0  0  0  0  0  0  0  0  0  0  0  0
  -22.6440  -29.6110   22.7110 C   0  0  0  0  0  0  0  0  0  0  0  0
  -21.3240  -29.4070   22.5590 N   0  0  0  0  0  0  0  0  0  0  0  0
  -23.3150  -29.0160   23.5590 O   0  0  0  0  0  0  0  0  0  0  0  0
  -20.8450  -29.9360   21.8420 H   0  0  0  0  0  0  0  0  0  0  0  0
  -17.9630  -28.1310   22.9720 C   0  0  0  0  0  0  0  0  0  0  0  0
  -20.5000  -28.4780   23.3320 C   0  0  0  0  0  3  0  0  0  0  0  0
  -20.6660  -27.0270   22.8220 C   0  0  0  0  0  2  0  0  0  0  0  0
  -19.6160  -26.6290   21.7810 C   0  0  0  0  0  2  0  0  0  0  0  0
  -18.2060  -26.7610   22.3620 C   0  0  0  0  0  2  0  0  0  0  0  0
  -19.0420  -28.9430   23.4140 C   0  0  0  0  0  0  0  0  0  0  0  0
  -18.7660  -30.2220   23.9430 C   0  0  0  0  0  3  0  0  0  0  0  0
  -17.4440  -30.6930   24.0330 C   0  0  0  0  0  3  0  0  0  0  0  0
  -16.3780  -29.8800   23.6090 C   0  0  0  0  0  3  0  0  0  0  0  0
  -16.6380  -28.5990   23.0870 C   0  0  0  0  0  3  0  0  0  0  0  0
  -25.8190  -32.6480   23.9700 C   0  0  0  0  0  3  0  0  0  0  0  0
  -25.5310  -34.0580   24.2630 N   0  0  0  0  0  0  0  0  0  0  0  0
  -25.8750  -35.0840   23.4740 C   0  0  0  0  0  0  0  0  0  0  0  0
  -26.5400  -34.9420   22.4430 O   0  0  0  0  0  0  0  0  0  0  0  0
  -24.9370  -34.2430   25.0600 H   0  0  0  0  0  0  0  0  0  0  0  0
  -24.1650  -36.8860   23.0830 C   0  0  0  0  0  1  0  0  0  0  0  0
  -25.4110  -36.4920   23.8910 C   0  0  0  0  0  3  0  0  0  0  0  0
  -27.5710  -37.3710   24.6660 C   0  0  0  0  0  1  0  0  0  0  0  0
  -26.4570  -37.5260   23.7330 N   0  0  0  0  0  0  0  0  0  0  0  0
  -26.0670  -38.4570   23.8610 H   0  0  0  0  0  0  0  0  0  0  0  0
  -26.3180  -31.9010   25.2680 C   0  0  1  0  0  0  0  0  0  0  0  0
  -25.2120  -31.6990   26.3320 C   0  0  0  0  0  1  0  0  0  0  0  0
  -26.8880  -30.5080   24.9110 C   0  0  0  0  0  1  0  0  0  0  0  0
  -27.4720  -32.7000   25.9200 C   0  0  0  0  0  1  0  0  0  0  0  0
  1 48  1  0
  1  2  1  0
  2  3  1  0
  2  4  1  0
  5 16  1  0
  6 11  1  0
  7  8  1  0
  7  6  1  0
  9  8  1  0
  9 20  1  0
  9 10  1  0
 11  5  1  0
 11 10  1  0
 12  5  2  0
 13 15  1  0
 13 16  1  0
 14 45  1  0
 15  2  1  0
 15 14  1  0
 16 14  1  0
 17 18  2  0
 18 37  1  0
 19 18  1  0
 19 22  1  0
 20 21  1  0
 20 17  1  0
 21 19  2  0
 22 23  1  0
 23 24  2  0
 25 28  1  0
 25 24  1  0
 26 25  2  0
 27 26  1  0
 27 22  2  0
 28 29  1  0
 29 30  1  0
 30 31  2  0
 32 31  1  0
 32 36  1  0
 33 32  2  0
 34 29  2  0
 34 33  1  0
 35 34  1  0
 37 38  1  0
 38 41  1  0
 38 40  1  0
 39 37  2  0
 42 17  1  0
 42 43  1  0
 44 42  1  0
 45 47  2  0
 45 46  1  0
 49 50  1  0
 49 48  2  0
 51 52  1  0
 51 50  1  0
 53 64  2  0
 54 52  1  0
 54 59  1  0
 55 63  1  0
 55 65  1  0
 56 62  1  0
 56 58  1  0
 57 63  1  0
 58 57  1  0
 59 58  2  0
 60 61  1  0
 60 54  2  0
 61 56  2  0
 62 55  1  0
 63 53  1  0
 65 67  2  0
 66 65  1  0
 68 66  1  0
 69 78  2  0
 69 74  1  0
 70 66  1  0
 70 74  1  0
 71 70  1  0
 72 73  1  0
 72 71  1  0
 73 69  1  0
 74 75  2  0
 75 76  1  0
 77 76  2  0
 78 77  1  0
 79 53  1  0
 79 80  1  0
 79 89  1  0
 80 83  1  0
 81 85  1  0
 81 80  1  0
 82 81  2  0
 85 84  1  0
 87 88  1  0
 87 85  1  0
 87 86  1  0
 89 92  1  1
 89 90  1  0
 91 89  1  0
M  ISO  4   5 100  16 100  51 101  52 101
M  END
>  <TORSDO>  (31) 
F 22

>  <SCORE>  (31) 
-9.271

>  <name>  (31) 
30

>  <ligand_id>  (31) 
30

>  <original_smiles>  (31) 
[H]c1c([H])c([H])c2c(c1[H])C([H])([H])C([H])([H])C([H])([H])C2([H])N([H])C(=O)C1([H])N(C(=O)C([H])(N([H])C(=O)C([H])(N([H])C([H])([H])[H])C([H])([H])[H])C(C([H])([H])[H])(C([H])([H])[H])C([H])([H])[H])C([H])([H])c2c([H])c(OC([H])([H])C([H])([H])C([H])([H])C([H])([H])C([H])([H])[N+]([H])([H])C3([H])C([H])([H])N(C(=O)N4C([H])([H])C([H])([H])C([H])([H])C([H])(n5nc(-c6c([H])c([H])c(Oc7c([H])c([H])c(F)c([H])c7F)c([H])c6[H])c(C(=O)N([H])[H])c5N([H])[H])C4([H])[H])C3([H])C(=O)C([H])([H])[H])c([H])c([H])c2C1([H])[H]

>  <smiles>  (31) 
[H]c1c([H])c([H])c2c(c1[H])C([H])([H])C([H])([H])C([H])([H])C2([H])N([H])C(=O)C1([H])N(C(=O)C([H])(N([H])C(=O)C([H])(N([H])C([H])([H])[H])C([H])([H])[H])C(C([H])([H])[H])(C([H])([H])[H])C([H])([H])[H])C([H])([H])c2c([H])c(OC([H])([H])C([H])([H])C([H])([H])C([H])([H])C([H])([H])[N+]([H])([H])C3([H])C([H])([H])N(C(=O)N4C([H])([H])C([H])([H])C([H])([H])C([H])(n5nc(-c6c([H])c([H])c(Oc7c([H])c([H])c(F)c([H])c7F)c([H])c6[H])c(C(=O)N([H])[H])c5N([H])[H])C4([H])[H])C3([H])C(=O)C([H])([H])[H])c([H])c([H])c2C1([H])[H]

$$$$
31:0:0
     RDKit          3D

 91 99  0  0  1  0  0  0  0  0999 V2000
  -29.1270  -21.7050   20.4200 C   0  0  0  0  0  2  0  0  0  0  0  0
  -29.3740  -22.9020   19.4430 C   0  0  0  0  0  2  0  0  0  0  0  0
  -29.4840  -24.3610   20.0140 C   0  0  0  0  0  2  0  0  0  0  0  0
  -27.5560  -24.7440   21.6280 C   0  0  0  0  0  1  0  0  0  0  0  0
  -28.1610  -25.1440   20.2710 C   0  0  0  0  0  3  0  0  0  0  0  0
  -28.3340  -26.5980   20.2380 O   0  0  0  0  0  0  0  0  0  0  0  0
  -24.5860  -31.9120   23.2610 C   0  0  0  0  0  0  0  0  0  0  0  0
  -27.1930  -27.3970   20.2000 C   0  0  0  0  0  0  0  0  0  0  0  0
  -23.3790  -30.5170   21.6230 C   0  0  0  0  0  3  0  0  0  0  0  0
  -24.8240  -28.9750   20.2010 C   0  0  0  0  0  0  0  0  0  0  0  0
  -25.9160  -30.8490   21.4310 C   0  0  0  0  0  2  0  0  0  0  0  0
  -25.9930  -29.4720   20.7900 C   0  0  0  0  0  0  0  0  0  0  0  0
  -27.1810  -28.6940   20.7810 C   0  0  0  0  0  3  0  0  0  0  0  0
  -25.9980  -26.9420   19.5920 C   0  0  0  0  0  3  0  0  0  0  0  0
  -24.8250  -27.7110   19.5960 C   0  0  0  0  0  3  0  0  0  0  0  0
  -23.5920  -29.8500   20.2420 C   0  0  0  0  0  2  0  0  0  0  0  0
  -24.6470  -31.1060   22.1630 N   0  0  0  0  0  0  0  0  0  0  0  0
  -23.5030  -32.1890   23.7940 O   0  0  0  0  0  0  0  0  0  0  0  0
  -22.7220  -29.4940   22.5770 C   0  0  0  0  0  0  0  0  0  0  0  0
  -21.3980  -29.3040   22.4410 N   0  0  0  0  0  0  0  0  0  0  0  0
  -23.3990  -28.8710   23.4000 O   0  0  0  0  0  0  0  0  0  0  0  0
  -20.9130  -29.8640   21.7530 H   0  0  0  0  0  0  0  0  0  0  0  0
  -18.0280  -28.0730   22.8940 C   0  0  0  0  0  0  0  0  0  0  0  0
  -20.5780  -28.3610   23.2040 C   0  0  0  0  0  3  0  0  0  0  0  0
  -20.7140  -26.9310   22.6350 C   0  0  0  0  0  2  0  0  0  0  0  0
  -19.6250  -26.5730   21.6200 C   0  0  0  0  0  2  0  0  0  0  0  0
  -18.2300  -26.7200   22.2360 C   0  0  0  0  0  2  0  0  0  0  0  0
  -19.1320  -28.8520   23.3340 C   0  0  0  0  0  0  0  0  0  0  0  0
  -18.8890  -30.1170   23.9110 C   0  0  0  0  0  3  0  0  0  0  0  0
  -17.5800  -30.6100   24.0440 C   0  0  0  0  0  3  0  0  0  0  0  0
  -16.4900  -29.8300   23.6170 C   0  0  0  0  0  3  0  0  0  0  0  0
  -16.7150  -28.5630   23.0500 C   0  0  0  0  0  3  0  0  0  0  0  0
  -25.8700  -32.5450   23.8800 C   0  0  0  0  0  3  0  0  0  0  0  0
  -25.5610  -33.9440   24.2010 N   0  0  0  0  0  0  0  0  0  0  0  0
  -25.8990  -34.9910   23.4370 C   0  0  0  0  0  0  0  0  0  0  0  0
  -26.5740  -34.8800   22.4090 O   0  0  0  0  0  0  0  0  0  0  0  0
  -24.9640  -34.1010   24.9990 H   0  0  0  0  0  0  0  0  0  0  0  0
  -24.1770  -36.7870   23.0620 C   0  0  0  0  0  1  0  0  0  0  0  0
  -25.4120  -36.3840   23.8830 C   0  0  0  0  0  3  0  0  0  0  0  0
  -27.5450  -37.2650   24.7190 C   0  0  0  0  0  1  0  0  0  0  0  0
  -26.4470  -37.4340   23.7710 N   0  0  0  0  0  0  0  0  0  0  0  0
  -26.0420  -38.3550   23.9130 H   0  0  0  0  0  0  0  0  0  0  0  0
  -26.3820  -31.7770   25.1610 C   0  0  1  0  0  0  0  0  0  0  0  0
  -25.2880  -31.5460   26.2300 C   0  0  0  0  0  1  0  0  0  0  0  0
  -26.9610  -30.3970   24.7730 C   0  0  0  0  0  1  0  0  0  0  0  0
  -27.5320  -32.5720   25.8220 C   0  0  0  0  0  1  0  0  0  0  0  0
  -29.7010  -20.3340   19.9140 C   0  0  0  0  0  2  0  0  0  0  0  0
  -29.1370  -19.1230   20.5890 N   0  0  0  0  0  4  0  0  0  0  0  0
  -28.9380  -19.3630   21.5450 H   0  0  0  0  0  0  0  0  0  0  0  0
  -28.2540  -18.9100   20.1530 H   0  0  0  0  0  0  0  0  0  0  0  0
  -30.6600  -14.4930   20.1480 C   0  0  0  0  0  0  0  0  0  0  0  0
  -30.2590  -12.3800   18.9260 C   0  0  0  0  0  2  0  0  0  0  0  0
  -29.2510  -12.6200   17.7840 C   0  0  0  0  0  2  0  0  0  0  0  0
  -27.8040  -12.4780   18.2940 C   0  0  0  0  0  2  0  0  0  0  0  0
  -27.5470  -13.2730   19.6000 C   0  0  0  0  0  3  0  0  0  0  0  0
  -28.6630  -13.0230   20.6380 C   0  0  0  0  0  2  0  0  0  0  0  0
  -29.9510  -13.3370   20.0050 N   0  0  0  0  0  0  0  0  0  0  0  0
  -31.7400  -14.6750   19.5790 O   0  0  0  0  0  0  0  0  0  0  0  0
  -30.6000  -17.6210   21.9760 C   0  0  0  0  0  2  0  0  0  0  0  0
  -30.9330  -16.1180   21.9620 C   0  0  0  0  0  2  0  0  0  0  0  0
  -29.2700  -16.5450   20.3340 C   0  0  0  0  0  2  0  0  0  0  0  0
  -29.9900  -17.8910   20.6080 C   0  0  0  0  0  3  0  0  0  0  0  0
  -30.1100  -15.4730   20.9240 N   0  0  0  0  0  0  0  0  0  0  0  0
  -25.1960  -13.8690   20.4480 C   0  0  0  0  0  0  0  0  0  0  0  0
  -24.1500  -13.0950   20.8680 C   0  0  0  0  0  0  0  0  0  0  0  0
  -24.6050  -11.7440   20.7920 C   0  0  0  0  0  0  0  0  0  0  0  0
  -26.2250  -12.9900   20.1500 N   0  0  0  0  0  0  0  0  0  0  0  0
  -25.8770  -11.7060   20.4140 N   0  0  0  0  0  0  0  0  0  0  0  0
  -23.8860  -10.4820   20.9970 C   0  0  0  0  0  0  0  0  0  0  0  0
  -24.3580   -9.5020   21.8980 C   0  0  0  0  0  3  0  0  0  0  0  0
  -23.6400   -8.3040   22.0950 C   0  0  0  0  0  3  0  0  0  0  0  0
  -22.4340   -8.0750   21.3900 C   0  0  0  0  0  0  0  0  0  0  0  0
  -21.9820   -9.0420   20.4750 C   0  0  0  0  0  3  0  0  0  0  0  0
  -22.7000  -10.2320   20.2770 C   0  0  0  0  0  3  0  0  0  0  0  0
  -21.6840   -6.9290   21.4960 O   0  0  0  0  0  0  0  0  0  0  0  0
  -21.6750   -6.1780   22.6450 C   0  0  0  0  0  0  0  0  0  0  0  0
  -21.3020   -6.7270   23.8900 C   0  0  0  0  0  3  0  0  0  0  0  0
  -21.2390   -5.9040   25.0320 C   0  0  0  0  0  3  0  0  0  0  0  0
  -21.5430   -4.5330   24.9290 C   0  0  0  0  0  0  0  0  0  0  0  0
  -21.9110   -3.9840   23.6890 C   0  0  0  0  0  3  0  0  0  0  0  0
  -21.9760   -4.8040   22.5490 C   0  0  0  0  0  0  0  0  0  0  0  0
  -22.3100   -4.2660   21.3510 F   0  0  0  0  0  0  0  0  0  0  0  0
  -21.4750   -3.7400   26.0240 F   0  0  0  0  0  0  0  0  0  0  0  0
  -22.7730  -13.5730   21.2260 C   0  0  0  0  0  0  0  0  0  0  0  0
  -22.0920  -12.8650   22.1200 N   0  0  0  0  0  0  0  0  0  0  0  0
  -22.3130  -14.6080   20.7460 O   0  0  0  0  0  0  0  0  0  0  0  0
  -22.4820  -12.0300   22.5300 H   0  0  0  0  0  0  0  0  0  0  0  0
  -21.1680  -13.1640   22.4010 H   0  0  0  0  0  0  0  0  0  0  0  0
  -25.3480  -15.2400   20.2680 N   0  0  0  0  0  0  0  0  0  0  0  0
  -24.5540  -15.8660   20.3500 H   0  0  0  0  0  0  0  0  0  0  0  0
  -26.1360  -15.6600   19.7930 H   0  0  0  0  0  0  0  0  0  0  0  0
  2  3  1  0
  2  1  1  0
  3  5  1  0
  5  4  1  0
  6  5  1  0
  7 18  2  0
  8  6  1  0
  8 13  1  0
  9 17  1  0
  9 19  1  0
 10 16  1  0
 10 12  1  0
 11 17  1  0
 12 11  1  0
 13 12  2  0
 14 15  1  0
 14  8  2  0
 15 10  2  0
 16  9  1  0
 17  7  1  0
 19 21  2  0
 20 19  1  0
 22 20  1  0
 23 32  2  0
 23 28  1  0
 24 20  1  0
 24 28  1  0
 25 24  1  0
 26 27  1  0
 26 25  1  0
 27 23  1  0
 28 29  2  0
 29 30  1  0
 31 30  2  0
 32 31  1  0
 33  7  1  0
 33 34  1  0
 33 43  1  0
 34 37  1  0
 35 39  1  0
 35 34  1  0
 36 35  2  0
 39 38  1  0
 41 39  1  0
 41 42  1  0
 41 40  1  0
 43 46  1  1
 43 44  1  0
 45 43  1  0
 47  1  1  0
 47 48  1  0
 48 49  1  0
 50 48  1  0
 51 63  1  0
 52 57  1  0
 53 54  1  0
 53 52  1  0
 55 54  1  0
 55 67  1  0
 55 56  1  0
 57 51  1  0
 57 56  1  0
 58 51  2  0
 60 59  1  0
 61 62  1  0
 61 63  1  0
 62 48  1  0
 62 59  1  0
 63 60  1  0
 64 65  2  0
 65 84  1  0
 66 65  1  0
 66 69  1  0
 67 68  1  0
 67 64  1  0
 68 66  2  0
 69 70  1  0
 70 71  2  0
 72 75  1  0
 72 71  1  0
 73 72  2  0
 74 73  1  0
 74 69  2  0
 75 76  1  0
 76 77  1  0
 77 78  2  0
 79 78  1  0
 79 83  1  0
 80 79  2  0
 81 76  2  0
 81 80  1  0
 82 81  1  0
 84 85  1  0
 85 88  1  0
 85 87  1  0
 86 84  2  0
 89 90  1  0
 89 64  1  0
 91 89  1  0
M  ISO  4   5 101   6 101  51 100  63 100
M  END
>  <TORSDO>  (32) 
F 21

>  <SCORE>  (32) 
-13.568

>  <name>  (32) 
31

>  <ligand_id>  (32) 
31

>  <original_smiles>  (32) 
[H]c1c([H])c([H])c2c(c1[H])C([H])([H])C([H])([H])C([H])([H])C2([H])N([H])C(=O)C1([H])N(C(=O)C([H])(N([H])C(=O)C([H])(N([H])C([H])([H])[H])C([H])([H])[H])C(C([H])([H])[H])(C([H])([H])[H])C([H])([H])[H])C([H])([H])c2c([H])c(OC([H])(C([H])([H])[H])C([H])([H])C([H])([H])C([H])([H])C([H])([H])[N+]([H])([H])C3([H])C([H])([H])N(C(=O)N4C([H])([H])C([H])([H])C([H])([H])C([H])(n5nc(-c6c([H])c([H])c(Oc7c([H])c([H])c(F)c([H])c7F)c([H])c6[H])c(C(=O)N([H])[H])c5N([H])[H])C4([H])[H])C([H])([H])C3([H])[H])c([H])c([H])c2C1([H])[H]

>  <smiles>  (32) 
[H]c1c([H])c([H])c2c(c1[H])C([H])([H])C([H])([H])C([H])([H])C2([H])N([H])C(=O)C1([H])N(C(=O)C([H])(N([H])C(=O)C([H])(N([H])C([H])([H])[H])C([H])([H])[H])C(C([H])([H])[H])(C([H])([H])[H])C([H])([H])[H])C([H])([H])c2c([H])c(OC([H])(C([H])([H])[H])C([H])([H])C([H])([H])C([H])([H])C([H])([H])[N+]([H])([H])C3([H])C([H])([H])N(C(=O)N4C([H])([H])C([H])([H])C([H])([H])C([H])(n5nc(-c6c([H])c([H])c(Oc7c([H])c([H])c(F)c([H])c7F)c([H])c6[H])c(C(=O)N([H])[H])c5N([H])[H])C4([H])[H])C([H])([H])C3([H])[H])c([H])c([H])c2C1([H])[H]

$$$$
32:0:0
     RDKit          3D

 94 94  0  0  1  0  0  0  0  0999 V2000
  -26.7990  -23.8470   22.4520 C   0  0  0  0  0  3  0  0  0  0  0  0
  -26.0510  -25.1190   23.0520 C   0  0  0  0  0  3  0  0  0  0  0  0
  -24.9220  -23.0830   21.8160 C   0  0  0  0  0  3  0  0  0  0  0  0
  -26.3660  -22.5670   21.7180 C   0  0  0  0  0  3  0  0  0  0  0  0
  -24.5930  -25.6100   23.1480 C   0  0  0  0  0  3  0  0  0  0  0  0
  -24.1630  -24.3400   22.4090 C   0  0  0  0  0  0  0  0  0  0  0  0
  -22.8200  -24.2730   22.2400 F   0  0  0  0  0  0  0  0  0  0  0  0
  -27.0930  -20.8580   20.9070 C   0  0  0  0  0 15  0  0  0  0  0  0
  -28.6450  -19.5320   20.3580 C   0  0  0  0  0 15  0  0  0  0  0  0
  -30.2560  -16.5210   19.7060 C   0  0  0  0  0  0  0  0  0  0  0  0
  -30.9310  -13.9430   18.8510 C   0  0  0  0  0  2  0  0  0  0  0  0
  -30.1160  -13.2160   17.7130 C   0  0  0  0  0  2  0  0  0  0  0  0
  -28.7500  -12.7340   18.2190 C   0  0  0  0  0  2  0  0  0  0  0  0
  -28.1750  -13.7940   19.1780 C   0  0  0  0  0  3  0  0  0  0  0  0
  -29.1320  -14.2200   20.2970 C   0  0  0  0  0  2  0  0  0  0  0  0
  -30.1220  -15.0410   19.6310 N   0  0  0  0  0  0  0  0  0  0  0  0
  -31.4400  -16.6740   19.2790 O   0  0  0  0  0  0  0  0  0  0  0  0
  -29.1620  -17.6950   20.1240 N   0  0  0  0  0  2  0  0  0  0  0  0
  -28.3500  -17.1580   20.4020 H   0  0  0  0  0  0  0  0  0  0  0  0
  -25.9490  -14.3520   20.1800 C   0  0  0  0  0  0  0  0  0  0  0  0
  -24.9270  -13.5790   20.6370 C   0  0  0  0  0  0  0  0  0  0  0  0
  -25.3530  -12.2220   20.4790 C   0  0  0  0  0  0  0  0  0  0  0  0
  -26.9090  -13.4610   19.7540 N   0  0  0  0  0  0  0  0  0  0  0  0
  -26.5880  -12.1720   20.0040 N   0  0  0  0  0  0  0  0  0  0  0  0
  -24.6270  -10.9690   20.6900 C   0  0  0  0  0  0  0  0  0  0  0  0
  -25.0550  -10.0150   21.6370 C   0  0  0  0  0  3  0  0  0  0  0  0
  -24.3220   -8.8240   21.8310 C   0  0  0  0  0  3  0  0  0  0  0  0
  -23.1500   -8.5850   21.0740 C   0  0  0  0  0  0  0  0  0  0  0  0
  -22.7440   -9.5280   20.1150 C   0  0  0  0  0  3  0  0  0  0  0  0
  -23.4770  -10.7080   19.9200 C   0  0  0  0  0  3  0  0  0  0  0  0
  -22.3860   -7.4480   21.1770 O   0  0  0  0  0  0  0  0  0  0  0  0
  -22.2030   -6.8120   22.3770 C   0  0  0  0  0  0  0  0  0  0  0  0
  -21.6550   -7.4750   23.4960 C   0  0  0  0  0  3  0  0  0  0  0  0
  -21.4190   -6.7650   24.6900 C   0  0  0  0  0  3  0  0  0  0  0  0
  -21.7210   -5.3910   24.7630 C   0  0  0  0  0  0  0  0  0  0  0  0
  -22.2620   -4.7280   23.6470 C   0  0  0  0  0  3  0  0  0  0  0  0
  -22.5000   -5.4370   22.4560 C   0  0  0  0  0  0  0  0  0  0  0  0
  -23.0020   -4.7900   21.3770 F   0  0  0  0  0  0  0  0  0  0  0  0
  -21.4880   -4.7050   25.9050 F   0  0  0  0  0  0  0  0  0  0  0  0
  -23.5910  -14.0750   21.0930 C   0  0  0  0  0  0  0  0  0  0  0  0
  -22.9610  -13.3670   22.0210 N   0  0  0  0  0  0  0  0  0  0  0  0
  -23.1240  -15.1280   20.6600 O   0  0  0  0  0  0  0  0  0  0  0  0
  -23.3580  -12.5150   22.3890 H   0  0  0  0  0  0  0  0  0  0  0  0
  -22.0670  -13.6810   22.3700 H   0  0  0  0  0  0  0  0  0  0  0  0
  -26.1380  -15.7290   20.0640 N   0  0  0  0  0  0  0  0  0  0  0  0
  -25.3860  -16.3750   20.2790 H   0  0  0  0  0  0  0  0  0  0  0  0
  -26.8620  -16.1450   19.4910 H   0  0  0  0  0  0  0  0  0  0  0  0
  -23.5880  -27.1130   24.0730 C   0  0  0  0  0 15  0  0  0  0  0  0
  -23.4640  -30.1770   24.6270 C   0  0  0  0  0  1  0  0  0  0  0  0
  -22.7260  -29.1570   23.7550 C   0  0  0  0  0  1  0  0  0  0  0  0
  -21.9660  -31.4950   21.3610 C   0  0  0  0  0  1  0  0  0  0  0  0
  -22.0980  -29.9330   21.5580 C   0  0  0  0  0  1  0  0  0  0  0  0
  -22.5340  -28.6310   19.8060 C   0  0  0  0  0 15  0  0  0  0  0  0
  -23.9960  -27.3980   19.5380 O   0  0  0  0  0  1  0  0  0  0  0  0
  -25.9160  -30.9820   23.2160 C   0  0  0  0  0  0  0  0  0  0  0  0
  -25.3960  -27.2770   19.0630 C   0  0  0  0  0  3  0  0  0  0  0  0
  -24.4330  -29.7700   21.6430 C   0  0  0  0  0  3  0  0  0  0  0  0
  -25.1080  -29.7560   19.2340 C   0  0  0  0  0  3  0  0  0  0  0  0
  -26.7740  -30.0760   21.0570 C   0  0  0  0  0  2  0  0  0  0  0  0
  -26.2530  -29.2910   19.8750 C   0  0  0  0  0  3  0  0  0  0  0  0
  -26.4960  -27.9350   19.6980 C   0  0  0  0  0  2  0  0  0  0  0  0
  -25.1740  -27.7690   17.8160 C   0  0  0  0  0  2  0  0  0  0  0  0
  -24.6660  -29.0710   18.0490 C   0  0  0  0  0  2  0  0  0  0  0  0
  -24.2890  -30.5510   20.2170 C   0  0  0  0  0  2  0  0  0  0  0  0
  -25.7320  -30.2390   22.0870 N   0  0  0  0  0  0  0  0  0  0  0  0
  -25.0040  -31.4440   23.9260 O   0  0  0  0  0  0  0  0  0  0  0  0
  -24.0760  -28.0660   21.9360 C   0  0  0  0  0  0  0  0  0  0  0  0
  -22.7100  -27.1890   21.6470 N   0  0  0  0  0  0  0  0  0  0  0  0
  -24.8670  -27.6190   22.7070 O   0  0  0  0  0  0  0  0  0  0  0  0
  -22.9770  -26.2120   21.6680 H   0  0  0  0  0  0  0  0  0  0  0  0
  -18.3180  -28.4630   22.3900 C   0  0  0  0  0  0  0  0  0  0  0  0
  -20.8840  -27.2850   22.0730 C   0  0  0  0  0  3  0  0  0  0  0  0
  -20.2660  -26.5780   20.9820 C   0  0  0  0  0  2  0  0  0  0  0  0
  -19.1480  -27.3470   20.3490 C   0  0  0  0  0  2  0  0  0  0  0  0
  -17.9810  -27.4950   21.3120 C   0  0  0  0  0  2  0  0  0  0  0  0
  -19.6970  -28.5120   22.7970 C   0  0  0  0  0  0  0  0  0  0  0  0
  -19.7860  -29.6490   23.7550 C   0  0  0  0  0  3  0  0  0  0  0  0
  -18.7190  -30.4990   24.2230 C   0  0  0  0  0  3  0  0  0  0  0  0
  -17.4060  -30.3040   23.7830 C   0  0  0  0  0  3  0  0  0  0  0  0
  -17.2300  -29.2740   22.8550 C   0  0  0  0  0  3  0  0  0  0  0  0
  -27.3530  -31.1810   23.6940 C   0  0  0  0  0  3  0  0  0  0  0  0
  -27.4110  -32.4780   24.3720 N   0  0  0  0  0  0  0  0  0  0  0  0
  -27.7670  -33.6180   23.7750 C   0  0  0  0  0  0  0  0  0  0  0  0
  -28.1470  -33.6680   22.6020 O   0  0  0  0  0  0  0  0  0  0  0  0
  -27.0580  -32.5170   25.3180 H   0  0  0  0  0  0  0  0  0  0  0  0
  -26.4700  -35.7210   24.2580 C   0  0  0  0  0  1  0  0  0  0  0  0
  -27.7170  -34.9000   24.6240 C   0  0  0  0  0  3  0  0  0  0  0  0
  -30.1240  -35.1170   25.0540 C   0  0  0  0  0  1  0  0  0  0  0  0
  -28.9290  -35.7350   24.4830 N   0  0  0  0  0  0  0  0  0  0  0  0
  -28.7960  -36.6390   24.9300 H   0  0  0  0  0  0  0  0  0  0  0  0
  -27.8070  -30.0120   24.6430 C   0  0  1  0  0  0  0  0  0  0  0  0
  -26.8590  -29.7310   25.8390 C   0  0  0  0  0  1  0  0  0  0  0  0
  -28.0080  -28.6800   23.8800 C   0  0  0  0  0  1  0  0  0  0  0  0
  -29.1950  -30.3710   25.2050 C   0  0  0  0  0  1  0  0  0  0  0  0
  1  2  1  0
  2  5  2  0
  3  6  2  0
  4  3  1  0
  4  1  2  0
  6  5  1  0
  7  6  1  0
 10 18  1  0
 11 16  1  0
 12 13  1  0
 12 11  1  0
 14 13  1  0
 14 23  1  0
 14 15  1  0
 16 10  1  0
 16 15  1  0
 17 10  2  0
 18 19  1  0
 20 21  2  0
 21 40  1  0
 22 21  1  0
 22 25  1  0
 23 24  1  0
 23 20  1  0
 24 22  2  0
 25 26  1  0
 26 27  2  0
 28 31  1  0
 28 27  1  0
 29 28  2  0
 30 29  1  0
 30 25  2  0
 31 32  1  0
 32 37  2  0
 32 33  1  0
 33 34  2  0
 34 35  1  0
 35 39  1  0
 36 35  2  0
 37 36  1  0
 38 37  1  0
 40 41  1  0
 41 44  1  0
 41 43  1  0
 42 40  2  0
 45 20  1  0
 45 46  1  0
 47 45  1  0
 50 49  1  0
 51 52  1  0
 55 66  2  0
 56 54  1  0
 56 61  1  0
 57 67  1  0
 57 65  1  0
 58 63  1  0
 58 60  1  0
 58 64  1  0
 59 65  1  0
 60 61  1  0
 60 59  1  0
 62 63  1  0
 62 56  1  0
 64 57  1  0
 65 55  1  0
 67 69  2  0
 68 70  1  0
 68 67  1  0
 71 76  2  0
 71 80  1  0
 72 68  1  0
 72 76  1  0
 73 72  1  0
 74 73  1  0
 74 75  1  0
 75 71  1  0
 76 77  1  0
 77 78  2  0
 79 78  1  0
 80 79  2  0
 81 55  1  0
 81 82  1  0
 81 91  1  0
 82 85  1  0
 83 82  1  0
 83 87  1  0
 84 83  2  0
 87 86  1  0
 89 87  1  0
 89 90  1  0
 89 88  1  0
 91 94  1  1
 91 92  1  0
 93 91  1  0
M  ISO  4  10 100  18 100  53 101  54 101
M  END
>  <TORSDO>  (33) 
F 22

>  <SCORE>  (33) 
-5.759

>  <name>  (33) 
32

>  <ligand_id>  (33) 
32

>  <original_smiles>  (33) 
[H]c1c([H])c([H])c2c(c1[H])C([H])([H])C([H])([H])C([H])([H])C2([H])N([H])C(=O)C1([H])N(C(=O)C([H])(N([H])C(=O)C([H])(N([H])C([H])([H])[H])C([H])([H])[H])C(C([H])([H])[H])(C([H])([H])[H])C([H])([H])[H])C([H])([H])c2c([H])c(OC([H])([H])C([H])(C([H])([H])[H])C([H])(C([H])([H])[H])C([H])([H])c3c([H])c([H])c(C([H])([H])C([H])([H])N([H])C(=O)N4C([H])([H])C([H])([H])C([H])([H])C([H])(n5nc(-c6c([H])c([H])c(Oc7c([H])c([H])c(F)c([H])c7F)c([H])c6[H])c(C(=O)N([H])[H])c5N([H])[H])C4([H])[H])c([H])c3F)c([H])c([H])c2C1([H])[H]

>  <smiles>  (33) 
[H]c1c([H])c([H])c2c(c1[H])C([H])([H])C([H])([H])C([H])([H])C2([H])N([H])C(=O)C1([H])N(C(=O)C([H])(N([H])C(=O)C([H])(N([H])C([H])([H])[H])C([H])([H])[H])C(C([H])([H])[H])(C([H])([H])[H])C([H])([H])[H])C([H])([H])c2c([H])c(OC([H])([H])C([H])(C([H])([H])[H])C([H])(C([H])([H])[H])C([H])([H])c3c([H])c([H])c(C([H])([H])C([H])([H])N([H])C(=O)N4C([H])([H])C([H])([H])C([H])([H])C([H])(n5nc(-c6c([H])c([H])c(Oc7c([H])c([H])c(F)c([H])c7F)c([H])c6[H])c(C(=O)N([H])[H])c5N([H])[H])C4([H])[H])c([H])c3F)c([H])c([H])c2C1([H])[H]

$$$$
33:0:0
     RDKit          3D

 89 97  0  0  1  0  0  0  0  0999 V2000
  -29.8480  -21.2750   20.5540 C   0  0  0  0  0  3  0  0  0  0  0  0
  -29.3760  -19.8100   20.9310 C   0  0  0  0  0  0  0  0  0  0  0  0
  -28.7960  -19.6650   22.0100 O   0  0  0  0  0  0  0  0  0  0  0  0
  -30.8610  -14.8170   20.5260 C   0  0  0  0  0  0  0  0  0  0  0  0
  -30.6990  -12.5070   19.6550 C   0  0  0  0  0  2  0  0  0  0  0  0
  -29.8220  -12.5390   18.3830 C   0  0  0  0  0  2  0  0  0  0  0  0
  -28.3200  -12.4670   18.7160 C   0  0  0  0  0  2  0  0  0  0  0  0
  -27.8990  -13.3490   19.9250 C   0  0  0  0  0  3  0  0  0  0  0  0
  -28.9120  -13.2910   21.0880 C   0  0  0  0  0  2  0  0  0  0  0  0
  -30.2300  -13.6010   20.5230 N   0  0  0  0  0  0  0  0  0  0  0  0
  -32.0920  -14.8920   20.4760 O   0  0  0  0  0  0  0  0  0  0  0  0
  -30.4100  -17.4570   17.9670 C   0  0  0  0  0  3  0  0  0  0  0  0
  -30.6720  -18.5930   18.9630 C   0  0  0  0  0  2  0  0  0  0  0  0
  -30.1160  -16.0580   18.5710 C   0  0  0  0  0  3  0  0  0  0  0  0
  -29.8710  -17.1440   20.8530 C   0  0  0  0  0  2  0  0  0  0  0  0
  -29.6110  -18.5050   20.0550 C   0  0  0  0  0  3  0  0  0  0  0  0
  -30.1250  -15.8900   20.0520 N   0  0  0  0  0  0  0  0  0  0  0  0
  -25.4790  -13.9260   20.5370 C   0  0  0  0  0  0  0  0  0  0  0  0
  -24.4030  -13.1470   20.8550 C   0  0  0  0  0  0  0  0  0  0  0  0
  -24.8790  -11.7970   20.8630 C   0  0  0  0  0  0  0  0  0  0  0  0
  -26.5410  -13.0530   20.3640 N   0  0  0  0  0  0  0  0  0  0  0  0
  -26.1840  -11.7690   20.6240 N   0  0  0  0  0  0  0  0  0  0  0  0
  -24.1560  -10.5330   21.0290 C   0  0  0  0  0  0  0  0  0  0  0  0
  -24.5590   -9.5700   21.9820 C   0  0  0  0  0  3  0  0  0  0  0  0
  -23.8320   -8.3700   22.1360 C   0  0  0  0  0  3  0  0  0  0  0  0
  -22.6900   -8.1240   21.3370 C   0  0  0  0  0  0  0  0  0  0  0  0
  -22.3090   -9.0740   20.3750 C   0  0  0  0  0  3  0  0  0  0  0  0
  -23.0340  -10.2670   20.2190 C   0  0  0  0  0  3  0  0  0  0  0  0
  -21.9340   -6.9770   21.4010 O   0  0  0  0  0  0  0  0  0  0  0  0
  -21.8490   -6.2310   22.5490 C   0  0  0  0  0  0  0  0  0  0  0  0
  -21.3670   -6.7770   23.7570 C   0  0  0  0  0  3  0  0  0  0  0  0
  -21.2330   -5.9580   24.8970 C   0  0  0  0  0  3  0  0  0  0  0  0
  -21.5660   -4.5920   24.8230 C   0  0  0  0  0  0  0  0  0  0  0  0
  -22.0470   -4.0450   23.6190 C   0  0  0  0  0  3  0  0  0  0  0  0
  -22.1840   -4.8610   22.4840 C   0  0  0  0  0  0  0  0  0  0  0  0
  -22.6220   -4.3260   21.3200 F   0  0  0  0  0  0  0  0  0  0  0  0
  -21.4320   -3.8030   25.9140 F   0  0  0  0  0  0  0  0  0  0  0  0
  -22.9890  -13.6140   21.0430 C   0  0  0  0  0  0  0  0  0  0  0  0
  -22.2240  -12.9260   21.8830 N   0  0  0  0  0  0  0  0  0  0  0  0
  -22.5730  -14.6260   20.4820 O   0  0  0  0  0  0  0  0  0  0  0  0
  -22.5800  -12.1090   22.3580 H   0  0  0  0  0  0  0  0  0  0  0  0
  -21.2720  -13.2170   22.0480 H   0  0  0  0  0  0  0  0  0  0  0  0
  -25.6470  -15.2960   20.3500 N   0  0  0  0  0  0  0  0  0  0  0  0
  -24.8780  -15.9550   20.4190 H   0  0  0  0  0  0  0  0  0  0  0  0
  -26.5230  -15.7300   20.0880 H   0  0  0  0  0  0  0  0  0  0  0  0
  -28.7750  -22.4030   20.1790 C   0  0  0  0  0  3  0  0  0  0  0  0
  -29.1730  -23.9630   20.2600 C   0  0  0  0  0  3  0  0  0  0  0  0
  -28.0870  -25.0700   19.8310 C   0  0  0  0  0  3  0  0  0  0  0  0
  -28.3340  -26.5230   20.1070 O   0  0  0  0  0  0  0  0  0  0  0  0
  -24.5990  -31.9070   23.2690 C   0  0  0  0  0  0  0  0  0  0  0  0
  -27.2310  -27.4030   20.0850 C   0  0  0  0  0  0  0  0  0  0  0  0
  -23.4070  -30.5270   21.6100 C   0  0  0  0  0  3  0  0  0  0  0  0
  -24.8600  -29.0250   20.1390 C   0  0  0  0  0  0  0  0  0  0  0  0
  -25.9460  -30.8590   21.4300 C   0  0  0  0  0  2  0  0  0  0  0  0
  -26.0300  -29.4930   20.7490 C   0  0  0  0  0  0  0  0  0  0  0  0
  -27.2170  -28.6900   20.7180 C   0  0  0  0  0  3  0  0  0  0  0  0
  -26.0320  -27.0060   19.4440 C   0  0  0  0  0  3  0  0  0  0  0  0
  -24.8610  -27.7860   19.4790 C   0  0  0  0  0  3  0  0  0  0  0  0
  -23.6170  -29.8930   20.2120 C   0  0  0  0  0  2  0  0  0  0  0  0
  -24.6710  -31.1140   22.1600 N   0  0  0  0  0  0  0  0  0  0  0  0
  -23.5150  -32.1660   23.8120 O   0  0  0  0  0  0  0  0  0  0  0  0
  -22.7570  -29.4810   22.5490 C   0  0  0  0  0  0  0  0  0  0  0  0
  -21.4330  -29.2930   22.4240 N   0  0  0  0  0  0  0  0  0  0  0  0
  -23.4440  -28.8460   23.3530 O   0  0  0  0  0  0  0  0  0  0  0  0
  -20.9360  -29.8570   21.7510 H   0  0  0  0  0  0  0  0  0  0  0  0
  -18.0650  -28.0640   22.8980 C   0  0  0  0  0  0  0  0  0  0  0  0
  -20.6210  -28.3370   23.1780 C   0  0  0  0  0  3  0  0  0  0  0  0
  -20.7370  -26.9170   22.5820 C   0  0  0  0  0  2  0  0  0  0  0  0
  -19.6410  -26.6030   21.5590 C   0  0  0  0  0  2  0  0  0  0  0  0
  -18.2570  -26.7270   22.2020 C   0  0  0  0  0  2  0  0  0  0  0  0
  -19.1770  -28.8290   23.3420 C   0  0  0  0  0  0  0  0  0  0  0  0
  -18.9480  -30.0800   23.9540 C   0  0  0  0  0  3  0  0  0  0  0  0
  -17.6380  -30.5690   24.1270 C   0  0  0  0  0  3  0  0  0  0  0  0
  -16.5410  -29.8020   23.7020 C   0  0  0  0  0  3  0  0  0  0  0  0
  -16.7560  -28.5510   23.0950 C   0  0  0  0  0  3  0  0  0  0  0  0
  -25.8780  -32.5430   23.8940 C   0  0  0  0  0  3  0  0  0  0  0  0
  -26.3950  -31.7680   25.1670 C   0  0  1  0  0  0  0  0  0  0  0  0
  -25.3020  -31.5180   26.2300 C   0  0  0  0  0  1  0  0  0  0  0  0
  -26.9850  -30.3940   24.7710 C   0  0  0  0  0  1  0  0  0  0  0  0
  -27.5360  -32.5680   25.8410 C   0  0  0  0  0  1  0  0  0  0  0  0
  -25.5570  -33.9360   24.2260 N   0  0  0  0  0  0  0  0  0  0  0  0
  -25.8940  -34.9970   23.4770 C   0  0  0  0  0  0  0  0  0  0  0  0
  -26.5790  -34.9050   22.4540 O   0  0  0  0  0  0  0  0  0  0  0  0
  -24.9350  -34.0810   25.0090 H   0  0  0  0  0  0  0  0  0  0  0  0
  -24.1670  -36.7910   23.1260 C   0  0  0  0  0  1  0  0  0  0  0  0
  -25.4000  -36.3790   23.9450 C   0  0  0  0  0  3  0  0  0  0  0  0
  -27.5200  -37.2630   24.8150 C   0  0  0  0  0  1  0  0  0  0  0  0
  -26.4320  -37.4360   23.8530 N   0  0  0  0  0  0  0  0  0  0  0  0
  -26.0180  -38.3500   24.0090 H   0  0  0  0  0  0  0  0  0  0  0  0
  1  2  1  0
  2  3  2  0
  5 10  1  0
  6  7  1  0
  6  5  1  0
  8  7  1  0
  8 21  1  0
  8  9  1  0
 10  4  1  0
 10  9  1  0
 11  4  2  0
 12 14  2  0
 12 13  1  0
 13 16  1  0
 14 17  1  0
 16 15  1  0
 16  2  1  0
 17  4  1  0
 17 15  1  0
 18 19  2  0
 19 20  1  0
 19 38  1  0
 20 23  1  0
 21 18  1  0
 21 22  1  0
 22 20  2  0
 23 24  1  0
 24 25  2  0
 26 29  1  0
 26 25  1  0
 27 26  2  0
 28 27  1  0
 28 23  2  0
 29 30  1  0
 30 31  1  0
 31 32  2  0
 33 32  1  0
 33 37  1  0
 34 33  2  0
 35 30  2  0
 35 34  1  0
 36 35  1  0
 38 39  1  0
 39 42  1  0
 39 41  1  0
 40 38  2  0
 43 44  1  0
 43 18  1  0
 45 43  1  0
 46 47  1  0
 46  1  2  0
 48 49  1  0
 48 47  2  0
 50 61  2  0
 51 49  1  0
 51 56  1  0
 52 60  1  0
 52 62  1  0
 53 59  1  0
 53 55  1  0
 54 60  1  0
 55 54  1  0
 56 55  2  0
 57 58  1  0
 57 51  2  0
 58 53  2  0
 59 52  1  0
 60 50  1  0
 62 64  2  0
 63 62  1  0
 65 63  1  0
 66 75  2  0
 66 71  1  0
 67 63  1  0
 67 71  1  0
 68 67  1  0
 69 70  1  0
 69 68  1  0
 70 66  1  0
 71 72  2  0
 72 73  1  0
 74 73  2  0
 75 74  1  0
 76 50  1  0
 76 81  1  0
 76 77  1  0
 77 80  1  1
 77 78  1  0
 79 77  1  0
 81 84  1  0
 82 86  1  0
 82 81  1  0
 83 82  2  0
 86 85  1  0
 88 86  1  0
 88 89  1  0
 88 87  1  0
M  ISO  4   4 100  17 100  48 101  49 101
M  END
>  <TORSDO>  (34) 
F 20

>  <SCORE>  (34) 
-11.984

>  <name>  (34) 
33

>  <ligand_id>  (34) 
33

>  <original_smiles>  (34) 
[H]c1c([H])c([H])c2c(c1[H])C([H])([H])C([H])([H])C([H])([H])C2([H])N([H])C(=O)C1([H])N(C(=O)C([H])(N([H])C(=O)C([H])(N([H])C([H])([H])[H])C([H])([H])[H])C(C([H])([H])[H])(C([H])([H])[H])C([H])([H])[H])C([H])([H])c2c([H])c(OC([H])([H])C([H])([H])C([H])([H])C([H])([H])C(=O)C3([H])C([H])([H])N(C(=O)N4C([H])([H])C([H])([H])C([H])([H])C([H])(n5nc(-c6c([H])c([H])c(Oc7c([H])c([H])c(F)c([H])c7F)c([H])c6[H])c(C(=O)N([H])[H])c5N([H])[H])C4([H])[H])C([H])([H])C([H])([H])C3([H])[H])c([H])c([H])c2C1([H])[H]

>  <smiles>  (34) 
[H]c1c([H])c([H])c2c(c1[H])C([H])([H])C([H])([H])C([H])([H])C2([H])N([H])C(=O)C1([H])N(C(=O)C([H])(N([H])C(=O)C([H])(N([H])C([H])([H])[H])C([H])([H])[H])C(C([H])([H])[H])(C([H])([H])[H])C([H])([H])[H])C([H])([H])c2c([H])c(OC([H])([H])C([H])([H])C([H])([H])C([H])([H])C(=O)C3([H])C([H])([H])N(C(=O)N4C([H])([H])C([H])([H])C([H])([H])C([H])(n5nc(-c6c([H])c([H])c(Oc7c([H])c([H])c(F)c([H])c7F)c([H])c6[H])c(C(=O)N([H])[H])c5N([H])[H])C4([H])[H])C([H])([H])C([H])([H])C3([H])[H])c([H])c([H])c2C1([H])[H]

$$$$
34:0:0
     RDKit          3D

 96102  0  0  1  0  0  0  0  0999 V2000
  -25.0820  -26.9170   21.7590 C   0  0  0  0  0  1  0  0  0  0  0  0
  -23.8280  -29.0150   19.5060 C   0  0  0  0  0  3  0  0  0  0  0  0
  -26.3010  -24.8470   21.3810 C   0  0  0  0  0  1  0  0  0  0  0  0
  -24.4020  -28.3440   18.1160 C   0  0  1  0  0  0  0  0  0  0  0  0
  -25.9870  -25.7530   19.2370 C   0  0  0  0  0  2  0  0  0  0  0  0
  -25.4950  -24.7270   20.2070 N   0  0  0  0  0  4  0  0  0  0  0  0
  -24.5190  -24.8770   20.4130 H   0  0  0  0  0  0  0  0  0  0  0  0
  -25.6190  -23.8120   19.8120 H   0  0  0  0  0  0  0  0  0  0  0  0
  -25.8640  -29.4640   15.9820 C   0  0  0  0  0  1  0  0  0  0  0  0
  -24.9450  -29.6090   17.2270 C   0  0  0  0  0  3  0  0  0  0  0  0
  -25.6040  -30.5030   17.9680 F   0  0  0  0  0  0  0  0  0  0  0  0
  -27.3070  -22.5550   21.6100 C   0  0  0  0  0  2  0  0  0  0  0  0
  -27.1220  -22.2510   22.7910 O   0  0  0  0  0  0  0  0  0  0  0  0
  -28.4320  -20.6980   20.8120 C   0  0  0  0  0 15  0  0  0  0  0  0
  -29.8600  -16.9730   20.3280 C   0  0  0  0  0  0  0  0  0  0  0  0
  -30.5230  -14.2460   19.3320 C   0  0  0  0  0  2  0  0  0  0  0  0
  -29.8410  -13.3310   18.2090 C   0  0  0  0  0  2  0  0  0  0  0  0
  -28.5520  -12.6730   18.6940 C   0  0  0  0  0  2  0  0  0  0  0  0
  -27.8860  -13.6810   19.6400 C   0  0  0  0  0  3  0  0  0  0  0  0
  -28.7790  -14.3410   20.7340 C   0  0  0  0  0  2  0  0  0  0  0  0
  -29.6430  -15.3960   20.0910 N   0  0  0  0  0  0  0  0  0  0  0  0
  -31.1180  -16.8430   20.0810 O   0  0  0  0  0  0  0  0  0  0  0  0
  -28.9610  -18.5590   20.6580 N   0  0  0  0  0  2  0  0  0  0  0  0
  -29.8980  -18.8680   20.8800 H   0  0  0  0  0  0  0  0  0  0  0  0
  -25.6450  -14.1300   20.6060 C   0  0  0  0  0  0  0  0  0  0  0  0
  -24.6010  -13.3450   20.9780 C   0  0  0  0  0  0  0  0  0  0  0  0
  -25.0180  -11.9940   20.7580 C   0  0  0  0  0  0  0  0  0  0  0  0
  -26.6250  -13.2640   20.1850 N   0  0  0  0  0  0  0  0  0  0  0  0
  -26.2800  -11.9590   20.3300 N   0  0  0  0  0  0  0  0  0  0  0  0
  -24.2550  -10.7470   20.8740 C   0  0  0  0  0  0  0  0  0  0  0  0
  -24.6380   -9.7220   21.7660 C   0  0  0  0  0  3  0  0  0  0  0  0
  -23.8640   -8.5470   21.8770 C   0  0  0  0  0  3  0  0  0  0  0  0
  -22.6920   -8.3930   21.0990 C   0  0  0  0  0  0  0  0  0  0  0  0
  -22.3290   -9.4060   20.1950 C   0  0  0  0  0  3  0  0  0  0  0  0
  -23.1040  -10.5720   20.0810 C   0  0  0  0  0  3  0  0  0  0  0  0
  -21.8890   -7.2790   21.1230 O   0  0  0  0  0  0  0  0  0  0  0  0
  -21.6740   -6.5720   22.2770 C   0  0  0  0  0  0  0  0  0  0  0  0
  -21.0540   -7.1550   23.4030 C   0  0  0  0  0  3  0  0  0  0  0  0
  -20.7880   -6.3730   24.5450 C   0  0  0  0  0  3  0  0  0  0  0  0
  -21.1310   -5.0080   24.5580 C   0  0  0  0  0  0  0  0  0  0  0  0
  -21.7440   -4.4220   23.4360 C   0  0  0  0  0  3  0  0  0  0  0  0
  -22.0110   -5.2030   22.2970 C   0  0  0  0  0  0  0  0  0  0  0  0
  -22.5810   -4.6320   21.2090 F   0  0  0  0  0  0  0  0  0  0  0  0
  -20.8690   -4.2510   25.6500 F   0  0  0  0  0  0  0  0  0  0  0  0
  -23.2600  -13.8410   21.4150 C   0  0  0  0  0  0  0  0  0  0  0  0
  -22.5710  -13.0830   22.2580 N   0  0  0  0  0  0  0  0  0  0  0  0
  -22.8420  -14.9410   21.0510 O   0  0  0  0  0  0  0  0  0  0  0  0
  -22.9350  -12.1980   22.5770 H   0  0  0  0  0  0  0  0  0  0  0  0
  -21.6700  -13.3960   22.5920 H   0  0  0  0  0  0  0  0  0  0  0  0
  -25.8390  -15.5100   20.5670 N   0  0  0  0  0  0  0  0  0  0  0  0
  -25.1020  -16.1570   20.8260 H   0  0  0  0  0  0  0  0  0  0  0  0
  -26.6760  -15.9690   20.2320 H   0  0  0  0  0  0  0  0  0  0  0  0
  -26.6140  -24.4990   18.3550 C   0  0  0  0  0  2  0  0  0  0  0  0
  -28.0610  -24.4830   17.8510 C   0  0  0  0  0  2  0  0  0  0  0  0
  -28.3610  -25.6700   16.9780 C   0  0  0  0  0  2  0  0  0  0  0  0
  -28.2290  -26.6930   17.9190 O   0  0  0  0  0  0  0  0  0  0  0  0
  -24.5430  -31.2490   22.7340 C   0  0  0  0  0  0  0  0  0  0  0  0
  -27.0540  -27.3050   18.0490 C   0  0  0  0  0  3  0  0  0  0  0  0
  -22.9570  -29.5280   21.5060 C   0  0  0  0  0  3  0  0  0  0  0  0
  -24.0640  -27.3020   19.4350 C   0  0  1  0  0  0  0  0  0  0  0  0
  -25.7730  -29.0880   21.6380 C   0  0  0  0  0  2  0  0  0  0  0  0
  -25.8480  -27.8330   20.3680 C   0  0  0  0  0  3  0  0  0  0  0  0
  -27.1420  -27.7980   19.5590 C   0  0  0  0  0  2  0  0  0  0  0  0
  -25.6180  -26.9120   17.2180 C   0  0  0  0  0  2  0  0  0  0  0  0
  -24.1370  -26.9080   17.9310 C   0  0  0  0  0  3  0  0  0  0  0  0
  -22.6500  -28.1470   20.2860 C   0  0  0  0  0  3  0  0  0  0  0  0
  -24.4450  -29.9910   22.0710 N   0  0  0  0  0  0  0  0  0  0  0  0
  -23.5340  -31.8520   23.1410 O   0  0  0  0  0  0  0  0  0  0  0  0
  -22.2410  -29.1460   22.6750 C   0  0  0  0  0  0  0  0  0  0  0  0
  -20.9310  -29.1530   22.5550 N   0  0  0  0  0  0  0  0  0  0  0  0
  -22.8890  -28.6990   23.6110 O   0  0  0  0  0  0  0  0  0  0  0  0
  -20.4850  -29.5350   21.7340 H   0  0  0  0  0  0  0  0  0  0  0  0
  -17.7000  -27.8270   23.0570 C   0  0  0  0  0  0  0  0  0  0  0  0
  -20.1640  -28.3120   23.4220 C   0  0  0  0  0  3  0  0  0  0  0  0
  -20.4210  -26.8270   23.0880 C   0  0  0  0  0  2  0  0  0  0  0  0
  -19.4500  -26.2860   22.0430 C   0  0  0  0  0  2  0  0  0  0  0  0
  -18.0210  -26.4160   22.5820 C   0  0  0  0  0  2  0  0  0  0  0  0
  -18.7210  -28.7400   23.4030 C   0  0  0  0  0  0  0  0  0  0  0  0
  -18.4050  -30.0650   23.7650 C   0  0  0  0  0  3  0  0  0  0  0  0
  -17.0630  -30.4760   23.8250 C   0  0  0  0  0  3  0  0  0  0  0  0
  -16.0410  -29.5560   23.5350 C   0  0  0  0  0  3  0  0  0  0  0  0
  -16.3570  -28.2400   23.1500 C   0  0  0  0  0  3  0  0  0  0  0  0
  -25.8990  -31.9940   23.0990 C   0  0  0  0  0  3  0  0  0  0  0  0
  -25.6640  -33.4130   23.5560 N   0  0  0  0  0  0  0  0  0  0  0  0
  -26.1220  -34.5690   23.0260 C   0  0  0  0  0  0  0  0  0  0  0  0
  -26.7750  -34.5970   21.9820 O   0  0  0  0  0  0  0  0  0  0  0  0
  -25.0430  -33.5010   24.3460 H   0  0  0  0  0  0  0  0  0  0  0  0
  -24.5490  -36.5640   23.1410 C   0  0  0  0  0  1  0  0  0  0  0  0
  -25.8030  -35.9130   23.7510 C   0  0  0  0  0  3  0  0  0  0  0  0
  -28.0500  -36.5420   24.5530 C   0  0  0  0  0  1  0  0  0  0  0  0
  -26.9080  -36.9060   23.7210 N   0  0  0  0  0  0  0  0  0  0  0  0
  -26.5770  -37.8200   24.0210 H   0  0  0  0  0  0  0  0  0  0  0  0
  -26.7020  -31.2650   24.2530 C   0  0  1  0  0  0  0  0  0  0  0  0
  -25.8110  -30.9670   25.4810 C   0  0  0  0  0  1  0  0  0  0  0  0
  -27.3130  -29.9260   23.8430 C   0  0  0  0  0  1  0  0  0  0  0  0
  -27.9250  -32.1010   24.6980 C   0  0  0  0  0  1  0  0  0  0  0  0
  2 66  1  0
  4 60  1  0
  4  2  1  0
  5  6  1  0
  6  7  1  0
  6  3  1  0
  8  6  1  0
  9 10  1  0
 10 11  1  0
  4 10  1  1
 12 13  2  0
 15 23  1  0
 16 21  1  0
 17 18  1  0
 17 16  1  0
 18 19  1  0
 19 28  1  0
 19 20  1  0
 21 15  1  0
 21 20  1  0
 22 15  2  0
 23 24  1  0
 25 26  2  0
 26 45  1  0
 27 30  1  0
 27 26  1  0
 28 29  1  0
 28 25  1  0
 29 27  2  0
 30 31  1  0
 31 32  2  0
 33 36  1  0
 33 32  1  0
 34 33  2  0
 35 34  1  0
 35 30  2  0
 36 37  1  0
 37 42  2  0
 37 38  1  0
 38 39  2  0
 39 40  1  0
 40 44  1  0
 41 40  2  0
 42 41  1  0
 43 42  1  0
 45 46  1  0
 46 48  1  0
 46 49  1  0
 47 45  2  0
 50 25  1  0
 50 51  1  0
 52 50  1  0
 53  5  1  0
 54 53  1  0
 55 54  1  0
 55 56  1  0
 56 58  1  0
 57 83  1  0
 57 68  2  0
 58 63  1  0
 59 67  1  0
 59 69  1  0
 60  2  1  1
 60 66  1  0
 61 67  1  0
 62 61  1  0
 62  1  1  0
 63 62  1  0
 64 65  1  0
 64 58  1  0
 65  4  1  0
 65 60  1  0
 66 59  1  0
 67 57  1  0
 69 71  2  0
 70 69  1  0
 70 74  1  0
 72 70  1  0
 73 82  2  0
 73 78  1  0
 75 74  1  0
 76 77  1  0
 76 75  1  0
 77 73  1  0
 78 74  1  0
 78 79  2  0
 79 80  1  0
 81 80  2  0
 82 81  1  0
 83 84  1  0
 83 93  1  0
 84 87  1  0
 85 84  1  0
 85 89  1  0
 86 85  2  0
 88 89  1  0
 91 89  1  0
 91 92  1  0
 91 90  1  0
 93 96  1  1
 93 94  1  0
 95 93  1  0
M  ISO  4  15 100  23 100  55 101  56 101
M  END
>  <TORSDO>  (35) 
F 22

>  <SCORE>  (35) 
-9.139

>  <name>  (35) 
34

>  <ligand_id>  (35) 
34

>  <original_smiles>  (35) 
[H]c1c([H])c([H])c2c(c1[H])C([H])([H])C([H])([H])C([H])([H])C2([H])N([H])C(=O)C1([H])N(C(=O)C([H])(N([H])C(=O)C([H])(N([H])C([H])([H])[H])C([H])([H])[H])C(C([H])([H])[H])(C([H])([H])[H])C([H])([H])[H])C([H])([H])c2c([H])c(OC([H])([H])C([H])([H])C([H])([H])C3([H])C([H])(C([H])(F)C([H])([H])[H])C([H])([H])C([H])([H])C([H])(C(=O)C([H])([H])N([H])C(=O)N4C([H])([H])C([H])([H])C([H])([H])C([H])(n5nc(-c6c([H])c([H])c(Oc7c([H])c([H])c(F)c([H])c7F)c([H])c6[H])c(C(=O)N([H])[H])c5N([H])[H])C4([H])[H])[N+]3([H])[H])c([H])c([H])c2C1([H])[H]

>  <smiles>  (35) 
[H]c1c([H])c([H])c2c(c1[H])C([H])([H])C([H])([H])C([H])([H])C2([H])N([H])C(=O)C1([H])N(C(=O)C([H])(N([H])C(=O)C([H])(N([H])C([H])([H])[H])C([H])([H])[H])C(C([H])([H])[H])(C([H])([H])[H])C([H])([H])[H])C([H])([H])c2c([H])c(OC([H])([H])C([H])([H])C([H])([H])C3([H])C([H])(C([H])(F)C([H])([H])[H])C([H])([H])C([H])([H])C([H])(C(=O)C([H])([H])N([H])C(=O)N4C([H])([H])C([H])([H])C([H])([H])C([H])(n5nc(-c6c([H])c([H])c(Oc7c([H])c([H])c(F)c([H])c7F)c([H])c6[H])c(C(=O)N([H])[H])c5N([H])[H])C4([H])[H])[N+]3([H])[H])c([H])c([H])c2C1([H])[H]

$$$$
35:0:0
     RDKit          3D

 97105  0  0  1  0  0  0  0  0999 V2000
  -30.8140  -19.9900   20.6750 C   0  0  0  0  0  0  0  0  0  0  0  0
  -30.4980  -21.2410   20.3030 N   0  0  0  0  0  0  0  0  0  0  0  0
  -31.2690  -19.7210   21.7880 O   0  0  0  0  0  0  0  0  0  0  0  0
  -30.1460  -21.3690   19.3640 H   0  0  0  0  0  0  0  0  0  0  0  0
  -29.0210  -18.6890   19.4360 C   0  0  0  0  0  2  0  0  0  0  0  0
  -31.0520  -17.4780   20.0740 C   0  0  0  0  0  2  0  0  0  0  0  0
  -30.5390  -18.8730   19.6450 C   0  0  0  0  0  3  0  0  0  0  0  0
  -28.6520  -17.2810   19.9340 C   0  0  0  0  0  3  0  0  0  0  0  0
  -29.8600  -16.7760   20.7520 C   0  0  0  0  0  3  0  0  0  0  0  0
  -30.5860  -14.3990   20.0510 C   0  0  0  0  0  0  0  0  0  0  0  0
  -30.2770  -12.2330   18.9090 C   0  0  0  0  0  2  0  0  0  0  0  0
  -29.2530  -12.4270   17.7690 C   0  0  0  0  0  2  0  0  0  0  0  0
  -27.8020  -12.2980   18.2820 C   0  0  0  0  0  2  0  0  0  0  0  0
  -27.5430  -13.1340   19.5630 C   0  0  0  0  0  3  0  0  0  0  0  0
  -28.6600  -12.8720   20.6000 C   0  0  0  0  0  2  0  0  0  0  0  0
  -29.9560  -13.1980   19.9680 N   0  0  0  0  0  0  0  0  0  0  0  0
  -31.6450  -14.6650   19.4740 O   0  0  0  0  0  0  0  0  0  0  0  0
  -29.8510  -15.3090   20.7040 N   0  0  0  0  0  0  0  0  0  0  0  0
  -29.0520  -14.8790   21.1430 H   0  0  0  0  0  0  0  0  0  0  0  0
  -25.2030  -13.7680   20.4400 C   0  0  0  0  0  0  0  0  0  0  0  0
  -24.1470  -13.0020   20.8580 C   0  0  0  0  0  0  0  0  0  0  0  0
  -24.5790  -11.6440   20.7550 C   0  0  0  0  0  0  0  0  0  0  0  0
  -26.2150  -12.8760   20.1160 N   0  0  0  0  0  0  0  0  0  0  0  0
  -25.8440  -11.5940   20.3590 N   0  0  0  0  0  0  0  0  0  0  0  0
  -23.8450  -10.3890   20.9560 C   0  0  0  0  0  0  0  0  0  0  0  0
  -24.2900   -9.4140   21.8750 C   0  0  0  0  0  3  0  0  0  0  0  0
  -23.5600   -8.2210   22.0650 C   0  0  0  0  0  3  0  0  0  0  0  0
  -22.3700   -7.9950   21.3350 C   0  0  0  0  0  0  0  0  0  0  0  0
  -21.9420   -8.9580   20.4040 C   0  0  0  0  0  3  0  0  0  0  0  0
  -22.6730  -10.1430   20.2130 C   0  0  0  0  0  3  0  0  0  0  0  0
  -21.6090   -6.8560   21.4350 O   0  0  0  0  0  0  0  0  0  0  0  0
  -21.5380   -6.1380   22.6010 C   0  0  0  0  0  0  0  0  0  0  0  0
  -21.1020   -6.7220   23.8120 C   0  0  0  0  0  3  0  0  0  0  0  0
  -20.9770   -5.9300   24.9700 C   0  0  0  0  0  3  0  0  0  0  0  0
  -21.2770   -4.5550   24.9200 C   0  0  0  0  0  0  0  0  0  0  0  0
  -21.7060   -3.9710   23.7150 C   0  0  0  0  0  3  0  0  0  0  0  0
  -21.8330   -4.7600   22.5590 C   0  0  0  0  0  0  0  0  0  0  0  0
  -22.2260   -4.1880   21.3940 F   0  0  0  0  0  0  0  0  0  0  0  0
  -21.1500   -3.7920   26.0310 F   0  0  0  0  0  0  0  0  0  0  0  0
  -22.7790  -13.4930   21.2330 C   0  0  0  0  0  0  0  0  0  0  0  0
  -22.1020  -12.7960   22.1380 N   0  0  0  0  0  0  0  0  0  0  0  0
  -22.3230  -14.5320   20.7560 O   0  0  0  0  0  0  0  0  0  0  0  0
  -22.4860  -11.9570   22.5470 H   0  0  0  0  0  0  0  0  0  0  0  0
  -21.1840  -13.1060   22.4280 H   0  0  0  0  0  0  0  0  0  0  0  0
  -25.3760  -15.1440   20.2830 N   0  0  0  0  0  0  0  0  0  0  0  0
  -24.4640  -15.5680   20.1260 H   0  0  0  0  0  0  0  0  0  0  0  0
  -25.9770  -15.3370   19.4900 H   0  0  0  0  0  0  0  0  0  0  0  0
  -27.2950  -17.1960   20.6720 C   0  0  0  0  0  2  0  0  0  0  0  0
  -26.1530  -17.3060   19.7470 N   0  0  0  0  0  4  0  0  0  0  0  0
  -26.1650  -18.1820   19.2580 H   0  0  0  0  0  0  0  0  0  0  0  0
  -25.2890  -17.2430   20.2560 H   0  0  0  0  0  0  0  0  0  0  0  0
  -26.1740  -16.5510   19.0660 H   0  0  0  0  0  0  0  0  0  0  0  0
  -30.5430  -22.4250   21.1650 C   0  0  0  0  0  2  0  0  0  0  0  0
  -29.1970  -23.1830   21.1700 C   0  0  0  0  0  2  0  0  0  0  0  0
  -29.1300  -24.3810   20.2020 C   0  0  0  0  0  2  0  0  0  0  0  0
  -27.8550  -25.2210   20.4000 C   0  0  0  0  0  2  0  0  0  0  0  0
  -27.9350  -26.4490   19.6780 O   0  0  0  0  0  0  0  0  0  0  0  0
  -24.4480  -31.6560   23.0530 C   0  0  0  0  0  0  0  0  0  0  0  0
  -26.8000  -27.2180   19.7600 C   0  0  0  0  0  0  0  0  0  0  0  0
  -23.1280  -30.3550   21.4130 C   0  0  0  0  0  3  0  0  0  0  0  0
  -24.4680  -28.8010   19.8990 C   0  0  0  0  0  0  0  0  0  0  0  0
  -25.6560  -30.6220   21.1370 C   0  0  0  0  0  2  0  0  0  0  0  0
  -25.6640  -29.2680   20.4580 C   0  0  0  0  0  0  0  0  0  0  0  0
  -26.8360  -28.4830   20.3860 C   0  0  0  0  0  3  0  0  0  0  0  0
  -25.5910  -26.7600   19.1970 C   0  0  0  0  0  3  0  0  0  0  0  0
  -24.4240  -27.5450   19.2660 C   0  0  0  0  0  3  0  0  0  0  0  0
  -23.2620  -29.7060   20.0090 C   0  0  0  0  0  2  0  0  0  0  0  0
  -24.4310  -30.8890   21.9260 N   0  0  0  0  0  0  0  0  0  0  0  0
  -23.3970  -31.9560   23.6380 O   0  0  0  0  0  0  0  0  0  0  0  0
  -22.4660  -29.3350   22.3660 C   0  0  0  0  0  0  0  0  0  0  0  0
  -21.1300  -29.2180   22.2820 N   0  0  0  0  0  0  0  0  0  0  0  0
  -23.1480  -28.6530   23.1340 O   0  0  0  0  0  0  0  0  0  0  0  0
  -20.6450  -29.8180   21.6300 H   0  0  0  0  0  0  0  0  0  0  0  0
  -17.7230  -28.1700   22.8660 C   0  0  0  0  0  0  0  0  0  0  0  0
  -20.2980  -28.2940   23.0500 C   0  0  0  0  0  3  0  0  0  0  0  0
  -20.3090  -26.8810   22.4230 C   0  0  0  0  0  2  0  0  0  0  0  0
  -19.1570  -26.6480   21.4410 C   0  0  0  0  0  2  0  0  0  0  0  0
  -17.8080  -26.8380   22.1410 C   0  0  0  0  0  2  0  0  0  0  0  0
  -18.8930  -28.8620   23.2780 C   0  0  0  0  0  0  0  0  0  0  0  0
  -18.7590  -30.1140   23.9160 C   0  0  0  0  0  3  0  0  0  0  0  0
  -17.4880  -30.6730   24.1450 C   0  0  0  0  0  3  0  0  0  0  0  0
  -16.3320  -29.9780   23.7490 C   0  0  0  0  0  3  0  0  0  0  0  0
  -16.4510  -28.7280   23.1150 C   0  0  0  0  0  3  0  0  0  0  0  0
  -25.7790  -32.2110   23.6470 C   0  0  0  0  0  3  0  0  0  0  0  0
  -26.3240  -31.3600   24.8590 C   0  0  1  0  0  0  0  0  0  0  0  0
  -25.2690  -31.1030   25.9610 C   0  0  0  0  0  1  0  0  0  0  0  0
  -26.8410  -29.9870   24.3710 C   0  0  0  0  0  1  0  0  0  0  0  0
  -27.5290  -32.0800   25.5080 C   0  0  0  0  0  1  0  0  0  0  0  0
  -25.5370  -33.6010   24.0550 N   0  0  0  0  0  0  0  0  0  0  0  0
  -25.8860  -34.6760   23.3350 C   0  0  0  0  0  0  0  0  0  0  0  0
  -26.5190  -34.5980   22.2780 O   0  0  0  0  0  0  0  0  0  0  0  0
  -24.9760  -33.7390   24.8820 H   0  0  0  0  0  0  0  0  0  0  0  0
  -24.2190  -36.5450   23.1180 C   0  0  0  0  0  1  0  0  0  0  0  0
  -25.4670  -36.0570   23.8720 C   0  0  0  0  0  3  0  0  0  0  0  0
  -27.6560  -36.8180   24.6820 C   0  0  0  0  0  1  0  0  0  0  0  0
  -26.5360  -37.0740   23.7800 N   0  0  0  0  0  0  0  0  0  0  0  0
  -26.1710  -38.0010   23.9830 H   0  0  0  0  0  0  0  0  0  0  0  0
  1  3  2  0
  2  1  1  0
  2 53  1  0
  4  2  1  0
  5  7  1  0
  5  8  1  0
  6  9  1  0
  7  6  1  0
  7  1  1  0
  8 48  1  0
  8  9  1  0
  9 18  1  0
 10 18  1  0
 11 16  1  0
 12 13  1  0
 12 11  1  0
 14 13  1  0
 14 23  1  0
 14 15  1  0
 16 10  1  0
 16 15  1  0
 17 10  2  0
 18 19  1  0
 20 21  2  0
 21 40  1  0
 22 21  1  0
 22 25  1  0
 23 24  1  0
 23 20  1  0
 24 22  2  0
 25 26  1  0
 26 27  2  0
 28 31  1  0
 28 27  1  0
 29 28  2  0
 30 29  1  0
 30 25  2  0
 31 32  1  0
 32 33  1  0
 33 34  2  0
 35 34  1  0
 35 39  1  0
 36 35  2  0
 37 32  2  0
 37 36  1  0
 38 37  1  0
 40 41  1  0
 41 44  1  0
 41 43  1  0
 42 40  2  0
 45 20  1  0
 46 45  1  0
 47 45  1  0
 49 51  1  0
 49 48  1  0
 50 49  1  0
 52 49  1  0
 53 54  1  0
 55 56  1  0
 55 54  1  0
 57 59  1  0
 57 56  1  0
 58 69  2  0
 59 64  1  0
 60 68  1  0
 60 70  1  0
 61 67  1  0
 61 63  1  0
 62 68  1  0
 63 62  1  0
 64 63  2  0
 65 66  1  0
 65 59  2  0
 66 61  2  0
 67 60  1  0
 68 58  1  0
 70 72  2  0
 71 70  1  0
 73 71  1  0
 74 83  2  0
 74 79  1  0
 75 71  1  0
 75 79  1  0
 76 75  1  0
 77 78  1  0
 77 76  1  0
 78 74  1  0
 79 80  2  0
 80 81  1  0
 82 81  2  0
 83 82  1  0
 84 58  1  0
 84 89  1  0
 84 85  1  0
 85 88  1  1
 85 86  1  0
 87 85  1  0
 89 92  1  0
 90 94  1  0
 90 89  1  0
 91 90  2  0
 94 93  1  0
 96 94  1  0
 96 97  1  0
 96 95  1  0
M  ISO  4  10 100  18 100  56 101  57 101
M  END
>  <TORSDO>  (36) 
F 23

>  <SCORE>  (36) 
-12.367

>  <name>  (36) 
35

>  <ligand_id>  (36) 
35

>  <original_smiles>  (36) 
[H]c1c([H])c([H])c2c(c1[H])C([H])([H])C([H])([H])C([H])([H])C2([H])N([H])C(=O)C1([H])N(C(=O)C([H])(N([H])C(=O)C([H])(N([H])C([H])([H])[H])C([H])([H])[H])C(C([H])([H])[H])(C([H])([H])[H])C([H])([H])[H])C([H])([H])c2c([H])c(OC([H])([H])C([H])([H])C([H])([H])C([H])([H])N([H])C(=O)C3([H])C([H])([H])C([H])(N([H])C(=O)N4C([H])([H])C([H])([H])C([H])([H])C([H])(n5nc(-c6c([H])c([H])c(Oc7c([H])c([H])c(F)c([H])c7F)c([H])c6[H])c(C(=O)N([H])[H])c5N([H])[H])C4([H])[H])C([H])(C([H])([H])[N+]([H])([H])[H])C3([H])[H])c([H])c([H])c2C1([H])[H]

>  <smiles>  (36) 
[H]c1c([H])c([H])c2c(c1[H])C([H])([H])C([H])([H])C([H])([H])C2([H])N([H])C(=O)C1([H])N(C(=O)C([H])(N([H])C(=O)C([H])(N([H])C([H])([H])[H])C([H])([H])[H])C(C([H])([H])[H])(C([H])([H])[H])C([H])([H])[H])C([H])([H])c2c([H])c(OC([H])([H])C([H])([H])C([H])([H])C([H])([H])N([H])C(=O)C3([H])C([H])([H])C([H])(N([H])C(=O)N4C([H])([H])C([H])([H])C([H])([H])C([H])(n5nc(-c6c([H])c([H])c(Oc7c([H])c([H])c(F)c([H])c7F)c([H])c6[H])c(C(=O)N([H])[H])c5N([H])[H])C4([H])[H])C([H])(C([H])([H])[N+]([H])([H])[H])C3([H])[H])c([H])c([H])c2C1([H])[H]

$$$$
36:0:0
     RDKit          3D

 95103  0  0  1  0  0  0  0  0999 V2000
  -27.7860  -20.3500   19.5960 N   0  0  0  0  0  0  0  0  0  0  0  0
  -27.2930  -19.7700   18.9220 H   0  0  0  0  0  0  0  0  0  0  0  0
  -29.7020  -19.1060   20.3800 C   0  0  0  0  0  2  0  0  0  0  0  0
  -27.4920  -18.2410   20.9070 C   0  0  0  0  0  2  0  0  0  0  0  0
  -29.5230  -17.7220   19.7400 C   0  0  0  0  0  3  0  0  0  0  0  0
  -28.2810  -19.5490   20.7140 C   0  0  0  0  0  3  0  0  0  0  0  0
  -28.3300  -17.1370   20.3940 N   0  0  0  0  0  4  0  0  0  0  0  0
  -27.7940  -16.5640   19.7560 H   0  0  0  0  0  0  0  0  0  0  0  0
  -28.6270  -16.5740   21.1770 H   0  0  0  0  0  0  0  0  0  0  0  0
  -31.3780  -14.4760   19.7010 C   0  0  0  0  0  0  0  0  0  0  0  0
  -31.0540  -12.1540   18.9560 C   0  0  0  0  0  2  0  0  0  0  0  0
  -30.0570  -12.1700   17.7770 C   0  0  0  0  0  2  0  0  0  0  0  0
  -28.5970  -12.1500   18.2760 C   0  0  0  0  0  2  0  0  0  0  0  0
  -28.3300  -13.2030   19.3810 C   0  0  0  0  0  3  0  0  0  0  0  0
  -29.4190  -13.1110   20.4760 C   0  0  0  0  0  2  0  0  0  0  0  0
  -30.7290  -13.2920   19.8220 N   0  0  0  0  0  0  0  0  0  0  0  0
  -32.5060  -14.5840   19.2060 O   0  0  0  0  0  0  0  0  0  0  0  0
  -30.7740  -16.8250   19.8340 C   0  0  0  0  0  0  0  0  0  0  0  0
  -30.5580  -15.5070   19.9680 N   0  0  0  0  0  0  0  0  0  0  0  0
  -31.8970  -17.3320   19.7390 O   0  0  0  0  0  0  0  0  0  0  0  0
  -29.6260  -15.1930   20.1670 H   0  0  0  0  0  0  0  0  0  0  0  0
  -26.0850  -14.0660   20.2970 C   0  0  0  0  0  0  0  0  0  0  0  0
  -24.9560  -13.4070   20.7050 C   0  0  0  0  0  0  0  0  0  0  0  0
  -25.2420  -12.0120   20.5760 C   0  0  0  0  0  0  0  0  0  0  0  0
  -26.9880  -13.0770   19.9410 N   0  0  0  0  0  0  0  0  0  0  0  0
  -26.4910  -11.8370   20.1680 N   0  0  0  0  0  0  0  0  0  0  0  0
  -24.3880  -10.8320   20.7630 C   0  0  0  0  0  0  0  0  0  0  0  0
  -24.6480   -9.8860   21.7790 C   0  0  0  0  0  3  0  0  0  0  0  0
  -23.8060   -8.7670   21.9500 C   0  0  0  0  0  3  0  0  0  0  0  0
  -22.6880   -8.5850   21.1010 C   0  0  0  0  0  0  0  0  0  0  0  0
  -22.4460   -9.5170   20.0770 C   0  0  0  0  0  3  0  0  0  0  0  0
  -23.2870  -10.6280   19.9060 C   0  0  0  0  0  3  0  0  0  0  0  0
  -21.8300   -7.5150   21.1750 O   0  0  0  0  0  0  0  0  0  0  0  0
  -21.4700   -6.9630   22.3790 C   0  0  0  0  0  0  0  0  0  0  0  0
  -20.8150   -7.7150   23.3780 C   0  0  0  0  0  3  0  0  0  0  0  0
  -20.4020   -7.0910   24.5710 C   0  0  0  0  0  3  0  0  0  0  0  0
  -20.6340   -5.7150   24.7650 C   0  0  0  0  0  0  0  0  0  0  0  0
  -21.2810   -4.9650   23.7680 C   0  0  0  0  0  3  0  0  0  0  0  0
  -21.6950   -5.5870   22.5770 C   0  0  0  0  0  0  0  0  0  0  0  0
  -22.3010   -4.8540   21.6110 F   0  0  0  0  0  0  0  0  0  0  0  0
  -20.2300   -5.1130   25.9080 F   0  0  0  0  0  0  0  0  0  0  0  0
  -23.6440  -14.0280   21.0950 C   0  0  0  0  0  0  0  0  0  0  0  0
  -22.9180  -13.4030   22.0140 N   0  0  0  0  0  0  0  0  0  0  0  0
  -23.2790  -15.1000   20.6120 O   0  0  0  0  0  0  0  0  0  0  0  0
  -23.2310  -12.5350   22.4240 H   0  0  0  0  0  0  0  0  0  0  0  0
  -22.0380  -13.7980   22.3160 H   0  0  0  0  0  0  0  0  0  0  0  0
  -26.4300  -15.4140   20.1780 N   0  0  0  0  0  0  0  0  0  0  0  0
  -25.6020  -16.0020   20.2170 H   0  0  0  0  0  0  0  0  0  0  0  0
  -26.9370  -15.5990   19.3200 H   0  0  0  0  0  0  0  0  0  0  0  0
  -26.9010  -21.4270   20.0200 C   0  0  0  0  0  2  0  0  0  0  0  0
  -27.6680  -22.5830   20.6910 C   0  0  0  0  0  2  0  0  0  0  0  0
  -28.4850  -23.4370   19.7060 C   0  0  0  0  0  2  0  0  0  0  0  0
  -28.8150  -24.8210   20.2870 C   0  0  0  0  0  2  0  0  0  0  0  0
  -29.3820  -25.8070   19.2460 C   0  0  0  0  0  2  0  0  0  0  0  0
  -29.2910  -27.1580   19.7070 O   0  0  0  0  0  0  0  0  0  0  0  0
  -25.0530  -31.4090   23.4940 C   0  0  0  0  0  0  0  0  0  0  0  0
  -28.0510  -27.7630   19.7670 C   0  0  0  0  0  0  0  0  0  0  0  0
  -23.9740  -30.2450   21.5980 C   0  0  0  0  0  3  0  0  0  0  0  0
  -25.5530  -29.0770   19.9750 C   0  0  0  0  0  0  0  0  0  0  0  0
  -26.4720  -30.7900   21.5440 C   0  0  0  0  0  2  0  0  0  0  0  0
  -26.6610  -29.5630   20.6770 C   0  0  0  0  0  0  0  0  0  0  0  0
  -27.9100  -28.9140   20.5720 C   0  0  0  0  0  3  0  0  0  0  0  0
  -26.9190  -27.2880   19.0610 C   0  0  0  0  0  3  0  0  0  0  0  0
  -25.6760  -27.9360   19.1660 C   0  0  0  0  0  3  0  0  0  0  0  0
  -24.2550  -29.8390   20.1280 C   0  0  0  0  0  2  0  0  0  0  0  0
  -25.1830  -30.8210   22.2710 N   0  0  0  0  0  0  0  0  0  0  0  0
  -23.9470  -31.5140   24.0410 O   0  0  0  0  0  0  0  0  0  0  0  0
  -23.3760  -29.0300   22.3420 C   0  0  0  0  0  0  0  0  0  0  0  0
  -22.0620  -28.8150   22.1750 N   0  0  0  0  0  0  0  0  0  0  0  0
  -24.0910  -28.2940   23.0280 O   0  0  0  0  0  0  0  0  0  0  0  0
  -21.5450  -29.4690   21.6030 H   0  0  0  0  0  0  0  0  0  0  0  0
  -18.7400  -27.4310   22.4610 C   0  0  0  0  0  0  0  0  0  0  0  0
  -21.2920  -27.7160   22.7530 C   0  0  0  0  0  3  0  0  0  0  0  0
  -21.4310  -26.4340   21.9010 C   0  0  0  0  0  2  0  0  0  0  0  0
  -20.3220  -26.2780   20.8560 C   0  0  0  0  0  2  0  0  0  0  0  0
  -18.9470  -26.2480   21.5300 C   0  0  0  0  0  2  0  0  0  0  0  0
  -19.8410  -28.1290   23.0240 C   0  0  0  0  0  0  0  0  0  0  0  0
  -19.5940  -29.2410   23.8590 C   0  0  0  0  0  3  0  0  0  0  0  0
  -18.2780  -29.6550   24.1360 C   0  0  0  0  0  3  0  0  0  0  0  0
  -17.1900  -28.9520   23.5880 C   0  0  0  0  0  3  0  0  0  0  0  0
  -17.4220  -27.8410   22.7560 C   0  0  0  0  0  3  0  0  0  0  0  0
  -26.2840  -31.9990   24.2490 C   0  0  0  0  0  3  0  0  0  0  0  0
  -25.9610  -33.3870   24.6060 N   0  0  0  0  0  0  0  0  0  0  0  0
  -26.4210  -34.4640   23.9580 C   0  0  0  0  0  0  0  0  0  0  0  0
  -27.2320  -34.3940   23.0310 O   0  0  0  0  0  0  0  0  0  0  0  0
  -25.2620  -33.5180   25.3230 H   0  0  0  0  0  0  0  0  0  0  0  0
  -24.8400  -36.3410   23.4120 C   0  0  0  0  0  1  0  0  0  0  0  0
  -25.8970  -35.8410   24.4100 C   0  0  0  0  0  3  0  0  0  0  0  0
  -27.8610  -36.5880   25.6780 C   0  0  0  0  0  1  0  0  0  0  0  0
  -26.9620  -36.8560   24.5580 N   0  0  0  0  0  0  0  0  0  0  0  0
  -26.5630  -37.7810   24.6880 H   0  0  0  0  0  0  0  0  0  0  0  0
  -26.6830  -31.1710   25.5320 C   0  0  1  0  0  0  0  0  0  0  0  0
  -25.5020  -30.9060   26.4940 C   0  0  0  0  0  1  0  0  0  0  0  0
  -27.2770  -29.8000   25.1300 C   0  0  0  0  0  1  0  0  0  0  0  0
  -27.7870  -31.9160   26.3180 C   0  0  0  0  0  1  0  0  0  0  0  0
  1 50  1  0
  2  1  1  0
  3  6  1  0
  5 18  1  0
  5  3  1  0
  5  7  1  0
  6  1  1  0
  6  4  1  0
  7  4  1  0
  7  9  1  0
  8  7  1  0
 10 16  1  0
 10 19  1  0
 11 16  1  0
 12 13  1  0
 12 11  1  0
 14 13  1  0
 14 25  1  0
 14 15  1  0
 16 15  1  0
 17 10  2  0
 18 19  1  0
 19 21  1  0
 20 18  2  0
 22 23  2  0
 23 42  1  0
 24 23  1  0
 24 27  1  0
 25 26  1  0
 25 22  1  0
 26 24  2  0
 27 28  1  0
 28 29  2  0
 30 33  1  0
 30 29  1  0
 31 30  2  0
 32 31  1  0
 32 27  2  0
 33 34  1  0
 34 39  2  0
 34 35  1  0
 35 36  2  0
 36 37  1  0
 37 41  1  0
 38 37  2  0
 39 38  1  0
 40 39  1  0
 42 43  1  0
 43 46  1  0
 43 45  1  0
 44 42  2  0
 47 48  1  0
 47 22  1  0
 49 47  1  0
 50 51  1  0
 52 53  1  0
 52 51  1  0
 54 55  1  0
 54 53  1  0
 55 57  1  0
 56 67  2  0
 57 62  1  0
 58 66  1  0
 58 68  1  0
 59 65  1  0
 59 61  1  0
 60 66  1  0
 61 60  1  0
 62 61  2  0
 63 64  1  0
 63 57  2  0
 64 59  2  0
 65 58  1  0
 66 56  1  0
 68 70  2  0
 69 68  1  0
 71 69  1  0
 72 81  2  0
 72 77  1  0
 73 69  1  0
 73 77  1  0
 74 73  1  0
 75 76  1  0
 75 74  1  0
 76 72  1  0
 77 78  2  0
 78 79  1  0
 80 79  2  0
 81 80  1  0
 82 56  1  0
 82 83  1  0
 82 92  1  0
 83 86  1  0
 84 88  1  0
 84 83  1  0
 85 84  2  0
 88 87  1  0
 88 90  1  0
 90 91  1  0
 90 89  1  0
 92 95  1  1
 92 93  1  0
 94 92  1  0
M  ISO  4  10 100  19 100  54 101  55 101
M  END
>  <TORSDO>  (37) 
F 22

>  <SCORE>  (37) 
-8.464

>  <name>  (37) 
36

>  <ligand_id>  (37) 
36

>  <original_smiles>  (37) 
[H]c1c([H])c([H])c2c(c1[H])C([H])([H])C([H])([H])C([H])([H])C2([H])N([H])C(=O)C1([H])N(C(=O)C([H])(N([H])C(=O)C([H])(N([H])C([H])([H])[H])C([H])([H])[H])C(C([H])([H])[H])(C([H])([H])[H])C([H])([H])[H])C([H])([H])c2c([H])c(OC([H])([H])C([H])([H])C([H])([H])C([H])([H])C([H])([H])N([H])C3([H])C([H])([H])C([H])(C(=O)N([H])C(=O)N4C([H])([H])C([H])([H])C([H])([H])C([H])(n5nc(-c6c([H])c([H])c(Oc7c([H])c([H])c(F)c([H])c7F)c([H])c6[H])c(C(=O)N([H])[H])c5N([H])[H])C4([H])[H])[N+]([H])([H])C3([H])[H])c([H])c([H])c2C1([H])[H]

>  <smiles>  (37) 
[H]c1c([H])c([H])c2c(c1[H])C([H])([H])C([H])([H])C([H])([H])C2([H])N([H])C(=O)C1([H])N(C(=O)C([H])(N([H])C(=O)C([H])(N([H])C([H])([H])[H])C([H])([H])[H])C(C([H])([H])[H])(C([H])([H])[H])C([H])([H])[H])C([H])([H])c2c([H])c(OC([H])([H])C([H])([H])C([H])([H])C([H])([H])C([H])([H])N([H])C3([H])C([H])([H])C([H])(C(=O)N([H])C(=O)N4C([H])([H])C([H])([H])C([H])([H])C([H])(n5nc(-c6c([H])c([H])c(Oc7c([H])c([H])c(F)c([H])c7F)c([H])c6[H])c(C(=O)N([H])[H])c5N([H])[H])C4([H])[H])[N+]([H])([H])C3([H])[H])c([H])c([H])c2C1([H])[H]

$$$$
37:0:0
     RDKit          3D

 94102  0  0  1  0  0  0  0  0999 V2000
  -31.0710  -22.2160   21.1220 C   0  0  0  0  0  2  0  0  0  0  0  0
  -29.5810  -22.5210   21.2530 C   0  0  0  0  0  0  0  0  0  0  0  0
  -28.7430  -21.7420   20.7900 O   0  0  0  0  0  0  0  0  0  0  0  0
  -29.1710  -23.7800   22.0210 C   0  0  0  0  0  2  0  0  0  0  0  0
  -28.0320  -24.5810   21.3570 C   0  0  0  0  0  2  0  0  0  0  0  0
  -28.4470  -25.3250   20.0670 C   0  0  0  0  0  2  0  0  0  0  0  0
  -28.4280  -26.7400   20.2570 O   0  0  0  0  0  0  0  0  0  0  0  0
  -24.5680  -31.8880   23.2540 C   0  0  0  0  0  0  0  0  0  0  0  0
  -27.2250  -27.4160   20.2330 C   0  0  0  0  0  0  0  0  0  0  0  0
  -23.3700  -30.4790   21.6150 C   0  0  0  0  0  3  0  0  0  0  0  0
  -24.8280  -28.9180   20.2200 C   0  0  0  0  0  0  0  0  0  0  0  0
  -25.8970  -30.8240   21.4370 C   0  0  0  0  0  2  0  0  0  0  0  0
  -25.9800  -29.4470   20.8100 C   0  0  0  0  0  0  0  0  0  0  0  0
  -27.1790  -28.7020   20.8130 C   0  0  0  0  0  3  0  0  0  0  0  0
  -26.0450  -26.8890   19.6530 C   0  0  0  0  0  3  0  0  0  0  0  0
  -24.8530  -27.6370   19.6440 C   0  0  0  0  0  3  0  0  0  0  0  0
  -23.5880  -29.7840   20.2450 C   0  0  0  0  0  2  0  0  0  0  0  0
  -24.6290  -31.0790   22.1610 N   0  0  0  0  0  0  0  0  0  0  0  0
  -23.4840  -32.1720   23.7830 O   0  0  0  0  0  0  0  0  0  0  0  0
  -22.7050  -29.4680   22.5790 C   0  0  0  0  0  0  0  0  0  0  0  0
  -21.3860  -29.2710   22.4180 N   0  0  0  0  0  0  0  0  0  0  0  0
  -23.3720  -28.8670   23.4230 O   0  0  0  0  0  0  0  0  0  0  0  0
  -20.9120  -29.8070   21.7050 H   0  0  0  0  0  0  0  0  0  0  0  0
  -18.0170  -28.0300   22.8090 C   0  0  0  0  0  0  0  0  0  0  0  0
  -20.5560  -28.3410   23.1840 C   0  0  0  0  0  3  0  0  0  0  0  0
  -20.7080  -26.8970   22.6560 C   0  0  0  0  0  2  0  0  0  0  0  0
  -19.6570  -26.5230   21.6070 C   0  0  0  0  0  2  0  0  0  0  0  0
  -18.2460  -26.6620   22.1870 C   0  0  0  0  0  2  0  0  0  0  0  0
  -19.1030  -28.8250   23.2620 C   0  0  0  0  0  0  0  0  0  0  0  0
  -18.8380  -30.1030   23.8010 C   0  0  0  0  0  3  0  0  0  0  0  0
  -17.5190  -30.5850   23.8950 C   0  0  0  0  0  3  0  0  0  0  0  0
  -16.4470  -29.7870   23.4610 C   0  0  0  0  0  3  0  0  0  0  0  0
  -16.6970  -28.5120   22.9220 C   0  0  0  0  0  3  0  0  0  0  0  0
  -25.8540  -32.5150   23.8800 C   0  0  0  0  0  3  0  0  0  0  0  0
  -25.5520  -33.9170   24.1990 N   0  0  0  0  0  0  0  0  0  0  0  0
  -25.9030  -34.9610   23.4380 C   0  0  0  0  0  0  0  0  0  0  0  0
  -26.5850  -34.8460   22.4160 O   0  0  0  0  0  0  0  0  0  0  0  0
  -24.9400  -34.0770   24.9860 H   0  0  0  0  0  0  0  0  0  0  0  0
  -24.1860  -36.7580   23.0540 C   0  0  0  0  0  1  0  0  0  0  0  0
  -25.4190  -36.3550   23.8790 C   0  0  0  0  0  3  0  0  0  0  0  0
  -27.5510  -37.2330   24.7190 C   0  0  0  0  0  1  0  0  0  0  0  0
  -26.4570  -37.4010   23.7660 N   0  0  0  0  0  0  0  0  0  0  0  0
  -26.0570  -38.3250   23.9030 H   0  0  0  0  0  0  0  0  0  0  0  0
  -26.3590  -31.7470   25.1630 C   0  0  1  0  0  0  0  0  0  0  0  0
  -25.2580  -31.5140   26.2230 C   0  0  0  0  0  1  0  0  0  0  0  0
  -26.9440  -30.3690   24.7740 C   0  0  0  0  0  1  0  0  0  0  0  0
  -27.5040  -32.5420   25.8320 C   0  0  0  0  0  1  0  0  0  0  0  0
  -31.5380  -21.0400   22.0110 C   0  0  0  0  0  2  0  0  0  0  0  0
  -30.5610  -17.8750   20.0280 C   0  0  0  0  0  2  0  0  0  0  0  0
  -31.1930  -19.2510   20.3170 C   0  0  0  0  0  2  0  0  0  0  0  0
  -31.3100  -18.6950   22.7180 C   0  0  0  0  0  2  0  0  0  0  0  0
  -30.6780  -17.3060   22.4590 C   0  0  0  0  0  3  0  0  0  0  0  0
  -31.0430  -16.8190   21.0410 C   0  0  0  0  0  3  0  0  0  0  0  0
  -31.0890  -16.2980   23.5470 C   0  0  0  0  0  1  0  0  0  0  0  0
  -30.9180  -19.7170   21.7050 N   0  0  1  0  0  4  0  0  0  0  0  0
  -29.9170  -19.8320   21.7880 H   0  0  0  0  0  0  0  0  0  0  0  0
  -31.0480  -14.5350   20.0270 C   0  0  0  0  0  0  0  0  0  0  0  0
  -30.6350  -12.4070   18.8570 C   0  0  0  0  0  2  0  0  0  0  0  0
  -29.6500  -12.6320   17.6920 C   0  0  0  0  0  2  0  0  0  0  0  0
  -28.1930  -12.5290   18.1810 C   0  0  0  0  0  2  0  0  0  0  0  0
  -27.9230  -13.3800   19.4510 C   0  0  0  0  0  3  0  0  0  0  0  0
  -29.0120  -13.1290   20.5180 C   0  0  0  0  0  2  0  0  0  0  0  0
  -30.3250  -13.3930   19.9020 N   0  0  0  0  0  0  0  0  0  0  0  0
  -32.1200  -14.7280   19.4460 O   0  0  0  0  0  0  0  0  0  0  0  0
  -30.4770  -15.4940   20.7690 N   0  0  0  0  0  0  0  0  0  0  0  0
  -29.5910  -15.2630   21.1920 H   0  0  0  0  0  0  0  0  0  0  0  0
  -25.5660  -14.0460   20.2470 C   0  0  0  0  0  0  0  0  0  0  0  0
  -24.4930  -13.2970   20.6560 C   0  0  0  0  0  0  0  0  0  0  0  0
  -24.9220  -11.9360   20.6060 C   0  0  0  0  0  0  0  0  0  0  0  0
  -26.5810  -13.1400   19.9770 N   0  0  0  0  0  0  0  0  0  0  0  0
  -26.1970  -11.8650   20.2480 N   0  0  0  0  0  0  0  0  0  0  0  0
  -24.1740  -10.6910   20.8200 C   0  0  0  0  0  0  0  0  0  0  0  0
  -24.5790   -9.7430   21.7860 C   0  0  0  0  0  3  0  0  0  0  0  0
  -23.8340   -8.5610   21.9880 C   0  0  0  0  0  3  0  0  0  0  0  0
  -22.6680   -8.3190   21.2240 C   0  0  0  0  0  0  0  0  0  0  0  0
  -22.2820   -9.2530   20.2480 C   0  0  0  0  0  3  0  0  0  0  0  0
  -23.0280  -10.4260   20.0440 C   0  0  0  0  0  3  0  0  0  0  0  0
  -21.8960   -7.1880   21.3320 O   0  0  0  0  0  0  0  0  0  0  0  0
  -21.7620   -6.5190   22.5230 C   0  0  0  0  0  0  0  0  0  0  0  0
  -21.2750   -7.1580   23.6850 C   0  0  0  0  0  3  0  0  0  0  0  0
  -21.0870   -6.4170   24.8690 C   0  0  0  0  0  3  0  0  0  0  0  0
  -21.3750   -5.0390   24.8920 C   0  0  0  0  0  0  0  0  0  0  0  0
  -21.8540   -4.4010   23.7350 C   0  0  0  0  0  3  0  0  0  0  0  0
  -22.0440   -5.1390   22.5530 C   0  0  0  0  0  0  0  0  0  0  0  0
  -22.4860   -4.5140   21.4350 F   0  0  0  0  0  0  0  0  0  0  0  0
  -21.1870   -4.3260   26.0270 F   0  0  0  0  0  0  0  0  0  0  0  0
  -23.1200  -13.8060   20.9840 C   0  0  0  0  0  0  0  0  0  0  0  0
  -22.4180  -13.1380   21.8920 N   0  0  0  0  0  0  0  0  0  0  0  0
  -22.6790  -14.8340   20.4690 O   0  0  0  0  0  0  0  0  0  0  0  0
  -22.7870  -12.3060   22.3300 H   0  0  0  0  0  0  0  0  0  0  0  0
  -21.4970  -13.4610   22.1520 H   0  0  0  0  0  0  0  0  0  0  0  0
  -25.7580  -15.4110   20.0630 N   0  0  0  0  0  0  0  0  0  0  0  0
  -25.0120  -16.0870   20.1980 H   0  0  0  0  0  0  0  0  0  0  0  0
  -26.6060  -15.8270   19.6970 H   0  0  0  0  0  0  0  0  0  0  0  0
  1  2  1  0
  1 48  1  0
  2  4  1  0
  3  2  2  0
  5  4  1  0
  6  7  1  0
  6  5  1  0
  8 19  2  0
  9  7  1  0
  9 14  1  0
 10 18  1  0
 10 20  1  0
 11 17  1  0
 11 13  1  0
 12 18  1  0
 13 14  2  0
 13 12  1  0
 15  9  2  0
 16 15  1  0
 16 11  2  0
 17 10  1  0
 18  8  1  0
 20 22  2  0
 21 20  1  0
 23 21  1  0
 24 33  2  0
 24 29  1  0
 25 21  1  0
 25 29  1  0
 26 25  1  0
 27 28  1  0
 27 26  1  0
 28 24  1  0
 29 30  2  0
 30 31  1  0
 32 31  2  0
 33 32  1  0
 34  8  1  0
 34 35  1  0
 34 44  1  0
 35 38  1  0
 36 40  1  0
 36 35  1  0
 37 36  2  0
 40 39  1  0
 42 40  1  0
 42 43  1  0
 42 41  1  0
 44 47  1  1
 44 45  1  0
 46 44  1  0
 49 50  1  0
 49 53  1  0
 50 55  1  0
 52 51  1  0
 52 54  1  0
 53 65  1  0
 53 52  1  0
 55 56  1  6
 55 48  1  0
 55 51  1  0
 57 65  1  0
 58 63  1  0
 59 60  1  0
 59 58  1  0
 61 60  1  0
 61 70  1  0
 61 62  1  0
 63 57  1  0
 63 62  1  0
 64 57  2  0
 65 66  1  0
 67 68  2  0
 68 87  1  0
 69 68  1  0
 69 72  1  0
 70 67  1  0
 70 71  1  0
 71 69  2  0
 72 73  1  0
 73 74  2  0
 75 78  1  0
 75 74  1  0
 76 75  2  0
 77 76  1  0
 77 72  2  0
 78 79  1  0
 79 84  2  0
 79 80  1  0
 80 81  2  0
 81 82  1  0
 82 86  1  0
 83 82  2  0
 84 83  1  0
 85 84  1  0
 87 88  1  0
 88 91  1  0
 88 90  1  0
 89 87  2  0
 92 93  1  0
 92 67  1  0
 94 92  1  0
M  ISO  4   6 101   7 101  57 100  65 100
M  END
>  <TORSDO>  (38) 
F 22

>  <SCORE>  (38) 
-11.247

>  <name>  (38) 
37

>  <ligand_id>  (38) 
37

>  <original_smiles>  (38) 
[H]c1c([H])c([H])c2c(c1[H])C([H])([H])C([H])([H])C([H])([H])C2([H])N([H])C(=O)C1([H])N(C(=O)C([H])(N([H])C(=O)C([H])(N([H])C([H])([H])[H])C([H])([H])[H])C(C([H])([H])[H])(C([H])([H])[H])C([H])([H])[H])C([H])([H])c2c([H])c(OC([H])([H])C([H])([H])C([H])([H])C(=O)C([H])([H])C([H])([H])[N+]3([H])C([H])([H])C([H])([H])C([H])(N([H])C(=O)N4C([H])([H])C([H])([H])C([H])([H])C([H])(n5nc(-c6c([H])c([H])c(Oc7c([H])c([H])c(F)c([H])c7F)c([H])c6[H])c(C(=O)N([H])[H])c5N([H])[H])C4([H])[H])C([H])(C([H])([H])[H])C3([H])[H])c([H])c([H])c2C1([H])[H]

>  <smiles>  (38) 
[H]c1c([H])c([H])c2c(c1[H])C([H])([H])C([H])([H])C([H])([H])C2([H])N([H])C(=O)C1([H])N(C(=O)C([H])(N([H])C(=O)C([H])(N([H])C([H])([H])[H])C([H])([H])[H])C(C([H])([H])[H])(C([H])([H])[H])C([H])([H])[H])C([H])([H])c2c([H])c(OC([H])([H])C([H])([H])C([H])([H])C(=O)C([H])([H])C([H])([H])[N+]3([H])C([H])([H])C([H])([H])C([H])(N([H])C(=O)N4C([H])([H])C([H])([H])C([H])([H])C([H])(n5nc(-c6c([H])c([H])c(Oc7c([H])c([H])c(F)c([H])c7F)c([H])c6[H])c(C(=O)N([H])[H])c5N([H])[H])C4([H])[H])C([H])(C([H])([H])[H])C3([H])[H])c([H])c([H])c2C1([H])[H]

$$$$
38:0:0
     RDKit          3D

 94102  0  0  1  0  0  0  0  0999 V2000
  -34.0530  -22.3850   17.0990 C   0  0  0  0  0  3  0  0  0  0  0  0
  -34.2050  -24.6110   19.5130 C   0  0  0  0  0  2  0  0  0  0  0  0
  -34.7310  -23.3640   19.5340 C   0  0  0  0  0  2  0  0  0  0  0  0
  -34.2960  -24.6720   18.1790 C   0  0  0  0  0  3  0  0  0  0  0  0
  -34.9240  -23.3110   18.0150 C   0  0  0  0  0  3  0  0  0  0  0  0
  -33.9490  -25.5550   17.3560 N   0  0  0  0  0  2  0  0  0  0  0  0
  -34.2990  -26.4690   17.6180 H   0  0  0  0  0  0  0  0  0  0  0  0
  -34.7000  -22.3930   15.7050 N   0  0  0  0  0  4  0  0  0  0  0  0
  -34.6420  -21.4590   15.3340 H   0  0  0  0  0  0  0  0  0  0  0  0
  -34.1320  -22.9710   15.1040 H   0  0  0  0  0  0  0  0  0  0  0  0
  -36.1500  -22.8590   15.5470 C   0  0  0  0  0  2  0  0  0  0  0  0
  -36.7380  -23.1530   14.0840 C   0  0  0  0  0  3  0  0  0  0  0  0
  -38.2960  -22.8940   13.9070 C   0  0  0  0  0  3  0  0  0  0  0  0
  -38.9550  -22.9870   12.5860 O   0  0  0  0  0  0  0  0  0  0  0  0
  -40.5280  -18.8070    6.9240 C   0  0  0  0  0  0  0  0  0  0  0  0
  -39.5910  -21.8290   12.1030 C   0  0  0  0  0  0  0  0  0  0  0  0
  -40.7820  -17.7820    9.1540 C   0  0  0  0  0  3  0  0  0  0  0  0
  -40.7290  -19.3930   11.1330 C   0  0  0  0  0  0  0  0  0  0  0  0
  -41.0950  -20.3090    8.8450 C   0  0  0  0  0  2  0  0  0  0  0  0
  -40.6220  -20.4970   10.2800 C   0  0  0  0  0  0  0  0  0  0  0  0
  -40.0760  -21.7210   10.7630 C   0  0  0  0  0  3  0  0  0  0  0  0
  -39.7450  -20.6960   12.9380 C   0  0  0  0  0  3  0  0  0  0  0  0
  -40.2970  -19.4920   12.4640 C   0  0  0  0  0  3  0  0  0  0  0  0
  -41.3170  -18.1170   10.5690 C   0  0  0  0  0  2  0  0  0  0  0  0
  -40.7730  -18.9800    8.2550 N   0  0  0  0  0  0  0  0  0  0  0  0
  -40.3460  -17.6800    6.4430 O   0  0  0  0  0  0  0  0  0  0  0  0
  -39.3990  -17.1010    9.2870 C   0  0  0  0  0  0  0  0  0  0  0  0
  -39.3890  -15.7570    9.3340 N   0  0  0  0  0  0  0  0  0  0  0  0
  -38.3700  -17.7770    9.3720 O   0  0  0  0  0  0  0  0  0  0  0  0
  -40.2760  -15.2750    9.2700 H   0  0  0  0  0  0  0  0  0  0  0  0
  -38.1610  -12.3720    9.0270 C   0  0  0  0  0  0  0  0  0  0  0  0
  -38.2030  -14.9130    9.4920 C   0  0  0  0  0  3  0  0  0  0  0  0
  -37.9820  -14.5430   10.9780 C   0  0  0  0  0  2  0  0  0  0  0  0
  -38.6370  -13.2120   11.3680 C   0  0  0  0  0  2  0  0  0  0  0  0
  -38.0790  -12.0710   10.5140 C   0  0  0  0  0  2  0  0  0  0  0  0
  -38.2380  -13.7070    8.5480 C   0  0  0  0  0  0  0  0  0  0  0  0
  -38.3510  -13.9320    7.1590 C   0  0  0  0  0  3  0  0  0  0  0  0
  -38.3790  -12.8530    6.2560 C   0  0  0  0  0  3  0  0  0  0  0  0
  -38.2840  -11.5340    6.7340 C   0  0  0  0  0  3  0  0  0  0  0  0
  -38.1750  -11.2960    8.1150 C   0  0  0  0  0  3  0  0  0  0  0  0
  -40.4850  -20.0160    5.9390 C   0  0  0  0  0  3  0  0  0  0  0  0
  -41.3200  -19.6700    4.7800 N   0  0  0  0  0  0  0  0  0  0  0  0
  -42.6220  -19.9680    4.6620 C   0  0  0  0  0  0  0  0  0  0  0  0
  -43.2350  -20.6320    5.5020 O   0  0  0  0  0  0  0  0  0  0  0  0
  -40.8990  -19.0740    4.0830 H   0  0  0  0  0  0  0  0  0  0  0  0
  -44.2380  -18.2480    3.7920 C   0  0  0  0  0  1  0  0  0  0  0  0
  -43.3590  -19.4490    3.4130 C   0  0  0  0  0  3  0  0  0  0  0  0
  -43.3960  -21.4610    2.0060 C   0  0  0  0  0  1  0  0  0  0  0  0
  -44.1840  -20.4790    2.7450 N   0  0  0  0  0  0  0  0  0  0  0  0
  -44.8420  -20.0480    2.1010 H   0  0  0  0  0  0  0  0  0  0  0  0
  -39.0230  -20.3910    5.4790 C   0  0  1  0  0  0  0  0  0  0  0  0
  -38.4860  -19.5110    4.3280 C   0  0  0  0  0  1  0  0  0  0  0  0
  -38.0330  -20.2740    6.6610 C   0  0  0  0  0  1  0  0  0  0  0  0
  -38.9820  -21.8650    5.0120 C   0  0  0  0  0  1  0  0  0  0  0  0
  -34.9850  -20.0910   17.9430 C   0  0  0  0  0  1  0  0  0  0  0  0
  -33.7040  -20.9050   17.6760 C   0  0  0  0  0  3  0  0  0  0  0  0
  -32.5770  -19.9240   17.0500 C   0  0  0  0  0  2  0  0  0  0  0  0
  -32.7030  -19.1740   15.6510 C   0  0  0  0  0  2  0  0  0  0  0  0
  -32.5590  -19.9980   14.3040 C   0  0  0  0  0  0  0  0  0  0  0  0
  -31.5400  -19.6660   12.0720 C   0  0  0  0  0  2  0  0  0  0  0  0
  -30.4300  -18.6030   12.2300 C   0  0  0  0  0  2  0  0  0  0  0  0
  -31.0070  -17.1840   12.0660 C   0  0  0  0  0  2  0  0  0  0  0  0
  -32.2830  -16.9590   12.9110 C   0  0  0  0  0  3  0  0  0  0  0  0
  -33.2820  -18.1280   12.7770 C   0  0  0  0  0  2  0  0  0  0  0  0
  -32.5740  -19.3760   13.0850 N   0  0  0  0  0  0  0  0  0  0  0  0
  -32.1570  -21.1610   14.4050 O   0  0  0  0  0  0  0  0  0  0  0  0
  -33.4320  -14.7420   13.5090 C   0  0  0  0  0  0  0  0  0  0  0  0
  -33.8240  -13.6780   12.7440 C   0  0  0  0  0  0  0  0  0  0  0  0
  -33.5220  -14.0310   11.3930 C   0  0  0  0  0  0  0  0  0  0  0  0
  -32.9120  -15.6730   12.6240 N   0  0  0  0  0  0  0  0  0  0  0  0
  -33.0280  -15.2610   11.3360 N   0  0  0  0  0  0  0  0  0  0  0  0
  -33.6160  -13.2410   10.1600 C   0  0  0  0  0  0  0  0  0  0  0  0
  -34.5930  -13.5210    9.1800 C   0  0  0  0  0  3  0  0  0  0  0  0
  -34.6720  -12.7410    8.0070 C   0  0  0  0  0  3  0  0  0  0  0  0
  -33.7690  -11.6700    7.8060 C   0  0  0  0  0  0  0  0  0  0  0  0
  -32.7820  -11.4130    8.7730 C   0  0  0  0  0  3  0  0  0  0  0  0
  -32.7030  -12.1930    9.9380 C   0  0  0  0  0  3  0  0  0  0  0  0
  -33.7530  -10.8760    6.6860 O   0  0  0  0  0  0  0  0  0  0  0  0
  -34.8030  -10.0470    6.3780 C   0  0  0  0  0  0  0  0  0  0  0  0
  -35.2800   -9.0800    7.2910 C   0  0  0  0  0  3  0  0  0  0  0  0
  -36.3140   -8.2030    6.9100 C   0  0  0  0  0  3  0  0  0  0  0  0
  -36.8650   -8.2820    5.6160 C   0  0  0  0  0  0  0  0  0  0  0  0
  -36.3860   -9.2390    4.7040 C   0  0  0  0  0  3  0  0  0  0  0  0
  -35.3570  -10.1180    5.0850 C   0  0  0  0  0  0  0  0  0  0  0  0
  -34.8830  -11.0230    4.1950 F   0  0  0  0  0  0  0  0  0  0  0  0
  -37.8570   -7.4380    5.2470 F   0  0  0  0  0  0  0  0  0  0  0  0
  -34.3640  -12.3690   13.2450 C   0  0  0  0  0  0  0  0  0  0  0  0
  -35.3600  -11.8170   12.5590 N   0  0  0  0  0  0  0  0  0  0  0  0
  -33.9390  -11.8520   14.2770 O   0  0  0  0  0  0  0  0  0  0  0  0
  -35.7160  -12.2520   11.7210 H   0  0  0  0  0  0  0  0  0  0  0  0
  -35.7730  -10.9510   12.8740 H   0  0  0  0  0  0  0  0  0  0  0  0
  -33.4470  -14.9880   14.8780 N   0  0  0  0  0  0  0  0  0  0  0  0
  -33.7690  -14.3000   15.5470 H   0  0  0  0  0  0  0  0  0  0  0  0
  -33.0880  -15.8260   15.3140 H   0  0  0  0  0  0  0  0  0  0  0  0
  1  8  1  0
  1 56  1  0
  2  3  1  0
  4  6  1  0
  4  2  1  0
  5  1  1  0
  5  4  1  0
  5  3  1  0
  6  7  1  0
  9  8  1  0
 10  8  1  0
 11  8  1  0
 12 11  1  0
 13 12  2  0
 14 13  1  0
 15 25  1  0
 16 14  1  0
 16 22  1  0
 17 27  1  0
 17 24  1  0
 18 23  1  0
 19 20  1  0
 20 21  1  0
 20 18  2  0
 21 16  2  0
 23 22  2  0
 24 18  1  0
 25 19  1  0
 25 17  1  0
 26 15  2  0
 27 28  1  0
 27 29  2  0
 30 28  1  0
 31 35  1  0
 32 28  1  0
 32 33  1  0
 33 34  1  0
 35 34  1  0
 36 31  1  0
 36 32  1  0
 37 36  2  0
 38 39  2  0
 38 37  1  0
 39 40  1  0
 40 31  2  0
 41 15  1  0
 42 41  1  0
 43 42  1  0
 43 44  2  0
 45 42  1  0
 47 46  1  0
 47 43  1  0
 48 49  1  0
 49 47  1  0
 50 49  1  0
 51 41  1  0
 51 53  1  1
 52 51  1  0
 54 51  1  0
 56 55  1  0
 57 56  1  0
 58 57  1  0
 59 66  2  0
 59 58  1  0
 60 61  1  0
 60 65  1  0
 62 61  1  0
 63 62  1  0
 64 63  1  0
 64 65  1  0
 65 59  1  0
 67 92  1  0
 68 87  1  0
 68 67  2  0
 69 68  1  0
 70 63  1  0
 70 67  1  0
 71 69  2  0
 71 70  1  0
 72 69  1  0
 73 72  2  0
 74 73  1  0
 75 74  2  0
 75 76  1  0
 76 77  2  0
 77 72  1  0
 78 75  1  0
 79 78  1  0
 79 80  1  0
 81 80  2  0
 82 81  1  0
 83 84  1  0
 83 82  2  0
 84 79  2  0
 85 84  1  0
 86 82  1  0
 87 89  2  0
 88 91  1  0
 88 87  1  0
 90 88  1  0
 92 94  1  0
 92 93  1  0
M  ISO  4  13 101  14 101  58 100  59 100
M  END
>  <TORSDO>  (39) 
F 24

>  <SCORE>  (39) 
-1.288

>  <name>  (39) 
38

>  <ligand_id>  (39) 
38

>  <original_smiles>  (39) 
[H]N=C1C([H])=C([H])C1([H])C([H])(C([H])(C([H])([H])[H])C([H])([H])C([H])([H])C(=O)N1C([H])([H])C([H])([H])C([H])([H])C([H])(n2nc(-c3c([H])c([H])c(Oc4c([H])c([H])c(F)c([H])c4F)c([H])c3[H])c(C(=O)N([H])[H])c2N([H])[H])C1([H])[H])[N+]([H])([H])C([H])([H])C([H])([H])C([H])([H])Oc1c([H])c([H])c2c(c1[H])C([H])([H])N(C(=O)C([H])(N([H])C(=O)C([H])(N([H])C([H])([H])[H])C([H])([H])[H])C(C([H])([H])[H])(C([H])([H])[H])C([H])([H])[H])C([H])(C(=O)N([H])C1([H])c3c([H])c([H])c([H])c([H])c3C([H])([H])C([H])([H])C1([H])[H])C2([H])[H]

>  <smiles>  (39) 
[H]N=C1C([H])=C([H])C1([H])C([H])(C([H])(C([H])([H])[H])C([H])([H])C([H])([H])C(=O)N1C([H])([H])C([H])([H])C([H])([H])C([H])(n2nc(-c3c([H])c([H])c(Oc4c([H])c([H])c(F)c([H])c4F)c([H])c3[H])c(C(=O)N([H])[H])c2N([H])[H])C1([H])[H])[N+]([H])([H])C([H])([H])C([H])([H])C([H])([H])Oc1c([H])c([H])c2c(c1[H])C([H])([H])N(C(=O)C([H])(N([H])C(=O)C([H])(N([H])C([H])([H])[H])C([H])([H])[H])C(C([H])([H])[H])(C([H])([H])[H])C([H])([H])[H])C([H])(C(=O)N([H])C1([H])c3c([H])c([H])c([H])c([H])c3C([H])([H])C([H])([H])C1([H])[H])C2([H])[H]

$$$$
39:0:0
     RDKit          3D

 93101  0  0  1  0  0  0  0  0999 V2000
  -30.3720  -20.7250   20.1280 C   0  0  0  0  0  2  0  0  0  0  0  0
  -28.0530  -21.1630   20.1530 C   0  0  0  0  0  2  0  0  0  0  0  0
  -29.3140  -21.9680   19.8390 C   0  0  0  0  0  3  0  0  0  0  0  0
  -29.6840  -19.2350   20.3310 C   0  0  0  0  0  3  0  0  0  0  0  0
  -28.3070  -19.6670   19.7450 C   0  0  0  0  0  3  0  0  0  0  0  0
  -27.1940  -18.8410   20.2090 N   0  0  0  0  0  4  0  0  0  0  0  0
  -27.1780  -18.7950   21.2150 H   0  0  0  0  0  0  0  0  0  0  0  0
  -27.2560  -17.9200   19.8170 H   0  0  0  0  0  0  0  0  0  0  0  0
  -26.3370  -19.2570   19.8930 H   0  0  0  0  0  0  0  0  0  0  0  0
  -30.8140  -24.0140   20.0140 C   0  0  0  0  0  1  0  0  0  0  0  0
  -29.3000  -23.5400   21.9510 C   0  0  0  0  0  1  0  0  0  0  0  0
  -29.3980  -23.5650   20.4070 C   0  0  2  0  0  0  0  0  0  0  0  0
  -28.3610  -24.7940   19.8810 C   0  0  0  0  0  2  0  0  0  0  0  0
  -28.4310  -26.2970   20.2760 O   0  0  0  0  0  0  0  0  0  0  0  0
  -24.6310  -31.8550   23.2470 C   0  0  0  0  0  0  0  0  0  0  0  0
  -27.3200  -27.2160   20.2080 C   0  0  0  0  0  0  0  0  0  0  0  0
  -23.4590  -30.4480   21.5910 C   0  0  0  0  0  3  0  0  0  0  0  0
  -24.9380  -28.8840   20.1910 C   0  0  0  0  0  0  0  0  0  0  0  0
  -26.0080  -30.7590   21.4400 C   0  0  0  0  0  2  0  0  0  0  0  0
  -26.1090  -29.3690   20.7860 C   0  0  0  0  0  0  0  0  0  0  0  0
  -27.2990  -28.5560   20.7660 C   0  0  0  0  0  3  0  0  0  0  0  0
  -26.1130  -26.8170   19.5940 C   0  0  0  0  0  3  0  0  0  0  0  0
  -24.9500  -27.6170   19.5850 C   0  0  0  0  0  3  0  0  0  0  0  0
  -23.6960  -29.7520   20.2230 C   0  0  0  0  0  2  0  0  0  0  0  0
  -24.7180  -31.0460   22.1460 N   0  0  0  0  0  0  0  0  0  0  0  0
  -23.5400  -32.1350   23.7630 O   0  0  0  0  0  0  0  0  0  0  0  0
  -22.7730  -29.4470   22.5550 C   0  0  0  0  0  0  0  0  0  0  0  0
  -21.4440  -29.2840   22.4240 N   0  0  0  0  0  0  0  0  0  0  0  0
  -23.4420  -28.8100   23.3750 O   0  0  0  0  0  0  0  0  0  0  0  0
  -20.9650  -29.8420   21.7320 H   0  0  0  0  0  0  0  0  0  0  0  0
  -18.0530  -28.0990   22.9300 C   0  0  0  0  0  0  0  0  0  0  0  0
  -20.6170  -28.3420   23.1860 C   0  0  0  0  0  3  0  0  0  0  0  0
  -20.7050  -26.9150   22.5960 C   0  0  0  0  0  2  0  0  0  0  0  0
  -19.5960  -26.6090   21.5860 C   0  0  0  0  0  2  0  0  0  0  0  0
  -18.2180  -26.7560   22.2370 C   0  0  0  0  0  2  0  0  0  0  0  0
  -19.1800  -28.8500   23.3620 C   0  0  0  0  0  0  0  0  0  0  0  0
  -18.9680  -30.1080   23.9670 C   0  0  0  0  0  3  0  0  0  0  0  0
  -17.6670  -30.6100   24.1490 C   0  0  0  0  0  3  0  0  0  0  0  0
  -16.5570  -29.8570   23.7310 C   0  0  0  0  0  3  0  0  0  0  0  0
  -16.7520  -28.6020   23.1270 C   0  0  0  0  0  3  0  0  0  0  0  0
  -25.9020  -32.4940   23.8910 C   0  0  0  0  0  3  0  0  0  0  0  0
  -26.3960  -31.7360   25.1850 C   0  0  1  0  0  0  0  0  0  0  0  0
  -25.2810  -31.5120   26.2350 C   0  0  0  0  0  1  0  0  0  0  0  0
  -26.9880  -30.3510   24.8280 C   0  0  0  0  0  1  0  0  0  0  0  0
  -27.5370  -32.5390   25.8580 C   0  0  0  0  0  1  0  0  0  0  0  0
  -25.5890  -33.8960   24.2120 N   0  0  0  0  0  0  0  0  0  0  0  0
  -25.9140  -34.9460   23.4470 C   0  0  0  0  0  0  0  0  0  0  0  0
  -26.5790  -34.8350   22.4130 O   0  0  0  0  0  0  0  0  0  0  0  0
  -25.0010  -34.0540   25.0170 H   0  0  0  0  0  0  0  0  0  0  0  0
  -24.1760  -36.7330   23.1060 C   0  0  0  0  0  1  0  0  0  0  0  0
  -25.4300  -36.3370   23.9010 C   0  0  0  0  0  3  0  0  0  0  0  0
  -27.5690  -37.2400   24.7060 C   0  0  0  0  0  1  0  0  0  0  0  0
  -26.4570  -37.3920   23.7700 N   0  0  0  0  0  0  0  0  0  0  0  0
  -26.0500  -38.3130   23.9140 H   0  0  0  0  0  0  0  0  0  0  0  0
  -30.4030  -17.7570   19.8680 C   0  0  0  0  0  2  0  0  0  0  0  0
  -30.6510  -15.0180   20.0460 C   0  0  0  0  0  0  0  0  0  0  0  0
  -30.3820  -12.7090   19.0470 C   0  0  0  0  0  2  0  0  0  0  0  0
  -29.3860  -12.7240   17.8650 C   0  0  0  0  0  2  0  0  0  0  0  0
  -27.9430  -12.5310   18.3630 C   0  0  0  0  0  2  0  0  0  0  0  0
  -27.6170  -13.4000   19.6080 C   0  0  0  0  0  3  0  0  0  0  0  0
  -28.7450  -13.3730   20.6700 C   0  0  0  0  0  2  0  0  0  0  0  0
  -29.9840  -13.7890   19.9970 N   0  0  0  0  0  0  0  0  0  0  0  0
  -31.8340  -15.0190   19.7010 O   0  0  0  0  0  0  0  0  0  0  0  0
  -29.9740  -16.2620   20.2300 N   0  0  0  0  0  0  0  0  0  0  0  0
  -29.0130  -16.1400   20.5050 H   0  0  0  0  0  0  0  0  0  0  0  0
  -25.2690  -13.9500   20.4610 C   0  0  0  0  0  0  0  0  0  0  0  0
  -24.2190  -13.1680   20.8410 C   0  0  0  0  0  0  0  0  0  0  0  0
  -24.6840  -11.8170   20.7740 C   0  0  0  0  0  0  0  0  0  0  0  0
  -26.3050  -13.0850   20.1650 N   0  0  0  0  0  0  0  0  0  0  0  0
  -25.9640  -11.7940   20.4190 N   0  0  0  0  0  0  0  0  0  0  0  0
  -23.9680  -10.5520   20.9740 C   0  0  0  0  0  0  0  0  0  0  0  0
  -24.4200   -9.5830   21.8980 C   0  0  0  0  0  3  0  0  0  0  0  0
  -23.6960   -8.3870   22.0900 C   0  0  0  0  0  3  0  0  0  0  0  0
  -22.5080   -8.1500   21.3590 C   0  0  0  0  0  0  0  0  0  0  0  0
  -22.0710   -9.1110   20.4290 C   0  0  0  0  0  3  0  0  0  0  0  0
  -22.7950  -10.2980   20.2340 C   0  0  0  0  0  3  0  0  0  0  0  0
  -21.7540   -7.0030   21.4610 O   0  0  0  0  0  0  0  0  0  0  0  0
  -21.7120   -6.2670   22.6200 C   0  0  0  0  0  0  0  0  0  0  0  0
  -21.2730   -6.8230   23.8410 C   0  0  0  0  0  3  0  0  0  0  0  0
  -21.1850   -6.0160   24.9930 C   0  0  0  0  0  3  0  0  0  0  0  0
  -21.5250   -4.6510   24.9230 C   0  0  0  0  0  0  0  0  0  0  0  0
  -21.9580   -4.0930   23.7100 C   0  0  0  0  0  3  0  0  0  0  0  0
  -22.0510   -4.9000   22.5610 C   0  0  0  0  0  0  0  0  0  0  0  0
  -22.4510   -4.3550   21.3870 F   0  0  0  0  0  0  0  0  0  0  0  0
  -21.4290   -3.8720   26.0250 F   0  0  0  0  0  0  0  0  0  0  0  0
  -22.8320  -13.6350   21.1740 C   0  0  0  0  0  0  0  0  0  0  0  0
  -22.1440  -12.9310   22.0650 N   0  0  0  0  0  0  0  0  0  0  0  0
  -22.3760  -14.6680   20.6840 O   0  0  0  0  0  0  0  0  0  0  0  0
  -22.5310  -12.0960   22.4810 H   0  0  0  0  0  0  0  0  0  0  0  0
  -21.2140  -13.2230   22.3330 H   0  0  0  0  0  0  0  0  0  0  0  0
  -25.4320  -15.3270   20.3340 N   0  0  0  0  0  0  0  0  0  0  0  0
  -24.6970  -15.9510   20.6450 H   0  0  0  0  0  0  0  0  0  0  0  0
  -26.3490  -15.7400   20.3600 H   0  0  0  0  0  0  0  0  0  0  0  0
  1  4  1  0
  3  1  1  0
  3  2  1  0
  3 12  1  0
  4 55  1  0
  5  2  1  0
  5  6  1  0
  5  4  1  0
  6  7  1  0
  8  6  1  0
  9  6  1  0
 12 10  1  1
 12 11  1  0
 13 14  1  0
 13 12  1  0
 15 26  2  0
 16 14  1  0
 16 21  1  0
 17 25  1  0
 17 27  1  0
 18 24  1  0
 18 20  1  0
 19 25  1  0
 20 19  1  0
 21 20  2  0
 22 16  2  0
 23 22  1  0
 23 18  2  0
 24 17  1  0
 25 15  1  0
 27 29  2  0
 28 27  1  0
 30 28  1  0
 31 40  2  0
 31 36  1  0
 32 28  1  0
 32 36  1  0
 33 32  1  0
 34 35  1  0
 34 33  1  0
 35 31  1  0
 36 37  2  0
 37 38  1  0
 39 38  2  0
 40 39  1  0
 41 15  1  0
 41 46  1  0
 41 42  1  0
 42 45  1  1
 42 43  1  0
 44 42  1  0
 46 49  1  0
 47 51  1  0
 47 46  1  0
 48 47  2  0
 51 50  1  0
 53 51  1  0
 53 54  1  0
 53 52  1  0
 55 64  1  0
 56 64  1  0
 57 62  1  0
 58 59  1  0
 58 57  1  0
 60 59  1  0
 60 69  1  0
 60 61  1  0
 62 56  1  0
 62 61  1  0
 63 56  2  0
 64 65  1  0
 66 67  2  0
 67 86  1  0
 68 67  1  0
 68 71  1  0
 69 70  1  0
 69 66  1  0
 70 68  2  0
 71 72  1  0
 72 73  2  0
 74 77  1  0
 74 73  1  0
 75 74  2  0
 76 75  1  0
 76 71  2  0
 77 78  1  0
 78 79  1  0
 79 80  2  0
 81 80  1  0
 81 85  1  0
 82 81  2  0
 83 78  2  0
 83 82  1  0
 84 83  1  0
 86 87  1  0
 87 90  1  0
 87 89  1  0
 88 86  2  0
 91 93  1  0
 91 66  1  0
 91 92  1  0
M  ISO  4  13 101  14 101  56 100  64 100
M  END
>  <TORSDO>  (40) 
F 20

>  <SCORE>  (40) 
-15.250

>  <name>  (40) 
39

>  <ligand_id>  (40) 
39

>  <original_smiles>  (40) 
[H]c1c([H])c([H])c2c(c1[H])C([H])([H])C([H])([H])C([H])([H])C2([H])N([H])C(=O)C1([H])N(C(=O)C([H])(N([H])C(=O)C([H])(N([H])C([H])([H])[H])C([H])([H])[H])C(C([H])([H])[H])(C([H])([H])[H])C([H])([H])[H])C([H])([H])c2c([H])c(OC([H])([H])C(C([H])([H])[H])(C([H])([H])[H])C3([H])C([H])([H])C([H])(C([H])([H])N([H])C(=O)N4C([H])([H])C([H])([H])C([H])([H])C([H])(n5nc(-c6c([H])c([H])c(Oc7c([H])c([H])c(F)c([H])c7F)c([H])c6[H])c(C(=O)N([H])[H])c5N([H])[H])C4([H])[H])C([H])([N+]([H])([H])[H])C3([H])[H])c([H])c([H])c2C1([H])[H]

>  <smiles>  (40) 
[H]c1c([H])c([H])c2c(c1[H])C([H])([H])C([H])([H])C([H])([H])C2([H])N([H])C(=O)C1([H])N(C(=O)C([H])(N([H])C(=O)C([H])(N([H])C([H])([H])[H])C([H])([H])[H])C(C([H])([H])[H])(C([H])([H])[H])C([H])([H])[H])C([H])([H])c2c([H])c(OC([H])([H])C(C([H])([H])[H])(C([H])([H])[H])C3([H])C([H])([H])C([H])(C([H])([H])N([H])C(=O)N4C([H])([H])C([H])([H])C([H])([H])C([H])(n5nc(-c6c([H])c([H])c(Oc7c([H])c([H])c(F)c([H])c7F)c([H])c6[H])c(C(=O)N([H])[H])c5N([H])[H])C4([H])[H])C([H])([N+]([H])([H])[H])C3([H])[H])c([H])c([H])c2C1([H])[H]

$$$$
40:0:0
     RDKit          3D

101109  0  0  1  0  0  0  0  0999 V2000
  -31.6340  -19.5530   21.2260 C   0  0  0  0  0  2  0  0  0  0  0  0
  -30.8350  -20.8750   21.2070 C   0  0  0  0  0  2  0  0  0  0  0  0
  -31.1380  -20.8080   18.7340 C   0  0  0  0  0  2  0  0  0  0  0  0
  -30.9380  -18.2510   19.0590 C   0  0  0  0  0  3  0  0  0  0  0  0
  -30.9100  -18.3050   20.6310 C   0  0  0  0  0  3  0  0  0  0  0  0
  -30.2980  -19.5350   18.4610 C   0  0  0  0  0  3  0  0  0  0  0  0
  -30.5960  -21.5040   19.8990 N   0  0  0  0  0  0  0  0  0  0  0  0
  -29.9190  -19.4450   17.0320 N   0  0  0  0  0  4  0  0  0  0  0  0
  -30.7110  -19.4360   16.4160 H   0  0  0  0  0  0  0  0  0  0  0  0
  -29.3660  -20.2500   16.7940 H   0  0  0  0  0  0  0  0  0  0  0  0
  -29.3460  -18.6390   16.8520 H   0  0  0  0  0  0  0  0  0  0  0  0
  -32.3040  -17.9160   18.4150 C   0  0  0  0  0  0  0  0  0  0  0  0
  -32.2860  -17.0590   17.1540 C   0  0  0  0  0  1  0  0  0  0  0  0
  -33.3740  -18.3300   18.8640 O   0  0  0  0  0  0  0  0  0  0  0  0
  -30.9150  -22.9320   19.9040 C   0  0  0  0  0  2  0  0  0  0  0  0
  -29.7640  -23.6900   19.2300 C   0  0  0  0  0  2  0  0  0  0  0  0
  -29.8300  -25.2050   19.4270 C   0  0  0  0  0  2  0  0  0  0  0  0
  -28.4620  -25.8160   19.1390 C   0  0  0  0  0  2  0  0  0  0  0  0
  -28.4750  -27.1860   19.5010 O   0  0  0  0  0  0  0  0  0  0  0  0
  -24.6210  -31.8450   23.1910 C   0  0  0  0  0  0  0  0  0  0  0  0
  -27.2570  -27.8170   19.6040 C   0  0  0  0  0  0  0  0  0  0  0  0
  -23.3840  -30.5620   21.4760 C   0  0  0  0  0  3  0  0  0  0  0  0
  -24.8150  -29.2080   19.8630 C   0  0  0  0  0  0  0  0  0  0  0  0
  -25.8870  -31.0200   21.2130 C   0  0  0  0  0  2  0  0  0  0  0  0
  -25.9800  -29.7190   20.4500 C   0  0  0  0  0  0  0  0  0  0  0  0
  -27.2010  -29.0270   20.3230 C   0  0  0  0  0  3  0  0  0  0  0  0
  -26.0700  -27.3110   19.0170 C   0  0  0  0  0  3  0  0  0  0  0  0
  -24.8530  -27.9990   19.1510 C   0  0  0  0  0  3  0  0  0  0  0  0
  -23.5520  -30.0160   20.0330 C   0  0  0  0  0  2  0  0  0  0  0  0
  -24.6500  -31.1530   22.0180 N   0  0  0  0  0  0  0  0  0  0  0  0
  -23.5570  -32.0340   23.7950 O   0  0  0  0  0  0  0  0  0  0  0  0
  -22.8060  -29.4350   22.3620 C   0  0  0  0  0  0  0  0  0  0  0  0
  -21.4870  -29.2060   22.2530 N   0  0  0  0  0  0  0  0  0  0  0  0
  -23.5380  -28.7740   23.1030 O   0  0  0  0  0  0  0  0  0  0  0  0
  -20.9550  -29.7990   21.6280 H   0  0  0  0  0  0  0  0  0  0  0  0
  -18.1860  -27.8080   22.6810 C   0  0  0  0  0  0  0  0  0  0  0  0
  -20.7290  -28.1770   22.9610 C   0  0  0  0  0  3  0  0  0  0  0  0
  -20.9000  -26.7960   22.2860 C   0  0  0  0  0  2  0  0  0  0  0  0
  -19.8090  -26.4890   21.2550 C   0  0  0  0  0  2  0  0  0  0  0  0
  -18.4260  -26.5200   21.9120 C   0  0  0  0  0  2  0  0  0  0  0  0
  -19.2680  -28.5940   23.1590 C   0  0  0  0  0  0  0  0  0  0  0  0
  -18.9900  -29.8020   23.8350 C   0  0  0  0  0  3  0  0  0  0  0  0
  -17.6640  -30.2250   24.0390 C   0  0  0  0  0  3  0  0  0  0  0  0
  -16.5950  -29.4330   23.5810 C   0  0  0  0  0  3  0  0  0  0  0  0
  -16.8580  -28.2270   22.9080 C   0  0  0  0  0  3  0  0  0  0  0  0
  -25.9160  -32.4550   23.8140 C   0  0  0  0  0  3  0  0  0  0  0  0
  -26.4330  -31.6620   25.0770 C   0  0  1  0  0  0  0  0  0  0  0  0
  -25.3440  -31.4250   26.1490 C   0  0  0  0  0  1  0  0  0  0  0  0
  -26.9950  -30.2820   24.6600 C   0  0  0  0  0  1  0  0  0  0  0  0
  -27.5970  -32.4330   25.7400 C   0  0  0  0  0  1  0  0  0  0  0  0
  -25.6230  -33.8510   24.1620 N   0  0  0  0  0  0  0  0  0  0  0  0
  -26.0180  -34.9120   23.4450 C   0  0  0  0  0  0  0  0  0  0  0  0
  -26.7390  -34.8160   22.4470 O   0  0  0  0  0  0  0  0  0  0  0  0
  -24.9910  -34.0020   24.9350 H   0  0  0  0  0  0  0  0  0  0  0  0
  -24.3600  -36.7550   23.0260 C   0  0  0  0  0  1  0  0  0  0  0  0
  -25.5350  -36.3000   23.9070 C   0  0  0  0  0  3  0  0  0  0  0  0
  -27.6310  -37.1060   24.8990 C   0  0  0  0  0  1  0  0  0  0  0  0
  -26.5980  -37.3290   23.8900 N   0  0  0  0  0  0  0  0  0  0  0  0
  -26.2060  -38.2560   24.0370 H   0  0  0  0  0  0  0  0  0  0  0  0
  -31.3700  -16.9950   21.3540 C   0  0  0  0  0  3  0  0  0  0  0  0
  -31.1660  -14.8130   20.1640 C   0  0  0  0  0  0  0  0  0  0  0  0
  -30.7520  -12.6490   19.0740 C   0  0  0  0  0  2  0  0  0  0  0  0
  -29.8180  -12.8250   17.8630 C   0  0  0  0  0  2  0  0  0  0  0  0
  -28.3460  -12.7290   18.3070 C   0  0  0  0  0  2  0  0  0  0  0  0
  -28.0270  -13.6440   19.5210 C   0  0  0  0  0  3  0  0  0  0  0  0
  -29.0790  -13.4720   20.6390 C   0  0  0  0  0  2  0  0  0  0  0  0
  -30.4140  -13.6900   20.0540 N   0  0  0  0  0  0  0  0  0  0  0  0
  -32.2400  -14.9600   19.5810 O   0  0  0  0  0  0  0  0  0  0  0  0
  -30.6500  -15.7930   20.9160 N   0  0  0  0  0  0  0  0  0  0  0  0
  -29.7570  -15.6050   21.3430 H   0  0  0  0  0  0  0  0  0  0  0  0
  -25.6580  -14.3260   20.2630 C   0  0  0  0  0  0  0  0  0  0  0  0
  -24.5700  -13.5890   20.6450 C   0  0  0  0  0  0  0  0  0  0  0  0
  -24.9860  -12.2220   20.6040 C   0  0  0  0  0  0  0  0  0  0  0  0
  -26.6710  -13.4130   20.0170 N   0  0  0  0  0  0  0  0  0  0  0  0
  -26.2710  -12.1420   20.2780 N   0  0  0  0  0  0  0  0  0  0  0  0
  -24.2220  -10.9840   20.8040 C   0  0  0  0  0  0  0  0  0  0  0  0
  -24.6130  -10.0210   21.7600 C   0  0  0  0  0  3  0  0  0  0  0  0
  -23.8520   -8.8470   21.9460 C   0  0  0  0  0  3  0  0  0  0  0  0
  -22.6850   -8.6280   21.1740 C   0  0  0  0  0  0  0  0  0  0  0  0
  -22.3130   -9.5790   20.2080 C   0  0  0  0  0  3  0  0  0  0  0  0
  -23.0760  -10.7450   20.0210 C   0  0  0  0  0  3  0  0  0  0  0  0
  -21.8990   -7.5040   21.2670 O   0  0  0  0  0  0  0  0  0  0  0  0
  -21.7680   -6.8120   22.4440 C   0  0  0  0  0  0  0  0  0  0  0  0
  -21.2960   -7.4290   23.6230 C   0  0  0  0  0  3  0  0  0  0  0  0
  -21.1110   -6.6660   24.7930 C   0  0  0  0  0  3  0  0  0  0  0  0
  -21.3870   -5.2850   24.7840 C   0  0  0  0  0  0  0  0  0  0  0  0
  -21.8510   -4.6670   23.6100 C   0  0  0  0  0  3  0  0  0  0  0  0
  -22.0380   -5.4280   22.4430 C   0  0  0  0  0  0  0  0  0  0  0  0
  -22.4650   -4.8240   21.3080 F   0  0  0  0  0  0  0  0  0  0  0  0
  -21.2020   -4.5480   25.9040 F   0  0  0  0  0  0  0  0  0  0  0  0
  -23.1930  -14.1090   20.9390 C   0  0  0  0  0  0  0  0  0  0  0  0
  -22.4710  -13.4560   21.8420 N   0  0  0  0  0  0  0  0  0  0  0  0
  -22.7690  -15.1310   20.4040 O   0  0  0  0  0  0  0  0  0  0  0  0
  -22.8280  -12.6290   22.2990 H   0  0  0  0  0  0  0  0  0  0  0  0
  -21.5470  -13.7860   22.0810 H   0  0  0  0  0  0  0  0  0  0  0  0
  -25.8680  -15.6920   20.0890 N   0  0  0  0  0  0  0  0  0  0  0  0
  -25.1260  -16.3720   20.2100 H   0  0  0  0  0  0  0  0  0  0  0  0
  -26.7370  -16.1030   19.7750 H   0  0  0  0  0  0  0  0  0  0  0  0
  -31.2620  -17.0430   22.9010 C   0  0  0  0  0  2  0  0  0  0  0  0
  -30.5620  -18.5060   24.8720 C   0  0  0  0  0  1  0  0  0  0  0  0
  -30.2160  -18.0340   23.4570 C   0  0  0  0  0  2  0  0  0  0  0  0
  2  1  1  0
  3  7  1  0
  4 12  1  0
  4  5  1  0
  5  1  1  0
  5 60  1  0
  6  8  1  0
  6  3  1  0
  6  4  1  0
  7 15  1  0
  7  2  1  0
  9  8  1  0
 10  8  1  0
 11  8  1  0
 12 14  2  0
 13 12  1  0
 16 17  1  0
 16 15  1  0
 18 17  1  0
 18 19  1  0
 19 21  1  0
 20 31  2  0
 21 26  1  0
 22 30  1  0
 22 32  1  0
 23 29  1  0
 23 25  1  0
 24 30  1  0
 25 24  1  0
 26 25  2  0
 27 28  1  0
 27 21  2  0
 28 23  2  0
 29 22  1  0
 30 20  1  0
 32 34  2  0
 33 32  1  0
 35 33  1  0
 36 45  2  0
 36 41  1  0
 37 33  1  0
 37 41  1  0
 38 37  1  0
 39 40  1  0
 39 38  1  0
 40 36  1  0
 41 42  2  0
 42 43  1  0
 44 43  2  0
 45 44  1  0
 46 20  1  0
 46 51  1  0
 46 47  1  0
 47 50  1  1
 47 48  1  0
 49 47  1  0
 51 54  1  0
 52 56  1  0
 52 51  1  0
 53 52  2  0
 56 55  1  0
 58 56  1  0
 58 59  1  0
 58 57  1  0
 60 99  1  0
 61 69  1  0
 62 67  1  0
 63 64  1  0
 63 62  1  0
 65 64  1  0
 65 74  1  0
 65 66  1  0
 67 61  1  0
 67 66  1  0
 68 61  2  0
 69 70  1  0
 69 60  1  0
 71 72  2  0
 72 91  1  0
 73 72  1  0
 73 76  1  0
 74 71  1  0
 74 75  1  0
 75 73  2  0
 76 77  1  0
 77 78  2  0
 79 82  1  0
 79 78  1  0
 80 79  2  0
 81 80  1  0
 81 76  2  0
 82 83  1  0
 83 84  1  0
 84 85  2  0
 86 85  1  0
 86 90  1  0
 87 86  2  0
 88 83  2  0
 88 87  1  0
 89 88  1  0
 91 92  1  0
 92 95  1  0
 92 94  1  0
 93 91  2  0
 96 97  1  0
 96 71  1  0
 98 96  1  0
 99101  1  0
101100  1  0
M  ISO  4  18 101  19 101  61 100  69 100
M  END
>  <TORSDO>  (41) 
F 25

>  <SCORE>  (41) 
-9.398

>  <name>  (41) 
40

>  <ligand_id>  (41) 
40

>  <original_smiles>  (41) 
[H]c1c([H])c([H])c2c(c1[H])C([H])([H])C([H])([H])C([H])([H])C2([H])N([H])C(=O)C1([H])N(C(=O)C([H])(N([H])C(=O)C([H])(N([H])C([H])([H])[H])C([H])([H])[H])C(C([H])([H])[H])(C([H])([H])[H])C([H])([H])[H])C([H])([H])c2c([H])c(OC([H])([H])C([H])([H])C([H])([H])C([H])([H])N3C([H])([H])C([H])([H])C([H])(C([H])(N([H])C(=O)N4C([H])([H])C([H])([H])C([H])([H])C([H])(n5nc(-c6c([H])c([H])c(Oc7c([H])c([H])c(F)c([H])c7F)c([H])c6[H])c(C(=O)N([H])[H])c5N([H])[H])C4([H])[H])C([H])([H])C([H])([H])C([H])([H])[H])C([H])(C(=O)C([H])([H])[H])C([H])([N+]([H])([H])[H])C3([H])[H])c([H])c([H])c2C1([H])[H]

>  <smiles>  (41) 
[H]c1c([H])c([H])c2c(c1[H])C([H])([H])C([H])([H])C([H])([H])C2([H])N([H])C(=O)C1([H])N(C(=O)C([H])(N([H])C(=O)C([H])(N([H])C([H])([H])[H])C([H])([H])[H])C(C([H])([H])[H])(C([H])([H])[H])C([H])([H])[H])C([H])([H])c2c([H])c(OC([H])([H])C([H])([H])C([H])([H])C([H])([H])N3C([H])([H])C([H])([H])C([H])(C([H])(N([H])C(=O)N4C([H])([H])C([H])([H])C([H])([H])C([H])(n5nc(-c6c([H])c([H])c(Oc7c([H])c([H])c(F)c([H])c7F)c([H])c6[H])c(C(=O)N([H])[H])c5N([H])[H])C4([H])[H])C([H])([H])C([H])([H])C([H])([H])[H])C([H])(C(=O)C([H])([H])[H])C([H])([N+]([H])([H])[H])C3([H])[H])c([H])c([H])c2C1([H])[H]

$$$$
41:0:0
     RDKit          3D

 91 98  0  0  1  0  0  0  0  0999 V2000
  -29.5800  -20.4360   20.4170 C   0  0  0  0  0  0  0  0  0  0  0  0
  -29.7400  -20.0840   19.1290 N   0  0  0  0  0  4  0  0  0  0  0  0
  -29.2020  -21.7020   20.7520 N   0  0  0  0  0  0  0  0  0  0  0  0
  -30.0580  -19.1530   18.8920 H   0  0  0  0  0  0  0  0  0  0  0  0
  -29.6050  -20.7190   18.3560 H   0  0  0  0  0  0  0  0  0  0  0  0
  -29.1350  -21.9160   21.7390 H   0  0  0  0  0  0  0  0  0  0  0  0
  -29.8760  -19.4060   21.5020 C   0  0  0  0  0  2  0  0  0  0  0  0
  -29.3960  -17.9470   21.1770 C   0  0  0  0  0  2  0  0  0  0  0  0
  -30.5190  -16.8680   21.1290 C   0  0  0  0  0  2  0  0  0  0  0  0
  -30.7120  -14.4710   20.3650 C   0  0  0  0  0  0  0  0  0  0  0  0
  -30.3880  -12.3240   19.1820 C   0  0  0  0  0  2  0  0  0  0  0  0
  -29.4380  -12.5450   17.9860 C   0  0  0  0  0  2  0  0  0  0  0  0
  -27.9630  -12.4220   18.4220 C   0  0  0  0  0  2  0  0  0  0  0  0
  -27.6480  -13.2440   19.7020 C   0  0  0  0  0  3  0  0  0  0  0  0
  -28.7100  -12.9880   20.7950 C   0  0  0  0  0  2  0  0  0  0  0  0
  -30.0300  -13.3000   20.2220 N   0  0  0  0  0  0  0  0  0  0  0  0
  -31.8350  -14.6500   19.8850 O   0  0  0  0  0  0  0  0  0  0  0  0
  -30.0310  -15.4850   20.9410 N   0  0  0  0  0  0  0  0  0  0  0  0
  -29.1050  -15.2680   21.2760 H   0  0  0  0  0  0  0  0  0  0  0  0
  -25.2610  -13.8840   20.4290 C   0  0  0  0  0  0  0  0  0  0  0  0
  -24.1870  -13.1260   20.8090 C   0  0  0  0  0  0  0  0  0  0  0  0
  -24.6300  -11.7680   20.7770 C   0  0  0  0  0  0  0  0  0  0  0  0
  -26.2940  -12.9900   20.1890 N   0  0  0  0  0  0  0  0  0  0  0  0
  -25.9170  -11.7110   20.4560 N   0  0  0  0  0  0  0  0  0  0  0  0
  -23.8900  -10.5150   20.9750 C   0  0  0  0  0  0  0  0  0  0  0  0
  -24.3090   -9.5530   21.9200 C   0  0  0  0  0  3  0  0  0  0  0  0
  -23.5720   -8.3630   22.1040 C   0  0  0  0  0  3  0  0  0  0  0  0
  -22.4020   -8.1280   21.3420 C   0  0  0  0  0  0  0  0  0  0  0  0
  -22.0050   -9.0790   20.3860 C   0  0  0  0  0  3  0  0  0  0  0  0
  -22.7420  -10.2600   20.2010 C   0  0  0  0  0  3  0  0  0  0  0  0
  -21.6390   -6.9890   21.4340 O   0  0  0  0  0  0  0  0  0  0  0  0
  -21.5590   -6.2690   22.5980 C   0  0  0  0  0  0  0  0  0  0  0  0
  -21.0900   -6.8440   23.8000 C   0  0  0  0  0  3  0  0  0  0  0  0
  -20.9560   -6.0480   24.9550 C   0  0  0  0  0  3  0  0  0  0  0  0
  -21.2840   -4.6800   24.9110 C   0  0  0  0  0  0  0  0  0  0  0  0
  -21.7490   -4.1050   23.7150 C   0  0  0  0  0  3  0  0  0  0  0  0
  -21.8820   -4.8980   22.5610 C   0  0  0  0  0  0  0  0  0  0  0  0
  -22.3080   -4.3340   21.4040 F   0  0  0  0  0  0  0  0  0  0  0  0
  -21.1510   -3.9140   26.0180 F   0  0  0  0  0  0  0  0  0  0  0  0
  -22.8000  -13.6210   21.0940 C   0  0  0  0  0  0  0  0  0  0  0  0
  -22.0690  -12.9340   21.9650 N   0  0  0  0  0  0  0  0  0  0  0  0
  -22.3710  -14.6520   20.5770 O   0  0  0  0  0  0  0  0  0  0  0  0
  -22.4270  -12.1010   22.4100 H   0  0  0  0  0  0  0  0  0  0  0  0
  -21.1360  -13.2480   22.1910 H   0  0  0  0  0  0  0  0  0  0  0  0
  -25.4430  -15.2520   20.2460 N   0  0  0  0  0  0  0  0  0  0  0  0
  -24.6770  -15.9100   20.3260 H   0  0  0  0  0  0  0  0  0  0  0  0
  -26.2860  -15.6750   19.8790 H   0  0  0  0  0  0  0  0  0  0  0  0
  -28.8980  -22.8420   19.8440 C   0  0  0  0  0  2  0  0  0  0  0  0
  -28.6700  -24.2100   20.5640 C   0  0  0  0  0  2  0  0  0  0  0  0
  -28.7090  -25.4430   19.6100 C   0  0  0  0  0  2  0  0  0  0  0  0
  -28.5260  -26.7280   20.2510 O   0  0  0  0  0  0  0  0  0  0  0  0
  -24.6610  -31.9180   23.2390 C   0  0  0  0  0  0  0  0  0  0  0  0
  -27.3230  -27.4220   20.2140 C   0  0  0  0  0  0  0  0  0  0  0  0
  -23.4610  -30.4980   21.6060 C   0  0  0  0  0  3  0  0  0  0  0  0
  -24.9180  -28.9380   20.2020 C   0  0  0  0  0  0  0  0  0  0  0  0
  -25.9870  -30.8490   21.4130 C   0  0  0  0  0  2  0  0  0  0  0  0
  -26.0740  -29.4690   20.7870 C   0  0  0  0  0  0  0  0  0  0  0  0
  -27.2730  -28.7180   20.7870 C   0  0  0  0  0  3  0  0  0  0  0  0
  -26.1370  -26.9040   19.6400 C   0  0  0  0  0  3  0  0  0  0  0  0
  -24.9470  -27.6570   19.6280 C   0  0  0  0  0  3  0  0  0  0  0  0
  -23.6750  -29.7990   20.2340 C   0  0  0  0  0  2  0  0  0  0  0  0
  -24.7210  -31.1070   22.1420 N   0  0  0  0  0  0  0  0  0  0  0  0
  -23.5790  -32.1960   23.7730 O   0  0  0  0  0  0  0  0  0  0  0  0
  -22.8030  -29.4930   22.5800 C   0  0  0  0  0  0  0  0  0  0  0  0
  -21.4780  -29.3110   22.4490 N   0  0  0  0  0  0  0  0  0  0  0  0
  -23.4830  -28.8790   23.4050 O   0  0  0  0  0  0  0  0  0  0  0  0
  -20.9910  -29.8610   21.7570 H   0  0  0  0  0  0  0  0  0  0  0  0
  -18.1030  -28.1210   22.9500 C   0  0  0  0  0  0  0  0  0  0  0  0
  -20.6590  -28.3800   23.2260 C   0  0  0  0  0  3  0  0  0  0  0  0
  -20.7620  -26.9440   22.6620 C   0  0  0  0  0  2  0  0  0  0  0  0
  -19.6620  -26.6130   21.6480 C   0  0  0  0  0  2  0  0  0  0  0  0
  -18.2790  -26.7650   22.2880 C   0  0  0  0  0  2  0  0  0  0  0  0
  -19.2200  -28.8850   23.3770 C   0  0  0  0  0  0  0  0  0  0  0  0
  -19.0020  -30.1530   23.9560 C   0  0  0  0  0  3  0  0  0  0  0  0
  -17.6960  -30.6580   24.1140 C   0  0  0  0  0  3  0  0  0  0  0  0
  -16.5920  -29.8900   23.7040 C   0  0  0  0  0  3  0  0  0  0  0  0
  -16.7960  -28.6240   23.1260 C   0  0  0  0  0  3  0  0  0  0  0  0
  -25.9450  -32.5540   23.8570 C   0  0  0  0  0  3  0  0  0  0  0  0
  -25.6300  -33.9490   24.1950 N   0  0  0  0  0  0  0  0  0  0  0  0
  -25.9490  -35.0060   23.4380 C   0  0  0  0  0  0  0  0  0  0  0  0
  -26.6130  -34.9120   22.4010 O   0  0  0  0  0  0  0  0  0  0  0  0
  -25.0380  -34.0960   25.0000 H   0  0  0  0  0  0  0  0  0  0  0  0
  -24.2090  -36.7890   23.1030 C   0  0  0  0  0  1  0  0  0  0  0  0
  -25.4580  -36.3890   23.9060 C   0  0  0  0  0  3  0  0  0  0  0  0
  -27.5900  -37.2860   24.7290 C   0  0  0  0  0  1  0  0  0  0  0  0
  -26.4840  -37.4480   23.7880 N   0  0  0  0  0  0  0  0  0  0  0  0
  -26.0730  -38.3650   23.9370 H   0  0  0  0  0  0  0  0  0  0  0  0
  -26.4720  -31.7810   25.1280 C   0  0  1  0  0  0  0  0  0  0  0  0
  -25.3860  -31.5300   26.2000 C   0  0  0  0  0  1  0  0  0  0  0  0
  -27.0640  -30.4100   24.7250 C   0  0  0  0  0  1  0  0  0  0  0  0
  -27.6210  -32.5810   25.7880 C   0  0  0  0  0  1  0  0  0  0  0  0
  1  3  1  0
  1  7  1  0
  2  1  2  0
  3  6  1  0
  4  2  1  0
  5  2  1  0
  8  7  1  0
  9  8  1  0
 10 18  1  0
 11 16  1  0
 12 13  1  0
 12 11  1  0
 14 13  1  0
 14 23  1  0
 14 15  1  0
 16 10  1  0
 16 15  1  0
 17 10  2  0
 18  9  1  0
 18 19  1  0
 20 21  2  0
 21 40  1  0
 22 21  1  0
 22 25  1  0
 23 20  1  0
 23 24  1  0
 24 22  2  0
 25 26  1  0
 26 27  2  0
 28 31  1  0
 28 27  1  0
 29 28  2  0
 30 29  1  0
 30 25  2  0
 31 32  1  0
 32 33  1  0
 33 34  2  0
 35 34  1  0
 35 39  1  0
 36 35  2  0
 37 32  2  0
 37 36  1  0
 38 37  1  0
 40 41  1  0
 41 44  1  0
 41 43  1  0
 42 40  2  0
 45 46  1  0
 45 20  1  0
 47 45  1  0
 48 49  1  0
 48  3  1  0
 50 51  1  0
 50 49  1  0
 52 63  2  0
 53 51  1  0
 53 58  1  0
 54 62  1  0
 54 64  1  0
 55 61  1  0
 55 57  1  0
 56 62  1  0
 57 58  2  0
 57 56  1  0
 59 53  2  0
 60 59  1  0
 60 55  2  0
 61 54  1  0
 62 52  1  0
 64 66  2  0
 65 64  1  0
 67 65  1  0
 68 77  2  0
 68 73  1  0
 69 65  1  0
 69 73  1  0
 70 69  1  0
 71 72  1  0
 71 70  1  0
 72 68  1  0
 73 74  2  0
 74 75  1  0
 76 75  2  0
 77 76  1  0
 78 52  1  0
 78 79  1  0
 78 88  1  0
 79 82  1  0
 80 84  1  0
 80 79  1  0
 81 80  2  0
 84 83  1  0
 86 84  1  0
 86 87  1  0
 86 85  1  0
 88 91  1  1
 88 89  1  0
 90 88  1  0
M  ISO  4  10 100  18 100  50 101  51 101
M  END
>  <TORSDO>  (42) 
F 22

>  <SCORE>  (42) 
-12.655

>  <name>  (42) 
41

>  <ligand_id>  (42) 
41

>  <original_smiles>  (42) 
[H]c1c([H])c([H])c2c(c1[H])C([H])([H])C([H])([H])C([H])([H])C2([H])N([H])C(=O)C1([H])N(C(=O)C([H])(N([H])C(=O)C([H])(N([H])C([H])([H])[H])C([H])([H])[H])C(C([H])([H])[H])(C([H])([H])[H])C([H])([H])[H])C([H])([H])c2c([H])c(OC([H])([H])C([H])([H])C([H])([H])[N+]([H])=C(N([H])[H])C([H])([H])C([H])([H])C([H])([H])N([H])C(=O)N3C([H])([H])C([H])([H])C([H])([H])C([H])(n4nc(-c5c([H])c([H])c(Oc6c([H])c([H])c(F)c([H])c6F)c([H])c5[H])c(C(=O)N([H])[H])c4N([H])[H])C3([H])[H])c([H])c([H])c2C1([H])[H]

>  <smiles>  (42) 
[H]c1c([H])c([H])c2c(c1[H])C([H])([H])C([H])([H])C([H])([H])C2([H])N([H])C(=O)C1([H])N(C(=O)C([H])(N([H])C(=O)C([H])(N([H])C([H])([H])[H])C([H])([H])[H])C(C([H])([H])[H])(C([H])([H])[H])C([H])([H])[H])C([H])([H])c2c([H])c(OC([H])([H])C([H])([H])C([H])([H])[N+]([H])=C(N([H])[H])C([H])([H])C([H])([H])C([H])([H])N([H])C(=O)N3C([H])([H])C([H])([H])C([H])([H])C([H])(n4nc(-c5c([H])c([H])c(Oc6c([H])c([H])c(F)c([H])c6F)c([H])c5[H])c(C(=O)N([H])[H])c4N([H])[H])C3([H])[H])c([H])c([H])c2C1([H])[H]

$$$$
42:0:0
     RDKit          3D

 99107  0  0  1  0  0  0  0  0999 V2000
  -31.2310  -21.3980   19.0090 C   0  0  0  0  0  2  0  0  0  0  0  0
  -28.6140  -22.1260   18.6500 C   0  0  0  0  0  2  0  0  0  0  0  0
  -30.1850  -20.3850   19.5670 C   0  0  0  0  0  3  0  0  0  0  0  0
  -29.4030  -23.1750   19.4650 C   0  0  0  0  0  3  0  0  0  0  0  0
  -30.9220  -22.9080   19.2680 C   0  0  0  0  0  3  0  0  0  0  0  0
  -28.7880  -20.7870   19.2700 N   0  0  0  0  0  4  0  0  0  0  0  0
  -28.3580  -20.0760   18.7000 H   0  0  0  0  0  0  0  0  0  0  0  0
  -28.3040  -20.7900   20.1560 H   0  0  0  0  0  0  0  0  0  0  0  0
  -30.3490  -20.1610   21.0870 C   0  0  0  0  0  0  0  0  0  0  0  0
  -30.3680  -18.9350   21.6320 N   0  0  0  0  0  0  0  0  0  0  0  0
  -30.4670  -21.1450   21.8160 O   0  0  0  0  0  0  0  0  0  0  0  0
  -30.4970  -18.9290   22.6370 H   0  0  0  0  0  0  0  0  0  0  0  0
  -30.1650  -17.6330   20.9930 C   0  0  0  0  0  2  0  0  0  0  0  0
  -30.7310  -16.4870   21.8510 C   0  0  0  0  0  2  0  0  0  0  0  0
  -30.7270  -14.3800   20.4960 C   0  0  0  0  0  0  0  0  0  0  0  0
  -30.3650  -12.3250   19.1780 C   0  0  0  0  0  2  0  0  0  0  0  0
  -29.3970  -12.5670   18.0050 C   0  0  0  0  0  2  0  0  0  0  0  0
  -27.9370  -12.4050   18.4660 C   0  0  0  0  0  2  0  0  0  0  0  0
  -27.6250  -13.2240   19.7460 C   0  0  0  0  0  3  0  0  0  0  0  0
  -28.6830  -12.9440   20.8340 C   0  0  0  0  0  2  0  0  0  0  0  0
  -30.0140  -13.2470   20.2680 N   0  0  0  0  0  0  0  0  0  0  0  0
  -31.7610  -14.6670   19.8830 O   0  0  0  0  0  0  0  0  0  0  0  0
  -30.2130  -15.1850   21.4350 N   0  0  0  0  0  0  0  0  0  0  0  0
  -29.3800  -14.8560   21.9060 H   0  0  0  0  0  0  0  0  0  0  0  0
  -25.2340  -13.8430   20.4700 C   0  0  0  0  0  0  0  0  0  0  0  0
  -24.1690  -13.0740   20.8480 C   0  0  0  0  0  0  0  0  0  0  0  0
  -24.6260  -11.7200   20.8180 C   0  0  0  0  0  0  0  0  0  0  0  0
  -26.2750  -12.9590   20.2310 N   0  0  0  0  0  0  0  0  0  0  0  0
  -25.9120  -11.6780   20.4970 N   0  0  0  0  0  0  0  0  0  0  0  0
  -23.9010  -10.4600   21.0190 C   0  0  0  0  0  0  0  0  0  0  0  0
  -24.3440   -9.4880   21.9450 C   0  0  0  0  0  3  0  0  0  0  0  0
  -23.6170   -8.2910   22.1310 C   0  0  0  0  0  3  0  0  0  0  0  0
  -22.4330   -8.0580   21.3920 C   0  0  0  0  0  0  0  0  0  0  0  0
  -22.0080   -9.0180   20.4570 C   0  0  0  0  0  3  0  0  0  0  0  0
  -22.7340  -10.2060   20.2690 C   0  0  0  0  0  3  0  0  0  0  0  0
  -21.6770   -6.9150   21.4890 O   0  0  0  0  0  0  0  0  0  0  0  0
  -21.6550   -6.1670   22.6380 C   0  0  0  0  0  0  0  0  0  0  0  0
  -21.2630   -6.7170   23.8790 C   0  0  0  0  0  3  0  0  0  0  0  0
  -21.1870   -5.8950   25.0210 C   0  0  0  0  0  3  0  0  0  0  0  0
  -21.4940   -4.5230   24.9240 C   0  0  0  0  0  0  0  0  0  0  0  0
  -21.8760   -3.9740   23.6890 C   0  0  0  0  0  3  0  0  0  0  0  0
  -21.9560   -4.7930   22.5500 C   0  0  0  0  0  0  0  0  0  0  0  0
  -22.3080   -4.2570   21.3560 F   0  0  0  0  0  0  0  0  0  0  0  0
  -21.4130   -3.7300   26.0180 F   0  0  0  0  0  0  0  0  0  0  0  0
  -22.7760  -13.5550   21.1360 C   0  0  0  0  0  0  0  0  0  0  0  0
  -22.0540  -12.8650   22.0080 N   0  0  0  0  0  0  0  0  0  0  0  0
  -22.3360  -14.5800   20.6140 O   0  0  0  0  0  0  0  0  0  0  0  0
  -22.4180  -12.0330   22.4510 H   0  0  0  0  0  0  0  0  0  0  0  0
  -21.1220  -13.1770   22.2450 H   0  0  0  0  0  0  0  0  0  0  0  0
  -25.4040  -15.2150   20.2890 N   0  0  0  0  0  0  0  0  0  0  0  0
  -24.6450  -15.8750   20.4150 H   0  0  0  0  0  0  0  0  0  0  0  0
  -26.2590  -15.6480   19.9650 H   0  0  0  0  0  0  0  0  0  0  0  0
  -31.7380  -23.4770   20.3640 N   0  0  0  0  0  4  0  0  0  0  0  0
  -31.4720  -23.1050   21.2630 H   0  0  0  0  0  0  0  0  0  0  0  0
  -31.6590  -24.4800   20.3870 H   0  0  0  0  0  0  0  0  0  0  0  0
  -32.7090  -23.2710   20.2090 H   0  0  0  0  0  0  0  0  0  0  0  0
  -28.9970  -24.6520   19.1840 C   0  0  0  0  0  2  0  0  0  0  0  0
  -28.4630  -25.3750   20.4400 C   0  0  0  0  0  2  0  0  0  0  0  0
  -28.4870  -26.7910   20.2560 O   0  0  0  0  0  0  0  0  0  0  0  0
  -24.6060  -31.8950   23.2770 C   0  0  0  0  0  0  0  0  0  0  0  0
  -27.2910  -27.4720   20.2380 C   0  0  0  0  0  0  0  0  0  0  0  0
  -23.4130  -30.4800   21.6350 C   0  0  0  0  0  3  0  0  0  0  0  0
  -24.8840  -28.9500   20.2190 C   0  0  0  0  0  0  0  0  0  0  0  0
  -25.9350  -30.8600   21.4460 C   0  0  0  0  0  2  0  0  0  0  0  0
  -26.0330  -29.4920   20.8080 C   0  0  0  0  0  0  0  0  0  0  0  0
  -27.2410  -28.7640   20.8050 C   0  0  0  0  0  3  0  0  0  0  0  0
  -26.1250  -26.9360   19.6470 C   0  0  0  0  0  3  0  0  0  0  0  0
  -24.9270  -27.6730   19.6320 C   0  0  0  0  0  3  0  0  0  0  0  0
  -23.6310  -29.7970   20.2590 C   0  0  0  0  0  2  0  0  0  0  0  0
  -24.6690  -31.0920   22.1780 N   0  0  0  0  0  0  0  0  0  0  0  0
  -23.5220  -32.1650   23.8110 O   0  0  0  0  0  0  0  0  0  0  0  0
  -22.7640  -29.4580   22.5940 C   0  0  0  0  0  0  0  0  0  0  0  0
  -21.4400  -29.2710   22.4610 N   0  0  0  0  0  0  0  0  0  0  0  0
  -23.4470  -28.8380   23.4130 O   0  0  0  0  0  0  0  0  0  0  0  0
  -20.9510  -29.8240   21.7700 H   0  0  0  0  0  0  0  0  0  0  0  0
  -18.0700  -28.0760   22.9530 C   0  0  0  0  0  0  0  0  0  0  0  0
  -20.6250  -28.3350   23.2320 C   0  0  0  0  0  3  0  0  0  0  0  0
  -20.7300  -26.9030   22.6580 C   0  0  0  0  0  2  0  0  0  0  0  0
  -19.6320  -26.5790   21.6410 C   0  0  0  0  0  2  0  0  0  0  0  0
  -18.2490  -26.7240   22.2810 C   0  0  0  0  0  2  0  0  0  0  0  0
  -19.1860  -28.8400   23.3870 C   0  0  0  0  0  0  0  0  0  0  0  0
  -18.9670  -30.1050   23.9730 C   0  0  0  0  0  3  0  0  0  0  0  0
  -17.6600  -30.6070   24.1340 C   0  0  0  0  0  3  0  0  0  0  0  0
  -16.5580  -29.8420   23.7170 C   0  0  0  0  0  3  0  0  0  0  0  0
  -16.7630  -28.5790   23.1340 C   0  0  0  0  0  3  0  0  0  0  0  0
  -25.8890  -32.5330   23.8980 C   0  0  0  0  0  3  0  0  0  0  0  0
  -25.5760  -33.9330   24.2120 N   0  0  0  0  0  0  0  0  0  0  0  0
  -25.9130  -34.9770   23.4440 C   0  0  0  0  0  0  0  0  0  0  0  0
  -26.5900  -34.8640   22.4180 O   0  0  0  0  0  0  0  0  0  0  0  0
  -24.9770  -34.0950   25.0070 H   0  0  0  0  0  0  0  0  0  0  0  0
  -24.1820  -36.7630   23.0600 C   0  0  0  0  0  1  0  0  0  0  0  0
  -25.4180  -36.3700   23.8840 C   0  0  0  0  0  3  0  0  0  0  0  0
  -27.5440  -37.2650   24.7240 C   0  0  0  0  0  1  0  0  0  0  0  0
  -26.4500  -37.4230   23.7700 N   0  0  0  0  0  0  0  0  0  0  0  0
  -26.0400  -38.3420   23.9120 H   0  0  0  0  0  0  0  0  0  0  0  0
  -26.4030  -31.7730   25.1810 C   0  0  1  0  0  0  0  0  0  0  0  0
  -25.3060  -31.5410   26.2450 C   0  0  0  0  0  1  0  0  0  0  0  0
  -26.9950  -30.3940   24.8000 C   0  0  0  0  0  1  0  0  0  0  0  0
  -27.5510  -32.5760   25.8380 C   0  0  0  0  0  1  0  0  0  0  0  0
  1  5  1  0
  1  3  1  0
  2  6  1  0
  2  4  1  0
  3  9  1  0
  4 57  1  0
  5  4  1  0
  5 53  1  0
  6  3  1  0
  6  8  1  0
  7  6  1  0
  9 10  1  0
  9 11  2  0
 10 12  1  0
 13 10  1  0
 13 14  1  0
 15 23  1  0
 16 21  1  0
 17 18  1  0
 17 16  1  0
 19 18  1  0
 19 28  1  0
 19 20  1  0
 21 15  1  0
 21 20  1  0
 22 15  2  0
 23 14  1  0
 23 24  1  0
 25 26  2  0
 26 45  1  0
 27 26  1  0
 27 30  1  0
 28 25  1  0
 28 29  1  0
 29 27  2  0
 30 31  1  0
 31 32  2  0
 33 36  1  0
 33 32  1  0
 34 33  2  0
 35 34  1  0
 35 30  2  0
 36 37  1  0
 37 38  1  0
 38 39  2  0
 40 39  1  0
 40 44  1  0
 41 40  2  0
 42 37  2  0
 42 41  1  0
 43 42  1  0
 45 46  1  0
 46 49  1  0
 46 48  1  0
 47 45  2  0
 50 51  1  0
 50 25  1  0
 52 50  1  0
 53 55  1  0
 53 54  1  0
 56 53  1  0
 57 58  1  0
 59 58  1  0
 60 71  2  0
 61 59  1  0
 61 66  1  0
 62 70  1  0
 62 72  1  0
 63 69  1  0
 63 65  1  0
 64 70  1  0
 65 64  1  0
 66 65  2  0
 67 61  2  0
 68 67  1  0
 68 63  2  0
 69 62  1  0
 70 60  1  0
 72 74  2  0
 73 72  1  0
 75 73  1  0
 76 85  2  0
 76 81  1  0
 77 73  1  0
 77 81  1  0
 78 77  1  0
 79 80  1  0
 79 78  1  0
 80 76  1  0
 81 82  2  0
 82 83  1  0
 84 83  2  0
 85 84  1  0
 86 60  1  0
 86 87  1  0
 86 96  1  0
 87 90  1  0
 88 92  1  0
 88 87  1  0
 89 88  2  0
 92 91  1  0
 94 92  1  0
 94 95  1  0
 94 93  1  0
 96 99  1  1
 96 97  1  0
 98 96  1  0
M  ISO  4  15 100  23 100  58 101  59 101
M  END
>  <TORSDO>  (43) 
F 22

>  <SCORE>  (43) 
-13.716

>  <name>  (43) 
42

>  <ligand_id>  (43) 
42

>  <original_smiles>  (43) 
[H]c1c([H])c([H])c2c(c1[H])C([H])([H])C([H])([H])C([H])([H])C2([H])N([H])C(=O)C1([H])N(C(=O)C([H])(N([H])C(=O)C([H])(N([H])C([H])([H])[H])C([H])([H])[H])C(C([H])([H])[H])(C([H])([H])[H])C([H])([H])[H])C([H])([H])c2c([H])c(OC([H])([H])C([H])([H])C3([H])C([H])([N+]([H])([H])[H])C([H])([H])C([H])(C(=O)N([H])C([H])([H])C([H])([H])N([H])C(=O)N4C([H])([H])C([H])([H])C([H])([H])C([H])(n5nc(-c6c([H])c([H])c(Oc7c([H])c([H])c(F)c([H])c7F)c([H])c6[H])c(C(=O)N([H])[H])c5N([H])[H])C4([H])[H])[N+]([H])([H])C3([H])[H])c([H])c([H])c2C1([H])[H]

>  <smiles>  (43) 
[H]c1c([H])c([H])c2c(c1[H])C([H])([H])C([H])([H])C([H])([H])C2([H])N([H])C(=O)C1([H])N(C(=O)C([H])(N([H])C(=O)C([H])(N([H])C([H])([H])[H])C([H])([H])[H])C(C([H])([H])[H])(C([H])([H])[H])C([H])([H])[H])C([H])([H])c2c([H])c(OC([H])([H])C([H])([H])C3([H])C([H])([N+]([H])([H])[H])C([H])([H])C([H])(C(=O)N([H])C([H])([H])C([H])([H])N([H])C(=O)N4C([H])([H])C([H])([H])C([H])([H])C([H])(n5nc(-c6c([H])c([H])c(Oc7c([H])c([H])c(F)c([H])c7F)c([H])c6[H])c(C(=O)N([H])[H])c5N([H])[H])C4([H])[H])[N+]([H])([H])C3([H])[H])c([H])c([H])c2C1([H])[H]

$$$$
43:0:0
     RDKit          3D

 97105  0  0  1  0  0  0  0  0999 V2000
  -27.5120  -21.4140   21.6090 C   0  0  0  0  0  2  0  0  0  0  0  0
  -27.3750  -18.7520   18.8490 C   0  0  0  0  0  3  0  0  0  0  0  0
  -28.7180  -18.3440   18.7620 C   0  0  0  0  0  3  0  0  0  0  0  0
  -27.0000  -19.7450   19.7730 C   0  0  0  0  0  3  0  0  0  0  0  0
  -29.3010  -19.8920   20.5600 C   0  0  0  0  0  3  0  0  0  0  0  0
  -29.6840  -18.9160   19.6140 C   0  0  0  0  0  0  0  0  0  0  0  0
  -27.9580  -20.3300   20.6290 C   0  0  0  0  0  0  0  0  0  0  0  0
  -31.1460  -18.5380   19.4620 C   0  0  0  0  0  2  0  0  0  0  0  0
  -31.3720  -17.7180   18.1750 C   0  0  0  0  0  2  0  0  0  0  0  0
  -31.8400  -15.4920   17.0610 C   0  0  0  0  0  1  0  0  0  0  0  0
  -31.5250  -16.1990   18.4020 C   0  0  0  0  0  3  0  0  0  0  0  0
  -33.2260  -14.8370   19.6070 C   0  0  0  0  0  0  0  0  0  0  0  0
  -33.1860  -12.4970   20.3750 C   0  0  0  0  0  2  0  0  0  0  0  0
  -32.3740  -11.6240   19.3980 C   0  0  0  0  0  2  0  0  0  0  0  0
  -30.8760  -11.6460   19.7600 C   0  0  0  0  0  2  0  0  0  0  0  0
  -30.3340  -13.0840   19.9700 C   0  0  0  0  0  3  0  0  0  0  0  0
  -31.2660  -13.8980   20.8950 C   0  0  0  0  0  2  0  0  0  0  0  0
  -32.6250  -13.8550   20.3290 N   0  0  0  0  0  0  0  0  0  0  0  0
  -34.3490  -14.7310   19.1140 O   0  0  0  0  0  0  0  0  0  0  0  0
  -32.5380  -15.9740   19.4470 N   0  0  0  0  0  0  0  0  0  0  0  0
  -33.1730  -16.7570   19.4870 H   0  0  0  0  0  0  0  0  0  0  0  0
  -28.1520  -14.1320   20.8420 C   0  0  0  0  0  0  0  0  0  0  0  0
  -26.9330  -13.5840   21.1430 C   0  0  0  0  0  0  0  0  0  0  0  0
  -27.0650  -12.1810   20.9110 C   0  0  0  0  0  0  0  0  0  0  0  0
  -28.9580  -13.0720   20.4560 N   0  0  0  0  0  0  0  0  0  0  0  0
  -28.3080  -11.8860   20.5530 N   0  0  0  0  0  0  0  0  0  0  0  0
  -26.0660  -11.1060   20.9540 C   0  0  0  0  0  0  0  0  0  0  0  0
  -26.1590  -10.0510   21.8890 C   0  0  0  0  0  3  0  0  0  0  0  0
  -25.1760   -9.0380   21.9260 C   0  0  0  0  0  3  0  0  0  0  0  0
  -24.0830   -9.0760   21.0280 C   0  0  0  0  0  0  0  0  0  0  0  0
  -24.0080  -10.1170   20.0850 C   0  0  0  0  0  3  0  0  0  0  0  0
  -24.9900  -11.1210   20.0450 C   0  0  0  0  0  3  0  0  0  0  0  0
  -23.0960   -8.1220   20.9720 O   0  0  0  0  0  0  0  0  0  0  0  0
  -22.5360   -7.5980   22.1090 C   0  0  0  0  0  0  0  0  0  0  0  0
  -21.8680   -8.4100   23.0510 C   0  0  0  0  0  3  0  0  0  0  0  0
  -21.2480   -7.8210   24.1720 C   0  0  0  0  0  3  0  0  0  0  0  0
  -21.2870   -6.4250   24.3470 C   0  0  0  0  0  0  0  0  0  0  0  0
  -21.9470   -5.6150   23.4050 C   0  0  0  0  0  3  0  0  0  0  0  0
  -22.5680   -6.2000   22.2890 C   0  0  0  0  0  0  0  0  0  0  0  0
  -23.1820   -5.4130   21.3730 F   0  0  0  0  0  0  0  0  0  0  0  0
  -20.6830   -5.8620   25.4190 F   0  0  0  0  0  0  0  0  0  0  0  0
  -25.6870  -14.3290   21.5300 C   0  0  0  0  0  0  0  0  0  0  0  0
  -24.8150  -13.6980   22.3080 N   0  0  0  0  0  0  0  0  0  0  0  0
  -25.5020  -15.4940   21.1810 O   0  0  0  0  0  0  0  0  0  0  0  0
  -24.9770  -12.7490   22.6100 H   0  0  0  0  0  0  0  0  0  0  0  0
  -23.9750  -14.1740   22.6070 H   0  0  0  0  0  0  0  0  0  0  0  0
  -28.6330  -15.4350   20.8430 N   0  0  0  0  0  0  0  0  0  0  0  0
  -28.0570  -16.2230   21.1160 H   0  0  0  0  0  0  0  0  0  0  0  0
  -29.5690  -15.7040   20.5690 H   0  0  0  0  0  0  0  0  0  0  0  0
  -28.4220  -22.6580   21.6990 C   0  0  0  0  0  2  0  0  0  0  0  0
  -29.2020  -22.8870   20.4590 N   0  0  0  0  0  4  0  0  0  0  0  0
  -28.6430  -23.3880   19.7870 H   0  0  0  0  0  0  0  0  0  0  0  0
  -29.4000  -21.9820   20.0620 H   0  0  0  0  0  0  0  0  0  0  0  0
  -30.4980  -23.5770   20.6590 C   0  0  0  0  0  2  0  0  0  0  0  0
  -30.3770  -25.1110   20.8350 C   0  0  0  0  0  2  0  0  0  0  0  0
  -30.6940  -25.8970   19.5500 C   0  0  0  0  0  2  0  0  0  0  0  0
  -30.4980  -27.2960   19.7670 O   0  0  0  0  0  0  0  0  0  0  0  0
  -26.1760  -30.4050   24.4630 C   0  0  0  0  0  0  0  0  0  0  0  0
  -29.2320  -27.7900   19.9950 C   0  0  0  0  0  0  0  0  0  0  0  0
  -25.1110  -29.6960   22.3450 C   0  0  0  0  0  3  0  0  0  0  0  0
  -26.7080  -28.9640   20.4970 C   0  0  0  0  0  0  0  0  0  0  0  0
  -27.5970  -30.2920   22.4200 C   0  0  0  0  0  2  0  0  0  0  0  0
  -27.8060  -29.3000   21.2960 C   0  0  0  0  0  0  0  0  0  0  0  0
  -29.0690  -28.7210   21.0440 C   0  0  0  0  0  3  0  0  0  0  0  0
  -28.1100  -27.4590   19.2000 C   0  0  0  0  0  3  0  0  0  0  0  0
  -26.8520  -28.0400   19.4490 C   0  0  0  0  0  3  0  0  0  0  0  0
  -25.3940  -29.6400   20.8190 C   0  0  0  0  0  2  0  0  0  0  0  0
  -26.3110  -30.1230   23.1370 N   0  0  0  0  0  0  0  0  0  0  0  0
  -25.0700  -30.3570   25.0170 O   0  0  0  0  0  0  0  0  0  0  0  0
  -24.5410  -28.3290   22.7880 C   0  0  0  0  0  0  0  0  0  0  0  0
  -23.3090  -28.0270   22.3480 N   0  0  0  0  0  0  0  0  0  0  0  0
  -25.2090  -27.5610   23.4830 O   0  0  0  0  0  0  0  0  0  0  0  0
  -22.8240  -28.7150   21.7900 H   0  0  0  0  0  0  0  0  0  0  0  0
  -20.2760  -26.2180   21.5940 C   0  0  0  0  0  0  0  0  0  0  0  0
  -22.5860  -26.7830   22.6060 C   0  0  0  0  0  3  0  0  0  0  0  0
  -23.1350  -25.6280   21.7360 C   0  0  0  0  0  2  0  0  0  0  0  0
  -22.3810  -25.4570   20.4140 C   0  0  0  0  0  2  0  0  0  0  0  0
  -20.8980  -25.1800   20.6730 C   0  0  0  0  0  2  0  0  0  0  0  0
  -21.0710  -26.9810   22.4890 C   0  0  0  0  0  0  0  0  0  0  0  0
  -20.4470  -27.9580   23.2970 C   0  0  0  0  0  3  0  0  0  0  0  0
  -19.0580  -28.1720   23.2220 C   0  0  0  0  0  3  0  0  0  0  0  0
  -18.2740  -27.4030   22.3460 C   0  0  0  0  0  3  0  0  0  0  0  0
  -18.8820  -26.4260   21.5360 C   0  0  0  0  0  3  0  0  0  0  0  0
  -27.3970  -30.8250   25.3400 C   0  0  0  0  0  3  0  0  0  0  0  0
  -27.7400  -29.7810   26.4720 C   0  0  1  0  0  0  0  0  0  0  0  0
  -26.5080  -29.3140   27.2820 C   0  0  0  0  0  1  0  0  0  0  0  0
  -28.4120  -28.5250   25.8690 C   0  0  0  0  0  1  0  0  0  0  0  0
  -28.7570  -30.3960   27.4630 C   0  0  0  0  0  1  0  0  0  0  0  0
  -27.0940  -32.1400   25.9170 N   0  0  0  0  0  0  0  0  0  0  0  0
  -27.5740  -33.3030   25.4550 C   0  0  0  0  0  0  0  0  0  0  0  0
  -28.3880  -33.3710   24.5300 O   0  0  0  0  0  0  0  0  0  0  0  0
  -26.3920  -32.1660   26.6420 H   0  0  0  0  0  0  0  0  0  0  0  0
  -26.0030  -35.2560   25.2450 C   0  0  0  0  0  1  0  0  0  0  0  0
  -27.0730  -34.5950   26.1290 C   0  0  0  0  0  3  0  0  0  0  0  0
  -29.0870  -35.1060   27.4350 C   0  0  0  0  0  1  0  0  0  0  0  0
  -28.1510  -35.5660   26.4140 N   0  0  0  0  0  0  0  0  0  0  0  0
  -27.7620  -36.4550   26.7180 H   0  0  0  0  0  0  0  0  0  0  0  0
  1 50  1  0
  2  4  1  0
  3  2  2  0
  3  6  1  0
  4  7  2  0
  5  7  1  0
  6  5  2  0
  7  1  1  0
  8  6  1  0
  9 11  1  0
  9  8  1  0
 11 10  1  0
 11 20  1  0
 12 18  1  0
 14 15  1  0
 14 13  1  0
 16 15  1  0
 16 25  1  0
 16 17  1  0
 18 13  1  0
 18 17  1  0
 19 12  2  0
 20 21  1  0
 20 12  1  0
 22 47  1  0
 22 23  2  0
 23 42  1  0
 24 27  1  0
 24 23  1  0
 25 26  1  0
 25 22  1  0
 26 24  2  0
 27 28  1  0
 28 29  2  0
 30 29  1  0
 31 30  2  0
 32 31  1  0
 32 27  2  0
 33 30  1  0
 33 34  1  0
 34 39  2  0
 34 35  1  0
 35 36  2  0
 36 37  1  0
 37 41  1  0
 38 37  2  0
 39 38  1  0
 40 39  1  0
 42 43  1  0
 43 46  1  0
 43 45  1  0
 44 42  2  0
 47 48  1  0
 49 47  1  0
 51 54  1  0
 51 50  1  0
 52 51  1  0
 53 51  1  0
 54 55  1  0
 56 57  1  0
 56 55  1  0
 57 59  1  0
 58 69  2  0
 59 64  1  0
 60 70  1  0
 60 68  1  0
 61 67  1  0
 61 63  1  0
 62 68  1  0
 63 62  1  0
 64 63  2  0
 65 66  1  0
 65 59  2  0
 66 61  2  0
 67 60  1  0
 68 58  1  0
 70 72  2  0
 71 70  1  0
 73 71  1  0
 74 79  1  0
 75 71  1  0
 76 75  1  0
 77 78  1  0
 77 76  1  0
 78 74  1  0
 79 75  1  0
 79 80  2  0
 81 80  1  0
 82 81  2  0
 83 74  2  0
 83 82  1  0
 84 58  1  0
 84 89  1  0
 84 85  1  0
 85 86  1  1
 85 88  1  0
 87 85  1  0
 89 92  1  0
 90 89  1  0
 90 94  1  0
 91 90  2  0
 94 93  1  0
 94 96  1  0
 96 97  1  0
 96 95  1  0
M  ISO  4  12 100  20 100  56 101  57 101
M  END
>  <TORSDO>  (44) 
F 25

>  <SCORE>  (44) 
-5.742

>  <name>  (44) 
43

>  <ligand_id>  (44) 
43

>  <original_smiles>  (44) 
[H]c1c([H])c([H])c2c(c1[H])C([H])([H])C([H])([H])C([H])([H])C2([H])N([H])C(=O)C1([H])N(C(=O)C([H])(N([H])C(=O)C([H])(N([H])C([H])([H])[H])C([H])([H])[H])C(C([H])([H])[H])(C([H])([H])[H])C([H])([H])[H])C([H])([H])c2c([H])c(OC([H])([H])C([H])([H])C([H])([H])[N+]([H])([H])C([H])([H])C([H])([H])c3c([H])c([H])c([H])c(C([H])([H])C([H])([H])C([H])(N([H])C(=O)N4C([H])([H])C([H])([H])C([H])([H])C([H])(n5nc(-c6c([H])c([H])c(Oc7c([H])c([H])c(F)c([H])c7F)c([H])c6[H])c(C(=O)N([H])[H])c5N([H])[H])C4([H])[H])C([H])([H])[H])c3[H])c([H])c([H])c2C1([H])[H]

>  <smiles>  (44) 
[H]c1c([H])c([H])c2c(c1[H])C([H])([H])C([H])([H])C([H])([H])C2([H])N([H])C(=O)C1([H])N(C(=O)C([H])(N([H])C(=O)C([H])(N([H])C([H])([H])[H])C([H])([H])[H])C(C([H])([H])[H])(C([H])([H])[H])C([H])([H])[H])C([H])([H])c2c([H])c(OC([H])([H])C([H])([H])C([H])([H])[N+]([H])([H])C([H])([H])C([H])([H])c3c([H])c([H])c([H])c(C([H])([H])C([H])([H])C([H])(N([H])C(=O)N4C([H])([H])C([H])([H])C([H])([H])C([H])(n5nc(-c6c([H])c([H])c(Oc7c([H])c([H])c(F)c([H])c7F)c([H])c6[H])c(C(=O)N([H])[H])c5N([H])[H])C4([H])[H])C([H])([H])[H])c3[H])c([H])c([H])c2C1([H])[H]

$$$$
44:0:0
     RDKit          3D

 94102  0  0  1  0  0  0  0  0999 V2000
  -30.0930  -21.1740   21.4050 C   0  0  0  0  0  0  0  0  0  0  0  0
  -30.8570  -21.8000   22.1470 O   0  0  0  0  0  0  0  0  0  0  0  0
  -29.2780  -18.7260   21.9820 C   0  0  0  0  0  2  0  0  0  0  0  0
  -29.8240  -17.2820   22.0320 C   0  0  0  0  0  2  0  0  0  0  0  0
  -30.3130  -17.7750   19.5610 C   0  0  0  0  0  2  0  0  0  0  0  0
  -30.2870  -19.6340   21.2500 C   0  0  0  0  0  3  0  0  0  0  0  0
  -30.6770  -16.8900   20.7890 C   0  0  0  0  0  3  0  0  0  0  0  0
  -30.4540  -19.2370   19.8290 N   0  0  0  0  0  4  0  0  0  0  0  0
  -29.7960  -19.7320   19.2510 H   0  0  0  0  0  0  0  0  0  0  0  0
  -31.3720  -19.5390   19.5490 H   0  0  0  0  0  0  0  0  0  0  0  0
  -31.1580  -14.5820   19.7870 C   0  0  0  0  0  0  0  0  0  0  0  0
  -30.7980  -12.4700   18.5530 C   0  0  0  0  0  2  0  0  0  0  0  0
  -29.7360  -12.7080   17.4580 C   0  0  0  0  0  2  0  0  0  0  0  0
  -28.3040  -12.5710   18.0220 C   0  0  0  0  0  2  0  0  0  0  0  0
  -28.0970  -13.3610   19.3410 C   0  0  0  0  0  3  0  0  0  0  0  0
  -29.2430  -13.0380   20.3250 C   0  0  0  0  0  2  0  0  0  0  0  0
  -30.5160  -13.3890   19.6620 N   0  0  0  0  0  0  0  0  0  0  0  0
  -32.1940  -14.8720   19.1830 O   0  0  0  0  0  0  0  0  0  0  0  0
  -30.4750  -15.4610   20.5420 N   0  0  0  0  0  0  0  0  0  0  0  0
  -29.6600  -15.0580   20.9780 H   0  0  0  0  0  0  0  0  0  0  0  0
  -25.7870  -13.9950   20.2920 C   0  0  0  0  0  0  0  0  0  0  0  0
  -24.7370  -13.2320   20.7250 C   0  0  0  0  0  0  0  0  0  0  0  0
  -25.1590  -11.8720   20.5950 C   0  0  0  0  0  0  0  0  0  0  0  0
  -26.7840  -13.1010   19.9290 N   0  0  0  0  0  0  0  0  0  0  0  0
  -26.4120  -11.8170   20.1660 N   0  0  0  0  0  0  0  0  0  0  0  0
  -24.4240  -10.6180   20.8030 C   0  0  0  0  0  0  0  0  0  0  0  0
  -24.8350   -9.6750   21.7710 C   0  0  0  0  0  3  0  0  0  0  0  0
  -24.1030   -8.4850   21.9660 C   0  0  0  0  0  3  0  0  0  0  0  0
  -22.9470   -8.2280   21.1930 C   0  0  0  0  0  0  0  0  0  0  0  0
  -22.5540   -9.1600   20.2170 C   0  0  0  0  0  3  0  0  0  0  0  0
  -23.2860  -10.3430   20.0200 C   0  0  0  0  0  3  0  0  0  0  0  0
  -22.1910   -7.0840   21.2950 O   0  0  0  0  0  0  0  0  0  0  0  0
  -21.9850   -6.4610   22.4990 C   0  0  0  0  0  0  0  0  0  0  0  0
  -21.3910   -7.1300   23.5920 C   0  0  0  0  0  3  0  0  0  0  0  0
  -21.1380   -6.4330   24.7910 C   0  0  0  0  0  3  0  0  0  0  0  0
  -21.4680   -5.0680   24.8930 C   0  0  0  0  0  0  0  0  0  0  0  0
  -22.0560   -4.4000   23.8050 C   0  0  0  0  0  3  0  0  0  0  0  0
  -22.3130   -5.0950   22.6110 C   0  0  0  0  0  0  0  0  0  0  0  0
  -22.8600   -4.4420   21.5560 F   0  0  0  0  0  0  0  0  0  0  0  0
  -21.2180   -4.3940   26.0410 F   0  0  0  0  0  0  0  0  0  0  0  0
  -23.3830  -13.7250   21.1460 C   0  0  0  0  0  0  0  0  0  0  0  0
  -22.7370  -13.0310   22.0770 N   0  0  0  0  0  0  0  0  0  0  0  0
  -22.9090  -14.7600   20.6820 O   0  0  0  0  0  0  0  0  0  0  0  0
  -23.1330  -12.1920   22.4770 H   0  0  0  0  0  0  0  0  0  0  0  0
  -21.8270  -13.3400   22.3910 H   0  0  0  0  0  0  0  0  0  0  0  0
  -25.9730  -15.3700   20.1550 N   0  0  0  0  0  0  0  0  0  0  0  0
  -25.2490  -16.0360   20.3970 H   0  0  0  0  0  0  0  0  0  0  0  0
  -26.8150  -15.8040   19.8010 H   0  0  0  0  0  0  0  0  0  0  0  0
  -27.9800  -21.2290   19.8290 C   0  0  0  0  0  1  0  0  0  0  0  0
  -29.0010  -22.0060   20.6770 C   0  0  0  0  0  3  0  0  0  0  0  0
  -29.5640  -23.2510   19.9270 C   0  0  0  0  0  2  0  0  0  0  0  0
  -28.8310  -24.5760   20.2640 C   0  0  0  0  0  2  0  0  0  0  0  0
  -29.2890  -25.7790   19.3990 C   0  0  0  0  0  2  0  0  0  0  0  0
  -29.0310  -27.0430   20.0230 O   0  0  0  0  0  0  0  0  0  0  0  0
  -24.6160  -31.6130   23.1840 C   0  0  0  0  0  0  0  0  0  0  0  0
  -27.7730  -27.6100   19.9920 C   0  0  0  0  0  0  0  0  0  0  0  0
  -23.6080  -30.2070   21.4140 C   0  0  0  0  0  3  0  0  0  0  0  0
  -25.2510  -28.8920   19.9760 C   0  0  0  0  0  0  0  0  0  0  0  0
  -26.0930  -30.8050   21.3460 C   0  0  0  0  0  2  0  0  0  0  0  0
  -26.3270  -29.4820   20.6460 C   0  0  0  0  0  0  0  0  0  0  0  0
  -27.5870  -28.8450   20.6560 C   0  0  0  0  0  3  0  0  0  0  0  0
  -26.6720  -27.0310   19.3190 C   0  0  0  0  0  3  0  0  0  0  0  0
  -25.4170  -27.6670   19.3080 C   0  0  0  0  0  3  0  0  0  0  0  0
  -23.9290  -29.6260   20.0120 C   0  0  0  0  0  2  0  0  0  0  0  0
  -24.7880  -30.8880   22.0420 N   0  0  0  0  0  0  0  0  0  0  0  0
  -23.4930  -31.7550   23.6880 O   0  0  0  0  0  0  0  0  0  0  0  0
  -23.0150  -29.0800   22.2890 C   0  0  0  0  0  0  0  0  0  0  0  0
  -21.7160  -28.7970   22.0990 N   0  0  0  0  0  0  0  0  0  0  0  0
  -23.7200  -28.4630   23.0920 O   0  0  0  0  0  0  0  0  0  0  0  0
  -21.2080  -29.3340   21.4100 H   0  0  0  0  0  0  0  0  0  0  0  0
  -18.4320  -27.3400   22.4340 C   0  0  0  0  0  0  0  0  0  0  0  0
  -20.9580  -27.7550   22.7890 C   0  0  0  0  0  3  0  0  0  0  0  0
  -21.1740  -26.3790   22.1160 C   0  0  0  0  0  2  0  0  0  0  0  0
  -20.1210  -26.0570   21.0480 C   0  0  0  0  0  2  0  0  0  0  0  0
  -18.7150  -26.0640   21.6570 C   0  0  0  0  0  2  0  0  0  0  0  0
  -19.4840  -28.1420   22.9510 C   0  0  0  0  0  0  0  0  0  0  0  0
  -19.1630  -29.3360   23.6360 C   0  0  0  0  0  3  0  0  0  0  0  0
  -17.8210  -29.7260   23.8090 C   0  0  0  0  0  3  0  0  0  0  0  0
  -16.7860  -28.9210   23.3070 C   0  0  0  0  0  3  0  0  0  0  0  0
  -17.0920  -27.7320   22.6230 C   0  0  0  0  0  3  0  0  0  0  0  0
  -25.8100  -32.3210   23.8950 C   0  0  0  0  0  3  0  0  0  0  0  0
  -25.3920  -33.6950   24.2000 N   0  0  0  0  0  0  0  0  0  0  0  0
  -25.7190  -34.7690   23.4690 C   0  0  0  0  0  0  0  0  0  0  0  0
  -26.4730  -34.7090   22.4930 O   0  0  0  0  0  0  0  0  0  0  0  0
  -24.7290  -33.8090   24.9530 H   0  0  0  0  0  0  0  0  0  0  0  0
  -23.9190  -36.4530   22.9760 C   0  0  0  0  0  1  0  0  0  0  0  0
  -25.1140  -36.1240   23.8850 C   0  0  0  0  0  3  0  0  0  0  0  0
  -27.1140  -37.1330   24.8890 C   0  0  0  0  0  1  0  0  0  0  0  0
  -26.0870  -37.2380   23.8560 N   0  0  0  0  0  0  0  0  0  0  0  0
  -25.6160  -38.1310   23.9640 H   0  0  0  0  0  0  0  0  0  0  0  0
  -26.2860  -31.5770   25.2030 C   0  0  1  0  0  0  0  0  0  0  0  0
  -25.1380  -31.2380   26.1790 C   0  0  0  0  0  1  0  0  0  0  0  0
  -27.0020  -30.2550   24.8420 C   0  0  0  0  0  1  0  0  0  0  0  0
  -27.3190  -32.4470   25.9560 C   0  0  0  0  0  1  0  0  0  0  0  0
  1  2  2  0
  3  4  1  0
  5  8  1  0
  5  7  1  0
  6  1  1  0
  6  3  1  0
  7 19  1  0
  7  4  1  0
  8  6  1  0
  9  8  1  0
 10  8  1  0
 11 19  1  0
 12 17  1  0
 13 14  1  0
 13 12  1  0
 15 14  1  0
 15 24  1  0
 15 16  1  0
 17 11  1  0
 17 16  1  0
 18 11  2  0
 19 20  1  0
 21 22  2  0
 22 41  1  0
 23 22  1  0
 23 26  1  0
 24 25  1  0
 24 21  1  0
 25 23  2  0
 26 27  1  0
 27 28  2  0
 29 32  1  0
 29 28  1  0
 30 29  2  0
 31 30  1  0
 31 26  2  0
 32 33  1  0
 33 38  2  0
 33 34  1  0
 34 35  2  0
 35 36  1  0
 36 40  1  0
 37 36  2  0
 38 37  1  0
 39 38  1  0
 41 42  1  0
 42 45  1  0
 42 44  1  0
 43 41  2  0
 46 21  1  0
 46 47  1  0
 48 46  1  0
 50 49  1  0
 50  1  1  0
 51 52  1  0
 51 50  1  0
 53 54  1  0
 53 52  1  0
 55 66  2  0
 56 54  1  0
 56 61  1  0
 57 65  1  0
 57 67  1  0
 58 64  1  0
 58 60  1  0
 59 65  1  0
 60 61  2  0
 60 59  1  0
 62 56  2  0
 63 62  1  0
 63 58  2  0
 64 57  1  0
 65 55  1  0
 67 69  2  0
 68 67  1  0
 70 68  1  0
 71 80  2  0
 71 76  1  0
 72 68  1  0
 72 76  1  0
 73 72  1  0
 74 75  1  0
 74 73  1  0
 75 71  1  0
 76 77  2  0
 77 78  1  0
 79 78  2  0
 80 79  1  0
 81 55  1  0
 81 82  1  0
 81 91  1  0
 82 85  1  0
 83 87  1  0
 83 82  1  0
 84 83  2  0
 87 86  1  0
 89 87  1  0
 89 90  1  0
 89 88  1  0
 91 94  1  1
 91 92  1  0
 93 91  1  0
M  ISO  4  11 100  19 100  53 101  54 101
M  END
>  <TORSDO>  (45) 
F 21

>  <SCORE>  (45) 
-10.494

>  <name>  (45) 
44

>  <ligand_id>  (45) 
44

>  <original_smiles>  (45) 
[H]c1c([H])c([H])c2c(c1[H])C([H])([H])C([H])([H])C([H])([H])C2([H])N([H])C(=O)C1([H])N(C(=O)C([H])(N([H])C(=O)C([H])(N([H])C([H])([H])[H])C([H])([H])[H])C(C([H])([H])[H])(C([H])([H])[H])C([H])([H])[H])C([H])([H])c2c([H])c(OC([H])([H])C([H])([H])C([H])([H])C([H])(C(=O)C3([H])C([H])([H])C([H])([H])C([H])(N([H])C(=O)N4C([H])([H])C([H])([H])C([H])([H])C([H])(n5nc(-c6c([H])c([H])c(Oc7c([H])c([H])c(F)c([H])c7F)c([H])c6[H])c(C(=O)N([H])[H])c5N([H])[H])C4([H])[H])C([H])([H])[N+]3([H])[H])C([H])([H])[H])c([H])c([H])c2C1([H])[H]

>  <smiles>  (45) 
[H]c1c([H])c([H])c2c(c1[H])C([H])([H])C([H])([H])C([H])([H])C2([H])N([H])C(=O)C1([H])N(C(=O)C([H])(N([H])C(=O)C([H])(N([H])C([H])([H])[H])C([H])([H])[H])C(C([H])([H])[H])(C([H])([H])[H])C([H])([H])[H])C([H])([H])c2c([H])c(OC([H])([H])C([H])([H])C([H])([H])C([H])(C(=O)C3([H])C([H])([H])C([H])([H])C([H])(N([H])C(=O)N4C([H])([H])C([H])([H])C([H])([H])C([H])(n5nc(-c6c([H])c([H])c(Oc7c([H])c([H])c(F)c([H])c7F)c([H])c6[H])c(C(=O)N([H])[H])c5N([H])[H])C4([H])[H])C([H])([H])[N+]3([H])[H])C([H])([H])[H])c([H])c([H])c2C1([H])[H]

$$$$
45:0:0
     RDKit          3D

 89 97  0  0  1  0  0  0  0  0999 V2000
  -29.7080  -21.3480   20.0080 C   0  0  0  0  0  2  0  0  0  0  0  0
  -29.7430  -20.0030   20.8120 C   0  0  0  0  0  0  0  0  0  0  0  0
  -30.2900  -19.9890   21.9170 O   0  0  0  0  0  0  0  0  0  0  0  0
  -30.9750  -14.6360   20.0380 C   0  0  0  0  0  0  0  0  0  0  0  0
  -30.6220  -12.4350   18.9540 C   0  0  0  0  0  2  0  0  0  0  0  0
  -29.6510  -12.5880   17.7660 C   0  0  0  0  0  2  0  0  0  0  0  0
  -28.1930  -12.4380   18.2420 C   0  0  0  0  0  2  0  0  0  0  0  0
  -27.8810  -13.2980   19.4970 C   0  0  0  0  0  3  0  0  0  0  0  0
  -28.9740  -13.1540   20.5740 C   0  0  0  0  0  2  0  0  0  0  0  0
  -30.2590  -13.4720   19.9420 N   0  0  0  0  0  0  0  0  0  0  0  0
  -32.1540  -14.6630   19.6690 O   0  0  0  0  0  0  0  0  0  0  0  0
  -29.7350  -18.0700   18.9840 C   0  0  0  0  0  2  0  0  0  0  0  0
  -28.8100  -17.5400   21.2690 C   0  0  0  0  0  2  0  0  0  0  0  0
  -30.7740  -16.9440   19.2500 C   0  0  0  0  0  2  0  0  0  0  0  0
  -29.9150  -16.4420   21.4040 C   0  0  0  0  0  2  0  0  0  0  0  0
  -29.0840  -18.6930   20.2450 C   0  0  0  0  0  3  0  0  0  0  0  0
  -30.2870  -15.8320   20.1100 N   0  0  0  0  0  0  0  0  0  0  0  0
  -25.5190  -13.8870   20.3070 C   0  0  0  0  0  0  0  0  0  0  0  0
  -24.4640  -13.1110   20.7050 C   0  0  0  0  0  0  0  0  0  0  0  0
  -24.9240  -11.7600   20.6460 C   0  0  0  0  0  0  0  0  0  0  0  0
  -26.5520  -13.0100   20.0280 N   0  0  0  0  0  0  0  0  0  0  0  0
  -26.2040  -11.7240   20.2950 N   0  0  0  0  0  0  0  0  0  0  0  0
  -24.2020  -10.4970   20.8470 C   0  0  0  0  0  0  0  0  0  0  0  0
  -24.5980   -9.5680   21.8350 C   0  0  0  0  0  3  0  0  0  0  0  0
  -23.8760   -8.3700   22.0200 C   0  0  0  0  0  3  0  0  0  0  0  0
  -22.7430   -8.0910   21.2180 C   0  0  0  0  0  0  0  0  0  0  0  0
  -22.3660   -9.0090   20.2230 C   0  0  0  0  0  3  0  0  0  0  0  0
  -23.0900  -10.1980   20.0350 C   0  0  0  0  0  3  0  0  0  0  0  0
  -21.9960   -6.9420   21.3110 O   0  0  0  0  0  0  0  0  0  0  0  0
  -21.8220   -6.2910   22.5060 C   0  0  0  0  0  0  0  0  0  0  0  0
  -21.2380   -6.9260   23.6230 C   0  0  0  0  0  3  0  0  0  0  0  0
  -21.0150   -6.1990   24.8090 C   0  0  0  0  0  3  0  0  0  0  0  0
  -21.3660   -4.8380   24.8790 C   0  0  0  0  0  0  0  0  0  0  0  0
  -21.9430   -4.2020   23.7660 C   0  0  0  0  0  3  0  0  0  0  0  0
  -22.1680   -4.9270   22.5810 C   0  0  0  0  0  0  0  0  0  0  0  0
  -22.7040   -4.3030   21.5050 F   0  0  0  0  0  0  0  0  0  0  0  0
  -21.1450   -4.1370   26.0160 F   0  0  0  0  0  0  0  0  0  0  0  0
  -23.0780  -13.5880   21.0280 C   0  0  0  0  0  0  0  0  0  0  0  0
  -22.3780  -12.8840   21.9100 N   0  0  0  0  0  0  0  0  0  0  0  0
  -22.6250  -14.6190   20.5330 O   0  0  0  0  0  0  0  0  0  0  0  0
  -22.7580  -12.0490   22.3300 H   0  0  0  0  0  0  0  0  0  0  0  0
  -21.4500  -13.1850   22.1720 H   0  0  0  0  0  0  0  0  0  0  0  0
  -25.6800  -15.2590   20.1330 N   0  0  0  0  0  0  0  0  0  0  0  0
  -24.9220  -15.9180   20.2680 H   0  0  0  0  0  0  0  0  0  0  0  0
  -26.5230  -15.6900   19.7760 H   0  0  0  0  0  0  0  0  0  0  0  0
  -28.8080  -22.5220   20.5660 C   0  0  0  0  0  2  0  0  0  0  0  0
  -29.3070  -24.0210   20.3960 C   0  0  0  0  0  2  0  0  0  0  0  0
  -28.1570  -25.0820   20.2280 C   0  0  0  0  0  2  0  0  0  0  0  0
  -28.4300  -26.5280   20.2850 O   0  0  0  0  0  0  0  0  0  0  0  0
  -24.6050  -31.8830   23.2120 C   0  0  0  0  0  0  0  0  0  0  0  0
  -27.3060  -27.3620   20.2090 C   0  0  0  0  0  0  0  0  0  0  0  0
  -23.4370  -30.4620   21.5660 C   0  0  0  0  0  3  0  0  0  0  0  0
  -24.9220  -28.9330   20.1660 C   0  0  0  0  0  0  0  0  0  0  0  0
  -25.9750  -30.8170   21.4110 C   0  0  0  0  0  2  0  0  0  0  0  0
  -26.0790  -29.4410   20.7710 C   0  0  0  0  0  0  0  0  0  0  0  0
  -27.2760  -28.6670   20.7840 C   0  0  0  0  0  3  0  0  0  0  0  0
  -26.1220  -26.9090   19.5770 C   0  0  0  0  0  3  0  0  0  0  0  0
  -24.9440  -27.6710   19.5600 C   0  0  0  0  0  3  0  0  0  0  0  0
  -23.6740  -29.7860   20.1930 C   0  0  0  0  0  2  0  0  0  0  0  0
  -24.6900  -31.0700   22.1210 N   0  0  0  0  0  0  0  0  0  0  0  0
  -23.5110  -32.1500   23.7310 O   0  0  0  0  0  0  0  0  0  0  0  0
  -22.7770  -29.4390   22.5210 C   0  0  0  0  0  0  0  0  0  0  0  0
  -21.4520  -29.2590   22.3890 N   0  0  0  0  0  0  0  0  0  0  0  0
  -23.4550  -28.8110   23.3390 O   0  0  0  0  0  0  0  0  0  0  0  0
  -20.9650  -29.8170   21.7020 H   0  0  0  0  0  0  0  0  0  0  0  0
  -18.0690  -28.0870   22.9000 C   0  0  0  0  0  0  0  0  0  0  0  0
  -20.6310  -28.3220   23.1570 C   0  0  0  0  0  3  0  0  0  0  0  0
  -20.7180  -26.8950   22.5670 C   0  0  0  0  0  2  0  0  0  0  0  0
  -19.6060  -26.5900   21.5580 C   0  0  0  0  0  2  0  0  0  0  0  0
  -18.2290  -26.7420   22.2120 C   0  0  0  0  0  2  0  0  0  0  0  0
  -19.1970  -28.8360   23.3300 C   0  0  0  0  0  0  0  0  0  0  0  0
  -18.9920  -30.0960   23.9320 C   0  0  0  0  0  3  0  0  0  0  0  0
  -17.6930  -30.6080   24.1090 C   0  0  0  0  0  3  0  0  0  0  0  0
  -16.5810  -29.8560   23.6970 C   0  0  0  0  0  3  0  0  0  0  0  0
  -16.7690  -28.5970   23.0990 C   0  0  0  0  0  3  0  0  0  0  0  0
  -25.8720  -32.5320   23.8460 C   0  0  0  0  0  3  0  0  0  0  0  0
  -26.3720  -31.7800   25.1410 C   0  0  1  0  0  0  0  0  0  0  0  0
  -25.2630  -31.5410   26.1900 C   0  0  0  0  0  1  0  0  0  0  0  0
  -26.9770  -30.4040   24.7770 C   0  0  0  0  0  1  0  0  0  0  0  0
  -27.5040  -32.5930   25.8140 C   0  0  0  0  0  1  0  0  0  0  0  0
  -25.5470  -33.9320   24.1530 N   0  0  0  0  0  0  0  0  0  0  0  0
  -25.8960  -34.9780   23.3930 C   0  0  0  0  0  0  0  0  0  0  0  0
  -26.5970  -34.8670   22.3820 O   0  0  0  0  0  0  0  0  0  0  0  0
  -24.9270  -34.0910   24.9330 H   0  0  0  0  0  0  0  0  0  0  0  0
  -24.1860  -36.7690   22.9500 C   0  0  0  0  0  1  0  0  0  0  0  0
  -25.3890  -36.3690   23.8200 C   0  0  0  0  0  3  0  0  0  0  0  0
  -27.4810  -37.2590   24.7470 C   0  0  0  0  0  1  0  0  0  0  0  0
  -26.4260  -37.4210   23.7500 N   0  0  0  0  0  0  0  0  0  0  0  0
  -26.0130  -38.3420   23.8720 H   0  0  0  0  0  0  0  0  0  0  0  0
  1 46  1  0
  1  2  1  0
  2  3  2  0
  4 17  1  0
  5 10  1  0
  6  7  1  0
  6  5  1  0
  8  7  1  0
  8 21  1  0
  8  9  1  0
 10  4  1  0
 10  9  1  0
 11  4  2  0
 12 14  1  0
 12 16  1  0
 13 15  1  0
 14 17  1  0
 16  2  1  0
 16 13  1  0
 17 15  1  0
 18 19  2  0
 19 38  1  0
 20 19  1  0
 20 23  1  0
 21 22  1  0
 21 18  1  0
 22 20  2  0
 23 24  1  0
 24 25  2  0
 26 29  1  0
 26 25  1  0
 27 26  2  0
 28 27  1  0
 28 23  2  0
 29 30  1  0
 30 35  2  0
 30 31  1  0
 31 32  2  0
 32 33  1  0
 33 37  1  0
 34 33  2  0
 35 34  1  0
 36 35  1  0
 38 39  1  0
 39 42  1  0
 39 41  1  0
 40 38  2  0
 43 44  1  0
 43 18  1  0
 45 43  1  0
 47 46  1  0
 48 49  1  0
 48 47  1  0
 50 61  2  0
 51 49  1  0
 51 56  1  0
 52 60  1  0
 52 62  1  0
 53 59  1  0
 53 55  1  0
 54 60  1  0
 55 56  2  0
 55 54  1  0
 57 51  2  0
 58 57  1  0
 58 53  2  0
 59 52  1  0
 60 50  1  0
 62 64  2  0
 63 62  1  0
 65 63  1  0
 66 75  2  0
 66 71  1  0
 67 63  1  0
 67 71  1  0
 68 67  1  0
 69 70  1  0
 69 68  1  0
 70 66  1  0
 71 72  2  0
 72 73  1  0
 74 73  2  0
 75 74  1  0
 76 50  1  0
 76 81  1  0
 76 77  1  0
 77 80  1  1
 77 78  1  0
 79 77  1  0
 81 84  1  0
 82 86  1  0
 82 81  1  0
 83 82  2  0
 86 85  1  0
 88 86  1  0
 88 89  1  0
 88 87  1  0
M  ISO  4   4 100  17 100  48 101  49 101
M  END
>  <TORSDO>  (46) 
F 20

>  <SCORE>  (46) 
-13.180

>  <name>  (46) 
45

>  <ligand_id>  (46) 
45

>  <original_smiles>  (46) 
[H]c1c([H])c([H])c2c(c1[H])C([H])([H])C([H])([H])C([H])([H])C2([H])N([H])C(=O)C1([H])N(C(=O)C([H])(N([H])C(=O)C([H])(N([H])C([H])([H])[H])C([H])([H])[H])C(C([H])([H])[H])(C([H])([H])[H])C([H])([H])[H])C([H])([H])c2c([H])c(OC([H])([H])C([H])([H])C([H])([H])C([H])([H])C(=O)C3([H])C([H])([H])C([H])([H])N(C(=O)N4C([H])([H])C([H])([H])C([H])([H])C([H])(n5nc(-c6c([H])c([H])c(Oc7c([H])c([H])c(F)c([H])c7F)c([H])c6[H])c(C(=O)N([H])[H])c5N([H])[H])C4([H])[H])C([H])([H])C3([H])[H])c([H])c([H])c2C1([H])[H]

>  <smiles>  (46) 
[H]c1c([H])c([H])c2c(c1[H])C([H])([H])C([H])([H])C([H])([H])C2([H])N([H])C(=O)C1([H])N(C(=O)C([H])(N([H])C(=O)C([H])(N([H])C([H])([H])[H])C([H])([H])[H])C(C([H])([H])[H])(C([H])([H])[H])C([H])([H])[H])C([H])([H])c2c([H])c(OC([H])([H])C([H])([H])C([H])([H])C([H])([H])C(=O)C3([H])C([H])([H])C([H])([H])N(C(=O)N4C([H])([H])C([H])([H])C([H])([H])C([H])(n5nc(-c6c([H])c([H])c(Oc7c([H])c([H])c(F)c([H])c7F)c([H])c6[H])c(C(=O)N([H])[H])c5N([H])[H])C4([H])[H])C([H])([H])C3([H])[H])c([H])c([H])c2C1([H])[H]

$$$$
46:0:0
     RDKit          3D

 93101  0  0  1  0  0  0  0  0999 V2000
  -28.7610  -22.1290   20.5540 C   0  0  0  0  0  0  0  0  0  0  0  0
  -27.6710  -22.2120   19.9040 N   0  0  0  0  0  0  0  0  0  0  0  0
  -27.1900  -23.1030   19.9220 H   0  0  0  0  0  0  0  0  0  0  0  0
  -29.3930  -23.2730   21.3630 C   0  0  0  0  0  2  0  0  0  0  0  0
  -29.6210  -24.5900   20.5950 C   0  0  0  0  0  0  0  0  0  0  0  0
  -30.7560  -25.0660   20.4790 O   0  0  0  0  0  0  0  0  0  0  0  0
  -28.3920  -25.3180   20.0430 C   0  0  0  0  0  2  0  0  0  0  0  0
  -28.5360  -26.7430   20.1230 O   0  0  0  0  0  0  0  0  0  0  0  0
  -24.6380  -31.7450   23.3340 C   0  0  0  0  0  0  0  0  0  0  0  0
  -27.3520  -27.4530   20.1110 C   0  0  0  0  0  0  0  0  0  0  0  0
  -23.4560  -30.3930   21.6330 C   0  0  0  0  0  3  0  0  0  0  0  0
  -24.9330  -28.9190   20.1660 C   0  0  0  0  0  0  0  0  0  0  0  0
  -25.9770  -30.7840   21.4670 C   0  0  0  0  0  2  0  0  0  0  0  0
  -26.0810  -29.4370   20.7790 C   0  0  0  0  0  0  0  0  0  0  0  0
  -27.2950  -28.7140   20.7440 C   0  0  0  0  0  3  0  0  0  0  0  0
  -26.1860  -26.9490   19.4870 C   0  0  0  0  0  3  0  0  0  0  0  0
  -24.9800  -27.6720   19.5180 C   0  0  0  0  0  3  0  0  0  0  0  0
  -23.6740  -29.7500   20.2370 C   0  0  0  0  0  2  0  0  0  0  0  0
  -24.7080  -30.9860   22.2030 N   0  0  0  0  0  0  0  0  0  0  0  0
  -23.5510  -31.9920   23.8730 O   0  0  0  0  0  0  0  0  0  0  0  0
  -22.8000  -29.3370   22.5510 C   0  0  0  0  0  0  0  0  0  0  0  0
  -21.4770  -29.1520   22.4000 N   0  0  0  0  0  0  0  0  0  0  0  0
  -23.4770  -28.6860   23.3510 O   0  0  0  0  0  0  0  0  0  0  0  0
  -20.9910  -29.7390   21.7360 H   0  0  0  0  0  0  0  0  0  0  0  0
  -18.1030  -27.9310   22.8090 C   0  0  0  0  0  0  0  0  0  0  0  0
  -20.6550  -28.1780   23.1160 C   0  0  0  0  0  3  0  0  0  0  0  0
  -20.7670  -26.7760   22.4770 C   0  0  0  0  0  2  0  0  0  0  0  0
  -19.6770  -26.4960   21.4380 C   0  0  0  0  0  2  0  0  0  0  0  0
  -18.2870  -26.6110   22.0730 C   0  0  0  0  0  2  0  0  0  0  0  0
  -19.2160  -28.6750   23.2780 C   0  0  0  0  0  0  0  0  0  0  0  0
  -18.9900  -29.9120   23.9170 C   0  0  0  0  0  3  0  0  0  0  0  0
  -17.6840  -30.4080   24.0900 C   0  0  0  0  0  3  0  0  0  0  0  0
  -16.5840  -29.6600   23.6380 C   0  0  0  0  0  3  0  0  0  0  0  0
  -16.7940  -28.4210   23.0040 C   0  0  0  0  0  3  0  0  0  0  0  0
  -25.9150  -32.3550   23.9940 C   0  0  0  0  0  3  0  0  0  0  0  0
  -25.5980  -33.7410   24.3590 N   0  0  0  0  0  0  0  0  0  0  0  0
  -25.9440  -34.8170   23.6400 C   0  0  0  0  0  0  0  0  0  0  0  0
  -26.6330  -34.7480   22.6170 O   0  0  0  0  0  0  0  0  0  0  0  0
  -24.9840  -33.8730   25.1520 H   0  0  0  0  0  0  0  0  0  0  0  0
  -24.2180  -36.6220   23.3150 C   0  0  0  0  0  1  0  0  0  0  0  0
  -25.4450  -36.1910   24.1330 C   0  0  0  0  0  3  0  0  0  0  0  0
  -27.5610  -37.0490   25.0360 C   0  0  0  0  0  1  0  0  0  0  0  0
  -26.4790  -37.2470   24.0750 N   0  0  0  0  0  0  0  0  0  0  0  0
  -26.0680  -38.1600   24.2460 H   0  0  0  0  0  0  0  0  0  0  0  0
  -26.4140  -31.5450   25.2520 C   0  0  1  0  0  0  0  0  0  0  0  0
  -25.3080  -31.2620   26.2960 C   0  0  0  0  0  1  0  0  0  0  0  0
  -27.0090  -30.1840   24.8200 C   0  0  0  0  0  1  0  0  0  0  0  0
  -27.5530  -32.3200   25.9540 C   0  0  0  0  0  1  0  0  0  0  0  0
  -29.5030  -20.7920   20.6120 C   0  0  0  0  0  2  0  0  0  0  0  0
  -28.7610  -19.7180   21.4490 C   0  0  0  0  0  2  0  0  0  0  0  0
  -29.0810  -16.4700   19.4460 C   0  0  0  0  0  3  0  0  0  0  0  0
  -28.6760  -17.7510   19.8580 C   0  0  0  0  0  3  0  0  0  0  0  0
  -29.9880  -17.5140   21.8890 C   0  0  0  0  0  3  0  0  0  0  0  0
  -29.9590  -15.6960   20.2380 C   0  0  0  0  0  0  0  0  0  0  0  0
  -29.1480  -18.2940   21.0660 C   0  0  0  0  0  0  0  0  0  0  0  0
  -30.3980  -16.2180   21.4860 C   0  0  0  0  0  0  0  0  0  0  0  0
  -31.3410  -15.4330   22.3840 C   0  0  0  0  0  1  0  0  0  0  0  0
  -30.5440  -14.4470   19.6230 C   0  0  0  0  0  0  0  0  0  0  0  0
  -29.9820  -12.3760   18.4280 C   0  0  0  0  0  2  0  0  0  0  0  0
  -28.9030  -12.6850   17.3700 C   0  0  0  0  0  2  0  0  0  0  0  0
  -27.4950  -12.5700   17.9830 C   0  0  0  0  0  2  0  0  0  0  0  0
  -27.3570  -13.3440   19.3220 C   0  0  0  0  0  3  0  0  0  0  0  0
  -28.5460  -13.0630   20.2680 C   0  0  0  0  0  2  0  0  0  0  0  0
  -29.7910  -13.3210   19.5360 N   0  0  0  0  0  0  0  0  0  0  0  0
  -31.6190  -14.5840   19.0350 O   0  0  0  0  0  0  0  0  0  0  0  0
  -25.1030  -13.9650   20.3870 C   0  0  0  0  0  0  0  0  0  0  0  0
  -24.0670  -13.1970   20.8500 C   0  0  0  0  0  0  0  0  0  0  0  0
  -24.4750  -11.8380   20.6820 C   0  0  0  0  0  0  0  0  0  0  0  0
  -26.0750  -13.0720   19.9670 N   0  0  0  0  0  0  0  0  0  0  0  0
  -25.7120  -11.7850   20.2030 N   0  0  0  0  0  0  0  0  0  0  0  0
  -23.7400  -10.5850   20.9010 C   0  0  0  0  0  0  0  0  0  0  0  0
  -24.2030   -9.6040   21.8030 C   0  0  0  0  0  3  0  0  0  0  0  0
  -23.4690   -8.4170   22.0070 C   0  0  0  0  0  3  0  0  0  0  0  0
  -22.2580   -8.2010   21.3100 C   0  0  0  0  0  0  0  0  0  0  0  0
  -21.8130   -9.1710   20.3960 C   0  0  0  0  0  3  0  0  0  0  0  0
  -22.5470  -10.3510   20.1880 C   0  0  0  0  0  3  0  0  0  0  0  0
  -21.4930   -7.0650   21.4240 O   0  0  0  0  0  0  0  0  0  0  0  0
  -21.4370   -6.3490   22.5920 C   0  0  0  0  0  0  0  0  0  0  0  0
  -21.0260   -6.9390   23.8070 C   0  0  0  0  0  3  0  0  0  0  0  0
  -20.9190   -6.1510   24.9700 C   0  0  0  0  0  3  0  0  0  0  0  0
  -21.2150   -4.7760   24.9190 C   0  0  0  0  0  0  0  0  0  0  0  0
  -21.6190   -4.1850   23.7080 C   0  0  0  0  0  3  0  0  0  0  0  0
  -21.7310   -4.9710   22.5470 C   0  0  0  0  0  0  0  0  0  0  0  0
  -22.1030   -4.3960   21.3790 F   0  0  0  0  0  0  0  0  0  0  0  0
  -21.1040   -4.0160   26.0350 F   0  0  0  0  0  0  0  0  0  0  0  0
  -22.7380  -13.6960   21.3360 C   0  0  0  0  0  0  0  0  0  0  0  0
  -22.1300  -12.9880   22.2850 N   0  0  0  0  0  0  0  0  0  0  0  0
  -22.2500  -14.7400   20.9110 O   0  0  0  0  0  0  0  0  0  0  0  0
  -22.5360  -12.1330   22.6370 H   0  0  0  0  0  0  0  0  0  0  0  0
  -21.2480  -13.3080   22.6610 H   0  0  0  0  0  0  0  0  0  0  0  0
  -25.2920  -15.3370   20.2660 N   0  0  0  0  0  0  0  0  0  0  0  0
  -24.5770  -16.0120   20.5080 H   0  0  0  0  0  0  0  0  0  0  0  0
  -26.1370  -15.7620   19.9010 H   0  0  0  0  0  0  0  0  0  0  0  0
  1 49  1  0
  1  4  1  0
  2  3  1  0
  2  1  2  0
  5  4  1  0
  6  5  2  0
  7  8  1  0
  7  5  1  0
  9 20  2  0
 10  8  1  0
 10 15  1  0
 11 19  1  0
 11 21  1  0
 12 18  1  0
 12 14  1  0
 13 19  1  0
 14 13  1  0
 15 14  2  0
 16 17  1  0
 16 10  2  0
 17 12  2  0
 18 11  1  0
 19  9  1  0
 21 23  2  0
 22 21  1  0
 24 22  1  0
 25 34  2  0
 25 30  1  0
 26 22  1  0
 26 30  1  0
 27 26  1  0
 28 29  1  0
 28 27  1  0
 29 25  1  0
 30 31  2  0
 31 32  1  0
 33 32  2  0
 34 33  1  0
 35  9  1  0
 35 36  1  0
 35 45  1  0
 36 39  1  0
 37 41  1  0
 37 36  1  0
 38 37  2  0
 41 40  1  0
 43 41  1  0
 43 44  1  0
 43 42  1  0
 45 48  1  1
 45 46  1  0
 47 45  1  0
 49 50  1  0
 51 52  2  0
 51 54  1  0
 52 55  1  0
 54 56  2  0
 55 50  1  0
 55 53  2  0
 56 53  1  0
 56 57  1  0
 58 54  1  0
 59 64  1  0
 60 61  1  0
 60 59  1  0
 62 61  1  0
 62 69  1  0
 62 63  1  0
 64 58  1  0
 64 63  1  0
 65 58  2  0
 66 67  2  0
 67 86  1  0
 68 67  1  0
 68 71  1  0
 69 70  1  0
 69 66  1  0
 70 68  2  0
 71 72  1  0
 72 73  2  0
 74 77  1  0
 74 73  1  0
 75 74  2  0
 76 75  1  0
 76 71  2  0
 77 78  1  0
 78 79  1  0
 79 80  2  0
 81 80  1  0
 81 85  1  0
 82 81  2  0
 83 78  2  0
 83 82  1  0
 84 83  1  0
 86 87  1  0
 87 89  1  0
 87 90  1  0
 88 86  2  0
 91 66  1  0
 91 92  1  0
 93 91  1  0
M  ISO  4   7 101   8 101  54 100  58 100
M  END
>  <TORSDO>  (47) 
F 22

>  <SCORE>  (47) 
-10.541

>  <name>  (47) 
46

>  <ligand_id>  (47) 
46

>  <original_smiles>  (47) 
[H]N=C(C([H])([H])C(=O)C([H])([H])Oc1c([H])c([H])c2c(c1[H])C([H])([H])N(C(=O)C([H])(N([H])C(=O)C([H])(N([H])C([H])([H])[H])C([H])([H])[H])C(C([H])([H])[H])(C([H])([H])[H])C([H])([H])[H])C([H])(C(=O)N([H])C1([H])c3c([H])c([H])c([H])c([H])c3C([H])([H])C([H])([H])C1([H])[H])C2([H])[H])C([H])([H])C([H])([H])c1c([H])c([H])c(C(=O)N2C([H])([H])C([H])([H])C([H])([H])C([H])(n3nc(-c4c([H])c([H])c(Oc5c([H])c([H])c(F)c([H])c5F)c([H])c4[H])c(C(=O)N([H])[H])c3N([H])[H])C2([H])[H])c(C([H])([H])[H])c1[H]

>  <smiles>  (47) 
[H]N=C(C([H])([H])C(=O)C([H])([H])Oc1c([H])c([H])c2c(c1[H])C([H])([H])N(C(=O)C([H])(N([H])C(=O)C([H])(N([H])C([H])([H])[H])C([H])([H])[H])C(C([H])([H])[H])(C([H])([H])[H])C([H])([H])[H])C([H])(C(=O)N([H])C1([H])c3c([H])c([H])c([H])c([H])c3C([H])([H])C([H])([H])C1([H])[H])C2([H])[H])C([H])([H])C([H])([H])c1c([H])c([H])c(C(=O)N2C([H])([H])C([H])([H])C([H])([H])C([H])(n3nc(-c4c([H])c([H])c(Oc5c([H])c([H])c(F)c([H])c5F)c([H])c4[H])c(C(=O)N([H])[H])c3N([H])[H])C2([H])[H])c(C([H])([H])[H])c1[H]

$$$$
47:0:0
     RDKit          3D

 99107  0  0  1  0  0  0  0  0999 V2000
  -31.8960  -21.3320   21.8210 C   0  0  0  0  0  3  0  0  0  0  0  0
  -31.0560  -22.5510   21.8050 N   0  0  0  0  0  4  0  0  0  0  0  0
  -30.3440  -22.4270   22.5100 H   0  0  0  0  0  0  0  0  0  0  0  0
  -31.6410  -23.3260   22.0650 H   0  0  0  0  0  0  0  0  0  0  0  0
  -30.3940  -22.8900   20.5230 C   0  0  0  0  0  2  0  0  0  0  0  0
  -30.0800  -24.3930   20.4650 C   0  0  0  0  0  2  0  0  0  0  0  0
  -29.1970  -24.8130   19.2760 C   0  0  0  0  0  2  0  0  0  0  0  0
  -29.2210  -26.3330   19.0490 C   0  0  0  0  0  2  0  0  0  0  0  0
  -28.7540  -27.0190   20.2110 O   0  0  0  0  0  0  0  0  0  0  0  0
  -24.6090  -31.9130   23.2460 C   0  0  0  0  0  0  0  0  0  0  0  0
  -27.5280  -27.6390   20.1810 C   0  0  0  0  0  0  0  0  0  0  0  0
  -23.5140  -30.5020   21.5340 C   0  0  0  0  0  3  0  0  0  0  0  0
  -25.0700  -29.0340   20.1450 C   0  0  0  0  0  0  0  0  0  0  0  0
  -26.0280  -30.9460   21.4420 C   0  0  0  0  0  2  0  0  0  0  0  0
  -26.1810  -29.5900   20.7900 C   0  0  0  0  0  0  0  0  0  0  0  0
  -27.4060  -28.8910   20.8190 C   0  0  0  0  0  3  0  0  0  0  0  0
  -26.3910  -27.0760   19.5560 C   0  0  0  0  0  3  0  0  0  0  0  0
  -25.1670  -27.7710   19.5320 C   0  0  0  0  0  3  0  0  0  0  0  0
  -23.7960  -29.8490   20.1540 C   0  0  0  0  0  2  0  0  0  0  0  0
  -24.7320  -31.1360   22.1340 N   0  0  0  0  0  0  0  0  0  0  0  0
  -23.5000  -32.1410   23.7480 O   0  0  0  0  0  0  0  0  0  0  0  0
  -22.8620  -29.4440   22.4520 C   0  0  0  0  0  0  0  0  0  0  0  0
  -21.5450  -29.2380   22.2830 N   0  0  0  0  0  0  0  0  0  0  0  0
  -23.5370  -28.8110   23.2680 O   0  0  0  0  0  0  0  0  0  0  0  0
  -21.0620  -29.8040   21.5990 H   0  0  0  0  0  0  0  0  0  0  0  0
  -18.1770  -27.9930   22.6800 C   0  0  0  0  0  0  0  0  0  0  0  0
  -20.7280  -28.2650   23.0050 C   0  0  0  0  0  3  0  0  0  0  0  0
  -20.8540  -26.8570   22.3800 C   0  0  0  0  0  2  0  0  0  0  0  0
  -19.7720  -26.5600   21.3360 C   0  0  0  0  0  2  0  0  0  0  0  0
  -18.3800  -26.6690   21.9620 C   0  0  0  0  0  2  0  0  0  0  0  0
  -19.2820  -28.7490   23.1560 C   0  0  0  0  0  0  0  0  0  0  0  0
  -19.0410  -29.9910   23.7850 C   0  0  0  0  0  3  0  0  0  0  0  0
  -17.7290  -30.4740   23.9450 C   0  0  0  0  0  3  0  0  0  0  0  0
  -16.6400  -29.7140   23.4860 C   0  0  0  0  0  3  0  0  0  0  0  0
  -16.8650  -28.4750   22.8590 C   0  0  0  0  0  3  0  0  0  0  0  0
  -25.8510  -32.5730   23.9260 C   0  0  0  0  0  3  0  0  0  0  0  0
  -26.3070  -31.8300   25.2420 C   0  0  1  0  0  0  0  0  0  0  0  0
  -25.1550  -31.5690   26.2390 C   0  0  0  0  0  1  0  0  0  0  0  0
  -26.9580  -30.4700   24.9010 C   0  0  0  0  0  1  0  0  0  0  0  0
  -27.3880  -32.6670   25.9660 C   0  0  0  0  0  1  0  0  0  0  0  0
  -25.5080  -33.9730   24.2110 N   0  0  0  0  0  0  0  0  0  0  0  0
  -25.8570  -35.0130   23.4420 C   0  0  0  0  0  0  0  0  0  0  0  0
  -26.5730  -34.8970   22.4430 O   0  0  0  0  0  0  0  0  0  0  0  0
  -24.8800  -34.1360   24.9840 H   0  0  0  0  0  0  0  0  0  0  0  0
  -24.1150  -36.7630   22.9740 C   0  0  0  0  0  1  0  0  0  0  0  0
  -25.3280  -36.4010   23.8450 C   0  0  0  0  0  3  0  0  0  0  0  0
  -27.4080  -37.3460   24.7450 C   0  0  0  0  0  1  0  0  0  0  0  0
  -26.3470  -37.4700   23.7490 N   0  0  0  0  0  0  0  0  0  0  0  0
  -25.9180  -38.3860   23.8550 H   0  0  0  0  0  0  0  0  0  0  0  0
  -31.9420  -21.0720   24.4200 C   0  0  0  0  0  1  0  0  0  0  0  0
  -32.7590  -21.3140   23.1290 C   0  0  0  0  0  3  0  0  0  0  0  0
  -34.9200  -20.5370   21.9130 C   0  0  0  0  0  1  0  0  0  0  0  0
  -33.9790  -20.3640   23.1150 C   0  0  0  0  0  2  0  0  0  0  0  0
  -30.9410  -20.1260   21.6630 C   0  0  0  0  0  0  0  0  0  0  0  0
  -29.7870  -20.1410   22.1040 O   0  0  0  0  0  0  0  0  0  0  0  0
  -31.4900  -18.8910   20.9350 C   0  0  0  0  0  2  0  0  0  0  0  0
  -30.2100  -14.1070   19.5170 C   0  0  0  0  0  0  0  0  0  0  0  0
  -29.6880  -12.0680   18.2250 C   0  0  0  0  0  2  0  0  0  0  0  0
  -28.5200  -12.2970   17.2500 C   0  0  0  0  0  2  0  0  0  0  0  0
  -27.1680  -12.0630   17.9510 C   0  0  0  0  0  2  0  0  0  0  0  0
  -27.0610  -12.8180   19.3010 C   0  0  0  0  0  3  0  0  0  0  0  0
  -28.3150  -12.5620   20.1630 C   0  0  0  0  0  2  0  0  0  0  0  0
  -29.5040  -12.9520   19.3850 N   0  0  0  0  0  0  0  0  0  0  0  0
  -31.0650  -14.4600   18.6950 O   0  0  0  0  0  0  0  0  0  0  0  0
  -31.8790  -16.4040   21.1680 C   0  0  0  0  0  2  0  0  0  0  0  0
  -29.5840  -17.2070   20.5130 C   0  0  0  0  0  2  0  0  0  0  0  0
  -31.2640  -15.0330   21.5000 C   0  0  0  0  0  2  0  0  0  0  0  0
  -30.8540  -17.5370   21.3270 C   0  0  0  0  0  3  0  0  0  0  0  0
  -29.0180  -15.8020   20.8330 C   0  0  0  0  0  3  0  0  0  0  0  0
  -28.3070  -15.7460   22.2030 C   0  0  0  0  0  1  0  0  0  0  0  0
  -30.0620  -14.7630   20.6940 N   0  0  0  0  0  0  0  0  0  0  0  0
  -24.8440  -13.2960   20.5210 C   0  0  0  0  0  0  0  0  0  0  0  0
  -23.8830  -12.4630   21.0280 C   0  0  0  0  0  0  0  0  0  0  0  0
  -24.3490  -11.1330   20.7910 C   0  0  0  0  0  0  0  0  0  0  0  0
  -25.8350  -12.4690   20.0130 N   0  0  0  0  0  0  0  0  0  0  0  0
  -25.5490  -11.1590   20.2270 N   0  0  0  0  0  0  0  0  0  0  0  0
  -23.6960   -9.8360   21.0150 C   0  0  0  0  0  0  0  0  0  0  0  0
  -24.2420   -8.8780   21.8980 C   0  0  0  0  0  3  0  0  0  0  0  0
  -23.5880   -7.6460   22.1100 C   0  0  0  0  0  3  0  0  0  0  0  0
  -22.3720   -7.3630   21.4410 C   0  0  0  0  0  0  0  0  0  0  0  0
  -21.8470   -8.3110   20.5450 C   0  0  0  0  0  3  0  0  0  0  0  0
  -22.5020   -9.5350   20.3310 C   0  0  0  0  0  3  0  0  0  0  0  0
  -21.6800   -6.1840   21.5660 O   0  0  0  0  0  0  0  0  0  0  0  0
  -21.6630   -5.4800   22.7440 C   0  0  0  0  0  0  0  0  0  0  0  0
  -21.1970   -6.0530   23.9470 C   0  0  0  0  0  3  0  0  0  0  0  0
  -21.1320   -5.2720   25.1190 C   0  0  0  0  0  3  0  0  0  0  0  0
  -21.5220   -3.9200   25.0870 C   0  0  0  0  0  0  0  0  0  0  0  0
  -21.9810   -3.3470   23.8880 C   0  0  0  0  0  3  0  0  0  0  0  0
  -22.0480   -4.1250   22.7190 C   0  0  0  0  0  0  0  0  0  0  0  0
  -22.4710   -3.5610   21.5610 F   0  0  0  0  0  0  0  0  0  0  0  0
  -21.4520   -3.1680   26.2100 F   0  0  0  0  0  0  0  0  0  0  0  0
  -22.5620  -12.8710   21.6170 C   0  0  0  0  0  0  0  0  0  0  0  0
  -22.0490  -12.0960   22.5660 N   0  0  0  0  0  0  0  0  0  0  0  0
  -22.0010  -13.9090   21.2710 O   0  0  0  0  0  0  0  0  0  0  0  0
  -22.5200  -11.2560   22.8670 H   0  0  0  0  0  0  0  0  0  0  0  0
  -21.1710  -12.3470   22.9980 H   0  0  0  0  0  0  0  0  0  0  0  0
  -24.9480  -14.6810   20.4310 N   0  0  0  0  0  0  0  0  0  0  0  0
  -24.2150  -15.3020   20.7530 H   0  0  0  0  0  0  0  0  0  0  0  0
  -25.7190  -15.1700   19.9960 H   0  0  0  0  0  0  0  0  0  0  0  0
  1 54  1  0
  1 51  1  0
  2  1  1  0
  2  4  1  0
  2  3  1  0
  5  2  1  0
  6  5  1  0
  7  6  1  0
  8  7  1  0
  8  9  1  0
 10 21  2  0
 11  9  1  0
 11 16  1  0
 12 20  1  0
 12 22  1  0
 13 19  1  0
 13 15  1  0
 14 20  1  0
 15 16  2  0
 15 14  1  0
 17 11  2  0
 18 17  1  0
 18 13  2  0
 19 12  1  0
 20 10  1  0
 22 24  2  0
 23 22  1  0
 25 23  1  0
 26 35  2  0
 26 31  1  0
 27 23  1  0
 27 31  1  0
 28 27  1  0
 29 30  1  0
 29 28  1  0
 30 26  1  0
 31 32  2  0
 32 33  1  0
 34 33  2  0
 35 34  1  0
 36 10  1  0
 36 41  1  0
 36 37  1  0
 37 40  1  1
 37 38  1  0
 39 37  1  0
 41 44  1  0
 42 46  1  0
 42 41  1  0
 43 42  2  0
 46 45  1  0
 48 46  1  0
 48 49  1  0
 48 47  1  0
 51 50  1  0
 52 53  1  0
 53 51  1  0
 54 55  2  0
 56 54  1  0
 57 71  1  0
 58 63  1  0
 59 60  1  0
 59 58  1  0
 61 60  1  0
 61 75  1  0
 61 62  1  0
 63 57  1  0
 63 62  1  0
 64 57  2  0
 65 68  1  0
 65 67  1  0
 66 69  1  0
 66 68  1  0
 68 56  1  0
 69 70  1  0
 71 69  1  0
 71 67  1  0
 72 73  2  0
 73 92  1  0
 74 77  1  0
 74 73  1  0
 75 76  1  0
 75 72  1  0
 76 74  2  0
 77 78  1  0
 78 79  2  0
 80 83  1  0
 80 79  1  0
 81 80  2  0
 82 81  1  0
 82 77  2  0
 83 84  1  0
 84 85  1  0
 85 86  2  0
 87 86  1  0
 87 91  1  0
 88 87  2  0
 89 84  2  0
 89 88  1  0
 90 89  1  0
 92 93  1  0
 93 95  1  0
 93 96  1  0
 94 92  2  0
 97 72  1  0
 97 98  1  0
 99 97  1  0
M  ISO  4   8 101   9 101  57 100  71 100
M  END
>  <TORSDO>  (48) 
F 25

>  <SCORE>  (48) 
-7.871

>  <name>  (48) 
47

>  <ligand_id>  (48) 
47

>  <original_smiles>  (48) 
[H]c1c([H])c([H])c2c(c1[H])C([H])([H])C([H])([H])C([H])([H])C2([H])N([H])C(=O)C1([H])N(C(=O)C([H])(N([H])C(=O)C([H])(N([H])C([H])([H])[H])C([H])([H])[H])C(C([H])([H])[H])(C([H])([H])[H])C([H])([H])[H])C([H])([H])c2c([H])c(OC([H])([H])C([H])([H])C([H])([H])C([H])([H])[N+]([H])([H])C([H])(C(=O)C([H])([H])C3([H])C([H])([H])C([H])([H])N(C(=O)N4C([H])([H])C([H])([H])C([H])([H])C([H])(n5nc(-c6c([H])c([H])c(Oc7c([H])c([H])c(F)c([H])c7F)c([H])c6[H])c(C(=O)N([H])[H])c5N([H])[H])C4([H])[H])C([H])(C([H])([H])[H])C3([H])[H])C([H])(C([H])([H])[H])C([H])([H])C([H])([H])[H])c([H])c([H])c2C1([H])[H]

>  <smiles>  (48) 
[H]c1c([H])c([H])c2c(c1[H])C([H])([H])C([H])([H])C([H])([H])C2([H])N([H])C(=O)C1([H])N(C(=O)C([H])(N([H])C(=O)C([H])(N([H])C([H])([H])[H])C([H])([H])[H])C(C([H])([H])[H])(C([H])([H])[H])C([H])([H])[H])C([H])([H])c2c([H])c(OC([H])([H])C([H])([H])C([H])([H])C([H])([H])[N+]([H])([H])C([H])(C(=O)C([H])([H])C3([H])C([H])([H])C([H])([H])N(C(=O)N4C([H])([H])C([H])([H])C([H])([H])C([H])(n5nc(-c6c([H])c([H])c(Oc7c([H])c([H])c(F)c([H])c7F)c([H])c6[H])c(C(=O)N([H])[H])c5N([H])[H])C4([H])[H])C([H])(C([H])([H])[H])C3([H])[H])C([H])(C([H])([H])[H])C([H])([H])C([H])([H])[H])c([H])c([H])c2C1([H])[H]

$$$$
48:0:0
     RDKit          3D

 94102  0  0  1  0  0  0  0  0999 V2000
  -29.1280  -20.2010   20.2130 C   0  0  0  0  0  3  0  0  0  0  0  0
  -29.6810  -21.7130   20.1070 C   0  0  0  0  0  3  0  0  0  0  0  0
  -28.6420  -22.8420   20.1870 N   0  0  0  0  0  4  0  0  0  0  0  0
  -28.1680  -22.7350   21.0730 H   0  0  0  0  0  0  0  0  0  0  0  0
  -27.9560  -22.6610   19.4730 H   0  0  0  0  0  0  0  0  0  0  0  0
  -29.0640  -24.3160   20.0630 C   0  0  0  0  0  3  0  0  0  0  0  0
  -27.8820  -25.4140   19.9890 C   0  0  0  0  0  3  0  0  0  0  0  0
  -28.1550  -26.8850   19.8990 O   0  0  0  0  0  0  0  0  0  0  0  0
  -24.7250  -32.2180   23.3850 C   0  0  0  0  0  0  0  0  0  0  0  0
  -27.0590  -27.7740   19.9440 C   0  0  0  0  0  0  0  0  0  0  0  0
  -23.3960  -30.9390   21.7400 C   0  0  0  0  0  3  0  0  0  0  0  0
  -24.7330  -29.4490   20.1460 C   0  0  0  0  0  0  0  0  0  0  0  0
  -25.9310  -31.2150   21.4340 C   0  0  0  0  0  2  0  0  0  0  0  0
  -25.9440  -29.8750   20.7040 C   0  0  0  0  0  0  0  0  0  0  0  0
  -27.1080  -29.0530   20.5910 C   0  0  0  0  0  3  0  0  0  0  0  0
  -25.8220  -27.4170   19.3550 C   0  0  0  0  0  3  0  0  0  0  0  0
  -24.6770  -28.2290   19.4550 C   0  0  0  0  0  3  0  0  0  0  0  0
  -23.5160  -30.3350   20.3150 C   0  0  0  0  0  2  0  0  0  0  0  0
  -24.7060  -31.4710   22.2410 N   0  0  0  0  0  0  0  0  0  0  0  0
  -23.6840  -32.4870   23.9970 O   0  0  0  0  0  0  0  0  0  0  0  0
  -22.7640  -29.8850   22.6820 C   0  0  0  0  0  0  0  0  0  0  0  0
  -21.4400  -29.6790   22.5660 N   0  0  0  0  0  0  0  0  0  0  0  0
  -23.4650  -29.2520   23.4770 O   0  0  0  0  0  0  0  0  0  0  0  0
  -20.9260  -30.2380   21.8980 H   0  0  0  0  0  0  0  0  0  0  0  0
  -18.1150  -28.3240   22.9920 C   0  0  0  0  0  0  0  0  0  0  0  0
  -20.6500  -28.7070   23.3240 C   0  0  0  0  0  3  0  0  0  0  0  0
  -20.8370  -27.2800   22.7590 C   0  0  0  0  0  2  0  0  0  0  0  0
  -19.7810  -26.9040   21.7170 C   0  0  0  0  0  2  0  0  0  0  0  0
  -18.3750  -26.9830   22.3240 C   0  0  0  0  0  2  0  0  0  0  0  0
  -19.1840  -29.1410   23.4460 C   0  0  0  0  0  0  0  0  0  0  0  0
  -18.8910  -30.3930   24.0270 C   0  0  0  0  0  3  0  0  0  0  0  0
  -17.5610  -30.8330   24.1570 C   0  0  0  0  0  3  0  0  0  0  0  0
  -16.5040  -30.0120   23.7240 C   0  0  0  0  0  3  0  0  0  0  0  0
  -16.7830  -28.7590   23.1480 C   0  0  0  0  0  3  0  0  0  0  0  0
  -26.0600  -32.7860   23.9590 C   0  0  0  0  0  3  0  0  0  0  0  0
  -25.8220  -34.1880   24.3300 N   0  0  0  0  0  0  0  0  0  0  0  0
  -26.1700  -35.2430   23.5830 C   0  0  0  0  0  0  0  0  0  0  0  0
  -26.7920  -35.1380   22.5230 O   0  0  0  0  0  0  0  0  0  0  0  0
  -25.2730  -34.3510   25.1620 H   0  0  0  0  0  0  0  0  0  0  0  0
  -24.5090  -37.1140   23.3350 C   0  0  0  0  0  1  0  0  0  0  0  0
  -25.7590  -36.6380   24.0910 C   0  0  0  0  0  3  0  0  0  0  0  0
  -27.9550  -37.4170   24.8630 C   0  0  0  0  0  1  0  0  0  0  0  0
  -26.8300  -37.6500   23.9640 N   0  0  0  0  0  0  0  0  0  0  0  0
  -26.4640  -38.5810   24.1530 H   0  0  0  0  0  0  0  0  0  0  0  0
  -26.6040  -31.9680   25.1960 C   0  0  1  0  0  0  0  0  0  0  0  0
  -25.5490  -31.7380   26.3010 C   0  0  0  0  0  1  0  0  0  0  0  0
  -27.1280  -30.5810   24.7550 C   0  0  0  0  0  1  0  0  0  0  0  0
  -27.8000  -32.7140   25.8330 C   0  0  0  0  0  1  0  0  0  0  0  0
  -30.0100  -18.8840   19.8740 C   0  0  0  0  0  3  0  0  0  0  0  0
  -34.1900  -19.1100   21.1720 C   0  0  0  0  0  3  0  0  0  0  0  0
  -33.8700  -18.9500   19.8120 C   0  0  0  0  0  3  0  0  0  0  0  0
  -33.1570  -19.1670   22.1300 C   0  0  0  0  0  3  0  0  0  0  0  0
  -32.5220  -18.8600   19.4110 C   0  0  0  0  0  3  0  0  0  0  0  0
  -31.8060  -19.0840   21.7230 C   0  0  0  0  0  3  0  0  0  0  0  0
  -31.4710  -18.9370   20.3580 C   0  0  0  0  0  0  0  0  0  0  0  0
  -29.2360  -17.4960   20.1410 C   0  0  0  0  0  2  0  0  0  0  0  0
  -30.5470  -15.2430   20.5170 C   0  0  0  0  0  0  0  0  0  0  0  0
  -30.5800  -12.8390   19.8440 C   0  0  0  0  0  2  0  0  0  0  0  0
  -29.7110  -12.6570   18.5750 C   0  0  0  0  0  2  0  0  0  0  0  0
  -28.2420  -12.3940   18.9750 C   0  0  0  0  0  2  0  0  0  0  0  0
  -27.7200  -13.4240   20.0130 C   0  0  0  0  0  3  0  0  0  0  0  0
  -28.7210  -13.5980   21.1840 C   0  0  0  0  0  2  0  0  0  0  0  0
  -30.0350  -13.9680   20.6300 N   0  0  0  0  0  0  0  0  0  0  0  0
  -31.6410  -15.4400   19.9910 O   0  0  0  0  0  0  0  0  0  0  0  0
  -29.7450  -16.2860   20.9040 N   0  0  0  0  0  0  0  0  0  0  0  0
  -29.0570  -15.9730   21.5750 H   0  0  0  0  0  0  0  0  0  0  0  0
  -25.3080  -13.9180   20.7710 C   0  0  0  0  0  0  0  0  0  0  0  0
  -24.2620  -13.0980   21.1020 C   0  0  0  0  0  0  0  0  0  0  0  0
  -24.7590  -11.7630   21.0000 C   0  0  0  0  0  0  0  0  0  0  0  0
  -26.3770  -13.0810   20.4890 N   0  0  0  0  0  0  0  0  0  0  0  0
  -26.0510  -11.7780   20.6870 N   0  0  0  0  0  0  0  0  0  0  0  0
  -24.0690  -10.4720   21.1260 C   0  0  0  0  0  0  0  0  0  0  0  0
  -24.4890   -9.4970   22.0550 C   0  0  0  0  0  3  0  0  0  0  0  0
  -23.7980   -8.2710   22.1740 C   0  0  0  0  0  3  0  0  0  0  0  0
  -22.6650   -8.0130   21.3640 C   0  0  0  0  0  0  0  0  0  0  0  0
  -22.2640   -8.9790   20.4230 C   0  0  0  0  0  3  0  0  0  0  0  0
  -22.9600  -10.1930   20.3040 C   0  0  0  0  0  3  0  0  0  0  0  0
  -21.9430   -6.8440   21.3910 O   0  0  0  0  0  0  0  0  0  0  0  0
  -21.7810   -6.1280   22.5490 C   0  0  0  0  0  0  0  0  0  0  0  0
  -21.1760   -6.6860   23.6950 C   0  0  0  0  0  3  0  0  0  0  0  0
  -20.9700   -5.8910   24.8400 C   0  0  0  0  0  3  0  0  0  0  0  0
  -21.3550   -4.5380   24.8380 C   0  0  0  0  0  0  0  0  0  0  0  0
  -21.9510   -3.9790   23.6950 C   0  0  0  0  0  3  0  0  0  0  0  0
  -22.1600   -4.7700   22.5520 C   0  0  0  0  0  0  0  0  0  0  0  0
  -22.7170   -4.2200   21.4480 F   0  0  0  0  0  0  0  0  0  0  0  0
  -21.1510   -3.7730   25.9360 F   0  0  0  0  0  0  0  0  0  0  0  0
  -22.8530  -13.5250   21.4030 C   0  0  0  0  0  0  0  0  0  0  0  0
  -22.1490  -12.7740   22.2450 N   0  0  0  0  0  0  0  0  0  0  0  0
  -22.3820  -14.5550   20.9270 O   0  0  0  0  0  0  0  0  0  0  0  0
  -22.5420  -11.9440   22.6620 H   0  0  0  0  0  0  0  0  0  0  0  0
  -21.2060  -13.0430   22.4900 H   0  0  0  0  0  0  0  0  0  0  0  0
  -25.4360  -15.2980   20.6600 N   0  0  0  0  0  0  0  0  0  0  0  0
  -24.6610  -15.9350   20.8010 H   0  0  0  0  0  0  0  0  0  0  0  0
  -26.2880  -15.7600   20.3670 H   0  0  0  0  0  0  0  0  0  0  0  0
  2  3  1  0
  2  1  2  0
  3  4  1  0
  5  3  1  0
  6  3  1  0
  7  6  2  0
  8 10  1  0
  8  7  1  0
  9 20  2  0
 10 15  1  0
 11 19  1  0
 11 21  1  0
 12 18  1  0
 12 14  1  0
 13 19  1  0
 14 13  1  0
 15 14  2  0
 16 17  1  0
 16 10  2  0
 17 12  2  0
 18 11  1  0
 19  9  1  0
 21 23  2  0
 22 21  1  0
 24 22  1  0
 25 34  2  0
 25 30  1  0
 26 22  1  0
 26 30  1  0
 27 26  1  0
 28 29  1  0
 28 27  1  0
 29 25  1  0
 30 31  2  0
 31 32  1  0
 33 32  2  0
 34 33  1  0
 35  9  1  0
 35 36  1  0
 35 45  1  0
 36 39  1  0
 37 41  1  0
 37 36  1  0
 38 37  2  0
 41 40  1  0
 43 41  1  0
 43 44  1  0
 43 42  1  0
 45 48  1  1
 45 46  1  0
 47 45  1  0
 49 56  1  0
 49  1  1  0
 49 55  1  0
 50 52  1  0
 51 50  2  0
 53 51  1  0
 53 55  2  0
 54 52  2  0
 55 54  1  0
 56 65  1  0
 57 63  1  0
 57 65  1  0
 58 63  1  0
 59 60  1  0
 59 58  1  0
 61 60  1  0
 61 70  1  0
 61 62  1  0
 63 62  1  0
 64 57  2  0
 65 66  1  0
 67 68  2  0
 68 87  1  0
 69 68  1  0
 69 72  1  0
 70 71  1  0
 70 67  1  0
 71 69  2  0
 72 73  1  0
 73 74  2  0
 75 78  1  0
 75 74  1  0
 76 75  2  0
 77 76  1  0
 77 72  2  0
 78 79  1  0
 79 84  2  0
 79 80  1  0
 80 81  2  0
 82 81  1  0
 82 86  1  0
 83 82  2  0
 84 83  1  0
 85 84  1  0
 87 88  1  0
 88 91  1  0
 88 90  1  0
 89 87  2  0
 92 67  1  0
 92 93  1  0
 94 92  1  0
M  ISO  4   7 101   8 101  57 100  65 100
M  END
>  <TORSDO>  (49) 
F 23

>  <SCORE>  (49) 
-11.824

>  <name>  (49) 
48

>  <ligand_id>  (49) 
48

>  <original_smiles>  (49) 
[H]c1c([H])c([H])c(C([H])(C([H])([H])N([H])C(=O)N2C([H])([H])C([H])([H])C([H])([H])C([H])(n3nc(-c4c([H])c([H])c(Oc5c([H])c([H])c(F)c([H])c5F)c([H])c4[H])c(C(=O)N([H])[H])c3N([H])[H])C2([H])[H])C([H])([H])C([H])([H])[N+]([H])([H])C([H])([H])C([H])([H])Oc2c([H])c([H])c3c(c2[H])C([H])([H])N(C(=O)C([H])(N([H])C(=O)C([H])(N([H])C([H])([H])[H])C([H])([H])[H])C(C([H])([H])[H])(C([H])([H])[H])C([H])([H])[H])C([H])(C(=O)N([H])C2([H])c4c([H])c([H])c([H])c([H])c4C([H])([H])C([H])([H])C2([H])[H])C3([H])[H])c([H])c1[H]

>  <smiles>  (49) 
[H]c1c([H])c([H])c(C([H])(C([H])([H])N([H])C(=O)N2C([H])([H])C([H])([H])C([H])([H])C([H])(n3nc(-c4c([H])c([H])c(Oc5c([H])c([H])c(F)c([H])c5F)c([H])c4[H])c(C(=O)N([H])[H])c3N([H])[H])C2([H])[H])C([H])([H])C([H])([H])[N+]([H])([H])C([H])([H])C([H])([H])Oc2c([H])c([H])c3c(c2[H])C([H])([H])N(C(=O)C([H])(N([H])C(=O)C([H])(N([H])C([H])([H])[H])C([H])([H])[H])C(C([H])([H])[H])(C([H])([H])[H])C([H])([H])[H])C([H])(C(=O)N([H])C2([H])c4c([H])c([H])c([H])c([H])c4C([H])([H])C([H])([H])C2([H])[H])C3([H])[H])c([H])c1[H]

$$$$
49:0:0
     RDKit          3D

 92100  0  0  1  0  0  0  0  0999 V2000
  -29.5840  -17.9630   20.0960 C   0  0  0  0  0  0  0  0  0  0  0  0
  -30.6800  -17.5180   22.1420 C   0  0  0  0  0  2  0  0  0  0  0  0
  -30.5880  -16.9650   20.7100 C   0  0  0  0  0  3  0  0  0  0  0  0
  -29.3720  -19.1880   21.0400 C   0  0  0  0  0  3  0  0  0  0  0  0
  -30.4420  -18.9740   22.0360 N   0  0  0  0  0  4  0  0  0  0  0  0
  -29.0070  -17.7830   19.0200 O   0  0  0  0  0  0  0  0  0  0  0  0
  -31.2920  -19.4080   21.7090 H   0  0  0  0  0  0  0  0  0  0  0  0
  -30.2040  -19.3660   22.9320 H   0  0  0  0  0  0  0  0  0  0  0  0
  -30.8320  -14.5060   20.0640 C   0  0  0  0  0  0  0  0  0  0  0  0
  -30.4410  -12.3590   18.8910 C   0  0  0  0  0  2  0  0  0  0  0  0
  -29.4250  -12.5810   17.7510 C   0  0  0  0  0  2  0  0  0  0  0  0
  -27.9780  -12.4570   18.2690 C   0  0  0  0  0  2  0  0  0  0  0  0
  -27.7350  -13.2780   19.5640 C   0  0  0  0  0  3  0  0  0  0  0  0
  -28.8540  -13.0310   20.6000 C   0  0  0  0  0  2  0  0  0  0  0  0
  -30.1420  -13.3360   19.9540 N   0  0  0  0  0  0  0  0  0  0  0  0
  -31.9330  -14.6740   19.5320 O   0  0  0  0  0  0  0  0  0  0  0  0
  -30.1850  -15.5260   20.6730 N   0  0  0  0  0  0  0  0  0  0  0  0
  -29.2620  -15.3100   21.0180 H   0  0  0  0  0  0  0  0  0  0  0  0
  -25.4060  -13.9220   20.4390 C   0  0  0  0  0  0  0  0  0  0  0  0
  -24.3450  -13.1670   20.8590 C   0  0  0  0  0  0  0  0  0  0  0  0
  -24.7680  -11.8060   20.7690 C   0  0  0  0  0  0  0  0  0  0  0  0
  -26.4110  -13.0220   20.1230 N   0  0  0  0  0  0  0  0  0  0  0  0
  -26.0350  -11.7430   20.3790 N   0  0  0  0  0  0  0  0  0  0  0  0
  -24.0220  -10.5570   20.9740 C   0  0  0  0  0  0  0  0  0  0  0  0
  -24.4730   -9.5680   21.8750 C   0  0  0  0  0  3  0  0  0  0  0  0
  -23.7280   -8.3840   22.0710 C   0  0  0  0  0  3  0  0  0  0  0  0
  -22.5180   -8.1820   21.3650 C   0  0  0  0  0  0  0  0  0  0  0  0
  -22.0860   -9.1590   20.4500 C   0  0  0  0  0  3  0  0  0  0  0  0
  -22.8310  -10.3340   20.2540 C   0  0  0  0  0  3  0  0  0  0  0  0
  -21.7430   -7.0520   21.4700 O   0  0  0  0  0  0  0  0  0  0  0  0
  -21.7120   -6.3050   22.6210 C   0  0  0  0  0  0  0  0  0  0  0  0
  -21.3060   -6.8580   23.8550 C   0  0  0  0  0  3  0  0  0  0  0  0
  -21.2230   -6.0380   24.9990 C   0  0  0  0  0  3  0  0  0  0  0  0
  -21.5330   -4.6670   24.9070 C   0  0  0  0  0  0  0  0  0  0  0  0
  -21.9330   -4.1160   23.6770 C   0  0  0  0  0  3  0  0  0  0  0  0
  -22.0180   -4.9330   22.5370 C   0  0  0  0  0  0  0  0  0  0  0  0
  -22.3820   -4.3920   21.3490 F   0  0  0  0  0  0  0  0  0  0  0  0
  -21.4460   -3.8770   26.0040 F   0  0  0  0  0  0  0  0  0  0  0  0
  -22.9800  -13.6720   21.2290 C   0  0  0  0  0  0  0  0  0  0  0  0
  -22.2900  -12.9720   22.1230 N   0  0  0  0  0  0  0  0  0  0  0  0
  -22.5370  -14.7210   20.7640 O   0  0  0  0  0  0  0  0  0  0  0  0
  -22.6610  -12.1200   22.5190 H   0  0  0  0  0  0  0  0  0  0  0  0
  -21.3750  -13.2880   22.4100 H   0  0  0  0  0  0  0  0  0  0  0  0
  -25.5940  -15.2920   20.2740 N   0  0  0  0  0  0  0  0  0  0  0  0
  -24.8350  -15.9510   20.3980 H   0  0  0  0  0  0  0  0  0  0  0  0
  -26.3970  -15.6960   19.8100 H   0  0  0  0  0  0  0  0  0  0  0  0
  -29.3970  -20.6120   20.3670 C   0  0  0  0  0  3  0  0  0  0  0  0
  -28.9480  -21.7980   21.2910 C   0  0  0  0  0  3  0  0  0  0  0  0
  -29.0640  -23.2500   20.7130 C   0  0  0  0  0  2  0  0  0  0  0  0
  -28.3340  -24.3300   21.5760 C   0  0  0  0  0  2  0  0  0  0  0  0
  -28.9140  -25.7810   21.5990 C   0  0  0  0  0  2  0  0  0  0  0  0
  -28.6860  -26.6000   20.4420 O   0  0  0  0  0  0  0  0  0  0  0  0
  -24.6610  -31.8130   23.2870 C   0  0  0  0  0  0  0  0  0  0  0  0
  -27.5240  -27.3460   20.4360 C   0  0  0  0  0  0  0  0  0  0  0  0
  -23.5640  -30.3650   21.6080 C   0  0  0  0  0  3  0  0  0  0  0  0
  -25.1170  -28.8250   20.2880 C   0  0  0  0  0  0  0  0  0  0  0  0
  -26.0920  -30.7580   21.5350 C   0  0  0  0  0  2  0  0  0  0  0  0
  -26.2350  -29.3740   20.9320 C   0  0  0  0  0  0  0  0  0  0  0  0
  -27.4460  -28.6400   21.0080 C   0  0  0  0  0  3  0  0  0  0  0  0
  -26.3960  -26.8180   19.7840 C   0  0  0  0  0  3  0  0  0  0  0  0
  -25.1920  -27.5450   19.7110 C   0  0  0  0  0  3  0  0  0  0  0  0
  -23.8580  -29.6650   20.2540 C   0  0  0  0  0  2  0  0  0  0  0  0
  -24.7880  -30.9950   22.2020 N   0  0  0  0  0  0  0  0  0  0  0  0
  -23.5490  -32.0750   23.7660 O   0  0  0  0  0  0  0  0  0  0  0  0
  -22.8810  -29.3480   22.5500 C   0  0  0  0  0  0  0  0  0  0  0  0
  -21.5640  -29.1540   22.3690 N   0  0  0  0  0  0  0  0  0  0  0  0
  -23.5340  -28.7350   23.3990 O   0  0  0  0  0  0  0  0  0  0  0  0
  -21.0980  -29.7030   21.6600 H   0  0  0  0  0  0  0  0  0  0  0  0
  -18.1780  -27.9530   22.7410 C   0  0  0  0  0  0  0  0  0  0  0  0
  -20.7230  -28.2160   23.1120 C   0  0  0  0  0  3  0  0  0  0  0  0
  -20.8520  -26.7830   22.5450 C   0  0  0  0  0  2  0  0  0  0  0  0
  -19.7920  -26.4530   21.4900 C   0  0  0  0  0  2  0  0  0  0  0  0
  -18.3850  -26.6000   22.0770 C   0  0  0  0  0  2  0  0  0  0  0  0
  -19.2780  -28.7180   23.2110 C   0  0  0  0  0  0  0  0  0  0  0  0
  -19.0330  -29.9850   23.7850 C   0  0  0  0  0  3  0  0  0  0  0  0
  -17.7210  -30.4850   23.8960 C   0  0  0  0  0  3  0  0  0  0  0  0
  -16.6370  -29.7150   23.4460 C   0  0  0  0  0  3  0  0  0  0  0  0
  -16.8650  -28.4520   22.8720 C   0  0  0  0  0  3  0  0  0  0  0  0
  -25.9040  -32.4750   23.9590 C   0  0  0  0  0  3  0  0  0  0  0  0
  -25.5650  -33.8770   24.2380 N   0  0  0  0  0  0  0  0  0  0  0  0
  -25.9180  -34.9130   23.4670 C   0  0  0  0  0  0  0  0  0  0  0  0
  -26.6370  -34.7920   22.4710 O   0  0  0  0  0  0  0  0  0  0  0  0
  -24.9420  -34.0440   25.0140 H   0  0  0  0  0  0  0  0  0  0  0  0
  -24.1870  -36.6660   22.9760 C   0  0  0  0  0  1  0  0  0  0  0  0
  -25.3910  -36.3050   23.8620 C   0  0  0  0  0  3  0  0  0  0  0  0
  -27.4690  -37.2440   24.7730 C   0  0  0  0  0  1  0  0  0  0  0  0
  -26.4130  -37.3710   23.7730 N   0  0  0  0  0  0  0  0  0  0  0  0
  -25.9850  -38.2860   23.8780 H   0  0  0  0  0  0  0  0  0  0  0  0
  -26.3590  -31.7400   25.2790 C   0  0  1  0  0  0  0  0  0  0  0  0
  -25.2130  -31.5160   26.2920 C   0  0  0  0  0  1  0  0  0  0  0  0
  -26.9780  -30.3610   24.9480 C   0  0  0  0  0  1  0  0  0  0  0  0
  -27.4600  -32.5640   25.9880 C   0  0  0  0  0  1  0  0  0  0  0  0
  1  3  1  0
  1  4  1  0
  3 17  1  0
  3  2  1  0
  4 47  1  0
  4  5  1  0
  5  2  1  0
  5  8  1  0
  6  1  2  0
  7  5  1  0
  9 17  1  0
 10 15  1  0
 11 12  1  0
 11 10  1  0
 13 12  1  0
 13 22  1  0
 13 14  1  0
 15  9  1  0
 15 14  1  0
 16  9  2  0
 17 18  1  0
 19 20  2  0
 20 39  1  0
 21 20  1  0
 21 24  1  0
 22 23  1  0
 22 19  1  0
 23 21  2  0
 24 25  1  0
 25 26  2  0
 27 30  1  0
 27 26  1  0
 28 27  2  0
 29 28  1  0
 29 24  2  0
 30 31  1  0
 31 32  1  0
 32 33  2  0
 34 33  1  0
 34 38  1  0
 35 34  2  0
 36 31  2  0
 36 35  1  0
 37 36  1  0
 39 40  1  0
 40 43  1  0
 40 42  1  0
 41 39  2  0
 44 45  1  0
 44 19  1  0
 46 44  1  0
 47 48  2  0
 49 48  1  0
 49 50  1  0
 50 51  1  0
 52 51  1  0
 53 64  2  0
 54 52  1  0
 54 59  1  0
 55 63  1  0
 55 65  1  0
 56 58  1  0
 57 63  1  0
 58 59  2  0
 58 57  1  0
 60 54  2  0
 61 60  1  0
 61 56  2  0
 62 56  1  0
 62 55  1  0
 63 53  1  0
 65 67  2  0
 66 65  1  0
 68 66  1  0
 69 78  2  0
 69 74  1  0
 70 66  1  0
 70 74  1  0
 71 70  1  0
 72 73  1  0
 72 71  1  0
 73 69  1  0
 74 75  2  0
 75 76  1  0
 77 76  2  0
 78 77  1  0
 79 53  1  0
 79 80  1  0
 79 89  1  0
 80 83  1  0
 81 85  1  0
 81 80  1  0
 82 81  2  0
 85 84  1  0
 87 85  1  0
 87 88  1  0
 87 86  1  0
 89 92  1  1
 89 90  1  0
 91 89  1  0
M  ISO  4   9 100  17 100  51 101  52 101
M  END
>  <TORSDO>  (50) 
F 21

>  <SCORE>  (50) 
-13.244

>  <name>  (50) 
49

>  <ligand_id>  (50) 
49

>  <original_smiles>  (50) 
[H]c1c([H])c([H])c2c(c1[H])C([H])([H])C([H])([H])C([H])([H])C2([H])N([H])C(=O)C1([H])N(C(=O)C([H])(N([H])C(=O)C([H])(N([H])C([H])([H])[H])C([H])([H])[H])C(C([H])([H])[H])(C([H])([H])[H])C([H])([H])[H])C([H])([H])c2c([H])c(OC([H])([H])C([H])([H])C([H])([H])C([H])([H])C([H])([H])C3([H])C(=O)C([H])(N([H])C(=O)N4C([H])([H])C([H])([H])C([H])([H])C([H])(n5nc(-c6c([H])c([H])c(Oc7c([H])c([H])c(F)c([H])c7F)c([H])c6[H])c(C(=O)N([H])[H])c5N([H])[H])C4([H])[H])C([H])([H])[N+]3([H])[H])c([H])c([H])c2C1([H])[H]

>  <smiles>  (50) 
[H]c1c([H])c([H])c2c(c1[H])C([H])([H])C([H])([H])C([H])([H])C2([H])N([H])C(=O)C1([H])N(C(=O)C([H])(N([H])C(=O)C([H])(N([H])C([H])([H])[H])C([H])([H])[H])C(C([H])([H])[H])(C([H])([H])[H])C([H])([H])[H])C([H])([H])c2c([H])c(OC([H])([H])C([H])([H])C([H])([H])C([H])([H])C([H])([H])C3([H])C(=O)C([H])(N([H])C(=O)N4C([H])([H])C([H])([H])C([H])([H])C([H])(n5nc(-c6c([H])c([H])c(Oc7c([H])c([H])c(F)c([H])c7F)c([H])c6[H])c(C(=O)N([H])[H])c5N([H])[H])C4([H])[H])C([H])([H])[N+]3([H])[H])c([H])c([H])c2C1([H])[H]

$$$$
50:0:0
     RDKit          3D

 91 99  0  0  1  0  0  0  0  0999 V2000
  -29.5010  -19.7940   22.0840 C   0  0  0  0  0  3  0  0  0  0  0  0
  -29.7980  -19.8930   19.6640 C   0  0  0  0  0  3  0  0  0  0  0  0
  -29.2730  -21.1830   22.1100 C   0  0  0  0  0  3  0  0  0  0  0  0
  -29.5700  -21.2840   19.6920 C   0  0  0  0  0  3  0  0  0  0  0  0
  -29.6980  -19.1350   20.8530 C   0  0  0  0  0  0  0  0  0  0  0  0
  -29.2370  -21.9180   20.9080 C   0  0  0  0  0  0  0  0  0  0  0  0
  -29.6480  -17.6190   20.7870 C   0  0  0  0  0  2  0  0  0  0  0  0
  -30.9820  -16.9040   21.0220 C   0  0  0  0  0  2  0  0  0  0  0  0
  -31.2020  -14.5960   20.1050 C   0  0  0  0  0  0  0  0  0  0  0  0
  -30.7980  -12.4550   18.9530 C   0  0  0  0  0  2  0  0  0  0  0  0
  -29.8140  -12.6480   17.7810 C   0  0  0  0  0  2  0  0  0  0  0  0
  -28.3570  -12.5390   18.2610 C   0  0  0  0  0  2  0  0  0  0  0  0
  -28.0760  -13.4180   19.5060 C   0  0  0  0  0  3  0  0  0  0  0  0
  -29.1570  -13.1960   20.5900 C   0  0  0  0  0  2  0  0  0  0  0  0
  -30.4840  -13.4480   19.9910 N   0  0  0  0  0  0  0  0  0  0  0  0
  -32.1910  -14.8530   19.4130 O   0  0  0  0  0  0  0  0  0  0  0  0
  -30.7370  -15.4620   21.0110 N   0  0  0  0  0  0  0  0  0  0  0  0
  -29.9890  -15.1270   21.5970 H   0  0  0  0  0  0  0  0  0  0  0  0
  -25.7210  -14.0950   20.3080 C   0  0  0  0  0  0  0  0  0  0  0  0
  -24.6410  -13.3520   20.7070 C   0  0  0  0  0  0  0  0  0  0  0  0
  -25.0570  -11.9870   20.6360 C   0  0  0  0  0  0  0  0  0  0  0  0
  -26.7290  -13.1850   20.0280 N   0  0  0  0  0  0  0  0  0  0  0  0
  -26.3310  -11.9110   20.2760 N   0  0  0  0  0  0  0  0  0  0  0  0
  -24.2970  -10.7450   20.8330 C   0  0  0  0  0  0  0  0  0  0  0  0
  -24.6710   -9.7990   21.8120 C   0  0  0  0  0  3  0  0  0  0  0  0
  -23.9150   -8.6200   21.9950 C   0  0  0  0  0  3  0  0  0  0  0  0
  -22.7720   -8.3800   21.1960 C   0  0  0  0  0  0  0  0  0  0  0  0
  -22.4180   -9.3150   20.2070 C   0  0  0  0  0  3  0  0  0  0  0  0
  -23.1740  -10.4850   20.0220 C   0  0  0  0  0  3  0  0  0  0  0  0
  -21.9940   -7.2510   21.2820 O   0  0  0  0  0  0  0  0  0  0  0  0
  -21.7920   -6.6080   22.4770 C   0  0  0  0  0  0  0  0  0  0  0  0
  -21.1870   -7.2530   23.5790 C   0  0  0  0  0  3  0  0  0  0  0  0
  -20.9350   -6.5350   24.7640 C   0  0  0  0  0  3  0  0  0  0  0  0
  -21.2740   -5.1710   24.8490 C   0  0  0  0  0  0  0  0  0  0  0  0
  -21.8740   -4.5250   23.7530 C   0  0  0  0  0  3  0  0  0  0  0  0
  -22.1290   -5.2420   22.5700 C   0  0  0  0  0  0  0  0  0  0  0  0
  -22.6840   -4.6090   21.5090 F   0  0  0  0  0  0  0  0  0  0  0  0
  -21.0280   -4.4790   25.9850 F   0  0  0  0  0  0  0  0  0  0  0  0
  -23.2730  -13.8710   21.0460 C   0  0  0  0  0  0  0  0  0  0  0  0
  -22.5630  -13.1890   21.9370 N   0  0  0  0  0  0  0  0  0  0  0  0
  -22.8430  -14.9130   20.5540 O   0  0  0  0  0  0  0  0  0  0  0  0
  -22.9230  -12.3440   22.3570 H   0  0  0  0  0  0  0  0  0  0  0  0
  -21.6440  -13.5170   22.2050 H   0  0  0  0  0  0  0  0  0  0  0  0
  -25.9250  -15.4620   20.1450 N   0  0  0  0  0  0  0  0  0  0  0  0
  -25.1830  -16.1390   20.2810 H   0  0  0  0  0  0  0  0  0  0  0  0
  -26.7740  -15.8760   19.7810 H   0  0  0  0  0  0  0  0  0  0  0  0
  -28.5810  -23.2870   20.8990 C   0  0  0  0  0  2  0  0  0  0  0  0
  -30.0160  -25.1630   21.8380 C   0  0  0  0  0  1  0  0  0  0  0  0
  -29.4190  -24.5510   20.5630 C   0  0  0  0  0  3  0  0  0  0  0  0
  -28.4420  -25.5180   19.8570 C   0  0  0  0  0  2  0  0  0  0  0  0
  -28.6530  -26.9380   19.9620 O   0  0  0  0  0  0  0  0  0  0  0  0
  -24.5800  -31.8090   23.1860 C   0  0  0  0  0  0  0  0  0  0  0  0
  -27.4740  -27.6660   19.9150 C   0  0  0  0  0  0  0  0  0  0  0  0
  -23.4620  -30.4270   21.4690 C   0  0  0  0  0  3  0  0  0  0  0  0
  -25.0060  -29.0540   19.9790 C   0  0  0  0  0  0  0  0  0  0  0  0
  -25.9700  -30.9240   21.3180 C   0  0  0  0  0  2  0  0  0  0  0  0
  -26.1330  -29.5970   20.6090 C   0  0  0  0  0  0  0  0  0  0  0  0
  -27.3710  -28.9100   20.5780 C   0  0  0  0  0  3  0  0  0  0  0  0
  -26.3270  -27.1650   19.2460 C   0  0  0  0  0  3  0  0  0  0  0  0
  -25.0970  -27.8340   19.2950 C   0  0  0  0  0  3  0  0  0  0  0  0
  -23.7170  -29.8370   20.0590 C   0  0  0  0  0  2  0  0  0  0  0  0
  -24.6880  -31.0660   22.0490 N   0  0  0  0  0  0  0  0  0  0  0  0
  -23.4810  -31.9990   23.7260 O   0  0  0  0  0  0  0  0  0  0  0  0
  -22.8610  -29.3220   22.3690 C   0  0  0  0  0  0  0  0  0  0  0  0
  -21.5500  -29.0730   22.2160 N   0  0  0  0  0  0  0  0  0  0  0  0
  -23.5700  -28.6970   23.1610 O   0  0  0  0  0  0  0  0  0  0  0  0
  -21.0380  -29.6350   21.5510 H   0  0  0  0  0  0  0  0  0  0  0  0
  -18.2350  -27.6970   22.6340 C   0  0  0  0  0  0  0  0  0  0  0  0
  -20.7770  -28.0590   22.9320 C   0  0  0  0  0  3  0  0  0  0  0  0
  -20.9480  -26.6660   22.2820 C   0  0  0  0  0  2  0  0  0  0  0  0
  -19.8660  -26.3470   21.2470 C   0  0  0  0  0  2  0  0  0  0  0  0
  -18.4770  -26.3940   21.8910 C   0  0  0  0  0  2  0  0  0  0  0  0
  -19.3160  -28.4860   23.1090 C   0  0  0  0  0  0  0  0  0  0  0  0
  -19.0380  -29.7050   23.7640 C   0  0  0  0  0  3  0  0  0  0  0  0
  -17.7110  -30.1380   23.9470 C   0  0  0  0  0  3  0  0  0  0  0  0
  -16.6440  -29.3460   23.4890 C   0  0  0  0  0  3  0  0  0  0  0  0
  -16.9070  -28.1260   22.8390 C   0  0  0  0  0  3  0  0  0  0  0  0
  -25.8250  -32.4770   23.8460 C   0  0  0  0  0  3  0  0  0  0  0  0
  -25.4620  -33.8610   24.1760 N   0  0  0  0  0  0  0  0  0  0  0  0
  -25.7660  -34.9270   23.4240 C   0  0  0  0  0  0  0  0  0  0  0  0
  -26.4570  -34.8510   22.4020 O   0  0  0  0  0  0  0  0  0  0  0  0
  -24.8510  -33.9900   24.9690 H   0  0  0  0  0  0  0  0  0  0  0  0
  -23.9770  -36.6500   23.0440 C   0  0  0  0  0  1  0  0  0  0  0  0
  -25.2200  -36.2930   23.8750 C   0  0  0  0  0  3  0  0  0  0  0  0
  -27.2990  -37.2620   24.7490 C   0  0  0  0  0  1  0  0  0  0  0  0
  -26.2130  -37.3850   23.7800 N   0  0  0  0  0  0  0  0  0  0  0  0
  -25.7690  -38.2890   23.9160 H   0  0  0  0  0  0  0  0  0  0  0  0
  -26.3350  -31.7110   25.1280 C   0  0  1  0  0  0  0  0  0  0  0  0
  -25.2200  -31.4090   26.1560 C   0  0  0  0  0  1  0  0  0  0  0  0
  -26.9920  -30.3670   24.7350 C   0  0  0  0  0  1  0  0  0  0  0  0
  -27.4260  -32.5460   25.8380 C   0  0  0  0  0  1  0  0  0  0  0  0
  1  3  1  0
  2  4  2  0
  2  5  1  0
  4  6  1  0
  5  1  2  0
  6  3  2  0
  7  5  1  0
  7  8  1  0
  9 17  1  0
 10 15  1  0
 11 12  1  0
 11 10  1  0
 13 12  1  0
 13 22  1  0
 13 14  1  0
 15  9  1  0
 15 14  1  0
 16  9  2  0
 17  8  1  0
 17 18  1  0
 19 20  2  0
 20 39  1  0
 21 20  1  0
 21 24  1  0
 22 23  1  0
 22 19  1  0
 23 21  2  0
 24 25  1  0
 25 26  2  0
 27 30  1  0
 27 26  1  0
 28 27  2  0
 29 28  1  0
 29 24  2  0
 30 31  1  0
 31 36  2  0
 31 32  1  0
 32 33  2  0
 33 34  1  0
 34 38  1  0
 35 34  2  0
 36 35  1  0
 37 36  1  0
 39 40  1  0
 40 43  1  0
 40 42  1  0
 41 39  2  0
 44 45  1  0
 44 19  1  0
 46 44  1  0
 47  6  1  0
 49 47  1  0
 49 48  1  0
 50 51  1  0
 50 49  1  0
 52 63  2  0
 53 51  1  0
 53 58  1  0
 54 62  1  0
 54 64  1  0
 55 61  1  0
 55 57  1  0
 56 62  1  0
 57 56  1  0
 58 57  2  0
 59 60  1  0
 59 53  2  0
 60 55  2  0
 61 54  1  0
 62 52  1  0
 64 66  2  0
 65 64  1  0
 67 65  1  0
 68 77  2  0
 68 73  1  0
 69 65  1  0
 69 73  1  0
 70 69  1  0
 71 72  1  0
 71 70  1  0
 72 68  1  0
 73 74  2  0
 74 75  1  0
 76 75  2  0
 77 76  1  0
 78 52  1  0
 78 79  1  0
 78 88  1  0
 79 82  1  0
 80 84  1  0
 80 79  1  0
 81 80  2  0
 84 83  1  0
 86 84  1  0
 86 87  1  0
 86 85  1  0
 88 91  1  1
 88 89  1  0
 90 88  1  0
M  ISO  4   9 100  17 100  50 101  51 101
M  END
>  <TORSDO>  (51) 
F 21

>  <SCORE>  (51) 
-11.970

>  <name>  (51) 
50

>  <ligand_id>  (51) 
50

>  <original_smiles>  (51) 
[H]c1c([H])c([H])c2c(c1[H])C([H])([H])C([H])([H])C([H])([H])C2([H])N([H])C(=O)C1([H])N(C(=O)C([H])(N([H])C(=O)C([H])(N([H])C([H])([H])[H])C([H])([H])[H])C(C([H])([H])[H])(C([H])([H])[H])C([H])([H])[H])C([H])([H])c2c([H])c(OC([H])([H])C([H])(C([H])([H])[H])C([H])([H])c3c([H])c([H])c(C([H])([H])C([H])([H])N([H])C(=O)N4C([H])([H])C([H])([H])C([H])([H])C([H])(n5nc(-c6c([H])c([H])c(Oc7c([H])c([H])c(F)c([H])c7F)c([H])c6[H])c(C(=O)N([H])[H])c5N([H])[H])C4([H])[H])c([H])c3[H])c([H])c([H])c2C1([H])[H]

>  <smiles>  (51) 
[H]c1c([H])c([H])c2c(c1[H])C([H])([H])C([H])([H])C([H])([H])C2([H])N([H])C(=O)C1([H])N(C(=O)C([H])(N([H])C(=O)C([H])(N([H])C([H])([H])[H])C([H])([H])[H])C(C([H])([H])[H])(C([H])([H])[H])C([H])([H])[H])C([H])([H])c2c([H])c(OC([H])([H])C([H])(C([H])([H])[H])C([H])([H])c3c([H])c([H])c(C([H])([H])C([H])([H])N([H])C(=O)N4C([H])([H])C([H])([H])C([H])([H])C([H])(n5nc(-c6c([H])c([H])c(Oc7c([H])c([H])c(F)c([H])c7F)c([H])c6[H])c(C(=O)N([H])[H])c5N([H])[H])C4([H])[H])c([H])c3[H])c([H])c([H])c2C1([H])[H]

$$$$
51:0:0
     RDKit          3D

 93101  0  0  1  0  0  0  0  0999 V2000
  -29.0890  -20.4650   21.0990 C   0  0  0  0  0  2  0  0  0  0  0  0
  -29.5670  -19.2860   21.8730 N   0  0  0  0  0  4  0  0  0  0  0  0
  -30.0690  -19.6120   22.6850 H   0  0  0  0  0  0  0  0  0  0  0  0
  -28.7550  -18.7940   22.2100 H   0  0  0  0  0  0  0  0  0  0  0  0
  -31.4530  -15.0100   20.3900 C   0  0  0  0  0  0  0  0  0  0  0  0
  -31.1530  -12.8020   19.3750 C   0  0  0  0  0  2  0  0  0  0  0  0
  -30.2420  -12.9150   18.1340 C   0  0  0  0  0  2  0  0  0  0  0  0
  -28.7530  -12.8660   18.5280 C   0  0  0  0  0  2  0  0  0  0  0  0
  -28.3890  -13.7780   19.7300 C   0  0  0  0  0  3  0  0  0  0  0  0
  -29.4150  -13.6050   20.8800 C   0  0  0  0  0  2  0  0  0  0  0  0
  -30.7570  -13.8470   20.3270 N   0  0  0  0  0  0  0  0  0  0  0  0
  -32.6600  -15.0700   20.1310 O   0  0  0  0  0  0  0  0  0  0  0  0
  -30.3950  -18.4290   19.6340 C   0  0  0  0  0  2  0  0  0  0  0  0
  -30.1070  -16.8450   21.3670 C   0  0  0  0  0  2  0  0  0  0  0  0
  -30.4500  -18.3330   21.1460 C   0  0  0  0  0  3  0  0  0  0  0  0
  -30.9770  -17.1050   19.1570 C   0  0  0  0  0  3  0  0  0  0  0  0
  -30.6890  -16.1180   20.2250 N   0  0  0  0  0  0  0  0  0  0  0  0
  -25.9990  -14.4560   20.4050 C   0  0  0  0  0  0  0  0  0  0  0  0
  -24.8960  -13.7140   20.7400 C   0  0  0  0  0  0  0  0  0  0  0  0
  -25.3150  -12.3470   20.6950 C   0  0  0  0  0  0  0  0  0  0  0  0
  -27.0200  -13.5460   20.1850 N   0  0  0  0  0  0  0  0  0  0  0  0
  -26.6120  -12.2710   20.4230 N   0  0  0  0  0  0  0  0  0  0  0  0
  -24.5410  -11.1040   20.8340 C   0  0  0  0  0  0  0  0  0  0  0  0
  -24.8960  -10.1110   21.7760 C   0  0  0  0  0  3  0  0  0  0  0  0
  -24.1290   -8.9330   21.9000 C   0  0  0  0  0  3  0  0  0  0  0  0
  -22.9910   -8.7360   21.0830 C   0  0  0  0  0  0  0  0  0  0  0  0
  -22.6520   -9.7130   20.1310 C   0  0  0  0  0  3  0  0  0  0  0  0
  -23.4200  -10.8850   20.0050 C   0  0  0  0  0  3  0  0  0  0  0  0
  -22.1980   -7.6130   21.1230 O   0  0  0  0  0  0  0  0  0  0  0  0
  -22.0060   -6.9090   22.2850 C   0  0  0  0  0  0  0  0  0  0  0  0
  -21.4560   -7.5090   23.4400 C   0  0  0  0  0  3  0  0  0  0  0  0
  -21.2160   -6.7320   24.5910 C   0  0  0  0  0  3  0  0  0  0  0  0
  -21.5110   -5.3550   24.5870 C   0  0  0  0  0  0  0  0  0  0  0  0
  -22.0500   -4.7540   23.4360 C   0  0  0  0  0  3  0  0  0  0  0  0
  -22.2970   -5.5300   22.2900 C   0  0  0  0  0  0  0  0  0  0  0  0
  -22.7990   -4.9420   21.1780 F   0  0  0  0  0  0  0  0  0  0  0  0
  -21.2680   -4.6060   25.6880 F   0  0  0  0  0  0  0  0  0  0  0  0
  -23.5080  -14.2310   20.9910 C   0  0  0  0  0  0  0  0  0  0  0  0
  -22.7370  -13.5520   21.8320 N   0  0  0  0  0  0  0  0  0  0  0  0
  -23.1130  -15.2750   20.4720 O   0  0  0  0  0  0  0  0  0  0  0  0
  -23.0630  -12.7110   22.2830 H   0  0  0  0  0  0  0  0  0  0  0  0
  -21.8040  -13.8800   22.0410 H   0  0  0  0  0  0  0  0  0  0  0  0
  -26.2200  -15.8260   20.2530 N   0  0  0  0  0  0  0  0  0  0  0  0
  -25.4680  -16.5010   20.3350 H   0  0  0  0  0  0  0  0  0  0  0  0
  -27.0900  -16.2270   19.9300 H   0  0  0  0  0  0  0  0  0  0  0  0
  -30.5550  -17.8070   16.7060 C   0  0  0  0  0  1  0  0  0  0  0  0
  -30.4340  -16.6980   17.7680 C   0  0  0  0  0  2  0  0  0  0  0  0
  -28.6180  -21.6230   22.0110 C   0  0  0  0  0  2  0  0  0  0  0  0
  -28.0340  -22.8380   21.2570 C   0  0  0  0  0  2  0  0  0  0  0  0
  -29.0110  -24.0110   21.0430 C   0  0  0  0  0  2  0  0  0  0  0  0
  -28.3020  -25.3430   20.7090 C   0  0  0  0  0  2  0  0  0  0  0  0
  -28.6310  -25.9190   19.3210 C   0  0  0  0  0  2  0  0  0  0  0  0
  -28.5130  -27.3390   19.3680 O   0  0  0  0  0  0  0  0  0  0  0  0
  -24.5080  -31.8260   23.1580 C   0  0  0  0  0  0  0  0  0  0  0  0
  -27.2680  -27.9050   19.5220 C   0  0  0  0  0  0  0  0  0  0  0  0
  -23.3090  -30.5030   21.4460 C   0  0  0  0  0  3  0  0  0  0  0  0
  -24.7770  -29.2010   19.8240 C   0  0  0  0  0  0  0  0  0  0  0  0
  -25.7960  -31.0500   21.1720 C   0  0  0  0  0  2  0  0  0  0  0  0
  -25.9300  -29.7580   20.3950 C   0  0  0  0  0  0  0  0  0  0  0  0
  -27.1770  -29.1170   20.2340 C   0  0  0  0  0  3  0  0  0  0  0  0
  -26.0910  -27.3420   18.9710 C   0  0  0  0  0  3  0  0  0  0  0  0
  -24.8510  -27.9880   19.1220 C   0  0  0  0  0  3  0  0  0  0  0  0
  -23.4870  -29.9620   20.0040 C   0  0  0  0  0  2  0  0  0  0  0  0
  -24.5590  -31.1370   21.9830 N   0  0  0  0  0  0  0  0  0  0  0  0
  -23.4420  -31.9710   23.7720 O   0  0  0  0  0  0  0  0  0  0  0  0
  -22.7740  -29.3590   22.3350 C   0  0  0  0  0  0  0  0  0  0  0  0
  -21.4700  -29.0650   22.2120 N   0  0  0  0  0  0  0  0  0  0  0  0
  -23.5290  -28.7390   23.0910 O   0  0  0  0  0  0  0  0  0  0  0  0
  -20.9230  -29.6070   21.5560 H   0  0  0  0  0  0  0  0  0  0  0  0
  -18.2380  -27.4960   22.6410 C   0  0  0  0  0  0  0  0  0  0  0  0
  -20.7580  -28.0030   22.9250 C   0  0  0  0  0  3  0  0  0  0  0  0
  -21.0080  -26.6270   22.2610 C   0  0  0  0  0  2  0  0  0  0  0  0
  -19.9310  -26.2450   21.2390 C   0  0  0  0  0  2  0  0  0  0  0  0
  -18.5460  -26.2090   21.8910 C   0  0  0  0  0  2  0  0  0  0  0  0
  -19.2760  -28.3420   23.1130 C   0  0  0  0  0  0  0  0  0  0  0  0
  -18.9380  -29.5380   23.7800 C   0  0  0  0  0  3  0  0  0  0  0  0
  -17.5900  -29.8920   23.9840 C   0  0  0  0  0  3  0  0  0  0  0  0
  -16.5650  -29.0470   23.5230 C   0  0  0  0  0  3  0  0  0  0  0  0
  -16.8900  -27.8490   22.8580 C   0  0  0  0  0  3  0  0  0  0  0  0
  -25.7820  -32.4810   23.7750 C   0  0  0  0  0  3  0  0  0  0  0  0
  -26.3360  -31.7080   25.0360 C   0  0  1  0  0  0  0  0  0  0  0  0
  -25.2650  -31.4280   26.1140 C   0  0  0  0  0  1  0  0  0  0  0  0
  -26.9520  -30.3510   24.6200 C   0  0  0  0  0  1  0  0  0  0  0  0
  -27.4730  -32.5280   25.6930 C   0  0  0  0  0  1  0  0  0  0  0  0
  -25.4400  -33.8660   24.1220 N   0  0  0  0  0  0  0  0  0  0  0  0
  -25.7550  -34.9350   23.3810 C   0  0  0  0  0  0  0  0  0  0  0  0
  -26.4390  -34.8640   22.3550 O   0  0  0  0  0  0  0  0  0  0  0  0
  -24.8350  -33.9970   24.9180 H   0  0  0  0  0  0  0  0  0  0  0  0
  -23.9920  -36.6940   23.0260 C   0  0  0  0  0  1  0  0  0  0  0  0
  -25.2300  -36.3040   23.8510 C   0  0  0  0  0  3  0  0  0  0  0  0
  -27.3270  -37.2280   24.7340 C   0  0  0  0  0  1  0  0  0  0  0  0
  -26.2400  -37.3820   23.7710 N   0  0  0  0  0  0  0  0  0  0  0  0
  -25.8100  -38.2910   23.9230 H   0  0  0  0  0  0  0  0  0  0  0  0
  1  2  1  0
  1 48  1  0
  2  4  1  0
  2  3  1  0
  6 11  1  0
  7  8  1  0
  7  6  1  0
  9  8  1  0
  9 21  1  0
  9 10  1  0
 11  5  1  0
 11 10  1  0
 12  5  2  0
 13 15  1  0
 15 14  1  0
 15  2  1  0
 16 47  1  0
 16 13  1  0
 16 17  1  0
 17  5  1  0
 17 14  1  0
 18 19  2  0
 19 38  1  0
 20 19  1  0
 20 23  1  0
 21 18  1  0
 21 22  1  0
 22 20  2  0
 23 24  1  0
 24 25  2  0
 26 29  1  0
 26 25  1  0
 27 26  2  0
 28 27  1  0
 28 23  2  0
 29 30  1  0
 30 35  2  0
 30 31  1  0
 31 32  2  0
 33 32  1  0
 33 37  1  0
 34 33  2  0
 35 34  1  0
 36 35  1  0
 38 39  1  0
 39 42  1  0
 39 41  1  0
 40 38  2  0
 43 44  1  0
 43 18  1  0
 45 43  1  0
 46 47  1  0
 49 48  1  0
 50 49  1  0
 51 50  1  0
 52 53  1  0
 52 51  1  0
 53 55  1  0
 54 65  2  0
 55 60  1  0
 56 64  1  0
 56 66  1  0
 57 63  1  0
 57 59  1  0
 58 64  1  0
 59 58  1  0
 60 59  2  0
 61 62  1  0
 61 55  2  0
 62 57  2  0
 63 56  1  0
 64 54  1  0
 66 68  2  0
 67 66  1  0
 69 67  1  0
 70 79  2  0
 70 75  1  0
 71 67  1  0
 71 75  1  0
 72 71  1  0
 73 74  1  0
 73 72  1  0
 74 70  1  0
 75 76  2  0
 76 77  1  0
 78 77  2  0
 79 78  1  0
 80 54  1  0
 80 85  1  0
 80 81  1  0
 81 84  1  1
 81 82  1  0
 83 81  1  0
 85 88  1  0
 86 90  1  0
 86 85  1  0
 87 86  2  0
 90 89  1  0
 92 90  1  0
 92 93  1  0
 92 91  1  0
M  ISO  4   5 100  17 100  52 101  53 101
M  END
>  <TORSDO>  (52) 
F 23

>  <SCORE>  (52) 
-10.340

>  <name>  (52) 
51

>  <ligand_id>  (52) 
51

>  <original_smiles>  (52) 
[H]c1c([H])c([H])c2c(c1[H])C([H])([H])C([H])([H])C([H])([H])C2([H])N([H])C(=O)C1([H])N(C(=O)C([H])(N([H])C(=O)C([H])(N([H])C([H])([H])[H])C([H])([H])[H])C(C([H])([H])[H])(C([H])([H])[H])C([H])([H])[H])C([H])([H])c2c([H])c(OC([H])([H])C([H])([H])C([H])([H])C([H])([H])C([H])([H])C([H])([H])[N+]([H])([H])C3([H])C([H])([H])N(C(=O)N4C([H])([H])C([H])([H])C([H])([H])C([H])(n5nc(-c6c([H])c([H])c(Oc7c([H])c([H])c(F)c([H])c7F)c([H])c6[H])c(C(=O)N([H])[H])c5N([H])[H])C4([H])[H])C([H])(C([H])([H])C([H])([H])[H])C3([H])[H])c([H])c([H])c2C1([H])[H]

>  <smiles>  (52) 
[H]c1c([H])c([H])c2c(c1[H])C([H])([H])C([H])([H])C([H])([H])C2([H])N([H])C(=O)C1([H])N(C(=O)C([H])(N([H])C(=O)C([H])(N([H])C([H])([H])[H])C([H])([H])[H])C(C([H])([H])[H])(C([H])([H])[H])C([H])([H])[H])C([H])([H])c2c([H])c(OC([H])([H])C([H])([H])C([H])([H])C([H])([H])C([H])([H])C([H])([H])[N+]([H])([H])C3([H])C([H])([H])N(C(=O)N4C([H])([H])C([H])([H])C([H])([H])C([H])(n5nc(-c6c([H])c([H])c(Oc7c([H])c([H])c(F)c([H])c7F)c([H])c6[H])c(C(=O)N([H])[H])c5N([H])[H])C4([H])[H])C([H])(C([H])([H])C([H])([H])[H])C3([H])[H])c([H])c([H])c2C1([H])[H]

$$$$
52:0:0
     RDKit          3D

 99107  0  0  1  0  0  0  0  0999 V2000
  -32.0150  -19.2010   18.4440 N   0  0  0  0  0  4  0  0  0  0  0  0
  -32.3390  -19.0800   17.5000 H   0  0  0  0  0  0  0  0  0  0  0  0
  -31.0100  -19.1740   18.4170 H   0  0  0  0  0  0  0  0  0  0  0  0
  -33.3720  -15.9590   18.0030 C   0  0  0  0  0  2  0  0  0  0  0  0
  -33.6340  -17.1850   18.5090 C   0  0  0  0  0  3  0  0  0  0  0  0
  -32.2050  -15.1830   18.3920 C   0  0  0  0  0  0  0  0  0  0  0  0
  -31.6220  -15.5050   19.7520 C   0  0  0  0  0  2  0  0  0  0  0  0
  -32.4830  -17.9930   19.2580 C   0  0  0  0  0  3  0  0  0  0  0  0
  -31.3510  -17.0180   19.9090 C   0  0  0  0  0  3  0  0  0  0  0  0
  -31.7380  -14.2640   17.7170 O   0  0  0  0  0  0  0  0  0  0  0  0
  -36.1860  -17.2990   18.1620 C   0  0  0  0  0  0  0  0  0  0  0  0
  -37.9090  -17.2440   16.3610 C   0  0  0  0  0  2  0  0  0  0  0  0
  -37.5670  -18.2770   15.2630 C   0  0  0  0  0  2  0  0  0  0  0  0
  -36.5160  -17.7400   14.2610 C   0  0  0  0  0  2  0  0  0  0  0  0
  -35.3340  -17.0110   14.9620 C   0  0  0  0  0  3  0  0  0  0  0  0
  -35.9120  -15.9990   15.9820 C   0  0  0  0  0  2  0  0  0  0  0  0
  -36.6330  -16.7980   16.9650 N   0  0  0  0  0  0  0  0  0  0  0  0
  -37.0100  -17.7440   18.9670 O   0  0  0  0  0  0  0  0  0  0  0  0
  -34.9030  -17.8190   18.2510 N   0  0  0  0  0  0  0  0  0  0  0  0
  -35.0000  -18.6580   18.7990 H   0  0  0  0  0  0  0  0  0  0  0  0
  -33.1100  -16.7700   13.6850 C   0  0  0  0  0  0  0  0  0  0  0  0
  -32.7280  -15.9260   12.6730 C   0  0  0  0  0  0  0  0  0  0  0  0
  -33.8560  -15.0910   12.4080 C   0  0  0  0  0  0  0  0  0  0  0  0
  -34.4130  -16.4030   14.0050 N   0  0  0  0  0  0  0  0  0  0  0  0
  -34.8420  -15.3580   13.2560 N   0  0  0  0  0  0  0  0  0  0  0  0
  -34.0770  -14.0880   11.3590 C   0  0  0  0  0  0  0  0  0  0  0  0
  -34.0010  -12.7020   11.6270 C   0  0  0  0  0  3  0  0  0  0  0  0
  -34.2080  -11.7610   10.5940 C   0  0  0  0  0  3  0  0  0  0  0  0
  -34.4910  -12.2000    9.2810 C   0  0  0  0  0  0  0  0  0  0  0  0
  -34.5890  -13.5780    9.0230 C   0  0  0  0  0  3  0  0  0  0  0  0
  -34.3880  -14.5140   10.0520 C   0  0  0  0  0  3  0  0  0  0  0  0
  -34.7330  -11.3550    8.2230 O   0  0  0  0  0  0  0  0  0  0  0  0
  -33.8570  -10.3580    7.8860 C   0  0  0  0  0  0  0  0  0  0  0  0
  -32.5650  -10.6360    7.3850 C   0  0  0  0  0  3  0  0  0  0  0  0
  -31.7210   -9.5800    6.9900 C   0  0  0  0  0  3  0  0  0  0  0  0
  -32.1670   -8.2480    7.0840 C   0  0  0  0  0  0  0  0  0  0  0  0
  -33.4530   -7.9690    7.5770 C   0  0  0  0  0  3  0  0  0  0  0  0
  -34.2970   -9.0210    7.9730 C   0  0  0  0  0  0  0  0  0  0  0  0
  -35.5430   -8.7470    8.4300 F   0  0  0  0  0  0  0  0  0  0  0  0
  -31.3590   -7.2360    6.6920 F   0  0  0  0  0  0  0  0  0  0  0  0
  -31.4200  -15.9580   11.9350 C   0  0  0  0  0  0  0  0  0  0  0  0
  -30.9770  -14.8190   11.4110 N   0  0  0  0  0  0  0  0  0  0  0  0
  -30.7510  -16.9850   11.8580 O   0  0  0  0  0  0  0  0  0  0  0  0
  -31.4960  -13.9580   11.5050 H   0  0  0  0  0  0  0  0  0  0  0  0
  -30.0840  -14.8020   10.9380 H   0  0  0  0  0  0  0  0  0  0  0  0
  -32.4800  -17.8190   14.3480 N   0  0  0  0  0  0  0  0  0  0  0  0
  -31.6000  -18.2180   14.0370 H   0  0  0  0  0  0  0  0  0  0  0  0
  -32.9600  -18.3980   15.0250 H   0  0  0  0  0  0  0  0  0  0  0  0
  -29.8310  -17.1850   19.6570 C   0  0  0  0  0  0  0  0  0  0  0  0
  -28.9480  -17.3180   20.8830 C   0  0  0  0  0  1  0  0  0  0  0  0
  -29.2820  -17.1690   18.5140 N   0  0  0  0  0  0  0  0  0  0  0  0
  -29.9120  -17.0290   17.7370 H   0  0  0  0  0  0  0  0  0  0  0  0
  -32.3830  -20.5930   18.8780 C   0  0  0  0  0  2  0  0  0  0  0  0
  -31.4170  -21.7990   18.6680 C   0  0  0  0  0  2  0  0  0  0  0  0
  -32.0940  -23.0870   19.2730 C   0  0  0  0  0  2  0  0  0  0  0  0
  -30.7510  -24.6800   20.7120 C   0  0  0  0  0  1  0  0  0  0  0  0
  -31.3000  -24.4240   19.2990 C   0  0  0  0  0  3  0  0  0  0  0  0
  -32.2040  -25.5820   18.7620 C   0  0  0  0  0  2  0  0  0  0  0  0
  -32.2140  -26.8380   19.4830 O   0  0  0  0  0  0  0  0  0  0  0  0
  -34.3660  -33.3260   17.3080 C   0  0  0  0  0  0  0  0  0  0  0  0
  -33.2560  -27.6870   19.1620 C   0  0  0  0  0  0  0  0  0  0  0  0
  -36.0630  -31.5330   17.2580 C   0  0  0  0  0  3  0  0  0  0  0  0
  -35.4250  -29.3700   18.4540 C   0  0  0  0  0  0  0  0  0  0  0  0
  -34.1200  -31.4470   18.9320 C   0  0  0  0  0  2  0  0  0  0  0  0
  -34.2150  -29.9330   18.8840 C   0  0  0  0  0  0  0  0  0  0  0  0
  -33.1330  -29.0970   19.2530 C   0  0  0  0  0  3  0  0  0  0  0  0
  -34.4870  -27.1480   18.7340 C   0  0  0  0  0  3  0  0  0  0  0  0
  -35.5630  -27.9740   18.3720 C   0  0  0  0  0  3  0  0  0  0  0  0
  -36.5460  -30.3180   18.0940 C   0  0  0  0  0  2  0  0  0  0  0  0
  -34.8070  -32.1400   17.8090 N   0  0  0  0  0  0  0  0  0  0  0  0
  -35.0000  -33.9350   16.4350 O   0  0  0  0  0  0  0  0  0  0  0  0
  -35.9320  -31.1020   15.7770 C   0  0  0  0  0  0  0  0  0  0  0  0
  -37.0430  -31.1920   15.0280 N   0  0  0  0  0  0  0  0  0  0  0  0
  -34.8610  -30.6630   15.3390 O   0  0  0  0  0  0  0  0  0  0  0  0
  -37.8800  -31.5640   15.4600 H   0  0  0  0  0  0  0  0  0  0  0  0
  -39.2890  -31.1740   12.1990 C   0  0  0  0  0  0  0  0  0  0  0  0
  -37.1710  -30.7880   13.6300 C   0  0  0  0  0  3  0  0  0  0  0  0
  -37.4780  -29.2810   13.5140 C   0  0  0  0  0  2  0  0  0  0  0  0
  -38.9780  -28.9870   13.4360 C   0  0  0  0  0  2  0  0  0  0  0  0
  -39.6200  -29.6910   12.2370 C   0  0  0  0  0  2  0  0  0  0  0  0
  -38.1480  -31.6930   12.8670 C   0  0  0  0  0  0  0  0  0  0  0  0
  -37.9120  -33.0880   12.8340 C   0  0  0  0  0  3  0  0  0  0  0  0
  -38.7910  -33.9500   12.1510 C   0  0  0  0  0  3  0  0  0  0  0  0
  -39.9060  -33.4210   11.4800 C   0  0  0  0  0  3  0  0  0  0  0  0
  -40.1500  -32.0400   11.4960 C   0  0  0  0  0  3  0  0  0  0  0  0
  -33.0570  -33.9950   17.8290 C   0  0  0  0  0  3  0  0  0  0  0  0
  -33.4150  -35.3160   18.3630 N   0  0  0  0  0  0  0  0  0  0  0  0
  -33.7070  -35.5650   19.6460 C   0  0  0  0  0  0  0  0  0  0  0  0
  -33.6300  -34.7030   20.5290 O   0  0  0  0  0  0  0  0  0  0  0  0
  -33.5500  -36.0550   17.6870 H   0  0  0  0  0  0  0  0  0  0  0  0
  -35.6860  -37.0500   20.0920 C   0  0  0  0  0  1  0  0  0  0  0  0
  -34.1520  -36.9930   20.0090 C   0  0  0  0  0  3  0  0  0  0  0  0
  -32.1520  -37.8240   21.1650 C   0  0  0  0  0  1  0  0  0  0  0  0
  -33.5700  -37.4880   21.2730 N   0  0  0  0  0  0  0  0  0  0  0  0
  -34.0670  -38.3090   21.6040 H   0  0  0  0  0  0  0  0  0  0  0  0
  -31.9400  -34.1240   16.7190 C   0  0  1  0  0  0  0  0  0  0  0  0
  -32.1030  -35.3670   15.8140 C   0  0  0  0  0  1  0  0  0  0  0  0
  -31.9270  -32.8760   15.8050 C   0  0  0  0  0  1  0  0  0  0  0  0
  -30.5460  -34.2000   17.3860 C   0  0  0  0  0  1  0  0  0  0  0  0
  1 53  1  0
  2  1  1  0
  3  1  1  0
  4  6  1  0
  4  5  1  0
  5 19  1  0
  5  8  1  0
  6  7  1  0
  7  9  1  0
  8  1  1  0
  8  9  1  0
  9 49  1  0
 10  6  2  0
 11 19  1  0
 11 18  2  0
 12 17  1  0
 13 12  1  0
 14 15  1  0
 14 13  1  0
 15 24  1  0
 15 16  1  0
 16 17  1  0
 17 11  1  0
 19 20  1  0
 21 24  1  0
 21 46  1  0
 22 21  2  0
 23 22  1  0
 23 25  2  0
 25 24  1  0
 26 27  1  0
 26 23  1  0
 28 27  2  0
 29 28  1  0
 30 29  2  0
 30 31  1  0
 31 26  2  0
 32 29  1  0
 33 38  1  0
 33 32  1  0
 34 33  2  0
 35 36  2  0
 35 34  1  0
 36 37  1  0
 37 38  2  0
 38 39  1  0
 40 36  1  0
 41 22  1  0
 42 44  1  0
 42 41  1  0
 43 41  2  0
 45 42  1  0
 46 48  1  0
 47 46  1  0
 49 50  1  0
 51 49  2  0
 52 51  1  0
 54 53  1  0
 54 55  1  0
 55 57  1  0
 57 56  1  0
 58 57  1  0
 58 59  1  0
 60 70  1  0
 61 66  1  0
 61 59  1  0
 62 72  1  0
 62 70  1  0
 62 69  1  0
 63 65  1  0
 65 64  1  0
 65 66  2  0
 67 61  2  0
 68 63  2  0
 68 67  1  0
 69 63  1  0
 70 64  1  0
 71 60  2  0
 73 75  1  0
 73 72  1  0
 74 72  2  0
 76 80  1  0
 76 81  1  0
 77 73  1  0
 78 77  1  0
 79 78  1  0
 80 79  1  0
 81 77  1  0
 82 81  2  0
 83 82  1  0
 84 85  1  0
 84 83  2  0
 85 76  2  0
 86 60  1  0
 86 87  1  0
 87 88  1  0
 88 92  1  0
 88 89  2  0
 90 87  1  0
 92 91  1  0
 92 94  1  0
 93 94  1  0
 94 95  1  0
 96 99  1  1
 96 86  1  0
 97 96  1  0
 98 96  1  0
M  ISO  4  11 100  19 100  58 101  59 101
M  END
>  <TORSDO>  (53) 
F 23

>  <SCORE>  (53) 
-4.198

>  <name>  (53) 
52

>  <ligand_id>  (53) 
52

>  <original_smiles>  (53) 
[H]N=C(C([H])([H])[H])C1([H])C([H])([H])C(=O)C([H])=C(N([H])C(=O)N2C([H])([H])C([H])([H])C([H])([H])C([H])(n3nc(-c4c([H])c([H])c(Oc5c([H])c([H])c(F)c([H])c5F)c([H])c4[H])c(C(=O)N([H])[H])c3N([H])[H])C2([H])[H])C1([H])[N+]([H])([H])C([H])([H])C([H])([H])C([H])([H])C([H])(C([H])([H])[H])C([H])([H])Oc1c([H])c([H])c2c(c1[H])C([H])([H])N(C(=O)C([H])(N([H])C(=O)C([H])(N([H])C([H])([H])[H])C([H])([H])[H])C(C([H])([H])[H])(C([H])([H])[H])C([H])([H])[H])C([H])(C(=O)N([H])C1([H])c3c([H])c([H])c([H])c([H])c3C([H])([H])C([H])([H])C1([H])[H])C2([H])[H]

>  <smiles>  (53) 
[H]N=C(C([H])([H])[H])C1([H])C([H])([H])C(=O)C([H])=C(N([H])C(=O)N2C([H])([H])C([H])([H])C([H])([H])C([H])(n3nc(-c4c([H])c([H])c(Oc5c([H])c([H])c(F)c([H])c5F)c([H])c4[H])c(C(=O)N([H])[H])c3N([H])[H])C2([H])[H])C1([H])[N+]([H])([H])C([H])([H])C([H])([H])C([H])([H])C([H])(C([H])([H])[H])C([H])([H])Oc1c([H])c([H])c2c(c1[H])C([H])([H])N(C(=O)C([H])(N([H])C(=O)C([H])(N([H])C([H])([H])[H])C([H])([H])[H])C(C([H])([H])[H])(C([H])([H])[H])C([H])([H])[H])C([H])(C(=O)N([H])C1([H])c3c([H])c([H])c([H])c([H])c3C([H])([H])C([H])([H])C1([H])[H])C2([H])[H]

$$$$
53:0:0
     RDKit          3D

 94102  0  0  1  0  0  0  0  0999 V2000
  -28.2970  -20.3040   17.0140 C   0  0  0  0  0  2  0  0  0  0  0  0
  -29.6140  -19.7160   16.5480 C   0  0  0  0  0  2  0  0  0  0  0  0
  -28.6190  -21.2380   18.1690 C   0  0  0  0  0  2  0  0  0  0  0  0
  -30.1750  -18.7920   17.6350 C   0  0  0  0  0  3  0  0  0  0  0  0
  -30.0320  -19.3040   19.1360 C   0  0  0  0  0  3  0  0  0  0  0  0
  -29.1880  -20.5560   19.3670 N   0  0  1  0  0  4  0  0  0  0  0  0
  -28.3840  -20.2110   19.8690 H   0  0  0  0  0  0  0  0  0  0  0  0
  -31.6450  -17.2950   16.1030 C   0  0  0  0  0  1  0  0  0  0  0  0
  -31.6100  -18.3570   17.2220 C   0  0  0  0  0  2  0  0  0  0  0  0
  -29.5000  -18.1210   20.0400 C   0  0  0  0  0  2  0  0  0  0  0  0
  -30.5100  -16.9530   20.2780 C   0  0  0  0  0  2  0  0  0  0  0  0
  -30.7030  -14.4830   20.3570 C   0  0  0  0  0  0  0  0  0  0  0  0
  -30.3610  -12.3280   19.2370 C   0  0  0  0  0  2  0  0  0  0  0  0
  -29.4220  -12.5930   18.0440 C   0  0  0  0  0  2  0  0  0  0  0  0
  -27.9470  -12.4710   18.4800 C   0  0  0  0  0  2  0  0  0  0  0  0
  -27.6310  -13.2620   19.7750 C   0  0  0  0  0  3  0  0  0  0  0  0
  -28.7040  -13.0390   20.8650 C   0  0  0  0  0  2  0  0  0  0  0  0
  -30.0150  -13.3180   20.2690 N   0  0  0  0  0  0  0  0  0  0  0  0
  -31.8800  -14.5850   20.0000 O   0  0  0  0  0  0  0  0  0  0  0  0
  -29.9750  -15.6030   20.5770 N   0  0  0  0  0  0  0  0  0  0  0  0
  -28.9980  -15.4920   20.8020 H   0  0  0  0  0  0  0  0  0  0  0  0
  -25.2400  -13.8520   20.5080 C   0  0  0  0  0  0  0  0  0  0  0  0
  -24.1810  -13.0720   20.8830 C   0  0  0  0  0  0  0  0  0  0  0  0
  -24.6470  -11.7240   20.8480 C   0  0  0  0  0  0  0  0  0  0  0  0
  -26.2860  -12.9760   20.2660 N   0  0  0  0  0  0  0  0  0  0  0  0
  -25.9360  -11.6910   20.5280 N   0  0  0  0  0  0  0  0  0  0  0  0
  -23.9250  -10.4590   21.0410 C   0  0  0  0  0  0  0  0  0  0  0  0
  -24.3650   -9.4900   21.9690 C   0  0  0  0  0  3  0  0  0  0  0  0
  -23.6440   -8.2920   22.1510 C   0  0  0  0  0  3  0  0  0  0  0  0
  -22.4620   -8.0550   21.4070 C   0  0  0  0  0  0  0  0  0  0  0  0
  -22.0420   -9.0120   20.4660 C   0  0  0  0  0  3  0  0  0  0  0  0
  -22.7660  -10.2010   20.2820 C   0  0  0  0  0  3  0  0  0  0  0  0
  -21.7130   -6.9080   21.4950 O   0  0  0  0  0  0  0  0  0  0  0  0
  -21.6740   -6.1590   22.6430 C   0  0  0  0  0  0  0  0  0  0  0  0
  -21.2570   -6.7040   23.8770 C   0  0  0  0  0  3  0  0  0  0  0  0
  -21.1720   -5.8810   25.0160 C   0  0  0  0  0  3  0  0  0  0  0  0
  -21.4880   -4.5120   24.9240 C   0  0  0  0  0  0  0  0  0  0  0  0
  -21.8980   -3.9670   23.6950 C   0  0  0  0  0  3  0  0  0  0  0  0
  -21.9880   -4.7870   22.5560 C   0  0  0  0  0  0  0  0  0  0  0  0
  -22.3630   -4.2520   21.3700 F   0  0  0  0  0  0  0  0  0  0  0  0
  -21.3980   -3.7190   26.0180 F   0  0  0  0  0  0  0  0  0  0  0  0
  -22.7840  -13.5450   21.1670 C   0  0  0  0  0  0  0  0  0  0  0  0
  -22.0640  -12.8440   22.0380 N   0  0  0  0  0  0  0  0  0  0  0  0
  -22.3410  -14.5700   20.6530 O   0  0  0  0  0  0  0  0  0  0  0  0
  -22.4350  -12.0110   22.4710 H   0  0  0  0  0  0  0  0  0  0  0  0
  -21.1260  -13.1440   22.2660 H   0  0  0  0  0  0  0  0  0  0  0  0
  -25.3960  -15.2230   20.3320 N   0  0  0  0  0  0  0  0  0  0  0  0
  -24.6170  -15.8630   20.4390 H   0  0  0  0  0  0  0  0  0  0  0  0
  -26.2310  -15.6750   19.9860 H   0  0  0  0  0  0  0  0  0  0  0  0
  -29.8300  -21.5780   20.2700 C   0  0  0  0  0  2  0  0  0  0  0  0
  -28.8830  -22.7360   20.7600 C   0  0  0  0  0  2  0  0  0  0  0  0
  -29.3020  -24.2180   20.4590 C   0  0  0  0  0  2  0  0  0  0  0  0
  -28.0760  -25.1630   20.3200 C   0  0  0  0  0  2  0  0  0  0  0  0
  -28.3200  -26.5920   20.2260 O   0  0  0  0  0  0  0  0  0  0  0  0
  -24.5600  -31.8850   23.2520 C   0  0  0  0  0  0  0  0  0  0  0  0
  -27.1770  -27.3860   20.1880 C   0  0  0  0  0  0  0  0  0  0  0  0
  -23.3520  -30.4880   21.6140 C   0  0  0  0  0  3  0  0  0  0  0  0
  -24.7990  -28.9480   20.1920 C   0  0  0  0  0  0  0  0  0  0  0  0
  -25.8850  -30.8280   21.4160 C   0  0  0  0  0  2  0  0  0  0  0  0
  -25.9660  -29.4520   20.7790 C   0  0  0  0  0  0  0  0  0  0  0  0
  -27.1600  -28.6830   20.7690 C   0  0  0  0  0  3  0  0  0  0  0  0
  -25.9830  -26.9180   19.5850 C   0  0  0  0  0  3  0  0  0  0  0  0
  -24.8070  -27.6830   19.5870 C   0  0  0  0  0  3  0  0  0  0  0  0
  -23.5600  -29.8140   20.2340 C   0  0  0  0  0  2  0  0  0  0  0  0
  -24.6190  -31.0820   22.1520 N   0  0  0  0  0  0  0  0  0  0  0  0
  -23.4780  -32.1620   23.7880 O   0  0  0  0  0  0  0  0  0  0  0  0
  -22.6940  -29.4690   22.5740 C   0  0  0  0  0  0  0  0  0  0  0  0
  -21.3690  -29.2860   22.4410 N   0  0  0  0  0  0  0  0  0  0  0  0
  -23.3720  -28.8440   23.3920 O   0  0  0  0  0  0  0  0  0  0  0  0
  -20.8840  -29.8380   21.7490 H   0  0  0  0  0  0  0  0  0  0  0  0
  -17.9910  -28.0900   22.9240 C   0  0  0  0  0  0  0  0  0  0  0  0
  -20.5480  -28.3530   23.2140 C   0  0  0  0  0  3  0  0  0  0  0  0
  -20.6580  -26.9180   22.6490 C   0  0  0  0  0  2  0  0  0  0  0  0
  -19.5620  -26.5860   21.6310 C   0  0  0  0  0  2  0  0  0  0  0  0
  -18.1740  -26.7360   22.2610 C   0  0  0  0  0  2  0  0  0  0  0  0
  -19.1060  -28.8560   23.3580 C   0  0  0  0  0  0  0  0  0  0  0  0
  -18.8790  -30.1230   23.9380 C   0  0  0  0  0  3  0  0  0  0  0  0
  -17.5720  -30.6240   24.0880 C   0  0  0  0  0  3  0  0  0  0  0  0
  -16.4730  -29.8540   23.6700 C   0  0  0  0  0  3  0  0  0  0  0  0
  -16.6840  -28.5890   23.0930 C   0  0  0  0  0  3  0  0  0  0  0  0
  -25.8450  -32.5150   23.8710 C   0  0  0  0  0  3  0  0  0  0  0  0
  -25.5410  -33.9160   24.1950 N   0  0  0  0  0  0  0  0  0  0  0  0
  -25.8860  -34.9610   23.4310 C   0  0  0  0  0  0  0  0  0  0  0  0
  -26.5650  -34.8480   22.4060 O   0  0  0  0  0  0  0  0  0  0  0  0
  -24.9410  -34.0790   24.9900 H   0  0  0  0  0  0  0  0  0  0  0  0
  -24.1810  -36.7680   23.0380 C   0  0  0  0  0  1  0  0  0  0  0  0
  -25.4010  -36.3550   23.8760 C   0  0  0  0  0  3  0  0  0  0  0  0
  -27.5280  -37.2210   24.7460 C   0  0  0  0  0  1  0  0  0  0  0  0
  -26.4460  -37.3990   23.7810 N   0  0  0  0  0  0  0  0  0  0  0  0
  -26.0450  -38.3220   23.9220 H   0  0  0  0  0  0  0  0  0  0  0  0
  -26.3550  -31.7470   25.1510 C   0  0  1  0  0  0  0  0  0  0  0  0
  -25.2590  -31.5150   26.2170 C   0  0  0  0  0  1  0  0  0  0  0  0
  -26.9360  -30.3680   24.7620 C   0  0  0  0  0  1  0  0  0  0  0  0
  -27.5080  -32.5400   25.8120 C   0  0  0  0  0  1  0  0  0  0  0  0
  1  3  1  0
  2  1  1  0
  2  4  1  0
  3  6  1  0
  4  9  1  0
  4  5  1  0
  5  6  1  0
  5 10  1  0
  6  7  1  1
  6 50  1  0
  8  9  1  0
 10 11  1  0
 11 20  1  0
 12 20  1  0
 13 18  1  0
 14 15  1  0
 14 13  1  0
 16 15  1  0
 16 25  1  0
 16 17  1  0
 18 12  1  0
 18 17  1  0
 19 12  2  0
 20 21  1  0
 22 23  2  0
 23 42  1  0
 24 23  1  0
 24 27  1  0
 25 22  1  0
 25 26  1  0
 26 24  2  0
 27 28  1  0
 28 29  2  0
 30 33  1  0
 30 29  1  0
 31 30  2  0
 32 31  1  0
 32 27  2  0
 33 34  1  0
 34 35  1  0
 35 36  2  0
 37 36  1  0
 37 41  1  0
 38 37  2  0
 39 34  2  0
 39 38  1  0
 40 39  1  0
 42 43  1  0
 43 46  1  0
 43 45  1  0
 44 42  2  0
 47 48  1  0
 47 22  1  0
 49 47  1  0
 50 51  1  0
 52 51  1  0
 53 52  1  0
 54 53  1  0
 55 66  2  0
 56 54  1  0
 56 61  1  0
 57 65  1  0
 57 67  1  0
 58 64  1  0
 58 60  1  0
 59 65  1  0
 60 59  1  0
 61 60  2  0
 62 63  1  0
 62 56  2  0
 63 58  2  0
 64 57  1  0
 65 55  1  0
 67 69  2  0
 68 67  1  0
 70 68  1  0
 71 80  2  0
 71 76  1  0
 72 68  1  0
 72 76  1  0
 73 72  1  0
 74 75  1  0
 74 73  1  0
 75 71  1  0
 76 77  2  0
 77 78  1  0
 79 78  2  0
 80 79  1  0
 81 55  1  0
 81 82  1  0
 81 91  1  0
 82 85  1  0
 83 87  1  0
 83 82  1  0
 84 83  2  0
 87 86  1  0
 89 87  1  0
 89 90  1  0
 89 88  1  0
 91 94  1  1
 91 92  1  0
 93 91  1  0
M  ISO  4  12 100  20 100  53 101  54 101
M  END
>  <TORSDO>  (54) 
F 23

>  <SCORE>  (54) 
-12.867

>  <name>  (54) 
53

>  <ligand_id>  (54) 
53

>  <original_smiles>  (54) 
[H]c1c([H])c([H])c2c(c1[H])C([H])([H])C([H])([H])C([H])([H])C2([H])N([H])C(=O)C1([H])N(C(=O)C([H])(N([H])C(=O)C([H])(N([H])C([H])([H])[H])C([H])([H])[H])C(C([H])([H])[H])(C([H])([H])[H])C([H])([H])[H])C([H])([H])c2c([H])c(OC([H])([H])C([H])([H])C([H])([H])C([H])([H])[N+]3([H])C([H])([H])C([H])([H])C([H])([H])C([H])(C([H])([H])C([H])([H])[H])C3([H])C([H])([H])C([H])([H])N([H])C(=O)N3C([H])([H])C([H])([H])C([H])([H])C([H])(n4nc(-c5c([H])c([H])c(Oc6c([H])c([H])c(F)c([H])c6F)c([H])c5[H])c(C(=O)N([H])[H])c4N([H])[H])C3([H])[H])c([H])c([H])c2C1([H])[H]

>  <smiles>  (54) 
[H]c1c([H])c([H])c2c(c1[H])C([H])([H])C([H])([H])C([H])([H])C2([H])N([H])C(=O)C1([H])N(C(=O)C([H])(N([H])C(=O)C([H])(N([H])C([H])([H])[H])C([H])([H])[H])C(C([H])([H])[H])(C([H])([H])[H])C([H])([H])[H])C([H])([H])c2c([H])c(OC([H])([H])C([H])([H])C([H])([H])C([H])([H])[N+]3([H])C([H])([H])C([H])([H])C([H])([H])C([H])(C([H])([H])C([H])([H])[H])C3([H])C([H])([H])C([H])([H])N([H])C(=O)N3C([H])([H])C([H])([H])C([H])([H])C([H])(n4nc(-c5c([H])c([H])c(Oc6c([H])c([H])c(F)c([H])c6F)c([H])c5[H])c(C(=O)N([H])[H])c4N([H])[H])C3([H])[H])c([H])c([H])c2C1([H])[H]

$$$$
54:0:0
     RDKit          3D

 99108  0  0  1  0  0  0  0  0999 V2000
  -31.8200  -20.3940   19.8660 C   0  0  0  0  0  0  0  0  0  0  0  0
  -31.5940  -21.9000   19.9570 C   0  0  0  0  0  2  0  0  0  0  0  0
  -29.6190  -20.6830   20.7540 C   0  0  0  0  0  2  0  0  0  0  0  0
  -30.5220  -19.6210   20.0890 C   0  0  0  0  0  3  0  0  0  0  0  0
  -30.0800  -22.0590   20.2010 C   0  0  0  0  0  3  0  0  0  0  0  0
  -32.9090  -19.8870   19.5820 O   0  0  0  0  0  0  0  0  0  0  0  0
  -30.9990  -14.7280   20.2430 C   0  0  0  0  0  0  0  0  0  0  0  0
  -30.6410  -12.6330   18.9800 C   0  0  0  0  0  2  0  0  0  0  0  0
  -29.6470  -12.8990   17.8290 C   0  0  0  0  0  2  0  0  0  0  0  0
  -28.1930  -12.7290   18.3150 C   0  0  0  0  0  2  0  0  0  0  0  0
  -27.9120  -13.4780   19.6440 C   0  0  0  0  0  3  0  0  0  0  0  0
  -29.0180  -13.2060   20.6850 C   0  0  0  0  0  2  0  0  0  0  0  0
  -30.3140  -13.5590   20.0760 N   0  0  0  0  0  0  0  0  0  0  0  0
  -32.0810  -14.9430   19.6880 O   0  0  0  0  0  0  0  0  0  0  0  0
  -30.6670  -18.2810   20.8500 C   0  0  0  0  0  0  0  0  0  0  0  0
  -31.3440  -16.9300   22.6840 C   0  0  0  0  0  2  0  0  0  0  0  0
  -30.2890  -15.8900   22.2610 C   0  0  0  0  0  2  0  0  0  0  0  0
  -30.0910  -17.0520   20.1000 C   0  0  0  0  0  3  0  0  0  0  0  0
  -31.1690  -18.2200   22.0260 N   0  0  0  0  0  0  0  0  0  0  0  0
  -30.3010  -15.7510   20.8020 N   0  0  0  0  0  0  0  0  0  0  0  0
  -25.5430  -14.0560   20.4690 C   0  0  0  0  0  0  0  0  0  0  0  0
  -24.4860  -13.2670   20.8310 C   0  0  0  0  0  0  0  0  0  0  0  0
  -24.9400  -11.9190   20.7050 C   0  0  0  0  0  0  0  0  0  0  0  0
  -26.5790  -13.1860   20.1590 N   0  0  0  0  0  0  0  0  0  0  0  0
  -26.2200  -11.8930   20.3510 N   0  0  0  0  0  0  0  0  0  0  0  0
  -24.2180  -10.6520   20.8490 C   0  0  0  0  0  0  0  0  0  0  0  0
  -24.6240   -9.6720   21.7810 C   0  0  0  0  0  3  0  0  0  0  0  0
  -23.9020   -8.4670   21.9110 C   0  0  0  0  0  3  0  0  0  0  0  0
  -22.7600   -8.2350   21.1090 C   0  0  0  0  0  0  0  0  0  0  0  0
  -22.3730   -9.2040   20.1660 C   0  0  0  0  0  3  0  0  0  0  0  0
  -23.0960  -10.4010   20.0340 C   0  0  0  0  0  3  0  0  0  0  0  0
  -22.0110   -7.0840   21.1480 O   0  0  0  0  0  0  0  0  0  0  0  0
  -21.8340   -6.3810   22.3120 C   0  0  0  0  0  0  0  0  0  0  0  0
  -21.2120   -6.9560   23.4420 C   0  0  0  0  0  3  0  0  0  0  0  0
  -20.9880   -6.1770   24.5950 C   0  0  0  0  0  3  0  0  0  0  0  0
  -21.3740   -4.8230   24.6160 C   0  0  0  0  0  0  0  0  0  0  0  0
  -21.9880   -4.2480   23.4890 C   0  0  0  0  0  3  0  0  0  0  0  0
  -22.2150   -5.0250   22.3390 C   0  0  0  0  0  0  0  0  0  0  0  0
  -22.7870   -4.4600   21.2490 F   0  0  0  0  0  0  0  0  0  0  0  0
  -21.1510   -4.0710   25.7190 F   0  0  0  0  0  0  0  0  0  0  0  0
  -23.1080  -13.7350   21.1970 C   0  0  0  0  0  0  0  0  0  0  0  0
  -22.4260  -13.0080   22.0750 N   0  0  0  0  0  0  0  0  0  0  0  0
  -22.6510  -14.7830   20.7450 O   0  0  0  0  0  0  0  0  0  0  0  0
  -22.8120  -12.1600   22.4640 H   0  0  0  0  0  0  0  0  0  0  0  0
  -21.5040  -13.3050   22.3650 H   0  0  0  0  0  0  0  0  0  0  0  0
  -25.7060  -15.4350   20.3710 N   0  0  0  0  0  0  0  0  0  0  0  0
  -24.8620  -15.8840   20.7160 H   0  0  0  0  0  0  0  0  0  0  0  0
  -26.4740  -15.7040   20.9760 H   0  0  0  0  0  0  0  0  0  0  0  0
  -28.5710  -17.2460   19.8300 C   0  0  0  0  0  2  0  0  0  0  0  0
  -28.1840  -17.3690   18.3400 C   0  0  0  0  0  2  0  0  0  0  0  0
  -26.7380  -17.6110   18.1680 N   0  0  0  0  0  4  0  0  0  0  0  0
  -26.1940  -16.9130   18.6700 H   0  0  0  0  0  0  0  0  0  0  0  0
  -26.4890  -17.5720   17.1950 H   0  0  0  0  0  0  0  0  0  0  0  0
  -26.4780  -18.5170   18.5160 H   0  0  0  0  0  0  0  0  0  0  0  0
  -29.7460  -23.2600   21.1110 C   0  0  0  0  0  0  0  0  0  0  0  0
  -29.5130  -23.1020   22.3130 O   0  0  0  0  0  0  0  0  0  0  0  0
  -29.7370  -24.6650   20.4780 C   0  0  0  0  0  2  0  0  0  0  0  0
  -28.7500  -25.6470   21.1550 C   0  0  0  0  0  2  0  0  0  0  0  0
  -28.7950  -26.9530   20.5580 O   0  0  0  0  0  0  0  0  0  0  0  0
  -24.5870  -32.0230   23.2850 C   0  0  0  0  0  0  0  0  0  0  0  0
  -27.5910  -27.6190   20.4990 C   0  0  0  0  0  0  0  0  0  0  0  0
  -23.5320  -30.5100   21.6370 C   0  0  0  0  0  3  0  0  0  0  0  0
  -25.1260  -28.9950   20.3430 C   0  0  0  0  0  0  0  0  0  0  0  0
  -26.0440  -30.9850   21.5490 C   0  0  0  0  0  2  0  0  0  0  0  0
  -26.2270  -29.6000   20.9630 C   0  0  0  0  0  0  0  0  0  0  0  0
  -27.4650  -28.9210   21.0330 C   0  0  0  0  0  3  0  0  0  0  0  0
  -26.4740  -27.0250   19.8730 C   0  0  0  0  0  3  0  0  0  0  0  0
  -25.2440  -27.7060   19.7950 C   0  0  0  0  0  3  0  0  0  0  0  0
  -23.8420  -29.7930   20.2960 C   0  0  0  0  0  2  0  0  0  0  0  0
  -24.7350  -31.1900   22.2150 N   0  0  0  0  0  0  0  0  0  0  0  0
  -23.4690  -32.2610   23.7620 O   0  0  0  0  0  0  0  0  0  0  0  0
  -22.8810  -29.4920   22.6010 C   0  0  0  0  0  0  0  0  0  0  0  0
  -21.5720  -29.2520   22.4220 N   0  0  0  0  0  0  0  0  0  0  0  0
  -23.5520  -28.9200   23.4640 O   0  0  0  0  0  0  0  0  0  0  0  0
  -21.0920  -29.7660   21.6970 H   0  0  0  0  0  0  0  0  0  0  0  0
  -18.2220  -27.9560   22.8310 C   0  0  0  0  0  0  0  0  0  0  0  0
  -20.7590  -28.3050   23.1840 C   0  0  0  0  0  3  0  0  0  0  0  0
  -20.9290  -26.8660   22.6450 C   0  0  0  0  0  2  0  0  0  0  0  0
  -19.8740  -26.4840   21.6020 C   0  0  0  0  0  2  0  0  0  0  0  0
  -18.4650  -26.5990   22.1930 C   0  0  0  0  0  2  0  0  0  0  0  0
  -19.2990  -28.7650   23.2810 C   0  0  0  0  0  0  0  0  0  0  0  0
  -19.0200  -30.0330   23.8340 C   0  0  0  0  0  3  0  0  0  0  0  0
  -17.6950  -30.4960   23.9400 C   0  0  0  0  0  3  0  0  0  0  0  0
  -16.6310  -29.6850   23.5090 C   0  0  0  0  0  3  0  0  0  0  0  0
  -16.8950  -28.4170   22.9600 C   0  0  0  0  0  3  0  0  0  0  0  0
  -25.8100  -32.7350   23.9430 C   0  0  0  0  0  3  0  0  0  0  0  0
  -25.4010  -34.1080   24.2650 N   0  0  0  0  0  0  0  0  0  0  0  0
  -25.6580  -35.1780   23.5010 C   0  0  0  0  0  0  0  0  0  0  0  0
  -26.3370  -35.1170   22.4720 O   0  0  0  0  0  0  0  0  0  0  0  0
  -24.7960  -34.2240   25.0650 H   0  0  0  0  0  0  0  0  0  0  0  0
  -23.7870  -36.8210   23.1530 C   0  0  0  0  0  1  0  0  0  0  0  0
  -25.0690  -36.5290   23.9480 C   0  0  0  0  0  3  0  0  0  0  0  0
  -27.1350  -37.5960   24.7350 C   0  0  0  0  0  1  0  0  0  0  0  0
  -26.0130  -37.6590   23.8030 N   0  0  0  0  0  0  0  0  0  0  0  0
  -25.5360  -38.5450   23.9400 H   0  0  0  0  0  0  0  0  0  0  0  0
  -26.3440  -31.9950   25.2310 C   0  0  1  0  0  0  0  0  0  0  0  0
  -25.2330  -31.6210   26.2400 C   0  0  0  0  0  1  0  0  0  0  0  0
  -27.0870  -30.6940   24.8450 C   0  0  0  0  0  1  0  0  0  0  0  0
  -27.3740  -32.8890   25.9620 C   0  0  0  0  0  1  0  0  0  0  0  0
  1  2  1  0
  1  4  1  0
  2  5  1  0
  4  3  1  0
  4 15  1  0
  5  3  1  0
  5 55  1  0
  6  1  2  0
  7 20  1  0
  8 13  1  0
  9 10  1  0
  9  8  1  0
 11 10  1  0
 11 24  1  0
 11 12  1  0
 13  7  1  0
 13 12  1  0
 14  7  2  0
 15 19  2  0
 17 16  1  0
 18 49  1  0
 18 20  1  0
 18 15  1  0
 19 16  1  0
 20 17  1  0
 21 22  2  0
 22 41  1  0
 23 22  1  0
 23 26  1  0
 24 25  1  0
 24 21  1  0
 25 23  2  0
 26 27  1  0
 27 28  2  0
 29 32  1  0
 29 28  1  0
 30 29  2  0
 31 30  1  0
 31 26  2  0
 32 33  1  0
 33 38  2  0
 33 34  1  0
 34 35  2  0
 35 36  1  0
 36 40  1  0
 37 36  2  0
 38 37  1  0
 39 38  1  0
 41 42  1  0
 42 45  1  0
 42 44  1  0
 43 41  2  0
 46 21  1  0
 46 47  1  0
 46 48  1  0
 50 49  1  0
 51 50  1  0
 51 54  1  0
 51 52  1  0
 53 51  1  0
 55 56  2  0
 57 55  1  0
 57 58  1  0
 59 58  1  0
 60 71  2  0
 61 59  1  0
 61 66  1  0
 62 70  1  0
 62 72  1  0
 63 65  1  0
 64 70  1  0
 65 66  2  0
 65 64  1  0
 67 61  2  0
 68 67  1  0
 68 63  2  0
 69 63  1  0
 69 62  1  0
 70 60  1  0
 72 74  2  0
 73 72  1  0
 75 73  1  0
 76 85  2  0
 76 81  1  0
 77 73  1  0
 77 81  1  0
 78 77  1  0
 79 80  1  0
 79 78  1  0
 80 76  1  0
 81 82  2  0
 82 83  1  0
 84 83  2  0
 85 84  1  0
 86 60  1  0
 86 87  1  0
 86 96  1  0
 87 90  1  0
 88 92  1  0
 88 87  1  0
 89 88  2  0
 92 91  1  0
 94 95  1  0
 94 92  1  0
 94 93  1  0
 96 99  1  1
 96 97  1  0
 98 96  1  0
M  ISO  4   7 100  20 100  58 101  59 101
M  END
>  <TORSDO>  (55) 
F 22

>  <SCORE>  (55) 
-11.232

>  <name>  (55) 
54

>  <ligand_id>  (55) 
54

>  <original_smiles>  (55) 
[H]c1c([H])c([H])c2c(c1[H])C([H])([H])C([H])([H])C([H])([H])C2([H])N([H])C(=O)C1([H])N(C(=O)C([H])(N([H])C(=O)C([H])(N([H])C([H])([H])[H])C([H])([H])[H])C(C([H])([H])[H])(C([H])([H])[H])C([H])([H])[H])C([H])([H])c2c([H])c(OC([H])([H])C([H])([H])C(=O)C3([H])C([H])([H])C(=O)C([H])(C4=NC([H])([H])C([H])([H])N(C(=O)N5C([H])([H])C([H])([H])C([H])([H])C([H])(n6nc(-c7c([H])c([H])c(Oc8c([H])c([H])c(F)c([H])c8F)c([H])c7[H])c(C(=O)N([H])[H])c6N([H])[H])C5([H])[H])C4([H])C([H])([H])C([H])([H])[N+]([H])([H])[H])C3([H])[H])c([H])c([H])c2C1([H])[H]

>  <smiles>  (55) 
[H]c1c([H])c([H])c2c(c1[H])C([H])([H])C([H])([H])C([H])([H])C2([H])N([H])C(=O)C1([H])N(C(=O)C([H])(N([H])C(=O)C([H])(N([H])C([H])([H])[H])C([H])([H])[H])C(C([H])([H])[H])(C([H])([H])[H])C([H])([H])[H])C([H])([H])c2c([H])c(OC([H])([H])C([H])([H])C(=O)C3([H])C([H])([H])C(=O)C([H])(C4=NC([H])([H])C([H])([H])N(C(=O)N5C([H])([H])C([H])([H])C([H])([H])C([H])(n6nc(-c7c([H])c([H])c(Oc8c([H])c([H])c(F)c([H])c8F)c([H])c7[H])c(C(=O)N([H])[H])c6N([H])[H])C5([H])[H])C4([H])C([H])([H])C([H])([H])[N+]([H])([H])[H])C3([H])[H])c([H])c([H])c2C1([H])[H]

$$$$
55:0:0
     RDKit          3D

100108  0  0  1  0  0  0  0  0999 V2000
  -30.3240  -17.1980   20.5690 C   0  0  0  0  0  2  0  0  0  0  0  0
  -30.5610  -15.9610   21.4680 C   0  0  0  0  0  2  0  0  0  0  0  0
  -30.8820  -14.6260   20.7540 C   0  0  0  0  0  3  0  0  0  0  0  0
  -29.5460  -13.7040   18.8570 C   0  0  0  0  0  0  0  0  0  0  0  0
  -28.4400  -12.2230   17.2230 C   0  0  0  0  0  2  0  0  0  0  0  0
  -27.1640  -12.8570   16.6390 C   0  0  0  0  0  2  0  0  0  0  0  0
  -25.9500  -12.5560   17.5370 C   0  0  0  0  0  2  0  0  0  0  0  0
  -26.2230  -12.8760   19.0300 C   0  0  0  0  0  3  0  0  0  0  0  0
  -27.5660  -12.2690   19.4930 C   0  0  0  0  0  2  0  0  0  0  0  0
  -28.6290  -12.7400   18.5860 N   0  0  0  0  0  0  0  0  0  0  0  0
  -30.2740  -14.2030   17.9930 O   0  0  0  0  0  0  0  0  0  0  0  0
  -29.6900  -14.0160   20.1550 N   0  0  0  0  0  0  0  0  0  0  0  0
  -29.0310  -13.5840   20.7860 H   0  0  0  0  0  0  0  0  0  0  0  0
  -24.1560  -13.2030   20.5290 C   0  0  0  0  0  0  0  0  0  0  0  0
  -23.3100  -12.3100   21.1300 C   0  0  0  0  0  0  0  0  0  0  0  0
  -23.8080  -11.0120   20.8000 C   0  0  0  0  0  0  0  0  0  0  0  0
  -25.1150  -12.4430   19.8800 N   0  0  0  0  0  0  0  0  0  0  0  0
  -24.9270  -11.1150   20.0940 N   0  0  0  0  0  0  0  0  0  0  0  0
  -23.2530   -9.6790   21.0670 C   0  0  0  0  0  0  0  0  0  0  0  0
  -23.8900   -8.7790   21.9510 C   0  0  0  0  0  3  0  0  0  0  0  0
  -23.3300   -7.5110   22.2090 C   0  0  0  0  0  3  0  0  0  0  0  0
  -22.1190   -7.1290   21.5820 C   0  0  0  0  0  0  0  0  0  0  0  0
  -21.5000   -8.0200   20.6860 C   0  0  0  0  0  3  0  0  0  0  0  0
  -22.0630   -9.2810   20.4280 C   0  0  0  0  0  3  0  0  0  0  0  0
  -21.5140   -5.9080   21.7510 O   0  0  0  0  0  0  0  0  0  0  0  0
  -21.5470   -5.2470   22.9530 C   0  0  0  0  0  0  0  0  0  0  0  0
  -21.0270   -5.8210   24.1330 C   0  0  0  0  0  3  0  0  0  0  0  0
  -21.0190   -5.0800   25.3320 C   0  0  0  0  0  3  0  0  0  0  0  0
  -21.5210   -3.7660   25.3510 C   0  0  0  0  0  0  0  0  0  0  0  0
  -22.0340   -3.1900   24.1750 C   0  0  0  0  0  3  0  0  0  0  0  0
  -22.0450   -3.9290   22.9790 C   0  0  0  0  0  0  0  0  0  0  0  0
  -22.5200   -3.3620   21.8440 F   0  0  0  0  0  0  0  0  0  0  0  0
  -21.5060   -3.0500   26.5000 F   0  0  0  0  0  0  0  0  0  0  0  0
  -22.0550  -12.6350   21.8890 C   0  0  0  0  0  0  0  0  0  0  0  0
  -21.7340  -11.8460   22.9080 N   0  0  0  0  0  0  0  0  0  0  0  0
  -21.3760  -13.6220   21.6100 O   0  0  0  0  0  0  0  0  0  0  0  0
  -22.3020  -11.0470   23.1490 H   0  0  0  0  0  0  0  0  0  0  0  0
  -20.9060  -12.0410   23.4530 H   0  0  0  0  0  0  0  0  0  0  0  0
  -24.1790  -14.5940   20.4630 N   0  0  0  0  0  0  0  0  0  0  0  0
  -23.4570  -15.1690   20.8810 H   0  0  0  0  0  0  0  0  0  0  0  0
  -24.8560  -15.1280   19.9330 H   0  0  0  0  0  0  0  0  0  0  0  0
  -31.8560  -12.1990   21.2050 C   0  0  0  0  0  2  0  0  0  0  0  0
  -33.0110  -12.1510   22.2130 C   0  0  0  0  0  3  0  0  0  0  0  0
  -31.4940  -13.6010   21.7260 C   0  0  0  0  0  3  0  0  0  0  0  0
  -32.9720  -13.6930   22.1820 C   0  0  0  0  0  3  0  0  0  0  0  0
  -33.2010  -14.3220   23.5030 N   0  0  0  0  0  4  0  0  0  0  0  0
  -32.5960  -13.9490   24.2120 H   0  0  0  0  0  0  0  0  0  0  0  0
  -33.0670  -15.3150   23.4650 H   0  0  0  0  0  0  0  0  0  0  0  0
  -34.1490  -14.1670   23.7990 H   0  0  0  0  0  0  0  0  0  0  0  0
  -34.0330   -9.9130   21.5590 C   0  0  0  0  0  1  0  0  0  0  0  0
  -34.2880  -11.3980   21.8520 C   0  0  0  0  0  2  0  0  0  0  0  0
  -30.3290  -18.4950   21.4190 C   0  0  0  0  0  2  0  0  0  0  0  0
  -30.1560  -19.7560   20.6530 N   0  0  0  0  0  4  0  0  0  0  0  0
  -30.8730  -19.8070   19.9460 H   0  0  0  0  0  0  0  0  0  0  0  0
  -29.2610  -19.7440   20.1920 H   0  0  0  0  0  0  0  0  0  0  0  0
  -30.2360  -20.9660   21.5130 C   0  0  0  0  0  2  0  0  0  0  0  0
  -30.1810  -22.3050   20.7370 C   0  0  0  0  0  2  0  0  0  0  0  0
  -29.9770  -23.5270   21.6660 C   0  0  0  0  0  2  0  0  0  0  0  0
  -30.1500  -24.8910   20.9620 C   0  0  0  0  0  2  0  0  0  0  0  0
  -29.6190  -25.9580   21.7550 O   0  0  0  0  0  0  0  0  0  0  0  0
  -25.2130  -31.2880   23.3800 C   0  0  0  0  0  0  0  0  0  0  0  0
  -28.4230  -26.5760   21.4410 C   0  0  0  0  0  0  0  0  0  0  0  0
  -24.3460  -29.6600   21.7310 C   0  0  0  0  0  3  0  0  0  0  0  0
  -26.0490  -27.9920   20.8190 C   0  0  0  0  0  0  0  0  0  0  0  0
  -26.8610  -30.0610   21.9670 C   0  0  0  0  0  2  0  0  0  0  0  0
  -27.0700  -28.6230   21.5400 C   0  0  0  0  0  0  0  0  0  0  0  0
  -28.2530  -27.9180   21.8510 C   0  0  0  0  0  3  0  0  0  0  0  0
  -27.3720  -25.9490   20.7310 C   0  0  0  0  0  3  0  0  0  0  0  0
  -26.1930  -26.6530   20.4150 C   0  0  0  0  0  3  0  0  0  0  0  0
  -24.8170  -28.8150   20.5170 C   0  0  0  0  0  2  0  0  0  0  0  0
  -25.4800  -30.3590   22.4180 N   0  0  0  0  0  0  0  0  0  0  0  0
  -24.0470  -31.5940   23.6680 O   0  0  0  0  0  0  0  0  0  0  0  0
  -23.5280  -28.7500   22.6760 C   0  0  0  0  0  0  0  0  0  0  0  0
  -22.2270  -28.5970   22.3770 N   0  0  0  0  0  0  0  0  0  0  0  0
  -24.0650  -28.1810   23.6290 O   0  0  0  0  0  0  0  0  0  0  0  0
  -21.8620  -29.1030   21.5830 H   0  0  0  0  0  0  0  0  0  0  0  0
  -18.7180  -27.7990   22.7010 C   0  0  0  0  0  0  0  0  0  0  0  0
  -21.2720  -27.7580   23.1010 C   0  0  0  0  0  3  0  0  0  0  0  0
  -21.2400  -26.3260   22.5170 C   0  0  0  0  0  2  0  0  0  0  0  0
  -20.1580  -26.1370   21.4490 C   0  0  0  0  0  2  0  0  0  0  0  0
  -18.7720  -26.4410   22.0230 C   0  0  0  0  0  2  0  0  0  0  0  0
  -19.8950  -28.4240   23.1910 C   0  0  0  0  0  0  0  0  0  0  0  0
  -19.7950  -29.7050   23.7770 C   0  0  0  0  0  3  0  0  0  0  0  0
  -18.5510  -30.3550   23.8830 C   0  0  0  0  0  3  0  0  0  0  0  0
  -17.3880  -29.7240   23.4110 C   0  0  0  0  0  3  0  0  0  0  0  0
  -17.4720  -28.4480   22.8240 C   0  0  0  0  0  3  0  0  0  0  0  0
  -26.3540  -32.0260   24.1460 C   0  0  0  0  0  3  0  0  0  0  0  0
  -25.9120  -33.4080   24.3720 N   0  0  0  0  0  0  0  0  0  0  0  0
  -26.2280  -34.4480   23.5880 C   0  0  0  0  0  0  0  0  0  0  0  0
  -26.9900  -34.3510   22.6220 O   0  0  0  0  0  0  0  0  0  0  0  0
  -25.2440  -33.5540   25.1150 H   0  0  0  0  0  0  0  0  0  0  0  0
  -24.3810  -36.0550   23.0190 C   0  0  0  0  0  1  0  0  0  0  0  0
  -25.5960  -35.8100   23.9270 C   0  0  0  0  0  3  0  0  0  0  0  0
  -27.5920  -36.9230   24.8230 C   0  0  0  0  0  1  0  0  0  0  0  0
  -26.5390  -36.9430   23.8110 N   0  0  0  0  0  0  0  0  0  0  0  0
  -26.0490  -37.8300   23.8810 H   0  0  0  0  0  0  0  0  0  0  0  0
  -26.7390  -31.3330   25.5100 C   0  0  1  0  0  0  0  0  0  0  0  0
  -25.5170  -30.9300   26.3680 C   0  0  0  0  0  1  0  0  0  0  0  0
  -27.5800  -30.0620   25.2540 C   0  0  0  0  0  1  0  0  0  0  0  0
  -27.6200  -32.2850   26.3510 C   0  0  0  0  0  1  0  0  0  0  0  0
  1 52  1  0
  1  2  1  0
  3  2  1  0
  4 12  1  0
  5 10  1  0
  6  5  1  0
  6  7  1  0
  8  7  1  0
  8  9  1  0
  8 17  1  0
 10  4  1  0
 10  9  1  0
 11  4  2  0
 12  3  1  0
 12 13  1  0
 14 15  2  0
 15 34  1  0
 16 19  1  0
 16 15  1  0
 17 18  1  0
 17 14  1  0
 18 16  2  0
 19 20  1  0
 20 21  2  0
 22 25  1  0
 22 21  1  0
 23 22  2  0
 24 23  1  0
 24 19  2  0
 25 26  1  0
 26 31  2  0
 26 27  1  0
 27 28  2  0
 28 29  1  0
 29 33  1  0
 30 29  2  0
 31 30  1  0
 32 31  1  0
 34 35  1  0
 35 37  1  0
 35 38  1  0
 36 34  2  0
 39 14  1  0
 39 40  1  0
 41 39  1  0
 42 44  1  0
 42 43  1  0
 43 51  1  0
 44  3  1  0
 44 45  1  0
 45 43  1  0
 45 46  1  0
 46 49  1  0
 46 47  1  0
 48 46  1  0
 50 51  1  0
 53 52  1  0
 53 56  1  0
 54 53  1  0
 55 53  1  0
 57 56  1  0
 57 58  1  0
 59 58  1  0
 59 60  1  0
 61 72  2  0
 62 60  1  0
 62 67  1  0
 63 71  1  0
 63 73  1  0
 64 66  1  0
 65 71  1  0
 66 67  2  0
 66 65  1  0
 68 62  2  0
 69 68  1  0
 69 64  2  0
 70 64  1  0
 70 63  1  0
 71 61  1  0
 73 75  2  0
 74 73  1  0
 76 74  1  0
 77 86  2  0
 77 82  1  0
 78 74  1  0
 78 82  1  0
 79 78  1  0
 80 81  1  0
 80 79  1  0
 81 77  1  0
 82 83  2  0
 83 84  1  0
 85 84  2  0
 86 85  1  0
 87 61  1  0
 87 88  1  0
 87 97  1  0
 88 91  1  0
 89 93  1  0
 89 88  1  0
 90 89  2  0
 93 92  1  0
 95 96  1  0
 95 93  1  0
 95 94  1  0
 97100  1  1
 97 98  1  0
 99 97  1  0
M  ISO  4   4 100  12 100  59 101  60 101
M  END
>  <TORSDO>  (56) 
F 27

>  <SCORE>  (56) 
0.283

>  <name>  (56) 
55

>  <ligand_id>  (56) 
55

>  <original_smiles>  (56) 
[H]c1c([H])c([H])c2c(c1[H])C([H])([H])C([H])([H])C([H])([H])C2([H])N([H])C(=O)C1([H])N(C(=O)C([H])(N([H])C(=O)C([H])(N([H])C([H])([H])[H])C([H])([H])[H])C(C([H])([H])[H])(C([H])([H])[H])C([H])([H])[H])C([H])([H])c2c([H])c(OC([H])([H])C([H])([H])C([H])([H])C([H])([H])[N+]([H])([H])C([H])([H])C([H])([H])C([H])([H])C([H])(N([H])C(=O)N3C([H])([H])C([H])([H])C([H])([H])C([H])(n4nc(-c5c([H])c([H])c(Oc6c([H])c([H])c(F)c([H])c6F)c([H])c5[H])c(C(=O)N([H])[H])c4N([H])[H])C3([H])[H])C3([H])C([H])([H])C([H])(C([H])([H])C([H])([H])[H])C3([H])[N+]([H])([H])[H])c([H])c([H])c2C1([H])[H]

>  <smiles>  (56) 
[H]c1c([H])c([H])c2c(c1[H])C([H])([H])C([H])([H])C([H])([H])C2([H])N([H])C(=O)C1([H])N(C(=O)C([H])(N([H])C(=O)C([H])(N([H])C([H])([H])[H])C([H])([H])[H])C(C([H])([H])[H])(C([H])([H])[H])C([H])([H])[H])C([H])([H])c2c([H])c(OC([H])([H])C([H])([H])C([H])([H])C([H])([H])[N+]([H])([H])C([H])([H])C([H])([H])C([H])([H])C([H])(N([H])C(=O)N3C([H])([H])C([H])([H])C([H])([H])C([H])(n4nc(-c5c([H])c([H])c(Oc6c([H])c([H])c(F)c([H])c6F)c([H])c5[H])c(C(=O)N([H])[H])c4N([H])[H])C3([H])[H])C3([H])C([H])([H])C([H])(C([H])([H])C([H])([H])[H])C3([H])[N+]([H])([H])[H])c([H])c([H])c2C1([H])[H]

$$$$
56:0:0
     RDKit          3D

 92100  0  0  1  0  0  0  0  0999 V2000
  -29.8140  -20.8600   21.1070 C   0  0  0  0  0  2  0  0  0  0  0  0
  -29.4410  -19.5990   18.9000 C   0  0  0  0  0  2  0  0  0  0  0  0
  -29.6860  -17.0680   18.7010 C   0  0  0  0  0  2  0  0  0  0  0  0
  -30.2510  -18.2630   20.8850 C   0  0  0  0  0  2  0  0  0  0  0  0
  -28.9140  -18.3180   18.2220 C   0  0  0  0  0  3  0  0  0  0  0  0
  -29.4160  -19.5060   20.4430 C   0  0  0  0  0  3  0  0  0  0  0  0
  -29.6270  -16.9930   20.2430 C   0  0  0  0  0  3  0  0  0  0  0  0
  -28.9150  -18.4610   16.6940 C   0  0  0  0  0  1  0  0  0  0  0  0
  -30.7480  -14.7120   20.3540 C   0  0  0  0  0  0  0  0  0  0  0  0
  -30.4840  -12.5490   19.2060 C   0  0  0  0  0  2  0  0  0  0  0  0
  -29.5090  -12.7860   18.0310 C   0  0  0  0  0  2  0  0  0  0  0  0
  -28.0440  -12.6340   18.4870 C   0  0  0  0  0  2  0  0  0  0  0  0
  -27.7320  -13.4310   19.7830 C   0  0  0  0  0  3  0  0  0  0  0  0
  -28.8190  -13.1680   20.8560 C   0  0  0  0  0  2  0  0  0  0  0  0
  -30.1340  -13.4980   20.2730 N   0  0  0  0  0  0  0  0  0  0  0  0
  -31.8380  -14.9590   19.8300 O   0  0  0  0  0  0  0  0  0  0  0  0
  -29.9590  -15.6810   20.8420 N   0  0  0  0  0  0  0  0  0  0  0  0
  -29.2130  -15.3110   21.4140 H   0  0  0  0  0  0  0  0  0  0  0  0
  -25.3390  -14.0100   20.5580 C   0  0  0  0  0  0  0  0  0  0  0  0
  -24.2850  -13.2250   20.9410 C   0  0  0  0  0  0  0  0  0  0  0  0
  -24.7530  -11.8800   20.8760 C   0  0  0  0  0  0  0  0  0  0  0  0
  -26.3880  -13.1410   20.2870 N   0  0  0  0  0  0  0  0  0  0  0  0
  -26.0370  -11.8540   20.5290 N   0  0  0  0  0  0  0  0  0  0  0  0
  -24.0400  -10.6090   21.0590 C   0  0  0  0  0  0  0  0  0  0  0  0
  -24.4820   -9.6440   21.9910 C   0  0  0  0  0  3  0  0  0  0  0  0
  -23.7730   -8.4360   22.1630 C   0  0  0  0  0  3  0  0  0  0  0  0
  -22.6060   -8.1840   21.4030 C   0  0  0  0  0  0  0  0  0  0  0  0
  -22.1820   -9.1380   20.4620 C   0  0  0  0  0  3  0  0  0  0  0  0
  -22.8930  -10.3370   20.2880 C   0  0  0  0  0  3  0  0  0  0  0  0
  -21.8610   -7.0340   21.4900 O   0  0  0  0  0  0  0  0  0  0  0  0
  -21.7940   -6.3000   22.6480 C   0  0  0  0  0  0  0  0  0  0  0  0
  -21.3020   -6.8540   23.8500 C   0  0  0  0  0  3  0  0  0  0  0  0
  -21.1850   -6.0480   24.9990 C   0  0  0  0  0  3  0  0  0  0  0  0
  -21.5490   -4.6880   24.9470 C   0  0  0  0  0  0  0  0  0  0  0  0
  -22.0330   -4.1350   23.7490 C   0  0  0  0  0  3  0  0  0  0  0  0
  -22.1520   -4.9360   22.6010 C   0  0  0  0  0  0  0  0  0  0  0  0
  -22.6000   -4.3940   21.4440 F   0  0  0  0  0  0  0  0  0  0  0  0
  -21.4300   -3.9130   26.0480 F   0  0  0  0  0  0  0  0  0  0  0  0
  -22.8900  -13.6890   21.2580 C   0  0  0  0  0  0  0  0  0  0  0  0
  -22.1860  -12.9820   22.1370 N   0  0  0  0  0  0  0  0  0  0  0  0
  -22.4300  -14.7180   20.7590 O   0  0  0  0  0  0  0  0  0  0  0  0
  -22.5650  -12.1540   22.5710 H   0  0  0  0  0  0  0  0  0  0  0  0
  -21.2530  -13.2800   22.3780 H   0  0  0  0  0  0  0  0  0  0  0  0
  -25.4890  -15.3840   20.4000 N   0  0  0  0  0  0  0  0  0  0  0  0
  -24.7200  -16.0310   20.5320 H   0  0  0  0  0  0  0  0  0  0  0  0
  -26.3210  -15.8310   20.0400 H   0  0  0  0  0  0  0  0  0  0  0  0
  -27.4680  -21.8870   21.4910 C   0  0  0  0  0  1  0  0  0  0  0  0
  -28.8460  -22.0590   20.8160 C   0  0  0  0  0  3  0  0  0  0  0  0
  -29.4400  -23.4460   21.1920 C   0  0  0  0  0  2  0  0  0  0  0  0
  -28.7200  -24.6420   20.5010 C   0  0  0  0  0  2  0  0  0  0  0  0
  -29.1810  -26.0450   20.9600 C   0  0  0  0  0  2  0  0  0  0  0  0
  -28.8040  -27.0770   20.0440 O   0  0  0  0  0  0  0  0  0  0  0  0
  -24.6740  -31.9560   23.2730 C   0  0  0  0  0  0  0  0  0  0  0  0
  -27.5740  -27.6890   20.1800 C   0  0  0  0  0  0  0  0  0  0  0  0
  -23.5550  -30.5350   21.5820 C   0  0  0  0  0  3  0  0  0  0  0  0
  -25.1030  -29.0700   20.1760 C   0  0  0  0  0  0  0  0  0  0  0  0
  -26.0650  -31.0030   21.4360 C   0  0  0  0  0  2  0  0  0  0  0  0
  -26.2220  -29.6400   20.7930 C   0  0  0  0  0  0  0  0  0  0  0  0
  -27.4600  -28.9550   20.7980 C   0  0  0  0  0  3  0  0  0  0  0  0
  -26.4400  -27.1240   19.5630 C   0  0  0  0  0  3  0  0  0  0  0  0
  -25.2030  -27.8060   19.5630 C   0  0  0  0  0  3  0  0  0  0  0  0
  -23.8240  -29.8770   20.2000 C   0  0  0  0  0  2  0  0  0  0  0  0
  -24.7800  -31.1810   22.1570 N   0  0  0  0  0  0  0  0  0  0  0  0
  -23.5740  -32.1750   23.7990 O   0  0  0  0  0  0  0  0  0  0  0  0
  -22.9290  -29.4750   22.5150 C   0  0  0  0  0  0  0  0  0  0  0  0
  -21.6110  -29.2580   22.3750 N   0  0  0  0  0  0  0  0  0  0  0  0
  -23.6260  -28.8480   23.3160 O   0  0  0  0  0  0  0  0  0  0  0  0
  -21.1080  -29.8150   21.6960 H   0  0  0  0  0  0  0  0  0  0  0  0
  -18.2620  -27.9990   22.8660 C   0  0  0  0  0  0  0  0  0  0  0  0
  -20.8190  -28.2780   23.1160 C   0  0  0  0  0  3  0  0  0  0  0  0
  -20.9340  -26.8750   22.4770 C   0  0  0  0  0  2  0  0  0  0  0  0
  -19.8230  -26.5800   21.4640 C   0  0  0  0  0  2  0  0  0  0  0  0
  -18.4470  -26.6820   22.1300 C   0  0  0  0  0  2  0  0  0  0  0  0
  -19.3760  -28.7560   23.3150 C   0  0  0  0  0  0  0  0  0  0  0  0
  -19.1510  -29.9910   23.9620 C   0  0  0  0  0  3  0  0  0  0  0  0
  -17.8430  -30.4680   24.1680 C   0  0  0  0  0  3  0  0  0  0  0  0
  -16.7430  -29.7070   23.7370 C   0  0  0  0  0  3  0  0  0  0  0  0
  -16.9520  -28.4740   23.0930 C   0  0  0  0  0  3  0  0  0  0  0  0
  -25.9230  -32.6270   23.9250 C   0  0  0  0  0  3  0  0  0  0  0  0
  -25.5720  -34.0200   24.2340 N   0  0  0  0  0  0  0  0  0  0  0  0
  -25.8930  -35.0720   23.4690 C   0  0  0  0  0  0  0  0  0  0  0  0
  -26.5900  -34.9750   22.4540 O   0  0  0  0  0  0  0  0  0  0  0  0
  -24.9570  -34.1690   25.0210 H   0  0  0  0  0  0  0  0  0  0  0  0
  -24.1240  -36.8100   23.0510 C   0  0  0  0  0  1  0  0  0  0  0  0
  -25.3570  -36.4510   23.8970 C   0  0  0  0  0  3  0  0  0  0  0  0
  -27.4400  -37.4090   24.7760 C   0  0  0  0  0  1  0  0  0  0  0  0
  -26.3620  -37.5320   23.7990 N   0  0  0  0  0  0  0  0  0  0  0  0
  -25.9250  -38.4410   23.9210 H   0  0  0  0  0  0  0  0  0  0  0  0
  -26.4280  -31.8790   25.2200 C   0  0  1  0  0  0  0  0  0  0  0  0
  -25.3110  -31.6040   26.2530 C   0  0  0  0  0  1  0  0  0  0  0  0
  -27.0730  -30.5230   24.8510 C   0  0  0  0  0  1  0  0  0  0  0  0
  -27.5290  -32.7150   25.9150 C   0  0  0  0  0  1  0  0  0  0  0  0
  2  6  1  0
  3  7  1  0
  5  8  1  0
  5  3  1  0
  5  2  1  0
  6  4  1  0
  6  1  1  0
  7 17  1  0
  7  4  1  0
  9 17  1  0
 10 15  1  0
 11 12  1  0
 11 10  1  0
 13 12  1  0
 13 22  1  0
 13 14  1  0
 15  9  1  0
 15 14  1  0
 16  9  2  0
 17 18  1  0
 19 20  2  0
 20 39  1  0
 21 20  1  0
 21 24  1  0
 22 23  1  0
 22 19  1  0
 23 21  2  0
 24 25  1  0
 25 26  2  0
 27 30  1  0
 27 26  1  0
 28 27  2  0
 29 28  1  0
 29 24  2  0
 30 31  1  0
 31 32  1  0
 32 33  2  0
 34 33  1  0
 34 38  1  0
 35 34  2  0
 36 31  2  0
 36 35  1  0
 37 36  1  0
 39 40  1  0
 40 43  1  0
 40 42  1  0
 41 39  2  0
 44 45  1  0
 44 19  1  0
 46 44  1  0
 48  1  1  0
 48 49  1  0
 48 47  1  0
 50 51  1  0
 50 49  1  0
 52 54  1  0
 52 51  1  0
 53 64  2  0
 54 59  1  0
 55 63  1  0
 55 65  1  0
 56 62  1  0
 56 58  1  0
 57 63  1  0
 58 59  2  0
 58 57  1  0
 60 54  2  0
 61 60  1  0
 61 56  2  0
 62 55  1  0
 63 53  1  0
 65 67  2  0
 66 65  1  0
 68 66  1  0
 69 78  2  0
 69 74  1  0
 70 66  1  0
 70 74  1  0
 71 70  1  0
 72 73  1  0
 72 71  1  0
 73 69  1  0
 74 75  2  0
 75 76  1  0
 77 76  2  0
 78 77  1  0
 79 53  1  0
 79 80  1  0
 79 89  1  0
 80 83  1  0
 81 85  1  0
 81 80  1  0
 82 81  2  0
 85 84  1  0
 87 85  1  0
 87 88  1  0
 87 86  1  0
 89 92  1  1
 89 90  1  0
 91 89  1  0
M  ISO  4   9 100  17 100  51 101  52 101
M  END
>  <TORSDO>  (57) 
F 21

>  <SCORE>  (57) 
-13.203

>  <name>  (57) 
56

>  <ligand_id>  (57) 
56

>  <original_smiles>  (57) 
[H]c1c([H])c([H])c2c(c1[H])C([H])([H])C([H])([H])C([H])([H])C2([H])N([H])C(=O)C1([H])N(C(=O)C([H])(N([H])C(=O)C([H])(N([H])C([H])([H])[H])C([H])([H])[H])C(C([H])([H])[H])(C([H])([H])[H])C([H])([H])[H])C([H])([H])c2c([H])c(OC([H])([H])C([H])([H])C([H])([H])C([H])(C([H])([H])[H])C([H])([H])C3([H])C([H])([H])C([H])(N([H])C(=O)N4C([H])([H])C([H])([H])C([H])([H])C([H])(n5nc(-c6c([H])c([H])c(Oc7c([H])c([H])c(F)c([H])c7F)c([H])c6[H])c(C(=O)N([H])[H])c5N([H])[H])C4([H])[H])C([H])([H])C([H])(C([H])([H])[H])C3([H])[H])c([H])c([H])c2C1([H])[H]

>  <smiles>  (57) 
[H]c1c([H])c([H])c2c(c1[H])C([H])([H])C([H])([H])C([H])([H])C2([H])N([H])C(=O)C1([H])N(C(=O)C([H])(N([H])C(=O)C([H])(N([H])C([H])([H])[H])C([H])([H])[H])C(C([H])([H])[H])(C([H])([H])[H])C([H])([H])[H])C([H])([H])c2c([H])c(OC([H])([H])C([H])([H])C([H])([H])C([H])(C([H])([H])[H])C([H])([H])C3([H])C([H])([H])C([H])(N([H])C(=O)N4C([H])([H])C([H])([H])C([H])([H])C([H])(n5nc(-c6c([H])c([H])c(Oc7c([H])c([H])c(F)c([H])c7F)c([H])c6[H])c(C(=O)N([H])[H])c5N([H])[H])C4([H])[H])C([H])([H])C([H])(C([H])([H])[H])C3([H])[H])c([H])c([H])c2C1([H])[H]

$$$$
57:0:0
     RDKit          3D

 94102  0  0  1  0  0  0  0  0999 V2000
  -32.8410  -21.0110   18.5830 C   0  0  0  0  0  2  0  0  0  0  0  0
  -32.3740  -18.9100   19.7050 C   0  0  0  0  0  2  0  0  0  0  0  0
  -31.6800  -21.6700   19.3340 C   0  0  0  0  0  2  0  0  0  0  0  0
  -33.4740  -19.9290   19.4490 C   0  0  0  0  0  3  0  0  0  0  0  0
  -31.1250  -19.4710   20.4410 C   0  0  0  0  0  3  0  0  0  0  0  0
  -34.6940  -19.2840   18.7720 C   0  0  0  0  0  1  0  0  0  0  0  0
  -30.5790  -20.7510   19.7880 N   0  0  1  0  0  4  0  0  0  0  0  0
  -30.1090  -20.4610   18.9430 H   0  0  0  0  0  0  0  0  0  0  0  0
  -30.3220  -17.8350   22.2600 C   0  0  0  0  0  1  0  0  0  0  0  0
  -30.1230  -18.2610   20.7910 C   0  0  0  0  0  3  0  0  0  0  0  0
  -30.1130  -16.9630   19.8510 C   0  0  0  0  0  2  0  0  0  0  0  0
  -30.6920  -14.5060   20.1730 C   0  0  0  0  0  0  0  0  0  0  0  0
  -30.3500  -12.3620   19.0080 C   0  0  0  0  0  2  0  0  0  0  0  0
  -29.3700  -12.6230   17.8440 C   0  0  0  0  0  2  0  0  0  0  0  0
  -27.9100  -12.4860   18.3200 C   0  0  0  0  0  2  0  0  0  0  0  0
  -27.6290  -13.2680   19.6310 C   0  0  0  0  0  3  0  0  0  0  0  0
  -28.7250  -13.0110   20.6920 C   0  0  0  0  0  2  0  0  0  0  0  0
  -30.0250  -13.3190   20.0790 N   0  0  0  0  0  0  0  0  0  0  0  0
  -31.8490  -14.6360   19.7640 O   0  0  0  0  0  0  0  0  0  0  0  0
  -29.9260  -15.6000   20.4500 N   0  0  0  0  0  0  0  0  0  0  0  0
  -29.0080  -15.3980   20.8140 H   0  0  0  0  0  0  0  0  0  0  0  0
  -25.2590  -13.8700   20.4170 C   0  0  0  0  0  0  0  0  0  0  0  0
  -24.2020  -13.0970   20.8150 C   0  0  0  0  0  0  0  0  0  0  0  0
  -24.6610  -11.7450   20.7650 C   0  0  0  0  0  0  0  0  0  0  0  0
  -26.2940  -12.9880   20.1520 N   0  0  0  0  0  0  0  0  0  0  0  0
  -25.9420  -11.7060   20.4220 N   0  0  0  0  0  0  0  0  0  0  0  0
  -23.9390  -10.4820   20.9680 C   0  0  0  0  0  0  0  0  0  0  0  0
  -24.3860   -9.5190   21.9000 C   0  0  0  0  0  3  0  0  0  0  0  0
  -23.6660   -8.3210   22.0930 C   0  0  0  0  0  3  0  0  0  0  0  0
  -22.4840   -8.0760   21.3530 C   0  0  0  0  0  0  0  0  0  0  0  0
  -22.0570   -9.0260   20.4090 C   0  0  0  0  0  3  0  0  0  0  0  0
  -22.7780  -10.2160   20.2150 C   0  0  0  0  0  3  0  0  0  0  0  0
  -21.7330   -6.9300   21.4560 O   0  0  0  0  0  0  0  0  0  0  0  0
  -21.6870   -6.2000   22.6160 C   0  0  0  0  0  0  0  0  0  0  0  0
  -21.2530   -6.7640   23.8360 C   0  0  0  0  0  3  0  0  0  0  0  0
  -21.1570   -5.9600   24.9890 C   0  0  0  0  0  3  0  0  0  0  0  0
  -21.4820   -4.5920   24.9230 C   0  0  0  0  0  0  0  0  0  0  0  0
  -21.9080   -4.0270   23.7080 C   0  0  0  0  0  3  0  0  0  0  0  0
  -22.0070   -4.8290   22.5580 C   0  0  0  0  0  0  0  0  0  0  0  0
  -22.3970   -4.2740   21.3850 F   0  0  0  0  0  0  0  0  0  0  0  0
  -21.3810   -3.8170   26.0280 F   0  0  0  0  0  0  0  0  0  0  0  0
  -22.8130  -13.5720   21.1270 C   0  0  0  0  0  0  0  0  0  0  0  0
  -22.1080  -12.8740   22.0100 N   0  0  0  0  0  0  0  0  0  0  0  0
  -22.3620  -14.6000   20.6210 O   0  0  0  0  0  0  0  0  0  0  0  0
  -22.4860  -12.0450   22.4430 H   0  0  0  0  0  0  0  0  0  0  0  0
  -21.1750  -13.1740   22.2580 H   0  0  0  0  0  0  0  0  0  0  0  0
  -25.4210  -15.2410   20.2350 N   0  0  0  0  0  0  0  0  0  0  0  0
  -24.6570  -15.8980   20.3530 H   0  0  0  0  0  0  0  0  0  0  0  0
  -26.2550  -15.6710   19.8560 H   0  0  0  0  0  0  0  0  0  0  0  0
  -29.5530  -21.5450   20.5880 C   0  0  0  0  0  3  0  0  0  0  0  0
  -29.4220  -23.1100   20.2770 C   0  0  0  0  0  3  0  0  0  0  0  0
  -28.2760  -23.9270   20.9700 C   0  0  0  0  0  2  0  0  0  0  0  0
  -28.5480  -25.4310   21.3650 C   0  0  0  0  0  2  0  0  0  0  0  0
  -28.4900  -26.4740   20.3580 O   0  0  0  0  0  0  0  0  0  0  0  0
  -24.5920  -31.7790   23.2490 C   0  0  0  0  0  0  0  0  0  0  0  0
  -27.3460  -27.2570   20.3450 C   0  0  0  0  0  0  0  0  0  0  0  0
  -23.4500  -30.3520   21.5850 C   0  0  0  0  0  3  0  0  0  0  0  0
  -24.9580  -28.7890   20.2380 C   0  0  0  0  0  0  0  0  0  0  0  0
  -25.9840  -30.7010   21.4770 C   0  0  0  0  0  2  0  0  0  0  0  0
  -26.0970  -29.3160   20.8640 C   0  0  0  0  0  0  0  0  0  0  0  0
  -27.2970  -28.5590   20.9120 C   0  0  0  0  0  3  0  0  0  0  0  0
  -26.1930  -26.7540   19.7120 C   0  0  0  0  0  3  0  0  0  0  0  0
  -25.0040  -27.5080   19.6590 C   0  0  0  0  0  3  0  0  0  0  0  0
  -23.7120  -29.6500   20.2250 C   0  0  0  0  0  2  0  0  0  0  0  0
  -24.6920  -30.9620   22.1620 N   0  0  0  0  0  0  0  0  0  0  0  0
  -23.4910  -32.0570   23.7450 O   0  0  0  0  0  0  0  0  0  0  0  0
  -22.7630  -29.3460   22.5360 C   0  0  0  0  0  0  0  0  0  0  0  0
  -21.4440  -29.1600   22.3630 N   0  0  0  0  0  0  0  0  0  0  0  0
  -23.4150  -28.7350   23.3860 O   0  0  0  0  0  0  0  0  0  0  0  0
  -20.9780  -29.7030   21.6490 H   0  0  0  0  0  0  0  0  0  0  0  0
  -18.0570  -27.9560   22.7500 C   0  0  0  0  0  0  0  0  0  0  0  0
  -20.6010  -28.2310   23.1170 C   0  0  0  0  0  3  0  0  0  0  0  0
  -20.7320  -26.7920   22.5670 C   0  0  0  0  0  2  0  0  0  0  0  0
  -19.6720  -26.4480   21.5160 C   0  0  0  0  0  2  0  0  0  0  0  0
  -18.2650  -26.5980   22.1040 C   0  0  0  0  0  2  0  0  0  0  0  0
  -19.1550  -28.7290   23.2120 C   0  0  0  0  0  0  0  0  0  0  0  0
  -18.9090  -30.0010   23.7740 C   0  0  0  0  0  3  0  0  0  0  0  0
  -17.5970  -30.4990   23.8820 C   0  0  0  0  0  3  0  0  0  0  0  0
  -16.5120  -29.7240   23.4380 C   0  0  0  0  0  3  0  0  0  0  0  0
  -16.7430  -28.4550   22.8770 C   0  0  0  0  0  3  0  0  0  0  0  0
  -25.8520  -32.4220   23.9070 C   0  0  0  0  0  3  0  0  0  0  0  0
  -25.5280  -33.8230   24.2090 N   0  0  0  0  0  0  0  0  0  0  0  0
  -25.8820  -34.8660   23.4480 C   0  0  0  0  0  0  0  0  0  0  0  0
  -26.5850  -34.7530   22.4390 O   0  0  0  0  0  0  0  0  0  0  0  0
  -24.9080  -33.9860   24.9890 H   0  0  0  0  0  0  0  0  0  0  0  0
  -24.1600  -36.6490   23.0140 C   0  0  0  0  0  1  0  0  0  0  0  0
  -25.3760  -36.2590   23.8700 C   0  0  0  0  0  3  0  0  0  0  0  0
  -27.4780  -37.1640   24.7600 C   0  0  0  0  0  1  0  0  0  0  0  0
  -26.4080  -37.3150   23.7780 N   0  0  0  0  0  0  0  0  0  0  0  0
  -25.9940  -38.2350   23.8980 H   0  0  0  0  0  0  0  0  0  0  0  0
  -26.3270  -31.6670   25.2090 C   0  0  1  0  0  0  0  0  0  0  0  0
  -25.2000  -31.4400   26.2430 C   0  0  0  0  0  1  0  0  0  0  0  0
  -26.9280  -30.2870   24.8540 C   0  0  0  0  0  1  0  0  0  0  0  0
  -27.4510  -32.4750   25.9010 C   0  0  0  0  0  1  0  0  0  0  0  0
  1  3  1  0
  1  4  1  0
  2  5  1  0
  3  7  1  0
  4  6  1  0
  4  2  1  0
  5 10  1  0
  7  5  1  0
  7 50  1  0
  7  8  1  6
 10  9  1  0
 11 20  1  0
 11 10  1  0
 12 20  1  0
 13 18  1  0
 14 15  1  0
 14 13  1  0
 16 15  1  0
 16 25  1  0
 16 17  1  0
 18 12  1  0
 18 17  1  0
 19 12  2  0
 20 21  1  0
 22 23  2  0
 23 42  1  0
 24 23  1  0
 24 27  1  0
 25 22  1  0
 25 26  1  0
 26 24  2  0
 27 28  1  0
 28 29  2  0
 30 33  1  0
 30 29  1  0
 31 30  2  0
 32 31  1  0
 32 27  2  0
 33 34  1  0
 34 35  1  0
 35 36  2  0
 37 36  1  0
 37 41  1  0
 38 37  2  0
 39 34  2  0
 39 38  1  0
 40 39  1  0
 42 43  1  0
 43 46  1  0
 43 45  1  0
 44 42  2  0
 47 48  1  0
 47 22  1  0
 49 47  1  0
 51 50  2  0
 51 52  1  0
 52 53  1  0
 54 53  1  0
 55 66  2  0
 56 54  1  0
 56 61  1  0
 57 65  1  0
 57 67  1  0
 58 60  1  0
 59 65  1  0
 60 61  2  0
 60 59  1  0
 62 56  2  0
 63 62  1  0
 63 58  2  0
 64 58  1  0
 64 57  1  0
 65 55  1  0
 67 69  2  0
 68 67  1  0
 70 68  1  0
 71 80  2  0
 71 76  1  0
 72 68  1  0
 72 76  1  0
 73 72  1  0
 74 75  1  0
 74 73  1  0
 75 71  1  0
 76 77  2  0
 77 78  1  0
 79 78  2  0
 80 79  1  0
 81 55  1  0
 81 82  1  0
 81 91  1  0
 82 85  1  0
 83 87  1  0
 83 82  1  0
 84 83  2  0
 87 86  1  0
 89 87  1  0
 89 90  1  0
 89 88  1  0
 91 94  1  1
 91 92  1  0
 93 91  1  0
M  ISO  4  12 100  20 100  53 101  54 101
M  END
>  <TORSDO>  (58) 
F 22

>  <SCORE>  (58) 
-12.882

>  <name>  (58) 
57

>  <ligand_id>  (58) 
57

>  <original_smiles>  (58) 
[H]c1c([H])c([H])c2c(c1[H])C([H])([H])C([H])([H])C([H])([H])C2([H])N([H])C(=O)C1([H])N(C(=O)C([H])(N([H])C(=O)C([H])(N([H])C([H])([H])[H])C([H])([H])[H])C(C([H])([H])[H])(C([H])([H])[H])C([H])([H])[H])C([H])([H])c2c([H])c(OC([H])([H])C([H])([H])C([H])([H])C([H])([H])[N+]3([H])C([H])([H])C([H])([H])C([H])(C([H])([H])[H])C([H])([H])C3([H])C([H])(C([H])([H])[H])C([H])([H])N([H])C(=O)N3C([H])([H])C([H])([H])C([H])([H])C([H])(n4nc(-c5c([H])c([H])c(Oc6c([H])c([H])c(F)c([H])c6F)c([H])c5[H])c(C(=O)N([H])[H])c4N([H])[H])C3([H])[H])c([H])c([H])c2C1([H])[H]

>  <smiles>  (58) 
[H]c1c([H])c([H])c2c(c1[H])C([H])([H])C([H])([H])C([H])([H])C2([H])N([H])C(=O)C1([H])N(C(=O)C([H])(N([H])C(=O)C([H])(N([H])C([H])([H])[H])C([H])([H])[H])C(C([H])([H])[H])(C([H])([H])[H])C([H])([H])[H])C([H])([H])c2c([H])c(OC([H])([H])C([H])([H])C([H])([H])C([H])([H])[N+]3([H])C([H])([H])C([H])([H])C([H])(C([H])([H])[H])C([H])([H])C3([H])C([H])(C([H])([H])[H])C([H])([H])N([H])C(=O)N3C([H])([H])C([H])([H])C([H])([H])C([H])(n4nc(-c5c([H])c([H])c(Oc6c([H])c([H])c(F)c([H])c6F)c([H])c5[H])c(C(=O)N([H])[H])c4N([H])[H])C3([H])[H])c([H])c([H])c2C1([H])[H]

$$$$
58:0:0
     RDKit          3D

 95103  0  0  1  0  0  0  0  0999 V2000
  -29.3150  -21.9150   20.0830 C   0  0  0  0  0  3  0  0  0  0  0  0
  -29.0160  -20.3600   20.6020 C   0  0  0  0  0  0  0  0  0  0  0  0
  -28.1190  -20.2190   21.4330 O   0  0  0  0  0  0  0  0  0  0  0  0
  -29.7650  -18.9710   20.0850 C   0  0  0  0  0  2  0  0  0  0  0  0
  -29.9570  -17.5740   20.9920 C   0  0  0  0  0  2  0  0  0  0  0  0
  -30.5560  -14.9240   20.4230 C   0  0  0  0  0  0  0  0  0  0  0  0
  -30.4390  -12.5960   19.4440 C   0  0  0  0  0  2  0  0  0  0  0  0
  -29.4910  -12.5450   18.2220 C   0  0  0  0  0  2  0  0  0  0  0  0
  -28.0220  -12.3700   18.6540 C   0  0  0  0  0  2  0  0  0  0  0  0
  -27.6310  -13.3000   19.8330 C   0  0  0  0  0  3  0  0  0  0  0  0
  -28.6880  -13.2770   20.9560 C   0  0  0  0  0  2  0  0  0  0  0  0
  -29.9610  -13.6750   20.3430 N   0  0  0  0  0  0  0  0  0  0  0  0
  -31.7700  -15.0090   20.2040 O   0  0  0  0  0  0  0  0  0  0  0  0
  -29.7440  -16.0750   20.5530 N   0  0  0  0  0  0  0  0  0  0  0  0
  -28.7700  -15.8110   20.5850 H   0  0  0  0  0  0  0  0  0  0  0  0
  -25.2550  -13.9180   20.5570 C   0  0  0  0  0  0  0  0  0  0  0  0
  -24.1780  -13.1550   20.9240 C   0  0  0  0  0  0  0  0  0  0  0  0
  -24.6250  -11.7990   20.8940 C   0  0  0  0  0  0  0  0  0  0  0  0
  -26.2880  -13.0240   20.3250 N   0  0  0  0  0  0  0  0  0  0  0  0
  -25.9170  -11.7450   20.5930 N   0  0  0  0  0  0  0  0  0  0  0  0
  -23.8830  -10.5440   21.0730 C   0  0  0  0  0  0  0  0  0  0  0  0
  -24.3050   -9.5590   21.9920 C   0  0  0  0  0  3  0  0  0  0  0  0
  -23.5620   -8.3700   22.1580 C   0  0  0  0  0  3  0  0  0  0  0  0
  -22.3820   -8.1610   21.4060 C   0  0  0  0  0  0  0  0  0  0  0  0
  -21.9790   -9.1330   20.4730 C   0  0  0  0  0  3  0  0  0  0  0  0
  -22.7240  -10.3130   20.3040 C   0  0  0  0  0  3  0  0  0  0  0  0
  -21.6070   -7.0290   21.4890 O   0  0  0  0  0  0  0  0  0  0  0  0
  -21.5580   -6.2710   22.6320 C   0  0  0  0  0  0  0  0  0  0  0  0
  -21.1650   -6.8180   23.8740 C   0  0  0  0  0  3  0  0  0  0  0  0
  -21.0600   -5.9870   25.0070 C   0  0  0  0  0  3  0  0  0  0  0  0
  -21.3410   -4.6120   24.9020 C   0  0  0  0  0  0  0  0  0  0  0  0
  -21.7270   -4.0650   23.6650 C   0  0  0  0  0  3  0  0  0  0  0  0
  -21.8320   -4.8920   22.5340 C   0  0  0  0  0  0  0  0  0  0  0  0
  -22.1850   -4.3560   21.3410 F   0  0  0  0  0  0  0  0  0  0  0  0
  -21.2340   -3.8120   25.9890 F   0  0  0  0  0  0  0  0  0  0  0  0
  -22.7850  -13.6480   21.1850 C   0  0  0  0  0  0  0  0  0  0  0  0
  -22.0420  -12.9600   22.0460 N   0  0  0  0  0  0  0  0  0  0  0  0
  -22.3620  -14.6780   20.6620 O   0  0  0  0  0  0  0  0  0  0  0  0
  -22.3970  -12.1260   22.4920 H   0  0  0  0  0  0  0  0  0  0  0  0
  -21.1020  -13.2620   22.2590 H   0  0  0  0  0  0  0  0  0  0  0  0
  -25.4430  -15.2840   20.3730 N   0  0  0  0  0  0  0  0  0  0  0  0
  -24.6840  -15.9530   20.4530 H   0  0  0  0  0  0  0  0  0  0  0  0
  -26.2810  -15.6900   19.9830 H   0  0  0  0  0  0  0  0  0  0  0  0
  -28.1850  -23.1870   20.1520 C   0  0  0  0  0  2  0  0  0  0  0  0
  -28.3690  -24.7840   20.6920 C   0  0  0  0  0  2  0  0  0  0  0  0
  -28.2930  -26.1910   20.0320 O   0  0  0  0  0  0  0  0  0  0  0  0
  -24.6330  -31.8340   23.1560 C   0  0  0  0  0  0  0  0  0  0  0  0
  -27.1980  -27.1220   20.1170 C   0  0  0  0  0  0  0  0  0  0  0  0
  -23.4220  -30.4380   21.5220 C   0  0  0  0  0  3  0  0  0  0  0  0
  -24.8620  -28.8560   20.1000 C   0  0  0  0  0  0  0  0  0  0  0  0
  -25.9750  -30.7080   21.3390 C   0  0  0  0  0  2  0  0  0  0  0  0
  -26.0460  -29.3130   20.6940 C   0  0  0  0  0  0  0  0  0  0  0  0
  -27.2170  -28.4620   20.6780 C   0  0  0  0  0  3  0  0  0  0  0  0
  -25.9860  -26.7570   19.5010 C   0  0  0  0  0  3  0  0  0  0  0  0
  -24.8450  -27.5910   19.4890 C   0  0  0  0  0  3  0  0  0  0  0  0
  -23.6340  -29.7520   20.1450 C   0  0  0  0  0  2  0  0  0  0  0  0
  -24.6970  -31.0140   22.0620 N   0  0  0  0  0  0  0  0  0  0  0  0
  -23.5480  -32.1170   23.6890 O   0  0  0  0  0  0  0  0  0  0  0  0
  -22.7540  -29.4290   22.4900 C   0  0  0  0  0  0  0  0  0  0  0  0
  -21.4230  -29.2680   22.3780 N   0  0  0  0  0  0  0  0  0  0  0  0
  -23.4320  -28.7960   23.3020 O   0  0  0  0  0  0  0  0  0  0  0  0
  -20.9330  -29.8230   21.6910 H   0  0  0  0  0  0  0  0  0  0  0  0
  -18.0410  -28.0890   22.9190 C   0  0  0  0  0  0  0  0  0  0  0  0
  -20.6070  -28.3300   23.1560 C   0  0  0  0  0  3  0  0  0  0  0  0
  -20.6910  -26.9020   22.5680 C   0  0  0  0  0  2  0  0  0  0  0  0
  -19.5740  -26.5940   21.5670 C   0  0  0  0  0  2  0  0  0  0  0  0
  -18.2000  -26.7430   22.2300 C   0  0  0  0  0  2  0  0  0  0  0  0
  -19.1710  -28.8390   23.3400 C   0  0  0  0  0  0  0  0  0  0  0  0
  -18.9710  -30.0980   23.9480 C   0  0  0  0  0  3  0  0  0  0  0  0
  -17.6710  -30.6050   24.1390 C   0  0  0  0  0  3  0  0  0  0  0  0
  -16.5570  -29.8490   23.7390 C   0  0  0  0  0  3  0  0  0  0  0  0
  -16.7410  -28.5950   23.1320 C   0  0  0  0  0  3  0  0  0  0  0  0
  -25.9160  -32.4690   23.7760 C   0  0  0  0  0  3  0  0  0  0  0  0
  -25.5970  -33.8590   24.1310 N   0  0  0  0  0  0  0  0  0  0  0  0
  -25.9230  -34.9330   23.3970 C   0  0  0  0  0  0  0  0  0  0  0  0
  -26.5880  -34.8540   22.3620 O   0  0  0  0  0  0  0  0  0  0  0  0
  -25.0090  -33.9960   24.9380 H   0  0  0  0  0  0  0  0  0  0  0  0
  -24.1890  -36.7310   23.0900 C   0  0  0  0  0  1  0  0  0  0  0  0
  -25.4300  -36.3060   23.8900 C   0  0  0  0  0  3  0  0  0  0  0  0
  -27.5610  -37.1820   24.7380 C   0  0  0  0  0  1  0  0  0  0  0  0
  -26.4570  -37.3670   23.8000 N   0  0  0  0  0  0  0  0  0  0  0  0
  -26.0470  -38.2810   23.9700 H   0  0  0  0  0  0  0  0  0  0  0  0
  -26.4450  -31.6880   25.0430 C   0  0  1  0  0  0  0  0  0  0  0  0
  -25.3600  -31.4440   26.1190 C   0  0  0  0  0  1  0  0  0  0  0  0
  -27.0270  -30.3140   24.6380 C   0  0  0  0  0  1  0  0  0  0  0  0
  -27.5980  -32.4820   25.7020 C   0  0  0  0  0  1  0  0  0  0  0  0
  -30.0320  -21.9200   18.6920 C   0  0  0  0  0  2  0  0  0  0  0  0
  -27.9580  -19.2710   16.8880 C   0  0  0  0  0  2  0  0  0  0  0  0
  -28.7680  -19.0550   15.6050 C   0  0  0  0  0  2  0  0  0  0  0  0
  -28.2350  -20.6610   17.4760 C   0  0  0  0  0  2  0  0  0  0  0  0
  -30.4890  -20.7260   16.5280 C   0  0  0  0  0  2  0  0  0  0  0  0
  -30.2670  -19.3610   15.8210 C   0  0  0  0  0  3  0  0  0  0  0  0
  -31.0100  -19.2770   14.4830 C   0  0  0  0  0  1  0  0  0  0  0  0
  -29.6820  -20.7930   17.7770 N   0  0  1  0  0  4  0  0  0  0  0  0
  -29.9450  -19.9510   18.2630 H   0  0  0  0  0  0  0  0  0  0  0  0
  1 87  1  0
  1 44  1  0
  1  2  1  0
  2  3  2  0
  4  2  1  0
  4  5  1  0
  6 14  1  0
  7 12  1  0
  8  9  1  0
  8  7  1  0
 10  9  1  0
 10 19  1  0
 10 11  1  0
 12  6  1  0
 12 11  1  0
 13  6  2  0
 14 15  1  0
 14  5  1  0
 16 17  2  0
 17 36  1  0
 18 17  1  0
 18 21  1  0
 19 16  1  0
 19 20  1  0
 20 18  2  0
 21 22  1  0
 22 23  2  0
 24 27  1  0
 24 23  1  0
 25 24  2  0
 26 25  1  0
 26 21  2  0
 27 28  1  0
 28 29  1  0
 29 30  2  0
 31 30  1  0
 31 35  1  0
 32 31  2  0
 33 28  2  0
 33 32  1  0
 34 33  1  0
 36 37  1  0
 37 40  1  0
 37 39  1  0
 38 36  2  0
 41 42  1  0
 41 16  1  0
 43 41  1  0
 44 45  1  0
 46 48  1  0
 46 45  1  0
 47 58  2  0
 48 53  1  0
 49 57  1  0
 49 59  1  0
 50 56  1  0
 50 52  1  0
 51 57  1  0
 52 51  1  0
 53 52  2  0
 54 48  2  0
 55 54  1  0
 55 50  2  0
 56 49  1  0
 57 47  1  0
 59 61  2  0
 60 59  1  0
 62 60  1  0
 63 72  2  0
 63 68  1  0
 64 60  1  0
 64 68  1  0
 65 64  1  0
 66 67  1  0
 66 65  1  0
 67 63  1  0
 68 69  2  0
 69 70  1  0
 71 70  2  0
 72 71  1  0
 73 47  1  0
 73 74  1  0
 73 83  1  0
 74 77  1  0
 75 79  1  0
 75 74  1  0
 76 75  2  0
 79 78  1  0
 81 79  1  0
 81 82  1  0
 81 80  1  0
 83 86  1  1
 83 84  1  0
 85 83  1  0
 88 90  1  0
 89 92  1  0
 89 88  1  0
 90 94  1  0
 91 94  1  0
 92 93  1  0
 92 91  1  0
 94 95  1  1
 94 87  1  0
M  ISO  4   6 100  14 100  45 101  46 101
M  END
>  <TORSDO>  (59) 
F 23

>  <SCORE>  (59) 
-13.464

>  <name>  (59) 
58

>  <ligand_id>  (59) 
58

>  <original_smiles>  (59) 
[H]c1c([H])c([H])c2c(c1[H])C([H])([H])C([H])([H])C([H])([H])C2([H])N([H])C(=O)C1([H])N(C(=O)C([H])(N([H])C(=O)C([H])(N([H])C([H])([H])[H])C([H])([H])[H])C(C([H])([H])[H])(C([H])([H])[H])C([H])([H])[H])C([H])([H])c2c([H])c(OC([H])([H])C([H])([H])C([H])(C(=O)C([H])([H])C([H])([H])N([H])C(=O)N3C([H])([H])C([H])([H])C([H])([H])C([H])(n4nc(-c5c([H])c([H])c(Oc6c([H])c([H])c(F)c([H])c6F)c([H])c5[H])c(C(=O)N([H])[H])c4N([H])[H])C3([H])[H])C([H])([H])[N+]3([H])C([H])([H])C([H])([H])C([H])([H])C([H])(C([H])([H])[H])C3([H])[H])c([H])c([H])c2C1([H])[H]

>  <smiles>  (59) 
[H]c1c([H])c([H])c2c(c1[H])C([H])([H])C([H])([H])C([H])([H])C2([H])N([H])C(=O)C1([H])N(C(=O)C([H])(N([H])C(=O)C([H])(N([H])C([H])([H])[H])C([H])([H])[H])C(C([H])([H])[H])(C([H])([H])[H])C([H])([H])[H])C([H])([H])c2c([H])c(OC([H])([H])C([H])([H])C([H])(C(=O)C([H])([H])C([H])([H])N([H])C(=O)N3C([H])([H])C([H])([H])C([H])([H])C([H])(n4nc(-c5c([H])c([H])c(Oc6c([H])c([H])c(F)c([H])c6F)c([H])c5[H])c(C(=O)N([H])[H])c4N([H])[H])C3([H])[H])C([H])([H])[N+]3([H])C([H])([H])C([H])([H])C([H])([H])C([H])(C([H])([H])[H])C3([H])[H])c([H])c([H])c2C1([H])[H]

$$$$
59:0:0
     RDKit          3D

 92100  0  0  1  0  0  0  0  0999 V2000
  -29.1140  -18.7060   21.5090 C   0  0  0  0  0  2  0  0  0  0  0  0
  -29.9260  -19.2230   19.1560 C   0  0  0  0  0  2  0  0  0  0  0  0
  -29.5010  -20.1960   21.6650 C   0  0  0  0  0  2  0  0  0  0  0  0
  -29.0210  -20.4830   19.2320 C   0  0  0  0  0  2  0  0  0  0  0  0
  -29.5050  -18.0910   20.1400 C   0  0  0  0  0  3  0  0  0  0  0  0
  -28.8930  -21.0570   20.6070 N   0  0  2  0  0  4  0  0  0  0  0  0
  -27.9020  -21.0320   20.8050 H   0  0  0  0  0  0  0  0  0  0  0  0
  -30.9580  -14.6160   19.8890 C   0  0  0  0  0  0  0  0  0  0  0  0
  -30.5850  -12.4040   18.8600 C   0  0  0  0  0  2  0  0  0  0  0  0
  -29.5610  -12.5560   17.7180 C   0  0  0  0  0  2  0  0  0  0  0  0
  -28.1240  -12.4260   18.2590 C   0  0  0  0  0  2  0  0  0  0  0  0
  -27.8700  -13.3140   19.5080 C   0  0  0  0  0  3  0  0  0  0  0  0
  -29.0050  -13.1560   20.5440 C   0  0  0  0  0  2  0  0  0  0  0  0
  -30.2760  -13.4360   19.8610 N   0  0  0  0  0  0  0  0  0  0  0  0
  -32.0990  -14.7100   19.4320 O   0  0  0  0  0  0  0  0  0  0  0  0
  -30.5970  -16.9940   20.2660 C   0  0  0  0  0  0  0  0  0  0  0  0
  -30.2070  -15.6990   20.2090 N   0  0  0  0  0  0  0  0  0  0  0  0
  -31.7710  -17.3530   20.4080 O   0  0  0  0  0  0  0  0  0  0  0  0
  -29.2240  -15.5230   20.3220 H   0  0  0  0  0  0  0  0  0  0  0  0
  -25.5650  -13.9490   20.4490 C   0  0  0  0  0  0  0  0  0  0  0  0
  -24.5130  -13.1890   20.8840 C   0  0  0  0  0  0  0  0  0  0  0  0
  -24.9320  -11.8280   20.7630 C   0  0  0  0  0  0  0  0  0  0  0  0
  -26.5590  -13.0520   20.0960 N   0  0  0  0  0  0  0  0  0  0  0  0
  -26.1900  -11.7700   20.3430 N   0  0  0  0  0  0  0  0  0  0  0  0
  -24.1910  -10.5770   20.9670 C   0  0  0  0  0  0  0  0  0  0  0  0
  -24.6310   -9.6020   21.8900 C   0  0  0  0  0  3  0  0  0  0  0  0
  -23.8920   -8.4150   22.0820 C   0  0  0  0  0  3  0  0  0  0  0  0
  -22.7000   -8.1940   21.3510 C   0  0  0  0  0  0  0  0  0  0  0  0
  -22.2810   -9.1580   20.4160 C   0  0  0  0  0  3  0  0  0  0  0  0
  -23.0200  -10.3370   20.2230 C   0  0  0  0  0  3  0  0  0  0  0  0
  -21.9330   -7.0590   21.4510 O   0  0  0  0  0  0  0  0  0  0  0  0
  -21.8430   -6.3540   22.6250 C   0  0  0  0  0  0  0  0  0  0  0  0
  -21.3180   -6.9290   23.8030 C   0  0  0  0  0  3  0  0  0  0  0  0
  -21.1800   -6.1470   24.9660 C   0  0  0  0  0  3  0  0  0  0  0  0
  -21.5560   -4.7900   24.9530 C   0  0  0  0  0  0  0  0  0  0  0  0
  -22.0750   -4.2160   23.7790 C   0  0  0  0  0  3  0  0  0  0  0  0
  -22.2140   -4.9950   22.6170 C   0  0  0  0  0  0  0  0  0  0  0  0
  -22.6930   -4.4290   21.4830 F   0  0  0  0  0  0  0  0  0  0  0  0
  -21.4180   -4.0360   26.0680 F   0  0  0  0  0  0  0  0  0  0  0  0
  -23.1570  -13.6880   21.2920 C   0  0  0  0  0  0  0  0  0  0  0  0
  -22.4880  -12.9760   22.1910 N   0  0  0  0  0  0  0  0  0  0  0  0
  -22.7030  -14.7430   20.8480 O   0  0  0  0  0  0  0  0  0  0  0  0
  -22.8700  -12.1220   22.5680 H   0  0  0  0  0  0  0  0  0  0  0  0
  -21.5810  -13.2890   22.5090 H   0  0  0  0  0  0  0  0  0  0  0  0
  -25.7510  -15.3200   20.3010 N   0  0  0  0  0  0  0  0  0  0  0  0
  -24.9990  -15.9790   20.4730 H   0  0  0  0  0  0  0  0  0  0  0  0
  -26.5430  -15.7380   19.8330 H   0  0  0  0  0  0  0  0  0  0  0  0
  -29.2710  -22.5030   20.7370 C   0  0  0  0  0  2  0  0  0  0  0  0
  -28.2110  -23.4990   20.1750 C   0  0  0  0  0  2  0  0  0  0  0  0
  -27.9540  -24.7670   21.0460 C   0  0  0  0  0  2  0  0  0  0  0  0
  -28.8700  -26.0040   20.8280 C   0  0  0  0  0  2  0  0  0  0  0  0
  -28.5480  -26.8070   19.6840 O   0  0  0  0  0  0  0  0  0  0  0  0
  -24.6220  -31.6860   23.1450 C   0  0  0  0  0  0  0  0  0  0  0  0
  -27.3840  -27.5350   19.7800 C   0  0  0  0  0  0  0  0  0  0  0  0
  -23.4510  -30.3530   21.4230 C   0  0  0  0  0  3  0  0  0  0  0  0
  -24.9460  -28.9560   19.8980 C   0  0  0  0  0  0  0  0  0  0  0  0
  -25.9630  -30.8030   21.2400 C   0  0  0  0  0  2  0  0  0  0  0  0
  -26.0900  -29.4760   20.5190 C   0  0  0  0  0  0  0  0  0  0  0  0
  -27.3140  -28.7690   20.4680 C   0  0  0  0  0  3  0  0  0  0  0  0
  -26.2320  -27.0370   19.1420 C   0  0  0  0  0  3  0  0  0  0  0  0
  -25.0110  -27.7320   19.2100 C   0  0  0  0  0  3  0  0  0  0  0  0
  -23.6740  -29.7670   20.0040 C   0  0  0  0  0  2  0  0  0  0  0  0
  -24.6970  -30.9580   21.9950 N   0  0  0  0  0  0  0  0  0  0  0  0
  -23.5350  -31.8860   23.7060 O   0  0  0  0  0  0  0  0  0  0  0  0
  -22.8390  -29.2530   22.3190 C   0  0  0  0  0  0  0  0  0  0  0  0
  -21.5220  -29.0320   22.1810 N   0  0  0  0  0  0  0  0  0  0  0  0
  -23.5480  -28.6020   23.0920 O   0  0  0  0  0  0  0  0  0  0  0  0
  -21.0100  -29.6160   21.5350 H   0  0  0  0  0  0  0  0  0  0  0  0
  -18.1920  -27.6990   22.6150 C   0  0  0  0  0  0  0  0  0  0  0  0
  -20.7400  -28.0200   22.8910 C   0  0  0  0  0  3  0  0  0  0  0  0
  -20.8870  -26.6330   22.2230 C   0  0  0  0  0  2  0  0  0  0  0  0
  -19.7880  -26.3380   21.1970 C   0  0  0  0  0  2  0  0  0  0  0  0
  -18.4060  -26.4000   21.8550 C   0  0  0  0  0  2  0  0  0  0  0  0
  -19.2880  -28.4670   23.0880 C   0  0  0  0  0  0  0  0  0  0  0  0
  -19.0340  -29.6840   23.7550 C   0  0  0  0  0  3  0  0  0  0  0  0
  -17.7160  -30.1330   23.9600 C   0  0  0  0  0  3  0  0  0  0  0  0
  -16.6330  -29.3590   23.5070 C   0  0  0  0  0  3  0  0  0  0  0  0
  -16.8710  -28.1450   22.8400 C   0  0  0  0  0  3  0  0  0  0  0  0
  -25.8920  -32.3170   23.7970 C   0  0  0  0  0  3  0  0  0  0  0  0
  -26.3960  -31.5280   25.0680 C   0  0  1  0  0  0  0  0  0  0  0  0
  -25.2870  -31.2630   26.1120 C   0  0  0  0  0  1  0  0  0  0  0  0
  -26.9970  -30.1630   24.6610 C   0  0  0  0  0  1  0  0  0  0  0  0
  -27.5280  -32.3210   25.7610 C   0  0  0  0  0  1  0  0  0  0  0  0
  -25.5680  -33.7070   24.1410 N   0  0  0  0  0  0  0  0  0  0  0  0
  -25.9060  -34.7720   23.4030 C   0  0  0  0  0  0  0  0  0  0  0  0
  -26.5930  -34.6860   22.3810 O   0  0  0  0  0  0  0  0  0  0  0  0
  -24.9560  -33.8480   24.9320 H   0  0  0  0  0  0  0  0  0  0  0  0
  -24.1670  -36.5530   23.0410 C   0  0  0  0  0  1  0  0  0  0  0  0
  -25.3990  -36.1500   23.8670 C   0  0  0  0  0  3  0  0  0  0  0  0
  -27.5010  -37.0530   24.7570 C   0  0  0  0  0  1  0  0  0  0  0  0
  -26.4240  -37.2130   23.7830 N   0  0  0  0  0  0  0  0  0  0  0  0
  -26.0060  -38.1290   23.9200 H   0  0  0  0  0  0  0  0  0  0  0  0
  1  3  1  0
  2  4  1  0
  2  5  1  0
  4  6  1  0
  5 16  1  0
  5  1  1  0
  6 48  1  0
  6  7  1  1
  6  3  1  0
  8 17  1  0
  9 14  1  0
 10 11  1  0
 10  9  1  0
 12 11  1  0
 12 23  1  0
 12 13  1  0
 14  8  1  0
 14 13  1  0
 15  8  2  0
 16 18  2  0
 17 16  1  0
 17 19  1  0
 20 21  2  0
 21 40  1  0
 22 21  1  0
 22 25  1  0
 23 24  1  0
 23 20  1  0
 24 22  2  0
 25 26  1  0
 26 27  2  0
 28 31  1  0
 28 27  1  0
 29 28  2  0
 30 29  1  0
 30 25  2  0
 31 32  1  0
 32 33  1  0
 33 34  2  0
 35 34  1  0
 35 39  1  0
 36 35  2  0
 37 32  2  0
 37 36  1  0
 38 37  1  0
 40 41  1  0
 41 44  1  0
 41 43  1  0
 42 40  2  0
 45 20  1  0
 45 46  1  0
 47 45  1  0
 49 48  1  0
 49 50  1  0
 51 50  1  0
 52 54  1  0
 52 51  1  0
 53 64  2  0
 54 59  1  0
 55 63  1  0
 55 65  1  0
 56 62  1  0
 56 58  1  0
 57 63  1  0
 58 57  1  0
 59 58  2  0
 60 61  1  0
 60 54  2  0
 61 56  2  0
 62 55  1  0
 63 53  1  0
 65 67  2  0
 66 65  1  0
 68 66  1  0
 69 78  2  0
 69 74  1  0
 70 66  1  0
 70 74  1  0
 71 70  1  0
 72 73  1  0
 72 71  1  0
 73 69  1  0
 74 75  2  0
 75 76  1  0
 77 76  2  0
 78 77  1  0
 79 53  1  0
 79 84  1  0
 79 80  1  0
 80 83  1  1
 80 81  1  0
 82 80  1  0
 84 87  1  0
 85 89  1  0
 85 84  1  0
 86 85  2  0
 89 88  1  0
 91 89  1  0
 91 92  1  0
 91 90  1  0
M  ISO  4   8 100  17 100  51 101  52 101
M  END
>  <TORSDO>  (60) 
F 20

>  <SCORE>  (60) 
-12.222

>  <name>  (60) 
59

>  <ligand_id>  (60) 
59

>  <original_smiles>  (60) 
[H]c1c([H])c([H])c2c(c1[H])C([H])([H])C([H])([H])C([H])([H])C2([H])N([H])C(=O)C1([H])N(C(=O)C([H])(N([H])C(=O)C([H])(N([H])C([H])([H])[H])C([H])([H])[H])C(C([H])([H])[H])(C([H])([H])[H])C([H])([H])[H])C([H])([H])c2c([H])c(OC([H])([H])C([H])([H])C([H])([H])C([H])([H])[N+]3([H])C([H])([H])C([H])([H])C([H])(C(=O)N([H])C(=O)N4C([H])([H])C([H])([H])C([H])([H])C([H])(n5nc(-c6c([H])c([H])c(Oc7c([H])c([H])c(F)c([H])c7F)c([H])c6[H])c(C(=O)N([H])[H])c5N([H])[H])C4([H])[H])C([H])([H])C3([H])[H])c([H])c([H])c2C1([H])[H]

>  <smiles>  (60) 
[H]c1c([H])c([H])c2c(c1[H])C([H])([H])C([H])([H])C([H])([H])C2([H])N([H])C(=O)C1([H])N(C(=O)C([H])(N([H])C(=O)C([H])(N([H])C([H])([H])[H])C([H])([H])[H])C(C([H])([H])[H])(C([H])([H])[H])C([H])([H])[H])C([H])([H])c2c([H])c(OC([H])([H])C([H])([H])C([H])([H])C([H])([H])[N+]3([H])C([H])([H])C([H])([H])C([H])(C(=O)N([H])C(=O)N4C([H])([H])C([H])([H])C([H])([H])C([H])(n5nc(-c6c([H])c([H])c(Oc7c([H])c([H])c(F)c([H])c7F)c([H])c6[H])c(C(=O)N([H])[H])c5N([H])[H])C4([H])[H])C([H])([H])C3([H])[H])c([H])c([H])c2C1([H])[H]

$$$$
60:0:0
     RDKit          3D

 95103  0  0  1  0  0  0  0  0999 V2000
  -32.0760  -19.7820   19.0510 C   0  0  0  0  0  2  0  0  0  0  0  0
  -31.7210  -21.0250   19.8950 C   0  0  0  0  0  2  0  0  0  0  0  0
  -30.1380  -19.6640   21.1740 C   0  0  0  0  0  2  0  0  0  0  0  0
  -31.9670  -18.4430   19.8250 C   0  0  0  0  0  3  0  0  0  0  0  0
  -30.5400  -18.3210   20.4320 C   0  0  0  0  0  3  0  0  0  0  0  0
  -30.3270  -20.9470   20.4000 N   0  0  1  0  0  4  0  0  0  0  0  0
  -29.7400  -20.8710   19.5820 H   0  0  0  0  0  0  0  0  0  0  0  0
  -34.5220  -18.5680   20.2950 C   0  0  0  0  0  1  0  0  0  0  0  0
  -33.1270  -18.2110   20.8370 C   0  0  0  0  0  2  0  0  0  0  0  0
  -30.3430  -17.0500   21.3520 C   0  0  0  0  0  2  0  0  0  0  0  0
  -30.8830  -14.7310   20.2280 C   0  0  0  0  0  0  0  0  0  0  0  0
  -30.6210  -12.5710   19.0190 C   0  0  0  0  0  2  0  0  0  0  0  0
  -29.6130  -12.7390   17.8590 C   0  0  0  0  0  2  0  0  0  0  0  0
  -28.1620  -12.5630   18.3530 C   0  0  0  0  0  2  0  0  0  0  0  0
  -27.8650  -13.3770   19.6400 C   0  0  0  0  0  3  0  0  0  0  0  0
  -28.9700  -13.1530   20.6950 C   0  0  0  0  0  2  0  0  0  0  0  0
  -30.2520  -13.5290   20.0750 N   0  0  0  0  0  0  0  0  0  0  0  0
  -32.0130  -14.9470   19.7910 O   0  0  0  0  0  0  0  0  0  0  0  0
  -30.1000  -15.7000   20.7730 N   0  0  0  0  0  0  0  0  0  0  0  0
  -29.1770  -15.3490   20.9790 H   0  0  0  0  0  0  0  0  0  0  0  0
  -25.5100  -13.9620   20.4950 C   0  0  0  0  0  0  0  0  0  0  0  0
  -24.4560  -13.1780   20.8810 C   0  0  0  0  0  0  0  0  0  0  0  0
  -24.9050  -11.8270   20.7660 C   0  0  0  0  0  0  0  0  0  0  0  0
  -26.5360  -13.0860   20.1720 N   0  0  0  0  0  0  0  0  0  0  0  0
  -26.1790  -11.7950   20.3930 N   0  0  0  0  0  0  0  0  0  0  0  0
  -24.1800  -10.5600   20.9330 C   0  0  0  0  0  0  0  0  0  0  0  0
  -24.6060   -9.5840   21.8570 C   0  0  0  0  0  3  0  0  0  0  0  0
  -23.8840   -8.3810   22.0130 C   0  0  0  0  0  3  0  0  0  0  0  0
  -22.7210   -8.1480   21.2400 C   0  0  0  0  0  0  0  0  0  0  0  0
  -22.3140   -9.1140   20.3020 C   0  0  0  0  0  3  0  0  0  0  0  0
  -23.0360  -10.3090   20.1470 C   0  0  0  0  0  3  0  0  0  0  0  0
  -21.9710   -6.9980   21.3030 O   0  0  0  0  0  0  0  0  0  0  0  0
  -21.8640   -6.2740   22.4620 C   0  0  0  0  0  0  0  0  0  0  0  0
  -21.3000   -6.8210   23.6360 C   0  0  0  0  0  3  0  0  0  0  0  0
  -21.1440   -6.0180   24.7830 C   0  0  0  0  0  3  0  0  0  0  0  0
  -21.5420   -4.6690   24.7580 C   0  0  0  0  0  0  0  0  0  0  0  0
  -22.0990   -4.1200   23.5890 C   0  0  0  0  0  3  0  0  0  0  0  0
  -22.2560   -4.9190   22.4440 C   0  0  0  0  0  0  0  0  0  0  0  0
  -22.7740   -4.3800   21.3140 F   0  0  0  0  0  0  0  0  0  0  0  0
  -21.3860   -3.8950   25.8580 F   0  0  0  0  0  0  0  0  0  0  0  0
  -23.0750  -13.6490   21.2430 C   0  0  0  0  0  0  0  0  0  0  0  0
  -22.3810  -12.9090   22.1000 N   0  0  0  0  0  0  0  0  0  0  0  0
  -22.6220  -14.7040   20.8010 O   0  0  0  0  0  0  0  0  0  0  0  0
  -22.7610  -12.0520   22.4750 H   0  0  0  0  0  0  0  0  0  0  0  0
  -21.4590  -13.2030   22.3850 H   0  0  0  0  0  0  0  0  0  0  0  0
  -25.6810  -15.3390   20.3690 N   0  0  0  0  0  0  0  0  0  0  0  0
  -24.9280  -16.0000   20.5310 H   0  0  0  0  0  0  0  0  0  0  0  0
  -26.5130  -15.7710   19.9890 H   0  0  0  0  0  0  0  0  0  0  0  0
  -29.8330  -22.1700   21.1580 C   0  0  0  0  0  2  0  0  0  0  0  0
  -30.2980  -23.6360   20.7570 C   0  0  0  0  0  2  0  0  0  0  0  0
  -29.6320  -24.4650   19.5900 C   0  0  0  0  0  3  0  0  0  0  0  0
  -29.3180  -24.3230   17.0020 C   0  0  0  0  0  1  0  0  0  0  0  0
  -29.4660  -23.5670   18.3360 C   0  0  0  0  0  2  0  0  0  0  0  0
  -28.3270  -25.2960   19.9150 C   0  0  0  0  0  2  0  0  0  0  0  0
  -28.4240  -26.7270   20.2180 O   0  0  0  0  0  0  0  0  0  0  0  0
  -24.5310  -31.9660   23.3010 C   0  0  0  0  0  0  0  0  0  0  0  0
  -27.2470  -27.4960   20.2170 C   0  0  0  0  0  0  0  0  0  0  0  0
  -23.3590  -30.5650   21.6430 C   0  0  0  0  0  3  0  0  0  0  0  0
  -24.8430  -29.0530   20.2230 C   0  0  0  0  0  0  0  0  0  0  0  0
  -25.8970  -30.9260   21.4880 C   0  0  0  0  0  2  0  0  0  0  0  0
  -26.0040  -29.5620   20.8200 C   0  0  0  0  0  0  0  0  0  0  0  0
  -27.2080  -28.7960   20.8010 C   0  0  0  0  0  3  0  0  0  0  0  0
  -26.0410  -27.0220   19.6400 C   0  0  0  0  0  3  0  0  0  0  0  0
  -24.8630  -27.7870   19.6290 C   0  0  0  0  0  3  0  0  0  0  0  0
  -23.5930  -29.9040   20.2620 C   0  0  0  0  0  2  0  0  0  0  0  0
  -24.6140  -31.1670   22.2010 N   0  0  0  0  0  0  0  0  0  0  0  0
  -23.4390  -32.2280   23.8250 O   0  0  0  0  0  0  0  0  0  0  0  0
  -22.7000  -29.5300   22.5880 C   0  0  0  0  0  0  0  0  0  0  0  0
  -21.3890  -29.2970   22.4070 N   0  0  0  0  0  0  0  0  0  0  0  0
  -23.3690  -28.9470   23.4450 O   0  0  0  0  0  0  0  0  0  0  0  0
  -20.9040  -29.8400   21.7060 H   0  0  0  0  0  0  0  0  0  0  0  0
  -18.0530  -27.9510   22.7560 C   0  0  0  0  0  0  0  0  0  0  0  0
  -20.5760  -28.3400   23.1570 C   0  0  0  0  0  3  0  0  0  0  0  0
  -20.7760  -26.9010   22.6270 C   0  0  0  0  0  2  0  0  0  0  0  0
  -19.7480  -26.4990   21.5650 C   0  0  0  0  0  2  0  0  0  0  0  0
  -18.3280  -26.5950   22.1300 C   0  0  0  0  0  2  0  0  0  0  0  0
  -19.1080  -28.7780   23.2260 C   0  0  0  0  0  0  0  0  0  0  0  0
  -18.7990  -30.0440   23.7670 C   0  0  0  0  0  3  0  0  0  0  0  0
  -17.4650  -30.4840   23.8550 C   0  0  0  0  0  3  0  0  0  0  0  0
  -16.4220  -29.6550   23.4090 C   0  0  0  0  0  3  0  0  0  0  0  0
  -16.7160  -28.3940   22.8610 C   0  0  0  0  0  3  0  0  0  0  0  0
  -25.7980  -32.6130   23.9370 C   0  0  0  0  0  3  0  0  0  0  0  0
  -25.4690  -34.0070   24.2630 N   0  0  0  0  0  0  0  0  0  0  0  0
  -25.8030  -35.0650   23.5120 C   0  0  0  0  0  0  0  0  0  0  0  0
  -26.4920  -34.9740   22.4930 O   0  0  0  0  0  0  0  0  0  0  0  0
  -24.8600  -34.1540   25.0540 H   0  0  0  0  0  0  0  0  0  0  0  0
  -24.0730  -36.8550   23.1420 C   0  0  0  0  0  1  0  0  0  0  0  0
  -25.3000  -36.4450   23.9730 C   0  0  0  0  0  3  0  0  0  0  0  0
  -27.3960  -37.3490   24.8790 C   0  0  0  0  0  1  0  0  0  0  0  0
  -26.3290  -37.5040   23.8940 N   0  0  0  0  0  0  0  0  0  0  0  0
  -25.9110  -38.4200   24.0270 H   0  0  0  0  0  0  0  0  0  0  0  0
  -26.3110  -31.8490   25.2190 C   0  0  1  0  0  0  0  0  0  0  0  0
  -25.1990  -31.5630   26.2540 C   0  0  0  0  0  1  0  0  0  0  0  0
  -26.9550  -30.4960   24.8380 C   0  0  0  0  0  1  0  0  0  0  0  0
  -27.4110  -32.6850   25.9160 C   0  0  0  0  0  1  0  0  0  0  0  0
  1  4  1  0
  1  2  1  0
  2  6  1  0
  4  5  1  0
  4  9  1  0
  5  3  1  0
  5 10  1  0
  6 49  1  0
  6  3  1  0
  6  7  1  6
  8  9  1  0
 11 19  1  0
 12 17  1  0
 13 14  1  0
 13 12  1  0
 15 14  1  0
 15 24  1  0
 15 16  1  0
 17 11  1  0
 17 16  1  0
 18 11  2  0
 19 20  1  0
 19 10  1  0
 21 22  2  0
 22 41  1  0
 23 22  1  0
 23 26  1  0
 24 25  1  0
 24 21  1  0
 25 23  2  0
 26 27  1  0
 27 28  2  0
 29 32  1  0
 29 28  1  0
 30 29  2  0
 31 30  1  0
 31 26  2  0
 32 33  1  0
 33 34  1  0
 34 35  2  0
 36 35  1  0
 36 40  1  0
 37 36  2  0
 38 33  2  0
 38 37  1  0
 39 38  1  0
 41 42  1  0
 42 45  1  0
 42 44  1  0
 43 41  2  0
 46 21  1  0
 46 47  1  0
 48 46  1  0
 50 49  1  0
 51 53  1  0
 51 54  1  0
 51 50  1  0
 52 53  1  0
 54 55  1  0
 56 67  2  0
 57 55  1  0
 57 62  1  0
 58 66  1  0
 58 68  1  0
 59 65  1  0
 59 61  1  0
 60 66  1  0
 61 60  1  0
 62 61  2  0
 63 57  2  0
 64 63  1  0
 64 59  2  0
 65 58  1  0
 66 56  1  0
 68 70  2  0
 69 68  1  0
 71 69  1  0
 72 81  2  0
 72 77  1  0
 73 69  1  0
 73 77  1  0
 74 73  1  0
 75 76  1  0
 75 74  1  0
 76 72  1  0
 77 78  2  0
 78 79  1  0
 80 79  2  0
 81 80  1  0
 82 56  1  0
 82 83  1  0
 82 92  1  0
 83 86  1  0
 84 88  1  0
 84 83  1  0
 85 84  2  0
 88 87  1  0
 90 88  1  0
 90 91  1  0
 90 89  1  0
 92 95  1  1
 92 93  1  0
 94 92  1  0
M  ISO  4  11 100  19 100  54 101  55 101
M  END
>  <TORSDO>  (61) 
F 23

>  <SCORE>  (61) 
-12.327

>  <name>  (61) 
60

>  <ligand_id>  (61) 
60

>  <original_smiles>  (61) 
[H]c1c([H])c([H])c2c(c1[H])C([H])([H])C([H])([H])C([H])([H])C2([H])N([H])C(=O)C1([H])N(C(=O)C([H])(N([H])C(=O)C([H])(N([H])C([H])([H])[H])C([H])([H])[H])C(C([H])([H])[H])(C([H])([H])[H])C([H])([H])[H])C([H])([H])c2c([H])c(OC([H])([H])C([H])(C([H])([H])C([H])([H])[H])C([H])([H])C([H])([H])[N+]3([H])C([H])([H])C([H])([H])C([H])(C([H])([H])C([H])([H])[H])C([H])(C([H])([H])N([H])C(=O)N4C([H])([H])C([H])([H])C([H])([H])C([H])(n5nc(-c6c([H])c([H])c(Oc7c([H])c([H])c(F)c([H])c7F)c([H])c6[H])c(C(=O)N([H])[H])c5N([H])[H])C4([H])[H])C3([H])[H])c([H])c([H])c2C1([H])[H]

>  <smiles>  (61) 
[H]c1c([H])c([H])c2c(c1[H])C([H])([H])C([H])([H])C([H])([H])C2([H])N([H])C(=O)C1([H])N(C(=O)C([H])(N([H])C(=O)C([H])(N([H])C([H])([H])[H])C([H])([H])[H])C(C([H])([H])[H])(C([H])([H])[H])C([H])([H])[H])C([H])([H])c2c([H])c(OC([H])([H])C([H])(C([H])([H])C([H])([H])[H])C([H])([H])C([H])([H])[N+]3([H])C([H])([H])C([H])([H])C([H])(C([H])([H])C([H])([H])[H])C([H])(C([H])([H])N([H])C(=O)N4C([H])([H])C([H])([H])C([H])([H])C([H])(n5nc(-c6c([H])c([H])c(Oc7c([H])c([H])c(F)c([H])c7F)c([H])c6[H])c(C(=O)N([H])[H])c5N([H])[H])C4([H])[H])C3([H])[H])c([H])c([H])c2C1([H])[H]

$$$$
61:0:0
     RDKit          3D

 96104  0  0  1  0  0  0  0  0999 V2000
  -39.1580  -23.8860   10.3920 C   0  0  0  0  0  3  0  0  0  0  0  0
  -36.3920  -27.9290   11.5150 C   0  0  0  0  0  0  0  0  0  0  0  0
  -34.5070  -29.1730   12.5340 C   0  0  0  0  0  2  0  0  0  0  0  0
  -33.4880  -28.2300   13.2080 C   0  0  0  0  0  2  0  0  0  0  0  0
  -32.4190  -27.7950   12.1900 C   0  0  0  0  0  2  0  0  0  0  0  0
  -33.0510  -27.2630   10.8790 C   0  0  0  0  0  3  0  0  0  0  0  0
  -34.1360  -28.2210   10.3460 C   0  0  0  0  0  2  0  0  0  0  0  0
  -35.1360  -28.4580   11.4040 N   0  0  0  0  0  0  0  0  0  0  0  0
  -37.0630  -28.0960   12.5420 O   0  0  0  0  0  0  0  0  0  0  0  0
  -37.8910  -25.2090    8.5390 C   0  0  0  0  0  2  0  0  0  0  0  0
  -37.0740  -27.5080    9.1740 C   0  0  0  0  0  2  0  0  0  0  0  0
  -37.8850  -26.0850   10.9430 C   0  0  0  0  0  2  0  0  0  0  0  0
  -36.8490  -26.3070    8.2360 C   0  0  0  0  0  3  0  0  0  0  0  0
  -37.9450  -24.8210   10.0320 C   0  0  0  0  0  3  0  0  0  0  0  0
  -36.9150  -26.7120    6.7580 C   0  0  0  0  0  1  0  0  0  0  0  0
  -36.8460  -27.0730   10.5590 N   0  0  0  0  0  0  0  0  0  0  0  0
  -31.6370  -25.8010    9.3020 C   0  0  0  0  0  0  0  0  0  0  0  0
  -30.6170  -26.1040    8.4420 C   0  0  0  0  0  0  0  0  0  0  0  0
  -30.4510  -27.5200    8.5080 C   0  0  0  0  0  0  0  0  0  0  0  0
  -32.0410  -27.0060    9.8530 N   0  0  0  0  0  0  0  0  0  0  0  0
  -31.3560  -28.0530    9.3200 N   0  0  0  0  0  0  0  0  0  0  0  0
  -29.4450  -28.3950    7.8930 C   0  0  0  0  0  0  0  0  0  0  0  0
  -28.0950  -28.3710    8.3080 C   0  0  0  0  0  3  0  0  0  0  0  0
  -27.1470  -29.2300    7.7100 C   0  0  0  0  0  3  0  0  0  0  0  0
  -27.5460  -30.1260    6.6910 C   0  0  0  0  0  0  0  0  0  0  0  0
  -28.8850  -30.1280    6.2640 C   0  0  0  0  0  3  0  0  0  0  0  0
  -29.8260  -29.2690    6.8560 C   0  0  0  0  0  3  0  0  0  0  0  0
  -26.6930  -30.9790    6.0340 O   0  0  0  0  0  0  0  0  0  0  0  0
  -27.1120  -31.7440    4.9760 C   0  0  0  0  0  0  0  0  0  0  0  0
  -26.8840  -31.3550    3.6380 C   0  0  0  0  0  3  0  0  0  0  0  0
  -27.2730  -32.2050    2.5820 C   0  0  0  0  0  3  0  0  0  0  0  0
  -27.8790  -33.4450    2.8630 C   0  0  0  0  0  0  0  0  0  0  0  0
  -28.0980  -33.8360    4.1950 C   0  0  0  0  0  3  0  0  0  0  0  0
  -27.7140  -32.9880    5.2480 C   0  0  0  0  0  0  0  0  0  0  0  0
  -27.9110  -33.3780    6.5310 F   0  0  0  0  0  0  0  0  0  0  0  0
  -28.2430  -34.2670    1.8510 F   0  0  0  0  0  0  0  0  0  0  0  0
  -29.7730  -25.1260    7.6750 C   0  0  0  0  0  0  0  0  0  0  0  0
  -29.6840  -25.2950    6.3600 N   0  0  0  0  0  0  0  0  0  0  0  0
  -29.2230  -24.1800    8.2370 O   0  0  0  0  0  0  0  0  0  0  0  0
  -30.1520  -26.0620    5.9010 H   0  0  0  0  0  0  0  0  0  0  0  0
  -29.1350  -24.6530    5.8060 H   0  0  0  0  0  0  0  0  0  0  0  0
  -32.2420  -24.6050    9.6770 N   0  0  0  0  0  0  0  0  0  0  0  0
  -31.9330  -23.7070    9.3220 H   0  0  0  0  0  0  0  0  0  0  0  0
  -32.9880  -24.5310   10.3570 H   0  0  0  0  0  0  0  0  0  0  0  0
  -39.2910  -22.7240    9.4570 N   0  0  0  0  0  4  0  0  0  0  0  0
  -38.4820  -22.7250    8.8590 H   0  0  0  0  0  0  0  0  0  0  0  0
  -40.0940  -22.8730    8.8660 H   0  0  0  0  0  0  0  0  0  0  0  0
  -39.3890  -21.3690   10.0780 C   0  0  0  0  0  2  0  0  0  0  0  0
  -38.4150  -21.1680   11.2690 C   0  0  0  0  0  2  0  0  0  0  0  0
  -38.8570  -20.1160   12.3300 C   0  0  0  0  0  2  0  0  0  0  0  0
  -39.8350  -19.0720   11.7330 C   0  0  0  0  0  2  0  0  0  0  0  0
  -39.9920  -17.8370   12.4700 O   0  0  0  0  0  0  0  0  0  0  0  0
  -34.3530  -13.8370   14.2470 C   0  0  0  0  0  0  0  0  0  0  0  0
  -39.1300  -16.8170   12.0890 C   0  0  0  0  0  0  0  0  0  0  0  0
  -35.7140  -13.0130   12.3570 C   0  0  0  0  0  3  0  0  0  0  0  0
  -37.4110  -14.6630   11.4100 C   0  0  0  0  0  0  0  0  0  0  0  0
  -35.5750  -15.5200   12.8700 C   0  0  0  0  0  2  0  0  0  0  0  0
  -36.9690  -15.6600   12.2900 C   0  0  0  0  0  0  0  0  0  0  0  0
  -37.8210  -16.7430   12.6240 C   0  0  0  0  0  3  0  0  0  0  0  0
  -39.5380  -15.8100   11.1800 C   0  0  0  0  0  3  0  0  0  0  0  0
  -38.6950  -14.7370   10.8490 C   0  0  0  0  0  3  0  0  0  0  0  0
  -36.4550  -13.5340   11.0990 C   0  0  0  0  0  2  0  0  0  0  0  0
  -35.1980  -14.1260   13.2170 N   0  0  0  0  0  0  0  0  0  0  0  0
  -33.9760  -12.6770   14.4610 O   0  0  0  0  0  0  0  0  0  0  0  0
  -36.6450  -12.0360   13.1110 C   0  0  0  0  0  0  0  0  0  0  0  0
  -36.6780  -10.7700   12.6620 N   0  0  0  0  0  0  0  0  0  0  0  0
  -37.3330  -12.4250   14.0590 O   0  0  0  0  0  0  0  0  0  0  0  0
  -36.0760  -10.5290   11.8860 H   0  0  0  0  0  0  0  0  0  0  0  0
  -36.6780   -7.2680   13.5520 C   0  0  0  0  0  0  0  0  0  0  0  0
  -37.5070   -9.6890   13.1940 C   0  0  0  0  0  3  0  0  0  0  0  0
  -38.4290   -9.1040   12.1010 C   0  0  0  0  0  2  0  0  0  0  0  0
  -37.8230   -7.8960   11.3820 C   0  0  0  0  0  2  0  0  0  0  0  0
  -37.5140   -6.7750   12.3790 C   0  0  0  0  0  2  0  0  0  0  0  0
  -36.6630   -8.6380   13.9220 C   0  0  0  0  0  0  0  0  0  0  0  0
  -35.8400   -9.0480   14.9940 C   0  0  0  0  0  3  0  0  0  0  0  0
  -35.0490   -8.1170   15.6910 C   0  0  0  0  0  3  0  0  0  0  0  0
  -35.0810   -6.7580   15.3320 C   0  0  0  0  0  3  0  0  0  0  0  0
  -35.8970   -6.3370   14.2670 C   0  0  0  0  0  3  0  0  0  0  0  0
  -33.8030  -14.9520   15.1900 C   0  0  0  0  0  3  0  0  0  0  0  0
  -33.6100  -14.4700   16.6800 C   0  0  1  0  0  0  0  0  0  0  0  0
  -32.3390  -13.6150   16.8990 C   0  0  0  0  0  1  0  0  0  0  0  0
  -34.8260  -13.6340   17.1450 C   0  0  0  0  0  1  0  0  0  0  0  0
  -33.5270  -15.6940   17.6210 C   0  0  0  0  0  1  0  0  0  0  0  0
  -32.5290  -15.4210   14.6270 N   0  0  0  0  0  0  0  0  0  0  0  0
  -32.2860  -16.6800   14.2370 C   0  0  0  0  0  0  0  0  0  0  0  0
  -33.1010  -17.5940   14.3820 O   0  0  0  0  0  0  0  0  0  0  0  0
  -31.8340  -14.7150   14.4350 H   0  0  0  0  0  0  0  0  0  0  0  0
  -30.8980  -16.3690   12.1640 C   0  0  0  0  0  1  0  0  0  0  0  0
  -30.9220  -16.9660   13.5810 C   0  0  0  0  0  3  0  0  0  0  0  0
  -29.7400  -18.8490   14.6210 C   0  0  0  0  0  1  0  0  0  0  0  0
  -30.5900  -18.4060   13.5180 N   0  0  0  0  0  0  0  0  0  0  0  0
  -30.1220  -18.6310   12.6440 H   0  0  0  0  0  0  0  0  0  0  0  0
  -41.5200  -24.6680    9.4730 C   0  0  0  0  0  1  0  0  0  0  0  0
  -40.5070  -24.6630   10.6480 C   0  0  0  0  0  3  0  0  0  0  0  0
  -40.8420  -25.2810   13.1420 C   0  0  0  0  0  1  0  0  0  0  0  0
  -41.1850  -24.3150   11.9950 C   0  0  0  0  0  2  0  0  0  0  0  0
  1 45  1  0
  1 94  1  0
  2  9  2  0
  3  4  1  0
  5  4  1  0
  6 20  1  0
  6  5  1  0
  7  6  1  0
  7  8  1  0
  8  2  1  0
  8  3  1  0
 10 14  1  0
 11 16  1  0
 13 15  1  0
 13 10  1  0
 13 11  1  0
 14  1  1  0
 14 12  1  0
 16 12  1  0
 16  2  1  0
 17 42  1  0
 17 20  1  0
 18 19  1  0
 18 17  2  0
 19 21  2  0
 21 20  1  0
 22 23  1  0
 22 19  1  0
 24 23  2  0
 25 24  1  0
 26 25  2  0
 26 27  1  0
 27 22  2  0
 28 25  1  0
 29 34  1  0
 29 28  1  0
 30 29  2  0
 31 32  2  0
 31 30  1  0
 32 33  1  0
 33 34  2  0
 34 35  1  0
 36 32  1  0
 37 39  2  0
 37 18  1  0
 38 37  1  0
 40 38  1  0
 41 38  1  0
 42 44  1  0
 43 42  1  0
 45 48  1  0
 46 45  1  0
 47 45  1  0
 48 49  1  0
 49 50  1  0
 51 50  1  0
 51 52  1  0
 53 64  2  0
 54 52  1  0
 54 59  1  0
 55 65  1  0
 55 63  1  0
 56 58  1  0
 57 63  1  0
 58 59  2  0
 58 57  1  0
 60 54  2  0
 61 60  1  0
 61 56  2  0
 62 56  1  0
 62 55  1  0
 63 53  1  0
 65 67  2  0
 66 65  1  0
 68 66  1  0
 69 74  2  0
 69 78  1  0
 70 66  1  0
 70 74  1  0
 71 70  1  0
 72 71  1  0
 72 73  1  0
 73 69  1  0
 74 75  1  0
 75 76  2  0
 77 76  1  0
 78 77  2  0
 79 53  1  0
 79 80  1  0
 80 81  1  6
 80 82  1  0
 80 83  1  0
 84 79  1  0
 85 86  2  0
 85 84  1  0
 87 84  1  0
 89 88  1  0
 89 85  1  0
 91 89  1  0
 91 90  1  0
 92 91  1  0
 94 93  1  0
 94 96  1  0
 96 95  1  0
M  ISO  4   2 100  16 100  51 101  52 101
M  END
>  <TORSDO>  (62) 
F 23

>  <SCORE>  (62) 
-2.709

>  <name>  (62) 
61

>  <ligand_id>  (62) 
61

>  <original_smiles>  (62) 
[H]c1c([H])c([H])c2c(c1[H])C([H])([H])C([H])([H])C([H])([H])C2([H])N([H])C(=O)C1([H])N(C(=O)C([H])(N([H])C(=O)C([H])(N([H])C([H])([H])[H])C([H])([H])[H])C(C([H])([H])[H])(C([H])([H])[H])C([H])([H])[H])C([H])([H])c2c([H])c(OC([H])([H])C([H])([H])C([H])([H])C([H])([H])[N+]([H])([H])C([H])(C([H])(C([H])([H])[H])C([H])([H])C([H])([H])[H])C3([H])C([H])([H])N(C(=O)N4C([H])([H])C([H])([H])C([H])([H])C([H])(n5nc(-c6c([H])c([H])c(Oc7c([H])c([H])c(F)c([H])c7F)c([H])c6[H])c(C(=O)N([H])[H])c5N([H])[H])C4([H])[H])C([H])([H])C([H])(C([H])([H])[H])C3([H])[H])c([H])c([H])c2C1([H])[H]

>  <smiles>  (62) 
[H]c1c([H])c([H])c2c(c1[H])C([H])([H])C([H])([H])C([H])([H])C2([H])N([H])C(=O)C1([H])N(C(=O)C([H])(N([H])C(=O)C([H])(N([H])C([H])([H])[H])C([H])([H])[H])C(C([H])([H])[H])(C([H])([H])[H])C([H])([H])[H])C([H])([H])c2c([H])c(OC([H])([H])C([H])([H])C([H])([H])C([H])([H])[N+]([H])([H])C([H])(C([H])(C([H])([H])[H])C([H])([H])C([H])([H])[H])C3([H])C([H])([H])N(C(=O)N4C([H])([H])C([H])([H])C([H])([H])C([H])(n5nc(-c6c([H])c([H])c(Oc7c([H])c([H])c(F)c([H])c7F)c([H])c6[H])c(C(=O)N([H])[H])c5N([H])[H])C4([H])[H])C([H])([H])C([H])(C([H])([H])[H])C3([H])[H])c([H])c([H])c2C1([H])[H]

$$$$
62:0:0
     RDKit          3D

 97105  0  0  1  0  0  0  0  0999 V2000
  -26.8360  -21.3340   20.1310 C   0  0  0  0  0  2  0  0  0  0  0  0
  -28.5190  -18.0260   19.2630 C   0  0  0  0  0  2  0  0  0  0  0  0
  -27.3990  -19.0060   19.6290 C   0  0  0  0  0  2  0  0  0  0  0  0
  -28.9590  -20.3280   20.9750 C   0  0  0  0  0  2  0  0  0  0  0  0
  -29.5080  -17.9080   20.4360 C   0  0  0  0  0  3  0  0  0  0  0  0
  -30.0980  -19.3210   20.7090 C   0  0  0  0  0  3  0  0  0  0  0  0
  -31.1150  -19.3650   21.8650 C   0  0  0  0  0  1  0  0  0  0  0  0
  -27.9400  -20.3640   19.8930 N   0  0  2  0  0  4  0  0  0  0  0  0
  -28.4090  -20.6520   19.0460 H   0  0  0  0  0  0  0  0  0  0  0  0
  -31.0450  -14.5000   20.2180 C   0  0  0  0  0  0  0  0  0  0  0  0
  -30.6890  -12.2950   19.2290 C   0  0  0  0  0  2  0  0  0  0  0  0
  -29.7750  -12.5070   18.0030 C   0  0  0  0  0  2  0  0  0  0  0  0
  -28.2930  -12.4240   18.4180 C   0  0  0  0  0  2  0  0  0  0  0  0
  -27.9630  -13.3030   19.6590 C   0  0  0  0  0  3  0  0  0  0  0  0
  -29.0100  -13.1130   20.7840 C   0  0  0  0  0  2  0  0  0  0  0  0
  -30.3460  -13.3350   20.2080 N   0  0  0  0  0  0  0  0  0  0  0  0
  -32.2110  -14.5700   19.8300 O   0  0  0  0  0  0  0  0  0  0  0  0
  -30.5740  -16.8550   20.1040 C   0  0  0  0  0  0  0  0  0  0  0  0
  -30.2950  -15.5870   20.4660 N   0  0  0  0  0  0  0  0  0  0  0  0
  -31.5860  -17.2150   19.4950 O   0  0  0  0  0  0  0  0  0  0  0  0
  -29.3870  -15.4130   20.8610 H   0  0  0  0  0  0  0  0  0  0  0  0
  -25.5690  -13.9500   20.3500 C   0  0  0  0  0  0  0  0  0  0  0  0
  -24.4890  -13.2020   20.7300 C   0  0  0  0  0  0  0  0  0  0  0  0
  -24.9310  -11.8420   20.7190 C   0  0  0  0  0  0  0  0  0  0  0  0
  -26.6040  -13.0550   20.1380 N   0  0  0  0  0  0  0  0  0  0  0  0
  -26.2210  -11.7810   20.4150 N   0  0  0  0  0  0  0  0  0  0  0  0
  -24.1880  -10.5960   20.9210 C   0  0  0  0  0  0  0  0  0  0  0  0
  -24.5750   -9.6550   21.9030 C   0  0  0  0  0  3  0  0  0  0  0  0
  -23.8320   -8.4720   22.0920 C   0  0  0  0  0  3  0  0  0  0  0  0
  -22.6870   -8.2180   21.3010 C   0  0  0  0  0  0  0  0  0  0  0  0
  -22.3190   -9.1450   20.3110 C   0  0  0  0  0  3  0  0  0  0  0  0
  -23.0610  -10.3210   20.1200 C   0  0  0  0  0  3  0  0  0  0  0  0
  -21.9180   -7.0840   21.3980 O   0  0  0  0  0  0  0  0  0  0  0  0
  -21.7380   -6.4370   22.5940 C   0  0  0  0  0  0  0  0  0  0  0  0
  -21.1650   -7.0840   23.7100 C   0  0  0  0  0  3  0  0  0  0  0  0
  -20.9340   -6.3640   24.9000 C   0  0  0  0  0  3  0  0  0  0  0  0
  -21.2620   -4.9980   24.9720 C   0  0  0  0  0  0  0  0  0  0  0  0
  -21.8250   -4.3490   23.8590 C   0  0  0  0  0  3  0  0  0  0  0  0
  -22.0600   -5.0670   22.6720 C   0  0  0  0  0  0  0  0  0  0  0  0
  -22.5840   -4.4340   21.5960 F   0  0  0  0  0  0  0  0  0  0  0  0
  -21.0330   -4.3010   26.1110 F   0  0  0  0  0  0  0  0  0  0  0  0
  -23.0980  -13.7020   20.9890 C   0  0  0  0  0  0  0  0  0  0  0  0
  -22.3650  -13.0400   21.8750 N   0  0  0  0  0  0  0  0  0  0  0  0
  -22.6720  -14.7220   20.4480 O   0  0  0  0  0  0  0  0  0  0  0  0
  -22.7210  -12.2130   22.3320 H   0  0  0  0  0  0  0  0  0  0  0  0
  -21.4330  -13.3600   22.0950 H   0  0  0  0  0  0  0  0  0  0  0  0
  -25.7520  -15.3170   20.1480 N   0  0  0  0  0  0  0  0  0  0  0  0
  -24.9820  -15.9730   20.2290 H   0  0  0  0  0  0  0  0  0  0  0  0
  -26.5880  -15.7340   19.7650 H   0  0  0  0  0  0  0  0  0  0  0  0
  -27.1510  -22.7890   19.7210 C   0  0  0  0  0  2  0  0  0  0  0  0
  -28.0380  -23.6970   20.6420 C   0  0  0  0  0  3  0  0  0  0  0  0
  -29.2880  -22.4430   22.6120 C   0  0  0  0  0  1  0  0  0  0  0  0
  -28.0590  -23.2260   22.1290 C   0  0  0  0  0  2  0  0  0  0  0  0
  -26.5970  -25.6360   21.5800 C   0  0  0  0  0  1  0  0  0  0  0  0
  -27.6530  -25.2210   20.5150 C   0  0  0  0  0  3  0  0  0  0  0  0
  -27.3170  -25.6330   19.0330 C   0  0  0  0  0  2  0  0  0  0  0  0
  -27.4620  -27.0170   18.6960 O   0  0  0  0  0  0  0  0  0  0  0  0
  -24.4230  -31.6950   23.0170 C   0  0  0  0  0  0  0  0  0  0  0  0
  -26.3420  -27.8010   18.8520 C   0  0  0  0  0  0  0  0  0  0  0  0
  -22.9040  -30.5820   21.4120 C   0  0  0  0  0  3  0  0  0  0  0  0
  -24.0370  -29.2690   19.5430 C   0  0  0  0  0  0  0  0  0  0  0  0
  -25.3770  -30.9320   20.8510 C   0  0  0  0  0  2  0  0  0  0  0  0
  -25.2970  -29.6970   19.9790 C   0  0  0  0  0  0  0  0  0  0  0  0
  -26.4550  -28.9800   19.6180 C   0  0  0  0  0  3  0  0  0  0  0  0
  -25.0670  -27.4060   18.3770 C   0  0  0  0  0  3  0  0  0  0  0  0
  -23.9160  -28.1240   18.7400 C   0  0  0  0  0  3  0  0  0  0  0  0
  -22.8520  -30.1120   19.9370 C   0  0  0  0  0  2  0  0  0  0  0  0
  -24.2620  -31.0700   21.8170 N   0  0  0  0  0  0  0  0  0  0  0  0
  -23.4570  -31.9070   23.7620 O   0  0  0  0  0  0  0  0  0  0  0  0
  -22.3690  -29.4430   22.3130 C   0  0  0  0  0  0  0  0  0  0  0  0
  -21.0340  -29.2730   22.3250 N   0  0  0  0  0  0  0  0  0  0  0  0
  -23.1440  -28.7310   22.9570 O   0  0  0  0  0  0  0  0  0  0  0  0
  -20.4670  -29.9010   21.7730 H   0  0  0  0  0  0  0  0  0  0  0  0
  -17.7840  -27.7750   22.8020 C   0  0  0  0  0  0  0  0  0  0  0  0
  -20.3150  -28.2370   23.0660 C   0  0  0  0  0  3  0  0  0  0  0  0
  -20.5370  -26.8470   22.4260 C   0  0  0  0  0  2  0  0  0  0  0  0
  -19.4520  -26.4700   21.4120 C   0  0  0  0  0  2  0  0  0  0  0  0
  -18.0680  -26.4760   22.0660 C   0  0  0  0  0  2  0  0  0  0  0  0
  -18.8400  -28.6090   23.2570 C   0  0  0  0  0  0  0  0  0  0  0  0
  -18.5250  -29.8270   23.8980 C   0  0  0  0  0  3  0  0  0  0  0  0
  -17.1830  -30.2120   24.0920 C   0  0  0  0  0  3  0  0  0  0  0  0
  -16.1430  -29.3720   23.6580 C   0  0  0  0  0  3  0  0  0  0  0  0
  -16.4440  -28.1550   23.0200 C   0  0  0  0  0  3  0  0  0  0  0  0
  -25.8230  -32.1890   23.5010 C   0  0  0  0  0  3  0  0  0  0  0  0
  -25.6590  -33.5620   24.0000 N   0  0  0  0  0  0  0  0  0  0  0  0
  -26.0480  -34.6600   23.3390 C   0  0  0  0  0  0  0  0  0  0  0  0
  -26.6560  -34.6180   22.2660 O   0  0  0  0  0  0  0  0  0  0  0  0
  -25.1240  -33.6800   24.8480 H   0  0  0  0  0  0  0  0  0  0  0  0
  -24.5530  -36.6750   23.1920 C   0  0  0  0  0  1  0  0  0  0  0  0
  -25.7070  -36.0220   23.9690 C   0  0  0  0  0  3  0  0  0  0  0  0
  -27.8860  -36.5340   24.9780 C   0  0  0  0  0  1  0  0  0  0  0  0
  -26.8580  -36.9510   24.0270 N   0  0  0  0  0  0  0  0  0  0  0  0
  -26.5520  -37.8880   24.2780 H   0  0  0  0  0  0  0  0  0  0  0  0
  -26.4630  -31.2670   24.6120 C   0  0  1  0  0  0  0  0  0  0  0  0
  -25.5250  -31.0020   25.8120 C   0  0  0  0  0  1  0  0  0  0  0  0
  -26.8700  -29.9000   24.0180 C   0  0  0  0  0  1  0  0  0  0  0  0
  -27.7550  -31.9200   25.1560 C   0  0  0  0  0  1  0  0  0  0  0  0
  2  3  1  0
  2  5  1  0
  3  8  1  0
  5 18  1  0
  5  6  1  0
  6  4  1  0
  6  7  1  0
  8  1  1  0
  8  4  1  0
  8  9  1  6
 10 19  1  0
 11 16  1  0
 12 13  1  0
 12 11  1  0
 14 13  1  0
 14 25  1  0
 14 15  1  0
 16 10  1  0
 16 15  1  0
 17 10  2  0
 18 19  1  0
 19 21  1  0
 20 18  2  0
 22 23  2  0
 23 42  1  0
 24 23  1  0
 24 27  1  0
 25 22  1  0
 25 26  1  0
 26 24  2  0
 27 28  1  0
 28 29  2  0
 30 33  1  0
 30 29  1  0
 31 30  2  0
 32 31  1  0
 32 27  2  0
 33 34  1  0
 34 39  2  0
 34 35  1  0
 35 36  2  0
 36 37  1  0
 37 41  1  0
 38 37  2  0
 39 38  1  0
 40 39  1  0
 42 43  1  0
 43 46  1  0
 43 45  1  0
 44 42  2  0
 47 48  1  0
 47 22  1  0
 49 47  1  0
 50  1  1  0
 51 50  1  0
 51 53  1  0
 53 52  1  0
 55 51  1  0
 55 54  1  0
 56 55  1  0
 57 59  1  0
 57 56  1  0
 58 69  2  0
 59 64  1  0
 60 68  1  0
 60 70  1  0
 61 67  1  0
 61 63  1  0
 62 68  1  0
 63 62  1  0
 64 63  2  0
 65 66  1  0
 65 59  2  0
 66 61  2  0
 67 60  1  0
 68 58  1  0
 70 71  1  0
 70 72  2  0
 73 71  1  0
 74 83  2  0
 74 79  1  0
 75 71  1  0
 75 79  1  0
 76 75  1  0
 77 78  1  0
 77 76  1  0
 78 74  1  0
 79 80  2  0
 80 81  1  0
 82 81  2  0
 83 82  1  0
 84 58  1  0
 84 85  1  0
 84 94  1  0
 85 88  1  0
 86 90  1  0
 86 85  1  0
 87 86  2  0
 90 89  1  0
 90 92  1  0
 92 93  1  0
 92 91  1  0
 94 97  1  1
 94 95  1  0
 96 94  1  0
M  ISO  4  10 100  19 100  56 101  57 101
M  END
>  <TORSDO>  (63) 
F 22

>  <SCORE>  (63) 
-11.485

>  <name>  (63) 
62

>  <ligand_id>  (63) 
62

>  <original_smiles>  (63) 
[H]c1c([H])c([H])c2c(c1[H])C([H])([H])C([H])([H])C([H])([H])C2([H])N([H])C(=O)C1([H])N(C(=O)C([H])(N([H])C(=O)C([H])(N([H])C([H])([H])[H])C([H])([H])[H])C(C([H])([H])[H])(C([H])([H])[H])C([H])([H])[H])C([H])([H])c2c([H])c(OC([H])([H])C([H])(C([H])([H])[H])C([H])(C([H])([H])C([H])([H])[H])C([H])([H])C([H])([H])[N+]3([H])C([H])([H])C([H])([H])C([H])(C(=O)N([H])C(=O)N4C([H])([H])C([H])([H])C([H])([H])C([H])(n5nc(-c6c([H])c([H])c(Oc7c([H])c([H])c(F)c([H])c7F)c([H])c6[H])c(C(=O)N([H])[H])c5N([H])[H])C4([H])[H])C([H])(C([H])([H])[H])C3([H])[H])c([H])c([H])c2C1([H])[H]

>  <smiles>  (63) 
[H]c1c([H])c([H])c2c(c1[H])C([H])([H])C([H])([H])C([H])([H])C2([H])N([H])C(=O)C1([H])N(C(=O)C([H])(N([H])C(=O)C([H])(N([H])C([H])([H])[H])C([H])([H])[H])C(C([H])([H])[H])(C([H])([H])[H])C([H])([H])[H])C([H])([H])c2c([H])c(OC([H])([H])C([H])(C([H])([H])[H])C([H])(C([H])([H])C([H])([H])[H])C([H])([H])C([H])([H])[N+]3([H])C([H])([H])C([H])([H])C([H])(C(=O)N([H])C(=O)N4C([H])([H])C([H])([H])C([H])([H])C([H])(n5nc(-c6c([H])c([H])c(Oc7c([H])c([H])c(F)c([H])c7F)c([H])c6[H])c(C(=O)N([H])[H])c5N([H])[H])C4([H])[H])C([H])(C([H])([H])[H])C3([H])[H])c([H])c([H])c2C1([H])[H]

$$$$
63:0:0
     RDKit          3D

 95103  0  0  1  0  0  0  0  0999 V2000
  -32.6330  -18.5190   20.3460 C   0  0  0  0  0  0  0  0  0  0  0  0
  -31.4870  -18.2780   19.3490 C   0  0  0  0  0  2  0  0  0  0  0  0
  -31.0780  -20.1160   21.6680 C   0  0  0  0  0  2  0  0  0  0  0  0
  -32.5260  -19.7980   21.2000 C   0  0  0  0  0  3  0  0  0  0  0  0
  -30.1020  -18.5350   19.9890 C   0  0  0  0  0  3  0  0  0  0  0  0
  -33.1740  -20.9970   20.4740 C   0  0  0  0  0  1  0  0  0  0  0  0
  -33.6110  -17.7220   20.4600 N   0  0  0  0  0  0  0  0  0  0  0  0
  -30.1720  -19.9880   20.5050 N   0  0  1  0  0  4  0  0  0  0  0  0
  -33.5380  -16.9130   19.8480 H   0  0  0  0  0  0  0  0  0  0  0  0
  -30.8390  -20.3010   19.8160 H   0  0  0  0  0  0  0  0  0  0  0  0
  -29.8560  -17.3320   21.0470 C   0  0  0  0  0  2  0  0  0  0  0  0
  -30.5650  -14.8220   20.4140 C   0  0  0  0  0  0  0  0  0  0  0  0
  -30.4230  -12.5690   19.3640 C   0  0  0  0  0  2  0  0  0  0  0  0
  -29.4810  -12.6520   18.1420 C   0  0  0  0  0  2  0  0  0  0  0  0
  -28.0080  -12.4640   18.5580 C   0  0  0  0  0  2  0  0  0  0  0  0
  -27.6200  -13.3330   19.7830 C   0  0  0  0  0  3  0  0  0  0  0  0
  -28.6730  -13.2170   20.9040 C   0  0  0  0  0  2  0  0  0  0  0  0
  -29.9730  -13.5890   20.3270 N   0  0  0  0  0  0  0  0  0  0  0  0
  -31.7570  -14.9830   20.1450 O   0  0  0  0  0  0  0  0  0  0  0  0
  -29.7050  -15.8820   20.6100 N   0  0  0  0  0  0  0  0  0  0  0  0
  -28.7480  -15.5680   20.6350 H   0  0  0  0  0  0  0  0  0  0  0  0
  -25.2210  -13.9140   20.4820 C   0  0  0  0  0  0  0  0  0  0  0  0
  -24.1610  -13.1300   20.8580 C   0  0  0  0  0  0  0  0  0  0  0  0
  -24.6410  -11.7860   20.8440 C   0  0  0  0  0  0  0  0  0  0  0  0
  -26.2760  -13.0390   20.2650 N   0  0  0  0  0  0  0  0  0  0  0  0
  -25.9340  -11.7560   20.5470 N   0  0  0  0  0  0  0  0  0  0  0  0
  -23.9270  -10.5160   21.0400 C   0  0  0  0  0  0  0  0  0  0  0  0
  -24.3670   -9.5590   21.9810 C   0  0  0  0  0  3  0  0  0  0  0  0
  -23.6540   -8.3530   22.1630 C   0  0  0  0  0  3  0  0  0  0  0  0
  -22.4880   -8.1000   21.4030 C   0  0  0  0  0  0  0  0  0  0  0  0
  -22.0670   -9.0450   20.4500 C   0  0  0  0  0  3  0  0  0  0  0  0
  -22.7810  -10.2410   20.2660 C   0  0  0  0  0  3  0  0  0  0  0  0
  -21.7450   -6.9480   21.4940 O   0  0  0  0  0  0  0  0  0  0  0  0
  -21.7030   -6.2090   22.6480 C   0  0  0  0  0  0  0  0  0  0  0  0
  -21.2690   -6.7610   23.8730 C   0  0  0  0  0  3  0  0  0  0  0  0
  -21.1750   -5.9470   25.0190 C   0  0  0  0  0  3  0  0  0  0  0  0
  -21.5040   -4.5800   24.9430 C   0  0  0  0  0  0  0  0  0  0  0  0
  -21.9290   -4.0270   23.7210 C   0  0  0  0  0  3  0  0  0  0  0  0
  -22.0250   -4.8380   22.5770 C   0  0  0  0  0  0  0  0  0  0  0  0
  -22.4140   -4.2940   21.3990 F   0  0  0  0  0  0  0  0  0  0  0  0
  -21.4080   -3.7970   26.0410 F   0  0  0  0  0  0  0  0  0  0  0  0
  -22.7540  -13.5950   21.1120 C   0  0  0  0  0  0  0  0  0  0  0  0
  -22.0220  -12.8960   21.9770 N   0  0  0  0  0  0  0  0  0  0  0  0
  -22.3080  -14.6100   20.5820 O   0  0  0  0  0  0  0  0  0  0  0  0
  -22.3930  -12.0750   22.4300 H   0  0  0  0  0  0  0  0  0  0  0  0
  -21.0750  -13.1870   22.1830 H   0  0  0  0  0  0  0  0  0  0  0  0
  -25.3650  -15.2830   20.2810 N   0  0  0  0  0  0  0  0  0  0  0  0
  -24.5890  -15.9270   20.3840 H   0  0  0  0  0  0  0  0  0  0  0  0
  -26.1940  -15.7280   19.9100 H   0  0  0  0  0  0  0  0  0  0  0  0
  -29.1810  -21.1120   20.1270 C   0  0  0  0  0  2  0  0  0  0  0  0
  -28.3450  -22.4440   22.1620 C   0  0  0  0  0  1  0  0  0  0  0  0
  -29.2040  -22.5610   20.8830 C   0  0  0  0  0  3  0  0  0  0  0  0
  -28.8340  -23.9180   20.0690 C   0  0  0  0  0  3  0  0  0  0  0  0
  -28.4690  -25.2760   20.8670 C   0  0  0  0  0  3  0  0  0  0  0  0
  -28.4910  -26.6230   20.2270 O   0  0  0  0  0  0  0  0  0  0  0  0
  -24.6440  -31.9550   23.2650 C   0  0  0  0  0  0  0  0  0  0  0  0
  -27.3420  -27.4310   20.2420 C   0  0  0  0  0  0  0  0  0  0  0  0
  -23.4620  -30.5370   21.6240 C   0  0  0  0  0  3  0  0  0  0  0  0
  -24.9400  -28.9970   20.2120 C   0  0  0  0  0  0  0  0  0  0  0  0
  -25.9910  -30.8970   21.4400 C   0  0  0  0  0  2  0  0  0  0  0  0
  -26.1000  -29.5160   20.8020 C   0  0  0  0  0  0  0  0  0  0  0  0
  -27.3040  -28.7460   20.8010 C   0  0  0  0  0  3  0  0  0  0  0  0
  -26.1580  -26.9540   19.6410 C   0  0  0  0  0  3  0  0  0  0  0  0
  -24.9710  -27.7200   19.6230 C   0  0  0  0  0  3  0  0  0  0  0  0
  -23.6870  -29.8530   20.2510 C   0  0  0  0  0  2  0  0  0  0  0  0
  -24.7170  -31.1450   22.1670 N   0  0  0  0  0  0  0  0  0  0  0  0
  -23.5560  -32.2180   23.7990 O   0  0  0  0  0  0  0  0  0  0  0  0
  -22.8100  -29.5170   22.5890 C   0  0  0  0  0  0  0  0  0  0  0  0
  -21.4880  -29.3180   22.4570 N   0  0  0  0  0  0  0  0  0  0  0  0
  -23.4930  -28.9050   23.4140 O   0  0  0  0  0  0  0  0  0  0  0  0
  -20.9940  -29.8630   21.7640 H   0  0  0  0  0  0  0  0  0  0  0  0
  -18.1330  -28.0550   22.9360 C   0  0  0  0  0  0  0  0  0  0  0  0
  -20.6830  -28.3690   23.2270 C   0  0  0  0  0  3  0  0  0  0  0  0
  -20.8210  -26.9370   22.6580 C   0  0  0  0  0  2  0  0  0  0  0  0
  -19.7340  -26.5850   21.6380 C   0  0  0  0  0  2  0  0  0  0  0  0
  -18.3430  -26.7070   22.2670 C   0  0  0  0  0  2  0  0  0  0  0  0
  -19.2320  -28.8420   23.3720 C   0  0  0  0  0  0  0  0  0  0  0  0
  -18.9820  -30.1040   23.9530 C   0  0  0  0  0  3  0  0  0  0  0  0
  -17.6670  -30.5810   24.1020 C   0  0  0  0  0  3  0  0  0  0  0  0
  -16.5830  -29.7910   23.6830 C   0  0  0  0  0  3  0  0  0  0  0  0
  -16.8150  -28.5300   23.1070 C   0  0  0  0  0  3  0  0  0  0  0  0
  -25.9180  -32.6050   23.8900 C   0  0  0  0  0  3  0  0  0  0  0  0
  -25.5940  -34.0030   24.2060 N   0  0  0  0  0  0  0  0  0  0  0  0
  -25.9210  -35.0520   23.4420 C   0  0  0  0  0  0  0  0  0  0  0  0
  -26.5950  -34.9470   22.4150 O   0  0  0  0  0  0  0  0  0  0  0  0
  -24.9900  -34.1590   24.9990 H   0  0  0  0  0  0  0  0  0  0  0  0
  -24.1790  -36.8300   23.0720 C   0  0  0  0  0  1  0  0  0  0  0  0
  -25.4220  -36.4400   23.8870 C   0  0  0  0  0  3  0  0  0  0  0  0
  -27.5480  -37.3520   24.7150 C   0  0  0  0  0  1  0  0  0  0  0  0
  -26.4450  -37.5020   23.7690 N   0  0  0  0  0  0  0  0  0  0  0  0
  -26.0290  -38.4190   23.9080 H   0  0  0  0  0  0  0  0  0  0  0  0
  -26.4340  -31.8510   25.1770 C   0  0  1  0  0  0  0  0  0  0  0  0
  -25.3330  -31.6170   26.2380 C   0  0  0  0  0  1  0  0  0  0  0  0
  -27.0310  -30.4710   24.8070 C   0  0  0  0  0  1  0  0  0  0  0  0
  -27.5690  -32.6660   25.8410 C   0  0  0  0  0  1  0  0  0  0  0  0
  1  7  2  0
  1  4  1  0
  2  5  1  0
  2  1  1  0
  4  6  1  0
  4  3  1  0
  5  8  1  0
  5 11  1  0
  8  3  1  0
  9  7  1  0
  8 10  1  6
 12 20  1  0
 13 18  1  0
 14 15  1  0
 14 13  1  0
 16 15  1  0
 16 25  1  0
 16 17  1  0
 18 12  1  0
 18 17  1  0
 19 12  2  0
 20 21  1  0
 20 11  1  0
 22 23  2  0
 23 42  1  0
 24 23  1  0
 24 27  1  0
 25 22  1  0
 25 26  1  0
 26 24  2  0
 27 28  1  0
 28 29  2  0
 30 33  1  0
 30 29  1  0
 31 30  2  0
 32 31  1  0
 32 27  2  0
 33 34  1  0
 34 35  1  0
 35 36  2  0
 37 36  1  0
 37 41  1  0
 38 37  2  0
 39 34  2  0
 39 38  1  0
 40 39  1  0
 42 43  1  0
 43 46  1  0
 43 45  1  0
 44 42  2  0
 47 48  1  0
 47 22  1  0
 49 47  1  0
 50  8  1  0
 50 52  1  0
 52 51  1  0
 53 54  2  0
 53 52  1  0
 55 57  1  0
 55 54  1  0
 56 67  2  0
 57 62  1  0
 58 66  1  0
 58 68  1  0
 59 65  1  0
 59 61  1  0
 60 66  1  0
 61 60  1  0
 62 61  2  0
 63 57  2  0
 64 63  1  0
 64 59  2  0
 65 58  1  0
 66 56  1  0
 68 70  2  0
 69 68  1  0
 71 69  1  0
 72 81  2  0
 72 77  1  0
 73 69  1  0
 73 77  1  0
 74 73  1  0
 75 76  1  0
 75 74  1  0
 76 72  1  0
 77 78  2  0
 78 79  1  0
 80 79  2  0
 81 80  1  0
 82 56  1  0
 82 83  1  0
 82 92  1  0
 83 86  1  0
 84 88  1  0
 84 83  1  0
 85 84  2  0
 88 87  1  0
 90 88  1  0
 90 91  1  0
 90 89  1  0
 92 95  1  1
 92 93  1  0
 94 92  1  0
M  ISO  4  12 100  20 100  54 101  55 101
M  END
>  <TORSDO>  (64) 
F 21

>  <SCORE>  (64) 
-13.647

>  <name>  (64) 
63

>  <ligand_id>  (64) 
63

>  <original_smiles>  (64) 
[H]N=C1C([H])([H])C([H])(C([H])([H])N([H])C(=O)N2C([H])([H])C([H])([H])C([H])([H])C([H])(n3nc(-c4c([H])c([H])c(Oc5c([H])c([H])c(F)c([H])c5F)c([H])c4[H])c(C(=O)N([H])[H])c3N([H])[H])C2([H])[H])[N+]([H])(C([H])([H])C([H])(C([H])([H])[H])C([H])([H])C([H])([H])Oc2c([H])c([H])c3c(c2[H])C([H])([H])N(C(=O)C([H])(N([H])C(=O)C([H])(N([H])C([H])([H])[H])C([H])([H])[H])C(C([H])([H])[H])(C([H])([H])[H])C([H])([H])[H])C([H])(C(=O)N([H])C2([H])c4c([H])c([H])c([H])c([H])c4C([H])([H])C([H])([H])C2([H])[H])C3([H])[H])C([H])([H])C1([H])C([H])([H])[H]

>  <smiles>  (64) 
[H]N=C1C([H])([H])C([H])(C([H])([H])N([H])C(=O)N2C([H])([H])C([H])([H])C([H])([H])C([H])(n3nc(-c4c([H])c([H])c(Oc5c([H])c([H])c(F)c([H])c5F)c([H])c4[H])c(C(=O)N([H])[H])c3N([H])[H])C2([H])[H])[N+]([H])(C([H])([H])C([H])(C([H])([H])[H])C([H])([H])C([H])([H])Oc2c([H])c([H])c3c(c2[H])C([H])([H])N(C(=O)C([H])(N([H])C(=O)C([H])(N([H])C([H])([H])[H])C([H])([H])[H])C(C([H])([H])[H])(C([H])([H])[H])C([H])([H])[H])C([H])(C(=O)N([H])C2([H])c4c([H])c([H])c([H])c([H])c4C([H])([H])C([H])([H])C2([H])[H])C3([H])[H])C([H])([H])C1([H])C([H])([H])[H]

$$$$
64:0:0
     RDKit          3D

 95103  0  0  1  0  0  0  0  0999 V2000
  -29.8090  -20.5270   21.4150 N   0  0  0  0  0  4  0  0  0  0  0  0
  -29.5840  -20.5300   22.4030 H   0  0  0  0  0  0  0  0  0  0  0  0
  -28.9620  -20.3070   20.9170 H   0  0  0  0  0  0  0  0  0  0  0  0
  -31.8820  -17.6620   19.8790 C   0  0  0  0  0  2  0  0  0  0  0  0
  -30.8230  -18.7760   19.9230 C   0  0  0  0  0  2  0  0  0  0  0  0
  -31.3210  -17.1290   22.3540 C   0  0  0  0  0  2  0  0  0  0  0  0
  -31.7060  -16.5570   20.9620 C   0  0  0  0  0  3  0  0  0  0  0  0
  -30.3080  -18.2970   22.3120 C   0  0  0  0  0  3  0  0  0  0  0  0
  -30.7530  -19.3950   21.3270 C   0  0  0  0  0  3  0  0  0  0  0  0
  -31.2870  -14.4150   19.7550 C   0  0  0  0  0  0  0  0  0  0  0  0
  -30.7370  -12.2840   18.6460 C   0  0  0  0  0  2  0  0  0  0  0  0
  -29.7390  -12.5110   17.4970 C   0  0  0  0  0  2  0  0  0  0  0  0
  -28.2930  -12.4510   18.0230 C   0  0  0  0  0  2  0  0  0  0  0  0
  -28.0770  -13.3440   19.2740 C   0  0  0  0  0  3  0  0  0  0  0  0
  -29.1880  -13.1170   20.3240 C   0  0  0  0  0  2  0  0  0  0  0  0
  -30.4910  -13.3170   19.6660 N   0  0  0  0  0  0  0  0  0  0  0  0
  -32.3420  -14.5180   19.1250 O   0  0  0  0  0  0  0  0  0  0  0  0
  -30.8680  -15.4150   20.5530 N   0  0  0  0  0  0  0  0  0  0  0  0
  -29.9820  -15.2840   21.0180 H   0  0  0  0  0  0  0  0  0  0  0  0
  -25.7670  -14.0830   20.1310 C   0  0  0  0  0  0  0  0  0  0  0  0
  -24.6860  -13.3710   20.5790 C   0  0  0  0  0  0  0  0  0  0  0  0
  -25.0730  -11.9960   20.5350 C   0  0  0  0  0  0  0  0  0  0  0  0
  -26.7460  -13.1450   19.8450 N   0  0  0  0  0  0  0  0  0  0  0  0
  -26.3360  -11.8860   20.1450 N   0  0  0  0  0  0  0  0  0  0  0  0
  -24.2950  -10.7760   20.7900 C   0  0  0  0  0  0  0  0  0  0  0  0
  -24.7110   -9.8200   21.7420 C   0  0  0  0  0  3  0  0  0  0  0  0
  -23.9370   -8.6650   21.9820 C   0  0  0  0  0  3  0  0  0  0  0  0
  -22.7320   -8.4570   21.2700 C   0  0  0  0  0  0  0  0  0  0  0  0
  -22.3340   -9.4000   20.3060 C   0  0  0  0  0  3  0  0  0  0  0  0
  -23.1090  -10.5480   20.0650 C   0  0  0  0  0  3  0  0  0  0  0  0
  -21.9300   -7.3520   21.4170 O   0  0  0  0  0  0  0  0  0  0  0  0
  -21.8530   -6.6710   22.6050 C   0  0  0  0  0  0  0  0  0  0  0  0
  -21.4440   -7.3010   23.8010 C   0  0  0  0  0  3  0  0  0  0  0  0
  -21.3140   -6.5480   24.9840 C   0  0  0  0  0  3  0  0  0  0  0  0
  -21.5820   -5.1660   24.9730 C   0  0  0  0  0  0  0  0  0  0  0  0
  -21.9830   -4.5360   23.7830 C   0  0  0  0  0  3  0  0  0  0  0  0
  -22.1160   -5.2860   22.6010 C   0  0  0  0  0  0  0  0  0  0  0  0
  -22.4810   -4.6690   21.4520 F   0  0  0  0  0  0  0  0  0  0  0  0
  -21.4480   -4.4410   26.1080 F   0  0  0  0  0  0  0  0  0  0  0  0
  -23.3360  -13.9250   20.9340 C   0  0  0  0  0  0  0  0  0  0  0  0
  -22.6400  -13.2860   21.8690 N   0  0  0  0  0  0  0  0  0  0  0  0
  -22.9130  -14.9580   20.4200 O   0  0  0  0  0  0  0  0  0  0  0  0
  -22.9970  -12.4500   22.3060 H   0  0  0  0  0  0  0  0  0  0  0  0
  -21.7370  -13.6410   22.1510 H   0  0  0  0  0  0  0  0  0  0  0  0
  -25.9920  -15.4400   19.9230 N   0  0  0  0  0  0  0  0  0  0  0  0
  -25.2700  -16.1370   20.0670 H   0  0  0  0  0  0  0  0  0  0  0  0
  -26.8450  -15.8240   19.5360 H   0  0  0  0  0  0  0  0  0  0  0  0
  -30.1700  -18.8950   23.6340 N   0  0  0  0  0  0  0  0  0  0  0  0
  -31.0900  -19.0780   24.0250 H   0  0  0  0  0  0  0  0  0  0  0  0
  -29.7790  -18.2030   24.2680 H   0  0  0  0  0  0  0  0  0  0  0  0
  -30.3360  -21.8590   21.0180 C   0  0  0  0  0  2  0  0  0  0  0  0
  -29.2270  -22.9330   21.0120 C   0  0  0  0  0  2  0  0  0  0  0  0
  -29.6630  -24.3670   20.6120 C   0  0  0  0  0  2  0  0  0  0  0  0
  -28.4350  -25.2950   20.5560 C   0  0  0  0  0  2  0  0  0  0  0  0
  -28.6640  -26.6260   20.0580 O   0  0  0  0  0  0  0  0  0  0  0  0
  -24.6590  -31.5910   23.2140 C   0  0  0  0  0  0  0  0  0  0  0  0
  -27.5010  -27.3690   20.0120 C   0  0  0  0  0  0  0  0  0  0  0  0
  -23.5240  -30.1980   21.5150 C   0  0  0  0  0  3  0  0  0  0  0  0
  -25.0520  -28.7820   20.0440 C   0  0  0  0  0  0  0  0  0  0  0  0
  -26.0360  -30.6680   21.3540 C   0  0  0  0  0  2  0  0  0  0  0  0
  -26.1840  -29.3290   20.6640 C   0  0  0  0  0  0  0  0  0  0  0  0
  -27.4150  -28.6290   20.6450 C   0  0  0  0  0  3  0  0  0  0  0  0
  -26.3570  -26.8570   19.3580 C   0  0  0  0  0  3  0  0  0  0  0  0
  -25.1340  -27.5470   19.3850 C   0  0  0  0  0  3  0  0  0  0  0  0
  -23.7720  -29.5810   20.1130 C   0  0  0  0  0  2  0  0  0  0  0  0
  -24.7570  -30.8320   22.0860 N   0  0  0  0  0  0  0  0  0  0  0  0
  -23.5620  -31.7980   23.7550 O   0  0  0  0  0  0  0  0  0  0  0  0
  -22.9120  -29.1150   22.4330 C   0  0  0  0  0  0  0  0  0  0  0  0
  -21.6130  -28.8310   22.2400 N   0  0  0  0  0  0  0  0  0  0  0  0
  -23.6030  -28.5340   23.2740 O   0  0  0  0  0  0  0  0  0  0  0  0
  -21.1140  -29.3570   21.5360 H   0  0  0  0  0  0  0  0  0  0  0  0
  -18.3510  -27.2960   22.4820 C   0  0  0  0  0  0  0  0  0  0  0  0
  -20.8350  -27.8240   22.9620 C   0  0  0  0  0  3  0  0  0  0  0  0
  -21.1340  -26.4040   22.4310 C   0  0  0  0  0  2  0  0  0  0  0  0
  -20.1630  -25.9520   21.3360 C   0  0  0  0  0  2  0  0  0  0  0  0
  -18.7230  -25.9630   21.8560 C   0  0  0  0  0  2  0  0  0  0  0  0
  -19.3430  -28.1780   22.9860 C   0  0  0  0  0  0  0  0  0  0  0  0
  -18.9460  -29.4200   23.5250 C   0  0  0  0  0  3  0  0  0  0  0  0
  -17.5870  -29.7850   23.5690 C   0  0  0  0  0  3  0  0  0  0  0  0
  -16.6070  -28.9030   23.0830 C   0  0  0  0  0  3  0  0  0  0  0  0
  -16.9890  -27.6610   22.5450 C   0  0  0  0  0  3  0  0  0  0  0  0
  -25.9120  -32.2530   23.8650 C   0  0  0  0  0  3  0  0  0  0  0  0
  -25.5650  -33.6460   24.1760 N   0  0  0  0  0  0  0  0  0  0  0  0
  -25.9510  -34.7050   23.4530 C   0  0  0  0  0  0  0  0  0  0  0  0
  -26.7080  -34.6140   22.4820 O   0  0  0  0  0  0  0  0  0  0  0  0
  -24.9050  -33.7910   24.9260 H   0  0  0  0  0  0  0  0  0  0  0  0
  -24.2480  -36.4860   22.9560 C   0  0  0  0  0  1  0  0  0  0  0  0
  -25.4140  -36.0860   23.8740 C   0  0  0  0  0  3  0  0  0  0  0  0
  -27.4610  -36.9750   24.8960 C   0  0  0  0  0  1  0  0  0  0  0  0
  -26.4430  -37.1480   23.8630 N   0  0  0  0  0  0  0  0  0  0  0  0
  -26.0180  -38.0630   23.9860 H   0  0  0  0  0  0  0  0  0  0  0  0
  -26.4130  -31.4990   25.1590 C   0  0  1  0  0  0  0  0  0  0  0  0
  -25.2960  -31.2330   26.1930 C   0  0  0  0  0  1  0  0  0  0  0  0
  -27.0470  -30.1380   24.7870 C   0  0  0  0  0  1  0  0  0  0  0  0
  -27.5200  -32.3280   25.8520 C   0  0  0  0  0  1  0  0  0  0  0  0
  1  2  1  0
  3  1  1  0
  4  5  1  0
  4  7  1  0
  5  9  1  0
  7 18  1  0
  7  6  1  0
  8  6  1  0
  8 48  1  0
  9  1  1  0
  9  8  1  0
 10 18  1  0
 11 16  1  0
 12 13  1  0
 12 11  1  0
 14 13  1  0
 14 23  1  0
 14 15  1  0
 16 10  1  0
 16 15  1  0
 17 10  2  0
 18 19  1  0
 20 21  2  0
 21 40  1  0
 22 21  1  0
 22 25  1  0
 23 20  1  0
 23 24  1  0
 24 22  2  0
 25 26  1  0
 26 27  2  0
 28 31  1  0
 28 27  1  0
 29 28  2  0
 30 29  1  0
 30 25  2  0
 31 32  1  0
 32 33  1  0
 33 34  2  0
 35 34  1  0
 35 39  1  0
 36 35  2  0
 37 32  2  0
 37 36  1  0
 38 37  1  0
 40 41  1  0
 41 44  1  0
 41 43  1  0
 42 40  2  0
 45 46  1  0
 45 20  1  0
 47 45  1  0
 48 49  1  0
 48 50  1  0
 51  1  1  0
 52 51  1  0
 53 52  1  0
 54 53  1  0
 55 54  1  0
 56 67  2  0
 57 55  1  0
 57 62  1  0
 58 66  1  0
 58 68  1  0
 59 65  1  0
 59 61  1  0
 60 66  1  0
 61 60  1  0
 62 61  2  0
 63 64  1  0
 63 57  2  0
 64 59  2  0
 65 58  1  0
 66 56  1  0
 68 70  2  0
 69 68  1  0
 71 69  1  0
 72 81  2  0
 72 77  1  0
 73 69  1  0
 73 77  1  0
 74 73  1  0
 75 76  1  0
 75 74  1  0
 76 72  1  0
 77 78  2  0
 78 79  1  0
 80 79  2  0
 81 80  1  0
 82 56  1  0
 82 83  1  0
 82 92  1  0
 83 86  1  0
 84 88  1  0
 84 83  1  0
 85 84  2  0
 88 87  1  0
 90 88  1  0
 90 91  1  0
 90 89  1  0
 92 95  1  1
 92 93  1  0
 94 92  1  0
M  ISO  4  10 100  18 100  54 101  55 101
M  END
>  <TORSDO>  (65) 
F 22

>  <SCORE>  (65) 
-10.767

>  <name>  (65) 
64

>  <ligand_id>  (65) 
64

>  <original_smiles>  (65) 
[H]c1c([H])c([H])c2c(c1[H])C([H])([H])C([H])([H])C([H])([H])C2([H])N([H])C(=O)C1([H])N(C(=O)C([H])(N([H])C(=O)C([H])(N([H])C([H])([H])[H])C([H])([H])[H])C(C([H])([H])[H])(C([H])([H])[H])C([H])([H])[H])C([H])([H])c2c([H])c(OC([H])([H])C([H])([H])C([H])([H])C([H])([H])[N+]([H])([H])C3([H])C([H])([H])C([H])([H])C([H])(N([H])C(=O)N4C([H])([H])C([H])([H])C([H])([H])C([H])(n5nc(-c6c([H])c([H])c(Oc7c([H])c([H])c(F)c([H])c7F)c([H])c6[H])c(C(=O)N([H])[H])c5N([H])[H])C4([H])[H])C([H])([H])C3([H])N([H])[H])c([H])c([H])c2C1([H])[H]

>  <smiles>  (65) 
[H]c1c([H])c([H])c2c(c1[H])C([H])([H])C([H])([H])C([H])([H])C2([H])N([H])C(=O)C1([H])N(C(=O)C([H])(N([H])C(=O)C([H])(N([H])C([H])([H])[H])C([H])([H])[H])C(C([H])([H])[H])(C([H])([H])[H])C([H])([H])[H])C([H])([H])c2c([H])c(OC([H])([H])C([H])([H])C([H])([H])C([H])([H])[N+]([H])([H])C3([H])C([H])([H])C([H])([H])C([H])(N([H])C(=O)N4C([H])([H])C([H])([H])C([H])([H])C([H])(n5nc(-c6c([H])c([H])c(Oc7c([H])c([H])c(F)c([H])c7F)c([H])c6[H])c(C(=O)N([H])[H])c5N([H])[H])C4([H])[H])C([H])([H])C3([H])N([H])[H])c([H])c([H])c2C1([H])[H]

$$$$
65:0:0
     RDKit          3D

 92100  0  0  1  0  0  0  0  0999 V2000
  -31.8840  -19.9140   19.8140 C   0  0  0  0  0  2  0  0  0  0  0  0
  -31.3790  -14.6590   18.8460 C   0  0  0  0  0  0  0  0  0  0  0  0
  -30.5560  -12.7500   17.5040 C   0  0  0  0  0  2  0  0  0  0  0  0
  -29.2630  -13.1160   16.7440 C   0  0  0  0  0  2  0  0  0  0  0  0
  -28.0150  -12.8920   17.6230 C   0  0  0  0  0  2  0  0  0  0  0  0
  -28.1760  -13.5010   19.0380 C   0  0  0  0  0  3  0  0  0  0  0  0
  -29.5230  -13.0430   19.6400 C   0  0  0  0  0  2  0  0  0  0  0  0
  -30.6100  -13.5230   18.7650 N   0  0  0  0  0  0  0  0  0  0  0  0
  -32.0630  -15.0030   17.8740 O   0  0  0  0  0  0  0  0  0  0  0  0
  -32.7150  -17.5170   19.6380 C   0  0  0  0  0  2  0  0  0  0  0  0
  -30.5480  -18.0190   20.8980 C   0  0  0  0  0  2  0  0  0  0  0  0
  -32.8150  -16.0880   20.2270 C   0  0  0  0  0  2  0  0  0  0  0  0
  -30.5820  -15.4760   21.1250 C   0  0  0  0  0  2  0  0  0  0  0  0
  -31.9520  -18.5340   20.5130 C   0  0  0  0  0  3  0  0  0  0  0  0
  -30.5860  -16.8300   21.8790 C   0  0  0  0  0  3  0  0  0  0  0  0
  -31.5760  -15.2990   20.0450 N   0  0  0  0  0  0  0  0  0  0  0  0
  -26.2970  -13.9560   20.7430 C   0  0  0  0  0  0  0  0  0  0  0  0
  -25.3250  -13.1460   21.2690 C   0  0  0  0  0  0  0  0  0  0  0  0
  -25.5350  -11.8550   20.6940 C   0  0  0  0  0  0  0  0  0  0  0  0
  -27.0500  -13.1510   19.9010 N   0  0  0  0  0  0  0  0  0  0  0  0
  -26.6080  -11.8670   19.9130 N   0  0  0  0  0  0  0  0  0  0  0  0
  -24.7440  -10.6220   20.7970 C   0  0  0  0  0  0  0  0  0  0  0  0
  -25.2430   -9.4780   21.4580 C   0  0  0  0  0  3  0  0  0  0  0  0
  -24.4590   -8.3090   21.5580 C   0  0  0  0  0  3  0  0  0  0  0  0
  -23.1590   -8.2780   20.9980 C   0  0  0  0  0  0  0  0  0  0  0  0
  -22.6760   -9.4100   20.3220 C   0  0  0  0  0  3  0  0  0  0  0  0
  -23.4610  -10.5720   20.2160 C   0  0  0  0  0  3  0  0  0  0  0  0
  -22.3350   -7.1780   21.0270 O   0  0  0  0  0  0  0  0  0  0  0  0
  -22.2210   -6.3910   22.1460 C   0  0  0  0  0  0  0  0  0  0  0  0
  -21.8000   -6.9160   23.3880 C   0  0  0  0  0  3  0  0  0  0  0  0
  -21.6300   -6.0580   24.4930 C   0  0  0  0  0  3  0  0  0  0  0  0
  -21.8720   -4.6790   24.3580 C   0  0  0  0  0  0  0  0  0  0  0  0
  -22.2870   -4.1540   23.1220 C   0  0  0  0  0  3  0  0  0  0  0  0
  -22.4590   -5.0080   22.0190 C   0  0  0  0  0  0  0  0  0  0  0  0
  -22.8380   -4.4940   20.8240 F   0  0  0  0  0  0  0  0  0  0  0  0
  -21.7030   -3.8530   25.4170 F   0  0  0  0  0  0  0  0  0  0  0  0
  -24.2060  -13.5630   22.1790 C   0  0  0  0  0  0  0  0  0  0  0  0
  -23.7600  -12.6660   23.0530 N   0  0  0  0  0  0  0  0  0  0  0  0
  -23.7510  -14.7050   22.1540 O   0  0  0  0  0  0  0  0  0  0  0  0
  -24.1430  -11.7340   23.0890 H   0  0  0  0  0  0  0  0  0  0  0  0
  -23.0200  -12.9170   23.6940 H   0  0  0  0  0  0  0  0  0  0  0  0
  -26.5880  -15.3070   20.8980 N   0  0  0  0  0  0  0  0  0  0  0  0
  -26.0180  -15.9180   21.4720 H   0  0  0  0  0  0  0  0  0  0  0  0
  -27.3260  -15.7950   20.4070 H   0  0  0  0  0  0  0  0  0  0  0  0
  -29.7370  -16.2670   24.2510 C   0  0  0  0  0  1  0  0  0  0  0  0
  -29.4180  -16.9000   22.8880 C   0  0  0  0  0  2  0  0  0  0  0  0
  -31.1940  -21.0080   20.6550 C   0  0  0  0  0  2  0  0  0  0  0  0
  -31.2970  -22.4170   20.0530 C   0  0  0  0  0  2  0  0  0  0  0  0
  -30.2900  -23.3740   20.7130 C   0  0  0  0  0  2  0  0  0  0  0  0
  -30.3280  -24.8120   20.1680 C   0  0  0  0  0  2  0  0  0  0  0  0
  -29.1110  -25.6220   20.6410 C   0  0  0  0  0  2  0  0  0  0  0  0
  -29.1530  -26.9420   20.1110 O   0  0  0  0  0  0  0  0  0  0  0  0
  -24.9650  -31.7080   23.3110 C   0  0  0  0  0  0  0  0  0  0  0  0
  -27.9420  -27.5870   20.1300 C   0  0  0  0  0  0  0  0  0  0  0  0
  -23.8850  -30.3270   21.5630 C   0  0  0  0  0  3  0  0  0  0  0  0
  -25.4630  -28.9350   20.1260 C   0  0  0  0  0  0  0  0  0  0  0  0
  -26.3880  -30.8350   21.4620 C   0  0  0  0  0  2  0  0  0  0  0  0
  -26.5690  -29.5010   20.7730 C   0  0  0  0  0  0  0  0  0  0  0  0
  -27.8130  -28.8350   20.7730 C   0  0  0  0  0  3  0  0  0  0  0  0
  -26.8230  -27.0250   19.4800 C   0  0  0  0  0  3  0  0  0  0  0  0
  -25.5830  -27.6920   19.4790 C   0  0  0  0  0  3  0  0  0  0  0  0
  -24.1730  -29.7210   20.1640 C   0  0  0  0  0  2  0  0  0  0  0  0
  -25.0960  -30.9670   22.1750 N   0  0  0  0  0  0  0  0  0  0  0  0
  -23.8540  -31.8990   23.8260 O   0  0  0  0  0  0  0  0  0  0  0  0
  -23.2570  -29.2320   22.4520 C   0  0  0  0  0  0  0  0  0  0  0  0
  -21.9560  -28.9690   22.2460 N   0  0  0  0  0  0  0  0  0  0  0  0
  -23.9370  -28.6210   23.2810 O   0  0  0  0  0  0  0  0  0  0  0  0
  -21.4660  -29.5170   21.5520 H   0  0  0  0  0  0  0  0  0  0  0  0
  -18.6470  -27.5490   22.5200 C   0  0  0  0  0  0  0  0  0  0  0  0
  -21.1660  -27.9520   22.9360 C   0  0  0  0  0  3  0  0  0  0  0  0
  -21.3890  -26.5550   22.3130 C   0  0  0  0  0  2  0  0  0  0  0  0
  -20.3620  -26.2070   21.2310 C   0  0  0  0  0  2  0  0  0  0  0  0
  -18.9430  -26.2420   21.8050 C   0  0  0  0  0  2  0  0  0  0  0  0
  -19.6920  -28.3600   23.0370 C   0  0  0  0  0  0  0  0  0  0  0  0
  -19.3650  -29.5850   23.6590 C   0  0  0  0  0  3  0  0  0  0  0  0
  -18.0240  -29.9980   23.7720 C   0  0  0  0  0  3  0  0  0  0  0  0
  -16.9930  -29.1840   23.2740 C   0  0  0  0  0  3  0  0  0  0  0  0
  -17.3050  -27.9610   22.6530 C   0  0  0  0  0  3  0  0  0  0  0  0
  -26.1960  -32.3710   24.0050 C   0  0  0  0  0  3  0  0  0  0  0  0
  -26.6560  -31.6130   25.3100 C   0  0  1  0  0  0  0  0  0  0  0  0
  -25.4980  -31.2800   26.2790 C   0  0  0  0  0  1  0  0  0  0  0  0
  -27.3620  -30.2860   24.9450 C   0  0  0  0  0  1  0  0  0  0  0  0
  -27.6920  -32.4670   26.0770 C   0  0  0  0  0  1  0  0  0  0  0  0
  -25.8370  -33.7620   24.3080 N   0  0  0  0  0  0  0  0  0  0  0  0
  -26.2080  -34.8200   23.5730 C   0  0  0  0  0  0  0  0  0  0  0  0
  -26.9600  -34.7260   22.5970 O   0  0  0  0  0  0  0  0  0  0  0  0
  -25.1860  -33.9090   25.0650 H   0  0  0  0  0  0  0  0  0  0  0  0
  -24.4990  -36.5870   23.0560 C   0  0  0  0  0  1  0  0  0  0  0  0
  -25.6600  -36.1980   23.9840 C   0  0  0  0  0  3  0  0  0  0  0  0
  -27.6850  -37.1140   25.0280 C   0  0  0  0  0  1  0  0  0  0  0  0
  -26.6830  -37.2660   23.9750 N   0  0  0  0  0  0  0  0  0  0  0  0
  -26.2510  -38.1800   24.0790 H   0  0  0  0  0  0  0  0  0  0  0  0
  1 47  1  0
  2 16  1  0
  3  8  1  0
  4  3  1  0
  4  5  1  0
  6  5  1  0
  6  7  1  0
  6 20  1  0
  8  2  1  0
  8  7  1  0
  9  2  2  0
 10 12  1  0
 10 14  1  0
 11 15  1  0
 13 15  1  0
 14  1  1  0
 14 11  1  0
 15 46  1  0
 16 12  1  0
 16 13  1  0
 17 42  1  0
 17 18  2  0
 18 37  1  0
 19 22  1  0
 19 18  1  0
 20 21  1  0
 20 17  1  0
 21 19  2  0
 22 23  1  0
 23 24  2  0
 25 28  1  0
 25 24  1  0
 26 25  2  0
 27 26  1  0
 27 22  2  0
 28 29  1  0
 29 30  1  0
 30 31  2  0
 32 31  1  0
 32 36  1  0
 33 32  2  0
 34 29  2  0
 34 33  1  0
 35 34  1  0
 37 38  1  0
 38 40  1  0
 38 41  1  0
 39 37  2  0
 42 43  1  0
 44 42  1  0
 46 45  1  0
 48 47  1  0
 48 49  1  0
 50 51  1  0
 50 49  1  0
 52 54  1  0
 52 51  1  0
 53 64  2  0
 54 59  1  0
 55 63  1  0
 55 65  1  0
 56 62  1  0
 56 58  1  0
 57 63  1  0
 58 57  1  0
 59 58  2  0
 60 54  2  0
 61 60  1  0
 61 56  2  0
 62 55  1  0
 63 53  1  0
 65 67  2  0
 66 65  1  0
 68 66  1  0
 69 78  2  0
 69 74  1  0
 70 66  1  0
 70 74  1  0
 71 70  1  0
 72 73  1  0
 72 71  1  0
 73 69  1  0
 74 75  2  0
 75 76  1  0
 77 76  2  0
 78 77  1  0
 79 53  1  0
 79 84  1  0
 79 80  1  0
 80 83  1  1
 80 81  1  0
 82 80  1  0
 84 87  1  0
 85 89  1  0
 85 84  1  0
 86 85  2  0
 89 88  1  0
 91 89  1  0
 91 92  1  0
 91 90  1  0
M  ISO  4   2 100  16 100  51 101  52 101
M  END
>  <TORSDO>  (66) 
F 22

>  <SCORE>  (66) 
2.343

>  <name>  (66) 
65

>  <ligand_id>  (66) 
65

>  <original_smiles>  (66) 
[H]c1c([H])c([H])c2c(c1[H])C([H])([H])C([H])([H])C([H])([H])C2([H])N([H])C(=O)C1([H])N(C(=O)C([H])(N([H])C(=O)C([H])(N([H])C([H])([H])[H])C([H])([H])[H])C(C([H])([H])[H])(C([H])([H])[H])C([H])([H])[H])C([H])([H])c2c([H])c(OC([H])([H])C([H])([H])C([H])([H])C([H])([H])C([H])([H])C([H])([H])C3([H])C([H])([H])C([H])([H])N(C(=O)N4C([H])([H])C([H])([H])C([H])([H])C([H])(n5nc(-c6c([H])c([H])c(Oc7c([H])c([H])c(F)c([H])c7F)c([H])c6[H])c(C(=O)N([H])[H])c5N([H])[H])C4([H])[H])C([H])([H])C([H])(C([H])([H])C([H])([H])[H])C3([H])[H])c([H])c([H])c2C1([H])[H]

>  <smiles>  (66) 
[H]c1c([H])c([H])c2c(c1[H])C([H])([H])C([H])([H])C([H])([H])C2([H])N([H])C(=O)C1([H])N(C(=O)C([H])(N([H])C(=O)C([H])(N([H])C([H])([H])[H])C([H])([H])[H])C(C([H])([H])[H])(C([H])([H])[H])C([H])([H])[H])C([H])([H])c2c([H])c(OC([H])([H])C([H])([H])C([H])([H])C([H])([H])C([H])([H])C([H])([H])C3([H])C([H])([H])C([H])([H])N(C(=O)N4C([H])([H])C([H])([H])C([H])([H])C([H])(n5nc(-c6c([H])c([H])c(Oc7c([H])c([H])c(F)c([H])c7F)c([H])c6[H])c(C(=O)N([H])[H])c5N([H])[H])C4([H])[H])C([H])([H])C([H])(C([H])([H])C([H])([H])[H])C3([H])[H])c([H])c([H])c2C1([H])[H]

$$$$
66:0:0
     RDKit          3D

 96104  0  0  1  0  0  0  0  0999 V2000
  -30.0220  -22.1600   20.9900 C   0  0  0  0  0  3  0  0  0  0  0  0
  -31.4340  -22.5720   20.8650 N   0  0  0  0  0  4  0  0  0  0  0  0
  -31.6600  -22.8260   19.9200 H   0  0  0  0  0  0  0  0  0  0  0  0
  -32.0480  -21.8270   21.1450 H   0  0  0  0  0  0  0  0  0  0  0  0
  -31.6230  -23.3580   21.4610 H   0  0  0  0  0  0  0  0  0  0  0  0
  -28.8220  -24.1280   22.1170 C   0  0  0  0  0  1  0  0  0  0  0  0
  -29.0410  -23.3840   20.7860 C   0  0  0  0  0  3  0  0  0  0  0  0
  -29.4010  -24.4190   19.6660 C   0  0  0  0  0  2  0  0  0  0  0  0
  -28.2760  -25.4380   19.3010 C   0  0  0  0  0  2  0  0  0  0  0  0
  -28.3920  -26.7920   19.8150 O   0  0  0  0  0  0  0  0  0  0  0  0
  -24.5800  -31.7890   23.2510 C   0  0  0  0  0  0  0  0  0  0  0  0
  -27.2360  -27.5700   19.8280 C   0  0  0  0  0  0  0  0  0  0  0  0
  -23.3850  -30.5220   21.4990 C   0  0  0  0  0  3  0  0  0  0  0  0
  -24.8460  -29.1120   19.9570 C   0  0  0  0  0  0  0  0  0  0  0  0
  -25.9180  -30.8840   21.3460 C   0  0  0  0  0  2  0  0  0  0  0  0
  -26.0060  -29.5690   20.5940 C   0  0  0  0  0  0  0  0  0  0  0  0
  -27.2020  -28.8050   20.5300 C   0  0  0  0  0  3  0  0  0  0  0  0
  -26.0500  -27.1570   19.1690 C   0  0  0  0  0  3  0  0  0  0  0  0
  -24.8660  -27.9070   19.2420 C   0  0  0  0  0  3  0  0  0  0  0  0
  -23.6010  -29.9650   20.0700 C   0  0  0  0  0  2  0  0  0  0  0  0
  -24.6460  -31.0760   22.0900 N   0  0  0  0  0  0  0  0  0  0  0  0
  -23.4960  -32.0160   23.8050 O   0  0  0  0  0  0  0  0  0  0  0  0
  -22.7320  -29.4230   22.3690 C   0  0  0  0  0  0  0  0  0  0  0  0
  -21.4060  -29.2550   22.2290 N   0  0  0  0  0  0  0  0  0  0  0  0
  -23.4140  -28.7310   23.1280 O   0  0  0  0  0  0  0  0  0  0  0  0
  -20.9160  -29.8690   21.5930 H   0  0  0  0  0  0  0  0  0  0  0  0
  -18.0210  -28.0690   22.6760 C   0  0  0  0  0  0  0  0  0  0  0  0
  -20.5870  -28.2580   22.9190 C   0  0  0  0  0  3  0  0  0  0  0  0
  -20.6540  -26.8900   22.2020 C   0  0  0  0  0  2  0  0  0  0  0  0
  -19.5270  -26.6870   21.1830 C   0  0  0  0  0  2  0  0  0  0  0  0
  -18.1600  -26.7910   21.8670 C   0  0  0  0  0  2  0  0  0  0  0  0
  -19.1610  -28.7660   23.1560 C   0  0  0  0  0  0  0  0  0  0  0  0
  -18.9770  -29.9690   23.8730 C   0  0  0  0  0  3  0  0  0  0  0  0
  -17.6830  -30.4720   24.1150 C   0  0  0  0  0  3  0  0  0  0  0  0
  -16.5590  -29.7690   23.6500 C   0  0  0  0  0  3  0  0  0  0  0  0
  -16.7280  -28.5690   22.9370 C   0  0  0  0  0  3  0  0  0  0  0  0
  -25.8610  -32.3720   23.9230 C   0  0  0  0  0  3  0  0  0  0  0  0
  -26.3720  -31.5070   25.1400 C   0  0  1  0  0  0  0  0  0  0  0  0
  -25.2670  -31.1670   26.1670 C   0  0  0  0  0  1  0  0  0  0  0  0
  -26.9850  -30.1760   24.6480 C   0  0  0  0  0  1  0  0  0  0  0  0
  -27.4990  -32.2630   25.8830 C   0  0  0  0  0  1  0  0  0  0  0  0
  -25.5510  -33.7410   24.3530 N   0  0  0  0  0  0  0  0  0  0  0  0
  -25.9280  -34.8480   23.6990 C   0  0  0  0  0  0  0  0  0  0  0  0
  -26.6450  -34.8210   22.6950 O   0  0  0  0  0  0  0  0  0  0  0  0
  -24.9220  -33.8380   25.1370 H   0  0  0  0  0  0  0  0  0  0  0  0
  -24.2710  -36.7130   23.3790 C   0  0  0  0  0  1  0  0  0  0  0  0
  -25.4310  -36.2000   24.2470 C   0  0  0  0  0  3  0  0  0  0  0  0
  -27.5020  -36.9460   25.3350 C   0  0  0  0  0  1  0  0  0  0  0  0
  -26.4900  -37.2300   24.3200 N   0  0  0  0  0  0  0  0  0  0  0  0
  -26.0910  -38.1440   24.5170 H   0  0  0  0  0  0  0  0  0  0  0  0
  -29.7140  -20.8610   20.1600 C   0  0  0  0  0  2  0  0  0  0  0  0
  -30.2250  -19.2070   22.1340 C   0  0  0  0  0  2  0  0  0  0  0  0
  -30.0980  -18.2220   19.9340 C   0  0  0  0  0  2  0  0  0  0  0  0
  -30.4390  -19.5560   20.6490 C   0  0  0  0  0  3  0  0  0  0  0  0
  -30.2910  -17.6660   22.2680 C   0  0  0  0  0  3  0  0  0  0  0  0
  -30.6690  -17.1310   20.8750 C   0  0  0  0  0  3  0  0  0  0  0  0
  -30.8440  -14.7260   20.1080 C   0  0  0  0  0  0  0  0  0  0  0  0
  -30.5440  -12.5410   18.9900 C   0  0  0  0  0  2  0  0  0  0  0  0
  -29.5740  -12.7060   17.8020 C   0  0  0  0  0  2  0  0  0  0  0  0
  -28.1130  -12.5520   18.2660 C   0  0  0  0  0  2  0  0  0  0  0  0
  -27.7900  -13.4050   19.5210 C   0  0  0  0  0  3  0  0  0  0  0  0
  -28.8710  -13.2280   20.6100 C   0  0  0  0  0  2  0  0  0  0  0  0
  -30.1740  -13.5420   20.0050 N   0  0  0  0  0  0  0  0  0  0  0  0
  -31.9630  -14.8950   19.6180 O   0  0  0  0  0  0  0  0  0  0  0  0
  -30.1630  -15.7560   20.6580 N   0  0  0  0  0  0  0  0  0  0  0  0
  -29.2340  -15.5470   20.9940 H   0  0  0  0  0  0  0  0  0  0  0  0
  -25.3980  -13.9920   20.2640 C   0  0  0  0  0  0  0  0  0  0  0  0
  -24.3470  -13.2120   20.6680 C   0  0  0  0  0  0  0  0  0  0  0  0
  -24.8270  -11.8670   20.6560 C   0  0  0  0  0  0  0  0  0  0  0  0
  -26.4500  -13.1210   20.0320 N   0  0  0  0  0  0  0  0  0  0  0  0
  -26.1120  -11.8390   20.3250 N   0  0  0  0  0  0  0  0  0  0  0  0
  -24.1220  -10.5980   20.8840 C   0  0  0  0  0  0  0  0  0  0  0  0
  -24.5220   -9.7030   21.9000 C   0  0  0  0  0  3  0  0  0  0  0  0
  -23.8170   -8.4990   22.1120 C   0  0  0  0  0  3  0  0  0  0  0  0
  -22.6970   -8.1810   21.3070 C   0  0  0  0  0  0  0  0  0  0  0  0
  -22.3170   -9.0650   20.2830 C   0  0  0  0  0  3  0  0  0  0  0  0
  -23.0230  -10.2600   20.0690 C   0  0  0  0  0  3  0  0  0  0  0  0
  -21.9680   -7.0230   21.4240 O   0  0  0  0  0  0  0  0  0  0  0  0
  -21.7930   -6.4010   22.6340 C   0  0  0  0  0  0  0  0  0  0  0  0
  -21.1730   -7.0500   23.7240 C   0  0  0  0  0  3  0  0  0  0  0  0
  -20.9520   -6.3510   24.9270 C   0  0  0  0  0  3  0  0  0  0  0  0
  -21.3400   -5.0030   25.0400 C   0  0  0  0  0  0  0  0  0  0  0  0
  -21.9530   -4.3530   23.9550 C   0  0  0  0  0  3  0  0  0  0  0  0
  -22.1760   -5.0490   22.7540 C   0  0  0  0  0  0  0  0  0  0  0  0
  -22.7470   -4.4120   21.7040 F   0  0  0  0  0  0  0  0  0  0  0  0
  -21.1210   -4.3280   26.1930 F   0  0  0  0  0  0  0  0  0  0  0  0
  -22.9480  -13.6760   20.9570 C   0  0  0  0  0  0  0  0  0  0  0  0
  -22.2590  -13.0080   21.8750 N   0  0  0  0  0  0  0  0  0  0  0  0
  -22.4760  -14.6680   20.4030 O   0  0  0  0  0  0  0  0  0  0  0  0
  -22.6530  -12.2060   22.3440 H   0  0  0  0  0  0  0  0  0  0  0  0
  -21.3220  -13.3020   22.1120 H   0  0  0  0  0  0  0  0  0  0  0  0
  -25.5400  -15.3610   20.0550 N   0  0  0  0  0  0  0  0  0  0  0  0
  -24.7650  -16.0060   20.1610 H   0  0  0  0  0  0  0  0  0  0  0  0
  -26.3780  -15.8030   19.6980 H   0  0  0  0  0  0  0  0  0  0  0  0
  -30.9010  -17.7710   24.7590 C   0  0  0  0  0  1  0  0  0  0  0  0
  -31.2260  -17.1660   23.3850 C   0  0  0  0  0  2  0  0  0  0  0  0
  1 51  1  0
  2  1  1  0
  2  4  1  0
  2  5  1  0
  3  2  1  0
  7  1  1  0
  7  6  1  0
  8  7  1  0
  9  8  1  0
  9 10  1  0
 10 12  1  0
 11 22  2  0
 12 17  1  0
 13 21  1  0
 13 23  1  0
 14 20  1  0
 14 16  1  0
 15 21  1  0
 16 15  1  0
 17 16  2  0
 18 19  1  0
 18 12  2  0
 19 14  2  0
 20 13  1  0
 21 11  1  0
 23 25  2  0
 24 23  1  0
 26 24  1  0
 27 36  2  0
 27 32  1  0
 28 24  1  0
 28 32  1  0
 29 28  1  0
 30 31  1  0
 30 29  1  0
 31 27  1  0
 32 33  2  0
 33 34  1  0
 35 34  2  0
 36 35  1  0
 37 11  1  0
 37 42  1  0
 37 38  1  0
 38 41  1  1
 38 39  1  0
 40 38  1  0
 42 45  1  0
 43 47  1  0
 43 42  1  0
 44 43  2  0
 47 46  1  0
 47 49  1  0
 49 50  1  0
 49 48  1  0
 52 55  1  0
 53 54  1  0
 53 56  1  0
 54 51  1  0
 54 52  1  0
 55 96  1  0
 56 65  1  0
 56 55  1  0
 57 65  1  0
 58 63  1  0
 59 60  1  0
 59 58  1  0
 61 60  1  0
 61 70  1  0
 61 62  1  0
 63 57  1  0
 63 62  1  0
 64 57  2  0
 65 66  1  0
 67 68  2  0
 68 87  1  0
 69 68  1  0
 69 72  1  0
 70 67  1  0
 70 71  1  0
 71 69  2  0
 72 73  1  0
 73 74  2  0
 75 78  1  0
 75 74  1  0
 76 75  2  0
 77 76  1  0
 77 72  2  0
 78 79  1  0
 79 84  2  0
 79 80  1  0
 80 81  2  0
 81 82  1  0
 82 86  1  0
 83 82  2  0
 84 83  1  0
 85 84  1  0
 87 88  1  0
 88 91  1  0
 88 90  1  0
 89 87  2  0
 92 93  1  0
 92 67  1  0
 94 92  1  0
 96 95  1  0
M  ISO  4   9 101  10 101  57 100  65 100
M  END
>  <TORSDO>  (67) 
F 23

>  <SCORE>  (67) 
-9.565

>  <name>  (67) 
66

>  <ligand_id>  (67) 
66

>  <original_smiles>  (67) 
[H]c1c([H])c([H])c2c(c1[H])C([H])([H])C([H])([H])C([H])([H])C2([H])N([H])C(=O)C1([H])N(C(=O)C([H])(N([H])C(=O)C([H])(N([H])C([H])([H])[H])C([H])([H])[H])C(C([H])([H])[H])(C([H])([H])[H])C([H])([H])[H])C([H])([H])c2c([H])c(OC([H])([H])C([H])([H])C([H])(C([H])([H])[H])C([H])(C([H])([H])C3([H])C([H])([H])C([H])(N([H])C(=O)N4C([H])([H])C([H])([H])C([H])([H])C([H])(n5nc(-c6c([H])c([H])c(Oc7c([H])c([H])c(F)c([H])c7F)c([H])c6[H])c(C(=O)N([H])[H])c5N([H])[H])C4([H])[H])C([H])(C([H])([H])C([H])([H])[H])C3([H])[H])[N+]([H])([H])[H])c([H])c([H])c2C1([H])[H]

>  <smiles>  (67) 
[H]c1c([H])c([H])c2c(c1[H])C([H])([H])C([H])([H])C([H])([H])C2([H])N([H])C(=O)C1([H])N(C(=O)C([H])(N([H])C(=O)C([H])(N([H])C([H])([H])[H])C([H])([H])[H])C(C([H])([H])[H])(C([H])([H])[H])C([H])([H])[H])C([H])([H])c2c([H])c(OC([H])([H])C([H])([H])C([H])(C([H])([H])[H])C([H])(C([H])([H])C3([H])C([H])([H])C([H])(N([H])C(=O)N4C([H])([H])C([H])([H])C([H])([H])C([H])(n5nc(-c6c([H])c([H])c(Oc7c([H])c([H])c(F)c([H])c7F)c([H])c6[H])c(C(=O)N([H])[H])c5N([H])[H])C4([H])[H])C([H])(C([H])([H])C([H])([H])[H])C3([H])[H])[N+]([H])([H])[H])c([H])c([H])c2C1([H])[H]

$$$$
67:0:0
     RDKit          3D

 93101  0  0  1  0  0  0  0  0999 V2000
  -29.8510  -20.3160   20.3970 C   0  0  0  0  0  0  0  0  0  0  0  0
  -28.8590  -19.9730   19.7490 O   0  0  0  0  0  0  0  0  0  0  0  0
  -32.3310  -19.6710   20.1750 C   0  0  0  0  0  2  0  0  0  0  0  0
  -32.6290  -18.1820   20.3050 C   0  0  0  0  0  3  0  0  0  0  0  0
  -30.9820  -19.3950   20.8540 C   0  0  0  0  0  3  0  0  0  0  0  0
  -31.1070  -17.9010   20.3700 C   0  0  0  0  0  3  0  0  0  0  0  0
  -33.3640  -17.5610   19.1360 C   0  0  0  0  0  3  0  0  0  0  0  0
  -34.6080  -17.0630   19.2220 C   0  0  0  0  0  3  0  0  0  0  0  0
  -35.3400  -16.4030   18.0750 C   0  0  0  0  0  1  0  0  0  0  0  0
  -30.7000  -16.7220   21.2890 C   0  0  0  0  0  2  0  0  0  0  0  0
  -30.9690  -14.4500   20.1000 C   0  0  0  0  0  0  0  0  0  0  0  0
  -30.6220  -12.2750   18.9680 C   0  0  0  0  0  2  0  0  0  0  0  0
  -29.6600  -12.4550   17.7770 C   0  0  0  0  0  2  0  0  0  0  0  0
  -28.1840  -12.3840   18.2330 C   0  0  0  0  0  2  0  0  0  0  0  0
  -27.8950  -13.2570   19.4840 C   0  0  0  0  0  3  0  0  0  0  0  0
  -28.9570  -13.0120   20.5760 C   0  0  0  0  0  2  0  0  0  0  0  0
  -30.2740  -13.2850   19.9760 N   0  0  0  0  0  0  0  0  0  0  0  0
  -32.1030  -14.5970   19.6460 O   0  0  0  0  0  0  0  0  0  0  0  0
  -30.2660  -15.4590   20.6600 N   0  0  0  0  0  0  0  0  0  0  0  0
  -29.3000  -15.2250   20.8330 H   0  0  0  0  0  0  0  0  0  0  0  0
  -25.5370  -13.9750   20.2410 C   0  0  0  0  0  0  0  0  0  0  0  0
  -24.4470  -13.2530   20.6460 C   0  0  0  0  0  0  0  0  0  0  0  0
  -24.8520  -11.8830   20.6230 C   0  0  0  0  0  0  0  0  0  0  0  0
  -26.5400  -13.0480   19.9920 N   0  0  0  0  0  0  0  0  0  0  0  0
  -26.1310  -11.7850   20.2800 N   0  0  0  0  0  0  0  0  0  0  0  0
  -24.0790  -10.6550   20.8500 C   0  0  0  0  0  0  0  0  0  0  0  0
  -24.4830   -9.6900   21.7990 C   0  0  0  0  0  3  0  0  0  0  0  0
  -23.7110   -8.5250   22.0070 C   0  0  0  0  0  3  0  0  0  0  0  0
  -22.5240   -8.3190   21.2660 C   0  0  0  0  0  0  0  0  0  0  0  0
  -22.1380   -9.2710   20.3070 C   0  0  0  0  0  3  0  0  0  0  0  0
  -22.9100  -10.4260   20.0980 C   0  0  0  0  0  3  0  0  0  0  0  0
  -21.7270   -7.2060   21.3860 O   0  0  0  0  0  0  0  0  0  0  0  0
  -21.6440   -6.5000   22.5590 C   0  0  0  0  0  0  0  0  0  0  0  0
  -21.2480   -7.1110   23.7690 C   0  0  0  0  0  3  0  0  0  0  0  0
  -21.1090   -6.3340   24.9360 C   0  0  0  0  0  3  0  0  0  0  0  0
  -21.3560   -4.9480   24.8950 C   0  0  0  0  0  0  0  0  0  0  0  0
  -21.7470   -4.3400   23.6890 C   0  0  0  0  0  3  0  0  0  0  0  0
  -21.8860   -5.1120   22.5240 C   0  0  0  0  0  0  0  0  0  0  0  0
  -22.2430   -4.5160   21.3610 F   0  0  0  0  0  0  0  0  0  0  0  0
  -21.2140   -4.2020   26.0130 F   0  0  0  0  0  0  0  0  0  0  0  0
  -23.0770  -13.7950   20.9410 C   0  0  0  0  0  0  0  0  0  0  0  0
  -22.3460  -13.1560   21.8480 N   0  0  0  0  0  0  0  0  0  0  0  0
  -22.6680  -14.8220   20.4030 O   0  0  0  0  0  0  0  0  0  0  0  0
  -22.6890  -12.3280   22.3130 H   0  0  0  0  0  0  0  0  0  0  0  0
  -21.4290  -13.5090   22.0820 H   0  0  0  0  0  0  0  0  0  0  0  0
  -25.7530  -15.3350   20.0410 N   0  0  0  0  0  0  0  0  0  0  0  0
  -25.0060  -16.0110   20.1610 H   0  0  0  0  0  0  0  0  0  0  0  0
  -26.5910  -15.7440   19.6510 H   0  0  0  0  0  0  0  0  0  0  0  0
  -30.0360  -21.8090   20.8000 C   0  0  0  0  0  3  0  0  0  0  0  0
  -29.0090  -22.8410   20.2290 C   0  0  0  0  0  3  0  0  0  0  0  0
  -29.3350  -24.3580   20.4700 C   0  0  0  0  0  2  0  0  0  0  0  0
  -28.2600  -25.3180   19.8760 C   0  0  0  0  0  2  0  0  0  0  0  0
  -28.2980  -26.6900   20.3440 O   0  0  0  0  0  0  0  0  0  0  0  0
  -24.5600  -31.9870   23.3550 C   0  0  0  0  0  0  0  0  0  0  0  0
  -27.1270  -27.4460   20.3060 C   0  0  0  0  0  0  0  0  0  0  0  0
  -23.3210  -30.5870   21.7340 C   0  0  0  0  0  3  0  0  0  0  0  0
  -24.7460  -29.0090   20.3220 C   0  0  0  0  0  0  0  0  0  0  0  0
  -25.8510  -30.9020   21.5140 C   0  0  0  0  0  2  0  0  0  0  0  0
  -25.9170  -29.5130   20.9010 C   0  0  0  0  0  0  0  0  0  0  0  0
  -27.1020  -28.7350   20.8980 C   0  0  0  0  0  3  0  0  0  0  0  0
  -25.9340  -26.9800   19.6950 C   0  0  0  0  0  3  0  0  0  0  0  0
  -24.7510  -27.7430   19.7190 C   0  0  0  0  0  3  0  0  0  0  0  0
  -23.5130  -29.8850   20.3640 C   0  0  0  0  0  2  0  0  0  0  0  0
  -24.5980  -31.1760   22.2580 N   0  0  0  0  0  0  0  0  0  0  0  0
  -23.4890  -32.2790   23.9010 O   0  0  0  0  0  0  0  0  0  0  0  0
  -22.6600  -29.5930   22.7120 C   0  0  0  0  0  0  0  0  0  0  0  0
  -21.3400  -29.3890   22.5560 N   0  0  0  0  0  0  0  0  0  0  0  0
  -23.3280  -29.0020   23.5630 O   0  0  0  0  0  0  0  0  0  0  0  0
  -20.8610  -29.9050   21.8320 H   0  0  0  0  0  0  0  0  0  0  0  0
  -17.9820  -28.1250   22.9640 C   0  0  0  0  0  0  0  0  0  0  0  0
  -20.5160  -28.4700   23.3400 C   0  0  0  0  0  3  0  0  0  0  0  0
  -20.6900  -27.0180   22.8430 C   0  0  0  0  0  2  0  0  0  0  0  0
  -19.6470  -26.6110   21.7980 C   0  0  0  0  0  2  0  0  0  0  0  0
  -18.2310  -26.7490   22.3660 C   0  0  0  0  0  2  0  0  0  0  0  0
  -19.0590  -28.9370   23.4070 C   0  0  0  0  0  0  0  0  0  0  0  0
  -18.7790  -30.2210   23.9250 C   0  0  0  0  0  3  0  0  0  0  0  0
  -17.4570  -30.6910   24.0120 C   0  0  0  0  0  3  0  0  0  0  0  0
  -16.3920  -29.8750   23.5900 C   0  0  0  0  0  3  0  0  0  0  0  0
  -16.6570  -28.5960   23.0670 C   0  0  0  0  0  3  0  0  0  0  0  0
  -25.8620  -32.6030   23.9580 C   0  0  0  0  0  3  0  0  0  0  0  0
  -25.5850  -34.0120   24.2670 N   0  0  0  0  0  0  0  0  0  0  0  0
  -25.9280  -35.0430   23.4830 C   0  0  0  0  0  0  0  0  0  0  0  0
  -26.5820  -34.9100   22.4460 O   0  0  0  0  0  0  0  0  0  0  0  0
  -25.0080  -34.1960   25.0740 H   0  0  0  0  0  0  0  0  0  0  0  0
  -24.2260  -36.8580   23.1210 C   0  0  0  0  0  1  0  0  0  0  0  0
  -25.4710  -36.4470   23.9230 C   0  0  0  0  0  3  0  0  0  0  0  0
  -27.6300  -37.3090   24.7130 C   0  0  0  0  0  1  0  0  0  0  0  0
  -26.5180  -37.4800   23.7820 N   0  0  0  0  0  0  0  0  0  0  0  0
  -26.1260  -38.4070   23.9280 H   0  0  0  0  0  0  0  0  0  0  0  0
  -26.3810  -31.8380   25.2370 C   0  0  1  0  0  0  0  0  0  0  0  0
  -25.2930  -31.6250   26.3140 C   0  0  0  0  0  1  0  0  0  0  0  0
  -26.9390  -30.4490   24.8500 C   0  0  0  0  0  1  0  0  0  0  0  0
  -27.5440  -32.6230   25.8860 C   0  0  0  0  0  1  0  0  0  0  0  0
  1 49  1  0
  2  1  2  0
  3  4  1  0
  3  5  1  0
  4  7  1  0
  4  6  1  0
  5  1  1  0
  6  5  1  0
  6 10  1  0
  7  8  2  0
  9  8  1  0
 11 19  1  0
 12 17  1  0
 13 14  1  0
 13 12  1  0
 15 14  1  0
 15 24  1  0
 15 16  1  0
 17 11  1  0
 17 16  1  0
 18 11  2  0
 19 20  1  0
 19 10  1  0
 21 22  2  0
 22 41  1  0
 23 22  1  0
 23 26  1  0
 24 21  1  0
 24 25  1  0
 25 23  2  0
 26 27  1  0
 27 28  2  0
 29 32  1  0
 29 28  1  0
 30 29  2  0
 31 30  1  0
 31 26  2  0
 32 33  1  0
 33 34  1  0
 34 35  2  0
 36 35  1  0
 36 40  1  0
 37 36  2  0
 38 33  2  0
 38 37  1  0
 39 38  1  0
 41 42  1  0
 42 45  1  0
 42 44  1  0
 43 41  2  0
 46 47  1  0
 46 21  1  0
 48 46  1  0
 50 51  1  0
 50 49  2  0
 52 53  1  0
 52 51  1  0
 54 65  2  0
 55 53  1  0
 55 60  1  0
 56 64  1  0
 56 66  1  0
 57 63  1  0
 57 59  1  0
 58 64  1  0
 59 58  1  0
 60 59  2  0
 61 62  1  0
 61 55  2  0
 62 57  2  0
 63 56  1  0
 64 54  1  0
 66 68  2  0
 67 66  1  0
 69 67  1  0
 70 79  2  0
 70 75  1  0
 71 67  1  0
 71 75  1  0
 72 71  1  0
 73 74  1  0
 73 72  1  0
 74 70  1  0
 75 76  2  0
 76 77  1  0
 78 77  2  0
 79 78  1  0
 80 54  1  0
 80 81  1  0
 80 90  1  0
 81 84  1  0
 82 86  1  0
 82 81  1  0
 83 82  2  0
 86 85  1  0
 88 86  1  0
 88 89  1  0
 88 87  1  0
 90 93  1  1
 90 91  1  0
 92 90  1  0
M  ISO  4  11 100  19 100  52 101  53 101
M  END
>  <TORSDO>  (68) 
F 23

>  <SCORE>  (68) 
-12.643

>  <name>  (68) 
67

>  <ligand_id>  (68) 
67

>  <original_smiles>  (68) 
[H]C(=C([H])C1([H])C([H])([H])C([H])(C(=O)C([H])([H])C([H])([H])C([H])([H])C([H])([H])Oc2c([H])c([H])c3c(c2[H])C([H])([H])N(C(=O)C([H])(N([H])C(=O)C([H])(N([H])C([H])([H])[H])C([H])([H])[H])C(C([H])([H])[H])(C([H])([H])[H])C([H])([H])[H])C([H])(C(=O)N([H])C2([H])c4c([H])c([H])c([H])c([H])c4C([H])([H])C([H])([H])C2([H])[H])C3([H])[H])C1([H])C([H])([H])N([H])C(=O)N1C([H])([H])C([H])([H])C([H])([H])C([H])(n2nc(-c3c([H])c([H])c(Oc4c([H])c([H])c(F)c([H])c4F)c([H])c3[H])c(C(=O)N([H])[H])c2N([H])[H])C1([H])[H])C([H])([H])[H]

>  <smiles>  (68) 
[H]C(=C([H])C1([H])C([H])([H])C([H])(C(=O)C([H])([H])C([H])([H])C([H])([H])C([H])([H])Oc2c([H])c([H])c3c(c2[H])C([H])([H])N(C(=O)C([H])(N([H])C(=O)C([H])(N([H])C([H])([H])[H])C([H])([H])[H])C(C([H])([H])[H])(C([H])([H])[H])C([H])([H])[H])C([H])(C(=O)N([H])C2([H])c4c([H])c([H])c([H])c([H])c4C([H])([H])C([H])([H])C2([H])[H])C3([H])[H])C1([H])C([H])([H])N([H])C(=O)N1C([H])([H])C([H])([H])C([H])([H])C([H])(n2nc(-c3c([H])c([H])c(Oc4c([H])c([H])c(F)c([H])c4F)c([H])c3[H])c(C(=O)N([H])[H])c2N([H])[H])C1([H])[H])C([H])([H])[H]

$$$$
68:0:0
     RDKit          3D

 91 99  0  0  1  0  0  0  0  0999 V2000
  -28.4190  -22.0150   18.7070 C   0  0  0  0  0  2  0  0  0  0  0  0
  -27.6220  -20.7050   18.7890 C   0  0  0  0  0  2  0  0  0  0  0  0
  -28.1090  -19.6240   17.8030 C   0  0  0  0  0  2  0  0  0  0  0  0
  -29.2830  -18.8060   18.3440 C   0  0  0  0  0  0  0  0  0  0  0  0
  -30.4450  -19.1790   18.1700 O   0  0  0  0  0  0  0  0  0  0  0  0
  -30.7310  -14.4690   20.1930 C   0  0  0  0  0  0  0  0  0  0  0  0
  -30.4300  -12.3010   19.0960 C   0  0  0  0  0  2  0  0  0  0  0  0
  -29.4640  -12.5160   17.9120 C   0  0  0  0  0  2  0  0  0  0  0  0
  -27.9910  -12.4050   18.3630 C   0  0  0  0  0  2  0  0  0  0  0  0
  -27.6850  -13.2320   19.6420 C   0  0  0  0  0  3  0  0  0  0  0  0
  -28.7650  -12.9910   20.7240 C   0  0  0  0  0  2  0  0  0  0  0  0
  -30.0740  -13.2840   20.1240 N   0  0  0  0  0  0  0  0  0  0  0  0
  -31.9080  -14.6010   19.8420 O   0  0  0  0  0  0  0  0  0  0  0  0
  -28.9730  -17.6730   20.6260 C   0  0  0  0  0  2  0  0  0  0  0  0
  -29.2920  -16.2710   21.1690 C   0  0  0  0  0  2  0  0  0  0  0  0
  -29.9470  -16.3740   18.8690 C   0  0  0  0  0  2  0  0  0  0  0  0
  -28.9470  -17.5130   19.1050 C   0  0  0  0  0  3  0  0  0  0  0  0
  -29.9000  -15.5280   20.0630 N   0  0  0  0  0  0  0  0  0  0  0  0
  -25.3080  -13.8550   20.4070 C   0  0  0  0  0  0  0  0  0  0  0  0
  -24.2430  -13.0850   20.7930 C   0  0  0  0  0  0  0  0  0  0  0  0
  -24.6980  -11.7330   20.7520 C   0  0  0  0  0  0  0  0  0  0  0  0
  -26.3430  -12.9670   20.1500 N   0  0  0  0  0  0  0  0  0  0  0  0
  -25.9820  -11.6870   20.4170 N   0  0  0  0  0  0  0  0  0  0  0  0
  -23.9720  -10.4720   20.9560 C   0  0  0  0  0  0  0  0  0  0  0  0
  -24.4120   -9.5100   21.8910 C   0  0  0  0  0  3  0  0  0  0  0  0
  -23.6900   -8.3130   22.0790 C   0  0  0  0  0  3  0  0  0  0  0  0
  -22.5110   -8.0710   21.3310 C   0  0  0  0  0  0  0  0  0  0  0  0
  -22.0930   -9.0210   20.3830 C   0  0  0  0  0  3  0  0  0  0  0  0
  -22.8170  -10.2090   20.1930 C   0  0  0  0  0  3  0  0  0  0  0  0
  -21.7600   -6.9250   21.4280 O   0  0  0  0  0  0  0  0  0  0  0  0
  -21.7010   -6.2010   22.5910 C   0  0  0  0  0  0  0  0  0  0  0  0
  -21.2700   -6.7740   23.8060 C   0  0  0  0  0  3  0  0  0  0  0  0
  -21.1580   -5.9720   24.9600 C   0  0  0  0  0  3  0  0  0  0  0  0
  -21.4690   -4.6010   24.9000 C   0  0  0  0  0  0  0  0  0  0  0  0
  -21.8950   -4.0280   23.6900 C   0  0  0  0  0  3  0  0  0  0  0  0
  -22.0090   -4.8260   22.5370 C   0  0  0  0  0  0  0  0  0  0  0  0
  -22.4000   -4.2650   21.3680 F   0  0  0  0  0  0  0  0  0  0  0  0
  -21.3530   -3.8300   26.0080 F   0  0  0  0  0  0  0  0  0  0  0  0
  -22.8520  -13.5670   21.0940 C   0  0  0  0  0  0  0  0  0  0  0  0
  -22.1370  -12.8700   21.9710 N   0  0  0  0  0  0  0  0  0  0  0  0
  -22.4090  -14.5960   20.5870 O   0  0  0  0  0  0  0  0  0  0  0  0
  -22.5070  -12.0430   22.4130 H   0  0  0  0  0  0  0  0  0  0  0  0
  -21.2080  -13.1800   22.2150 H   0  0  0  0  0  0  0  0  0  0  0  0
  -25.4770  -15.2250   20.2390 N   0  0  0  0  0  0  0  0  0  0  0  0
  -24.7220  -15.8860   20.3950 H   0  0  0  0  0  0  0  0  0  0  0  0
  -26.3480  -15.6650   19.9760 H   0  0  0  0  0  0  0  0  0  0  0  0
  -27.9850  -23.0260   19.7780 C   0  0  0  0  0  2  0  0  0  0  0  0
  -28.5990  -24.4190   19.5700 C   0  0  0  0  0  2  0  0  0  0  0  0
  -29.1580  -25.2420   21.9320 C   0  0  0  0  0  1  0  0  0  0  0  0
  -28.2490  -25.3930   20.7070 C   0  0  0  0  0  3  0  0  0  0  0  0
  -28.3870  -26.7290   20.2280 O   0  0  0  0  0  0  0  0  0  0  0  0
  -24.5710  -31.8750   23.2460 C   0  0  0  0  0  0  0  0  0  0  0  0
  -27.2170  -27.4480   20.1920 C   0  0  0  0  0  0  0  0  0  0  0  0
  -23.3650  -30.4710   21.6030 C   0  0  0  0  0  3  0  0  0  0  0  0
  -24.8210  -28.9300   20.1880 C   0  0  0  0  0  0  0  0  0  0  0  0
  -25.8880  -30.8360   21.4070 C   0  0  0  0  0  2  0  0  0  0  0  0
  -25.9750  -29.4640   20.7750 C   0  0  0  0  0  0  0  0  0  0  0  0
  -27.1790  -28.7320   20.7720 C   0  0  0  0  0  3  0  0  0  0  0  0
  -26.0530  -26.9220   19.5910 C   0  0  0  0  0  3  0  0  0  0  0  0
  -24.8540  -27.6570   19.5920 C   0  0  0  0  0  3  0  0  0  0  0  0
  -23.5750  -29.7840   20.2260 C   0  0  0  0  0  2  0  0  0  0  0  0
  -24.6260  -31.0740   22.1450 N   0  0  0  0  0  0  0  0  0  0  0  0
  -23.4890  -32.1510   23.7820 O   0  0  0  0  0  0  0  0  0  0  0  0
  -22.7120  -29.4530   22.5660 C   0  0  0  0  0  0  0  0  0  0  0  0
  -21.3860  -29.2810   22.4400 N   0  0  0  0  0  0  0  0  0  0  0  0
  -23.3930  -28.8210   23.3780 O   0  0  0  0  0  0  0  0  0  0  0  0
  -20.9000  -29.8430   21.7550 H   0  0  0  0  0  0  0  0  0  0  0  0
  -18.0010  -28.1320   22.9510 C   0  0  0  0  0  0  0  0  0  0  0  0
  -20.5620  -28.3520   23.2110 C   0  0  0  0  0  3  0  0  0  0  0  0
  -20.6420  -26.9220   22.6280 C   0  0  0  0  0  2  0  0  0  0  0  0
  -19.5300  -26.6200   21.6170 C   0  0  0  0  0  2  0  0  0  0  0  0
  -18.1550  -26.7840   22.2690 C   0  0  0  0  0  2  0  0  0  0  0  0
  -19.1320  -28.8760   23.3780 C   0  0  0  0  0  0  0  0  0  0  0  0
  -18.9360  -30.1420   23.9740 C   0  0  0  0  0  3  0  0  0  0  0  0
  -17.6400  -30.6620   24.1470 C   0  0  0  0  0  3  0  0  0  0  0  0
  -16.5230  -29.9140   23.7360 C   0  0  0  0  0  3  0  0  0  0  0  0
  -16.7040  -28.6520   23.1440 C   0  0  0  0  0  3  0  0  0  0  0  0
  -25.8570  -32.5040   23.8680 C   0  0  0  0  0  3  0  0  0  0  0  0
  -26.3760  -31.7310   25.1430 C   0  0  1  0  0  0  0  0  0  0  0  0
  -25.2840  -31.4910   26.2120 C   0  0  0  0  0  1  0  0  0  0  0  0
  -26.9570  -30.3540   24.7460 C   0  0  0  0  0  1  0  0  0  0  0  0
  -27.5260  -32.5230   25.8060 C   0  0  0  0  0  1  0  0  0  0  0  0
  -25.5530  -33.9030   24.1920 N   0  0  0  0  0  0  0  0  0  0  0  0
  -25.8910  -34.9510   23.4300 C   0  0  0  0  0  0  0  0  0  0  0  0
  -26.5670  -34.8420   22.4020 O   0  0  0  0  0  0  0  0  0  0  0  0
  -24.9550  -34.0620   24.9910 H   0  0  0  0  0  0  0  0  0  0  0  0
  -24.1700  -36.7450   23.0530 C   0  0  0  0  0  1  0  0  0  0  0  0
  -25.4020  -36.3410   23.8770 C   0  0  0  0  0  3  0  0  0  0  0  0
  -27.5340  -37.2230   24.7200 C   0  0  0  0  0  1  0  0  0  0  0  0
  -26.4380  -37.3920   23.7680 N   0  0  0  0  0  0  0  0  0  0  0  0
  -26.0330  -38.3130   23.9130 H   0  0  0  0  0  0  0  0  0  0  0  0
  1  2  1  0
  1 47  1  0
  3  4  1  0
  3  2  1  0
  5  4  2  0
  7 12  1  0
  8  9  1  0
  8  7  1  0
 10  9  1  0
 10 22  1  0
 10 11  1  0
 12  6  1  0
 12 11  1  0
 13  6  2  0
 14 15  1  0
 16 17  1  0
 16 18  1  0
 17  4  1  0
 17 14  1  0
 18  6  1  0
 18 15  1  0
 19 20  2  0
 20 39  1  0
 21 20  1  0
 21 24  1  0
 22 19  1  0
 22 23  1  0
 23 21  2  0
 24 25  1  0
 25 26  2  0
 27 30  1  0
 27 26  1  0
 28 27  2  0
 29 28  1  0
 29 24  2  0
 30 31  1  0
 31 32  1  0
 32 33  2  0
 34 33  1  0
 34 38  1  0
 35 34  2  0
 36 31  2  0
 36 35  1  0
 37 36  1  0
 39 40  1  0
 40 43  1  0
 40 42  1  0
 41 39  2  0
 44 45  1  0
 44 19  1  0
 46 44  1  0
 48 47  1  0
 48 50  1  0
 50 49  1  0
 51 50  1  0
 52 63  2  0
 53 51  1  0
 53 58  1  0
 54 62  1  0
 54 64  1  0
 55 61  1  0
 55 57  1  0
 56 62  1  0
 57 56  1  0
 58 57  2  0
 59 60  1  0
 59 53  2  0
 60 55  2  0
 61 54  1  0
 62 52  1  0
 64 66  2  0
 65 64  1  0
 67 65  1  0
 68 77  2  0
 68 73  1  0
 69 65  1  0
 69 73  1  0
 70 69  1  0
 71 72  1  0
 71 70  1  0
 72 68  1  0
 73 74  2  0
 74 75  1  0
 76 75  2  0
 77 76  1  0
 78 52  1  0
 78 83  1  0
 78 79  1  0
 79 82  1  1
 79 80  1  0
 81 79  1  0
 83 86  1  0
 84 88  1  0
 84 83  1  0
 85 84  2  0
 88 87  1  0
 90 88  1  0
 90 91  1  0
 90 89  1  0
M  ISO  4   6 100  18 100  50 101  51 101
M  END
>  <TORSDO>  (69) 
F 22

>  <SCORE>  (69) 
-13.194

>  <name>  (69) 
68

>  <ligand_id>  (69) 
68

>  <original_smiles>  (69) 
[H]c1c([H])c([H])c2c(c1[H])C([H])([H])C([H])([H])C([H])([H])C2([H])N([H])C(=O)C1([H])N(C(=O)C([H])(N([H])C(=O)C([H])(N([H])C([H])([H])[H])C([H])([H])[H])C(C([H])([H])[H])(C([H])([H])[H])C([H])([H])[H])C([H])([H])c2c([H])c(OC([H])(C([H])([H])[H])C([H])([H])C([H])([H])C([H])([H])C([H])([H])C([H])([H])C(=O)C3([H])C([H])([H])N(C(=O)N4C([H])([H])C([H])([H])C([H])([H])C([H])(n5nc(-c6c([H])c([H])c(Oc7c([H])c([H])c(F)c([H])c7F)c([H])c6[H])c(C(=O)N([H])[H])c5N([H])[H])C4([H])[H])C([H])([H])C3([H])[H])c([H])c([H])c2C1([H])[H]

>  <smiles>  (69) 
[H]c1c([H])c([H])c2c(c1[H])C([H])([H])C([H])([H])C([H])([H])C2([H])N([H])C(=O)C1([H])N(C(=O)C([H])(N([H])C(=O)C([H])(N([H])C([H])([H])[H])C([H])([H])[H])C(C([H])([H])[H])(C([H])([H])[H])C([H])([H])[H])C([H])([H])c2c([H])c(OC([H])(C([H])([H])[H])C([H])([H])C([H])([H])C([H])([H])C([H])([H])C([H])([H])C(=O)C3([H])C([H])([H])N(C(=O)N4C([H])([H])C([H])([H])C([H])([H])C([H])(n5nc(-c6c([H])c([H])c(Oc7c([H])c([H])c(F)c([H])c7F)c([H])c6[H])c(C(=O)N([H])[H])c5N([H])[H])C4([H])[H])C([H])([H])C3([H])[H])c([H])c([H])c2C1([H])[H]

$$$$
69:0:0
     RDKit          3D

 95103  0  0  1  0  0  0  0  0999 V2000
  -26.8330  -19.9010   19.3190 C   0  0  0  0  0  2  0  0  0  0  0  0
  -29.0880  -20.1390   18.5420 C   0  0  0  0  0  2  0  0  0  0  0  0
  -27.8650  -20.9750   18.9610 C   0  0  0  0  0  3  0  0  0  0  0  0
  -27.6660  -18.7450   19.8930 C   0  0  0  0  0  3  0  0  0  0  0  0
  -28.9800  -18.8130   19.2060 N   0  0  2  0  0  4  0  0  0  0  0  0
  -28.9510  -18.1310   18.4630 H   0  0  0  0  0  0  0  0  0  0  0  0
  -26.0670  -16.9940   20.8840 C   0  0  0  0  0  1  0  0  0  0  0  0
  -27.0050  -17.3620   19.7260 C   0  0  0  0  0  2  0  0  0  0  0  0
  -28.1550  -21.9220   20.1370 C   0  0  0  0  0  0  0  0  0  0  0  0
  -28.8620  -21.5790   21.0880 O   0  0  0  0  0  0  0  0  0  0  0  0
  -27.5140  -23.3070   20.1080 C   0  0  0  0  0  2  0  0  0  0  0  0
  -28.4940  -24.4200   19.6750 C   0  0  0  0  0  2  0  0  0  0  0  0
  -28.5050  -25.6330   20.6260 C   0  0  0  0  0  2  0  0  0  0  0  0
  -28.5290  -26.8710   19.9170 O   0  0  0  0  0  0  0  0  0  0  0  0
  -24.5640  -31.6270   23.3960 C   0  0  0  0  0  0  0  0  0  0  0  0
  -27.3420  -27.5560   19.9730 C   0  0  0  0  0  0  0  0  0  0  0  0
  -23.3990  -30.3240   21.6440 C   0  0  0  0  0  3  0  0  0  0  0  0
  -24.8980  -28.9530   20.1030 C   0  0  0  0  0  0  0  0  0  0  0  0
  -25.9090  -30.7840   21.4750 C   0  0  0  0  0  2  0  0  0  0  0  0
  -26.0370  -29.4740   20.7310 C   0  0  0  0  0  0  0  0  0  0  0  0
  -27.2650  -28.7820   20.6640 C   0  0  0  0  0  3  0  0  0  0  0  0
  -26.1910  -27.0370   19.3460 C   0  0  0  0  0  3  0  0  0  0  0  0
  -24.9690  -27.7320   19.4080 C   0  0  0  0  0  3  0  0  0  0  0  0
  -23.6260  -29.7620   20.2140 C   0  0  0  0  0  2  0  0  0  0  0  0
  -24.6420  -30.9220   22.2320 N   0  0  0  0  0  0  0  0  0  0  0  0
  -23.4770  -31.8200   23.9550 O   0  0  0  0  0  0  0  0  0  0  0  0
  -22.7830  -29.2100   22.5180 C   0  0  0  0  0  0  0  0  0  0  0  0
  -21.4780  -28.9540   22.3280 N   0  0  0  0  0  0  0  0  0  0  0  0
  -23.4760  -28.5800   23.3210 O   0  0  0  0  0  0  0  0  0  0  0  0
  -20.9790  -29.5200   21.6550 H   0  0  0  0  0  0  0  0  0  0  0  0
  -18.1880  -27.4840   22.5640 C   0  0  0  0  0  0  0  0  0  0  0  0
  -20.6940  -27.9250   23.0100 C   0  0  0  0  0  3  0  0  0  0  0  0
  -20.9460  -26.5320   22.3890 C   0  0  0  0  0  2  0  0  0  0  0  0
  -19.9390  -26.1690   21.2950 C   0  0  0  0  0  2  0  0  0  0  0  0
  -18.5120  -26.1810   21.8530 C   0  0  0  0  0  2  0  0  0  0  0  0
  -19.2140  -28.3110   23.0920 C   0  0  0  0  0  0  0  0  0  0  0  0
  -18.8610  -29.5300   23.7120 C   0  0  0  0  0  3  0  0  0  0  0  0
  -17.5130  -29.9240   23.8090 C   0  0  0  0  0  3  0  0  0  0  0  0
  -16.5000  -29.0940   23.2970 C   0  0  0  0  0  3  0  0  0  0  0  0
  -16.8380  -27.8760   22.6800 C   0  0  0  0  0  3  0  0  0  0  0  0
  -25.8330  -32.2430   24.0650 C   0  0  0  0  0  3  0  0  0  0  0  0
  -25.5640  -33.6690   24.2920 N   0  0  0  0  0  0  0  0  0  0  0  0
  -26.0140  -34.6610   23.5110 C   0  0  0  0  0  0  0  0  0  0  0  0
  -26.7690  -34.4700   22.5550 O   0  0  0  0  0  0  0  0  0  0  0  0
  -24.9090  -33.8950   25.0260 H   0  0  0  0  0  0  0  0  0  0  0  0
  -24.4170  -36.5030   22.8940 C   0  0  0  0  0  1  0  0  0  0  0  0
  -25.5520  -36.0930   23.8450 C   0  0  0  0  0  3  0  0  0  0  0  0
  -27.6340  -36.9320   24.8410 C   0  0  0  0  0  1  0  0  0  0  0  0
  -26.6410  -37.0910   23.7810 N   0  0  0  0  0  0  0  0  0  0  0  0
  -26.2680  -38.0360   23.8350 H   0  0  0  0  0  0  0  0  0  0  0  0
  -26.2350  -31.5280   25.4130 C   0  0  1  0  0  0  0  0  0  0  0  0
  -25.0670  -31.3920   26.4170 C   0  0  0  0  0  1  0  0  0  0  0  0
  -26.7850  -30.1100   25.1360 C   0  0  0  0  0  1  0  0  0  0  0  0
  -27.3710  -32.3160   26.1070 C   0  0  0  0  0  1  0  0  0  0  0  0
  -30.1360  -18.4540   20.0770 C   0  0  0  0  0  2  0  0  0  0  0  0
  -30.8180  -17.1200   19.6390 C   0  0  0  0  0  2  0  0  0  0  0  0
  -31.7240  -16.0920   20.3840 C   0  0  0  0  0  2  0  0  0  0  0  0
  -32.8170  -13.9600   19.7100 C   0  0  0  0  0  0  0  0  0  0  0  0
  -32.4900  -11.5370   19.5110 C   0  0  0  0  0  2  0  0  0  0  0  0
  -31.5380  -11.2690   18.3260 C   0  0  0  0  0  2  0  0  0  0  0  0
  -30.0640  -11.3320   18.7780 C   0  0  0  0  0  2  0  0  0  0  0  0
  -29.7460  -12.6010   19.6140 C   0  0  0  0  0  3  0  0  0  0  0  0
  -30.8090  -12.8040   20.7170 C   0  0  0  0  0  2  0  0  0  0  0  0
  -32.1290  -12.8460   20.0700 N   0  0  0  0  0  0  0  0  0  0  0  0
  -33.9530  -13.9390   19.2380 O   0  0  0  0  0  0  0  0  0  0  0  0
  -32.0560  -15.0250   19.4420 N   0  0  0  0  0  0  0  0  0  0  0  0
  -32.3680  -15.4300   18.5700 H   0  0  0  0  0  0  0  0  0  0  0  0
  -27.5570  -13.5940   20.5410 C   0  0  0  0  0  0  0  0  0  0  0  0
  -26.3810  -13.0110   20.9240 C   0  0  0  0  0  0  0  0  0  0  0  0
  -26.5610  -11.6050   20.7460 C   0  0  0  0  0  0  0  0  0  0  0  0
  -28.3930  -12.5540   20.1650 N   0  0  0  0  0  0  0  0  0  0  0  0
  -27.7980  -11.3470   20.3440 N   0  0  0  0  0  0  0  0  0  0  0  0
  -25.6100  -10.4930   20.8820 C   0  0  0  0  0  0  0  0  0  0  0  0
  -25.7490   -9.5250   21.9030 C   0  0  0  0  0  3  0  0  0  0  0  0
  -24.8150   -8.4740   22.0250 C   0  0  0  0  0  3  0  0  0  0  0  0
  -23.7270   -8.3850   21.1250 C   0  0  0  0  0  0  0  0  0  0  0  0
  -23.6050   -9.3370   20.0970 C   0  0  0  0  0  3  0  0  0  0  0  0
  -24.5400  -10.3800   19.9730 C   0  0  0  0  0  3  0  0  0  0  0  0
  -22.7840   -7.3860   21.1510 O   0  0  0  0  0  0  0  0  0  0  0  0
  -22.2830   -6.9010   22.3320 C   0  0  0  0  0  0  0  0  0  0  0  0
  -21.6000   -7.7300   23.2480 C   0  0  0  0  0  3  0  0  0  0  0  0
  -21.0390   -7.1760   24.4170 C   0  0  0  0  0  3  0  0  0  0  0  0
  -21.1520   -5.7960   24.6670 C   0  0  0  0  0  0  0  0  0  0  0  0
  -21.8280   -4.9680   23.7530 C   0  0  0  0  0  3  0  0  0  0  0  0
  -22.3890   -5.5190   22.5890 C   0  0  0  0  0  0  0  0  0  0  0  0
  -23.0210   -4.7130   21.7000 F   0  0  0  0  0  0  0  0  0  0  0  0
  -20.6070   -5.2620   25.7850 F   0  0  0  0  0  0  0  0  0  0  0  0
  -25.1210  -13.7190   21.3320 C   0  0  0  0  0  0  0  0  0  0  0  0
  -24.3600  -13.1360   22.2530 N   0  0  0  0  0  0  0  0  0  0  0  0
  -24.8290  -14.8210   20.8680 O   0  0  0  0  0  0  0  0  0  0  0  0
  -24.6100  -12.2410   22.6460 H   0  0  0  0  0  0  0  0  0  0  0  0
  -23.5150  -13.5910   22.5680 H   0  0  0  0  0  0  0  0  0  0  0  0
  -27.9790  -14.9200   20.4510 N   0  0  0  0  0  0  0  0  0  0  0  0
  -27.2440  -15.6170   20.4410 H   0  0  0  0  0  0  0  0  0  0  0  0
  -28.7250  -15.1250   19.8000 H   0  0  0  0  0  0  0  0  0  0  0  0
  1  4  1  0
  2  3  1  0
  2  5  1  0
  3  1  1  0
  3  9  1  0
  4  8  1  0
  5  4  1  0
  5 55  1  0
  5  6  1  6
  8  7  1  0
  9 10  2  0
 11  9  1  0
 12 11  1  0
 12 13  1  0
 14 16  1  0
 14 13  1  0
 15 26  2  0
 16 21  1  0
 17 25  1  0
 17 27  1  0
 18 24  1  0
 18 20  1  0
 19 25  1  0
 20 19  1  0
 21 20  2  0
 22 23  1  0
 22 16  2  0
 23 18  2  0
 24 17  1  0
 25 15  1  0
 27 29  2  0
 28 27  1  0
 30 28  1  0
 31 40  2  0
 31 36  1  0
 32 28  1  0
 32 36  1  0
 33 32  1  0
 34 35  1  0
 34 33  1  0
 35 31  1  0
 36 37  2  0
 37 38  1  0
 39 38  2  0
 40 39  1  0
 41 15  1  0
 41 42  1  0
 41 51  1  0
 42 45  1  0
 43 47  1  0
 43 42  1  0
 44 43  2  0
 47 46  1  0
 49 50  1  0
 49 47  1  0
 49 48  1  0
 51 54  1  1
 51 52  1  0
 53 51  1  0
 56 55  1  0
 56 57  1  0
 58 64  1  0
 59 64  1  0
 60 61  1  0
 60 59  1  0
 62 61  1  0
 62 71  1  0
 62 63  1  0
 64 63  1  0
 65 58  2  0
 66 58  1  0
 66 57  1  0
 67 66  1  0
 68 69  2  0
 69 88  1  0
 70 73  1  0
 70 69  1  0
 71 72  1  0
 71 68  1  0
 72 70  2  0
 73 74  1  0
 74 75  2  0
 76 79  1  0
 76 75  1  0
 77 76  2  0
 78 77  1  0
 78 73  2  0
 79 80  1  0
 80 85  2  0
 80 81  1  0
 81 82  2  0
 82 83  1  0
 83 87  1  0
 84 83  2  0
 85 84  1  0
 86 85  1  0
 88 89  1  0
 89 92  1  0
 89 91  1  0
 90 88  2  0
 93 68  1  0
 94 93  1  0
 95 93  1  0
M  ISO  4  13 101  14 101  58 100  66 100
M  END
>  <TORSDO>  (70) 
F 24

>  <SCORE>  (70) 
-8.864

>  <name>  (70) 
69

>  <ligand_id>  (70) 
69

>  <original_smiles>  (70) 
[H]c1c([H])c([H])c2c(c1[H])C([H])([H])C([H])([H])C([H])([H])C2([H])N([H])C(=O)C1([H])N(C(=O)C([H])(N([H])C(=O)C([H])(N([H])C([H])([H])[H])C([H])([H])[H])C(C([H])([H])[H])(C([H])([H])[H])C([H])([H])[H])C([H])([H])c2c([H])c(OC([H])([H])C([H])([H])C([H])([H])C(=O)C3([H])C([H])([H])C([H])(C([H])([H])C([H])([H])[H])[N+]([H])(C([H])([H])C([H])([H])C([H])([H])N([H])C(=O)N4C([H])([H])C([H])([H])C([H])([H])C([H])(n5nc(-c6c([H])c([H])c(Oc7c([H])c([H])c(F)c([H])c7F)c([H])c6[H])c(C(=O)N([H])[H])c5N([H])[H])C4([H])[H])C3([H])[H])c([H])c([H])c2C1([H])[H]

>  <smiles>  (70) 
[H]c1c([H])c([H])c2c(c1[H])C([H])([H])C([H])([H])C([H])([H])C2([H])N([H])C(=O)C1([H])N(C(=O)C([H])(N([H])C(=O)C([H])(N([H])C([H])([H])[H])C([H])([H])[H])C(C([H])([H])[H])(C([H])([H])[H])C([H])([H])[H])C([H])([H])c2c([H])c(OC([H])([H])C([H])([H])C([H])([H])C(=O)C3([H])C([H])([H])C([H])(C([H])([H])C([H])([H])[H])[N+]([H])(C([H])([H])C([H])([H])C([H])([H])N([H])C(=O)N4C([H])([H])C([H])([H])C([H])([H])C([H])(n5nc(-c6c([H])c([H])c(Oc7c([H])c([H])c(F)c([H])c7F)c([H])c6[H])c(C(=O)N([H])[H])c5N([H])[H])C4([H])[H])C3([H])[H])c([H])c([H])c2C1([H])[H]

$$$$
70:0:0
     RDKit          3D

 93101  0  0  1  0  0  0  0  0999 V2000
  -28.5630  -22.4110   21.2540 N   0  0  0  0  0  4  0  0  0  0  0  0
  -28.7570  -22.9050   22.1130 H   0  0  0  0  0  0  0  0  0  0  0  0
  -27.6070  -22.6270   21.0200 H   0  0  0  0  0  0  0  0  0  0  0  0
  -30.7240  -19.3980   21.2870 C   0  0  0  0  0  2  0  0  0  0  0  0
  -28.7430  -18.9250   19.9050 C   0  0  0  0  0  2  0  0  0  0  0  0
  -29.9950  -20.4490   22.1520 C   0  0  0  0  0  2  0  0  0  0  0  0
  -27.8780  -19.9750   20.6490 C   0  0  0  0  0  2  0  0  0  0  0  0
  -29.7880  -18.2530   20.8270 C   0  0  0  0  0  3  0  0  0  0  0  0
  -28.6310  -20.9550   21.5980 C   0  0  0  0  0  3  0  0  0  0  0  0
  -30.9550  -14.7100   20.0080 C   0  0  0  0  0  0  0  0  0  0  0  0
  -30.5920  -12.5120   18.9660 C   0  0  0  0  0  2  0  0  0  0  0  0
  -29.6030  -12.7030   17.8000 C   0  0  0  0  0  2  0  0  0  0  0  0
  -28.1550  -12.5600   18.3050 C   0  0  0  0  0  2  0  0  0  0  0  0
  -27.8690  -13.4090   19.5740 C   0  0  0  0  0  3  0  0  0  0  0  0
  -28.9850  -13.2390   20.6300 C   0  0  0  0  0  2  0  0  0  0  0  0
  -30.2720  -13.5290   19.9830 N   0  0  0  0  0  0  0  0  0  0  0  0
  -32.0940  -14.7850   19.5390 O   0  0  0  0  0  0  0  0  0  0  0  0
  -30.5740  -17.1110   20.1250 C   0  0  0  0  0  0  0  0  0  0  0  0
  -30.2650  -15.8130   20.4040 N   0  0  0  0  0  0  0  0  0  0  0  0
  -31.4550  -17.4540   19.3280 O   0  0  0  0  0  0  0  0  0  0  0  0
  -29.4170  -15.6490   20.9200 H   0  0  0  0  0  0  0  0  0  0  0  0
  -25.5300  -13.9930   20.4630 C   0  0  0  0  0  0  0  0  0  0  0  0
  -24.4770  -13.2120   20.8570 C   0  0  0  0  0  0  0  0  0  0  0  0
  -24.9240  -11.8590   20.7410 C   0  0  0  0  0  0  0  0  0  0  0  0
  -26.5480  -13.1170   20.1260 N   0  0  0  0  0  0  0  0  0  0  0  0
  -26.1930  -11.8250   20.3540 N   0  0  0  0  0  0  0  0  0  0  0  0
  -24.1960  -10.5940   20.9200 C   0  0  0  0  0  0  0  0  0  0  0  0
  -24.5940   -9.6440   21.8860 C   0  0  0  0  0  3  0  0  0  0  0  0
  -23.8690   -8.4440   22.0540 C   0  0  0  0  0  3  0  0  0  0  0  0
  -22.7310   -8.1860   21.2540 C   0  0  0  0  0  0  0  0  0  0  0  0
  -22.3490   -9.1250   20.2790 C   0  0  0  0  0  3  0  0  0  0  0  0
  -23.0770  -10.3160   20.1110 C   0  0  0  0  0  3  0  0  0  0  0  0
  -21.9820   -7.0360   21.3290 O   0  0  0  0  0  0  0  0  0  0  0  0
  -21.7790   -6.3850   22.5200 C   0  0  0  0  0  0  0  0  0  0  0  0
  -21.1640   -7.0200   23.6210 C   0  0  0  0  0  3  0  0  0  0  0  0
  -20.9130   -6.2930   24.8020 C   0  0  0  0  0  3  0  0  0  0  0  0
  -21.2650   -4.9320   24.8810 C   0  0  0  0  0  0  0  0  0  0  0  0
  -21.8740   -4.2980   23.7840 C   0  0  0  0  0  3  0  0  0  0  0  0
  -22.1270   -5.0220   22.6060 C   0  0  0  0  0  0  0  0  0  0  0  0
  -22.6940   -4.4000   21.5440 F   0  0  0  0  0  0  0  0  0  0  0  0
  -21.0170   -4.2310   26.0110 F   0  0  0  0  0  0  0  0  0  0  0  0
  -23.1010  -13.6850   21.2330 C   0  0  0  0  0  0  0  0  0  0  0  0
  -22.4150  -12.9570   22.1070 N   0  0  0  0  0  0  0  0  0  0  0  0
  -22.6450  -14.7380   20.7880 O   0  0  0  0  0  0  0  0  0  0  0  0
  -22.7970  -12.1070   22.4960 H   0  0  0  0  0  0  0  0  0  0  0  0
  -21.4940  -13.2550   22.3940 H   0  0  0  0  0  0  0  0  0  0  0  0
  -25.7000  -15.3680   20.3450 N   0  0  0  0  0  0  0  0  0  0  0  0
  -24.9580  -16.0270   20.5600 H   0  0  0  0  0  0  0  0  0  0  0  0
  -26.5420  -15.8190   20.0120 H   0  0  0  0  0  0  0  0  0  0  0  0
  -29.4560  -22.9690   20.2010 C   0  0  0  0  0  2  0  0  0  0  0  0
  -29.6100  -24.5270   20.2860 C   0  0  0  0  0  2  0  0  0  0  0  0
  -28.4230  -25.3760   19.7570 C   0  0  0  0  0  2  0  0  0  0  0  0
  -28.5520  -26.8000   20.0120 O   0  0  0  0  0  0  0  0  0  0  0  0
  -24.7220  -31.8740   23.2920 C   0  0  0  0  0  0  0  0  0  0  0  0
  -27.3890  -27.5660   20.0010 C   0  0  0  0  0  0  0  0  0  0  0  0
  -23.5290  -30.5410   21.5830 C   0  0  0  0  0  3  0  0  0  0  0  0
  -24.9930  -29.0870   20.0840 C   0  0  0  0  0  0  0  0  0  0  0  0
  -26.0550  -30.9180   21.4100 C   0  0  0  0  0  2  0  0  0  0  0  0
  -26.1490  -29.5780   20.7010 C   0  0  0  0  0  0  0  0  0  0  0  0
  -27.3510  -28.8250   20.6570 C   0  0  0  0  0  3  0  0  0  0  0  0
  -26.2110  -27.1110   19.3620 C   0  0  0  0  0  3  0  0  0  0  0  0
  -25.0190  -27.8560   19.4100 C   0  0  0  0  0  3  0  0  0  0  0  0
  -23.7440  -29.9320   20.1700 C   0  0  0  0  0  2  0  0  0  0  0  0
  -24.7860  -31.1240   22.1540 N   0  0  0  0  0  0  0  0  0  0  0  0
  -23.6380  -32.1160   23.8400 O   0  0  0  0  0  0  0  0  0  0  0  0
  -22.8780  -29.4740   22.4940 C   0  0  0  0  0  0  0  0  0  0  0  0
  -21.5540  -29.2940   22.3590 N   0  0  0  0  0  0  0  0  0  0  0  0
  -23.5640  -28.8130   23.2800 O   0  0  0  0  0  0  0  0  0  0  0  0
  -21.0570  -29.8820   21.7010 H   0  0  0  0  0  0  0  0  0  0  0  0
  -18.1860  -28.0550   22.7890 C   0  0  0  0  0  0  0  0  0  0  0  0
  -20.7400  -28.3120   23.0820 C   0  0  0  0  0  3  0  0  0  0  0  0
  -20.8510  -26.9100   22.4370 C   0  0  0  0  0  2  0  0  0  0  0  0
  -19.7510  -26.6300   21.4050 C   0  0  0  0  0  2  0  0  0  0  0  0
  -18.3690  -26.7420   22.0510 C   0  0  0  0  0  2  0  0  0  0  0  0
  -19.3000  -28.8010   23.2570 C   0  0  0  0  0  0  0  0  0  0  0  0
  -19.0720  -30.0360   23.9060 C   0  0  0  0  0  3  0  0  0  0  0  0
  -17.7640  -30.5220   24.0950 C   0  0  0  0  0  3  0  0  0  0  0  0
  -16.6650  -29.7690   23.6440 C   0  0  0  0  0  3  0  0  0  0  0  0
  -16.8770  -28.5400   22.9960 C   0  0  0  0  0  3  0  0  0  0  0  0
  -26.0050  -32.4800   23.9450 C   0  0  0  0  0  3  0  0  0  0  0  0
  -26.5090  -31.6690   25.2020 C   0  0  1  0  0  0  0  0  0  0  0  0
  -25.4050  -31.4030   26.2500 C   0  0  0  0  0  1  0  0  0  0  0  0
  -27.0920  -30.3030   24.7720 C   0  0  0  0  0  1  0  0  0  0  0  0
  -27.6530  -32.4420   25.9010 C   0  0  0  0  0  1  0  0  0  0  0  0
  -25.7020  -33.8710   24.3110 N   0  0  0  0  0  0  0  0  0  0  0  0
  -26.0480  -34.9390   23.5820 C   0  0  0  0  0  0  0  0  0  0  0  0
  -26.7290  -34.8630   22.5560 O   0  0  0  0  0  0  0  0  0  0  0  0
  -25.1040  -34.0090   25.1140 H   0  0  0  0  0  0  0  0  0  0  0  0
  -24.3420  -36.7560   23.2490 C   0  0  0  0  0  1  0  0  0  0  0  0
  -25.5610  -36.3150   24.0750 C   0  0  0  0  0  3  0  0  0  0  0  0
  -27.6810  -37.1570   24.9840 C   0  0  0  0  0  1  0  0  0  0  0  0
  -26.6040  -37.3620   24.0170 N   0  0  0  0  0  0  0  0  0  0  0  0
  -26.2000  -38.2790   24.1840 H   0  0  0  0  0  0  0  0  0  0  0  0
  1  2  1  0
  3  1  1  0
  4  6  1  0
  5  7  1  0
  5  8  1  0
  7  9  1  0
  8 18  1  0
  8  4  1  0
  9  1  1  0
  9  6  1  0
 10 19  1  0
 11 16  1  0
 12 13  1  0
 12 11  1  0
 14 13  1  0
 14 25  1  0
 14 15  1  0
 16 10  1  0
 16 15  1  0
 17 10  2  0
 18 19  1  0
 19 21  1  0
 20 18  2  0
 22 23  2  0
 23 42  1  0
 24 23  1  0
 24 27  1  0
 25 26  1  0
 25 22  1  0
 26 24  2  0
 27 28  1  0
 28 29  2  0
 30 33  1  0
 30 29  1  0
 31 30  2  0
 32 31  1  0
 32 27  2  0
 33 34  1  0
 34 39  2  0
 34 35  1  0
 35 36  2  0
 36 37  1  0
 37 41  1  0
 38 37  2  0
 39 38  1  0
 40 39  1  0
 42 43  1  0
 43 46  1  0
 43 45  1  0
 44 42  2  0
 47 22  1  0
 47 48  1  0
 49 47  1  0
 50 51  1  0
 50  1  1  0
 52 53  1  0
 52 51  1  0
 54 65  2  0
 55 53  1  0
 55 60  1  0
 56 64  1  0
 56 66  1  0
 57 63  1  0
 57 59  1  0
 58 64  1  0
 59 58  1  0
 60 59  2  0
 61 62  1  0
 61 55  2  0
 62 57  2  0
 63 56  1  0
 64 54  1  0
 66 68  2  0
 67 66  1  0
 69 67  1  0
 70 79  2  0
 70 75  1  0
 71 67  1  0
 71 75  1  0
 72 71  1  0
 73 74  1  0
 73 72  1  0
 74 70  1  0
 75 76  2  0
 76 77  1  0
 78 77  2  0
 79 78  1  0
 80 54  1  0
 80 85  1  0
 80 81  1  0
 81 84  1  1
 81 82  1  0
 83 81  1  0
 85 88  1  0
 86 90  1  0
 86 85  1  0
 87 86  2  0
 90 89  1  0
 92 90  1  0
 92 93  1  0
 92 91  1  0
M  ISO  4  10 100  19 100  52 101  53 101
M  END
>  <TORSDO>  (71) 
F 20

>  <SCORE>  (71) 
-12.797

>  <name>  (71) 
70

>  <ligand_id>  (71) 
70

>  <original_smiles>  (71) 
[H]c1c([H])c([H])c2c(c1[H])C([H])([H])C([H])([H])C([H])([H])C2([H])N([H])C(=O)C1([H])N(C(=O)C([H])(N([H])C(=O)C([H])(N([H])C([H])([H])[H])C([H])([H])[H])C(C([H])([H])[H])(C([H])([H])[H])C([H])([H])[H])C([H])([H])c2c([H])c(OC([H])([H])C([H])([H])C([H])([H])[N+]([H])([H])C3([H])C([H])([H])C([H])([H])C([H])(C(=O)N([H])C(=O)N4C([H])([H])C([H])([H])C([H])([H])C([H])(n5nc(-c6c([H])c([H])c(Oc7c([H])c([H])c(F)c([H])c7F)c([H])c6[H])c(C(=O)N([H])[H])c5N([H])[H])C4([H])[H])C([H])([H])C3([H])[H])c([H])c([H])c2C1([H])[H]

>  <smiles>  (71) 
[H]c1c([H])c([H])c2c(c1[H])C([H])([H])C([H])([H])C([H])([H])C2([H])N([H])C(=O)C1([H])N(C(=O)C([H])(N([H])C(=O)C([H])(N([H])C([H])([H])[H])C([H])([H])[H])C(C([H])([H])[H])(C([H])([H])[H])C([H])([H])[H])C([H])([H])c2c([H])c(OC([H])([H])C([H])([H])C([H])([H])[N+]([H])([H])C3([H])C([H])([H])C([H])([H])C([H])(C(=O)N([H])C(=O)N4C([H])([H])C([H])([H])C([H])([H])C([H])(n5nc(-c6c([H])c([H])c(Oc7c([H])c([H])c(F)c([H])c7F)c([H])c6[H])c(C(=O)N([H])[H])c5N([H])[H])C4([H])[H])C([H])([H])C3([H])[H])c([H])c([H])c2C1([H])[H]

$$$$
71:0:0
     RDKit          3D

 96101  0  0  1  0  0  0  0  0999 V2000
  -26.7550  -14.0530   18.8080 C   0  0  0  0  0  3  0  0  0  0  0  0
  -28.2250  -12.5650   19.5610 C   0  0  0  0  0  3  0  0  0  0  0  0
  -28.9500  -16.1960   19.2290 C   0  0  0  0  0  2  0  0  0  0  0  0
  -29.8910  -15.2790   20.0720 C   0  0  0  0  0  2  0  0  0  0  0  0
  -27.3780  -15.9160   18.9470 C   0  0  0  0  0  3  0  0  0  0  0  0
  -29.8440  -13.5290   19.9250 C   0  0  0  0  0  3  0  0  0  0  0  0
  -25.6490  -13.7410   18.2760 N   0  0  0  0  0  0  0  0  0  0  0  0
  -25.1050  -14.5590   18.0240 H   0  0  0  0  0  0  0  0  0  0  0  0
  -26.9480  -17.5170   19.7150 C   0  0  0  0  0  2  0  0  0  0  0  0
  -27.5490  -19.1640   19.3570 C   0  0  0  0  0  0  0  0  0  0  0  0
  -27.9360  -19.2790   18.1920 O   0  0  0  0  0  0  0  0  0  0  0  0
  -27.7680  -20.6600   20.2800 C   0  0  0  0  0  2  0  0  0  0  0  0
  -27.9660  -22.4400   19.8570 C   0  0  0  0  0  3  0  0  0  0  0  0
  -28.2370  -23.9600   20.8030 C   0  0  0  0  0  3  0  0  0  0  0  0
  -28.6270  -25.5590   20.5400 O   0  0  0  0  0  0  0  0  0  0  0  0
  -24.9090  -31.6230   23.1540 C   0  0  0  0  0  0  0  0  0  0  0  0
  -27.7210  -26.7120   20.4760 C   0  0  0  0  0  0  0  0  0  0  0  0
  -23.8970  -30.1190   21.5030 C   0  0  0  0  0  3  0  0  0  0  0  0
  -25.4800  -28.5540   20.2320 C   0  0  0  0  0  0  0  0  0  0  0  0
  -26.4640  -30.4270   21.5350 C   0  0  0  0  0  2  0  0  0  0  0  0
  -26.6130  -29.0030   20.9220 C   0  0  0  0  0  0  0  0  0  0  0  0
  -27.7600  -28.0950   21.0170 C   0  0  0  0  0  3  0  0  0  0  0  0
  -26.5780  -26.4250   19.7380 C   0  0  0  0  0  3  0  0  0  0  0  0
  -25.4870  -27.2960   19.6260 C   0  0  0  0  0  3  0  0  0  0  0  0
  -24.2400  -29.4280   20.1640 C   0  0  0  0  0  2  0  0  0  0  0  0
  -25.1100  -30.7570   22.1120 N   0  0  0  0  0  0  0  0  0  0  0  0
  -23.7700  -31.8710   23.5820 O   0  0  0  0  0  0  0  0  0  0  0  0
  -23.1920  -29.1080   22.4440 C   0  0  0  0  0  0  0  0  0  0  0  0
  -21.8730  -28.9110   22.2670 N   0  0  0  0  0  0  0  0  0  0  0  0
  -23.8370  -28.5100   23.3060 O   0  0  0  0  0  0  0  0  0  0  0  0
  -21.4100  -29.4400   21.5410 H   0  0  0  0  0  0  0  0  0  0  0  0
  -18.4840  -27.6850   22.6910 C   0  0  0  0  0  0  0  0  0  0  0  0
  -21.0360  -27.9700   23.0200 C   0  0  0  0  0  3  0  0  0  0  0  0
  -21.1650  -26.5380   22.4520 C   0  0  0  0  0  2  0  0  0  0  0  0
  -20.0920  -26.2040   21.4100 C   0  0  0  0  0  2  0  0  0  0  0  0
  -18.6920  -26.3390   22.0180 C   0  0  0  0  0  2  0  0  0  0  0  0
  -19.5870  -28.4580   23.1470 C   0  0  0  0  0  0  0  0  0  0  0  0
  -19.3390  -29.7160   23.7410 C   0  0  0  0  0  3  0  0  0  0  0  0
  -18.0250  -30.2010   23.8830 C   0  0  0  0  0  3  0  0  0  0  0  0
  -16.9380  -29.4240   23.4480 C   0  0  0  0  0  3  0  0  0  0  0  0
  -17.1690  -28.1710   22.8540 C   0  0  0  0  0  3  0  0  0  0  0  0
  -26.0950  -32.3570   23.8510 C   0  0  0  0  0  3  0  0  0  0  0  0
  -25.6610  -33.7350   24.1450 N   0  0  0  0  0  0  0  0  0  0  0  0
  -25.9610  -34.8100   23.4060 C   0  0  0  0  0  0  0  0  0  0  0  0
  -26.6950  -34.7490   22.4150 O   0  0  0  0  0  0  0  0  0  0  0  0
  -25.0130  -33.8490   24.9110 H   0  0  0  0  0  0  0  0  0  0  0  0
  -24.1360  -36.4860   22.9540 C   0  0  0  0  0  1  0  0  0  0  0  0
  -25.3590  -36.1670   23.8280 C   0  0  0  0  0  3  0  0  0  0  0  0
  -27.3820  -37.2030   24.7600 C   0  0  0  0  0  1  0  0  0  0  0  0
  -26.3190  -37.2910   23.7620 N   0  0  0  0  0  0  0  0  0  0  0  0
  -25.8450  -38.1820   23.8820 H   0  0  0  0  0  0  0  0  0  0  0  0
  -26.5590  -31.6490   25.1850 C   0  0  1  0  0  0  0  0  0  0  0  0
  -25.4070  -31.3640   26.1790 C   0  0  0  0  0  1  0  0  0  0  0  0
  -27.2570  -30.3060   24.8880 C   0  0  0  0  0  1  0  0  0  0  0  0
  -27.6080  -32.5300   25.9080 C   0  0  0  0  0  1  0  0  0  0  0  0
  -31.5820  -13.2950   19.7240 C   0  0  0  0  0  3  0  0  0  0  0  0
  -31.2680  -13.0290   21.9140 C   0  0  0  0  0  0  0  0  0  0  0  0
  -30.6510  -10.9730   20.3520 C   0  0  0  0  0  1  0  0  0  0  0  0
  -30.3570  -11.4100   18.3400 C   0  0  0  0  0 15  0  0  0  0  0  0
  -29.0100  -12.9840   17.8560 C   0  0  0  0  0  1  0  0  0  0  0  0
  -27.6900  -13.7010   20.7060 C   0  0  0  0  0  2  0  0  0  0  0  0
  -28.7530  -12.8170   22.1110 C   0  0  0  0  0  1  0  0  0  0  0  0
  -30.2800  -12.0050   21.8100 N   0  0  0  0  0  0  0  0  0  0  0  0
  -31.2230  -14.2130   22.2080 O   0  0  0  0  0  0  0  0  0  0  0  0
  -32.1900  -12.9350   20.9940 N   0  0  0  0  0  0  0  0  0  0  0  0
  -32.9680  -13.5290   21.2240 H   0  0  0  0  0  0  0  0  0  0  0  0
  -25.1460  -13.3740   21.3100 C   0  0  0  0  0  0  0  0  0  0  0  0
  -24.1750  -12.4370   21.4950 C   0  0  0  0  0  0  0  0  0  0  0  0
  -24.7630  -11.1450   21.4320 C   0  0  0  0  0  0  0  0  0  0  0  0
  -26.3690  -12.8010   21.2100 N   0  0  0  0  0  0  0  0  0  0  0  0
  -26.0920  -11.3780   21.2860 N   0  0  0  0  0  0  0  0  0  0  0  0
  -24.0660   -9.7920   21.5190 C   0  0  0  0  0  0  0  0  0  0  0  0
  -24.4660   -8.7550   22.4020 C   0  0  0  0  0  3  0  0  0  0  0  0
  -23.7040   -7.5650   22.5640 C   0  0  0  0  0  3  0  0  0  0  0  0
  -22.5010   -7.3670   21.8430 C   0  0  0  0  0  0  0  0  0  0  0  0
  -22.1070   -8.3720   20.9400 C   0  0  0  0  0  3  0  0  0  0  0  0
  -22.8770   -9.5510   20.7780 C   0  0  0  0  0  3  0  0  0  0  0  0
  -21.7080   -6.2400   21.9200 O   0  0  0  0  0  0  0  0  0  0  0  0
  -21.6910   -5.4230   23.0280 C   0  0  0  0  0  0  0  0  0  0  0  0
  -21.3520   -5.9080   24.3090 C   0  0  0  0  0  3  0  0  0  0  0  0
  -21.2860   -5.0280   25.4070 C   0  0  0  0  0  3  0  0  0  0  0  0
  -21.5510   -3.6550   25.2320 C   0  0  0  0  0  0  0  0  0  0  0  0
  -21.8830   -3.1650   23.9550 C   0  0  0  0  0  3  0  0  0  0  0  0
  -21.9450   -4.0440   22.8580 C   0  0  0  0  0  0  0  0  0  0  0  0
  -22.2390   -3.5520   21.6300 F   0  0  0  0  0  0  0  0  0  0  0  0
  -21.4910   -2.8100   26.2870 F   0  0  0  0  0  0  0  0  0  0  0  0
  -22.7400  -12.7940   21.6630 C   0  0  0  0  0  0  0  0  0  0  0  0
  -22.0240  -12.0610   22.5070 N   0  0  0  0  0  0  0  0  0  0  0  0
  -22.2670  -13.7930   21.1230 O   0  0  0  0  0  0  0  0  0  0  0  0
  -22.4250  -11.2650   22.9840 H   0  0  0  0  0  0  0  0  0  0  0  0
  -21.0570  -12.3000   22.6770 H   0  0  0  0  0  0  0  0  0  0  0  0
  -25.1030  -14.7450   21.1660 N   0  0  0  0  0  0  0  0  0  0  0  0
  -24.2270  -15.2530   21.1630 H   0  0  0  0  0  0  0  0  0  0  0  0
  -25.9030  -15.3300   20.9880 H   0  0  0  0  0  0  0  0  0  0  0  0
  -33.8700  -13.7870   18.5830 C   0  0  0  0  0  1  0  0  0  0  0  0
  -32.4810  -14.3070   18.9640 C   0  0  0  0  0  2  0  0  0  0  0  0
  2 60  1  0
  2  6  1  0
  2 61  1  0
  3  4  1  0
  5  1  1  0
  5  3  1  0
  5  9  1  0
  6  4  1  0
  7  1  2  0
  8  7  1  0
 10  9  1  0
 10 12  1  0
 11 10  2  0
 13 12  1  0
 13 14  2  0
 15 14  1  0
 16 27  2  0
 17 15  1  0
 17 22  1  0
 18 26  1  0
 18 28  1  0
 19 21  1  0
 20 26  1  0
 21 22  2  0
 21 20  1  0
 23 17  2  0
 24 23  1  0
 24 19  2  0
 25 19  1  0
 25 18  1  0
 26 16  1  0
 28 30  2  0
 29 28  1  0
 31 29  1  0
 32 41  2  0
 32 37  1  0
 33 29  1  0
 33 37  1  0
 34 33  1  0
 35 36  1  0
 35 34  1  0
 36 32  1  0
 37 38  2  0
 38 39  1  0
 40 39  2  0
 41 40  1  0
 42 16  1  0
 42 43  1  0
 42 52  1  0
 43 46  1  0
 44 48  1  0
 44 43  1  0
 45 44  2  0
 48 47  1  0
 50 48  1  0
 50 51  1  0
 50 49  1  0
 52 55  1  1
 52 53  1  0
 54 52  1  0
 56 96  1  0
 56  6  1  0
 56 65  1  0
 57 64  2  0
 58 63  1  0
 61 70  1  0
 63 57  1  0
 63 62  1  0
 65 66  1  0
 65 57  1  0
 67 68  2  0
 68 87  1  0
 69 68  1  0
 69 72  1  0
 70 71  1  0
 70 67  1  0
 71 69  2  0
 72 73  1  0
 73 74  2  0
 75 78  1  0
 75 74  1  0
 76 75  2  0
 77 76  1  0
 77 72  2  0
 78 79  1  0
 79 80  1  0
 80 81  2  0
 82 81  1  0
 82 86  1  0
 83 82  2  0
 84 79  2  0
 84 83  1  0
 85 84  1  0
 87 88  1  0
 88 91  1  0
 88 90  1  0
 89 87  2  0
 92 67  1  0
 93 92  1  0
 94 92  1  0
 95 96  1  0
M  ISO  4  14 101  15 101  57 100  65 100
M  END
>  <TORSDO>  (72) 
F 23

>  <SCORE>  (72) 
-10.262

>  <name>  (72) 
71

>  <ligand_id>  (72) 
71

>  <original_smiles>  (72) 
[H]N=C1C([H])([H])C([H])(C([H])(N([H])C(=O)N2C([H])([H])C([H])([H])C([H])([H])C([H])(n3nc(-c4c([H])c([H])c(Oc5c([H])c([H])c(F)c([H])c5F)c([H])c4[H])c(C(=O)N([H])[H])c3N([H])[H])C2([H])[H])C([H])([H])C([H])([H])[H])C([H])([H])C([H])([H])C1([H])C([H])([H])C(=O)C([H])([H])C([H])([H])C([H])([H])Oc1c([H])c([H])c2c(c1[H])C([H])([H])N(C(=O)C([H])(N([H])C(=O)C([H])(N([H])C([H])([H])[H])C([H])([H])[H])C(C([H])([H])[H])(C([H])([H])[H])C([H])([H])[H])C([H])(C(=O)N([H])C1([H])c3c([H])c([H])c([H])c([H])c3C([H])([H])C([H])([H])C1([H])[H])C2([H])[H]

>  <smiles>  (72) 
[H]N=C1C([H])([H])C([H])(C([H])(N([H])C(=O)N2C([H])([H])C([H])([H])C([H])([H])C([H])(n3nc(-c4c([H])c([H])c(Oc5c([H])c([H])c(F)c([H])c5F)c([H])c4[H])c(C(=O)N([H])[H])c3N([H])[H])C2([H])[H])C([H])([H])C([H])([H])[H])C([H])([H])C([H])([H])C1([H])C([H])([H])C(=O)C([H])([H])C([H])([H])C([H])([H])Oc1c([H])c([H])c2c(c1[H])C([H])([H])N(C(=O)C([H])(N([H])C(=O)C([H])(N([H])C([H])([H])[H])C([H])([H])[H])C(C([H])([H])[H])(C([H])([H])[H])C([H])([H])[H])C([H])(C(=O)N([H])C1([H])c3c([H])c([H])c([H])c([H])c3C([H])([H])C([H])([H])C1([H])[H])C2([H])[H]

$$$$
72:0:0
     RDKit          3D

 89 97  0  0  1  0  0  0  0  0999 V2000
  -29.3090  -22.5050   20.1330 C   0  0  0  0  0  0  0  0  0  0  0  0
  -29.8640  -22.4120   19.0350 O   0  0  0  0  0  0  0  0  0  0  0  0
  -28.8800  -21.1730   20.8770 C   0  0  0  0  0  2  0  0  0  0  0  0
  -29.9250  -19.9680   21.1010 C   0  0  0  0  0  2  0  0  0  0  0  0
  -30.7510  -14.8170   20.9510 C   0  0  0  0  0  0  0  0  0  0  0  0
  -30.6660  -12.4800   20.1080 C   0  0  0  0  0  2  0  0  0  0  0  0
  -29.8640  -12.4460   18.7920 C   0  0  0  0  0  2  0  0  0  0  0  0
  -28.3510  -12.3060   19.0690 C   0  0  0  0  0  2  0  0  0  0  0  0
  -27.8390  -13.2390   20.2030 C   0  0  0  0  0  3  0  0  0  0  0  0
  -28.7860  -13.2670   21.4180 C   0  0  0  0  0  2  0  0  0  0  0  0
  -30.1240  -13.5950   20.9120 N   0  0  0  0  0  0  0  0  0  0  0  0
  -31.9830  -14.8780   20.8900 O   0  0  0  0  0  0  0  0  0  0  0  0
  -30.1950  -18.0530   19.3450 C   0  0  0  0  0  2  0  0  0  0  0  0
  -30.0020  -17.2040   21.5110 C   0  0  0  0  0  2  0  0  0  0  0  0
  -29.5600  -18.4660   20.6600 C   0  0  0  0  0  3  0  0  0  0  0  0
  -30.0540  -16.5140   19.2730 C   0  0  0  0  0  3  0  0  0  0  0  0
  -28.8150  -16.1690   18.4270 C   0  0  0  0  0  1  0  0  0  0  0  0
  -30.0010  -15.9570   20.6600 N   0  0  0  0  0  0  0  0  0  0  0  0
  -25.3840  -13.8260   20.6420 C   0  0  0  0  0  0  0  0  0  0  0  0
  -24.2920  -13.0500   20.9240 C   0  0  0  0  0  0  0  0  0  0  0  0
  -24.7730  -11.7080   21.0030 C   0  0  0  0  0  0  0  0  0  0  0  0
  -26.4560  -12.9530   20.5640 N   0  0  0  0  0  0  0  0  0  0  0  0
  -26.0910  -11.6780   20.8430 N   0  0  0  0  0  0  0  0  0  0  0  0
  -24.0470  -10.4420   21.1650 C   0  0  0  0  0  0  0  0  0  0  0  0
  -24.4130   -9.5060   22.1560 C   0  0  0  0  0  3  0  0  0  0  0  0
  -23.6880   -8.3040   22.3070 C   0  0  0  0  0  3  0  0  0  0  0  0
  -22.5840   -8.0330   21.4640 C   0  0  0  0  0  0  0  0  0  0  0  0
  -22.2390   -8.9580   20.4620 C   0  0  0  0  0  3  0  0  0  0  0  0
  -22.9660  -10.1500   20.3100 C   0  0  0  0  0  3  0  0  0  0  0  0
  -21.8360   -6.8810   21.5220 O   0  0  0  0  0  0  0  0  0  0  0  0
  -21.7210   -6.1560   22.6800 C   0  0  0  0  0  0  0  0  0  0  0  0
  -21.2240   -6.7260   23.8710 C   0  0  0  0  0  3  0  0  0  0  0  0
  -21.0580   -5.9260   25.0190 C   0  0  0  0  0  3  0  0  0  0  0  0
  -21.3790   -4.5560   24.9750 C   0  0  0  0  0  0  0  0  0  0  0  0
  -21.8690   -3.9850   23.7880 C   0  0  0  0  0  3  0  0  0  0  0  0
  -22.0370   -4.7830   22.6430 C   0  0  0  0  0  0  0  0  0  0  0  0
  -22.4910   -4.2230   21.4950 F   0  0  0  0  0  0  0  0  0  0  0  0
  -21.2120   -3.7840   26.0760 F   0  0  0  0  0  0  0  0  0  0  0  0
  -22.8690  -13.5150   21.0200 C   0  0  0  0  0  0  0  0  0  0  0  0
  -22.0610  -12.8440   21.8330 N   0  0  0  0  0  0  0  0  0  0  0  0
  -22.4770  -14.5080   20.4090 O   0  0  0  0  0  0  0  0  0  0  0  0
  -22.3900  -12.0420   22.3510 H   0  0  0  0  0  0  0  0  0  0  0  0
  -21.1000  -13.1370   21.9420 H   0  0  0  0  0  0  0  0  0  0  0  0
  -25.5510  -15.1910   20.4270 N   0  0  0  0  0  0  0  0  0  0  0  0
  -24.7750  -15.8430   20.4310 H   0  0  0  0  0  0  0  0  0  0  0  0
  -26.4390  -15.6290   20.2170 H   0  0  0  0  0  0  0  0  0  0  0  0
  -29.0560  -23.9530   20.7360 C   0  0  0  0  0  2  0  0  0  0  0  0
  -28.2250  -25.0230   19.8820 C   0  0  0  0  0  2  0  0  0  0  0  0
  -28.3550  -26.4880   20.1560 O   0  0  0  0  0  0  0  0  0  0  0  0
  -24.6410  -31.8920   23.1750 C   0  0  0  0  0  0  0  0  0  0  0  0
  -27.2310  -27.3370   20.0800 C   0  0  0  0  0  0  0  0  0  0  0  0
  -23.4210  -30.4930   21.5450 C   0  0  0  0  0  3  0  0  0  0  0  0
  -24.8600  -28.9530   20.0940 C   0  0  0  0  0  0  0  0  0  0  0  0
  -25.9590  -30.8170   21.3360 C   0  0  0  0  0  2  0  0  0  0  0  0
  -26.0330  -29.4400   20.6830 C   0  0  0  0  0  0  0  0  0  0  0  0
  -27.2170  -28.6430   20.6700 C   0  0  0  0  0  3  0  0  0  0  0  0
  -26.0390  -26.9230   19.4400 C   0  0  0  0  0  3  0  0  0  0  0  0
  -24.8660  -27.7010   19.4610 C   0  0  0  0  0  3  0  0  0  0  0  0
  -23.6200  -29.8210   20.1610 C   0  0  0  0  0  2  0  0  0  0  0  0
  -24.6930  -31.0850   22.0750 N   0  0  0  0  0  0  0  0  0  0  0  0
  -23.5640  -32.1640   23.7230 O   0  0  0  0  0  0  0  0  0  0  0  0
  -22.7740  -29.4720   22.5130 C   0  0  0  0  0  0  0  0  0  0  0  0
  -21.4460  -29.2920   22.4050 N   0  0  0  0  0  0  0  0  0  0  0  0
  -23.4650  -28.8460   23.3220 O   0  0  0  0  0  0  0  0  0  0  0  0
  -20.9480  -29.8510   21.7280 H   0  0  0  0  0  0  0  0  0  0  0  0
  -18.0800  -28.0850   22.9480 C   0  0  0  0  0  0  0  0  0  0  0  0
  -20.6410  -28.3520   23.1850 C   0  0  0  0  0  3  0  0  0  0  0  0
  -20.7390  -26.9220   22.6070 C   0  0  0  0  0  2  0  0  0  0  0  0
  -19.6250  -26.5970   21.6070 C   0  0  0  0  0  2  0  0  0  0  0  0
  -18.2510  -26.7370   22.2680 C   0  0  0  0  0  2  0  0  0  0  0  0
  -19.2020  -28.8510   23.3640 C   0  0  0  0  0  0  0  0  0  0  0  0
  -18.9870  -30.1120   23.9610 C   0  0  0  0  0  3  0  0  0  0  0  0
  -17.6830  -30.6100   24.1440 C   0  0  0  0  0  3  0  0  0  0  0  0
  -16.5750  -29.8440   23.7420 C   0  0  0  0  0  3  0  0  0  0  0  0
  -16.7750  -28.5820   23.1510 C   0  0  0  0  0  3  0  0  0  0  0  0
  -25.9300  -32.5260   23.7830 C   0  0  0  0  0  3  0  0  0  0  0  0
  -26.4790  -31.7400   25.0370 C   0  0  1  0  0  0  0  0  0  0  0  0
  -25.4100  -31.4780   26.1240 C   0  0  0  0  0  1  0  0  0  0  0  0
  -27.0650  -30.3720   24.6140 C   0  0  0  0  0  1  0  0  0  0  0  0
  -27.6350  -32.5360   25.6870 C   0  0  0  0  0  1  0  0  0  0  0  0
  -25.6110  -33.9150   24.1430 N   0  0  0  0  0  0  0  0  0  0  0  0
  -25.9270  -34.9860   23.4030 C   0  0  0  0  0  0  0  0  0  0  0  0
  -26.5860  -34.9090   22.3620 O   0  0  0  0  0  0  0  0  0  0  0  0
  -25.0240  -34.0470   24.9540 H   0  0  0  0  0  0  0  0  0  0  0  0
  -24.1840  -36.7760   23.0980 C   0  0  0  0  0  1  0  0  0  0  0  0
  -25.4330  -36.3610   23.8940 C   0  0  0  0  0  3  0  0  0  0  0  0
  -27.5690  -37.2390   24.7300 C   0  0  0  0  0  1  0  0  0  0  0  0
  -26.4590  -37.4220   23.7990 N   0  0  0  0  0  0  0  0  0  0  0  0
  -26.0490  -38.3370   23.9680 H   0  0  0  0  0  0  0  0  0  0  0  0
  1 47  1  0
  1  3  1  0
  2  1  2  0
  3  4  1  0
  6 11  1  0
  7  8  1  0
  7  6  1  0
  9  8  1  0
  9 22  1  0
  9 10  1  0
 11  5  1  0
 11 10  1  0
 12  5  2  0
 13 15  1  0
 15  4  1  0
 15 14  1  0
 16 17  1  0
 16 13  1  0
 16 18  1  0
 18  5  1  0
 18 14  1  0
 19 20  2  0
 20 21  1  0
 20 39  1  0
 21 24  1  0
 22 19  1  0
 22 23  1  0
 23 21  2  0
 24 25  1  0
 25 26  2  0
 27 30  1  0
 27 26  1  0
 28 27  2  0
 29 28  1  0
 29 24  2  0
 30 31  1  0
 31 32  1  0
 32 33  2  0
 34 33  1  0
 34 38  1  0
 35 34  2  0
 36 31  2  0
 36 35  1  0
 37 36  1  0
 39 40  1  0
 40 43  1  0
 40 42  1  0
 41 39  2  0
 44 45  1  0
 44 19  1  0
 46 44  1  0
 48 49  1  0
 48 47  1  0
 50 61  2  0
 51 49  1  0
 51 56  1  0
 52 60  1  0
 52 62  1  0
 53 59  1  0
 53 55  1  0
 54 60  1  0
 55 54  1  0
 56 55  2  0
 57 58  1  0
 57 51  2  0
 58 53  2  0
 59 52  1  0
 60 50  1  0
 62 64  2  0
 63 62  1  0
 65 63  1  0
 66 75  2  0
 66 71  1  0
 67 63  1  0
 67 71  1  0
 68 67  1  0
 69 70  1  0
 69 68  1  0
 70 66  1  0
 71 72  2  0
 72 73  1  0
 74 73  2  0
 75 74  1  0
 76 50  1  0
 76 81  1  0
 76 77  1  0
 77 80  1  1
 77 78  1  0
 79 77  1  0
 81 84  1  0
 82 86  1  0
 82 81  1  0
 83 82  2  0
 86 85  1  0
 88 86  1  0
 88 89  1  0
 88 87  1  0
M  ISO  4   5 100  18 100  48 101  49 101
M  END
>  <TORSDO>  (73) 
F 20

>  <SCORE>  (73) 
-13.021

>  <name>  (73) 
72

>  <ligand_id>  (73) 
72

>  <original_smiles>  (73) 
[H]c1c([H])c([H])c2c(c1[H])C([H])([H])C([H])([H])C([H])([H])C2([H])N([H])C(=O)C1([H])N(C(=O)C([H])(N([H])C(=O)C([H])(N([H])C([H])([H])[H])C([H])([H])[H])C(C([H])([H])[H])(C([H])([H])[H])C([H])([H])[H])C([H])([H])c2c([H])c(OC([H])([H])C([H])([H])C(=O)C([H])([H])C([H])([H])C3([H])C([H])([H])N(C(=O)N4C([H])([H])C([H])([H])C([H])([H])C([H])(n5nc(-c6c([H])c([H])c(Oc7c([H])c([H])c(F)c([H])c7F)c([H])c6[H])c(C(=O)N([H])[H])c5N([H])[H])C4([H])[H])C([H])(C([H])([H])[H])C3([H])[H])c([H])c([H])c2C1([H])[H]

>  <smiles>  (73) 
[H]c1c([H])c([H])c2c(c1[H])C([H])([H])C([H])([H])C([H])([H])C2([H])N([H])C(=O)C1([H])N(C(=O)C([H])(N([H])C(=O)C([H])(N([H])C([H])([H])[H])C([H])([H])[H])C(C([H])([H])[H])(C([H])([H])[H])C([H])([H])[H])C([H])([H])c2c([H])c(OC([H])([H])C([H])([H])C(=O)C([H])([H])C([H])([H])C3([H])C([H])([H])N(C(=O)N4C([H])([H])C([H])([H])C([H])([H])C([H])(n5nc(-c6c([H])c([H])c(Oc7c([H])c([H])c(F)c([H])c7F)c([H])c6[H])c(C(=O)N([H])[H])c5N([H])[H])C4([H])[H])C([H])(C([H])([H])[H])C3([H])[H])c([H])c([H])c2C1([H])[H]

$$$$
73:0:0
     RDKit          3D

 90 98  0  0  1  0  0  0  0  0999 V2000
  -28.8030  -22.0800   19.4730 N   0  0  0  0  0  4  0  0  0  0  0  0
  -27.9990  -21.8760   20.0420 H   0  0  0  0  0  0  0  0  0  0  0  0
  -28.4940  -22.0060   18.5150 H   0  0  0  0  0  0  0  0  0  0  0  0
  -29.1670  -23.6120   19.7230 C   0  0  0  0  0  3  0  0  0  0  0  0
  -28.0760  -24.8980   19.5510 C   0  0  0  0  0  3  0  0  0  0  0  0
  -28.3410  -26.4300   19.7630 O   0  0  0  0  0  0  0  0  0  0  0  0
  -24.5210  -31.7850   23.1310 C   0  0  0  0  0  0  0  0  0  0  0  0
  -27.2680  -27.3940   19.7620 C   0  0  0  0  0  0  0  0  0  0  0  0
  -23.3660  -30.4130   21.4500 C   0  0  0  0  0  3  0  0  0  0  0  0
  -24.8630  -29.0220   19.8890 C   0  0  0  0  0  0  0  0  0  0  0  0
  -25.8990  -30.8290   21.2420 C   0  0  0  0  0  2  0  0  0  0  0  0
  -26.0340  -29.4890   20.4980 C   0  0  0  0  0  0  0  0  0  0  0  0
  -27.2390  -28.6900   20.4240 C   0  0  0  0  0  3  0  0  0  0  0  0
  -26.0720  -27.0480   19.0970 C   0  0  0  0  0  3  0  0  0  0  0  0
  -24.8950  -27.8220   19.1690 C   0  0  0  0  0  3  0  0  0  0  0  0
  -23.5850  -29.8370   20.0260 C   0  0  0  0  0  2  0  0  0  0  0  0
  -24.6170  -31.0300   21.9950 N   0  0  0  0  0  0  0  0  0  0  0  0
  -23.4330  -31.9720   23.6970 O   0  0  0  0  0  0  0  0  0  0  0  0
  -22.7780  -29.3100   22.3650 C   0  0  0  0  0  0  0  0  0  0  0  0
  -21.4730  -29.0190   22.2200 N   0  0  0  0  0  0  0  0  0  0  0  0
  -23.5010  -28.7150   23.1660 O   0  0  0  0  0  0  0  0  0  0  0  0
  -20.9430  -29.5530   21.5460 H   0  0  0  0  0  0  0  0  0  0  0  0
  -18.2250  -27.4630   22.6140 C   0  0  0  0  0  0  0  0  0  0  0  0
  -20.7360  -27.9880   22.9520 C   0  0  0  0  0  3  0  0  0  0  0  0
  -21.0040  -26.5880   22.3550 C   0  0  0  0  0  2  0  0  0  0  0  0
  -19.9660  -26.1700   21.3090 C   0  0  0  0  0  2  0  0  0  0  0  0
  -18.5600  -26.1560   21.9170 C   0  0  0  0  0  2  0  0  0  0  0  0
  -19.2450  -28.3320   23.0860 C   0  0  0  0  0  0  0  0  0  0  0  0
  -18.8780  -29.5510   23.6950 C   0  0  0  0  0  3  0  0  0  0  0  0
  -17.5230  -29.9050   23.8400 C   0  0  0  0  0  3  0  0  0  0  0  0
  -16.5170  -29.0340   23.3850 C   0  0  0  0  0  3  0  0  0  0  0  0
  -16.8680  -27.8170   22.7750 C   0  0  0  0  0  3  0  0  0  0  0  0
  -25.7710  -32.4680   23.7580 C   0  0  0  0  0  3  0  0  0  0  0  0
  -25.3990  -33.8480   24.1140 N   0  0  0  0  0  0  0  0  0  0  0  0
  -25.6940  -34.9300   23.3850 C   0  0  0  0  0  0  0  0  0  0  0  0
  -26.3740  -34.8790   22.3570 O   0  0  0  0  0  0  0  0  0  0  0  0
  -24.7980  -33.9620   24.9180 H   0  0  0  0  0  0  0  0  0  0  0  0
  -23.9010  -36.6630   23.0590 C   0  0  0  0  0  1  0  0  0  0  0  0
  -25.1510  -36.2900   23.8690 C   0  0  0  0  0  3  0  0  0  0  0  0
  -27.2410  -37.2390   24.7380 C   0  0  0  0  0  1  0  0  0  0  0  0
  -26.1440  -37.3840   23.7870 N   0  0  0  0  0  0  0  0  0  0  0  0
  -25.7010  -38.2830   23.9520 H   0  0  0  0  0  0  0  0  0  0  0  0
  -26.3200  -31.7030   25.0250 C   0  0  1  0  0  0  0  0  0  0  0  0
  -25.2390  -31.3970   26.0910 C   0  0  0  0  0  1  0  0  0  0  0  0
  -26.9630  -30.3560   24.6200 C   0  0  0  0  0  1  0  0  0  0  0  0
  -27.4440  -32.5360   25.6880 C   0  0  0  0  0  1  0  0  0  0  0  0
  -29.8130  -20.8780   19.7250 C   0  0  0  0  0  3  0  0  0  0  0  0
  -30.2330  -22.2230   22.0350 C   0  0  0  0  0  2  0  0  0  0  0  0
  -29.8410  -20.8290   22.4160 C   0  0  0  0  0  2  0  0  0  0  0  0
  -30.5280  -21.0740   21.0750 C   0  0  0  0  0  3  0  0  0  0  0  0
  -29.4210  -19.2400   19.5550 C   0  0  0  0  0  3  0  0  0  0  0  0
  -30.4790  -17.9790   19.9320 C   0  0  0  0  0  3  0  0  0  0  0  0
  -31.0460  -15.2720   19.7450 C   0  0  0  0  0  0  0  0  0  0  0  0
  -30.9150  -12.8660   18.9660 C   0  0  0  0  0  2  0  0  0  0  0  0
  -29.9360  -12.7690   17.7770 C   0  0  0  0  0  2  0  0  0  0  0  0
  -28.4720  -12.6720   18.2490 C   0  0  0  0  0  2  0  0  0  0  0  0
  -28.1400  -13.6600   19.4010 C   0  0  0  0  0  3  0  0  0  0  0  0
  -29.2260  -13.6600   20.4900 C   0  0  0  0  0  2  0  0  0  0  0  0
  -30.4780  -14.0090   19.8150 N   0  0  0  0  0  0  0  0  0  0  0  0
  -32.2360  -15.3450   19.4160 O   0  0  0  0  0  0  0  0  0  0  0  0
  -30.2140  -16.4200   19.8590 N   0  0  0  0  0  0  0  0  0  0  0  0
  -29.2670  -16.1600   20.1090 H   0  0  0  0  0  0  0  0  0  0  0  0
  -25.8360  -14.3570   20.2680 C   0  0  0  0  0  0  0  0  0  0  0  0
  -24.7510  -13.6360   20.6740 C   0  0  0  0  0  0  0  0  0  0  0  0
  -25.1270  -12.2610   20.5750 C   0  0  0  0  0  0  0  0  0  0  0  0
  -26.8110  -13.4280   19.9510 N   0  0  0  0  0  0  0  0  0  0  0  0
  -26.3970  -12.1590   20.2000 N   0  0  0  0  0  0  0  0  0  0  0  0
  -24.3320  -11.0410   20.7570 C   0  0  0  0  0  0  0  0  0  0  0  0
  -24.7180  -10.0330   21.6680 C   0  0  0  0  0  3  0  0  0  0  0  0
  -23.9230   -8.8780   21.8410 C   0  0  0  0  0  3  0  0  0  0  0  0
  -22.7250   -8.7250   21.1040 C   0  0  0  0  0  0  0  0  0  0  0  0
  -22.3560   -9.7210   20.1810 C   0  0  0  0  0  3  0  0  0  0  0  0
  -23.1510  -10.8650   20.0070 C   0  0  0  0  0  3  0  0  0  0  0  0
  -21.9060   -7.6260   21.1890 O   0  0  0  0  0  0  0  0  0  0  0  0
  -21.7840   -6.9070   22.3510 C   0  0  0  0  0  0  0  0  0  0  0  0
  -21.3450   -7.5020   23.5530 C   0  0  0  0  0  3  0  0  0  0  0  0
  -21.1730   -6.7120   24.7050 C   0  0  0  0  0  3  0  0  0  0  0  0
  -21.4250   -5.3250   24.6530 C   0  0  0  0  0  0  0  0  0  0  0  0
  -21.8560   -4.7340   23.4540 C   0  0  0  0  0  3  0  0  0  0  0  0
  -22.0300   -5.5230   22.3040 C   0  0  0  0  0  0  0  0  0  0  0  0
  -22.4260   -4.9430   21.1460 F   0  0  0  0  0  0  0  0  0  0  0  0
  -21.2470   -4.5630   25.7560 F   0  0  0  0  0  0  0  0  0  0  0  0
  -23.4030  -14.1880   21.0290 C   0  0  0  0  0  0  0  0  0  0  0  0
  -22.6800  -13.5210   21.9160 N   0  0  0  0  0  0  0  0  0  0  0  0
  -23.0060  -15.2550   20.5520 O   0  0  0  0  0  0  0  0  0  0  0  0
  -23.0120  -12.6580   22.3240 H   0  0  0  0  0  0  0  0  0  0  0  0
  -21.7820  -13.8820   22.2030 H   0  0  0  0  0  0  0  0  0  0  0  0
  -26.0680  -15.7210   20.1160 N   0  0  0  0  0  0  0  0  0  0  0  0
  -25.3280  -16.3950   20.2690 H   0  0  0  0  0  0  0  0  0  0  0  0
  -26.8810  -16.1200   19.6700 H   0  0  0  0  0  0  0  0  0  0  0  0
  1  4  1  0
  1 47  1  0
  1  2  1  0
  3  1  1  0
  5  4  2  0
  5  6  1  0
  7 18  2  0
  8  6  1  0
  8 13  1  0
  9 17  1  0
  9 19  1  0
 10 16  1  0
 10 12  1  0
 11 17  1  0
 12 11  1  0
 13 12  2  0
 14 15  1  0
 14  8  2  0
 15 10  2  0
 16  9  1  0
 17  7  1  0
 19 21  2  0
 20 19  1  0
 22 20  1  0
 23 32  2  0
 23 28  1  0
 24 20  1  0
 24 28  1  0
 25 24  1  0
 26 27  1  0
 26 25  1  0
 27 23  1  0
 28 29  2  0
 29 30  1  0
 31 30  2  0
 32 31  1  0
 33  7  1  0
 33 34  1  0
 33 43  1  0
 34 37  1  0
 35 39  1  0
 35 34  1  0
 36 35  2  0
 39 38  1  0
 41 39  1  0
 41 42  1  0
 41 40  1  0
 43 46  1  1
 43 44  1  0
 45 43  1  0
 47 51  1  0
 47 50  1  0
 48 49  1  0
 50 48  1  0
 50 49  1  0
 51 52  2  0
 53 59  1  0
 53 61  1  0
 54 59  1  0
 55 56  1  0
 55 54  1  0
 57 56  1  0
 57 66  1  0
 57 58  1  0
 59 58  1  0
 60 53  2  0
 61 52  1  0
 61 62  1  0
 63 64  2  0
 64 83  1  0
 65 64  1  0
 65 68  1  0
 66 67  1  0
 66 63  1  0
 67 65  2  0
 68 69  1  0
 69 70  2  0
 71 74  1  0
 71 70  1  0
 72 71  2  0
 73 72  1  0
 73 68  2  0
 74 75  1  0
 75 76  1  0
 76 77  2  0
 78 77  1  0
 78 82  1  0
 79 78  2  0
 80 75  2  0
 80 79  1  0
 81 80  1  0
 83 84  1  0
 84 87  1  0
 84 86  1  0
 85 83  2  0
 88 63  1  0
 88 89  1  0
 90 88  1  0
M  ISO  4   5 101   6 101  53 100  61 100
M  END
>  <TORSDO>  (74) 
F 22

>  <SCORE>  (74) 
-12.566

>  <name>  (74) 
73

>  <ligand_id>  (74) 
73

>  <original_smiles>  (74) 
[H]c1c([H])c([H])c2c(c1[H])C([H])([H])C([H])([H])C([H])([H])C2([H])N([H])C(=O)C1([H])N(C(=O)C([H])(N([H])C(=O)C([H])(N([H])C([H])([H])[H])C([H])([H])[H])C(C([H])([H])[H])(C([H])([H])[H])C([H])([H])[H])C([H])([H])c2c([H])c(OC([H])([H])C([H])([H])[N+]([H])([H])C([H])(C([H])([H])C([H])([H])N([H])C(=O)N3C([H])([H])C([H])([H])C([H])([H])C([H])(n4nc(-c5c([H])c([H])c(Oc6c([H])c([H])c(F)c([H])c6F)c([H])c5[H])c(C(=O)N([H])[H])c4N([H])[H])C3([H])[H])C3([H])C([H])([H])C3([H])[H])c([H])c([H])c2C1([H])[H]

>  <smiles>  (74) 
[H]c1c([H])c([H])c2c(c1[H])C([H])([H])C([H])([H])C([H])([H])C2([H])N([H])C(=O)C1([H])N(C(=O)C([H])(N([H])C(=O)C([H])(N([H])C([H])([H])[H])C([H])([H])[H])C(C([H])([H])[H])(C([H])([H])[H])C([H])([H])[H])C([H])([H])c2c([H])c(OC([H])([H])C([H])([H])[N+]([H])([H])C([H])(C([H])([H])C([H])([H])N([H])C(=O)N3C([H])([H])C([H])([H])C([H])([H])C([H])(n4nc(-c5c([H])c([H])c(Oc6c([H])c([H])c(F)c([H])c6F)c([H])c5[H])c(C(=O)N([H])[H])c4N([H])[H])C3([H])[H])C3([H])C([H])([H])C3([H])[H])c([H])c([H])c2C1([H])[H]

$$$$
74:0:0
     RDKit          3D

 92100  0  0  1  0  0  0  0  0999 V2000
  -30.0760  -19.3170   20.3140 C   0  0  0  0  0  0  0  0  0  0  0  0
  -29.2950  -20.4170   20.2310 N   0  0  0  0  0  0  0  0  0  0  0  0
  -31.3040  -19.4120   20.4000 O   0  0  0  0  0  0  0  0  0  0  0  0
  -28.3020  -20.2660   20.1210 H   0  0  0  0  0  0  0  0  0  0  0  0
  -30.7410  -14.4770   19.6840 C   0  0  0  0  0  0  0  0  0  0  0  0
  -30.2110  -12.4510   18.3750 C   0  0  0  0  0  2  0  0  0  0  0  0
  -29.1090  -12.7970   17.3500 C   0  0  0  0  0  2  0  0  0  0  0  0
  -27.7090  -12.6360   17.9750 C   0  0  0  0  0  2  0  0  0  0  0  0
  -27.5870  -13.3330   19.3560 C   0  0  0  0  0  3  0  0  0  0  0  0
  -28.7840  -12.9550   20.2550 C   0  0  0  0  0  2  0  0  0  0  0  0
  -30.0140  -13.3290   19.5410 N   0  0  0  0  0  0  0  0  0  0  0  0
  -31.8100  -14.6490   19.0910 O   0  0  0  0  0  0  0  0  0  0  0  0
  -29.3770  -17.2660   21.6720 C   0  0  0  0  0  0  0  0  0  0  0  0
  -29.9340  -15.8660   21.5750 C   0  0  0  0  0  2  0  0  0  0  0  0
  -30.0450  -16.8400   19.4060 C   0  0  0  0  0  2  0  0  0  0  0  0
  -29.3840  -17.9190   20.3040 C   0  0  0  0  0  3  0  0  0  0  0  0
  -28.9110  -17.7560   22.7430 N   0  0  0  0  0  0  0  0  0  0  0  0
  -30.0610  -15.5600   20.1480 N   0  0  0  0  0  0  0  0  0  0  0  0
  -28.5330  -18.6880   22.6160 H   0  0  0  0  0  0  0  0  0  0  0  0
  -25.3310  -13.9010   20.4560 C   0  0  0  0  0  0  0  0  0  0  0  0
  -24.3020  -13.1080   20.8950 C   0  0  0  0  0  0  0  0  0  0  0  0
  -24.7150  -11.7610   20.6610 C   0  0  0  0  0  0  0  0  0  0  0  0
  -26.3080  -13.0320   19.9950 N   0  0  0  0  0  0  0  0  0  0  0  0
  -25.9470  -11.7340   20.1690 N   0  0  0  0  0  0  0  0  0  0  0  0
  -23.9850  -10.4970   20.8210 C   0  0  0  0  0  0  0  0  0  0  0  0
  -24.4920   -9.4470   21.6170 C   0  0  0  0  0  3  0  0  0  0  0  0
  -23.7630   -8.2490   21.7700 C   0  0  0  0  0  3  0  0  0  0  0  0
  -22.5110   -8.0940   21.1280 C   0  0  0  0  0  0  0  0  0  0  0  0
  -22.0230   -9.1320   20.3150 C   0  0  0  0  0  3  0  0  0  0  0  0
  -22.7530  -10.3220   20.1600 C   0  0  0  0  0  3  0  0  0  0  0  0
  -21.7450   -6.9550   21.1980 O   0  0  0  0  0  0  0  0  0  0  0  0
  -21.7650   -6.1410   22.3020 C   0  0  0  0  0  0  0  0  0  0  0  0
  -21.4620   -6.6260   23.5930 C   0  0  0  0  0  3  0  0  0  0  0  0
  -21.4300   -5.7400   24.6880 C   0  0  0  0  0  3  0  0  0  0  0  0
  -21.6890   -4.3700   24.4940 C   0  0  0  0  0  0  0  0  0  0  0  0
  -21.9840   -3.8850   23.2090 C   0  0  0  0  0  3  0  0  0  0  0  0
  -22.0190   -4.7680   22.1150 C   0  0  0  0  0  0  0  0  0  0  0  0
  -22.2840   -4.2900   20.8750 F   0  0  0  0  0  0  0  0  0  0  0  0
  -21.6510   -3.5180   25.5430 F   0  0  0  0  0  0  0  0  0  0  0  0
  -22.9730  -13.5740   21.4130 C   0  0  0  0  0  0  0  0  0  0  0  0
  -22.3650  -12.8070   22.3120 N   0  0  0  0  0  0  0  0  0  0  0  0
  -22.4870  -14.6470   21.0610 O   0  0  0  0  0  0  0  0  0  0  0  0
  -22.7690  -11.9330   22.6170 H   0  0  0  0  0  0  0  0  0  0  0  0
  -21.4800  -13.0970   22.7020 H   0  0  0  0  0  0  0  0  0  0  0  0
  -25.5110  -15.2780   20.3870 N   0  0  0  0  0  0  0  0  0  0  0  0
  -24.7810  -15.9350   20.6420 H   0  0  0  0  0  0  0  0  0  0  0  0
  -26.3050  -15.7250   19.9490 H   0  0  0  0  0  0  0  0  0  0  0  0
  -29.7540  -21.8170   20.3370 C   0  0  0  0  0  2  0  0  0  0  0  0
  -28.5910  -22.8480   20.3890 C   0  0  0  0  0  2  0  0  0  0  0  0
  -29.0000  -24.3120   20.7460 C   0  0  0  0  0  2  0  0  0  0  0  0
  -28.8930  -25.3720   19.6160 C   0  0  0  0  0  2  0  0  0  0  0  0
  -28.6960  -26.7080   20.1370 O   0  0  0  0  0  0  0  0  0  0  0  0
  -24.5410  -31.7030   23.1030 C   0  0  0  0  0  0  0  0  0  0  0  0
  -27.4590  -27.3400   20.1080 C   0  0  0  0  0  0  0  0  0  0  0  0
  -23.4390  -30.2390   21.4440 C   0  0  0  0  0  3  0  0  0  0  0  0
  -24.9910  -28.7530   20.0670 C   0  0  0  0  0  0  0  0  0  0  0  0
  -25.9550  -30.6980   21.3090 C   0  0  0  0  0  2  0  0  0  0  0  0
  -26.1140  -29.3280   20.6750 C   0  0  0  0  0  0  0  0  0  0  0  0
  -27.3450  -28.6290   20.6900 C   0  0  0  0  0  3  0  0  0  0  0  0
  -26.3010  -26.7780   19.5170 C   0  0  0  0  0  3  0  0  0  0  0  0
  -25.0800  -27.4780   19.4910 C   0  0  0  0  0  3  0  0  0  0  0  0
  -23.7100  -29.5560   20.0770 C   0  0  0  0  0  2  0  0  0  0  0  0
  -24.6610  -30.8970   22.0080 N   0  0  0  0  0  0  0  0  0  0  0  0
  -23.4380  -31.9290   23.6180 O   0  0  0  0  0  0  0  0  0  0  0  0
  -22.8110  -29.1990   22.3990 C   0  0  0  0  0  0  0  0  0  0  0  0
  -21.4990  -28.9550   22.2440 N   0  0  0  0  0  0  0  0  0  0  0  0
  -23.5020  -28.6130   23.2370 O   0  0  0  0  0  0  0  0  0  0  0  0
  -21.0050  -29.4770   21.5340 H   0  0  0  0  0  0  0  0  0  0  0  0
  -18.1740  -27.6120   22.6920 C   0  0  0  0  0  0  0  0  0  0  0  0
  -20.7120  -27.9890   23.0100 C   0  0  0  0  0  3  0  0  0  0  0  0
  -20.8870  -26.5570   22.4510 C   0  0  0  0  0  2  0  0  0  0  0  0
  -19.8250  -26.1920   21.4070 C   0  0  0  0  0  2  0  0  0  0  0  0
  -18.4280  -26.2680   22.0320 C   0  0  0  0  0  2  0  0  0  0  0  0
  -19.2480  -28.4280   23.1380 C   0  0  0  0  0  0  0  0  0  0  0  0
  -18.9610  -29.6850   23.7120 C   0  0  0  0  0  3  0  0  0  0  0  0
  -17.6320  -30.1290   23.8430 C   0  0  0  0  0  3  0  0  0  0  0  0
  -16.5730  -29.3100   23.4160 C   0  0  0  0  0  3  0  0  0  0  0  0
  -16.8430  -28.0530   22.8460 C   0  0  0  0  0  3  0  0  0  0  0  0
  -25.7830  -32.3950   23.7480 C   0  0  0  0  0  3  0  0  0  0  0  0
  -26.3210  -31.6460   25.0280 C   0  0  1  0  0  0  0  0  0  0  0  0
  -25.2260  -31.3420   26.0770 C   0  0  0  0  0  1  0  0  0  0  0  0
  -26.9820  -30.3030   24.6380 C   0  0  0  0  0  1  0  0  0  0  0  0
  -27.4180  -32.4960   25.7120 C   0  0  0  0  0  1  0  0  0  0  0  0
  -25.3980  -33.7740   24.0790 N   0  0  0  0  0  0  0  0  0  0  0  0
  -25.6800  -34.8440   23.3240 C   0  0  0  0  0  0  0  0  0  0  0  0
  -26.3620  -34.7790   22.2980 O   0  0  0  0  0  0  0  0  0  0  0  0
  -24.7890  -33.8950   24.8750 H   0  0  0  0  0  0  0  0  0  0  0  0
  -23.8540  -36.5360   22.9650 C   0  0  0  0  0  1  0  0  0  0  0  0
  -25.1150  -36.2050   23.7790 C   0  0  0  0  0  3  0  0  0  0  0  0
  -27.1960  -37.2060   24.6140 C   0  0  0  0  0  1  0  0  0  0  0  0
  -26.0900  -37.3120   23.6650 N   0  0  0  0  0  0  0  0  0  0  0  0
  -25.6350  -38.2100   23.8070 H   0  0  0  0  0  0  0  0  0  0  0  0
  1  3  2  0
  2  1  1  0
  2 48  1  0
  4  2  1  0
  5 18  1  0
  6 11  1  0
  7  8  1  0
  7  6  1  0
  9  8  1  0
  9 23  1  0
  9 10  1  0
 11  5  1  0
 11 10  1  0
 12  5  2  0
 13 17  2  0
 14 13  1  0
 15 18  1  0
 15 16  1  0
 16  1  1  0
 16 13  1  0
 18 14  1  0
 19 17  1  0
 20 21  2  0
 21 40  1  0
 22 25  1  0
 22 21  1  0
 23 24  1  0
 23 20  1  0
 24 22  2  0
 25 26  1  0
 26 27  2  0
 28 31  1  0
 28 27  1  0
 29 28  2  0
 30 29  1  0
 30 25  2  0
 31 32  1  0
 32 33  1  0
 33 34  2  0
 35 34  1  0
 35 39  1  0
 36 35  2  0
 37 32  2  0
 37 36  1  0
 38 37  1  0
 40 41  1  0
 41 43  1  0
 41 44  1  0
 42 40  2  0
 45 20  1  0
 45 46  1  0
 47 45  1  0
 48 49  1  0
 49 50  1  0
 51 52  1  0
 51 50  1  0
 53 64  2  0
 54 52  1  0
 54 59  1  0
 55 63  1  0
 55 65  1  0
 56 62  1  0
 56 58  1  0
 57 63  1  0
 58 59  2  0
 58 57  1  0
 60 54  2  0
 61 60  1  0
 61 56  2  0
 62 55  1  0
 63 53  1  0
 65 67  2  0
 66 65  1  0
 68 66  1  0
 69 78  2  0
 69 74  1  0
 70 66  1  0
 70 74  1  0
 71 70  1  0
 72 73  1  0
 72 71  1  0
 73 69  1  0
 74 75  2  0
 75 76  1  0
 77 76  2  0
 78 77  1  0
 79 53  1  0
 79 84  1  0
 79 80  1  0
 80 83  1  1
 80 81  1  0
 82 80  1  0
 84 87  1  0
 85 89  1  0
 85 84  1  0
 86 85  2  0
 89 88  1  0
 91 89  1  0
 91 92  1  0
 91 90  1  0
M  ISO  4   5 100  18 100  51 101  52 101
M  END
>  <TORSDO>  (75) 
F 20

>  <SCORE>  (75) 
-9.784

>  <name>  (75) 
74

>  <ligand_id>  (75) 
74

>  <original_smiles>  (75) 
[H]N=C1C([H])([H])N(C(=O)N2C([H])([H])C([H])([H])C([H])([H])C([H])(n3nc(-c4c([H])c([H])c(Oc5c([H])c([H])c(F)c([H])c5F)c([H])c4[H])c(C(=O)N([H])[H])c3N([H])[H])C2([H])[H])C([H])([H])C1([H])C(=O)N([H])C([H])([H])C([H])([H])C([H])([H])C([H])([H])Oc1c([H])c([H])c2c(c1[H])C([H])([H])N(C(=O)C([H])(N([H])C(=O)C([H])(N([H])C([H])([H])[H])C([H])([H])[H])C(C([H])([H])[H])(C([H])([H])[H])C([H])([H])[H])C([H])(C(=O)N([H])C1([H])c3c([H])c([H])c([H])c([H])c3C([H])([H])C([H])([H])C1([H])[H])C2([H])[H]

>  <smiles>  (75) 
[H]N=C1C([H])([H])N(C(=O)N2C([H])([H])C([H])([H])C([H])([H])C([H])(n3nc(-c4c([H])c([H])c(Oc5c([H])c([H])c(F)c([H])c5F)c([H])c4[H])c(C(=O)N([H])[H])c3N([H])[H])C2([H])[H])C([H])([H])C1([H])C(=O)N([H])C([H])([H])C([H])([H])C([H])([H])C([H])([H])Oc1c([H])c([H])c2c(c1[H])C([H])([H])N(C(=O)C([H])(N([H])C(=O)C([H])(N([H])C([H])([H])[H])C([H])([H])[H])C(C([H])([H])[H])(C([H])([H])[H])C([H])([H])[H])C([H])(C(=O)N([H])C1([H])c3c([H])c([H])c([H])c([H])c3C([H])([H])C([H])([H])C1([H])[H])C2([H])[H]

$$$$
75:0:0
     RDKit          3D

 91 99  0  0  1  0  0  0  0  0999 V2000
  -29.5670  -21.3360   20.3770 C   0  0  0  0  0  2  0  0  0  0  0  0
  -28.9930  -19.9620   20.1290 N   0  0  0  0  0  4  0  0  0  0  0  0
  -28.0320  -20.0270   20.4220 H   0  0  0  0  0  0  0  0  0  0  0  0
  -28.9770  -19.8130   19.1320 H   0  0  0  0  0  0  0  0  0  0  0  0
  -30.7810  -14.5740   20.1050 C   0  0  0  0  0  0  0  0  0  0  0  0
  -30.3660  -12.4160   18.9460 C   0  0  0  0  0  2  0  0  0  0  0  0
  -29.3750  -12.6070   17.7800 C   0  0  0  0  0  2  0  0  0  0  0  0
  -27.9280  -12.4430   18.2850 C   0  0  0  0  0  2  0  0  0  0  0  0
  -27.6500  -13.2650   19.5730 C   0  0  0  0  0  3  0  0  0  0  0  0
  -28.7690  -13.0400   20.6230 C   0  0  0  0  0  2  0  0  0  0  0  0
  -30.0380  -13.4210   19.9900 N   0  0  0  0  0  0  0  0  0  0  0  0
  -31.8980  -14.6020   19.5790 O   0  0  0  0  0  0  0  0  0  0  0  0
  -30.8870  -18.1940   20.2810 C   0  0  0  0  0  2  0  0  0  0  0  0
  -28.5260  -17.5460   20.6290 C   0  0  0  0  0  2  0  0  0  0  0  0
  -31.2770  -16.8550   20.9810 C   0  0  0  0  0  2  0  0  0  0  0  0
  -28.9890  -16.1640   21.1850 C   0  0  0  0  0  2  0  0  0  0  0  0
  -29.5300  -18.7220   20.8020 C   0  0  0  0  0  3  0  0  0  0  0  0
  -30.3250  -15.7400   20.7030 N   0  0  0  0  0  0  0  0  0  0  0  0
  -25.2940  -13.8690   20.4140 C   0  0  0  0  0  0  0  0  0  0  0  0
  -24.2470  -13.0930   20.8270 C   0  0  0  0  0  0  0  0  0  0  0  0
  -24.7050  -11.7410   20.7580 C   0  0  0  0  0  0  0  0  0  0  0  0
  -26.3250  -12.9890   20.1190 N   0  0  0  0  0  0  0  0  0  0  0  0
  -25.9770  -11.7050   20.3870 N   0  0  0  0  0  0  0  0  0  0  0  0
  -23.9870  -10.4780   20.9680 C   0  0  0  0  0  0  0  0  0  0  0  0
  -24.4410   -9.5180   21.8980 C   0  0  0  0  0  3  0  0  0  0  0  0
  -23.7230   -8.3190   22.0980 C   0  0  0  0  0  3  0  0  0  0  0  0
  -22.5390   -8.0700   21.3660 C   0  0  0  0  0  0  0  0  0  0  0  0
  -22.1030   -9.0190   20.4250 C   0  0  0  0  0  3  0  0  0  0  0  0
  -22.8210  -10.2110   20.2230 C   0  0  0  0  0  3  0  0  0  0  0  0
  -21.7930   -6.9220   21.4720 O   0  0  0  0  0  0  0  0  0  0  0  0
  -21.7390   -6.2030   22.6400 C   0  0  0  0  0  0  0  0  0  0  0  0
  -21.3020   -6.7810   23.8510 C   0  0  0  0  0  3  0  0  0  0  0  0
  -21.1940   -5.9890   25.0110 C   0  0  0  0  0  3  0  0  0  0  0  0
  -21.5150   -4.6180   24.9620 C   0  0  0  0  0  0  0  0  0  0  0  0
  -21.9470   -4.0400   23.7550 C   0  0  0  0  0  3  0  0  0  0  0  0
  -22.0560   -4.8300   22.5970 C   0  0  0  0  0  0  0  0  0  0  0  0
  -22.4500   -4.2620   21.4320 F   0  0  0  0  0  0  0  0  0  0  0  0
  -21.4040   -3.8570   26.0740 F   0  0  0  0  0  0  0  0  0  0  0  0
  -22.8650  -13.5680   21.1710 C   0  0  0  0  0  0  0  0  0  0  0  0
  -22.1760  -12.8630   22.0620 N   0  0  0  0  0  0  0  0  0  0  0  0
  -22.4030  -14.5980   20.6830 O   0  0  0  0  0  0  0  0  0  0  0  0
  -22.5630  -12.0290   22.4810 H   0  0  0  0  0  0  0  0  0  0  0  0
  -21.2500  -13.1640   22.3310 H   0  0  0  0  0  0  0  0  0  0  0  0
  -25.4470  -15.2410   20.2400 N   0  0  0  0  0  0  0  0  0  0  0  0
  -24.6840  -15.8900   20.4010 H   0  0  0  0  0  0  0  0  0  0  0  0
  -26.2660  -15.6850   19.8500 H   0  0  0  0  0  0  0  0  0  0  0  0
  -27.2020  -22.1380   19.6650 C   0  0  0  0  0  1  0  0  0  0  0  0
  -28.4890  -22.5030   20.4530 C   0  0  0  0  0  3  0  0  0  0  0  0
  -28.9930  -23.9710   20.0810 C   0  0  0  0  0  3  0  0  0  0  0  0
  -28.1240  -25.1650   20.6470 C   0  0  0  0  0  3  0  0  0  0  0  0
  -28.3680  -26.5420   20.1860 O   0  0  0  0  0  0  0  0  0  0  0  0
  -24.6040  -31.8960   23.2210 C   0  0  0  0  0  0  0  0  0  0  0  0
  -27.2510  -27.3780   20.1600 C   0  0  0  0  0  0  0  0  0  0  0  0
  -23.4120  -30.4920   21.5800 C   0  0  0  0  0  3  0  0  0  0  0  0
  -24.8720  -28.9490   20.1640 C   0  0  0  0  0  0  0  0  0  0  0  0
  -25.9510  -30.8250   21.4040 C   0  0  0  0  0  2  0  0  0  0  0  0
  -26.0380  -29.4510   20.7570 C   0  0  0  0  0  0  0  0  0  0  0  0
  -27.2340  -28.6770   20.7420 C   0  0  0  0  0  3  0  0  0  0  0  0
  -26.0670  -26.9280   19.5320 C   0  0  0  0  0  3  0  0  0  0  0  0
  -24.8860  -27.6860   19.5490 C   0  0  0  0  0  3  0  0  0  0  0  0
  -23.6340  -29.8220   20.2020 C   0  0  0  0  0  2  0  0  0  0  0  0
  -24.6740  -31.0900   22.1240 N   0  0  0  0  0  0  0  0  0  0  0  0
  -23.5190  -32.1650   23.7530 O   0  0  0  0  0  0  0  0  0  0  0  0
  -22.7560  -29.4720   22.5360 C   0  0  0  0  0  0  0  0  0  0  0  0
  -21.4290  -29.2940   22.4150 N   0  0  0  0  0  0  0  0  0  0  0  0
  -23.4390  -28.8410   23.3480 O   0  0  0  0  0  0  0  0  0  0  0  0
  -20.9340  -29.8460   21.7250 H   0  0  0  0  0  0  0  0  0  0  0  0
  -18.0530  -28.1160   22.9430 C   0  0  0  0  0  0  0  0  0  0  0  0
  -20.6140  -28.3620   23.1930 C   0  0  0  0  0  3  0  0  0  0  0  0
  -20.7030  -26.9330   22.6140 C   0  0  0  0  0  2  0  0  0  0  0  0
  -19.5890  -26.6180   21.6070 C   0  0  0  0  0  2  0  0  0  0  0  0
  -18.2130  -26.7710   22.2610 C   0  0  0  0  0  2  0  0  0  0  0  0
  -19.1790  -28.8710   23.3690 C   0  0  0  0  0  0  0  0  0  0  0  0
  -18.9740  -30.1280   23.9750 C   0  0  0  0  0  3  0  0  0  0  0  0
  -17.6730  -30.6390   24.1460 C   0  0  0  0  0  3  0  0  0  0  0  0
  -16.5600  -29.8880   23.7280 C   0  0  0  0  0  3  0  0  0  0  0  0
  -16.7520  -28.6250   23.1410 C   0  0  0  0  0  3  0  0  0  0  0  0
  -25.8850  -32.5330   23.8450 C   0  0  0  0  0  3  0  0  0  0  0  0
  -26.3980  -31.7620   25.1240 C   0  0  1  0  0  0  0  0  0  0  0  0
  -25.3000  -31.5260   26.1890 C   0  0  0  0  0  1  0  0  0  0  0  0
  -26.9790  -30.3830   24.7390 C   0  0  0  0  0  1  0  0  0  0  0  0
  -27.5540  -32.5530   25.7830 C   0  0  0  0  0  1  0  0  0  0  0  0
  -25.5640  -33.9270   24.1740 N   0  0  0  0  0  0  0  0  0  0  0  0
  -25.9010  -34.9820   23.4220 C   0  0  0  0  0  0  0  0  0  0  0  0
  -26.5840  -34.8830   22.3980 O   0  0  0  0  0  0  0  0  0  0  0  0
  -24.9410  -34.0770   24.9560 H   0  0  0  0  0  0  0  0  0  0  0  0
  -24.1650  -36.7630   23.0550 C   0  0  0  0  0  1  0  0  0  0  0  0
  -25.4030  -36.3690   23.8740 C   0  0  0  0  0  3  0  0  0  0  0  0
  -27.5340  -37.2500   24.7200 C   0  0  0  0  0  1  0  0  0  0  0  0
  -26.4350  -37.4250   23.7720 N   0  0  0  0  0  0  0  0  0  0  0  0
  -26.0260  -38.3440   23.9310 H   0  0  0  0  0  0  0  0  0  0  0  0
  1 48  1  0
  2  1  1  0
  2  3  1  0
  4  2  1  0
  5 18  1  0
  6 11  1  0
  7  8  1  0
  7  6  1  0
  9  8  1  0
  9 22  1  0
  9 10  1  0
 11  5  1  0
 11 10  1  0
 12  5  2  0
 13 17  1  0
 13 15  1  0
 14 17  1  0
 14 16  1  0
 17  2  1  0
 18 15  1  0
 18 16  1  0
 19 20  2  0
 20 39  1  0
 21 20  1  0
 21 24  1  0
 22 23  1  0
 22 19  1  0
 23 21  2  0
 24 25  1  0
 25 26  2  0
 27 30  1  0
 27 26  1  0
 28 27  2  0
 29 28  1  0
 29 24  2  0
 30 31  1  0
 31 32  1  0
 32 33  2  0
 34 33  1  0
 34 38  1  0
 35 34  2  0
 36 31  2  0
 36 35  1  0
 37 36  1  0
 39 40  1  0
 40 43  1  0
 40 42  1  0
 41 39  2  0
 44 45  1  0
 44 19  1  0
 46 44  1  0
 48 47  1  0
 49 48  1  0
 49 50  2  0
 51 50  1  0
 52 63  2  0
 53 51  1  0
 53 58  1  0
 54 62  1  0
 54 64  1  0
 55 61  1  0
 55 57  1  0
 56 62  1  0
 57 56  1  0
 58 57  2  0
 59 60  1  0
 59 53  2  0
 60 55  2  0
 61 54  1  0
 62 52  1  0
 64 66  2  0
 65 64  1  0
 67 65  1  0
 68 77  2  0
 68 73  1  0
 69 65  1  0
 69 73  1  0
 70 69  1  0
 71 72  1  0
 71 70  1  0
 72 68  1  0
 73 74  2  0
 74 75  1  0
 76 75  2  0
 77 76  1  0
 78 52  1  0
 78 83  1  0
 78 79  1  0
 79 82  1  1
 79 80  1  0
 81 79  1  0
 83 86  1  0
 84 88  1  0
 84 83  1  0
 85 84  2  0
 88 87  1  0
 90 88  1  0
 90 91  1  0
 90 89  1  0
M  ISO  4   5 100  18 100  50 101  51 101
M  END
>  <TORSDO>  (76) 
F 20

>  <SCORE>  (76) 
-13.620

>  <name>  (76) 
75

>  <ligand_id>  (76) 
75

>  <original_smiles>  (76) 
[H]c1c([H])c([H])c2c(c1[H])C([H])([H])C([H])([H])C([H])([H])C2([H])N([H])C(=O)C1([H])N(C(=O)C([H])(N([H])C(=O)C([H])(N([H])C([H])([H])[H])C([H])([H])[H])C(C([H])([H])[H])(C([H])([H])[H])C([H])([H])[H])C([H])([H])c2c([H])c(OC([H])([H])C([H])([H])C([H])(C([H])([H])[H])C([H])([H])[N+]([H])([H])C3([H])C([H])([H])C([H])([H])N(C(=O)N4C([H])([H])C([H])([H])C([H])([H])C([H])(n5nc(-c6c([H])c([H])c(Oc7c([H])c([H])c(F)c([H])c7F)c([H])c6[H])c(C(=O)N([H])[H])c5N([H])[H])C4([H])[H])C([H])([H])C3([H])[H])c([H])c([H])c2C1([H])[H]

>  <smiles>  (76) 
[H]c1c([H])c([H])c2c(c1[H])C([H])([H])C([H])([H])C([H])([H])C2([H])N([H])C(=O)C1([H])N(C(=O)C([H])(N([H])C(=O)C([H])(N([H])C([H])([H])[H])C([H])([H])[H])C(C([H])([H])[H])(C([H])([H])[H])C([H])([H])[H])C([H])([H])c2c([H])c(OC([H])([H])C([H])([H])C([H])(C([H])([H])[H])C([H])([H])[N+]([H])([H])C3([H])C([H])([H])C([H])([H])N(C(=O)N4C([H])([H])C([H])([H])C([H])([H])C([H])(n5nc(-c6c([H])c([H])c(Oc7c([H])c([H])c(F)c([H])c7F)c([H])c6[H])c(C(=O)N([H])[H])c5N([H])[H])C4([H])[H])C([H])([H])C3([H])[H])c([H])c([H])c2C1([H])[H]

$$$$
76:0:0
     RDKit          3D

 92100  0  0  1  0  0  0  0  0999 V2000
  -29.7380  -20.5920   20.2450 N   0  0  0  0  0  4  0  0  0  0  0  0
  -30.4400  -20.7550   19.5430 H   0  0  0  0  0  0  0  0  0  0  0  0
  -30.2080  -20.7200   21.1240 H   0  0  0  0  0  0  0  0  0  0  0  0
  -30.7430  -15.1820   19.9750 C   0  0  0  0  0  0  0  0  0  0  0  0
  -30.5570  -12.8650   18.9520 C   0  0  0  0  0  2  0  0  0  0  0  0
  -29.5550  -12.8310   17.7750 C   0  0  0  0  0  2  0  0  0  0  0  0
  -28.1240  -12.5910   18.2900 C   0  0  0  0  0  2  0  0  0  0  0  0
  -27.7810  -13.4640   19.5250 C   0  0  0  0  0  3  0  0  0  0  0  0
  -28.9060  -13.4510   20.5810 C   0  0  0  0  0  2  0  0  0  0  0  0
  -30.1200  -13.9300   19.9050 N   0  0  0  0  0  0  0  0  0  0  0  0
  -31.9170  -15.2150   19.5890 O   0  0  0  0  0  0  0  0  0  0  0  0
  -29.0200  -18.3010   21.4670 C   0  0  0  0  0  2  0  0  0  0  0  0
  -29.0510  -16.7460   21.1890 C   0  0  0  0  0  2  0  0  0  0  0  0
  -30.4000  -17.8510   19.6210 C   0  0  0  0  0  3  0  0  0  0  0  0
  -29.3720  -19.0330   20.1570 C   0  0  0  0  0  3  0  0  0  0  0  0
  -30.0310  -16.4230   20.1300 N   0  0  0  0  0  0  0  0  0  0  0  0
  -25.4370  -13.9780   20.4090 C   0  0  0  0  0  0  0  0  0  0  0  0
  -24.4050  -13.1740   20.8100 C   0  0  0  0  0  0  0  0  0  0  0  0
  -24.8880  -11.8330   20.7110 C   0  0  0  0  0  0  0  0  0  0  0  0
  -26.4780  -13.1260   20.0890 N   0  0  0  0  0  0  0  0  0  0  0  0
  -26.1610  -11.8280   20.3320 N   0  0  0  0  0  0  0  0  0  0  0  0
  -24.1890  -10.5530   20.8950 C   0  0  0  0  0  0  0  0  0  0  0  0
  -24.6090   -9.6160   21.8630 C   0  0  0  0  0  3  0  0  0  0  0  0
  -23.9060   -8.4040   22.0370 C   0  0  0  0  0  3  0  0  0  0  0  0
  -22.7710   -8.1200   21.2400 C   0  0  0  0  0  0  0  0  0  0  0  0
  -22.3710   -9.0480   20.2630 C   0  0  0  0  0  3  0  0  0  0  0  0
  -23.0730  -10.2520   20.0880 C   0  0  0  0  0  3  0  0  0  0  0  0
  -22.0430   -6.9570   21.3220 O   0  0  0  0  0  0  0  0  0  0  0  0
  -21.8500   -6.3110   22.5170 C   0  0  0  0  0  0  0  0  0  0  0  0
  -21.2140   -6.9380   23.6100 C   0  0  0  0  0  3  0  0  0  0  0  0
  -20.9740   -6.2140   24.7950 C   0  0  0  0  0  3  0  0  0  0  0  0
  -21.3600   -4.8640   24.8880 C   0  0  0  0  0  0  0  0  0  0  0  0
  -21.9920   -4.2360   23.7980 C   0  0  0  0  0  3  0  0  0  0  0  0
  -22.2330   -4.9570   22.6150 C   0  0  0  0  0  0  0  0  0  0  0  0
  -22.8200   -4.3410   21.5610 F   0  0  0  0  0  0  0  0  0  0  0  0
  -21.1250   -4.1670   26.0230 F   0  0  0  0  0  0  0  0  0  0  0  0
  -23.0190  -13.6210   21.1700 C   0  0  0  0  0  0  0  0  0  0  0  0
  -22.3540  -12.8930   22.0590 N   0  0  0  0  0  0  0  0  0  0  0  0
  -22.5370  -14.6510   20.6990 O   0  0  0  0  0  0  0  0  0  0  0  0
  -22.7600  -12.0600   22.4600 H   0  0  0  0  0  0  0  0  0  0  0  0
  -21.4260  -13.1690   22.3460 H   0  0  0  0  0  0  0  0  0  0  0  0
  -25.5660  -15.3540   20.2580 N   0  0  0  0  0  0  0  0  0  0  0  0
  -24.7850  -15.9890   20.3980 H   0  0  0  0  0  0  0  0  0  0  0  0
  -26.3780  -15.8060   19.8630 H   0  0  0  0  0  0  0  0  0  0  0  0
  -30.5040  -17.8360   18.0940 C   0  0  0  0  0  0  0  0  0  0  0  0
  -31.7810  -18.3570   17.4590 C   0  0  0  0  0  1  0  0  0  0  0  0
  -29.5620  -17.3920   17.3770 N   0  0  0  0  0  0  0  0  0  0  0  0
  -28.7790  -17.0770   17.9410 H   0  0  0  0  0  0  0  0  0  0  0  0
  -28.7160  -21.8120   20.1000 C   0  0  0  0  0  2  0  0  0  0  0  0
  -29.1290  -23.4570   20.2990 C   0  0  0  0  0  3  0  0  0  0  0  0
  -28.1140  -24.7940   20.0230 C   0  0  0  0  0  3  0  0  0  0  0  0
  -28.3600  -26.3180   20.2930 O   0  0  0  0  0  0  0  0  0  0  0  0
  -24.6920  -31.9550   23.3550 C   0  0  0  0  0  0  0  0  0  0  0  0
  -27.2970  -27.3000   20.2400 C   0  0  0  0  0  0  0  0  0  0  0  0
  -23.5010  -30.5790   21.6970 C   0  0  0  0  0  3  0  0  0  0  0  0
  -24.9550  -29.0340   20.2430 C   0  0  0  0  0  0  0  0  0  0  0  0
  -26.0530  -30.8590   21.5320 C   0  0  0  0  0  2  0  0  0  0  0  0
  -26.1360  -29.4800   20.8530 C   0  0  0  0  0  0  0  0  0  0  0  0
  -27.3070  -28.6290   20.8290 C   0  0  0  0  0  3  0  0  0  0  0  0
  -26.0860  -26.9560   19.5990 C   0  0  0  0  0  3  0  0  0  0  0  0
  -24.9430  -27.7860   19.6040 C   0  0  0  0  0  3  0  0  0  0  0  0
  -23.7260  -29.9290   20.3070 C   0  0  0  0  0  2  0  0  0  0  0  0
  -24.7700  -31.1500   22.2530 N   0  0  0  0  0  0  0  0  0  0  0  0
  -23.6050  -32.2290   23.8880 O   0  0  0  0  0  0  0  0  0  0  0  0
  -22.8230  -29.5520   22.6390 C   0  0  0  0  0  0  0  0  0  0  0  0
  -21.5030  -29.3560   22.4870 N   0  0  0  0  0  0  0  0  0  0  0  0
  -23.4920  -28.9350   23.4710 O   0  0  0  0  0  0  0  0  0  0  0  0
  -21.0170  -29.9100   21.7960 H   0  0  0  0  0  0  0  0  0  0  0  0
  -18.1380  -28.0920   22.9210 C   0  0  0  0  0  0  0  0  0  0  0  0
  -20.6860  -28.3990   23.2350 C   0  0  0  0  0  3  0  0  0  0  0  0
  -20.8250  -26.9720   22.6550 C   0  0  0  0  0  2  0  0  0  0  0  0
  -19.7500  -26.6350   21.6180 C   0  0  0  0  0  2  0  0  0  0  0  0
  -18.3530  -26.7490   22.2390 C   0  0  0  0  0  2  0  0  0  0  0  0
  -19.2350  -28.8740   23.3730 C   0  0  0  0  0  0  0  0  0  0  0  0
  -18.9810  -30.1260   23.9720 C   0  0  0  0  0  3  0  0  0  0  0  0
  -17.6650  -30.5990   24.1260 C   0  0  0  0  0  3  0  0  0  0  0  0
  -16.5820  -29.8140   23.6930 C   0  0  0  0  0  3  0  0  0  0  0  0
  -16.8190  -28.5630   23.0940 C   0  0  0  0  0  3  0  0  0  0  0  0
  -25.9650  -32.5910   23.9920 C   0  0  0  0  0  3  0  0  0  0  0  0
  -26.4510  -31.8340   25.2880 C   0  0  1  0  0  0  0  0  0  0  0  0
  -25.3320  -31.6140   26.3340 C   0  0  0  0  0  1  0  0  0  0  0  0
  -27.0370  -30.4490   24.9290 C   0  0  0  0  0  1  0  0  0  0  0  0
  -27.5940  -32.6290   25.9610 C   0  0  0  0  0  1  0  0  0  0  0  0
  -25.6590  -33.9950   24.3040 N   0  0  0  0  0  0  0  0  0  0  0  0
  -25.9690  -35.0360   23.5210 C   0  0  0  0  0  0  0  0  0  0  0  0
  -26.6050  -34.9170   22.4710 O   0  0  0  0  0  0  0  0  0  0  0  0
  -25.0820  -34.1590   25.1160 H   0  0  0  0  0  0  0  0  0  0  0  0
  -24.2070  -36.8090   23.2260 C   0  0  0  0  0  1  0  0  0  0  0  0
  -25.4960  -36.4320   23.9740 C   0  0  0  0  0  3  0  0  0  0  0  0
  -27.6610  -37.3570   24.6690 C   0  0  0  0  0  1  0  0  0  0  0  0
  -26.5110  -37.4920   23.7790 N   0  0  0  0  0  0  0  0  0  0  0  0
  -26.1030  -38.4100   23.9300 H   0  0  0  0  0  0  0  0  0  0  0  0
  1  3  1  0
  2  1  1  0
  4 16  1  0
  5 10  1  0
  6  7  1  0
  6  5  1  0
  8  7  1  0
  8 20  1  0
  8  9  1  0
 10  4  1  0
 10  9  1  0
 11  4  2  0
 13 12  1  0
 14 45  1  0
 14 16  1  0
 14 15  1  0
 15  1  1  0
 15 12  1  0
 16 13  1  0
 17 18  2  0
 18 37  1  0
 19 18  1  0
 19 22  1  0
 20 21  1  0
 20 17  1  0
 21 19  2  0
 22 23  1  0
 23 24  2  0
 25 28  1  0
 25 24  1  0
 26 25  2  0
 27 26  1  0
 27 22  2  0
 28 29  1  0
 29 34  2  0
 29 30  1  0
 30 31  2  0
 31 32  1  0
 32 36  1  0
 33 32  2  0
 34 33  1  0
 35 34  1  0
 37 38  1  0
 38 41  1  0
 38 40  1  0
 39 37  2  0
 42 43  1  0
 42 17  1  0
 44 42  1  0
 46 45  1  0
 47 48  1  0
 47 45  2  0
 49  1  1  0
 49 50  1  0
 51 52  1  0
 51 50  2  0
 53 64  2  0
 54 52  1  0
 54 59  1  0
 55 63  1  0
 55 65  1  0
 56 62  1  0
 56 58  1  0
 57 63  1  0
 58 57  1  0
 59 58  2  0
 60 61  1  0
 60 54  2  0
 61 56  2  0
 62 55  1  0
 63 53  1  0
 65 67  2  0
 66 65  1  0
 68 66  1  0
 69 78  2  0
 69 74  1  0
 70 66  1  0
 70 74  1  0
 71 70  1  0
 72 73  1  0
 72 71  1  0
 73 69  1  0
 74 75  2  0
 75 76  1  0
 77 76  2  0
 78 77  1  0
 79 53  1  0
 79 84  1  0
 79 80  1  0
 80 83  1  1
 80 81  1  0
 82 80  1  0
 84 87  1  0
 85 89  1  0
 85 84  1  0
 86 85  2  0
 89 88  1  0
 91 92  1  0
 91 89  1  0
 91 90  1  0
M  ISO  4   4 100  16 100  51 101  52 101
M  END
>  <TORSDO>  (77) 
F 20

>  <SCORE>  (77) 
-13.473

>  <name>  (77) 
76

>  <ligand_id>  (77) 
76

>  <original_smiles>  (77) 
[H]N=C(C([H])([H])[H])C1([H])N(C(=O)N2C([H])([H])C([H])([H])C([H])([H])C([H])(n3nc(-c4c([H])c([H])c(Oc5c([H])c([H])c(F)c([H])c5F)c([H])c4[H])c(C(=O)N([H])[H])c3N([H])[H])C2([H])[H])C([H])([H])C([H])([H])C1([H])[N+]([H])([H])C([H])([H])C([H])([H])C([H])([H])Oc1c([H])c([H])c2c(c1[H])C([H])([H])N(C(=O)C([H])(N([H])C(=O)C([H])(N([H])C([H])([H])[H])C([H])([H])[H])C(C([H])([H])[H])(C([H])([H])[H])C([H])([H])[H])C([H])(C(=O)N([H])C1([H])c3c([H])c([H])c([H])c([H])c3C([H])([H])C([H])([H])C1([H])[H])C2([H])[H]

>  <smiles>  (77) 
[H]N=C(C([H])([H])[H])C1([H])N(C(=O)N2C([H])([H])C([H])([H])C([H])([H])C([H])(n3nc(-c4c([H])c([H])c(Oc5c([H])c([H])c(F)c([H])c5F)c([H])c4[H])c(C(=O)N([H])[H])c3N([H])[H])C2([H])[H])C([H])([H])C([H])([H])C1([H])[N+]([H])([H])C([H])([H])C([H])([H])C([H])([H])Oc1c([H])c([H])c2c(c1[H])C([H])([H])N(C(=O)C([H])(N([H])C(=O)C([H])(N([H])C([H])([H])[H])C([H])([H])[H])C(C([H])([H])[H])(C([H])([H])[H])C([H])([H])[H])C([H])(C(=O)N([H])C1([H])c3c([H])c([H])c([H])c([H])c3C([H])([H])C([H])([H])C1([H])[H])C2([H])[H]

$$$$
77:0:0
     RDKit          3D

 93101  0  0  1  0  0  0  0  0999 V2000
  -29.5090  -21.0830   19.7960 C   0  0  0  0  0  3  0  0  0  0  0  0
  -30.6110  -19.5170   21.5610 C   0  0  0  0  0  2  0  0  0  0  0  0
  -29.5280  -18.4360   19.7840 C   0  0  0  0  0  2  0  0  0  0  0  0
  -30.6930  -17.9730   21.8840 C   0  0  0  0  0  3  0  0  0  0  0  0
  -29.7500  -17.2990   20.8540 C   0  0  0  0  0  3  0  0  0  0  0  0
  -29.5290  -19.7390   20.5590 N   0  0  2  0  0  4  0  0  0  0  0  0
  -28.6670  -19.7280   21.0840 H   0  0  0  0  0  0  0  0  0  0  0  0
  -30.6220  -14.8040   20.0440 C   0  0  0  0  0  0  0  0  0  0  0  0
  -30.3940  -12.5760   18.8990 C   0  0  0  0  0  2  0  0  0  0  0  0
  -29.3670  -12.6890   17.7400 C   0  0  0  0  0  2  0  0  0  0  0  0
  -27.9220  -12.5150   18.2460 C   0  0  0  0  0  2  0  0  0  0  0  0
  -27.6330  -13.3460   19.5190 C   0  0  0  0  0  3  0  0  0  0  0  0
  -28.7510  -13.1720   20.5680 C   0  0  0  0  0  2  0  0  0  0  0  0
  -30.0240  -13.5620   19.9370 N   0  0  0  0  0  0  0  0  0  0  0  0
  -31.7370  -15.0120   19.5580 O   0  0  0  0  0  0  0  0  0  0  0  0
  -29.8170  -15.7890   20.5750 N   0  0  0  0  0  0  0  0  0  0  0  0
  -28.9680  -15.3480   20.8930 H   0  0  0  0  0  0  0  0  0  0  0  0
  -25.2840  -13.9320   20.3760 C   0  0  0  0  0  0  0  0  0  0  0  0
  -24.2390  -13.1570   20.7980 C   0  0  0  0  0  0  0  0  0  0  0  0
  -24.6970  -11.8060   20.7250 C   0  0  0  0  0  0  0  0  0  0  0  0
  -26.3140  -13.0540   20.0740 N   0  0  0  0  0  0  0  0  0  0  0  0
  -25.9680  -11.7710   20.3410 N   0  0  0  0  0  0  0  0  0  0  0  0
  -23.9850  -10.5390   20.9420 C   0  0  0  0  0  0  0  0  0  0  0  0
  -24.4420   -9.5800   21.8720 C   0  0  0  0  0  3  0  0  0  0  0  0
  -23.7270   -8.3790   22.0700 C   0  0  0  0  0  3  0  0  0  0  0  0
  -22.5390   -8.1300   21.3430 C   0  0  0  0  0  0  0  0  0  0  0  0
  -22.1010   -9.0800   20.4020 C   0  0  0  0  0  3  0  0  0  0  0  0
  -22.8170  -10.2720   20.1990 C   0  0  0  0  0  3  0  0  0  0  0  0
  -21.7890   -6.9830   21.4560 O   0  0  0  0  0  0  0  0  0  0  0  0
  -21.7280   -6.2760   22.6290 C   0  0  0  0  0  0  0  0  0  0  0  0
  -21.2600   -6.8550   23.8290 C   0  0  0  0  0  3  0  0  0  0  0  0
  -21.1560   -6.0750   24.9950 C   0  0  0  0  0  3  0  0  0  0  0  0
  -21.5050   -4.7100   24.9660 C   0  0  0  0  0  0  0  0  0  0  0  0
  -21.9610   -4.1280   23.7690 C   0  0  0  0  0  3  0  0  0  0  0  0
  -22.0730   -4.9080   22.6040 C   0  0  0  0  0  0  0  0  0  0  0  0
  -22.4950   -4.3360   21.4520 F   0  0  0  0  0  0  0  0  0  0  0  0
  -21.3950   -3.9560   26.0830 F   0  0  0  0  0  0  0  0  0  0  0  0
  -22.8610  -13.6340   21.1590 C   0  0  0  0  0  0  0  0  0  0  0  0
  -22.1810  -12.9240   22.0550 N   0  0  0  0  0  0  0  0  0  0  0  0
  -22.3970  -14.6650   20.6750 O   0  0  0  0  0  0  0  0  0  0  0  0
  -22.5700  -12.0850   22.4590 H   0  0  0  0  0  0  0  0  0  0  0  0
  -21.2630  -13.2280   22.3450 H   0  0  0  0  0  0  0  0  0  0  0  0
  -25.4460  -15.3040   20.2020 N   0  0  0  0  0  0  0  0  0  0  0  0
  -24.6830  -15.9610   20.3260 H   0  0  0  0  0  0  0  0  0  0  0  0
  -26.2770  -15.7340   19.8140 H   0  0  0  0  0  0  0  0  0  0  0  0
  -31.2780  -18.1490   24.4310 C   0  0  0  0  0  1  0  0  0  0  0  0
  -30.2900  -17.6600   23.3500 C   0  0  0  0  0  2  0  0  0  0  0  0
  -28.8920  -22.4120   20.5020 C   0  0  0  0  0  3  0  0  0  0  0  0
  -27.4990  -23.5630   18.6800 C   0  0  0  0  0  1  0  0  0  0  0  0
  -29.9250  -24.1790   18.9050 C   0  0  0  0  0  1  0  0  0  0  0  0
  -28.6450  -23.8060   19.6880 C   0  0  2  0  0  0  0  0  0  0  0  0
  -28.2220  -25.0840   20.5950 C   0  0  0  0  0  2  0  0  0  0  0  0
  -28.3420  -26.4950   20.1170 O   0  0  0  0  0  0  0  0  0  0  0  0
  -24.6380  -31.9560   23.1740 C   0  0  0  0  0  0  0  0  0  0  0  0
  -27.2180  -27.3420   20.1400 C   0  0  0  0  0  0  0  0  0  0  0  0
  -23.4220  -30.5330   21.5650 C   0  0  0  0  0  3  0  0  0  0  0  0
  -24.8550  -28.9660   20.1370 C   0  0  0  0  0  0  0  0  0  0  0  0
  -25.9600  -30.8450   21.3530 C   0  0  0  0  0  2  0  0  0  0  0  0
  -26.0330  -29.4610   20.7140 C   0  0  0  0  0  0  0  0  0  0  0  0
  -27.2170  -28.6600   20.6990 C   0  0  0  0  0  3  0  0  0  0  0  0
  -26.0170  -26.9030   19.5500 C   0  0  0  0  0  3  0  0  0  0  0  0
  -24.8480  -27.6910   19.5500 C   0  0  0  0  0  3  0  0  0  0  0  0
  -23.6220  -29.8470   20.1880 C   0  0  0  0  0  2  0  0  0  0  0  0
  -24.6930  -31.1340   22.0840 N   0  0  0  0  0  0  0  0  0  0  0  0
  -23.5610  -32.2370   23.7170 O   0  0  0  0  0  0  0  0  0  0  0  0
  -22.7760  -29.5260   22.5460 C   0  0  0  0  0  0  0  0  0  0  0  0
  -21.4510  -29.3380   22.4330 N   0  0  0  0  0  0  0  0  0  0  0  0
  -23.4660  -28.9160   23.3670 O   0  0  0  0  0  0  0  0  0  0  0  0
  -20.9560  -29.8840   21.7420 H   0  0  0  0  0  0  0  0  0  0  0  0
  -18.0810  -28.1280   22.9530 C   0  0  0  0  0  0  0  0  0  0  0  0
  -20.6430  -28.3970   23.2120 C   0  0  0  0  0  3  0  0  0  0  0  0
  -20.7450  -26.9660   22.6350 C   0  0  0  0  0  2  0  0  0  0  0  0
  -19.6470  -26.6600   21.6160 C   0  0  0  0  0  2  0  0  0  0  0  0
  -18.2610  -26.7870   22.2610 C   0  0  0  0  0  2  0  0  0  0  0  0
  -19.2000  -28.8950   23.3750 C   0  0  0  0  0  0  0  0  0  0  0  0
  -18.9740  -30.1590   23.9620 C   0  0  0  0  0  3  0  0  0  0  0  0
  -17.6660  -30.6530   24.1310 C   0  0  0  0  0  3  0  0  0  0  0  0
  -16.5650  -29.8810   23.7210 C   0  0  0  0  0  3  0  0  0  0  0  0
  -16.7730  -28.6160   23.1440 C   0  0  0  0  0  3  0  0  0  0  0  0
  -25.9250  -32.5990   23.7770 C   0  0  0  0  0  3  0  0  0  0  0  0
  -25.6040  -33.9910   24.1340 N   0  0  0  0  0  0  0  0  0  0  0  0
  -25.9040  -35.0590   23.3840 C   0  0  0  0  0  0  0  0  0  0  0  0
  -26.5500  -34.9800   22.3340 O   0  0  0  0  0  0  0  0  0  0  0  0
  -25.0300  -34.1270   24.9540 H   0  0  0  0  0  0  0  0  0  0  0  0
  -24.1510  -36.8360   23.0990 C   0  0  0  0  0  1  0  0  0  0  0  0
  -25.4150  -36.4330   23.8780 C   0  0  0  0  0  3  0  0  0  0  0  0
  -27.5550  -37.3280   24.6790 C   0  0  0  0  0  1  0  0  0  0  0  0
  -26.4350  -37.4990   23.7590 N   0  0  0  0  0  0  0  0  0  0  0  0
  -26.0220  -38.4150   23.9210 H   0  0  0  0  0  0  0  0  0  0  0  0
  -26.4820  -31.8230   25.0350 C   0  0  1  0  0  0  0  0  0  0  0  0
  -25.4160  -31.5520   26.1200 C   0  0  0  0  0  1  0  0  0  0  0  0
  -27.0820  -30.4600   24.6160 C   0  0  0  0  0  1  0  0  0  0  0  0
  -27.6390  -32.6240   25.6760 C   0  0  0  0  0  1  0  0  0  0  0  0
  1 48  2  0
  1  6  1  0
  2  4  1  0
  3  6  1  0
  3  5  1  0
  4 47  1  0
  5 16  1  0
  5  4  1  0
  6  7  1  1
  6  2  1  0
  8 16  1  0
  9 14  1  0
 10 11  1  0
 10  9  1  0
 12 11  1  0
 12 21  1  0
 12 13  1  0
 14  8  1  0
 14 13  1  0
 15  8  2  0
 16 17  1  0
 18 19  2  0
 19 38  1  0
 20 19  1  0
 20 23  1  0
 21 22  1  0
 21 18  1  0
 22 20  2  0
 23 24  1  0
 24 25  2  0
 26 29  1  0
 26 25  1  0
 27 26  2  0
 28 27  1  0
 28 23  2  0
 29 30  1  0
 30 31  1  0
 31 32  2  0
 33 32  1  0
 33 37  1  0
 34 33  2  0
 35 30  2  0
 35 34  1  0
 36 35  1  0
 38 39  1  0
 39 42  1  0
 39 41  1  0
 40 38  2  0
 43 44  1  0
 43 18  1  0
 45 43  1  0
 47 46  1  0
 51 49  1  6
 50 51  1  0
 51 48  1  0
 51 52  1  0
 53 55  1  0
 53 52  1  0
 54 65  2  0
 55 60  1  0
 56 64  1  0
 56 66  1  0
 57 63  1  0
 57 59  1  0
 58 64  1  0
 59 58  1  0
 60 59  2  0
 61 62  1  0
 61 55  2  0
 62 57  2  0
 63 56  1  0
 64 54  1  0
 66 68  2  0
 67 66  1  0
 69 67  1  0
 70 79  2  0
 70 75  1  0
 71 67  1  0
 71 75  1  0
 72 71  1  0
 73 74  1  0
 73 72  1  0
 74 70  1  0
 75 76  2  0
 76 77  1  0
 78 77  2  0
 79 78  1  0
 80 54  1  0
 80 81  1  0
 80 90  1  0
 81 84  1  0
 82 86  1  0
 82 81  1  0
 83 82  2  0
 86 85  1  0
 88 86  1  0
 88 89  1  0
 88 87  1  0
 90 93  1  1
 90 91  1  0
 92 90  1  0
M  ISO  4   8 100  16 100  52 101  53 101
M  END
>  <TORSDO>  (78) 
F 21

>  <SCORE>  (78) 
-11.275

>  <name>  (78) 
77

>  <ligand_id>  (78) 
77

>  <original_smiles>  (78) 
[H]c1c([H])c([H])c2c(c1[H])C([H])([H])C([H])([H])C([H])([H])C2([H])N([H])C(=O)C1([H])N(C(=O)C([H])(N([H])C(=O)C([H])(N([H])C([H])([H])[H])C([H])([H])[H])C(C([H])([H])[H])(C([H])([H])[H])C([H])([H])[H])C([H])([H])c2c([H])c(OC([H])([H])C(C([H])([H])[H])(C([H])([H])[H])C([H])([H])C([H])([H])[N+]3([H])C([H])([H])C([H])(N([H])C(=O)N4C([H])([H])C([H])([H])C([H])([H])C([H])(n5nc(-c6c([H])c([H])c(Oc7c([H])c([H])c(F)c([H])c7F)c([H])c6[H])c(C(=O)N([H])[H])c5N([H])[H])C4([H])[H])C([H])(C([H])([H])C([H])([H])[H])C3([H])[H])c([H])c([H])c2C1([H])[H]

>  <smiles>  (78) 
[H]c1c([H])c([H])c2c(c1[H])C([H])([H])C([H])([H])C([H])([H])C2([H])N([H])C(=O)C1([H])N(C(=O)C([H])(N([H])C(=O)C([H])(N([H])C([H])([H])[H])C([H])([H])[H])C(C([H])([H])[H])(C([H])([H])[H])C([H])([H])[H])C([H])([H])c2c([H])c(OC([H])([H])C(C([H])([H])[H])(C([H])([H])[H])C([H])([H])C([H])([H])[N+]3([H])C([H])([H])C([H])(N([H])C(=O)N4C([H])([H])C([H])([H])C([H])([H])C([H])(n5nc(-c6c([H])c([H])c(Oc7c([H])c([H])c(F)c([H])c7F)c([H])c6[H])c(C(=O)N([H])[H])c5N([H])[H])C4([H])[H])C([H])(C([H])([H])C([H])([H])[H])C3([H])[H])c([H])c([H])c2C1([H])[H]

$$$$
78:0:0
     RDKit          3D

 97105  0  0  1  0  0  0  0  0999 V2000
  -26.9430  -19.8190   20.5960 C   0  0  0  0  0  2  0  0  0  0  0  0
  -28.4760  -17.8740   20.2250 C   0  0  0  0  0  2  0  0  0  0  0  0
  -27.0120  -18.3470   20.1530 C   0  0  0  0  0  3  0  0  0  0  0  0
  -27.9000  -20.7260   19.7840 C   0  0  0  0  0  3  0  0  0  0  0  0
  -29.4070  -18.7730   19.3720 C   0  0  0  0  0  3  0  0  0  0  0  0
  -29.2920  -20.1920   19.8170 N   0  0  0  0  0  4  0  0  0  0  0  0
  -29.6660  -20.2840   20.7500 H   0  0  0  0  0  0  0  0  0  0  0  0
  -29.8650  -20.7640   19.2150 H   0  0  0  0  0  0  0  0  0  0  0  0
  -26.1170  -17.4890   20.9580 N   0  0  0  0  0  4  0  0  0  0  0  0
  -26.3490  -17.5190   21.9360 H   0  0  0  0  0  0  0  0  0  0  0  0
  -26.1730  -16.5330   20.6520 H   0  0  0  0  0  0  0  0  0  0  0  0
  -25.1590  -17.7800   20.8560 H   0  0  0  0  0  0  0  0  0  0  0  0
  -27.8090  -22.1810   20.3120 C   0  0  0  0  0  2  0  0  0  0  0  0
  -28.4770  -23.2580   19.4350 C   0  0  0  0  0  2  0  0  0  0  0  0
  -28.3020  -24.6690   20.0360 C   0  0  0  0  0  2  0  0  0  0  0  0
  -28.9310  -25.7950   19.1880 C   0  0  0  0  0  2  0  0  0  0  0  0
  -28.8010  -27.0690   19.8280 O   0  0  0  0  0  0  0  0  0  0  0  0
  -24.7570  -31.7930   23.2540 C   0  0  0  0  0  0  0  0  0  0  0  0
  -27.5710  -27.6980   19.8650 C   0  0  0  0  0  0  0  0  0  0  0  0
  -23.6010  -30.4600   21.5220 C   0  0  0  0  0  3  0  0  0  0  0  0
  -25.1090  -29.0870   19.9930 C   0  0  0  0  0  0  0  0  0  0  0  0
  -26.1080  -30.9390   21.3430 C   0  0  0  0  0  2  0  0  0  0  0  0
  -26.2460  -29.6210   20.6090 C   0  0  0  0  0  0  0  0  0  0  0  0
  -27.4770  -28.9340   20.5420 C   0  0  0  0  0  3  0  0  0  0  0  0
  -26.4090  -27.1710   19.2520 C   0  0  0  0  0  3  0  0  0  0  0  0
  -25.1840  -27.8590   19.3150 C   0  0  0  0  0  3  0  0  0  0  0  0
  -23.8310  -29.8880   20.0980 C   0  0  0  0  0  2  0  0  0  0  0  0
  -24.8400  -31.0750   22.0990 N   0  0  0  0  0  0  0  0  0  0  0  0
  -23.6690  -31.9820   23.8140 O   0  0  0  0  0  0  0  0  0  0  0  0
  -22.9980  -29.3480   22.4090 C   0  0  0  0  0  0  0  0  0  0  0  0
  -21.6940  -29.0830   22.2330 N   0  0  0  0  0  0  0  0  0  0  0  0
  -23.7020  -28.7280   23.2100 O   0  0  0  0  0  0  0  0  0  0  0  0
  -21.1840  -29.6410   21.5620 H   0  0  0  0  0  0  0  0  0  0  0  0
  -18.4080  -27.6150   22.5350 C   0  0  0  0  0  0  0  0  0  0  0  0
  -20.9230  -28.0550   22.9300 C   0  0  0  0  0  3  0  0  0  0  0  0
  -21.1630  -26.6610   22.3050 C   0  0  0  0  0  2  0  0  0  0  0  0
  -20.1320  -26.2970   21.2320 C   0  0  0  0  0  2  0  0  0  0  0  0
  -18.7180  -26.3120   21.8180 C   0  0  0  0  0  2  0  0  0  0  0  0
  -19.4450  -28.4410   23.0440 C   0  0  0  0  0  0  0  0  0  0  0  0
  -19.1050  -29.6600   23.6710 C   0  0  0  0  0  3  0  0  0  0  0  0
  -17.7600  -30.0530   23.7970 C   0  0  0  0  0  3  0  0  0  0  0  0
  -16.7360  -29.2250   23.3060 C   0  0  0  0  0  3  0  0  0  0  0  0
  -17.0610  -28.0080   22.6800 C   0  0  0  0  0  3  0  0  0  0  0  0
  -26.0200  -32.4310   23.9130 C   0  0  0  0  0  3  0  0  0  0  0  0
  -26.4830  -31.6840   25.2240 C   0  0  1  0  0  0  0  0  0  0  0  0
  -25.3440  -31.4520   26.2440 C   0  0  0  0  0  1  0  0  0  0  0  0
  -27.0960  -30.3080   24.8790 C   0  0  0  0  0  1  0  0  0  0  0  0
  -27.5940  -32.4990   25.9270 C   0  0  0  0  0  1  0  0  0  0  0  0
  -25.7040  -33.8370   24.2010 N   0  0  0  0  0  0  0  0  0  0  0  0
  -26.0780  -34.8720   23.4350 C   0  0  0  0  0  0  0  0  0  0  0  0
  -26.7950  -34.7440   22.4380 O   0  0  0  0  0  0  0  0  0  0  0  0
  -25.0760  -34.0110   24.9700 H   0  0  0  0  0  0  0  0  0  0  0  0
  -24.3920  -36.6720   22.9430 C   0  0  0  0  0  1  0  0  0  0  0  0
  -25.5750  -36.2710   23.8380 C   0  0  0  0  0  3  0  0  0  0  0  0
  -27.6560  -37.1570   24.7950 C   0  0  0  0  0  1  0  0  0  0  0  0
  -26.6230  -37.3130   23.7750 N   0  0  0  0  0  0  0  0  0  0  0  0
  -26.2170  -38.2390   23.8740 H   0  0  0  0  0  0  0  0  0  0  0  0
  -30.8780  -18.2650   19.3920 C   0  0  0  0  0  2  0  0  0  0  0  0
  -31.0010  -16.7210   19.4280 C   0  0  0  0  0  2  0  0  0  0  0  0
  -32.7850  -15.0900   19.9520 C   0  0  0  0  0  0  0  0  0  0  0  0
  -32.6520  -12.6240   19.9040 C   0  0  0  0  0  2  0  0  0  0  0  0
  -31.8540  -12.1440   18.6760 C   0  0  0  0  0  2  0  0  0  0  0  0
  -30.3420  -12.1120   18.9810 C   0  0  0  0  0  2  0  0  0  0  0  0
  -29.8400  -13.4280   19.6330 C   0  0  0  0  0  3  0  0  0  0  0  0
  -30.7580  -13.8330   20.8090 C   0  0  0  0  0  2  0  0  0  0  0  0
  -32.1320  -13.9440   20.2930 N   0  0  0  0  0  0  0  0  0  0  0  0
  -33.9260  -15.0990   19.4890 O   0  0  0  0  0  0  0  0  0  0  0  0
  -32.1650  -16.2570   20.1920 N   0  0  0  0  0  0  0  0  0  0  0  0
  -32.8390  -16.9950   20.3370 H   0  0  0  0  0  0  0  0  0  0  0  0
  -27.4820  -14.3180   20.1550 C   0  0  0  0  0  0  0  0  0  0  0  0
  -26.3250  -13.6810   20.5100 C   0  0  0  0  0  0  0  0  0  0  0  0
  -26.6460  -12.2910   20.5830 C   0  0  0  0  0  0  0  0  0  0  0  0
  -28.4430  -13.3240   20.0430 N   0  0  0  0  0  0  0  0  0  0  0  0
  -27.9390  -12.1040   20.3540 N   0  0  0  0  0  0  0  0  0  0  0  0
  -25.7870  -11.1200   20.7990 C   0  0  0  0  0  0  0  0  0  0  0  0
  -25.9040  -10.3230   21.9610 C   0  0  0  0  0  3  0  0  0  0  0  0
  -25.0550   -9.2120   22.1550 C   0  0  0  0  0  3  0  0  0  0  0  0
  -24.0760   -8.8910   21.1840 C   0  0  0  0  0  0  0  0  0  0  0  0
  -23.9800   -9.6720   20.0200 C   0  0  0  0  0  3  0  0  0  0  0  0
  -24.8290  -10.7750   19.8260 C   0  0  0  0  0  3  0  0  0  0  0  0
  -23.2250   -7.8160   21.2770 O   0  0  0  0  0  0  0  0  0  0  0  0
  -22.6510   -7.4530   22.4700 C   0  0  0  0  0  0  0  0  0  0  0  0
  -21.8070   -8.3280   23.1880 C   0  0  0  0  0  3  0  0  0  0  0  0
  -21.1840   -7.8900   24.3730 C   0  0  0  0  0  3  0  0  0  0  0  0
  -21.3940   -6.5770   24.8350 C   0  0  0  0  0  0  0  0  0  0  0  0
  -22.2270   -5.7020   24.1180 C   0  0  0  0  0  3  0  0  0  0  0  0
  -22.8520   -6.1380   22.9370 C   0  0  0  0  0  0  0  0  0  0  0  0
  -23.6380   -5.2840   22.2380 F   0  0  0  0  0  0  0  0  0  0  0  0
  -20.7880   -6.1530   25.9700 F   0  0  0  0  0  0  0  0  0  0  0  0
  -24.9710  -14.3090   20.6710 C   0  0  0  0  0  0  0  0  0  0  0  0
  -24.1430  -13.7660   21.5570 N   0  0  0  0  0  0  0  0  0  0  0  0
  -24.6590  -15.3220   20.0450 O   0  0  0  0  0  0  0  0  0  0  0  0
  -24.4060  -12.9470   22.0850 H   0  0  0  0  0  0  0  0  0  0  0  0
  -23.2300  -14.1720   21.7040 H   0  0  0  0  0  0  0  0  0  0  0  0
  -27.7880  -15.6510   19.8910 N   0  0  0  0  0  0  0  0  0  0  0  0
  -27.0050  -16.2580   19.6820 H   0  0  0  0  0  0  0  0  0  0  0  0
  -28.5980  -15.8600   19.3220 H   0  0  0  0  0  0  0  0  0  0  0  0
  3  2  1  0
  3  1  1  0
  3  9  1  0
  4  6  1  0
  4 13  1  0
  4  1  1  0
  5 58  1  0
  5  6  1  0
  5  2  1  0
  6  7  1  0
  8  6  1  0
  9 10  1  0
 11  9  1  0
 12  9  1  0
 14 15  1  0
 14 13  1  0
 16 17  1  0
 16 15  1  0
 17 19  1  0
 18 29  2  0
 19 24  1  0
 20 28  1  0
 20 30  1  0
 21 27  1  0
 21 23  1  0
 22 28  1  0
 23 22  1  0
 24 23  2  0
 25 26  1  0
 25 19  2  0
 26 21  2  0
 27 20  1  0
 28 18  1  0
 30 32  2  0
 31 30  1  0
 33 31  1  0
 34 43  2  0
 34 39  1  0
 35 31  1  0
 35 39  1  0
 36 35  1  0
 37 38  1  0
 37 36  1  0
 38 34  1  0
 39 40  2  0
 40 41  1  0
 42 41  2  0
 43 42  1  0
 44 18  1  0
 44 49  1  0
 44 45  1  0
 45 48  1  1
 45 46  1  0
 47 45  1  0
 49 52  1  0
 50 54  1  0
 50 49  1  0
 51 50  2  0
 54 53  1  0
 56 54  1  0
 56 57  1  0
 56 55  1  0
 58 59  1  0
 59 68  1  0
 60 68  1  0
 60 66  1  0
 61 66  1  0
 62 63  1  0
 62 61  1  0
 64 63  1  0
 64 73  1  0
 64 65  1  0
 66 65  1  0
 67 60  2  0
 68 69  1  0
 70 71  2  0
 71 72  1  0
 71 90  1  0
 72 75  1  0
 73 70  1  0
 73 74  1  0
 74 72  2  0
 75 76  1  0
 76 77  2  0
 78 81  1  0
 78 77  1  0
 79 78  2  0
 80 79  1  0
 80 75  2  0
 81 82  1  0
 82 87  2  0
 82 83  1  0
 83 84  2  0
 84 85  1  0
 85 89  1  0
 86 85  2  0
 87 86  1  0
 88 87  1  0
 90 91  1  0
 91 94  1  0
 91 93  1  0
 92 90  2  0
 95 70  1  0
 96 95  1  0
 97 95  1  0
M  ISO  4  16 101  17 101  60 100  68 100
M  END
>  <TORSDO>  (79) 
F 23

>  <SCORE>  (79) 
-7.941

>  <name>  (79) 
78

>  <ligand_id>  (79) 
78

>  <original_smiles>  (79) 
[H]c1c([H])c([H])c2c(c1[H])C([H])([H])C([H])([H])C([H])([H])C2([H])N([H])C(=O)C1([H])N(C(=O)C([H])(N([H])C(=O)C([H])(N([H])C([H])([H])[H])C([H])([H])[H])C(C([H])([H])[H])(C([H])([H])[H])C([H])([H])[H])C([H])([H])c2c([H])c(OC([H])([H])C([H])([H])C([H])([H])C([H])([H])C3([H])C([H])([H])C([H])([N+]([H])([H])[H])C([H])([H])C([H])(C([H])([H])C([H])([H])N([H])C(=O)N4C([H])([H])C([H])([H])C([H])([H])C([H])(n5nc(-c6c([H])c([H])c(Oc7c([H])c([H])c(F)c([H])c7F)c([H])c6[H])c(C(=O)N([H])[H])c5N([H])[H])C4([H])[H])[N+]3([H])[H])c([H])c([H])c2C1([H])[H]

>  <smiles>  (79) 
[H]c1c([H])c([H])c2c(c1[H])C([H])([H])C([H])([H])C([H])([H])C2([H])N([H])C(=O)C1([H])N(C(=O)C([H])(N([H])C(=O)C([H])(N([H])C([H])([H])[H])C([H])([H])[H])C(C([H])([H])[H])(C([H])([H])[H])C([H])([H])[H])C([H])([H])c2c([H])c(OC([H])([H])C([H])([H])C([H])([H])C([H])([H])C3([H])C([H])([H])C([H])([N+]([H])([H])[H])C([H])([H])C([H])(C([H])([H])C([H])([H])N([H])C(=O)N4C([H])([H])C([H])([H])C([H])([H])C([H])(n5nc(-c6c([H])c([H])c(Oc7c([H])c([H])c(F)c([H])c7F)c([H])c6[H])c(C(=O)N([H])[H])c5N([H])[H])C4([H])[H])[N+]3([H])[H])c([H])c([H])c2C1([H])[H]

$$$$
79:0:0
     RDKit          3D

 96104  0  0  1  0  0  0  0  0999 V2000
  -28.7530  -20.8290   18.6920 C   0  0  0  0  0  0  0  0  0  0  0  0
  -27.8210  -21.8010   18.8320 N   0  0  0  0  0  0  0  0  0  0  0  0
  -29.9140  -21.0930   18.3780 O   0  0  0  0  0  0  0  0  0  0  0  0
  -26.8890  -21.5120   19.1040 H   0  0  0  0  0  0  0  0  0  0  0  0
  -28.3290  -19.3450   18.8520 C   0  0  0  0  0  2  0  0  0  0  0  0
  -30.4120  -14.9620   19.8760 C   0  0  0  0  0  0  0  0  0  0  0  0
  -30.2300  -12.6470   19.0120 C   0  0  0  0  0  2  0  0  0  0  0  0
  -29.2800  -12.6230   17.7980 C   0  0  0  0  0  2  0  0  0  0  0  0
  -27.8150  -12.4700   18.2500 C   0  0  0  0  0  2  0  0  0  0  0  0
  -27.4320  -13.4560   19.3870 C   0  0  0  0  0  3  0  0  0  0  0  0
  -28.4930  -13.4460   20.5080 C   0  0  0  0  0  2  0  0  0  0  0  0
  -29.7970  -13.7450   19.8950 N   0  0  0  0  0  0  0  0  0  0  0  0
  -31.5130  -15.1440   19.3470 O   0  0  0  0  0  0  0  0  0  0  0  0
  -29.8180  -18.8940   20.8870 C   0  0  0  0  0  2  0  0  0  0  0  0
  -28.8470  -16.9010   19.6300 C   0  0  0  0  0  2  0  0  0  0  0  0
  -30.0970  -16.5350   21.7330 C   0  0  0  0  0  2  0  0  0  0  0  0
  -29.3720  -18.3710   19.5080 C   0  0  0  0  0  3  0  0  0  0  0  0
  -30.7680  -17.9250   21.6130 C   0  0  0  0  0  3  0  0  0  0  0  0
  -29.7180  -15.9960   20.4220 N   0  0  0  0  0  0  0  0  0  0  0  0
  -25.0600  -14.0740   20.1680 C   0  0  0  0  0  0  0  0  0  0  0  0
  -24.0000  -13.3060   20.5690 C   0  0  0  0  0  0  0  0  0  0  0  0
  -24.4550  -11.9530   20.5270 C   0  0  0  0  0  0  0  0  0  0  0  0
  -26.0940  -13.1880   19.9060 N   0  0  0  0  0  0  0  0  0  0  0  0
  -25.7350  -11.9070   20.1800 N   0  0  0  0  0  0  0  0  0  0  0  0
  -23.7300  -10.6940   20.7410 C   0  0  0  0  0  0  0  0  0  0  0  0
  -24.1730   -9.7370   21.6810 C   0  0  0  0  0  3  0  0  0  0  0  0
  -23.4490   -8.5420   21.8800 C   0  0  0  0  0  3  0  0  0  0  0  0
  -22.2680   -8.2960   21.1410 C   0  0  0  0  0  0  0  0  0  0  0  0
  -21.8440   -9.2420   20.1900 C   0  0  0  0  0  3  0  0  0  0  0  0
  -22.5680  -10.4280   19.9890 C   0  0  0  0  0  3  0  0  0  0  0  0
  -21.5140   -7.1530   21.2500 O   0  0  0  0  0  0  0  0  0  0  0  0
  -21.5670   -6.3590   22.3680 C   0  0  0  0  0  0  0  0  0  0  0  0
  -21.1890   -6.8410   23.6410 C   0  0  0  0  0  3  0  0  0  0  0  0
  -21.1910   -5.9710   24.7510 C   0  0  0  0  0  3  0  0  0  0  0  0
  -21.5620   -4.6230   24.5890 C   0  0  0  0  0  0  0  0  0  0  0  0
  -21.9340   -4.1410   23.3220 C   0  0  0  0  0  3  0  0  0  0  0  0
  -21.9330   -5.0070   22.2130 C   0  0  0  0  0  0  0  0  0  0  0  0
  -22.2720   -4.5330   20.9900 F   0  0  0  0  0  0  0  0  0  0  0  0
  -21.5570   -3.7860   25.6530 F   0  0  0  0  0  0  0  0  0  0  0  0
  -22.6140  -13.7910   20.8810 C   0  0  0  0  0  0  0  0  0  0  0  0
  -21.9320  -13.1430   21.8190 N   0  0  0  0  0  0  0  0  0  0  0  0
  -22.1440  -14.7830   20.3250 O   0  0  0  0  0  0  0  0  0  0  0  0
  -22.3240  -12.3440   22.2940 H   0  0  0  0  0  0  0  0  0  0  0  0
  -21.0020  -13.4520   22.0670 H   0  0  0  0  0  0  0  0  0  0  0  0
  -25.2230  -15.4440   19.9840 N   0  0  0  0  0  0  0  0  0  0  0  0
  -24.4600  -16.0990   20.1140 H   0  0  0  0  0  0  0  0  0  0  0  0
  -26.0650  -15.8810   19.6300 H   0  0  0  0  0  0  0  0  0  0  0  0
  -31.1700  -18.5120   22.9880 C   0  0  0  0  0  2  0  0  0  0  0  0
  -30.9880  -17.5650   24.1010 N   0  0  0  0  0  4  0  0  0  0  0  0
  -30.0200  -17.3340   24.2330 H   0  0  0  0  0  0  0  0  0  0  0  0
  -31.3230  -17.9810   24.9510 H   0  0  0  0  0  0  0  0  0  0  0  0
  -31.5080  -16.7200   23.9430 H   0  0  0  0  0  0  0  0  0  0  0  0
  -27.9920  -23.2100   18.3990 C   0  0  0  0  0  2  0  0  0  0  0  0
  -27.3120  -24.2990   19.2890 C   0  0  0  0  0  2  0  0  0  0  0  0
  -27.5310  -25.7430   18.7380 C   0  0  0  0  0  2  0  0  0  0  0  0
  -27.4120  -26.8220   19.6920 O   0  0  0  0  0  0  0  0  0  0  0  0
  -24.0720  -31.9390   23.3690 C   0  0  0  0  0  0  0  0  0  0  0  0
  -26.2450  -27.5580   19.8250 C   0  0  0  0  0  0  0  0  0  0  0  0
  -22.6600  -30.6420   21.8090 C   0  0  0  0  0  3  0  0  0  0  0  0
  -23.9070  -29.1340   20.1690 C   0  0  0  0  0  0  0  0  0  0  0  0
  -25.1600  -30.9410   21.3570 C   0  0  0  0  0  2  0  0  0  0  0  0
  -25.1360  -29.5970   20.6530 C   0  0  0  0  0  0  0  0  0  0  0  0
  -26.3030  -28.8140   20.4820 C   0  0  0  0  0  3  0  0  0  0  0  0
  -24.9910  -27.1100   19.3500 C   0  0  0  0  0  3  0  0  0  0  0  0
  -23.8300  -27.8890   19.5200 C   0  0  0  0  0  3  0  0  0  0  0  0
  -22.7020  -30.0220   20.3870 C   0  0  0  0  0  2  0  0  0  0  0  0
  -23.9890  -31.1870   22.2350 N   0  0  0  0  0  0  0  0  0  0  0  0
  -23.0620  -32.2120   24.0340 O   0  0  0  0  0  0  0  0  0  0  0  0
  -22.0850  -29.5940   22.7890 C   0  0  0  0  0  0  0  0  0  0  0  0
  -20.7860  -29.2880   22.6450 N   0  0  0  0  0  0  0  0  0  0  0  0
  -22.8060  -29.0590   23.6350 O   0  0  0  0  0  0  0  0  0  0  0  0
  -20.2620  -29.7760   21.9310 H   0  0  0  0  0  0  0  0  0  0  0  0
  -17.5790  -27.6570   22.9860 C   0  0  0  0  0  0  0  0  0  0  0  0
  -20.0440  -28.3010   23.4280 C   0  0  0  0  0  3  0  0  0  0  0  0
  -20.3930  -26.8620   22.9840 C   0  0  0  0  0  2  0  0  0  0  0  0
  -19.4380  -26.3090   21.9210 C   0  0  0  0  0  2  0  0  0  0  0  0
  -17.9980  -26.3010   22.4440 C   0  0  0  0  0  2  0  0  0  0  0  0
  -18.5400  -28.6010   23.4330 C   0  0  0  0  0  0  0  0  0  0  0  0
  -18.0990  -29.8610   23.8950 C   0  0  0  0  0  3  0  0  0  0  0  0
  -16.7280  -30.1790   23.9180 C   0  0  0  0  0  3  0  0  0  0  0  0
  -15.7800  -29.2340   23.4880 C   0  0  0  0  0  3  0  0  0  0  0  0
  -16.2050  -27.9760   23.0280 C   0  0  0  0  0  3  0  0  0  0  0  0
  -25.4320  -32.5120   23.8750 C   0  0  0  0  0  3  0  0  0  0  0  0
  -25.2420  -33.9450   24.1340 N   0  0  0  0  0  0  0  0  0  0  0  0
  -25.5990  -34.9240   23.2930 C   0  0  0  0  0  0  0  0  0  0  0  0
  -26.1970  -34.7130   22.2340 O   0  0  0  0  0  0  0  0  0  0  0  0
  -24.7110  -34.1890   24.9570 H   0  0  0  0  0  0  0  0  0  0  0  0
  -24.0030  -36.8260   22.8950 C   0  0  0  0  0  1  0  0  0  0  0  0
  -25.2360  -36.3690   23.6900 C   0  0  0  0  0  3  0  0  0  0  0  0
  -27.4400  -37.1510   24.4350 C   0  0  0  0  0  1  0  0  0  0  0  0
  -26.3430  -37.3300   23.4890 N   0  0  0  0  0  0  0  0  0  0  0  0
  -26.0080  -38.2870   23.5680 H   0  0  0  0  0  0  0  0  0  0  0  0
  -25.9750  -31.7800   25.1640 C   0  0  1  0  0  0  0  0  0  0  0  0
  -24.9170  -31.6200   26.2790 C   0  0  0  0  0  1  0  0  0  0  0  0
  -26.5040  -30.3710   24.8080 C   0  0  0  0  0  1  0  0  0  0  0  0
  -27.1730  -32.5670   25.7480 C   0  0  0  0  0  1  0  0  0  0  0  0
  1  2  1  0
  1  5  1  0
  2  4  1  0
  3  1  2  0
  6 12  1  0
  6 19  1  0
  7 12  1  0
  8  9  1  0
  8  7  1  0
 10  9  1  0
 10 23  1  0
 10 11  1  0
 12 11  1  0
 13  6  2  0
 14 18  1  0
 15 19  1  0
 17  5  1  0
 17 15  1  0
 17 14  1  0
 18 16  1  0
 18 48  1  0
 19 16  1  0
 20 21  2  0
 21 40  1  0
 22 21  1  0
 22 25  1  0
 23 20  1  0
 23 24  1  0
 24 22  2  0
 25 26  1  0
 26 27  2  0
 28 31  1  0
 28 27  1  0
 29 28  2  0
 30 29  1  0
 30 25  2  0
 31 32  1  0
 32 33  1  0
 33 34  2  0
 35 34  1  0
 35 39  1  0
 36 35  2  0
 37 32  2  0
 37 36  1  0
 38 37  1  0
 40 41  1  0
 41 44  1  0
 41 43  1  0
 42 40  2  0
 45 46  1  0
 45 20  1  0
 47 45  1  0
 48 49  1  0
 49 50  1  0
 49 51  1  0
 52 49  1  0
 53  2  1  0
 53 54  1  0
 55 54  1  0
 55 56  1  0
 56 58  1  0
 57 68  2  0
 58 63  1  0
 59 67  1  0
 59 69  1  0
 60 66  1  0
 60 62  1  0
 61 67  1  0
 62 61  1  0
 63 62  2  0
 64 65  1  0
 64 58  2  0
 65 60  2  0
 66 59  1  0
 67 57  1  0
 69 71  2  0
 70 69  1  0
 72 70  1  0
 73 82  2  0
 73 78  1  0
 74 70  1  0
 74 78  1  0
 75 74  1  0
 76 77  1  0
 76 75  1  0
 77 73  1  0
 78 79  2  0
 79 80  1  0
 81 80  2  0
 82 81  1  0
 83 57  1  0
 83 84  1  0
 83 93  1  0
 84 87  1  0
 85 89  1  0
 85 84  1  0
 86 85  2  0
 89 88  1  0
 91 92  1  0
 91 89  1  0
 91 90  1  0
 93 96  1  1
 93 94  1  0
 95 93  1  0
M  ISO  4   6 100  19 100  55 101  56 101
M  END
>  <TORSDO>  (80) 
F 22

>  <SCORE>  (80) 
-10.713

>  <name>  (80) 
79

>  <ligand_id>  (80) 
79

>  <original_smiles>  (80) 
[H]c1c([H])c([H])c2c(c1[H])C([H])([H])C([H])([H])C([H])([H])C2([H])N([H])C(=O)C1([H])N(C(=O)C([H])(N([H])C(=O)C([H])(N([H])C([H])([H])[H])C([H])([H])[H])C(C([H])([H])[H])(C([H])([H])[H])C([H])([H])[H])C([H])([H])c2c([H])c(OC([H])([H])C([H])([H])C([H])([H])N([H])C(=O)C([H])([H])C3([H])C([H])([H])N(C(=O)N4C([H])([H])C([H])([H])C([H])([H])C([H])(n5nc(-c6c([H])c([H])c(Oc7c([H])c([H])c(F)c([H])c7F)c([H])c6[H])c(C(=O)N([H])[H])c5N([H])[H])C4([H])[H])C([H])([H])C([H])(C([H])([H])[N+]([H])([H])[H])C3([H])[H])c([H])c([H])c2C1([H])[H]

>  <smiles>  (80) 
[H]c1c([H])c([H])c2c(c1[H])C([H])([H])C([H])([H])C([H])([H])C2([H])N([H])C(=O)C1([H])N(C(=O)C([H])(N([H])C(=O)C([H])(N([H])C([H])([H])[H])C([H])([H])[H])C(C([H])([H])[H])(C([H])([H])[H])C([H])([H])[H])C([H])([H])c2c([H])c(OC([H])([H])C([H])([H])C([H])([H])N([H])C(=O)C([H])([H])C3([H])C([H])([H])N(C(=O)N4C([H])([H])C([H])([H])C([H])([H])C([H])(n5nc(-c6c([H])c([H])c(Oc7c([H])c([H])c(F)c([H])c7F)c([H])c6[H])c(C(=O)N([H])[H])c5N([H])[H])C4([H])[H])C([H])([H])C([H])(C([H])([H])[N+]([H])([H])[H])C3([H])[H])c([H])c([H])c2C1([H])[H]

$$$$
80:0:0
     RDKit          3D

 94102  0  0  1  0  0  0  0  0999 V2000
  -29.8240  -19.9130   20.5270 C   0  0  0  0  0  3  0  0  0  0  0  0
  -33.1330  -20.6800   18.7300 C   0  0  0  0  0  3  0  0  0  0  0  0
  -32.1860  -20.4400   19.7470 C   0  0  0  0  0  3  0  0  0  0  0  0
  -32.7460  -20.6160   17.3780 C   0  0  0  0  0  3  0  0  0  0  0  0
  -30.4660  -20.0760   18.0560 C   0  0  0  0  0  3  0  0  0  0  0  0
  -30.8460  -20.1390   19.4160 C   0  0  0  0  0  0  0  0  0  0  0  0
  -31.4130  -20.3130   17.0410 C   0  0  0  0  0  0  0  0  0  0  0  0
  -31.0420  -20.2530   15.7400 F   0  0  0  0  0  0  0  0  0  0  0  0
  -29.3370  -18.3930   20.5500 C   0  0  0  0  0  0  0  0  0  0  0  0
  -28.1340  -18.1160   20.5250 O   0  0  0  0  0  0  0  0  0  0  0  0
  -30.3950  -17.2190   20.6220 C   0  0  0  0  0  2  0  0  0  0  0  0
  -30.6120  -14.6700   20.3790 C   0  0  0  0  0  0  0  0  0  0  0  0
  -30.3670  -12.4350   19.3160 C   0  0  0  0  0  2  0  0  0  0  0  0
  -29.4200  -12.5460   18.1030 C   0  0  0  0  0  2  0  0  0  0  0  0
  -27.9520  -12.3850   18.5410 C   0  0  0  0  0  2  0  0  0  0  0  0
  -27.5960  -13.2580   19.7740 C   0  0  0  0  0  3  0  0  0  0  0  0
  -28.6590  -13.1340   20.8870 C   0  0  0  0  0  2  0  0  0  0  0  0
  -29.9590  -13.4680   20.2910 N   0  0  0  0  0  0  0  0  0  0  0  0
  -31.7880  -14.7750   20.0240 O   0  0  0  0  0  0  0  0  0  0  0  0
  -29.8830  -15.7940   20.6650 N   0  0  0  0  0  0  0  0  0  0  0  0
  -28.9030  -15.6780   20.8800 H   0  0  0  0  0  0  0  0  0  0  0  0
  -25.2070  -13.8470   20.5040 C   0  0  0  0  0  0  0  0  0  0  0  0
  -24.1440  -13.0690   20.8780 C   0  0  0  0  0  0  0  0  0  0  0  0
  -24.6120  -11.7190   20.8510 C   0  0  0  0  0  0  0  0  0  0  0  0
  -26.2520  -12.9690   20.2680 N   0  0  0  0  0  0  0  0  0  0  0  0
  -25.9030  -11.6870   20.5410 N   0  0  0  0  0  0  0  0  0  0  0  0
  -23.8920  -10.4560   21.0450 C   0  0  0  0  0  0  0  0  0  0  0  0
  -24.3380   -9.4850   21.9700 C   0  0  0  0  0  3  0  0  0  0  0  0
  -23.6170   -8.2850   22.1520 C   0  0  0  0  0  3  0  0  0  0  0  0
  -22.4370   -8.0470   21.4110 C   0  0  0  0  0  0  0  0  0  0  0  0
  -22.0090   -9.0050   20.4750 C   0  0  0  0  0  3  0  0  0  0  0  0
  -22.7300  -10.1970   20.2900 C   0  0  0  0  0  3  0  0  0  0  0  0
  -21.6860   -6.9000   21.5030 O   0  0  0  0  0  0  0  0  0  0  0  0
  -21.6630   -6.1450   22.6480 C   0  0  0  0  0  0  0  0  0  0  0  0
  -21.2670   -6.6850   23.8900 C   0  0  0  0  0  3  0  0  0  0  0  0
  -21.1930   -5.8570   25.0270 C   0  0  0  0  0  3  0  0  0  0  0  0
  -21.5050   -4.4890   24.9240 C   0  0  0  0  0  0  0  0  0  0  0  0
  -21.8940   -3.9460   23.6860 C   0  0  0  0  0  3  0  0  0  0  0  0
  -21.9700   -4.7720   22.5520 C   0  0  0  0  0  0  0  0  0  0  0  0
  -22.3250   -4.2410   21.3570 F   0  0  0  0  0  0  0  0  0  0  0  0
  -21.4260   -3.6900   26.0140 F   0  0  0  0  0  0  0  0  0  0  0  0
  -22.7460  -13.5420   21.1510 C   0  0  0  0  0  0  0  0  0  0  0  0
  -22.0220  -12.8430   22.0170 N   0  0  0  0  0  0  0  0  0  0  0  0
  -22.3030  -14.5650   20.6290 O   0  0  0  0  0  0  0  0  0  0  0  0
  -22.3920  -12.0160   22.4610 H   0  0  0  0  0  0  0  0  0  0  0  0
  -21.0820  -13.1410   22.2430 H   0  0  0  0  0  0  0  0  0  0  0  0
  -25.3650  -15.2180   20.3240 N   0  0  0  0  0  0  0  0  0  0  0  0
  -24.5970  -15.8690   20.4470 H   0  0  0  0  0  0  0  0  0  0  0  0
  -26.2140  -15.6680   20.0060 H   0  0  0  0  0  0  0  0  0  0  0  0
  -28.7390  -21.1050   20.5800 C   0  0  0  0  0  2  0  0  0  0  0  0
  -29.1610  -22.5870   20.1280 C   0  0  0  0  0  3  0  0  0  0  0  0
  -28.2740  -23.8660   20.5120 C   0  0  0  0  0  3  0  0  0  0  0  0
  -28.5260  -25.2070   19.6840 C   0  0  0  0  0  2  0  0  0  0  0  0
  -28.3790  -26.5450   20.2920 O   0  0  0  0  0  0  0  0  0  0  0  0
  -24.5980  -31.8930   23.2480 C   0  0  0  0  0  0  0  0  0  0  0  0
  -27.2230  -27.3320   20.2100 C   0  0  0  0  0  0  0  0  0  0  0  0
  -23.3970  -30.4840   21.6090 C   0  0  0  0  0  3  0  0  0  0  0  0
  -24.8490  -28.9240   20.1890 C   0  0  0  0  0  0  0  0  0  0  0  0
  -25.9330  -30.8070   21.4260 C   0  0  0  0  0  2  0  0  0  0  0  0
  -26.0120  -29.4270   20.7840 C   0  0  0  0  0  0  0  0  0  0  0  0
  -27.1980  -28.6390   20.7870 C   0  0  0  0  0  3  0  0  0  0  0  0
  -26.0350  -26.8710   19.6030 C   0  0  0  0  0  3  0  0  0  0  0  0
  -24.8620  -27.6530   19.5920 C   0  0  0  0  0  3  0  0  0  0  0  0
  -23.6110  -29.7970   20.2320 C   0  0  0  0  0  2  0  0  0  0  0  0
  -24.6610  -31.0810   22.1510 N   0  0  0  0  0  0  0  0  0  0  0  0
  -23.5130  -32.1720   23.7820 O   0  0  0  0  0  0  0  0  0  0  0  0
  -22.7350  -29.4730   22.5740 C   0  0  0  0  0  0  0  0  0  0  0  0
  -21.4080  -29.2990   22.4510 N   0  0  0  0  0  0  0  0  0  0  0  0
  -23.4140  -28.8470   23.3920 O   0  0  0  0  0  0  0  0  0  0  0  0
  -20.9210  -29.8590   21.7650 H   0  0  0  0  0  0  0  0  0  0  0  0
  -18.0270  -28.1200   22.9580 C   0  0  0  0  0  0  0  0  0  0  0  0
  -20.5880  -28.3670   23.2240 C   0  0  0  0  0  3  0  0  0  0  0  0
  -20.6800  -26.9330   22.6520 C   0  0  0  0  0  2  0  0  0  0  0  0
  -19.5780  -26.6150   21.6380 C   0  0  0  0  0  2  0  0  0  0  0  0
  -18.1970  -26.7690   22.2830 C   0  0  0  0  0  2  0  0  0  0  0  0
  -19.1510  -28.8760   23.3850 C   0  0  0  0  0  0  0  0  0  0  0  0
  -18.9380  -30.1410   23.9760 C   0  0  0  0  0  3  0  0  0  0  0  0
  -17.6360  -30.6510   24.1410 C   0  0  0  0  0  3  0  0  0  0  0  0
  -16.5270  -29.8900   23.7300 C   0  0  0  0  0  3  0  0  0  0  0  0
  -16.7240  -28.6260   23.1450 C   0  0  0  0  0  3  0  0  0  0  0  0
  -25.8810  -32.5250   23.8700 C   0  0  0  0  0  3  0  0  0  0  0  0
  -25.5780  -33.9290   24.1870 N   0  0  0  0  0  0  0  0  0  0  0  0
  -25.9180  -34.9750   23.4220 C   0  0  0  0  0  0  0  0  0  0  0  0
  -26.5910  -34.8600   22.3950 O   0  0  0  0  0  0  0  0  0  0  0  0
  -24.9830  -34.0940   24.9860 H   0  0  0  0  0  0  0  0  0  0  0  0
  -24.2020  -36.7720   23.0420 C   0  0  0  0  0  1  0  0  0  0  0  0
  -25.4350  -36.3690   23.8670 C   0  0  0  0  0  3  0  0  0  0  0  0
  -27.5690  -37.2460   24.7060 C   0  0  0  0  0  1  0  0  0  0  0  0
  -26.4730  -37.4150   23.7550 N   0  0  0  0  0  0  0  0  0  0  0  0
  -26.0720  -38.3380   23.8960 H   0  0  0  0  0  0  0  0  0  0  0  0
  -26.3900  -31.7660   25.1560 C   0  0  1  0  0  0  0  0  0  0  0  0
  -25.2930  -31.5450   26.2230 C   0  0  0  0  0  1  0  0  0  0  0  0
  -26.9660  -30.3820   24.7780 C   0  0  0  0  0  1  0  0  0  0  0  0
  -27.5430  -32.5610   25.8120 C   0  0  0  0  0  1  0  0  0  0  0  0
  1  9  1  0
  1 50  1  0
  2  3  1  0
  4  2  2  0
  5  6  1  0
  6  3  2  0
  6  1  1  0
  7  4  1  0
  7  5  2  0
  8  7  1  0
  9 11  1  0
 10  9  2  0
 11 20  1  0
 12 20  1  0
 13 18  1  0
 14 15  1  0
 14 13  1  0
 16 15  1  0
 16 25  1  0
 16 17  1  0
 18 12  1  0
 18 17  1  0
 19 12  2  0
 20 21  1  0
 22 23  2  0
 23 42  1  0
 24 23  1  0
 24 27  1  0
 25 22  1  0
 25 26  1  0
 26 24  2  0
 27 28  1  0
 28 29  2  0
 30 33  1  0
 30 29  1  0
 31 30  2  0
 32 31  1  0
 32 27  2  0
 33 34  1  0
 34 35  1  0
 35 36  2  0
 37 36  1  0
 37 41  1  0
 38 37  2  0
 39 34  2  0
 39 38  1  0
 40 39  1  0
 42 43  1  0
 43 46  1  0
 43 45  1  0
 44 42  2  0
 47 48  1  0
 47 22  1  0
 49 47  1  0
 51 52  2  0
 51 50  1  0
 53 54  1  0
 53 52  1  0
 55 66  2  0
 56 54  1  0
 56 61  1  0
 57 65  1  0
 57 67  1  0
 58 64  1  0
 58 60  1  0
 59 65  1  0
 60 61  2  0
 60 59  1  0
 62 56  2  0
 63 62  1  0
 63 58  2  0
 64 57  1  0
 65 55  1  0
 67 69  2  0
 68 67  1  0
 70 68  1  0
 71 80  2  0
 71 76  1  0
 72 68  1  0
 72 76  1  0
 73 72  1  0
 74 75  1  0
 74 73  1  0
 75 71  1  0
 76 77  2  0
 77 78  1  0
 79 78  2  0
 80 79  1  0
 81 55  1  0
 81 82  1  0
 81 91  1  0
 82 85  1  0
 83 87  1  0
 83 82  1  0
 84 83  2  0
 87 86  1  0
 89 87  1  0
 89 90  1  0
 89 88  1  0
 91 94  1  1
 91 92  1  0
 93 91  1  0
M  ISO  4  12 100  20 100  53 101  54 101
M  END
>  <TORSDO>  (81) 
F 23

>  <SCORE>  (81) 
-13.014

>  <name>  (81) 
80

>  <ligand_id>  (81) 
80

>  <original_smiles>  (81) 
[H]c1c([H])c([H])c2c(c1[H])C([H])([H])C([H])([H])C([H])([H])C2([H])N([H])C(=O)C1([H])N(C(=O)C([H])(N([H])C(=O)C([H])(N([H])C([H])([H])[H])C([H])([H])[H])C(C([H])([H])[H])(C([H])([H])[H])C([H])([H])[H])C([H])([H])c2c([H])c(OC([H])([H])C([H])([H])C([H])([H])C([H])([H])C([H])(C(=O)C([H])([H])N([H])C(=O)N3C([H])([H])C([H])([H])C([H])([H])C([H])(n4nc(-c5c([H])c([H])c(Oc6c([H])c([H])c(F)c([H])c6F)c([H])c5[H])c(C(=O)N([H])[H])c4N([H])[H])C3([H])[H])c3c([H])c([H])c([H])c(F)c3[H])c([H])c([H])c2C1([H])[H]

>  <smiles>  (81) 
[H]c1c([H])c([H])c2c(c1[H])C([H])([H])C([H])([H])C([H])([H])C2([H])N([H])C(=O)C1([H])N(C(=O)C([H])(N([H])C(=O)C([H])(N([H])C([H])([H])[H])C([H])([H])[H])C(C([H])([H])[H])(C([H])([H])[H])C([H])([H])[H])C([H])([H])c2c([H])c(OC([H])([H])C([H])([H])C([H])([H])C([H])([H])C([H])(C(=O)C([H])([H])N([H])C(=O)N3C([H])([H])C([H])([H])C([H])([H])C([H])(n4nc(-c5c([H])c([H])c(Oc6c([H])c([H])c(F)c([H])c6F)c([H])c5[H])c(C(=O)N([H])[H])c4N([H])[H])C3([H])[H])c3c([H])c([H])c([H])c(F)c3[H])c([H])c([H])c2C1([H])[H]

$$$$
81:0:0
     RDKit          3D

 92100  0  0  1  0  0  0  0  0999 V2000
  -30.3730  -21.8190   19.9900 C   0  0  0  0  0  2  0  0  0  0  0  0
  -27.9490  -22.2560   20.5950 C   0  0  0  0  0  1  0  0  0  0  0  0
  -29.3810  -22.8190   20.7120 C   0  0  0  0  0  3  0  0  0  0  0  0
  -29.4680  -24.3170   20.1900 C   0  0  0  0  0  3  0  0  0  0  0  0
  -28.3900  -25.3430   20.7090 C   0  0  0  0  0  3  0  0  0  0  0  0
  -28.5140  -26.7170   20.2270 O   0  0  0  0  0  0  0  0  0  0  0  0
  -24.6040  -31.9220   23.2200 C   0  0  0  0  0  0  0  0  0  0  0  0
  -27.3490  -27.4760   20.2020 C   0  0  0  0  0  0  0  0  0  0  0  0
  -23.4330  -30.5010   21.5640 C   0  0  0  0  0  3  0  0  0  0  0  0
  -24.9320  -28.9800   20.1610 C   0  0  0  0  0  0  0  0  0  0  0  0
  -25.9570  -30.8950   21.3940 C   0  0  0  0  0  2  0  0  0  0  0  0
  -26.0760  -29.5150   20.7670 C   0  0  0  0  0  0  0  0  0  0  0  0
  -27.2880  -28.7750   20.7780 C   0  0  0  0  0  3  0  0  0  0  0  0
  -26.1870  -26.9750   19.5740 C   0  0  0  0  0  3  0  0  0  0  0  0
  -24.9880  -27.7150   19.5490 C   0  0  0  0  0  3  0  0  0  0  0  0
  -23.6730  -29.8200   20.1890 C   0  0  0  0  0  2  0  0  0  0  0  0
  -24.6810  -31.1210   22.1190 N   0  0  0  0  0  0  0  0  0  0  0  0
  -23.5130  -32.1730   23.7530 O   0  0  0  0  0  0  0  0  0  0  0  0
  -22.7810  -29.4760   22.5210 C   0  0  0  0  0  0  0  0  0  0  0  0
  -21.4650  -29.2620   22.3670 N   0  0  0  0  0  0  0  0  0  0  0  0
  -23.4590  -28.8760   23.3580 O   0  0  0  0  0  0  0  0  0  0  0  0
  -20.9730  -29.8050   21.6720 H   0  0  0  0  0  0  0  0  0  0  0  0
  -18.1230  -27.9480   22.7650 C   0  0  0  0  0  0  0  0  0  0  0  0
  -20.6580  -28.3080   23.1260 C   0  0  0  0  0  3  0  0  0  0  0  0
  -20.8310  -26.8700   22.5840 C   0  0  0  0  0  2  0  0  0  0  0  0
  -19.7830  -26.4850   21.5330 C   0  0  0  0  0  2  0  0  0  0  0  0
  -18.3740  -26.5930   22.1230 C   0  0  0  0  0  2  0  0  0  0  0  0
  -19.1960  -28.7580   23.2240 C   0  0  0  0  0  0  0  0  0  0  0  0
  -18.9080  -30.0220   23.7830 C   0  0  0  0  0  3  0  0  0  0  0  0
  -17.5820  -30.4800   23.8860 C   0  0  0  0  0  3  0  0  0  0  0  0
  -16.5210  -29.6670   23.4480 C   0  0  0  0  0  3  0  0  0  0  0  0
  -16.7930  -28.4040   22.8930 C   0  0  0  0  0  3  0  0  0  0  0  0
  -25.8770  -32.5700   23.8500 C   0  0  0  0  0  3  0  0  0  0  0  0
  -25.5530  -33.9630   24.1740 N   0  0  0  0  0  0  0  0  0  0  0  0
  -25.8880  -35.0170   23.4190 C   0  0  0  0  0  0  0  0  0  0  0  0
  -26.5720  -34.9160   22.3980 O   0  0  0  0  0  0  0  0  0  0  0  0
  -24.9490  -34.1120   24.9690 H   0  0  0  0  0  0  0  0  0  0  0  0
  -24.1550  -36.7970   23.0220 C   0  0  0  0  0  1  0  0  0  0  0  0
  -25.3800  -36.4030   23.8640 C   0  0  0  0  0  3  0  0  0  0  0  0
  -27.4910  -37.3060   24.7370 C   0  0  0  0  0  1  0  0  0  0  0  0
  -26.4080  -37.4650   23.7720 N   0  0  0  0  0  0  0  0  0  0  0  0
  -25.9890  -38.3820   23.9150 H   0  0  0  0  0  0  0  0  0  0  0  0
  -26.3920  -31.8060   25.1320 C   0  0  1  0  0  0  0  0  0  0  0  0
  -25.2900  -31.5570   26.1900 C   0  0  0  0  0  1  0  0  0  0  0  0
  -26.9950  -30.4350   24.7440 C   0  0  0  0  0  1  0  0  0  0  0  0
  -27.5300  -32.6100   25.8040 C   0  0  0  0  0  1  0  0  0  0  0  0
  -31.2010  -20.7550   20.8130 C   0  0  0  0  0  2  0  0  0  0  0  0
  -31.1340  -18.9050   22.4990 C   0  0  0  0  0  2  0  0  0  0  0  0
  -30.5230  -18.2760   20.2890 C   0  0  0  0  0  2  0  0  0  0  0  0
  -31.2310  -17.3620   22.3700 C   0  0  0  0  0  3  0  0  0  0  0  0
  -30.2540  -17.0670   21.2360 C   0  0  0  0  0  3  0  0  0  0  0  0
  -30.9500  -16.5930   23.6690 C   0  0  0  0  0  1  0  0  0  0  0  0
  -30.5600  -19.4520   21.2310 N   0  0  2  0  0  4  0  0  0  0  0  0
  -29.6000  -19.6610   21.4530 H   0  0  0  0  0  0  0  0  0  0  0  0
  -30.8670  -14.6980   20.1760 C   0  0  0  0  0  0  0  0  0  0  0  0
  -30.5630  -12.5590   18.9400 C   0  0  0  0  0  2  0  0  0  0  0  0
  -29.5680  -12.7830   17.7780 C   0  0  0  0  0  2  0  0  0  0  0  0
  -28.1090  -12.6270   18.2590 C   0  0  0  0  0  2  0  0  0  0  0  0
  -27.8240  -13.4220   19.5590 C   0  0  0  0  0  3  0  0  0  0  0  0
  -28.9170  -13.1480   20.6140 C   0  0  0  0  0  2  0  0  0  0  0  0
  -30.2170  -13.5060   20.0130 N   0  0  0  0  0  0  0  0  0  0  0  0
  -31.9780  -14.9310   19.6870 O   0  0  0  0  0  0  0  0  0  0  0  0
  -30.1260  -15.6380   20.8090 N   0  0  0  0  0  0  0  0  0  0  0  0
  -29.2540  -15.2290   21.1100 H   0  0  0  0  0  0  0  0  0  0  0  0
  -25.4440  -14.0390   20.3220 C   0  0  0  0  0  0  0  0  0  0  0  0
  -24.3780  -13.2730   20.7170 C   0  0  0  0  0  0  0  0  0  0  0  0
  -24.8320  -11.9190   20.6700 C   0  0  0  0  0  0  0  0  0  0  0  0
  -26.4800  -13.1510   20.0720 N   0  0  0  0  0  0  0  0  0  0  0  0
  -26.1150  -11.8710   20.3340 N   0  0  0  0  0  0  0  0  0  0  0  0
  -24.1040  -10.6610   20.8790 C   0  0  0  0  0  0  0  0  0  0  0  0
  -24.5320   -9.7130   21.8320 C   0  0  0  0  0  3  0  0  0  0  0  0
  -23.8110   -8.5160   22.0290 C   0  0  0  0  0  3  0  0  0  0  0  0
  -22.6420   -8.2620   21.2730 C   0  0  0  0  0  0  0  0  0  0  0  0
  -22.2330   -9.1980   20.3070 C   0  0  0  0  0  3  0  0  0  0  0  0
  -22.9570  -10.3860   20.1090 C   0  0  0  0  0  3  0  0  0  0  0  0
  -21.8920   -7.1170   21.3770 O   0  0  0  0  0  0  0  0  0  0  0  0
  -21.8000   -6.4180   22.5540 C   0  0  0  0  0  0  0  0  0  0  0  0
  -21.3270   -7.0200   23.7410 C   0  0  0  0  0  3  0  0  0  0  0  0
  -21.1760   -6.2460   24.9110 C   0  0  0  0  0  3  0  0  0  0  0  0
  -21.4920   -4.8760   24.8940 C   0  0  0  0  0  0  0  0  0  0  0  0
  -21.9570   -4.2740   23.7110 C   0  0  0  0  0  3  0  0  0  0  0  0
  -22.1040   -5.0430   22.5430 C   0  0  0  0  0  0  0  0  0  0  0  0
  -22.5290   -4.4520   21.4020 F   0  0  0  0  0  0  0  0  0  0  0  0
  -21.3420   -4.1320   26.0140 F   0  0  0  0  0  0  0  0  0  0  0  0
  -22.9890  -13.7600   21.0250 C   0  0  0  0  0  0  0  0  0  0  0  0
  -22.2850  -13.0680   21.9160 N   0  0  0  0  0  0  0  0  0  0  0  0
  -22.5380  -14.7810   20.5100 O   0  0  0  0  0  0  0  0  0  0  0  0
  -22.6720  -12.2480   22.3520 H   0  0  0  0  0  0  0  0  0  0  0  0
  -21.3570  -13.3770   22.1690 H   0  0  0  0  0  0  0  0  0  0  0  0
  -25.6050  -15.4080   20.1420 N   0  0  0  0  0  0  0  0  0  0  0  0
  -24.8340  -16.0570   20.2730 H   0  0  0  0  0  0  0  0  0  0  0  0
  -26.4260  -15.8440   19.7470 H   0  0  0  0  0  0  0  0  0  0  0  0
  1  3  1  0
  1 47  1  0
  3  2  1  0
  4  5  2  0
  4  3  1  0
  6  5  1  0
  7 18  2  0
  8  6  1  0
  8 13  1  0
  9 17  1  0
  9 19  1  0
 10 16  1  0
 10 12  1  0
 11 17  1  0
 12 13  2  0
 12 11  1  0
 14  8  2  0
 15 14  1  0
 15 10  2  0
 16  9  1  0
 17  7  1  0
 19 21  2  0
 20 19  1  0
 22 20  1  0
 23 32  2  0
 23 28  1  0
 24 20  1  0
 24 28  1  0
 25 24  1  0
 26 27  1  0
 26 25  1  0
 27 23  1  0
 28 29  2  0
 29 30  1  0
 31 30  2  0
 32 31  1  0
 33  7  1  0
 33 34  1  0
 33 43  1  0
 34 37  1  0
 35 39  1  0
 35 34  1  0
 36 35  2  0
 39 38  1  0
 41 39  1  0
 41 42  1  0
 41 40  1  0
 43 46  1  1
 43 44  1  0
 45 43  1  0
 47 53  1  0
 49 53  1  0
 49 51  1  0
 50 48  1  0
 50 52  1  0
 51 63  1  0
 51 50  1  0
 53 54  1  1
 53 48  1  0
 55 63  1  0
 56 61  1  0
 57 58  1  0
 57 56  1  0
 59 58  1  0
 59 68  1  0
 59 60  1  0
 61 55  1  0
 61 60  1  0
 62 55  2  0
 63 64  1  0
 65 66  2  0
 66 85  1  0
 67 66  1  0
 67 70  1  0
 68 65  1  0
 68 69  1  0
 69 67  2  0
 70 71  1  0
 71 72  2  0
 73 76  1  0
 73 72  1  0
 74 73  2  0
 75 74  1  0
 75 70  2  0
 76 77  1  0
 77 78  1  0
 78 79  2  0
 80 79  1  0
 80 84  1  0
 81 80  2  0
 82 77  2  0
 82 81  1  0
 83 82  1  0
 85 86  1  0
 86 89  1  0
 86 88  1  0
 87 85  2  0
 90 91  1  0
 90 65  1  0
 92 90  1  0
M  ISO  4   5 101   6 101  55 100  63 100
M  END
>  <TORSDO>  (82) 
F 21

>  <SCORE>  (82) 
-11.526

>  <name>  (82) 
81

>  <ligand_id>  (82) 
81

>  <original_smiles>  (82) 
[H]c1c([H])c([H])c2c(c1[H])C([H])([H])C([H])([H])C([H])([H])C2([H])N([H])C(=O)C1([H])N(C(=O)C([H])(N([H])C(=O)C([H])(N([H])C([H])([H])[H])C([H])([H])[H])C(C([H])([H])[H])(C([H])([H])[H])C([H])([H])[H])C([H])([H])c2c([H])c(OC([H])([H])C([H])([H])C([H])(C([H])([H])[H])C([H])([H])C([H])([H])[N+]3([H])C([H])([H])C([H])(N([H])C(=O)N4C([H])([H])C([H])([H])C([H])([H])C([H])(n5nc(-c6c([H])c([H])c(Oc7c([H])c([H])c(F)c([H])c7F)c([H])c6[H])c(C(=O)N([H])[H])c5N([H])[H])C4([H])[H])C([H])(C([H])([H])[H])C3([H])[H])c([H])c([H])c2C1([H])[H]

>  <smiles>  (82) 
[H]c1c([H])c([H])c2c(c1[H])C([H])([H])C([H])([H])C([H])([H])C2([H])N([H])C(=O)C1([H])N(C(=O)C([H])(N([H])C(=O)C([H])(N([H])C([H])([H])[H])C([H])([H])[H])C(C([H])([H])[H])(C([H])([H])[H])C([H])([H])[H])C([H])([H])c2c([H])c(OC([H])([H])C([H])([H])C([H])(C([H])([H])[H])C([H])([H])C([H])([H])[N+]3([H])C([H])([H])C([H])(N([H])C(=O)N4C([H])([H])C([H])([H])C([H])([H])C([H])(n5nc(-c6c([H])c([H])c(Oc7c([H])c([H])c(F)c([H])c7F)c([H])c6[H])c(C(=O)N([H])[H])c5N([H])[H])C4([H])[H])C([H])(C([H])([H])[H])C3([H])[H])c([H])c([H])c2C1([H])[H]

$$$$
82:0:0
     RDKit          3D

 90 98  0  0  1  0  0  0  0  0999 V2000
  -29.1280  -20.3650   20.5950 C   0  0  0  0  0  0  0  0  0  0  0  0
  -29.8040  -19.2730   20.1920 N   0  0  0  0  0  0  0  0  0  0  0  0
  -28.1760  -20.2860   21.3730 O   0  0  0  0  0  0  0  0  0  0  0  0
  -30.5720  -19.4140   19.5480 H   0  0  0  0  0  0  0  0  0  0  0  0
  -30.8430  -14.5120   19.9230 C   0  0  0  0  0  0  0  0  0  0  0  0
  -30.4280  -12.4140   18.6950 C   0  0  0  0  0  2  0  0  0  0  0  0
  -29.3750  -12.6950   17.6020 C   0  0  0  0  0  2  0  0  0  0  0  0
  -27.9430  -12.5540   18.1600 C   0  0  0  0  0  2  0  0  0  0  0  0
  -27.7460  -13.3050   19.5060 C   0  0  0  0  0  3  0  0  0  0  0  0
  -28.9020  -12.9770   20.4780 C   0  0  0  0  0  2  0  0  0  0  0  0
  -30.1610  -13.3370   19.8080 N   0  0  0  0  0  0  0  0  0  0  0  0
  -31.9240  -14.6980   19.3530 O   0  0  0  0  0  0  0  0  0  0  0  0
  -29.8020  -17.4040   21.8810 C   0  0  0  0  0  2  0  0  0  0  0  0
  -29.8120  -15.8760   21.7430 C   0  0  0  0  0  2  0  0  0  0  0  0
  -30.1080  -16.8490   19.5900 C   0  0  0  0  0  2  0  0  0  0  0  0
  -29.4150  -17.8860   20.4860 C   0  0  0  0  0  3  0  0  0  0  0  0
  -30.1100  -15.5790   20.3370 N   0  0  0  0  0  0  0  0  0  0  0  0
  -25.4280  -13.8940   20.4570 C   0  0  0  0  0  0  0  0  0  0  0  0
  -24.3930  -13.1120   20.8920 C   0  0  0  0  0  0  0  0  0  0  0  0
  -24.8360  -11.7610   20.7580 C   0  0  0  0  0  0  0  0  0  0  0  0
  -26.4400  -13.0180   20.0940 N   0  0  0  0  0  0  0  0  0  0  0  0
  -26.0910  -11.7270   20.3270 N   0  0  0  0  0  0  0  0  0  0  0  0
  -24.1190  -10.4940   20.9600 C   0  0  0  0  0  0  0  0  0  0  0  0
  -24.5770   -9.5260   21.8810 C   0  0  0  0  0  3  0  0  0  0  0  0
  -23.8610   -8.3250   22.0710 C   0  0  0  0  0  3  0  0  0  0  0  0
  -22.6730   -8.0820   21.3400 C   0  0  0  0  0  0  0  0  0  0  0  0
  -22.2360   -9.0380   20.4070 C   0  0  0  0  0  3  0  0  0  0  0  0
  -22.9510  -10.2320   20.2150 C   0  0  0  0  0  3  0  0  0  0  0  0
  -21.9280   -6.9320   21.4410 O   0  0  0  0  0  0  0  0  0  0  0  0
  -21.8330   -6.2370   22.6200 C   0  0  0  0  0  0  0  0  0  0  0  0
  -21.3440   -6.8370   23.8010 C   0  0  0  0  0  3  0  0  0  0  0  0
  -21.1960   -6.0680   24.9720 C   0  0  0  0  0  3  0  0  0  0  0  0
  -21.5260   -4.6990   24.9630 C   0  0  0  0  0  0  0  0  0  0  0  0
  -22.0080   -4.0990   23.7860 C   0  0  0  0  0  3  0  0  0  0  0  0
  -22.1570   -4.8660   22.6180 C   0  0  0  0  0  0  0  0  0  0  0  0
  -22.6020   -4.2770   21.4810 F   0  0  0  0  0  0  0  0  0  0  0  0
  -21.3770   -3.9570   26.0850 F   0  0  0  0  0  0  0  0  0  0  0  0
  -23.0320  -13.5830   21.3190 C   0  0  0  0  0  0  0  0  0  0  0  0
  -22.3920  -12.8560   22.2280 N   0  0  0  0  0  0  0  0  0  0  0  0
  -22.5500  -14.6270   20.8820 O   0  0  0  0  0  0  0  0  0  0  0  0
  -22.7970  -12.0120   22.6020 H   0  0  0  0  0  0  0  0  0  0  0  0
  -21.4810  -13.1500   22.5570 H   0  0  0  0  0  0  0  0  0  0  0  0
  -25.5870  -15.2700   20.3210 N   0  0  0  0  0  0  0  0  0  0  0  0
  -24.8320  -15.9200   20.5070 H   0  0  0  0  0  0  0  0  0  0  0  0
  -26.4010  -15.7110   19.9130 H   0  0  0  0  0  0  0  0  0  0  0  0
  -29.5540  -21.7330   20.0190 C   0  0  0  0  0  2  0  0  0  0  0  0
  -28.8740  -22.9530   20.7020 C   0  0  0  0  0  2  0  0  0  0  0  0
  -29.0660  -24.3140   19.9850 C   0  0  0  0  0  2  0  0  0  0  0  0
  -28.4560  -25.4860   20.7850 C   0  0  0  0  0  2  0  0  0  0  0  0
  -28.5640  -26.7430   20.0990 O   0  0  0  0  0  0  0  0  0  0  0  0
  -24.7420  -31.8660   23.2340 C   0  0  0  0  0  0  0  0  0  0  0  0
  -27.4060  -27.4870   20.0980 C   0  0  0  0  0  0  0  0  0  0  0  0
  -23.5440  -30.4890   21.5650 C   0  0  0  0  0  3  0  0  0  0  0  0
  -25.0070  -28.9780   20.1190 C   0  0  0  0  0  0  0  0  0  0  0  0
  -26.0670  -30.8610   21.3790 C   0  0  0  0  0  2  0  0  0  0  0  0
  -26.1610  -29.5010   20.7180 C   0  0  0  0  0  0  0  0  0  0  0  0
  -27.3660  -28.7630   20.7030 C   0  0  0  0  0  3  0  0  0  0  0  0
  -26.2400  -26.9780   19.4880 C   0  0  0  0  0  3  0  0  0  0  0  0
  -25.0400  -27.7160   19.5000 C   0  0  0  0  0  3  0  0  0  0  0  0
  -23.7590  -29.8300   20.1760 C   0  0  0  0  0  2  0  0  0  0  0  0
  -24.8020  -31.0860   22.1190 N   0  0  0  0  0  0  0  0  0  0  0  0
  -23.6580  -32.1260   23.7760 O   0  0  0  0  0  0  0  0  0  0  0  0
  -22.8910  -29.4520   22.5070 C   0  0  0  0  0  0  0  0  0  0  0  0
  -21.5670  -29.2700   22.3710 N   0  0  0  0  0  0  0  0  0  0  0  0
  -23.5730  -28.8120   23.3120 O   0  0  0  0  0  0  0  0  0  0  0  0
  -21.0780  -29.8390   21.6940 H   0  0  0  0  0  0  0  0  0  0  0  0
  -18.1920  -28.0720   22.8370 C   0  0  0  0  0  0  0  0  0  0  0  0
  -20.7480  -28.3200   23.1220 C   0  0  0  0  0  3  0  0  0  0  0  0
  -20.8490  -26.9000   22.5170 C   0  0  0  0  0  2  0  0  0  0  0  0
  -19.7500  -26.5990   21.4930 C   0  0  0  0  0  2  0  0  0  0  0  0
  -18.3670  -26.7360   22.1370 C   0  0  0  0  0  2  0  0  0  0  0  0
  -19.3110  -28.8230   23.2840 C   0  0  0  0  0  0  0  0  0  0  0  0
  -19.0940  -30.0770   23.8960 C   0  0  0  0  0  3  0  0  0  0  0  0
  -17.7890  -30.5790   24.0670 C   0  0  0  0  0  3  0  0  0  0  0  0
  -16.6840  -29.8230   23.6390 C   0  0  0  0  0  3  0  0  0  0  0  0
  -16.8860  -28.5710   23.0290 C   0  0  0  0  0  3  0  0  0  0  0  0
  -26.0260  -32.4880   23.8690 C   0  0  0  0  0  3  0  0  0  0  0  0
  -26.5470  -31.6880   25.1260 C   0  0  1  0  0  0  0  0  0  0  0  0
  -25.4550  -31.4140   26.1860 C   0  0  0  0  0  1  0  0  0  0  0  0
  -27.1390  -30.3250   24.6960 C   0  0  0  0  0  1  0  0  0  0  0  0
  -27.6910  -32.4720   25.8100 C   0  0  0  0  0  1  0  0  0  0  0  0
  -25.7160  -33.8780   24.2280 N   0  0  0  0  0  0  0  0  0  0  0  0
  -26.0520  -34.9460   23.4920 C   0  0  0  0  0  0  0  0  0  0  0  0
  -26.7310  -34.8630   22.4630 O   0  0  0  0  0  0  0  0  0  0  0  0
  -25.1190  -34.0160   25.0310 H   0  0  0  0  0  0  0  0  0  0  0  0
  -24.3320  -36.7470   23.1490 C   0  0  0  0  0  1  0  0  0  0  0  0
  -25.5600  -36.3250   23.9710 C   0  0  0  0  0  3  0  0  0  0  0  0
  -27.6800  -37.1870   24.8560 C   0  0  0  0  0  1  0  0  0  0  0  0
  -26.5950  -37.3780   23.8990 N   0  0  0  0  0  0  0  0  0  0  0  0
  -26.1860  -38.2940   24.0640 H   0  0  0  0  0  0  0  0  0  0  0  0
  1  3  2  0
  2  1  1  0
  4  2  1  0
  5 17  1  0
  6 11  1  0
  7  8  1  0
  7  6  1  0
  9  8  1  0
  9 21  1  0
  9 10  1  0
 11  5  1  0
 11 10  1  0
 12  5  2  0
 14 13  1  0
 15 17  1  0
 15 16  1  0
 16  2  1  0
 16 13  1  0
 17 14  1  0
 18 19  2  0
 19 38  1  0
 20 19  1  0
 20 23  1  0
 21 22  1  0
 21 18  1  0
 22 20  2  0
 23 24  1  0
 24 25  2  0
 26 29  1  0
 26 25  1  0
 27 26  2  0
 28 27  1  0
 28 23  2  0
 29 30  1  0
 30 31  1  0
 31 32  2  0
 33 32  1  0
 33 37  1  0
 34 33  2  0
 35 30  2  0
 35 34  1  0
 36 35  1  0
 38 39  1  0
 39 42  1  0
 39 41  1  0
 40 38  2  0
 43 18  1  0
 43 44  1  0
 45 43  1  0
 46  1  1  0
 46 47  1  0
 48 47  1  0
 48 49  1  0
 50 49  1  0
 51 62  2  0
 52 50  1  0
 52 57  1  0
 53 61  1  0
 53 63  1  0
 54 60  1  0
 54 56  1  0
 55 61  1  0
 56 55  1  0
 57 56  2  0
 58 59  1  0
 58 52  2  0
 59 54  2  0
 60 53  1  0
 61 51  1  0
 63 65  2  0
 64 63  1  0
 66 64  1  0
 67 76  2  0
 67 72  1  0
 68 64  1  0
 68 72  1  0
 69 68  1  0
 70 71  1  0
 70 69  1  0
 71 67  1  0
 72 73  2  0
 73 74  1  0
 75 74  2  0
 76 75  1  0
 77 51  1  0
 77 82  1  0
 77 78  1  0
 78 81  1  1
 78 79  1  0
 80 78  1  0
 82 85  1  0
 83 87  1  0
 83 82  1  0
 84 83  2  0
 87 86  1  0
 89 87  1  0
 89 90  1  0
 89 88  1  0
M  ISO  4   5 100  17 100  49 101  50 101
M  END
>  <TORSDO>  (83) 
F 20

>  <SCORE>  (83) 
-12.598

>  <name>  (83) 
82

>  <ligand_id>  (83) 
82

>  <original_smiles>  (83) 
[H]c1c([H])c([H])c2c(c1[H])C([H])([H])C([H])([H])C([H])([H])C2([H])N([H])C(=O)C1([H])N(C(=O)C([H])(N([H])C(=O)C([H])(N([H])C([H])([H])[H])C([H])([H])[H])C(C([H])([H])[H])(C([H])([H])[H])C([H])([H])[H])C([H])([H])c2c([H])c(OC([H])([H])C([H])([H])C([H])([H])C([H])([H])C(=O)N([H])C3([H])C([H])([H])N(C(=O)N4C([H])([H])C([H])([H])C([H])([H])C([H])(n5nc(-c6c([H])c([H])c(Oc7c([H])c([H])c(F)c([H])c7F)c([H])c6[H])c(C(=O)N([H])[H])c5N([H])[H])C4([H])[H])C([H])([H])C3([H])[H])c([H])c([H])c2C1([H])[H]

>  <smiles>  (83) 
[H]c1c([H])c([H])c2c(c1[H])C([H])([H])C([H])([H])C([H])([H])C2([H])N([H])C(=O)C1([H])N(C(=O)C([H])(N([H])C(=O)C([H])(N([H])C([H])([H])[H])C([H])([H])[H])C(C([H])([H])[H])(C([H])([H])[H])C([H])([H])[H])C([H])([H])c2c([H])c(OC([H])([H])C([H])([H])C([H])([H])C([H])([H])C(=O)N([H])C3([H])C([H])([H])N(C(=O)N4C([H])([H])C([H])([H])C([H])([H])C([H])(n5nc(-c6c([H])c([H])c(Oc7c([H])c([H])c(F)c([H])c7F)c([H])c6[H])c(C(=O)N([H])[H])c5N([H])[H])C4([H])[H])C([H])([H])C3([H])[H])c([H])c([H])c2C1([H])[H]

$$$$
83:0:0
     RDKit          3D

 93101  0  0  1  0  0  0  0  0999 V2000
  -27.0750  -18.6280   18.8920 C   0  0  0  0  0  2  0  0  0  0  0  0
  -28.4010  -19.2150   18.4110 C   0  0  0  0  0  2  0  0  0  0  0  0
  -27.4860  -17.5340   19.8950 C   0  0  0  0  0  3  0  0  0  0  0  0
  -28.9940  -17.7870   20.1780 C   0  0  0  0  0  3  0  0  0  0  0  0
  -29.2730  -19.1830   19.6060 N   0  0  2  0  0  4  0  0  0  0  0  0
  -30.2340  -19.2150   19.3010 H   0  0  0  0  0  0  0  0  0  0  0  0
  -25.1570  -17.1650   20.9290 C   0  0  0  0  0  1  0  0  0  0  0  0
  -26.6270  -17.5290   21.1770 C   0  0  0  0  0  2  0  0  0  0  0  0
  -29.9260  -16.5950   19.6080 C   0  0  0  0  0  2  0  0  0  0  0  0
  -30.4240  -14.0500   19.6850 C   0  0  0  0  0  0  0  0  0  0  0  0
  -30.0360  -11.8470   18.6040 C   0  0  0  0  0  2  0  0  0  0  0  0
  -29.0080  -12.0380   17.4640 C   0  0  0  0  0  2  0  0  0  0  0  0
  -27.5700  -11.9100   18.0010 C   0  0  0  0  0  2  0  0  0  0  0  0
  -27.3380  -12.7530   19.2850 C   0  0  0  0  0  3  0  0  0  0  0  0
  -28.4740  -12.5570   20.3160 C   0  0  0  0  0  2  0  0  0  0  0  0
  -29.7460  -12.8580   19.6440 N   0  0  0  0  0  0  0  0  0  0  0  0
  -31.5450  -14.1600   19.1840 O   0  0  0  0  0  0  0  0  0  0  0  0
  -29.7230  -15.1640   20.0800 N   0  0  0  0  0  0  0  0  0  0  0  0
  -28.8410  -14.9670   20.5260 H   0  0  0  0  0  0  0  0  0  0  0  0
  -25.0360  -13.4040   20.2160 C   0  0  0  0  0  0  0  0  0  0  0  0
  -23.9770  -12.6560   20.6500 C   0  0  0  0  0  0  0  0  0  0  0  0
  -24.3840  -11.2900   20.5340 C   0  0  0  0  0  0  0  0  0  0  0  0
  -26.0240  -12.4980   19.8680 N   0  0  0  0  0  0  0  0  0  0  0  0
  -25.6430  -11.2190   20.1210 N   0  0  0  0  0  0  0  0  0  0  0  0
  -23.6280  -10.0480   20.7370 C   0  0  0  0  0  0  0  0  0  0  0  0
  -23.9580   -9.1410   21.7680 C   0  0  0  0  0  3  0  0  0  0  0  0
  -23.2030   -7.9640   21.9560 C   0  0  0  0  0  3  0  0  0  0  0  0
  -22.1030   -7.6840   21.1100 C   0  0  0  0  0  0  0  0  0  0  0  0
  -21.7920   -8.5780   20.0700 C   0  0  0  0  0  3  0  0  0  0  0  0
  -22.5490   -9.7460   19.8820 C   0  0  0  0  0  3  0  0  0  0  0  0
  -21.3290   -6.5530   21.2010 O   0  0  0  0  0  0  0  0  0  0  0  0
  -20.9980   -6.0020   22.4130 C   0  0  0  0  0  0  0  0  0  0  0  0
  -20.2530   -6.7160   23.3770 C   0  0  0  0  0  3  0  0  0  0  0  0
  -19.8780   -6.0880   24.5820 C   0  0  0  0  0  3  0  0  0  0  0  0
  -20.2350   -4.7470   24.8200 C   0  0  0  0  0  0  0  0  0  0  0  0
  -20.9710   -4.0340   23.8580 C   0  0  0  0  0  3  0  0  0  0  0  0
  -21.3490   -4.6590   22.6560 C   0  0  0  0  0  0  0  0  0  0  0  0
  -22.0400   -3.9590   21.7240 F   0  0  0  0  0  0  0  0  0  0  0  0
  -19.8670   -4.1410   25.9730 F   0  0  0  0  0  0  0  0  0  0  0  0
  -22.6240  -13.1720   21.0530 C   0  0  0  0  0  0  0  0  0  0  0  0
  -21.9470  -12.4730   21.9570 N   0  0  0  0  0  0  0  0  0  0  0  0
  -22.1820  -14.2280   20.6010 O   0  0  0  0  0  0  0  0  0  0  0  0
  -22.3210  -11.6180   22.3400 H   0  0  0  0  0  0  0  0  0  0  0  0
  -21.0430  -12.7960   22.2720 H   0  0  0  0  0  0  0  0  0  0  0  0
  -25.2350  -14.7720   20.0570 N   0  0  0  0  0  0  0  0  0  0  0  0
  -24.4960  -15.4410   20.2370 H   0  0  0  0  0  0  0  0  0  0  0  0
  -26.0230  -15.1740   19.5680 H   0  0  0  0  0  0  0  0  0  0  0  0
  -29.0550  -20.4060   20.5200 C   0  0  0  0  0  3  0  0  0  0  0  0
  -29.0750  -21.8820   19.8670 C   0  0  0  0  0  3  0  0  0  0  0  0
  -28.8260  -23.1920   20.7620 C   0  0  0  0  0  3  0  0  0  0  0  0
  -27.6330  -23.0450   21.3420 F   0  0  0  0  0  0  0  0  0  0  0  0
  -28.8440  -24.6140   20.0160 C   0  0  0  0  0  2  0  0  0  0  0  0
  -28.6720  -25.8950   20.7600 O   0  0  0  0  0  0  0  0  0  0  0  0
  -24.9000  -31.4640   23.3800 C   0  0  0  0  0  0  0  0  0  0  0  0
  -27.5660  -26.7530   20.5960 C   0  0  0  0  0  0  0  0  0  0  0  0
  -23.7850  -30.1040   21.6480 C   0  0  0  0  0  3  0  0  0  0  0  0
  -25.2820  -28.4770   20.3700 C   0  0  0  0  0  0  0  0  0  0  0  0
  -26.3430  -30.3070   21.6890 C   0  0  0  0  0  2  0  0  0  0  0  0
  -26.4160  -28.9200   21.0600 C   0  0  0  0  0  0  0  0  0  0  0  0
  -27.5560  -28.0670   21.1650 C   0  0  0  0  0  3  0  0  0  0  0  0
  -26.4000  -26.3600   19.8970 C   0  0  0  0  0  3  0  0  0  0  0  0
  -25.2760  -27.2020   19.7870 C   0  0  0  0  0  3  0  0  0  0  0  0
  -24.0910  -29.4090   20.2960 C   0  0  0  0  0  2  0  0  0  0  0  0
  -25.0240  -30.6430   22.2960 N   0  0  0  0  0  0  0  0  0  0  0  0
  -23.7870  -31.7920   23.8140 O   0  0  0  0  0  0  0  0  0  0  0  0
  -23.0000  -29.1250   22.5530 C   0  0  0  0  0  0  0  0  0  0  0  0
  -21.6790  -29.0180   22.3250 N   0  0  0  0  0  0  0  0  0  0  0  0
  -23.5800  -28.4660   23.4210 O   0  0  0  0  0  0  0  0  0  0  0  0
  -21.2760  -29.5910   21.5980 H   0  0  0  0  0  0  0  0  0  0  0  0
  -18.1990  -28.0830   22.6410 C   0  0  0  0  0  0  0  0  0  0  0  0
  -20.7560  -28.1300   23.0320 C   0  0  0  0  0  3  0  0  0  0  0  0
  -20.7700  -26.7120   22.4200 C   0  0  0  0  0  2  0  0  0  0  0  0
  -19.6980  -26.5100   21.3460 C   0  0  0  0  0  2  0  0  0  0  0  0
  -18.3030  -26.7400   21.9370 C   0  0  0  0  0  2  0  0  0  0  0  0
  -19.3530  -28.7410   23.1430 C   0  0  0  0  0  0  0  0  0  0  0  0
  -19.2070  -30.0000   23.7610 C   0  0  0  0  0  3  0  0  0  0  0  0
  -17.9410  -30.6000   23.8880 C   0  0  0  0  0  3  0  0  0  0  0  0
  -16.7990  -29.9380   23.4000 C   0  0  0  0  0  3  0  0  0  0  0  0
  -16.9290  -28.6820   22.7820 C   0  0  0  0  0  3  0  0  0  0  0  0
  -26.1490  -32.0480   24.1090 C   0  0  0  0  0  3  0  0  0  0  0  0
  -25.9020  -33.4780   24.3390 N   0  0  0  0  0  0  0  0  0  0  0  0
  -26.3800  -34.4660   23.5720 C   0  0  0  0  0  0  0  0  0  0  0  0
  -27.1440  -34.2670   22.6240 O   0  0  0  0  0  0  0  0  0  0  0  0
  -25.2410  -33.7110   25.0660 H   0  0  0  0  0  0  0  0  0  0  0  0
  -24.8300  -36.3490   22.9460 C   0  0  0  0  0  1  0  0  0  0  0  0
  -25.9410  -35.9050   23.9100 C   0  0  0  0  0  3  0  0  0  0  0  0
  -28.0200  -36.7020   24.9470 C   0  0  0  0  0  1  0  0  0  0  0  0
  -27.0510  -36.8840   23.8700 N   0  0  0  0  0  0  0  0  0  0  0  0
  -26.6940  -37.8340   23.9210 H   0  0  0  0  0  0  0  0  0  0  0  0
  -26.4720  -31.3180   25.4710 C   0  0  1  0  0  0  0  0  0  0  0  0
  -25.2550  -31.2000   26.4190 C   0  0  0  0  0  1  0  0  0  0  0  0
  -27.0120  -29.8900   25.2170 C   0  0  0  0  0  1  0  0  0  0  0  0
  -27.5850  -32.0840   26.2270 C   0  0  0  0  0  1  0  0  0  0  0  0
  1  3  1  0
  2  1  1  0
  2  5  1  0
  3  4  1  0
  3  8  1  0
  4  9  1  0
  5  4  1  0
  5 48  1  0
  5  6  1  6
  7  8  1  0
  9 18  1  0
 10 18  1  0
 11 16  1  0
 12 13  1  0
 12 11  1  0
 14 13  1  0
 14 23  1  0
 14 15  1  0
 16 10  1  0
 16 15  1  0
 17 10  2  0
 18 19  1  0
 20 21  2  0
 21 40  1  0
 22 21  1  0
 22 25  1  0
 23 24  1  0
 23 20  1  0
 24 22  2  0
 25 26  1  0
 26 27  2  0
 28 31  1  0
 28 27  1  0
 29 28  2  0
 30 29  1  0
 30 25  2  0
 31 32  1  0
 32 37  2  0
 32 33  1  0
 33 34  2  0
 34 35  1  0
 35 39  1  0
 36 35  2  0
 37 36  1  0
 38 37  1  0
 40 41  1  0
 41 44  1  0
 41 43  1  0
 42 40  2  0
 45 20  1  0
 45 46  1  0
 47 45  1  0
 49 48  2  0
 49 50  1  0
 50 51  1  0
 52 53  1  0
 52 50  1  0
 54 65  2  0
 55 53  1  0
 55 60  1  0
 56 64  1  0
 56 66  1  0
 57 59  1  0
 58 64  1  0
 59 60  2  0
 59 58  1  0
 61 55  2  0
 62 61  1  0
 62 57  2  0
 63 57  1  0
 63 56  1  0
 64 54  1  0
 66 68  2  0
 67 66  1  0
 69 67  1  0
 70 79  2  0
 70 75  1  0
 71 67  1  0
 71 75  1  0
 72 71  1  0
 73 74  1  0
 73 72  1  0
 74 70  1  0
 75 76  2  0
 76 77  1  0
 78 77  2  0
 79 78  1  0
 80 54  1  0
 80 81  1  0
 80 90  1  0
 81 84  1  0
 82 86  1  0
 82 81  1  0
 83 82  2  0
 86 85  1  0
 88 86  1  0
 88 89  1  0
 88 87  1  0
 90 93  1  1
 90 91  1  0
 92 90  1  0
M  ISO  4  10 100  18 100  52 101  53 101
M  END
>  <TORSDO>  (84) 
F 22

>  <SCORE>  (84) 
-7.606

>  <name>  (84) 
83

>  <ligand_id>  (84) 
83

>  <original_smiles>  (84) 
[H]c1c([H])c([H])c2c(c1[H])C([H])([H])C([H])([H])C([H])([H])C2([H])N([H])C(=O)C1([H])N(C(=O)C([H])(N([H])C(=O)C([H])(N([H])C([H])([H])[H])C([H])([H])[H])C(C([H])([H])[H])(C([H])([H])[H])C([H])([H])[H])C([H])([H])c2c([H])c(OC([H])([H])C([H])(F)C([H])([H])C([H])([H])[N+]3([H])C([H])([H])C([H])([H])C([H])(C([H])([H])C([H])([H])[H])C3([H])C([H])([H])N([H])C(=O)N3C([H])([H])C([H])([H])C([H])([H])C([H])(n4nc(-c5c([H])c([H])c(Oc6c([H])c([H])c(F)c([H])c6F)c([H])c5[H])c(C(=O)N([H])[H])c4N([H])[H])C3([H])[H])c([H])c([H])c2C1([H])[H]

>  <smiles>  (84) 
[H]c1c([H])c([H])c2c(c1[H])C([H])([H])C([H])([H])C([H])([H])C2([H])N([H])C(=O)C1([H])N(C(=O)C([H])(N([H])C(=O)C([H])(N([H])C([H])([H])[H])C([H])([H])[H])C(C([H])([H])[H])(C([H])([H])[H])C([H])([H])[H])C([H])([H])c2c([H])c(OC([H])([H])C([H])(F)C([H])([H])C([H])([H])[N+]3([H])C([H])([H])C([H])([H])C([H])(C([H])([H])C([H])([H])[H])C3([H])C([H])([H])N([H])C(=O)N3C([H])([H])C([H])([H])C([H])([H])C([H])(n4nc(-c5c([H])c([H])c(Oc6c([H])c([H])c(F)c([H])c6F)c([H])c5[H])c(C(=O)N([H])[H])c4N([H])[H])C3([H])[H])c([H])c([H])c2C1([H])[H]

$$$$
84:0:0
     RDKit          3D

 95103  0  0  1  0  0  0  0  0999 V2000
  -29.4040  -19.2000   20.9410 C   0  0  0  0  0  2  0  0  0  0  0  0
  -31.1590  -20.0460   19.4720 C   0  0  0  0  0  2  0  0  0  0  0  0
  -29.7780  -20.4310   20.0500 C   0  0  0  0  0  3  0  0  0  0  0  0
  -30.3090  -18.0070   20.5050 C   0  0  0  0  0  3  0  0  0  0  0  0
  -31.6130  -18.7680   20.2050 C   0  0  0  0  0  3  0  0  0  0  0  0
  -29.8310  -21.8210   20.7550 C   0  0  0  0  0  0  0  0  0  0  0  0
  -29.2760  -22.8830   20.1260 N   0  0  0  0  0  0  0  0  0  0  0  0
  -30.4210  -21.9390   21.8290 O   0  0  0  0  0  0  0  0  0  0  0  0
  -28.8000  -22.6910   19.2540 H   0  0  0  0  0  0  0  0  0  0  0  0
  -29.4130  -24.3140   20.4920 C   0  0  0  0  0  2  0  0  0  0  0  0
  -28.2230  -25.1930   19.9980 C   0  0  0  0  0  2  0  0  0  0  0  0
  -28.3570  -26.6210   20.2300 O   0  0  0  0  0  0  0  0  0  0  0  0
  -24.5850  -31.8990   23.2410 C   0  0  0  0  0  0  0  0  0  0  0  0
  -27.1990  -27.3930   20.1790 C   0  0  0  0  0  0  0  0  0  0  0  0
  -23.3690  -30.4940   21.6100 C   0  0  0  0  0  3  0  0  0  0  0  0
  -24.8150  -28.9460   20.1840 C   0  0  0  0  0  0  0  0  0  0  0  0
  -25.9000  -30.8320   21.4060 C   0  0  0  0  0  2  0  0  0  0  0  0
  -25.9800  -29.4570   20.7680 C   0  0  0  0  0  0  0  0  0  0  0  0
  -27.1740  -28.6900   20.7590 C   0  0  0  0  0  3  0  0  0  0  0  0
  -26.0110  -26.9170   19.5760 C   0  0  0  0  0  3  0  0  0  0  0  0
  -24.8290  -27.6770   19.5810 C   0  0  0  0  0  3  0  0  0  0  0  0
  -23.5710  -29.8060   20.2340 C   0  0  0  0  0  2  0  0  0  0  0  0
  -24.6370  -31.0900   22.1440 N   0  0  0  0  0  0  0  0  0  0  0  0
  -23.5050  -32.1770   23.7830 O   0  0  0  0  0  0  0  0  0  0  0  0
  -22.7140  -29.4800   22.5780 C   0  0  0  0  0  0  0  0  0  0  0  0
  -21.3890  -29.3000   22.4520 N   0  0  0  0  0  0  0  0  0  0  0  0
  -23.3960  -28.8590   23.3960 O   0  0  0  0  0  0  0  0  0  0  0  0
  -20.8980  -29.8550   21.7660 H   0  0  0  0  0  0  0  0  0  0  0  0
  -18.0150  -28.0980   22.9420 C   0  0  0  0  0  0  0  0  0  0  0  0
  -20.5700  -28.3670   23.2270 C   0  0  0  0  0  3  0  0  0  0  0  0
  -20.6810  -26.9310   22.6660 C   0  0  0  0  0  2  0  0  0  0  0  0
  -19.5870  -26.5930   21.6480 C   0  0  0  0  0  2  0  0  0  0  0  0
  -18.2010  -26.7410   22.2830 C   0  0  0  0  0  2  0  0  0  0  0  0
  -19.1290  -28.8680   23.3710 C   0  0  0  0  0  0  0  0  0  0  0  0
  -18.9040  -30.1380   23.9460 C   0  0  0  0  0  3  0  0  0  0  0  0
  -17.5970  -30.6380   24.0980 C   0  0  0  0  0  3  0  0  0  0  0  0
  -16.4970  -29.8650   23.6870 C   0  0  0  0  0  3  0  0  0  0  0  0
  -16.7070  -28.5970   23.1160 C   0  0  0  0  0  3  0  0  0  0  0  0
  -25.8730  -32.5300   23.8530 C   0  0  0  0  0  3  0  0  0  0  0  0
  -25.5690  -33.9280   24.1870 N   0  0  0  0  0  0  0  0  0  0  0  0
  -25.8930  -34.9800   23.4230 C   0  0  0  0  0  0  0  0  0  0  0  0
  -26.5500  -34.8760   22.3840 O   0  0  0  0  0  0  0  0  0  0  0  0
  -24.9850  -34.0830   24.9960 H   0  0  0  0  0  0  0  0  0  0  0  0
  -24.1560  -36.7690   23.0920 C   0  0  0  0  0  1  0  0  0  0  0  0
  -25.4110  -36.3680   23.8850 C   0  0  0  0  0  3  0  0  0  0  0  0
  -27.5580  -37.2570   24.6800 C   0  0  0  0  0  1  0  0  0  0  0  0
  -26.4400  -37.4230   23.7540 N   0  0  0  0  0  0  0  0  0  0  0  0
  -26.0360  -38.3430   23.9090 H   0  0  0  0  0  0  0  0  0  0  0  0
  -26.3990  -31.7580   25.1250 C   0  0  1  0  0  0  0  0  0  0  0  0
  -25.3140  -31.5210   26.2010 C   0  0  0  0  0  1  0  0  0  0  0  0
  -26.9760  -30.3790   24.7260 C   0  0  0  0  0  1  0  0  0  0  0  0
  -27.5540  -32.5510   25.7790 C   0  0  0  0  0  1  0  0  0  0  0  0
  -33.9320  -18.6050   19.3460 C   0  0  0  0  0  1  0  0  0  0  0  0
  -32.5970  -17.9770   19.4330 N   0  0  0  0  0  4  0  0  0  0  0  0
  -32.2520  -17.8100   18.5010 H   0  0  0  0  0  0  0  0  0  0  0  0
  -32.7150  -17.0750   19.8700 H   0  0  0  0  0  0  0  0  0  0  0  0
  -30.4670  -16.8540   21.5610 C   0  0  0  0  0  2  0  0  0  0  0  0
  -30.6580  -14.5320   20.5240 C   0  0  0  0  0  0  0  0  0  0  0  0
  -30.3730  -12.3840   19.3260 C   0  0  0  0  0  2  0  0  0  0  0  0
  -29.4260  -12.5820   18.1250 C   0  0  0  0  0  2  0  0  0  0  0  0
  -27.9490  -12.4380   18.5500 C   0  0  0  0  0  2  0  0  0  0  0  0
  -27.6120  -13.2600   19.8210 C   0  0  0  0  0  3  0  0  0  0  0  0
  -28.6670  -13.0300   20.9260 C   0  0  0  0  0  2  0  0  0  0  0  0
  -29.9890  -13.3560   20.3620 N   0  0  0  0  0  0  0  0  0  0  0  0
  -31.7740  -14.7470   20.0420 O   0  0  0  0  0  0  0  0  0  0  0  0
  -29.9780  -15.5160   21.1550 N   0  0  0  0  0  0  0  0  0  0  0  0
  -29.0570  -15.2630   21.4820 H   0  0  0  0  0  0  0  0  0  0  0  0
  -25.2130  -13.8720   20.5210 C   0  0  0  0  0  0  0  0  0  0  0  0
  -24.1430  -13.1040   20.8900 C   0  0  0  0  0  0  0  0  0  0  0  0
  -24.6010  -11.7510   20.8660 C   0  0  0  0  0  0  0  0  0  0  0  0
  -26.2570  -12.9870   20.2970 N   0  0  0  0  0  0  0  0  0  0  0  0
  -25.8920  -11.7070   20.5610 N   0  0  0  0  0  0  0  0  0  0  0  0
  -23.8720  -10.4910   21.0600 C   0  0  0  0  0  0  0  0  0  0  0  0
  -24.3170   -9.5150   21.9800 C   0  0  0  0  0  3  0  0  0  0  0  0
  -23.5890   -8.3200   22.1630 C   0  0  0  0  0  3  0  0  0  0  0  0
  -22.4020   -8.0910   21.4250 C   0  0  0  0  0  0  0  0  0  0  0  0
  -21.9770   -9.0550   20.4940 C   0  0  0  0  0  3  0  0  0  0  0  0
  -22.7050  -10.2420   20.3100 C   0  0  0  0  0  3  0  0  0  0  0  0
  -21.6470   -6.9470   21.5160 O   0  0  0  0  0  0  0  0  0  0  0  0
  -21.6260   -6.1860   22.6570 C   0  0  0  0  0  0  0  0  0  0  0  0
  -21.2540   -6.7260   23.9070 C   0  0  0  0  0  3  0  0  0  0  0  0
  -21.1810   -5.8920   25.0410 C   0  0  0  0  0  3  0  0  0  0  0  0
  -21.4700   -4.5200   24.9260 C   0  0  0  0  0  0  0  0  0  0  0  0
  -21.8350   -3.9790   23.6800 C   0  0  0  0  0  3  0  0  0  0  0  0
  -21.9110   -4.8100   22.5490 C   0  0  0  0  0  0  0  0  0  0  0  0
  -22.2430   -4.2800   21.3470 F   0  0  0  0  0  0  0  0  0  0  0  0
  -21.3930   -3.7160   26.0130 F   0  0  0  0  0  0  0  0  0  0  0  0
  -22.7460  -13.5840   21.1560 C   0  0  0  0  0  0  0  0  0  0  0  0
  -22.0140  -12.8940   22.0240 N   0  0  0  0  0  0  0  0  0  0  0  0
  -22.3110  -14.6060   20.6280 O   0  0  0  0  0  0  0  0  0  0  0  0
  -22.3770  -12.0660   22.4740 H   0  0  0  0  0  0  0  0  0  0  0  0
  -21.0760  -13.1980   22.2400 H   0  0  0  0  0  0  0  0  0  0  0  0
  -25.3850  -15.2410   20.3370 N   0  0  0  0  0  0  0  0  0  0  0  0
  -24.6240  -15.9050   20.4350 H   0  0  0  0  0  0  0  0  0  0  0  0
  -26.2390  -15.6680   19.9970 H   0  0  0  0  0  0  0  0  0  0  0  0
  2  3  1  0
  2  5  1  0
  3  6  1  0
  3  1  1  0
  4  1  1  0
  4 57  1  0
  5 54  1  0
  5  4  1  0
  6  8  2  0
  7 10  1  0
  7  6  1  0
  9  7  1  0
 11 12  1  0
 11 10  1  0
 13 24  2  0
 14 12  1  0
 14 19  1  0
 15 23  1  0
 15 25  1  0
 16 22  1  0
 16 18  1  0
 17 23  1  0
 18 17  1  0
 19 18  2  0
 20 21  1  0
 20 14  2  0
 21 16  2  0
 22 15  1  0
 23 13  1  0
 25 27  2  0
 26 25  1  0
 28 26  1  0
 29 38  2  0
 29 34  1  0
 30 26  1  0
 30 34  1  0
 31 30  1  0
 32 33  1  0
 32 31  1  0
 33 29  1  0
 34 35  2  0
 35 36  1  0
 37 36  2  0
 38 37  1  0
 39 13  1  0
 39 40  1  0
 39 49  1  0
 40 43  1  0
 41 45  1  0
 41 40  1  0
 42 41  2  0
 45 44  1  0
 47 45  1  0
 47 48  1  0
 47 46  1  0
 49 52  1  1
 49 50  1  0
 51 49  1  0
 53 54  1  0
 54 56  1  0
 55 54  1  0
 58 66  1  0
 59 64  1  0
 60 61  1  0
 60 59  1  0
 62 61  1  0
 62 71  1  0
 62 63  1  0
 64 58  1  0
 64 63  1  0
 65 58  2  0
 66 67  1  0
 66 57  1  0
 68 69  2  0
 69 88  1  0
 70 69  1  0
 70 73  1  0
 71 68  1  0
 71 72  1  0
 72 70  2  0
 73 74  1  0
 74 75  2  0
 76 79  1  0
 76 75  1  0
 77 76  2  0
 78 77  1  0
 78 73  2  0
 79 80  1  0
 80 81  1  0
 81 82  2  0
 83 82  1  0
 83 87  1  0
 84 83  2  0
 85 80  2  0
 85 84  1  0
 86 85  1  0
 88 89  1  0
 89 92  1  0
 89 91  1  0
 90 88  2  0
 93 94  1  0
 93 68  1  0
 95 93  1  0
M  ISO  4  11 101  12 101  58 100  66 100
M  END
>  <TORSDO>  (85) 
F 21

>  <SCORE>  (85) 
-13.609

>  <name>  (85) 
84

>  <ligand_id>  (85) 
84

>  <original_smiles>  (85) 
[H]c1c([H])c([H])c2c(c1[H])C([H])([H])C([H])([H])C([H])([H])C2([H])N([H])C(=O)C1([H])N(C(=O)C([H])(N([H])C(=O)C([H])(N([H])C([H])([H])[H])C([H])([H])[H])C(C([H])([H])[H])(C([H])([H])[H])C([H])([H])[H])C([H])([H])c2c([H])c(OC([H])([H])C([H])([H])N([H])C(=O)C3([H])C([H])([H])C([H])(C([H])([H])N([H])C(=O)N4C([H])([H])C([H])([H])C([H])([H])C([H])(n5nc(-c6c([H])c([H])c(Oc7c([H])c([H])c(F)c([H])c7F)c([H])c6[H])c(C(=O)N([H])[H])c5N([H])[H])C4([H])[H])C([H])([N+]([H])([H])C([H])([H])[H])C3([H])[H])c([H])c([H])c2C1([H])[H]

>  <smiles>  (85) 
[H]c1c([H])c([H])c2c(c1[H])C([H])([H])C([H])([H])C([H])([H])C2([H])N([H])C(=O)C1([H])N(C(=O)C([H])(N([H])C(=O)C([H])(N([H])C([H])([H])[H])C([H])([H])[H])C(C([H])([H])[H])(C([H])([H])[H])C([H])([H])[H])C([H])([H])c2c([H])c(OC([H])([H])C([H])([H])N([H])C(=O)C3([H])C([H])([H])C([H])(C([H])([H])N([H])C(=O)N4C([H])([H])C([H])([H])C([H])([H])C([H])(n5nc(-c6c([H])c([H])c(Oc7c([H])c([H])c(F)c([H])c7F)c([H])c6[H])c(C(=O)N([H])[H])c5N([H])[H])C4([H])[H])C([H])([N+]([H])([H])C([H])([H])[H])C3([H])[H])c([H])c([H])c2C1([H])[H]

$$$$
85:0:0
     RDKit          3D

 89 96  0  0  1  0  0  0  0  0999 V2000
  -28.7650  -22.3810   20.1900 C   0  0  0  0  0  3  0  0  0  0  0  0
  -29.2460  -23.8990   20.4250 C   0  0  0  0  0  2  0  0  0  0  0  0
  -27.4980  -24.9160   21.9240 C   0  0  0  0  0  1  0  0  0  0  0  0
  -28.0960  -25.0070   20.5070 C   0  0  0  0  0  3  0  0  0  0  0  0
  -28.3580  -26.4520   20.2340 O   0  0  0  0  0  0  0  0  0  0  0  0
  -24.6230  -31.8710   23.2130 C   0  0  0  0  0  0  0  0  0  0  0  0
  -27.2460  -27.3190   20.1570 C   0  0  0  0  0  0  0  0  0  0  0  0
  -23.4140  -30.4670   21.5790 C   0  0  0  0  0  3  0  0  0  0  0  0
  -24.8650  -28.9170   20.1570 C   0  0  0  0  0  0  0  0  0  0  0  0
  -25.9500  -30.7920   21.3890 C   0  0  0  0  0  2  0  0  0  0  0  0
  -26.0360  -29.4150   20.7420 C   0  0  0  0  0  0  0  0  0  0  0  0
  -27.2280  -28.6290   20.7360 C   0  0  0  0  0  3  0  0  0  0  0  0
  -26.0540  -26.8880   19.5280 C   0  0  0  0  0  3  0  0  0  0  0  0
  -24.8760  -27.6560   19.5440 C   0  0  0  0  0  3  0  0  0  0  0  0
  -23.6230  -29.7800   20.2060 C   0  0  0  0  0  2  0  0  0  0  0  0
  -24.6800  -31.0610   22.1160 N   0  0  0  0  0  0  0  0  0  0  0  0
  -23.5420  -32.1520   23.7500 O   0  0  0  0  0  0  0  0  0  0  0  0
  -22.7530  -29.4600   22.5500 C   0  0  0  0  0  0  0  0  0  0  0  0
  -21.4240  -29.2900   22.4320 N   0  0  0  0  0  0  0  0  0  0  0  0
  -23.4330  -28.8300   23.3620 O   0  0  0  0  0  0  0  0  0  0  0  0
  -20.9370  -29.8460   21.7440 H   0  0  0  0  0  0  0  0  0  0  0  0
  -18.0470  -28.0960   22.9380 C   0  0  0  0  0  0  0  0  0  0  0  0
  -20.6070  -28.3470   23.1990 C   0  0  0  0  0  3  0  0  0  0  0  0
  -20.7050  -26.9210   22.6070 C   0  0  0  0  0  2  0  0  0  0  0  0
  -19.5950  -26.6180   21.5960 C   0  0  0  0  0  2  0  0  0  0  0  0
  -18.2170  -26.7530   22.2470 C   0  0  0  0  0  2  0  0  0  0  0  0
  -19.1700  -28.8510   23.3680 C   0  0  0  0  0  0  0  0  0  0  0  0
  -18.9560  -30.1120   23.9660 C   0  0  0  0  0  3  0  0  0  0  0  0
  -17.6530  -30.6180   24.1390 C   0  0  0  0  0  3  0  0  0  0  0  0
  -16.5470  -29.8590   23.7230 C   0  0  0  0  0  3  0  0  0  0  0  0
  -16.7440  -28.6010   23.1280 C   0  0  0  0  0  3  0  0  0  0  0  0
  -25.9100  -32.5020   23.8310 C   0  0  0  0  0  3  0  0  0  0  0  0
  -25.6030  -33.8960   24.1740 N   0  0  0  0  0  0  0  0  0  0  0  0
  -25.9260  -34.9550   23.4180 C   0  0  0  0  0  0  0  0  0  0  0  0
  -26.5850  -34.8600   22.3800 O   0  0  0  0  0  0  0  0  0  0  0  0
  -25.0220  -34.0450   24.9850 H   0  0  0  0  0  0  0  0  0  0  0  0
  -24.1930  -36.7470   23.0940 C   0  0  0  0  0  1  0  0  0  0  0  0
  -25.4410  -36.3390   23.8900 C   0  0  0  0  0  3  0  0  0  0  0  0
  -27.5820  -37.2220   24.7090 C   0  0  0  0  0  1  0  0  0  0  0  0
  -26.4710  -37.3940   23.7760 N   0  0  0  0  0  0  0  0  0  0  0  0
  -26.0660  -38.3130   23.9350 H   0  0  0  0  0  0  0  0  0  0  0  0
  -26.4360  -31.7210   25.0970 C   0  0  1  0  0  0  0  0  0  0  0  0
  -25.3550  -31.4800   26.1740 C   0  0  0  0  0  1  0  0  0  0  0  0
  -27.0160  -30.3460   24.6950 C   0  0  0  0  0  1  0  0  0  0  0  0
  -27.5940  -32.5120   25.7540 C   0  0  0  0  0  1  0  0  0  0  0  0
  -29.6350  -21.1010   20.6490 C   0  0  0  0  0  3  0  0  0  0  0  0
  -27.8250  -19.5930   19.7560 C   0  0  0  0  0  1  0  0  0  0  0  0
  -29.2690  -19.7210   20.0780 N   0  0  2  0  0  4  0  0  0  0  0  0
  -29.7510  -19.6970   19.1910 H   0  0  0  0  0  0  0  0  0  0  0  0
  -29.7360  -18.4630   20.8280 C   0  0  0  0  0  2  0  0  0  0  0  0
  -29.9360  -17.1390   19.9420 C   0  0  0  0  0  2  0  0  0  0  0  0
  -30.6190  -14.6600   20.3010 C   0  0  0  0  0  0  0  0  0  0  0  0
  -30.3680  -12.4200   19.2690 C   0  0  0  0  0  2  0  0  0  0  0  0
  -29.4320  -12.5520   18.0460 C   0  0  0  0  0  2  0  0  0  0  0  0
  -27.9580  -12.4040   18.4710 C   0  0  0  0  0  2  0  0  0  0  0  0
  -27.6020  -13.2780   19.7040 C   0  0  0  0  0  3  0  0  0  0  0  0
  -28.6550  -13.1380   20.8260 C   0  0  0  0  0  2  0  0  0  0  0  0
  -29.9730  -13.4510   20.2520 N   0  0  0  0  0  0  0  0  0  0  0  0
  -31.7740  -14.7830   19.8850 O   0  0  0  0  0  0  0  0  0  0  0  0
  -29.8540  -15.7660   20.5800 N   0  0  0  0  0  0  0  0  0  0  0  0
  -28.9510  -15.5440   20.9700 H   0  0  0  0  0  0  0  0  0  0  0  0
  -25.2140  -13.8920   20.4220 C   0  0  0  0  0  0  0  0  0  0  0  0
  -24.1470  -13.1260   20.8060 C   0  0  0  0  0  0  0  0  0  0  0  0
  -24.6020  -11.7740   20.7840 C   0  0  0  0  0  0  0  0  0  0  0  0
  -26.2530  -13.0040   20.1920 N   0  0  0  0  0  0  0  0  0  0  0  0
  -25.8890  -11.7280   20.4710 N   0  0  0  0  0  0  0  0  0  0  0  0
  -23.8680  -10.5180   20.9870 C   0  0  0  0  0  0  0  0  0  0  0  0
  -24.3040   -9.5540   21.9210 C   0  0  0  0  0  3  0  0  0  0  0  0
  -23.5740   -8.3610   22.1100 C   0  0  0  0  0  3  0  0  0  0  0  0
  -22.3940   -8.1220   21.3650 C   0  0  0  0  0  0  0  0  0  0  0  0
  -21.9780   -9.0770   20.4200 C   0  0  0  0  0  3  0  0  0  0  0  0
  -22.7090  -10.2610   20.2290 C   0  0  0  0  0  3  0  0  0  0  0  0
  -21.6330   -6.9840   21.4680 O   0  0  0  0  0  0  0  0  0  0  0  0
  -21.5940   -6.2450   22.6220 C   0  0  0  0  0  0  0  0  0  0  0  0
  -21.1940   -6.8060   23.8550 C   0  0  0  0  0  3  0  0  0  0  0  0
  -21.1010   -5.9900   25.0000 C   0  0  0  0  0  3  0  0  0  0  0  0
  -21.3980   -4.6180   24.9150 C   0  0  0  0  0  0  0  0  0  0  0  0
  -21.7920   -4.0560   23.6880 C   0  0  0  0  0  3  0  0  0  0  0  0
  -21.8880   -4.8680   22.5430 C   0  0  0  0  0  0  0  0  0  0  0  0
  -22.2470   -4.3180   21.3590 F   0  0  0  0  0  0  0  0  0  0  0  0
  -21.2980   -3.8330   26.0140 F   0  0  0  0  0  0  0  0  0  0  0  0
  -22.7560  -13.6150   21.0790 C   0  0  0  0  0  0  0  0  0  0  0  0
  -22.0240  -12.9310   21.9530 N   0  0  0  0  0  0  0  0  0  0  0  0
  -22.3260  -14.6390   20.5510 O   0  0  0  0  0  0  0  0  0  0  0  0
  -22.3860  -12.1040   22.4060 H   0  0  0  0  0  0  0  0  0  0  0  0
  -21.0900  -13.2420   22.1770 H   0  0  0  0  0  0  0  0  0  0  0  0
  -25.3860  -15.2590   20.2280 N   0  0  0  0  0  0  0  0  0  0  0  0
  -24.6040  -15.9030   20.2820 H   0  0  0  0  0  0  0  0  0  0  0  0
  -26.2190  -15.6780   19.8350 H   0  0  0  0  0  0  0  0  0  0  0  0
  1  2  1  0
  1 46  2  0
  2  4  1  0
  4  3  1  0
  5  4  1  0
  6 17  2  0
  7  5  1  0
  7 12  1  0
  8 16  1  0
  8 18  1  0
  9 15  1  0
  9 11  1  0
 10 16  1  0
 11 10  1  0
 12 11  2  0
 13 14  1  0
 13  7  2  0
 14  9  2  0
 15  8  1  0
 16  6  1  0
 18 20  2  0
 19 18  1  0
 21 19  1  0
 22 31  2  0
 22 27  1  0
 23 19  1  0
 23 27  1  0
 24 23  1  0
 25 26  1  0
 25 24  1  0
 26 22  1  0
 27 28  2  0
 28 29  1  0
 30 29  2  0
 31 30  1  0
 32  6  1  0
 32 33  1  0
 32 42  1  0
 33 36  1  0
 34 38  1  0
 34 33  1  0
 35 34  2  0
 38 37  1  0
 40 38  1  0
 40 41  1  0
 40 39  1  0
 42 45  1  1
 42 43  1  0
 44 42  1  0
 47 48  1  0
 48 46  1  0
 48 50  1  0
 48 49  1  6
 51 60  1  0
 51 50  1  0
 52 60  1  0
 53 58  1  0
 54 55  1  0
 54 53  1  0
 56 55  1  0
 56 65  1  0
 56 57  1  0
 58 52  1  0
 58 57  1  0
 59 52  2  0
 60 61  1  0
 62 63  2  0
 63 82  1  0
 64 63  1  0
 64 67  1  0
 65 62  1  0
 65 66  1  0
 66 64  2  0
 67 68  1  0
 68 69  2  0
 70 73  1  0
 70 69  1  0
 71 70  2  0
 72 71  1  0
 72 67  2  0
 73 74  1  0
 74 75  1  0
 75 76  2  0
 77 76  1  0
 77 81  1  0
 78 77  2  0
 79 74  2  0
 79 78  1  0
 80 79  1  0
 82 83  1  0
 83 86  1  0
 83 85  1  0
 84 82  2  0
 87 88  1  0
 87 62  1  0
 89 87  1  0
M  ISO  4   4 101   5 101  52 100  60 100
M  END
>  <TORSDO>  (86) 
F 22

>  <SCORE>  (86) 
-12.946

>  <name>  (86) 
85

>  <ligand_id>  (86) 
85

>  <original_smiles>  (86) 
[H]c1c([H])c([H])c2c(c1[H])C([H])([H])C([H])([H])C([H])([H])C2([H])N([H])C(=O)C1([H])N(C(=O)C([H])(N([H])C(=O)C([H])(N([H])C([H])([H])[H])C([H])([H])[H])C(C([H])([H])[H])(C([H])([H])[H])C([H])([H])[H])C([H])([H])c2c([H])c(OC([H])(C([H])([H])[H])C([H])([H])C([H])([H])C([H])([H])[N+]([H])(C([H])([H])[H])C([H])([H])C([H])([H])N([H])C(=O)N3C([H])([H])C([H])([H])C([H])([H])C([H])(n4nc(-c5c([H])c([H])c(Oc6c([H])c([H])c(F)c([H])c6F)c([H])c5[H])c(C(=O)N([H])[H])c4N([H])[H])C3([H])[H])c([H])c([H])c2C1([H])[H]

>  <smiles>  (86) 
[H]c1c([H])c([H])c2c(c1[H])C([H])([H])C([H])([H])C([H])([H])C2([H])N([H])C(=O)C1([H])N(C(=O)C([H])(N([H])C(=O)C([H])(N([H])C([H])([H])[H])C([H])([H])[H])C(C([H])([H])[H])(C([H])([H])[H])C([H])([H])[H])C([H])([H])c2c([H])c(OC([H])(C([H])([H])[H])C([H])([H])C([H])([H])C([H])([H])[N+]([H])(C([H])([H])[H])C([H])([H])C([H])([H])N([H])C(=O)N3C([H])([H])C([H])([H])C([H])([H])C([H])(n4nc(-c5c([H])c([H])c(Oc6c([H])c([H])c(F)c([H])c6F)c([H])c5[H])c(C(=O)N([H])[H])c4N([H])[H])C3([H])[H])c([H])c([H])c2C1([H])[H]

$$$$
86:0:0
     RDKit          3D

 93101  0  0  1  0  0  0  0  0999 V2000
  -31.3410  -19.5200   22.4770 C   0  0  0  0  0  2  0  0  0  0  0  0
  -29.9150  -20.0250   22.2480 C   0  0  0  0  0  2  0  0  0  0  0  0
  -30.4720  -18.7580   20.3020 C   0  0  0  0  0  3  0  0  0  0  0  0
  -31.6990  -18.6590   21.2500 C   0  0  0  0  0  3  0  0  0  0  0  0
  -29.6880  -20.0010   20.7840 N   0  0  2  0  0  4  0  0  0  0  0  0
  -28.7220  -19.7380   20.6320 H   0  0  0  0  0  0  0  0  0  0  0  0
  -30.7640  -15.1400   20.2040 C   0  0  0  0  0  0  0  0  0  0  0  0
  -30.7050  -12.8230   19.2380 C   0  0  0  0  0  2  0  0  0  0  0  0
  -29.7240  -12.8360   18.0410 C   0  0  0  0  0  2  0  0  0  0  0  0
  -28.2650  -12.6200   18.5010 C   0  0  0  0  0  2  0  0  0  0  0  0
  -27.8900  -13.5070   19.7170 C   0  0  0  0  0  3  0  0  0  0  0  0
  -28.9820  -13.4390   20.8120 C   0  0  0  0  0  2  0  0  0  0  0  0
  -30.2570  -13.8550   20.1970 N   0  0  0  0  0  0  0  0  0  0  0  0
  -31.9200  -15.3690   19.8360 O   0  0  0  0  0  0  0  0  0  0  0  0
  -29.5400  -17.4610   20.3850 C   0  0  0  0  0  0  0  0  0  0  0  0
  -29.7930  -16.0940   20.4250 N   0  0  0  0  0  0  0  0  0  0  0  0
  -28.3390  -17.7380   20.4450 O   0  0  0  0  0  0  0  0  0  0  0  0
  -28.9290  -15.6150   20.6020 H   0  0  0  0  0  0  0  0  0  0  0  0
  -25.5170  -14.0590   20.5310 C   0  0  0  0  0  0  0  0  0  0  0  0
  -24.4720  -13.2620   20.9130 C   0  0  0  0  0  0  0  0  0  0  0  0
  -24.9460  -11.9180   20.8280 C   0  0  0  0  0  0  0  0  0  0  0  0
  -26.5620  -13.1970   20.2380 N   0  0  0  0  0  0  0  0  0  0  0  0
  -26.2270  -11.9030   20.4770 N   0  0  0  0  0  0  0  0  0  0  0  0
  -24.2370  -10.6430   21.0030 C   0  0  0  0  0  0  0  0  0  0  0  0
  -24.6620   -9.6890   21.9550 C   0  0  0  0  0  3  0  0  0  0  0  0
  -23.9550   -8.4780   22.1190 C   0  0  0  0  0  3  0  0  0  0  0  0
  -22.8070   -8.2130   21.3320 C   0  0  0  0  0  0  0  0  0  0  0  0
  -22.4040   -9.1550   20.3690 C   0  0  0  0  0  3  0  0  0  0  0  0
  -23.1120  -10.3580   20.2030 C   0  0  0  0  0  3  0  0  0  0  0  0
  -22.0720   -7.0560   21.4070 O   0  0  0  0  0  0  0  0  0  0  0  0
  -21.9430   -6.3590   22.5810 C   0  0  0  0  0  0  0  0  0  0  0  0
  -21.3490   -6.9330   23.7280 C   0  0  0  0  0  3  0  0  0  0  0  0
  -21.1750   -6.1570   24.8920 C   0  0  0  0  0  3  0  0  0  0  0  0
  -21.5820   -4.8090   24.9090 C   0  0  0  0  0  0  0  0  0  0  0  0
  -22.1660   -4.2350   23.7660 C   0  0  0  0  0  3  0  0  0  0  0  0
  -22.3430   -5.0080   22.6050 C   0  0  0  0  0  0  0  0  0  0  0  0
  -22.8870   -4.4450   21.4990 F   0  0  0  0  0  0  0  0  0  0  0  0
  -21.4050   -4.0610   26.0240 F   0  0  0  0  0  0  0  0  0  0  0  0
  -23.0780  -13.7140   21.2450 C   0  0  0  0  0  0  0  0  0  0  0  0
  -22.3870  -12.9840   22.1150 N   0  0  0  0  0  0  0  0  0  0  0  0
  -22.6110  -14.7490   20.7700 O   0  0  0  0  0  0  0  0  0  0  0  0
  -22.7770  -12.1460   22.5230 H   0  0  0  0  0  0  0  0  0  0  0  0
  -21.4530  -13.2650   22.3750 H   0  0  0  0  0  0  0  0  0  0  0  0
  -25.6590  -15.4380   20.3930 N   0  0  0  0  0  0  0  0  0  0  0  0
  -24.8880  -16.0730   20.5610 H   0  0  0  0  0  0  0  0  0  0  0  0
  -26.4940  -15.9180   20.0800 H   0  0  0  0  0  0  0  0  0  0  0  0
  -34.2010  -19.1050   21.6130 C   0  0  0  0  0  1  0  0  0  0  0  0
  -33.0350  -19.1030   20.6110 C   0  0  0  0  0  2  0  0  0  0  0  0
  -29.8790  -21.3940   20.1350 C   0  0  0  0  0  3  0  0  0  0  0  0
  -28.9380  -22.6380   20.6170 C   0  0  0  0  0  3  0  0  0  0  0  0
  -29.1490  -24.1570   20.0760 C   0  0  0  0  0  3  0  0  0  0  0  0
  -28.1400  -25.3320   20.5470 C   0  0  0  0  0  3  0  0  0  0  0  0
  -28.3490  -26.7740   20.1870 O   0  0  0  0  0  0  0  0  0  0  0  0
  -24.6530  -32.1060   23.4320 C   0  0  0  0  0  0  0  0  0  0  0  0
  -27.2360  -27.6450   20.1960 C   0  0  0  0  0  0  0  0  0  0  0  0
  -23.4340  -30.7720   21.7460 C   0  0  0  0  0  3  0  0  0  0  0  0
  -24.8730  -29.2750   20.2510 C   0  0  0  0  0  0  0  0  0  0  0  0
  -25.9740  -31.0940   21.5560 C   0  0  0  0  0  2  0  0  0  0  0  0
  -26.0480  -29.7400   20.8560 C   0  0  0  0  0  0  0  0  0  0  0  0
  -27.2360  -28.9430   20.8070 C   0  0  0  0  0  3  0  0  0  0  0  0
  -26.0400  -27.2460   19.5620 C   0  0  0  0  0  3  0  0  0  0  0  0
  -24.8750  -28.0370   19.5910 C   0  0  0  0  0  3  0  0  0  0  0  0
  -23.6360  -30.1500   20.3390 C   0  0  0  0  0  2  0  0  0  0  0  0
  -24.7060  -31.3400   22.3020 N   0  0  0  0  0  0  0  0  0  0  0  0
  -23.5750  -32.3640   23.9860 O   0  0  0  0  0  0  0  0  0  0  0  0
  -22.7750  -29.7230   22.6750 C   0  0  0  0  0  0  0  0  0  0  0  0
  -21.4650  -29.4840   22.4890 N   0  0  0  0  0  0  0  0  0  0  0  0
  -23.4450  -29.1260   23.5210 O   0  0  0  0  0  0  0  0  0  0  0  0
  -20.9810  -30.0250   21.7880 H   0  0  0  0  0  0  0  0  0  0  0  0
  -18.1530  -28.0510   22.7670 C   0  0  0  0  0  0  0  0  0  0  0  0
  -20.6590  -28.5030   23.2190 C   0  0  0  0  0  3  0  0  0  0  0  0
  -20.9030  -27.0690   22.6910 C   0  0  0  0  0  2  0  0  0  0  0  0
  -19.9080  -26.6470   21.6050 C   0  0  0  0  0  2  0  0  0  0  0  0
  -18.4740  -26.7040   22.1390 C   0  0  0  0  0  2  0  0  0  0  0  0
  -19.1790  -28.9020   23.2600 C   0  0  0  0  0  0  0  0  0  0  0  0
  -18.8260  -30.1570   23.8010 C   0  0  0  0  0  3  0  0  0  0  0  0
  -17.4800  -30.5650   23.8560 C   0  0  0  0  0  3  0  0  0  0  0  0
  -16.4690  -29.7130   23.3820 C   0  0  0  0  0  3  0  0  0  0  0  0
  -16.8040  -28.4580   22.8440 C   0  0  0  0  0  3  0  0  0  0  0  0
  -25.9430  -32.7150   24.0660 C   0  0  0  0  0  3  0  0  0  0  0  0
  -25.6690  -34.1290   24.3600 N   0  0  0  0  0  0  0  0  0  0  0  0
  -26.0650  -35.1590   23.5990 C   0  0  0  0  0  0  0  0  0  0  0  0
  -26.7700  -35.0150   22.5970 O   0  0  0  0  0  0  0  0  0  0  0  0
  -25.0520  -34.3150   25.1380 H   0  0  0  0  0  0  0  0  0  0  0  0
  -24.4270  -37.0140   23.1440 C   0  0  0  0  0  1  0  0  0  0  0  0
  -25.6100  -36.5720   24.0190 C   0  0  0  0  0  3  0  0  0  0  0  0
  -27.7330  -37.3880   24.9460 C   0  0  0  0  0  1  0  0  0  0  0  0
  -26.6870  -37.5830   23.9460 N   0  0  0  0  0  0  0  0  0  0  0  0
  -26.3090  -38.5200   24.0610 H   0  0  0  0  0  0  0  0  0  0  0  0
  -26.4090  -31.9580   25.3700 C   0  0  1  0  0  0  0  0  0  0  0  0
  -25.2830  -31.7470   26.4080 C   0  0  0  0  0  1  0  0  0  0  0  0
  -26.9920  -30.5690   25.0220 C   0  0  0  0  0  1  0  0  0  0  0  0
  -27.5450  -32.7530   26.0570 C   0  0  0  0  0  1  0  0  0  0  0  0
  2  1  1  0
  3 15  1  0
  3  5  1  0
  3  4  1  0
  4 48  1  0
  4  1  1  0
  5  2  1  0
  5  6  1  1
  7 16  1  0
  8 13  1  0
  9 10  1  0
  9  8  1  0
 11 10  1  0
 11 22  1  0
 11 12  1  0
 13  7  1  0
 13 12  1  0
 14  7  2  0
 15 16  1  0
 15 17  2  0
 16 18  1  0
 19 20  2  0
 20 39  1  0
 21 20  1  0
 21 24  1  0
 22 23  1  0
 22 19  1  0
 23 21  2  0
 24 25  1  0
 25 26  2  0
 27 30  1  0
 27 26  1  0
 28 27  2  0
 29 28  1  0
 29 24  2  0
 30 31  1  0
 31 36  2  0
 31 32  1  0
 32 33  2  0
 33 34  1  0
 34 38  1  0
 35 34  2  0
 36 35  1  0
 37 36  1  0
 39 40  1  0
 40 43  1  0
 40 42  1  0
 41 39  2  0
 44 19  1  0
 44 45  1  0
 46 44  1  0
 48 47  1  0
 49 50  2  0
 49  5  1  0
 51 52  2  0
 51 50  1  0
 53 55  1  0
 53 52  1  0
 54 65  2  0
 55 60  1  0
 56 64  1  0
 56 66  1  0
 57 63  1  0
 57 59  1  0
 58 64  1  0
 59 58  1  0
 60 59  2  0
 61 62  1  0
 61 55  2  0
 62 57  2  0
 63 56  1  0
 64 54  1  0
 66 68  2  0
 67 66  1  0
 69 67  1  0
 70 79  2  0
 70 75  1  0
 71 67  1  0
 71 75  1  0
 72 71  1  0
 73 74  1  0
 73 72  1  0
 74 70  1  0
 75 76  2  0
 76 77  1  0
 78 77  2  0
 79 78  1  0
 80 54  1  0
 80 81  1  0
 80 90  1  0
 81 84  1  0
 82 86  1  0
 82 81  1  0
 83 82  2  0
 86 85  1  0
 88 86  1  0
 88 89  1  0
 88 87  1  0
 90 93  1  1
 90 91  1  0
 92 90  1  0
M  ISO  4   7 100  16 100  52 101  53 101
M  END
>  <TORSDO>  (87) 
F 21

>  <SCORE>  (87) 
-12.610

>  <name>  (87) 
86

>  <ligand_id>  (87) 
86

>  <original_smiles>  (87) 
[H]c1c([H])c([H])c2c(c1[H])C([H])([H])C([H])([H])C([H])([H])C2([H])N([H])C(=O)C1([H])N(C(=O)C([H])(N([H])C(=O)C([H])(N([H])C([H])([H])[H])C([H])([H])[H])C(C([H])([H])[H])(C([H])([H])[H])C([H])([H])[H])C([H])([H])c2c([H])c(OC([H])([H])C([H])([H])C([H])([H])C([H])([H])[N+]3([H])C([H])([H])C([H])([H])C([H])(C([H])([H])C([H])([H])[H])C3([H])C(=O)N([H])C(=O)N3C([H])([H])C([H])([H])C([H])([H])C([H])(n4nc(-c5c([H])c([H])c(Oc6c([H])c([H])c(F)c([H])c6F)c([H])c5[H])c(C(=O)N([H])[H])c4N([H])[H])C3([H])[H])c([H])c([H])c2C1([H])[H]

>  <smiles>  (87) 
[H]c1c([H])c([H])c2c(c1[H])C([H])([H])C([H])([H])C([H])([H])C2([H])N([H])C(=O)C1([H])N(C(=O)C([H])(N([H])C(=O)C([H])(N([H])C([H])([H])[H])C([H])([H])[H])C(C([H])([H])[H])(C([H])([H])[H])C([H])([H])[H])C([H])([H])c2c([H])c(OC([H])([H])C([H])([H])C([H])([H])C([H])([H])[N+]3([H])C([H])([H])C([H])([H])C([H])(C([H])([H])C([H])([H])[H])C3([H])C(=O)N([H])C(=O)N3C([H])([H])C([H])([H])C([H])([H])C([H])(n4nc(-c5c([H])c([H])c(Oc6c([H])c([H])c(F)c([H])c6F)c([H])c5[H])c(C(=O)N([H])[H])c4N([H])[H])C3([H])[H])c([H])c([H])c2C1([H])[H]

$$$$
87:0:0
     RDKit          3D

 91 99  0  0  1  0  0  0  0  0999 V2000
  -28.9510  -22.4250   19.8330 N   0  0  0  0  0  4  0  0  0  0  0  0
  -28.3650  -22.2770   19.0260 H   0  0  0  0  0  0  0  0  0  0  0  0
  -29.8840  -22.5620   19.4760 H   0  0  0  0  0  0  0  0  0  0  0  0
  -28.9760  -21.0890   20.5930 C   0  0  0  0  0  2  0  0  0  0  0  0
  -29.5150  -19.8300   19.7680 C   0  0  0  0  0  0  0  0  0  0  0  0
  -29.9870  -20.0190   18.6430 O   0  0  0  0  0  0  0  0  0  0  0  0
  -30.7400  -14.7390   19.6670 C   0  0  0  0  0  0  0  0  0  0  0  0
  -30.3650  -12.5490   18.5200 C   0  0  0  0  0  2  0  0  0  0  0  0
  -29.2820  -12.7120   17.4310 C   0  0  0  0  0  2  0  0  0  0  0  0
  -27.8750  -12.5190   18.0300 C   0  0  0  0  0  2  0  0  0  0  0  0
  -27.6720  -13.3260   19.3400 C   0  0  0  0  0  3  0  0  0  0  0  0
  -28.8570  -13.1500   20.3090 C   0  0  0  0  0  2  0  0  0  0  0  0
  -30.0770  -13.5340   19.5880 N   0  0  0  0  0  0  0  0  0  0  0  0
  -31.8390  -14.8690   19.1160 O   0  0  0  0  0  0  0  0  0  0  0  0
  -30.5030  -17.9840   21.3880 C   0  0  0  0  0  2  0  0  0  0  0  0
  -29.6700  -17.0680   19.4000 C   0  0  0  0  0  2  0  0  0  0  0  0
  -29.4470  -18.3320   20.3440 C   0  0  0  0  0  3  0  0  0  0  0  0
  -30.5300  -16.4290   21.4880 C   0  0  0  0  0  3  0  0  0  0  0  0
  -29.6430  -15.9320   22.6420 C   0  0  0  0  0  1  0  0  0  0  0  0
  -30.0850  -15.8500   20.1980 N   0  0  0  0  0  0  0  0  0  0  0  0
  -25.4130  -13.8800   20.4210 C   0  0  0  0  0  0  0  0  0  0  0  0
  -24.3880  -13.0880   20.8630 C   0  0  0  0  0  0  0  0  0  0  0  0
  -24.8150  -11.7400   20.6630 C   0  0  0  0  0  0  0  0  0  0  0  0
  -26.3980  -13.0130   19.9780 N   0  0  0  0  0  0  0  0  0  0  0  0
  -26.0540  -11.7150   20.1850 N   0  0  0  0  0  0  0  0  0  0  0  0
  -24.0940  -10.4740   20.8450 C   0  0  0  0  0  0  0  0  0  0  0  0
  -24.6160   -9.4340   21.6470 C   0  0  0  0  0  3  0  0  0  0  0  0
  -23.8940   -8.2340   21.8220 C   0  0  0  0  0  3  0  0  0  0  0  0
  -22.6370   -8.0640   21.1960 C   0  0  0  0  0  0  0  0  0  0  0  0
  -22.1320   -9.0930   20.3800 C   0  0  0  0  0  3  0  0  0  0  0  0
  -22.8540  -10.2850   20.2020 C   0  0  0  0  0  3  0  0  0  0  0  0
  -21.8760   -6.9230   21.2870 O   0  0  0  0  0  0  0  0  0  0  0  0
  -21.9350   -6.1050   22.3870 C   0  0  0  0  0  0  0  0  0  0  0  0
  -21.6730   -6.5860   23.6880 C   0  0  0  0  0  3  0  0  0  0  0  0
  -21.6760   -5.6970   24.7820 C   0  0  0  0  0  3  0  0  0  0  0  0
  -21.9330   -4.3290   24.5770 C   0  0  0  0  0  0  0  0  0  0  0  0
  -22.1900   -3.8470   23.2810 C   0  0  0  0  0  3  0  0  0  0  0  0
  -22.1880   -4.7330   22.1890 C   0  0  0  0  0  0  0  0  0  0  0  0
  -22.4150   -4.2600   20.9400 F   0  0  0  0  0  0  0  0  0  0  0  0
  -21.9290   -3.4730   25.6250 F   0  0  0  0  0  0  0  0  0  0  0  0
  -23.0480  -13.5560   21.3530 C   0  0  0  0  0  0  0  0  0  0  0  0
  -22.4340  -12.8070   22.2630 N   0  0  0  0  0  0  0  0  0  0  0  0
  -22.5600  -14.6160   20.9650 O   0  0  0  0  0  0  0  0  0  0  0  0
  -22.8440  -11.9470   22.5960 H   0  0  0  0  0  0  0  0  0  0  0  0
  -21.5400  -13.0990   22.6330 H   0  0  0  0  0  0  0  0  0  0  0  0
  -25.5820  -15.2590   20.3370 N   0  0  0  0  0  0  0  0  0  0  0  0
  -24.8560  -15.9120   20.6100 H   0  0  0  0  0  0  0  0  0  0  0  0
  -26.4060  -15.7130   19.9650 H   0  0  0  0  0  0  0  0  0  0  0  0
  -28.4970  -23.7140   20.5520 C   0  0  0  0  0  3  0  0  0  0  0  0
  -28.4430  -25.0900   19.7050 C   0  0  0  0  0  3  0  0  0  0  0  0
  -28.3130  -26.4370   20.3560 O   0  0  0  0  0  0  0  0  0  0  0  0
  -24.5910  -31.9120   23.2670 C   0  0  0  0  0  0  0  0  0  0  0  0
  -27.1840  -27.2780   20.2660 C   0  0  0  0  0  0  0  0  0  0  0  0
  -23.3910  -30.5180   21.6220 C   0  0  0  0  0  3  0  0  0  0  0  0
  -24.8380  -28.9390   20.2210 C   0  0  0  0  0  0  0  0  0  0  0  0
  -25.9370  -30.7980   21.4680 C   0  0  0  0  0  2  0  0  0  0  0  0
  -26.0060  -29.4120   20.8290 C   0  0  0  0  0  0  0  0  0  0  0  0
  -27.1770  -28.5930   20.8410 C   0  0  0  0  0  3  0  0  0  0  0  0
  -25.9860  -26.8600   19.6440 C   0  0  0  0  0  3  0  0  0  0  0  0
  -24.8320  -27.6690   19.6200 C   0  0  0  0  0  3  0  0  0  0  0  0
  -23.6120  -29.8310   20.2480 C   0  0  0  0  0  2  0  0  0  0  0  0
  -24.6580  -31.0950   22.1760 N   0  0  0  0  0  0  0  0  0  0  0  0
  -23.5040  -32.2070   23.7880 O   0  0  0  0  0  0  0  0  0  0  0  0
  -22.7050  -29.5160   22.5820 C   0  0  0  0  0  0  0  0  0  0  0  0
  -21.3780  -29.3550   22.4440 N   0  0  0  0  0  0  0  0  0  0  0  0
  -23.3670  -28.8860   23.4100 O   0  0  0  0  0  0  0  0  0  0  0  0
  -20.9030  -29.9130   21.7480 H   0  0  0  0  0  0  0  0  0  0  0  0
  -17.9830  -28.1930   22.9060 C   0  0  0  0  0  0  0  0  0  0  0  0
  -20.5390  -28.4330   23.2120 C   0  0  0  0  0  3  0  0  0  0  0  0
  -20.6380  -26.9950   22.6520 C   0  0  0  0  0  2  0  0  0  0  0  0
  -19.5480  -26.6720   21.6250 C   0  0  0  0  0  2  0  0  0  0  0  0
  -18.1590  -26.8360   22.2460 C   0  0  0  0  0  2  0  0  0  0  0  0
  -19.1020  -28.9500   23.3450 C   0  0  0  0  0  0  0  0  0  0  0  0
  -18.8850  -30.2200   23.9220 C   0  0  0  0  0  3  0  0  0  0  0  0
  -17.5810  -30.7330   24.0630 C   0  0  0  0  0  3  0  0  0  0  0  0
  -16.4770  -29.9740   23.6400 C   0  0  0  0  0  3  0  0  0  0  0  0
  -16.6790  -28.7060   23.0670 C   0  0  0  0  0  3  0  0  0  0  0  0
  -25.8730  -32.5360   23.9010 C   0  0  0  0  0  3  0  0  0  0  0  0
  -26.3670  -31.7660   25.1880 C   0  0  1  0  0  0  0  0  0  0  0  0
  -25.2570  -31.5450   26.2440 C   0  0  0  0  0  1  0  0  0  0  0  0
  -26.9410  -30.3800   24.8120 C   0  0  0  0  0  1  0  0  0  0  0  0
  -27.5180  -32.5520   25.8590 C   0  0  0  0  0  1  0  0  0  0  0  0
  -25.5730  -33.9380   24.2220 N   0  0  0  0  0  0  0  0  0  0  0  0
  -25.9190  -34.9860   23.4610 C   0  0  0  0  0  0  0  0  0  0  0  0
  -26.5950  -34.8710   22.4340 O   0  0  0  0  0  0  0  0  0  0  0  0
  -24.9730  -34.1010   25.0170 H   0  0  0  0  0  0  0  0  0  0  0  0
  -24.2080  -36.7930   23.0950 C   0  0  0  0  0  1  0  0  0  0  0  0
  -25.4450  -36.3800   23.9100 C   0  0  0  0  0  3  0  0  0  0  0  0
  -27.5880  -37.2490   24.7370 C   0  0  0  0  0  1  0  0  0  0  0  0
  -26.4860  -37.4240   23.7940 N   0  0  0  0  0  0  0  0  0  0  0  0
  -26.0890  -38.3490   23.9380 H   0  0  0  0  0  0  0  0  0  0  0  0
  1 49  1  0
  1  4  1  0
  2  1  1  0
  3  1  1  0
  5  4  1  0
  6  5  2  0
  7 20  1  0
  8 13  1  0
  9 10  1  0
  9  8  1  0
 11 10  1  0
 11 24  1  0
 11 12  1  0
 13  7  1  0
 13 12  1  0
 14  7  2  0
 15 18  1  0
 16 20  1  0
 16 17  1  0
 17  5  1  0
 17 15  1  0
 18 19  1  0
 20 18  1  0
 21 22  2  0
 22 41  1  0
 23 26  1  0
 23 22  1  0
 24 25  1  0
 24 21  1  0
 25 23  2  0
 26 27  1  0
 27 28  2  0
 29 32  1  0
 29 28  1  0
 30 29  2  0
 31 30  1  0
 31 26  2  0
 32 33  1  0
 33 34  1  0
 34 35  2  0
 36 35  1  0
 36 40  1  0
 37 36  2  0
 38 33  2  0
 38 37  1  0
 39 38  1  0
 41 42  1  0
 42 44  1  0
 42 45  1  0
 43 41  2  0
 46 21  1  0
 46 47  1  0
 48 46  1  0
 50 51  1  0
 50 49  2  0
 52 63  2  0
 53 51  1  0
 53 58  1  0
 54 62  1  0
 54 64  1  0
 55 61  1  0
 55 57  1  0
 56 62  1  0
 57 58  2  0
 57 56  1  0
 59 53  2  0
 60 59  1  0
 60 55  2  0
 61 54  1  0
 62 52  1  0
 64 66  2  0
 65 64  1  0
 67 65  1  0
 68 77  2  0
 68 73  1  0
 69 65  1  0
 69 73  1  0
 70 69  1  0
 71 72  1  0
 71 70  1  0
 72 68  1  0
 73 74  2  0
 74 75  1  0
 76 75  2  0
 77 76  1  0
 78 52  1  0
 78 83  1  0
 78 79  1  0
 79 82  1  1
 79 80  1  0
 81 79  1  0
 83 86  1  0
 84 88  1  0
 84 83  1  0
 85 84  2  0
 88 87  1  0
 90 88  1  0
 90 91  1  0
 90 89  1  0
M  ISO  4   7 100  20 100  50 101  51 101
M  END
>  <TORSDO>  (88) 
F 20

>  <SCORE>  (88) 
-11.102

>  <name>  (88) 
87

>  <ligand_id>  (88) 
87

>  <original_smiles>  (88) 
[H]c1c([H])c([H])c2c(c1[H])C([H])([H])C([H])([H])C([H])([H])C2([H])N([H])C(=O)C1([H])N(C(=O)C([H])(N([H])C(=O)C([H])(N([H])C([H])([H])[H])C([H])([H])[H])C(C([H])([H])[H])(C([H])([H])[H])C([H])([H])[H])C([H])([H])c2c([H])c(OC([H])([H])C([H])([H])[N+]([H])([H])C([H])([H])C(=O)C3([H])C([H])([H])N(C(=O)N4C([H])([H])C([H])([H])C([H])([H])C([H])(n5nc(-c6c([H])c([H])c(Oc7c([H])c([H])c(F)c([H])c7F)c([H])c6[H])c(C(=O)N([H])[H])c5N([H])[H])C4([H])[H])C([H])(C([H])([H])[H])C3([H])[H])c([H])c([H])c2C1([H])[H]

>  <smiles>  (88) 
[H]c1c([H])c([H])c2c(c1[H])C([H])([H])C([H])([H])C([H])([H])C2([H])N([H])C(=O)C1([H])N(C(=O)C([H])(N([H])C(=O)C([H])(N([H])C([H])([H])[H])C([H])([H])[H])C(C([H])([H])[H])(C([H])([H])[H])C([H])([H])[H])C([H])([H])c2c([H])c(OC([H])([H])C([H])([H])[N+]([H])([H])C([H])([H])C(=O)C3([H])C([H])([H])N(C(=O)N4C([H])([H])C([H])([H])C([H])([H])C([H])(n5nc(-c6c([H])c([H])c(Oc7c([H])c([H])c(F)c([H])c7F)c([H])c6[H])c(C(=O)N([H])[H])c5N([H])[H])C4([H])[H])C([H])(C([H])([H])[H])C3([H])[H])c([H])c([H])c2C1([H])[H]

$$$$
88:0:0
     RDKit          3D

 96104  0  0  1  0  0  0  0  0999 V2000
  -29.0160  -22.4220   20.8410 C   0  0  0  0  0  2  0  0  0  0  0  0
  -26.7510  -22.9590   21.9170 C   0  0  0  0  0  1  0  0  0  0  0  0
  -27.7570  -23.3360   20.8080 C   0  0  0  0  0  3  0  0  0  0  0  0
  -28.0170  -24.8710   20.9040 C   0  0  0  0  0  2  0  0  0  0  0  0
  -30.3330  -25.5300   20.0940 C   0  0  0  0  0  1  0  0  0  0  0  0
  -28.6010  -25.0830   18.3620 C   0  0  0  0  0  1  0  0  0  0  0  0
  -28.8240  -25.6140   19.7960 C   0  0  1  0  0  0  0  0  0  0  0  0
  -28.6160  -27.0400   19.9150 O   0  0  0  0  0  0  0  0  0  0  0  0
  -24.6030  -31.8820   23.2630 C   0  0  0  0  0  0  0  0  0  0  0  0
  -27.3760  -27.6600   19.9680 C   0  0  0  0  0  0  0  0  0  0  0  0
  -23.4340  -30.5180   21.5650 C   0  0  0  0  0  3  0  0  0  0  0  0
  -24.9260  -29.0840   20.0790 C   0  0  0  0  0  0  0  0  0  0  0  0
  -25.9460  -30.9620   21.3710 C   0  0  0  0  0  2  0  0  0  0  0  0
  -26.0720  -29.6210   20.6750 C   0  0  0  0  0  0  0  0  0  0  0  0
  -27.2970  -28.9170   20.6130 C   0  0  0  0  0  3  0  0  0  0  0  0
  -26.2020  -27.1340   19.3830 C   0  0  0  0  0  3  0  0  0  0  0  0
  -24.9850  -27.8370   19.4340 C   0  0  0  0  0  3  0  0  0  0  0  0
  -23.6570  -29.8990   20.1610 C   0  0  0  0  0  2  0  0  0  0  0  0
  -24.6810  -31.1310   22.1260 N   0  0  0  0  0  0  0  0  0  0  0  0
  -23.5150  -32.1010   23.8130 O   0  0  0  0  0  0  0  0  0  0  0  0
  -22.8150  -29.4380   22.4820 C   0  0  0  0  0  0  0  0  0  0  0  0
  -21.4990  -29.2120   22.3350 N   0  0  0  0  0  0  0  0  0  0  0  0
  -23.5160  -28.8080   23.2790 O   0  0  0  0  0  0  0  0  0  0  0  0
  -20.9910  -29.7760   21.6690 H   0  0  0  0  0  0  0  0  0  0  0  0
  -18.1690  -27.8770   22.7540 C   0  0  0  0  0  0  0  0  0  0  0  0
  -20.7130  -28.2140   23.0610 C   0  0  0  0  0  3  0  0  0  0  0  0
  -20.8710  -26.8130   22.4270 C   0  0  0  0  0  2  0  0  0  0  0  0
  -19.7890  -26.4930   21.3900 C   0  0  0  0  0  2  0  0  0  0  0  0
  -18.3990  -26.5630   22.0280 C   0  0  0  0  0  2  0  0  0  0  0  0
  -19.2560  -28.6610   23.2240 C   0  0  0  0  0  0  0  0  0  0  0  0
  -18.9890  -29.8920   23.8620 C   0  0  0  0  0  3  0  0  0  0  0  0
  -17.6650  -30.3410   24.0320 C   0  0  0  0  0  3  0  0  0  0  0  0
  -16.5910  -29.5550   23.5790 C   0  0  0  0  0  3  0  0  0  0  0  0
  -16.8450  -28.3250   22.9470 C   0  0  0  0  0  3  0  0  0  0  0  0
  -25.8710  -32.5220   23.9090 C   0  0  0  0  0  3  0  0  0  0  0  0
  -25.5510  -33.9230   24.2140 N   0  0  0  0  0  0  0  0  0  0  0  0
  -25.9120  -34.9670   23.4560 C   0  0  0  0  0  0  0  0  0  0  0  0
  -26.6150  -34.8520   22.4490 O   0  0  0  0  0  0  0  0  0  0  0  0
  -24.9170  -34.0870   24.9820 H   0  0  0  0  0  0  0  0  0  0  0  0
  -24.2010  -36.7600   23.0290 C   0  0  0  0  0  1  0  0  0  0  0  0
  -25.4120  -36.3590   23.8850 C   0  0  0  0  0  3  0  0  0  0  0  0
  -27.5160  -37.2480   24.7880 C   0  0  0  0  0  1  0  0  0  0  0  0
  -26.4490  -37.4090   23.8030 N   0  0  0  0  0  0  0  0  0  0  0  0
  -26.0390  -38.3300   23.9270 H   0  0  0  0  0  0  0  0  0  0  0  0
  -26.3610  -31.7640   25.2040 C   0  0  1  0  0  0  0  0  0  0  0  0
  -25.2430  -31.5290   26.2450 C   0  0  0  0  0  1  0  0  0  0  0  0
  -26.9620  -30.3870   24.8350 C   0  0  0  0  0  1  0  0  0  0  0  0
  -27.4870  -32.5740   25.8890 C   0  0  0  0  0  1  0  0  0  0  0  0
  -28.7210  -20.9110   21.0750 C   0  0  0  0  0  2  0  0  0  0  0  0
  -31.1310  -20.3200   20.6740 C   0  0  0  0  0  2  0  0  0  0  0  0
  -29.5290  -18.5580   20.8560 C   0  0  0  0  0  2  0  0  0  0  0  0
  -31.8780  -19.0190   21.0200 C   0  0  0  0  0  3  0  0  0  0  0  0
  -30.9000  -17.8810   20.6870 C   0  0  0  0  0  3  0  0  0  0  0  0
  -29.7080  -19.9770   20.4650 N   0  0  1  0  0  4  0  0  0  0  0  0
  -29.5670  -20.0070   19.4650 H   0  0  0  0  0  0  0  0  0  0  0  0
  -34.2440  -19.9630   20.7730 C   0  0  0  0  0  1  0  0  0  0  0  0
  -33.2450  -18.8930   20.3180 C   0  0  0  0  0  2  0  0  0  0  0  0
  -31.1170  -16.6270   21.5780 C   0  0  0  0  0  2  0  0  0  0  0  0
  -30.8510  -14.5640   20.2120 C   0  0  0  0  0  0  0  0  0  0  0  0
  -30.4700  -12.4370   19.0240 C   0  0  0  0  0  2  0  0  0  0  0  0
  -29.4990  -12.6260   17.8450 C   0  0  0  0  0  2  0  0  0  0  0  0
  -28.0380  -12.4910   18.3140 C   0  0  0  0  0  2  0  0  0  0  0  0
  -27.7330  -13.3530   19.5680 C   0  0  0  0  0  3  0  0  0  0  0  0
  -28.8090  -13.1420   20.6560 C   0  0  0  0  0  2  0  0  0  0  0  0
  -30.1300  -13.4220   20.0630 N   0  0  0  0  0  0  0  0  0  0  0  0
  -31.8730  -14.8080   19.5670 O   0  0  0  0  0  0  0  0  0  0  0  0
  -30.3950  -15.4300   21.1310 N   0  0  0  0  0  0  0  0  0  0  0  0
  -29.5650  -15.1590   21.6380 H   0  0  0  0  0  0  0  0  0  0  0  0
  -25.3610  -13.9780   20.3500 C   0  0  0  0  0  0  0  0  0  0  0  0
  -24.2940  -13.2110   20.7380 C   0  0  0  0  0  0  0  0  0  0  0  0
  -24.7390  -11.8550   20.6740 C   0  0  0  0  0  0  0  0  0  0  0  0
  -26.3890  -13.0880   20.0790 N   0  0  0  0  0  0  0  0  0  0  0  0
  -26.0180  -11.8070   20.3290 N   0  0  0  0  0  0  0  0  0  0  0  0
  -24.0040  -10.5980   20.8670 C   0  0  0  0  0  0  0  0  0  0  0  0
  -24.3890   -9.6630   21.8530 C   0  0  0  0  0  3  0  0  0  0  0  0
  -23.6570   -8.4690   22.0300 C   0  0  0  0  0  3  0  0  0  0  0  0
  -22.5270   -8.2030   21.2200 C   0  0  0  0  0  0  0  0  0  0  0  0
  -22.1630   -9.1270   20.2260 C   0  0  0  0  0  3  0  0  0  0  0  0
  -22.8960  -10.3120   20.0460 C   0  0  0  0  0  3  0  0  0  0  0  0
  -21.7720   -7.0580   21.3050 O   0  0  0  0  0  0  0  0  0  0  0  0
  -21.5940   -6.3980   22.4940 C   0  0  0  0  0  0  0  0  0  0  0  0
  -20.9920   -7.0210   23.6090 C   0  0  0  0  0  3  0  0  0  0  0  0
  -20.7660   -6.2860   24.7910 C   0  0  0  0  0  3  0  0  0  0  0  0
  -21.1300   -4.9280   24.8540 C   0  0  0  0  0  0  0  0  0  0  0  0
  -21.7240   -4.3040   23.7440 C   0  0  0  0  0  3  0  0  0  0  0  0
  -21.9520   -5.0360   22.5660 C   0  0  0  0  0  0  0  0  0  0  0  0
  -22.5050   -4.4250   21.4910 F   0  0  0  0  0  0  0  0  0  0  0  0
  -20.9060   -4.2180   25.9860 F   0  0  0  0  0  0  0  0  0  0  0  0
  -22.9110  -13.6990   21.0580 C   0  0  0  0  0  0  0  0  0  0  0  0
  -22.1960  -12.9900   21.9250 N   0  0  0  0  0  0  0  0  0  0  0  0
  -22.4730  -14.7430   20.5750 O   0  0  0  0  0  0  0  0  0  0  0  0
  -22.5630  -12.1450   22.3360 H   0  0  0  0  0  0  0  0  0  0  0  0
  -21.2690  -13.2980   22.1820 H   0  0  0  0  0  0  0  0  0  0  0  0
  -25.5380  -15.3490   20.1870 N   0  0  0  0  0  0  0  0  0  0  0  0
  -24.7830  -16.0140   20.3230 H   0  0  0  0  0  0  0  0  0  0  0  0
  -26.3860  -15.7760   19.8340 H   0  0  0  0  0  0  0  0  0  0  0  0
  1 49  1  0
  3  1  1  0
  3  4  1  0
  3  2  1  0
  7  6  1  6
  7  8  1  0
  7  5  1  0
  7  4  1  0
  8 10  1  0
  9 20  2  0
 10 15  1  0
 11 19  1  0
 11 21  1  0
 12 18  1  0
 12 14  1  0
 13 19  1  0
 14 13  1  0
 15 14  2  0
 16 17  1  0
 16 10  2  0
 17 12  2  0
 18 11  1  0
 19  9  1  0
 21 23  2  0
 22 21  1  0
 24 22  1  0
 25 34  2  0
 25 30  1  0
 26 22  1  0
 26 30  1  0
 27 26  1  0
 28 29  1  0
 28 27  1  0
 29 25  1  0
 30 31  2  0
 31 32  1  0
 33 32  2  0
 34 33  1  0
 35  9  1  0
 35 36  1  0
 35 45  1  0
 36 39  1  0
 37 41  1  0
 37 36  1  0
 38 37  2  0
 41 40  1  0
 43 41  1  0
 43 44  1  0
 43 42  1  0
 45 48  1  1
 45 46  1  0
 47 45  1  0
 50 52  1  0
 52 57  1  0
 53 51  1  0
 53 52  1  0
 53 58  1  0
 54 50  1  0
 54 51  1  0
 54 49  1  0
 54 55  1  6
 57 56  1  0
 59 67  1  0
 60 65  1  0
 61 62  1  0
 61 60  1  0
 63 62  1  0
 63 72  1  0
 63 64  1  0
 65 59  1  0
 65 64  1  0
 66 59  2  0
 67 58  1  0
 67 68  1  0
 69 70  2  0
 70 89  1  0
 71 70  1  0
 71 74  1  0
 72 73  1  0
 72 69  1  0
 73 71  2  0
 74 75  1  0
 75 76  2  0
 77 80  1  0
 77 76  1  0
 78 77  2  0
 79 78  1  0
 79 74  2  0
 80 81  1  0
 81 86  2  0
 81 82  1  0
 82 83  2  0
 83 84  1  0
 84 88  1  0
 85 84  2  0
 86 85  1  0
 87 86  1  0
 89 90  1  0
 90 93  1  0
 90 92  1  0
 91 89  2  0
 94 95  1  0
 94 69  1  0
 96 94  1  0
M  ISO  4   7 101   8 101  59 100  67 100
M  END
>  <TORSDO>  (89) 
F 23

>  <SCORE>  (89) 
-12.723

>  <name>  (89) 
88

>  <ligand_id>  (89) 
88

>  <original_smiles>  (89) 
[H]c1c([H])c([H])c2c(c1[H])C([H])([H])C([H])([H])C([H])([H])C2([H])N([H])C(=O)C1([H])N(C(=O)C([H])(N([H])C(=O)C([H])(N([H])C([H])([H])[H])C([H])([H])[H])C(C([H])([H])[H])(C([H])([H])[H])C([H])([H])[H])C([H])([H])c2c([H])c(OC(C([H])([H])[H])(C([H])([H])[H])C([H])([H])C([H])(C([H])([H])[H])C([H])([H])C([H])([H])[N+]3([H])C([H])([H])C([H])(C([H])([H])N([H])C(=O)N4C([H])([H])C([H])([H])C([H])([H])C([H])(n5nc(-c6c([H])c([H])c(Oc7c([H])c([H])c(F)c([H])c7F)c([H])c6[H])c(C(=O)N([H])[H])c5N([H])[H])C4([H])[H])C([H])(C([H])([H])C([H])([H])[H])C3([H])[H])c([H])c([H])c2C1([H])[H]

>  <smiles>  (89) 
[H]c1c([H])c([H])c2c(c1[H])C([H])([H])C([H])([H])C([H])([H])C2([H])N([H])C(=O)C1([H])N(C(=O)C([H])(N([H])C(=O)C([H])(N([H])C([H])([H])[H])C([H])([H])[H])C(C([H])([H])[H])(C([H])([H])[H])C([H])([H])[H])C([H])([H])c2c([H])c(OC(C([H])([H])[H])(C([H])([H])[H])C([H])([H])C([H])(C([H])([H])[H])C([H])([H])C([H])([H])[N+]3([H])C([H])([H])C([H])(C([H])([H])N([H])C(=O)N4C([H])([H])C([H])([H])C([H])([H])C([H])(n5nc(-c6c([H])c([H])c(Oc7c([H])c([H])c(F)c([H])c7F)c([H])c6[H])c(C(=O)N([H])[H])c5N([H])[H])C4([H])[H])C([H])(C([H])([H])C([H])([H])[H])C3([H])[H])c([H])c([H])c2C1([H])[H]

$$$$
89:0:0
     RDKit          3D

 91 99  0  0  1  0  0  0  0  0999 V2000
  -30.7050  -14.6520   20.3490 C   0  0  0  0  0  0  0  0  0  0  0  0
  -30.5110  -12.3630   19.3900 C   0  0  0  0  0  2  0  0  0  0  0  0
  -29.5920  -12.4200   18.1480 C   0  0  0  0  0  2  0  0  0  0  0  0
  -28.1060  -12.3030   18.5510 C   0  0  0  0  0  2  0  0  0  0  0  0
  -27.7280  -13.2170   19.7490 C   0  0  0  0  0  3  0  0  0  0  0  0
  -28.7680  -13.1000   20.8830 C   0  0  0  0  0  2  0  0  0  0  0  0
  -30.0740  -13.4340   20.3070 N   0  0  0  0  0  0  0  0  0  0  0  0
  -31.9040  -14.7420   20.0670 O   0  0  0  0  0  0  0  0  0  0  0  0
  -29.7830  -18.8270   19.6940 C   0  0  0  0  0  3  0  0  0  0  0  0
  -30.2410  -17.7760   18.7540 C   0  0  0  0  0  0  0  0  0  0  0  0
  -29.3020  -20.1100   19.3140 C   0  0  0  0  0  0  0  0  0  0  0  0
  -30.0030  -18.2740   21.1150 C   0  0  0  0  0  2  0  0  0  0  0  0
  -29.6700  -16.3570   18.9230 C   0  0  0  0  0  2  0  0  0  0  0  0
  -29.6380  -16.7490   21.3740 C   0  0  0  0  0  3  0  0  0  0  0  0
  -28.1540  -16.7060   21.7720 C   0  0  0  0  0  1  0  0  0  0  0  0
  -29.8990  -15.7720   20.2640 N   0  0  0  0  0  0  0  0  0  0  0  0
  -29.1280  -20.5590   18.1550 O   0  0  0  0  0  0  0  0  0  0  0  0
  -31.0840  -17.9830   17.8810 O   0  0  0  0  0  0  0  0  0  0  0  0
  -25.3260  -13.8650   20.3910 C   0  0  0  0  0  0  0  0  0  0  0  0
  -24.2440  -13.1180   20.7670 C   0  0  0  0  0  0  0  0  0  0  0  0
  -24.6930  -11.7630   20.7900 C   0  0  0  0  0  0  0  0  0  0  0  0
  -26.3680  -12.9670   20.2170 N   0  0  0  0  0  0  0  0  0  0  0  0
  -25.9910  -11.6980   20.5160 N   0  0  0  0  0  0  0  0  0  0  0  0
  -23.9470  -10.5170   21.0020 C   0  0  0  0  0  0  0  0  0  0  0  0
  -24.3690   -9.5620   21.9540 C   0  0  0  0  0  3  0  0  0  0  0  0
  -23.6260   -8.3790   22.1570 C   0  0  0  0  0  3  0  0  0  0  0  0
  -22.4510   -8.1410   21.4050 C   0  0  0  0  0  0  0  0  0  0  0  0
  -22.0480   -9.0850   20.4440 C   0  0  0  0  0  3  0  0  0  0  0  0
  -22.7900  -10.2590   20.2400 C   0  0  0  0  0  3  0  0  0  0  0  0
  -21.6820   -7.0070   21.5120 O   0  0  0  0  0  0  0  0  0  0  0  0
  -21.6360   -6.2730   22.6700 C   0  0  0  0  0  0  0  0  0  0  0  0
  -21.2540   -6.8500   23.9010 C   0  0  0  0  0  3  0  0  0  0  0  0
  -21.1550   -6.0450   25.0540 C   0  0  0  0  0  3  0  0  0  0  0  0
  -21.4250   -4.6650   24.9750 C   0  0  0  0  0  0  0  0  0  0  0  0
  -21.7980   -4.0880   23.7480 C   0  0  0  0  0  3  0  0  0  0  0  0
  -21.9000   -4.8910   22.5980 C   0  0  0  0  0  0  0  0  0  0  0  0
  -22.2370   -4.3270   21.4130 F   0  0  0  0  0  0  0  0  0  0  0  0
  -21.3250   -3.8890   26.0800 F   0  0  0  0  0  0  0  0  0  0  0  0
  -22.8480  -13.6190   20.9920 C   0  0  0  0  0  0  0  0  0  0  0  0
  -22.0970  -12.9690   21.8750 N   0  0  0  0  0  0  0  0  0  0  0  0
  -22.4290  -14.6250   20.4200 O   0  0  0  0  0  0  0  0  0  0  0  0
  -22.4430  -12.1550   22.3610 H   0  0  0  0  0  0  0  0  0  0  0  0
  -21.1590  -13.2940   22.0670 H   0  0  0  0  0  0  0  0  0  0  0  0
  -25.5000  -15.2260   20.1610 N   0  0  0  0  0  0  0  0  0  0  0  0
  -24.7320  -15.8840   20.2340 H   0  0  0  0  0  0  0  0  0  0  0  0
  -26.3700  -15.6540   19.8700 H   0  0  0  0  0  0  0  0  0  0  0  0
  -28.8140  -21.2450   20.2940 C   0  0  0  0  0  2  0  0  0  0  0  0
  -29.3450  -22.7420   20.1120 C   0  0  0  0  0  2  0  0  0  0  0  0
  -28.4180  -23.9210   19.5710 C   0  0  0  0  0  2  0  0  0  0  0  0
  -28.6120  -25.3220   20.2940 C   0  0  0  0  0  2  0  0  0  0  0  0
  -28.4190  -26.5970   19.6030 O   0  0  0  0  0  0  0  0  0  0  0  0
  -24.4890  -31.6020   23.0270 C   0  0  0  0  0  0  0  0  0  0  0  0
  -27.2330  -27.3070   19.7490 C   0  0  0  0  0  0  0  0  0  0  0  0
  -23.3170  -30.2420   21.3270 C   0  0  0  0  0  3  0  0  0  0  0  0
  -24.8050  -28.7920   19.8380 C   0  0  0  0  0  0  0  0  0  0  0  0
  -25.8370  -30.6600   21.1410 C   0  0  0  0  0  2  0  0  0  0  0  0
  -25.9570  -29.3110   20.4430 C   0  0  0  0  0  0  0  0  0  0  0  0
  -27.1770  -28.5810   20.3890 C   0  0  0  0  0  3  0  0  0  0  0  0
  -26.0580  -26.8110   19.1530 C   0  0  0  0  0  3  0  0  0  0  0  0
  -24.8530  -27.5430   19.1920 C   0  0  0  0  0  3  0  0  0  0  0  0
  -23.5420  -29.6230   19.9200 C   0  0  0  0  0  2  0  0  0  0  0  0
  -24.5660  -30.8490   21.8910 N   0  0  0  0  0  0  0  0  0  0  0  0
  -23.4020  -31.8230   23.5790 O   0  0  0  0  0  0  0  0  0  0  0  0
  -22.6910  -29.1660   22.2460 C   0  0  0  0  0  0  0  0  0  0  0  0
  -21.3640  -28.9830   22.1420 N   0  0  0  0  0  0  0  0  0  0  0  0
  -23.3960  -28.5010   23.0080 O   0  0  0  0  0  0  0  0  0  0  0  0
  -20.8540  -29.5750   21.5020 H   0  0  0  0  0  0  0  0  0  0  0  0
  -18.0080  -27.7470   22.6720 C   0  0  0  0  0  0  0  0  0  0  0  0
  -20.5740  -27.9940   22.8740 C   0  0  0  0  0  3  0  0  0  0  0  0
  -20.6590  -26.6050   22.2020 C   0  0  0  0  0  2  0  0  0  0  0  0
  -19.5230  -26.3470   21.2050 C   0  0  0  0  0  2  0  0  0  0  0  0
  -18.1630  -26.4450   21.9020 C   0  0  0  0  0  2  0  0  0  0  0  0
  -19.1400  -28.4820   23.1150 C   0  0  0  0  0  0  0  0  0  0  0  0
  -18.9410  -29.7020   23.7940 C   0  0  0  0  0  3  0  0  0  0  0  0
  -17.6420  -30.1880   24.0360 C   0  0  0  0  0  3  0  0  0  0  0  0
  -16.5250  -29.4490   23.6090 C   0  0  0  0  0  3  0  0  0  0  0  0
  -16.7090  -28.2300   22.9330 C   0  0  0  0  0  3  0  0  0  0  0  0
  -25.7580  -32.2410   23.6720 C   0  0  0  0  0  3  0  0  0  0  0  0
  -26.3220  -31.4090   24.8890 C   0  0  1  0  0  0  0  0  0  0  0  0
  -25.2570  -31.0700   25.9570 C   0  0  0  0  0  1  0  0  0  0  0  0
  -26.9420  -30.0780   24.4010 C   0  0  0  0  0  1  0  0  0  0  0  0
  -27.4590  -32.1970   25.5820 C   0  0  0  0  0  1  0  0  0  0  0  0
  -25.4050  -33.6030   24.0950 N   0  0  0  0  0  0  0  0  0  0  0  0
  -25.6900  -34.7130   23.4020 C   0  0  0  0  0  0  0  0  0  0  0  0
  -26.3480  -34.7010   22.3590 O   0  0  0  0  0  0  0  0  0  0  0  0
  -24.8160  -33.6840   24.9110 H   0  0  0  0  0  0  0  0  0  0  0  0
  -23.8940  -36.4610   23.1850 C   0  0  0  0  0  1  0  0  0  0  0  0
  -25.1590  -36.0510   23.9550 C   0  0  0  0  0  3  0  0  0  0  0  0
  -27.2730  -36.9550   24.8140 C   0  0  0  0  0  1  0  0  0  0  0  0
  -26.1510  -37.1460   23.9000 N   0  0  0  0  0  0  0  0  0  0  0  0
  -25.7150  -38.0390   24.1160 H   0  0  0  0  0  0  0  0  0  0  0  0
  2  7  1  0
  3  4  1  0
  3  2  1  0
  5  4  1  0
  5 22  1  0
  5  6  1  0
  7  1  1  0
  7  6  1  0
  8  1  2  0
  9 11  1  0
  9 12  1  0
 10 13  1  0
 10  9  1  0
 11 47  1  0
 12 14  1  0
 13 16  1  0
 14 15  1  0
 16  1  1  0
 16 14  1  0
 17 11  2  0
 18 10  2  0
 19 20  2  0
 20 21  1  0
 20 39  1  0
 21 24  1  0
 22 19  1  0
 22 23  1  0
 23 21  2  0
 24 25  1  0
 25 26  2  0
 27 30  1  0
 27 26  1  0
 28 27  2  0
 29 28  1  0
 29 24  2  0
 30 31  1  0
 31 32  1  0
 32 33  2  0
 34 33  1  0
 34 38  1  0
 35 34  2  0
 36 31  2  0
 36 35  1  0
 37 36  1  0
 39 40  1  0
 40 43  1  0
 40 42  1  0
 41 39  2  0
 44 45  1  0
 44 19  1  0
 46 44  1  0
 48 47  1  0
 49 48  1  0
 49 50  1  0
 51 53  1  0
 51 50  1  0
 52 63  2  0
 53 58  1  0
 54 62  1  0
 54 64  1  0
 55 61  1  0
 55 57  1  0
 56 62  1  0
 57 56  1  0
 58 57  2  0
 59 60  1  0
 59 53  2  0
 60 55  2  0
 61 54  1  0
 62 52  1  0
 64 66  2  0
 65 64  1  0
 67 65  1  0
 68 77  2  0
 68 73  1  0
 69 65  1  0
 69 73  1  0
 70 69  1  0
 71 72  1  0
 71 70  1  0
 72 68  1  0
 73 74  2  0
 74 75  1  0
 76 75  2  0
 77 76  1  0
 78 52  1  0
 78 83  1  0
 78 79  1  0
 79 82  1  1
 79 80  1  0
 81 79  1  0
 83 86  1  0
 84 88  1  0
 84 83  1  0
 85 84  2  0
 88 87  1  0
 90 88  1  0
 90 91  1  0
 90 89  1  0
M  ISO  4   1 100  16 100  50 101  51 101
M  END
>  <TORSDO>  (90) 
F 19

>  <SCORE>  (90) 
-11.569

>  <name>  (90) 
89

>  <ligand_id>  (90) 
89

>  <original_smiles>  (90) 
[H]c1c([H])c([H])c2c(c1[H])C([H])([H])C([H])([H])C([H])([H])C2([H])N([H])C(=O)C1([H])N(C(=O)C([H])(N([H])C(=O)C([H])(N([H])C([H])([H])[H])C([H])([H])[H])C(C([H])([H])[H])(C([H])([H])[H])C([H])([H])[H])C([H])([H])c2c([H])c(OC([H])([H])C([H])([H])C([H])([H])C([H])([H])C([O-])=C3C(=O)C([H])([H])N(C(=O)N4C([H])([H])C([H])([H])C([H])([H])C([H])(n5nc(-c6c([H])c([H])c(Oc7c([H])c([H])c(F)c([H])c7F)c([H])c6[H])c(C(=O)N([H])[H])c5N([H])[H])C4([H])[H])C([H])(C([H])([H])[H])C3([H])[H])c([H])c([H])c2C1([H])[H]

>  <smiles>  (90) 
[H]c1c([H])c([H])c2c(c1[H])C([H])([H])C([H])([H])C([H])([H])C2([H])N([H])C(=O)C1([H])N(C(=O)C([H])(N([H])C(=O)C([H])(N([H])C([H])([H])[H])C([H])([H])[H])C(C([H])([H])[H])(C([H])([H])[H])C([H])([H])[H])C([H])([H])c2c([H])c(OC([H])([H])C([H])([H])C([H])([H])C([H])([H])C([O-])=C3C(=O)C([H])([H])N(C(=O)N4C([H])([H])C([H])([H])C([H])([H])C([H])(n5nc(-c6c([H])c([H])c(Oc7c([H])c([H])c(F)c([H])c7F)c([H])c6[H])c(C(=O)N([H])[H])c5N([H])[H])C4([H])[H])C([H])(C([H])([H])[H])C3([H])[H])c([H])c([H])c2C1([H])[H]

$$$$
90:0:0
     RDKit          3D

 91 99  0  0  1  0  0  0  0  0999 V2000
  -29.5760  -21.1650   20.1510 C   0  0  0  0  0  3  0  0  0  0  0  0
  -27.6300  -19.3860   20.1460 C   0  0  0  0  0  2  0  0  0  0  0  0
  -28.0560  -17.9660   19.7740 C   0  0  0  0  0  3  0  0  0  0  0  0
  -29.0410  -19.7410   20.6240 C   0  0  0  0  0  3  0  0  0  0  0  0
  -29.5230  -18.3090   20.0850 C   0  0  0  0  0  3  0  0  0  0  0  0
  -27.7100  -17.4440   18.3820 C   0  0  0  0  0  1  0  0  0  0  0  0
  -30.3400  -17.2320   20.9200 C   0  0  0  0  0  2  0  0  0  0  0  0
  -30.7270  -14.6880   20.4740 C   0  0  0  0  0  0  0  0  0  0  0  0
  -30.5170  -12.4450   19.4210 C   0  0  0  0  0  2  0  0  0  0  0  0
  -29.5900  -12.5530   18.1910 C   0  0  0  0  0  2  0  0  0  0  0  0
  -28.1130  -12.3920   18.6050 C   0  0  0  0  0  2  0  0  0  0  0  0
  -27.7330  -13.2690   19.8280 C   0  0  0  0  0  3  0  0  0  0  0  0
  -28.7790  -13.1440   20.9580 C   0  0  0  0  0  2  0  0  0  0  0  0
  -30.0900  -13.4780   20.3850 N   0  0  0  0  0  0  0  0  0  0  0  0
  -31.9080  -14.8150   20.1390 O   0  0  0  0  0  0  0  0  0  0  0  0
  -29.9530  -15.7810   20.7640 N   0  0  0  0  0  0  0  0  0  0  0  0
  -28.9870  -15.5710   20.9600 H   0  0  0  0  0  0  0  0  0  0  0  0
  -25.3290  -13.8630   20.5120 C   0  0  0  0  0  0  0  0  0  0  0  0
  -24.2600  -13.0900   20.8690 C   0  0  0  0  0  0  0  0  0  0  0  0
  -24.7270  -11.7400   20.8540 C   0  0  0  0  0  0  0  0  0  0  0  0
  -26.3800  -12.9850   20.2980 N   0  0  0  0  0  0  0  0  0  0  0  0
  -26.0220  -11.7030   20.5660 N   0  0  0  0  0  0  0  0  0  0  0  0
  -24.0010  -10.4780   21.0410 C   0  0  0  0  0  0  0  0  0  0  0  0
  -24.4190   -9.5200   21.9900 C   0  0  0  0  0  3  0  0  0  0  0  0
  -23.6930   -8.3210   22.1650 C   0  0  0  0  0  3  0  0  0  0  0  0
  -22.5350   -8.0740   21.3910 C   0  0  0  0  0  0  0  0  0  0  0  0
  -22.1360   -9.0220   20.4320 C   0  0  0  0  0  3  0  0  0  0  0  0
  -22.8630  -10.2100   20.2550 C   0  0  0  0  0  3  0  0  0  0  0  0
  -21.7810   -6.9280   21.4750 O   0  0  0  0  0  0  0  0  0  0  0  0
  -21.7070   -6.1990   22.6340 C   0  0  0  0  0  0  0  0  0  0  0  0
  -21.2290   -6.7610   23.8380 C   0  0  0  0  0  3  0  0  0  0  0  0
  -21.1040   -5.9570   24.9900 C   0  0  0  0  0  3  0  0  0  0  0  0
  -21.4460   -4.5920   24.9370 C   0  0  0  0  0  0  0  0  0  0  0  0
  -21.9160   -4.0300   23.7370 C   0  0  0  0  0  3  0  0  0  0  0  0
  -22.0440   -4.8310   22.5880 C   0  0  0  0  0  0  0  0  0  0  0  0
  -22.4770   -4.2800   21.4290 F   0  0  0  0  0  0  0  0  0  0  0  0
  -21.3180   -3.8180   26.0390 F   0  0  0  0  0  0  0  0  0  0  0  0
  -22.8570  -13.5660   21.1150 C   0  0  0  0  0  0  0  0  0  0  0  0
  -22.1160  -12.8730   21.9730 N   0  0  0  0  0  0  0  0  0  0  0  0
  -22.4260  -14.5880   20.5820 O   0  0  0  0  0  0  0  0  0  0  0  0
  -22.4780  -12.0470   22.4260 H   0  0  0  0  0  0  0  0  0  0  0  0
  -21.1750  -13.1740   22.1800 H   0  0  0  0  0  0  0  0  0  0  0  0
  -25.4890  -15.2330   20.3310 N   0  0  0  0  0  0  0  0  0  0  0  0
  -24.7120  -15.8770   20.4290 H   0  0  0  0  0  0  0  0  0  0  0  0
  -26.3330  -15.6800   20.0000 H   0  0  0  0  0  0  0  0  0  0  0  0
  -31.5120  -21.2620   21.8760 C   0  0  0  0  0  1  0  0  0  0  0  0
  -31.0920  -21.3050   20.4000 C   0  0  0  0  0  2  0  0  0  0  0  0
  -28.7550  -22.4350   20.6870 C   0  0  0  0  0  2  0  0  0  0  0  0
  -29.0740  -23.9120   20.1600 C   0  0  0  0  0  3  0  0  0  0  0  0
  -28.1580  -25.0930   20.7140 C   0  0  0  0  0  3  0  0  0  0  0  0
  -28.3780  -26.4910   20.2700 O   0  0  0  0  0  0  0  0  0  0  0  0
  -24.5990  -31.8820   23.2420 C   0  0  0  0  0  0  0  0  0  0  0  0
  -27.2580  -27.3330   20.2330 C   0  0  0  0  0  0  0  0  0  0  0  0
  -23.4130  -30.4660   21.6030 C   0  0  0  0  0  3  0  0  0  0  0  0
  -24.8820  -28.9190   20.1940 C   0  0  0  0  0  0  0  0  0  0  0  0
  -25.9490  -30.8050   21.4290 C   0  0  0  0  0  2  0  0  0  0  0  0
  -26.0430  -29.4230   20.7940 C   0  0  0  0  0  0  0  0  0  0  0  0
  -27.2370  -28.6430   20.8020 C   0  0  0  0  0  3  0  0  0  0  0  0
  -26.0810  -26.8840   19.5980 C   0  0  0  0  0  3  0  0  0  0  0  0
  -24.9020  -27.6530   19.5860 C   0  0  0  0  0  3  0  0  0  0  0  0
  -23.6380  -29.7830   20.2290 C   0  0  0  0  0  2  0  0  0  0  0  0
  -24.6730  -31.0680   22.1490 N   0  0  0  0  0  0  0  0  0  0  0  0
  -23.5120  -32.1550   23.7690 O   0  0  0  0  0  0  0  0  0  0  0  0
  -22.7530  -29.4510   22.5660 C   0  0  0  0  0  0  0  0  0  0  0  0
  -21.4270  -29.2730   22.4410 N   0  0  0  0  0  0  0  0  0  0  0  0
  -23.4320  -28.8260   23.3850 O   0  0  0  0  0  0  0  0  0  0  0  0
  -20.9380  -29.8300   21.7530 H   0  0  0  0  0  0  0  0  0  0  0  0
  -18.0470  -28.0940   22.9560 C   0  0  0  0  0  0  0  0  0  0  0  0
  -20.6070  -28.3390   23.2140 C   0  0  0  0  0  3  0  0  0  0  0  0
  -20.6980  -26.9080   22.6340 C   0  0  0  0  0  2  0  0  0  0  0  0
  -19.5900  -26.5940   21.6250 C   0  0  0  0  0  2  0  0  0  0  0  0
  -18.2120  -26.7450   22.2760 C   0  0  0  0  0  2  0  0  0  0  0  0
  -19.1720  -28.8490   23.3810 C   0  0  0  0  0  0  0  0  0  0  0  0
  -18.9620  -30.1120   23.9770 C   0  0  0  0  0  3  0  0  0  0  0  0
  -17.6610  -30.6200   24.1500 C   0  0  0  0  0  3  0  0  0  0  0  0
  -16.5500  -29.8620   23.7410 C   0  0  0  0  0  3  0  0  0  0  0  0
  -16.7440  -28.6010   23.1490 C   0  0  0  0  0  3  0  0  0  0  0  0
  -25.8750  -32.5260   23.8660 C   0  0  0  0  0  3  0  0  0  0  0  0
  -25.5580  -33.9250   24.1840 N   0  0  0  0  0  0  0  0  0  0  0  0
  -25.8890  -34.9740   23.4180 C   0  0  0  0  0  0  0  0  0  0  0  0
  -26.5640  -34.8650   22.3900 O   0  0  0  0  0  0  0  0  0  0  0  0
  -24.9590  -34.0840   24.9810 H   0  0  0  0  0  0  0  0  0  0  0  0
  -24.1600  -36.7590   23.0340 C   0  0  0  0  0  1  0  0  0  0  0  0
  -25.3930  -36.3640   23.8610 C   0  0  0  0  0  3  0  0  0  0  0  0
  -27.5140  -37.2620   24.7140 C   0  0  0  0  0  1  0  0  0  0  0  0
  -26.4240  -37.4190   23.7530 N   0  0  0  0  0  0  0  0  0  0  0  0
  -26.0130  -38.3380   23.8870 H   0  0  0  0  0  0  0  0  0  0  0  0
  -26.3870  -31.7680   25.1530 C   0  0  1  0  0  0  0  0  0  0  0  0
  -25.2870  -31.5310   26.2140 C   0  0  0  0  0  1  0  0  0  0  0  0
  -26.9810  -30.3910   24.7750 C   0  0  0  0  0  1  0  0  0  0  0  0
  -27.5280  -32.5730   25.8170 C   0  0  0  0  0  1  0  0  0  0  0  0
  1 47  1  0
  1 48  1  0
  2  4  1  0
  3  6  1  0
  3  5  1  0
  3  2  1  0
  4  1  1  0
  5  4  1  0
  5  7  1  0
  8 16  1  0
  9 14  1  0
 10 11  1  0
 10  9  1  0
 12 11  1  0
 12 21  1  0
 12 13  1  0
 14  8  1  0
 14 13  1  0
 15  8  2  0
 16  7  1  0
 16 17  1  0
 18 19  2  0
 19 38  1  0
 20 19  1  0
 20 23  1  0
 21 18  1  0
 21 22  1  0
 22 20  2  0
 23 24  1  0
 24 25  2  0
 26 29  1  0
 26 25  1  0
 27 26  2  0
 28 27  1  0
 28 23  2  0
 29 30  1  0
 30 31  1  0
 31 32  2  0
 33 32  1  0
 33 37  1  0
 34 33  2  0
 35 30  2  0
 35 34  1  0
 36 35  1  0
 38 39  1  0
 39 42  1  0
 39 41  1  0
 40 38  2  0
 43 44  1  0
 43 18  1  0
 45 43  1  0
 47 46  1  0
 49 48  1  0
 49 50  2  0
 51 50  1  0
 52 63  2  0
 53 51  1  0
 53 58  1  0
 54 62  1  0
 54 64  1  0
 55 61  1  0
 55 57  1  0
 56 62  1  0
 57 58  2  0
 57 56  1  0
 59 53  2  0
 60 59  1  0
 60 55  2  0
 61 54  1  0
 62 52  1  0
 64 66  2  0
 65 64  1  0
 67 65  1  0
 68 77  2  0
 68 73  1  0
 69 65  1  0
 69 73  1  0
 70 69  1  0
 71 72  1  0
 71 70  1  0
 72 68  1  0
 73 74  2  0
 74 75  1  0
 76 75  2  0
 77 76  1  0
 78 52  1  0
 78 79  1  0
 78 88  1  0
 79 82  1  0
 80 84  1  0
 80 79  1  0
 81 80  2  0
 84 83  1  0
 86 84  1  0
 86 87  1  0
 86 85  1  0
 88 91  1  1
 88 89  1  0
 90 88  1  0
M  ISO  4   8 100  16 100  50 101  51 101
M  END
>  <TORSDO>  (91) 
F 22

>  <SCORE>  (91) 
-13.191

>  <name>  (91) 
90

>  <ligand_id>  (91) 
90

>  <original_smiles>  (91) 
[H]c1c([H])c([H])c2c(c1[H])C([H])([H])C([H])([H])C([H])([H])C2([H])N([H])C(=O)C1([H])N(C(=O)C([H])(N([H])C(=O)C([H])(N([H])C([H])([H])[H])C([H])([H])[H])C(C([H])([H])[H])(C([H])([H])[H])C([H])([H])[H])C([H])([H])c2c([H])c(OC([H])([H])C([H])([H])C([H])([H])C([H])(C([H])([H])C([H])([H])[H])C3([H])C([H])([H])C([H])(C([H])([H])[H])C3([H])C([H])([H])N([H])C(=O)N3C([H])([H])C([H])([H])C([H])([H])C([H])(n4nc(-c5c([H])c([H])c(Oc6c([H])c([H])c(F)c([H])c6F)c([H])c5[H])c(C(=O)N([H])[H])c4N([H])[H])C3([H])[H])c([H])c([H])c2C1([H])[H]

>  <smiles>  (91) 
[H]c1c([H])c([H])c2c(c1[H])C([H])([H])C([H])([H])C([H])([H])C2([H])N([H])C(=O)C1([H])N(C(=O)C([H])(N([H])C(=O)C([H])(N([H])C([H])([H])[H])C([H])([H])[H])C(C([H])([H])[H])(C([H])([H])[H])C([H])([H])[H])C([H])([H])c2c([H])c(OC([H])([H])C([H])([H])C([H])([H])C([H])(C([H])([H])C([H])([H])[H])C3([H])C([H])([H])C([H])(C([H])([H])[H])C3([H])C([H])([H])N([H])C(=O)N3C([H])([H])C([H])([H])C([H])([H])C([H])(n4nc(-c5c([H])c([H])c(Oc6c([H])c([H])c(F)c([H])c6F)c([H])c5[H])c(C(=O)N([H])[H])c4N([H])[H])C3([H])[H])c([H])c([H])c2C1([H])[H]

$$$$
91:0:0
     RDKit          3D

 92101  0  0  1  0  0  0  0  0999 V2000
  -30.7040  -14.6790   20.4630 C   0  0  0  0  0  0  0  0  0  0  0  0
  -30.4290  -12.4440   19.3910 C   0  0  0  0  0  2  0  0  0  0  0  0
  -29.5000  -12.5190   18.1600 C   0  0  0  0  0  2  0  0  0  0  0  0
  -28.0270  -12.3380   18.5770 C   0  0  0  0  0  2  0  0  0  0  0  0
  -27.6470  -13.2270   19.7840 C   0  0  0  0  0  3  0  0  0  0  0  0
  -28.7020  -13.1080   20.9170 C   0  0  0  0  0  2  0  0  0  0  0  0
  -29.9980  -13.4980   20.3410 N   0  0  0  0  0  0  0  0  0  0  0  0
  -31.8970  -14.6820   20.1440 O   0  0  0  0  0  0  0  0  0  0  0  0
  -28.2290  -17.6380   21.0310 C   0  0  0  0  0  2  0  0  0  0  0  0
  -28.5680  -20.1390   20.8510 C   0  0  0  0  0  2  0  0  0  0  0  0
  -28.6680  -16.2210   20.6120 C   0  0  0  0  0  2  0  0  0  0  0  0
  -30.9080  -17.1530   21.0320 C   0  0  0  0  0  2  0  0  0  0  0  0
  -30.8710  -20.9060   20.7700 C   0  0  0  0  0  2  0  0  0  0  0  0
  -28.9530  -18.7510   20.2600 C   0  0  0  0  0  3  0  0  0  0  0  0
  -29.4360  -21.3120   20.3470 C   0  0  0  0  0  3  0  0  0  0  0  0
  -30.4690  -18.4090   20.1550 C   0  0  0  0  0  3  0  0  0  0  0  0
  -32.7850  -19.3780   20.4310 C   0  0  0  0  0  1  0  0  0  0  0  0
  -30.1000  -15.8960   20.7950 N   0  0  0  0  0  0  0  0  0  0  0  0
  -31.3580  -19.6360   20.1300 N   0  0  2  0  0  4  0  0  0  0  0  0
  -31.3640  -19.8780   19.1490 H   0  0  0  0  0  0  0  0  0  0  0  0
  -25.2510  -13.8890   20.4390 C   0  0  0  0  0  0  0  0  0  0  0  0
  -24.1700  -13.1390   20.8060 C   0  0  0  0  0  0  0  0  0  0  0  0
  -24.6200  -11.7840   20.8190 C   0  0  0  0  0  0  0  0  0  0  0  0
  -26.2900  -12.9890   20.2530 N   0  0  0  0  0  0  0  0  0  0  0  0
  -25.9150  -11.7200   20.5430 N   0  0  0  0  0  0  0  0  0  0  0  0
  -23.8800  -10.5340   21.0180 C   0  0  0  0  0  0  0  0  0  0  0  0
  -24.3030   -9.5710   21.9600 C   0  0  0  0  0  3  0  0  0  0  0  0
  -23.5660   -8.3820   22.1450 C   0  0  0  0  0  3  0  0  0  0  0  0
  -22.3920   -8.1520   21.3890 C   0  0  0  0  0  0  0  0  0  0  0  0
  -21.9890   -9.1030   20.4350 C   0  0  0  0  0  3  0  0  0  0  0  0
  -22.7280  -10.2830   20.2480 C   0  0  0  0  0  3  0  0  0  0  0  0
  -21.6260   -7.0160   21.4850 O   0  0  0  0  0  0  0  0  0  0  0  0
  -21.5830   -6.2740   22.6380 C   0  0  0  0  0  0  0  0  0  0  0  0
  -21.2020   -6.8390   23.8740 C   0  0  0  0  0  3  0  0  0  0  0  0
  -21.1050   -6.0240   25.0200 C   0  0  0  0  0  3  0  0  0  0  0  0
  -21.3800   -4.6460   24.9310 C   0  0  0  0  0  0  0  0  0  0  0  0
  -21.7550   -4.0820   23.7000 C   0  0  0  0  0  3  0  0  0  0  0  0
  -21.8530   -4.8930   22.5560 C   0  0  0  0  0  0  0  0  0  0  0  0
  -22.1960   -4.3400   21.3670 F   0  0  0  0  0  0  0  0  0  0  0  0
  -21.2790   -3.8620   26.0290 F   0  0  0  0  0  0  0  0  0  0  0  0
  -22.7720  -13.6370   21.0320 C   0  0  0  0  0  0  0  0  0  0  0  0
  -22.0190  -12.9730   21.9030 N   0  0  0  0  0  0  0  0  0  0  0  0
  -22.3530  -14.6500   20.4730 O   0  0  0  0  0  0  0  0  0  0  0  0
  -22.3700  -12.1550   22.3780 H   0  0  0  0  0  0  0  0  0  0  0  0
  -21.0790  -13.2890   22.0980 H   0  0  0  0  0  0  0  0  0  0  0  0
  -25.4230  -15.2530   20.2210 N   0  0  0  0  0  0  0  0  0  0  0  0
  -24.6520  -15.9070   20.2930 H   0  0  0  0  0  0  0  0  0  0  0  0
  -26.2770  -15.6800   19.8860 H   0  0  0  0  0  0  0  0  0  0  0  0
  -28.9190  -22.7030   20.9120 C   0  0  0  0  0  2  0  0  0  0  0  0
  -29.1250  -24.0410   20.0960 C   0  0  0  0  0  2  0  0  0  0  0  0
  -28.3310  -25.2790   20.6720 C   0  0  0  0  0  2  0  0  0  0  0  0
  -28.4460  -26.5690   19.9880 O   0  0  0  0  0  0  0  0  0  0  0  0
  -24.6740  -31.8240   23.1190 C   0  0  0  0  0  0  0  0  0  0  0  0
  -27.3040  -27.3670   19.9940 C   0  0  0  0  0  0  0  0  0  0  0  0
  -23.4600  -30.4260   21.4810 C   0  0  0  0  0  3  0  0  0  0  0  0
  -24.9090  -28.9040   20.0270 C   0  0  0  0  0  0  0  0  0  0  0  0
  -25.9860  -30.7900   21.2600 C   0  0  0  0  0  2  0  0  0  0  0  0
  -26.0750  -29.4190   20.6070 C   0  0  0  0  0  0  0  0  0  0  0  0
  -27.2790  -28.6630   20.5790 C   0  0  0  0  0  3  0  0  0  0  0  0
  -26.1210  -26.8890   19.3920 C   0  0  0  0  0  3  0  0  0  0  0  0
  -24.9300  -27.6400   19.4110 C   0  0  0  0  0  3  0  0  0  0  0  0
  -23.6600  -29.7570   20.0960 C   0  0  0  0  0  2  0  0  0  0  0  0
  -24.7260  -31.0290   22.0110 N   0  0  0  0  0  0  0  0  0  0  0  0
  -23.5970  -32.0850   23.6730 O   0  0  0  0  0  0  0  0  0  0  0  0
  -22.8230  -29.3940   22.4430 C   0  0  0  0  0  0  0  0  0  0  0  0
  -21.4950  -29.2170   22.3440 N   0  0  0  0  0  0  0  0  0  0  0  0
  -23.5210  -28.7580   23.2360 O   0  0  0  0  0  0  0  0  0  0  0  0
  -20.9910  -29.7830   21.6750 H   0  0  0  0  0  0  0  0  0  0  0  0
  -18.1290  -28.0230   22.9030 C   0  0  0  0  0  0  0  0  0  0  0  0
  -20.6930  -28.2700   23.1190 C   0  0  0  0  0  3  0  0  0  0  0  0
  -20.7780  -26.8490   22.5190 C   0  0  0  0  0  2  0  0  0  0  0  0
  -19.6520  -26.5430   21.5260 C   0  0  0  0  0  2  0  0  0  0  0  0
  -18.2850  -26.6830   22.2040 C   0  0  0  0  0  2  0  0  0  0  0  0
  -19.2590  -28.7750   23.3180 C   0  0  0  0  0  0  0  0  0  0  0  0
  -19.0580  -30.0300   23.9330 C   0  0  0  0  0  3  0  0  0  0  0  0
  -17.7590  -30.5320   24.1360 C   0  0  0  0  0  3  0  0  0  0  0  0
  -16.6430  -29.7760   23.7370 C   0  0  0  0  0  3  0  0  0  0  0  0
  -16.8290  -28.5230   23.1260 C   0  0  0  0  0  3  0  0  0  0  0  0
  -25.9600  -32.4610   23.7280 C   0  0  0  0  0  3  0  0  0  0  0  0
  -25.6350  -33.8430   24.1070 N   0  0  0  0  0  0  0  0  0  0  0  0
  -25.9320  -34.9230   23.3730 C   0  0  0  0  0  0  0  0  0  0  0  0
  -26.5800  -34.8620   22.3230 O   0  0  0  0  0  0  0  0  0  0  0  0
  -25.0570  -33.9630   24.9250 H   0  0  0  0  0  0  0  0  0  0  0  0
  -24.1640  -36.6930   23.1110 C   0  0  0  0  0  1  0  0  0  0  0  0
  -25.4310  -36.2890   23.8820 C   0  0  0  0  0  3  0  0  0  0  0  0
  -27.5710  -37.1850   24.6850 C   0  0  0  0  0  1  0  0  0  0  0  0
  -26.4420  -37.3640   23.7770 N   0  0  0  0  0  0  0  0  0  0  0  0
  -26.0230  -38.2700   23.9650 H   0  0  0  0  0  0  0  0  0  0  0  0
  -26.5230  -31.6620   24.9670 C   0  0  1  0  0  0  0  0  0  0  0  0
  -25.4620  -31.3760   26.0560 C   0  0  0  0  0  1  0  0  0  0  0  0
  -27.1170  -30.3060   24.5190 C   0  0  0  0  0  1  0  0  0  0  0  0
  -27.6790  -32.4550   25.6230 C   0  0  0  0  0  1  0  0  0  0  0  0
  1 18  1  0
  2  7  1  0
  3  4  1  0
  3  2  1  0
  5  4  1  0
  5 24  1  0
  5  6  1  0
  7  1  1  0
  7  6  1  0
  8  1  2  0
 11 18  1  0
 11  9  1  0
 14 10  1  0
 14  9  1  0
 15 13  1  0
 15 10  1  0
 15 49  1  0
 16 14  1  0
 16 12  1  0
 18 12  1  0
 19 16  1  0
 19 17  1  0
 19 13  1  0
 19 20  1  6
 21 22  2  0
 22 23  1  0
 22 41  1  0
 23 26  1  0
 24 21  1  0
 24 25  1  0
 25 23  2  0
 26 27  1  0
 27 28  2  0
 29 32  1  0
 29 28  1  0
 30 29  2  0
 31 30  1  0
 31 26  2  0
 32 33  1  0
 33 34  1  0
 34 35  2  0
 36 35  1  0
 36 40  1  0
 37 36  2  0
 38 33  2  0
 38 37  1  0
 39 38  1  0
 41 42  1  0
 42 45  1  0
 42 44  1  0
 43 41  2  0
 46 47  1  0
 46 21  1  0
 48 46  1  0
 50 51  1  0
 50 49  1  0
 52 54  1  0
 52 51  1  0
 53 64  2  0
 54 59  1  0
 55 63  1  0
 55 65  1  0
 56 62  1  0
 56 58  1  0
 57 63  1  0
 58 57  1  0
 59 58  2  0
 60 61  1  0
 60 54  2  0
 61 56  2  0
 62 55  1  0
 63 53  1  0
 65 67  2  0
 66 65  1  0
 68 66  1  0
 69 78  2  0
 69 74  1  0
 70 66  1  0
 70 74  1  0
 71 70  1  0
 72 73  1  0
 72 71  1  0
 73 69  1  0
 74 75  2  0
 75 76  1  0
 77 76  2  0
 78 77  1  0
 79 53  1  0
 79 80  1  0
 79 89  1  0
 80 83  1  0
 81 85  1  0
 81 80  1  0
 82 81  2  0
 85 84  1  0
 87 85  1  0
 87 88  1  0
 87 86  1  0
 89 92  1  1
 89 90  1  0
 91 89  1  0
M  ISO  4   1 100  18 100  51 101  52 101
M  END
>  <TORSDO>  (92) 
F 18

>  <SCORE>  (92) 
-14.068

>  <name>  (92) 
91

>  <ligand_id>  (92) 
91

>  <original_smiles>  (92) 
[H]c1c([H])c([H])c2c(c1[H])C([H])([H])C([H])([H])C([H])([H])C2([H])N([H])C(=O)C1([H])N(C(=O)C([H])(N([H])C(=O)C([H])(N([H])C([H])([H])[H])C([H])([H])[H])C(C([H])([H])[H])(C([H])([H])[H])C([H])([H])[H])C([H])([H])c2c([H])c(OC([H])([H])C([H])([H])C([H])([H])C3([H])C([H])([H])C4([H])C([H])([H])C([H])([H])N(C(=O)N5C([H])([H])C([H])([H])C([H])([H])C([H])(n6nc(-c7c([H])c([H])c(Oc8c([H])c([H])c(F)c([H])c8F)c([H])c7[H])c(C(=O)N([H])[H])c6N([H])[H])C5([H])[H])C([H])([H])C4([H])[N+]([H])(C([H])([H])[H])C3([H])[H])c([H])c([H])c2C1([H])[H]

>  <smiles>  (92) 
[H]c1c([H])c([H])c2c(c1[H])C([H])([H])C([H])([H])C([H])([H])C2([H])N([H])C(=O)C1([H])N(C(=O)C([H])(N([H])C(=O)C([H])(N([H])C([H])([H])[H])C([H])([H])[H])C(C([H])([H])[H])(C([H])([H])[H])C([H])([H])[H])C([H])([H])c2c([H])c(OC([H])([H])C([H])([H])C([H])([H])C3([H])C([H])([H])C4([H])C([H])([H])C([H])([H])N(C(=O)N5C([H])([H])C([H])([H])C([H])([H])C([H])(n6nc(-c7c([H])c([H])c(Oc8c([H])c([H])c(F)c([H])c8F)c([H])c7[H])c(C(=O)N([H])[H])c6N([H])[H])C5([H])[H])C([H])([H])C4([H])[N+]([H])(C([H])([H])[H])C3([H])[H])c([H])c([H])c2C1([H])[H]

$$$$
92:0:0
     RDKit          3D

 90 98  0  0  1  0  0  0  0  0999 V2000
  -30.2850  -18.0210   20.7490 C   0  0  0  0  0  3  0  0  0  0  0  0
  -29.7770  -19.3660   21.2430 C   0  0  0  0  0  2  0  0  0  0  0  0
  -30.6750  -19.4000   19.0440 C   0  0  0  0  0  2  0  0  0  0  0  0
  -29.7470  -20.2240   19.9660 C   0  0  0  0  0  3  0  0  0  0  0  0
  -30.7200  -18.0340   19.5590 N   0  0  0  0  0  2  0  0  0  0  0  0
  -31.6290  -16.7360   22.4950 C   0  0  0  0  0  1  0  0  0  0  0  0
  -30.2980  -16.8170   21.7200 C   0  0  0  0  0  3  0  0  0  0  0  0
  -30.5420  -14.5800   20.4460 C   0  0  0  0  0  0  0  0  0  0  0  0
  -30.2660  -12.4490   19.2070 C   0  0  0  0  0  2  0  0  0  0  0  0
  -29.3060  -12.6500   18.0180 C   0  0  0  0  0  2  0  0  0  0  0  0
  -27.8390  -12.4690   18.4600 C   0  0  0  0  0  2  0  0  0  0  0  0
  -27.4990  -13.2730   19.7430 C   0  0  0  0  0  3  0  0  0  0  0  0
  -28.5680  -13.0460   20.8330 C   0  0  0  0  0  2  0  0  0  0  0  0
  -29.8800  -13.4010   20.2610 N   0  0  0  0  0  0  0  0  0  0  0  0
  -31.6480  -14.8010   19.9470 O   0  0  0  0  0  0  0  0  0  0  0  0
  -29.8740  -15.5070   21.1660 N   0  0  0  0  0  0  0  0  0  0  0  0
  -28.9470  -15.2200   21.4370 H   0  0  0  0  0  0  0  0  0  0  0  0
  -25.0900  -13.8230   20.4610 C   0  0  0  0  0  0  0  0  0  0  0  0
  -24.0410  -13.0280   20.8380 C   0  0  0  0  0  0  0  0  0  0  0  0
  -24.5340  -11.6870   20.8120 C   0  0  0  0  0  0  0  0  0  0  0  0
  -26.1550  -12.9670   20.2290 N   0  0  0  0  0  0  0  0  0  0  0  0
  -25.8240  -11.6770   20.4990 N   0  0  0  0  0  0  0  0  0  0  0  0
  -23.8390  -10.4090   21.0130 C   0  0  0  0  0  0  0  0  0  0  0  0
  -24.3020   -9.4560   21.9470 C   0  0  0  0  0  3  0  0  0  0  0  0
  -23.6070   -8.2420   22.1360 C   0  0  0  0  0  3  0  0  0  0  0  0
  -22.4340   -7.9720   21.3910 C   0  0  0  0  0  0  0  0  0  0  0  0
  -21.9910   -8.9140   20.4460 C   0  0  0  0  0  3  0  0  0  0  0  0
  -22.6870  -10.1200   20.2550 C   0  0  0  0  0  3  0  0  0  0  0  0
  -21.7090   -6.8090   21.4880 O   0  0  0  0  0  0  0  0  0  0  0  0
  -21.6950   -6.0640   22.6390 C   0  0  0  0  0  0  0  0  0  0  0  0
  -21.2760   -6.6090   23.8740 C   0  0  0  0  0  3  0  0  0  0  0  0
  -21.2090   -5.7890   25.0180 C   0  0  0  0  0  3  0  0  0  0  0  0
  -21.5520   -4.4260   24.9310 C   0  0  0  0  0  0  0  0  0  0  0  0
  -21.9630   -3.8810   23.7010 C   0  0  0  0  0  3  0  0  0  0  0  0
  -22.0310   -4.6970   22.5590 C   0  0  0  0  0  0  0  0  0  0  0  0
  -22.4090   -4.1630   21.3720 F   0  0  0  0  0  0  0  0  0  0  0  0
  -21.4800   -3.6380   26.0270 F   0  0  0  0  0  0  0  0  0  0  0  0
  -22.6340  -13.4730   21.1120 C   0  0  0  0  0  0  0  0  0  0  0  0
  -21.9260  -12.7660   21.9860 N   0  0  0  0  0  0  0  0  0  0  0  0
  -22.1690  -14.4820   20.5840 O   0  0  0  0  0  0  0  0  0  0  0  0
  -22.3140  -11.9490   22.4340 H   0  0  0  0  0  0  0  0  0  0  0  0
  -20.9810  -13.0440   22.2080 H   0  0  0  0  0  0  0  0  0  0  0  0
  -25.2210  -15.1970   20.2760 N   0  0  0  0  0  0  0  0  0  0  0  0
  -24.4400  -15.8360   20.3840 H   0  0  0  0  0  0  0  0  0  0  0  0
  -26.0610  -15.6520   19.9390 H   0  0  0  0  0  0  0  0  0  0  0  0
  -30.1300  -21.7410   20.1150 C   0  0  0  0  0  3  0  0  0  0  0  0
  -28.9380  -22.7480   20.1640 C   0  0  0  0  0  3  0  0  0  0  0  0
  -29.3050  -24.2700   20.2580 C   0  0  0  0  0  2  0  0  0  0  0  0
  -28.0940  -25.2090   19.9790 C   0  0  0  0  0  2  0  0  0  0  0  0
  -28.2970  -26.6410   20.1270 O   0  0  0  0  0  0  0  0  0  0  0  0
  -24.5810  -31.9220   23.2310 C   0  0  0  0  0  0  0  0  0  0  0  0
  -27.1490  -27.4340   20.1050 C   0  0  0  0  0  0  0  0  0  0  0  0
  -23.3470  -30.5380   21.5980 C   0  0  0  0  0  3  0  0  0  0  0  0
  -24.7720  -28.9980   20.1490 C   0  0  0  0  0  0  0  0  0  0  0  0
  -25.8800  -30.8670   21.3760 C   0  0  0  0  0  2  0  0  0  0  0  0
  -25.9470  -29.4980   20.7230 C   0  0  0  0  0  0  0  0  0  0  0  0
  -27.1390  -28.7270   20.6930 C   0  0  0  0  0  3  0  0  0  0  0  0
  -25.9460  -26.9690   19.5170 C   0  0  0  0  0  3  0  0  0  0  0  0
  -24.7690  -27.7350   19.5420 C   0  0  0  0  0  3  0  0  0  0  0  0
  -23.5380  -29.8700   20.2120 C   0  0  0  0  0  2  0  0  0  0  0  0
  -24.6210  -31.1240   22.1250 N   0  0  0  0  0  0  0  0  0  0  0  0
  -23.5070  -32.1980   23.7840 O   0  0  0  0  0  0  0  0  0  0  0  0
  -22.7000  -29.5150   22.5600 C   0  0  0  0  0  0  0  0  0  0  0  0
  -21.3740  -29.3330   22.4420 N   0  0  0  0  0  0  0  0  0  0  0  0
  -23.3880  -28.8870   23.3690 O   0  0  0  0  0  0  0  0  0  0  0  0
  -20.8800  -29.8920   21.7600 H   0  0  0  0  0  0  0  0  0  0  0  0
  -18.0030  -28.1330   22.9570 C   0  0  0  0  0  0  0  0  0  0  0  0
  -20.5620  -28.3950   23.2170 C   0  0  0  0  0  3  0  0  0  0  0  0
  -20.6640  -26.9630   22.6430 C   0  0  0  0  0  2  0  0  0  0  0  0
  -19.5580  -26.6370   21.6340 C   0  0  0  0  0  2  0  0  0  0  0  0
  -18.1780  -26.7820   22.2840 C   0  0  0  0  0  2  0  0  0  0  0  0
  -19.1230  -28.8970   23.3820 C   0  0  0  0  0  0  0  0  0  0  0  0
  -18.9050  -30.1610   23.9710 C   0  0  0  0  0  3  0  0  0  0  0  0
  -17.6000  -30.6610   24.1420 C   0  0  0  0  0  3  0  0  0  0  0  0
  -16.4950  -29.8950   23.7330 C   0  0  0  0  0  3  0  0  0  0  0  0
  -16.6980  -28.6330   23.1460 C   0  0  0  0  0  3  0  0  0  0  0  0
  -25.8760  -32.5440   23.8360 C   0  0  0  0  0  3  0  0  0  0  0  0
  -25.5780  -33.9410   24.1770 N   0  0  0  0  0  0  0  0  0  0  0  0
  -25.8960  -34.9960   23.4140 C   0  0  0  0  0  0  0  0  0  0  0  0
  -26.5420  -34.8940   22.3680 O   0  0  0  0  0  0  0  0  0  0  0  0
  -25.0000  -34.0940   24.9910 H   0  0  0  0  0  0  0  0  0  0  0  0
  -24.1600  -36.7910   23.1040 C   0  0  0  0  0  1  0  0  0  0  0  0
  -25.4190  -36.3830   23.8850 C   0  0  0  0  0  3  0  0  0  0  0  0
  -27.5740  -37.2650   24.6660 C   0  0  0  0  0  1  0  0  0  0  0  0
  -26.4490  -37.4360   23.7500 N   0  0  0  0  0  0  0  0  0  0  0  0
  -26.0480  -38.3560   23.9080 H   0  0  0  0  0  0  0  0  0  0  0  0
  -26.4060  -31.7630   25.1010 C   0  0  1  0  0  0  0  0  0  0  0  0
  -25.3270  -31.5260   26.1840 C   0  0  0  0  0  1  0  0  0  0  0  0
  -26.9770  -30.3850   24.6940 C   0  0  0  0  0  1  0  0  0  0  0  0
  -27.5690  -32.5480   25.7530 C   0  0  0  0  0  1  0  0  0  0  0  0
  1  2  1  0
  1  7  1  0
  3  5  1  0
  3  4  1  0
  4 46  1  0
  4  2  1  0
  5  1  1  0
  7  6  1  0
  8 16  1  0
  9 14  1  0
 10 11  1  0
 10  9  1  0
 12 11  1  0
 12 21  1  0
 12 13  1  0
 14  8  1  0
 14 13  1  0
 15  8  2  0
 16 17  1  0
 16  7  1  0
 18 19  2  0
 19 38  1  0
 20 19  1  0
 20 23  1  0
 21 18  1  0
 21 22  1  0
 22 20  2  0
 23 24  1  0
 24 25  2  0
 26 29  1  0
 26 25  1  0
 27 26  2  0
 28 27  1  0
 28 23  2  0
 29 30  1  0
 30 31  1  0
 31 32  2  0
 33 32  1  0
 33 37  1  0
 34 33  2  0
 35 30  2  0
 35 34  1  0
 36 35  1  0
 38 39  1  0
 39 42  1  0
 39 41  1  0
 40 38  2  0
 43 44  1  0
 43 18  1  0
 45 43  1  0
 46 47  2  0
 47 48  1  0
 49 50  1  0
 49 48  1  0
 51 62  2  0
 52 50  1  0
 52 57  1  0
 53 61  1  0
 53 63  1  0
 54 60  1  0
 54 56  1  0
 55 61  1  0
 56 55  1  0
 57 56  2  0
 58 59  1  0
 58 52  2  0
 59 54  2  0
 60 53  1  0
 61 51  1  0
 63 65  2  0
 64 63  1  0
 66 64  1  0
 67 76  2  0
 67 72  1  0
 68 64  1  0
 68 72  1  0
 69 68  1  0
 70 71  1  0
 70 69  1  0
 71 67  1  0
 72 73  2  0
 73 74  1  0
 75 74  2  0
 76 75  1  0
 77 51  1  0
 77 78  1  0
 77 87  1  0
 78 81  1  0
 79 83  1  0
 79 78  1  0
 80 79  2  0
 83 82  1  0
 85 83  1  0
 85 86  1  0
 85 84  1  0
 87 90  1  1
 87 88  1  0
 89 87  1  0
M  ISO  4   8 100  16 100  49 101  50 101
M  END
>  <TORSDO>  (93) 
F 21

>  <SCORE>  (93) 
-12.452

>  <name>  (93) 
92

>  <ligand_id>  (93) 
92

>  <original_smiles>  (93) 
[H]c1c([H])c([H])c2c(c1[H])C([H])([H])C([H])([H])C([H])([H])C2([H])N([H])C(=O)C1([H])N(C(=O)C([H])(N([H])C(=O)C([H])(N([H])C([H])([H])[H])C([H])([H])[H])C(C([H])([H])[H])(C([H])([H])[H])C([H])([H])[H])C([H])([H])c2c([H])c(OC([H])([H])C([H])([H])C([H])([H])C([H])([H])C3([H])C([H])([H])N=C(C([H])(N([H])C(=O)N4C([H])([H])C([H])([H])C([H])([H])C([H])(n5nc(-c6c([H])c([H])c(Oc7c([H])c([H])c(F)c([H])c7F)c([H])c6[H])c(C(=O)N([H])[H])c5N([H])[H])C4([H])[H])C([H])([H])[H])C3([H])[H])c([H])c([H])c2C1([H])[H]

>  <smiles>  (93) 
[H]c1c([H])c([H])c2c(c1[H])C([H])([H])C([H])([H])C([H])([H])C2([H])N([H])C(=O)C1([H])N(C(=O)C([H])(N([H])C(=O)C([H])(N([H])C([H])([H])[H])C([H])([H])[H])C(C([H])([H])[H])(C([H])([H])[H])C([H])([H])[H])C([H])([H])c2c([H])c(OC([H])([H])C([H])([H])C([H])([H])C([H])([H])C3([H])C([H])([H])N=C(C([H])(N([H])C(=O)N4C([H])([H])C([H])([H])C([H])([H])C([H])(n5nc(-c6c([H])c([H])c(Oc7c([H])c([H])c(F)c([H])c7F)c([H])c6[H])c(C(=O)N([H])[H])c5N([H])[H])C4([H])[H])C([H])([H])[H])C3([H])[H])c([H])c([H])c2C1([H])[H]

$$$$
93:0:0
     RDKit          3D

 94102  0  0  1  0  0  0  0  0999 V2000
  -30.5130  -19.9220   20.3360 N   0  0  0  0  0  4  0  0  0  0  0  0
  -30.8270  -20.0580   19.3870 H   0  0  0  0  0  0  0  0  0  0  0  0
  -31.2580  -20.3080   20.8910 H   0  0  0  0  0  0  0  0  0  0  0  0
  -30.7440  -14.7840   19.6980 C   0  0  0  0  0  0  0  0  0  0  0  0
  -30.2880  -12.6460   18.4710 C   0  0  0  0  0  2  0  0  0  0  0  0
  -29.2010  -12.8940   17.4050 C   0  0  0  0  0  2  0  0  0  0  0  0
  -27.7970  -12.7080   18.0130 C   0  0  0  0  0  2  0  0  0  0  0  0
  -27.6310  -13.4330   19.3770 C   0  0  0  0  0  3  0  0  0  0  0  0
  -28.8380  -13.1940   20.3100 C   0  0  0  0  0  2  0  0  0  0  0  0
  -30.0500  -13.5980   19.5840 N   0  0  0  0  0  0  0  0  0  0  0  0
  -31.8120  -14.9240   19.0930 O   0  0  0  0  0  0  0  0  0  0  0  0
  -30.5350  -16.1980   21.7180 C   0  0  0  0  0  2  0  0  0  0  0  0
  -29.9020  -17.2490   19.6950 C   0  0  0  0  0  2  0  0  0  0  0  0
  -30.7660  -17.7360   21.9650 C   0  0  0  0  0  3  0  0  0  0  0  0
  -30.5800  -18.3800   20.5690 C   0  0  0  0  0  3  0  0  0  0  0  0
  -30.1580  -15.8890   20.3190 N   0  0  0  0  0  0  0  0  0  0  0  0
  -25.3620  -13.9580   20.4520 C   0  0  0  0  0  0  0  0  0  0  0  0
  -24.3540  -13.1570   20.9120 C   0  0  0  0  0  0  0  0  0  0  0  0
  -24.8010  -11.8110   20.7300 C   0  0  0  0  0  0  0  0  0  0  0  0
  -26.3620  -13.1010   20.0200 N   0  0  0  0  0  0  0  0  0  0  0  0
  -26.0390  -11.8010   20.2440 N   0  0  0  0  0  0  0  0  0  0  0  0
  -24.1010  -10.5370   20.9310 C   0  0  0  0  0  0  0  0  0  0  0  0
  -24.5860   -9.5610   21.8300 C   0  0  0  0  0  3  0  0  0  0  0  0
  -23.8830   -8.3530   22.0230 C   0  0  0  0  0  3  0  0  0  0  0  0
  -22.6800   -8.1100   21.3200 C   0  0  0  0  0  0  0  0  0  0  0  0
  -22.2130   -9.0730   20.4080 C   0  0  0  0  0  3  0  0  0  0  0  0
  -22.9160  -10.2730   20.2120 C   0  0  0  0  0  3  0  0  0  0  0  0
  -21.9460   -6.9530   21.4230 O   0  0  0  0  0  0  0  0  0  0  0  0
  -21.8640   -6.2520   22.6000 C   0  0  0  0  0  0  0  0  0  0  0  0
  -21.3780   -6.8420   23.7860 C   0  0  0  0  0  3  0  0  0  0  0  0
  -21.2490   -6.0670   24.9560 C   0  0  0  0  0  3  0  0  0  0  0  0
  -21.5940   -4.7030   24.9390 C   0  0  0  0  0  0  0  0  0  0  0  0
  -22.0720   -4.1110   23.7570 C   0  0  0  0  0  3  0  0  0  0  0  0
  -22.2040   -4.8830   22.5890 C   0  0  0  0  0  0  0  0  0  0  0  0
  -22.6450   -4.3040   21.4470 F   0  0  0  0  0  0  0  0  0  0  0  0
  -21.4620   -3.9560   26.0610 F   0  0  0  0  0  0  0  0  0  0  0  0
  -23.0080  -13.6070   21.3990 C   0  0  0  0  0  0  0  0  0  0  0  0
  -22.4170  -12.8720   22.3330 N   0  0  0  0  0  0  0  0  0  0  0  0
  -22.4930  -14.6450   20.9820 O   0  0  0  0  0  0  0  0  0  0  0  0
  -22.8470  -12.0320   22.6920 H   0  0  0  0  0  0  0  0  0  0  0  0
  -21.5150  -13.1490   22.6920 H   0  0  0  0  0  0  0  0  0  0  0  0
  -25.5090  -15.3380   20.3460 N   0  0  0  0  0  0  0  0  0  0  0  0
  -24.7700  -15.9830   20.6030 H   0  0  0  0  0  0  0  0  0  0  0  0
  -26.3160  -15.8020   19.9500 H   0  0  0  0  0  0  0  0  0  0  0  0
  -29.9320  -18.2760   23.1620 C   0  0  0  0  0  2  0  0  0  0  0  0
  -30.6940  -19.1710   24.0620 N   0  0  0  0  0  4  0  0  0  0  0  0
  -30.1330  -19.4240   24.8580 H   0  0  0  0  0  0  0  0  0  0  0  0
  -30.9850  -20.0230   23.6170 H   0  0  0  0  0  0  0  0  0  0  0  0
  -31.5070  -18.7060   24.4210 H   0  0  0  0  0  0  0  0  0  0  0  0
  -29.3200  -20.8870   20.4790 C   0  0  0  0  0  2  0  0  0  0  0  0
  -29.6480  -22.4670   20.7600 C   0  0  0  0  0  2  0  0  0  0  0  0
  -28.7920  -23.7180   20.1630 C   0  0  0  0  0  2  0  0  0  0  0  0
  -28.7160  -25.1260   20.9680 C   0  0  0  0  0  2  0  0  0  0  0  0
  -28.6880  -26.4730   20.3160 O   0  0  0  0  0  0  0  0  0  0  0  0
  -24.7380  -31.8480   23.2280 C   0  0  0  0  0  0  0  0  0  0  0  0
  -27.5290  -27.2760   20.3310 C   0  0  0  0  0  0  0  0  0  0  0  0
  -23.6050  -30.3940   21.5850 C   0  0  0  0  0  3  0  0  0  0  0  0
  -25.1230  -28.8370   20.2280 C   0  0  0  0  0  0  0  0  0  0  0  0
  -26.1390  -30.7650   21.4470 C   0  0  0  0  0  2  0  0  0  0  0  0
  -26.2670  -29.3690   20.8390 C   0  0  0  0  0  0  0  0  0  0  0  0
  -27.4740  -28.6040   20.8720 C   0  0  0  0  0  3  0  0  0  0  0  0
  -26.3630  -26.7950   19.7040 C   0  0  0  0  0  3  0  0  0  0  0  0
  -25.1750  -27.5570   19.6490 C   0  0  0  0  0  3  0  0  0  0  0  0
  -23.8660  -29.6890   20.2260 C   0  0  0  0  0  2  0  0  0  0  0  0
  -24.8460  -31.0230   22.1450 N   0  0  0  0  0  0  0  0  0  0  0  0
  -23.6380  -32.1100   23.7320 O   0  0  0  0  0  0  0  0  0  0  0  0
  -22.9430  -29.3820   22.5520 C   0  0  0  0  0  0  0  0  0  0  0  0
  -21.6200  -29.1900   22.4170 N   0  0  0  0  0  0  0  0  0  0  0  0
  -23.6210  -28.7730   23.3830 O   0  0  0  0  0  0  0  0  0  0  0  0
  -21.1320  -29.7380   21.7200 H   0  0  0  0  0  0  0  0  0  0  0  0
  -18.2470  -27.9790   22.9140 C   0  0  0  0  0  0  0  0  0  0  0  0
  -20.8040  -28.2500   23.1880 C   0  0  0  0  0  3  0  0  0  0  0  0
  -20.9140  -26.8180   22.6160 C   0  0  0  0  0  2  0  0  0  0  0  0
  -19.8140  -26.4870   21.6020 C   0  0  0  0  0  2  0  0  0  0  0  0
  -18.4300  -26.6290   22.2430 C   0  0  0  0  0  2  0  0  0  0  0  0
  -19.3610  -28.7460   23.3450 C   0  0  0  0  0  0  0  0  0  0  0  0
  -19.1360  -30.0090   23.9360 C   0  0  0  0  0  3  0  0  0  0  0  0
  -17.8290  -30.5040   24.1010 C   0  0  0  0  0  3  0  0  0  0  0  0
  -16.7300  -29.7350   23.6860 C   0  0  0  0  0  3  0  0  0  0  0  0
  -16.9390  -28.4750   23.0990 C   0  0  0  0  0  3  0  0  0  0  0  0
  -25.9930  -32.5210   23.8700 C   0  0  0  0  0  3  0  0  0  0  0  0
  -25.6330  -33.9090   24.1950 N   0  0  0  0  0  0  0  0  0  0  0  0
  -25.9330  -34.9730   23.4360 C   0  0  0  0  0  0  0  0  0  0  0  0
  -26.6090  -34.8890   22.4060 O   0  0  0  0  0  0  0  0  0  0  0  0
  -25.0370  -34.0460   24.9970 H   0  0  0  0  0  0  0  0  0  0  0  0
  -24.1450  -36.7050   23.0800 C   0  0  0  0  0  1  0  0  0  0  0  0
  -25.4000  -36.3460   23.8910 C   0  0  0  0  0  3  0  0  0  0  0  0
  -27.5040  -37.3040   24.7150 C   0  0  0  0  0  1  0  0  0  0  0  0
  -26.3960  -37.4330   23.7720 N   0  0  0  0  0  0  0  0  0  0  0  0
  -25.9610  -38.3410   23.9170 H   0  0  0  0  0  0  0  0  0  0  0  0
  -26.5100  -31.7710   25.1580 C   0  0  1  0  0  0  0  0  0  0  0  0
  -25.4050  -31.5000   26.2060 C   0  0  0  0  0  1  0  0  0  0  0  0
  -27.1450  -30.4140   24.7780 C   0  0  0  0  0  1  0  0  0  0  0  0
  -27.6250  -32.5990   25.8380 C   0  0  0  0  0  1  0  0  0  0  0  0
  1 50  1  0
  1  3  1  0
  2  1  1  0
  4 16  1  0
  5 10  1  0
  6  7  1  0
  6  5  1  0
  8  7  1  0
  8 20  1  0
  8  9  1  0
 10  4  1  0
 10  9  1  0
 11  4  2  0
 12 14  1  0
 13 16  1  0
 13 15  1  0
 14 45  1  0
 15  1  1  0
 15 14  1  0
 16 12  1  0
 17 18  2  0
 18 37  1  0
 19 18  1  0
 19 22  1  0
 20 21  1  0
 20 17  1  0
 21 19  2  0
 22 23  1  0
 23 24  2  0
 25 28  1  0
 25 24  1  0
 26 25  2  0
 27 26  1  0
 27 22  2  0
 28 29  1  0
 29 30  1  0
 30 31  2  0
 32 31  1  0
 32 36  1  0
 33 32  2  0
 34 29  2  0
 34 33  1  0
 35 34  1  0
 37 38  1  0
 38 40  1  0
 38 41  1  0
 39 37  2  0
 42 17  1  0
 42 43  1  0
 44 42  1  0
 45 46  1  0
 46 49  1  0
 46 47  1  0
 48 46  1  0
 50 51  1  0
 52 51  1  0
 52 53  1  0
 54 56  1  0
 54 53  1  0
 55 66  2  0
 56 61  1  0
 57 65  1  0
 57 67  1  0
 58 60  1  0
 59 65  1  0
 60 61  2  0
 60 59  1  0
 62 56  2  0
 63 62  1  0
 63 58  2  0
 64 58  1  0
 64 57  1  0
 65 55  1  0
 67 69  2  0
 68 67  1  0
 70 68  1  0
 71 80  2  0
 71 76  1  0
 72 68  1  0
 72 76  1  0
 73 72  1  0
 74 75  1  0
 74 73  1  0
 75 71  1  0
 76 77  2  0
 77 78  1  0
 79 78  2  0
 80 79  1  0
 81 55  1  0
 81 82  1  0
 81 91  1  0
 82 85  1  0
 83 87  1  0
 83 82  1  0
 84 83  2  0
 87 86  1  0
 89 87  1  0
 89 90  1  0
 89 88  1  0
 91 94  1  1
 91 92  1  0
 93 91  1  0
M  ISO  4   4 100  16 100  53 101  54 101
M  END
>  <TORSDO>  (94) 
F 22

>  <SCORE>  (94) 
-11.070

>  <name>  (94) 
93

>  <ligand_id>  (94) 
93

>  <original_smiles>  (94) 
[H]c1c([H])c([H])c2c(c1[H])C([H])([H])C([H])([H])C([H])([H])C2([H])N([H])C(=O)C1([H])N(C(=O)C([H])(N([H])C(=O)C([H])(N([H])C([H])([H])[H])C([H])([H])[H])C(C([H])([H])[H])(C([H])([H])[H])C([H])([H])[H])C([H])([H])c2c([H])c(OC([H])([H])C([H])([H])C([H])([H])C([H])([H])[N+]([H])([H])C3([H])C([H])([H])N(C(=O)N4C([H])([H])C([H])([H])C([H])([H])C([H])(n5nc(-c6c([H])c([H])c(Oc7c([H])c([H])c(F)c([H])c7F)c([H])c6[H])c(C(=O)N([H])[H])c5N([H])[H])C4([H])[H])C([H])([H])C3([H])C([H])([H])[N+]([H])([H])[H])c([H])c([H])c2C1([H])[H]

>  <smiles>  (94) 
[H]c1c([H])c([H])c2c(c1[H])C([H])([H])C([H])([H])C([H])([H])C2([H])N([H])C(=O)C1([H])N(C(=O)C([H])(N([H])C(=O)C([H])(N([H])C([H])([H])[H])C([H])([H])[H])C(C([H])([H])[H])(C([H])([H])[H])C([H])([H])[H])C([H])([H])c2c([H])c(OC([H])([H])C([H])([H])C([H])([H])C([H])([H])[N+]([H])([H])C3([H])C([H])([H])N(C(=O)N4C([H])([H])C([H])([H])C([H])([H])C([H])(n5nc(-c6c([H])c([H])c(Oc7c([H])c([H])c(F)c([H])c7F)c([H])c6[H])c(C(=O)N([H])[H])c5N([H])[H])C4([H])[H])C([H])([H])C3([H])C([H])([H])[N+]([H])([H])[H])c([H])c([H])c2C1([H])[H]

$$$$
94:0:0
     RDKit          3D

 92100  0  0  1  0  0  0  0  0999 V2000
  -30.9210  -21.5500   20.0790 C   0  0  0  0  0  3  0  0  0  0  0  0
  -28.6010  -21.3430   20.7630 C   0  0  0  0  0  3  0  0  0  0  0  0
  -31.0300  -20.1390   20.0280 C   0  0  0  0  0  3  0  0  0  0  0  0
  -28.7050  -19.9360   20.6920 C   0  0  0  0  0  3  0  0  0  0  0  0
  -29.6970  -22.1680   20.4250 C   0  0  0  0  0  0  0  0  0  0  0  0
  -29.9140  -19.3160   20.3090 C   0  0  0  0  0  0  0  0  0  0  0  0
  -29.5510  -23.7010   20.4340 C   0  0  0  0  0  2  0  0  0  0  0  0
  -28.6330  -23.5410   18.0550 C   0  0  0  0  0  1  0  0  0  0  0  0
  -28.5610  -24.3140   19.3900 C   0  0  0  0  0  3  0  0  0  0  0  0
  -28.8000  -25.8330   19.0930 C   0  0  0  0  0  2  0  0  0  0  0  0
  -28.5030  -26.7900   20.1270 O   0  0  0  0  0  0  0  0  0  0  0  0
  -24.6310  -31.9270   23.2310 C   0  0  0  0  0  0  0  0  0  0  0  0
  -27.3160  -27.5060   20.0990 C   0  0  0  0  0  0  0  0  0  0  0  0
  -23.4380  -30.5290   21.5790 C   0  0  0  0  0  3  0  0  0  0  0  0
  -24.9030  -29.0140   20.1350 C   0  0  0  0  0  0  0  0  0  0  0  0
  -25.9650  -30.8910   21.3920 C   0  0  0  0  0  2  0  0  0  0  0  0
  -26.0590  -29.5270   20.7340 C   0  0  0  0  0  0  0  0  0  0  0  0
  -27.2610  -28.7790   20.7220 C   0  0  0  0  0  3  0  0  0  0  0  0
  -26.1350  -27.0000   19.5080 C   0  0  0  0  0  3  0  0  0  0  0  0
  -24.9370  -27.7460   19.5250 C   0  0  0  0  0  3  0  0  0  0  0  0
  -23.6580  -29.8770   20.1890 C   0  0  0  0  0  2  0  0  0  0  0  0
  -24.6960  -31.1290   22.1270 N   0  0  0  0  0  0  0  0  0  0  0  0
  -23.5470  -32.1910   23.7690 O   0  0  0  0  0  0  0  0  0  0  0  0
  -22.7940  -29.4910   22.5250 C   0  0  0  0  0  0  0  0  0  0  0  0
  -21.4690  -29.3070   22.4050 N   0  0  0  0  0  0  0  0  0  0  0  0
  -23.4820  -28.8570   23.3300 O   0  0  0  0  0  0  0  0  0  0  0  0
  -20.9680  -29.8830   21.7430 H   0  0  0  0  0  0  0  0  0  0  0  0
  -18.0970  -28.1040   22.8990 C   0  0  0  0  0  0  0  0  0  0  0  0
  -20.6560  -28.3550   23.1630 C   0  0  0  0  0  3  0  0  0  0  0  0
  -20.7540  -26.9330   22.5630 C   0  0  0  0  0  2  0  0  0  0  0  0
  -19.6480  -26.6270   21.5490 C   0  0  0  0  0  2  0  0  0  0  0  0
  -18.2700  -26.7630   22.2040 C   0  0  0  0  0  2  0  0  0  0  0  0
  -19.2200  -28.8590   23.3340 C   0  0  0  0  0  0  0  0  0  0  0  0
  -19.0070  -30.1150   23.9420 C   0  0  0  0  0  3  0  0  0  0  0  0
  -17.7030  -30.6170   24.1180 C   0  0  0  0  0  3  0  0  0  0  0  0
  -16.5960  -29.8590   23.7020 C   0  0  0  0  0  3  0  0  0  0  0  0
  -16.7940  -28.6040   23.0990 C   0  0  0  0  0  3  0  0  0  0  0  0
  -25.9120  -32.5640   23.8520 C   0  0  0  0  0  3  0  0  0  0  0  0
  -25.5970  -33.9610   24.1820 N   0  0  0  0  0  0  0  0  0  0  0  0
  -25.9330  -35.0150   23.4270 C   0  0  0  0  0  0  0  0  0  0  0  0
  -26.6130  -34.9150   22.4020 O   0  0  0  0  0  0  0  0  0  0  0  0
  -24.9920  -34.1180   24.9750 H   0  0  0  0  0  0  0  0  0  0  0  0
  -24.2030  -36.8030   23.0600 C   0  0  0  0  0  1  0  0  0  0  0  0
  -25.4370  -36.4020   23.8830 C   0  0  0  0  0  3  0  0  0  0  0  0
  -27.5580  -37.2880   24.7410 C   0  0  0  0  0  1  0  0  0  0  0  0
  -26.4660  -37.4590   23.7860 N   0  0  0  0  0  0  0  0  0  0  0  0
  -26.0550  -38.3770   23.9370 H   0  0  0  0  0  0  0  0  0  0  0  0
  -26.4290  -31.7930   25.1260 C   0  0  1  0  0  0  0  0  0  0  0  0
  -25.3370  -31.5430   26.1930 C   0  0  0  0  0  1  0  0  0  0  0  0
  -27.0190  -30.4220   24.7250 C   0  0  0  0  0  1  0  0  0  0  0  0
  -27.5720  -32.5930   25.7940 C   0  0  0  0  0  1  0  0  0  0  0  0
  -29.9800  -17.7900   20.1150 C   0  0  0  0  0  2  0  0  0  0  0  0
  -31.2040  -17.1600   22.3060 C   0  0  0  0  0  1  0  0  0  0  0  0
  -29.9770  -16.9250   21.4090 C   0  0  0  0  0  3  0  0  0  0  0  0
  -30.4850  -14.5790   20.4610 C   0  0  0  0  0  0  0  0  0  0  0  0
  -30.2720  -12.4430   19.2320 C   0  0  0  0  0  2  0  0  0  0  0  0
  -29.3100  -12.6480   18.0440 C   0  0  0  0  0  2  0  0  0  0  0  0
  -27.8410  -12.4510   18.4770 C   0  0  0  0  0  2  0  0  0  0  0  0
  -27.4900  -13.2390   19.7690 C   0  0  0  0  0  3  0  0  0  0  0  0
  -28.5590  -13.0050   20.8580 C   0  0  0  0  0  2  0  0  0  0  0  0
  -29.8700  -13.3770   20.2940 N   0  0  0  0  0  0  0  0  0  0  0  0
  -31.5740  -14.8550   19.9480 O   0  0  0  0  0  0  0  0  0  0  0  0
  -29.7510  -15.4920   21.1310 N   0  0  0  0  0  0  0  0  0  0  0  0
  -28.8540  -15.1410   21.4350 H   0  0  0  0  0  0  0  0  0  0  0  0
  -25.0790  -13.7770   20.5010 C   0  0  0  0  0  0  0  0  0  0  0  0
  -24.0380  -12.9750   20.8770 C   0  0  0  0  0  0  0  0  0  0  0  0
  -24.5370  -11.6360   20.8400 C   0  0  0  0  0  0  0  0  0  0  0  0
  -26.1470  -12.9270   20.2550 N   0  0  0  0  0  0  0  0  0  0  0  0
  -25.8240  -11.6340   20.5180 N   0  0  0  0  0  0  0  0  0  0  0  0
  -23.8490  -10.3540   21.0360 C   0  0  0  0  0  0  0  0  0  0  0  0
  -24.3060   -9.4080   21.9810 C   0  0  0  0  0  3  0  0  0  0  0  0
  -23.6150   -8.1920   22.1670 C   0  0  0  0  0  3  0  0  0  0  0  0
  -22.4550   -7.9090   21.4080 C   0  0  0  0  0  0  0  0  0  0  0  0
  -22.0160   -8.8450   20.4540 C   0  0  0  0  0  3  0  0  0  0  0  0
  -22.7070  -10.0540   20.2670 C   0  0  0  0  0  3  0  0  0  0  0  0
  -21.7380   -6.7400   21.4970 O   0  0  0  0  0  0  0  0  0  0  0  0
  -21.7000   -6.0060   22.6540 C   0  0  0  0  0  0  0  0  0  0  0  0
  -21.2360   -6.5540   23.8690 C   0  0  0  0  0  3  0  0  0  0  0  0
  -21.1460   -5.7450   25.0200 C   0  0  0  0  0  3  0  0  0  0  0  0
  -21.5110   -4.3870   24.9560 C   0  0  0  0  0  0  0  0  0  0  0  0
  -21.9680   -3.8370   23.7460 C   0  0  0  0  0  3  0  0  0  0  0  0
  -22.0580   -4.6440   22.5980 C   0  0  0  0  0  0  0  0  0  0  0  0
  -22.4770   -4.1040   21.4270 F   0  0  0  0  0  0  0  0  0  0  0  0
  -21.4180   -3.6070   26.0570 F   0  0  0  0  0  0  0  0  0  0  0  0
  -22.6290  -13.4100   21.1630 C   0  0  0  0  0  0  0  0  0  0  0  0
  -21.9330  -12.6930   22.0360 N   0  0  0  0  0  0  0  0  0  0  0  0
  -22.1520  -14.4190   20.6420 O   0  0  0  0  0  0  0  0  0  0  0  0
  -22.3340  -11.8810   22.4820 H   0  0  0  0  0  0  0  0  0  0  0  0
  -20.9840  -12.9570   22.2630 H   0  0  0  0  0  0  0  0  0  0  0  0
  -25.1980  -15.1550   20.3280 N   0  0  0  0  0  0  0  0  0  0  0  0
  -24.4030  -15.7720   20.4430 H   0  0  0  0  0  0  0  0  0  0  0  0
  -26.0300  -15.6360   20.0060 H   0  0  0  0  0  0  0  0  0  0  0  0
  1  5  1  0
  3  1  2  0
  3  6  1  0
  4  2  1  0
  5  7  1  0
  5  2  2  0
  6  4  2  0
  9  8  1  0
  9  7  1  0
 10  9  1  0
 10 11  1  0
 12 23  2  0
 13 11  1  0
 13 18  1  0
 14 22  1  0
 14 24  1  0
 15 21  1  0
 15 17  1  0
 16 22  1  0
 17 16  1  0
 18 17  2  0
 19 20  1  0
 19 13  2  0
 20 15  2  0
 21 14  1  0
 22 12  1  0
 24 26  2  0
 25 24  1  0
 27 25  1  0
 28 37  2  0
 28 33  1  0
 29 25  1  0
 29 33  1  0
 30 29  1  0
 31 32  1  0
 31 30  1  0
 32 28  1  0
 33 34  2  0
 34 35  1  0
 36 35  2  0
 37 36  1  0
 38 12  1  0
 38 39  1  0
 38 48  1  0
 39 42  1  0
 40 44  1  0
 40 39  1  0
 41 40  2  0
 44 43  1  0
 46 44  1  0
 46 47  1  0
 46 45  1  0
 48 51  1  1
 48 49  1  0
 50 48  1  0
 52  6  1  0
 52 54  1  0
 54 53  1  0
 55 63  1  0
 56 61  1  0
 57 58  1  0
 57 56  1  0
 59 58  1  0
 59 68  1  0
 59 60  1  0
 61 55  1  0
 61 60  1  0
 62 55  2  0
 63 54  1  0
 63 64  1  0
 65 66  2  0
 66 85  1  0
 67 66  1  0
 67 70  1  0
 68 65  1  0
 68 69  1  0
 69 67  2  0
 70 71  1  0
 71 72  2  0
 73 76  1  0
 73 72  1  0
 74 73  2  0
 75 74  1  0
 75 70  2  0
 76 77  1  0
 77 78  1  0
 78 79  2  0
 80 79  1  0
 80 84  1  0
 81 80  2  0
 82 77  2  0
 82 81  1  0
 83 82  1  0
 85 86  1  0
 86 89  1  0
 86 88  1  0
 87 85  2  0
 90 91  1  0
 90 65  1  0
 92 90  1  0
M  ISO  4  10 101  11 101  55 100  63 100
M  END
>  <TORSDO>  (95) 
F 21

>  <SCORE>  (95) 
-13.485

>  <name>  (95) 
94

>  <ligand_id>  (95) 
94

>  <original_smiles>  (95) 
[H]c1c([H])c([H])c2c(c1[H])C([H])([H])C([H])([H])C([H])([H])C2([H])N([H])C(=O)C1([H])N(C(=O)C([H])(N([H])C(=O)C([H])(N([H])C([H])([H])[H])C([H])([H])[H])C(C([H])([H])[H])(C([H])([H])[H])C([H])([H])[H])C([H])([H])c2c([H])c(OC([H])([H])C([H])(C([H])([H])[H])C([H])([H])c3c([H])c([H])c(C([H])([H])C([H])(N([H])C(=O)N4C([H])([H])C([H])([H])C([H])([H])C([H])(n5nc(-c6c([H])c([H])c(Oc7c([H])c([H])c(F)c([H])c7F)c([H])c6[H])c(C(=O)N([H])[H])c5N([H])[H])C4([H])[H])C([H])([H])[H])c([H])c3[H])c([H])c([H])c2C1([H])[H]

>  <smiles>  (95) 
[H]c1c([H])c([H])c2c(c1[H])C([H])([H])C([H])([H])C([H])([H])C2([H])N([H])C(=O)C1([H])N(C(=O)C([H])(N([H])C(=O)C([H])(N([H])C([H])([H])[H])C([H])([H])[H])C(C([H])([H])[H])(C([H])([H])[H])C([H])([H])[H])C([H])([H])c2c([H])c(OC([H])([H])C([H])(C([H])([H])[H])C([H])([H])c3c([H])c([H])c(C([H])([H])C([H])(N([H])C(=O)N4C([H])([H])C([H])([H])C([H])([H])C([H])(n5nc(-c6c([H])c([H])c(Oc7c([H])c([H])c(F)c([H])c7F)c([H])c6[H])c(C(=O)N([H])[H])c5N([H])[H])C4([H])[H])C([H])([H])[H])c([H])c3[H])c([H])c([H])c2C1([H])[H]

$$$$
95:0:0
     RDKit          3D

 92100  0  0  1  0  0  0  0  0999 V2000
  -29.4880  -20.1220   20.9220 C   0  0  0  0  0  0  0  0  0  0  0  0
  -29.1390  -20.0140   22.1000 O   0  0  0  0  0  0  0  0  0  0  0  0
  -30.9560  -15.0570   20.2290 C   0  0  0  0  0  0  0  0  0  0  0  0
  -30.7040  -12.8150   19.1900 C   0  0  0  0  0  2  0  0  0  0  0  0
  -29.7360  -12.8690   17.9860 C   0  0  0  0  0  2  0  0  0  0  0  0
  -28.2670  -12.7830   18.4410 C   0  0  0  0  0  2  0  0  0  0  0  0
  -27.9340  -13.6550   19.6820 C   0  0  0  0  0  3  0  0  0  0  0  0
  -29.0140  -13.5350   20.7770 C   0  0  0  0  0  2  0  0  0  0  0  0
  -30.2980  -13.8570   20.1500 N   0  0  0  0  0  0  0  0  0  0  0  0
  -32.1780  -15.1200   20.0620 O   0  0  0  0  0  0  0  0  0  0  0  0
  -28.8580  -17.3090   18.1980 C   0  0  0  0  0  2  0  0  0  0  0  0
  -30.1480  -16.5640   18.5690 C   0  0  0  0  0  2  0  0  0  0  0  0
  -30.2280  -17.4810   20.7930 C   0  0  0  0  0  2  0  0  0  0  0  0
  -29.7170  -18.8210   20.0440 C   0  0  0  0  0  3  0  0  0  0  0  0
  -28.4670  -18.4240   19.1970 C   0  0  0  0  0  3  0  0  0  0  0  0
  -30.1960  -16.1910   19.9900 N   0  0  0  0  0  0  0  0  0  0  0  0
  -25.5740  -14.2540   20.4970 C   0  0  0  0  0  0  0  0  0  0  0  0
  -24.5000  -13.4800   20.8420 C   0  0  0  0  0  0  0  0  0  0  0  0
  -24.9380  -12.1250   20.7310 C   0  0  0  0  0  0  0  0  0  0  0  0
  -26.5970  -13.3700   20.1930 N   0  0  0  0  0  0  0  0  0  0  0  0
  -26.2220  -12.0820   20.3990 N   0  0  0  0  0  0  0  0  0  0  0  0
  -24.1950  -10.8640   20.8630 C   0  0  0  0  0  0  0  0  0  0  0  0
  -24.5930   -9.8630   21.7790 C   0  0  0  0  0  3  0  0  0  0  0  0
  -23.8520   -8.6690   21.8980 C   0  0  0  0  0  3  0  0  0  0  0  0
  -22.6990   -8.4660   21.1030 C   0  0  0  0  0  0  0  0  0  0  0  0
  -22.3210   -9.4550   20.1770 C   0  0  0  0  0  3  0  0  0  0  0  0
  -23.0620  -10.6420   20.0560 C   0  0  0  0  0  3  0  0  0  0  0  0
  -21.9300   -7.3270   21.1370 O   0  0  0  0  0  0  0  0  0  0  0  0
  -21.8160   -6.5700   22.2770 C   0  0  0  0  0  0  0  0  0  0  0  0
  -21.2940   -7.1030   23.4750 C   0  0  0  0  0  3  0  0  0  0  0  0
  -21.1260   -6.2730   24.6010 C   0  0  0  0  0  3  0  0  0  0  0  0
  -21.4730   -4.9100   24.5290 C   0  0  0  0  0  0  0  0  0  0  0  0
  -21.9900   -4.3770   23.3360 C   0  0  0  0  0  3  0  0  0  0  0  0
  -22.1580   -5.2050   22.2120 C   0  0  0  0  0  0  0  0  0  0  0  0
  -22.6360   -4.6820   21.0570 F   0  0  0  0  0  0  0  0  0  0  0  0
  -21.3040   -4.1100   25.6080 F   0  0  0  0  0  0  0  0  0  0  0  0
  -23.1170  -13.9640   21.1650 C   0  0  0  0  0  0  0  0  0  0  0  0
  -22.3970  -13.2360   22.0110 N   0  0  0  0  0  0  0  0  0  0  0  0
  -22.6840  -15.0200   20.7060 O   0  0  0  0  0  0  0  0  0  0  0  0
  -22.7620  -12.3790   22.4030 H   0  0  0  0  0  0  0  0  0  0  0  0
  -21.4690  -13.5360   22.2710 H   0  0  0  0  0  0  0  0  0  0  0  0
  -25.7630  -15.6290   20.3930 N   0  0  0  0  0  0  0  0  0  0  0  0
  -25.0190  -16.2930   20.5710 H   0  0  0  0  0  0  0  0  0  0  0  0
  -26.6250  -16.0620   20.0900 H   0  0  0  0  0  0  0  0  0  0  0  0
  -27.7360  -19.5720   18.4520 C   0  0  0  0  0  2  0  0  0  0  0  0
  -25.6710  -20.3390   17.1600 C   0  0  0  0  0  1  0  0  0  0  0  0
  -26.4220  -19.1490   17.7660 C   0  0  0  0  0  2  0  0  0  0  0  0
  -29.7090  -21.5610   20.2980 C   0  0  0  0  0  3  0  0  0  0  0  0
  -29.0260  -22.8250   20.9880 C   0  0  0  0  0  3  0  0  0  0  0  0
  -29.2400  -24.2630   20.3270 C   0  0  0  0  0  3  0  0  0  0  0  0
  -28.5050  -25.5000   21.0020 C   0  0  0  0  0  3  0  0  0  0  0  0
  -28.6840  -26.8560   20.4410 O   0  0  0  0  0  0  0  0  0  0  0  0
  -24.6530  -32.0670   23.3710 C   0  0  0  0  0  0  0  0  0  0  0  0
  -27.5440  -27.6620   20.3790 C   0  0  0  0  0  0  0  0  0  0  0  0
  -23.5620  -30.6350   21.6800 C   0  0  0  0  0  3  0  0  0  0  0  0
  -25.1200  -29.1590   20.2920 C   0  0  0  0  0  0  0  0  0  0  0  0
  -26.0870  -31.0640   21.5820 C   0  0  0  0  0  2  0  0  0  0  0  0
  -26.2470  -29.6970   20.9310 C   0  0  0  0  0  0  0  0  0  0  0  0
  -27.4660  -28.9600   20.9630 C   0  0  0  0  0  3  0  0  0  0  0  0
  -26.4040  -27.1740   19.7070 C   0  0  0  0  0  3  0  0  0  0  0  0
  -25.1990  -27.9020   19.6700 C   0  0  0  0  0  3  0  0  0  0  0  0
  -23.8480  -29.9810   20.3030 C   0  0  0  0  0  2  0  0  0  0  0  0
  -24.7840  -31.2720   22.2700 N   0  0  0  0  0  0  0  0  0  0  0  0
  -23.5420  -32.2950   23.8720 O   0  0  0  0  0  0  0  0  0  0  0  0
  -22.9120  -29.5830   22.6100 C   0  0  0  0  0  0  0  0  0  0  0  0
  -21.6000  -29.3510   22.4350 N   0  0  0  0  0  0  0  0  0  0  0  0
  -23.5880  -28.9790   23.4490 O   0  0  0  0  0  0  0  0  0  0  0  0
  -21.1120  -29.8910   21.7340 H   0  0  0  0  0  0  0  0  0  0  0  0
  -18.2560  -28.0300   22.8230 C   0  0  0  0  0  0  0  0  0  0  0  0
  -20.7940  -28.3750   23.1690 C   0  0  0  0  0  3  0  0  0  0  0  0
  -20.9640  -26.9560   22.5790 C   0  0  0  0  0  2  0  0  0  0  0  0
  -19.9020  -26.6090   21.5310 C   0  0  0  0  0  2  0  0  0  0  0  0
  -18.4990  -26.6970   22.1360 C   0  0  0  0  0  2  0  0  0  0  0  0
  -19.3340  -28.8250   23.2950 C   0  0  0  0  0  0  0  0  0  0  0  0
  -19.0530  -30.0720   23.8950 C   0  0  0  0  0  3  0  0  0  0  0  0
  -17.7280  -30.5240   24.0300 C   0  0  0  0  0  3  0  0  0  0  0  0
  -16.6630  -29.7270   23.5750 C   0  0  0  0  0  3  0  0  0  0  0  0
  -16.9280  -28.4810   22.9770 C   0  0  0  0  0  3  0  0  0  0  0  0
  -25.8880  -32.7450   24.0400 C   0  0  0  0  0  3  0  0  0  0  0  0
  -26.3380  -32.0330   25.3750 C   0  0  1  0  0  0  0  0  0  0  0  0
  -25.1800  -31.7810   26.3670 C   0  0  0  0  0  1  0  0  0  0  0  0
  -27.0030  -30.6710   25.0690 C   0  0  0  0  0  1  0  0  0  0  0  0
  -27.4040  -32.8940   26.0930 C   0  0  0  0  0  1  0  0  0  0  0  0
  -25.5390  -34.1490   24.2960 N   0  0  0  0  0  0  0  0  0  0  0  0
  -25.8980  -35.1770   23.5150 C   0  0  0  0  0  0  0  0  0  0  0  0
  -26.6270  -35.0440   22.5280 O   0  0  0  0  0  0  0  0  0  0  0  0
  -24.9010  -34.3260   25.0570 H   0  0  0  0  0  0  0  0  0  0  0  0
  -24.1680  -36.9250   22.9910 C   0  0  0  0  0  1  0  0  0  0  0  0
  -25.3660  -36.5740   23.8880 C   0  0  0  0  0  3  0  0  0  0  0  0
  -27.4320  -37.5310   24.8070 C   0  0  0  0  0  1  0  0  0  0  0  0
  -26.3880  -37.6400   23.7910 N   0  0  0  0  0  0  0  0  0  0  0  0
  -25.9600  -38.5590   23.8730 H   0  0  0  0  0  0  0  0  0  0  0  0
  1  2  2  0
  4  9  1  0
  5  6  1  0
  5  4  1  0
  7  6  1  0
  7 20  1  0
  7  8  1  0
  9  3  1  0
  9  8  1  0
 10  3  2  0
 11 12  1  0
 11 15  1  0
 12 16  1  0
 14 13  1  0
 14  1  1  0
 15 45  1  0
 15 14  1  0
 16  3  1  0
 16 13  1  0
 17 18  2  0
 18 37  1  0
 19 18  1  0
 19 22  1  0
 20 21  1  0
 20 17  1  0
 21 19  2  0
 22 23  1  0
 23 24  2  0
 25 28  1  0
 25 24  1  0
 26 25  2  0
 27 26  1  0
 27 22  2  0
 28 29  1  0
 29 30  1  0
 30 31  2  0
 32 31  1  0
 32 36  1  0
 33 32  2  0
 34 29  2  0
 34 33  1  0
 35 34  1  0
 37 38  1  0
 38 41  1  0
 38 40  1  0
 39 37  2  0
 42 17  1  0
 42 43  1  0
 44 42  1  0
 46 47  1  0
 47 45  1  0
 48  1  1  0
 48 49  2  0
 50 49  1  0
 50 51  2  0
 52 51  1  0
 53 64  2  0
 54 52  1  0
 54 59  1  0
 55 63  1  0
 55 65  1  0
 56 62  1  0
 56 58  1  0
 57 63  1  0
 58 59  2  0
 58 57  1  0
 60 54  2  0
 61 60  1  0
 61 56  2  0
 62 55  1  0
 63 53  1  0
 65 67  2  0
 66 65  1  0
 68 66  1  0
 69 78  2  0
 69 74  1  0
 70 66  1  0
 70 74  1  0
 71 70  1  0
 72 73  1  0
 72 71  1  0
 73 69  1  0
 74 75  2  0
 75 76  1  0
 77 76  2  0
 78 77  1  0
 79 53  1  0
 79 84  1  0
 79 80  1  0
 80 83  1  1
 80 81  1  0
 82 80  1  0
 84 87  1  0
 85 89  1  0
 85 84  1  0
 86 85  2  0
 89 88  1  0
 91 92  1  0
 91 89  1  0
 91 90  1  0
M  ISO  4   3 100  16 100  51 101  52 101
M  END
>  <TORSDO>  (96) 
F 22

>  <SCORE>  (96) 
-11.146

>  <name>  (96) 
95

>  <ligand_id>  (96) 
95

>  <original_smiles>  (96) 
[H]c1c([H])c([H])c2c(c1[H])C([H])([H])C([H])([H])C([H])([H])C2([H])N([H])C(=O)C1([H])N(C(=O)C([H])(N([H])C(=O)C([H])(N([H])C([H])([H])[H])C([H])([H])[H])C(C([H])([H])[H])(C([H])([H])[H])C([H])([H])[H])C([H])([H])c2c([H])c(OC([H])([H])C([H])([H])C([H])([H])C([H])([H])C(=O)C3([H])C([H])([H])N(C(=O)N4C([H])([H])C([H])([H])C([H])([H])C([H])(n5nc(-c6c([H])c([H])c(Oc7c([H])c([H])c(F)c([H])c7F)c([H])c6[H])c(C(=O)N([H])[H])c5N([H])[H])C4([H])[H])C([H])([H])C([H])([H])C3([H])C([H])([H])C([H])([H])C([H])([H])[H])c([H])c([H])c2C1([H])[H]

>  <smiles>  (96) 
[H]c1c([H])c([H])c2c(c1[H])C([H])([H])C([H])([H])C([H])([H])C2([H])N([H])C(=O)C1([H])N(C(=O)C([H])(N([H])C(=O)C([H])(N([H])C([H])([H])[H])C([H])([H])[H])C(C([H])([H])[H])(C([H])([H])[H])C([H])([H])[H])C([H])([H])c2c([H])c(OC([H])([H])C([H])([H])C([H])([H])C([H])([H])C(=O)C3([H])C([H])([H])N(C(=O)N4C([H])([H])C([H])([H])C([H])([H])C([H])(n5nc(-c6c([H])c([H])c(Oc7c([H])c([H])c(F)c([H])c7F)c([H])c6[H])c(C(=O)N([H])[H])c5N([H])[H])C4([H])[H])C([H])([H])C([H])([H])C3([H])C([H])([H])C([H])([H])C([H])([H])[H])c([H])c([H])c2C1([H])[H]

$$$$
96:0:0
     RDKit          3D

 92100  0  0  1  0  0  0  0  0999 V2000
  -29.8740  -20.2940   22.1160 C   0  0  0  0  0  3  0  0  0  0  0  0
  -30.3320  -19.8080   19.7800 C   0  0  0  0  0  3  0  0  0  0  0  0
  -29.7940  -21.6720   21.8130 C   0  0  0  0  0  3  0  0  0  0  0  0
  -30.2510  -21.1830   19.4790 C   0  0  0  0  0  3  0  0  0  0  0  0
  -30.1540  -19.3410   21.1060 C   0  0  0  0  0  0  0  0  0  0  0  0
  -29.9850  -22.1300   20.4920 C   0  0  0  0  0  0  0  0  0  0  0  0
  -30.2540  -17.8820   21.4560 C   0  0  0  0  0  0  0  0  0  0  0  0
  -30.1740  -17.4590   22.6160 O   0  0  0  0  0  0  0  0  0  0  0  0
  -30.4790  -16.8860   20.3070 C   0  0  0  0  0  2  0  0  0  0  0  0
  -30.9780  -14.4710   20.1560 C   0  0  0  0  0  0  0  0  0  0  0  0
  -30.6030  -12.3650   18.9530 C   0  0  0  0  0  2  0  0  0  0  0  0
  -29.6440  -12.6570   17.7810 C   0  0  0  0  0  2  0  0  0  0  0  0
  -28.1760  -12.5360   18.2350 C   0  0  0  0  0  2  0  0  0  0  0  0
  -27.8890  -13.3280   19.5400 C   0  0  0  0  0  3  0  0  0  0  0  0
  -28.9590  -13.0310   20.6160 C   0  0  0  0  0  2  0  0  0  0  0  0
  -30.2860  -13.3090   20.0350 N   0  0  0  0  0  0  0  0  0  0  0  0
  -32.0770  -14.6640   19.6250 O   0  0  0  0  0  0  0  0  0  0  0  0
  -30.2960  -15.4830   20.7050 N   0  0  0  0  0  0  0  0  0  0  0  0
  -29.4510  -15.2610   21.2090 H   0  0  0  0  0  0  0  0  0  0  0  0
  -25.5040  -13.9580   20.2780 C   0  0  0  0  0  0  0  0  0  0  0  0
  -24.4370  -13.1960   20.6710 C   0  0  0  0  0  0  0  0  0  0  0  0
  -24.8880  -11.8400   20.6420 C   0  0  0  0  0  0  0  0  0  0  0  0
  -26.5400  -13.0680   20.0370 N   0  0  0  0  0  0  0  0  0  0  0  0
  -26.1720  -11.7910   20.3120 N   0  0  0  0  0  0  0  0  0  0  0  0
  -24.1580  -10.5850   20.8530 C   0  0  0  0  0  0  0  0  0  0  0  0
  -24.5510   -9.6620   21.8470 C   0  0  0  0  0  3  0  0  0  0  0  0
  -23.8240   -8.4680   22.0440 C   0  0  0  0  0  3  0  0  0  0  0  0
  -22.6880   -8.1910   21.2460 C   0  0  0  0  0  0  0  0  0  0  0  0
  -22.3150   -9.1020   20.2420 C   0  0  0  0  0  3  0  0  0  0  0  0
  -23.0430  -10.2870   20.0450 C   0  0  0  0  0  3  0  0  0  0  0  0
  -21.9340   -7.0470   21.3480 O   0  0  0  0  0  0  0  0  0  0  0  0
  -21.7650   -6.4020   22.5470 C   0  0  0  0  0  0  0  0  0  0  0  0
  -21.1860   -7.0430   23.6640 C   0  0  0  0  0  3  0  0  0  0  0  0
  -20.9670   -6.3210   24.8550 C   0  0  0  0  0  3  0  0  0  0  0  0
  -21.3180   -4.9590   24.9280 C   0  0  0  0  0  0  0  0  0  0  0  0
  -21.8910   -4.3190   23.8150 C   0  0  0  0  0  3  0  0  0  0  0  0
  -22.1100   -5.0390   22.6280 C   0  0  0  0  0  0  0  0  0  0  0  0
  -22.6420   -4.4110   21.5510 F   0  0  0  0  0  0  0  0  0  0  0  0
  -21.1020   -4.2640   26.0690 F   0  0  0  0  0  0  0  0  0  0  0  0
  -23.0480  -13.6840   20.9630 C   0  0  0  0  0  0  0  0  0  0  0  0
  -22.3330  -13.0040   21.8510 N   0  0  0  0  0  0  0  0  0  0  0  0
  -22.6070  -14.7070   20.4420 O   0  0  0  0  0  0  0  0  0  0  0  0
  -22.7030  -12.1780   22.2990 H   0  0  0  0  0  0  0  0  0  0  0  0
  -21.4010  -13.3140   22.0870 H   0  0  0  0  0  0  0  0  0  0  0  0
  -25.6720  -15.3260   20.0870 N   0  0  0  0  0  0  0  0  0  0  0  0
  -24.8990  -15.9770   20.1740 H   0  0  0  0  0  0  0  0  0  0  0  0
  -26.5140  -15.7580   19.7280 H   0  0  0  0  0  0  0  0  0  0  0  0
  -29.9640  -23.6250   20.1600 C   0  0  0  0  0  2  0  0  0  0  0  0
  -27.6600  -23.3320   19.0390 C   0  0  0  0  0  1  0  0  0  0  0  0
  -28.5750  -24.2630   19.8580 C   0  0  0  0  0  3  0  0  0  0  0  0
  -28.7070  -25.6480   19.1620 C   0  0  0  0  0  2  0  0  0  0  0  0
  -28.4770  -26.7560   20.0450 O   0  0  0  0  0  0  0  0  0  0  0  0
  -24.5770  -31.7990   23.1890 C   0  0  0  0  0  0  0  0  0  0  0  0
  -27.2600  -27.4140   20.0480 C   0  0  0  0  0  0  0  0  0  0  0  0
  -23.3730  -30.3960   21.5430 C   0  0  0  0  0  3  0  0  0  0  0  0
  -24.8320  -28.8810   20.1020 C   0  0  0  0  0  0  0  0  0  0  0  0
  -25.8930  -30.7810   21.3330 C   0  0  0  0  0  2  0  0  0  0  0  0
  -25.9870  -29.4140   20.6850 C   0  0  0  0  0  0  0  0  0  0  0  0
  -27.1940  -28.6830   20.6670 C   0  0  0  0  0  3  0  0  0  0  0  0
  -26.0810  -26.8890   19.4700 C   0  0  0  0  0  3  0  0  0  0  0  0
  -24.8730  -27.6110   19.4990 C   0  0  0  0  0  3  0  0  0  0  0  0
  -23.5810  -29.7290   20.1560 C   0  0  0  0  0  2  0  0  0  0  0  0
  -24.6330  -31.0070   22.0800 N   0  0  0  0  0  0  0  0  0  0  0  0
  -23.4980  -32.0550   23.7410 O   0  0  0  0  0  0  0  0  0  0  0  0
  -22.7360  -29.3640   22.5000 C   0  0  0  0  0  0  0  0  0  0  0  0
  -21.4180  -29.1540   22.3580 N   0  0  0  0  0  0  0  0  0  0  0  0
  -23.4250  -28.7560   23.3230 O   0  0  0  0  0  0  0  0  0  0  0  0
  -20.9220  -29.6940   21.6620 H   0  0  0  0  0  0  0  0  0  0  0  0
  -18.0680  -27.8870   22.8310 C   0  0  0  0  0  0  0  0  0  0  0  0
  -20.6170  -28.2030   23.1260 C   0  0  0  0  0  3  0  0  0  0  0  0
  -20.7590  -26.7710   22.5590 C   0  0  0  0  0  2  0  0  0  0  0  0
  -19.6750  -26.4210   21.5350 C   0  0  0  0  0  2  0  0  0  0  0  0
  -18.2830  -26.5380   22.1630 C   0  0  0  0  0  2  0  0  0  0  0  0
  -19.1650  -28.6740   23.2690 C   0  0  0  0  0  0  0  0  0  0  0  0
  -18.9140  -29.9350   23.8520 C   0  0  0  0  0  3  0  0  0  0  0  0
  -17.5980  -30.4090   24.0030 C   0  0  0  0  0  3  0  0  0  0  0  0
  -16.5150  -29.6180   23.5810 C   0  0  0  0  0  3  0  0  0  0  0  0
  -16.7510  -28.3600   23.0000 C   0  0  0  0  0  3  0  0  0  0  0  0
  -25.8640  -32.4370   23.8010 C   0  0  0  0  0  3  0  0  0  0  0  0
  -25.5500  -33.8320   24.1350 N   0  0  0  0  0  0  0  0  0  0  0  0
  -25.8840  -34.8890   23.3800 C   0  0  0  0  0  0  0  0  0  0  0  0
  -26.5600  -34.7900   22.3540 O   0  0  0  0  0  0  0  0  0  0  0  0
  -24.9500  -33.9800   24.9330 H   0  0  0  0  0  0  0  0  0  0  0  0
  -24.1610  -36.6820   23.0020 C   0  0  0  0  0  1  0  0  0  0  0  0
  -25.3850  -36.2750   23.8370 C   0  0  0  0  0  3  0  0  0  0  0  0
  -27.4970  -37.1550   24.7220 C   0  0  0  0  0  1  0  0  0  0  0  0
  -26.4190  -37.3290   23.7520 N   0  0  0  0  0  0  0  0  0  0  0  0
  -26.0090  -38.2480   23.8980 H   0  0  0  0  0  0  0  0  0  0  0  0
  -26.3950  -31.6640   25.0710 C   0  0  1  0  0  0  0  0  0  0  0  0
  -25.3090  -31.4070   26.1410 C   0  0  0  0  0  1  0  0  0  0  0  0
  -26.9930  -30.2970   24.6670 C   0  0  0  0  0  1  0  0  0  0  0  0
  -27.5400  -32.4660   25.7330 C   0  0  0  0  0  1  0  0  0  0  0  0
  2  5  1  0
  3  1  1  0
  4  2  2  0
  4  6  1  0
  5  7  1  0
  5  1  2  0
  6  3  2  0
  7  8  2  0
  9 18  1  0
  9  7  1  0
 10 18  1  0
 11 16  1  0
 12 13  1  0
 12 11  1  0
 14 13  1  0
 14 23  1  0
 14 15  1  0
 16 10  1  0
 16 15  1  0
 17 10  2  0
 18 19  1  0
 20 21  2  0
 21 40  1  0
 22 21  1  0
 22 25  1  0
 23 20  1  0
 23 24  1  0
 24 22  2  0
 25 26  1  0
 26 27  2  0
 28 31  1  0
 28 27  1  0
 29 28  2  0
 30 29  1  0
 30 25  2  0
 31 32  1  0
 32 37  2  0
 32 33  1  0
 33 34  2  0
 34 35  1  0
 35 39  1  0
 36 35  2  0
 37 36  1  0
 38 37  1  0
 40 41  1  0
 41 44  1  0
 41 43  1  0
 42 40  2  0
 45 46  1  0
 45 20  1  0
 47 45  1  0
 48  6  1  0
 50 49  1  0
 50 48  1  0
 51 50  1  0
 51 52  1  0
 52 54  1  0
 53 64  2  0
 54 59  1  0
 55 63  1  0
 55 65  1  0
 56 62  1  0
 56 58  1  0
 57 63  1  0
 58 57  1  0
 59 58  2  0
 60 61  1  0
 60 54  2  0
 61 56  2  0
 62 55  1  0
 63 53  1  0
 65 67  2  0
 66 65  1  0
 68 66  1  0
 69 78  2  0
 69 74  1  0
 70 66  1  0
 70 74  1  0
 71 70  1  0
 72 73  1  0
 72 71  1  0
 73 69  1  0
 74 75  2  0
 75 76  1  0
 77 76  2  0
 78 77  1  0
 79 53  1  0
 79 80  1  0
 79 89  1  0
 80 83  1  0
 81 85  1  0
 81 80  1  0
 82 81  2  0
 85 84  1  0
 87 85  1  0
 87 88  1  0
 87 86  1  0
 89 92  1  1
 89 90  1  0
 91 89  1  0
M  ISO  4  10 100  18 100  51 101  52 101
M  END
>  <TORSDO>  (97) 
F 21

>  <SCORE>  (97) 
-12.813

>  <name>  (97) 
96

>  <ligand_id>  (97) 
96

>  <original_smiles>  (97) 
[H]c1c([H])c([H])c2c(c1[H])C([H])([H])C([H])([H])C([H])([H])C2([H])N([H])C(=O)C1([H])N(C(=O)C([H])(N([H])C(=O)C([H])(N([H])C([H])([H])[H])C([H])([H])[H])C(C([H])([H])[H])(C([H])([H])[H])C([H])([H])[H])C([H])([H])c2c([H])c(OC([H])([H])C([H])(C([H])([H])[H])C([H])([H])c3c([H])c([H])c(C(=O)C([H])([H])N([H])C(=O)N4C([H])([H])C([H])([H])C([H])([H])C([H])(n5nc(-c6c([H])c([H])c(Oc7c([H])c([H])c(F)c([H])c7F)c([H])c6[H])c(C(=O)N([H])[H])c5N([H])[H])C4([H])[H])c([H])c3[H])c([H])c([H])c2C1([H])[H]

>  <smiles>  (97) 
[H]c1c([H])c([H])c2c(c1[H])C([H])([H])C([H])([H])C([H])([H])C2([H])N([H])C(=O)C1([H])N(C(=O)C([H])(N([H])C(=O)C([H])(N([H])C([H])([H])[H])C([H])([H])[H])C(C([H])([H])[H])(C([H])([H])[H])C([H])([H])[H])C([H])([H])c2c([H])c(OC([H])([H])C([H])(C([H])([H])[H])C([H])([H])c3c([H])c([H])c(C(=O)C([H])([H])N([H])C(=O)N4C([H])([H])C([H])([H])C([H])([H])C([H])(n5nc(-c6c([H])c([H])c(Oc7c([H])c([H])c(F)c([H])c7F)c([H])c6[H])c(C(=O)N([H])[H])c5N([H])[H])C4([H])[H])c([H])c3[H])c([H])c([H])c2C1([H])[H]

$$$$
97:0:0
     RDKit          3D

 95103  0  0  1  0  0  0  0  0999 V2000
  -28.4170  -20.6270   18.0550 C   0  0  0  0  0  2  0  0  0  0  0  0
  -29.4410  -21.7360   17.8500 C   0  0  0  0  0  0  0  0  0  0  0  0
  -30.2800  -21.7080   16.9460 O   0  0  0  0  0  0  0  0  0  0  0  0
  -29.3630  -22.8750   18.8540 C   0  0  0  0  0  2  0  0  0  0  0  0
  -30.2000  -24.1050   18.4690 C   0  0  0  0  0  2  0  0  0  0  0  0
  -29.9590  -25.2790   19.4220 C   0  0  0  0  0  2  0  0  0  0  0  0
  -28.5000  -25.7470   19.3890 C   0  0  0  0  0  2  0  0  0  0  0  0
  -28.3840  -26.9250   20.1550 O   0  0  0  0  0  0  0  0  0  0  0  0
  -24.5430  -31.9720   23.2700 C   0  0  0  0  0  0  0  0  0  0  0  0
  -27.1680  -27.5690   20.1600 C   0  0  0  0  0  0  0  0  0  0  0  0
  -23.3200  -30.5730   21.6350 C   0  0  0  0  0  3  0  0  0  0  0  0
  -24.7610  -29.0400   20.1970 C   0  0  0  0  0  0  0  0  0  0  0  0
  -25.8390  -30.9410   21.4140 C   0  0  0  0  0  2  0  0  0  0  0  0
  -25.9170  -29.5700   20.7810 C   0  0  0  0  0  0  0  0  0  0  0  0
  -27.1190  -28.8360   20.7700 C   0  0  0  0  0  3  0  0  0  0  0  0
  -25.9900  -27.0350   19.5830 C   0  0  0  0  0  3  0  0  0  0  0  0
  -24.7890  -27.7690   19.6010 C   0  0  0  0  0  3  0  0  0  0  0  0
  -23.5160  -29.8910   20.2540 C   0  0  0  0  0  2  0  0  0  0  0  0
  -24.5860  -31.1760   22.1660 N   0  0  0  0  0  0  0  0  0  0  0  0
  -23.4670  -32.2450   23.8200 O   0  0  0  0  0  0  0  0  0  0  0  0
  -22.6790  -29.5500   22.5980 C   0  0  0  0  0  0  0  0  0  0  0  0
  -21.3540  -29.3670   22.4740 N   0  0  0  0  0  0  0  0  0  0  0  0
  -23.3690  -28.9230   23.4060 O   0  0  0  0  0  0  0  0  0  0  0  0
  -20.8610  -29.9230   21.7900 H   0  0  0  0  0  0  0  0  0  0  0  0
  -17.9860  -28.1660   22.9660 C   0  0  0  0  0  0  0  0  0  0  0  0
  -20.5410  -28.4300   23.2470 C   0  0  0  0  0  3  0  0  0  0  0  0
  -20.6490  -26.9970   22.6750 C   0  0  0  0  0  2  0  0  0  0  0  0
  -19.5520  -26.6670   21.6590 C   0  0  0  0  0  2  0  0  0  0  0  0
  -18.1680  -26.8130   22.2970 C   0  0  0  0  0  2  0  0  0  0  0  0
  -19.1000  -28.9330   23.3970 C   0  0  0  0  0  0  0  0  0  0  0  0
  -18.8750  -30.2000   23.9770 C   0  0  0  0  0  3  0  0  0  0  0  0
  -17.5700  -30.6990   24.1350 C   0  0  0  0  0  3  0  0  0  0  0  0
  -16.4700  -29.9280   23.7240 C   0  0  0  0  0  3  0  0  0  0  0  0
  -16.6770  -28.6650   23.1440 C   0  0  0  0  0  3  0  0  0  0  0  0
  -25.8360  -32.5990   23.8800 C   0  0  0  0  0  3  0  0  0  0  0  0
  -25.5420  -34.0010   24.2020 N   0  0  0  0  0  0  0  0  0  0  0  0
  -25.8890  -35.0430   23.4360 C   0  0  0  0  0  0  0  0  0  0  0  0
  -26.5620  -34.9260   22.4080 O   0  0  0  0  0  0  0  0  0  0  0  0
  -24.9470  -34.1710   25.0010 H   0  0  0  0  0  0  0  0  0  0  0  0
  -24.1830  -36.8490   23.0530 C   0  0  0  0  0  1  0  0  0  0  0  0
  -25.4130  -36.4380   23.8790 C   0  0  0  0  0  3  0  0  0  0  0  0
  -27.5480  -37.3020   24.7270 C   0  0  0  0  0  1  0  0  0  0  0  0
  -26.4560  -37.4790   23.7730 N   0  0  0  0  0  0  0  0  0  0  0  0
  -26.0580  -38.4040   23.9150 H   0  0  0  0  0  0  0  0  0  0  0  0
  -26.3590  -31.8290   25.1550 C   0  0  1  0  0  0  0  0  0  0  0  0
  -25.2710  -31.5950   26.2290 C   0  0  0  0  0  1  0  0  0  0  0  0
  -26.9340  -30.4490   24.7610 C   0  0  0  0  0  1  0  0  0  0  0  0
  -27.5220  -32.6170   25.8060 C   0  0  0  0  0  1  0  0  0  0  0  0
  -28.7880  -19.2660   17.4400 C   0  0  0  0  0  2  0  0  0  0  0  0
  -30.7390  -14.8410   20.9660 C   0  0  0  0  0  0  0  0  0  0  0  0
  -30.5430  -12.5310   20.2570 C   0  0  0  0  0  2  0  0  0  0  0  0
  -29.7520  -12.4420   18.9450 C   0  0  0  0  0  2  0  0  0  0  0  0
  -28.2320  -12.3570   19.2240 C   0  0  0  0  0  2  0  0  0  0  0  0
  -27.6990  -13.3240   20.3270 C   0  0  0  0  0  3  0  0  0  0  0  0
  -28.6690  -13.4510   21.5230 C   0  0  0  0  0  2  0  0  0  0  0  0
  -30.0160  -13.6890   20.9730 N   0  0  0  0  0  0  0  0  0  0  0  0
  -31.8350  -14.8930   21.5070 O   0  0  0  0  0  0  0  0  0  0  0  0
  -29.3030  -15.9450   19.1820 C   0  0  0  0  0  2  0  0  0  0  0  0
  -31.7350  -16.3840   19.3010 C   0  0  0  0  0  2  0  0  0  0  0  0
  -29.2870  -16.9350   17.9970 C   0  0  0  0  0  2  0  0  0  0  0  0
  -30.9470  -18.6990   18.5360 C   0  0  0  0  0  2  0  0  0  0  0  0
  -31.7120  -17.8980   19.6230 C   0  0  0  0  0  3  0  0  0  0  0  0
  -30.5710  -15.6720   19.8790 N   0  0  0  0  0  0  0  0  0  0  0  0
  -29.5060  -18.3510   18.3820 N   0  0  1  0  0  4  0  0  0  0  0  0
  -29.0590  -18.4700   19.2780 H   0  0  0  0  0  0  0  0  0  0  0  0
  -25.2410  -13.8930   20.7730 C   0  0  0  0  0  0  0  0  0  0  0  0
  -24.1570  -13.0990   21.0300 C   0  0  0  0  0  0  0  0  0  0  0  0
  -24.6570  -11.7630   21.0990 C   0  0  0  0  0  0  0  0  0  0  0  0
  -26.3270  -13.0290   20.7020 N   0  0  0  0  0  0  0  0  0  0  0  0
  -25.9740  -11.7490   20.9640 N   0  0  0  0  0  0  0  0  0  0  0  0
  -23.9520  -10.4860   21.2340 C   0  0  0  0  0  0  0  0  0  0  0  0
  -24.3260   -9.5440   22.2150 C   0  0  0  0  0  3  0  0  0  0  0  0
  -23.6220   -8.3280   22.3400 C   0  0  0  0  0  3  0  0  0  0  0  0
  -22.5330   -8.0470   21.4810 C   0  0  0  0  0  0  0  0  0  0  0  0
  -22.1830   -8.9780   20.4860 C   0  0  0  0  0  3  0  0  0  0  0  0
  -22.8880  -10.1860   20.3600 C   0  0  0  0  0  3  0  0  0  0  0  0
  -21.8080   -6.8810   21.5140 O   0  0  0  0  0  0  0  0  0  0  0  0
  -21.6950   -6.1390   22.6620 C   0  0  0  0  0  0  0  0  0  0  0  0
  -21.1670   -6.6840   23.8530 C   0  0  0  0  0  3  0  0  0  0  0  0
  -21.0010   -5.8670   24.9890 C   0  0  0  0  0  3  0  0  0  0  0  0
  -21.3560   -4.5050   24.9350 C   0  0  0  0  0  0  0  0  0  0  0  0
  -21.8790   -3.9600   23.7490 C   0  0  0  0  0  3  0  0  0  0  0  0
  -22.0440   -4.7750   22.6150 C   0  0  0  0  0  0  0  0  0  0  0  0
  -22.5290   -4.2400   21.4680 F   0  0  0  0  0  0  0  0  0  0  0  0
  -21.1890   -3.7160   26.0220 F   0  0  0  0  0  0  0  0  0  0  0  0
  -22.7260  -13.5420   21.1100 C   0  0  0  0  0  0  0  0  0  0  0  0
  -21.9210  -12.8530   21.9100 N   0  0  0  0  0  0  0  0  0  0  0  0
  -22.3260  -14.5330   20.5010 O   0  0  0  0  0  0  0  0  0  0  0  0
  -22.2570  -12.0520   22.4220 H   0  0  0  0  0  0  0  0  0  0  0  0
  -20.9550  -13.1290   22.0100 H   0  0  0  0  0  0  0  0  0  0  0  0
  -25.3840  -15.2640   20.5710 N   0  0  0  0  0  0  0  0  0  0  0  0
  -24.5910  -15.8960   20.5800 H   0  0  0  0  0  0  0  0  0  0  0  0
  -26.2610  -15.7320   20.3890 H   0  0  0  0  0  0  0  0  0  0  0  0
  -33.2920  -19.8480   20.3000 C   0  0  0  0  0  1  0  0  0  0  0  0
  -33.1640  -18.4140   19.7660 C   0  0  0  0  0  2  0  0  0  0  0  0
  2  1  1  0
  2  4  1  0
  3  2  2  0
  5  4  1  0
  5  6  1  0
  7  6  1  0
  7  8  1  0
  8 10  1  0
  9 20  2  0
 10 15  1  0
 11 19  1  0
 11 21  1  0
 12 18  1  0
 12 14  1  0
 13 19  1  0
 14 13  1  0
 15 14  2  0
 16 17  1  0
 16 10  2  0
 17 12  2  0
 18 11  1  0
 19  9  1  0
 21 23  2  0
 22 21  1  0
 24 22  1  0
 25 34  2  0
 25 30  1  0
 26 22  1  0
 26 30  1  0
 27 26  1  0
 28 29  1  0
 28 27  1  0
 29 25  1  0
 30 31  2  0
 31 32  1  0
 33 32  2  0
 34 33  1  0
 35  9  1  0
 35 36  1  0
 35 45  1  0
 36 39  1  0
 37 41  1  0
 37 36  1  0
 38 37  2  0
 41 40  1  0
 43 41  1  0
 43 44  1  0
 43 42  1  0
 45 48  1  1
 45 46  1  0
 47 45  1  0
 49  1  1  0
 49 64  1  0
 50 56  1  0
 50 57  2  0
 51 56  1  0
 52 53  1  0
 52 51  1  0
 54 53  1  0
 54 69  1  0
 54 55  1  0
 56 55  1  0
 58 63  1  0
 59 62  1  0
 59 63  1  0
 60 64  1  0
 60 58  1  0
 61 62  1  0
 62 95  1  0
 63 50  1  0
 64 61  1  0
 64 65  1  1
 66 67  2  0
 67 68  1  0
 67 86  1  0
 68 71  1  0
 69 66  1  0
 69 70  1  0
 70 68  2  0
 71 72  1  0
 72 73  2  0
 74 77  1  0
 74 73  1  0
 75 74  2  0
 76 75  1  0
 76 71  2  0
 77 78  1  0
 78 79  1  0
 79 80  2  0
 81 80  1  0
 81 85  1  0
 82 81  2  0
 83 78  2  0
 83 82  1  0
 84 83  1  0
 86 87  1  0
 87 90  1  0
 87 89  1  0
 88 86  2  0
 91 92  1  0
 91 66  1  0
 93 91  1  0
 95 94  1  0
M  ISO  4   7 101   8 101  50 100  63 100
M  END
>  <TORSDO>  (98) 
F 23

>  <SCORE>  (98) 
-11.874

>  <name>  (98) 
97

>  <ligand_id>  (98) 
97

>  <original_smiles>  (98) 
[H]c1c([H])c([H])c2c(c1[H])C([H])([H])C([H])([H])C([H])([H])C2([H])N([H])C(=O)C1([H])N(C(=O)C([H])(N([H])C(=O)C([H])(N([H])C([H])([H])[H])C([H])([H])[H])C(C([H])([H])[H])(C([H])([H])[H])C([H])([H])[H])C([H])([H])c2c([H])c(OC([H])([H])C([H])([H])C([H])([H])C([H])([H])C(=O)C([H])([H])C([H])([H])[N+]3([H])C([H])([H])C([H])([H])N(C(=O)N4C([H])([H])C([H])([H])C([H])([H])C([H])(n5nc(-c6c([H])c([H])c(Oc7c([H])c([H])c(F)c([H])c7F)c([H])c6[H])c(C(=O)N([H])[H])c5N([H])[H])C4([H])[H])C([H])([H])C([H])(C([H])([H])C([H])([H])[H])C3([H])[H])c([H])c([H])c2C1([H])[H]

>  <smiles>  (98) 
[H]c1c([H])c([H])c2c(c1[H])C([H])([H])C([H])([H])C([H])([H])C2([H])N([H])C(=O)C1([H])N(C(=O)C([H])(N([H])C(=O)C([H])(N([H])C([H])([H])[H])C([H])([H])[H])C(C([H])([H])[H])(C([H])([H])[H])C([H])([H])[H])C([H])([H])c2c([H])c(OC([H])([H])C([H])([H])C([H])([H])C([H])([H])C(=O)C([H])([H])C([H])([H])[N+]3([H])C([H])([H])C([H])([H])N(C(=O)N4C([H])([H])C([H])([H])C([H])([H])C([H])(n5nc(-c6c([H])c([H])c(Oc7c([H])c([H])c(F)c([H])c7F)c([H])c6[H])c(C(=O)N([H])[H])c5N([H])[H])C4([H])[H])C([H])([H])C([H])(C([H])([H])C([H])([H])[H])C3([H])[H])c([H])c([H])c2C1([H])[H]

$$$$
98:0:0
     RDKit          3D

 92100  0  0  1  0  0  0  0  0999 V2000
  -29.5180  -20.8930   19.4820 C   0  0  0  0  0  2  0  0  0  0  0  0
  -30.9810  -14.6630   19.0710 C   0  0  0  0  0  0  0  0  0  0  0  0
  -30.3520  -12.5590   17.8720 C   0  0  0  0  0  2  0  0  0  0  0  0
  -29.1070  -12.7790   16.9830 C   0  0  0  0  0  2  0  0  0  0  0  0
  -27.8080  -12.5700   17.7880 C   0  0  0  0  0  2  0  0  0  0  0  0
  -27.8390  -13.3000   19.1560 C   0  0  0  0  0  3  0  0  0  0  0  0
  -29.1570  -13.0090   19.8940 C   0  0  0  0  0  2  0  0  0  0  0  0
  -30.2540  -13.4840   19.0310 N   0  0  0  0  0  0  0  0  0  0  0  0
  -31.9590  -14.7630   18.3220 O   0  0  0  0  0  0  0  0  0  0  0  0
  -30.0140  -18.4180   19.1030 C   0  0  0  0  0  0  0  0  0  0  0  0
  -30.9930  -17.1900   19.2950 C   0  0  0  0  0  2  0  0  0  0  0  0
  -30.5300  -16.8670   22.1040 C   0  0  0  0  0  2  0  0  0  0  0  0
  -30.0460  -15.7600   21.1220 C   0  0  0  0  0  2  0  0  0  0  0  0
  -30.5130  -19.3700   21.3180 C   0  0  0  0  0  2  0  0  0  0  0  0
  -29.7820  -18.2340   22.1020 C   0  0  0  0  0  3  0  0  0  0  0  0
  -29.5400  -18.6910   23.5520 C   0  0  0  0  0  1  0  0  0  0  0  0
  -30.0310  -19.5230   19.9370 N   0  0  0  0  0  0  0  0  0  0  0  0
  -30.5110  -15.8130   19.7170 N   0  0  0  0  0  0  0  0  0  0  0  0
  -29.3030  -18.4080   18.0950 O   0  0  0  0  0  0  0  0  0  0  0  0
  -25.8620  -13.8190   20.7090 C   0  0  0  0  0  0  0  0  0  0  0  0
  -24.8750  -13.0300   21.2330 C   0  0  0  0  0  0  0  0  0  0  0  0
  -25.1480  -11.7030   20.7810 C   0  0  0  0  0  0  0  0  0  0  0  0
  -26.6760  -12.9710   19.9770 N   0  0  0  0  0  0  0  0  0  0  0  0
  -26.2710  -11.6790   20.0730 N   0  0  0  0  0  0  0  0  0  0  0  0
  -24.3730  -10.4650   20.9310 C   0  0  0  0  0  0  0  0  0  0  0  0
  -24.9010   -9.3410   21.6040 C   0  0  0  0  0  3  0  0  0  0  0  0
  -24.1290   -8.1680   21.7510 C   0  0  0  0  0  3  0  0  0  0  0  0
  -22.8150   -8.1120   21.2280 C   0  0  0  0  0  0  0  0  0  0  0  0
  -22.3040   -9.2260   20.5390 C   0  0  0  0  0  3  0  0  0  0  0  0
  -23.0750  -10.3900   20.3890 C   0  0  0  0  0  3  0  0  0  0  0  0
  -22.0020   -7.0070   21.3000 O   0  0  0  0  0  0  0  0  0  0  0  0
  -22.0270   -6.1640   22.3830 C   0  0  0  0  0  0  0  0  0  0  0  0
  -21.7740   -6.6280   23.6930 C   0  0  0  0  0  3  0  0  0  0  0  0
  -21.7400   -5.7150   24.7670 C   0  0  0  0  0  3  0  0  0  0  0  0
  -21.9500   -4.3430   24.5330 C   0  0  0  0  0  0  0  0  0  0  0  0
  -22.1970   -3.8800   23.2290 C   0  0  0  0  0  3  0  0  0  0  0  0
  -22.2320   -4.7880   22.1570 C   0  0  0  0  0  0  0  0  0  0  0  0
  -22.4500   -4.3340   20.8990 F   0  0  0  0  0  0  0  0  0  0  0  0
  -21.9100   -3.4660   25.5640 F   0  0  0  0  0  0  0  0  0  0  0  0
  -23.6890  -13.4950   22.0280 C   0  0  0  0  0  0  0  0  0  0  0  0
  -23.1910  -12.6590   22.9320 N   0  0  0  0  0  0  0  0  0  0  0  0
  -23.2250  -14.6260   21.8830 O   0  0  0  0  0  0  0  0  0  0  0  0
  -23.5850  -11.7410   23.0690 H   0  0  0  0  0  0  0  0  0  0  0  0
  -22.4050  -12.9450   23.4980 H   0  0  0  0  0  0  0  0  0  0  0  0
  -26.1210  -15.1840   20.7730 N   0  0  0  0  0  0  0  0  0  0  0  0
  -25.5070  -15.8290   21.2590 H   0  0  0  0  0  0  0  0  0  0  0  0
  -26.8780  -15.6490   20.2860 H   0  0  0  0  0  0  0  0  0  0  0  0
  -29.4690  -22.1950   20.4400 C   0  0  0  0  0  2  0  0  0  0  0  0
  -30.8070  -24.0900   19.3300 C   0  0  0  0  0  1  0  0  0  0  0  0
  -29.3880  -23.6550   19.7580 C   0  0  0  0  0  3  0  0  0  0  0  0
  -28.6260  -24.8760   20.5160 C   0  0  0  0  0  2  0  0  0  0  0  0
  -28.7570  -26.3610   20.5930 O   0  0  0  0  0  0  0  0  0  0  0  0
  -24.5720  -31.6710   23.1870 C   0  0  0  0  0  0  0  0  0  0  0  0
  -27.6010  -27.1560   20.4670 C   0  0  0  0  0  0  0  0  0  0  0  0
  -23.5600  -30.1830   21.4980 C   0  0  0  0  0  3  0  0  0  0  0  0
  -25.1790  -28.6630   20.2320 C   0  0  0  0  0  0  0  0  0  0  0  0
  -26.0910  -30.6090   21.4990 C   0  0  0  0  0  2  0  0  0  0  0  0
  -26.2780  -29.2200   20.8980 C   0  0  0  0  0  0  0  0  0  0  0  0
  -27.4960  -28.4800   20.9990 C   0  0  0  0  0  3  0  0  0  0  0  0
  -26.4730  -26.6460   19.7860 C   0  0  0  0  0  3  0  0  0  0  0  0
  -25.2800  -27.3820   19.6650 C   0  0  0  0  0  3  0  0  0  0  0  0
  -23.9090  -29.4840   20.1570 C   0  0  0  0  0  2  0  0  0  0  0  0
  -24.7550  -30.8410   22.1190 N   0  0  0  0  0  0  0  0  0  0  0  0
  -23.4390  -31.9120   23.6300 O   0  0  0  0  0  0  0  0  0  0  0  0
  -22.8680  -29.1600   22.4310 C   0  0  0  0  0  0  0  0  0  0  0  0
  -21.5630  -28.9240   22.2100 N   0  0  0  0  0  0  0  0  0  0  0  0
  -23.5070  -28.5830   23.3150 O   0  0  0  0  0  0  0  0  0  0  0  0
  -21.1080  -29.4450   21.4730 H   0  0  0  0  0  0  0  0  0  0  0  0
  -18.2060  -27.6100   22.4930 C   0  0  0  0  0  0  0  0  0  0  0  0
  -20.7260  -27.9710   22.9390 C   0  0  0  0  0  3  0  0  0  0  0  0
  -20.9220  -26.5340   22.4040 C   0  0  0  0  0  2  0  0  0  0  0  0
  -19.9080  -26.1500   21.3210 C   0  0  0  0  0  2  0  0  0  0  0  0
  -18.4790  -26.2560   21.8610 C   0  0  0  0  0  2  0  0  0  0  0  0
  -19.2620  -28.4220   22.9860 C   0  0  0  0  0  0  0  0  0  0  0  0
  -18.9540  -29.6870   23.5330 C   0  0  0  0  0  3  0  0  0  0  0  0
  -17.6230  -30.1410   23.5950 C   0  0  0  0  0  3  0  0  0  0  0  0
  -16.5800  -29.3260   23.1200 C   0  0  0  0  0  3  0  0  0  0  0  0
  -16.8720  -28.0620   22.5750 C   0  0  0  0  0  3  0  0  0  0  0  0
  -25.7740  -32.3750   23.8890 C   0  0  0  0  0  3  0  0  0  0  0  0
  -26.2040  -31.6720   25.2360 C   0  0  1  0  0  0  0  0  0  0  0  0
  -25.0290  -31.4170   26.2080 C   0  0  0  0  0  1  0  0  0  0  0  0
  -26.8830  -30.3120   24.9510 C   0  0  0  0  0  1  0  0  0  0  0  0
  -27.2510  -32.5440   25.9700 C   0  0  0  0  0  1  0  0  0  0  0  0
  -25.3900  -33.7720   24.1350 N   0  0  0  0  0  0  0  0  0  0  0  0
  -25.7440  -34.8070   23.3620 C   0  0  0  0  0  0  0  0  0  0  0  0
  -26.4970  -34.6900   22.3920 O   0  0  0  0  0  0  0  0  0  0  0  0
  -24.7290  -33.9340   24.8810 H   0  0  0  0  0  0  0  0  0  0  0  0
  -23.9850  -36.5170   22.8040 C   0  0  0  0  0  1  0  0  0  0  0  0
  -25.1740  -36.1930   23.7230 C   0  0  0  0  0  3  0  0  0  0  0  0
  -27.2080  -37.1900   24.6700 C   0  0  0  0  0  1  0  0  0  0  0  0
  -26.1740  -37.2800   23.6430 N   0  0  0  0  0  0  0  0  0  0  0  0
  -25.7250  -38.1890   23.7240 H   0  0  0  0  0  0  0  0  0  0  0  0
  1 17  1  0
  1 48  1  0
  2 18  1  0
  3  8  1  0
  4  5  1  0
  4  3  1  0
  6  5  1  0
  6  7  1  0
  6 23  1  0
  8  2  1  0
  8  7  1  0
  9  2  2  0
 10 11  1  0
 10 17  1  0
 11 18  1  0
 13 12  1  0
 14 15  1  0
 15 12  1  0
 15 16  1  0
 17 14  1  0
 18 13  1  0
 19 10  2  0
 20 45  1  0
 20 21  2  0
 21 40  1  0
 22 25  1  0
 22 21  1  0
 23 24  1  0
 23 20  1  0
 24 22  2  0
 25 26  1  0
 26 27  2  0
 28 31  1  0
 28 27  1  0
 29 28  2  0
 30 29  1  0
 30 25  2  0
 31 32  1  0
 32 33  1  0
 33 34  2  0
 35 34  1  0
 35 39  1  0
 36 35  2  0
 37 32  2  0
 37 36  1  0
 38 37  1  0
 40 41  1  0
 41 43  1  0
 41 44  1  0
 42 40  2  0
 45 46  1  0
 47 45  1  0
 50 49  1  0
 50 48  1  0
 50 51  1  0
 51 52  1  0
 53 64  2  0
 54 52  1  0
 54 59  1  0
 55 63  1  0
 55 65  1  0
 56 58  1  0
 57 63  1  0
 58 59  2  0
 58 57  1  0
 60 54  2  0
 61 60  1  0
 61 56  2  0
 62 56  1  0
 62 55  1  0
 63 53  1  0
 65 67  2  0
 66 65  1  0
 68 66  1  0
 69 78  2  0
 69 74  1  0
 70 66  1  0
 70 74  1  0
 71 70  1  0
 72 73  1  0
 72 71  1  0
 73 69  1  0
 74 75  2  0
 75 76  1  0
 77 76  2  0
 78 77  1  0
 79 53  1  0
 79 84  1  0
 79 80  1  0
 80 83  1  1
 80 81  1  0
 82 80  1  0
 84 87  1  0
 85 89  1  0
 85 84  1  0
 86 85  2  0
 89 88  1  0
 91 89  1  0
 91 92  1  0
 91 90  1  0
M  ISO  4   2 100  18 100  51 101  52 101
M  END
>  <TORSDO>  (99) 
F 19

>  <SCORE>  (99) 
-6.315

>  <name>  (99) 
98

>  <ligand_id>  (99) 
98

>  <original_smiles>  (99) 
[H]c1c([H])c([H])c2c(c1[H])C([H])([H])C([H])([H])C([H])([H])C2([H])N([H])C(=O)C1([H])N(C(=O)C([H])(N([H])C(=O)C([H])(N([H])C([H])([H])[H])C([H])([H])[H])C(C([H])([H])[H])(C([H])([H])[H])C([H])([H])[H])C([H])([H])c2c([H])c(OC([H])([H])C([H])(C([H])([H])[H])C([H])([H])C([H])([H])N3C(=O)C([H])([H])N(C(=O)N4C([H])([H])C([H])([H])C([H])([H])C([H])(n5nc(-c6c([H])c([H])c(Oc7c([H])c([H])c(F)c([H])c7F)c([H])c6[H])c(C(=O)N([H])[H])c5N([H])[H])C4([H])[H])C([H])([H])C([H])([H])C([H])(C([H])([H])[H])C3([H])[H])c([H])c([H])c2C1([H])[H]

>  <smiles>  (99) 
[H]c1c([H])c([H])c2c(c1[H])C([H])([H])C([H])([H])C([H])([H])C2([H])N([H])C(=O)C1([H])N(C(=O)C([H])(N([H])C(=O)C([H])(N([H])C([H])([H])[H])C([H])([H])[H])C(C([H])([H])[H])(C([H])([H])[H])C([H])([H])[H])C([H])([H])c2c([H])c(OC([H])([H])C([H])(C([H])([H])[H])C([H])([H])C([H])([H])N3C(=O)C([H])([H])N(C(=O)N4C([H])([H])C([H])([H])C([H])([H])C([H])(n5nc(-c6c([H])c([H])c(Oc7c([H])c([H])c(F)c([H])c7F)c([H])c6[H])c(C(=O)N([H])[H])c5N([H])[H])C4([H])[H])C([H])([H])C([H])([H])C([H])(C([H])([H])[H])C3([H])[H])c([H])c([H])c2C1([H])[H]

$$$$
99:0:0
     RDKit          3D

 94102  0  0  1  0  0  0  0  0999 V2000
  -30.1140  -20.8800   21.4380 C   0  0  0  0  0  3  0  0  0  0  0  0
  -29.2280  -22.0870   21.4780 N   0  0  0  0  0  4  0  0  0  0  0  0
  -29.4510  -22.5470   22.3460 H   0  0  0  0  0  0  0  0  0  0  0  0
  -28.2660  -21.7970   21.5460 H   0  0  0  0  0  0  0  0  0  0  0  0
  -29.3800  -23.1210   20.4120 C   0  0  0  0  0  2  0  0  0  0  0  0
  -28.6620  -24.4720   20.7540 C   0  0  0  0  0  2  0  0  0  0  0  0
  -28.7840  -25.5870   19.6730 C   0  0  0  0  0  2  0  0  0  0  0  0
  -28.5940  -26.9230   20.1890 O   0  0  0  0  0  0  0  0  0  0  0  0
  -24.6310  -31.9830   23.2480 C   0  0  0  0  0  0  0  0  0  0  0  0
  -27.3750  -27.5830   20.1600 C   0  0  0  0  0  0  0  0  0  0  0  0
  -23.4590  -30.5720   21.5880 C   0  0  0  0  0  3  0  0  0  0  0  0
  -24.9470  -29.0590   20.1670 C   0  0  0  0  0  0  0  0  0  0  0  0
  -25.9810  -30.9650   21.4120 C   0  0  0  0  0  2  0  0  0  0  0  0
  -26.0920  -29.5970   20.7650 C   0  0  0  0  0  0  0  0  0  0  0  0
  -27.3020  -28.8650   20.7590 C   0  0  0  0  0  3  0  0  0  0  0  0
  -26.2040  -27.0560   19.5690 C   0  0  0  0  0  3  0  0  0  0  0  0
  -24.9990  -27.7880   19.5690 C   0  0  0  0  0  3  0  0  0  0  0  0
  -23.6890  -29.8990   20.2070 C   0  0  0  0  0  2  0  0  0  0  0  0
  -24.7080  -31.1890   22.1400 N   0  0  0  0  0  0  0  0  0  0  0  0
  -23.5400  -32.2360   23.7800 O   0  0  0  0  0  0  0  0  0  0  0  0
  -22.8180  -29.5350   22.5400 C   0  0  0  0  0  0  0  0  0  0  0  0
  -21.5000  -29.3260   22.3930 N   0  0  0  0  0  0  0  0  0  0  0  0
  -23.5040  -28.9240   23.3620 O   0  0  0  0  0  0  0  0  0  0  0  0
  -21.0080  -29.8740   21.7020 H   0  0  0  0  0  0  0  0  0  0  0  0
  -18.1410  -28.0740   22.8540 C   0  0  0  0  0  0  0  0  0  0  0  0
  -20.6910  -28.3710   23.1510 C   0  0  0  0  0  3  0  0  0  0  0  0
  -20.8240  -26.9460   22.5670 C   0  0  0  0  0  2  0  0  0  0  0  0
  -19.7360  -26.6140   21.5400 C   0  0  0  0  0  2  0  0  0  0  0  0
  -18.3450  -26.7330   22.1710 C   0  0  0  0  0  2  0  0  0  0  0  0
  -19.2430  -28.8500   23.2990 C   0  0  0  0  0  0  0  0  0  0  0  0
  -19.0010  -30.1050   23.8950 C   0  0  0  0  0  3  0  0  0  0  0  0
  -17.6880  -30.5860   24.0530 C   0  0  0  0  0  3  0  0  0  0  0  0
  -16.5980  -29.8070   23.6260 C   0  0  0  0  0  3  0  0  0  0  0  0
  -16.8260  -28.5530   23.0310 C   0  0  0  0  0  3  0  0  0  0  0  0
  -25.9010  -32.6310   23.8790 C   0  0  0  0  0  3  0  0  0  0  0  0
  -25.5750  -34.0280   24.1980 N   0  0  0  0  0  0  0  0  0  0  0  0
  -25.9180  -35.0810   23.4420 C   0  0  0  0  0  0  0  0  0  0  0  0
  -26.6120  -34.9770   22.4260 O   0  0  0  0  0  0  0  0  0  0  0  0
  -24.9610  -34.1820   24.9830 H   0  0  0  0  0  0  0  0  0  0  0  0
  -24.1860  -36.8580   23.0360 C   0  0  0  0  0  1  0  0  0  0  0  0
  -25.4090  -36.4670   23.8820 C   0  0  0  0  0  3  0  0  0  0  0  0
  -27.5150  -37.3680   24.7630 C   0  0  0  0  0  1  0  0  0  0  0  0
  -26.4380  -37.5260   23.7910 N   0  0  0  0  0  0  0  0  0  0  0  0
  -26.0230  -38.4450   23.9240 H   0  0  0  0  0  0  0  0  0  0  0  0
  -26.4130  -31.8720   25.1650 C   0  0  1  0  0  0  0  0  0  0  0  0
  -25.3070  -31.6140   26.2170 C   0  0  0  0  0  1  0  0  0  0  0  0
  -27.0280  -30.5070   24.7810 C   0  0  0  0  0  1  0  0  0  0  0  0
  -27.5360  -32.6910   25.8440 C   0  0  0  0  0  1  0  0  0  0  0  0
  -29.4840  -19.6100   20.7930 C   0  0  0  0  0  3  0  0  0  0  0  0
  -30.1700  -18.2520   21.1650 C   0  0  0  0  0  2  0  0  0  0  0  0
  -29.6270  -17.0070   20.3890 C   0  0  0  0  0  0  0  0  0  0  0  0
  -30.8180  -14.7280   20.4190 C   0  0  0  0  0  0  0  0  0  0  0  0
  -30.5810  -12.6010   19.1890 C   0  0  0  0  0  2  0  0  0  0  0  0
  -29.6310  -12.8560   17.9960 C   0  0  0  0  0  2  0  0  0  0  0  0
  -28.1530  -12.7120   18.4140 C   0  0  0  0  0  2  0  0  0  0  0  0
  -27.8200  -13.4740   19.7240 C   0  0  0  0  0  3  0  0  0  0  0  0
  -28.8760  -13.1730   20.8140 C   0  0  0  0  0  2  0  0  0  0  0  0
  -30.2050  -13.5190   20.2750 N   0  0  0  0  0  0  0  0  0  0  0  0
  -31.9240  -14.9830   19.9350 O   0  0  0  0  0  0  0  0  0  0  0  0
  -30.0120  -15.6820   20.9370 N   0  0  0  0  0  4  0  0  0  0  0  0
  -29.2640  -15.2720   21.4770 H   0  0  0  0  0  0  0  0  0  0  0  0
  -25.4050  -14.0570   20.4030 C   0  0  0  0  0  0  0  0  0  0  0  0
  -24.3440  -13.2730   20.7710 C   0  0  0  0  0  0  0  0  0  0  0  0
  -24.8250  -11.9290   20.7530 C   0  0  0  0  0  0  0  0  0  0  0  0
  -26.4650  -13.1890   20.1880 N   0  0  0  0  0  0  0  0  0  0  0  0
  -26.1160  -11.9040   20.4550 N   0  0  0  0  0  0  0  0  0  0  0  0
  -24.1150  -10.6580   20.9460 C   0  0  0  0  0  0  0  0  0  0  0  0
  -24.5280   -9.7250   21.9230 C   0  0  0  0  0  3  0  0  0  0  0  0
  -23.8210   -8.5170   22.1020 C   0  0  0  0  0  3  0  0  0  0  0  0
  -22.6860   -8.2330   21.3050 C   0  0  0  0  0  0  0  0  0  0  0  0
  -22.2930   -9.1560   20.3200 C   0  0  0  0  0  3  0  0  0  0  0  0
  -23.0010  -10.3560   20.1380 C   0  0  0  0  0  3  0  0  0  0  0  0
  -21.9530   -7.0750   21.3920 O   0  0  0  0  0  0  0  0  0  0  0  0
  -21.8330   -6.3850   22.5720 C   0  0  0  0  0  0  0  0  0  0  0  0
  -21.3060   -6.9860   23.7370 C   0  0  0  0  0  3  0  0  0  0  0  0
  -21.1370   -6.2210   24.9080 C   0  0  0  0  0  3  0  0  0  0  0  0
  -21.4830   -4.8560   24.9150 C   0  0  0  0  0  0  0  0  0  0  0  0
  -22.0010   -4.2560   23.7550 C   0  0  0  0  0  3  0  0  0  0  0  0
  -22.1730   -5.0180   22.5850 C   0  0  0  0  0  0  0  0  0  0  0  0
  -22.6530   -4.4280   21.4650 F   0  0  0  0  0  0  0  0  0  0  0  0
  -21.3120   -4.1190   26.0370 F   0  0  0  0  0  0  0  0  0  0  0  0
  -22.9370  -13.7330   21.0280 C   0  0  0  0  0  0  0  0  0  0  0  0
  -22.2170  -13.0390   21.9040 N   0  0  0  0  0  0  0  0  0  0  0  0
  -22.4830  -14.7400   20.4890 O   0  0  0  0  0  0  0  0  0  0  0  0
  -22.5960  -12.2260   22.3630 H   0  0  0  0  0  0  0  0  0  0  0  0
  -21.2730  -13.3280   22.1160 H   0  0  0  0  0  0  0  0  0  0  0  0
  -25.5540  -15.4290   20.2170 N   0  0  0  0  0  0  0  0  0  0  0  0
  -24.7750  -16.0730   20.3140 H   0  0  0  0  0  0  0  0  0  0  0  0
  -26.3940  -15.8730   19.8740 H   0  0  0  0  0  0  0  0  0  0  0  0
  -29.1260  -18.4780   16.9010 C   0  0  0  0  0  2  0  0  0  0  0  0
  -30.5620  -17.9640   16.7720 C   0  0  0  0  0  2  0  0  0  0  0  0
  -28.5350  -17.7710   18.1290 C   0  0  0  0  0  2  0  0  0  0  0  0
  -30.9770  -17.6610   18.2100 C   0  0  0  0  0  2  0  0  0  0  0  0
  -29.7090  -17.0590   18.8290 C   0  0  0  0  0  3  0  0  0  0  0  0
  1  2  1  0
  2  4  1  0
  2  3  1  0
  5  6  1  0
  5  2  1  0
  7  8  1  0
  7  6  1  0
  9 20  2  0
 10  8  1  0
 10 15  1  0
 11 19  1  0
 11 21  1  0
 12 18  1  0
 12 14  1  0
 13 19  1  0
 14 13  1  0
 15 14  2  0
 16 10  2  0
 17 16  1  0
 17 12  2  0
 18 11  1  0
 19  9  1  0
 21 23  2  0
 22 21  1  0
 24 22  1  0
 25 34  2  0
 25 30  1  0
 26 22  1  0
 26 30  1  0
 27 26  1  0
 28 29  1  0
 28 27  1  0
 29 25  1  0
 30 31  2  0
 31 32  1  0
 33 32  2  0
 34 33  1  0
 35  9  1  0
 35 36  1  0
 35 45  1  0
 36 39  1  0
 37 41  1  0
 37 36  1  0
 38 37  2  0
 41 40  1  0
 43 41  1  0
 43 44  1  0
 43 42  1  0
 45 48  1  1
 45 46  1  0
 47 45  1  0
 49 50  1  0
 49  1  2  0
 51 60  2  3
 51 50  1  0
 52 60  1  0
 53 58  1  0
 54 55  1  0
 54 53  1  0
 56 55  1  0
 56 65  1  0
 56 57  1  0
 58 52  1  0
 58 57  1  0
 59 52  2  0
 60 61  1  0
 62 63  2  0
 63 82  1  0
 64 63  1  0
 64 67  1  0
 65 62  1  0
 65 66  1  0
 66 64  2  0
 67 68  1  0
 68 69  2  0
 70 73  1  0
 70 69  1  0
 71 70  2  0
 72 71  1  0
 72 67  2  0
 73 74  1  0
 74 79  2  0
 74 75  1  0
 75 76  2  0
 76 77  1  0
 77 81  1  0
 78 77  2  0
 79 78  1  0
 80 79  1  0
 82 83  1  0
 83 86  1  0
 83 85  1  0
 84 82  2  0
 87 88  1  0
 87 62  1  0
 89 87  1  0
 90 92  1  0
 91 90  1  0
 91 93  1  0
 92 94  1  0
 93 94  1  0
 94 51  1  0
M  ISO  4   7 101   8 101  52 100  60 100
M  END
>  <TORSDO>  (100) 
F 24

>  <SCORE>  (100) 
-12.328

>  <name>  (100) 
99

>  <ligand_id>  (100) 
99

>  <original_smiles>  (100) 
[H]c1c([H])c([H])c2c(c1[H])C([H])([H])C([H])([H])C([H])([H])C2([H])N([H])C(=O)C1([H])N(C(=O)C([H])(N([H])C(=O)C([H])(N([H])C([H])([H])[H])C([H])([H])[H])C(C([H])([H])[H])(C([H])([H])[H])C([H])([H])[H])C([H])([H])c2c([H])c(OC([H])([H])C([H])([H])C([H])([H])[N+]([H])([H])C([H])([H])C([H])([H])C([H])([H])C([H])(N([H])C(=O)N3C([H])([H])C([H])([H])C([H])([H])C([H])(n4nc(-c5c([H])c([H])c(Oc6c([H])c([H])c(F)c([H])c6F)c([H])c5[H])c(C(=O)N([H])[H])c4N([H])[H])C3([H])[H])C3([H])C([H])([H])C([H])([H])C([H])([H])C3([H])[H])c([H])c([H])c2C1([H])[H]

>  <smiles>  (100) 
[H]c1c([H])c([H])c2c(c1[H])C([H])([H])C([H])([H])C([H])([H])C2([H])N([H])C(=O)C1([H])N(C(=O)C([H])(N([H])C(=O)C([H])(N([H])C([H])([H])[H])C([H])([H])[H])C(C([H])([H])[H])(C([H])([H])[H])C([H])([H])[H])C([H])([H])c2c([H])c(OC([H])([H])C([H])([H])C([H])([H])[N+]([H])([H])C([H])([H])C([H])([H])C([H])([H])C([H])(N([H])C(=O)N3C([H])([H])C([H])([H])C([H])([H])C([H])(n4nc(-c5c([H])c([H])c(Oc6c([H])c([H])c(F)c([H])c6F)c([H])c5[H])c(C(=O)N([H])[H])c4N([H])[H])C3([H])[H])C3([H])C([H])([H])C([H])([H])C([H])([H])C3([H])[H])c([H])c([H])c2C1([H])[H]

$$$$
