0:0:0
     RDKit          3D

 91 99  0  0  1  0  0  0  0  0999 V2000
  -29.6780  -20.6500   20.9790 C   0  0  0  0  0  2  0  0  0  0  0  0
  -30.4120  -18.2520   18.1540 C   0  0  0  0  0  3  0  0  0  0  0  0
  -30.4690  -17.0730   18.7880 C   0  0  0  0  0  3  0  0  0  0  0  0
  -30.3230  -19.5050   18.8860 C   0  0  0  0  0  0  0  0  0  0  0  0
  -29.5360  -18.1310   20.8350 C   0  0  0  0  0  2  0  0  0  0  0  0
  -30.3980  -16.9520   20.2990 C   0  0  0  0  0  3  0  0  0  0  0  0
  -29.8190  -19.4250   20.1540 N   0  0  0  0  0  0  0  0  0  0  0  0
  -30.7010  -20.5660   18.3840 O   0  0  0  0  0  0  0  0  0  0  0  0
  -30.6920  -14.4860   20.4740 C   0  0  0  0  0  0  0  0  0  0  0  0
  -30.3700  -12.3140   19.3800 C   0  0  0  0  0  2  0  0  0  0  0  0
  -29.4520  -12.5370   18.1600 C   0  0  0  0  0  2  0  0  0  0  0  0
  -27.9720  -12.4180   18.5730 C   0  0  0  0  0  2  0  0  0  0  0  0
  -27.6270  -13.2520   19.8370 C   0  0  0  0  0  3  0  0  0  0  0  0
  -28.6750  -13.0480   20.9580 C   0  0  0  0  0  2  0  0  0  0  0  0
  -30.0020  -13.3180   20.3890 N   0  0  0  0  0  0  0  0  0  0  0  0
  -31.8630  -14.5920   20.0990 O   0  0  0  0  0  0  0  0  0  0  0  0
  -29.9590  -15.5990   20.7040 N   0  0  0  0  0  0  0  0  0  0  0  0
  -29.0030  -15.4770   21.0040 H   0  0  0  0  0  0  0  0  0  0  0  0
  -25.2220  -13.8590   20.5220 C   0  0  0  0  0  0  0  0  0  0  0  0
  -24.1530  -13.0890   20.8870 C   0  0  0  0  0  0  0  0  0  0  0  0
  -24.6150  -11.7380   20.8700 C   0  0  0  0  0  0  0  0  0  0  0  0
  -26.2700  -12.9780   20.3060 N   0  0  0  0  0  0  0  0  0  0  0  0
  -25.9070  -11.6960   20.5720 N   0  0  0  0  0  0  0  0  0  0  0  0
  -23.8870  -10.4760   21.0620 C   0  0  0  0  0  0  0  0  0  0  0  0
  -24.3220   -9.5050   21.9900 C   0  0  0  0  0  3  0  0  0  0  0  0
  -23.5930   -8.3100   22.1700 C   0  0  0  0  0  3  0  0  0  0  0  0
  -22.4140   -8.0770   21.4220 C   0  0  0  0  0  0  0  0  0  0  0  0
  -22.0000   -9.0360   20.4800 C   0  0  0  0  0  3  0  0  0  0  0  0
  -22.7300  -10.2220   20.2980 C   0  0  0  0  0  3  0  0  0  0  0  0
  -21.6580   -6.9330   21.5090 O   0  0  0  0  0  0  0  0  0  0  0  0
  -21.6260   -6.1790   22.6550 C   0  0  0  0  0  0  0  0  0  0  0  0
  -21.2380   -6.7250   23.8980 C   0  0  0  0  0  3  0  0  0  0  0  0
  -21.1520   -5.8970   25.0340 C   0  0  0  0  0  3  0  0  0  0  0  0
  -21.4460   -4.5240   24.9320 C   0  0  0  0  0  0  0  0  0  0  0  0
  -21.8270   -3.9780   23.6930 C   0  0  0  0  0  3  0  0  0  0  0  0
  -21.9150   -4.8020   22.5580 C   0  0  0  0  0  0  0  0  0  0  0  0
  -22.2620   -4.2660   21.3630 F   0  0  0  0  0  0  0  0  0  0  0  0
  -21.3570   -3.7270   26.0210 F   0  0  0  0  0  0  0  0  0  0  0  0
  -22.7520  -13.5670   21.1450 C   0  0  0  0  0  0  0  0  0  0  0  0
  -22.0170  -12.8730   22.0070 N   0  0  0  0  0  0  0  0  0  0  0  0
  -22.3170  -14.5890   20.6150 O   0  0  0  0  0  0  0  0  0  0  0  0
  -22.3780  -12.0430   22.4530 H   0  0  0  0  0  0  0  0  0  0  0  0
  -21.0780  -13.1740   22.2250 H   0  0  0  0  0  0  0  0  0  0  0  0
  -25.3870  -15.2290   20.3360 N   0  0  0  0  0  0  0  0  0  0  0  0
  -24.6160  -15.8820   20.4420 H   0  0  0  0  0  0  0  0  0  0  0  0
  -26.2340  -15.6700   20.0020 H   0  0  0  0  0  0  0  0  0  0  0  0
  -28.6920  -21.7260   20.4280 C   0  0  0  0  0  2  0  0  0  0  0  0
  -28.8400  -23.1000   21.1240 C   0  0  0  0  0  2  0  0  0  0  0  0
  -28.2730  -24.2930   20.3150 C   0  0  0  0  0  2  0  0  0  0  0  0
  -28.5280  -25.6540   21.0000 C   0  0  0  0  0  2  0  0  0  0  0  0
  -28.4020  -26.7610   20.1040 O   0  0  0  0  0  0  0  0  0  0  0  0
  -24.5760  -31.8920   23.2250 C   0  0  0  0  0  0  0  0  0  0  0  0
  -27.2200  -27.4600   20.1600 C   0  0  0  0  0  0  0  0  0  0  0  0
  -23.3650  -30.4900   21.5850 C   0  0  0  0  0  3  0  0  0  0  0  0
  -24.8190  -28.9470   20.1660 C   0  0  0  0  0  0  0  0  0  0  0  0
  -25.8870  -30.8570   21.3770 C   0  0  0  0  0  2  0  0  0  0  0  0
  -25.9760  -29.4810   20.7500 C   0  0  0  0  0  0  0  0  0  0  0  0
  -27.1810  -28.7460   20.7420 C   0  0  0  0  0  3  0  0  0  0  0  0
  -26.0510  -26.9290   19.5810 C   0  0  0  0  0  3  0  0  0  0  0  0
  -24.8500  -27.6680   19.5810 C   0  0  0  0  0  3  0  0  0  0  0  0
  -23.5720  -29.8010   20.2090 C   0  0  0  0  0  2  0  0  0  0  0  0
  -24.6270  -31.0940   22.1220 N   0  0  0  0  0  0  0  0  0  0  0  0
  -23.4960  -32.1640   23.7710 O   0  0  0  0  0  0  0  0  0  0  0  0
  -22.7180  -29.4730   22.5490 C   0  0  0  0  0  0  0  0  0  0  0  0
  -21.3940  -29.2940   22.4280 N   0  0  0  0  0  0  0  0  0  0  0  0
  -23.4040  -28.8440   23.3590 O   0  0  0  0  0  0  0  0  0  0  0  0
  -20.9020  -29.8500   21.7410 H   0  0  0  0  0  0  0  0  0  0  0  0
  -18.0170  -28.1140   22.9370 C   0  0  0  0  0  0  0  0  0  0  0  0
  -20.5770  -28.3600   23.2010 C   0  0  0  0  0  3  0  0  0  0  0  0
  -20.6710  -26.9300   22.6220 C   0  0  0  0  0  2  0  0  0  0  0  0
  -19.5640  -26.6130   21.6120 C   0  0  0  0  0  2  0  0  0  0  0  0
  -18.1840  -26.7640   22.2590 C   0  0  0  0  0  2  0  0  0  0  0  0
  -19.1410  -28.8700   23.3650 C   0  0  0  0  0  0  0  0  0  0  0  0
  -18.9310  -30.1340   23.9580 C   0  0  0  0  0  3  0  0  0  0  0  0
  -17.6300  -30.6440   24.1260 C   0  0  0  0  0  3  0  0  0  0  0  0
  -16.5200  -29.8850   23.7150 C   0  0  0  0  0  3  0  0  0  0  0  0
  -16.7150  -28.6230   23.1270 C   0  0  0  0  0  3  0  0  0  0  0  0
  -25.8650  -32.5220   23.8400 C   0  0  0  0  0  3  0  0  0  0  0  0
  -25.5590  -33.9180   24.1770 N   0  0  0  0  0  0  0  0  0  0  0  0
  -25.8920  -34.9720   23.4200 C   0  0  0  0  0  0  0  0  0  0  0  0
  -26.5630  -34.8720   22.3880 O   0  0  0  0  0  0  0  0  0  0  0  0
  -24.9640  -34.0700   24.9770 H   0  0  0  0  0  0  0  0  0  0  0  0
  -24.1650  -36.7650   23.0670 C   0  0  0  0  0  1  0  0  0  0  0  0
  -25.4050  -36.3580   23.8790 C   0  0  0  0  0  3  0  0  0  0  0  0
  -27.5390  -37.2380   24.7150 C   0  0  0  0  0  1  0  0  0  0  0  0
  -26.4380  -37.4110   23.7710 N   0  0  0  0  0  0  0  0  0  0  0  0
  -26.0320  -38.3310   23.9240 H   0  0  0  0  0  0  0  0  0  0  0  0
  -26.3940  -31.7450   25.1080 C   0  0  1  0  0  0  0  0  0  0  0  0
  -25.3080  -31.4990   26.1810 C   0  0  0  0  0  1  0  0  0  0  0  0
  -26.9770  -30.3710   24.6980 C   0  0  0  0  0  1  0  0  0  0  0  0
  -27.5510  -32.5370   25.7660 C   0  0  0  0  0  1  0  0  0  0  0  0
  2  3  2  0
  2  4  1  0
  3  6  1  0
  4  7  1  0
  6 17  1  0
  6  5  1  0
  7  5  1  0
  7  1  1  0
  8  4  2  0
  9 17  1  0
 10 15  1  0
 11 12  1  0
 11 10  1  0
 13 12  1  0
 13 22  1  0
 13 14  1  0
 15  9  1  0
 15 14  1  0
 16  9  2  0
 17 18  1  0
 19 20  2  0
 20 39  1  0
 21 20  1  0
 21 24  1  0
 22 19  1  0
 22 23  1  0
 23 21  2  0
 24 25  1  0
 25 26  2  0
 27 30  1  0
 27 26  1  0
 28 27  2  0
 29 28  1  0
 29 24  2  0
 30 31  1  0
 31 32  1  0
 32 33  2  0
 34 33  1  0
 34 38  1  0
 35 34  2  0
 36 31  2  0
 36 35  1  0
 37 36  1  0
 39 40  1  0
 40 43  1  0
 40 42  1  0
 41 39  2  0
 44 45  1  0
 44 19  1  0
 46 44  1  0
 47  1  1  0
 47 48  1  0
 49 50  1  0
 49 48  1  0
 51 53  1  0
 51 50  1  0
 52 63  2  0
 53 58  1  0
 54 62  1  0
 54 64  1  0
 55 61  1  0
 55 57  1  0
 56 62  1  0
 57 56  1  0
 58 57  2  0
 59 53  2  0
 60 59  1  0
 60 55  2  0
 61 54  1  0
 62 52  1  0
 64 66  2  0
 65 64  1  0
 67 65  1  0
 68 77  2  0
 68 73  1  0
 69 65  1  0
 69 73  1  0
 70 69  1  0
 71 72  1  0
 71 70  1  0
 72 68  1  0
 73 74  2  0
 74 75  1  0
 76 75  2  0
 77 76  1  0
 78 52  1  0
 78 79  1  0
 78 88  1  0
 79 82  1  0
 80 84  1  0
 80 79  1  0
 81 80  2  0
 84 83  1  0
 86 84  1  0
 86 87  1  0
 86 85  1  0
 88 91  1  1
 88 89  1  0
 90 88  1  0
M  ISO  4   9 100  17 100  50 101  51 101
M  END
>  <TORSDO>  (1) 
F 21

>  <SCORE>  (1) 
-13.558

>  <name>  (1) 
0

>  <ligand_id>  (1) 
0

>  <original_smiles>  (1) 
[H]C1=C([H])C([H])(N([H])C(=O)N2C([H])([H])C([H])([H])C([H])([H])C([H])(n3nc(-c4c([H])c([H])c(Oc5c([H])c([H])c(F)c([H])c5F)c([H])c4[H])c(C(=O)N([H])[H])c3N([H])[H])C2([H])[H])C([H])([H])N(C([H])([H])C([H])([H])C([H])([H])C([H])([H])C([H])([H])Oc2c([H])c([H])c3c(c2[H])C([H])([H])N(C(=O)C([H])(N([H])C(=O)C([H])(N([H])C([H])([H])[H])C([H])([H])[H])C(C([H])([H])[H])(C([H])([H])[H])C([H])([H])[H])C([H])(C(=O)N([H])C2([H])c4c([H])c([H])c([H])c([H])c4C([H])([H])C([H])([H])C2([H])[H])C3([H])[H])C1=O

>  <smiles>  (1) 
[H]C1=C([H])C([H])(N([H])C(=O)N2C([H])([H])C([H])([H])C([H])([H])C([H])(n3nc(-c4c([H])c([H])c(Oc5c([H])c([H])c(F)c([H])c5F)c([H])c4[H])c(C(=O)N([H])[H])c3N([H])[H])C2([H])[H])C([H])([H])N(C([H])([H])C([H])([H])C([H])([H])C([H])([H])C([H])([H])Oc2c([H])c([H])c3c(c2[H])C([H])([H])N(C(=O)C([H])(N([H])C(=O)C([H])(N([H])C([H])([H])[H])C([H])([H])[H])C(C([H])([H])[H])(C([H])([H])[H])C([H])([H])[H])C([H])(C(=O)N([H])C2([H])c4c([H])c([H])c([H])c([H])c4C([H])([H])C([H])([H])C2([H])[H])C3([H])[H])C1=O

$$$$
1:0:0
     RDKit          3D

 95103  0  0  1  0  0  0  0  0999 V2000
  -29.8460  -22.4730   19.1880 C   0  0  0  0  0  2  0  0  0  0  0  0
  -28.6860  -20.4090   18.3310 C   0  0  0  0  0  1  0  0  0  0  0  0
  -29.3950  -21.0230   19.5550 C   0  0  0  0  0  3  0  0  0  0  0  0
  -30.5660  -20.1230   20.0860 C   0  0  0  0  0  2  0  0  0  0  0  0
  -30.7660  -14.5370   20.4110 C   0  0  0  0  0  0  0  0  0  0  0  0
  -30.4180  -12.3520   19.3220 C   0  0  0  0  0  2  0  0  0  0  0  0
  -29.4580  -12.4950   18.1210 C   0  0  0  0  0  2  0  0  0  0  0  0
  -27.9870  -12.3820   18.5680 C   0  0  0  0  0  2  0  0  0  0  0  0
  -27.6590  -13.2160   19.8400 C   0  0  0  0  0  3  0  0  0  0  0  0
  -28.7450  -13.0750   20.9270 C   0  0  0  0  0  2  0  0  0  0  0  0
  -30.0450  -13.3810   20.3070 N   0  0  0  0  0  0  0  0  0  0  0  0
  -31.9490  -14.6010   20.0730 O   0  0  0  0  0  0  0  0  0  0  0  0
  -30.1280  -16.5430   21.7040 C   0  0  0  0  0  2  0  0  0  0  0  0
  -30.5450  -18.0580   21.5720 C   0  0  0  0  0  2  0  0  0  0  0  0
  -30.7480  -17.8110   19.2040 C   0  0  0  0  0  2  0  0  0  0  0  0
  -29.9940  -16.4700   19.1840 C   0  0  0  0  0  3  0  0  0  0  0  0
  -28.5380  -16.6880   18.7450 C   0  0  0  0  0  1  0  0  0  0  0  0
  -30.0660  -15.7080   20.4660 N   0  0  0  0  0  0  0  0  0  0  0  0
  -30.2010  -18.6760   20.2660 N   0  0  2  0  0  4  0  0  0  0  0  0
  -29.1970  -18.6340   20.1830 H   0  0  0  0  0  0  0  0  0  0  0  0
  -25.2640  -13.8220   20.5500 C   0  0  0  0  0  0  0  0  0  0  0  0
  -24.1960  -13.0480   20.9190 C   0  0  0  0  0  0  0  0  0  0  0  0
  -24.6630  -11.6990   20.8910 C   0  0  0  0  0  0  0  0  0  0  0  0
  -26.3130  -12.9430   20.3310 N   0  0  0  0  0  0  0  0  0  0  0  0
  -25.9530  -11.6610   20.5860 N   0  0  0  0  0  0  0  0  0  0  0  0
  -23.9420  -10.4340   21.0820 C   0  0  0  0  0  0  0  0  0  0  0  0
  -24.3930   -9.4590   21.9980 C   0  0  0  0  0  3  0  0  0  0  0  0
  -23.6700   -8.2620   22.1780 C   0  0  0  0  0  3  0  0  0  0  0  0
  -22.4830   -8.0300   21.4440 C   0  0  0  0  0  0  0  0  0  0  0  0
  -22.0530   -8.9960   20.5160 C   0  0  0  0  0  3  0  0  0  0  0  0
  -22.7770  -10.1850   20.3330 C   0  0  0  0  0  3  0  0  0  0  0  0
  -21.7330   -6.8860   21.5350 O   0  0  0  0  0  0  0  0  0  0  0  0
  -21.7140   -6.1260   22.6800 C   0  0  0  0  0  0  0  0  0  0  0  0
  -21.3320   -6.6660   23.9250 C   0  0  0  0  0  3  0  0  0  0  0  0
  -21.2580   -5.8340   25.0620 C   0  0  0  0  0  3  0  0  0  0  0  0
  -21.5600   -4.4640   24.9500 C   0  0  0  0  0  0  0  0  0  0  0  0
  -21.9370   -3.9240   23.7080 C   0  0  0  0  0  3  0  0  0  0  0  0
  -22.0090   -4.7520   22.5740 C   0  0  0  0  0  0  0  0  0  0  0  0
  -22.3520   -4.2230   21.3750 F   0  0  0  0  0  0  0  0  0  0  0  0
  -21.4830   -3.6600   26.0360 F   0  0  0  0  0  0  0  0  0  0  0  0
  -22.8010  -13.5240   21.1950 C   0  0  0  0  0  0  0  0  0  0  0  0
  -22.0790  -12.8280   22.0660 N   0  0  0  0  0  0  0  0  0  0  0  0
  -22.3570  -14.5490   20.6780 O   0  0  0  0  0  0  0  0  0  0  0  0
  -22.4530  -11.9980   22.5060 H   0  0  0  0  0  0  0  0  0  0  0  0
  -21.1400  -13.1240   22.2970 H   0  0  0  0  0  0  0  0  0  0  0  0
  -25.4210  -15.1940   20.3680 N   0  0  0  0  0  0  0  0  0  0  0  0
  -24.6490  -15.8390   20.4820 H   0  0  0  0  0  0  0  0  0  0  0  0
  -26.2760  -15.6410   20.0640 H   0  0  0  0  0  0  0  0  0  0  0  0
  -29.8430  -23.4830   20.3570 C   0  0  0  0  0  2  0  0  0  0  0  0
  -30.4610  -24.7870   20.0160 N   0  0  0  0  0  4  0  0  0  0  0  0
  -30.0080  -25.1730   19.2010 H   0  0  0  0  0  0  0  0  0  0  0  0
  -31.4280  -24.6340   19.7760 H   0  0  0  0  0  0  0  0  0  0  0  0
  -30.3940  -25.7910   21.1090 C   0  0  0  0  0  2  0  0  0  0  0  0
  -29.5930  -27.0540   20.7350 C   0  0  0  0  0  2  0  0  0  0  0  0
  -28.3780  -26.6550   20.0980 O   0  0  0  0  0  0  0  0  0  0  0  0
  -24.6040  -31.8830   23.2300 C   0  0  0  0  0  0  0  0  0  0  0  0
  -27.2580  -27.4610   20.1560 C   0  0  0  0  0  0  0  0  0  0  0  0
  -23.3860  -30.4740   21.5990 C   0  0  0  0  0  3  0  0  0  0  0  0
  -24.8390  -28.9330   20.1740 C   0  0  0  0  0  0  0  0  0  0  0  0
  -25.9040  -30.8490   21.3750 C   0  0  0  0  0  2  0  0  0  0  0  0
  -25.9960  -29.4740   20.7480 C   0  0  0  0  0  0  0  0  0  0  0  0
  -27.2070  -28.7510   20.7370 C   0  0  0  0  0  3  0  0  0  0  0  0
  -26.0830  -26.9310   19.5850 C   0  0  0  0  0  3  0  0  0  0  0  0
  -24.8770  -27.6570   19.5870 C   0  0  0  0  0  3  0  0  0  0  0  0
  -23.5870  -29.7810   20.2230 C   0  0  0  0  0  2  0  0  0  0  0  0
  -24.6500  -31.0840   22.1280 N   0  0  0  0  0  0  0  0  0  0  0  0
  -23.5300  -32.1570   23.7800 O   0  0  0  0  0  0  0  0  0  0  0  0
  -22.7410  -29.4600   22.5710 C   0  0  0  0  0  0  0  0  0  0  0  0
  -21.4160  -29.2780   22.4510 N   0  0  0  0  0  0  0  0  0  0  0  0
  -23.4310  -28.8370   23.3830 O   0  0  0  0  0  0  0  0  0  0  0  0
  -20.9230  -29.8320   21.7660 H   0  0  0  0  0  0  0  0  0  0  0  0
  -18.0440  -28.0900   22.9660 C   0  0  0  0  0  0  0  0  0  0  0  0
  -20.6020  -28.3450   23.2300 C   0  0  0  0  0  3  0  0  0  0  0  0
  -20.7010  -26.9120   22.6590 C   0  0  0  0  0  2  0  0  0  0  0  0
  -19.5950  -26.5870   21.6500 C   0  0  0  0  0  2  0  0  0  0  0  0
  -18.2160  -26.7380   22.2980 C   0  0  0  0  0  2  0  0  0  0  0  0
  -19.1660  -28.8540   23.3890 C   0  0  0  0  0  0  0  0  0  0  0  0
  -18.9520  -30.1220   23.9730 C   0  0  0  0  0  3  0  0  0  0  0  0
  -17.6490  -30.6270   24.1400 C   0  0  0  0  0  3  0  0  0  0  0  0
  -16.5430  -29.8620   23.7330 C   0  0  0  0  0  3  0  0  0  0  0  0
  -16.7410  -28.5960   23.1550 C   0  0  0  0  0  3  0  0  0  0  0  0
  -25.8990  -32.5130   23.8390 C   0  0  0  0  0  3  0  0  0  0  0  0
  -26.4390  -31.7320   25.0990 C   0  0  1  0  0  0  0  0  0  0  0  0
  -25.3630  -31.4770   26.1810 C   0  0  0  0  0  1  0  0  0  0  0  0
  -27.0240  -30.3620   24.6820 C   0  0  0  0  0  1  0  0  0  0  0  0
  -27.5940  -32.5270   25.7540 C   0  0  0  0  0  1  0  0  0  0  0  0
  -25.5930  -33.9080   24.1810 N   0  0  0  0  0  0  0  0  0  0  0  0
  -25.9210  -34.9630   23.4250 C   0  0  0  0  0  0  0  0  0  0  0  0
  -26.5820  -34.8670   22.3870 O   0  0  0  0  0  0  0  0  0  0  0  0
  -25.0060  -34.0580   24.9880 H   0  0  0  0  0  0  0  0  0  0  0  0
  -24.1880  -36.7550   23.0910 C   0  0  0  0  0  1  0  0  0  0  0  0
  -25.4350  -36.3480   23.8930 C   0  0  0  0  0  3  0  0  0  0  0  0
  -27.5770  -37.2270   24.7110 C   0  0  0  0  0  1  0  0  0  0  0  0
  -26.4660  -37.4040   23.7780 N   0  0  0  0  0  0  0  0  0  0  0  0
  -26.0610  -38.3220   23.9390 H   0  0  0  0  0  0  0  0  0  0  0  0
  1  3  1  0
  1 49  1  0
  3  2  1  0
  3  4  1  0
  4 19  1  0
  5 18  1  0
  6 11  1  0
  7  8  1  0
  7  6  1  0
  9  8  1  0
  9 24  1  0
  9 10  1  0
 11  5  1  0
 11 10  1  0
 12  5  2  0
 14 13  1  0
 15 19  1  0
 16 17  1  0
 16 15  1  0
 16 18  1  0
 18 13  1  0
 19 14  1  0
 19 20  1  6
 21 22  2  0
 22 41  1  0
 23 22  1  0
 23 26  1  0
 24 21  1  0
 24 25  1  0
 25 23  2  0
 26 27  1  0
 27 28  2  0
 29 32  1  0
 29 28  1  0
 30 29  2  0
 31 30  1  0
 31 26  2  0
 32 33  1  0
 33 34  1  0
 34 35  2  0
 36 35  1  0
 36 40  1  0
 37 36  2  0
 38 33  2  0
 38 37  1  0
 39 38  1  0
 41 42  1  0
 42 45  1  0
 42 44  1  0
 43 41  2  0
 46 47  1  0
 46 21  1  0
 48 46  1  0
 50 49  1  0
 50 53  1  0
 51 50  1  0
 52 50  1  0
 54 53  1  0
 55 57  1  0
 55 54  1  0
 56 67  2  0
 57 62  1  0
 58 66  1  0
 58 68  1  0
 59 65  1  0
 59 61  1  0
 60 66  1  0
 61 60  1  0
 62 61  2  0
 63 64  1  0
 63 57  2  0
 64 59  2  0
 65 58  1  0
 66 56  1  0
 68 70  2  0
 69 68  1  0
 71 69  1  0
 72 81  2  0
 72 77  1  0
 73 69  1  0
 73 77  1  0
 74 73  1  0
 75 76  1  0
 75 74  1  0
 76 72  1  0
 77 78  2  0
 78 79  1  0
 80 79  2  0
 81 80  1  0
 82 56  1  0
 82 87  1  0
 82 83  1  0
 83 86  1  1
 83 84  1  0
 85 83  1  0
 87 90  1  0
 88 92  1  0
 88 87  1  0
 89 88  2  0
 92 91  1  0
 94 92  1  0
 94 95  1  0
 94 93  1  0
M  ISO  4   5 100  18 100  54 101  55 101
M  END
>  <TORSDO>  (2) 
F 22

>  <SCORE>  (2) 
-13.169

>  <name>  (2) 
1

>  <ligand_id>  (2) 
1

>  <original_smiles>  (2) 
[H]c1c([H])c([H])c2c(c1[H])C([H])([H])C([H])([H])C([H])([H])C2([H])N([H])C(=O)C1([H])N(C(=O)C([H])(N([H])C(=O)C([H])(N([H])C([H])([H])[H])C([H])([H])[H])C(C([H])([H])[H])(C([H])([H])[H])C([H])([H])[H])C([H])([H])c2c([H])c(OC([H])([H])C([H])([H])[N+]([H])([H])C([H])([H])C([H])([H])C([H])(C([H])([H])[H])C([H])([H])[N+]3([H])C([H])([H])C([H])([H])N(C(=O)N4C([H])([H])C([H])([H])C([H])([H])C([H])(n5nc(-c6c([H])c([H])c(Oc7c([H])c([H])c(F)c([H])c7F)c([H])c6[H])c(C(=O)N([H])[H])c5N([H])[H])C4([H])[H])C([H])(C([H])([H])[H])C3([H])[H])c([H])c([H])c2C1([H])[H]

>  <smiles>  (2) 
[H]c1c([H])c([H])c2c(c1[H])C([H])([H])C([H])([H])C([H])([H])C2([H])N([H])C(=O)C1([H])N(C(=O)C([H])(N([H])C(=O)C([H])(N([H])C([H])([H])[H])C([H])([H])[H])C(C([H])([H])[H])(C([H])([H])[H])C([H])([H])[H])C([H])([H])c2c([H])c(OC([H])([H])C([H])([H])[N+]([H])([H])C([H])([H])C([H])([H])C([H])(C([H])([H])[H])C([H])([H])[N+]3([H])C([H])([H])C([H])([H])N(C(=O)N4C([H])([H])C([H])([H])C([H])([H])C([H])(n5nc(-c6c([H])c([H])c(Oc7c([H])c([H])c(F)c([H])c7F)c([H])c6[H])c(C(=O)N([H])[H])c5N([H])[H])C4([H])[H])C([H])(C([H])([H])[H])C3([H])[H])c([H])c([H])c2C1([H])[H]

$$$$
2:0:0
     RDKit          3D

 93101  0  0  1  0  0  0  0  0999 V2000
  -31.8360  -21.0890   20.9500 C   0  0  0  0  0  2  0  0  0  0  0  0
  -30.7820  -22.1170   20.5070 C   0  0  0  0  0  2  0  0  0  0  0  0
  -31.0750  -23.5140   21.0770 C   0  0  0  0  0  2  0  0  0  0  0  0
  -30.2090  -24.6140   20.4520 C   0  0  0  0  0  2  0  0  0  0  0  0
  -30.2930  -25.9340   21.2410 C   0  0  0  0  0  2  0  0  0  0  0  0
  -29.6080  -27.1220   20.5520 C   0  0  0  0  0  2  0  0  0  0  0  0
  -28.3190  -26.6890   20.1330 O   0  0  0  0  0  0  0  0  0  0  0  0
  -24.5520  -31.9250   23.2530 C   0  0  0  0  0  0  0  0  0  0  0  0
  -27.2110  -27.5010   20.1990 C   0  0  0  0  0  0  0  0  0  0  0  0
  -23.3400  -30.5090   21.6260 C   0  0  0  0  0  3  0  0  0  0  0  0
  -24.7930  -28.9640   20.2100 C   0  0  0  0  0  0  0  0  0  0  0  0
  -25.8550  -30.8870   21.4030 C   0  0  0  0  0  2  0  0  0  0  0  0
  -25.9480  -29.5090   20.7860 C   0  0  0  0  0  0  0  0  0  0  0  0
  -27.1580  -28.7870   20.7870 C   0  0  0  0  0  3  0  0  0  0  0  0
  -26.0380  -26.9630   19.6300 C   0  0  0  0  0  3  0  0  0  0  0  0
  -24.8320  -27.6850   19.6290 C   0  0  0  0  0  3  0  0  0  0  0  0
  -23.5420  -29.8070   20.2550 C   0  0  0  0  0  2  0  0  0  0  0  0
  -24.6020  -31.1210   22.1550 N   0  0  0  0  0  0  0  0  0  0  0  0
  -23.4740  -32.2010   23.7970 O   0  0  0  0  0  0  0  0  0  0  0  0
  -22.6930  -29.4980   22.5990 C   0  0  0  0  0  0  0  0  0  0  0  0
  -21.3710  -29.3100   22.4660 N   0  0  0  0  0  0  0  0  0  0  0  0
  -23.3760  -28.8830   23.4220 O   0  0  0  0  0  0  0  0  0  0  0  0
  -20.8840  -29.8550   21.7690 H   0  0  0  0  0  0  0  0  0  0  0  0
  -17.9980  -28.1170   22.9550 C   0  0  0  0  0  0  0  0  0  0  0  0
  -20.5530  -28.3780   23.2390 C   0  0  0  0  0  3  0  0  0  0  0  0
  -20.6600  -26.9440   22.6710 C   0  0  0  0  0  2  0  0  0  0  0  0
  -19.5630  -26.6130   21.6560 C   0  0  0  0  0  2  0  0  0  0  0  0
  -18.1790  -26.7620   22.2910 C   0  0  0  0  0  2  0  0  0  0  0  0
  -19.1130  -28.8830   23.3840 C   0  0  0  0  0  0  0  0  0  0  0  0
  -18.8920  -30.1530   23.9590 C   0  0  0  0  0  3  0  0  0  0  0  0
  -17.5860  -30.6550   24.1140 C   0  0  0  0  0  3  0  0  0  0  0  0
  -16.4840  -29.8850   23.7040 C   0  0  0  0  0  3  0  0  0  0  0  0
  -16.6910  -28.6170   23.1290 C   0  0  0  0  0  3  0  0  0  0  0  0
  -25.8430  -32.5540   23.8680 C   0  0  0  0  0  3  0  0  0  0  0  0
  -26.3630  -31.7870   25.1450 C   0  0  1  0  0  0  0  0  0  0  0  0
  -25.2710  -31.5530   26.2140 C   0  0  0  0  0  1  0  0  0  0  0  0
  -26.9450  -30.4090   24.7480 C   0  0  0  0  0  1  0  0  0  0  0  0
  -27.5150  -32.5820   25.8000 C   0  0  0  0  0  1  0  0  0  0  0  0
  -25.5420  -33.9560   24.1890 N   0  0  0  0  0  0  0  0  0  0  0  0
  -25.8870  -35.0000   23.4240 C   0  0  0  0  0  0  0  0  0  0  0  0
  -26.5660  -34.8850   22.3990 O   0  0  0  0  0  0  0  0  0  0  0  0
  -24.9390  -34.1210   24.9810 H   0  0  0  0  0  0  0  0  0  0  0  0
  -24.1760  -36.8020   23.0350 C   0  0  0  0  0  1  0  0  0  0  0  0
  -25.4030  -36.3940   23.8660 C   0  0  0  0  0  3  0  0  0  0  0  0
  -27.5340  -37.2650   24.7190 C   0  0  0  0  0  1  0  0  0  0  0  0
  -26.4450  -37.4390   23.7630 N   0  0  0  0  0  0  0  0  0  0  0  0
  -26.0430  -38.3620   23.9040 H   0  0  0  0  0  0  0  0  0  0  0  0
  -31.5900  -19.6590   20.4330 C   0  0  0  0  0  2  0  0  0  0  0  0
  -30.9950  -18.7640   21.4520 N   0  0  0  0  0  4  0  0  0  0  0  0
  -31.5790  -18.8260   22.2700 H   0  0  0  0  0  0  0  0  0  0  0  0
  -30.0740  -19.0790   21.7110 H   0  0  0  0  0  0  0  0  0  0  0  0
  -30.7180  -14.4750   20.4580 C   0  0  0  0  0  0  0  0  0  0  0  0
  -30.3630  -12.3690   19.2510 C   0  0  0  0  0  2  0  0  0  0  0  0
  -29.4150  -12.6120   18.0620 C   0  0  0  0  0  2  0  0  0  0  0  0
  -27.9430  -12.4860   18.5020 C   0  0  0  0  0  2  0  0  0  0  0  0
  -27.6220  -13.2830   19.7950 C   0  0  0  0  0  3  0  0  0  0  0  0
  -28.6900  -13.0400   20.8870 C   0  0  0  0  0  2  0  0  0  0  0  0
  -30.0080  -13.3310   20.2990 N   0  0  0  0  0  0  0  0  0  0  0  0
  -31.8420  -14.6390   19.9750 O   0  0  0  0  0  0  0  0  0  0  0  0
  -30.6370  -16.3110   22.1150 C   0  0  0  0  0  2  0  0  0  0  0  0
  -30.9640  -17.3420   21.0390 C   0  0  0  0  0  3  0  0  0  0  0  0
  -29.7040  -16.8030   20.3590 C   0  0  0  0  0  3  0  0  0  0  0  0
  -30.0450  -15.5060   21.0230 N   0  0  0  0  0  0  0  0  0  0  0  0
  -25.2230  -13.8840   20.5000 C   0  0  0  0  0  0  0  0  0  0  0  0
  -24.1570  -13.1080   20.8680 C   0  0  0  0  0  0  0  0  0  0  0  0
  -24.6220  -11.7580   20.8400 C   0  0  0  0  0  0  0  0  0  0  0  0
  -26.2720  -13.0050   20.2770 N   0  0  0  0  0  0  0  0  0  0  0  0
  -25.9130  -11.7210   20.5340 N   0  0  0  0  0  0  0  0  0  0  0  0
  -23.9000  -10.4940   21.0330 C   0  0  0  0  0  0  0  0  0  0  0  0
  -24.3400   -9.5290   21.9640 C   0  0  0  0  0  3  0  0  0  0  0  0
  -23.6240   -8.3280   22.1450 C   0  0  0  0  0  3  0  0  0  0  0  0
  -22.4490   -8.0840   21.3930 C   0  0  0  0  0  0  0  0  0  0  0  0
  -22.0290   -9.0380   20.4510 C   0  0  0  0  0  3  0  0  0  0  0  0
  -22.7470  -10.2310   20.2680 C   0  0  0  0  0  3  0  0  0  0  0  0
  -21.6990   -6.9360   21.4830 O   0  0  0  0  0  0  0  0  0  0  0  0
  -21.6600   -6.1920   22.6350 C   0  0  0  0  0  0  0  0  0  0  0  0
  -21.2430   -6.7470   23.8660 C   0  0  0  0  0  3  0  0  0  0  0  0
  -21.1490   -5.9300   25.0100 C   0  0  0  0  0  3  0  0  0  0  0  0
  -21.4620   -4.5600   24.9250 C   0  0  0  0  0  0  0  0  0  0  0  0
  -21.8770   -4.0060   23.7000 C   0  0  0  0  0  3  0  0  0  0  0  0
  -21.9710   -4.8210   22.5580 C   0  0  0  0  0  0  0  0  0  0  0  0
  -22.3470   -4.2770   21.3750 F   0  0  0  0  0  0  0  0  0  0  0  0
  -21.3660   -3.7720   26.0220 F   0  0  0  0  0  0  0  0  0  0  0  0
  -22.7610  -13.5820   21.1430 C   0  0  0  0  0  0  0  0  0  0  0  0
  -22.0410  -12.8760   22.0090 N   0  0  0  0  0  0  0  0  0  0  0  0
  -22.3200  -14.6080   20.6280 O   0  0  0  0  0  0  0  0  0  0  0  0
  -22.4170  -12.0460   22.4410 H   0  0  0  0  0  0  0  0  0  0  0  0
  -21.1020  -13.1690   22.2400 H   0  0  0  0  0  0  0  0  0  0  0  0
  -25.3880  -15.2540   20.3220 N   0  0  0  0  0  0  0  0  0  0  0  0
  -24.6240  -15.9160   20.4170 H   0  0  0  0  0  0  0  0  0  0  0  0
  -26.2480  -15.6900   20.0130 H   0  0  0  0  0  0  0  0  0  0  0  0
  -28.8950  -17.8940   18.1630 C   0  0  0  0  0  1  0  0  0  0  0  0
  -29.5740  -16.6870   18.8270 C   0  0  0  0  0  2  0  0  0  0  0  0
  2  1  1  0
  2  3  1  0
  4  3  1  0
  4  5  1  0
  6  5  1  0
  7  9  1  0
  7  6  1  0
  8 19  2  0
  9 14  1  0
 10 18  1  0
 10 20  1  0
 11 17  1  0
 11 13  1  0
 12 18  1  0
 13 14  2  0
 13 12  1  0
 15  9  2  0
 16 15  1  0
 16 11  2  0
 17 10  1  0
 18  8  1  0
 20 22  2  0
 21 20  1  0
 23 21  1  0
 24 33  2  0
 24 29  1  0
 25 21  1  0
 25 29  1  0
 26 25  1  0
 27 28  1  0
 27 26  1  0
 28 24  1  0
 29 30  2  0
 30 31  1  0
 32 31  2  0
 33 32  1  0
 34  8  1  0
 34 39  1  0
 34 35  1  0
 35 38  1  1
 35 36  1  0
 37 35  1  0
 39 42  1  0
 40 44  1  0
 40 39  1  0
 41 40  2  0
 44 43  1  0
 46 44  1  0
 46 47  1  0
 46 45  1  0
 48  1  1  0
 48 49  1  0
 49 51  1  0
 49 50  1  0
 52 63  1  0
 53 58  1  0
 54 55  1  0
 54 53  1  0
 56 55  1  0
 56 67  1  0
 56 57  1  0
 58 52  1  0
 58 57  1  0
 59 52  2  0
 61 49  1  0
 61 60  1  0
 62 93  1  0
 62 63  1  0
 62 61  1  0
 63 60  1  0
 64 65  2  0
 65 84  1  0
 66 65  1  0
 66 69  1  0
 67 64  1  0
 67 68  1  0
 68 66  2  0
 69 70  1  0
 70 71  2  0
 72 75  1  0
 72 71  1  0
 73 72  2  0
 74 73  1  0
 74 69  2  0
 75 76  1  0
 76 77  1  0
 77 78  2  0
 79 78  1  0
 79 83  1  0
 80 79  2  0
 81 76  2  0
 81 80  1  0
 82 81  1  0
 84 85  1  0
 85 88  1  0
 85 87  1  0
 86 84  2  0
 89 90  1  0
 89 64  1  0
 91 89  1  0
 92 93  1  0
M  ISO  4   6 101   7 101  52 100  63 100
M  END
>  <TORSDO>  (3) 
F 24

>  <SCORE>  (3) 
-12.589

>  <name>  (3) 
2

>  <ligand_id>  (3) 
2

>  <original_smiles>  (3) 
[H]c1c([H])c([H])c2c(c1[H])C([H])([H])C([H])([H])C([H])([H])C2([H])N([H])C(=O)C1([H])N(C(=O)C([H])(N([H])C(=O)C([H])(N([H])C([H])([H])[H])C([H])([H])[H])C(C([H])([H])[H])(C([H])([H])[H])C([H])([H])[H])C([H])([H])c2c([H])c(OC([H])([H])C([H])([H])C([H])([H])C([H])([H])C([H])([H])C([H])([H])C([H])([H])[N+]([H])([H])C3([H])C([H])([H])N(C(=O)N4C([H])([H])C([H])([H])C([H])([H])C([H])(n5nc(-c6c([H])c([H])c(Oc7c([H])c([H])c(F)c([H])c7F)c([H])c6[H])c(C(=O)N([H])[H])c5N([H])[H])C4([H])[H])C3([H])C([H])([H])C([H])([H])[H])c([H])c([H])c2C1([H])[H]

>  <smiles>  (3) 
[H]c1c([H])c([H])c2c(c1[H])C([H])([H])C([H])([H])C([H])([H])C2([H])N([H])C(=O)C1([H])N(C(=O)C([H])(N([H])C(=O)C([H])(N([H])C([H])([H])[H])C([H])([H])[H])C(C([H])([H])[H])(C([H])([H])[H])C([H])([H])[H])C([H])([H])c2c([H])c(OC([H])([H])C([H])([H])C([H])([H])C([H])([H])C([H])([H])C([H])([H])C([H])([H])[N+]([H])([H])C3([H])C([H])([H])N(C(=O)N4C([H])([H])C([H])([H])C([H])([H])C([H])(n5nc(-c6c([H])c([H])c(Oc7c([H])c([H])c(F)c([H])c7F)c([H])c6[H])c(C(=O)N([H])[H])c5N([H])[H])C4([H])[H])C3([H])C([H])([H])C([H])([H])[H])c([H])c([H])c2C1([H])[H]

$$$$
3:0:0
     RDKit          3D

 93101  0  0  1  0  0  0  0  0999 V2000
  -29.5400  -21.9100   20.4310 C   0  0  0  0  0  2  0  0  0  0  0  0
  -28.7060  -22.3080   19.1860 C   0  0  0  0  0  2  0  0  0  0  0  0
  -28.2260  -23.7790   19.1360 C   0  0  0  0  0  2  0  0  0  0  0  0
  -29.3170  -24.8420   18.8680 C   0  0  0  0  0  2  0  0  0  0  0  0
  -29.7380  -27.2590   18.0950 C   0  0  0  0  0  1  0  0  0  0  0  0
  -28.7480  -26.2720   18.7320 C   0  0  0  0  0  3  0  0  0  0  0  0
  -28.3950  -26.8010   20.0230 O   0  0  0  0  0  0  0  0  0  0  0  0
  -24.5600  -31.9100   23.2520 C   0  0  0  0  0  0  0  0  0  0  0  0
  -27.2150  -27.5070   20.1000 C   0  0  0  0  0  0  0  0  0  0  0  0
  -23.3550  -30.5070   21.6130 C   0  0  0  0  0  3  0  0  0  0  0  0
  -24.8090  -28.9850   20.1800 C   0  0  0  0  0  0  0  0  0  0  0  0
  -25.8790  -30.8750   21.4140 C   0  0  0  0  0  2  0  0  0  0  0  0
  -25.9690  -29.5070   20.7670 C   0  0  0  0  0  0  0  0  0  0  0  0
  -27.1730  -28.7650   20.7430 C   0  0  0  0  0  3  0  0  0  0  0  0
  -26.0240  -26.9810   19.5530 C   0  0  0  0  0  3  0  0  0  0  0  0
  -24.8290  -27.7160   19.5780 C   0  0  0  0  0  3  0  0  0  0  0  0
  -23.5640  -29.8410   20.2310 C   0  0  0  0  0  2  0  0  0  0  0  0
  -24.6150  -31.1120   22.1500 N   0  0  0  0  0  0  0  0  0  0  0  0
  -23.4780  -32.1740   23.7950 O   0  0  0  0  0  0  0  0  0  0  0  0
  -22.7150  -29.4740   22.5690 C   0  0  0  0  0  0  0  0  0  0  0  0
  -21.3920  -29.2830   22.4430 N   0  0  0  0  0  0  0  0  0  0  0  0
  -23.4060  -28.8450   23.3760 O   0  0  0  0  0  0  0  0  0  0  0  0
  -20.8970  -29.8420   21.7630 H   0  0  0  0  0  0  0  0  0  0  0  0
  -18.0210  -28.0850   22.9460 C   0  0  0  0  0  0  0  0  0  0  0  0
  -20.5790  -28.3400   23.2110 C   0  0  0  0  0  3  0  0  0  0  0  0
  -20.6810  -26.9140   22.6230 C   0  0  0  0  0  2  0  0  0  0  0  0
  -19.5750  -26.5980   21.6110 C   0  0  0  0  0  2  0  0  0  0  0  0
  -18.1960  -26.7400   22.2600 C   0  0  0  0  0  2  0  0  0  0  0  0
  -19.1410  -28.8450   23.3750 C   0  0  0  0  0  0  0  0  0  0  0  0
  -18.9230  -30.1070   23.9710 C   0  0  0  0  0  3  0  0  0  0  0  0
  -17.6180  -30.6070   24.1410 C   0  0  0  0  0  3  0  0  0  0  0  0
  -16.5130  -29.8430   23.7280 C   0  0  0  0  0  3  0  0  0  0  0  0
  -16.7160  -28.5830   23.1350 C   0  0  0  0  0  3  0  0  0  0  0  0
  -25.8440  -32.5440   23.8700 C   0  0  0  0  0  3  0  0  0  0  0  0
  -26.3640  -31.7770   25.1480 C   0  0  1  0  0  0  0  0  0  0  0  0
  -25.2700  -31.5360   26.2140 C   0  0  0  0  0  1  0  0  0  0  0  0
  -26.9480  -30.4010   24.7530 C   0  0  0  0  0  1  0  0  0  0  0  0
  -27.5140  -32.5730   25.8080 C   0  0  0  0  0  1  0  0  0  0  0  0
  -25.5340  -33.9420   24.1930 N   0  0  0  0  0  0  0  0  0  0  0  0
  -25.8720  -34.9900   23.4300 C   0  0  0  0  0  0  0  0  0  0  0  0
  -26.5460  -34.8810   22.4020 O   0  0  0  0  0  0  0  0  0  0  0  0
  -24.9330  -34.1000   24.9880 H   0  0  0  0  0  0  0  0  0  0  0  0
  -24.1460  -36.7790   23.0510 C   0  0  0  0  0  1  0  0  0  0  0  0
  -25.3790  -36.3790   23.8780 C   0  0  0  0  0  3  0  0  0  0  0  0
  -27.5040  -37.2640   24.7290 C   0  0  0  0  0  1  0  0  0  0  0  0
  -26.4130  -37.4310   23.7720 N   0  0  0  0  0  0  0  0  0  0  0  0
  -26.0060  -38.3520   23.9110 H   0  0  0  0  0  0  0  0  0  0  0  0
  -29.0030  -20.6930   21.2420 C   0  0  0  0  0  2  0  0  0  0  0  0
  -29.9000  -19.5070   21.2080 N   0  0  0  0  0  4  0  0  0  0  0  0
  -30.6740  -19.7170   20.5980 H   0  0  0  0  0  0  0  0  0  0  0  0
  -30.2880  -19.3960   22.1330 H   0  0  0  0  0  0  0  0  0  0  0  0
  -30.6640  -14.6440   20.4380 C   0  0  0  0  0  0  0  0  0  0  0  0
  -30.4100  -12.4150   19.4400 C   0  0  0  0  0  2  0  0  0  0  0  0
  -29.4790  -12.4760   18.2100 C   0  0  0  0  0  2  0  0  0  0  0  0
  -28.0010  -12.3840   18.6230 C   0  0  0  0  0  2  0  0  0  0  0  0
  -27.6290  -13.2940   19.8230 C   0  0  0  0  0  3  0  0  0  0  0  0
  -28.6660  -13.2070   20.9610 C   0  0  0  0  0  2  0  0  0  0  0  0
  -29.9840  -13.4660   20.3770 N   0  0  0  0  0  0  0  0  0  0  0  0
  -31.8860  -14.7010   20.2960 O   0  0  0  0  0  0  0  0  0  0  0  0
  -28.5860  -17.0480   18.5830 C   0  0  0  0  0  2  0  0  0  0  0  0
  -28.7230  -18.3690   19.3380 C   0  0  0  0  0  2  0  0  0  0  0  0
  -29.8260  -16.1840   18.8220 C   0  0  0  0  0  2  0  0  0  0  0  0
  -30.2750  -17.0120   20.9810 C   0  0  0  0  0  2  0  0  0  0  0  0
  -29.2860  -18.2190   20.7760 C   0  0  0  0  0  3  0  0  0  0  0  0
  -29.9250  -15.7750   20.2360 N   0  0  0  0  0  0  0  0  0  0  0  0
  -25.2210  -13.9100   20.4760 C   0  0  0  0  0  0  0  0  0  0  0  0
  -24.1400  -13.1360   20.8200 C   0  0  0  0  0  0  0  0  0  0  0  0
  -24.6060  -11.7880   20.8260 C   0  0  0  0  0  0  0  0  0  0  0  0
  -26.2720  -13.0250   20.2880 N   0  0  0  0  0  0  0  0  0  0  0  0
  -25.9080  -11.7480   20.5670 N   0  0  0  0  0  0  0  0  0  0  0  0
  -23.8780  -10.5260   21.0140 C   0  0  0  0  0  0  0  0  0  0  0  0
  -24.2840   -9.5720   21.9760 C   0  0  0  0  0  3  0  0  0  0  0  0
  -23.5570   -8.3740   22.1450 C   0  0  0  0  0  3  0  0  0  0  0  0
  -22.4100   -8.1210   21.3550 C   0  0  0  0  0  0  0  0  0  0  0  0
  -22.0260   -9.0630   20.3820 C   0  0  0  0  0  3  0  0  0  0  0  0
  -22.7540  -10.2530   20.2120 C   0  0  0  0  0  3  0  0  0  0  0  0
  -21.6580   -6.9750   21.4340 O   0  0  0  0  0  0  0  0  0  0  0  0
  -21.5750   -6.2470   22.5920 C   0  0  0  0  0  0  0  0  0  0  0  0
  -21.1100   -6.8180   23.7980 C   0  0  0  0  0  3  0  0  0  0  0  0
  -20.9730   -6.0170   24.9500 C   0  0  0  0  0  3  0  0  0  0  0  0
  -21.2950   -4.6470   24.8980 C   0  0  0  0  0  0  0  0  0  0  0  0
  -21.7560   -4.0770   23.6980 C   0  0  0  0  0  3  0  0  0  0  0  0
  -21.8950   -4.8740   22.5470 C   0  0  0  0  0  0  0  0  0  0  0  0
  -22.3150   -4.3150   21.3880 F   0  0  0  0  0  0  0  0  0  0  0  0
  -21.1580   -3.8740   26.0020 F   0  0  0  0  0  0  0  0  0  0  0  0
  -22.7330  -13.6120   21.0350 C   0  0  0  0  0  0  0  0  0  0  0  0
  -21.9810  -12.9190   21.8840 N   0  0  0  0  0  0  0  0  0  0  0  0
  -22.3040  -14.6230   20.4860 O   0  0  0  0  0  0  0  0  0  0  0  0
  -22.3470  -12.0980   22.3380 H   0  0  0  0  0  0  0  0  0  0  0  0
  -21.0310  -13.2040   22.0750 H   0  0  0  0  0  0  0  0  0  0  0  0
  -25.3880  -15.2780   20.2810 N   0  0  0  0  0  0  0  0  0  0  0  0
  -24.6210  -15.9370   20.3680 H   0  0  0  0  0  0  0  0  0  0  0  0
  -26.2630  -15.7090   20.0070 H   0  0  0  0  0  0  0  0  0  0  0  0
  1 48  1  0
  2  1  1  0
  3  2  1  0
  4  3  1  0
  6  5  1  0
  6  4  1  0
  6  7  1  0
  7  9  1  0
  8 19  2  0
  9 14  1  0
 10 18  1  0
 10 20  1  0
 11 17  1  0
 11 13  1  0
 12 18  1  0
 13 12  1  0
 14 13  2  0
 15 16  1  0
 15  9  2  0
 16 11  2  0
 17 10  1  0
 18  8  1  0
 20 22  2  0
 21 20  1  0
 23 21  1  0
 24 33  2  0
 24 29  1  0
 25 21  1  0
 25 29  1  0
 26 25  1  0
 27 28  1  0
 27 26  1  0
 28 24  1  0
 29 30  2  0
 30 31  1  0
 32 31  2  0
 33 32  1  0
 34  8  1  0
 34 39  1  0
 34 35  1  0
 35 38  1  1
 35 36  1  0
 37 35  1  0
 39 42  1  0
 40 44  1  0
 40 39  1  0
 41 40  2  0
 44 43  1  0
 46 44  1  0
 46 47  1  0
 46 45  1  0
 49 48  1  0
 49 51  1  0
 50 49  1  0
 53 58  1  0
 54 55  1  0
 54 53  1  0
 56 55  1  0
 56 69  1  0
 56 57  1  0
 58 52  1  0
 58 57  1  0
 59 52  2  0
 60 62  1  0
 60 61  1  0
 61 64  1  0
 62 65  1  0
 64 63  1  0
 64 49  1  0
 65 52  1  0
 65 63  1  0
 66 67  2  0
 67 68  1  0
 67 86  1  0
 68 71  1  0
 69 66  1  0
 69 70  1  0
 70 68  2  0
 71 72  1  0
 72 73  2  0
 74 77  1  0
 74 73  1  0
 75 74  2  0
 76 75  1  0
 76 71  2  0
 77 78  1  0
 78 79  1  0
 79 80  2  0
 81 80  1  0
 81 85  1  0
 82 81  2  0
 83 78  2  0
 83 82  1  0
 84 83  1  0
 86 87  1  0
 87 90  1  0
 87 89  1  0
 88 86  2  0
 91 92  1  0
 91 66  1  0
 93 91  1  0
M  ISO  4   6 101   7 101  52 100  65 100
M  END
>  <TORSDO>  (4) 
F 22

>  <SCORE>  (4) 
-13.030

>  <name>  (4) 
3

>  <ligand_id>  (4) 
3

>  <original_smiles>  (4) 
[H]c1c([H])c([H])c2c(c1[H])C([H])([H])C([H])([H])C([H])([H])C2([H])N([H])C(=O)C1([H])N(C(=O)C([H])(N([H])C(=O)C([H])(N([H])C([H])([H])[H])C([H])([H])[H])C(C([H])([H])[H])(C([H])([H])[H])C([H])([H])[H])C([H])([H])c2c([H])c(OC([H])(C([H])([H])[H])C([H])([H])C([H])([H])C([H])([H])C([H])([H])C([H])([H])[N+]([H])([H])C3([H])C([H])([H])N(C(=O)N4C([H])([H])C([H])([H])C([H])([H])C([H])(n5nc(-c6c([H])c([H])c(Oc7c([H])c([H])c(F)c([H])c7F)c([H])c6[H])c(C(=O)N([H])[H])c5N([H])[H])C4([H])[H])C([H])([H])C([H])([H])C3([H])[H])c([H])c([H])c2C1([H])[H]

>  <smiles>  (4) 
[H]c1c([H])c([H])c2c(c1[H])C([H])([H])C([H])([H])C([H])([H])C2([H])N([H])C(=O)C1([H])N(C(=O)C([H])(N([H])C(=O)C([H])(N([H])C([H])([H])[H])C([H])([H])[H])C(C([H])([H])[H])(C([H])([H])[H])C([H])([H])[H])C([H])([H])c2c([H])c(OC([H])(C([H])([H])[H])C([H])([H])C([H])([H])C([H])([H])C([H])([H])C([H])([H])[N+]([H])([H])C3([H])C([H])([H])N(C(=O)N4C([H])([H])C([H])([H])C([H])([H])C([H])(n5nc(-c6c([H])c([H])c(Oc7c([H])c([H])c(F)c([H])c7F)c([H])c6[H])c(C(=O)N([H])[H])c5N([H])[H])C4([H])[H])C([H])([H])C([H])([H])C3([H])[H])c([H])c([H])c2C1([H])[H]

$$$$
4:0:0
     RDKit          3D

 92100  0  0  1  0  0  0  0  0999 V2000
  -31.2350  -21.7140   22.2740 C   0  0  0  0  0  2  0  0  0  0  0  0
  -30.5780  -19.4570   21.4300 C   0  0  0  0  0  0  0  0  0  0  0  0
  -30.2980  -20.6160   22.0420 N   0  0  0  0  0  0  0  0  0  0  0  0
  -31.6440  -19.2650   20.8430 O   0  0  0  0  0  0  0  0  0  0  0  0
  -29.3960  -20.6860   22.4950 H   0  0  0  0  0  0  0  0  0  0  0  0
  -31.0310  -14.5880   20.0840 C   0  0  0  0  0  0  0  0  0  0  0  0
  -30.6270  -12.4740   18.8920 C   0  0  0  0  0  2  0  0  0  0  0  0
  -29.6460  -12.7350   17.7320 C   0  0  0  0  0  2  0  0  0  0  0  0
  -28.1950  -12.5760   18.2210 C   0  0  0  0  0  2  0  0  0  0  0  0
  -27.9090  -13.3780   19.5190 C   0  0  0  0  0  3  0  0  0  0  0  0
  -29.0130  -13.1590   20.5790 C   0  0  0  0  0  2  0  0  0  0  0  0
  -30.3140  -13.4400   19.9550 N   0  0  0  0  0  0  0  0  0  0  0  0
  -32.1410  -14.7480   19.5700 O   0  0  0  0  0  0  0  0  0  0  0  0
  -29.0910  -17.7510   20.1750 C   0  0  0  0  0  2  0  0  0  0  0  0
  -29.9210  -17.2080   22.4950 C   0  0  0  0  0  2  0  0  0  0  0  0
  -30.1030  -16.7280   19.6300 C   0  0  0  0  0  2  0  0  0  0  0  0
  -30.8970  -16.1920   21.8620 C   0  0  0  0  0  2  0  0  0  0  0  0
  -29.5070  -18.3480   21.5350 C   0  0  0  0  0  3  0  0  0  0  0  0
  -30.3760  -15.6500   20.5990 N   0  0  0  0  0  0  0  0  0  0  0  0
  -25.5280  -13.9390   20.3110 C   0  0  0  0  0  0  0  0  0  0  0  0
  -24.4860  -13.1470   20.7130 C   0  0  0  0  0  0  0  0  0  0  0  0
  -24.9670  -11.8040   20.6580 C   0  0  0  0  0  0  0  0  0  0  0  0
  -26.5790  -13.0780   20.0450 N   0  0  0  0  0  0  0  0  0  0  0  0
  -26.2480  -11.7870   20.3080 N   0  0  0  0  0  0  0  0  0  0  0  0
  -24.2670  -10.5280   20.8650 C   0  0  0  0  0  0  0  0  0  0  0  0
  -24.6850   -9.6080   21.8510 C   0  0  0  0  0  3  0  0  0  0  0  0
  -23.9840   -8.3970   22.0430 C   0  0  0  0  0  3  0  0  0  0  0  0
  -22.8520   -8.0990   21.2480 C   0  0  0  0  0  0  0  0  0  0  0  0
  -22.4530   -9.0100   20.2530 C   0  0  0  0  0  3  0  0  0  0  0  0
  -23.1540  -10.2110   20.0600 C   0  0  0  0  0  3  0  0  0  0  0  0
  -22.1270   -6.9360   21.3450 O   0  0  0  0  0  0  0  0  0  0  0  0
  -21.9720   -6.2820   22.5410 C   0  0  0  0  0  0  0  0  0  0  0  0
  -21.3830   -6.9080   23.6610 C   0  0  0  0  0  3  0  0  0  0  0  0
  -21.1810   -6.1790   24.8490 C   0  0  0  0  0  3  0  0  0  0  0  0
  -21.5550   -4.8230   24.9170 C   0  0  0  0  0  0  0  0  0  0  0  0
  -22.1340   -4.1960   23.8000 C   0  0  0  0  0  3  0  0  0  0  0  0
  -22.3400   -4.9230   22.6140 C   0  0  0  0  0  0  0  0  0  0  0  0
  -22.8790   -4.3090   21.5350 F   0  0  0  0  0  0  0  0  0  0  0  0
  -21.3540   -4.1190   26.0570 F   0  0  0  0  0  0  0  0  0  0  0  0
  -23.0920  -13.6020   21.0400 C   0  0  0  0  0  0  0  0  0  0  0  0
  -22.4190  -12.9030   21.9470 N   0  0  0  0  0  0  0  0  0  0  0  0
  -22.6110  -14.6100   20.5250 O   0  0  0  0  0  0  0  0  0  0  0  0
  -22.8210  -12.0840   22.3780 H   0  0  0  0  0  0  0  0  0  0  0  0
  -21.4900  -13.1920   22.2160 H   0  0  0  0  0  0  0  0  0  0  0  0
  -25.6640  -15.3120   20.1250 N   0  0  0  0  0  0  0  0  0  0  0  0
  -24.8840  -15.9530   20.2140 H   0  0  0  0  0  0  0  0  0  0  0  0
  -26.4940  -15.7450   19.7380 H   0  0  0  0  0  0  0  0  0  0  0  0
  -31.2350  -22.7790   21.1610 C   0  0  0  0  0  2  0  0  0  0  0  0
  -29.8510  -23.3960   20.8950 C   0  0  0  0  0  2  0  0  0  0  0  0
  -29.9220  -24.8230   20.3150 C   0  0  0  0  0  2  0  0  0  0  0  0
  -28.5290  -25.4390   20.1430 C   0  0  0  0  0  2  0  0  0  0  0  0
  -28.6360  -26.8570   20.0240 O   0  0  0  0  0  0  0  0  0  0  0  0
  -24.6850  -31.8050   23.2680 C   0  0  0  0  0  0  0  0  0  0  0  0
  -27.4440  -27.5450   20.0420 C   0  0  0  0  0  0  0  0  0  0  0  0
  -23.5240  -30.4530   21.5530 C   0  0  0  0  0  3  0  0  0  0  0  0
  -25.0220  -29.0010   20.0900 C   0  0  0  0  0  0  0  0  0  0  0  0
  -26.0480  -30.8590   21.4090 C   0  0  0  0  0  2  0  0  0  0  0  0
  -26.1630  -29.5190   20.7130 C   0  0  0  0  0  0  0  0  0  0  0  0
  -27.3790  -28.8010   20.6830 C   0  0  0  0  0  3  0  0  0  0  0  0
  -26.2810  -27.0350   19.4180 C   0  0  0  0  0  3  0  0  0  0  0  0
  -25.0750  -27.7550   19.4430 C   0  0  0  0  0  3  0  0  0  0  0  0
  -23.7620  -29.8340   20.1510 C   0  0  0  0  0  2  0  0  0  0  0  0
  -24.7700  -31.0490   22.1370 N   0  0  0  0  0  0  0  0  0  0  0  0
  -23.5930  -32.0390   23.8010 O   0  0  0  0  0  0  0  0  0  0  0  0
  -22.8780  -29.3820   22.4600 C   0  0  0  0  0  0  0  0  0  0  0  0
  -21.5590  -29.1830   22.3010 N   0  0  0  0  0  0  0  0  0  0  0  0
  -23.5600  -28.7330   23.2580 O   0  0  0  0  0  0  0  0  0  0  0  0
  -21.0720  -29.7600   21.6300 H   0  0  0  0  0  0  0  0  0  0  0  0
  -18.1900  -27.9490   22.7140 C   0  0  0  0  0  0  0  0  0  0  0  0
  -20.7440  -28.2040   23.0200 C   0  0  0  0  0  3  0  0  0  0  0  0
  -20.8600  -26.8030   22.3750 C   0  0  0  0  0  2  0  0  0  0  0  0
  -19.7680  -26.5260   21.3380 C   0  0  0  0  0  2  0  0  0  0  0  0
  -18.3790  -26.6350   21.9740 C   0  0  0  0  0  2  0  0  0  0  0  0
  -19.3020  -28.6930   23.1900 C   0  0  0  0  0  0  0  0  0  0  0  0
  -19.0740  -29.9270   23.8370 C   0  0  0  0  0  3  0  0  0  0  0  0
  -17.7650  -30.4150   24.0150 C   0  0  0  0  0  3  0  0  0  0  0  0
  -16.6680  -29.6650   23.5570 C   0  0  0  0  0  3  0  0  0  0  0  0
  -16.8810  -28.4340   22.9110 C   0  0  0  0  0  3  0  0  0  0  0  0
  -25.9530  -32.4280   23.9310 C   0  0  0  0  0  3  0  0  0  0  0  0
  -25.6400  -33.8260   24.2550 N   0  0  0  0  0  0  0  0  0  0  0  0
  -26.0150  -34.8790   23.5170 C   0  0  0  0  0  0  0  0  0  0  0  0
  -26.7330  -34.7760   22.5180 O   0  0  0  0  0  0  0  0  0  0  0  0
  -25.0120  -33.9810   25.0300 H   0  0  0  0  0  0  0  0  0  0  0  0
  -24.3370  -36.6940   23.0650 C   0  0  0  0  0  1  0  0  0  0  0  0
  -25.5150  -36.2670   23.9560 C   0  0  0  0  0  3  0  0  0  0  0  0
  -27.5960  -37.1160   24.9430 C   0  0  0  0  0  1  0  0  0  0  0  0
  -26.5640  -37.3090   23.9270 N   0  0  0  0  0  0  0  0  0  0  0  0
  -26.1610  -38.2330   24.0580 H   0  0  0  0  0  0  0  0  0  0  0  0
  -26.4270  -31.6490   25.2180 C   0  0  1  0  0  0  0  0  0  0  0  0
  -25.2990  -31.4050   26.2470 C   0  0  0  0  0  1  0  0  0  0  0  0
  -27.0220  -30.2740   24.8360 C   0  0  0  0  0  1  0  0  0  0  0  0
  -27.5550  -32.4390   25.9230 C   0  0  0  0  0  1  0  0  0  0  0  0
  2  3  1  0
  3  1  1  0
  3  5  1  0
  4  2  2  0
  6 19  1  0
  7 12  1  0
  8  9  1  0
  8  7  1  0
 10  9  1  0
 10 23  1  0
 10 11  1  0
 12  6  1  0
 12 11  1  0
 13  6  2  0
 14 18  1  0
 16 14  1  0
 16 19  1  0
 17 15  1  0
 18  2  1  0
 18 15  1  0
 19 17  1  0
 20 21  2  0
 21 40  1  0
 22 21  1  0
 22 25  1  0
 23 24  1  0
 23 20  1  0
 24 22  2  0
 25 26  1  0
 26 27  2  0
 28 31  1  0
 28 27  1  0
 29 28  2  0
 30 29  1  0
 30 25  2  0
 31 32  1  0
 32 37  2  0
 32 33  1  0
 33 34  2  0
 34 35  1  0
 35 39  1  0
 36 35  2  0
 37 36  1  0
 38 37  1  0
 40 41  1  0
 41 44  1  0
 41 43  1  0
 42 40  2  0
 45 46  1  0
 45 20  1  0
 47 45  1  0
 48  1  1  0
 49 48  1  0
 50 49  1  0
 51 50  1  0
 52 54  1  0
 52 51  1  0
 53 64  2  0
 54 59  1  0
 55 63  1  0
 55 65  1  0
 56 62  1  0
 56 58  1  0
 57 63  1  0
 58 57  1  0
 59 58  2  0
 60 61  1  0
 60 54  2  0
 61 56  2  0
 62 55  1  0
 63 53  1  0
 65 67  2  0
 66 65  1  0
 68 66  1  0
 69 78  2  0
 69 74  1  0
 70 66  1  0
 70 74  1  0
 71 70  1  0
 72 73  1  0
 72 71  1  0
 73 69  1  0
 74 75  2  0
 75 76  1  0
 77 76  2  0
 78 77  1  0
 79 53  1  0
 79 80  1  0
 79 89  1  0
 80 83  1  0
 81 85  1  0
 81 80  1  0
 82 81  2  0
 85 84  1  0
 87 85  1  0
 87 88  1  0
 87 86  1  0
 89 92  1  1
 89 90  1  0
 91 89  1  0
M  ISO  4   6 100  19 100  51 101  52 101
M  END
>  <TORSDO>  (5) 
F 21

>  <SCORE>  (5) 
-12.257

>  <name>  (5) 
4

>  <ligand_id>  (5) 
4

>  <original_smiles>  (5) 
[H]c1c([H])c([H])c2c(c1[H])C([H])([H])C([H])([H])C([H])([H])C2([H])N([H])C(=O)C1([H])N(C(=O)C([H])(N([H])C(=O)C([H])(N([H])C([H])([H])[H])C([H])([H])[H])C(C([H])([H])[H])(C([H])([H])[H])C([H])([H])[H])C([H])([H])c2c([H])c(OC([H])([H])C([H])([H])C([H])([H])C([H])([H])C([H])([H])N([H])C(=O)C3([H])C([H])([H])C([H])([H])N(C(=O)N4C([H])([H])C([H])([H])C([H])([H])C([H])(n5nc(-c6c([H])c([H])c(Oc7c([H])c([H])c(F)c([H])c7F)c([H])c6[H])c(C(=O)N([H])[H])c5N([H])[H])C4([H])[H])C([H])([H])C3([H])[H])c([H])c([H])c2C1([H])[H]

>  <smiles>  (5) 
[H]c1c([H])c([H])c2c(c1[H])C([H])([H])C([H])([H])C([H])([H])C2([H])N([H])C(=O)C1([H])N(C(=O)C([H])(N([H])C(=O)C([H])(N([H])C([H])([H])[H])C([H])([H])[H])C(C([H])([H])[H])(C([H])([H])[H])C([H])([H])[H])C([H])([H])c2c([H])c(OC([H])([H])C([H])([H])C([H])([H])C([H])([H])C([H])([H])N([H])C(=O)C3([H])C([H])([H])C([H])([H])N(C(=O)N4C([H])([H])C([H])([H])C([H])([H])C([H])(n5nc(-c6c([H])c([H])c(Oc7c([H])c([H])c(F)c([H])c7F)c([H])c6[H])c(C(=O)N([H])[H])c5N([H])[H])C4([H])[H])C([H])([H])C3([H])[H])c([H])c([H])c2C1([H])[H]

$$$$
5:0:0
     RDKit          3D

 95103  0  0  1  0  0  0  0  0999 V2000
  -28.4660  -17.3640   19.6600 C   0  0  0  0  0  2  0  0  0  0  0  0
  -27.5550  -18.5290   19.2710 C   0  0  0  0  0  2  0  0  0  0  0  0
  -28.9180  -20.0460   20.7280 C   0  0  0  0  0  2  0  0  0  0  0  0
  -29.1970  -17.5740   21.0190 C   0  0  0  0  0  3  0  0  0  0  0  0
  -28.3680  -19.8270   19.2970 C   0  0  0  0  0  3  0  0  0  0  0  0
  -29.7870  -18.9270   21.1340 N   0  0  0  0  0  4  0  0  0  0  0  0
  -30.1000  -19.0660   22.0800 H   0  0  0  0  0  0  0  0  0  0  0  0
  -30.6260  -18.9130   20.5730 H   0  0  0  0  0  0  0  0  0  0  0  0
  -30.7350  -14.3380   20.3890 C   0  0  0  0  0  0  0  0  0  0  0  0
  -30.3460  -12.2640   19.1300 C   0  0  0  0  0  2  0  0  0  0  0  0
  -29.3850  -12.5560   17.9610 C   0  0  0  0  0  2  0  0  0  0  0  0
  -27.9150  -12.4340   18.4170 C   0  0  0  0  0  2  0  0  0  0  0  0
  -27.6290  -13.2250   19.7230 C   0  0  0  0  0  3  0  0  0  0  0  0
  -28.6960  -12.9120   20.7960 C   0  0  0  0  0  2  0  0  0  0  0  0
  -30.0230  -13.1970   20.2160 N   0  0  0  0  0  0  0  0  0  0  0  0
  -31.8450  -14.5210   19.8760 O   0  0  0  0  0  0  0  0  0  0  0  0
  -30.3690  -16.5930   21.0960 C   0  0  0  0  0  0  0  0  0  0  0  0
  -30.0360  -15.3030   20.9990 N   0  0  0  0  0  0  0  0  0  0  0  0
  -31.5280  -17.0260   21.1510 O   0  0  0  0  0  0  0  0  0  0  0  0
  -29.0790  -15.0590   21.1980 H   0  0  0  0  0  0  0  0  0  0  0  0
  -25.2430  -13.8730   20.4560 C   0  0  0  0  0  0  0  0  0  0  0  0
  -24.1720  -13.1110   20.8440 C   0  0  0  0  0  0  0  0  0  0  0  0
  -24.6190  -11.7560   20.8090 C   0  0  0  0  0  0  0  0  0  0  0  0
  -26.2760  -12.9770   20.2130 N   0  0  0  0  0  0  0  0  0  0  0  0
  -25.9030  -11.7020   20.4830 N   0  0  0  0  0  0  0  0  0  0  0  0
  -23.8860  -10.5000   21.0110 C   0  0  0  0  0  0  0  0  0  0  0  0
  -24.3310   -9.5290   21.9350 C   0  0  0  0  0  3  0  0  0  0  0  0
  -23.6010   -8.3370   22.1260 C   0  0  0  0  0  3  0  0  0  0  0  0
  -22.4120   -8.1080   21.3940 C   0  0  0  0  0  0  0  0  0  0  0  0
  -21.9860   -9.0680   20.4590 C   0  0  0  0  0  3  0  0  0  0  0  0
  -22.7150  -10.2520   20.2670 C   0  0  0  0  0  3  0  0  0  0  0  0
  -21.6540   -6.9660   21.4940 O   0  0  0  0  0  0  0  0  0  0  0  0
  -21.6290   -6.2180   22.6420 C   0  0  0  0  0  0  0  0  0  0  0  0
  -21.2450   -6.7700   23.8840 C   0  0  0  0  0  3  0  0  0  0  0  0
  -21.1670   -5.9490   25.0270 C   0  0  0  0  0  3  0  0  0  0  0  0
  -21.4630   -4.5770   24.9280 C   0  0  0  0  0  0  0  0  0  0  0  0
  -21.8410   -4.0230   23.6930 C   0  0  0  0  0  3  0  0  0  0  0  0
  -21.9210   -4.8410   22.5520 C   0  0  0  0  0  0  0  0  0  0  0  0
  -22.2670   -4.3000   21.3590 F   0  0  0  0  0  0  0  0  0  0  0  0
  -21.3800   -3.7850   26.0220 F   0  0  0  0  0  0  0  0  0  0  0  0
  -22.7830  -13.6030   21.1350 C   0  0  0  0  0  0  0  0  0  0  0  0
  -22.0620  -12.9120   22.0130 N   0  0  0  0  0  0  0  0  0  0  0  0
  -22.3450  -14.6290   20.6200 O   0  0  0  0  0  0  0  0  0  0  0  0
  -22.4300  -12.0780   22.4480 H   0  0  0  0  0  0  0  0  0  0  0  0
  -21.1340  -13.2250   22.2560 H   0  0  0  0  0  0  0  0  0  0  0  0
  -25.4190  -15.2400   20.2740 N   0  0  0  0  0  0  0  0  0  0  0  0
  -24.6520  -15.8940   20.3850 H   0  0  0  0  0  0  0  0  0  0  0  0
  -26.2350  -15.6550   19.8440 H   0  0  0  0  0  0  0  0  0  0  0  0
  -27.5010  -20.8940   18.8130 N   0  0  0  0  0  0  0  0  0  0  0  0
  -26.6810  -21.0250   19.3990 H   0  0  0  0  0  0  0  0  0  0  0  0
  -28.1920  -22.1550   18.5730 C   0  0  0  0  0  2  0  0  0  0  0  0
  -27.9370  -23.1210   19.7350 C   0  0  0  0  0  2  0  0  0  0  0  0
  -28.3470  -24.5480   19.3890 C   0  0  0  0  0  2  0  0  0  0  0  0
  -28.2580  -25.4410   20.6270 C   0  0  0  0  0  2  0  0  0  0  0  0
  -28.4140  -26.8020   20.2570 O   0  0  0  0  0  0  0  0  0  0  0  0
  -24.5980  -31.9170   23.2710 C   0  0  0  0  0  0  0  0  0  0  0  0
  -27.2400  -27.5070   20.2110 C   0  0  0  0  0  0  0  0  0  0  0  0
  -23.3870  -30.5090   21.6350 C   0  0  0  0  0  3  0  0  0  0  0  0
  -24.8390  -28.9790   20.2160 C   0  0  0  0  0  0  0  0  0  0  0  0
  -25.9080  -30.8840   21.4300 C   0  0  0  0  0  2  0  0  0  0  0  0
  -25.9950  -29.5160   20.7980 C   0  0  0  0  0  0  0  0  0  0  0  0
  -27.2010  -28.7890   20.7910 C   0  0  0  0  0  3  0  0  0  0  0  0
  -26.0680  -26.9760   19.6230 C   0  0  0  0  0  3  0  0  0  0  0  0
  -24.8690  -27.7060   19.6270 C   0  0  0  0  0  3  0  0  0  0  0  0
  -23.5900  -29.8240   20.2580 C   0  0  0  0  0  2  0  0  0  0  0  0
  -24.6480  -31.1170   22.1700 N   0  0  0  0  0  0  0  0  0  0  0  0
  -23.5170  -32.1910   23.8110 O   0  0  0  0  0  0  0  0  0  0  0  0
  -22.7420  -29.4880   22.5980 C   0  0  0  0  0  0  0  0  0  0  0  0
  -21.4180  -29.3060   22.4720 N   0  0  0  0  0  0  0  0  0  0  0  0
  -23.4270  -28.8610   23.4110 O   0  0  0  0  0  0  0  0  0  0  0  0
  -20.9250  -29.8690   21.7920 H   0  0  0  0  0  0  0  0  0  0  0  0
  -18.0420  -28.1280   22.9680 C   0  0  0  0  0  0  0  0  0  0  0  0
  -20.5990  -28.3740   23.2460 C   0  0  0  0  0  3  0  0  0  0  0  0
  -20.6990  -26.9400   22.6750 C   0  0  0  0  0  2  0  0  0  0  0  0
  -19.5970  -26.6170   21.6610 C   0  0  0  0  0  2  0  0  0  0  0  0
  -18.2130  -26.7750   22.2980 C   0  0  0  0  0  2  0  0  0  0  0  0
  -19.1630  -28.8870   23.3970 C   0  0  0  0  0  0  0  0  0  0  0  0
  -18.9490  -30.1570   23.9730 C   0  0  0  0  0  3  0  0  0  0  0  0
  -17.6470  -30.6650   24.1350 C   0  0  0  0  0  3  0  0  0  0  0  0
  -16.5410  -29.9020   23.7250 C   0  0  0  0  0  3  0  0  0  0  0  0
  -16.7390  -28.6360   23.1470 C   0  0  0  0  0  3  0  0  0  0  0  0
  -25.8850  -32.5480   23.8850 C   0  0  0  0  0  3  0  0  0  0  0  0
  -25.5790  -33.9470   24.2100 N   0  0  0  0  0  0  0  0  0  0  0  0
  -25.9100  -34.9940   23.4420 C   0  0  0  0  0  0  0  0  0  0  0  0
  -26.5790  -34.8850   22.4090 O   0  0  0  0  0  0  0  0  0  0  0  0
  -24.9860  -34.1070   25.0090 H   0  0  0  0  0  0  0  0  0  0  0  0
  -24.1730  -36.7770   23.0760 C   0  0  0  0  0  1  0  0  0  0  0  0
  -25.4190  -36.3830   23.8880 C   0  0  0  0  0  3  0  0  0  0  0  0
  -27.5640  -37.2680   24.6920 C   0  0  0  0  0  1  0  0  0  0  0  0
  -26.4450  -37.4440   23.7710 N   0  0  0  0  0  0  0  0  0  0  0  0
  -26.0360  -38.3570   23.9450 H   0  0  0  0  0  0  0  0  0  0  0  0
  -26.4090  -31.7760   25.1580 C   0  0  1  0  0  0  0  0  0  0  0  0
  -25.3180  -31.5220   26.2240 C   0  0  0  0  0  1  0  0  0  0  0  0
  -27.0040  -30.4050   24.7580 C   0  0  0  0  0  1  0  0  0  0  0  0
  -27.5530  -32.5750   25.8220 C   0  0  0  0  0  1  0  0  0  0  0  0
  1  4  1  0
  2  5  1  0
  2  1  1  0
  3  6  1  0
  4 17  1  0
  4  6  1  0
  5 49  1  0
  5  3  1  0
  6  7  1  0
  8  6  1  0
  9 18  1  0
 10 15  1  0
 11 12  1  0
 11 10  1  0
 13 12  1  0
 13 24  1  0
 13 14  1  0
 15  9  1  0
 15 14  1  0
 16  9  2  0
 17 19  2  0
 18 17  1  0
 18 20  1  0
 21 22  2  0
 22 41  1  0
 23 22  1  0
 23 26  1  0
 24 21  1  0
 24 25  1  0
 25 23  2  0
 26 27  1  0
 27 28  2  0
 29 32  1  0
 29 28  1  0
 30 29  2  0
 31 30  1  0
 31 26  2  0
 32 33  1  0
 33 34  1  0
 34 35  2  0
 36 35  1  0
 36 40  1  0
 37 36  2  0
 38 33  2  0
 38 37  1  0
 39 38  1  0
 41 42  1  0
 42 45  1  0
 42 44  1  0
 43 41  2  0
 46 47  1  0
 46 21  1  0
 48 46  1  0
 49 50  1  0
 51 49  1  0
 51 52  1  0
 53 52  1  0
 53 54  1  0
 55 54  1  0
 56 67  2  0
 57 55  1  0
 57 62  1  0
 58 66  1  0
 58 68  1  0
 59 65  1  0
 59 61  1  0
 60 66  1  0
 61 60  1  0
 62 61  2  0
 63 64  1  0
 63 57  2  0
 64 59  2  0
 65 58  1  0
 66 56  1  0
 68 70  2  0
 69 68  1  0
 71 69  1  0
 72 81  2  0
 72 77  1  0
 73 69  1  0
 73 77  1  0
 74 73  1  0
 75 76  1  0
 75 74  1  0
 76 72  1  0
 77 78  2  0
 78 79  1  0
 80 79  2  0
 81 80  1  0
 82 56  1  0
 82 83  1  0
 82 92  1  0
 83 86  1  0
 84 88  1  0
 84 83  1  0
 85 84  2  0
 88 87  1  0
 90 88  1  0
 90 91  1  0
 90 89  1  0
 92 95  1  1
 92 93  1  0
 94 92  1  0
M  ISO  4   9 100  18 100  54 101  55 101
M  END
>  <TORSDO>  (6) 
F 21

>  <SCORE>  (6) 
-13.973

>  <name>  (6) 
5

>  <ligand_id>  (6) 
5

>  <original_smiles>  (6) 
[H]c1c([H])c([H])c2c(c1[H])C([H])([H])C([H])([H])C([H])([H])C2([H])N([H])C(=O)C1([H])N(C(=O)C([H])(N([H])C(=O)C([H])(N([H])C([H])([H])[H])C([H])([H])[H])C(C([H])([H])[H])(C([H])([H])[H])C([H])([H])[H])C([H])([H])c2c([H])c(OC([H])([H])C([H])([H])C([H])([H])C([H])([H])N([H])C3([H])C([H])([H])C([H])([H])C([H])(C(=O)N([H])C(=O)N4C([H])([H])C([H])([H])C([H])([H])C([H])(n5nc(-c6c([H])c([H])c(Oc7c([H])c([H])c(F)c([H])c7F)c([H])c6[H])c(C(=O)N([H])[H])c5N([H])[H])C4([H])[H])[N+]([H])([H])C3([H])[H])c([H])c([H])c2C1([H])[H]

>  <smiles>  (6) 
[H]c1c([H])c([H])c2c(c1[H])C([H])([H])C([H])([H])C([H])([H])C2([H])N([H])C(=O)C1([H])N(C(=O)C([H])(N([H])C(=O)C([H])(N([H])C([H])([H])[H])C([H])([H])[H])C(C([H])([H])[H])(C([H])([H])[H])C([H])([H])[H])C([H])([H])c2c([H])c(OC([H])([H])C([H])([H])C([H])([H])C([H])([H])N([H])C3([H])C([H])([H])C([H])([H])C([H])(C(=O)N([H])C(=O)N4C([H])([H])C([H])([H])C([H])([H])C([H])(n5nc(-c6c([H])c([H])c(Oc7c([H])c([H])c(F)c([H])c7F)c([H])c6[H])c(C(=O)N([H])[H])c5N([H])[H])C4([H])[H])[N+]([H])([H])C3([H])[H])c([H])c([H])c2C1([H])[H]

$$$$
6:0:0
     RDKit          3D

 91 99  0  0  1  0  0  0  0  0999 V2000
  -30.3560  -17.9060   21.4830 C   0  0  0  0  0  0  0  0  0  0  0  0
  -29.7220  -20.2550   20.5700 C   0  0  0  0  0  0  0  0  0  0  0  0
  -30.8340  -19.3080   21.0580 C   0  0  0  0  0  2  0  0  0  0  0  0
  -28.6810  -17.4320   19.7130 C   0  0  0  0  0  2  0  0  0  0  0  0
  -28.8450  -18.7470   18.9140 C   0  0  0  0  0  2  0  0  0  0  0  0
  -29.9980  -16.9330   20.3470 C   0  0  0  0  0  3  0  0  0  0  0  0
  -28.8170  -19.9690   19.7100 N   0  0  0  0  0  0  0  0  0  0  0  0
  -30.2710  -17.6070   22.6780 O   0  0  0  0  0  0  0  0  0  0  0  0
  -30.6220  -14.4970   20.4600 C   0  0  0  0  0  0  0  0  0  0  0  0
  -30.3510  -12.3250   19.3330 C   0  0  0  0  0  2  0  0  0  0  0  0
  -29.4120  -12.5440   18.1270 C   0  0  0  0  0  2  0  0  0  0  0  0
  -27.9320  -12.4180   18.5490 C   0  0  0  0  0  2  0  0  0  0  0  0
  -27.5990  -13.2450   19.8200 C   0  0  0  0  0  3  0  0  0  0  0  0
  -28.6520  -13.0060   20.9300 C   0  0  0  0  0  2  0  0  0  0  0  0
  -29.9800  -13.3030   20.3680 N   0  0  0  0  0  0  0  0  0  0  0  0
  -31.7650  -14.6780   20.0260 O   0  0  0  0  0  0  0  0  0  0  0  0
  -29.8320  -15.5330   20.8030 N   0  0  0  0  0  0  0  0  0  0  0  0
  -28.9440  -15.2950   21.2160 H   0  0  0  0  0  0  0  0  0  0  0  0
  -25.2080  -13.8820   20.5290 C   0  0  0  0  0  0  0  0  0  0  0  0
  -24.1290  -13.1210   20.8930 C   0  0  0  0  0  0  0  0  0  0  0  0
  -24.5770  -11.7660   20.8640 C   0  0  0  0  0  0  0  0  0  0  0  0
  -26.2420  -12.9880   20.2950 N   0  0  0  0  0  0  0  0  0  0  0  0
  -25.8660  -11.7110   20.5560 N   0  0  0  0  0  0  0  0  0  0  0  0
  -23.8400  -10.5110   21.0570 C   0  0  0  0  0  0  0  0  0  0  0  0
  -24.2730   -9.5330   21.9810 C   0  0  0  0  0  3  0  0  0  0  0  0
  -23.5350   -8.3440   22.1630 C   0  0  0  0  0  3  0  0  0  0  0  0
  -22.3510   -8.1230   21.4200 C   0  0  0  0  0  0  0  0  0  0  0  0
  -21.9360   -9.0900   20.4860 C   0  0  0  0  0  3  0  0  0  0  0  0
  -22.6750  -10.2690   20.3020 C   0  0  0  0  0  3  0  0  0  0  0  0
  -21.5880   -6.9840   21.5080 O   0  0  0  0  0  0  0  0  0  0  0  0
  -21.5510   -6.2290   22.6530 C   0  0  0  0  0  0  0  0  0  0  0  0
  -21.1600   -6.7790   23.8930 C   0  0  0  0  0  3  0  0  0  0  0  0
  -21.0680   -5.9530   25.0320 C   0  0  0  0  0  3  0  0  0  0  0  0
  -21.3620   -4.5790   24.9310 C   0  0  0  0  0  0  0  0  0  0  0  0
  -21.7480   -4.0300   23.6960 C   0  0  0  0  0  3  0  0  0  0  0  0
  -21.8400   -4.8530   22.5590 C   0  0  0  0  0  0  0  0  0  0  0  0
  -22.1940   -4.3160   21.3670 F   0  0  0  0  0  0  0  0  0  0  0  0
  -21.2660   -3.7840   26.0210 F   0  0  0  0  0  0  0  0  0  0  0  0
  -22.7370  -13.6150   21.1600 C   0  0  0  0  0  0  0  0  0  0  0  0
  -21.9980  -12.9320   22.0300 N   0  0  0  0  0  0  0  0  0  0  0  0
  -22.3110  -14.6440   20.6370 O   0  0  0  0  0  0  0  0  0  0  0  0
  -22.3470  -12.0980   22.4770 H   0  0  0  0  0  0  0  0  0  0  0  0
  -21.0650  -13.2510   22.2480 H   0  0  0  0  0  0  0  0  0  0  0  0
  -25.3940  -15.2510   20.3650 N   0  0  0  0  0  0  0  0  0  0  0  0
  -24.6530  -15.9230   20.5370 H   0  0  0  0  0  0  0  0  0  0  0  0
  -26.2690  -15.6880   20.1100 H   0  0  0  0  0  0  0  0  0  0  0  0
  -29.8190  -21.6840   21.1520 C   0  0  0  0  0  3  0  0  0  0  0  0
  -28.8580  -22.7460   20.5290 C   0  0  0  0  0  3  0  0  0  0  0  0
  -29.1910  -24.2410   20.8190 C   0  0  0  0  0  2  0  0  0  0  0  0
  -28.1280  -25.1860   20.2050 C   0  0  0  0  0  2  0  0  0  0  0  0
  -28.3620  -26.6100   20.3230 O   0  0  0  0  0  0  0  0  0  0  0  0
  -24.6060  -31.9150   23.2480 C   0  0  0  0  0  0  0  0  0  0  0  0
  -27.2300  -27.4100   20.2280 C   0  0  0  0  0  0  0  0  0  0  0  0
  -23.4060  -30.5140   21.6020 C   0  0  0  0  0  3  0  0  0  0  0  0
  -24.8610  -28.9710   20.1900 C   0  0  0  0  0  0  0  0  0  0  0  0
  -25.9370  -30.8510   21.4230 C   0  0  0  0  0  2  0  0  0  0  0  0
  -26.0200  -29.4750   20.7910 C   0  0  0  0  0  0  0  0  0  0  0  0
  -27.2090  -28.7040   20.8070 C   0  0  0  0  0  3  0  0  0  0  0  0
  -26.0540  -26.9460   19.5880 C   0  0  0  0  0  3  0  0  0  0  0  0
  -24.8760  -27.7080   19.5800 C   0  0  0  0  0  3  0  0  0  0  0  0
  -23.6220  -29.8370   20.2250 C   0  0  0  0  0  2  0  0  0  0  0  0
  -24.6690  -31.1070   22.1500 N   0  0  0  0  0  0  0  0  0  0  0  0
  -23.5210  -32.1960   23.7760 O   0  0  0  0  0  0  0  0  0  0  0  0
  -22.7410  -29.4990   22.5600 C   0  0  0  0  0  0  0  0  0  0  0  0
  -21.4130  -29.3350   22.4340 N   0  0  0  0  0  0  0  0  0  0  0  0
  -23.4150  -28.8610   23.3740 O   0  0  0  0  0  0  0  0  0  0  0  0
  -20.9300  -29.9030   21.7520 H   0  0  0  0  0  0  0  0  0  0  0  0
  -18.0190  -28.2030   22.9450 C   0  0  0  0  0  0  0  0  0  0  0  0
  -20.5830  -28.4090   23.2040 C   0  0  0  0  0  3  0  0  0  0  0  0
  -20.6540  -26.9790   22.6190 C   0  0  0  0  0  2  0  0  0  0  0  0
  -19.5400  -26.6830   21.6090 C   0  0  0  0  0  2  0  0  0  0  0  0
  -18.1660  -26.8530   22.2630 C   0  0  0  0  0  2  0  0  0  0  0  0
  -19.1550  -28.9400   23.3720 C   0  0  0  0  0  0  0  0  0  0  0  0
  -18.9630  -30.2040   23.9710 C   0  0  0  0  0  3  0  0  0  0  0  0
  -17.6700  -30.7300   24.1460 C   0  0  0  0  0  3  0  0  0  0  0  0
  -16.5490  -29.9900   23.7330 C   0  0  0  0  0  3  0  0  0  0  0  0
  -16.7240  -28.7280   23.1390 C   0  0  0  0  0  3  0  0  0  0  0  0
  -25.8910  -32.5410   23.8730 C   0  0  0  0  0  3  0  0  0  0  0  0
  -26.4040  -31.7640   25.1470 C   0  0  1  0  0  0  0  0  0  0  0  0
  -25.3100  -31.5290   26.2150 C   0  0  0  0  0  1  0  0  0  0  0  0
  -26.9800  -30.3860   24.7500 C   0  0  0  0  0  1  0  0  0  0  0  0
  -27.5590  -32.5500   25.8130 C   0  0  0  0  0  1  0  0  0  0  0  0
  -25.5860  -33.9390   24.2060 N   0  0  0  0  0  0  0  0  0  0  0  0
  -25.9090  -34.9900   23.4400 C   0  0  0  0  0  0  0  0  0  0  0  0
  -26.5690  -34.8850   22.4020 O   0  0  0  0  0  0  0  0  0  0  0  0
  -25.0020  -34.0950   25.0150 H   0  0  0  0  0  0  0  0  0  0  0  0
  -24.1700  -36.7740   23.1010 C   0  0  0  0  0  1  0  0  0  0  0  0
  -25.4240  -36.3790   23.8970 C   0  0  0  0  0  3  0  0  0  0  0  0
  -27.5690  -37.2720   24.6900 C   0  0  0  0  0  1  0  0  0  0  0  0
  -26.4500  -37.4350   23.7650 N   0  0  0  0  0  0  0  0  0  0  0  0
  -26.0430  -38.3540   23.9190 H   0  0  0  0  0  0  0  0  0  0  0  0
  1  8  2  0
  2  3  1  0
  2 47  1  0
  3  1  1  0
  4  6  1  0
  5  7  1  0
  5  4  1  0
  6 17  1  0
  6  1  1  0
  7  2  2  0
  9 17  1  0
 10 15  1  0
 11 12  1  0
 11 10  1  0
 13 12  1  0
 13 22  1  0
 13 14  1  0
 15  9  1  0
 15 14  1  0
 16  9  2  0
 17 18  1  0
 19 20  2  0
 20 39  1  0
 21 20  1  0
 21 24  1  0
 22 19  1  0
 22 23  1  0
 23 21  2  0
 24 25  1  0
 25 26  2  0
 27 30  1  0
 27 26  1  0
 28 27  2  0
 29 28  1  0
 29 24  2  0
 30 31  1  0
 31 32  1  0
 32 33  2  0
 34 33  1  0
 34 38  1  0
 35 34  2  0
 36 31  2  0
 36 35  1  0
 37 36  1  0
 39 40  1  0
 40 43  1  0
 40 42  1  0
 41 39  2  0
 44 19  1  0
 44 45  1  0
 46 44  1  0
 48 49  1  0
 48 47  2  0
 50 51  1  0
 50 49  1  0
 52 63  2  0
 53 51  1  0
 53 58  1  0
 54 62  1  0
 54 64  1  0
 55 61  1  0
 55 57  1  0
 56 62  1  0
 57 58  2  0
 57 56  1  0
 59 53  2  0
 60 59  1  0
 60 55  2  0
 61 54  1  0
 62 52  1  0
 64 66  2  0
 65 64  1  0
 67 65  1  0
 68 77  2  0
 68 73  1  0
 69 65  1  0
 69 73  1  0
 70 69  1  0
 71 72  1  0
 71 70  1  0
 72 68  1  0
 73 74  2  0
 74 75  1  0
 76 75  2  0
 77 76  1  0
 78 52  1  0
 78 83  1  0
 78 79  1  0
 79 82  1  1
 79 80  1  0
 81 79  1  0
 83 86  1  0
 84 88  1  0
 84 83  1  0
 85 84  2  0
 88 87  1  0
 90 88  1  0
 90 91  1  0
 90 89  1  0
M  ISO  4   9 100  17 100  50 101  51 101
M  END
>  <TORSDO>  (7) 
F 20

>  <SCORE>  (7) 
-13.949

>  <name>  (7) 
6

>  <ligand_id>  (7) 
6

>  <original_smiles>  (7) 
[H]c1c([H])c([H])c2c(c1[H])C([H])([H])C([H])([H])C([H])([H])C2([H])N([H])C(=O)C1([H])N(C(=O)C([H])(N([H])C(=O)C([H])(N([H])C([H])([H])[H])C([H])([H])[H])C(C([H])([H])[H])(C([H])([H])[H])C([H])([H])[H])C([H])([H])c2c([H])c(OC([H])([H])C([H])([H])C([H])([H])C([H])([H])C3=NC([H])([H])C([H])([H])C([H])(N([H])C(=O)N4C([H])([H])C([H])([H])C([H])([H])C([H])(n5nc(-c6c([H])c([H])c(Oc7c([H])c([H])c(F)c([H])c7F)c([H])c6[H])c(C(=O)N([H])[H])c5N([H])[H])C4([H])[H])C(=O)C3([H])[H])c([H])c([H])c2C1([H])[H]

>  <smiles>  (7) 
[H]c1c([H])c([H])c2c(c1[H])C([H])([H])C([H])([H])C([H])([H])C2([H])N([H])C(=O)C1([H])N(C(=O)C([H])(N([H])C(=O)C([H])(N([H])C([H])([H])[H])C([H])([H])[H])C(C([H])([H])[H])(C([H])([H])[H])C([H])([H])[H])C([H])([H])c2c([H])c(OC([H])([H])C([H])([H])C([H])([H])C([H])([H])C3=NC([H])([H])C([H])([H])C([H])(N([H])C(=O)N4C([H])([H])C([H])([H])C([H])([H])C([H])(n5nc(-c6c([H])c([H])c(Oc7c([H])c([H])c(F)c([H])c7F)c([H])c6[H])c(C(=O)N([H])[H])c5N([H])[H])C4([H])[H])C(=O)C3([H])[H])c([H])c([H])c2C1([H])[H]

$$$$
7:0:0
     RDKit          3D

 96104  0  0  1  0  0  0  0  0999 V2000
  -29.9370  -20.2140   21.3300 N   0  0  0  0  0  4  0  0  0  0  0  0
  -30.7080  -20.3000   20.6860 H   0  0  0  0  0  0  0  0  0  0  0  0
  -30.3150  -20.1450   22.2610 H   0  0  0  0  0  0  0  0  0  0  0  0
  -29.1890  -18.9680   21.0310 C   0  0  0  0  0  2  0  0  0  0  0  0
  -30.2830  -14.5040   19.6490 C   0  0  0  0  0  0  0  0  0  0  0  0
  -29.6590  -12.5810   18.2240 C   0  0  0  0  0  2  0  0  0  0  0  0
  -28.5290  -12.9440   17.2420 C   0  0  0  0  0  2  0  0  0  0  0  0
  -27.1510  -12.7530   17.9030 C   0  0  0  0  0  2  0  0  0  0  0  0
  -27.0610  -13.4420   19.2900 C   0  0  0  0  0  3  0  0  0  0  0  0
  -28.2760  -13.0660   20.1670 C   0  0  0  0  0  2  0  0  0  0  0  0
  -29.5070  -13.4090   19.4300 N   0  0  0  0  0  0  0  0  0  0  0  0
  -31.2050  -14.8540   18.9030 O   0  0  0  0  0  0  0  0  0  0  0  0
  -30.9090  -17.5170   22.2980 C   0  0  0  0  0  2  0  0  0  0  0  0
  -29.2160  -16.4190   20.7810 C   0  0  0  0  0  2  0  0  0  0  0  0
  -30.8240  -14.9900   21.9990 C   0  0  0  0  0  2  0  0  0  0  0  0
  -30.0750  -17.6920   21.0060 C   0  0  0  0  0  3  0  0  0  0  0  0
  -31.7280  -16.2070   22.3130 C   0  0  0  0  0  3  0  0  0  0  0  0
  -30.0230  -15.1880   20.7840 N   0  0  0  0  0  0  0  0  0  0  0  0
  -24.8150  -14.0010   20.4190 C   0  0  0  0  0  0  0  0  0  0  0  0
  -23.8100  -13.2060   20.9050 C   0  0  0  0  0  0  0  0  0  0  0  0
  -24.2430  -11.8590   20.7020 C   0  0  0  0  0  0  0  0  0  0  0  0
  -25.7980  -13.1370   19.9580 N   0  0  0  0  0  0  0  0  0  0  0  0
  -25.4640  -11.8390   20.1820 N   0  0  0  0  0  0  0  0  0  0  0  0
  -23.5420  -10.5880   20.9230 C   0  0  0  0  0  0  0  0  0  0  0  0
  -24.1010   -9.5690   21.7260 C   0  0  0  0  0  3  0  0  0  0  0  0
  -23.4040   -8.3610   21.9370 C   0  0  0  0  0  3  0  0  0  0  0  0
  -22.1330   -8.1620   21.3480 C   0  0  0  0  0  0  0  0  0  0  0  0
  -21.5910   -9.1700   20.5310 C   0  0  0  0  0  3  0  0  0  0  0  0
  -22.2880  -10.3710   20.3170 C   0  0  0  0  0  3  0  0  0  0  0  0
  -21.3930   -7.0100   21.4750 O   0  0  0  0  0  0  0  0  0  0  0  0
  -21.5060   -6.2020   22.5780 C   0  0  0  0  0  0  0  0  0  0  0  0
  -21.2890   -6.6900   23.8860 C   0  0  0  0  0  3  0  0  0  0  0  0
  -21.3440   -5.8090   24.9830 C   0  0  0  0  0  3  0  0  0  0  0  0
  -21.6060   -4.4420   24.7790 C   0  0  0  0  0  0  0  0  0  0  0  0
  -21.8170   -3.9530   23.4770 C   0  0  0  0  0  3  0  0  0  0  0  0
  -21.7650   -4.8310   22.3800 C   0  0  0  0  0  0  0  0  0  0  0  0
  -21.9470   -4.3500   21.1270 F   0  0  0  0  0  0  0  0  0  0  0  0
  -21.6530   -3.5930   25.8330 F   0  0  0  0  0  0  0  0  0  0  0  0
  -22.4840  -13.6650   21.4370 C   0  0  0  0  0  0  0  0  0  0  0  0
  -21.9090  -12.9220   22.3760 N   0  0  0  0  0  0  0  0  0  0  0  0
  -21.9710  -14.7170   21.0570 O   0  0  0  0  0  0  0  0  0  0  0  0
  -22.3370  -12.0710   22.7070 H   0  0  0  0  0  0  0  0  0  0  0  0
  -21.0250  -13.2100   22.7720 H   0  0  0  0  0  0  0  0  0  0  0  0
  -24.9650  -15.3820   20.3140 N   0  0  0  0  0  0  0  0  0  0  0  0
  -24.2240  -16.0240   20.5750 H   0  0  0  0  0  0  0  0  0  0  0  0
  -25.7510  -15.8420   19.8730 H   0  0  0  0  0  0  0  0  0  0  0  0
  -32.9030  -16.2880   21.4220 N   0  0  0  0  0  4  0  0  0  0  0  0
  -32.6490  -16.2520   20.4500 H   0  0  0  0  0  0  0  0  0  0  0  0
  -33.5360  -15.5290   21.6100 H   0  0  0  0  0  0  0  0  0  0  0  0
  -33.4120  -17.1360   21.5930 H   0  0  0  0  0  0  0  0  0  0  0  0
  -29.1190  -21.4510   21.2580 C   0  0  0  0  0  2  0  0  0  0  0  0
  -29.9400  -22.7240   21.5560 C   0  0  0  0  0  2  0  0  0  0  0  0
  -29.1190  -24.0280   21.4580 C   0  0  0  0  0  2  0  0  0  0  0  0
  -30.0000  -25.2940   21.4810 C   0  0  0  0  0  2  0  0  0  0  0  0
  -29.2180  -26.6200   21.3850 C   0  0  0  0  0  2  0  0  0  0  0  0
  -28.5340  -26.7020   20.1370 O   0  0  0  0  0  0  0  0  0  0  0  0
  -24.5070  -31.7560   23.1760 C   0  0  0  0  0  0  0  0  0  0  0  0
  -27.3750  -27.4410   20.1440 C   0  0  0  0  0  0  0  0  0  0  0  0
  -23.3850  -30.3220   21.4990 C   0  0  0  0  0  3  0  0  0  0  0  0
  -24.9240  -28.8450   20.0990 C   0  0  0  0  0  0  0  0  0  0  0  0
  -25.8950  -30.7760   21.3560 C   0  0  0  0  0  2  0  0  0  0  0  0
  -26.0440  -29.4100   20.7210 C   0  0  0  0  0  0  0  0  0  0  0  0
  -27.2700  -28.7140   20.7520 C   0  0  0  0  0  3  0  0  0  0  0  0
  -26.2470  -26.8920   19.5040 C   0  0  0  0  0  3  0  0  0  0  0  0
  -25.0180  -27.5820   19.4870 C   0  0  0  0  0  3  0  0  0  0  0  0
  -23.6480  -29.6560   20.1210 C   0  0  0  0  0  2  0  0  0  0  0  0
  -24.6130  -30.9660   22.0710 N   0  0  0  0  0  0  0  0  0  0  0  0
  -23.4060  -31.9890   23.6940 O   0  0  0  0  0  0  0  0  0  0  0  0
  -22.7470  -29.2770   22.4410 C   0  0  0  0  0  0  0  0  0  0  0  0
  -21.4310  -29.0580   22.2880 N   0  0  0  0  0  0  0  0  0  0  0  0
  -23.4350  -28.6630   23.2610 O   0  0  0  0  0  0  0  0  0  0  0  0
  -20.9370  -29.6090   21.5990 H   0  0  0  0  0  0  0  0  0  0  0  0
  -18.0800  -27.7840   22.7260 C   0  0  0  0  0  0  0  0  0  0  0  0
  -20.6280  -28.0920   23.0340 C   0  0  0  0  0  3  0  0  0  0  0  0
  -20.7680  -26.6720   22.4390 C   0  0  0  0  0  2  0  0  0  0  0  0
  -19.6860  -26.3390   21.4060 C   0  0  0  0  0  2  0  0  0  0  0  0
  -18.2930  -26.4470   22.0340 C   0  0  0  0  0  2  0  0  0  0  0  0
  -19.1760  -28.5620   23.1810 C   0  0  0  0  0  0  0  0  0  0  0  0
  -18.9240  -29.8130   23.7850 C   0  0  0  0  0  3  0  0  0  0  0  0
  -17.6070  -30.2870   23.9400 C   0  0  0  0  0  3  0  0  0  0  0  0
  -16.5240  -29.5040   23.5020 C   0  0  0  0  0  3  0  0  0  0  0  0
  -16.7620  -28.2550   22.9010 C   0  0  0  0  0  3  0  0  0  0  0  0
  -25.7590  -32.4230   23.8290 C   0  0  0  0  0  3  0  0  0  0  0  0
  -25.3970  -33.8040   24.1690 N   0  0  0  0  0  0  0  0  0  0  0  0
  -25.6990  -34.8750   23.4230 C   0  0  0  0  0  0  0  0  0  0  0  0
  -26.3850  -34.8080   22.3990 O   0  0  0  0  0  0  0  0  0  0  0  0
  -24.7870  -33.9290   24.9630 H   0  0  0  0  0  0  0  0  0  0  0  0
  -23.9050  -36.6000   23.0650 C   0  0  0  0  0  1  0  0  0  0  0  0
  -25.1530  -36.2390   23.8850 C   0  0  0  0  0  3  0  0  0  0  0  0
  -27.2490  -37.1920   24.7350 C   0  0  0  0  0  1  0  0  0  0  0  0
  -26.1420  -37.3340   23.7930 N   0  0  0  0  0  0  0  0  0  0  0  0
  -25.6990  -38.2330   23.9580 H   0  0  0  0  0  0  0  0  0  0  0  0
  -26.2840  -31.6510   25.1020 C   0  0  1  0  0  0  0  0  0  0  0  0
  -25.1840  -31.3560   26.1470 C   0  0  0  0  0  1  0  0  0  0  0  0
  -26.9260  -30.3030   24.6950 C   0  0  0  0  0  1  0  0  0  0  0  0
  -27.3920  -32.4770   25.7970 C   0  0  0  0  0  1  0  0  0  0  0  0
  1  3  1  0
  2  1  1  0
  4  1  1  0
  5 18  1  0
  6 11  1  0
  7  8  1  0
  7  6  1  0
  9  8  1  0
  9 22  1  0
  9 10  1  0
 11  5  1  0
 11 10  1  0
 12  5  2  0
 13 17  1  0
 14 18  1  0
 14 16  1  0
 15 17  1  0
 16  4  1  0
 16 13  1  0
 17 47  1  0
 18 15  1  0
 19 20  2  0
 20 39  1  0
 21 20  1  0
 21 24  1  0
 22 23  1  0
 22 19  1  0
 23 21  2  0
 24 25  1  0
 25 26  2  0
 27 30  1  0
 27 26  1  0
 28 27  2  0
 29 28  1  0
 29 24  2  0
 30 31  1  0
 31 32  1  0
 32 33  2  0
 34 33  1  0
 34 38  1  0
 35 34  2  0
 36 31  2  0
 36 35  1  0
 37 36  1  0
 39 40  1  0
 40 42  1  0
 40 43  1  0
 41 39  2  0
 44 19  1  0
 44 45  1  0
 46 44  1  0
 47 50  1  0
 47 49  1  0
 48 47  1  0
 51  1  1  0
 51 52  1  0
 53 54  1  0
 53 52  1  0
 55 54  1  0
 56 58  1  0
 56 55  1  0
 57 68  2  0
 58 63  1  0
 59 67  1  0
 59 69  1  0
 60 66  1  0
 60 62  1  0
 61 67  1  0
 62 63  2  0
 62 61  1  0
 64 58  2  0
 65 64  1  0
 65 60  2  0
 66 59  1  0
 67 57  1  0
 69 71  2  0
 70 69  1  0
 72 70  1  0
 73 82  2  0
 73 78  1  0
 74 70  1  0
 74 78  1  0
 75 74  1  0
 76 77  1  0
 76 75  1  0
 77 73  1  0
 78 79  2  0
 79 80  1  0
 81 80  2  0
 82 81  1  0
 83 57  1  0
 83 84  1  0
 83 93  1  0
 84 87  1  0
 85 89  1  0
 85 84  1  0
 86 85  2  0
 89 88  1  0
 91 89  1  0
 91 92  1  0
 91 90  1  0
 93 96  1  1
 93 94  1  0
 95 93  1  0
M  ISO  4   5 100  18 100  55 101  56 101
M  END
>  <TORSDO>  (8) 
F 23

>  <SCORE>  (8) 
-8.081

>  <name>  (8) 
7

>  <ligand_id>  (8) 
7

>  <original_smiles>  (8) 
[H]c1c([H])c([H])c2c(c1[H])C([H])([H])C([H])([H])C([H])([H])C2([H])N([H])C(=O)C1([H])N(C(=O)C([H])(N([H])C(=O)C([H])(N([H])C([H])([H])[H])C([H])([H])[H])C(C([H])([H])[H])(C([H])([H])[H])C([H])([H])[H])C([H])([H])c2c([H])c(OC([H])([H])C([H])([H])C([H])([H])C([H])([H])C([H])([H])[N+]([H])([H])C([H])([H])C3([H])C([H])([H])N(C(=O)N4C([H])([H])C([H])([H])C([H])([H])C([H])(n5nc(-c6c([H])c([H])c(Oc7c([H])c([H])c(F)c([H])c7F)c([H])c6[H])c(C(=O)N([H])[H])c5N([H])[H])C4([H])[H])C([H])([H])C([H])([N+]([H])([H])[H])C3([H])[H])c([H])c([H])c2C1([H])[H]

>  <smiles>  (8) 
[H]c1c([H])c([H])c2c(c1[H])C([H])([H])C([H])([H])C([H])([H])C2([H])N([H])C(=O)C1([H])N(C(=O)C([H])(N([H])C(=O)C([H])(N([H])C([H])([H])[H])C([H])([H])[H])C(C([H])([H])[H])(C([H])([H])[H])C([H])([H])[H])C([H])([H])c2c([H])c(OC([H])([H])C([H])([H])C([H])([H])C([H])([H])C([H])([H])[N+]([H])([H])C([H])([H])C3([H])C([H])([H])N(C(=O)N4C([H])([H])C([H])([H])C([H])([H])C([H])(n5nc(-c6c([H])c([H])c(Oc7c([H])c([H])c(F)c([H])c7F)c([H])c6[H])c(C(=O)N([H])[H])c5N([H])[H])C4([H])[H])C([H])([H])C([H])([N+]([H])([H])[H])C3([H])[H])c([H])c([H])c2C1([H])[H]

$$$$
8:0:0
     RDKit          3D

 91 99  0  0  1  0  0  0  0  0999 V2000
  -31.2730  -21.2550   21.6340 C   0  0  0  0  0  3  0  0  0  0  0  0
  -30.4260  -22.2360   21.0830 C   0  0  0  0  0  3  0  0  0  0  0  0
  -30.9500  -19.8860   21.5290 C   0  0  0  0  0  3  0  0  0  0  0  0
  -28.9400  -20.4730   20.2950 C   0  0  0  0  0  3  0  0  0  0  0  0
  -29.2400  -21.8560   20.4130 C   0  0  0  0  0  0  0  0  0  0  0  0
  -29.7790  -19.4740   20.8510 C   0  0  0  0  0  0  0  0  0  0  0  0
  -28.2410  -22.8870   19.8530 C   0  0  0  0  0  2  0  0  0  0  0  0
  -28.7300  -24.3360   19.6450 C   0  0  0  0  0  0  0  0  0  0  0  0
  -29.4450  -24.6360   18.6820 O   0  0  0  0  0  0  0  0  0  0  0  0
  -28.2860  -25.3910   20.6760 C   0  0  0  0  0  2  0  0  0  0  0  0
  -28.4060  -26.7330   20.1700 O   0  0  0  0  0  0  0  0  0  0  0  0
  -24.5760  -31.8900   23.2340 C   0  0  0  0  0  0  0  0  0  0  0  0
  -27.2360  -27.4590   20.1630 C   0  0  0  0  0  0  0  0  0  0  0  0
  -23.3730  -30.4830   21.5930 C   0  0  0  0  0  3  0  0  0  0  0  0
  -24.8330  -28.9460   20.1730 C   0  0  0  0  0  0  0  0  0  0  0  0
  -25.8950  -30.8530   21.3900 C   0  0  0  0  0  2  0  0  0  0  0  0
  -25.9880  -29.4810   20.7560 C   0  0  0  0  0  0  0  0  0  0  0  0
  -27.1950  -28.7450   20.7480 C   0  0  0  0  0  3  0  0  0  0  0  0
  -26.0660  -26.9390   19.5690 C   0  0  0  0  0  3  0  0  0  0  0  0
  -24.8650  -27.6720   19.5760 C   0  0  0  0  0  3  0  0  0  0  0  0
  -23.5850  -29.7990   20.2160 C   0  0  0  0  0  2  0  0  0  0  0  0
  -24.6340  -31.0900   22.1320 N   0  0  0  0  0  0  0  0  0  0  0  0
  -23.4950  -32.1590   23.7760 O   0  0  0  0  0  0  0  0  0  0  0  0
  -22.7260  -29.4610   22.5550 C   0  0  0  0  0  0  0  0  0  0  0  0
  -21.4020  -29.2770   22.4300 N   0  0  0  0  0  0  0  0  0  0  0  0
  -23.4130  -28.8360   23.3670 O   0  0  0  0  0  0  0  0  0  0  0  0
  -20.9080  -29.8360   21.7470 H   0  0  0  0  0  0  0  0  0  0  0  0
  -18.0300  -28.0800   22.9260 C   0  0  0  0  0  0  0  0  0  0  0  0
  -20.5870  -28.3380   23.1990 C   0  0  0  0  0  3  0  0  0  0  0  0
  -20.6910  -26.9070   22.6230 C   0  0  0  0  0  2  0  0  0  0  0  0
  -19.5900  -26.5850   21.6070 C   0  0  0  0  0  2  0  0  0  0  0  0
  -18.2080  -26.7300   22.2510 C   0  0  0  0  0  2  0  0  0  0  0  0
  -19.1480  -28.8410   23.3570 C   0  0  0  0  0  0  0  0  0  0  0  0
  -18.9300  -30.1050   23.9470 C   0  0  0  0  0  3  0  0  0  0  0  0
  -17.6260  -30.6080   24.1110 C   0  0  0  0  0  3  0  0  0  0  0  0
  -16.5210  -29.8430   23.6970 C   0  0  0  0  0  3  0  0  0  0  0  0
  -16.7240  -28.5810   23.1110 C   0  0  0  0  0  3  0  0  0  0  0  0
  -25.8620  -32.5250   23.8530 C   0  0  0  0  0  3  0  0  0  0  0  0
  -25.5510  -33.9230   24.1800 N   0  0  0  0  0  0  0  0  0  0  0  0
  -25.8840  -34.9740   23.4190 C   0  0  0  0  0  0  0  0  0  0  0  0
  -26.5570  -34.8700   22.3890 O   0  0  0  0  0  0  0  0  0  0  0  0
  -24.9560  -34.0780   24.9800 H   0  0  0  0  0  0  0  0  0  0  0  0
  -24.1560  -36.7640   23.0530 C   0  0  0  0  0  1  0  0  0  0  0  0
  -25.3930  -36.3630   23.8730 C   0  0  0  0  0  3  0  0  0  0  0  0
  -27.5250  -37.2500   24.7070 C   0  0  0  0  0  1  0  0  0  0  0  0
  -26.4250  -37.4170   23.7610 N   0  0  0  0  0  0  0  0  0  0  0  0
  -26.0170  -38.3360   23.9070 H   0  0  0  0  0  0  0  0  0  0  0  0
  -26.3860  -31.7550   25.1270 C   0  0  1  0  0  0  0  0  0  0  0  0
  -25.3000  -31.5120   26.1990 C   0  0  0  0  0  1  0  0  0  0  0  0
  -26.9700  -30.3790   24.7260 C   0  0  0  0  0  1  0  0  0  0  0  0
  -27.5380  -32.5500   25.7850 C   0  0  0  0  0  1  0  0  0  0  0  0
  -29.3830  -17.9890   20.7280 C   0  0  0  0  0  2  0  0  0  0  0  0
  -30.4440  -16.9360   21.1680 C   0  0  0  0  0  2  0  0  0  0  0  0
  -30.6850  -14.5120   20.4960 C   0  0  0  0  0  0  0  0  0  0  0  0
  -30.3920  -12.3460   19.3480 C   0  0  0  0  0  2  0  0  0  0  0  0
  -29.4510  -12.5420   18.1420 C   0  0  0  0  0  2  0  0  0  0  0  0
  -27.9780  -12.3930   18.5730 C   0  0  0  0  0  2  0  0  0  0  0  0
  -27.6350  -13.2420   19.8270 C   0  0  0  0  0  3  0  0  0  0  0  0
  -28.6890  -13.0300   20.9380 C   0  0  0  0  0  2  0  0  0  0  0  0
  -30.0120  -13.3340   20.3710 N   0  0  0  0  0  0  0  0  0  0  0  0
  -31.8130  -14.6860   20.0320 O   0  0  0  0  0  0  0  0  0  0  0  0
  -29.9900  -15.5350   21.0360 N   0  0  0  0  0  0  0  0  0  0  0  0
  -29.0680  -15.3110   21.3800 H   0  0  0  0  0  0  0  0  0  0  0  0
  -25.2340  -13.8480   20.5310 C   0  0  0  0  0  0  0  0  0  0  0  0
  -24.1660  -13.0750   20.9000 C   0  0  0  0  0  0  0  0  0  0  0  0
  -24.6310  -11.7240   20.8740 C   0  0  0  0  0  0  0  0  0  0  0  0
  -26.2820  -12.9680   20.3050 N   0  0  0  0  0  0  0  0  0  0  0  0
  -25.9210  -11.6860   20.5700 N   0  0  0  0  0  0  0  0  0  0  0  0
  -23.9060  -10.4610   21.0650 C   0  0  0  0  0  0  0  0  0  0  0  0
  -24.3460   -9.4880   21.9890 C   0  0  0  0  0  3  0  0  0  0  0  0
  -23.6210   -8.2910   22.1690 C   0  0  0  0  0  3  0  0  0  0  0  0
  -22.4420   -8.0560   21.4230 C   0  0  0  0  0  0  0  0  0  0  0  0
  -22.0210   -9.0180   20.4860 C   0  0  0  0  0  3  0  0  0  0  0  0
  -22.7470  -10.2060   20.3050 C   0  0  0  0  0  3  0  0  0  0  0  0
  -21.6870   -6.9100   21.5110 O   0  0  0  0  0  0  0  0  0  0  0  0
  -21.6590   -6.1550   22.6560 C   0  0  0  0  0  0  0  0  0  0  0  0
  -21.2650   -6.6980   23.8980 C   0  0  0  0  0  3  0  0  0  0  0  0
  -21.1820   -5.8690   25.0350 C   0  0  0  0  0  3  0  0  0  0  0  0
  -21.4840   -4.4980   24.9300 C   0  0  0  0  0  0  0  0  0  0  0  0
  -21.8720   -3.9550   23.6930 C   0  0  0  0  0  3  0  0  0  0  0  0
  -21.9560   -4.7810   22.5590 C   0  0  0  0  0  0  0  0  0  0  0  0
  -22.3110   -4.2470   21.3650 F   0  0  0  0  0  0  0  0  0  0  0  0
  -21.3980   -3.7000   26.0200 F   0  0  0  0  0  0  0  0  0  0  0  0
  -22.7670  -13.5510   21.1680 C   0  0  0  0  0  0  0  0  0  0  0  0
  -22.0370  -12.8560   22.0350 N   0  0  0  0  0  0  0  0  0  0  0  0
  -22.3290  -14.5750   20.6450 O   0  0  0  0  0  0  0  0  0  0  0  0
  -22.4020  -12.0280   22.4810 H   0  0  0  0  0  0  0  0  0  0  0  0
  -21.1000  -13.1590   22.2580 H   0  0  0  0  0  0  0  0  0  0  0  0
  -25.3970  -15.2180   20.3470 N   0  0  0  0  0  0  0  0  0  0  0  0
  -24.6280  -15.8720   20.4470 H   0  0  0  0  0  0  0  0  0  0  0  0
  -26.2430  -15.6570   20.0050 H   0  0  0  0  0  0  0  0  0  0  0  0
  2  1  2  0
  3  1  1  0
  4  5  2  0
  4  6  1  0
  5  2  1  0
  6  3  2  0
  7  5  1  0
  8  7  1  0
  8 10  1  0
  9  8  2  0
 11 10  1  0
 12 23  2  0
 13 11  1  0
 13 18  1  0
 14 22  1  0
 14 24  1  0
 15 21  1  0
 15 17  1  0
 16 22  1  0
 17 16  1  0
 18 17  2  0
 19 20  1  0
 19 13  2  0
 20 15  2  0
 21 14  1  0
 22 12  1  0
 24 26  2  0
 25 24  1  0
 27 25  1  0
 28 37  2  0
 28 33  1  0
 29 25  1  0
 29 33  1  0
 30 29  1  0
 31 32  1  0
 31 30  1  0
 32 28  1  0
 33 34  2  0
 34 35  1  0
 36 35  2  0
 37 36  1  0
 38 12  1  0
 38 39  1  0
 38 48  1  0
 39 42  1  0
 40 44  1  0
 40 39  1  0
 41 40  2  0
 44 43  1  0
 46 44  1  0
 46 47  1  0
 46 45  1  0
 48 51  1  1
 48 49  1  0
 50 48  1  0
 52  6  1  0
 52 53  1  0
 54 62  1  0
 55 60  1  0
 56 57  1  0
 56 55  1  0
 58 57  1  0
 58 67  1  0
 58 59  1  0
 60 54  1  0
 60 59  1  0
 61 54  2  0
 62 53  1  0
 62 63  1  0
 64 65  2  0
 65 84  1  0
 66 65  1  0
 66 69  1  0
 67 64  1  0
 67 68  1  0
 68 66  2  0
 69 70  1  0
 70 71  2  0
 72 75  1  0
 72 71  1  0
 73 72  2  0
 74 73  1  0
 74 69  2  0
 75 76  1  0
 76 77  1  0
 77 78  2  0
 79 78  1  0
 79 83  1  0
 80 79  2  0
 81 76  2  0
 81 80  1  0
 82 81  1  0
 84 85  1  0
 85 88  1  0
 85 87  1  0
 86 84  2  0
 89 90  1  0
 89 64  1  0
 91 89  1  0
M  ISO  4  10 101  11 101  54 100  62 100
M  END
>  <TORSDO>  (9) 
F 21

>  <SCORE>  (9) 
-13.661

>  <name>  (9) 
8

>  <ligand_id>  (9) 
8

>  <original_smiles>  (9) 
[H]c1c([H])c(C([H])([H])C(=O)C([H])([H])Oc2c([H])c([H])c3c(c2[H])C([H])([H])N(C(=O)C([H])(N([H])C(=O)C([H])(N([H])C([H])([H])[H])C([H])([H])[H])C(C([H])([H])[H])(C([H])([H])[H])C([H])([H])[H])C([H])(C(=O)N([H])C2([H])c4c([H])c([H])c([H])c([H])c4C([H])([H])C([H])([H])C2([H])[H])C3([H])[H])c([H])c(C([H])([H])C([H])([H])N([H])C(=O)N2C([H])([H])C([H])([H])C([H])([H])C([H])(n3nc(-c4c([H])c([H])c(Oc5c([H])c([H])c(F)c([H])c5F)c([H])c4[H])c(C(=O)N([H])[H])c3N([H])[H])C2([H])[H])c1[H]

>  <smiles>  (9) 
[H]c1c([H])c(C([H])([H])C(=O)C([H])([H])Oc2c([H])c([H])c3c(c2[H])C([H])([H])N(C(=O)C([H])(N([H])C(=O)C([H])(N([H])C([H])([H])[H])C([H])([H])[H])C(C([H])([H])[H])(C([H])([H])[H])C([H])([H])[H])C([H])(C(=O)N([H])C2([H])c4c([H])c([H])c([H])c([H])c4C([H])([H])C([H])([H])C2([H])[H])C3([H])[H])c([H])c(C([H])([H])C([H])([H])N([H])C(=O)N2C([H])([H])C([H])([H])C([H])([H])C([H])(n3nc(-c4c([H])c([H])c(Oc5c([H])c([H])c(F)c([H])c5F)c([H])c4[H])c(C(=O)N([H])[H])c3N([H])[H])C2([H])[H])c1[H]

$$$$
9:0:0
     RDKit          3D

 92100  0  0  1  0  0  0  0  0999 V2000
  -28.7690  -21.5660   21.0910 C   0  0  0  0  0  3  0  0  0  0  0  0
  -31.5120  -18.9220   21.6720 C   0  0  0  0  0  3  0  0  0  0  0  0
  -31.3430  -17.6210   21.3750 C   0  0  0  0  0  3  0  0  0  0  0  0
  -30.3950  -19.9190   21.9800 C   0  0  0  0  0  2  0  0  0  0  0  0
  -29.2660  -17.7700   20.0090 C   0  0  0  0  0  2  0  0  0  0  0  0
  -28.6280  -19.1560   20.3920 C   0  0  0  0  0  2  0  0  0  0  0  0
  -29.9760  -17.0060   21.1610 C   0  0  0  0  0  3  0  0  0  0  0  0
  -29.5380  -20.2860   20.8090 N   0  0  1  0  0  4  0  0  0  0  0  0
  -30.1600  -20.4820   20.0370 H   0  0  0  0  0  0  0  0  0  0  0  0
  -30.6680  -14.5590   20.4860 C   0  0  0  0  0  0  0  0  0  0  0  0
  -30.4300  -12.3780   19.3340 C   0  0  0  0  0  2  0  0  0  0  0  0
  -29.4830  -12.5740   18.1290 C   0  0  0  0  0  2  0  0  0  0  0  0
  -28.0030  -12.4410   18.5480 C   0  0  0  0  0  2  0  0  0  0  0  0
  -27.6660  -13.2600   19.8240 C   0  0  0  0  0  3  0  0  0  0  0  0
  -28.7200  -13.0130   20.9290 C   0  0  0  0  0  2  0  0  0  0  0  0
  -30.0420  -13.3500   20.3690 N   0  0  0  0  0  0  0  0  0  0  0  0
  -31.7670  -14.7900   19.9810 O   0  0  0  0  0  0  0  0  0  0  0  0
  -29.9140  -15.5200   21.0740 N   0  0  0  0  0  0  0  0  0  0  0  0
  -29.0780  -15.1340   21.4830 H   0  0  0  0  0  0  0  0  0  0  0  0
  -25.2610  -13.8600   20.5220 C   0  0  0  0  0  0  0  0  0  0  0  0
  -24.1920  -13.0830   20.8880 C   0  0  0  0  0  0  0  0  0  0  0  0
  -24.6560  -11.7330   20.8550 C   0  0  0  0  0  0  0  0  0  0  0  0
  -26.3110  -12.9830   20.2950 N   0  0  0  0  0  0  0  0  0  0  0  0
  -25.9490  -11.6990   20.5510 N   0  0  0  0  0  0  0  0  0  0  0  0
  -23.9290  -10.4720   21.0400 C   0  0  0  0  0  0  0  0  0  0  0  0
  -24.3520   -9.5050   21.9800 C   0  0  0  0  0  3  0  0  0  0  0  0
  -23.6260   -8.3080   22.1510 C   0  0  0  0  0  3  0  0  0  0  0  0
  -22.4630   -8.0670   21.3850 C   0  0  0  0  0  0  0  0  0  0  0  0
  -22.0610   -9.0180   20.4290 C   0  0  0  0  0  3  0  0  0  0  0  0
  -22.7880  -10.2080   20.2560 C   0  0  0  0  0  3  0  0  0  0  0  0
  -21.7040   -6.9240   21.4700 O   0  0  0  0  0  0  0  0  0  0  0  0
  -21.6280   -6.1980   22.6290 C   0  0  0  0  0  0  0  0  0  0  0  0
  -21.1500   -6.7630   23.8330 C   0  0  0  0  0  3  0  0  0  0  0  0
  -21.0230   -5.9580   24.9810 C   0  0  0  0  0  3  0  0  0  0  0  0
  -21.3630   -4.5930   24.9260 C   0  0  0  0  0  0  0  0  0  0  0  0
  -21.8350   -4.0310   23.7280 C   0  0  0  0  0  3  0  0  0  0  0  0
  -21.9640   -4.8300   22.5800 C   0  0  0  0  0  0  0  0  0  0  0  0
  -22.3980   -4.2790   21.4190 F   0  0  0  0  0  0  0  0  0  0  0  0
  -21.2280   -3.8170   26.0280 F   0  0  0  0  0  0  0  0  0  0  0  0
  -22.7930  -13.5610   21.1530 C   0  0  0  0  0  0  0  0  0  0  0  0
  -22.0570  -12.8610   22.0120 N   0  0  0  0  0  0  0  0  0  0  0  0
  -22.3580  -14.5890   20.6330 O   0  0  0  0  0  0  0  0  0  0  0  0
  -22.4200  -12.0320   22.4610 H   0  0  0  0  0  0  0  0  0  0  0  0
  -21.1110  -13.1530   22.2160 H   0  0  0  0  0  0  0  0  0  0  0  0
  -25.4160  -15.2300   20.3460 N   0  0  0  0  0  0  0  0  0  0  0  0
  -24.6360  -15.8730   20.4420 H   0  0  0  0  0  0  0  0  0  0  0  0
  -26.2580  -15.6760   20.0080 H   0  0  0  0  0  0  0  0  0  0  0  0
  -29.0010  -22.7740   20.1220 C   0  0  0  0  0  3  0  0  0  0  0  0
  -28.3380  -24.1320   20.5710 C   0  0  0  0  0  3  0  0  0  0  0  0
  -27.0250  -23.9310   20.6940 F   0  0  0  0  0  0  0  0  0  0  0  0
  -28.5750  -25.3620   19.6270 C   0  0  0  0  0  2  0  0  0  0  0  0
  -28.4250  -26.6910   20.2060 O   0  0  0  0  0  0  0  0  0  0  0  0
  -24.5720  -31.8890   23.2330 C   0  0  0  0  0  0  0  0  0  0  0  0
  -27.2350  -27.4080   20.1610 C   0  0  0  0  0  0  0  0  0  0  0  0
  -23.3760  -30.4870   21.5830 C   0  0  0  0  0  3  0  0  0  0  0  0
  -24.8380  -28.9450   20.1630 C   0  0  0  0  0  0  0  0  0  0  0  0
  -25.9070  -30.8380   21.4010 C   0  0  0  0  0  2  0  0  0  0  0  0
  -25.9950  -29.4650   20.7560 C   0  0  0  0  0  0  0  0  0  0  0  0
  -27.1910  -28.7050   20.7470 C   0  0  0  0  0  3  0  0  0  0  0  0
  -26.0540  -26.9160   19.5650 C   0  0  0  0  0  3  0  0  0  0  0  0
  -24.8670  -27.6750   19.5650 C   0  0  0  0  0  3  0  0  0  0  0  0
  -23.5940  -29.8040   20.2060 C   0  0  0  0  0  2  0  0  0  0  0  0
  -24.6360  -31.0890   22.1300 N   0  0  0  0  0  0  0  0  0  0  0  0
  -23.4880  -32.1600   23.7680 O   0  0  0  0  0  0  0  0  0  0  0  0
  -22.7200  -29.4670   22.5420 C   0  0  0  0  0  0  0  0  0  0  0  0
  -21.3950  -29.2880   22.4150 N   0  0  0  0  0  0  0  0  0  0  0  0
  -23.4010  -28.8380   23.3570 O   0  0  0  0  0  0  0  0  0  0  0  0
  -20.9050  -29.8510   21.7330 H   0  0  0  0  0  0  0  0  0  0  0  0
  -18.0180  -28.1120   22.9220 C   0  0  0  0  0  0  0  0  0  0  0  0
  -20.5770  -28.3490   23.1820 C   0  0  0  0  0  3  0  0  0  0  0  0
  -20.6680  -26.9220   22.5890 C   0  0  0  0  0  2  0  0  0  0  0  0
  -19.5590  -26.6200   21.5780 C   0  0  0  0  0  2  0  0  0  0  0  0
  -18.1810  -26.7690   22.2300 C   0  0  0  0  0  2  0  0  0  0  0  0
  -19.1440  -28.8620   23.3540 C   0  0  0  0  0  0  0  0  0  0  0  0
  -18.9380  -30.1200   23.9580 C   0  0  0  0  0  3  0  0  0  0  0  0
  -17.6370  -30.6280   24.1380 C   0  0  0  0  0  3  0  0  0  0  0  0
  -16.5250  -29.8740   23.7240 C   0  0  0  0  0  3  0  0  0  0  0  0
  -16.7170  -28.6190   23.1200 C   0  0  0  0  0  3  0  0  0  0  0  0
  -25.8540  -32.5200   23.8590 C   0  0  0  0  0  3  0  0  0  0  0  0
  -26.3600  -31.7590   25.1480 C   0  0  1  0  0  0  0  0  0  0  0  0
  -25.2570  -31.5310   26.2080 C   0  0  0  0  0  1  0  0  0  0  0  0
  -26.9420  -30.3760   24.7700 C   0  0  0  0  0  1  0  0  0  0  0  0
  -27.5060  -32.5590   25.8150 C   0  0  0  0  0  1  0  0  0  0  0  0
  -25.5490  -33.9240   24.1750 N   0  0  0  0  0  0  0  0  0  0  0  0
  -25.8960  -34.9700   23.4130 C   0  0  0  0  0  0  0  0  0  0  0  0
  -26.5760  -34.8570   22.3900 O   0  0  0  0  0  0  0  0  0  0  0  0
  -24.9460  -34.0850   24.9670 H   0  0  0  0  0  0  0  0  0  0  0  0
  -24.1820  -36.7730   23.0210 C   0  0  0  0  0  1  0  0  0  0  0  0
  -25.4060  -36.3630   23.8550 C   0  0  0  0  0  3  0  0  0  0  0  0
  -27.5260  -37.2430   24.7240 C   0  0  0  0  0  1  0  0  0  0  0  0
  -26.4450  -37.4110   23.7560 N   0  0  0  0  0  0  0  0  0  0  0  0
  -26.0400  -38.3320   23.8940 H   0  0  0  0  0  0  0  0  0  0  0  0
  2  4  1  0
  3  2  2  0
  5  6  1  0
  5  7  1  0
  6  8  1  0
  7 18  1  0
  7  3  1  0
  8  1  1  0
  8  4  1  0
  8  9  1  6
 10 18  1  0
 11 16  1  0
 12 13  1  0
 12 11  1  0
 14 13  1  0
 14 23  1  0
 14 15  1  0
 16 10  1  0
 16 15  1  0
 17 10  2  0
 18 19  1  0
 20 21  2  0
 21 40  1  0
 22 21  1  0
 22 25  1  0
 23 20  1  0
 23 24  1  0
 24 22  2  0
 25 26  1  0
 26 27  2  0
 28 31  1  0
 28 27  1  0
 29 28  2  0
 30 29  1  0
 30 25  2  0
 31 32  1  0
 32 33  1  0
 33 34  2  0
 35 34  1  0
 35 39  1  0
 36 35  2  0
 37 32  2  0
 37 36  1  0
 38 37  1  0
 40 41  1  0
 41 44  1  0
 41 43  1  0
 42 40  2  0
 45 46  1  0
 45 20  1  0
 47 45  1  0
 48 49  1  0
 48  1  2  0
 49 50  1  0
 51 52  1  0
 51 49  1  0
 53 64  2  0
 54 52  1  0
 54 59  1  0
 55 63  1  0
 55 65  1  0
 56 62  1  0
 56 58  1  0
 57 63  1  0
 58 57  1  0
 59 58  2  0
 60 54  2  0
 61 60  1  0
 61 56  2  0
 62 55  1  0
 63 53  1  0
 65 67  2  0
 66 65  1  0
 68 66  1  0
 69 78  2  0
 69 74  1  0
 70 66  1  0
 70 74  1  0
 71 70  1  0
 72 73  1  0
 72 71  1  0
 73 69  1  0
 74 75  2  0
 75 76  1  0
 77 76  2  0
 78 77  1  0
 79 53  1  0
 79 84  1  0
 79 80  1  0
 80 83  1  1
 80 81  1  0
 82 80  1  0
 84 87  1  0
 85 89  1  0
 85 84  1  0
 86 85  2  0
 89 88  1  0
 91 89  1  0
 91 92  1  0
 91 90  1  0
M  ISO  4  10 100  18 100  51 101  52 101
M  END
>  <TORSDO>  (10) 
F 20

>  <SCORE>  (10) 
-14.119

>  <name>  (10) 
9

>  <ligand_id>  (10) 
9

>  <original_smiles>  (10) 
[H]C1=C([H])C([H])([H])[N+]([H])(C([H])([H])C([H])([H])C([H])(F)C([H])([H])Oc2c([H])c([H])c3c(c2[H])C([H])([H])N(C(=O)C([H])(N([H])C(=O)C([H])(N([H])C([H])([H])[H])C([H])([H])[H])C(C([H])([H])[H])(C([H])([H])[H])C([H])([H])[H])C([H])(C(=O)N([H])C2([H])c4c([H])c([H])c([H])c([H])c4C([H])([H])C([H])([H])C2([H])[H])C3([H])[H])C([H])([H])C([H])([H])C1([H])N([H])C(=O)N1C([H])([H])C([H])([H])C([H])([H])C([H])(n2nc(-c3c([H])c([H])c(Oc4c([H])c([H])c(F)c([H])c4F)c([H])c3[H])c(C(=O)N([H])[H])c2N([H])[H])C1([H])[H]

>  <smiles>  (10) 
[H]C1=C([H])C([H])([H])[N+]([H])(C([H])([H])C([H])([H])C([H])(F)C([H])([H])Oc2c([H])c([H])c3c(c2[H])C([H])([H])N(C(=O)C([H])(N([H])C(=O)C([H])(N([H])C([H])([H])[H])C([H])([H])[H])C(C([H])([H])[H])(C([H])([H])[H])C([H])([H])[H])C([H])(C(=O)N([H])C2([H])c4c([H])c([H])c([H])c([H])c4C([H])([H])C([H])([H])C2([H])[H])C3([H])[H])C([H])([H])C([H])([H])C1([H])N([H])C(=O)N1C([H])([H])C([H])([H])C([H])([H])C([H])(n2nc(-c3c([H])c([H])c(Oc4c([H])c([H])c(F)c([H])c4F)c([H])c3[H])c(C(=O)N([H])[H])c2N([H])[H])C1([H])[H]

$$$$
11:0:0
     RDKit          3D

 95103  0  0  1  0  0  0  0  0999 V2000
  -29.9340  -19.1860   17.9760 C   0  0  0  0  0  2  0  0  0  0  0  0
  -31.0600  -19.7340   18.8420 C   0  0  0  0  0  2  0  0  0  0  0  0
  -29.7870  -18.3380   20.2890 C   0  0  0  0  0  3  0  0  0  0  0  0
  -29.3540  -18.0410   18.8160 C   0  0  0  0  0  3  0  0  0  0  0  0
  -30.5680  -19.6140   20.2350 N   0  0  2  0  0  4  0  0  0  0  0  0
  -31.3720  -19.4740   20.8370 H   0  0  0  0  0  0  0  0  0  0  0  0
  -31.0250  -14.8490   20.4650 C   0  0  0  0  0  0  0  0  0  0  0  0
  -30.6430  -12.8630   19.0710 C   0  0  0  0  0  2  0  0  0  0  0  0
  -29.7060  -13.2770   17.9180 C   0  0  0  0  0  2  0  0  0  0  0  0
  -28.2280  -13.1320   18.3400 C   0  0  0  0  0  2  0  0  0  0  0  0
  -27.9240  -13.7740   19.7210 C   0  0  0  0  0  3  0  0  0  0  0  0
  -28.9910  -13.3900   20.7720 C   0  0  0  0  0  2  0  0  0  0  0  0
  -30.3110  -13.7190   20.2160 N   0  0  0  0  0  0  0  0  0  0  0  0
  -32.2180  -14.9480   20.1690 O   0  0  0  0  0  0  0  0  0  0  0  0
  -30.6960  -17.2110   20.8480 C   0  0  0  0  0  0  0  0  0  0  0  0
  -30.2650  -15.9350   20.7320 N   0  0  0  0  0  0  0  0  0  0  0  0
  -31.7840  -17.5290   21.3430 O   0  0  0  0  0  0  0  0  0  0  0  0
  -29.2760  -15.7890   20.6270 H   0  0  0  0  0  0  0  0  0  0  0  0
  -25.4980  -14.3120   20.3830 C   0  0  0  0  0  0  0  0  0  0  0  0
  -24.4450  -13.5110   20.7320 C   0  0  0  0  0  0  0  0  0  0  0  0
  -24.9450  -12.1720   20.7160 C   0  0  0  0  0  0  0  0  0  0  0  0
  -26.5730  -13.4600   20.1760 N   0  0  0  0  0  0  0  0  0  0  0  0
  -26.2430  -12.1690   20.4370 N   0  0  0  0  0  0  0  0  0  0  0  0
  -24.2510  -10.8910   20.8960 C   0  0  0  0  0  0  0  0  0  0  0  0
  -24.6320   -9.9770   21.9040 C   0  0  0  0  0  3  0  0  0  0  0  0
  -23.9350   -8.7610   22.0670 C   0  0  0  0  0  3  0  0  0  0  0  0
  -22.8450   -8.4480   21.2220 C   0  0  0  0  0  0  0  0  0  0  0  0
  -22.4850   -9.3500   20.2050 C   0  0  0  0  0  3  0  0  0  0  0  0
  -23.1820  -10.5590   20.0400 C   0  0  0  0  0  3  0  0  0  0  0  0
  -22.1270   -7.2790   21.2900 O   0  0  0  0  0  0  0  0  0  0  0  0
  -21.9080   -6.6380   22.4830 C   0  0  0  0  0  0  0  0  0  0  0  0
  -21.2220   -7.2620   23.5470 C   0  0  0  0  0  3  0  0  0  0  0  0
  -20.9540   -6.5450   24.7300 C   0  0  0  0  0  3  0  0  0  0  0  0
  -21.3660   -5.2040   24.8480 C   0  0  0  0  0  0  0  0  0  0  0  0
  -22.0470   -4.5790   23.7870 C   0  0  0  0  0  3  0  0  0  0  0  0
  -22.3140   -5.2940   22.6070 C   0  0  0  0  0  0  0  0  0  0  0  0
  -22.9490   -4.6810   21.5800 F   0  0  0  0  0  0  0  0  0  0  0  0
  -21.1040   -4.5100   25.9800 F   0  0  0  0  0  0  0  0  0  0  0  0
  -23.0310  -13.9500   20.9710 C   0  0  0  0  0  0  0  0  0  0  0  0
  -22.3050  -13.2350   21.8230 N   0  0  0  0  0  0  0  0  0  0  0  0
  -22.5750  -14.9610   20.4370 O   0  0  0  0  0  0  0  0  0  0  0  0
  -22.6890  -12.4160   22.2710 H   0  0  0  0  0  0  0  0  0  0  0  0
  -21.3530  -13.5050   22.0260 H   0  0  0  0  0  0  0  0  0  0  0  0
  -25.6230  -15.6860   20.2040 N   0  0  0  0  0  0  0  0  0  0  0  0
  -24.8220  -16.3030   20.2820 H   0  0  0  0  0  0  0  0  0  0  0  0
  -26.4460  -16.1540   19.8550 H   0  0  0  0  0  0  0  0  0  0  0  0
  -27.4090  -17.9940   17.1480 C   0  0  0  0  0  1  0  0  0  0  0  0
  -27.8370  -17.8630   18.6180 C   0  0  0  0  0  2  0  0  0  0  0  0
  -29.8120  -20.8040   20.7440 C   0  0  0  0  0  2  0  0  0  0  0  0
  -30.5810  -22.1560   20.7100 C   0  0  0  0  0  3  0  0  0  0  0  0
  -31.7910  -21.9900   21.2470 F   0  0  0  0  0  0  0  0  0  0  0  0
  -29.8620  -23.3050   21.4560 C   0  0  0  0  0  2  0  0  0  0  0  0
  -30.3440  -24.7280   21.0740 C   0  0  0  0  0  2  0  0  0  0  0  0
  -29.5300  -25.8370   21.7700 C   0  0  0  0  0  2  0  0  0  0  0  0
  -29.5860  -27.0890   21.0670 O   0  0  0  0  0  0  0  0  0  0  0  0
  -25.0000  -31.9320   23.5590 C   0  0  0  0  0  0  0  0  0  0  0  0
  -28.3670  -27.7140   20.9120 C   0  0  0  0  0  0  0  0  0  0  0  0
  -24.1100  -30.3750   21.8560 C   0  0  0  0  0  3  0  0  0  0  0  0
  -25.8460  -28.9630   20.6330 C   0  0  0  0  0  0  0  0  0  0  0  0
  -26.5940  -30.9890   21.8920 C   0  0  0  0  0  2  0  0  0  0  0  0
  -26.8820  -29.6180   21.3110 C   0  0  0  0  0  0  0  0  0  0  0  0
  -28.1470  -29.0030   21.4480 C   0  0  0  0  0  3  0  0  0  0  0  0
  -27.3190  -27.0750   20.2130 C   0  0  0  0  0  3  0  0  0  0  0  0
  -26.0590  -27.6870   20.0810 C   0  0  0  0  0  3  0  0  0  0  0  0
  -24.5240  -29.6880   20.5270 C   0  0  0  0  0  2  0  0  0  0  0  0
  -25.2460  -31.1150   22.4960 N   0  0  0  0  0  0  0  0  0  0  0  0
  -23.8490  -32.1050   23.9800 O   0  0  0  0  0  0  0  0  0  0  0  0
  -23.4680  -29.3160   22.7800 C   0  0  0  0  0  0  0  0  0  0  0  0
  -22.1930  -28.9890   22.5200 N   0  0  0  0  0  0  0  0  0  0  0  0
  -24.1210  -28.7900   23.6860 O   0  0  0  0  0  0  0  0  0  0  0  0
  -21.7250  -29.4680   21.7650 H   0  0  0  0  0  0  0  0  0  0  0  0
  -18.9190  -27.4750   22.7220 C   0  0  0  0  0  0  0  0  0  0  0  0
  -21.3990  -27.9900   23.2360 C   0  0  0  0  0  3  0  0  0  0  0  0
  -21.6980  -26.5660   22.7160 C   0  0  0  0  0  2  0  0  0  0  0  0
  -20.7400  -26.1150   21.6080 C   0  0  0  0  0  2  0  0  0  0  0  0
  -19.2920  -26.1360   22.1080 C   0  0  0  0  0  2  0  0  0  0  0  0
  -19.9100  -28.3520   23.2380 C   0  0  0  0  0  0  0  0  0  0  0  0
  -19.5140  -29.6010   23.7640 C   0  0  0  0  0  3  0  0  0  0  0  0
  -18.1570  -29.9750   23.7850 C   0  0  0  0  0  3  0  0  0  0  0  0
  -17.1780  -29.0960   23.2880 C   0  0  0  0  0  3  0  0  0  0  0  0
  -17.5590  -27.8480   22.7650 C   0  0  0  0  0  3  0  0  0  0  0  0
  -26.1490  -32.7030   24.2800 C   0  0  0  0  0  3  0  0  0  0  0  0
  -25.6880  -34.0820   24.4920 N   0  0  0  0  0  0  0  0  0  0  0  0
  -26.0010  -35.1170   23.7020 C   0  0  0  0  0  0  0  0  0  0  0  0
  -26.7750  -35.0210   22.7450 O   0  0  0  0  0  0  0  0  0  0  0  0
  -25.0060  -34.2240   25.2220 H   0  0  0  0  0  0  0  0  0  0  0  0
  -24.1500  -36.7090   23.0890 C   0  0  0  0  0  1  0  0  0  0  0  0
  -25.3490  -36.4760   24.0220 C   0  0  0  0  0  3  0  0  0  0  0  0
  -27.3110  -37.6140   24.9630 C   0  0  0  0  0  1  0  0  0  0  0  0
  -26.2850  -37.6170   23.9220 N   0  0  0  0  0  0  0  0  0  0  0  0
  -25.7850  -38.5000   23.9740 H   0  0  0  0  0  0  0  0  0  0  0  0
  -26.5820  -32.0420   25.6450 C   0  0  1  0  0  0  0  0  0  0  0  0
  -25.3980  -31.7290   26.5880 C   0  0  0  0  0  1  0  0  0  0  0  0
  -27.3460  -30.7210   25.3930 C   0  0  0  0  0  1  0  0  0  0  0  0
  -27.5600  -32.9760   26.3950 C   0  0  0  0  0  1  0  0  0  0  0  0
  1  4  1  0
  1  2  1  0
  2  5  1  0
  3 15  1  0
  4 48  1  0
  4  3  1  0
  5  3  1  0
  5 49  1  0
  5  6  1  1
  7 16  1  0
  8 13  1  0
  9 10  1  0
  9  8  1  0
 11 10  1  0
 11 22  1  0
 11 12  1  0
 13  7  1  0
 13 12  1  0
 14  7  2  0
 15 17  2  0
 16 15  1  0
 18 16  1  0
 19 20  2  0
 20 39  1  0
 21 20  1  0
 21 24  1  0
 22 19  1  0
 22 23  1  0
 23 21  2  0
 24 25  1  0
 25 26  2  0
 27 30  1  0
 27 26  1  0
 28 27  2  0
 29 28  1  0
 29 24  2  0
 30 31  1  0
 31 36  2  0
 31 32  1  0
 32 33  2  0
 33 34  1  0
 34 38  1  0
 35 34  2  0
 36 35  1  0
 37 36  1  0
 39 40  1  0
 40 43  1  0
 40 42  1  0
 41 39  2  0
 44 45  1  0
 44 19  1  0
 46 44  1  0
 47 48  1  0
 50 49  1  0
 50 51  1  0
 50 52  1  0
 53 52  1  0
 53 54  1  0
 55 54  1  0
 56 67  2  0
 57 55  1  0
 57 62  1  0
 58 66  1  0
 58 68  1  0
 59 61  1  0
 60 66  1  0
 61 62  2  0
 61 60  1  0
 63 57  2  0
 64 63  1  0
 64 59  2  0
 65 59  1  0
 65 58  1  0
 66 56  1  0
 68 70  2  0
 69 68  1  0
 71 69  1  0
 72 81  2  0
 72 77  1  0
 73 69  1  0
 73 77  1  0
 74 73  1  0
 75 76  1  0
 75 74  1  0
 76 72  1  0
 77 78  2  0
 78 79  1  0
 80 79  2  0
 81 80  1  0
 82 56  1  0
 82 83  1  0
 82 92  1  0
 83 86  1  0
 84 88  1  0
 84 83  1  0
 85 84  2  0
 88 87  1  0
 90 91  1  0
 90 88  1  0
 90 89  1  0
 92 95  1  1
 92 93  1  0
 94 92  1  0
M  ISO  4   7 100  16 100  54 101  55 101
M  END
>  <TORSDO>  (11) 
F 22

>  <SCORE>  (11) 
-11.275

>  <name>  (11) 
11

>  <ligand_id>  (11) 
11

>  <original_smiles>  (11) 
[H]c1c([H])c([H])c2c(c1[H])C([H])([H])C([H])([H])C([H])([H])C2([H])N([H])C(=O)C1([H])N(C(=O)C([H])(N([H])C(=O)C([H])(N([H])C([H])([H])[H])C([H])([H])[H])C(C([H])([H])[H])(C([H])([H])[H])C([H])([H])[H])C([H])([H])c2c([H])c(OC([H])([H])C([H])([H])C([H])([H])C([H])(F)C([H])([H])[N+]3([H])C([H])([H])C([H])([H])C([H])(C([H])([H])C([H])([H])[H])C3([H])C(=O)N([H])C(=O)N3C([H])([H])C([H])([H])C([H])([H])C([H])(n4nc(-c5c([H])c([H])c(Oc6c([H])c([H])c(F)c([H])c6F)c([H])c5[H])c(C(=O)N([H])[H])c4N([H])[H])C3([H])[H])c([H])c([H])c2C1([H])[H]

>  <smiles>  (11) 
[H]c1c([H])c([H])c2c(c1[H])C([H])([H])C([H])([H])C([H])([H])C2([H])N([H])C(=O)C1([H])N(C(=O)C([H])(N([H])C(=O)C([H])(N([H])C([H])([H])[H])C([H])([H])[H])C(C([H])([H])[H])(C([H])([H])[H])C([H])([H])[H])C([H])([H])c2c([H])c(OC([H])([H])C([H])([H])C([H])([H])C([H])(F)C([H])([H])[N+]3([H])C([H])([H])C([H])([H])C([H])(C([H])([H])C([H])([H])[H])C3([H])C(=O)N([H])C(=O)N3C([H])([H])C([H])([H])C([H])([H])C([H])(n4nc(-c5c([H])c([H])c(Oc6c([H])c([H])c(F)c([H])c6F)c([H])c5[H])c(C(=O)N([H])[H])c4N([H])[H])C3([H])[H])c([H])c([H])c2C1([H])[H]

$$$$
12:0:0
     RDKit          3D

 94102  0  0  1  0  0  0  0  0999 V2000
  -29.4020  -19.8760   19.3830 C   0  0  0  0  0  2  0  0  0  0  0  0
  -30.3620  -19.3670   20.3940 N   0  0  0  0  0  4  0  0  0  0  0  0
  -31.1720  -19.9670   20.3460 H   0  0  0  0  0  0  0  0  0  0  0  0
  -29.9580  -19.4860   21.3090 H   0  0  0  0  0  0  0  0  0  0  0  0
  -30.6010  -14.7520   19.2960 C   0  0  0  0  0  0  0  0  0  0  0  0
  -30.0090  -12.7620   17.9550 C   0  0  0  0  0  2  0  0  0  0  0  0
  -28.8200  -13.0670   17.0210 C   0  0  0  0  0  2  0  0  0  0  0  0
  -27.4820  -12.8270   17.7470 C   0  0  0  0  0  2  0  0  0  0  0  0
  -27.4300  -13.5260   19.1310 C   0  0  0  0  0  3  0  0  0  0  0  0
  -28.7030  -13.2180   19.9520 C   0  0  0  0  0  2  0  0  0  0  0  0
  -29.8820  -13.6050   19.1540 N   0  0  0  0  0  0  0  0  0  0  0  0
  -31.4510  -15.1200   18.4780 O   0  0  0  0  0  0  0  0  0  0  0  0
  -31.5410  -16.5850   22.3120 C   0  0  0  0  0  2  0  0  0  0  0  0
  -31.1420  -15.2780   21.5960 C   0  0  0  0  0  2  0  0  0  0  0  0
  -29.7680  -16.8690   20.2660 C   0  0  0  0  0  2  0  0  0  0  0  0
  -31.9740  -17.7030   21.3340 C   0  0  0  0  0  3  0  0  0  0  0  0
  -30.8760  -17.9700   20.2550 C   0  0  0  0  0  3  0  0  0  0  0  0
  -30.3240  -15.5020   20.3890 N   0  0  0  0  0  0  0  0  0  0  0  0
  -25.2710  -13.9970   20.4530 C   0  0  0  0  0  0  0  0  0  0  0  0
  -24.3000  -13.1670   20.9440 C   0  0  0  0  0  0  0  0  0  0  0  0
  -24.7110  -11.8390   20.6140 C   0  0  0  0  0  0  0  0  0  0  0  0
  -26.2170  -13.1710   19.8650 N   0  0  0  0  0  0  0  0  0  0  0  0
  -25.8940  -11.8600   20.0120 N   0  0  0  0  0  0  0  0  0  0  0  0
  -24.0210  -10.5540   20.7850 C   0  0  0  0  0  0  0  0  0  0  0  0
  -24.5560   -9.5340   21.6000 C   0  0  0  0  0  3  0  0  0  0  0  0
  -23.8660   -8.3130   21.7650 C   0  0  0  0  0  3  0  0  0  0  0  0
  -22.6270   -8.1060   21.1140 C   0  0  0  0  0  0  0  0  0  0  0  0
  -22.1080   -9.1180   20.2880 C   0  0  0  0  0  3  0  0  0  0  0  0
  -22.7980  -10.3300   20.1210 C   0  0  0  0  0  3  0  0  0  0  0  0
  -21.8980   -6.9440   21.1950 O   0  0  0  0  0  0  0  0  0  0  0  0
  -21.8470   -6.2040   22.3490 C   0  0  0  0  0  0  0  0  0  0  0  0
  -21.3900   -6.7540   23.5680 C   0  0  0  0  0  3  0  0  0  0  0  0
  -21.2890   -5.9370   24.7120 C   0  0  0  0  0  3  0  0  0  0  0  0
  -21.6340   -4.5740   24.6410 C   0  0  0  0  0  0  0  0  0  0  0  0
  -22.0810   -4.0250   23.4260 C   0  0  0  0  0  3  0  0  0  0  0  0
  -22.1850   -4.8360   22.2830 C   0  0  0  0  0  0  0  0  0  0  0  0
  -22.5980   -4.2960   21.1110 F   0  0  0  0  0  0  0  0  0  0  0  0
  -21.5270   -3.7890   25.7380 F   0  0  0  0  0  0  0  0  0  0  0  0
  -23.0150  -13.5830   21.6010 C   0  0  0  0  0  0  0  0  0  0  0  0
  -22.5140  -12.7800   22.5320 N   0  0  0  0  0  0  0  0  0  0  0  0
  -22.4730  -14.6520   21.3230 O   0  0  0  0  0  0  0  0  0  0  0  0
  -22.9730  -11.9150   22.7770 H   0  0  0  0  0  0  0  0  0  0  0  0
  -21.6600  -13.0330   23.0090 H   0  0  0  0  0  0  0  0  0  0  0  0
  -25.4220  -15.3800   20.4420 N   0  0  0  0  0  0  0  0  0  0  0  0
  -24.7130  -16.0040   20.8120 H   0  0  0  0  0  0  0  0  0  0  0  0
  -26.1960  -15.8690   20.0110 H   0  0  0  0  0  0  0  0  0  0  0  0
  -34.5470  -17.8890   21.5600 C   0  0  0  0  0  1  0  0  0  0  0  0
  -33.3590  -17.4400   20.6940 C   0  0  0  0  0  2  0  0  0  0  0  0
  -29.4850  -21.4200   19.1810 C   0  0  0  0  0  2  0  0  0  0  0  0
  -28.8850  -22.3240   20.2910 C   0  0  0  0  0  2  0  0  0  0  0  0
  -29.0780  -23.8470   20.0320 C   0  0  0  0  0  2  0  0  0  0  0  0
  -28.3410  -24.7590   21.0500 C   0  0  0  0  0  2  0  0  0  0  0  0
  -28.6760  -26.2750   20.9850 C   0  0  0  0  0  2  0  0  0  0  0  0
  -28.2040  -26.9300   19.8030 O   0  0  0  0  0  0  0  0  0  0  0  0
  -24.1660  -31.8950   23.0250 C   0  0  0  0  0  0  0  0  0  0  0  0
  -27.0030  -27.5950   19.9120 C   0  0  0  0  0  0  0  0  0  0  0  0
  -23.0010  -30.3830   21.4500 C   0  0  0  0  0  3  0  0  0  0  0  0
  -24.5070  -28.9220   19.9980 C   0  0  0  0  0  0  0  0  0  0  0  0
  -25.4850  -30.9130   21.1500 C   0  0  0  0  0  2  0  0  0  0  0  0
  -25.6460  -29.5370   20.5370 C   0  0  0  0  0  0  0  0  0  0  0  0
  -26.8960  -28.8790   20.4990 C   0  0  0  0  0  3  0  0  0  0  0  0
  -25.8520  -26.9930   19.3660 C   0  0  0  0  0  3  0  0  0  0  0  0
  -24.6050  -27.6470   19.4110 C   0  0  0  0  0  3  0  0  0  0  0  0
  -23.2070  -29.6910   20.0760 C   0  0  0  0  0  2  0  0  0  0  0  0
  -24.2370  -31.0830   21.9320 N   0  0  0  0  0  0  0  0  0  0  0  0
  -23.0900  -32.1000   23.6040 O   0  0  0  0  0  0  0  0  0  0  0  0
  -22.4600  -29.3370   22.4510 C   0  0  0  0  0  0  0  0  0  0  0  0
  -21.1510  -29.0500   22.3720 N   0  0  0  0  0  0  0  0  0  0  0  0
  -23.2150  -28.7850   23.2570 O   0  0  0  0  0  0  0  0  0  0  0  0
  -20.5970  -29.5490   21.6890 H   0  0  0  0  0  0  0  0  0  0  0  0
  -17.8980  -27.6060   22.9990 C   0  0  0  0  0  0  0  0  0  0  0  0
  -20.4350  -28.0680   23.1860 C   0  0  0  0  0  3  0  0  0  0  0  0
  -20.6330  -26.6390   22.6330 C   0  0  0  0  0  2  0  0  0  0  0  0
  -19.5300  -26.2100   21.6610 C   0  0  0  0  0  2  0  0  0  0  0  0
  -18.1600  -26.2610   22.3440 C   0  0  0  0  0  2  0  0  0  0  0  0
  -18.9660  -28.4620   23.3810 C   0  0  0  0  0  0  0  0  0  0  0  0
  -18.6680  -29.7170   23.9530 C   0  0  0  0  0  3  0  0  0  0  0  0
  -17.3320  -30.1190   24.1500 C   0  0  0  0  0  3  0  0  0  0  0  0
  -16.2790  -29.2620   23.7850 C   0  0  0  0  0  3  0  0  0  0  0  0
  -16.5630  -28.0090   23.2130 C   0  0  0  0  0  3  0  0  0  0  0  0
  -25.4260  -32.6250   23.5860 C   0  0  0  0  0  3  0  0  0  0  0  0
  -26.0460  -31.9150   24.8510 C   0  0  1  0  0  0  0  0  0  0  0  0
  -25.0110  -31.6010   25.9560 C   0  0  0  0  0  1  0  0  0  0  0  0
  -26.7290  -30.5860   24.4490 C   0  0  0  0  0  1  0  0  0  0  0  0
  -27.1470  -32.8100   25.4670 C   0  0  0  0  0  1  0  0  0  0  0  0
  -25.0340  -34.0050   23.9020 N   0  0  0  0  0  0  0  0  0  0  0  0
  -25.2610  -35.0610   23.1100 C   0  0  0  0  0  0  0  0  0  0  0  0
  -25.8940  -34.9830   22.0530 O   0  0  0  0  0  0  0  0  0  0  0  0
  -24.4650  -34.1360   24.7270 H   0  0  0  0  0  0  0  0  0  0  0  0
  -23.3960  -36.7170   22.7940 C   0  0  0  0  0  1  0  0  0  0  0  0
  -24.6950  -36.4210   23.5600 C   0  0  0  0  0  3  0  0  0  0  0  0
  -26.7950  -37.4720   24.2770 C   0  0  0  0  0  1  0  0  0  0  0  0
  -25.6440  -37.5400   23.3810 N   0  0  0  0  0  0  0  0  0  0  0  0
  -25.1810  -38.4330   23.5290 H   0  0  0  0  0  0  0  0  0  0  0  0
  1  2  1  0
  2  4  1  0
  3  2  1  0
  5 18  1  0
  6 11  1  0
  7  8  1  0
  7  6  1  0
  9  8  1  0
  9 22  1  0
  9 10  1  0
 11  5  1  0
 11 10  1  0
 12  5  2  0
 14 13  1  0
 15 18  1  0
 16 48  1  0
 16 13  1  0
 17 15  1  0
 17  2  1  0
 17 16  1  0
 18 14  1  0
 19 20  2  0
 20 39  1  0
 21 24  1  0
 21 20  1  0
 22 23  1  0
 22 19  1  0
 23 21  2  0
 24 25  1  0
 25 26  2  0
 27 30  1  0
 27 26  1  0
 28 27  2  0
 29 28  1  0
 29 24  2  0
 30 31  1  0
 31 32  1  0
 32 33  2  0
 34 33  1  0
 34 38  1  0
 35 34  2  0
 36 31  2  0
 36 35  1  0
 37 36  1  0
 39 40  1  0
 40 42  1  0
 40 43  1  0
 41 39  2  0
 44 19  1  0
 44 45  1  0
 46 44  1  0
 48 47  1  0
 49  1  1  0
 49 50  1  0
 51 50  1  0
 51 52  1  0
 53 52  1  0
 54 56  1  0
 54 53  1  0
 55 66  2  0
 56 61  1  0
 57 65  1  0
 57 67  1  0
 58 64  1  0
 58 60  1  0
 59 65  1  0
 60 59  1  0
 61 60  2  0
 62 63  1  0
 62 56  2  0
 63 58  2  0
 64 57  1  0
 65 55  1  0
 67 69  2  0
 68 67  1  0
 70 68  1  0
 71 80  2  0
 71 76  1  0
 72 68  1  0
 72 76  1  0
 73 72  1  0
 74 75  1  0
 74 73  1  0
 75 71  1  0
 76 77  2  0
 77 78  1  0
 79 78  2  0
 80 79  1  0
 81 55  1  0
 81 86  1  0
 81 82  1  0
 82 85  1  1
 82 83  1  0
 84 82  1  0
 86 89  1  0
 87 91  1  0
 87 86  1  0
 88 87  2  0
 91 90  1  0
 93 94  1  0
 93 91  1  0
 93 92  1  0
M  ISO  4   5 100  18 100  53 101  54 101
M  END
>  <TORSDO>  (12) 
F 23

>  <SCORE>  (12) 
-5.452

>  <name>  (12) 
12

>  <ligand_id>  (12) 
12

>  <original_smiles>  (12) 
[H]c1c([H])c([H])c2c(c1[H])C([H])([H])C([H])([H])C([H])([H])C2([H])N([H])C(=O)C1([H])N(C(=O)C([H])(N([H])C(=O)C([H])(N([H])C([H])([H])[H])C([H])([H])[H])C(C([H])([H])[H])(C([H])([H])[H])C([H])([H])[H])C([H])([H])c2c([H])c(OC([H])([H])C([H])([H])C([H])([H])C([H])([H])C([H])([H])C([H])([H])[N+]([H])([H])C3([H])C([H])([H])N(C(=O)N4C([H])([H])C([H])([H])C([H])([H])C([H])(n5nc(-c6c([H])c([H])c(Oc7c([H])c([H])c(F)c([H])c7F)c([H])c6[H])c(C(=O)N([H])[H])c5N([H])[H])C4([H])[H])C([H])([H])C([H])([H])C3([H])C([H])([H])C([H])([H])[H])c([H])c([H])c2C1([H])[H]

>  <smiles>  (12) 
[H]c1c([H])c([H])c2c(c1[H])C([H])([H])C([H])([H])C([H])([H])C2([H])N([H])C(=O)C1([H])N(C(=O)C([H])(N([H])C(=O)C([H])(N([H])C([H])([H])[H])C([H])([H])[H])C(C([H])([H])[H])(C([H])([H])[H])C([H])([H])[H])C([H])([H])c2c([H])c(OC([H])([H])C([H])([H])C([H])([H])C([H])([H])C([H])([H])C([H])([H])[N+]([H])([H])C3([H])C([H])([H])N(C(=O)N4C([H])([H])C([H])([H])C([H])([H])C([H])(n5nc(-c6c([H])c([H])c(Oc7c([H])c([H])c(F)c([H])c7F)c([H])c6[H])c(C(=O)N([H])[H])c5N([H])[H])C4([H])[H])C([H])([H])C([H])([H])C3([H])C([H])([H])C([H])([H])[H])c([H])c([H])c2C1([H])[H]

$$$$
13:0:0
     RDKit          3D

 91 98  0  0  1  0  0  0  0  0999 V2000
  -29.6440  -20.6470   20.9510 N   0  0  0  0  0  4  0  0  0  0  0  0
  -30.3580  -20.9660   21.5860 H   0  0  0  0  0  0  0  0  0  0  0  0
  -30.0460  -20.6060   20.0300 H   0  0  0  0  0  0  0  0  0  0  0  0
  -28.5480  -21.6510   20.9540 C   0  0  0  0  0  2  0  0  0  0  0  0
  -28.8660  -22.8950   20.0870 C   0  0  0  0  0  2  0  0  0  0  0  0
  -27.9980  -24.1370   20.4110 C   0  0  0  0  0  2  0  0  0  0  0  0
  -28.1970  -25.2940   19.4050 C   0  0  0  0  0  2  0  0  0  0  0  0
  -28.1150  -26.5900   20.0030 O   0  0  0  0  0  0  0  0  0  0  0  0
  -24.6020  -31.8190   23.2540 C   0  0  0  0  0  0  0  0  0  0  0  0
  -26.9350  -27.3040   20.0320 C   0  0  0  0  0  0  0  0  0  0  0  0
  -23.2690  -30.4880   21.6450 C   0  0  0  0  0  3  0  0  0  0  0  0
  -24.5980  -28.9010   20.1520 C   0  0  0  0  0  0  0  0  0  0  0  0
  -25.7950  -30.7420   21.3500 C   0  0  0  0  0  2  0  0  0  0  0  0
  -25.7950  -29.3720   20.7000 C   0  0  0  0  0  0  0  0  0  0  0  0
  -26.9590  -28.5780   20.6420 C   0  0  0  0  0  3  0  0  0  0  0  0
  -25.7170  -26.8400   19.4830 C   0  0  0  0  0  3  0  0  0  0  0  0
  -24.5530  -27.6340   19.5410 C   0  0  0  0  0  3  0  0  0  0  0  0
  -23.3950  -29.8120   20.2530 C   0  0  0  0  0  2  0  0  0  0  0  0
  -24.5760  -31.0300   22.1420 N   0  0  0  0  0  0  0  0  0  0  0  0
  -23.5560  -32.1310   23.8400 O   0  0  0  0  0  0  0  0  0  0  0  0
  -22.6120  -29.4870   22.6220 C   0  0  0  0  0  0  0  0  0  0  0  0
  -21.2850  -29.3220   22.5060 N   0  0  0  0  0  0  0  0  0  0  0  0
  -23.2940  -28.8600   23.4380 O   0  0  0  0  0  0  0  0  0  0  0  0
  -20.7980  -29.8800   21.8190 H   0  0  0  0  0  0  0  0  0  0  0  0
  -17.9080  -28.1370   22.9920 C   0  0  0  0  0  0  0  0  0  0  0  0
  -20.4600  -28.4060   23.2930 C   0  0  0  0  0  3  0  0  0  0  0  0
  -20.5730  -26.9590   22.7580 C   0  0  0  0  0  2  0  0  0  0  0  0
  -19.4850  -26.6060   21.7370 C   0  0  0  0  0  2  0  0  0  0  0  0
  -18.0950  -26.7680   22.3570 C   0  0  0  0  0  2  0  0  0  0  0  0
  -19.0190  -28.9130   23.4160 C   0  0  0  0  0  0  0  0  0  0  0  0
  -18.7920  -30.1930   23.9650 C   0  0  0  0  0  3  0  0  0  0  0  0
  -17.4840  -30.6980   24.0980 C   0  0  0  0  0  3  0  0  0  0  0  0
  -16.3860  -29.9190   23.6930 C   0  0  0  0  0  3  0  0  0  0  0  0
  -16.5990  -28.6410   23.1460 C   0  0  0  0  0  3  0  0  0  0  0  0
  -25.9390  -32.3830   23.8280 C   0  0  0  0  0  3  0  0  0  0  0  0
  -26.4560  -31.5930   25.0930 C   0  0  1  0  0  0  0  0  0  0  0  0
  -25.3860  -31.4110   26.1950 C   0  0  0  0  0  1  0  0  0  0  0  0
  -26.9590  -30.1880   24.6900 C   0  0  0  0  0  1  0  0  0  0  0  0
  -27.6670  -32.3290   25.7130 C   0  0  0  0  0  1  0  0  0  0  0  0
  -25.7180  -33.7980   24.1510 N   0  0  0  0  0  0  0  0  0  0  0  0
  -26.0930  -34.8230   23.3720 C   0  0  0  0  0  0  0  0  0  0  0  0
  -26.7330  -34.6720   22.3290 O   0  0  0  0  0  0  0  0  0  0  0  0
  -25.1520  -33.9940   24.9640 H   0  0  0  0  0  0  0  0  0  0  0  0
  -24.4590  -36.7050   23.0310 C   0  0  0  0  0  1  0  0  0  0  0  0
  -25.6920  -36.2400   23.8230 C   0  0  0  0  0  3  0  0  0  0  0  0
  -27.8880  -37.0140   24.6040 C   0  0  0  0  0  1  0  0  0  0  0  0
  -26.7780  -37.2350   23.6800 N   0  0  0  0  0  0  0  0  0  0  0  0
  -26.4240  -38.1760   23.8320 H   0  0  0  0  0  0  0  0  0  0  0  0
  -29.2300  -19.2740   21.3390 C   0  0  0  0  0  2  0  0  0  0  0  0
  -31.3660  -18.8620   22.6800 C   0  0  0  0  0  1  0  0  0  0  0  0
  -30.4120  -18.2960   21.6150 C   0  0  0  0  0  3  0  0  0  0  0  0
  -31.2000  -17.8240   20.3660 C   0  0  0  0  0  2  0  0  0  0  0  0
  -30.4640  -16.8320   19.4470 C   0  0  0  0  0  2  0  0  0  0  0  0
  -31.0430  -14.4230   19.7160 C   0  0  0  0  0  0  0  0  0  0  0  0
  -30.7260  -12.1310   18.8880 C   0  0  0  0  0  2  0  0  0  0  0  0
  -29.7310  -12.1910   17.7110 C   0  0  0  0  0  2  0  0  0  0  0  0
  -28.2770  -12.1110   18.2180 C   0  0  0  0  0  2  0  0  0  0  0  0
  -27.9930  -13.0970   19.3830 C   0  0  0  0  0  3  0  0  0  0  0  0
  -29.0970  -13.0110   20.4620 C   0  0  0  0  0  2  0  0  0  0  0  0
  -30.3950  -13.2330   19.8040 N   0  0  0  0  0  0  0  0  0  0  0  0
  -32.1480  -14.5520   19.1800 O   0  0  0  0  0  0  0  0  0  0  0  0
  -30.2950  -15.4950   20.0330 N   0  0  0  0  0  0  0  0  0  0  0  0
  -29.4140  -15.2970   20.4850 H   0  0  0  0  0  0  0  0  0  0  0  0
  -25.6870  -13.8140   20.2760 C   0  0  0  0  0  0  0  0  0  0  0  0
  -24.6080  -13.0890   20.7080 C   0  0  0  0  0  0  0  0  0  0  0  0
  -24.9930  -11.7170   20.6140 C   0  0  0  0  0  0  0  0  0  0  0  0
  -26.6630  -12.8850   19.9500 N   0  0  0  0  0  0  0  0  0  0  0  0
  -26.2520  -11.6180   20.2090 N   0  0  0  0  0  0  0  0  0  0  0  0
  -24.2170  -10.4880   20.8310 C   0  0  0  0  0  0  0  0  0  0  0  0
  -24.5930   -9.5400   21.8050 C   0  0  0  0  0  3  0  0  0  0  0  0
  -23.8210   -8.3750   22.0080 C   0  0  0  0  0  3  0  0  0  0  0  0
  -22.6580   -8.1530   21.2320 C   0  0  0  0  0  0  0  0  0  0  0  0
  -22.3000   -9.0900   20.2470 C   0  0  0  0  0  3  0  0  0  0  0  0
  -23.0730  -10.2450   20.0440 C   0  0  0  0  0  3  0  0  0  0  0  0
  -21.8610   -7.0390   21.3410 O   0  0  0  0  0  0  0  0  0  0  0  0
  -21.6670   -6.4070   22.5440 C   0  0  0  0  0  0  0  0  0  0  0  0
  -21.1080   -7.0760   23.6550 C   0  0  0  0  0  3  0  0  0  0  0  0
  -20.8620   -6.3700   24.8500 C   0  0  0  0  0  3  0  0  0  0  0  0
  -21.1640   -4.9980   24.9330 C   0  0  0  0  0  0  0  0  0  0  0  0
  -21.7160   -4.3290   23.8260 C   0  0  0  0  0  3  0  0  0  0  0  0
  -21.9630   -5.0320   22.6330 C   0  0  0  0  0  0  0  0  0  0  0  0
  -22.4750   -4.3780   21.5630 F   0  0  0  0  0  0  0  0  0  0  0  0
  -20.9200   -4.3180   26.0770 F   0  0  0  0  0  0  0  0  0  0  0  0
  -23.2630  -13.6310   21.0950 C   0  0  0  0  0  0  0  0  0  0  0  0
  -22.5710  -12.9590   22.0100 N   0  0  0  0  0  0  0  0  0  0  0  0
  -22.8360  -14.6820   20.6190 O   0  0  0  0  0  0  0  0  0  0  0  0
  -22.9310  -12.1060   22.4120 H   0  0  0  0  0  0  0  0  0  0  0  0
  -21.6720  -13.3020   22.3120 H   0  0  0  0  0  0  0  0  0  0  0  0
  -25.9090  -15.1790   20.1140 N   0  0  0  0  0  0  0  0  0  0  0  0
  -25.1800  -15.8630   20.2810 H   0  0  0  0  0  0  0  0  0  0  0  0
  -26.7420  -15.5780   19.6980 H   0  0  0  0  0  0  0  0  0  0  0  0
  1  4  1  0
  1 49  1  0
  1  2  1  0
  3  1  1  0
  5  6  1  0
  5  4  1  0
  7  8  1  0
  7  6  1  0
  8 10  1  0
  9 20  2  0
 10 15  1  0
 11 19  1  0
 11 21  1  0
 12 18  1  0
 12 14  1  0
 13 19  1  0
 14 13  1  0
 15 14  2  0
 16 17  1  0
 16 10  2  0
 17 12  2  0
 18 11  1  0
 19  9  1  0
 21 23  2  0
 22 21  1  0
 24 22  1  0
 25 34  2  0
 25 30  1  0
 26 22  1  0
 26 30  1  0
 27 26  1  0
 28 29  1  0
 28 27  1  0
 29 25  1  0
 30 31  2  0
 31 32  1  0
 33 32  2  0
 34 33  1  0
 35  9  1  0
 35 40  1  0
 35 36  1  0
 36 39  1  1
 36 37  1  0
 38 36  1  0
 40 43  1  0
 41 45  1  0
 41 40  1  0
 42 41  2  0
 45 44  1  0
 47 45  1  0
 47 48  1  0
 47 46  1  0
 49 51  1  0
 51 50  1  0
 52 51  1  0
 53 62  1  0
 53 52  1  0
 54 60  1  0
 54 62  1  0
 55 60  1  0
 56 57  1  0
 56 55  1  0
 58 57  1  0
 58 67  1  0
 58 59  1  0
 60 59  1  0
 61 54  2  0
 62 63  1  0
 64 65  2  0
 65 84  1  0
 66 65  1  0
 66 69  1  0
 67 68  1  0
 67 64  1  0
 68 66  2  0
 69 70  1  0
 70 71  2  0
 72 75  1  0
 72 71  1  0
 73 72  2  0
 74 73  1  0
 74 69  2  0
 75 76  1  0
 76 81  2  0
 76 77  1  0
 77 78  2  0
 78 79  1  0
 79 83  1  0
 80 79  2  0
 81 80  1  0
 82 81  1  0
 84 85  1  0
 85 88  1  0
 85 87  1  0
 86 84  2  0
 89 64  1  0
 89 90  1  0
 91 89  1  0
M  ISO  4   7 101   8 101  54 100  62 100
M  END
>  <TORSDO>  (13) 
F 24

>  <SCORE>  (13) 
-11.194

>  <name>  (13) 
13

>  <ligand_id>  (13) 
13

>  <original_smiles>  (13) 
[H]c1c([H])c([H])c2c(c1[H])C([H])([H])C([H])([H])C([H])([H])C2([H])N([H])C(=O)C1([H])N(C(=O)C([H])(N([H])C(=O)C([H])(N([H])C([H])([H])[H])C([H])([H])[H])C(C([H])([H])[H])(C([H])([H])[H])C([H])([H])[H])C([H])([H])c2c([H])c(OC([H])([H])C([H])([H])C([H])([H])C([H])([H])[N+]([H])([H])C([H])([H])C([H])(C([H])([H])[H])C([H])([H])C([H])([H])N([H])C(=O)N3C([H])([H])C([H])([H])C([H])([H])C([H])(n4nc(-c5c([H])c([H])c(Oc6c([H])c([H])c(F)c([H])c6F)c([H])c5[H])c(C(=O)N([H])[H])c4N([H])[H])C3([H])[H])c([H])c([H])c2C1([H])[H]

>  <smiles>  (13) 
[H]c1c([H])c([H])c2c(c1[H])C([H])([H])C([H])([H])C([H])([H])C2([H])N([H])C(=O)C1([H])N(C(=O)C([H])(N([H])C(=O)C([H])(N([H])C([H])([H])[H])C([H])([H])[H])C(C([H])([H])[H])(C([H])([H])[H])C([H])([H])[H])C([H])([H])c2c([H])c(OC([H])([H])C([H])([H])C([H])([H])C([H])([H])[N+]([H])([H])C([H])([H])C([H])(C([H])([H])[H])C([H])([H])C([H])([H])N([H])C(=O)N3C([H])([H])C([H])([H])C([H])([H])C([H])(n4nc(-c5c([H])c([H])c(Oc6c([H])c([H])c(F)c([H])c6F)c([H])c5[H])c(C(=O)N([H])[H])c4N([H])[H])C3([H])[H])c([H])c([H])c2C1([H])[H]

$$$$
14:0:0
     RDKit          3D

 98107  0  0  1  0  0  0  0  0999 V2000
  -26.0360  -20.4740   18.2910 C   0  0  0  0  0  2  0  0  0  0  0  0
  -27.5270  -20.2710   18.4650 C   0  0  0  0  0  3  0  0  0  0  0  0
  -26.8510  -21.4790   19.0780 C   0  0  0  0  0  3  0  0  0  0  0  0
  -29.1510  -18.3770   18.8040 C   0  0  0  0  0  3  0  0  0  0  0  0
  -29.0480  -16.9050   20.7440 C   0  0  0  0  0  3  0  0  0  0  0  0
  -27.4500  -18.7350   20.5030 C   0  0  0  0  0  3  0  0  0  0  0  0
  -29.6500  -17.2690   19.5200 C   0  0  0  0  0  0  0  0  0  0  0  0
  -28.0420  -19.1130   19.2780 C   0  0  0  0  0  0  0  0  0  0  0  0
  -27.9540  -17.6440   21.2390 C   0  0  0  0  0  0  0  0  0  0  0  0
  -27.3180  -17.2700   22.5630 C   0  0  0  0  0  1  0  0  0  0  0  0
  -31.3420  -14.1460   18.6190 C   0  0  0  0  0  0  0  0  0  0  0  0
  -30.8950  -11.8210   17.9420 C   0  0  0  0  0  2  0  0  0  0  0  0
  -29.6460  -11.8090   17.0360 C   0  0  0  0  0  2  0  0  0  0  0  0
  -28.3480  -11.7390   17.8660 C   0  0  0  0  0  2  0  0  0  0  0  0
  -28.3200  -12.7760   19.0210 C   0  0  0  0  0  3  0  0  0  0  0  0
  -29.6440  -12.7250   19.8200 C   0  0  0  0  0  2  0  0  0  0  0  0
  -30.7560  -12.9470   18.8750 N   0  0  0  0  0  0  0  0  0  0  0  0
  -32.2750  -14.2750   17.8160 O   0  0  0  0  0  0  0  0  0  0  0  0
  -30.7960  -16.4810   18.9560 C   0  0  0  0  0  0  0  0  0  0  0  0
  -30.6970  -15.1700   19.1990 N   0  0  0  0  0  0  0  0  0  0  0  0
  -31.6560  -17.0330   18.2600 O   0  0  0  0  0  0  0  0  0  0  0  0
  -29.9300  -14.9080   19.7930 H   0  0  0  0  0  0  0  0  0  0  0  0
  -26.5480  -13.4750   20.7560 C   0  0  0  0  0  0  0  0  0  0  0  0
  -25.4610  -12.8170   21.2660 C   0  0  0  0  0  0  0  0  0  0  0  0
  -25.4590  -11.5270   20.6550 C   0  0  0  0  0  0  0  0  0  0  0  0
  -27.1560  -12.5850   19.8840 N   0  0  0  0  0  0  0  0  0  0  0  0
  -26.5180  -11.3870   19.8690 N   0  0  0  0  0  0  0  0  0  0  0  0
  -24.4810  -10.4340   20.7280 C   0  0  0  0  0  0  0  0  0  0  0  0
  -24.7260   -9.2710   21.4910 C   0  0  0  0  0  3  0  0  0  0  0  0
  -23.7610   -8.2430   21.5600 C   0  0  0  0  0  3  0  0  0  0  0  0
  -22.5360   -8.3730   20.8630 C   0  0  0  0  0  0  0  0  0  0  0  0
  -22.3070   -9.5210   20.0850 C   0  0  0  0  0  3  0  0  0  0  0  0
  -23.2710  -10.5420   20.0140 C   0  0  0  0  0  3  0  0  0  0  0  0
  -21.5510   -7.4160   20.8530 O   0  0  0  0  0  0  0  0  0  0  0  0
  -21.1990   -6.7310   21.9880 C   0  0  0  0  0  0  0  0  0  0  0  0
  -20.6490   -7.3850   23.1110 C   0  0  0  0  0  3  0  0  0  0  0  0
  -20.2360   -6.6360   24.2310 C   0  0  0  0  0  3  0  0  0  0  0  0
  -20.3630   -5.2340   24.2250 C   0  0  0  0  0  0  0  0  0  0  0  0
  -20.9040   -4.5800   23.1040 C   0  0  0  0  0  3  0  0  0  0  0  0
  -21.3170   -5.3270   21.9880 C   0  0  0  0  0  0  0  0  0  0  0  0
  -21.8180   -4.6900   20.9020 F   0  0  0  0  0  0  0  0  0  0  0  0
  -19.9590   -4.5110   25.2970 F   0  0  0  0  0  0  0  0  0  0  0  0
  -24.4250  -13.3850   22.1950 C   0  0  0  0  0  0  0  0  0  0  0  0
  -23.7940  -12.5380   23.0020 N   0  0  0  0  0  0  0  0  0  0  0  0
  -24.2010  -14.5930   22.2420 O   0  0  0  0  0  0  0  0  0  0  0  0
  -23.9910  -11.5500   22.9760 H   0  0  0  0  0  0  0  0  0  0  0  0
  -23.1020  -12.8850   23.6520 H   0  0  0  0  0  0  0  0  0  0  0  0
  -27.0570  -14.7560   20.9480 N   0  0  0  0  0  0  0  0  0  0  0  0
  -26.6120  -15.4210   21.5710 H   0  0  0  0  0  0  0  0  0  0  0  0
  -27.8830  -15.1320   20.5000 H   0  0  0  0  0  0  0  0  0  0  0  0
  -27.0920  -22.7330   18.3340 N   0  0  0  0  0  4  0  0  0  0  0  0
  -26.2670  -22.9710   17.8040 H   0  0  0  0  0  0  0  0  0  0  0  0
  -27.8440  -22.5860   17.6830 H   0  0  0  0  0  0  0  0  0  0  0  0
  -27.4440  -23.8840   19.1890 C   0  0  0  0  0  2  0  0  0  0  0  0
  -28.5900  -24.7130   18.5850 C   0  0  0  0  0  3  0  0  0  0  0  0
  -29.6080  -23.8900   18.3180 F   0  0  0  0  0  0  0  0  0  0  0  0
  -29.0660  -25.8480   19.5170 C   0  0  0  0  0  2  0  0  0  0  0  0
  -28.9290  -27.1450   18.9350 O   0  0  0  0  0  0  0  0  0  0  0  0
  -25.3260  -31.1140   23.6140 C   0  0  0  0  0  0  0  0  0  0  0  0
  -27.7710  -27.8230   19.2270 C   0  0  0  0  0  0  0  0  0  0  0  0
  -24.0540  -30.3690   21.6260 C   0  0  0  0  0  3  0  0  0  0  0  0
  -25.4350  -29.3120   19.7620 C   0  0  0  0  0  0  0  0  0  0  0  0
  -26.5900  -30.6710   21.5140 C   0  0  0  0  0  2  0  0  0  0  0  0
  -26.6130  -29.5750   20.4730 C   0  0  0  0  0  0  0  0  0  0  0  0
  -27.7850  -28.8350   20.2090 C   0  0  0  0  0  3  0  0  0  0  0  0
  -26.5810  -27.5760   18.5090 C   0  0  0  0  0  3  0  0  0  0  0  0
  -25.4110  -28.3080   18.7790 C   0  0  0  0  0  3  0  0  0  0  0  0
  -24.2300  -30.1610   20.0980 C   0  0  0  0  0  2  0  0  0  0  0  0
  -25.3420  -30.7110   22.3110 N   0  0  0  0  0  0  0  0  0  0  0  0
  -24.2590  -31.2430   24.2300 O   0  0  0  0  0  0  0  0  0  0  0  0
  -23.3600  -29.1220   22.2150 C   0  0  0  0  0  0  0  0  0  0  0  0
  -22.0370  -29.0210   22.0080 N   0  0  0  0  0  0  0  0  0  0  0  0
  -24.0100  -28.2600   22.8150 O   0  0  0  0  0  0  0  0  0  0  0  0
  -21.5780  -29.7720   21.5110 H   0  0  0  0  0  0  0  0  0  0  0  0
  -18.6550  -27.7560   21.9220 C   0  0  0  0  0  0  0  0  0  0  0  0
  -21.1820  -27.9150   22.4370 C   0  0  0  0  0  3  0  0  0  0  0  0
  -21.3420  -26.6900   21.5070 C   0  0  0  0  0  2  0  0  0  0  0  0
  -20.3220  -26.6640   20.3650 C   0  0  0  0  0  2  0  0  0  0  0  0
  -18.8960  -26.6390   20.9230 C   0  0  0  0  0  2  0  0  0  0  0  0
  -19.7290  -28.3680   22.6200 C   0  0  0  0  0  0  0  0  0  0  0  0
  -19.4550  -29.4280   23.5100 C   0  0  0  0  0  3  0  0  0  0  0  0
  -18.1360  -29.8770   23.7080 C   0  0  0  0  0  3  0  0  0  0  0  0
  -17.0740  -29.2580   23.0270 C   0  0  0  0  0  3  0  0  0  0  0  0
  -17.3330  -28.1970   22.1410 C   0  0  0  0  0  3  0  0  0  0  0  0
  -26.6420  -31.4530   24.3800 C   0  0  0  0  0  3  0  0  0  0  0  0
  -26.4020  -32.6830   25.1470 N   0  0  0  0  0  0  0  0  0  0  0  0
  -26.8620  -33.8940   24.8030 C   0  0  0  0  0  0  0  0  0  0  0  0
  -27.6010  -34.0800   23.8320 O   0  0  0  0  0  0  0  0  0  0  0  0
  -25.7590  -32.6160   25.9230 H   0  0  0  0  0  0  0  0  0  0  0  0
  -25.2940  -35.8530   24.9750 C   0  0  0  0  0  1  0  0  0  0  0  0
  -26.4310  -35.0890   25.6740 C   0  0  0  0  0  3  0  0  0  0  0  0
  -28.5350  -35.4480   26.8870 C   0  0  0  0  0  1  0  0  0  0  0  0
  -27.5380  -36.0190   25.9860 N   0  0  0  0  0  0  0  0  0  0  0  0
  -27.1820  -36.8730   26.4060 H   0  0  0  0  0  0  0  0  0  0  0  0
  -27.1280  -30.2890   25.3280 C   0  0  1  0  0  0  0  0  0  0  0  0
  -26.0370  -29.7820   26.3000 C   0  0  0  0  0  1  0  0  0  0  0  0
  -27.6190  -29.0790   24.4970 C   0  0  0  0  0  1  0  0  0  0  0  0
  -28.3340  -30.7670   26.1720 C   0  0  0  0  0  1  0  0  0  0  0  0
  1  2  1  0
  1  3  1  0
  2  3  1  0
  2  8  1  0
  3 51  1  0
  4  8  2  0
  4  7  1  0
  5  9  1  0
  6  9  2  0
  7  5  2  0
  8  6  1  0
  9 10  1  0
 11 17  1  0
 11 20  1  0
 12 17  1  0
 13 14  1  0
 13 12  1  0
 15 14  1  0
 15 16  1  0
 15 26  1  0
 17 16  1  0
 18 11  2  0
 19 20  1  0
 19  7  1  0
 20 22  1  0
 21 19  2  0
 23 48  1  0
 23 24  2  0
 24 43  1  0
 25 28  1  0
 25 24  1  0
 26 23  1  0
 27 26  1  0
 27 25  2  0
 28 29  1  0
 29 30  2  0
 31 30  1  0
 32 31  2  0
 33 32  1  0
 33 28  2  0
 34 31  1  0
 34 35  1  0
 35 40  2  0
 35 36  1  0
 36 37  2  0
 38 37  1  0
 38 42  1  0
 39 38  2  0
 40 39  1  0
 41 40  1  0
 43 45  2  0
 43 44  1  0
 44 47  1  0
 46 44  1  0
 48 49  1  0
 50 48  1  0
 51 54  1  0
 52 51  1  0
 53 51  1  0
 55 56  1  0
 55 54  1  0
 55 57  1  0
 58 60  1  0
 58 57  1  0
 59 70  2  0
 60 65  1  0
 61 71  1  0
 61 69  1  0
 62 68  1  0
 62 64  1  0
 63 69  1  0
 64 63  1  0
 65 64  2  0
 66 67  1  0
 66 60  2  0
 67 62  2  0
 68 61  1  0
 69 59  1  0
 71 73  2  0
 72 71  1  0
 74 72  1  0
 75 84  2  0
 75 80  1  0
 76 72  1  0
 76 80  1  0
 77 76  1  0
 78 79  1  0
 78 77  1  0
 79 75  1  0
 80 81  2  0
 81 82  1  0
 83 82  2  0
 84 83  1  0
 85 59  1  0
 85 86  1  0
 85 95  1  0
 86 89  1  0
 87 86  1  0
 87 91  1  0
 88 87  2  0
 91 90  1  0
 91 93  1  0
 93 94  1  0
 93 92  1  0
 95 98  1  1
 95 96  1  0
 97 95  1  0
M  ISO  4  11 100  20 100  57 101  58 101
M  END
>  <TORSDO>  (14) 
F 21

>  <SCORE>  (14) 
2.628

>  <name>  (14) 
14

>  <ligand_id>  (14) 
14

>  <original_smiles>  (14) 
[H]c1c([H])c([H])c2c(c1[H])C([H])([H])C([H])([H])C([H])([H])C2([H])N([H])C(=O)C1([H])N(C(=O)C([H])(N([H])C(=O)C([H])(N([H])C([H])([H])[H])C([H])([H])[H])C(C([H])([H])[H])(C([H])([H])[H])C([H])([H])[H])C([H])([H])c2c([H])c(OC([H])([H])C([H])(F)C([H])([H])[N+]([H])([H])C3([H])C([H])([H])C3([H])c3c([H])c(C(=O)N([H])C(=O)N4C([H])([H])C([H])([H])C([H])([H])C([H])(n5nc(-c6c([H])c([H])c(Oc7c([H])c([H])c(F)c([H])c7F)c([H])c6[H])c(C(=O)N([H])[H])c5N([H])[H])C4([H])[H])c([H])c(C([H])([H])[H])c3[H])c([H])c([H])c2C1([H])[H]

>  <smiles>  (14) 
[H]c1c([H])c([H])c2c(c1[H])C([H])([H])C([H])([H])C([H])([H])C2([H])N([H])C(=O)C1([H])N(C(=O)C([H])(N([H])C(=O)C([H])(N([H])C([H])([H])[H])C([H])([H])[H])C(C([H])([H])[H])(C([H])([H])[H])C([H])([H])[H])C([H])([H])c2c([H])c(OC([H])([H])C([H])(F)C([H])([H])[N+]([H])([H])C3([H])C([H])([H])C3([H])c3c([H])c(C(=O)N([H])C(=O)N4C([H])([H])C([H])([H])C([H])([H])C([H])(n5nc(-c6c([H])c([H])c(Oc7c([H])c([H])c(F)c([H])c7F)c([H])c6[H])c(C(=O)N([H])[H])c5N([H])[H])C4([H])[H])c([H])c(C([H])([H])[H])c3[H])c([H])c([H])c2C1([H])[H]

$$$$
15:0:0
     RDKit          3D

 94102  0  0  1  0  0  0  0  0999 V2000
  -27.8980  -22.4830   20.0120 C   0  0  0  0  0  2  0  0  0  0  0  0
  -28.5870  -23.1630   22.3680 C   0  0  0  0  0  2  0  0  0  0  0  0
  -27.8200  -21.1190   20.7310 C   0  0  0  0  0  2  0  0  0  0  0  0
  -28.0210  -23.6580   21.0100 C   0  0  0  0  0  3  0  0  0  0  0  0
  -29.6240  -22.0240   22.2000 C   0  0  0  0  0  3  0  0  0  0  0  0
  -30.2440  -21.6560   23.5610 C   0  0  0  0  0  1  0  0  0  0  0  0
  -29.0520  -20.8170   21.5180 N   0  0  2  0  0  4  0  0  0  0  0  0
  -28.7450  -20.1990   22.2570 H   0  0  0  0  0  0  0  0  0  0  0  0
  -28.8040  -24.8470   20.4130 C   0  0  0  0  0  0  0  0  0  0  0  0
  -29.8090  -25.3040   20.9680 O   0  0  0  0  0  0  0  0  0  0  0  0
  -28.3050  -25.4380   19.0860 C   0  0  0  0  0  2  0  0  0  0  0  0
  -28.2920  -26.8710   19.1450 O   0  0  0  0  0  0  0  0  0  0  0  0
  -24.7200  -31.6290   23.0280 C   0  0  0  0  0  0  0  0  0  0  0  0
  -27.0930  -27.5310   19.3180 C   0  0  0  0  0  0  0  0  0  0  0  0
  -23.3780  -30.3910   21.3620 C   0  0  0  0  0  3  0  0  0  0  0  0
  -24.7030  -29.0080   19.6780 C   0  0  0  0  0  0  0  0  0  0  0  0
  -25.8770  -30.7800   20.9900 C   0  0  0  0  0  2  0  0  0  0  0  0
  -25.9030  -29.4760   20.2210 C   0  0  0  0  0  0  0  0  0  0  0  0
  -27.0980  -28.7450   20.0400 C   0  0  0  0  0  3  0  0  0  0  0  0
  -25.8680  -27.0730   18.7750 C   0  0  0  0  0  3  0  0  0  0  0  0
  -24.6800  -27.8050   18.9530 C   0  0  0  0  0  3  0  0  0  0  0  0
  -23.4700  -29.8540   19.9080 C   0  0  0  0  0  2  0  0  0  0  0  0
  -24.6820  -30.9430   21.8520 N   0  0  0  0  0  0  0  0  0  0  0  0
  -23.6880  -31.8390   23.6790 O   0  0  0  0  0  0  0  0  0  0  0  0
  -22.8080  -29.2730   22.2640 C   0  0  0  0  0  0  0  0  0  0  0  0
  -21.4840  -29.0600   22.1840 N   0  0  0  0  0  0  0  0  0  0  0  0
  -23.5490  -28.6070   22.9910 O   0  0  0  0  0  0  0  0  0  0  0  0
  -20.9460  -29.6530   21.5680 H   0  0  0  0  0  0  0  0  0  0  0  0
  -18.1880  -27.6650   22.6670 C   0  0  0  0  0  0  0  0  0  0  0  0
  -20.7320  -28.0390   22.9150 C   0  0  0  0  0  3  0  0  0  0  0  0
  -20.8980  -26.6500   22.2570 C   0  0  0  0  0  2  0  0  0  0  0  0
  -19.7950  -26.3260   21.2440 C   0  0  0  0  0  2  0  0  0  0  0  0
  -18.4210  -26.3630   21.9180 C   0  0  0  0  0  2  0  0  0  0  0  0
  -19.2750  -28.4580   23.1240 C   0  0  0  0  0  0  0  0  0  0  0  0
  -19.0030  -29.6750   23.7860 C   0  0  0  0  0  3  0  0  0  0  0  0
  -17.6780  -30.1000   23.9960 C   0  0  0  0  0  3  0  0  0  0  0  0
  -16.6070  -29.3030   23.5570 C   0  0  0  0  0  3  0  0  0  0  0  0
  -16.8630  -28.0870   22.8970 C   0  0  0  0  0  3  0  0  0  0  0  0
  -26.0540  -32.1980   23.6010 C   0  0  0  0  0  3  0  0  0  0  0  0
  -25.7660  -33.5270   24.1560 N   0  0  0  0  0  0  0  0  0  0  0  0
  -26.0390  -34.6840   23.5380 C   0  0  0  0  0  0  0  0  0  0  0  0
  -26.6350  -34.7430   22.4590 O   0  0  0  0  0  0  0  0  0  0  0  0
  -25.2260  -33.5560   25.0080 H   0  0  0  0  0  0  0  0  0  0  0  0
  -24.2890  -36.4890   23.5590 C   0  0  0  0  0  1  0  0  0  0  0  0
  -25.5760  -35.9830   24.2260 C   0  0  0  0  0  3  0  0  0  0  0  0
  -27.7580  -36.7540   25.0470 C   0  0  0  0  0  1  0  0  0  0  0  0
  -26.5980  -37.0510   24.2110 N   0  0  0  0  0  0  0  0  0  0  0  0
  -26.2020  -37.9350   24.5190 H   0  0  0  0  0  0  0  0  0  0  0  0
  -26.7140  -31.2660   24.6900 C   0  0  1  0  0  0  0  0  0  0  0  0
  -25.7440  -30.8500   25.8220 C   0  0  0  0  0  1  0  0  0  0  0  0
  -27.2590  -29.9730   24.0380 C   0  0  0  0  0  1  0  0  0  0  0  0
  -27.9220  -31.9850   25.3350 C   0  0  0  0  0  1  0  0  0  0  0  0
  -30.0850  -20.0660   20.7460 C   0  0  0  0  0  2  0  0  0  0  0  0
  -29.7230  -18.5960   20.3970 C   0  0  0  0  0  2  0  0  0  0  0  0
  -30.9310  -17.8130   19.8320 C   0  0  0  0  0  2  0  0  0  0  0  0
  -31.6030  -16.8340   20.8170 C   0  0  0  0  0  2  0  0  0  0  0  0
  -31.4910  -14.5020   19.9390 C   0  0  0  0  0  0  0  0  0  0  0  0
  -31.0480  -12.2750   18.9830 C   0  0  0  0  0  2  0  0  0  0  0  0
  -30.0870  -12.3820   17.7820 C   0  0  0  0  0  2  0  0  0  0  0  0
  -28.6210  -12.3520   18.2500 C   0  0  0  0  0  2  0  0  0  0  0  0
  -28.3470  -13.3420   19.4170 C   0  0  0  0  0  3  0  0  0  0  0  0
  -29.4130  -13.1960   20.5250 C   0  0  0  0  0  2  0  0  0  0  0  0
  -30.7450  -13.3660   19.9180 N   0  0  0  0  0  0  0  0  0  0  0  0
  -32.5130  -14.6500   19.2640 O   0  0  0  0  0  0  0  0  0  0  0  0
  -31.0320  -15.4850   20.7310 N   0  0  0  0  0  0  0  0  0  0  0  0
  -30.2290  -15.2810   21.3080 H   0  0  0  0  0  0  0  0  0  0  0  0
  -26.0470  -14.1510   20.2510 C   0  0  0  0  0  0  0  0  0  0  0  0
  -24.9280  -13.4720   20.6550 C   0  0  0  0  0  0  0  0  0  0  0  0
  -25.2580  -12.0840   20.5690 C   0  0  0  0  0  0  0  0  0  0  0  0
  -26.9920  -13.1840   19.9480 N   0  0  0  0  0  0  0  0  0  0  0  0
  -26.5220  -11.9330   20.1950 N   0  0  0  0  0  0  0  0  0  0  0  0
  -24.4280  -10.8890   20.7660 C   0  0  0  0  0  0  0  0  0  0  0  0
  -24.7980   -9.8800   21.6830 C   0  0  0  0  0  3  0  0  0  0  0  0
  -23.9770   -8.7470   21.8700 C   0  0  0  0  0  3  0  0  0  0  0  0
  -22.7730   -8.6160   21.1390 C   0  0  0  0  0  0  0  0  0  0  0  0
  -22.4210   -9.6120   20.2100 C   0  0  0  0  0  3  0  0  0  0  0  0
  -23.2410  -10.7380   20.0230 C   0  0  0  0  0  3  0  0  0  0  0  0
  -21.9250   -7.5380   21.2350 O   0  0  0  0  0  0  0  0  0  0  0  0
  -21.8030   -6.8200   22.3970 C   0  0  0  0  0  0  0  0  0  0  0  0
  -21.4250   -7.4280   23.6140 C   0  0  0  0  0  3  0  0  0  0  0  0
  -21.2450   -6.6390   24.7690 C   0  0  0  0  0  3  0  0  0  0  0  0
  -21.4310   -5.2450   24.7080 C   0  0  0  0  0  0  0  0  0  0  0  0
  -21.7980   -4.6370   23.4940 C   0  0  0  0  0  3  0  0  0  0  0  0
  -21.9810   -5.4220   22.3420 C   0  0  0  0  0  0  0  0  0  0  0  0
  -22.3170   -4.8280   21.1710 F   0  0  0  0  0  0  0  0  0  0  0  0
  -21.2490   -4.4880   25.8130 F   0  0  0  0  0  0  0  0  0  0  0  0
  -23.5960  -14.0690   21.0070 C   0  0  0  0  0  0  0  0  0  0  0  0
  -22.8530  -13.4270   21.9040 N   0  0  0  0  0  0  0  0  0  0  0  0
  -23.2230  -15.1350   20.5220 O   0  0  0  0  0  0  0  0  0  0  0  0
  -23.1690  -12.5660   22.3270 H   0  0  0  0  0  0  0  0  0  0  0  0
  -21.9560  -13.8040   22.1750 H   0  0  0  0  0  0  0  0  0  0  0  0
  -26.3350  -15.5040   20.0970 N   0  0  0  0  0  0  0  0  0  0  0  0
  -25.6430  -16.2310   20.2490 H   0  0  0  0  0  0  0  0  0  0  0  0
  -27.2130  -15.8570   19.7370 H   0  0  0  0  0  0  0  0  0  0  0  0
  1  3  1  0
  1  4  1  0
  3  7  1  0
  4  9  1  0
  4  2  1  0
  5  2  1  0
  5  6  1  0
  7  5  1  0
  7  8  1  1
  9 10  2  0
 11 12  1  0
 11  9  1  0
 12 14  1  0
 13 24  2  0
 14 19  1  0
 15 23  1  0
 15 25  1  0
 16 22  1  0
 16 18  1  0
 17 23  1  0
 18 17  1  0
 19 18  2  0
 20 21  1  0
 20 14  2  0
 21 16  2  0
 22 15  1  0
 23 13  1  0
 25 27  2  0
 26 25  1  0
 28 26  1  0
 29 38  2  0
 29 34  1  0
 30 26  1  0
 30 34  1  0
 31 30  1  0
 32 33  1  0
 32 31  1  0
 33 29  1  0
 34 35  2  0
 35 36  1  0
 37 36  2  0
 38 37  1  0
 39 13  1  0
 39 40  1  0
 39 49  1  0
 40 43  1  0
 41 40  1  0
 41 45  1  0
 42 41  2  0
 45 44  1  0
 47 45  1  0
 47 48  1  0
 47 46  1  0
 49 52  1  1
 49 50  1  0
 51 49  1  0
 53  7  1  0
 54 53  1  0
 55 54  1  0
 55 56  1  0
 57 65  1  0
 58 63  1  0
 59 60  1  0
 59 58  1  0
 61 60  1  0
 61 70  1  0
 61 62  1  0
 63 57  1  0
 63 62  1  0
 64 57  2  0
 65 56  1  0
 65 66  1  0
 67 68  2  0
 68 87  1  0
 69 68  1  0
 69 72  1  0
 70 71  1  0
 70 67  1  0
 71 69  2  0
 72 73  1  0
 73 74  2  0
 75 78  1  0
 75 74  1  0
 76 75  2  0
 77 76  1  0
 77 72  2  0
 78 79  1  0
 79 80  1  0
 80 81  2  0
 82 81  1  0
 82 86  1  0
 83 82  2  0
 84 79  2  0
 84 83  1  0
 85 84  1  0
 87 88  1  0
 88 91  1  0
 88 90  1  0
 89 87  2  0
 92 93  1  0
 92 67  1  0
 94 92  1  0
M  ISO  4  11 101  12 101  57 100  65 100
M  END
>  <TORSDO>  (15) 
F 22

>  <SCORE>  (15) 
-11.930

>  <name>  (15) 
15

>  <ligand_id>  (15) 
15

>  <original_smiles>  (15) 
[H]c1c([H])c([H])c2c(c1[H])C([H])([H])C([H])([H])C([H])([H])C2([H])N([H])C(=O)C1([H])N(C(=O)C([H])(N([H])C(=O)C([H])(N([H])C([H])([H])[H])C([H])([H])[H])C(C([H])([H])[H])(C([H])([H])[H])C([H])([H])[H])C([H])([H])c2c([H])c(OC([H])([H])C(=O)C3([H])C([H])([H])C([H])([H])[N+]([H])(C([H])([H])C([H])([H])C([H])([H])C([H])([H])N([H])C(=O)N4C([H])([H])C([H])([H])C([H])([H])C([H])(n5nc(-c6c([H])c([H])c(Oc7c([H])c([H])c(F)c([H])c7F)c([H])c6[H])c(C(=O)N([H])[H])c5N([H])[H])C4([H])[H])C([H])(C([H])([H])[H])C3([H])[H])c([H])c([H])c2C1([H])[H]

>  <smiles>  (15) 
[H]c1c([H])c([H])c2c(c1[H])C([H])([H])C([H])([H])C([H])([H])C2([H])N([H])C(=O)C1([H])N(C(=O)C([H])(N([H])C(=O)C([H])(N([H])C([H])([H])[H])C([H])([H])[H])C(C([H])([H])[H])(C([H])([H])[H])C([H])([H])[H])C([H])([H])c2c([H])c(OC([H])([H])C(=O)C3([H])C([H])([H])C([H])([H])[N+]([H])(C([H])([H])C([H])([H])C([H])([H])C([H])([H])N([H])C(=O)N4C([H])([H])C([H])([H])C([H])([H])C([H])(n5nc(-c6c([H])c([H])c(Oc7c([H])c([H])c(F)c([H])c7F)c([H])c6[H])c(C(=O)N([H])[H])c5N([H])[H])C4([H])[H])C([H])(C([H])([H])[H])C3([H])[H])c([H])c([H])c2C1([H])[H]

$$$$
16:0:0
     RDKit          3D

104112  0  0  1  0  0  0  0  0999 V2000
  -31.5250  -17.0380   22.2890 C   0  0  0  0  0  2  0  0  0  0  0  0
  -31.8660  -18.3960   22.9540 C   0  0  0  0  0  2  0  0  0  0  0  0
  -30.6760  -19.1850   23.5370 C   0  0  0  0  0  2  0  0  0  0  0  0
  -30.9740  -20.6900   23.7270 C   0  0  0  0  0  2  0  0  0  0  0  0
  -29.8560  -21.5010   23.2040 N   0  0  0  0  0  4  0  0  0  0  0  0
  -29.1060  -21.5210   23.8800 H   0  0  0  0  0  0  0  0  0  0  0  0
  -29.5100  -21.0270   22.3880 H   0  0  0  0  0  0  0  0  0  0  0  0
  -30.1910  -22.8810   22.7980 C   0  0  0  0  0  2  0  0  0  0  0  0
  -29.1140  -23.4280   21.8450 C   0  0  0  0  0  2  0  0  0  0  0  0
  -29.3380  -24.8880   21.4230 C   0  0  0  0  0  2  0  0  0  0  0  0
  -28.2240  -25.3730   20.4880 C   0  0  0  0  0  2  0  0  0  0  0  0
  -28.3470  -26.7810   20.3030 O   0  0  0  0  0  0  0  0  0  0  0  0
  -24.5340  -31.9680   23.2610 C   0  0  0  0  0  0  0  0  0  0  0  0
  -27.1680  -27.4860   20.2660 C   0  0  0  0  0  0  0  0  0  0  0  0
  -23.3250  -30.5450   21.6380 C   0  0  0  0  0  3  0  0  0  0  0  0
  -24.7740  -28.9790   20.2420 C   0  0  0  0  0  0  0  0  0  0  0  0
  -25.8470  -30.8980   21.4350 C   0  0  0  0  0  2  0  0  0  0  0  0
  -25.9300  -29.5160   20.8230 C   0  0  0  0  0  0  0  0  0  0  0  0
  -27.1300  -28.7760   20.8320 C   0  0  0  0  0  3  0  0  0  0  0  0
  -25.9960  -26.9580   19.6730 C   0  0  0  0  0  3  0  0  0  0  0  0
  -24.8000  -27.6980   19.6660 C   0  0  0  0  0  3  0  0  0  0  0  0
  -23.5340  -29.8420   20.2690 C   0  0  0  0  0  2  0  0  0  0  0  0
  -24.5880  -31.1520   22.1710 N   0  0  0  0  0  0  0  0  0  0  0  0
  -23.4530  -32.2540   23.7950 O   0  0  0  0  0  0  0  0  0  0  0  0
  -22.6670  -29.5420   22.6120 C   0  0  0  0  0  0  0  0  0  0  0  0
  -21.3450  -29.3540   22.4730 N   0  0  0  0  0  0  0  0  0  0  0  0
  -23.3430  -28.9340   23.4470 O   0  0  0  0  0  0  0  0  0  0  0  0
  -20.8620  -29.9010   21.7730 H   0  0  0  0  0  0  0  0  0  0  0  0
  -17.9720  -28.1550   22.9390 C   0  0  0  0  0  0  0  0  0  0  0  0
  -20.5210  -28.4310   23.2530 C   0  0  0  0  0  3  0  0  0  0  0  0
  -20.6430  -26.9860   22.7160 C   0  0  0  0  0  2  0  0  0  0  0  0
  -19.5620  -26.6330   21.6890 C   0  0  0  0  0  2  0  0  0  0  0  0
  -18.1670  -26.7870   22.3040 C   0  0  0  0  0  2  0  0  0  0  0  0
  -19.0770  -28.9330   23.3700 C   0  0  0  0  0  0  0  0  0  0  0  0
  -18.8440  -30.2110   23.9210 C   0  0  0  0  0  3  0  0  0  0  0  0
  -17.5340  -30.7110   24.0480 C   0  0  0  0  0  3  0  0  0  0  0  0
  -16.4410  -29.9300   23.6350 C   0  0  0  0  0  3  0  0  0  0  0  0
  -16.6600  -28.6540   23.0850 C   0  0  0  0  0  3  0  0  0  0  0  0
  -25.8220  -32.6010   23.8750 C   0  0  0  0  0  3  0  0  0  0  0  0
  -25.5190  -34.0030   24.1890 N   0  0  0  0  0  0  0  0  0  0  0  0
  -25.8570  -35.0450   23.4180 C   0  0  0  0  0  0  0  0  0  0  0  0
  -26.5300  -34.9260   22.3910 O   0  0  0  0  0  0  0  0  0  0  0  0
  -24.9210  -34.1680   24.9850 H   0  0  0  0  0  0  0  0  0  0  0  0
  -24.1350  -36.8380   23.0350 C   0  0  0  0  0  1  0  0  0  0  0  0
  -25.3720  -36.4400   23.8570 C   0  0  0  0  0  3  0  0  0  0  0  0
  -27.5080  -37.3260   24.6840 C   0  0  0  0  0  1  0  0  0  0  0  0
  -26.4080  -37.4880   23.7350 N   0  0  0  0  0  0  0  0  0  0  0  0
  -26.0060  -38.4110   23.8750 H   0  0  0  0  0  0  0  0  0  0  0  0
  -26.3400  -31.8400   25.1560 C   0  0  1  0  0  0  0  0  0  0  0  0
  -25.2500  -31.6130   26.2280 C   0  0  0  0  0  1  0  0  0  0  0  0
  -26.9190  -30.4590   24.7670 C   0  0  0  0  0  1  0  0  0  0  0  0
  -27.4940  -32.6350   25.8090 C   0  0  0  0  0  1  0  0  0  0  0  0
  -30.4260  -16.9870   21.1820 C   0  0  0  0  0  3  0  0  0  0  0  0
  -30.6230  -14.5880   20.4400 C   0  0  0  0  0  0  0  0  0  0  0  0
  -30.2450  -12.5290   19.1600 C   0  0  0  0  0  2  0  0  0  0  0  0
  -29.2850  -12.8220   17.9920 C   0  0  0  0  0  2  0  0  0  0  0  0
  -27.8220  -12.6590   18.4450 C   0  0  0  0  0  2  0  0  0  0  0  0
  -27.5110  -13.4250   19.7570 C   0  0  0  0  0  3  0  0  0  0  0  0
  -28.5860  -13.1470   20.8330 C   0  0  0  0  0  2  0  0  0  0  0  0
  -29.9060  -13.4530   20.2520 N   0  0  0  0  0  0  0  0  0  0  0  0
  -31.7490  -14.7510   19.9680 O   0  0  0  0  0  0  0  0  0  0  0  0
  -29.9700  -15.5950   21.0360 N   0  0  0  0  0  0  0  0  0  0  0  0
  -29.0460  -15.3820   21.3810 H   0  0  0  0  0  0  0  0  0  0  0  0
  -25.1100  -13.9770   20.5050 C   0  0  0  0  0  0  0  0  0  0  0  0
  -24.0580  -13.1770   20.8660 C   0  0  0  0  0  0  0  0  0  0  0  0
  -24.5420  -11.8360   20.7980 C   0  0  0  0  0  0  0  0  0  0  0  0
  -26.1680  -13.1200   20.2440 N   0  0  0  0  0  0  0  0  0  0  0  0
  -25.8280  -11.8260   20.4770 N   0  0  0  0  0  0  0  0  0  0  0  0
  -23.8390  -10.5560   20.9630 C   0  0  0  0  0  0  0  0  0  0  0  0
  -24.3090   -9.5670   21.8550 C   0  0  0  0  0  3  0  0  0  0  0  0
  -23.6060   -8.3510   22.0100 C   0  0  0  0  0  3  0  0  0  0  0  0
  -22.4200   -8.1190   21.2730 C   0  0  0  0  0  0  0  0  0  0  0  0
  -21.9710   -9.0990   20.3690 C   0  0  0  0  0  3  0  0  0  0  0  0
  -22.6740  -10.3050   20.2130 C   0  0  0  0  0  3  0  0  0  0  0  0
  -21.6850   -6.9600   21.3410 O   0  0  0  0  0  0  0  0  0  0  0  0
  -21.6840   -6.1740   22.4650 C   0  0  0  0  0  0  0  0  0  0  0  0
  -21.3010   -6.6780   23.7270 C   0  0  0  0  0  3  0  0  0  0  0  0
  -21.2470   -5.8170   24.8410 C   0  0  0  0  0  3  0  0  0  0  0  0
  -21.5640   -4.4530   24.6950 C   0  0  0  0  0  0  0  0  0  0  0  0
  -21.9380   -3.9490   23.4380 C   0  0  0  0  0  3  0  0  0  0  0  0
  -21.9940   -4.8060   22.3250 C   0  0  0  0  0  0  0  0  0  0  0  0
  -22.3350   -4.3100   21.1110 F   0  0  0  0  0  0  0  0  0  0  0  0
  -21.5040   -3.6240   25.7630 F   0  0  0  0  0  0  0  0  0  0  0  0
  -22.6560  -13.6250   21.1640 C   0  0  0  0  0  0  0  0  0  0  0  0
  -21.9480  -12.8950   22.0190 N   0  0  0  0  0  0  0  0  0  0  0  0
  -22.1960  -14.6560   20.6770 O   0  0  0  0  0  0  0  0  0  0  0  0
  -22.3320  -12.0600   22.4350 H   0  0  0  0  0  0  0  0  0  0  0  0
  -21.0080  -13.1750   22.2600 H   0  0  0  0  0  0  0  0  0  0  0  0
  -25.2500  -15.3540   20.3580 N   0  0  0  0  0  0  0  0  0  0  0  0
  -24.4740  -15.9930   20.4890 H   0  0  0  0  0  0  0  0  0  0  0  0
  -26.0880  -15.8160   20.0290 H   0  0  0  0  0  0  0  0  0  0  0  0
  -29.4190  -17.7790   18.9600 C   0  0  0  0  0  2  0  0  0  0  0  0
  -29.6660  -18.3070   17.5380 C   0  0  0  0  0  2  0  0  0  0  0  0
  -31.4870  -18.9820   19.7810 C   0  0  0  0  0  2  0  0  0  0  0  0
  -30.7280  -17.6350   19.7780 C   0  0  0  0  0  3  0  0  0  0  0  0
  -30.3960  -19.6580   17.5820 C   0  0  0  0  0  3  0  0  0  0  0  0
  -31.7180  -19.5250   18.3520 C   0  0  0  0  0  3  0  0  0  0  0  0
  -32.3800  -20.8340   18.3450 N   0  0  0  0  0  4  0  0  0  0  0  0
  -31.8910  -21.5010   18.9090 H   0  0  0  0  0  0  0  0  0  0  0  0
  -32.3210  -21.1460   17.3880 H   0  0  0  0  0  0  0  0  0  0  0  0
  -33.3420  -20.7720   18.6240 H   0  0  0  0  0  0  0  0  0  0  0  0
  -30.6940  -20.1180   16.2340 N   0  0  0  0  0  0  0  0  0  0  0  0
  -31.1010  -19.3570   15.7000 H   0  0  0  0  0  0  0  0  0  0  0  0
  -29.8200  -20.3080   15.7520 H   0  0  0  0  0  0  0  0  0  0  0  0
  1  2  1  0
  2  3  1  0
  3  4  1  0
  5  4  1  0
  5  6  1  0
  7  5  1  0
  8  5  1  0
  9  8  1  0
 10  9  1  0
 11 10  1  0
 12 11  1  0
 13 24  2  0
 14 12  1  0
 14 19  1  0
 15 23  1  0
 15 25  1  0
 16 22  1  0
 16 18  1  0
 17 23  1  0
 18 19  2  0
 18 17  1  0
 20 14  2  0
 21 20  1  0
 21 16  2  0
 22 15  1  0
 23 13  1  0
 25 27  2  0
 26 25  1  0
 28 26  1  0
 29 38  2  0
 29 34  1  0
 30 26  1  0
 30 34  1  0
 31 30  1  0
 32 33  1  0
 32 31  1  0
 33 29  1  0
 34 35  2  0
 35 36  1  0
 37 36  2  0
 38 37  1  0
 39 13  1  0
 39 40  1  0
 39 49  1  0
 40 43  1  0
 41 45  1  0
 41 40  1  0
 42 41  2  0
 45 44  1  0
 47 45  1  0
 47 48  1  0
 47 46  1  0
 49 52  1  1
 49 50  1  0
 51 49  1  0
 53  1  1  0
 54 62  1  0
 55 60  1  0
 56 57  1  0
 56 55  1  0
 58 57  1  0
 58 67  1  0
 58 59  1  0
 60 54  1  0
 60 59  1  0
 61 54  2  0
 62 53  1  0
 62 63  1  0
 64 65  2  0
 65 84  1  0
 66 65  1  0
 66 69  1  0
 67 68  1  0
 67 64  1  0
 68 66  2  0
 69 70  1  0
 70 71  2  0
 72 75  1  0
 72 71  1  0
 73 72  2  0
 74 73  1  0
 74 69  2  0
 75 76  1  0
 76 77  1  0
 77 78  2  0
 79 78  1  0
 79 83  1  0
 80 79  2  0
 81 76  2  0
 81 80  1  0
 82 81  1  0
 84 85  1  0
 85 88  1  0
 85 87  1  0
 86 84  2  0
 89 90  1  0
 89 64  1  0
 91 89  1  0
 92 95  1  0
 93 96  1  0
 93 92  1  0
 95 94  1  0
 95 53  1  0
 96102  1  0
 96 97  1  0
 97 98  1  0
 97 94  1  0
 98101  1  0
 98 99  1  0
100 98  1  0
103102  1  0
104102  1  0
M  ISO  4  11 101  12 101  54 100  62 100
M  END
>  <TORSDO>  (16) 
F 28

>  <SCORE>  (16) 
-10.865

>  <name>  (16) 
16

>  <ligand_id>  (16) 
16

>  <original_smiles>  (16) 
[H]c1c([H])c([H])c2c(c1[H])C([H])([H])C([H])([H])C([H])([H])C2([H])N([H])C(=O)C1([H])N(C(=O)C([H])(N([H])C(=O)C([H])(N([H])C([H])([H])[H])C([H])([H])[H])C(C([H])([H])[H])(C([H])([H])[H])C([H])([H])[H])C([H])([H])c2c([H])c(OC([H])([H])C([H])([H])C([H])([H])C([H])([H])[N+]([H])([H])C([H])([H])C([H])([H])C([H])([H])C([H])([H])C([H])(N([H])C(=O)N3C([H])([H])C([H])([H])C([H])([H])C([H])(n4nc(-c5c([H])c([H])c(Oc6c([H])c([H])c(F)c([H])c6F)c([H])c5[H])c(C(=O)N([H])[H])c4N([H])[H])C3([H])[H])C3([H])C([H])([H])C([H])([H])C([H])(N([H])[H])C([H])([N+]([H])([H])[H])C3([H])[H])c([H])c([H])c2C1([H])[H]

>  <smiles>  (16) 
[H]c1c([H])c([H])c2c(c1[H])C([H])([H])C([H])([H])C([H])([H])C2([H])N([H])C(=O)C1([H])N(C(=O)C([H])(N([H])C(=O)C([H])(N([H])C([H])([H])[H])C([H])([H])[H])C(C([H])([H])[H])(C([H])([H])[H])C([H])([H])[H])C([H])([H])c2c([H])c(OC([H])([H])C([H])([H])C([H])([H])C([H])([H])[N+]([H])([H])C([H])([H])C([H])([H])C([H])([H])C([H])([H])C([H])(N([H])C(=O)N3C([H])([H])C([H])([H])C([H])([H])C([H])(n4nc(-c5c([H])c([H])c(Oc6c([H])c([H])c(F)c([H])c6F)c([H])c5[H])c(C(=O)N([H])[H])c4N([H])[H])C3([H])[H])C3([H])C([H])([H])C([H])([H])C([H])(N([H])[H])C([H])([N+]([H])([H])[H])C3([H])[H])c([H])c([H])c2C1([H])[H]

$$$$
17:0:0
     RDKit          3D

 94103  0  0  1  0  0  0  0  0999 V2000
  -28.0510  -20.7940   20.7640 C   0  0  0  0  0  2  0  0  0  0  0  0
  -30.9390  -14.6470   19.8530 C   0  0  0  0  0  0  0  0  0  0  0  0
  -30.5570  -12.4330   18.7910 C   0  0  0  0  0  2  0  0  0  0  0  0
  -29.5020  -12.5790   17.6830 C   0  0  0  0  0  2  0  0  0  0  0  0
  -28.0880  -12.4020   18.2630 C   0  0  0  0  0  2  0  0  0  0  0  0
  -27.8540  -13.2660   19.5270 C   0  0  0  0  0  3  0  0  0  0  0  0
  -29.0260  -13.1290   20.5220 C   0  0  0  0  0  2  0  0  0  0  0  0
  -30.2630  -13.4550   19.8040 N   0  0  0  0  0  0  0  0  0  0  0  0
  -32.0610  -14.7750   19.3470 O   0  0  0  0  0  0  0  0  0  0  0  0
  -29.4210  -17.9950   19.3960 C   0  0  0  0  0  2  0  0  0  0  0  0
  -29.3460  -16.4440   19.3690 C   0  0  0  0  0  2  0  0  0  0  0  0
  -30.9370  -16.6750   21.2400 C   0  0  0  0  0  2  0  0  0  0  0  0
  -29.9360  -20.1920   22.2980 C   0  0  0  0  0  2  0  0  0  0  0  0
  -29.9940  -17.7740   21.8510 C   0  0  0  0  0  3  0  0  0  0  0  0
  -30.6830  -18.8920   22.6620 C   0  0  0  0  0  3  0  0  0  0  0  0
  -29.1170  -18.5090   20.8140 C   0  0  0  0  0  3  0  0  0  0  0  0
  -32.1930  -19.0280   22.4090 C   0  0  0  0  0  1  0  0  0  0  0  0
  -30.2550  -15.7390   20.3150 N   0  0  0  0  0  0  0  0  0  0  0  0
  -29.2850  -19.9830   20.9830 N   0  0  1  0  0  4  0  0  0  0  0  0
  -29.9390  -20.2860   20.2780 H   0  0  0  0  0  0  0  0  0  0  0  0
  -25.6100  -13.8780   20.6160 C   0  0  0  0  0  0  0  0  0  0  0  0
  -24.5690  -13.1030   21.0440 C   0  0  0  0  0  0  0  0  0  0  0  0
  -24.9650  -11.7520   20.8290 C   0  0  0  0  0  0  0  0  0  0  0  0
  -26.5740  -12.9920   20.1590 N   0  0  0  0  0  0  0  0  0  0  0  0
  -26.2020  -11.7030   20.3470 N   0  0  0  0  0  0  0  0  0  0  0  0
  -24.2260  -10.5010   20.9990 C   0  0  0  0  0  0  0  0  0  0  0  0
  -24.6500   -9.5090   21.9070 C   0  0  0  0  0  3  0  0  0  0  0  0
  -23.9130   -8.3140   22.0580 C   0  0  0  0  0  3  0  0  0  0  0  0
  -22.7320   -8.1080   21.3000 C   0  0  0  0  0  0  0  0  0  0  0  0
  -22.3330   -9.0890   20.3750 C   0  0  0  0  0  3  0  0  0  0  0  0
  -23.0740  -10.2740   20.2240 C   0  0  0  0  0  3  0  0  0  0  0  0
  -21.9620   -6.9720   21.3640 O   0  0  0  0  0  0  0  0  0  0  0  0
  -21.7900   -6.2820   22.5390 C   0  0  0  0  0  0  0  0  0  0  0  0
  -21.2370   -6.8890   23.6880 C   0  0  0  0  0  3  0  0  0  0  0  0
  -21.0190   -6.1240   24.8510 C   0  0  0  0  0  3  0  0  0  0  0  0
  -21.3440   -4.7550   24.8670 C   0  0  0  0  0  0  0  0  0  0  0  0
  -21.8940   -4.1490   23.7250 C   0  0  0  0  0  3  0  0  0  0  0  0
  -22.1180   -4.9120   22.5630 C   0  0  0  0  0  0  0  0  0  0  0  0
  -22.6260   -4.3160   21.4590 F   0  0  0  0  0  0  0  0  0  0  0  0
  -21.1270   -4.0200   25.9830 F   0  0  0  0  0  0  0  0  0  0  0  0
  -23.2380  -13.5940   21.5330 C   0  0  0  0  0  0  0  0  0  0  0  0
  -22.6050  -12.8400   22.4250 N   0  0  0  0  0  0  0  0  0  0  0  0
  -22.7780  -14.6690   21.1580 O   0  0  0  0  0  0  0  0  0  0  0  0
  -22.9970  -11.9700   22.7510 H   0  0  0  0  0  0  0  0  0  0  0  0
  -21.7200  -13.1540   22.7950 H   0  0  0  0  0  0  0  0  0  0  0  0
  -25.8050  -15.2560   20.5670 N   0  0  0  0  0  0  0  0  0  0  0  0
  -25.0930  -15.9130   20.8610 H   0  0  0  0  0  0  0  0  0  0  0  0
  -26.6590  -15.7120   20.2860 H   0  0  0  0  0  0  0  0  0  0  0  0
  -28.2290  -22.3390   20.9620 C   0  0  0  0  0  2  0  0  0  0  0  0
  -28.1560  -23.1820   19.6600 C   0  0  0  0  0  2  0  0  0  0  0  0
  -29.0130  -24.4780   19.6540 C   0  0  0  0  0  2  0  0  0  0  0  0
  -28.5830  -25.6160   20.6260 C   0  0  0  0  0  3  0  0  0  0  0  0
  -29.4860  -25.6910   21.6400 F   0  0  0  0  0  0  0  0  0  0  0  0
  -28.5410  -26.8180   19.9760 O   0  0  0  0  0  0  0  0  0  0  0  0
  -24.5290  -31.7890   23.1450 C   0  0  0  0  0  0  0  0  0  0  0  0
  -27.3600  -27.5210   19.9990 C   0  0  0  0  0  0  0  0  0  0  0  0
  -23.3950  -30.3770   21.4580 C   0  0  0  0  0  3  0  0  0  0  0  0
  -24.9140  -28.9330   20.0170 C   0  0  0  0  0  0  0  0  0  0  0  0
  -25.9040  -30.8300   21.2970 C   0  0  0  0  0  2  0  0  0  0  0  0
  -26.0440  -29.4830   20.6270 C   0  0  0  0  0  0  0  0  0  0  0  0
  -27.2790  -28.7870   20.6130 C   0  0  0  0  0  3  0  0  0  0  0  0
  -26.2110  -26.9790   19.3860 C   0  0  0  0  0  3  0  0  0  0  0  0
  -24.9880  -27.6700   19.3970 C   0  0  0  0  0  3  0  0  0  0  0  0
  -23.6470  -29.7520   20.0620 C   0  0  0  0  0  2  0  0  0  0  0  0
  -24.6240  -31.0180   22.0220 N   0  0  0  0  0  0  0  0  0  0  0  0
  -23.4350  -32.0120   23.6800 O   0  0  0  0  0  0  0  0  0  0  0  0
  -22.7610  -29.3120   22.3870 C   0  0  0  0  0  0  0  0  0  0  0  0
  -21.4430  -29.1000   22.2510 N   0  0  0  0  0  0  0  0  0  0  0  0
  -23.4540  -28.6730   23.1870 O   0  0  0  0  0  0  0  0  0  0  0  0
  -20.9340  -29.6650   21.5880 H   0  0  0  0  0  0  0  0  0  0  0  0
  -18.0930  -27.7990   22.6910 C   0  0  0  0  0  0  0  0  0  0  0  0
  -20.6490  -28.1020   22.9690 C   0  0  0  0  0  3  0  0  0  0  0  0
  -20.7820  -26.7050   22.3300 C   0  0  0  0  0  2  0  0  0  0  0  0
  -19.6870  -26.3840   21.3130 C   0  0  0  0  0  2  0  0  0  0  0  0
  -18.3000  -26.4780   21.9650 C   0  0  0  0  0  2  0  0  0  0  0  0
  -19.1990  -28.5690   23.1430 C   0  0  0  0  0  0  0  0  0  0  0  0
  -18.9730  -29.8100   23.7760 C   0  0  0  0  0  3  0  0  0  0  0  0
  -17.6620  -30.2790   23.9690 C   0  0  0  0  0  3  0  0  0  0  0  0
  -16.5680  -29.5120   23.5420 C   0  0  0  0  0  3  0  0  0  0  0  0
  -16.7840  -28.2780   22.9030 C   0  0  0  0  0  3  0  0  0  0  0  0
  -25.7900  -32.4420   23.7920 C   0  0  0  0  0  3  0  0  0  0  0  0
  -26.3110  -31.6650   25.0600 C   0  0  1  0  0  0  0  0  0  0  0  0
  -25.2120  -31.3740   26.1050 C   0  0  0  0  0  1  0  0  0  0  0  0
  -26.9420  -30.3140   24.6530 C   0  0  0  0  0  1  0  0  0  0  0  0
  -27.4250  -32.4780   25.7580 C   0  0  0  0  0  1  0  0  0  0  0  0
  -25.4370  -33.8220   24.1390 N   0  0  0  0  0  0  0  0  0  0  0  0
  -25.7490  -34.9010   23.4030 C   0  0  0  0  0  0  0  0  0  0  0  0
  -26.4380  -34.8360   22.3820 O   0  0  0  0  0  0  0  0  0  0  0  0
  -24.8290  -33.9390   24.9360 H   0  0  0  0  0  0  0  0  0  0  0  0
  -23.9730  -36.6470   23.0600 C   0  0  0  0  0  1  0  0  0  0  0  0
  -25.2140  -36.2650   23.8830 C   0  0  0  0  0  3  0  0  0  0  0  0
  -27.3090  -37.2020   24.7580 C   0  0  0  0  0  1  0  0  0  0  0  0
  -26.2170  -37.3500   23.8000 N   0  0  0  0  0  0  0  0  0  0  0  0
  -25.7810  -38.2540   23.9530 H   0  0  0  0  0  0  0  0  0  0  0  0
  1 49  1  0
  1 19  1  0
  2 18  1  0
  3  8  1  0
  4  5  1  0
  4  3  1  0
  6  5  1  0
  6 24  1  0
  6  7  1  0
  8  2  1  0
  8  7  1  0
  9  2  2  0
 11 10  1  0
 11 18  1  0
 13 15  1  0
 14 12  1  0
 14 15  1  0
 15 17  1  0
 16 10  1  0
 16 19  1  0
 16 14  1  0
 18 12  1  0
 19 13  1  0
 19 20  1  6
 21 22  2  0
 22 41  1  0
 23 26  1  0
 23 22  1  0
 24 25  1  0
 24 21  1  0
 25 23  2  0
 26 27  1  0
 27 28  2  0
 29 32  1  0
 29 28  1  0
 30 29  2  0
 31 30  1  0
 31 26  2  0
 32 33  1  0
 33 38  2  0
 33 34  1  0
 34 35  2  0
 35 36  1  0
 36 40  1  0
 37 36  2  0
 38 37  1  0
 39 38  1  0
 41 42  1  0
 42 44  1  0
 42 45  1  0
 43 41  2  0
 46 21  1  0
 46 47  1  0
 48 46  1  0
 50 49  1  0
 51 50  1  0
 51 52  1  0
 52 53  1  0
 54 56  1  0
 54 52  1  0
 55 66  2  0
 56 61  1  0
 57 65  1  0
 57 67  1  0
 58 64  1  0
 58 60  1  0
 59 65  1  0
 60 59  1  0
 61 60  2  0
 62 63  1  0
 62 56  2  0
 63 58  2  0
 64 57  1  0
 65 55  1  0
 67 69  2  0
 68 67  1  0
 70 68  1  0
 71 80  2  0
 71 76  1  0
 72 68  1  0
 72 76  1  0
 73 72  1  0
 74 75  1  0
 74 73  1  0
 75 71  1  0
 76 77  2  0
 77 78  1  0
 79 78  2  0
 80 79  1  0
 81 55  1  0
 81 86  1  0
 81 82  1  0
 82 85  1  1
 82 83  1  0
 84 82  1  0
 86 89  1  0
 87 91  1  0
 87 86  1  0
 88 87  2  0
 91 90  1  0
 93 91  1  0
 93 94  1  0
 93 92  1  0
M  ISO  4   2 100  18 100  52 101  54 101
M  END
>  <TORSDO>  (17) 
F 20

>  <SCORE>  (17) 
-12.185

>  <name>  (17) 
17

>  <ligand_id>  (17) 
17

>  <original_smiles>  (17) 
[H]c1c([H])c([H])c2c(c1[H])C([H])([H])C([H])([H])C([H])([H])C2([H])N([H])C(=O)C1([H])N(C(=O)C([H])(N([H])C(=O)C([H])(N([H])C([H])([H])[H])C([H])([H])[H])C(C([H])([H])[H])(C([H])([H])[H])C([H])([H])[H])C([H])([H])c2c([H])c(OC([H])(F)C([H])([H])C([H])([H])C([H])([H])C([H])([H])[N+]3([H])C([H])([H])C([H])(C([H])([H])[H])C4([H])C([H])([H])N(C(=O)N5C([H])([H])C([H])([H])C([H])([H])C([H])(n6nc(-c7c([H])c([H])c(Oc8c([H])c([H])c(F)c([H])c8F)c([H])c7[H])c(C(=O)N([H])[H])c6N([H])[H])C5([H])[H])C([H])([H])C([H])([H])C43[H])c([H])c([H])c2C1([H])[H]

>  <smiles>  (17) 
[H]c1c([H])c([H])c2c(c1[H])C([H])([H])C([H])([H])C([H])([H])C2([H])N([H])C(=O)C1([H])N(C(=O)C([H])(N([H])C(=O)C([H])(N([H])C([H])([H])[H])C([H])([H])[H])C(C([H])([H])[H])(C([H])([H])[H])C([H])([H])[H])C([H])([H])c2c([H])c(OC([H])(F)C([H])([H])C([H])([H])C([H])([H])C([H])([H])[N+]3([H])C([H])([H])C([H])(C([H])([H])[H])C4([H])C([H])([H])N(C(=O)N5C([H])([H])C([H])([H])C([H])([H])C([H])(n6nc(-c7c([H])c([H])c(Oc8c([H])c([H])c(F)c([H])c8F)c([H])c7[H])c(C(=O)N([H])[H])c6N([H])[H])C5([H])[H])C([H])([H])C([H])([H])C43[H])c([H])c([H])c2C1([H])[H]

$$$$
18:0:0
     RDKit          3D

102110  0  0  1  0  0  0  0  0999 V2000
  -30.5340  -17.9400   20.3320 C   0  0  0  0  0  2  0  0  0  0  0  0
  -31.6070  -17.6430   22.4730 C   0  0  0  0  0  2  0  0  0  0  0  0
  -30.7080  -19.3440   20.9930 C   0  0  0  0  0  3  0  0  0  0  0  0
  -30.8160  -16.8680   21.4140 C   0  0  0  0  0  3  0  0  0  0  0  0
  -30.9620  -19.0310   22.4880 C   0  0  0  0  0  3  0  0  0  0  0  0
  -31.7840  -20.0300   23.2030 N   0  0  0  0  0  4  0  0  0  0  0  0
  -32.6800  -20.1560   22.7680 H   0  0  0  0  0  0  0  0  0  0  0  0
  -31.9390  -19.7290   24.1490 H   0  0  0  0  0  0  0  0  0  0  0  0
  -31.3180  -20.9200   23.2480 H   0  0  0  0  0  0  0  0  0  0  0  0
  -29.5080  -20.2980   20.7860 C   0  0  0  0  0  0  0  0  0  0  0  0
  -29.7470  -21.5080   20.2430 N   0  0  0  0  0  0  0  0  0  0  0  0
  -28.3760  -19.9440   21.1220 O   0  0  0  0  0  0  0  0  0  0  0  0
  -30.6890  -21.7180   19.9370 H   0  0  0  0  0  0  0  0  0  0  0  0
  -28.7110  -22.5190   19.9860 C   0  0  0  0  0  2  0  0  0  0  0  0
  -29.2240  -23.9840   19.9780 C   0  0  0  0  0  2  0  0  0  0  0  0
  -28.1110  -24.9340   19.4860 C   0  0  0  0  0  2  0  0  0  0  0  0
  -28.2950  -26.3380   19.7610 O   0  0  0  0  0  0  0  0  0  0  0  0
  -24.6360  -31.3020   23.3400 C   0  0  0  0  0  0  0  0  0  0  0  0
  -27.1380  -27.0990   19.8160 C   0  0  0  0  0  0  0  0  0  0  0  0
  -23.3610  -30.0300   21.6470 C   0  0  0  0  0  3  0  0  0  0  0  0
  -24.7510  -28.6190   20.0440 C   0  0  0  0  0  0  0  0  0  0  0  0
  -25.8820  -30.4020   21.3760 C   0  0  0  0  0  2  0  0  0  0  0  0
  -25.9370  -29.0860   20.6250 C   0  0  0  0  0  0  0  0  0  0  0  0
  -27.1310  -28.3340   20.5100 C   0  0  0  0  0  3  0  0  0  0  0  0
  -25.9290  -26.6680   19.2120 C   0  0  0  0  0  3  0  0  0  0  0  0
  -24.7440  -27.4100   19.3330 C   0  0  0  0  0  3  0  0  0  0  0  0
  -23.5130  -29.4690   20.2110 C   0  0  0  0  0  2  0  0  0  0  0  0
  -24.6470  -30.5880   22.1790 N   0  0  0  0  0  0  0  0  0  0  0  0
  -23.5760  -31.5290   23.9420 O   0  0  0  0  0  0  0  0  0  0  0  0
  -22.7520  -28.9320   22.5500 C   0  0  0  0  0  0  0  0  0  0  0  0
  -21.4880  -28.5650   22.2780 N   0  0  0  0  0  0  0  0  0  0  0  0
  -23.4170  -28.4120   23.4500 O   0  0  0  0  0  0  0  0  0  0  0  0
  -21.0070  -29.0440   21.5300 H   0  0  0  0  0  0  0  0  0  0  0  0
  -18.3320  -26.8050   22.3120 C   0  0  0  0  0  0  0  0  0  0  0  0
  -20.7240  -27.5280   22.9730 C   0  0  0  0  0  3  0  0  0  0  0  0
  -21.1640  -26.1160   22.5240 C   0  0  0  0  0  2  0  0  0  0  0  0
  -20.3230  -25.5580   21.3730 C   0  0  0  0  0  2  0  0  0  0  0  0
  -18.8460  -25.4820   21.7730 C   0  0  0  0  0  2  0  0  0  0  0  0
  -19.2150  -27.7720   22.8610 C   0  0  0  0  0  0  0  0  0  0  0  0
  -18.6880  -29.0010   23.3150 C   0  0  0  0  0  3  0  0  0  0  0  0
  -17.3080  -29.2680   23.2320 C   0  0  0  0  0  3  0  0  0  0  0  0
  -16.4360  -28.3010   22.7020 C   0  0  0  0  0  3  0  0  0  0  0  0
  -16.9480  -27.0730   22.2470 C   0  0  0  0  0  3  0  0  0  0  0  0
  -25.9460  -31.8860   23.9510 C   0  0  0  0  0  3  0  0  0  0  0  0
  -26.5050  -31.0320   25.1540 C   0  0  1  0  0  0  0  0  0  0  0  0
  -25.4300  -30.6460   26.1950 C   0  0  0  0  0  1  0  0  0  0  0  0
  -27.1560  -29.7280   24.6360 C   0  0  0  0  0  1  0  0  0  0  0  0
  -27.6150  -31.8230   25.8850 C   0  0  0  0  0  1  0  0  0  0  0  0
  -25.6590  -33.2610   24.3810 N   0  0  0  0  0  0  0  0  0  0  0  0
  -25.9000  -34.3540   23.6430 C   0  0  0  0  0  0  0  0  0  0  0  0
  -26.4620  -34.3100   22.5450 O   0  0  0  0  0  0  0  0  0  0  0  0
  -25.1500  -33.3690   25.2460 H   0  0  0  0  0  0  0  0  0  0  0  0
  -24.0970  -36.1060   23.5890 C   0  0  0  0  0  1  0  0  0  0  0  0
  -25.4440  -35.7100   24.2150 C   0  0  0  0  0  3  0  0  0  0  0  0
  -27.6400  -36.6350   24.8060 C   0  0  0  0  0  1  0  0  0  0  0  0
  -26.4270  -36.7960   24.0090 N   0  0  0  0  0  0  0  0  0  0  0  0
  -26.0190  -37.7010   24.2280 H   0  0  0  0  0  0  0  0  0  0  0  0
  -31.5110  -15.5680   20.9050 C   0  0  0  0  0  3  0  0  0  0  0  0
  -30.6200  -13.9820   19.1600 C   0  0  0  0  0  0  0  0  0  0  0  0
  -29.9190  -11.9410   17.9500 C   0  0  0  0  0  2  0  0  0  0  0  0
  -28.7380  -12.1910   16.9950 C   0  0  0  0  0  2  0  0  0  0  0  0
  -27.3980  -12.0600   17.7430 C   0  0  0  0  0  2  0  0  0  0  0  0
  -27.3700  -12.8870   19.0550 C   0  0  0  0  0  3  0  0  0  0  0  0
  -28.6310  -12.6130   19.9020 C   0  0  0  0  0  2  0  0  0  0  0  0
  -29.8190  -12.8880   19.0700 N   0  0  0  0  0  0  0  0  0  0  0  0
  -31.4620  -14.2760   18.3070 O   0  0  0  0  0  0  0  0  0  0  0  0
  -30.5260  -14.6500   20.3210 N   0  0  0  0  0  0  0  0  0  0  0  0
  -29.7770  -14.3470   20.9250 H   0  0  0  0  0  0  0  0  0  0  0  0
  -25.2230  -13.5430   20.3150 C   0  0  0  0  0  0  0  0  0  0  0  0
  -24.2290  -12.7910   20.8830 C   0  0  0  0  0  0  0  0  0  0  0  0
  -24.6050  -11.4280   20.6850 C   0  0  0  0  0  0  0  0  0  0  0  0
  -26.1450  -12.6370   19.8140 N   0  0  0  0  0  0  0  0  0  0  0  0
  -25.7880  -11.3570   20.0900 N   0  0  0  0  0  0  0  0  0  0  0  0
  -23.8790  -10.1850   20.9790 C   0  0  0  0  0  0  0  0  0  0  0  0
  -24.3790   -9.2400   21.9030 C   0  0  0  0  0  3  0  0  0  0  0  0
  -23.6560   -8.0610   22.1820 C   0  0  0  0  0  3  0  0  0  0  0  0
  -22.4190   -7.8170   21.5390 C   0  0  0  0  0  0  0  0  0  0  0  0
  -21.9380   -8.7500   20.6030 C   0  0  0  0  0  3  0  0  0  0  0  0
  -22.6610   -9.9210   20.3230 C   0  0  0  0  0  3  0  0  0  0  0  0
  -21.6610   -6.6880   21.7280 O   0  0  0  0  0  0  0  0  0  0  0  0
  -21.5610   -6.0840   22.9560 C   0  0  0  0  0  0  0  0  0  0  0  0
  -21.0350   -6.7620   24.0790 C   0  0  0  0  0  3  0  0  0  0  0  0
  -20.8870   -6.0820   25.3040 C   0  0  0  0  0  3  0  0  0  0  0  0
  -21.2540   -4.7260   25.4070 C   0  0  0  0  0  0  0  0  0  0  0  0
  -21.7710   -4.0500   24.2900 C   0  0  0  0  0  3  0  0  0  0  0  0
  -21.9220   -4.7260   23.0670 C   0  0  0  0  0  0  0  0  0  0  0  0
  -22.4020   -4.0640   21.9870 F   0  0  0  0  0  0  0  0  0  0  0  0
  -21.1030   -4.0720   26.5830 F   0  0  0  0  0  0  0  0  0  0  0  0
  -22.9540  -13.3040   21.4900 C   0  0  0  0  0  0  0  0  0  0  0  0
  -22.4250  -12.6030   22.4860 N   0  0  0  0  0  0  0  0  0  0  0  0
  -22.4470  -14.3610   21.1150 O   0  0  0  0  0  0  0  0  0  0  0  0
  -22.8520  -11.7460   22.8060 H   0  0  0  0  0  0  0  0  0  0  0  0
  -21.5810  -12.9270   22.9350 H   0  0  0  0  0  0  0  0  0  0  0  0
  -25.4100  -14.9150   20.1690 N   0  0  0  0  0  0  0  0  0  0  0  0
  -24.7240  -15.5920   20.4820 H   0  0  0  0  0  0  0  0  0  0  0  0
  -26.1920  -15.3390   19.6850 H   0  0  0  0  0  0  0  0  0  0  0  0
  -32.2910  -14.8330   22.0310 C   0  0  0  0  0  2  0  0  0  0  0  0
  -32.9040  -13.4710   21.6290 C   0  0  0  0  0  2  0  0  0  0  0  0
  -33.8220  -12.9400   22.6550 N   0  0  0  0  0  4  0  0  0  0  0  0
  -34.5990  -13.5610   22.7990 H   0  0  0  0  0  0  0  0  0  0  0  0
  -34.1890  -12.0530   22.3600 H   0  0  0  0  0  0  0  0  0  0  0  0
  -33.3500  -12.8040   23.5310 H   0  0  0  0  0  0  0  0  0  0  0  0
  1  3  1  0
  1  4  1  0
  2  5  1  0
  3 10  1  0
  3  5  1  0
  4 58  1  0
  4  2  1  0
  5  6  1  0
  6  9  1  0
  6  8  1  0
  7  6  1  0
 10 12  2  0
 11 10  1  0
 13 11  1  0
 14 11  1  0
 15 14  1  0
 16 17  1  0
 16 15  1  0
 17 19  1  0
 18 29  2  0
 19 24  1  0
 20 28  1  0
 20 30  1  0
 21 27  1  0
 21 23  1  0
 22 28  1  0
 23 22  1  0
 24 23  2  0
 25 26  1  0
 25 19  2  0
 26 21  2  0
 27 20  1  0
 28 18  1  0
 30 32  2  0
 31 30  1  0
 33 31  1  0
 34 39  1  0
 35 31  1  0
 36 35  1  0
 37 38  1  0
 37 36  1  0
 38 34  1  0
 39 35  1  0
 39 40  2  0
 41 40  1  0
 42 41  2  0
 43 34  2  0
 43 42  1  0
 44 18  1  0
 44 49  1  0
 44 45  1  0
 45 48  1  1
 45 46  1  0
 47 45  1  0
 49 52  1  0
 50 54  1  0
 50 49  1  0
 51 50  2  0
 54 53  1  0
 56 54  1  0
 56 57  1  0
 56 55  1  0
 58 97  1  0
 59 67  1  0
 60 65  1  0
 61 62  1  0
 61 60  1  0
 63 62  1  0
 63 72  1  0
 63 64  1  0
 65 59  1  0
 65 64  1  0
 66 59  2  0
 67 58  1  0
 67 68  1  0
 69 70  2  0
 70 89  1  0
 71 70  1  0
 71 74  1  0
 72 73  1  0
 72 69  1  0
 73 71  2  0
 74 75  1  0
 75 76  2  0
 77 80  1  0
 77 76  1  0
 78 77  2  0
 79 78  1  0
 79 74  2  0
 80 81  1  0
 81 86  2  0
 81 82  1  0
 82 83  2  0
 83 84  1  0
 84 88  1  0
 85 84  2  0
 86 85  1  0
 87 86  1  0
 89 90  1  0
 90 92  1  0
 90 93  1  0
 91 89  2  0
 94 69  1  0
 94 95  1  0
 96 94  1  0
 98 97  1  0
 98 99  1  0
 99100  1  0
 99102  1  0
101 99  1  0
M  ISO  4  16 101  17 101  59 100  67 100
M  END
>  <TORSDO>  (18) 
F 25

>  <SCORE>  (18) 
-6.485

>  <name>  (18) 
18

>  <ligand_id>  (18) 
18

>  <original_smiles>  (18) 
[H]c1c([H])c([H])c2c(c1[H])C([H])([H])C([H])([H])C([H])([H])C2([H])N([H])C(=O)C1([H])N(C(=O)C([H])(N([H])C(=O)C([H])(N([H])C([H])([H])[H])C([H])([H])[H])C(C([H])([H])[H])(C([H])([H])[H])C([H])([H])[H])C([H])([H])c2c([H])c(OC([H])([H])C([H])([H])C([H])([H])N([H])C(=O)C3([H])C([H])([H])C([H])(C([H])(N([H])C(=O)N4C([H])([H])C([H])([H])C([H])([H])C([H])(n5nc(-c6c([H])c([H])c(Oc7c([H])c([H])c(F)c([H])c7F)c([H])c6[H])c(C(=O)N([H])[H])c5N([H])[H])C4([H])[H])C([H])([H])C([H])([H])[N+]([H])([H])[H])C([H])([H])C3([H])[N+]([H])([H])[H])c([H])c([H])c2C1([H])[H]

>  <smiles>  (18) 
[H]c1c([H])c([H])c2c(c1[H])C([H])([H])C([H])([H])C([H])([H])C2([H])N([H])C(=O)C1([H])N(C(=O)C([H])(N([H])C(=O)C([H])(N([H])C([H])([H])[H])C([H])([H])[H])C(C([H])([H])[H])(C([H])([H])[H])C([H])([H])[H])C([H])([H])c2c([H])c(OC([H])([H])C([H])([H])C([H])([H])N([H])C(=O)C3([H])C([H])([H])C([H])(C([H])(N([H])C(=O)N4C([H])([H])C([H])([H])C([H])([H])C([H])(n5nc(-c6c([H])c([H])c(Oc7c([H])c([H])c(F)c([H])c7F)c([H])c6[H])c(C(=O)N([H])[H])c5N([H])[H])C4([H])[H])C([H])([H])C([H])([H])[N+]([H])([H])[H])C([H])([H])C3([H])[N+]([H])([H])[H])c([H])c([H])c2C1([H])[H]

$$$$
19:0:0
     RDKit          3D

 91 99  0  0  1  0  0  0  0  0999 V2000
  -28.6790  -20.4500   20.1930 C   0  0  0  0  0  2  0  0  0  0  0  0
  -28.2880  -18.9450   20.2660 C   0  0  0  0  0  0  0  0  0  0  0  0
  -27.1400  -18.5860   19.9930 O   0  0  0  0  0  0  0  0  0  0  0  0
  -30.5980  -14.4920   19.4630 C   0  0  0  0  0  0  0  0  0  0  0  0
  -29.8960  -12.3900   18.3920 C   0  0  0  0  0  2  0  0  0  0  0  0
  -28.7980  -12.6640   17.3500 C   0  0  0  0  0  2  0  0  0  0  0  0
  -27.4210  -12.5310   18.0190 C   0  0  0  0  0  2  0  0  0  0  0  0
  -27.3200  -13.3270   19.3510 C   0  0  0  0  0  3  0  0  0  0  0  0
  -28.5580  -13.1260   20.2600 C   0  0  0  0  0  2  0  0  0  0  0  0
  -29.7550  -13.4120   19.4580 N   0  0  0  0  0  0  0  0  0  0  0  0
  -31.6550  -14.4110   18.8370 O   0  0  0  0  0  0  0  0  0  0  0  0
  -30.7000  -18.1230   20.0240 C   0  0  0  0  0  2  0  0  0  0  0  0
  -29.0380  -16.3930   20.3230 C   0  0  0  0  0  2  0  0  0  0  0  0
  -29.3510  -17.8860   20.6800 C   0  0  0  0  0  3  0  0  0  0  0  0
  -31.3800  -16.7540   19.9880 C   0  0  0  0  0  3  0  0  0  0  0  0
  -30.3250  -15.7070   20.0540 N   0  0  0  0  0  0  0  0  0  0  0  0
  -25.0990  -13.9110   20.4980 C   0  0  0  0  0  0  0  0  0  0  0  0
  -24.0880  -13.1310   20.9880 C   0  0  0  0  0  0  0  0  0  0  0  0
  -24.5050  -11.7770   20.8010 C   0  0  0  0  0  0  0  0  0  0  0  0
  -26.0700  -13.0340   20.0450 N   0  0  0  0  0  0  0  0  0  0  0  0
  -25.7270  -11.7420   20.2840 N   0  0  0  0  0  0  0  0  0  0  0  0
  -23.7870  -10.5170   21.0320 C   0  0  0  0  0  0  0  0  0  0  0  0
  -24.3000   -9.5170   21.8880 C   0  0  0  0  0  3  0  0  0  0  0  0
  -23.5800   -8.3240   22.1100 C   0  0  0  0  0  3  0  0  0  0  0  0
  -22.3310   -8.1200   21.4780 C   0  0  0  0  0  0  0  0  0  0  0  0
  -21.8340   -9.1080   20.6090 C   0  0  0  0  0  3  0  0  0  0  0  0
  -22.5540  -10.2940   20.3860 C   0  0  0  0  0  3  0  0  0  0  0  0
  -21.5750   -6.9820   21.6130 O   0  0  0  0  0  0  0  0  0  0  0  0
  -21.5910   -6.2410   22.7670 C   0  0  0  0  0  0  0  0  0  0  0  0
  -21.2590   -6.8040   24.0190 C   0  0  0  0  0  3  0  0  0  0  0  0
  -21.2240   -5.9910   25.1690 C   0  0  0  0  0  3  0  0  0  0  0  0
  -21.5090   -4.6160   25.0690 C   0  0  0  0  0  0  0  0  0  0  0  0
  -21.8340   -4.0530   23.8220 C   0  0  0  0  0  3  0  0  0  0  0  0
  -21.8730   -4.8640   22.6750 C   0  0  0  0  0  0  0  0  0  0  0  0
  -22.1680   -4.3120   21.4730 F   0  0  0  0  0  0  0  0  0  0  0  0
  -21.4680   -3.8330   26.1720 F   0  0  0  0  0  0  0  0  0  0  0  0
  -22.7670  -13.6120   21.5160 C   0  0  0  0  0  0  0  0  0  0  0  0
  -22.1850  -12.8820   22.4600 N   0  0  0  0  0  0  0  0  0  0  0  0
  -22.2680  -14.6680   21.1270 O   0  0  0  0  0  0  0  0  0  0  0  0
  -22.6030  -12.0240   22.7870 H   0  0  0  0  0  0  0  0  0  0  0  0
  -21.3070  -13.1810   22.8610 H   0  0  0  0  0  0  0  0  0  0  0  0
  -25.2670  -15.2860   20.3800 N   0  0  0  0  0  0  0  0  0  0  0  0
  -24.5500  -15.9400   20.6740 H   0  0  0  0  0  0  0  0  0  0  0  0
  -26.0780  -15.7420   19.9800 H   0  0  0  0  0  0  0  0  0  0  0  0
  -33.7510  -17.3470   20.7840 C   0  0  0  0  0  1  0  0  0  0  0  0
  -32.4580  -16.5700   21.0800 C   0  0  0  0  0  2  0  0  0  0  0  0
  -27.5960  -21.4530   20.7050 C   0  0  0  0  0  2  0  0  0  0  0  0
  -27.5110  -22.8610   20.0120 C   0  0  0  0  0  2  0  0  0  0  0  0
  -28.4780  -24.0360   20.4340 C   0  0  0  0  0  2  0  0  0  0  0  0
  -28.1210  -25.4400   21.0630 C   0  0  0  0  0  2  0  0  0  0  0  0
  -28.2940  -26.6260   20.2360 O   0  0  0  0  0  0  0  0  0  0  0  0
  -24.5420  -31.9090   23.2170 C   0  0  0  0  0  0  0  0  0  0  0  0
  -27.1730  -27.4290   20.1770 C   0  0  0  0  0  0  0  0  0  0  0  0
  -23.3350  -30.4920   21.5900 C   0  0  0  0  0  3  0  0  0  0  0  0
  -24.7910  -28.9510   20.1640 C   0  0  0  0  0  0  0  0  0  0  0  0
  -25.8640  -30.8530   21.3820 C   0  0  0  0  0  2  0  0  0  0  0  0
  -25.9520  -29.4800   20.7430 C   0  0  0  0  0  0  0  0  0  0  0  0
  -27.1550  -28.7310   20.7370 C   0  0  0  0  0  3  0  0  0  0  0  0
  -26.0010  -26.9250   19.5780 C   0  0  0  0  0  3  0  0  0  0  0  0
  -24.8130  -27.6780   19.5710 C   0  0  0  0  0  3  0  0  0  0  0  0
  -23.5420  -29.8060   20.2130 C   0  0  0  0  0  2  0  0  0  0  0  0
  -24.5990  -31.0990   22.1210 N   0  0  0  0  0  0  0  0  0  0  0  0
  -23.4610  -32.1820   23.7580 O   0  0  0  0  0  0  0  0  0  0  0  0
  -22.6870  -29.4770   22.5590 C   0  0  0  0  0  0  0  0  0  0  0  0
  -21.3630  -29.2920   22.4340 N   0  0  0  0  0  0  0  0  0  0  0  0
  -23.3730  -28.8570   23.3760 O   0  0  0  0  0  0  0  0  0  0  0  0
  -20.8700  -29.8400   21.7420 H   0  0  0  0  0  0  0  0  0  0  0  0
  -17.9910  -28.0990   22.9470 C   0  0  0  0  0  0  0  0  0  0  0  0
  -20.5480  -28.3600   23.2140 C   0  0  0  0  0  3  0  0  0  0  0  0
  -20.6510  -26.9240   22.6470 C   0  0  0  0  0  2  0  0  0  0  0  0
  -19.5490  -26.5950   21.6370 C   0  0  0  0  0  2  0  0  0  0  0  0
  -18.1680  -26.7440   22.2820 C   0  0  0  0  0  2  0  0  0  0  0  0
  -19.1090  -28.8650   23.3690 C   0  0  0  0  0  0  0  0  0  0  0  0
  -18.8890  -30.1340   23.9490 C   0  0  0  0  0  3  0  0  0  0  0  0
  -17.5830  -30.6340   24.1110 C   0  0  0  0  0  3  0  0  0  0  0  0
  -16.4800  -29.8650   23.7030 C   0  0  0  0  0  3  0  0  0  0  0  0
  -16.6860  -28.5980   23.1270 C   0  0  0  0  0  3  0  0  0  0  0  0
  -25.8280  -32.5460   23.8290 C   0  0  0  0  0  3  0  0  0  0  0  0
  -26.3600  -31.7730   25.0970 C   0  0  1  0  0  0  0  0  0  0  0  0
  -25.2780  -31.5220   26.1730 C   0  0  0  0  0  1  0  0  0  0  0  0
  -26.9490  -30.4020   24.6940 C   0  0  0  0  0  1  0  0  0  0  0  0
  -27.5140  -32.5700   25.7490 C   0  0  0  0  0  1  0  0  0  0  0  0
  -25.5140  -33.9410   24.1610 N   0  0  0  0  0  0  0  0  0  0  0  0
  -25.8470  -34.9950   23.4030 C   0  0  0  0  0  0  0  0  0  0  0  0
  -26.5170  -34.8940   22.3700 O   0  0  0  0  0  0  0  0  0  0  0  0
  -24.9150  -34.0950   24.9600 H   0  0  0  0  0  0  0  0  0  0  0  0
  -24.1130  -36.7800   23.0480 C   0  0  0  0  0  1  0  0  0  0  0  0
  -25.3570  -36.3820   23.8600 C   0  0  0  0  0  3  0  0  0  0  0  0
  -27.4880  -37.2690   24.6920 C   0  0  0  0  0  1  0  0  0  0  0  0
  -26.3870  -37.4360   23.7480 N   0  0  0  0  0  0  0  0  0  0  0  0
  -25.9810  -38.3560   23.8940 H   0  0  0  0  0  0  0  0  0  0  0  0
  1  2  1  0
  1 47  1  0
  3  2  2  0
  4 16  1  0
  5 10  1  0
  6  7  1  0
  6  5  1  0
  8  7  1  0
  8 20  1  0
  8  9  1  0
 10  4  1  0
 10  9  1  0
 11  4  2  0
 12 14  1  0
 13 14  1  0
 14  2  1  0
 15 12  1  0
 15 16  1  0
 15 46  1  0
 16 13  1  0
 17 18  2  0
 18 37  1  0
 19 18  1  0
 19 22  1  0
 20 21  1  0
 20 17  1  0
 21 19  2  0
 22 23  1  0
 23 24  2  0
 25 28  1  0
 25 24  1  0
 26 25  2  0
 27 26  1  0
 27 22  2  0
 28 29  1  0
 29 30  1  0
 30 31  2  0
 32 31  1  0
 32 36  1  0
 33 32  2  0
 34 29  2  0
 34 33  1  0
 35 34  1  0
 37 38  1  0
 38 40  1  0
 38 41  1  0
 39 37  2  0
 42 17  1  0
 42 43  1  0
 44 42  1  0
 45 46  1  0
 48 49  1  0
 48 47  1  0
 49 50  1  0
 51 50  1  0
 52 63  2  0
 53 51  1  0
 53 58  1  0
 54 62  1  0
 54 64  1  0
 55 61  1  0
 55 57  1  0
 56 62  1  0
 57 56  1  0
 58 57  2  0
 59 53  2  0
 60 59  1  0
 60 55  2  0
 61 54  1  0
 62 52  1  0
 64 66  2  0
 65 64  1  0
 67 65  1  0
 68 77  2  0
 68 73  1  0
 69 65  1  0
 69 73  1  0
 70 69  1  0
 71 72  1  0
 71 70  1  0
 72 68  1  0
 73 74  2  0
 74 75  1  0
 76 75  2  0
 77 76  1  0
 78 52  1  0
 78 83  1  0
 78 79  1  0
 79 82  1  1
 79 80  1  0
 81 79  1  0
 83 86  1  0
 84 88  1  0
 84 83  1  0
 85 84  2  0
 88 87  1  0
 90 88  1  0
 90 91  1  0
 90 89  1  0
M  ISO  4   4 100  16 100  50 101  51 101
M  END
>  <TORSDO>  (19) 
F 22

>  <SCORE>  (19) 
-10.214

>  <name>  (19) 
19

>  <ligand_id>  (19) 
19

>  <original_smiles>  (19) 
[H]c1c([H])c([H])c2c(c1[H])C([H])([H])C([H])([H])C([H])([H])C2([H])N([H])C(=O)C1([H])N(C(=O)C([H])(N([H])C(=O)C([H])(N([H])C([H])([H])[H])C([H])([H])[H])C(C([H])([H])[H])(C([H])([H])[H])C([H])([H])[H])C([H])([H])c2c([H])c(OC([H])([H])C([H])([H])C([H])([H])C([H])([H])C([H])([H])C(=O)C3([H])C([H])([H])N(C(=O)N4C([H])([H])C([H])([H])C([H])([H])C([H])(n5nc(-c6c([H])c([H])c(Oc7c([H])c([H])c(F)c([H])c7F)c([H])c6[H])c(C(=O)N([H])[H])c5N([H])[H])C4([H])[H])C([H])(C([H])([H])C([H])([H])[H])C3([H])[H])c([H])c([H])c2C1([H])[H]

>  <smiles>  (19) 
[H]c1c([H])c([H])c2c(c1[H])C([H])([H])C([H])([H])C([H])([H])C2([H])N([H])C(=O)C1([H])N(C(=O)C([H])(N([H])C(=O)C([H])(N([H])C([H])([H])[H])C([H])([H])[H])C(C([H])([H])[H])(C([H])([H])[H])C([H])([H])[H])C([H])([H])c2c([H])c(OC([H])([H])C([H])([H])C([H])([H])C([H])([H])C([H])([H])C(=O)C3([H])C([H])([H])N(C(=O)N4C([H])([H])C([H])([H])C([H])([H])C([H])(n5nc(-c6c([H])c([H])c(Oc7c([H])c([H])c(F)c([H])c7F)c([H])c6[H])c(C(=O)N([H])[H])c5N([H])[H])C4([H])[H])C([H])(C([H])([H])C([H])([H])[H])C3([H])[H])c([H])c([H])c2C1([H])[H]

$$$$
20:0:0
     RDKit          3D

 95103  0  0  1  0  0  0  0  0999 V2000
  -32.4220  -20.6510   20.4570 C   0  0  0  0  0  2  0  0  0  0  0  0
  -31.9600  -19.9670   21.7590 C   0  0  0  0  0  2  0  0  0  0  0  0
  -31.3720  -20.6130   19.3190 C   0  0  0  0  0  2  0  0  0  0  0  0
  -31.3450  -18.5730   21.4840 C   0  0  0  0  0  3  0  0  0  0  0  0
  -30.4230  -18.5700   20.2320 C   0  0  0  0  0  3  0  0  0  0  0  0
  -30.0980  -19.9960   19.7340 N   0  0  0  0  0  0  0  0  0  0  0  0
  -32.4290  -17.5840   21.3010 N   0  0  0  0  0  4  0  0  0  0  0  0
  -33.1170  -17.9240   20.6550 H   0  0  0  0  0  0  0  0  0  0  0  0
  -32.0640  -16.7160   20.9300 H   0  0  0  0  0  0  0  0  0  0  0  0
  -32.8810  -17.3880   22.1780 H   0  0  0  0  0  0  0  0  0  0  0  0
  -29.3780  -17.3460   20.1850 C   0  0  0  0  0  2  0  0  0  0  0  0
  -30.4740  -14.8430   20.3100 C   0  0  0  0  0  0  0  0  0  0  0  0
  -30.3440  -12.5760   19.2660 C   0  0  0  0  0  2  0  0  0  0  0  0
  -29.3830  -12.6260   18.0550 C   0  0  0  0  0  2  0  0  0  0  0  0
  -27.9250  -12.4170   18.5060 C   0  0  0  0  0  2  0  0  0  0  0  0
  -27.5460  -13.3060   19.7200 C   0  0  0  0  0  3  0  0  0  0  0  0
  -28.6110  -13.2010   20.8350 C   0  0  0  0  0  2  0  0  0  0  0  0
  -29.9070  -13.5890   20.2530 N   0  0  0  0  0  0  0  0  0  0  0  0
  -31.6300  -15.0410   19.9210 O   0  0  0  0  0  0  0  0  0  0  0  0
  -29.6440  -15.8950   20.6500 N   0  0  0  0  0  0  0  0  0  0  0  0
  -28.8200  -15.5250   21.1040 H   0  0  0  0  0  0  0  0  0  0  0  0
  -25.1540  -13.9020   20.4350 C   0  0  0  0  0  0  0  0  0  0  0  0
  -24.0900  -13.1280   20.8090 C   0  0  0  0  0  0  0  0  0  0  0  0
  -24.5570  -11.7780   20.7940 C   0  0  0  0  0  0  0  0  0  0  0  0
  -26.2020  -13.0220   20.2110 N   0  0  0  0  0  0  0  0  0  0  0  0
  -25.8480  -11.7390   20.4870 N   0  0  0  0  0  0  0  0  0  0  0  0
  -23.8370  -10.5140   20.9950 C   0  0  0  0  0  0  0  0  0  0  0  0
  -24.2740   -9.5570   21.9380 C   0  0  0  0  0  3  0  0  0  0  0  0
  -23.5520   -8.3570   22.1250 C   0  0  0  0  0  3  0  0  0  0  0  0
  -22.3830   -8.1060   21.3690 C   0  0  0  0  0  0  0  0  0  0  0  0
  -21.9640   -9.0550   20.4190 C   0  0  0  0  0  3  0  0  0  0  0  0
  -22.6860  -10.2450   20.2290 C   0  0  0  0  0  3  0  0  0  0  0  0
  -21.6300   -6.9590   21.4670 O   0  0  0  0  0  0  0  0  0  0  0  0
  -21.5910   -6.2220   22.6230 C   0  0  0  0  0  0  0  0  0  0  0  0
  -21.1800   -6.7830   23.8520 C   0  0  0  0  0  3  0  0  0  0  0  0
  -21.0840   -5.9720   24.9990 C   0  0  0  0  0  3  0  0  0  0  0  0
  -21.3950   -4.6000   24.9200 C   0  0  0  0  0  0  0  0  0  0  0  0
  -21.8020   -4.0380   23.6970 C   0  0  0  0  0  3  0  0  0  0  0  0
  -21.8970   -4.8470   22.5510 C   0  0  0  0  0  0  0  0  0  0  0  0
  -22.2670   -4.2960   21.3680 F   0  0  0  0  0  0  0  0  0  0  0  0
  -21.2950   -3.8180   26.0200 F   0  0  0  0  0  0  0  0  0  0  0  0
  -22.6860  -13.6000   21.0690 C   0  0  0  0  0  0  0  0  0  0  0  0
  -21.9560  -12.9130   21.9360 N   0  0  0  0  0  0  0  0  0  0  0  0
  -22.2480  -14.6200   20.5370 O   0  0  0  0  0  0  0  0  0  0  0  0
  -22.3270  -12.0920   22.3950 H   0  0  0  0  0  0  0  0  0  0  0  0
  -21.0160  -13.2130   22.1470 H   0  0  0  0  0  0  0  0  0  0  0  0
  -25.3100  -15.2710   20.2420 N   0  0  0  0  0  0  0  0  0  0  0  0
  -24.5300  -15.9150   20.3320 H   0  0  0  0  0  0  0  0  0  0  0  0
  -26.1410  -15.7080   19.8610 H   0  0  0  0  0  0  0  0  0  0  0  0
  -29.1230  -21.0080   20.3440 C   0  0  0  0  0  3  0  0  0  0  0  0
  -29.3460  -22.6320   20.2250 C   0  0  0  0  0  3  0  0  0  0  0  0
  -28.1600  -23.6850   20.5600 C   0  0  0  0  0  3  0  0  0  0  0  0
  -27.2270  -23.6280   19.6090 F   0  0  0  0  0  0  0  0  0  0  0  0
  -28.3630  -25.2300   21.0440 C   0  0  0  0  0  2  0  0  0  0  0  0
  -28.3490  -26.4820   20.2210 O   0  0  0  0  0  0  0  0  0  0  0  0
  -24.6000  -31.9430   23.2470 C   0  0  0  0  0  0  0  0  0  0  0  0
  -27.2300  -27.3370   20.2530 C   0  0  0  0  0  0  0  0  0  0  0  0
  -23.4020  -30.5340   21.6100 C   0  0  0  0  0  3  0  0  0  0  0  0
  -24.8620  -28.9590   20.2130 C   0  0  0  0  0  0  0  0  0  0  0  0
  -25.9440  -30.8470   21.4350 C   0  0  0  0  0  2  0  0  0  0  0  0
  -26.0290  -29.4550   20.8070 C   0  0  0  0  0  0  0  0  0  0  0  0
  -27.2170  -28.6580   20.8120 C   0  0  0  0  0  3  0  0  0  0  0  0
  -26.0370  -26.8930   19.6500 C   0  0  0  0  0  3  0  0  0  0  0  0
  -24.8680  -27.6800   19.6290 C   0  0  0  0  0  3  0  0  0  0  0  0
  -23.6250  -29.8370   20.2400 C   0  0  0  0  0  2  0  0  0  0  0  0
  -24.6660  -31.1280   22.1530 N   0  0  0  0  0  0  0  0  0  0  0  0
  -23.5170  -32.2240   23.7790 O   0  0  0  0  0  0  0  0  0  0  0  0
  -22.7330  -29.5290   22.5800 C   0  0  0  0  0  0  0  0  0  0  0  0
  -21.4070  -29.3500   22.4470 N   0  0  0  0  0  0  0  0  0  0  0  0
  -23.4060  -28.9070   23.4060 O   0  0  0  0  0  0  0  0  0  0  0  0
  -20.9220  -29.8990   21.7510 H   0  0  0  0  0  0  0  0  0  0  0  0
  -18.0280  -28.1550   22.9430 C   0  0  0  0  0  0  0  0  0  0  0  0
  -20.5860  -28.4200   23.2240 C   0  0  0  0  0  3  0  0  0  0  0  0
  -20.6920  -26.9840   22.6640 C   0  0  0  0  0  2  0  0  0  0  0  0
  -19.5960  -26.6500   21.6460 C   0  0  0  0  0  2  0  0  0  0  0  0
  -18.2100  -26.7990   22.2790 C   0  0  0  0  0  2  0  0  0  0  0  0
  -19.1450  -28.9210   23.3720 C   0  0  0  0  0  0  0  0  0  0  0  0
  -18.9200  -30.1890   23.9510 C   0  0  0  0  0  3  0  0  0  0  0  0
  -17.6140  -30.6910   24.1040 C   0  0  0  0  0  3  0  0  0  0  0  0
  -16.5130  -29.9210   23.6910 C   0  0  0  0  0  3  0  0  0  0  0  0
  -16.7220  -28.6540   23.1140 C   0  0  0  0  0  3  0  0  0  0  0  0
  -25.8810  -32.5800   23.8700 C   0  0  0  0  0  3  0  0  0  0  0  0
  -25.5700  -33.9800   24.1940 N   0  0  0  0  0  0  0  0  0  0  0  0
  -25.9070  -35.0300   23.4340 C   0  0  0  0  0  0  0  0  0  0  0  0
  -26.5800  -34.9220   22.4040 O   0  0  0  0  0  0  0  0  0  0  0  0
  -24.9680  -34.1370   24.9890 H   0  0  0  0  0  0  0  0  0  0  0  0
  -24.1800  -36.8220   23.0700 C   0  0  0  0  0  1  0  0  0  0  0  0
  -25.4190  -36.4210   23.8840 C   0  0  0  0  0  3  0  0  0  0  0  0
  -27.5530  -37.3050   24.7140 C   0  0  0  0  0  1  0  0  0  0  0  0
  -26.4510  -37.4730   23.7720 N   0  0  0  0  0  0  0  0  0  0  0  0
  -26.0430  -38.3940   23.9170 H   0  0  0  0  0  0  0  0  0  0  0  0
  -26.3910  -31.8170   25.1530 C   0  0  1  0  0  0  0  0  0  0  0  0
  -25.2940  -31.5960   26.2200 C   0  0  0  0  0  1  0  0  0  0  0  0
  -26.9730  -30.4330   24.7780 C   0  0  0  0  0  1  0  0  0  0  0  0
  -27.5400  -32.6160   25.8140 C   0  0  0  0  0  1  0  0  0  0  0  0
  1  2  1  0
  3  6  1  0
  3  1  1  0
  4  7  1  0
  4  2  1  0
  5 11  1  0
  5  4  1  0
  6  5  1  0
  6 50  1  0
  7 10  1  0
  8  7  1  0
  9  7  1  0
 11 20  1  0
 12 20  1  0
 13 18  1  0
 14 15  1  0
 14 13  1  0
 16 15  1  0
 16 25  1  0
 16 17  1  0
 18 12  1  0
 18 17  1  0
 19 12  2  0
 20 21  1  0
 22 23  2  0
 23 42  1  0
 24 23  1  0
 24 27  1  0
 25 22  1  0
 25 26  1  0
 26 24  2  0
 27 28  1  0
 28 29  2  0
 30 33  1  0
 30 29  1  0
 31 30  2  0
 32 31  1  0
 32 27  2  0
 33 34  1  0
 34 35  1  0
 35 36  2  0
 37 36  1  0
 37 41  1  0
 38 37  2  0
 39 34  2  0
 39 38  1  0
 40 39  1  0
 42 43  1  0
 43 46  1  0
 43 45  1  0
 44 42  2  0
 47 48  1  0
 47 22  1  0
 49 47  1  0
 51 50  2  0
 51 52  1  0
 52 53  1  0
 52 54  1  0
 55 57  1  0
 55 54  1  0
 56 67  2  0
 57 62  1  0
 58 66  1  0
 58 68  1  0
 59 65  1  0
 59 61  1  0
 60 66  1  0
 61 62  2  0
 61 60  1  0
 63 57  2  0
 64 63  1  0
 64 59  2  0
 65 58  1  0
 66 56  1  0
 68 70  2  0
 69 68  1  0
 71 69  1  0
 72 81  2  0
 72 77  1  0
 73 69  1  0
 73 77  1  0
 74 73  1  0
 75 76  1  0
 75 74  1  0
 76 72  1  0
 77 78  2  0
 78 79  1  0
 80 79  2  0
 81 80  1  0
 82 56  1  0
 82 83  1  0
 82 92  1  0
 83 86  1  0
 84 88  1  0
 84 83  1  0
 85 84  2  0
 88 87  1  0
 90 88  1  0
 90 91  1  0
 90 89  1  0
 92 95  1  1
 92 93  1  0
 94 92  1  0
M  ISO  4  12 100  20 100  54 101  55 101
M  END
>  <TORSDO>  (20) 
F 22

>  <SCORE>  (20) 
-13.113

>  <name>  (20) 
20

>  <ligand_id>  (20) 
20

>  <original_smiles>  (20) 
[H]c1c([H])c([H])c2c(c1[H])C([H])([H])C([H])([H])C([H])([H])C2([H])N([H])C(=O)C1([H])N(C(=O)C([H])(N([H])C(=O)C([H])(N([H])C([H])([H])[H])C([H])([H])[H])C(C([H])([H])[H])(C([H])([H])[H])C([H])([H])[H])C([H])([H])c2c([H])c(OC([H])([H])C([H])(F)C([H])([H])C([H])([H])N3C([H])([H])C([H])([H])C([H])([H])C([H])([N+]([H])([H])[H])C3([H])C([H])([H])N([H])C(=O)N3C([H])([H])C([H])([H])C([H])([H])C([H])(n4nc(-c5c([H])c([H])c(Oc6c([H])c([H])c(F)c([H])c6F)c([H])c5[H])c(C(=O)N([H])[H])c4N([H])[H])C3([H])[H])c([H])c([H])c2C1([H])[H]

>  <smiles>  (20) 
[H]c1c([H])c([H])c2c(c1[H])C([H])([H])C([H])([H])C([H])([H])C2([H])N([H])C(=O)C1([H])N(C(=O)C([H])(N([H])C(=O)C([H])(N([H])C([H])([H])[H])C([H])([H])[H])C(C([H])([H])[H])(C([H])([H])[H])C([H])([H])[H])C([H])([H])c2c([H])c(OC([H])([H])C([H])(F)C([H])([H])C([H])([H])N3C([H])([H])C([H])([H])C([H])([H])C([H])([N+]([H])([H])[H])C3([H])C([H])([H])N([H])C(=O)N3C([H])([H])C([H])([H])C([H])([H])C([H])(n4nc(-c5c([H])c([H])c(Oc6c([H])c([H])c(F)c([H])c6F)c([H])c5[H])c(C(=O)N([H])[H])c4N([H])[H])C3([H])[H])c([H])c([H])c2C1([H])[H]

$$$$
21:0:0
     RDKit          3D

 90 97  0  0  1  0  0  0  0  0999 V2000
  -27.7440  -22.3090   21.5430 C   0  0  0  0  0  2  0  0  0  0  0  0
  -28.4170  -23.2670   20.5440 C   0  0  0  0  0  2  0  0  0  0  0  0
  -28.1590  -24.7430   20.8970 C   0  0  0  0  0  2  0  0  0  0  0  0
  -28.7350  -25.7240   19.8610 C   0  0  0  0  0  2  0  0  0  0  0  0
  -28.6080  -27.0750   20.2970 O   0  0  0  0  0  0  0  0  0  0  0  0
  -24.5740  -32.0520   23.3300 C   0  0  0  0  0  0  0  0  0  0  0  0
  -27.3850  -27.7110   20.2620 C   0  0  0  0  0  0  0  0  0  0  0  0
  -23.4330  -30.6500   21.6390 C   0  0  0  0  0  3  0  0  0  0  0  0
  -24.9480  -29.1530   20.2350 C   0  0  0  0  0  0  0  0  0  0  0  0
  -25.9530  -31.0590   21.5080 C   0  0  0  0  0  2  0  0  0  0  0  0
  -26.0780  -29.6980   20.8560 C   0  0  0  0  0  0  0  0  0  0  0  0
  -27.2930  -28.9840   20.8650 C   0  0  0  0  0  3  0  0  0  0  0  0
  -26.2340  -27.1710   19.6400 C   0  0  0  0  0  3  0  0  0  0  0  0
  -25.0200  -27.8870   19.6270 C   0  0  0  0  0  3  0  0  0  0  0  0
  -23.6870  -29.9830   20.2590 C   0  0  0  0  0  2  0  0  0  0  0  0
  -24.6690  -31.2680   22.2180 N   0  0  0  0  0  0  0  0  0  0  0  0
  -23.4750  -32.2990   23.8450 O   0  0  0  0  0  0  0  0  0  0  0  0
  -22.7750  -29.6080   22.5710 C   0  0  0  0  0  0  0  0  0  0  0  0
  -21.4630  -29.3900   22.3900 N   0  0  0  0  0  0  0  0  0  0  0  0
  -23.4440  -28.9990   23.4090 O   0  0  0  0  0  0  0  0  0  0  0  0
  -20.9850  -29.9340   21.6860 H   0  0  0  0  0  0  0  0  0  0  0  0
  -18.1130  -28.0850   22.7310 C   0  0  0  0  0  0  0  0  0  0  0  0
  -20.6430  -28.4260   23.1250 C   0  0  0  0  0  3  0  0  0  0  0  0
  -20.8210  -26.9980   22.5590 C   0  0  0  0  0  2  0  0  0  0  0  0
  -19.7800  -26.6350   21.4940 C   0  0  0  0  0  2  0  0  0  0  0  0
  -18.3640  -26.7400   22.0690 C   0  0  0  0  0  2  0  0  0  0  0  0
  -19.1840  -28.8830   23.2120 C   0  0  0  0  0  0  0  0  0  0  0  0
  -18.8970  -30.1410   23.7850 C   0  0  0  0  0  3  0  0  0  0  0  0
  -17.5710  -30.6020   23.8840 C   0  0  0  0  0  3  0  0  0  0  0  0
  -16.5140  -29.8000   23.4200 C   0  0  0  0  0  3  0  0  0  0  0  0
  -16.7840  -28.5430   22.8510 C   0  0  0  0  0  3  0  0  0  0  0  0
  -25.8340  -32.6920   23.9910 C   0  0  0  0  0  3  0  0  0  0  0  0
  -26.2930  -31.9500   25.3060 C   0  0  1  0  0  0  0  0  0  0  0  0
  -25.1500  -31.7300   26.3240 C   0  0  0  0  0  1  0  0  0  0  0  0
  -26.9000  -30.5690   24.9690 C   0  0  0  0  0  1  0  0  0  0  0  0
  -27.4090  -32.7640   26.0040 C   0  0  0  0  0  1  0  0  0  0  0  0
  -25.5180  -34.0990   24.2700 N   0  0  0  0  0  0  0  0  0  0  0  0
  -25.8920  -35.1290   23.4990 C   0  0  0  0  0  0  0  0  0  0  0  0
  -26.6100  -34.9960   22.5050 O   0  0  0  0  0  0  0  0  0  0  0  0
  -24.8870  -34.2770   25.0370 H   0  0  0  0  0  0  0  0  0  0  0  0
  -24.1880  -36.9130   23.0170 C   0  0  0  0  0  1  0  0  0  0  0  0
  -25.3900  -36.5300   23.8950 C   0  0  0  0  0  3  0  0  0  0  0  0
  -27.4890  -37.4290   24.7960 C   0  0  0  0  0  1  0  0  0  0  0  0
  -26.4310  -37.5760   23.8000 N   0  0  0  0  0  0  0  0  0  0  0  0
  -26.0230  -38.5020   23.9030 H   0  0  0  0  0  0  0  0  0  0  0  0
  -27.7030  -20.8390   21.0940 C   0  0  0  0  0  2  0  0  0  0  0  0
  -29.0680  -20.1200   21.0460 C   0  0  0  0  0  2  0  0  0  0  0  0
  -28.8800  -18.6830   20.7470 N   0  0  0  0  0  4  0  0  0  0  0  0
  -28.5250  -18.6030   19.8070 H   0  0  0  0  0  0  0  0  0  0  0  0
  -28.1740  -18.3250   21.3710 H   0  0  0  0  0  0  0  0  0  0  0  0
  -30.0830  -17.8310   20.8710 C   0  0  0  0  0  2  0  0  0  0  0  0
  -29.7160  -16.3400   20.7090 C   0  0  0  0  0  2  0  0  0  0  0  0
  -31.2530  -14.5060   20.1490 C   0  0  0  0  0  0  0  0  0  0  0  0
  -30.8900  -12.2670   19.1800 C   0  0  0  0  0  2  0  0  0  0  0  0
  -29.9600  -12.3260   17.9560 C   0  0  0  0  0  2  0  0  0  0  0  0
  -28.4820  -12.2550   18.3820 C   0  0  0  0  0  2  0  0  0  0  0  0
  -28.1420  -13.2420   19.5270 C   0  0  0  0  0  3  0  0  0  0  0  0
  -29.1830  -13.1410   20.6660 C   0  0  0  0  0  2  0  0  0  0  0  0
  -30.5220  -13.3610   20.0910 N   0  0  0  0  0  0  0  0  0  0  0  0
  -32.3110  -14.6680   19.5410 O   0  0  0  0  0  0  0  0  0  0  0  0
  -30.8410  -15.4490   21.0070 N   0  0  0  0  0  0  0  0  0  0  0  0
  -31.6300  -15.9660   21.3690 H   0  0  0  0  0  0  0  0  0  0  0  0
  -25.7820  -13.9830   20.2430 C   0  0  0  0  0  0  0  0  0  0  0  0
  -24.6790  -13.2720   20.6330 C   0  0  0  0  0  0  0  0  0  0  0  0
  -25.0720  -11.8990   20.6160 C   0  0  0  0  0  0  0  0  0  0  0  0
  -26.7800  -13.0470   20.0180 N   0  0  0  0  0  0  0  0  0  0  0  0
  -26.3550  -11.7890   20.2960 N   0  0  0  0  0  0  0  0  0  0  0  0
  -24.2840  -10.6770   20.8280 C   0  0  0  0  0  0  0  0  0  0  0  0
  -24.6550   -9.7190   21.7970 C   0  0  0  0  0  3  0  0  0  0  0  0
  -23.8740   -8.5600   21.9940 C   0  0  0  0  0  3  0  0  0  0  0  0
  -22.7060   -8.3530   21.2220 C   0  0  0  0  0  0  0  0  0  0  0  0
  -22.3540   -9.2980   20.2430 C   0  0  0  0  0  3  0  0  0  0  0  0
  -23.1360  -10.4480   20.0450 C   0  0  0  0  0  3  0  0  0  0  0  0
  -21.8990   -7.2450   21.3280 O   0  0  0  0  0  0  0  0  0  0  0  0
  -21.7690   -6.5590   22.5070 C   0  0  0  0  0  0  0  0  0  0  0  0
  -21.3270   -7.1880   23.6910 C   0  0  0  0  0  3  0  0  0  0  0  0
  -21.1420   -6.4320   24.8650 C   0  0  0  0  0  3  0  0  0  0  0  0
  -21.3890   -5.0460   24.8550 C   0  0  0  0  0  0  0  0  0  0  0  0
  -21.8240   -4.4150   23.6760 C   0  0  0  0  0  3  0  0  0  0  0  0
  -22.0110   -5.1690   22.5050 C   0  0  0  0  0  0  0  0  0  0  0  0
  -22.4110   -4.5540   21.3660 F   0  0  0  0  0  0  0  0  0  0  0  0
  -21.2030   -4.3160   25.9800 F   0  0  0  0  0  0  0  0  0  0  0  0
  -23.3100  -13.8230   20.9080 C   0  0  0  0  0  0  0  0  0  0  0  0
  -22.5570  -13.1800   21.7950 N   0  0  0  0  0  0  0  0  0  0  0  0
  -22.9180  -14.8590   20.3740 O   0  0  0  0  0  0  0  0  0  0  0  0
  -22.8860  -12.3450   22.2550 H   0  0  0  0  0  0  0  0  0  0  0  0
  -21.6370  -13.5310   22.0200 H   0  0  0  0  0  0  0  0  0  0  0  0
  -26.0110  -15.3400   20.0360 N   0  0  0  0  0  0  0  0  0  0  0  0
  -25.2530  -16.0120   20.0820 H   0  0  0  0  0  0  0  0  0  0  0  0
  -26.8300  -15.6980   19.5630 H   0  0  0  0  0  0  0  0  0  0  0  0
  2  3  1  0
  2  1  1  0
  4  5  1  0
  4  3  1  0
  6 17  2  0
  7  5  1  0
  7 12  1  0
  8 16  1  0
  8 18  1  0
  9 15  1  0
  9 11  1  0
 10 16  1  0
 11 12  2  0
 11 10  1  0
 13  7  2  0
 14 13  1  0
 14  9  2  0
 15  8  1  0
 16  6  1  0
 18 20  2  0
 19 18  1  0
 21 19  1  0
 22 31  2  0
 22 27  1  0
 23 19  1  0
 23 27  1  0
 24 23  1  0
 25 26  1  0
 25 24  1  0
 26 22  1  0
 27 28  2  0
 28 29  1  0
 30 29  2  0
 31 30  1  0
 32  6  1  0
 32 37  1  0
 32 33  1  0
 33 36  1  1
 33 34  1  0
 35 33  1  0
 37 40  1  0
 38 42  1  0
 38 37  1  0
 39 38  2  0
 42 41  1  0
 44 42  1  0
 44 45  1  0
 44 43  1  0
 46  1  1  0
 47 46  1  0
 48 51  1  0
 48 47  1  0
 48 50  1  0
 49 48  1  0
 52 51  1  0
 52 61  1  0
 53 61  1  0
 54 59  1  0
 55 56  1  0
 55 54  1  0
 57 56  1  0
 57 66  1  0
 57 58  1  0
 59 53  1  0
 59 58  1  0
 60 53  2  0
 61 62  1  0
 63 64  2  0
 64 83  1  0
 65 64  1  0
 65 68  1  0
 66 63  1  0
 66 67  1  0
 67 65  2  0
 68 69  1  0
 69 70  2  0
 71 74  1  0
 71 70  1  0
 72 71  2  0
 73 72  1  0
 73 68  2  0
 74 75  1  0
 75 76  1  0
 76 77  2  0
 78 77  1  0
 78 82  1  0
 79 78  2  0
 80 75  2  0
 80 79  1  0
 81 80  1  0
 83 84  1  0
 84 87  1  0
 84 86  1  0
 85 83  2  0
 88 89  1  0
 88 63  1  0
 90 88  1  0
M  ISO  4   4 101   5 101  53 100  61 100
M  END
>  <TORSDO>  (21) 
F 24

>  <SCORE>  (21) 
-11.513

>  <name>  (21) 
21

>  <ligand_id>  (21) 
21

>  <original_smiles>  (21) 
[H]c1c([H])c([H])c2c(c1[H])C([H])([H])C([H])([H])C([H])([H])C2([H])N([H])C(=O)C1([H])N(C(=O)C([H])(N([H])C(=O)C([H])(N([H])C([H])([H])[H])C([H])([H])[H])C(C([H])([H])[H])(C([H])([H])[H])C([H])([H])[H])C([H])([H])c2c([H])c(OC([H])([H])C([H])([H])C([H])([H])C([H])([H])C([H])([H])C([H])([H])[N+]([H])([H])C([H])([H])C([H])([H])N([H])C(=O)N3C([H])([H])C([H])([H])C([H])([H])C([H])(n4nc(-c5c([H])c([H])c(Oc6c([H])c([H])c(F)c([H])c6F)c([H])c5[H])c(C(=O)N([H])[H])c4N([H])[H])C3([H])[H])c([H])c([H])c2C1([H])[H]

>  <smiles>  (21) 
[H]c1c([H])c([H])c2c(c1[H])C([H])([H])C([H])([H])C([H])([H])C2([H])N([H])C(=O)C1([H])N(C(=O)C([H])(N([H])C(=O)C([H])(N([H])C([H])([H])[H])C([H])([H])[H])C(C([H])([H])[H])(C([H])([H])[H])C([H])([H])[H])C([H])([H])c2c([H])c(OC([H])([H])C([H])([H])C([H])([H])C([H])([H])C([H])([H])C([H])([H])[N+]([H])([H])C([H])([H])C([H])([H])N([H])C(=O)N3C([H])([H])C([H])([H])C([H])([H])C([H])(n4nc(-c5c([H])c([H])c(Oc6c([H])c([H])c(F)c([H])c6F)c([H])c5[H])c(C(=O)N([H])[H])c4N([H])[H])C3([H])[H])c([H])c([H])c2C1([H])[H]

$$$$
22:0:0
     RDKit          3D

 92100  0  0  1  0  0  0  0  0999 V2000
  -30.2590  -23.0960   20.0520 C   0  0  0  0  0  2  0  0  0  0  0  0
  -29.5270  -24.0600   19.1990 N   0  0  0  0  0  4  0  0  0  0  0  0
  -28.5850  -24.1230   19.5530 H   0  0  0  0  0  0  0  0  0  0  0  0
  -29.4750  -23.6950   18.2600 H   0  0  0  0  0  0  0  0  0  0  0  0
  -30.1090  -25.4220   19.1390 C   0  0  0  0  0  2  0  0  0  0  0  0
  -29.0340  -26.4950   18.8910 C   0  0  0  0  0  2  0  0  0  0  0  0
  -28.4240  -26.7690   20.1470 O   0  0  0  0  0  0  0  0  0  0  0  0
  -24.6020  -31.8930   23.2230 C   0  0  0  0  0  0  0  0  0  0  0  0
  -27.2540  -27.4860   20.1180 C   0  0  0  0  0  0  0  0  0  0  0  0
  -23.3880  -30.4790   21.5920 C   0  0  0  0  0  3  0  0  0  0  0  0
  -24.8410  -28.9460   20.1580 C   0  0  0  0  0  0  0  0  0  0  0  0
  -25.9060  -30.8560   21.3740 C   0  0  0  0  0  2  0  0  0  0  0  0
  -25.9950  -29.4830   20.7420 C   0  0  0  0  0  0  0  0  0  0  0  0
  -27.2000  -28.7520   20.7370 C   0  0  0  0  0  3  0  0  0  0  0  0
  -26.0870  -26.9480   19.5380 C   0  0  0  0  0  3  0  0  0  0  0  0
  -24.8790  -27.6730   19.5590 C   0  0  0  0  0  3  0  0  0  0  0  0
  -23.5900  -29.7930   20.2130 C   0  0  0  0  0  2  0  0  0  0  0  0
  -24.6500  -31.0910   22.1220 N   0  0  0  0  0  0  0  0  0  0  0  0
  -23.5250  -32.1630   23.7720 O   0  0  0  0  0  0  0  0  0  0  0  0
  -22.7490  -29.4600   22.5620 C   0  0  0  0  0  0  0  0  0  0  0  0
  -21.4240  -29.2770   22.4480 N   0  0  0  0  0  0  0  0  0  0  0  0
  -23.4410  -28.8380   23.3710 O   0  0  0  0  0  0  0  0  0  0  0  0
  -20.9260  -29.8340   21.7660 H   0  0  0  0  0  0  0  0  0  0  0  0
  -18.0570  -28.0750   22.9670 C   0  0  0  0  0  0  0  0  0  0  0  0
  -20.6150  -28.3410   23.2270 C   0  0  0  0  0  3  0  0  0  0  0  0
  -20.7190  -26.9070   22.6570 C   0  0  0  0  0  2  0  0  0  0  0  0
  -19.6150  -26.5780   21.6490 C   0  0  0  0  0  2  0  0  0  0  0  0
  -18.2350  -26.7230   22.2970 C   0  0  0  0  0  2  0  0  0  0  0  0
  -19.1760  -28.8410   23.3890 C   0  0  0  0  0  0  0  0  0  0  0  0
  -18.9570  -30.1080   23.9740 C   0  0  0  0  0  3  0  0  0  0  0  0
  -17.6530  -30.6070   24.1430 C   0  0  0  0  0  3  0  0  0  0  0  0
  -16.5480  -29.8370   23.7360 C   0  0  0  0  0  3  0  0  0  0  0  0
  -16.7520  -28.5740   23.1560 C   0  0  0  0  0  3  0  0  0  0  0  0
  -25.8920  -32.5280   23.8300 C   0  0  0  0  0  3  0  0  0  0  0  0
  -25.5780  -33.9200   24.1770 N   0  0  0  0  0  0  0  0  0  0  0  0
  -25.8940  -34.9810   23.4230 C   0  0  0  0  0  0  0  0  0  0  0  0
  -26.5520  -34.8920   22.3830 O   0  0  0  0  0  0  0  0  0  0  0  0
  -24.9880  -34.0630   24.9850 H   0  0  0  0  0  0  0  0  0  0  0  0
  -24.1440  -36.7580   23.1080 C   0  0  0  0  0  1  0  0  0  0  0  0
  -25.4010  -36.3610   23.8970 C   0  0  0  0  0  3  0  0  0  0  0  0
  -27.5440  -37.2550   24.6950 C   0  0  0  0  0  1  0  0  0  0  0  0
  -26.4220  -37.4250   23.7750 N   0  0  0  0  0  0  0  0  0  0  0  0
  -26.0120  -38.3390   23.9420 H   0  0  0  0  0  0  0  0  0  0  0  0
  -26.4380  -31.7480   25.0890 C   0  0  1  0  0  0  0  0  0  0  0  0
  -25.3680  -31.4920   26.1740 C   0  0  0  0  0  1  0  0  0  0  0  0
  -27.0230  -30.3800   24.6700 C   0  0  0  0  0  1  0  0  0  0  0  0
  -27.5970  -32.5450   25.7360 C   0  0  0  0  0  1  0  0  0  0  0  0
  -29.9920  -21.6440   19.6170 C   0  0  0  0  0  2  0  0  0  0  0  0
  -30.3840  -20.5810   20.6630 C   0  0  0  0  0  2  0  0  0  0  0  0
  -31.9010  -18.7860   19.4950 C   0  0  0  0  0  2  0  0  0  0  0  0
  -32.0830  -17.9720   20.7770 C   0  0  0  0  0  2  0  0  0  0  0  0
  -30.5200  -19.1950   20.0250 C   0  0  0  0  0  3  0  0  0  0  0  0
  -30.5510  -17.9080   20.8860 C   0  0  0  0  0  3  0  0  0  0  0  0
  -29.7840  -16.7110   20.3030 C   0  0  0  0  0  2  0  0  0  0  0  0
  -30.6650  -14.4290   20.4740 C   0  0  0  0  0  0  0  0  0  0  0  0
  -30.3480  -12.2880   19.3160 C   0  0  0  0  0  2  0  0  0  0  0  0
  -29.3970  -12.5360   18.1250 C   0  0  0  0  0  2  0  0  0  0  0  0
  -27.9260  -12.4050   18.5640 C   0  0  0  0  0  2  0  0  0  0  0  0
  -27.6080  -13.2220   19.8440 C   0  0  0  0  0  3  0  0  0  0  0  0
  -28.6680  -12.9570   20.9400 C   0  0  0  0  0  2  0  0  0  0  0  0
  -30.0010  -13.2460   20.3770 N   0  0  0  0  0  0  0  0  0  0  0  0
  -31.7510  -14.6400   19.9310 O   0  0  0  0  0  0  0  0  0  0  0  0
  -29.9460  -15.4320   20.9970 N   0  0  0  0  0  0  0  0  0  0  0  0
  -29.1500  -15.1380   21.5410 H   0  0  0  0  0  0  0  0  0  0  0  0
  -25.2110  -13.8360   20.5650 C   0  0  0  0  0  0  0  0  0  0  0  0
  -24.1420  -13.0640   20.9380 C   0  0  0  0  0  0  0  0  0  0  0  0
  -24.5980  -11.7120   20.8960 C   0  0  0  0  0  0  0  0  0  0  0  0
  -26.2520  -12.9520   20.3250 N   0  0  0  0  0  0  0  0  0  0  0  0
  -25.8860  -11.6700   20.5760 N   0  0  0  0  0  0  0  0  0  0  0  0
  -23.8710  -10.4500   21.0870 C   0  0  0  0  0  0  0  0  0  0  0  0
  -24.3300   -9.4590   21.9820 C   0  0  0  0  0  3  0  0  0  0  0  0
  -23.6040   -8.2620   22.1600 C   0  0  0  0  0  3  0  0  0  0  0  0
  -22.4040   -8.0470   21.4430 C   0  0  0  0  0  0  0  0  0  0  0  0
  -21.9620   -9.0270   20.5350 C   0  0  0  0  0  3  0  0  0  0  0  0
  -22.6900  -10.2150   20.3560 C   0  0  0  0  0  3  0  0  0  0  0  0
  -21.6460   -6.9040   21.5310 O   0  0  0  0  0  0  0  0  0  0  0  0
  -21.6580   -6.1200   22.6560 C   0  0  0  0  0  0  0  0  0  0  0  0
  -21.3340   -6.6370   23.9300 C   0  0  0  0  0  3  0  0  0  0  0  0
  -21.2910   -5.7800   25.0480 C   0  0  0  0  0  3  0  0  0  0  0  0
  -21.5620   -4.4060   24.8950 C   0  0  0  0  0  0  0  0  0  0  0  0
  -21.8790   -3.8890   23.6260 C   0  0  0  0  0  3  0  0  0  0  0  0
  -21.9240   -4.7430   22.5100 C   0  0  0  0  0  0  0  0  0  0  0  0
  -22.2100   -4.2360   21.2870 F   0  0  0  0  0  0  0  0  0  0  0  0
  -21.5120   -3.5820   25.9660 F   0  0  0  0  0  0  0  0  0  0  0  0
  -22.7490  -13.5450   21.2270 C   0  0  0  0  0  0  0  0  0  0  0  0
  -22.0290  -12.8490   22.0990 N   0  0  0  0  0  0  0  0  0  0  0  0
  -22.3050  -14.5740   20.7160 O   0  0  0  0  0  0  0  0  0  0  0  0
  -22.4000  -12.0190   22.5360 H   0  0  0  0  0  0  0  0  0  0  0  0
  -21.0950  -13.1510   22.3380 H   0  0  0  0  0  0  0  0  0  0  0  0
  -25.3770  -15.2050   20.3930 N   0  0  0  0  0  0  0  0  0  0  0  0
  -24.6110  -15.8600   20.5050 H   0  0  0  0  0  0  0  0  0  0  0  0
  -26.2220  -15.6390   20.0430 H   0  0  0  0  0  0  0  0  0  0  0  0
  2  3  1  0
  2  1  1  0
  4  2  1  0
  5  2  1  0
  6  5  1  0
  6  7  1  0
  8 19  2  0
  9  7  1  0
  9 14  1  0
 10 18  1  0
 10 20  1  0
 11 17  1  0
 11 13  1  0
 12 18  1  0
 13 12  1  0
 14 13  2  0
 15 16  1  0
 15  9  2  0
 16 11  2  0
 17 10  1  0
 18  8  1  0
 20 22  2  0
 21 20  1  0
 23 21  1  0
 24 33  2  0
 24 29  1  0
 25 21  1  0
 25 29  1  0
 26 25  1  0
 27 28  1  0
 27 26  1  0
 28 24  1  0
 29 30  2  0
 30 31  1  0
 32 31  2  0
 33 32  1  0
 34  8  1  0
 34 35  1  0
 34 44  1  0
 35 38  1  0
 36 40  1  0
 36 35  1  0
 37 36  2  0
 40 39  1  0
 42 40  1  0
 42 43  1  0
 42 41  1  0
 44 47  1  1
 44 45  1  0
 46 44  1  0
 48  1  1  0
 48 49  1  0
 50 52  1  0
 50 51  1  0
 51 53  1  0
 52 49  1  0
 52 53  1  0
 53 54  1  0
 54 63  1  0
 55 63  1  0
 56 61  1  0
 57 58  1  0
 57 56  1  0
 59 58  1  0
 59 68  1  0
 59 60  1  0
 61 55  1  0
 61 60  1  0
 62 55  2  0
 63 64  1  0
 65 66  2  0
 66 85  1  0
 67 66  1  0
 67 70  1  0
 68 65  1  0
 68 69  1  0
 69 67  2  0
 70 71  1  0
 71 72  2  0
 73 76  1  0
 73 72  1  0
 74 73  2  0
 75 74  1  0
 75 70  2  0
 76 77  1  0
 77 78  1  0
 78 79  2  0
 80 79  1  0
 80 84  1  0
 81 80  2  0
 82 77  2  0
 82 81  1  0
 83 82  1  0
 85 86  1  0
 86 89  1  0
 86 88  1  0
 87 85  2  0
 90 91  1  0
 90 65  1  0
 92 90  1  0
M  ISO  4   6 101   7 101  55 100  63 100
M  END
>  <TORSDO>  (22) 
F 23

>  <SCORE>  (22) 
-12.704

>  <name>  (22) 
22

>  <ligand_id>  (22) 
22

>  <original_smiles>  (22) 
[H]c1c([H])c([H])c2c(c1[H])C([H])([H])C([H])([H])C([H])([H])C2([H])N([H])C(=O)C1([H])N(C(=O)C([H])(N([H])C(=O)C([H])(N([H])C([H])([H])[H])C([H])([H])[H])C(C([H])([H])[H])(C([H])([H])[H])C([H])([H])[H])C([H])([H])c2c([H])c(OC([H])([H])C([H])([H])[N+]([H])([H])C([H])([H])C([H])([H])C([H])([H])C3([H])C([H])([H])C([H])([H])C3([H])C([H])([H])N([H])C(=O)N3C([H])([H])C([H])([H])C([H])([H])C([H])(n4nc(-c5c([H])c([H])c(Oc6c([H])c([H])c(F)c([H])c6F)c([H])c5[H])c(C(=O)N([H])[H])c4N([H])[H])C3([H])[H])c([H])c([H])c2C1([H])[H]

>  <smiles>  (22) 
[H]c1c([H])c([H])c2c(c1[H])C([H])([H])C([H])([H])C([H])([H])C2([H])N([H])C(=O)C1([H])N(C(=O)C([H])(N([H])C(=O)C([H])(N([H])C([H])([H])[H])C([H])([H])[H])C(C([H])([H])[H])(C([H])([H])[H])C([H])([H])[H])C([H])([H])c2c([H])c(OC([H])([H])C([H])([H])[N+]([H])([H])C([H])([H])C([H])([H])C([H])([H])C3([H])C([H])([H])C([H])([H])C3([H])C([H])([H])N([H])C(=O)N3C([H])([H])C([H])([H])C([H])([H])C([H])(n4nc(-c5c([H])c([H])c(Oc6c([H])c([H])c(F)c([H])c6F)c([H])c5[H])c(C(=O)N([H])[H])c4N([H])[H])C3([H])[H])c([H])c([H])c2C1([H])[H]

$$$$
23:0:0
     RDKit          3D

 98 99  0  0  1  0  0  0  0  0999 V2000
  -24.1060  -23.4890   20.9760 C   0  0  0  0  0  2  0  0  0  0  0  0
  -25.0970  -22.2140   20.4160 N   0  0  0  0  0  2  0  0  0  0  0  0
  -24.8350  -24.2440   21.6180 O   0  0  0  0  0  1  0  0  0  0  0  0
  -24.4720  -21.6850   19.8190 H   0  0  0  0  0  0  0  0  0  0  0  0
  -30.8960  -17.4660   19.5720 C   0  0  0  0  0  0  0  0  0  0  0  0
  -32.1300  -14.9940   18.9190 C   0  0  0  0  0  2  0  0  0  0  0  0
  -31.5050  -14.0300   17.8350 C   0  0  0  0  0  2  0  0  0  0  0  0
  -30.2100  -13.3920   18.3520 C   0  0  0  0  0  2  0  0  0  0  0  0
  -29.4800  -14.4390   19.2070 C   0  0  0  0  0  3  0  0  0  0  0  0
  -30.3140  -15.0300   20.3330 C   0  0  0  0  0  2  0  0  0  0  0  0
  -31.0900  -15.9790   19.6040 N   0  0  0  0  0  0  0  0  0  0  0  0
  -32.1080  -17.7250   19.2310 O   0  0  0  0  0  0  0  0  0  0  0  0
  -28.1590  -21.9240   20.4920 C   0  0  0  0  0  2  0  0  0  0  0  0
  -27.8780  -19.3870   19.8620 C   0  0  0  0  0 15  0  0  0  0  0  0
  -30.2480  -19.9660   20.2690 C   0  0  0  0  0  2  0  0  0  0  0  0
  -26.8080  -21.1470   20.3970 C   0  0  0  0  0  1  0  0  0  0  0  0
  -29.4160  -21.0940   21.1050 C   0  0  0  0  0  3  0  0  0  0  0  0
  -29.6550  -18.6290   19.9020 N   0  0  0  0  0  2  0  0  0  0  0  0
  -27.3140  -14.8830   20.3210 C   0  0  0  0  0  0  0  0  0  0  0  0
  -26.3340  -14.0550   20.7640 C   0  0  0  0  0  0  0  0  0  0  0  0
  -26.7900  -12.7270   20.4980 C   0  0  0  0  0  0  0  0  0  0  0  0
  -28.2600  -14.0390   19.7890 N   0  0  0  0  0  0  0  0  0  0  0  0
  -28.0020  -12.7330   19.9750 N   0  0  0  0  0  0  0  0  0  0  0  0
  -26.1100  -11.4480   20.6330 C   0  0  0  0  0  0  0  0  0  0  0  0
  -26.3980  -10.5670   21.6970 C   0  0  0  0  0  3  0  0  0  0  0  0
  -25.7110   -9.3430   21.8040 C   0  0  0  0  0  3  0  0  0  0  0  0
  -24.7300   -8.9970   20.8440 C   0  0  0  0  0  0  0  0  0  0  0  0
  -24.4720   -9.8680   19.7710 C   0  0  0  0  0  3  0  0  0  0  0  0
  -25.1600  -11.0840   19.6620 C   0  0  0  0  0  3  0  0  0  0  0  0
  -24.0230   -7.8230   20.8550 O   0  0  0  0  0  0  0  0  0  0  0  0
  -23.2240   -7.4790   21.9140 C   0  0  0  0  0  0  0  0  0  0  0  0
  -22.2000   -8.3310   22.3830 C   0  0  0  0  0  3  0  0  0  0  0  0
  -21.3580   -7.9060   23.4300 C   0  0  0  0  0  3  0  0  0  0  0  0
  -21.5320   -6.6300   24.0000 C   0  0  0  0  0  0  0  0  0  0  0  0
  -22.5490   -5.7800   23.5300 C   0  0  0  0  0  3  0  0  0  0  0  0
  -23.3920   -6.2040   22.4880 C   0  0  0  0  0  0  0  0  0  0  0  0
  -24.3580   -5.3760   22.0240 F   0  0  0  0  0  0  0  0  0  0  0  0
  -20.7170   -6.2160   24.9980 F   0  0  0  0  0  0  0  0  0  0  0  0
  -25.0100  -14.4890   21.3000 C   0  0  0  0  0  0  0  0  0  0  0  0
  -24.4090  -13.6760   22.1570 N   0  0  0  0  0  0  0  0  0  0  0  0
  -24.5280  -15.5780   20.9930 O   0  0  0  0  0  0  0  0  0  0  0  0
  -24.8250  -12.7950   22.4180 H   0  0  0  0  0  0  0  0  0  0  0  0
  -23.5200  -13.9370   22.5600 H   0  0  0  0  0  0  0  0  0  0  0  0
  -27.4730  -16.2630   20.2950 N   0  0  0  0  0  0  0  0  0  0  0  0
  -26.7290  -16.8820   20.5960 H   0  0  0  0  0  0  0  0  0  0  0  0
  -28.2230  -16.7440   19.8190 H   0  0  0  0  0  0  0  0  0  0  0  0
  -30.3950  -22.0790   21.6160 N   0  0  0  0  0  4  0  0  0  0  0  0
  -30.8200  -22.6060   20.8750 H   0  0  0  0  0  0  0  0  0  0  0  0
  -31.1230  -21.6180   22.1330 H   0  0  0  0  0  0  0  0  0  0  0  0
  -29.9490  -22.7210   22.2470 H   0  0  0  0  0  0  0  0  0  0  0  0
  -22.1620  -24.2860   21.1400 C   0  0  0  0  0 15  0  0  0  0  0  0
  -20.8090  -25.7510   20.6850 N   0  0  0  0  0  0  0  0  0  0  0  0
  -19.8750  -25.3780   20.7390 H   0  0  0  0  0  0  0  0  0  0  0  0
  -20.8910  -26.4050   21.4430 H   0  0  0  0  0  0  0  0  0  0  0  0
  -21.0090  -27.1000   18.5950 C   0  0  0  0  0  2  0  0  0  0  0  0
  -22.7300  -27.2370   17.7390 C   0  0  0  0  0  2  0  0  0  0  0  0
  -24.4500  -26.5550   17.9620 C   0  0  0  0  0  2  0  0  0  0  0  0
  -25.9710  -26.5510   18.7210 O   0  0  0  0  0  0  0  0  0  0  0  0
  -24.4840  -31.1700   22.4720 C   0  0  0  0  0  0  0  0  0  0  0  0
  -26.9900  -27.4800   18.5520 C   0  0  0  0  0  3  0  0  0  0  0  0
  -23.5970  -30.4070   20.3320 C   0  0  0  0  0  3  0  0  0  0  0  0
  -25.3250  -29.6010   18.5780 C   0  0  0  0  0  0  0  0  0  0  0  0
  -26.1240  -30.5020   20.7300 C   0  0  0  0  0  2  0  0  0  0  0  0
  -26.2310  -29.4780   19.6290 C   0  0  0  0  0  0  0  0  0  0  0  0
  -27.1570  -28.4130   19.6090 C   0  0  0  0  0  3  0  0  0  0  0  0
  -26.6570  -27.9900   17.3230 C   0  0  0  0  0  2  0  0  0  0  0  0
  -25.6220  -28.9500   17.3600 C   0  0  0  0  0  3  0  0  0  0  0  0
  -24.1070  -30.4620   18.8480 C   0  0  0  0  0  2  0  0  0  0  0  0
  -24.7420  -30.7330   21.2180 N   0  0  0  0  0  0  0  0  0  0  0  0
  -23.3240  -31.3600   22.8660 O   0  0  0  0  0  0  0  0  0  0  0  0
  -23.0020  -29.0670   20.8630 C   0  0  0  0  0  0  0  0  0  0  0  0
  -21.7920  -28.9780   21.3700 N   0  0  0  0  0  0  0  0  0  0  0  0
  -23.6770  -28.0490   20.9200 O   0  0  0  0  0  0  0  0  0  0  0  0
  -21.2430  -29.8170   21.4970 H   0  0  0  0  0  0  0  0  0  0  0  0
  -18.1810  -28.3640   21.9300 C   0  0  0  0  0  0  0  0  0  0  0  0
  -21.1020  -27.6510   21.5460 C   0  0  0  0  0  2  0  0  0  0  0  0
  -21.0710  -26.6290   19.6980 C   0  0  0  0  0  2  0  0  0  0  0  0
  -18.7190  -26.8020   18.7130 C   0  0  0  0  0 15  0  0  0  0  0  0
  -17.4910  -27.6540   20.3290 C   0  0  0  0  0  1  0  0  0  0  0  0
  -19.6680  -28.3450   22.4060 C   0  0  0  0  0  0  0  0  0  0  0  0
  -20.0000  -29.2490   23.5230 C   0  0  0  0  0  3  0  0  0  0  0  0
  -19.1010  -30.0290   24.3020 C   0  0  0  0  0  3  0  0  0  0  0  0
  -17.7410  -29.9360   23.9910 C   0  0  0  0  0  3  0  0  0  0  0  0
  -17.3300  -29.1530   22.8510 C   0  0  0  0  0  3  0  0  0  0  0  0
  -25.6500  -31.4640   23.4490 C   0  0  0  0  0  3  0  0  0  0  0  0
  -25.4710  -32.8480   23.8980 N   0  0  0  0  0  0  0  0  0  0  0  0
  -26.1400  -33.8930   23.4020 C   0  0  0  0  0  0  0  0  0  0  0  0
  -27.0450  -33.7780   22.5700 O   0  0  0  0  0  0  0  0  0  0  0  0
  -24.7110  -33.0230   24.5390 H   0  0  0  0  0  0  0  0  0  0  0  0
  -24.9020  -36.0110   22.8510 C   0  0  0  0  0  1  0  0  0  0  0  0
  -25.7450  -35.2900   23.9140 C   0  0  0  0  0  3  0  0  0  0  0  0
  -27.6250  -35.6280   25.4550 C   0  0  0  0  0  1  0  0  0  0  0  0
  -26.9050  -36.1280   24.2860 N   0  0  0  0  0  0  0  0  0  0  0  0
  -26.6130  -37.0820   24.4780 H   0  0  0  0  0  0  0  0  0  0  0  0
  -25.6990  -30.4700   24.6710 C   0  0  1  0  0  0  0  0  0  0  0  0
  -24.3390  -30.2950   25.3850 C   0  0  0  0  0  1  0  0  0  0  0  0
  -26.1770  -29.0630   24.2380 C   0  0  0  0  0  1  0  0  0  0  0  0
  -26.7300  -30.9820   25.7040 C   0  0  0  0  0  1  0  0  0  0  0  0
  1  3  1  0
  2  1  1  0
  4  2  1  0
  5 11  1  0
  5 18  1  0
  6 11  1  0
  7  8  1  0
  7  6  1  0
  9  8  1  0
  9 22  1  0
  9 10  1  0
 11 10  1  0
 12  5  2  0
 13 17  1  0
 16 13  1  0
 17 15  1  0
 17 47  1  0
 18 15  1  0
 19 20  2  0
 20 39  1  0
 21 24  1  0
 21 20  1  0
 22 23  1  0
 22 19  1  0
 23 21  2  0
 24 25  1  0
 25 26  2  0
 27 30  1  0
 27 26  1  0
 28 27  2  0
 29 28  1  0
 29 24  2  0
 30 31  1  0
 31 32  2  0
 31 36  1  0
 32 33  1  0
 33 34  2  0
 34 38  1  0
 35 34  1  0
 36 35  2  0
 37 36  1  0
 39 40  1  0
 40 42  1  0
 40 43  1  0
 41 39  2  0
 44 19  1  0
 44 45  1  0
 46 44  1  0
 47 49  1  0
 47 50  1  0
 48 47  1  0
 52 53  1  0
 52 54  1  0
 55 77  1  0
 56 57  1  0
 56 55  1  0
 57 58  1  0
 59 70  2  0
 60 58  1  0
 60 65  1  0
 61 71  1  0
 61 69  1  0
 62 68  1  0
 62 64  1  0
 63 69  1  0
 64 63  1  0
 65 64  2  0
 66 67  1  0
 66 60  1  0
 67 62  2  0
 68 61  1  0
 69 59  1  0
 71 73  2  0
 71 72  1  0
 72 74  1  0
 72 76  1  0
 75 80  2  0
 75 84  1  0
 76 80  1  0
 77 52  1  0
 79 75  1  0
 80 81  1  0
 81 82  2  0
 83 82  1  0
 84 83  2  0
 85 59  1  0
 85 86  1  0
 85 95  1  0
 86 89  1  0
 87 86  1  0
 87 91  1  0
 88 87  2  0
 91 90  1  0
 91 93  1  0
 93 94  1  0
 93 92  1  0
 95 96  1  1
 95 98  1  0
 97 95  1  0
M  ISO  4   5 100  18 100  57 101  58 101
M  END
>  <TORSDO>  (23) 
F 22

>  <SCORE>  (23) 
-5.293

>  <name>  (23) 
23

>  <ligand_id>  (23) 
23

>  <original_smiles>  (23) 
[H]c1c([H])c([H])c2c(c1[H])C([H])([H])C([H])([H])C([H])([H])C2([H])N([H])C(=O)C1([H])N(C(=O)C([H])(N([H])C(=O)C([H])(N([H])C([H])([H])[H])C([H])([H])[H])C(C([H])([H])[H])(C([H])([H])[H])C([H])([H])[H])C([H])([H])c2c([H])c(OC([H])([H])C([H])([H])C([H])([H])[N+]([H])([H])C([H])([H])C(=O)N([H])C3([H])C([H])([H])N(C(=O)N4C([H])([H])C([H])([H])C([H])([H])C([H])(n5nc(-c6c([H])c([H])c(Oc7c([H])c([H])c(F)c([H])c7F)c([H])c6[H])c(C(=O)N([H])[H])c5N([H])[H])C4([H])[H])C([H])([H])C([H])([N+]([H])([H])[H])C3([H])[H])c([H])c([H])c2C1([H])[H]

>  <smiles>  (23) 
[H]c1c([H])c([H])c2c(c1[H])C([H])([H])C([H])([H])C([H])([H])C2([H])N([H])C(=O)C1([H])N(C(=O)C([H])(N([H])C(=O)C([H])(N([H])C([H])([H])[H])C([H])([H])[H])C(C([H])([H])[H])(C([H])([H])[H])C([H])([H])[H])C([H])([H])c2c([H])c(OC([H])([H])C([H])([H])C([H])([H])[N+]([H])([H])C([H])([H])C(=O)N([H])C3([H])C([H])([H])N(C(=O)N4C([H])([H])C([H])([H])C([H])([H])C([H])(n5nc(-c6c([H])c([H])c(Oc7c([H])c([H])c(F)c([H])c7F)c([H])c6[H])c(C(=O)N([H])[H])c5N([H])[H])C4([H])[H])C([H])([H])C([H])([N+]([H])([H])[H])C3([H])[H])c([H])c([H])c2C1([H])[H]

$$$$
24:0:0
     RDKit          3D

 98106  0  0  1  0  0  0  0  0999 V2000
  -30.4440  -19.2570   20.3660 C   0  0  0  0  0  2  0  0  0  0  0  0
  -29.9020  -19.3140   17.9960 C   0  0  0  0  0  2  0  0  0  0  0  0
  -30.4750  -20.1960   19.1390 C   0  0  0  0  0  3  0  0  0  0  0  0
  -30.3200  -17.8000   19.8280 C   0  0  0  0  0  3  0  0  0  0  0  0
  -29.6290  -17.9530   18.5260 N   0  0  0  0  0  4  0  0  0  0  0  0
  -29.9500  -17.2480   17.8780 H   0  0  0  0  0  0  0  0  0  0  0  0
  -28.6330  -17.8490   18.6300 H   0  0  0  0  0  0  0  0  0  0  0  0
  -29.7070  -21.4400   19.3870 N   0  0  0  0  0  0  0  0  0  0  0  0
  -28.7230  -21.2960   19.1700 H   0  0  0  0  0  0  0  0  0  0  0  0
  -30.1940  -22.6120   18.6310 C   0  0  0  0  0  2  0  0  0  0  0  0
  -29.5900  -23.9750   19.1200 C   0  0  0  0  0  2  0  0  0  0  0  0
  -29.7670  -25.1610   18.1150 C   0  0  0  0  0  2  0  0  0  0  0  0
  -29.4830  -26.4800   18.6520 O   0  0  0  0  0  0  0  0  0  0  0  0
  -24.9990  -30.6030   22.3650 C   0  0  0  0  0  0  0  0  0  0  0  0
  -28.1990  -27.0100   18.7110 C   0  0  0  0  0  0  0  0  0  0  0  0
  -23.9740  -29.2990   20.5270 C   0  0  0  0  0  3  0  0  0  0  0  0
  -25.6120  -28.1820   18.9140 C   0  0  0  0  0  0  0  0  0  0  0  0
  -26.4320  -30.0100   20.4090 C   0  0  0  0  0  2  0  0  0  0  0  0
  -26.6930  -28.7630   19.5830 C   0  0  0  0  0  0  0  0  0  0  0  0
  -27.9810  -28.1810   19.4780 C   0  0  0  0  0  3  0  0  0  0  0  0
  -27.0870  -26.4370   18.0480 C   0  0  0  0  0  3  0  0  0  0  0  0
  -25.8050  -27.0140   18.1520 C   0  0  0  0  0  3  0  0  0  0  0  0
  -24.2650  -28.8530   19.0660 C   0  0  0  0  0  2  0  0  0  0  0  0
  -25.1480  -29.9830   21.1590 N   0  0  0  0  0  0  0  0  0  0  0  0
  -23.8970  -30.6420   22.9290 O   0  0  0  0  0  0  0  0  0  0  0  0
  -23.4780  -28.0740   21.3290 C   0  0  0  0  0  0  0  0  0  0  0  0
  -22.1710  -27.7830   21.2270 N   0  0  0  0  0  0  0  0  0  0  0  0
  -24.2600  -27.3900   21.9950 O   0  0  0  0  0  0  0  0  0  0  0  0
  -21.5950  -28.3890   20.6610 H   0  0  0  0  0  0  0  0  0  0  0  0
  -18.9390  -26.2550   21.7580 C   0  0  0  0  0  0  0  0  0  0  0  0
  -21.4890  -26.6510   21.8540 C   0  0  0  0  0  3  0  0  0  0  0  0
  -21.6160  -25.3780   20.9880 C   0  0  0  0  0  2  0  0  0  0  0  0
  -20.4370  -25.1800   20.0310 C   0  0  0  0  0  2  0  0  0  0  0  0
  -19.1250  -25.0880   20.8080 C   0  0  0  0  0  2  0  0  0  0  0  0
  -20.0470  -27.0010   22.2390 C   0  0  0  0  0  0  0  0  0  0  0  0
  -19.8150  -28.1030   23.0860 C   0  0  0  0  0  3  0  0  0  0  0  0
  -18.5090  -28.4650   23.4600 C   0  0  0  0  0  3  0  0  0  0  0  0
  -17.4180  -27.7100   23.0010 C   0  0  0  0  0  3  0  0  0  0  0  0
  -17.6320  -26.6080   22.1540 C   0  0  0  0  0  3  0  0  0  0  0  0
  -26.1920  -31.3020   23.0830 C   0  0  0  0  0  3  0  0  0  0  0  0
  -26.9270  -30.3740   24.1270 C   0  0  1  0  0  0  0  0  0  0  0  0
  -25.9730  -29.6960   25.1370 C   0  0  0  0  0  1  0  0  0  0  0  0
  -27.7180  -29.2600   23.4050 C   0  0  0  0  0  1  0  0  0  0  0  0
  -27.9630  -31.2000   24.9270 C   0  0  0  0  0  1  0  0  0  0  0  0
  -25.6690  -32.5080   23.7390 N   0  0  0  0  0  0  0  0  0  0  0  0
  -25.7630  -33.7480   23.2430 C   0  0  0  0  0  0  0  0  0  0  0  0
  -26.3710  -34.0060   22.1990 O   0  0  0  0  0  0  0  0  0  0  0  0
  -25.1160  -32.3630   24.5730 H   0  0  0  0  0  0  0  0  0  0  0  0
  -23.7300  -35.2210   23.3570 C   0  0  0  0  0  1  0  0  0  0  0  0
  -25.0710  -34.8810   24.0250 C   0  0  0  0  0  3  0  0  0  0  0  0
  -27.0610  -35.9390   25.0000 C   0  0  0  0  0  1  0  0  0  0  0  0
  -25.8930  -36.1060   24.1390 N   0  0  0  0  0  0  0  0  0  0  0  0
  -25.3420  -36.8820   24.4960 H   0  0  0  0  0  0  0  0  0  0  0  0
  -29.6830  -16.7420   20.8170 C   0  0  0  0  0  3  0  0  0  0  0  0
  -30.3000  -14.4830   19.6300 C   0  0  0  0  0  0  0  0  0  0  0  0
  -30.0760  -12.3600   18.3500 C   0  0  0  0  0  2  0  0  0  0  0  0
  -28.9470  -12.5000   17.3030 C   0  0  0  0  0  2  0  0  0  0  0  0
  -27.5610  -12.2440   17.9310 C   0  0  0  0  0  2  0  0  0  0  0  0
  -27.3620  -13.0110   19.2680 C   0  0  0  0  0  3  0  0  0  0  0  0
  -28.5670  -12.7550   20.1980 C   0  0  0  0  0  2  0  0  0  0  0  0
  -29.7600  -13.2390   19.4840 N   0  0  0  0  0  0  0  0  0  0  0  0
  -31.3720  -14.8080   19.0980 O   0  0  0  0  0  0  0  0  0  0  0  0
  -29.4750  -15.3630   20.2710 N   0  0  0  0  0  0  0  0  0  0  0  0
  -28.6180  -14.9260   20.5690 H   0  0  0  0  0  0  0  0  0  0  0  0
  -25.1060  -13.5060   20.3720 C   0  0  0  0  0  0  0  0  0  0  0  0
  -24.1270  -12.6730   20.8530 C   0  0  0  0  0  0  0  0  0  0  0  0
  -24.6180  -11.3450   20.6880 C   0  0  0  0  0  0  0  0  0  0  0  0
  -26.1090  -12.6630   19.9160 N   0  0  0  0  0  0  0  0  0  0  0  0
  -25.8400  -11.3610   20.1770 N   0  0  0  0  0  0  0  0  0  0  0  0
  -23.9730  -10.0470   20.9260 C   0  0  0  0  0  0  0  0  0  0  0  0
  -24.4630   -9.1460   21.8990 C   0  0  0  0  0  3  0  0  0  0  0  0
  -23.8170   -7.9100   22.1180 C   0  0  0  0  0  3  0  0  0  0  0  0
  -22.6660   -7.5700   21.3690 C   0  0  0  0  0  0  0  0  0  0  0  0
  -22.1970   -8.4550   20.3840 C   0  0  0  0  0  3  0  0  0  0  0  0
  -22.8460   -9.6840   20.1640 C   0  0  0  0  0  3  0  0  0  0  0  0
  -21.9930   -6.3810   21.5020 O   0  0  0  0  0  0  0  0  0  0  0  0
  -21.8010   -5.7910   22.7260 C   0  0  0  0  0  0  0  0  0  0  0  0
  -21.1540   -6.4670   23.7820 C   0  0  0  0  0  3  0  0  0  0  0  0
  -20.9120   -5.8010   25.0010 C   0  0  0  0  0  3  0  0  0  0  0  0
  -21.3070   -4.4600   25.1630 C   0  0  0  0  0  0  0  0  0  0  0  0
  -21.9450   -3.7830   24.1100 C   0  0  0  0  0  3  0  0  0  0  0  0
  -22.1890   -4.4450   22.8950 C   0  0  0  0  0  0  0  0  0  0  0  0
  -22.7900   -3.7830   21.8750 F   0  0  0  0  0  0  0  0  0  0  0  0
  -21.0660   -3.8200   26.3260 F   0  0  0  0  0  0  0  0  0  0  0  0
  -22.7700  -13.0900   21.3500 C   0  0  0  0  0  0  0  0  0  0  0  0
  -22.2070  -12.3320   22.2890 N   0  0  0  0  0  0  0  0  0  0  0  0
  -22.2300  -14.1160   20.9430 O   0  0  0  0  0  0  0  0  0  0  0  0
  -22.6550  -11.5010   22.6420 H   0  0  0  0  0  0  0  0  0  0  0  0
  -21.3060  -12.5910   22.6660 H   0  0  0  0  0  0  0  0  0  0  0  0
  -25.2160  -14.8910   20.2650 N   0  0  0  0  0  0  0  0  0  0  0  0
  -25.6800  -15.1630   19.4040 H   0  0  0  0  0  0  0  0  0  0  0  0
  -24.2870  -15.2980   20.2910 H   0  0  0  0  0  0  0  0  0  0  0  0
  -28.3820  -17.3590   21.4420 C   0  0  0  0  0  2  0  0  0  0  0  0
  -26.9740  -17.0630   20.8900 C   0  0  0  0  0  2  0  0  0  0  0  0
  -26.5710  -18.1000   19.9250 N   0  0  0  0  0  4  0  0  0  0  0  0
  -25.5750  -18.1510   19.8010 H   0  0  0  0  0  0  0  0  0  0  0  0
  -26.9950  -17.9120   19.0220 H   0  0  0  0  0  0  0  0  0  0  0  0
  -26.8710  -19.0090   20.2440 H   0  0  0  0  0  0  0  0  0  0  0  0
  2  5  1  0
  2  3  1  0
  3  8  1  0
  3  1  1  0
  4  1  1  0
  4 54  1  0
  5  7  1  0
  5  4  1  0
  6  5  1  0
  9  8  1  0
 10 11  1  0
 10  8  1  0
 12 13  1  0
 12 11  1  0
 13 15  1  0
 14 25  2  0
 15 20  1  0
 16 24  1  0
 16 26  1  0
 17 23  1  0
 17 19  1  0
 18 24  1  0
 19 18  1  0
 20 19  2  0
 21 22  1  0
 21 15  2  0
 22 17  2  0
 23 16  1  0
 24 14  1  0
 26 28  2  0
 27 26  1  0
 29 27  1  0
 30 39  2  0
 30 35  1  0
 31 27  1  0
 31 35  1  0
 32 31  1  0
 33 34  1  0
 33 32  1  0
 34 30  1  0
 35 36  2  0
 36 37  1  0
 38 37  2  0
 39 38  1  0
 40 14  1  0
 40 45  1  0
 40 41  1  0
 41 44  1  1
 41 42  1  0
 43 41  1  0
 45 48  1  0
 46 45  1  0
 46 50  1  0
 47 46  2  0
 50 49  1  0
 50 52  1  0
 52 53  1  0
 52 51  1  0
 54 93  1  0
 55 63  1  0
 56 61  1  0
 57 58  1  0
 57 56  1  0
 59 58  1  0
 59 68  1  0
 59 60  1  0
 61 55  1  0
 61 60  1  0
 62 55  2  0
 63 64  1  0
 63 54  1  0
 65 66  2  0
 66 85  1  0
 67 66  1  0
 67 70  1  0
 68 69  1  0
 68 65  1  0
 69 67  2  0
 70 71  1  0
 71 72  2  0
 73 76  1  0
 73 72  1  0
 74 73  2  0
 75 74  1  0
 75 70  2  0
 76 77  1  0
 77 82  2  0
 77 78  1  0
 78 79  2  0
 79 80  1  0
 80 84  1  0
 81 80  2  0
 82 81  1  0
 83 82  1  0
 85 86  1  0
 86 88  1  0
 86 89  1  0
 87 85  2  0
 90 92  1  0
 90 65  1  0
 91 90  1  0
 94 93  1  0
 95 98  1  0
 95 94  1  0
 96 95  1  0
 97 95  1  0
M  ISO  4  12 101  13 101  55 100  63 100
M  END
>  <TORSDO>  (24) 
F 24

>  <SCORE>  (24) 
-5.927

>  <name>  (24) 
24

>  <ligand_id>  (24) 
24

>  <original_smiles>  (24) 
[H]c1c([H])c([H])c2c(c1[H])C([H])([H])C([H])([H])C([H])([H])C2([H])N([H])C(=O)C1([H])N(C(=O)C([H])(N([H])C(=O)C([H])(N([H])C([H])([H])[H])C([H])([H])[H])C(C([H])([H])[H])(C([H])([H])[H])C([H])([H])[H])C([H])([H])c2c([H])c(OC([H])([H])C([H])([H])C([H])([H])N([H])C3([H])C([H])([H])C([H])(C([H])(N([H])C(=O)N4C([H])([H])C([H])([H])C([H])([H])C([H])(n5nc(-c6c([H])c([H])c(Oc7c([H])c([H])c(F)c([H])c7F)c([H])c6[H])c(C(=O)N([H])[H])c5N([H])[H])C4([H])[H])C([H])([H])C([H])([H])[N+]([H])([H])[H])[N+]([H])([H])C3([H])[H])c([H])c([H])c2C1([H])[H]

>  <smiles>  (24) 
[H]c1c([H])c([H])c2c(c1[H])C([H])([H])C([H])([H])C([H])([H])C2([H])N([H])C(=O)C1([H])N(C(=O)C([H])(N([H])C(=O)C([H])(N([H])C([H])([H])[H])C([H])([H])[H])C(C([H])([H])[H])(C([H])([H])[H])C([H])([H])[H])C([H])([H])c2c([H])c(OC([H])([H])C([H])([H])C([H])([H])N([H])C3([H])C([H])([H])C([H])(C([H])(N([H])C(=O)N4C([H])([H])C([H])([H])C([H])([H])C([H])(n5nc(-c6c([H])c([H])c(Oc7c([H])c([H])c(F)c([H])c7F)c([H])c6[H])c(C(=O)N([H])[H])c5N([H])[H])C4([H])[H])C([H])([H])C([H])([H])[N+]([H])([H])[H])[N+]([H])([H])C3([H])[H])c([H])c([H])c2C1([H])[H]

$$$$
25:0:0
     RDKit          3D

 94102  0  0  1  0  0  0  0  0999 V2000
  -28.9800  -19.6680   20.0040 N   0  0  0  0  0  4  0  0  0  0  0  0
  -28.2110  -19.5920   20.6490 H   0  0  0  0  0  0  0  0  0  0  0  0
  -28.5670  -19.6180   19.0840 H   0  0  0  0  0  0  0  0  0  0  0  0
  -30.6470  -14.7730   19.9400 C   0  0  0  0  0  0  0  0  0  0  0  0
  -30.2950  -12.5160   18.9290 C   0  0  0  0  0  2  0  0  0  0  0  0
  -29.2890  -12.5940   17.7620 C   0  0  0  0  0  2  0  0  0  0  0  0
  -27.8570  -12.4130   18.2920 C   0  0  0  0  0  2  0  0  0  0  0  0
  -27.5590  -13.3060   19.5270 C   0  0  0  0  0  3  0  0  0  0  0  0
  -28.6910  -13.2510   20.5790 C   0  0  0  0  0  2  0  0  0  0  0  0
  -29.9500  -13.5850   19.9010 N   0  0  0  0  0  0  0  0  0  0  0  0
  -31.7630  -14.8280   19.4140 O   0  0  0  0  0  0  0  0  0  0  0  0
  -31.0430  -16.7000   21.4320 C   0  0  0  0  0  2  0  0  0  0  0  0
  -29.2540  -16.9700   19.9330 C   0  0  0  0  0  2  0  0  0  0  0  0
  -30.7040  -18.2270   21.4220 C   0  0  0  0  0  3  0  0  0  0  0  0
  -29.8770  -18.4210   20.1340 C   0  0  0  0  0  3  0  0  0  0  0  0
  -30.1360  -15.9160   20.5540 N   0  0  0  0  0  0  0  0  0  0  0  0
  -25.2340  -13.8730   20.4400 C   0  0  0  0  0  0  0  0  0  0  0  0
  -24.1970  -13.0900   20.8640 C   0  0  0  0  0  0  0  0  0  0  0  0
  -24.6560  -11.7400   20.7700 C   0  0  0  0  0  0  0  0  0  0  0  0
  -26.2560  -13.0020   20.1080 N   0  0  0  0  0  0  0  0  0  0  0  0
  -25.9220  -11.7110   20.3720 N   0  0  0  0  0  0  0  0  0  0  0  0
  -23.9410  -10.4740   20.9810 C   0  0  0  0  0  0  0  0  0  0  0  0
  -24.3690   -9.5350   21.9460 C   0  0  0  0  0  3  0  0  0  0  0  0
  -23.6530   -8.3350   22.1440 C   0  0  0  0  0  3  0  0  0  0  0  0
  -22.4940   -8.0640   21.3780 C   0  0  0  0  0  0  0  0  0  0  0  0
  -22.0860   -8.9910   20.4020 C   0  0  0  0  0  3  0  0  0  0  0  0
  -22.8030  -10.1830   20.2030 C   0  0  0  0  0  3  0  0  0  0  0  0
  -21.7510   -6.9150   21.4840 O   0  0  0  0  0  0  0  0  0  0  0  0
  -21.6030   -6.2600   22.6810 C   0  0  0  0  0  0  0  0  0  0  0  0
  -21.0190   -6.8840   23.8050 C   0  0  0  0  0  3  0  0  0  0  0  0
  -20.8250   -6.1540   24.9950 C   0  0  0  0  0  3  0  0  0  0  0  0
  -21.2030   -4.7990   25.0600 C   0  0  0  0  0  0  0  0  0  0  0  0
  -21.7790   -4.1750   23.9410 C   0  0  0  0  0  3  0  0  0  0  0  0
  -21.9780   -4.9030   22.7540 C   0  0  0  0  0  0  0  0  0  0  0  0
  -22.5150   -4.2910   21.6710 F   0  0  0  0  0  0  0  0  0  0  0  0
  -21.0100   -4.0950   26.2000 F   0  0  0  0  0  0  0  0  0  0  0  0
  -22.8240  -13.5610   21.2440 C   0  0  0  0  0  0  0  0  0  0  0  0
  -22.1620  -12.8500   22.1500 N   0  0  0  0  0  0  0  0  0  0  0  0
  -22.3510  -14.5940   20.7760 O   0  0  0  0  0  0  0  0  0  0  0  0
  -22.5610  -12.0110   22.5450 H   0  0  0  0  0  0  0  0  0  0  0  0
  -21.2440  -13.1480   22.4510 H   0  0  0  0  0  0  0  0  0  0  0  0
  -25.3860  -15.2490   20.2820 N   0  0  0  0  0  0  0  0  0  0  0  0
  -24.6220  -15.8950   20.4410 H   0  0  0  0  0  0  0  0  0  0  0  0
  -26.2050  -15.6880   19.8810 H   0  0  0  0  0  0  0  0  0  0  0  0
  -30.0750  -18.7000   22.7610 C   0  0  0  0  0  2  0  0  0  0  0  0
  -30.6480  -19.8610   24.8880 C   0  0  0  0  0  1  0  0  0  0  0  0
  -31.1030  -18.9830   23.7920 N   0  0  0  0  0  4  0  0  0  0  0  0
  -31.4290  -18.1200   24.1950 H   0  0  0  0  0  0  0  0  0  0  0  0
  -31.8970  -19.4330   23.3650 H   0  0  0  0  0  0  0  0  0  0  0  0
  -29.5580  -21.0870   20.1230 C   0  0  0  0  0  3  0  0  0  0  0  0
  -28.5620  -22.3250   19.8490 C   0  0  0  0  0  3  0  0  0  0  0  0
  -28.9980  -23.8440   20.1660 C   0  0  0  0  0  3  0  0  0  0  0  0
  -27.9230  -24.9940   19.8640 C   0  0  0  0  0  3  0  0  0  0  0  0
  -28.1890  -26.4450   20.0970 O   0  0  0  0  0  0  0  0  0  0  0  0
  -24.5210  -31.8550   23.2150 C   0  0  0  0  0  0  0  0  0  0  0  0
  -27.0860  -27.3260   20.0550 C   0  0  0  0  0  0  0  0  0  0  0  0
  -23.2930  -30.4700   21.5840 C   0  0  0  0  0  3  0  0  0  0  0  0
  -24.7220  -28.9520   20.1040 C   0  0  0  0  0  0  0  0  0  0  0  0
  -25.8310  -30.7960   21.3610 C   0  0  0  0  0  2  0  0  0  0  0  0
  -25.9020  -29.4280   20.6900 C   0  0  0  0  0  0  0  0  0  0  0  0
  -27.0870  -28.6270   20.6560 C   0  0  0  0  0  3  0  0  0  0  0  0
  -25.8780  -26.9180   19.4400 C   0  0  0  0  0  3  0  0  0  0  0  0
  -24.7140  -27.7030   19.4680 C   0  0  0  0  0  3  0  0  0  0  0  0
  -23.4830  -29.8190   20.1900 C   0  0  0  0  0  2  0  0  0  0  0  0
  -24.5680  -31.0580   22.1080 N   0  0  0  0  0  0  0  0  0  0  0  0
  -23.4450  -32.1240   23.7710 O   0  0  0  0  0  0  0  0  0  0  0  0
  -22.6540  -29.4360   22.5420 C   0  0  0  0  0  0  0  0  0  0  0  0
  -21.3320  -29.2280   22.4140 N   0  0  0  0  0  0  0  0  0  0  0  0
  -23.3470  -28.8250   23.3600 O   0  0  0  0  0  0  0  0  0  0  0  0
  -20.8300  -29.7760   21.7280 H   0  0  0  0  0  0  0  0  0  0  0  0
  -17.9820  -27.9590   22.9170 C   0  0  0  0  0  0  0  0  0  0  0  0
  -20.5350  -28.2730   23.1840 C   0  0  0  0  0  3  0  0  0  0  0  0
  -20.6660  -26.8450   22.6080 C   0  0  0  0  0  2  0  0  0  0  0  0
  -19.5710  -26.4980   21.5950 C   0  0  0  0  0  2  0  0  0  0  0  0
  -18.1860  -26.6150   22.2390 C   0  0  0  0  0  2  0  0  0  0  0  0
  -19.0840  -28.7460   23.3450 C   0  0  0  0  0  0  0  0  0  0  0  0
  -18.8380  -30.0040   23.9360 C   0  0  0  0  0  3  0  0  0  0  0  0
  -17.5240  -30.4780   24.1030 C   0  0  0  0  0  3  0  0  0  0  0  0
  -16.4350  -29.6880   23.6910 C   0  0  0  0  0  3  0  0  0  0  0  0
  -16.6650  -28.4310   23.1050 C   0  0  0  0  0  3  0  0  0  0  0  0
  -25.8120  -32.4870   23.8200 C   0  0  0  0  0  3  0  0  0  0  0  0
  -25.5120  -33.8910   24.1360 N   0  0  0  0  0  0  0  0  0  0  0  0
  -25.8090  -34.9300   23.3440 C   0  0  0  0  0  0  0  0  0  0  0  0
  -26.4370  -34.8080   22.2890 O   0  0  0  0  0  0  0  0  0  0  0  0
  -24.9520  -34.0590   24.9590 H   0  0  0  0  0  0  0  0  0  0  0  0
  -24.0510  -36.7020   23.0500 C   0  0  0  0  0  1  0  0  0  0  0  0
  -25.3390  -36.3250   23.7970 C   0  0  0  0  0  3  0  0  0  0  0  0
  -27.5050  -37.2470   24.4940 C   0  0  0  0  0  1  0  0  0  0  0  0
  -26.3550  -37.3820   23.6030 N   0  0  0  0  0  0  0  0  0  0  0  0
  -25.9490  -38.3030   23.7480 H   0  0  0  0  0  0  0  0  0  0  0  0
  -26.3330  -31.7290   25.1030 C   0  0  1  0  0  0  0  0  0  0  0  0
  -25.2430  -31.5020   26.1760 C   0  0  0  0  0  1  0  0  0  0  0  0
  -26.9160  -30.3470   24.7270 C   0  0  0  0  0  1  0  0  0  0  0  0
  -27.4900  -32.5290   25.7480 C   0  0  0  0  0  1  0  0  0  0  0  0
  1 50  1  0
  1  2  1  0
  3  1  1  0
  4 16  1  0
  5 10  1  0
  6  7  1  0
  6  5  1  0
  8  7  1  0
  8 20  1  0
  8  9  1  0
 10  4  1  0
 10  9  1  0
 11  4  2  0
 13 15  1  0
 13 16  1  0
 14 12  1  0
 14 45  1  0
 15  1  1  0
 15 14  1  0
 16 12  1  0
 17 18  2  0
 18 37  1  0
 19 18  1  0
 19 22  1  0
 20 21  1  0
 20 17  1  0
 21 19  2  0
 22 23  1  0
 23 24  2  0
 25 28  1  0
 25 24  1  0
 26 25  2  0
 27 26  1  0
 27 22  2  0
 28 29  1  0
 29 34  2  0
 29 30  1  0
 30 31  2  0
 31 32  1  0
 32 36  1  0
 33 32  2  0
 34 33  1  0
 35 34  1  0
 37 38  1  0
 38 41  1  0
 38 40  1  0
 39 37  2  0
 42 17  1  0
 42 43  1  0
 44 42  1  0
 45 47  1  0
 47 48  1  0
 47 46  1  0
 49 47  1  0
 51 50  2  0
 51 52  1  0
 53 54  1  0
 53 52  2  0
 55 66  2  0
 56 54  1  0
 56 61  1  0
 57 65  1  0
 57 67  1  0
 58 64  1  0
 58 60  1  0
 59 65  1  0
 60 59  1  0
 61 60  2  0
 62 63  1  0
 62 56  2  0
 63 58  2  0
 64 57  1  0
 65 55  1  0
 67 69  2  0
 68 67  1  0
 70 68  1  0
 71 80  2  0
 71 76  1  0
 72 68  1  0
 72 76  1  0
 73 72  1  0
 74 75  1  0
 74 73  1  0
 75 71  1  0
 76 77  2  0
 77 78  1  0
 79 78  2  0
 80 79  1  0
 81 55  1  0
 81 82  1  0
 81 91  1  0
 82 85  1  0
 83 87  1  0
 83 82  1  0
 84 83  2  0
 87 86  1  0
 89 90  1  0
 89 87  1  0
 89 88  1  0
 91 94  1  1
 91 92  1  0
 93 91  1  0
M  ISO  4   4 100  16 100  53 101  54 101
M  END
>  <TORSDO>  (25) 
F 22

>  <SCORE>  (25) 
-11.311

>  <name>  (25) 
25

>  <ligand_id>  (25) 
25

>  <original_smiles>  (25) 
[H]c1c([H])c([H])c2c(c1[H])C([H])([H])C([H])([H])C([H])([H])C2([H])N([H])C(=O)C1([H])N(C(=O)C([H])(N([H])C(=O)C([H])(N([H])C([H])([H])[H])C([H])([H])[H])C(C([H])([H])[H])(C([H])([H])[H])C([H])([H])[H])C([H])([H])c2c([H])c(OC([H])([H])C([H])([H])C([H])([H])C([H])([H])[N+]([H])([H])C3([H])C([H])([H])N(C(=O)N4C([H])([H])C([H])([H])C([H])([H])C([H])(n5nc(-c6c([H])c([H])c(Oc7c([H])c([H])c(F)c([H])c7F)c([H])c6[H])c(C(=O)N([H])[H])c5N([H])[H])C4([H])[H])C([H])([H])C3([H])C([H])([H])[N+]([H])([H])C([H])([H])[H])c([H])c([H])c2C1([H])[H]

>  <smiles>  (25) 
[H]c1c([H])c([H])c2c(c1[H])C([H])([H])C([H])([H])C([H])([H])C2([H])N([H])C(=O)C1([H])N(C(=O)C([H])(N([H])C(=O)C([H])(N([H])C([H])([H])[H])C([H])([H])[H])C(C([H])([H])[H])(C([H])([H])[H])C([H])([H])[H])C([H])([H])c2c([H])c(OC([H])([H])C([H])([H])C([H])([H])C([H])([H])[N+]([H])([H])C3([H])C([H])([H])N(C(=O)N4C([H])([H])C([H])([H])C([H])([H])C([H])(n5nc(-c6c([H])c([H])c(Oc7c([H])c([H])c(F)c([H])c7F)c([H])c6[H])c(C(=O)N([H])[H])c5N([H])[H])C4([H])[H])C([H])([H])C3([H])C([H])([H])[N+]([H])([H])C([H])([H])[H])c([H])c([H])c2C1([H])[H]

$$$$
26:0:0
     RDKit          3D

 91 98  0  0  1  0  0  0  0  0999 V2000
  -29.1100  -19.1380   19.9560 C   0  0  0  0  0  0  0  0  0  0  0  0
  -29.1080  -18.9820   18.6170 N   0  0  0  0  0  4  0  0  0  0  0  0
  -29.0710  -20.3780   20.5040 N   0  0  0  0  0  0  0  0  0  0  0  0
  -29.0620  -18.0630   18.1970 H   0  0  0  0  0  0  0  0  0  0  0  0
  -29.1220  -19.7580   17.9700 H   0  0  0  0  0  0  0  0  0  0  0  0
  -29.0980  -20.4520   21.5140 H   0  0  0  0  0  0  0  0  0  0  0  0
  -29.1020  -17.9050   20.8490 C   0  0  0  0  0  2  0  0  0  0  0  0
  -30.2440  -16.9030   20.5200 C   0  0  0  0  0  2  0  0  0  0  0  0
  -30.6660  -14.4500   20.4370 C   0  0  0  0  0  0  0  0  0  0  0  0
  -30.3510  -12.2990   19.2890 C   0  0  0  0  0  2  0  0  0  0  0  0
  -29.4060  -12.5400   18.0940 C   0  0  0  0  0  2  0  0  0  0  0  0
  -27.9330  -12.4090   18.5280 C   0  0  0  0  0  2  0  0  0  0  0  0
  -27.6100  -13.2280   19.8060 C   0  0  0  0  0  3  0  0  0  0  0  0
  -28.6700  -12.9830   20.9060 C   0  0  0  0  0  2  0  0  0  0  0  0
  -29.9940  -13.2730   20.3330 N   0  0  0  0  0  0  0  0  0  0  0  0
  -31.7990  -14.6230   19.9830 O   0  0  0  0  0  0  0  0  0  0  0  0
  -29.9280  -15.4970   20.8490 N   0  0  0  0  0  0  0  0  0  0  0  0
  -29.0110  -15.2900   21.2150 H   0  0  0  0  0  0  0  0  0  0  0  0
  -25.2110  -13.8430   20.5080 C   0  0  0  0  0  0  0  0  0  0  0  0
  -24.1420  -13.0760   20.8830 C   0  0  0  0  0  0  0  0  0  0  0  0
  -24.5990  -11.7230   20.8600 C   0  0  0  0  0  0  0  0  0  0  0  0
  -26.2550  -12.9580   20.2850 N   0  0  0  0  0  0  0  0  0  0  0  0
  -25.8890  -11.6770   20.5510 N   0  0  0  0  0  0  0  0  0  0  0  0
  -23.8710  -10.4630   21.0540 C   0  0  0  0  0  0  0  0  0  0  0  0
  -24.3150   -9.4910   21.9780 C   0  0  0  0  0  3  0  0  0  0  0  0
  -23.5890   -8.2950   22.1600 C   0  0  0  0  0  3  0  0  0  0  0  0
  -22.4050   -8.0640   21.4210 C   0  0  0  0  0  0  0  0  0  0  0  0
  -21.9800   -9.0240   20.4870 C   0  0  0  0  0  3  0  0  0  0  0  0
  -22.7070  -10.2120   20.3010 C   0  0  0  0  0  3  0  0  0  0  0  0
  -21.6510   -6.9200   21.5110 O   0  0  0  0  0  0  0  0  0  0  0  0
  -21.6270   -6.1620   22.6550 C   0  0  0  0  0  0  0  0  0  0  0  0
  -21.2500   -6.7060   23.9030 C   0  0  0  0  0  3  0  0  0  0  0  0
  -21.1720   -5.8760   25.0390 C   0  0  0  0  0  3  0  0  0  0  0  0
  -21.4640   -4.5030   24.9310 C   0  0  0  0  0  0  0  0  0  0  0  0
  -21.8350   -3.9570   23.6900 C   0  0  0  0  0  3  0  0  0  0  0  0
  -21.9130   -4.7850   22.5550 C   0  0  0  0  0  0  0  0  0  0  0  0
  -22.2510   -4.2500   21.3570 F   0  0  0  0  0  0  0  0  0  0  0  0
  -21.3830   -3.7050   26.0210 F   0  0  0  0  0  0  0  0  0  0  0  0
  -22.7460  -13.5590   21.1510 C   0  0  0  0  0  0  0  0  0  0  0  0
  -22.0170  -12.8710   22.0220 N   0  0  0  0  0  0  0  0  0  0  0  0
  -22.3090  -14.5820   20.6240 O   0  0  0  0  0  0  0  0  0  0  0  0
  -22.3860  -12.0470   22.4730 H   0  0  0  0  0  0  0  0  0  0  0  0
  -21.0770  -13.1720   22.2390 H   0  0  0  0  0  0  0  0  0  0  0  0
  -25.3830  -15.2110   20.3200 N   0  0  0  0  0  0  0  0  0  0  0  0
  -24.6250  -15.8760   20.4300 H   0  0  0  0  0  0  0  0  0  0  0  0
  -26.2290  -15.6310   19.9570 H   0  0  0  0  0  0  0  0  0  0  0  0
  -29.0230  -21.6680   19.7740 C   0  0  0  0  0  2  0  0  0  0  0  0
  -28.7260  -22.8770   20.6930 C   0  0  0  0  0  2  0  0  0  0  0  0
  -28.6420  -24.2360   19.9490 C   0  0  0  0  0  2  0  0  0  0  0  0
  -28.3350  -25.4330   20.8770 C   0  0  0  0  0  2  0  0  0  0  0  0
  -28.4150  -26.7000   20.2020 O   0  0  0  0  0  0  0  0  0  0  0  0
  -24.5930  -31.8850   23.2450 C   0  0  0  0  0  0  0  0  0  0  0  0
  -27.2520  -27.4360   20.1970 C   0  0  0  0  0  0  0  0  0  0  0  0
  -23.3930  -30.4760   21.6040 C   0  0  0  0  0  3  0  0  0  0  0  0
  -24.8530  -28.9300   20.1940 C   0  0  0  0  0  0  0  0  0  0  0  0
  -25.9180  -30.8390   21.4120 C   0  0  0  0  0  2  0  0  0  0  0  0
  -26.0090  -29.4640   20.7760 C   0  0  0  0  0  0  0  0  0  0  0  0
  -27.2150  -28.7270   20.7690 C   0  0  0  0  0  3  0  0  0  0  0  0
  -26.0800  -26.9100   19.6120 C   0  0  0  0  0  3  0  0  0  0  0  0
  -24.8820  -27.6500   19.6110 C   0  0  0  0  0  3  0  0  0  0  0  0
  -23.6080  -29.7890   20.2280 C   0  0  0  0  0  2  0  0  0  0  0  0
  -24.6540  -31.0810   22.1450 N   0  0  0  0  0  0  0  0  0  0  0  0
  -23.5100  -32.1570   23.7810 O   0  0  0  0  0  0  0  0  0  0  0  0
  -22.7400  -29.4590   22.5670 C   0  0  0  0  0  0  0  0  0  0  0  0
  -21.4150  -29.2780   22.4370 N   0  0  0  0  0  0  0  0  0  0  0  0
  -23.4210  -28.8360   23.3850 O   0  0  0  0  0  0  0  0  0  0  0  0
  -20.9280  -29.8310   21.7460 H   0  0  0  0  0  0  0  0  0  0  0  0
  -18.0400  -28.0900   22.9300 C   0  0  0  0  0  0  0  0  0  0  0  0
  -20.5970  -28.3430   23.2080 C   0  0  0  0  0  3  0  0  0  0  0  0
  -20.6980  -26.9110   22.6360 C   0  0  0  0  0  2  0  0  0  0  0  0
  -19.5980  -26.5880   21.6190 C   0  0  0  0  0  2  0  0  0  0  0  0
  -18.2150  -26.7390   22.2600 C   0  0  0  0  0  2  0  0  0  0  0  0
  -19.1590  -28.8510   23.3620 C   0  0  0  0  0  0  0  0  0  0  0  0
  -18.9410  -30.1170   23.9470 C   0  0  0  0  0  3  0  0  0  0  0  0
  -17.6390  -30.6230   24.1070 C   0  0  0  0  0  3  0  0  0  0  0  0
  -16.5330  -29.8600   23.6920 C   0  0  0  0  0  3  0  0  0  0  0  0
  -16.7350  -28.5950   23.1110 C   0  0  0  0  0  3  0  0  0  0  0  0
  -25.8780  -32.5170   23.8650 C   0  0  0  0  0  3  0  0  0  0  0  0
  -25.5670  -33.9160   24.1910 N   0  0  0  0  0  0  0  0  0  0  0  0
  -25.9030  -34.9670   23.4300 C   0  0  0  0  0  0  0  0  0  0  0  0
  -26.5780  -34.8610   22.4010 O   0  0  0  0  0  0  0  0  0  0  0  0
  -24.9670  -34.0720   24.9870 H   0  0  0  0  0  0  0  0  0  0  0  0
  -24.1720  -36.7550   23.0630 C   0  0  0  0  0  1  0  0  0  0  0  0
  -25.4110  -36.3560   23.8800 C   0  0  0  0  0  3  0  0  0  0  0  0
  -27.5430  -37.2440   24.7150 C   0  0  0  0  0  1  0  0  0  0  0  0
  -26.4430  -37.4090   23.7670 N   0  0  0  0  0  0  0  0  0  0  0  0
  -26.0350  -38.3300   23.9110 H   0  0  0  0  0  0  0  0  0  0  0  0
  -26.3960  -31.7470   25.1420 C   0  0  1  0  0  0  0  0  0  0  0  0
  -25.3050  -31.5110   26.2100 C   0  0  0  0  0  1  0  0  0  0  0  0
  -26.9790  -30.3710   24.7490 C   0  0  0  0  0  1  0  0  0  0  0  0
  -27.5450  -32.5450   25.8040 C   0  0  0  0  0  1  0  0  0  0  0  0
  1  3  1  0
  1  7  1  0
  2  1  2  0
  3  6  1  0
  4  2  1  0
  5  2  1  0
  8 17  1  0
  8  7  1  0
  9 17  1  0
 10 15  1  0
 11 12  1  0
 11 10  1  0
 13 12  1  0
 13 22  1  0
 13 14  1  0
 15  9  1  0
 15 14  1  0
 16  9  2  0
 17 18  1  0
 19 20  2  0
 20 39  1  0
 21 20  1  0
 21 24  1  0
 22 19  1  0
 22 23  1  0
 23 21  2  0
 24 25  1  0
 25 26  2  0
 27 30  1  0
 27 26  1  0
 28 27  2  0
 29 28  1  0
 29 24  2  0
 30 31  1  0
 31 32  1  0
 32 33  2  0
 34 33  1  0
 34 38  1  0
 35 34  2  0
 36 31  2  0
 36 35  1  0
 37 36  1  0
 39 40  1  0
 40 43  1  0
 40 42  1  0
 41 39  2  0
 44 45  1  0
 44 19  1  0
 46 44  1  0
 47  3  1  0
 47 48  1  0
 49 48  1  0
 49 50  1  0
 51 50  1  0
 52 63  2  0
 53 51  1  0
 53 58  1  0
 54 62  1  0
 54 64  1  0
 55 61  1  0
 55 57  1  0
 56 62  1  0
 57 56  1  0
 58 57  2  0
 59 53  2  0
 60 59  1  0
 60 55  2  0
 61 54  1  0
 62 52  1  0
 64 66  2  0
 65 64  1  0
 67 65  1  0
 68 77  2  0
 68 73  1  0
 69 65  1  0
 69 73  1  0
 70 69  1  0
 71 72  1  0
 71 70  1  0
 72 68  1  0
 73 74  2  0
 74 75  1  0
 76 75  2  0
 77 76  1  0
 78 52  1  0
 78 79  1  0
 78 88  1  0
 79 82  1  0
 80 84  1  0
 80 79  1  0
 81 80  2  0
 84 83  1  0
 86 84  1  0
 86 87  1  0
 86 85  1  0
 88 91  1  1
 88 89  1  0
 90 88  1  0
M  ISO  4   9 100  17 100  50 101  51 101
M  END
>  <TORSDO>  (26) 
F 22

>  <SCORE>  (26) 
-12.995

>  <name>  (26) 
26

>  <ligand_id>  (26) 
26

>  <original_smiles>  (26) 
[H]c1c([H])c([H])c2c(c1[H])C([H])([H])C([H])([H])C([H])([H])C2([H])N([H])C(=O)C1([H])N(C(=O)C([H])(N([H])C(=O)C([H])(N([H])C([H])([H])[H])C([H])([H])[H])C(C([H])([H])[H])(C([H])([H])[H])C([H])([H])[H])C([H])([H])c2c([H])c(OC([H])([H])C([H])([H])C([H])([H])C([H])([H])[N+]([H])=C(N([H])[H])C([H])([H])C([H])([H])N([H])C(=O)N3C([H])([H])C([H])([H])C([H])([H])C([H])(n4nc(-c5c([H])c([H])c(Oc6c([H])c([H])c(F)c([H])c6F)c([H])c5[H])c(C(=O)N([H])[H])c4N([H])[H])C3([H])[H])c([H])c([H])c2C1([H])[H]

>  <smiles>  (26) 
[H]c1c([H])c([H])c2c(c1[H])C([H])([H])C([H])([H])C([H])([H])C2([H])N([H])C(=O)C1([H])N(C(=O)C([H])(N([H])C(=O)C([H])(N([H])C([H])([H])[H])C([H])([H])[H])C(C([H])([H])[H])(C([H])([H])[H])C([H])([H])[H])C([H])([H])c2c([H])c(OC([H])([H])C([H])([H])C([H])([H])C([H])([H])[N+]([H])=C(N([H])[H])C([H])([H])C([H])([H])N([H])C(=O)N3C([H])([H])C([H])([H])C([H])([H])C([H])(n4nc(-c5c([H])c([H])c(Oc6c([H])c([H])c(F)c([H])c6F)c([H])c5[H])c(C(=O)N([H])[H])c4N([H])[H])C3([H])[H])c([H])c([H])c2C1([H])[H]

$$$$
27:0:0
     RDKit          3D

 95103  0  0  1  0  0  0  0  0999 V2000
  -29.1440  -20.7360   23.1790 C   0  0  0  0  0  2  0  0  0  0  0  0
  -29.8780  -19.4250   23.5080 C   0  0  0  0  0  2  0  0  0  0  0  0
  -31.0310  -21.3230   21.6080 C   0  0  0  0  0  2  0  0  0  0  0  0
  -30.1440  -21.8360   22.7690 C   0  0  0  0  0  3  0  0  0  0  0  0
  -30.7600  -18.9910   22.3200 C   0  0  0  0  0  3  0  0  0  0  0  0
  -31.7090  -20.0720   21.9800 N   0  0  0  0  0  4  0  0  0  0  0  0
  -32.3220  -20.2550   22.7580 H   0  0  0  0  0  0  0  0  0  0  0  0
  -32.2780  -19.7960   21.1970 H   0  0  0  0  0  0  0  0  0  0  0  0
  -29.3620  -22.9940   22.3580 N   0  0  0  0  0  0  0  0  0  0  0  0
  -28.7090  -23.2230   23.1060 H   0  0  0  0  0  0  0  0  0  0  0  0
  -30.1880  -24.1650   22.0850 C   0  0  0  0  0  2  0  0  0  0  0  0
  -29.3700  -25.1550   21.2580 C   0  0  0  0  0  2  0  0  0  0  0  0
  -30.2600  -26.1350   20.4790 C   0  0  0  0  0  2  0  0  0  0  0  0
  -29.4900  -27.3930   20.0720 C   0  0  0  0  0  2  0  0  0  0  0  0
  -28.3940  -27.0180   19.2340 O   0  0  0  0  0  0  0  0  0  0  0  0
  -24.4810  -31.5970   23.0260 C   0  0  0  0  0  0  0  0  0  0  0  0
  -27.2010  -27.6850   19.4090 C   0  0  0  0  0  0  0  0  0  0  0  0
  -23.2460  -30.2460   21.3540 C   0  0  0  0  0  3  0  0  0  0  0  0
  -24.6920  -28.9460   19.7040 C   0  0  0  0  0  0  0  0  0  0  0  0
  -25.6960  -30.8470   20.9840 C   0  0  0  0  0  2  0  0  0  0  0  0
  -25.8390  -29.5350   20.2470 C   0  0  0  0  0  0  0  0  0  0  0  0
  -27.0940  -28.9180   20.0940 C   0  0  0  0  0  3  0  0  0  0  0  0
  -26.0390  -27.1060   18.8610 C   0  0  0  0  0  3  0  0  0  0  0  0
  -24.7830  -27.7280   19.0060 C   0  0  0  0  0  3  0  0  0  0  0  0
  -23.3930  -29.6870   19.9110 C   0  0  0  0  0  2  0  0  0  0  0  0
  -24.4980  -30.9050   21.8520 N   0  0  0  0  0  0  0  0  0  0  0  0
  -23.4340  -31.7370   23.6710 O   0  0  0  0  0  0  0  0  0  0  0  0
  -22.7470  -29.1090   22.2720 C   0  0  0  0  0  0  0  0  0  0  0  0
  -21.4440  -28.7980   22.1790 N   0  0  0  0  0  0  0  0  0  0  0  0
  -23.5240  -28.5100   23.0190 O   0  0  0  0  0  0  0  0  0  0  0  0
  -20.8740  -29.3410   21.5460 H   0  0  0  0  0  0  0  0  0  0  0  0
  -18.2500  -27.1790   22.6410 C   0  0  0  0  0  0  0  0  0  0  0  0
  -20.7590  -27.7340   22.9120 C   0  0  0  0  0  3  0  0  0  0  0  0
  -21.0300  -26.3560   22.2660 C   0  0  0  0  0  2  0  0  0  0  0  0
  -19.9640  -25.9480   21.2440 C   0  0  0  0  0  2  0  0  0  0  0  0
  -18.5820  -25.8940   21.9020 C   0  0  0  0  0  2  0  0  0  0  0  0
  -19.2720  -28.0500   23.1010 C   0  0  0  0  0  0  0  0  0  0  0  0
  -18.9090  -29.2500   23.7510 C   0  0  0  0  0  3  0  0  0  0  0  0
  -17.5550  -29.5820   23.9460 C   0  0  0  0  0  3  0  0  0  0  0  0
  -16.5470  -28.7070   23.5040 C   0  0  0  0  0  3  0  0  0  0  0  0
  -16.8950  -27.5080   22.8560 C   0  0  0  0  0  3  0  0  0  0  0  0
  -25.7700  -32.2670   23.6050 C   0  0  0  0  0  3  0  0  0  0  0  0
  -25.4070  -33.6180   24.0490 N   0  0  0  0  0  0  0  0  0  0  0  0
  -25.6730  -34.7390   23.3640 C   0  0  0  0  0  0  0  0  0  0  0  0
  -26.3260  -34.7460   22.3160 O   0  0  0  0  0  0  0  0  0  0  0  0
  -24.8280  -33.6840   24.8740 H   0  0  0  0  0  0  0  0  0  0  0  0
  -23.8690  -36.4800   23.1540 C   0  0  0  0  0  1  0  0  0  0  0  0
  -25.1280  -36.0650   23.9310 C   0  0  0  0  0  3  0  0  0  0  0  0
  -27.2320  -36.9670   24.8240 C   0  0  0  0  0  1  0  0  0  0  0  0
  -26.1140  -37.1670   23.9050 N   0  0  0  0  0  0  0  0  0  0  0  0
  -25.6700  -38.0520   24.1360 H   0  0  0  0  0  0  0  0  0  0  0  0
  -26.4240  -31.4430   24.7810 C   0  0  1  0  0  0  0  0  0  0  0  0
  -25.4290  -31.0560   25.8990 C   0  0  0  0  0  1  0  0  0  0  0  0
  -27.0590  -30.1410   24.2370 C   0  0  0  0  0  1  0  0  0  0  0  0
  -27.5700  -32.2590   25.4240 C   0  0  0  0  0  1  0  0  0  0  0  0
  -31.4870  -17.6560   22.5670 C   0  0  0  0  0  2  0  0  0  0  0  0
  -32.1280  -17.0810   21.2860 C   0  0  0  0  0  2  0  0  0  0  0  0
  -32.2340  -14.8950   20.1260 C   0  0  0  0  0  0  0  0  0  0  0  0
  -31.7750  -12.7900   18.9300 C   0  0  0  0  0  2  0  0  0  0  0  0
  -30.8160  -12.9940   17.7410 C   0  0  0  0  0  2  0  0  0  0  0  0
  -29.3490  -12.9380   18.2010 C   0  0  0  0  0  2  0  0  0  0  0  0
  -29.0780  -13.8770   19.4040 C   0  0  0  0  0  3  0  0  0  0  0  0
  -30.1130  -13.6080   20.5170 C   0  0  0  0  0  2  0  0  0  0  0  0
  -31.4700  -13.7910   19.9590 N   0  0  0  0  0  0  0  0  0  0  0  0
  -33.2210  -15.1720   19.4360 O   0  0  0  0  0  0  0  0  0  0  0  0
  -31.8220  -15.6700   21.1310 N   0  0  0  0  0  0  0  0  0  0  0  0
  -31.0740  -15.2890   21.6890 H   0  0  0  0  0  0  0  0  0  0  0  0
  -26.7470  -14.7000   20.1350 C   0  0  0  0  0  0  0  0  0  0  0  0
  -25.6250  -14.0220   20.5290 C   0  0  0  0  0  0  0  0  0  0  0  0
  -25.9730  -12.6380   20.5050 C   0  0  0  0  0  0  0  0  0  0  0  0
  -27.7130  -13.7330   19.8990 N   0  0  0  0  0  0  0  0  0  0  0  0
  -27.2490  -12.4890   20.1780 N   0  0  0  0  0  0  0  0  0  0  0  0
  -25.1530  -11.4400   20.7220 C   0  0  0  0  0  0  0  0  0  0  0  0
  -25.4430  -10.5270   21.7590 C   0  0  0  0  0  3  0  0  0  0  0  0
  -24.6300   -9.3920   21.9580 C   0  0  0  0  0  3  0  0  0  0  0  0
  -23.5120   -9.1620   21.1220 C   0  0  0  0  0  0  0  0  0  0  0  0
  -23.2420  -10.0620   20.0750 C   0  0  0  0  0  3  0  0  0  0  0  0
  -24.0570  -11.1880   19.8740 C   0  0  0  0  0  3  0  0  0  0  0  0
  -22.6850   -8.0710   21.2250 O   0  0  0  0  0  0  0  0  0  0  0  0
  -22.3450   -7.5360   22.4400 C   0  0  0  0  0  0  0  0  0  0  0  0
  -21.7150   -8.3040   23.4440 C   0  0  0  0  0  3  0  0  0  0  0  0
  -21.3170   -7.6950   24.6510 C   0  0  0  0  0  3  0  0  0  0  0  0
  -21.5440   -6.3200   24.8550 C   0  0  0  0  0  0  0  0  0  0  0  0
  -22.1660   -5.5530   23.8540 C   0  0  0  0  0  3  0  0  0  0  0  0
  -22.5610   -6.1580   22.6490 C   0  0  0  0  0  0  0  0  0  0  0  0
  -23.1400   -5.4080   21.6790 F   0  0  0  0  0  0  0  0  0  0  0  0
  -21.1560   -5.7320   26.0110 F   0  0  0  0  0  0  0  0  0  0  0  0
  -24.2750  -14.6120   20.8240 C   0  0  0  0  0  0  0  0  0  0  0  0
  -23.5220  -13.9960   21.7280 N   0  0  0  0  0  0  0  0  0  0  0  0
  -23.8970  -15.6520   20.2860 O   0  0  0  0  0  0  0  0  0  0  0  0
  -23.8370  -13.1540   22.1830 H   0  0  0  0  0  0  0  0  0  0  0  0
  -22.6160  -14.3730   21.9670 H   0  0  0  0  0  0  0  0  0  0  0  0
  -27.0260  -16.0490   19.9410 N   0  0  0  0  0  0  0  0  0  0  0  0
  -26.3310  -16.7810   20.0530 H   0  0  0  0  0  0  0  0  0  0  0  0
  -27.9100  -16.3990   19.5930 H   0  0  0  0  0  0  0  0  0  0  0  0
  1  2  1  0
  3  6  1  0
  3  4  1  0
  4  9  1  0
  4  1  1  0
  5 56  1  0
  5  2  1  0
  6  5  1  0
  6  7  1  0
  8  6  1  0
  9 10  1  0
 11  9  1  0
 12 11  1  0
 13 12  1  0
 14 13  1  0
 15 17  1  0
 15 14  1  0
 16 27  2  0
 17 22  1  0
 18 26  1  0
 18 28  1  0
 19 25  1  0
 19 21  1  0
 20 26  1  0
 21 20  1  0
 22 21  2  0
 23 24  1  0
 23 17  2  0
 24 19  2  0
 25 18  1  0
 26 16  1  0
 28 30  2  0
 29 28  1  0
 31 29  1  0
 32 41  2  0
 32 37  1  0
 33 29  1  0
 33 37  1  0
 34 33  1  0
 35 36  1  0
 35 34  1  0
 36 32  1  0
 37 38  2  0
 38 39  1  0
 40 39  2  0
 41 40  1  0
 42 16  1  0
 42 43  1  0
 42 52  1  0
 43 46  1  0
 44 48  1  0
 44 43  1  0
 45 44  2  0
 48 47  1  0
 50 48  1  0
 50 51  1  0
 50 49  1  0
 52 55  1  1
 52 53  1  0
 54 52  1  0
 57 56  1  0
 58 66  1  0
 59 64  1  0
 60 61  1  0
 60 59  1  0
 62 61  1  0
 62 71  1  0
 62 63  1  0
 64 58  1  0
 64 63  1  0
 65 58  2  0
 66 57  1  0
 66 67  1  0
 68 69  2  0
 69 88  1  0
 70 69  1  0
 70 73  1  0
 71 68  1  0
 71 72  1  0
 72 70  2  0
 73 74  1  0
 74 75  2  0
 76 79  1  0
 76 75  1  0
 77 76  2  0
 78 77  1  0
 78 73  2  0
 79 80  1  0
 80 85  2  0
 80 81  1  0
 81 82  2  0
 82 83  1  0
 83 87  1  0
 84 83  2  0
 85 84  1  0
 86 85  1  0
 88 89  1  0
 89 92  1  0
 89 91  1  0
 90 88  2  0
 93 94  1  0
 93 68  1  0
 95 93  1  0
M  ISO  4  14 101  15 101  58 100  66 100
M  END
>  <TORSDO>  (27) 
F 23

>  <SCORE>  (27) 
-6.010

>  <name>  (27) 
27

>  <ligand_id>  (27) 
27

>  <original_smiles>  (27) 
[H]c1c([H])c([H])c2c(c1[H])C([H])([H])C([H])([H])C([H])([H])C2([H])N([H])C(=O)C1([H])N(C(=O)C([H])(N([H])C(=O)C([H])(N([H])C([H])([H])[H])C([H])([H])[H])C(C([H])([H])[H])(C([H])([H])[H])C([H])([H])[H])C([H])([H])c2c([H])c(OC([H])([H])C([H])([H])C([H])([H])C([H])([H])N([H])C3([H])C([H])([H])C([H])([H])C([H])(C([H])([H])C([H])([H])N([H])C(=O)N4C([H])([H])C([H])([H])C([H])([H])C([H])(n5nc(-c6c([H])c([H])c(Oc7c([H])c([H])c(F)c([H])c7F)c([H])c6[H])c(C(=O)N([H])[H])c5N([H])[H])C4([H])[H])[N+]([H])([H])C3([H])[H])c([H])c([H])c2C1([H])[H]

>  <smiles>  (27) 
[H]c1c([H])c([H])c2c(c1[H])C([H])([H])C([H])([H])C([H])([H])C2([H])N([H])C(=O)C1([H])N(C(=O)C([H])(N([H])C(=O)C([H])(N([H])C([H])([H])[H])C([H])([H])[H])C(C([H])([H])[H])(C([H])([H])[H])C([H])([H])[H])C([H])([H])c2c([H])c(OC([H])([H])C([H])([H])C([H])([H])C([H])([H])N([H])C3([H])C([H])([H])C([H])([H])C([H])(C([H])([H])C([H])([H])N([H])C(=O)N4C([H])([H])C([H])([H])C([H])([H])C([H])(n5nc(-c6c([H])c([H])c(Oc7c([H])c([H])c(F)c([H])c7F)c([H])c6[H])c(C(=O)N([H])[H])c5N([H])[H])C4([H])[H])[N+]([H])([H])C3([H])[H])c([H])c([H])c2C1([H])[H]

$$$$
28:0:0
     RDKit          3D

 93 97  0  0  1  0  0  0  0  0999 V2000
  -28.7170  -30.0020   22.4840 C   0  0  0  0  0  0  0  0  0  0  0  0
  -27.6130  -31.0020   22.0600 N   0  0  0  0  0  0  0  0  0  0  0  0
  -29.4500  -30.4000   23.3850 O   0  0  0  0  0  0  0  0  0  0  0  0
  -27.4000  -30.7720   21.0970 H   0  0  0  0  0  0  0  0  0  0  0  0
  -26.4190  -32.2870   22.5890 C   0  0  0  0  0  2  0  0  0  0  0  0
  -24.1750  -31.0130   24.3960 C   0  0  0  0  0 15  0  0  0  0  0  0
  -24.8650  -28.9250   23.9550 C   0  0  0  0  0 15  0  0  0  0  0  0
  -25.9770  -28.0690   22.6130 O   0  0  0  0  0  1  0  0  0  0  0  0
  -24.7390  -30.6940   22.1790 C   0  0  0  0  0  2  0  0  0  0  0  0
  -26.0250  -27.6060   21.1770 C   0  0  0  0  0  3  0  0  0  0  0  0
  -22.8350  -29.5690   21.2810 C   0  0  0  0  0  3  0  0  0  0  0  0
  -24.1170  -28.2570   19.5300 C   0  0  0  0  0  3  0  0  0  0  0  0
  -24.9610  -30.3300   20.2720 C   0  0  0  0  0  2  0  0  0  0  0  0
  -25.2520  -29.0440   19.7270 C   0  0  0  0  0  3  0  0  0  0  0  0
  -26.4110  -28.4650   20.1630 C   0  0  0  0  0  2  0  0  0  0  0  0
  -25.3550  -26.5230   20.5060 C   0  0  0  0  0  2  0  0  0  0  0  0
  -24.3120  -26.8840   19.6170 C   0  0  0  0  0  2  0  0  0  0  0  0
  -22.7720  -28.8960   19.8890 C   0  0  0  0  0  2  0  0  0  0  0  0
  -24.3010  -29.8370   21.4620 N   0  0  0  0  0  0  0  0  0  0  0  0
  -23.8730  -31.6650   22.1060 O   0  0  0  0  0  1  0  0  0  0  0  0
  -22.2030  -28.6000   22.2980 C   0  0  0  0  0  0  0  0  0  0  0  0
  -20.8760  -28.5330   22.3700 N   0  0  0  0  0  0  0  0  0  0  0  0
  -22.8670  -27.7660   22.8890 O   0  0  0  0  0  0  0  0  0  0  0  0
  -20.3160  -29.1990   21.8590 H   0  0  0  0  0  0  0  0  0  0  0  0
  -17.7580  -26.7990   22.4970 C   0  0  0  0  0  0  0  0  0  0  0  0
  -20.1690  -27.4700   23.0840 C   0  0  0  0  0  3  0  0  0  0  0  0
  -20.5630  -26.0520   22.5850 C   0  0  0  0  0  2  0  0  0  0  0  0
  -19.6900  -25.5560   21.4350 C   0  0  0  0  0  2  0  0  0  0  0  0
  -18.2290  -25.4930   21.8800 C   0  0  0  0  0  2  0  0  0  0  0  0
  -18.6690  -27.7300   23.0560 C   0  0  0  0  0  0  0  0  0  0  0  0
  -18.1850  -28.9460   23.5820 C   0  0  0  0  0  3  0  0  0  0  0  0
  -16.8110  -29.2390   23.5550 C   0  0  0  0  0  3  0  0  0  0  0  0
  -15.9080  -28.3080   23.0130 C   0  0  0  0  0  3  0  0  0  0  0  0
  -16.3800  -27.0910   22.4920 C   0  0  0  0  0  3  0  0  0  0  0  0
  -26.3880  -31.0630   24.1260 C   0  0  0  0  0  3  0  0  0  0  0  0
  -26.4530  -30.5960   25.6410 C   0  0  1  0  0  0  0  0  0  0  0  0
  -25.2730  -30.6450   26.7080 C   0  0  0  0  0  1  0  0  0  0  0  0
  -27.0660  -29.2060   25.5570 C   0  0  0  0  0  1  0  0  0  0  0  0
  -27.5260  -31.4670   26.3540 C   0  0  0  0  0  1  0  0  0  0  0  0
  -26.1930  -32.8410   24.5270 N   0  0  0  0  0  0  0  0  0  0  0  0
  -25.9910  -34.1380   23.8830 C   0  0  0  0  0  0  0  0  0  0  0  0
  -26.3890  -34.4520   22.7560 O   0  0  0  0  0  0  0  0  0  0  0  0
  -25.9990  -32.9210   25.5130 H   0  0  0  0  0  0  0  0  0  0  0  0
  -24.2710  -36.0270   23.5110 C   0  0  0  0  0  1  0  0  0  0  0  0
  -25.4100  -35.4860   24.4370 C   0  0  0  0  0  3  0  0  0  0  0  0
  -27.5770  -36.3320   25.2900 C   0  0  0  0  0  1  0  0  0  0  0  0
  -26.4260  -36.5850   24.4370 N   0  0  0  0  0  0  0  0  0  0  0  0
  -25.9980  -37.4590   24.7280 H   0  0  0  0  0  0  0  0  0  0  0  0
  -29.3910  -28.4070   21.8990 C   0  0  0  0  0  3  0  0  0  0  0  0
  -29.4550  -26.6170   22.4180 C   0  0  0  0  0  3  0  0  0  0  0  0
  -30.0400  -25.0130   21.7000 C   0  0  0  0  0  2  0  0  0  0  0  0
  -29.7460  -23.2120   21.9960 C   0  0  0  0  0  3  0  0  0  0  0  0
  -30.3570  -21.6050   21.3160 C   0  0  0  0  0  3  0  0  0  0  0  0
  -29.8940  -19.8200   21.4180 C   0  0  0  0  0  3  0  0  0  0  0  0
  -30.6020  -18.2310   20.8090 C   0  0  0  0  0  3  0  0  0  0  0  0
  -30.6520  -15.2720   20.3370 C   0  0  0  0  0  0  0  0  0  0  0  0
  -30.4280  -12.9170   19.2030 C   0  0  0  0  0  2  0  0  0  0  0  0
  -29.4590  -12.7850   17.9960 C   0  0  0  0  0  2  0  0  0  0  0  0
  -28.0300  -12.4810   18.4700 C   0  0  0  0  0  2  0  0  0  0  0  0
  -27.6330  -13.3750   19.6700 C   0  0  0  0  0  3  0  0  0  0  0  0
  -28.7310  -13.4760   20.7650 C   0  0  0  0  0  2  0  0  0  0  0  0
  -29.9640  -14.0180   20.1470 N   0  0  0  0  0  0  0  0  0  0  0  0
  -31.8320  -15.2020   19.9700 O   0  0  0  0  0  0  0  0  0  0  0  0
  -30.0930  -16.6070   20.7420 N   0  0  0  0  0  0  0  0  0  0  0  0
  -29.1200  -16.5080   21.0010 H   0  0  0  0  0  0  0  0  0  0  0  0
  -25.2700  -13.8870   20.4860 C   0  0  0  0  0  0  0  0  0  0  0  0
  -24.2210  -13.0960   20.8620 C   0  0  0  0  0  0  0  0  0  0  0  0
  -24.6950  -11.7490   20.7920 C   0  0  0  0  0  0  0  0  0  0  0  0
  -26.3160  -13.0290   20.2030 N   0  0  0  0  0  0  0  0  0  0  0  0
  -25.9820  -11.7330   20.4490 N   0  0  0  0  0  0  0  0  0  0  0  0
  -23.9760  -10.4780   20.9720 C   0  0  0  0  0  0  0  0  0  0  0  0
  -24.3890   -9.5220   21.9270 C   0  0  0  0  0  3  0  0  0  0  0  0
  -23.6650   -8.3220   22.0990 C   0  0  0  0  0  3  0  0  0  0  0  0
  -22.5140   -8.0670   21.3170 C   0  0  0  0  0  0  0  0  0  0  0  0
  -22.1200   -9.0130   20.3530 C   0  0  0  0  0  3  0  0  0  0  0  0
  -22.8440  -10.2040   20.1790 C   0  0  0  0  0  3  0  0  0  0  0  0
  -21.7670   -6.9180   21.3960 O   0  0  0  0  0  0  0  0  0  0  0  0
  -21.6420   -6.2180   22.5700 C   0  0  0  0  0  0  0  0  0  0  0  0
  -21.1070   -6.8090   23.7360 C   0  0  0  0  0  3  0  0  0  0  0  0
  -20.9330   -6.0350   24.9000 C   0  0  0  0  0  3  0  0  0  0  0  0
  -21.2820   -4.6710   24.9000 C   0  0  0  0  0  0  0  0  0  0  0  0
  -21.8100   -4.0800   23.7390 C   0  0  0  0  0  3  0  0  0  0  0  0
  -21.9860   -4.8510   22.5760 C   0  0  0  0  0  0  0  0  0  0  0  0
  -22.4740   -4.2710   21.4530 F   0  0  0  0  0  0  0  0  0  0  0  0
  -21.1080   -3.9260   26.0160 F   0  0  0  0  0  0  0  0  0  0  0  0
  -22.8270  -13.5590   21.1740 C   0  0  0  0  0  0  0  0  0  0  0  0
  -22.1240  -12.8500   22.0480 N   0  0  0  0  0  0  0  0  0  0  0  0
  -22.3720  -14.5890   20.6770 O   0  0  0  0  0  0  0  0  0  0  0  0
  -22.5070  -12.0170   22.4730 H   0  0  0  0  0  0  0  0  0  0  0  0
  -21.1900  -13.1420   22.2960 H   0  0  0  0  0  0  0  0  0  0  0  0
  -25.4170  -15.2620   20.3340 N   0  0  0  0  0  0  0  0  0  0  0  0
  -24.6490  -15.9080   20.4810 H   0  0  0  0  0  0  0  0  0  0  0  0
  -26.2560  -15.7160   19.9930 H   0  0  0  0  0  0  0  0  0  0  0  0
  1  3  2  0
  2  1  1  0
  2  5  1  0
  4  2  1  0
 10  8  1  0
 11 19  1  0
 11 21  1  0
 12 17  1  0
 12 14  1  0
 12 18  1  0
 13 19  1  0
 14 15  1  0
 14 13  1  0
 15 10  1  0
 16 10  1  0
 17 16  1  0
 18 11  1  0
 19  9  1  0
 20  9  1  0
 21 22  1  0
 21 23  2  0
 24 22  1  0
 25 30  1  0
 26 22  1  0
 27 26  1  0
 28 29  1  0
 28 27  1  0
 29 25  1  0
 30 26  1  0
 30 31  2  0
 32 31  1  0
 33 32  2  0
 34 25  2  0
 34 33  1  0
 35  5  1  0
 35 40  1  0
 35 36  1  0
 36 39  1  1
 36 37  1  0
 38 36  1  0
 40 43  1  0
 41 45  1  0
 41 40  1  0
 42 41  2  0
 45 44  1  0
 47 45  1  0
 47 48  1  0
 47 46  1  0
 49 50  2  0
 49  1  1  0
 51 52  1  0
 51 50  1  0
 53 54  1  0
 53 52  2  0
 55 54  2  0
 56 64  1  0
 57 62  1  0
 58 59  1  0
 58 57  1  0
 60 59  1  0
 60 69  1  0
 60 61  1  0
 62 56  1  0
 62 61  1  0
 63 56  2  0
 64 55  1  0
 64 65  1  0
 66 67  2  0
 67 86  1  0
 68 67  1  0
 68 71  1  0
 69 70  1  0
 69 66  1  0
 70 68  2  0
 71 72  1  0
 72 73  2  0
 74 77  1  0
 74 73  1  0
 75 74  2  0
 76 75  1  0
 76 71  2  0
 77 78  1  0
 78 83  2  0
 78 79  1  0
 79 80  2  0
 81 80  1  0
 81 85  1  0
 82 81  2  0
 83 82  1  0
 84 83  1  0
 86 87  1  0
 87 90  1  0
 87 89  1  0
 88 86  2  0
 91 92  1  0
 91 66  1  0
 93 91  1  0
M  ISO  4   7 101   8 101  56 100  64 100
M  END
>  <TORSDO>  (28) 
F 26

>  <SCORE>  (28) 
-14.996

>  <name>  (28) 
28

>  <ligand_id>  (28) 
28

>  <original_smiles>  (28) 
[H]c1c([H])c([H])c2c(c1[H])C([H])([H])C([H])([H])C([H])([H])C2([H])N([H])C(=O)C1([H])N(C(=O)C([H])(N([H])C(=O)C([H])(N([H])C([H])([H])[H])C([H])([H])[H])C(C([H])([H])[H])(C([H])([H])[H])C([H])([H])[H])C([H])([H])c2c([H])c(OC([H])([H])C([H])([H])C([H])([H])N([H])C(=O)C([H])([H])C([H])([H])C([H])([H])C([H])([H])C([H])([H])C([H])([H])C([H])([H])N([H])C(=O)N3C([H])([H])C([H])([H])C([H])([H])C([H])(n4nc(-c5c([H])c([H])c(Oc6c([H])c([H])c(F)c([H])c6F)c([H])c5[H])c(C(=O)N([H])[H])c4N([H])[H])C3([H])[H])c([H])c([H])c2C1([H])[H]

>  <smiles>  (28) 
[H]c1c([H])c([H])c2c(c1[H])C([H])([H])C([H])([H])C([H])([H])C2([H])N([H])C(=O)C1([H])N(C(=O)C([H])(N([H])C(=O)C([H])(N([H])C([H])([H])[H])C([H])([H])[H])C(C([H])([H])[H])(C([H])([H])[H])C([H])([H])[H])C([H])([H])c2c([H])c(OC([H])([H])C([H])([H])C([H])([H])N([H])C(=O)C([H])([H])C([H])([H])C([H])([H])C([H])([H])C([H])([H])C([H])([H])C([H])([H])N([H])C(=O)N3C([H])([H])C([H])([H])C([H])([H])C([H])(n4nc(-c5c([H])c([H])c(Oc6c([H])c([H])c(F)c([H])c6F)c([H])c5[H])c(C(=O)N([H])[H])c4N([H])[H])C3([H])[H])c([H])c([H])c2C1([H])[H]

$$$$
29:0:0
     RDKit          3D

 96104  0  0  1  0  0  0  0  0999 V2000
  -29.2440  -19.2170   20.0030 N   0  0  0  0  0  4  0  0  0  0  0  0
  -30.2040  -19.4600   19.8090 H   0  0  0  0  0  0  0  0  0  0  0  0
  -28.9550  -19.7530   20.8050 H   0  0  0  0  0  0  0  0  0  0  0  0
  -30.9350  -14.5710   20.2070 C   0  0  0  0  0  0  0  0  0  0  0  0
  -30.5820  -12.4880   18.9520 C   0  0  0  0  0  2  0  0  0  0  0  0
  -29.5890  -12.7570   17.8020 C   0  0  0  0  0  2  0  0  0  0  0  0
  -28.1280  -12.6360   18.2820 C   0  0  0  0  0  2  0  0  0  0  0  0
  -27.8580  -13.3870   19.6140 C   0  0  0  0  0  3  0  0  0  0  0  0
  -28.9550  -13.0490   20.6450 C   0  0  0  0  0  2  0  0  0  0  0  0
  -30.2490  -13.4080   20.0490 N   0  0  0  0  0  0  0  0  0  0  0  0
  -32.0580  -14.7490   19.7250 O   0  0  0  0  0  0  0  0  0  0  0  0
  -29.4550  -17.5160   21.8420 C   0  0  0  0  0  2  0  0  0  0  0  0
  -29.7370  -16.0080   21.8680 C   0  0  0  0  0  2  0  0  0  0  0  0
  -30.1760  -16.8650   19.6660 C   0  0  0  0  0  3  0  0  0  0  0  0
  -29.1570  -17.7840   20.3760 C   0  0  0  0  0  3  0  0  0  0  0  0
  -30.1870  -15.6580   20.5110 N   0  0  0  0  0  0  0  0  0  0  0  0
  -25.4860  -13.9970   20.4000 C   0  0  0  0  0  0  0  0  0  0  0  0
  -24.4280  -13.2220   20.7930 C   0  0  0  0  0  0  0  0  0  0  0  0
  -24.8840  -11.8710   20.7270 C   0  0  0  0  0  0  0  0  0  0  0  0
  -26.5200  -13.1150   20.1260 N   0  0  0  0  0  0  0  0  0  0  0  0
  -26.1620  -11.8310   20.3770 N   0  0  0  0  0  0  0  0  0  0  0  0
  -24.1660  -10.6060   20.9210 C   0  0  0  0  0  0  0  0  0  0  0  0
  -24.5760   -9.6670   21.8920 C   0  0  0  0  0  3  0  0  0  0  0  0
  -23.8600   -8.4640   22.0720 C   0  0  0  0  0  3  0  0  0  0  0  0
  -22.7200   -8.1930   21.2800 C   0  0  0  0  0  0  0  0  0  0  0  0
  -22.3300   -9.1200   20.2970 C   0  0  0  0  0  3  0  0  0  0  0  0
  -23.0470  -10.3150   20.1150 C   0  0  0  0  0  3  0  0  0  0  0  0
  -21.9780   -7.0400   21.3680 O   0  0  0  0  0  0  0  0  0  0  0  0
  -21.8020   -6.3880   22.5620 C   0  0  0  0  0  0  0  0  0  0  0  0
  -21.1950   -7.0140   23.6720 C   0  0  0  0  0  3  0  0  0  0  0  0
  -20.9720   -6.2830   24.8560 C   0  0  0  0  0  3  0  0  0  0  0  0
  -21.3460   -4.9280   24.9290 C   0  0  0  0  0  0  0  0  0  0  0  0
  -21.9460   -4.3010   23.8230 C   0  0  0  0  0  3  0  0  0  0  0  0
  -22.1700   -5.0290   22.6410 C   0  0  0  0  0  0  0  0  0  0  0  0
  -22.7280   -4.4160   21.5690 F   0  0  0  0  0  0  0  0  0  0  0  0
  -21.1260   -4.2230   26.0630 F   0  0  0  0  0  0  0  0  0  0  0  0
  -23.0400  -13.6970   21.1150 C   0  0  0  0  0  0  0  0  0  0  0  0
  -22.3430  -12.9920   22.0000 N   0  0  0  0  0  0  0  0  0  0  0  0
  -22.5840  -14.7250   20.6180 O   0  0  0  0  0  0  0  0  0  0  0  0
  -22.7250  -12.1570   22.4180 H   0  0  0  0  0  0  0  0  0  0  0  0
  -21.4140  -13.2900   22.2580 H   0  0  0  0  0  0  0  0  0  0  0  0
  -25.6570  -15.3690   20.2370 N   0  0  0  0  0  0  0  0  0  0  0  0
  -24.9020  -16.0350   20.3650 H   0  0  0  0  0  0  0  0  0  0  0  0
  -26.4850  -15.7760   19.8260 H   0  0  0  0  0  0  0  0  0  0  0  0
  -29.7720  -16.5460   18.2110 C   0  0  0  0  0  0  0  0  0  0  0  0
  -30.7300  -16.5160   17.2950 N   0  0  0  0  0  0  0  0  0  0  0  0
  -28.6010  -16.3290   17.9070 O   0  0  0  0  0  0  0  0  0  0  0  0
  -31.6960  -16.6680   17.5530 H   0  0  0  0  0  0  0  0  0  0  0  0
  -30.5090  -16.3090   16.3320 H   0  0  0  0  0  0  0  0  0  0  0  0
  -28.3740  -19.6310   18.8760 C   0  0  0  0  0  2  0  0  0  0  0  0
  -28.6840  -21.0540   18.3860 C   0  0  0  0  0  2  0  0  0  0  0  0
  -28.4690  -22.1410   19.4490 C   0  0  0  0  0  2  0  0  0  0  0  0
  -28.7110  -23.5410   18.8760 C   0  0  0  0  0  2  0  0  0  0  0  0
  -28.5710  -24.6340   19.9390 C   0  0  0  0  0  2  0  0  0  0  0  0
  -28.9300  -26.0160   19.3830 C   0  0  0  0  0  2  0  0  0  0  0  0
  -28.6610  -27.0190   20.3530 O   0  0  0  0  0  0  0  0  0  0  0  0
  -24.5950  -31.9970   23.3550 C   0  0  0  0  0  0  0  0  0  0  0  0
  -27.4310  -27.6380   20.3410 C   0  0  0  0  0  0  0  0  0  0  0  0
  -23.4640  -30.5640   21.6840 C   0  0  0  0  0  3  0  0  0  0  0  0
  -24.9870  -29.0550   20.3100 C   0  0  0  0  0  0  0  0  0  0  0  0
  -25.9820  -30.9810   21.5550 C   0  0  0  0  0  2  0  0  0  0  0  0
  -26.1130  -29.6110   20.9290 C   0  0  0  0  0  0  0  0  0  0  0  0
  -27.3310  -28.9030   20.9560 C   0  0  0  0  0  3  0  0  0  0  0  0
  -26.2790  -27.0800   19.7330 C   0  0  0  0  0  3  0  0  0  0  0  0
  -25.0620  -27.7830   19.7200 C   0  0  0  0  0  3  0  0  0  0  0  0
  -23.7240  -29.8850   20.3140 C   0  0  0  0  0  2  0  0  0  0  0  0
  -24.6960  -31.1960   22.2570 N   0  0  0  0  0  0  0  0  0  0  0  0
  -23.4930  -32.2470   23.8640 O   0  0  0  0  0  0  0  0  0  0  0  0
  -22.8110  -29.5290   22.6280 C   0  0  0  0  0  0  0  0  0  0  0  0
  -21.5010  -29.2990   22.4470 N   0  0  0  0  0  0  0  0  0  0  0  0
  -23.4820  -28.9370   23.4780 O   0  0  0  0  0  0  0  0  0  0  0  0
  -21.0210  -29.8340   21.7360 H   0  0  0  0  0  0  0  0  0  0  0  0
  -18.1540  -27.9890   22.7960 C   0  0  0  0  0  0  0  0  0  0  0  0
  -20.6830  -28.3420   23.1910 C   0  0  0  0  0  3  0  0  0  0  0  0
  -20.8650  -26.9080   22.6410 C   0  0  0  0  0  2  0  0  0  0  0  0
  -19.8270  -26.5310   21.5800 C   0  0  0  0  0  2  0  0  0  0  0  0
  -18.4110  -26.6370   22.1530 C   0  0  0  0  0  2  0  0  0  0  0  0
  -19.2210  -28.7960   23.2690 C   0  0  0  0  0  0  0  0  0  0  0  0
  -18.9300  -30.0610   23.8240 C   0  0  0  0  0  3  0  0  0  0  0  0
  -17.6020  -30.5190   23.9140 C   0  0  0  0  0  3  0  0  0  0  0  0
  -16.5480  -29.7080   23.4620 C   0  0  0  0  0  3  0  0  0  0  0  0
  -16.8230  -28.4460   22.9080 C   0  0  0  0  0  3  0  0  0  0  0  0
  -25.8520  -32.6540   24.0080 C   0  0  0  0  0  3  0  0  0  0  0  0
  -25.5240  -34.0590   24.2780 N   0  0  0  0  0  0  0  0  0  0  0  0
  -25.8820  -35.0870   23.4970 C   0  0  0  0  0  0  0  0  0  0  0  0
  -26.5950  -34.9530   22.4980 O   0  0  0  0  0  0  0  0  0  0  0  0
  -24.8970  -34.2380   25.0500 H   0  0  0  0  0  0  0  0  0  0  0  0
  -24.1620  -36.8530   23.0050 C   0  0  0  0  0  1  0  0  0  0  0  0
  -25.3670  -36.4860   23.8840 C   0  0  0  0  0  3  0  0  0  0  0  0
  -27.4560  -37.4160   24.7810 C   0  0  0  0  0  1  0  0  0  0  0  0
  -26.3980  -37.5420   23.7820 N   0  0  0  0  0  0  0  0  0  0  0  0
  -25.9800  -38.4640   23.8770 H   0  0  0  0  0  0  0  0  0  0  0  0
  -26.3210  -31.9240   25.3260 C   0  0  1  0  0  0  0  0  0  0  0  0
  -25.1870  -31.7020   26.3530 C   0  0  0  0  0  1  0  0  0  0  0  0
  -26.9340  -30.5440   24.9920 C   0  0  0  0  0  1  0  0  0  0  0  0
  -27.4330  -32.7510   26.0130 C   0  0  0  0  0  1  0  0  0  0  0  0
  1  3  1  0
  2  1  1  0
  4 16  1  0
  5 10  1  0
  6  7  1  0
  6  5  1  0
  8  7  1  0
  8 20  1  0
  8  9  1  0
 10  4  1  0
 10  9  1  0
 11  4  2  0
 12 13  1  0
 14 45  1  0
 14 15  1  0
 14 16  1  0
 15  1  1  0
 15 12  1  0
 16 13  1  0
 17 18  2  0
 18 37  1  0
 19 18  1  0
 19 22  1  0
 20 21  1  0
 20 17  1  0
 21 19  2  0
 22 23  1  0
 23 24  2  0
 25 28  1  0
 25 24  1  0
 26 25  2  0
 27 26  1  0
 27 22  2  0
 28 29  1  0
 29 34  2  0
 29 30  1  0
 30 31  2  0
 31 32  1  0
 32 36  1  0
 33 32  2  0
 34 33  1  0
 35 34  1  0
 37 38  1  0
 38 41  1  0
 38 40  1  0
 39 37  2  0
 42 43  1  0
 42 17  1  0
 44 42  1  0
 46 48  1  0
 46 45  1  0
 47 45  2  0
 49 46  1  0
 50  1  1  0
 51 50  1  0
 51 52  1  0
 53 52  1  0
 53 54  1  0
 55 54  1  0
 55 56  1  0
 57 68  2  0
 58 56  1  0
 58 63  1  0
 59 67  1  0
 59 69  1  0
 60 66  1  0
 60 62  1  0
 61 67  1  0
 62 63  2  0
 62 61  1  0
 64 58  2  0
 65 64  1  0
 65 60  2  0
 66 59  1  0
 67 57  1  0
 69 71  2  0
 70 69  1  0
 72 70  1  0
 73 82  2  0
 73 78  1  0
 74 70  1  0
 74 78  1  0
 75 74  1  0
 76 77  1  0
 76 75  1  0
 77 73  1  0
 78 79  2  0
 79 80  1  0
 81 80  2  0
 82 81  1  0
 83 57  1  0
 83 84  1  0
 83 93  1  0
 84 87  1  0
 85 89  1  0
 85 84  1  0
 86 85  2  0
 89 88  1  0
 91 92  1  0
 91 89  1  0
 91 90  1  0
 93 96  1  1
 93 94  1  0
 95 93  1  0
M  ISO  4   4 100  16 100  55 101  56 101
M  END
>  <TORSDO>  (29) 
F 23

>  <SCORE>  (29) 
-10.229

>  <name>  (29) 
29

>  <ligand_id>  (29) 
29

>  <original_smiles>  (29) 
[H]c1c([H])c([H])c2c(c1[H])C([H])([H])C([H])([H])C([H])([H])C2([H])N([H])C(=O)C1([H])N(C(=O)C([H])(N([H])C(=O)C([H])(N([H])C([H])([H])[H])C([H])([H])[H])C(C([H])([H])[H])(C([H])([H])[H])C([H])([H])[H])C([H])([H])c2c([H])c(OC([H])([H])C([H])([H])C([H])([H])C([H])([H])C([H])([H])C([H])([H])[N+]([H])([H])C3([H])C([H])(C(=O)N([H])[H])N(C(=O)N4C([H])([H])C([H])([H])C([H])([H])C([H])(n5nc(-c6c([H])c([H])c(Oc7c([H])c([H])c(F)c([H])c7F)c([H])c6[H])c(C(=O)N([H])[H])c5N([H])[H])C4([H])[H])C([H])([H])C3([H])[H])c([H])c([H])c2C1([H])[H]

>  <smiles>  (29) 
[H]c1c([H])c([H])c2c(c1[H])C([H])([H])C([H])([H])C([H])([H])C2([H])N([H])C(=O)C1([H])N(C(=O)C([H])(N([H])C(=O)C([H])(N([H])C([H])([H])[H])C([H])([H])[H])C(C([H])([H])[H])(C([H])([H])[H])C([H])([H])[H])C([H])([H])c2c([H])c(OC([H])([H])C([H])([H])C([H])([H])C([H])([H])C([H])([H])C([H])([H])[N+]([H])([H])C3([H])C([H])(C(=O)N([H])[H])N(C(=O)N4C([H])([H])C([H])([H])C([H])([H])C([H])(n5nc(-c6c([H])c([H])c(Oc7c([H])c([H])c(F)c([H])c7F)c([H])c6[H])c(C(=O)N([H])[H])c5N([H])[H])C4([H])[H])C([H])([H])C3([H])[H])c([H])c([H])c2C1([H])[H]

$$$$
30:0:0
     RDKit          3D

 96104  0  0  1  0  0  0  0  0999 V2000
  -29.4010  -17.9720   18.5410 C   0  0  0  0  0  2  0  0  0  0  0  0
  -27.3800  -18.7700   19.6230 C   0  0  0  0  0  2  0  0  0  0  0  0
  -29.5390  -17.9810   20.0740 C   0  0  0  0  0  3  0  0  0  0  0  0
  -27.9060  -18.2000   18.2890 C   0  0  0  0  0  3  0  0  0  0  0  0
  -28.5540  -19.0270   20.4760 N   0  0  0  0  0  0  0  0  0  0  0  0
  -30.8170  -14.5300   20.4330 C   0  0  0  0  0  0  0  0  0  0  0  0
  -30.3710  -12.4030   19.2680 C   0  0  0  0  0  2  0  0  0  0  0  0
  -29.4380  -12.5740   18.0580 C   0  0  0  0  0  2  0  0  0  0  0  0
  -27.9690  -12.4190   18.4910 C   0  0  0  0  0  2  0  0  0  0  0  0
  -27.6330  -13.2660   19.7440 C   0  0  0  0  0  3  0  0  0  0  0  0
  -28.7010  -13.1350   20.8560 C   0  0  0  0  0  2  0  0  0  0  0  0
  -29.9990  -13.4440   20.2490 N   0  0  0  0  0  0  0  0  0  0  0  0
  -31.9950  -14.4810   20.0930 O   0  0  0  0  0  0  0  0  0  0  0  0
  -29.3000  -16.5200   20.6040 C   0  0  0  0  0  0  0  0  0  0  0  0
  -30.4240  -15.7900   20.7370 N   0  0  0  0  0  0  0  0  0  0  0  0
  -28.1630  -16.1170   20.8330 O   0  0  0  0  0  0  0  0  0  0  0  0
  -31.2340  -16.3880   20.7290 H   0  0  0  0  0  0  0  0  0  0  0  0
  -25.2380  -13.8790   20.4300 C   0  0  0  0  0  0  0  0  0  0  0  0
  -24.1680  -13.1100   20.7950 C   0  0  0  0  0  0  0  0  0  0  0  0
  -24.6330  -11.7580   20.7910 C   0  0  0  0  0  0  0  0  0  0  0  0
  -26.2860  -12.9950   20.2320 N   0  0  0  0  0  0  0  0  0  0  0  0
  -25.9290  -11.7170   20.5070 N   0  0  0  0  0  0  0  0  0  0  0  0
  -23.9050  -10.4990   20.9860 C   0  0  0  0  0  0  0  0  0  0  0  0
  -24.3170   -9.5450   21.9440 C   0  0  0  0  0  3  0  0  0  0  0  0
  -23.5860   -8.3520   22.1240 C   0  0  0  0  0  3  0  0  0  0  0  0
  -22.4310   -8.1030   21.3470 C   0  0  0  0  0  0  0  0  0  0  0  0
  -22.0400   -9.0440   20.3780 C   0  0  0  0  0  3  0  0  0  0  0  0
  -22.7720  -10.2280   20.1940 C   0  0  0  0  0  3  0  0  0  0  0  0
  -21.6720   -6.9600   21.4370 O   0  0  0  0  0  0  0  0  0  0  0  0
  -21.5870   -6.2420   22.6040 C   0  0  0  0  0  0  0  0  0  0  0  0
  -21.1170   -6.8220   23.8020 C   0  0  0  0  0  3  0  0  0  0  0  0
  -20.9770   -6.0290   24.9600 C   0  0  0  0  0  3  0  0  0  0  0  0
  -21.3040   -4.6610   24.9200 C   0  0  0  0  0  0  0  0  0  0  0  0
  -21.7690   -4.0820   23.7250 C   0  0  0  0  0  3  0  0  0  0  0  0
  -21.9060   -4.8710   22.5700 C   0  0  0  0  0  0  0  0  0  0  0  0
  -22.3350   -4.3040   21.4160 F   0  0  0  0  0  0  0  0  0  0  0  0
  -21.1650   -3.8960   26.0280 F   0  0  0  0  0  0  0  0  0  0  0  0
  -22.7670  -13.5880   21.0490 C   0  0  0  0  0  0  0  0  0  0  0  0
  -22.0340  -12.8970   21.9120 N   0  0  0  0  0  0  0  0  0  0  0  0
  -22.3340  -14.6090   20.5160 O   0  0  0  0  0  0  0  0  0  0  0  0
  -22.4000  -12.0710   22.3610 H   0  0  0  0  0  0  0  0  0  0  0  0
  -21.0930  -13.1920   22.1260 H   0  0  0  0  0  0  0  0  0  0  0  0
  -25.4090  -15.2450   20.2370 N   0  0  0  0  0  0  0  0  0  0  0  0
  -24.6770  -15.9210   20.4300 H   0  0  0  0  0  0  0  0  0  0  0  0
  -26.3470  -15.6480   20.2420 H   0  0  0  0  0  0  0  0  0  0  0  0
  -27.6460  -19.0940   17.1430 N   0  0  0  0  0  4  0  0  0  0  0  0
  -28.0370  -20.0060   17.2870 H   0  0  0  0  0  0  0  0  0  0  0  0
  -26.6540  -19.1970   17.0160 H   0  0  0  0  0  0  0  0  0  0  0  0
  -28.0230  -18.7150   16.2910 H   0  0  0  0  0  0  0  0  0  0  0  0
  -29.0950  -20.4080   20.3180 C   0  0  0  0  0  3  0  0  0  0  0  0
  -28.1530  -21.5780   20.7630 C   0  0  0  0  0  3  0  0  0  0  0  0
  -28.8040  -23.0030   20.7670 C   0  0  0  0  0  2  0  0  0  0  0  0
  -26.6160  -23.9340   21.7450 C   0  0  0  0  0  1  0  0  0  0  0  0
  -27.8120  -24.2180   20.8150 C   0  0  0  0  0  3  0  0  0  0  0  0
  -28.4700  -25.5930   21.1960 C   0  0  0  0  0  2  0  0  0  0  0  0
  -28.4240  -26.6460   20.2080 O   0  0  0  0  0  0  0  0  0  0  0  0
  -24.6070  -31.8590   23.2500 C   0  0  0  0  0  0  0  0  0  0  0  0
  -27.2820  -27.4190   20.2030 C   0  0  0  0  0  0  0  0  0  0  0  0
  -23.4250  -30.4660   21.5820 C   0  0  0  0  0  3  0  0  0  0  0  0
  -24.8990  -28.9390   20.1630 C   0  0  0  0  0  0  0  0  0  0  0  0
  -25.9520  -30.8320   21.4150 C   0  0  0  0  0  2  0  0  0  0  0  0
  -26.0480  -29.4590   20.7770 C   0  0  0  0  0  0  0  0  0  0  0  0
  -27.2460  -28.7070   20.7920 C   0  0  0  0  0  3  0  0  0  0  0  0
  -26.1250  -26.9260   19.5660 C   0  0  0  0  0  3  0  0  0  0  0  0
  -24.9340  -27.6770   19.5440 C   0  0  0  0  0  3  0  0  0  0  0  0
  -23.6510  -29.7910   20.2000 C   0  0  0  0  0  2  0  0  0  0  0  0
  -24.6800  -31.0670   22.1420 N   0  0  0  0  0  0  0  0  0  0  0  0
  -23.5170  -32.1230   23.7810 O   0  0  0  0  0  0  0  0  0  0  0  0
  -22.7620  -29.4410   22.5310 C   0  0  0  0  0  0  0  0  0  0  0  0
  -21.4350  -29.2720   22.3990 N   0  0  0  0  0  0  0  0  0  0  0  0
  -23.4370  -28.8010   23.3400 O   0  0  0  0  0  0  0  0  0  0  0  0
  -20.9510  -29.8300   21.7110 H   0  0  0  0  0  0  0  0  0  0  0  0
  -18.0490  -28.1130   22.8870 C   0  0  0  0  0  0  0  0  0  0  0  0
  -20.6130  -28.3280   23.1540 C   0  0  0  0  0  3  0  0  0  0  0  0
  -20.6970  -26.9110   22.5430 C   0  0  0  0  0  2  0  0  0  0  0  0
  -19.5850  -26.6250   21.5280 C   0  0  0  0  0  2  0  0  0  0  0  0
  -18.2060  -26.7760   22.1810 C   0  0  0  0  0  2  0  0  0  0  0  0
  -19.1800  -28.8470   23.3310 C   0  0  0  0  0  0  0  0  0  0  0  0
  -18.9820  -30.1010   23.9500 C   0  0  0  0  0  3  0  0  0  0  0  0
  -17.6850  -30.6180   24.1340 C   0  0  0  0  0  3  0  0  0  0  0  0
  -16.5690  -29.8760   23.7100 C   0  0  0  0  0  3  0  0  0  0  0  0
  -16.7510  -28.6270   23.0910 C   0  0  0  0  0  3  0  0  0  0  0  0
  -25.8840  -32.4870   23.8930 C   0  0  0  0  0  3  0  0  0  0  0  0
  -25.5780  -33.8900   24.2040 N   0  0  0  0  0  0  0  0  0  0  0  0
  -25.9270  -34.9320   23.4370 C   0  0  0  0  0  0  0  0  0  0  0  0
  -26.6090  -34.8120   22.4160 O   0  0  0  0  0  0  0  0  0  0  0  0
  -24.9880  -34.0600   25.0050 H   0  0  0  0  0  0  0  0  0  0  0  0
  -24.2170  -36.7300   23.0330 C   0  0  0  0  0  1  0  0  0  0  0  0
  -25.4410  -36.3280   23.8720 C   0  0  0  0  0  3  0  0  0  0  0  0
  -27.5620  -37.2130   24.7310 C   0  0  0  0  0  1  0  0  0  0  0  0
  -26.4800  -37.3730   23.7650 N   0  0  0  0  0  0  0  0  0  0  0  0
  -26.0750  -38.2970   23.8920 H   0  0  0  0  0  0  0  0  0  0  0  0
  -26.3690  -31.7230   25.1870 C   0  0  1  0  0  0  0  0  0  0  0  0
  -25.2540  -31.5040   26.2330 C   0  0  0  0  0  1  0  0  0  0  0  0
  -26.9510  -30.3400   24.8160 C   0  0  0  0  0  1  0  0  0  0  0  0
  -27.5080  -32.5150   25.8690 C   0  0  0  0  0  1  0  0  0  0  0  0
  1  3  1  0
  2  5  1  0
  3  5  1  0
  3 14  1  0
  4 46  1  0
  4  1  1  0
  4  2  1  0
  6 15  1  0
  7 12  1  0
  8  9  1  0
  8  7  1  0
 10  9  1  0
 10 21  1  0
 10 11  1  0
 12  6  1  0
 12 11  1  0
 13  6  2  0
 14 15  1  0
 14 16  2  0
 17 15  1  0
 18 19  2  0
 19 38  1  0
 20 19  1  0
 20 23  1  0
 21 18  1  0
 21 22  1  0
 22 20  2  0
 23 24  1  0
 24 25  2  0
 26 29  1  0
 26 25  1  0
 27 26  2  0
 28 27  1  0
 28 23  2  0
 29 30  1  0
 30 31  1  0
 31 32  2  0
 33 32  1  0
 33 37  1  0
 34 33  2  0
 35 30  2  0
 35 34  1  0
 36 35  1  0
 38 39  1  0
 39 42  1  0
 39 41  1  0
 40 38  2  0
 43 45  1  0
 43 44  1  0
 43 18  1  0
 46 47  1  0
 48 46  1  0
 49 46  1  0
 50  5  1  0
 50 51  2  0
 51 52  1  0
 52 54  1  0
 54 55  1  0
 54 53  1  0
 56 55  1  0
 57 68  2  0
 58 56  1  0
 58 63  1  0
 59 67  1  0
 59 69  1  0
 60 66  1  0
 60 62  1  0
 61 67  1  0
 62 63  2  0
 62 61  1  0
 64 58  2  0
 65 64  1  0
 65 60  2  0
 66 59  1  0
 67 57  1  0
 69 71  2  0
 70 69  1  0
 72 70  1  0
 73 82  2  0
 73 78  1  0
 74 70  1  0
 74 78  1  0
 75 74  1  0
 76 77  1  0
 76 75  1  0
 77 73  1  0
 78 79  2  0
 79 80  1  0
 81 80  2  0
 82 81  1  0
 83 57  1  0
 83 84  1  0
 83 93  1  0
 84 87  1  0
 85 89  1  0
 85 84  1  0
 86 85  2  0
 89 88  1  0
 91 89  1  0
 91 92  1  0
 91 90  1  0
 93 96  1  1
 93 94  1  0
 95 93  1  0
M  ISO  4   6 100  15 100  55 101  56 101
M  END
>  <TORSDO>  (30) 
F 22

>  <SCORE>  (30) 
-13.484

>  <name>  (30) 
30

>  <ligand_id>  (30) 
30

>  <original_smiles>  (30) 
[H]c1c([H])c([H])c2c(c1[H])C([H])([H])C([H])([H])C([H])([H])C2([H])N([H])C(=O)C1([H])N(C(=O)C([H])(N([H])C(=O)C([H])(N([H])C([H])([H])[H])C([H])([H])[H])C(C([H])([H])[H])(C([H])([H])[H])C([H])([H])[H])C([H])([H])c2c([H])c(OC([H])([H])C([H])(C([H])([H])[H])C([H])([H])C([H])([H])C([H])([H])N3C([H])([H])C([H])([N+]([H])([H])[H])C([H])([H])C3([H])C(=O)N([H])C(=O)N3C([H])([H])C([H])([H])C([H])([H])C([H])(n4nc(-c5c([H])c([H])c(Oc6c([H])c([H])c(F)c([H])c6F)c([H])c5[H])c(C(=O)N([H])[H])c4N([H])[H])C3([H])[H])c([H])c([H])c2C1([H])[H]

>  <smiles>  (30) 
[H]c1c([H])c([H])c2c(c1[H])C([H])([H])C([H])([H])C([H])([H])C2([H])N([H])C(=O)C1([H])N(C(=O)C([H])(N([H])C(=O)C([H])(N([H])C([H])([H])[H])C([H])([H])[H])C(C([H])([H])[H])(C([H])([H])[H])C([H])([H])[H])C([H])([H])c2c([H])c(OC([H])([H])C([H])(C([H])([H])[H])C([H])([H])C([H])([H])C([H])([H])N3C([H])([H])C([H])([N+]([H])([H])[H])C([H])([H])C3([H])C(=O)N([H])C(=O)N3C([H])([H])C([H])([H])C([H])([H])C([H])(n4nc(-c5c([H])c([H])c(Oc6c([H])c([H])c(F)c([H])c6F)c([H])c5[H])c(C(=O)N([H])[H])c4N([H])[H])C3([H])[H])c([H])c([H])c2C1([H])[H]

$$$$
31:0:0
     RDKit          3D

 87 94  0  0  1  0  0  0  0  0999 V2000
  -29.0860  -23.9790   20.4880 C   0  0  0  0  0  0  0  0  0  0  0  0
  -29.7530  -24.2510   21.4920 O   0  0  0  0  0  0  0  0  0  0  0  0
  -29.1740  -22.5390   19.8410 C   0  0  0  0  0  3  0  0  0  0  0  0
  -29.3240  -21.2330   20.7500 C   0  0  0  0  0  3  0  0  0  0  0  0
  -29.6440  -19.8560   20.0030 C   0  0  0  0  0  2  0  0  0  0  0  0
  -29.6400  -18.4710   20.8030 C   0  0  0  0  0  3  0  0  0  0  0  0
  -30.2230  -17.1880   20.0470 C   0  0  0  0  0  3  0  0  0  0  0  0
  -30.6270  -14.6590   20.2740 C   0  0  0  0  0  0  0  0  0  0  0  0
  -30.3270  -12.4210   19.2420 C   0  0  0  0  0  2  0  0  0  0  0  0
  -29.3780  -12.5600   18.0310 C   0  0  0  0  0  2  0  0  0  0  0  0
  -27.9140  -12.4070   18.4850 C   0  0  0  0  0  2  0  0  0  0  0  0
  -27.5780  -13.2860   19.7200 C   0  0  0  0  0  3  0  0  0  0  0  0
  -28.6490  -13.1600   20.8250 C   0  0  0  0  0  2  0  0  0  0  0  0
  -29.9550  -13.4630   20.2230 N   0  0  0  0  0  0  0  0  0  0  0  0
  -31.7880  -14.7490   19.8640 O   0  0  0  0  0  0  0  0  0  0  0  0
  -29.9070  -15.7950   20.5490 N   0  0  0  0  0  0  0  0  0  0  0  0
  -28.9730  -15.6420   20.9020 H   0  0  0  0  0  0  0  0  0  0  0  0
  -25.2050  -13.8990   20.4860 C   0  0  0  0  0  0  0  0  0  0  0  0
  -24.1390  -13.1330   20.8750 C   0  0  0  0  0  0  0  0  0  0  0  0
  -24.5920  -11.7790   20.8380 C   0  0  0  0  0  0  0  0  0  0  0  0
  -26.2370  -13.0110   20.2340 N   0  0  0  0  0  0  0  0  0  0  0  0
  -25.8760  -11.7310   20.5050 N   0  0  0  0  0  0  0  0  0  0  0  0
  -23.8610  -10.5220   21.0410 C   0  0  0  0  0  0  0  0  0  0  0  0
  -24.3140   -9.5410   21.9500 C   0  0  0  0  0  3  0  0  0  0  0  0
  -23.5830   -8.3490   22.1410 C   0  0  0  0  0  3  0  0  0  0  0  0
  -22.3830   -8.1300   21.4230 C   0  0  0  0  0  0  0  0  0  0  0  0
  -21.9490   -9.0980   20.5000 C   0  0  0  0  0  3  0  0  0  0  0  0
  -22.6820  -10.2820   20.3070 C   0  0  0  0  0  3  0  0  0  0  0  0
  -21.6200   -6.9920   21.5240 O   0  0  0  0  0  0  0  0  0  0  0  0
  -21.6140   -6.2280   22.6630 C   0  0  0  0  0  0  0  0  0  0  0  0
  -21.2680   -6.7680   23.9200 C   0  0  0  0  0  3  0  0  0  0  0  0
  -21.2090   -5.9310   25.0530 C   0  0  0  0  0  3  0  0  0  0  0  0
  -21.4870   -4.5570   24.9290 C   0  0  0  0  0  0  0  0  0  0  0  0
  -21.8250   -4.0170   23.6760 C   0  0  0  0  0  3  0  0  0  0  0  0
  -21.8880   -4.8510   22.5460 C   0  0  0  0  0  0  0  0  0  0  0  0
  -22.1950   -4.3220   21.3360 F   0  0  0  0  0  0  0  0  0  0  0  0
  -21.4220   -3.7510   26.0150 F   0  0  0  0  0  0  0  0  0  0  0  0
  -22.7510  -13.6210   21.1720 C   0  0  0  0  0  0  0  0  0  0  0  0
  -22.0330  -12.9320   22.0520 N   0  0  0  0  0  0  0  0  0  0  0  0
  -22.3120  -14.6480   20.6570 O   0  0  0  0  0  0  0  0  0  0  0  0
  -22.4030  -12.1040   22.4950 H   0  0  0  0  0  0  0  0  0  0  0  0
  -21.1010  -13.2400   22.2880 H   0  0  0  0  0  0  0  0  0  0  0  0
  -25.3740  -15.2680   20.3050 N   0  0  0  0  0  0  0  0  0  0  0  0
  -24.5990  -15.9190   20.3860 H   0  0  0  0  0  0  0  0  0  0  0  0
  -26.2200  -15.7050   19.9630 H   0  0  0  0  0  0  0  0  0  0  0  0
  -28.1490  -25.0590   19.8230 C   0  0  0  0  0  2  0  0  0  0  0  0
  -28.3220  -26.4780   20.2230 O   0  0  0  0  0  0  0  0  0  0  0  0
  -24.6090  -31.8720   23.2300 C   0  0  0  0  0  0  0  0  0  0  0  0
  -27.2010  -27.3240   20.1540 C   0  0  0  0  0  0  0  0  0  0  0  0
  -23.3920  -30.4770   21.5950 C   0  0  0  0  0  3  0  0  0  0  0  0
  -24.8330  -28.9330   20.1550 C   0  0  0  0  0  0  0  0  0  0  0  0
  -25.9290  -30.7960   21.3970 C   0  0  0  0  0  2  0  0  0  0  0  0
  -26.0020  -29.4180   20.7510 C   0  0  0  0  0  0  0  0  0  0  0  0
  -27.1850  -28.6220   20.7490 C   0  0  0  0  0  3  0  0  0  0  0  0
  -26.0090  -26.9030   19.5130 C   0  0  0  0  0  3  0  0  0  0  0  0
  -24.8350  -27.6790   19.5290 C   0  0  0  0  0  3  0  0  0  0  0  0
  -23.5980  -29.8070   20.2130 C   0  0  0  0  0  2  0  0  0  0  0  0
  -24.6630  -31.0640   22.1320 N   0  0  0  0  0  0  0  0  0  0  0  0
  -23.5300  -32.1510   23.7740 O   0  0  0  0  0  0  0  0  0  0  0  0
  -22.7370  -29.4560   22.5570 C   0  0  0  0  0  0  0  0  0  0  0  0
  -21.4110  -29.2810   22.4420 N   0  0  0  0  0  0  0  0  0  0  0  0
  -23.4220  -28.8290   23.3700 O   0  0  0  0  0  0  0  0  0  0  0  0
  -20.9160  -29.8410   21.7620 H   0  0  0  0  0  0  0  0  0  0  0  0
  -18.0380  -28.0800   22.9550 C   0  0  0  0  0  0  0  0  0  0  0  0
  -20.5970  -28.3450   23.2210 C   0  0  0  0  0  3  0  0  0  0  0  0
  -20.7010  -26.9100   22.6530 C   0  0  0  0  0  2  0  0  0  0  0  0
  -19.5990  -26.5820   21.6420 C   0  0  0  0  0  2  0  0  0  0  0  0
  -18.2170  -26.7280   22.2870 C   0  0  0  0  0  2  0  0  0  0  0  0
  -19.1580  -28.8450   23.3790 C   0  0  0  0  0  0  0  0  0  0  0  0
  -18.9370  -30.1080   23.9660 C   0  0  0  0  0  3  0  0  0  0  0  0
  -17.6340  -30.6100   24.1350 C   0  0  0  0  0  3  0  0  0  0  0  0
  -16.5280  -29.8420   23.7300 C   0  0  0  0  0  3  0  0  0  0  0  0
  -16.7300  -28.5800   23.1420 C   0  0  0  0  0  3  0  0  0  0  0  0
  -25.8980  -32.5020   23.8420 C   0  0  0  0  0  3  0  0  0  0  0  0
  -26.4270  -31.7260   25.1090 C   0  0  1  0  0  0  0  0  0  0  0  0
  -25.3460  -31.4880   26.1890 C   0  0  0  0  0  1  0  0  0  0  0  0
  -27.0040  -30.3490   24.7040 C   0  0  0  0  0  1  0  0  0  0  0  0
  -27.5840  -32.5190   25.7630 C   0  0  0  0  0  1  0  0  0  0  0  0
  -25.5900  -33.8990   24.1820 N   0  0  0  0  0  0  0  0  0  0  0  0
  -25.9120  -34.9560   23.4270 C   0  0  0  0  0  0  0  0  0  0  0  0
  -26.5700  -34.8600   22.3860 O   0  0  0  0  0  0  0  0  0  0  0  0
  -24.9980  -34.0470   24.9860 H   0  0  0  0  0  0  0  0  0  0  0  0
  -24.1730  -36.7480   23.1110 C   0  0  0  0  0  1  0  0  0  0  0  0
  -25.4280  -36.3410   23.8990 C   0  0  0  0  0  3  0  0  0  0  0  0
  -27.5740  -37.2260   24.6960 C   0  0  0  0  0  1  0  0  0  0  0  0
  -26.4560  -37.3990   23.7750 N   0  0  0  0  0  0  0  0  0  0  0  0
  -26.0490  -38.3160   23.9410 H   0  0  0  0  0  0  0  0  0  0  0  0
  1  2  2  0
  3  1  1  0
  3  4  2  0
  5  4  1  0
  5  6  1  0
  7 16  1  0
  7  6  2  0
  8 16  1  0
  9 14  1  0
 10 11  1  0
 10  9  1  0
 12 11  1  0
 12 21  1  0
 12 13  1  0
 14  8  1  0
 14 13  1  0
 15  8  2  0
 16 17  1  0
 18 19  2  0
 19 38  1  0
 20 19  1  0
 20 23  1  0
 21 18  1  0
 21 22  1  0
 22 20  2  0
 23 24  1  0
 24 25  2  0
 26 29  1  0
 26 25  1  0
 27 26  2  0
 28 27  1  0
 28 23  2  0
 29 30  1  0
 30 31  1  0
 31 32  2  0
 33 32  1  0
 33 37  1  0
 34 33  2  0
 35 30  2  0
 35 34  1  0
 36 35  1  0
 38 39  1  0
 39 42  1  0
 39 41  1  0
 40 38  2  0
 43 44  1  0
 43 18  1  0
 45 43  1  0
 46 47  1  0
 46  1  1  0
 48 59  2  0
 49 47  1  0
 49 54  1  0
 50 58  1  0
 50 60  1  0
 51 57  1  0
 51 53  1  0
 52 58  1  0
 53 52  1  0
 54 53  2  0
 55 56  1  0
 55 49  2  0
 56 51  2  0
 57 50  1  0
 58 48  1  0
 60 62  2  0
 61 60  1  0
 63 61  1  0
 64 73  2  0
 64 69  1  0
 65 61  1  0
 65 69  1  0
 66 65  1  0
 67 68  1  0
 67 66  1  0
 68 64  1  0
 69 70  2  0
 70 71  1  0
 72 71  2  0
 73 72  1  0
 74 48  1  0
 74 79  1  0
 74 75  1  0
 75 78  1  1
 75 76  1  0
 77 75  1  0
 79 82  1  0
 80 84  1  0
 80 79  1  0
 81 80  2  0
 84 83  1  0
 86 84  1  0
 86 87  1  0
 86 85  1  0
M  ISO  4   8 100  16 100  46 101  47 101
M  END
>  <TORSDO>  (31) 
F 22

>  <SCORE>  (31) 
-12.872

>  <name>  (31) 
31

>  <ligand_id>  (31) 
31

>  <original_smiles>  (31) 
[H]c1c([H])c([H])c2c(c1[H])C([H])([H])C([H])([H])C([H])([H])C2([H])N([H])C(=O)C1([H])N(C(=O)C([H])(N([H])C(=O)C([H])(N([H])C([H])([H])[H])C([H])([H])[H])C(C([H])([H])[H])(C([H])([H])[H])C([H])([H])[H])C([H])([H])c2c([H])c(OC([H])([H])C(=O)C([H])([H])C([H])([H])C([H])([H])C([H])([H])C([H])([H])N([H])C(=O)N3C([H])([H])C([H])([H])C([H])([H])C([H])(n4nc(-c5c([H])c([H])c(Oc6c([H])c([H])c(F)c([H])c6F)c([H])c5[H])c(C(=O)N([H])[H])c4N([H])[H])C3([H])[H])c([H])c([H])c2C1([H])[H]

>  <smiles>  (31) 
[H]c1c([H])c([H])c2c(c1[H])C([H])([H])C([H])([H])C([H])([H])C2([H])N([H])C(=O)C1([H])N(C(=O)C([H])(N([H])C(=O)C([H])(N([H])C([H])([H])[H])C([H])([H])[H])C(C([H])([H])[H])(C([H])([H])[H])C([H])([H])[H])C([H])([H])c2c([H])c(OC([H])([H])C(=O)C([H])([H])C([H])([H])C([H])([H])C([H])([H])C([H])([H])N([H])C(=O)N3C([H])([H])C([H])([H])C([H])([H])C([H])(n4nc(-c5c([H])c([H])c(Oc6c([H])c([H])c(F)c([H])c6F)c([H])c5[H])c(C(=O)N([H])[H])c4N([H])[H])C3([H])[H])c([H])c([H])c2C1([H])[H]

$$$$
32:0:0
     RDKit          3D

 94102  0  0  1  0  0  0  0  0999 V2000
  -28.5140  -21.4450   19.8450 C   0  0  0  0  0  0  0  0  0  0  0  0
  -29.1760  -21.7740   18.8560 O   0  0  0  0  0  0  0  0  0  0  0  0
  -28.2320  -19.1170   18.7620 C   0  0  0  0  0  2  0  0  0  0  0  0
  -28.5140  -19.2740   21.2380 C   0  0  0  0  0  2  0  0  0  0  0  0
  -29.7190  -18.7100   18.6290 C   0  0  0  0  0  2  0  0  0  0  0  0
  -29.9990  -18.8970   21.0820 C   0  0  0  0  0  2  0  0  0  0  0  0
  -27.9650  -20.0100   19.9960 C   0  0  0  0  0  3  0  0  0  0  0  0
  -30.2410  -18.0720   19.8670 N   0  0  2  0  0  4  0  0  0  0  0  0
  -29.7290  -17.2110   19.9830 H   0  0  0  0  0  0  0  0  0  0  0  0
  -31.6660  -17.6690   19.7430 C   0  0  0  0  0  2  0  0  0  0  0  0
  -32.0440  -16.5670   20.7570 C   0  0  0  0  0  2  0  0  0  0  0  0
  -31.6400  -14.3420   19.7360 C   0  0  0  0  0  0  0  0  0  0  0  0
  -31.1750  -12.0520   18.9570 C   0  0  0  0  0  2  0  0  0  0  0  0
  -30.1950  -12.0490   17.7680 C   0  0  0  0  0  2  0  0  0  0  0  0
  -28.7380  -12.0460   18.2640 C   0  0  0  0  0  2  0  0  0  0  0  0
  -28.4750  -13.1380   19.3340 C   0  0  0  0  0  3  0  0  0  0  0  0
  -29.5560  -13.1050   20.4370 C   0  0  0  0  0  2  0  0  0  0  0  0
  -30.8810  -13.2210   19.7980 N   0  0  0  0  0  0  0  0  0  0  0  0
  -32.6260  -14.4590   19.0020 O   0  0  0  0  0  0  0  0  0  0  0  0
  -31.2800  -15.3320   20.5640 N   0  0  0  0  0  0  0  0  0  0  0  0
  -30.5070  -15.1450   21.1880 H   0  0  0  0  0  0  0  0  0  0  0  0
  -26.2120  -14.0090   20.2000 C   0  0  0  0  0  0  0  0  0  0  0  0
  -25.0870  -13.3600   20.6320 C   0  0  0  0  0  0  0  0  0  0  0  0
  -25.3850  -11.9640   20.5530 C   0  0  0  0  0  0  0  0  0  0  0  0
  -27.1300  -13.0180   19.8920 N   0  0  0  0  0  0  0  0  0  0  0  0
  -26.6370  -11.7810   20.1580 N   0  0  0  0  0  0  0  0  0  0  0  0
  -24.5290  -10.7910   20.7750 C   0  0  0  0  0  0  0  0  0  0  0  0
  -24.8620   -9.8050   21.7320 C   0  0  0  0  0  3  0  0  0  0  0  0
  -24.0150   -8.6960   21.9400 C   0  0  0  0  0  3  0  0  0  0  0  0
  -22.8220   -8.5630   21.1910 C   0  0  0  0  0  0  0  0  0  0  0  0
  -22.5080   -9.5340   20.2240 C   0  0  0  0  0  3  0  0  0  0  0  0
  -23.3530  -10.6370   20.0160 C   0  0  0  0  0  3  0  0  0  0  0  0
  -21.9520   -7.5060   21.3080 O   0  0  0  0  0  0  0  0  0  0  0  0
  -21.8020   -6.8240   22.4890 C   0  0  0  0  0  0  0  0  0  0  0  0
  -21.3730   -7.4660   23.6710 C   0  0  0  0  0  3  0  0  0  0  0  0
  -21.1650   -6.7160   24.8440 C   0  0  0  0  0  3  0  0  0  0  0  0
  -21.3750   -5.3240   24.8370 C   0  0  0  0  0  0  0  0  0  0  0  0
  -21.7990   -4.6820   23.6600 C   0  0  0  0  0  3  0  0  0  0  0  0
  -22.0080   -5.4300   22.4890 C   0  0  0  0  0  0  0  0  0  0  0  0
  -22.3950   -4.8030   21.3510 F   0  0  0  0  0  0  0  0  0  0  0  0
  -21.1670   -4.6000   25.9630 F   0  0  0  0  0  0  0  0  0  0  0  0
  -23.7760  -13.9890   21.0030 C   0  0  0  0  0  0  0  0  0  0  0  0
  -23.0390  -13.3720   21.9200 N   0  0  0  0  0  0  0  0  0  0  0  0
  -23.4210  -15.0620   20.5160 O   0  0  0  0  0  0  0  0  0  0  0  0
  -23.3440  -12.5020   22.3320 H   0  0  0  0  0  0  0  0  0  0  0  0
  -22.1600  -13.7730   22.2120 H   0  0  0  0  0  0  0  0  0  0  0  0
  -26.5230  -15.3540   20.0240 N   0  0  0  0  0  0  0  0  0  0  0  0
  -25.8330  -16.0840   20.1610 H   0  0  0  0  0  0  0  0  0  0  0  0
  -27.3700  -15.6860   19.5820 H   0  0  0  0  0  0  0  0  0  0  0  0
  -28.2030  -22.4540   20.9560 C   0  0  0  0  0  2  0  0  0  0  0  0
  -28.7880  -23.8540   20.6840 C   0  0  0  0  0  2  0  0  0  0  0  0
  -28.4880  -24.8670   21.8010 C   0  0  0  0  0  2  0  0  0  0  0  0
  -29.1360  -26.2360   21.5320 C   0  0  0  0  0  2  0  0  0  0  0  0
  -28.7010  -26.7400   20.2720 O   0  0  0  0  0  0  0  0  0  0  0  0
  -24.6910  -31.7000   23.4300 C   0  0  0  0  0  0  0  0  0  0  0  0
  -27.5250  -27.4440   20.3020 C   0  0  0  0  0  0  0  0  0  0  0  0
  -23.5640  -30.3290   21.7040 C   0  0  0  0  0  3  0  0  0  0  0  0
  -25.0930  -28.8660   20.2810 C   0  0  0  0  0  0  0  0  0  0  0  0
  -26.0800  -30.7530   21.5950 C   0  0  0  0  0  2  0  0  0  0  0  0
  -26.2130  -29.4040   20.9250 C   0  0  0  0  0  0  0  0  0  0  0  0
  -27.4330  -28.6990   20.9400 C   0  0  0  0  0  3  0  0  0  0  0  0
  -26.3970  -26.9110   19.6490 C   0  0  0  0  0  3  0  0  0  0  0  0
  -25.1760  -27.6140   19.6430 C   0  0  0  0  0  3  0  0  0  0  0  0
  -23.8270  -29.6920   20.3130 C   0  0  0  0  0  2  0  0  0  0  0  0
  -24.7930  -30.9400   22.3040 N   0  0  0  0  0  0  0  0  0  0  0  0
  -23.5880  -31.9360   23.9420 O   0  0  0  0  0  0  0  0  0  0  0  0
  -22.9020  -29.2670   22.6100 C   0  0  0  0  0  0  0  0  0  0  0  0
  -21.6000  -29.0230   22.3890 N   0  0  0  0  0  0  0  0  0  0  0  0
  -23.5590  -28.6660   23.4640 O   0  0  0  0  0  0  0  0  0  0  0  0
  -21.1330  -29.5600   21.6720 H   0  0  0  0  0  0  0  0  0  0  0  0
  -18.2680  -27.6520   22.6250 C   0  0  0  0  0  0  0  0  0  0  0  0
  -20.7790  -28.0400   23.0950 C   0  0  0  0  0  3  0  0  0  0  0  0
  -21.0030  -26.6210   22.5250 C   0  0  0  0  0  2  0  0  0  0  0  0
  -19.9990  -26.2460   21.4280 C   0  0  0  0  0  2  0  0  0  0  0  0
  -18.5670  -26.3170   21.9640 C   0  0  0  0  0  2  0  0  0  0  0  0
  -19.3090  -28.4680   23.1420 C   0  0  0  0  0  0  0  0  0  0  0  0
  -18.9790  -29.7160   23.7160 C   0  0  0  0  0  3  0  0  0  0  0  0
  -17.6410  -30.1480   23.7810 C   0  0  0  0  0  3  0  0  0  0  0  0
  -16.6140  -29.3280   23.2820 C   0  0  0  0  0  3  0  0  0  0  0  0
  -16.9290  -28.0830   22.7110 C   0  0  0  0  0  3  0  0  0  0  0  0
  -25.9450  -32.3310   24.1100 C   0  0  0  0  0  3  0  0  0  0  0  0
  -25.6470  -33.7460   24.3610 N   0  0  0  0  0  0  0  0  0  0  0  0
  -26.0790  -34.7600   23.5980 C   0  0  0  0  0  0  0  0  0  0  0  0
  -26.8390  -34.6020   22.6390 O   0  0  0  0  0  0  0  0  0  0  0  0
  -24.9810  -33.9470   25.0920 H   0  0  0  0  0  0  0  0  0  0  0  0
  -24.4500  -36.5860   23.0090 C   0  0  0  0  0  1  0  0  0  0  0  0
  -25.5880  -36.1750   23.9570 C   0  0  0  0  0  3  0  0  0  0  0  0
  -27.6410  -37.0370   24.9900 C   0  0  0  0  0  1  0  0  0  0  0  0
  -26.6560  -37.1960   23.9240 N   0  0  0  0  0  0  0  0  0  0  0  0
  -26.2640  -38.1310   23.9950 H   0  0  0  0  0  0  0  0  0  0  0  0
  -26.3640  -31.6000   25.4450 C   0  0  1  0  0  0  0  0  0  0  0  0
  -25.1970  -31.4080   26.4400 C   0  0  0  0  0  1  0  0  0  0  0  0
  -26.9560  -30.2040   25.1400 C   0  0  0  0  0  1  0  0  0  0  0  0
  -27.4770  -32.4050   26.1570 C   0  0  0  0  0  1  0  0  0  0  0  0
  1 50  1  0
  2  1  2  0
  3  7  1  0
  5  3  1  0
  5  8  1  0
  6  4  1  0
  7  1  1  0
  7  4  1  0
  8  9  1  1
  8  6  1  0
 10  8  1  0
 10 11  1  0
 12 18  1  0
 12 20  1  0
 13 18  1  0
 14 15  1  0
 14 13  1  0
 16 15  1  0
 16 25  1  0
 16 17  1  0
 18 17  1  0
 19 12  2  0
 20 11  1  0
 20 21  1  0
 22 23  2  0
 23 42  1  0
 24 23  1  0
 24 27  1  0
 25 26  1  0
 25 22  1  0
 26 24  2  0
 27 28  1  0
 28 29  2  0
 30 33  1  0
 30 29  1  0
 31 30  2  0
 32 31  1  0
 32 27  2  0
 33 34  1  0
 34 35  1  0
 35 36  2  0
 37 36  1  0
 37 41  1  0
 38 37  2  0
 39 34  2  0
 39 38  1  0
 40 39  1  0
 42 43  1  0
 43 46  1  0
 43 45  1  0
 44 42  2  0
 47 48  1  0
 47 22  1  0
 49 47  1  0
 51 50  1  0
 51 52  1  0
 53 52  1  0
 54 56  1  0
 54 53  1  0
 55 66  2  0
 56 61  1  0
 57 65  1  0
 57 67  1  0
 58 64  1  0
 58 60  1  0
 59 65  1  0
 60 61  2  0
 60 59  1  0
 62 56  2  0
 63 62  1  0
 63 58  2  0
 64 57  1  0
 65 55  1  0
 67 69  2  0
 68 67  1  0
 70 68  1  0
 71 80  2  0
 71 76  1  0
 72 68  1  0
 72 76  1  0
 73 72  1  0
 74 75  1  0
 74 73  1  0
 75 71  1  0
 76 77  2  0
 77 78  1  0
 79 78  2  0
 80 79  1  0
 81 55  1  0
 81 82  1  0
 81 91  1  0
 82 85  1  0
 83 87  1  0
 83 82  1  0
 84 83  2  0
 87 86  1  0
 89 87  1  0
 89 90  1  0
 89 88  1  0
 91 94  1  1
 91 92  1  0
 93 91  1  0
M  ISO  4  12 100  20 100  53 101  54 101
M  END
>  <TORSDO>  (32) 
F 23

>  <SCORE>  (32) 
-11.127

>  <name>  (32) 
32

>  <ligand_id>  (32) 
32

>  <original_smiles>  (32) 
[H]c1c([H])c([H])c2c(c1[H])C([H])([H])C([H])([H])C([H])([H])C2([H])N([H])C(=O)C1([H])N(C(=O)C([H])(N([H])C(=O)C([H])(N([H])C([H])([H])[H])C([H])([H])[H])C(C([H])([H])[H])(C([H])([H])[H])C([H])([H])[H])C([H])([H])c2c([H])c(OC([H])([H])C([H])([H])C([H])([H])C([H])([H])C(=O)C3([H])C([H])([H])C([H])([H])[N+]([H])(C([H])([H])C([H])([H])N([H])C(=O)N4C([H])([H])C([H])([H])C([H])([H])C([H])(n5nc(-c6c([H])c([H])c(Oc7c([H])c([H])c(F)c([H])c7F)c([H])c6[H])c(C(=O)N([H])[H])c5N([H])[H])C4([H])[H])C([H])([H])C3([H])[H])c([H])c([H])c2C1([H])[H]

>  <smiles>  (32) 
[H]c1c([H])c([H])c2c(c1[H])C([H])([H])C([H])([H])C([H])([H])C2([H])N([H])C(=O)C1([H])N(C(=O)C([H])(N([H])C(=O)C([H])(N([H])C([H])([H])[H])C([H])([H])[H])C(C([H])([H])[H])(C([H])([H])[H])C([H])([H])[H])C([H])([H])c2c([H])c(OC([H])([H])C([H])([H])C([H])([H])C([H])([H])C(=O)C3([H])C([H])([H])C([H])([H])[N+]([H])(C([H])([H])C([H])([H])N([H])C(=O)N4C([H])([H])C([H])([H])C([H])([H])C([H])(n5nc(-c6c([H])c([H])c(Oc7c([H])c([H])c(F)c([H])c7F)c([H])c6[H])c(C(=O)N([H])[H])c5N([H])[H])C4([H])[H])C([H])([H])C3([H])[H])c([H])c([H])c2C1([H])[H]

$$$$
33:0:0
     RDKit          3D

 93101  0  0  1  0  0  0  0  0999 V2000
  -29.6340  -19.4180   20.9880 C   0  0  0  0  0  0  0  0  0  0  0  0
  -32.1340  -19.8800   21.2700 C   0  0  0  0  0  2  0  0  0  0  0  0
  -32.2380  -18.4900   21.9040 C   0  0  0  0  0  2  0  0  0  0  0  0
  -30.7080  -20.4450   21.4240 C   0  0  0  0  0  3  0  0  0  0  0  0
  -31.2660  -17.5190   21.2110 C   0  0  0  0  0  3  0  0  0  0  0  0
  -29.9400  -18.1100   21.0030 N   0  0  0  0  0  0  0  0  0  0  0  0
  -28.5060  -19.7880   20.6640 O   0  0  0  0  0  0  0  0  0  0  0  0
  -29.2020  -17.4660   20.7600 H   0  0  0  0  0  0  0  0  0  0  0  0
  -30.5770  -21.8220   20.7240 C   0  0  0  0  0  2  0  0  0  0  0  0
  -29.6410  -22.8110   21.4440 C   0  0  0  0  0  2  0  0  0  0  0  0
  -29.6440  -24.2070   20.7960 C   0  0  0  0  0  2  0  0  0  0  0  0
  -29.0180  -25.2870   21.6960 C   0  0  0  0  0  2  0  0  0  0  0  0
  -29.2280  -26.7130   21.1610 C   0  0  0  0  0  2  0  0  0  0  0  0
  -28.4420  -26.8870   19.9870 O   0  0  0  0  0  0  0  0  0  0  0  0
  -24.6040  -31.9770   23.2340 C   0  0  0  0  0  0  0  0  0  0  0  0
  -27.2770  -27.6070   20.1040 C   0  0  0  0  0  0  0  0  0  0  0  0
  -23.3870  -30.5550   21.6130 C   0  0  0  0  0  3  0  0  0  0  0  0
  -24.8430  -29.0370   20.1680 C   0  0  0  0  0  0  0  0  0  0  0  0
  -25.8980  -30.9620   21.3670 C   0  0  0  0  0  2  0  0  0  0  0  0
  -25.9960  -29.5910   20.7360 C   0  0  0  0  0  0  0  0  0  0  0  0
  -27.2170  -28.8830   20.7100 C   0  0  0  0  0  3  0  0  0  0  0  0
  -26.1120  -27.0630   19.5300 C   0  0  0  0  0  3  0  0  0  0  0  0
  -24.8910  -27.7670   19.5660 C   0  0  0  0  0  3  0  0  0  0  0  0
  -23.5830  -29.8740   20.2320 C   0  0  0  0  0  2  0  0  0  0  0  0
  -24.6480  -31.1800   22.1290 N   0  0  0  0  0  0  0  0  0  0  0  0
  -23.5280  -32.2330   23.7940 O   0  0  0  0  0  0  0  0  0  0  0  0
  -22.7710  -29.5240   22.5830 C   0  0  0  0  0  0  0  0  0  0  0  0
  -21.4530  -29.3000   22.4600 N   0  0  0  0  0  0  0  0  0  0  0  0
  -23.4770  -28.9250   23.4010 O   0  0  0  0  0  0  0  0  0  0  0  0
  -20.9440  -29.8400   21.7730 H   0  0  0  0  0  0  0  0  0  0  0  0
  -18.1160  -28.0060   22.9590 C   0  0  0  0  0  0  0  0  0  0  0  0
  -20.6640  -28.3460   23.2370 C   0  0  0  0  0  3  0  0  0  0  0  0
  -20.8130  -26.9130   22.6770 C   0  0  0  0  0  2  0  0  0  0  0  0
  -19.7250  -26.5460   21.6620 C   0  0  0  0  0  2  0  0  0  0  0  0
  -18.3380  -26.6550   22.2990 C   0  0  0  0  0  2  0  0  0  0  0  0
  -19.2100  -28.8070   23.3850 C   0  0  0  0  0  0  0  0  0  0  0  0
  -18.9520  -30.0720   23.9570 C   0  0  0  0  0  3  0  0  0  0  0  0
  -17.6330  -30.5390   24.1070 C   0  0  0  0  0  3  0  0  0  0  0  0
  -16.5540  -29.7350   23.7010 C   0  0  0  0  0  3  0  0  0  0  0  0
  -16.7960  -28.4710   23.1320 C   0  0  0  0  0  3  0  0  0  0  0  0
  -25.8920  -32.6240   23.8320 C   0  0  0  0  0  3  0  0  0  0  0  0
  -25.5700  -34.0170   24.1660 N   0  0  0  0  0  0  0  0  0  0  0  0
  -25.8940  -35.0740   23.4100 C   0  0  0  0  0  0  0  0  0  0  0  0
  -26.5670  -34.9810   22.3800 O   0  0  0  0  0  0  0  0  0  0  0  0
  -24.9780  -34.1620   24.9720 H   0  0  0  0  0  0  0  0  0  0  0  0
  -24.1630  -36.8580   23.0420 C   0  0  0  0  0  1  0  0  0  0  0  0
  -25.3930  -36.4550   23.8710 C   0  0  0  0  0  3  0  0  0  0  0  0
  -27.5080  -37.3450   24.7470 C   0  0  0  0  0  1  0  0  0  0  0  0
  -26.4210  -37.5140   23.7850 N   0  0  0  0  0  0  0  0  0  0  0  0
  -26.0070  -38.4310   23.9330 H   0  0  0  0  0  0  0  0  0  0  0  0
  -26.4470  -31.8550   25.0930 C   0  0  1  0  0  0  0  0  0  0  0  0
  -25.3750  -31.5780   26.1740 C   0  0  0  0  0  1  0  0  0  0  0  0
  -27.0600  -30.4990   24.6730 C   0  0  0  0  0  1  0  0  0  0  0  0
  -27.5840  -32.6750   25.7490 C   0  0  0  0  0  1  0  0  0  0  0  0
  -31.1540  -16.1900   21.9870 C   0  0  0  0  0  2  0  0  0  0  0  0
  -30.6670  -14.4890   20.2260 C   0  0  0  0  0  0  0  0  0  0  0  0
  -30.2280  -12.4570   18.8930 C   0  0  0  0  0  2  0  0  0  0  0  0
  -29.2050  -12.6980   17.7670 C   0  0  0  0  0  2  0  0  0  0  0  0
  -27.7680  -12.5220   18.2890 C   0  0  0  0  0  2  0  0  0  0  0  0
  -27.5080  -13.3210   19.5920 C   0  0  0  0  0  3  0  0  0  0  0  0
  -28.6250  -13.0600   20.6260 C   0  0  0  0  0  2  0  0  0  0  0  0
  -29.9230  -13.3760   20.0000 N   0  0  0  0  0  0  0  0  0  0  0  0
  -31.6380  -14.8090   19.5340 O   0  0  0  0  0  0  0  0  0  0  0  0
  -30.3290  -15.1810   21.3220 N   0  0  0  0  0  0  0  0  0  0  0  0
  -29.5210  -14.8450   21.8260 H   0  0  0  0  0  0  0  0  0  0  0  0
  -25.1520  -13.8950   20.4570 C   0  0  0  0  0  0  0  0  0  0  0  0
  -24.1140  -13.1030   20.8750 C   0  0  0  0  0  0  0  0  0  0  0  0
  -24.5830  -11.7580   20.7850 C   0  0  0  0  0  0  0  0  0  0  0  0
  -26.1880  -13.0280   20.1450 N   0  0  0  0  0  0  0  0  0  0  0  0
  -25.8510  -11.7350   20.3960 N   0  0  0  0  0  0  0  0  0  0  0  0
  -23.8810  -10.4840   20.9920 C   0  0  0  0  0  0  0  0  0  0  0  0
  -24.3360   -9.5350   21.9310 C   0  0  0  0  0  3  0  0  0  0  0  0
  -23.6350   -8.3250   22.1240 C   0  0  0  0  0  3  0  0  0  0  0  0
  -22.4630   -8.0580   21.3760 C   0  0  0  0  0  0  0  0  0  0  0  0
  -22.0270   -8.9970   20.4250 C   0  0  0  0  0  3  0  0  0  0  0  0
  -22.7300  -10.1980   20.2320 C   0  0  0  0  0  3  0  0  0  0  0  0
  -21.7300   -6.9000   21.4790 O   0  0  0  0  0  0  0  0  0  0  0  0
  -21.6560   -6.1960   22.6530 C   0  0  0  0  0  0  0  0  0  0  0  0
  -21.1480   -6.7740   23.8380 C   0  0  0  0  0  3  0  0  0  0  0  0
  -21.0260   -5.9940   25.0050 C   0  0  0  0  0  3  0  0  0  0  0  0
  -21.3980   -4.6370   24.9890 C   0  0  0  0  0  0  0  0  0  0  0  0
  -21.9000   -4.0590   23.8090 C   0  0  0  0  0  3  0  0  0  0  0  0
  -22.0250   -4.8360   22.6450 C   0  0  0  0  0  0  0  0  0  0  0  0
  -22.4890   -4.2670   21.5050 F   0  0  0  0  0  0  0  0  0  0  0  0
  -21.2740   -3.8860   26.1070 F   0  0  0  0  0  0  0  0  0  0  0  0
  -22.7330  -13.5610   21.2430 C   0  0  0  0  0  0  0  0  0  0  0  0
  -22.0600  -12.8300   22.1250 N   0  0  0  0  0  0  0  0  0  0  0  0
  -22.2570  -14.6000   20.7850 O   0  0  0  0  0  0  0  0  0  0  0  0
  -22.4560  -11.9880   22.5160 H   0  0  0  0  0  0  0  0  0  0  0  0
  -21.1340  -13.1150   22.4130 H   0  0  0  0  0  0  0  0  0  0  0  0
  -25.2970  -15.2710   20.3010 N   0  0  0  0  0  0  0  0  0  0  0  0
  -24.5390  -15.9230   20.4750 H   0  0  0  0  0  0  0  0  0  0  0  0
  -26.1300  -15.7180   19.9360 H   0  0  0  0  0  0  0  0  0  0  0  0
  1  6  1  0
  1  4  1  0
  2  4  1  0
  2  3  1  0
  4  9  1  0
  5  3  1  0
  5 55  1  0
  6  5  1  0
  7  1  2  0
  8  6  1  0
  9 10  1  0
 11 10  1  0
 11 12  1  0
 13 12  1  0
 14 16  1  0
 14 13  1  0
 15 26  2  0
 16 21  1  0
 17 25  1  0
 17 27  1  0
 18 24  1  0
 18 20  1  0
 19 25  1  0
 20 19  1  0
 21 20  2  0
 22 23  1  0
 22 16  2  0
 23 18  2  0
 24 17  1  0
 25 15  1  0
 27 29  2  0
 28 27  1  0
 30 28  1  0
 31 40  2  0
 31 36  1  0
 32 28  1  0
 32 36  1  0
 33 32  1  0
 34 35  1  0
 34 33  1  0
 35 31  1  0
 36 37  2  0
 37 38  1  0
 39 38  2  0
 40 39  1  0
 41 15  1  0
 41 42  1  0
 41 51  1  0
 42 45  1  0
 43 47  1  0
 43 42  1  0
 44 43  2  0
 47 46  1  0
 49 47  1  0
 49 50  1  0
 49 48  1  0
 51 54  1  1
 51 52  1  0
 53 51  1  0
 56 64  1  0
 57 62  1  0
 58 59  1  0
 58 57  1  0
 60 59  1  0
 60 69  1  0
 60 61  1  0
 62 56  1  0
 62 61  1  0
 63 56  2  0
 64 65  1  0
 64 55  1  0
 66 67  2  0
 67 86  1  0
 68 67  1  0
 68 71  1  0
 69 70  1  0
 69 66  1  0
 70 68  2  0
 71 72  1  0
 72 73  2  0
 74 77  1  0
 74 73  1  0
 75 74  2  0
 76 75  1  0
 76 71  2  0
 77 78  1  0
 78 79  1  0
 79 80  2  0
 81 80  1  0
 81 85  1  0
 82 81  2  0
 83 78  2  0
 83 82  1  0
 84 83  1  0
 86 87  1  0
 87 90  1  0
 87 89  1  0
 88 86  2  0
 91 66  1  0
 91 92  1  0
 93 91  1  0
M  ISO  4  13 101  14 101  56 100  64 100
M  END
>  <TORSDO>  (33) 
F 22

>  <SCORE>  (33) 
-12.944

>  <name>  (33) 
33

>  <ligand_id>  (33) 
33

>  <original_smiles>  (33) 
[H]c1c([H])c([H])c2c(c1[H])C([H])([H])C([H])([H])C([H])([H])C2([H])N([H])C(=O)C1([H])N(C(=O)C([H])(N([H])C(=O)C([H])(N([H])C([H])([H])[H])C([H])([H])[H])C(C([H])([H])[H])(C([H])([H])[H])C([H])([H])[H])C([H])([H])c2c([H])c(OC([H])([H])C([H])([H])C([H])([H])C([H])([H])C([H])([H])C3([H])C(=O)N([H])C([H])(C([H])([H])N([H])C(=O)N4C([H])([H])C([H])([H])C([H])([H])C([H])(n5nc(-c6c([H])c([H])c(Oc7c([H])c([H])c(F)c([H])c7F)c([H])c6[H])c(C(=O)N([H])[H])c5N([H])[H])C4([H])[H])C([H])([H])C3([H])[H])c([H])c([H])c2C1([H])[H]

>  <smiles>  (33) 
[H]c1c([H])c([H])c2c(c1[H])C([H])([H])C([H])([H])C([H])([H])C2([H])N([H])C(=O)C1([H])N(C(=O)C([H])(N([H])C(=O)C([H])(N([H])C([H])([H])[H])C([H])([H])[H])C(C([H])([H])[H])(C([H])([H])[H])C([H])([H])[H])C([H])([H])c2c([H])c(OC([H])([H])C([H])([H])C([H])([H])C([H])([H])C([H])([H])C3([H])C(=O)N([H])C([H])(C([H])([H])N([H])C(=O)N4C([H])([H])C([H])([H])C([H])([H])C([H])(n5nc(-c6c([H])c([H])c(Oc7c([H])c([H])c(F)c([H])c7F)c([H])c6[H])c(C(=O)N([H])[H])c5N([H])[H])C4([H])[H])C([H])([H])C3([H])[H])c([H])c([H])c2C1([H])[H]

$$$$
34:0:0
     RDKit          3D

 93101  0  0  1  0  0  0  0  0999 V2000
  -28.9450  -22.6540   20.9350 C   0  0  0  0  0  0  0  0  0  0  0  0
  -28.4060  -22.4930   22.0340 O   0  0  0  0  0  0  0  0  0  0  0  0
  -29.3040  -21.3890   20.0870 C   0  0  0  0  0  2  0  0  0  0  0  0
  -29.6390  -20.2340   20.9930 N   0  0  0  0  0  4  0  0  0  0  0  0
  -30.6000  -20.3310   21.2800 H   0  0  0  0  0  0  0  0  0  0  0  0
  -29.0800  -20.4180   21.8140 H   0  0  0  0  0  0  0  0  0  0  0  0
  -30.7820  -14.6690   20.0280 C   0  0  0  0  0  0  0  0  0  0  0  0
  -30.4750  -12.4630   18.9360 C   0  0  0  0  0  2  0  0  0  0  0  0
  -29.4690  -12.6150   17.7760 C   0  0  0  0  0  2  0  0  0  0  0  0
  -28.0220  -12.4480   18.2830 C   0  0  0  0  0  2  0  0  0  0  0  0
  -27.7330  -13.2830   19.5610 C   0  0  0  0  0  3  0  0  0  0  0  0
  -28.8550  -13.1120   20.6080 C   0  0  0  0  0  2  0  0  0  0  0  0
  -30.1210  -13.4690   19.9560 N   0  0  0  0  0  0  0  0  0  0  0  0
  -31.9320  -14.7710   19.5900 O   0  0  0  0  0  0  0  0  0  0  0  0
  -29.6050  -17.7870   21.7090 C   0  0  0  0  0  2  0  0  0  0  0  0
  -30.2630  -18.2920   19.4000 C   0  0  0  0  0  2  0  0  0  0  0  0
  -29.3290  -16.2890   21.3430 C   0  0  0  0  0  2  0  0  0  0  0  0
  -29.9620  -16.8050   19.0140 C   0  0  0  0  0  2  0  0  0  0  0  0
  -29.3750  -18.8080   20.5570 C   0  0  0  0  0  3  0  0  0  0  0  0
  -30.0110  -15.8100   20.1190 N   0  0  0  0  0  0  0  0  0  0  0  0
  -25.3860  -13.8520   20.4320 C   0  0  0  0  0  0  0  0  0  0  0  0
  -24.3430  -13.0650   20.8430 C   0  0  0  0  0  0  0  0  0  0  0  0
  -24.8060  -11.7170   20.7490 C   0  0  0  0  0  0  0  0  0  0  0  0
  -26.4170  -12.9820   20.1160 N   0  0  0  0  0  0  0  0  0  0  0  0
  -26.0770  -11.6910   20.3660 N   0  0  0  0  0  0  0  0  0  0  0  0
  -24.0940  -10.4480   20.9450 C   0  0  0  0  0  0  0  0  0  0  0  0
  -24.5430   -9.4870   21.8770 C   0  0  0  0  0  3  0  0  0  0  0  0
  -23.8310   -8.2820   22.0630 C   0  0  0  0  0  3  0  0  0  0  0  0
  -22.6560   -8.0300   21.3160 C   0  0  0  0  0  0  0  0  0  0  0  0
  -22.2250   -8.9810   20.3730 C   0  0  0  0  0  3  0  0  0  0  0  0
  -22.9380  -10.1760   20.1850 C   0  0  0  0  0  3  0  0  0  0  0  0
  -21.9130   -6.8760   21.4110 O   0  0  0  0  0  0  0  0  0  0  0  0
  -21.8300   -6.1700   22.5840 C   0  0  0  0  0  0  0  0  0  0  0  0
  -21.3540   -6.7570   23.7770 C   0  0  0  0  0  3  0  0  0  0  0  0
  -21.2190   -5.9740   24.9420 C   0  0  0  0  0  3  0  0  0  0  0  0
  -21.5500   -4.6050   24.9120 C   0  0  0  0  0  0  0  0  0  0  0  0
  -22.0190   -4.0180   23.7240 C   0  0  0  0  0  3  0  0  0  0  0  0
  -22.1550   -4.7980   22.5620 C   0  0  0  0  0  0  0  0  0  0  0  0
  -22.5860   -4.2230   21.4130 F   0  0  0  0  0  0  0  0  0  0  0  0
  -21.4140   -3.8510   26.0270 F   0  0  0  0  0  0  0  0  0  0  0  0
  -22.9630  -13.5300   21.2050 C   0  0  0  0  0  0  0  0  0  0  0  0
  -22.2900  -12.8160   22.1000 N   0  0  0  0  0  0  0  0  0  0  0  0
  -22.4910  -14.5620   20.7300 O   0  0  0  0  0  0  0  0  0  0  0  0
  -22.6840  -11.9810   22.5080 H   0  0  0  0  0  0  0  0  0  0  0  0
  -21.3640  -13.1100   22.3820 H   0  0  0  0  0  0  0  0  0  0  0  0
  -25.5340  -15.2270   20.2780 N   0  0  0  0  0  0  0  0  0  0  0  0
  -24.7730  -15.8740   20.4470 H   0  0  0  0  0  0  0  0  0  0  0  0
  -26.3570  -15.6760   19.8970 H   0  0  0  0  0  0  0  0  0  0  0  0
  -29.2870  -24.1090   20.4320 C   0  0  0  0  0  3  0  0  0  0  0  0
  -31.8810  -23.8870   20.5180 C   0  0  0  0  0  1  0  0  0  0  0  0
  -30.6200  -24.5790   21.0620 C   0  0  0  0  0  2  0  0  0  0  0  0
  -28.1670  -25.1880   20.7270 C   0  0  0  0  0  2  0  0  0  0  0  0
  -28.3970  -26.5600   20.2420 O   0  0  0  0  0  0  0  0  0  0  0  0
  -24.6350  -31.8880   23.2390 C   0  0  0  0  0  0  0  0  0  0  0  0
  -27.2730  -27.3830   20.1960 C   0  0  0  0  0  0  0  0  0  0  0  0
  -23.4340  -30.4770   21.6070 C   0  0  0  0  0  3  0  0  0  0  0  0
  -24.8930  -28.9440   20.1770 C   0  0  0  0  0  0  0  0  0  0  0  0
  -25.9650  -30.8330   21.4050 C   0  0  0  0  0  2  0  0  0  0  0  0
  -26.0570  -29.4570   20.7650 C   0  0  0  0  0  0  0  0  0  0  0  0
  -27.2540  -28.6880   20.7630 C   0  0  0  0  0  3  0  0  0  0  0  0
  -26.0940  -26.9170   19.5740 C   0  0  0  0  0  3  0  0  0  0  0  0
  -24.9110  -27.6780   19.5730 C   0  0  0  0  0  3  0  0  0  0  0  0
  -23.6480  -29.8030   20.2260 C   0  0  0  0  0  2  0  0  0  0  0  0
  -24.6970  -31.0820   22.1410 N   0  0  0  0  0  0  0  0  0  0  0  0
  -23.5530  -32.1560   23.7800 O   0  0  0  0  0  0  0  0  0  0  0  0
  -22.7900  -29.4520   22.5710 C   0  0  0  0  0  0  0  0  0  0  0  0
  -21.4670  -29.2560   22.4430 N   0  0  0  0  0  0  0  0  0  0  0  0
  -23.4770  -28.8400   23.3920 O   0  0  0  0  0  0  0  0  0  0  0  0
  -20.9710  -29.8020   21.7510 H   0  0  0  0  0  0  0  0  0  0  0  0
  -18.1080  -28.0110   22.9280 C   0  0  0  0  0  0  0  0  0  0  0  0
  -20.6590  -28.3140   23.2180 C   0  0  0  0  0  3  0  0  0  0  0  0
  -20.7900  -26.8790   22.6570 C   0  0  0  0  0  2  0  0  0  0  0  0
  -19.7010  -26.5280   21.6380 C   0  0  0  0  0  2  0  0  0  0  0  0
  -18.3120  -26.6570   22.2680 C   0  0  0  0  0  2  0  0  0  0  0  0
  -19.2100  -28.7950   23.3590 C   0  0  0  0  0  0  0  0  0  0  0  0
  -18.9650  -30.0610   23.9340 C   0  0  0  0  0  3  0  0  0  0  0  0
  -17.6520  -30.5440   24.0820 C   0  0  0  0  0  3  0  0  0  0  0  0
  -16.5640  -29.7550   23.6700 C   0  0  0  0  0  3  0  0  0  0  0  0
  -16.7930  -28.4920   23.0960 C   0  0  0  0  0  3  0  0  0  0  0  0
  -25.9170  -32.5320   23.8530 C   0  0  0  0  0  3  0  0  0  0  0  0
  -25.6010  -33.9300   24.1720 N   0  0  0  0  0  0  0  0  0  0  0  0
  -25.9360  -34.9800   23.4110 C   0  0  0  0  0  0  0  0  0  0  0  0
  -26.6140  -34.8740   22.3850 O   0  0  0  0  0  0  0  0  0  0  0  0
  -25.0010  -34.0880   24.9690 H   0  0  0  0  0  0  0  0  0  0  0  0
  -24.2100  -36.7700   23.0280 C   0  0  0  0  0  1  0  0  0  0  0  0
  -25.4410  -36.3680   23.8570 C   0  0  0  0  0  3  0  0  0  0  0  0
  -27.5630  -37.2580   24.7150 C   0  0  0  0  0  1  0  0  0  0  0  0
  -26.4740  -37.4230   23.7570 N   0  0  0  0  0  0  0  0  0  0  0  0
  -26.0630  -38.3420   23.8990 H   0  0  0  0  0  0  0  0  0  0  0  0
  -26.4410  -31.7720   25.1330 C   0  0  1  0  0  0  0  0  0  0  0  0
  -25.3520  -31.5370   26.2040 C   0  0  0  0  0  1  0  0  0  0  0  0
  -27.0300  -30.3950   24.7470 C   0  0  0  0  0  1  0  0  0  0  0  0
  -27.5850  -32.5800   25.7900 C   0  0  0  0  0  1  0  0  0  0  0  0
  1  2  2  0
  3  1  1  0
  3  4  1  0
  4  5  1  0
  4  6  1  0
  7 20  1  0
  8 13  1  0
  9 10  1  0
  9  8  1  0
 11 10  1  0
 11 24  1  0
 11 12  1  0
 13  7  1  0
 13 12  1  0
 14  7  2  0
 16 19  1  0
 17 15  1  0
 18 16  1  0
 18 20  1  0
 19  4  1  0
 19 15  1  0
 20 17  1  0
 21 22  2  0
 22 41  1  0
 23 22  1  0
 23 26  1  0
 24 25  1  0
 24 21  1  0
 25 23  2  0
 26 27  1  0
 27 28  2  0
 29 32  1  0
 29 28  1  0
 30 29  2  0
 31 30  1  0
 31 26  2  0
 32 33  1  0
 33 34  1  0
 34 35  2  0
 36 35  1  0
 36 40  1  0
 37 36  2  0
 38 33  2  0
 38 37  1  0
 39 38  1  0
 41 42  1  0
 42 45  1  0
 42 44  1  0
 43 41  2  0
 46 21  1  0
 46 47  1  0
 48 46  1  0
 49 52  1  0
 49  1  1  0
 49 51  1  0
 50 51  1  0
 53 52  1  0
 54 65  2  0
 55 53  1  0
 55 60  1  0
 56 64  1  0
 56 66  1  0
 57 63  1  0
 57 59  1  0
 58 64  1  0
 59 58  1  0
 60 59  2  0
 61 55  2  0
 62 61  1  0
 62 57  2  0
 63 56  1  0
 64 54  1  0
 66 68  2  0
 67 66  1  0
 69 67  1  0
 70 79  2  0
 70 75  1  0
 71 67  1  0
 71 75  1  0
 72 71  1  0
 73 74  1  0
 73 72  1  0
 74 70  1  0
 75 76  2  0
 76 77  1  0
 78 77  2  0
 79 78  1  0
 80 54  1  0
 80 81  1  0
 80 90  1  0
 81 84  1  0
 82 86  1  0
 82 81  1  0
 83 82  2  0
 86 85  1  0
 88 86  1  0
 88 89  1  0
 88 87  1  0
 90 93  1  1
 90 91  1  0
 92 90  1  0
M  ISO  4   7 100  20 100  52 101  53 101
M  END
>  <TORSDO>  (34) 
F 21

>  <SCORE>  (34) 
-12.979

>  <name>  (34) 
34

>  <ligand_id>  (34) 
34

>  <original_smiles>  (34) 
[H]c1c([H])c([H])c2c(c1[H])C([H])([H])C([H])([H])C([H])([H])C2([H])N([H])C(=O)C1([H])N(C(=O)C([H])(N([H])C(=O)C([H])(N([H])C([H])([H])[H])C([H])([H])[H])C(C([H])([H])[H])(C([H])([H])[H])C([H])([H])[H])C([H])([H])c2c([H])c(OC([H])([H])C([H])(C(=O)C([H])([H])[N+]([H])([H])C3([H])C([H])([H])C([H])([H])N(C(=O)N4C([H])([H])C([H])([H])C([H])([H])C([H])(n5nc(-c6c([H])c([H])c(Oc7c([H])c([H])c(F)c([H])c7F)c([H])c6[H])c(C(=O)N([H])[H])c5N([H])[H])C4([H])[H])C([H])([H])C3([H])[H])C([H])([H])C([H])([H])[H])c([H])c([H])c2C1([H])[H]

>  <smiles>  (34) 
[H]c1c([H])c([H])c2c(c1[H])C([H])([H])C([H])([H])C([H])([H])C2([H])N([H])C(=O)C1([H])N(C(=O)C([H])(N([H])C(=O)C([H])(N([H])C([H])([H])[H])C([H])([H])[H])C(C([H])([H])[H])(C([H])([H])[H])C([H])([H])[H])C([H])([H])c2c([H])c(OC([H])([H])C([H])(C(=O)C([H])([H])[N+]([H])([H])C3([H])C([H])([H])C([H])([H])N(C(=O)N4C([H])([H])C([H])([H])C([H])([H])C([H])(n5nc(-c6c([H])c([H])c(Oc7c([H])c([H])c(F)c([H])c7F)c([H])c6[H])c(C(=O)N([H])[H])c5N([H])[H])C4([H])[H])C([H])([H])C3([H])[H])C([H])([H])C([H])([H])[H])c([H])c([H])c2C1([H])[H]

$$$$
35:0:0
     RDKit          3D

 91 98  0  0  1  0  0  0  0  0999 V2000
  -26.8840  -22.4020   19.9190 C   0  0  0  0  0  2  0  0  0  0  0  0
  -27.3470  -21.2390   20.7230 N   0  0  0  0  0  4  0  0  0  0  0  0
  -27.8030  -21.5590   21.5630 H   0  0  0  0  0  0  0  0  0  0  0  0
  -26.5140  -20.7430   21.0060 H   0  0  0  0  0  0  0  0  0  0  0  0
  -28.2040  -20.2540   20.0130 C   0  0  0  0  0  2  0  0  0  0  0  0
  -28.3680  -18.9230   20.7930 C   0  0  0  0  0  2  0  0  0  0  0  0
  -29.3040  -17.9300   20.0720 C   0  0  0  0  0  2  0  0  0  0  0  0
  -29.4720  -16.5420   20.7390 C   0  0  0  0  0  2  0  0  0  0  0  0
  -30.9550  -14.6020   20.0680 C   0  0  0  0  0  0  0  0  0  0  0  0
  -30.5920  -12.4490   18.9530 C   0  0  0  0  0  2  0  0  0  0  0  0
  -29.6110  -12.6800   17.7840 C   0  0  0  0  0  2  0  0  0  0  0  0
  -28.1520  -12.5630   18.2660 C   0  0  0  0  0  2  0  0  0  0  0  0
  -27.8700  -13.3850   19.5520 C   0  0  0  0  0  3  0  0  0  0  0  0
  -28.9690  -13.1640   20.6190 C   0  0  0  0  0  2  0  0  0  0  0  0
  -30.2640  -13.4390   19.9860 N   0  0  0  0  0  0  0  0  0  0  0  0
  -32.1390  -14.7010   19.7500 O   0  0  0  0  0  0  0  0  0  0  0  0
  -30.2090  -15.6860   19.8110 N   0  0  0  0  0  0  0  0  0  0  0  0
  -30.6840  -16.2480   19.1210 H   0  0  0  0  0  0  0  0  0  0  0  0
  -25.5080  -14.0090   20.3490 C   0  0  0  0  0  0  0  0  0  0  0  0
  -24.4460  -13.2400   20.7450 C   0  0  0  0  0  0  0  0  0  0  0  0
  -24.8960  -11.8870   20.6930 C   0  0  0  0  0  0  0  0  0  0  0  0
  -26.5370  -13.1190   20.0800 N   0  0  0  0  0  0  0  0  0  0  0  0
  -26.1760  -11.8380   20.3480 N   0  0  0  0  0  0  0  0  0  0  0  0
  -24.1680  -10.6290   20.8970 C   0  0  0  0  0  0  0  0  0  0  0  0
  -24.5860   -9.6830   21.8580 C   0  0  0  0  0  3  0  0  0  0  0  0
  -23.8630   -8.4860   22.0460 C   0  0  0  0  0  3  0  0  0  0  0  0
  -22.7050   -8.2270   21.2730 C   0  0  0  0  0  0  0  0  0  0  0  0
  -22.3070   -9.1610   20.3010 C   0  0  0  0  0  3  0  0  0  0  0  0
  -23.0320  -10.3500   20.1110 C   0  0  0  0  0  3  0  0  0  0  0  0
  -21.9540   -7.0810   21.3710 O   0  0  0  0  0  0  0  0  0  0  0  0
  -21.8350   -6.3970   22.5530 C   0  0  0  0  0  0  0  0  0  0  0  0
  -21.3370   -7.0120   23.7230 C   0  0  0  0  0  3  0  0  0  0  0  0
  -21.1670   -6.2540   24.8980 C   0  0  0  0  0  3  0  0  0  0  0  0
  -21.4830   -4.8820   24.9050 C   0  0  0  0  0  0  0  0  0  0  0  0
  -21.9730   -4.2670   23.7400 C   0  0  0  0  0  3  0  0  0  0  0  0
  -22.1460   -5.0220   22.5670 C   0  0  0  0  0  0  0  0  0  0  0  0
  -22.6000   -4.4200   21.4410 F   0  0  0  0  0  0  0  0  0  0  0  0
  -21.3110   -4.1520   26.0320 F   0  0  0  0  0  0  0  0  0  0  0  0
  -23.0600  -13.7280   21.0570 C   0  0  0  0  0  0  0  0  0  0  0  0
  -22.3490  -13.0350   21.9400 N   0  0  0  0  0  0  0  0  0  0  0  0
  -22.6170  -14.7590   20.5550 O   0  0  0  0  0  0  0  0  0  0  0  0
  -22.7180  -12.2040   22.3750 H   0  0  0  0  0  0  0  0  0  0  0  0
  -21.4200  -13.3470   22.1840 H   0  0  0  0  0  0  0  0  0  0  0  0
  -25.6770  -15.3780   20.1730 N   0  0  0  0  0  0  0  0  0  0  0  0
  -24.9220  -16.0390   20.3090 H   0  0  0  0  0  0  0  0  0  0  0  0
  -26.5200  -15.8030   19.8130 H   0  0  0  0  0  0  0  0  0  0  0  0
  -27.8020  -23.6600   19.9570 C   0  0  0  0  0  2  0  0  0  0  0  0
  -26.3700  -24.7610   21.8390 C   0  0  0  0  0  1  0  0  0  0  0  0
  -27.7760  -24.5440   21.2400 C   0  0  0  0  0  3  0  0  0  0  0  0
  -28.5850  -25.8810   21.1050 C   0  0  0  0  0  2  0  0  0  0  0  0
  -28.3330  -26.7160   19.9610 O   0  0  0  0  0  0  0  0  0  0  0  0
  -24.6020  -31.8960   23.1880 C   0  0  0  0  0  0  0  0  0  0  0  0
  -27.2010  -27.4940   20.0150 C   0  0  0  0  0  0  0  0  0  0  0  0
  -23.3800  -30.5110   21.5430 C   0  0  0  0  0  3  0  0  0  0  0  0
  -24.8220  -29.0090   20.0680 C   0  0  0  0  0  0  0  0  0  0  0  0
  -25.9030  -30.8800   21.3200 C   0  0  0  0  0  2  0  0  0  0  0  0
  -25.9850  -29.5170   20.6640 C   0  0  0  0  0  0  0  0  0  0  0  0
  -27.1810  -28.7600   20.6440 C   0  0  0  0  0  3  0  0  0  0  0  0
  -26.0360  -27.0220   19.3790 C   0  0  0  0  0  3  0  0  0  0  0  0
  -24.8420  -27.7630   19.4230 C   0  0  0  0  0  3  0  0  0  0  0  0
  -23.5720  -29.8560   20.1490 C   0  0  0  0  0  2  0  0  0  0  0  0
  -24.6470  -31.1120   22.0740 N   0  0  0  0  0  0  0  0  0  0  0  0
  -23.5260  -32.1560   23.7470 O   0  0  0  0  0  0  0  0  0  0  0  0
  -22.7500  -29.4710   22.4960 C   0  0  0  0  0  0  0  0  0  0  0  0
  -21.4260  -29.2830   22.3830 N   0  0  0  0  0  0  0  0  0  0  0  0
  -23.4470  -28.8340   23.2890 O   0  0  0  0  0  0  0  0  0  0  0  0
  -20.9300  -29.8390   21.7000 H   0  0  0  0  0  0  0  0  0  0  0  0
  -18.0560  -28.0870   22.9100 C   0  0  0  0  0  0  0  0  0  0  0  0
  -20.6180  -28.3360   23.1480 C   0  0  0  0  0  3  0  0  0  0  0  0
  -20.7120  -26.9150   22.5450 C   0  0  0  0  0  2  0  0  0  0  0  0
  -19.5930  -26.6060   21.5450 C   0  0  0  0  0  2  0  0  0  0  0  0
  -18.2200  -26.7480   22.2090 C   0  0  0  0  0  2  0  0  0  0  0  0
  -19.1820  -28.8410   23.3350 C   0  0  0  0  0  0  0  0  0  0  0  0
  -18.9740  -30.0950   23.9470 C   0  0  0  0  0  3  0  0  0  0  0  0
  -17.6710  -30.5950   24.1410 C   0  0  0  0  0  3  0  0  0  0  0  0
  -16.5590  -29.8350   23.7390 C   0  0  0  0  0  3  0  0  0  0  0  0
  -16.7540  -28.5830   23.1300 C   0  0  0  0  0  3  0  0  0  0  0  0
  -25.8950  -32.5200   23.8000 C   0  0  0  0  0  3  0  0  0  0  0  0
  -26.4330  -31.7320   25.0560 C   0  0  1  0  0  0  0  0  0  0  0  0
  -25.3580  -31.4730   26.1350 C   0  0  0  0  0  1  0  0  0  0  0  0
  -27.0150  -30.3640   24.6330 C   0  0  0  0  0  1  0  0  0  0  0  0
  -27.5910  -32.5200   25.7160 C   0  0  0  0  0  1  0  0  0  0  0  0
  -25.5920  -33.9140   24.1540 N   0  0  0  0  0  0  0  0  0  0  0  0
  -25.9070  -34.9760   23.4000 C   0  0  0  0  0  0  0  0  0  0  0  0
  -26.5610  -34.8860   22.3590 O   0  0  0  0  0  0  0  0  0  0  0  0
  -25.0250  -34.0590   24.9770 H   0  0  0  0  0  0  0  0  0  0  0  0
  -24.1740  -36.7670   23.0790 C   0  0  0  0  0  1  0  0  0  0  0  0
  -25.4200  -36.3560   23.8790 C   0  0  0  0  0  3  0  0  0  0  0  0
  -27.5560  -37.2330   24.7110 C   0  0  0  0  0  1  0  0  0  0  0  0
  -26.4490  -37.4120   23.7750 N   0  0  0  0  0  0  0  0  0  0  0  0
  -26.0420  -38.3290   23.9370 H   0  0  0  0  0  0  0  0  0  0  0  0
  1 47  1  0
  1  2  1  0
  2  4  1  0
  2  3  1  0
  5  2  1  0
  5  6  1  0
  7  8  1  0
  7  6  1  0
 10 15  1  0
 11 12  1  0
 11 10  1  0
 13 12  1  0
 13 22  1  0
 13 14  1  0
 15  9  1  0
 15 14  1  0
 16  9  2  0
 17  9  1  0
 17  8  1  0
 18 17  1  0
 19 20  2  0
 20 39  1  0
 21 20  1  0
 21 24  1  0
 22 23  1  0
 22 19  1  0
 23 21  2  0
 24 25  1  0
 25 26  2  0
 27 30  1  0
 27 26  1  0
 28 27  2  0
 29 28  1  0
 29 24  2  0
 30 31  1  0
 31 36  2  0
 31 32  1  0
 32 33  2  0
 33 34  1  0
 34 38  1  0
 35 34  2  0
 36 35  1  0
 37 36  1  0
 39 40  1  0
 40 43  1  0
 40 42  1  0
 41 39  2  0
 44 45  1  0
 44 19  1  0
 46 44  1  0
 47 49  1  0
 49 48  1  0
 50 49  1  0
 51 53  1  0
 51 50  1  0
 52 63  2  0
 53 58  1  0
 54 62  1  0
 54 64  1  0
 55 61  1  0
 55 57  1  0
 56 62  1  0
 57 56  1  0
 58 57  2  0
 59 60  1  0
 59 53  2  0
 60 55  2  0
 61 54  1  0
 62 52  1  0
 64 66  2  0
 65 64  1  0
 67 65  1  0
 68 77  2  0
 68 73  1  0
 69 65  1  0
 69 73  1  0
 70 69  1  0
 71 72  1  0
 71 70  1  0
 72 68  1  0
 73 74  2  0
 74 75  1  0
 76 75  2  0
 77 76  1  0
 78 52  1  0
 78 83  1  0
 78 79  1  0
 79 82  1  1
 79 80  1  0
 81 79  1  0
 83 86  1  0
 84 88  1  0
 84 83  1  0
 85 84  2  0
 88 87  1  0
 90 88  1  0
 90 91  1  0
 90 89  1  0
M  ISO  4   9 100  17 100  50 101  51 101
M  END
>  <TORSDO>  (35) 
F 24

>  <SCORE>  (35) 
-11.951

>  <name>  (35) 
35

>  <ligand_id>  (35) 
35

>  <original_smiles>  (35) 
[H]c1c([H])c([H])c2c(c1[H])C([H])([H])C([H])([H])C([H])([H])C2([H])N([H])C(=O)C1([H])N(C(=O)C([H])(N([H])C(=O)C([H])(N([H])C([H])([H])[H])C([H])([H])[H])C(C([H])([H])[H])(C([H])([H])[H])C([H])([H])[H])C([H])([H])c2c([H])c(OC([H])([H])C([H])(C([H])([H])[H])C([H])([H])C([H])([H])[N+]([H])([H])C([H])([H])C([H])([H])C([H])([H])C([H])([H])N([H])C(=O)N3C([H])([H])C([H])([H])C([H])([H])C([H])(n4nc(-c5c([H])c([H])c(Oc6c([H])c([H])c(F)c([H])c6F)c([H])c5[H])c(C(=O)N([H])[H])c4N([H])[H])C3([H])[H])c([H])c([H])c2C1([H])[H]

>  <smiles>  (35) 
[H]c1c([H])c([H])c2c(c1[H])C([H])([H])C([H])([H])C([H])([H])C2([H])N([H])C(=O)C1([H])N(C(=O)C([H])(N([H])C(=O)C([H])(N([H])C([H])([H])[H])C([H])([H])[H])C(C([H])([H])[H])(C([H])([H])[H])C([H])([H])[H])C([H])([H])c2c([H])c(OC([H])([H])C([H])(C([H])([H])[H])C([H])([H])C([H])([H])[N+]([H])([H])C([H])([H])C([H])([H])C([H])([H])C([H])([H])N([H])C(=O)N3C([H])([H])C([H])([H])C([H])([H])C([H])(n4nc(-c5c([H])c([H])c(Oc6c([H])c([H])c(F)c([H])c6F)c([H])c5[H])c(C(=O)N([H])[H])c4N([H])[H])C3([H])[H])c([H])c([H])c2C1([H])[H]

$$$$
36:0:0
     RDKit          3D

 94102  0  0  1  0  0  0  0  0999 V2000
  -30.2180  -20.2740   22.5950 C   0  0  0  0  0  2  0  0  0  0  0  0
  -30.4100  -18.7500   22.5370 C   0  0  0  0  0  2  0  0  0  0  0  0
  -29.6560  -18.5430   20.0840 C   0  0  0  0  0  2  0  0  0  0  0  0
  -28.8990  -20.7610   21.9590 C   0  0  0  0  0  2  0  0  0  0  0  0
  -29.6700  -20.0270   19.6340 C   0  0  0  0  0  2  0  0  0  0  0  0
  -30.7630  -18.2530   21.1260 C   0  0  0  0  0  3  0  0  0  0  0  0
  -28.9220  -21.0060   20.4860 N   0  0  1  0  0  4  0  0  0  0  0  0
  -29.4490  -21.8580   20.3560 H   0  0  0  0  0  0  0  0  0  0  0  0
  -31.2230  -14.6860   20.1180 C   0  0  0  0  0  0  0  0  0  0  0  0
  -30.7250  -12.5560   18.9790 C   0  0  0  0  0  2  0  0  0  0  0  0
  -29.7530  -12.7750   17.8070 C   0  0  0  0  0  2  0  0  0  0  0  0
  -28.2970  -12.6770   18.2980 C   0  0  0  0  0  2  0  0  0  0  0  0
  -28.0280  -13.5430   19.5580 C   0  0  0  0  0  3  0  0  0  0  0  0
  -29.1270  -13.3480   20.6270 C   0  0  0  0  0  2  0  0  0  0  0  0
  -30.4310  -13.5850   19.9890 N   0  0  0  0  0  0  0  0  0  0  0  0
  -32.3210  -14.7490   19.5600 O   0  0  0  0  0  0  0  0  0  0  0  0
  -31.4020  -16.8460   21.1220 C   0  0  0  0  0  0  0  0  0  0  0  0
  -30.6920  -15.7610   20.7370 N   0  0  0  0  0  0  0  0  0  0  0  0
  -32.5890  -16.7820   21.4630 O   0  0  0  0  0  0  0  0  0  0  0  0
  -29.6880  -15.7930   20.8130 H   0  0  0  0  0  0  0  0  0  0  0  0
  -25.7020  -14.1990   20.4390 C   0  0  0  0  0  0  0  0  0  0  0  0
  -24.6200  -13.4460   20.8160 C   0  0  0  0  0  0  0  0  0  0  0  0
  -25.0200  -12.0840   20.6780 C   0  0  0  0  0  0  0  0  0  0  0  0
  -26.6940  -13.2910   20.0980 N   0  0  0  0  0  0  0  0  0  0  0  0
  -26.2900  -12.0110   20.3000 N   0  0  0  0  0  0  0  0  0  0  0  0
  -24.2480  -10.8410   20.8250 C   0  0  0  0  0  0  0  0  0  0  0  0
  -24.6580   -9.8150   21.7060 C   0  0  0  0  0  3  0  0  0  0  0  0
  -23.8890   -8.6390   21.8440 C   0  0  0  0  0  3  0  0  0  0  0  0
  -22.6930   -8.4810   21.1040 C   0  0  0  0  0  0  0  0  0  0  0  0
  -22.3020   -9.4960   20.2110 C   0  0  0  0  0  3  0  0  0  0  0  0
  -23.0720  -10.6620   20.0690 C   0  0  0  0  0  3  0  0  0  0  0  0
  -21.8950   -7.3640   21.1560 O   0  0  0  0  0  0  0  0  0  0  0  0
  -21.8030   -6.5970   22.2890 C   0  0  0  0  0  0  0  0  0  0  0  0
  -21.3880   -7.1410   23.5270 C   0  0  0  0  0  3  0  0  0  0  0  0
  -21.2440   -6.3030   24.6500 C   0  0  0  0  0  3  0  0  0  0  0  0
  -21.5010   -4.9230   24.5380 C   0  0  0  0  0  0  0  0  0  0  0  0
  -21.9080   -4.3800   23.3070 C   0  0  0  0  0  3  0  0  0  0  0  0
  -22.0570   -5.2160   22.1860 C   0  0  0  0  0  0  0  0  0  0  0  0
  -22.4290   -4.6830   20.9960 F   0  0  0  0  0  0  0  0  0  0  0  0
  -21.3530   -4.1160   25.6160 F   0  0  0  0  0  0  0  0  0  0  0  0
  -23.2610  -13.9640   21.1860 C   0  0  0  0  0  0  0  0  0  0  0  0
  -22.5470  -13.2510   22.0510 N   0  0  0  0  0  0  0  0  0  0  0  0
  -22.8440  -15.0350   20.7480 O   0  0  0  0  0  0  0  0  0  0  0  0
  -22.8970  -12.3840   22.4300 H   0  0  0  0  0  0  0  0  0  0  0  0
  -21.6350  -13.5790   22.3380 H   0  0  0  0  0  0  0  0  0  0  0  0
  -25.9180  -15.5690   20.3350 N   0  0  0  0  0  0  0  0  0  0  0  0
  -25.1900  -16.2470   20.5260 H   0  0  0  0  0  0  0  0  0  0  0  0
  -26.7610  -15.9890   19.9640 H   0  0  0  0  0  0  0  0  0  0  0  0
  -27.5650  -21.3250   19.9510 C   0  0  0  0  0  2  0  0  0  0  0  0
  -27.0140  -22.7070   20.3860 C   0  0  0  0  0  2  0  0  0  0  0  0
  -27.6220  -23.9120   19.6320 C   0  0  0  0  0  2  0  0  0  0  0  0
  -28.5630  -24.8000   20.4750 C   0  0  0  0  0  2  0  0  0  0  0  0
  -29.2300  -25.9400   19.6630 C   0  0  0  0  0  2  0  0  0  0  0  0
  -29.0470  -27.2380   20.2450 O   0  0  0  0  0  0  0  0  0  0  0  0
  -24.6660  -31.8640   23.3740 C   0  0  0  0  0  0  0  0  0  0  0  0
  -27.8090  -27.8510   20.1840 C   0  0  0  0  0  0  0  0  0  0  0  0
  -23.6590  -30.4970   21.5750 C   0  0  0  0  0  3  0  0  0  0  0  0
  -25.3040  -29.1730   20.1400 C   0  0  0  0  0  0  0  0  0  0  0  0
  -26.1580  -31.0460   21.5580 C   0  0  0  0  0  2  0  0  0  0  0  0
  -26.3800  -29.7310   20.8430 C   0  0  0  0  0  0  0  0  0  0  0  0
  -27.6300  -29.0710   20.8720 C   0  0  0  0  0  3  0  0  0  0  0  0
  -26.7140  -27.3140   19.4650 C   0  0  0  0  0  3  0  0  0  0  0  0
  -25.4680  -27.9620   19.4450 C   0  0  0  0  0  3  0  0  0  0  0  0
  -23.9940  -29.9270   20.1680 C   0  0  0  0  0  2  0  0  0  0  0  0
  -24.8410  -31.1510   22.2270 N   0  0  0  0  0  0  0  0  0  0  0  0
  -23.5390  -32.0170   23.8650 O   0  0  0  0  0  0  0  0  0  0  0  0
  -23.0450  -29.3630   22.4270 C   0  0  0  0  0  0  0  0  0  0  0  0
  -21.7380  -29.1170   22.2360 N   0  0  0  0  0  0  0  0  0  0  0  0
  -23.7400  -28.7110   23.2110 O   0  0  0  0  0  0  0  0  0  0  0  0
  -21.2390  -29.7030   21.5830 H   0  0  0  0  0  0  0  0  0  0  0  0
  -18.4140  -27.7340   22.5430 C   0  0  0  0  0  0  0  0  0  0  0  0
  -20.9510  -28.0760   22.8950 C   0  0  0  0  0  3  0  0  0  0  0  0
  -21.1280  -26.7100   22.1920 C   0  0  0  0  0  2  0  0  0  0  0  0
  -20.0600  -26.4380   21.1290 C   0  0  0  0  0  2  0  0  0  0  0  0
  -18.6610  -26.4630   21.7500 C   0  0  0  0  0  2  0  0  0  0  0  0
  -19.4880  -28.5020   23.0660 C   0  0  0  0  0  0  0  0  0  0  0  0
  -19.2020  -29.6970   23.7600 C   0  0  0  0  0  3  0  0  0  0  0  0
  -17.8730  -30.1270   23.9360 C   0  0  0  0  0  3  0  0  0  0  0  0
  -16.8120  -29.3560   23.4290 C   0  0  0  0  0  3  0  0  0  0  0  0
  -17.0840  -28.1590   22.7420 C   0  0  0  0  0  3  0  0  0  0  0  0
  -25.8650  -32.5410   24.1110 C   0  0  0  0  0  3  0  0  0  0  0  0
  -25.4960  -33.9400   24.3630 N   0  0  0  0  0  0  0  0  0  0  0  0
  -25.8790  -34.9760   23.6060 C   0  0  0  0  0  0  0  0  0  0  0  0
  -26.6540  -34.8590   22.6510 O   0  0  0  0  0  0  0  0  0  0  0  0
  -24.8350  -34.1080   25.1070 H   0  0  0  0  0  0  0  0  0  0  0  0
  -24.1540  -36.7100   23.0170 C   0  0  0  0  0  1  0  0  0  0  0  0
  -25.3130  -36.3640   23.9660 C   0  0  0  0  0  3  0  0  0  0  0  0
  -27.3310  -37.3280   24.9790 C   0  0  0  0  0  1  0  0  0  0  0  0
  -26.3250  -37.4420   23.9270 N   0  0  0  0  0  0  0  0  0  0  0  0
  -25.8810  -38.3530   24.0060 H   0  0  0  0  0  0  0  0  0  0  0  0
  -26.2640  -31.8140   25.4540 C   0  0  1  0  0  0  0  0  0  0  0  0
  -25.0720  -31.5650   26.4050 C   0  0  0  0  0  1  0  0  0  0  0  0
  -26.9310  -30.4490   25.1590 C   0  0  0  0  0  1  0  0  0  0  0  0
  -27.3020  -32.6670   26.2210 C   0  0  0  0  0  1  0  0  0  0  0  0
  2  1  1  0
  3  6  1  0
  4  1  1  0
  5  3  1  0
  5  7  1  0
  6 17  1  0
  6  2  1  0
  7  4  1  0
  7  8  1  1
  9 18  1  0
 10 15  1  0
 11 12  1  0
 11 10  1  0
 13 12  1  0
 13 24  1  0
 13 14  1  0
 15  9  1  0
 15 14  1  0
 16  9  2  0
 17 19  2  0
 18 20  1  0
 18 17  1  0
 21 22  2  0
 22 41  1  0
 23 22  1  0
 23 26  1  0
 24 25  1  0
 24 21  1  0
 25 23  2  0
 26 27  1  0
 27 28  2  0
 29 32  1  0
 29 28  1  0
 30 29  2  0
 31 30  1  0
 31 26  2  0
 32 33  1  0
 33 34  1  0
 34 35  2  0
 36 35  1  0
 36 40  1  0
 37 36  2  0
 38 33  2  0
 38 37  1  0
 39 38  1  0
 41 42  1  0
 42 45  1  0
 42 44  1  0
 43 41  2  0
 46 21  1  0
 46 47  1  0
 48 46  1  0
 49 50  1  0
 49  7  1  0
 51 50  1  0
 51 52  1  0
 53 54  1  0
 53 52  1  0
 55 66  2  0
 56 54  1  0
 56 61  1  0
 57 65  1  0
 57 67  1  0
 58 64  1  0
 58 60  1  0
 59 65  1  0
 60 61  2  0
 60 59  1  0
 62 56  2  0
 63 62  1  0
 63 58  2  0
 64 57  1  0
 65 55  1  0
 67 69  2  0
 68 67  1  0
 70 68  1  0
 71 80  2  0
 71 76  1  0
 72 68  1  0
 72 76  1  0
 73 72  1  0
 74 75  1  0
 74 73  1  0
 75 71  1  0
 76 77  2  0
 77 78  1  0
 79 78  2  0
 80 79  1  0
 81 55  1  0
 81 82  1  0
 81 91  1  0
 82 85  1  0
 83 87  1  0
 83 82  1  0
 84 83  2  0
 87 86  1  0
 89 87  1  0
 89 90  1  0
 89 88  1  0
 91 94  1  1
 91 92  1  0
 93 91  1  0
M  ISO  4   9 100  18 100  53 101  54 101
M  END
>  <TORSDO>  (36) 
F 21

>  <SCORE>  (36) 
-10.747

>  <name>  (36) 
36

>  <ligand_id>  (36) 
36

>  <original_smiles>  (36) 
[H]c1c([H])c([H])c2c(c1[H])C([H])([H])C([H])([H])C([H])([H])C2([H])N([H])C(=O)C1([H])N(C(=O)C([H])(N([H])C(=O)C([H])(N([H])C([H])([H])[H])C([H])([H])[H])C(C([H])([H])[H])(C([H])([H])[H])C([H])([H])[H])C([H])([H])c2c([H])c(OC([H])([H])C([H])([H])C([H])([H])C([H])([H])C([H])([H])[N+]3([H])C([H])([H])C([H])([H])C([H])([H])C([H])(C(=O)N([H])C(=O)N4C([H])([H])C([H])([H])C([H])([H])C([H])(n5nc(-c6c([H])c([H])c(Oc7c([H])c([H])c(F)c([H])c7F)c([H])c6[H])c(C(=O)N([H])[H])c5N([H])[H])C4([H])[H])C([H])([H])C3([H])[H])c([H])c([H])c2C1([H])[H]

>  <smiles>  (36) 
[H]c1c([H])c([H])c2c(c1[H])C([H])([H])C([H])([H])C([H])([H])C2([H])N([H])C(=O)C1([H])N(C(=O)C([H])(N([H])C(=O)C([H])(N([H])C([H])([H])[H])C([H])([H])[H])C(C([H])([H])[H])(C([H])([H])[H])C([H])([H])[H])C([H])([H])c2c([H])c(OC([H])([H])C([H])([H])C([H])([H])C([H])([H])C([H])([H])[N+]3([H])C([H])([H])C([H])([H])C([H])([H])C([H])(C(=O)N([H])C(=O)N4C([H])([H])C([H])([H])C([H])([H])C([H])(n5nc(-c6c([H])c([H])c(Oc7c([H])c([H])c(F)c([H])c7F)c([H])c6[H])c(C(=O)N([H])[H])c5N([H])[H])C4([H])[H])C([H])([H])C3([H])[H])c([H])c([H])c2C1([H])[H]

$$$$
37:0:0
     RDKit          3D

 93100  0  0  1  0  0  0  0  0999 V2000
  -27.0840  -21.9190   20.2340 C   0  0  0  0  0  0  0  0  0  0  0  0
  -27.8800  -22.5140   21.1280 N   0  0  0  0  0  0  0  0  0  0  0  0
  -26.2120  -22.5310   19.6120 O   0  0  0  0  0  0  0  0  0  0  0  0
  -28.5860  -21.9380   21.5670 H   0  0  0  0  0  0  0  0  0  0  0  0
  -26.2010  -19.8150   19.1090 C   0  0  0  0  0  1  0  0  0  0  0  0
  -27.2420  -20.3960   20.0920 C   0  0  0  0  0  3  0  0  0  0  0  0
  -28.6980  -19.9780   19.7580 C   0  0  0  0  0  2  0  0  0  0  0  0
  -28.8920  -18.4470   19.8290 C   0  0  0  0  0  2  0  0  0  0  0  0
  -30.3430  -17.9410   19.6880 C   0  0  0  0  0  2  0  0  0  0  0  0
  -30.4310  -16.4660   20.1240 C   0  0  0  0  0  2  0  0  0  0  0  0
  -32.3670  -14.8350   20.1060 C   0  0  0  0  0  0  0  0  0  0  0  0
  -32.3510  -12.3620   20.2240 C   0  0  0  0  0  2  0  0  0  0  0  0
  -31.5540  -11.7540   19.0530 C   0  0  0  0  0  2  0  0  0  0  0  0
  -30.0530  -11.6640   19.3960 C   0  0  0  0  0  2  0  0  0  0  0  0
  -29.5010  -13.0030   19.9360 C   0  0  0  0  0  3  0  0  0  0  0  0
  -30.4130  -13.5240   21.0730 C   0  0  0  0  0  2  0  0  0  0  0  0
  -31.7720  -13.6820   20.5300 N   0  0  0  0  0  0  0  0  0  0  0  0
  -33.4780  -14.8460   19.5710 O   0  0  0  0  0  0  0  0  0  0  0  0
  -31.7910  -16.0090   20.4320 N   0  0  0  0  0  0  0  0  0  0  0  0
  -32.4590  -16.7650   20.4420 H   0  0  0  0  0  0  0  0  0  0  0  0
  -27.1610  -13.8730   20.5640 C   0  0  0  0  0  0  0  0  0  0  0  0
  -26.0110  -13.2200   20.9160 C   0  0  0  0  0  0  0  0  0  0  0  0
  -26.3330  -11.8280   20.9090 C   0  0  0  0  0  0  0  0  0  0  0  0
  -28.1140  -12.8850   20.3700 N   0  0  0  0  0  0  0  0  0  0  0  0
  -27.6150  -11.6510   20.6320 N   0  0  0  0  0  0  0  0  0  0  0  0
  -25.4760  -10.6490   21.0820 C   0  0  0  0  0  0  0  0  0  0  0  0
  -25.6200   -9.7930   22.1950 C   0  0  0  0  0  3  0  0  0  0  0  0
  -24.7720   -8.6770   22.3500 C   0  0  0  0  0  3  0  0  0  0  0  0
  -23.7660   -8.4090   21.3920 C   0  0  0  0  0  0  0  0  0  0  0  0
  -23.6390   -9.2540   20.2750 C   0  0  0  0  0  3  0  0  0  0  0  0
  -24.4900  -10.3620   20.1200 C   0  0  0  0  0  3  0  0  0  0  0  0
  -22.9140   -7.3330   21.4490 O   0  0  0  0  0  0  0  0  0  0  0  0
  -22.3800   -6.9040   22.6370 C   0  0  0  0  0  0  0  0  0  0  0  0
  -21.5940   -7.7490   23.4510 C   0  0  0  0  0  3  0  0  0  0  0  0
  -21.0110   -7.2450   24.6310 C   0  0  0  0  0  3  0  0  0  0  0  0
  -21.1990   -5.8960   24.9890 C   0  0  0  0  0  0  0  0  0  0  0  0
  -21.9750   -5.0520   24.1740 C   0  0  0  0  0  3  0  0  0  0  0  0
  -22.5610   -5.5540   23.0000 C   0  0  0  0  0  0  0  0  0  0  0  0
  -23.2920   -4.7330   22.2080 F   0  0  0  0  0  0  0  0  0  0  0  0
  -20.6300   -5.4070   26.1150 F   0  0  0  0  0  0  0  0  0  0  0  0
  -24.6640  -13.8430   21.1420 C   0  0  0  0  0  0  0  0  0  0  0  0
  -23.8520  -13.2510   22.0120 N   0  0  0  0  0  0  0  0  0  0  0  0
  -24.3390  -14.8890   20.5800 O   0  0  0  0  0  0  0  0  0  0  0  0
  -24.1230  -12.4090   22.4970 H   0  0  0  0  0  0  0  0  0  0  0  0
  -22.9460  -13.6510   22.2010 H   0  0  0  0  0  0  0  0  0  0  0  0
  -27.4610  -15.2180   20.3740 N   0  0  0  0  0  0  0  0  0  0  0  0
  -26.7310  -15.9200   20.4190 H   0  0  0  0  0  0  0  0  0  0  0  0
  -28.3250  -15.5660   19.9780 H   0  0  0  0  0  0  0  0  0  0  0  0
  -27.6880  -23.8470   21.6880 C   0  0  0  0  0  2  0  0  0  0  0  0
  -27.9550  -24.9940   20.6950 C   0  0  0  0  0  2  0  0  0  0  0  0
  -29.3620  -24.9950   20.0670 C   0  0  0  0  0  2  0  0  0  0  0  0
  -29.5920  -26.0830   18.9910 C   0  0  0  0  0  2  0  0  0  0  0  0
  -29.3900  -27.4140   19.4880 O   0  0  0  0  0  0  0  0  0  0  0  0
  -24.9600  -31.3350   23.4230 C   0  0  0  0  0  0  0  0  0  0  0  0
  -28.1170  -27.9410   19.5750 C   0  0  0  0  0  0  0  0  0  0  0  0
  -23.9300  -30.1500   21.5110 C   0  0  0  0  0  3  0  0  0  0  0  0
  -25.5540  -29.1070   19.8480 C   0  0  0  0  0  0  0  0  0  0  0  0
  -26.3950  -30.8330   21.4480 C   0  0  0  0  0  2  0  0  0  0  0  0
  -26.6410  -29.6360   20.5530 C   0  0  0  0  0  0  0  0  0  0  0  0
  -27.9200  -29.0560   20.4190 C   0  0  0  0  0  3  0  0  0  0  0  0
  -27.0050  -27.4230   18.8670 C   0  0  0  0  0  3  0  0  0  0  0  0
  -25.7290  -27.9960   19.0110 C   0  0  0  0  0  3  0  0  0  0  0  0
  -24.2190  -29.7880   20.0310 C   0  0  0  0  0  2  0  0  0  0  0  0
  -25.1110  -30.7790   22.1870 N   0  0  0  0  0  0  0  0  0  0  0  0
  -23.8530  -31.3660   23.9770 O   0  0  0  0  0  0  0  0  0  0  0  0
  -23.4070  -28.8890   22.2360 C   0  0  0  0  0  0  0  0  0  0  0  0
  -22.1440  -28.5230   21.9610 N   0  0  0  0  0  0  0  0  0  0  0  0
  -24.1340  -28.2520   23.0020 O   0  0  0  0  0  0  0  0  0  0  0  0
  -21.6120  -29.1010   21.3260 H   0  0  0  0  0  0  0  0  0  0  0  0
  -19.0330  -26.6890   21.8690 C   0  0  0  0  0  0  0  0  0  0  0  0
  -21.4520  -27.3500   22.4960 C   0  0  0  0  0  3  0  0  0  0  0  0
  -21.8880  -26.0650   21.7550 C   0  0  0  0  0  2  0  0  0  0  0  0
  -20.9770  -25.7100   20.5770 C   0  0  0  0  0  2  0  0  0  0  0  0
  -19.5360  -25.5090   21.0540 C   0  0  0  0  0  2  0  0  0  0  0  0
  -19.9340  -27.5630   22.5320 C   0  0  0  0  0  0  0  0  0  0  0  0
  -19.4180  -28.6640   23.2500 C   0  0  0  0  0  3  0  0  0  0  0  0
  -18.0310  -28.8980   23.3110 C   0  0  0  0  0  3  0  0  0  0  0  0
  -17.1430  -28.0190   22.6670 C   0  0  0  0  0  3  0  0  0  0  0  0
  -17.6430  -26.9170   21.9520 C   0  0  0  0  0  3  0  0  0  0  0  0
  -26.1600  -31.9780   24.1850 C   0  0  0  0  0  3  0  0  0  0  0  0
  -26.6450  -31.1180   25.4160 C   0  0  1  0  0  0  0  0  0  0  0  0
  -25.5050  -30.7050   26.3750 C   0  0  0  0  0  1  0  0  0  0  0  0
  -27.3470  -29.8280   24.9330 C   0  0  0  0  0  1  0  0  0  0  0  0
  -27.6900  -31.9160   26.2320 C   0  0  0  0  0  1  0  0  0  0  0  0
  -25.7420  -33.3180   24.6170 N   0  0  0  0  0  0  0  0  0  0  0  0
  -26.0420  -34.4540   23.9740 C   0  0  0  0  0  0  0  0  0  0  0  0
  -26.7700  -34.4860   22.9780 O   0  0  0  0  0  0  0  0  0  0  0  0
  -25.0980  -33.3610   25.3930 H   0  0  0  0  0  0  0  0  0  0  0  0
  -24.2020  -36.1460   23.6950 C   0  0  0  0  0  1  0  0  0  0  0  0
  -25.4400  -35.7610   24.5220 C   0  0  0  0  0  3  0  0  0  0  0  0
  -27.4700  -36.7220   25.5120 C   0  0  0  0  0  1  0  0  0  0  0  0
  -26.3960  -36.8890   24.5370 N   0  0  0  0  0  0  0  0  0  0  0  0
  -25.9190  -37.7650   24.7370 H   0  0  0  0  0  0  0  0  0  0  0  0
  1  2  1  0
  2  4  1  0
  2 49  1  0
  3  1  2  0
  6  5  1  0
  6  1  1  0
  7  8  1  0
  7  6  1  0
  9  8  1  0
  9 10  1  0
 10 19  1  0
 11 19  1  0
 11 17  1  0
 12 17  1  0
 13 14  1  0
 13 12  1  0
 15 14  1  0
 15 24  1  0
 15 16  1  0
 17 16  1  0
 18 11  2  0
 19 20  1  0
 21 22  2  0
 22 41  1  0
 23 22  1  0
 23 26  1  0
 24 21  1  0
 24 25  1  0
 25 23  2  0
 26 27  1  0
 27 28  2  0
 29 32  1  0
 29 28  1  0
 30 29  2  0
 31 30  1  0
 31 26  2  0
 32 33  1  0
 33 38  2  0
 33 34  1  0
 34 35  2  0
 35 36  1  0
 36 40  1  0
 37 36  2  0
 38 37  1  0
 39 38  1  0
 41 42  1  0
 42 45  1  0
 42 44  1  0
 43 41  2  0
 46 47  1  0
 46 21  1  0
 48 46  1  0
 50 49  1  0
 51 50  1  0
 52 53  1  0
 52 51  1  0
 53 55  1  0
 54 65  2  0
 55 60  1  0
 56 64  1  0
 56 66  1  0
 57 63  1  0
 57 59  1  0
 58 64  1  0
 59 58  1  0
 60 59  2  0
 61 62  1  0
 61 55  2  0
 62 57  2  0
 63 56  1  0
 64 54  1  0
 66 68  2  0
 67 66  1  0
 69 67  1  0
 70 79  2  0
 70 75  1  0
 71 67  1  0
 71 75  1  0
 72 71  1  0
 73 74  1  0
 73 72  1  0
 74 70  1  0
 75 76  2  0
 76 77  1  0
 78 77  2  0
 79 78  1  0
 80 54  1  0
 80 85  1  0
 80 81  1  0
 81 84  1  1
 81 82  1  0
 83 81  1  0
 85 88  1  0
 86 90  1  0
 86 85  1  0
 87 86  2  0
 90 89  1  0
 90 92  1  0
 92 93  1  0
 92 91  1  0
M  ISO  4  11 100  19 100  52 101  53 101
M  END
>  <TORSDO>  (37) 
F 25

>  <SCORE>  (37) 
-6.899

>  <name>  (37) 
37

>  <ligand_id>  (37) 
37

>  <original_smiles>  (37) 
[H]c1c([H])c([H])c2c(c1[H])C([H])([H])C([H])([H])C([H])([H])C2([H])N([H])C(=O)C1([H])N(C(=O)C([H])(N([H])C(=O)C([H])(N([H])C([H])([H])[H])C([H])([H])[H])C(C([H])([H])[H])(C([H])([H])[H])C([H])([H])[H])C([H])([H])c2c([H])c(OC([H])([H])C([H])([H])C([H])([H])C([H])([H])N([H])C(=O)C([H])(C([H])([H])[H])C([H])([H])C([H])([H])C([H])([H])C([H])([H])N([H])C(=O)N3C([H])([H])C([H])([H])C([H])([H])C([H])(n4nc(-c5c([H])c([H])c(Oc6c([H])c([H])c(F)c([H])c6F)c([H])c5[H])c(C(=O)N([H])[H])c4N([H])[H])C3([H])[H])c([H])c([H])c2C1([H])[H]

>  <smiles>  (37) 
[H]c1c([H])c([H])c2c(c1[H])C([H])([H])C([H])([H])C([H])([H])C2([H])N([H])C(=O)C1([H])N(C(=O)C([H])(N([H])C(=O)C([H])(N([H])C([H])([H])[H])C([H])([H])[H])C(C([H])([H])[H])(C([H])([H])[H])C([H])([H])[H])C([H])([H])c2c([H])c(OC([H])([H])C([H])([H])C([H])([H])C([H])([H])N([H])C(=O)C([H])(C([H])([H])[H])C([H])([H])C([H])([H])C([H])([H])C([H])([H])N([H])C(=O)N3C([H])([H])C([H])([H])C([H])([H])C([H])(n4nc(-c5c([H])c([H])c(Oc6c([H])c([H])c(F)c([H])c6F)c([H])c5[H])c(C(=O)N([H])[H])c4N([H])[H])C3([H])[H])c([H])c([H])c2C1([H])[H]

$$$$
38:0:0
     RDKit          3D

 97105  0  0  1  0  0  0  0  0999 V2000
  -28.3270  -22.1170   18.1400 C   0  0  0  0  0  3  0  0  0  0  0  0
  -26.8310  -21.8400   18.4060 C   0  0  0  0  0  0  0  0  0  0  0  0
  -25.9460  -22.6400   17.8240 N   0  0  0  0  0  0  0  0  0  0  0  0
  -26.4590  -20.9220   19.1330 O   0  0  0  0  0  0  0  0  0  0  0  0
  -26.2470  -23.3930   17.2210 H   0  0  0  0  0  0  0  0  0  0  0  0
  -24.9600  -22.5150   17.9970 H   0  0  0  0  0  0  0  0  0  0  0  0
  -29.1510  -20.8270   17.8330 C   0  0  0  0  0  2  0  0  0  0  0  0
  -29.9170  -19.9920   20.1350 C   0  0  0  0  0  3  0  0  0  0  0  0
  -28.9010  -18.4040   18.6090 C   0  0  0  0  0  3  0  0  0  0  0  0
  -30.1790  -18.9440   21.0400 C   0  0  0  0  0  3  0  0  0  0  0  0
  -29.1770  -17.3530   19.5090 C   0  0  0  0  0  3  0  0  0  0  0  0
  -29.2950  -19.7310   18.8980 C   0  0  0  0  0  0  0  0  0  0  0  0
  -29.8620  -17.6050   20.7210 C   0  0  0  0  0  0  0  0  0  0  0  0
  -31.6790  -16.6130   22.2530 C   0  0  0  0  0  1  0  0  0  0  0  0
  -30.2420  -16.4870   21.7070 C   0  0  0  0  0  3  0  0  0  0  0  0
  -30.5670  -14.3580   20.3180 C   0  0  0  0  0  0  0  0  0  0  0  0
  -30.2360  -12.3230   18.9520 C   0  0  0  0  0  2  0  0  0  0  0  0
  -29.2320  -12.6060   17.8150 C   0  0  0  0  0  2  0  0  0  0  0  0
  -27.7760  -12.4430   18.3010 C   0  0  0  0  0  2  0  0  0  0  0  0
  -27.5050  -13.2000   19.6260 C   0  0  0  0  0  3  0  0  0  0  0  0
  -28.5890  -12.8390   20.6630 C   0  0  0  0  0  2  0  0  0  0  0  0
  -29.9010  -13.1940   20.0860 N   0  0  0  0  0  0  0  0  0  0  0  0
  -31.5830  -14.6910   19.6980 O   0  0  0  0  0  0  0  0  0  0  0  0
  -29.9710  -15.1230   21.2510 N   0  0  0  0  0  0  0  0  0  0  0  0
  -29.1860  -14.6780   21.7030 H   0  0  0  0  0  0  0  0  0  0  0  0
  -25.1250  -13.8120   20.4020 C   0  0  0  0  0  0  0  0  0  0  0  0
  -24.0720  -13.0370   20.8100 C   0  0  0  0  0  0  0  0  0  0  0  0
  -24.5360  -11.6890   20.7630 C   0  0  0  0  0  0  0  0  0  0  0  0
  -26.1630  -12.9310   20.1380 N   0  0  0  0  0  0  0  0  0  0  0  0
  -25.8130  -11.6510   20.4090 N   0  0  0  0  0  0  0  0  0  0  0  0
  -23.8260  -10.4230   20.9810 C   0  0  0  0  0  0  0  0  0  0  0  0
  -24.2990   -9.4620   21.9020 C   0  0  0  0  0  3  0  0  0  0  0  0
  -23.5900   -8.2580   22.1060 C   0  0  0  0  0  3  0  0  0  0  0  0
  -22.3960   -8.0080   21.3910 C   0  0  0  0  0  0  0  0  0  0  0  0
  -21.9440   -8.9570   20.4570 C   0  0  0  0  0  3  0  0  0  0  0  0
  -22.6510  -10.1530   20.2520 C   0  0  0  0  0  3  0  0  0  0  0  0
  -21.6560   -6.8550   21.5030 O   0  0  0  0  0  0  0  0  0  0  0  0
  -21.6550   -6.1120   22.6550 C   0  0  0  0  0  0  0  0  0  0  0  0
  -21.2780   -6.6630   23.8990 C   0  0  0  0  0  3  0  0  0  0  0  0
  -21.2240   -5.8450   25.0440 C   0  0  0  0  0  3  0  0  0  0  0  0
  -21.5390   -4.4760   24.9480 C   0  0  0  0  0  0  0  0  0  0  0  0
  -21.9110   -3.9250   23.7090 C   0  0  0  0  0  3  0  0  0  0  0  0
  -21.9670   -4.7420   22.5650 C   0  0  0  0  0  0  0  0  0  0  0  0
  -22.3070   -4.2020   21.3700 F   0  0  0  0  0  0  0  0  0  0  0  0
  -21.4820   -3.6870   26.0460 F   0  0  0  0  0  0  0  0  0  0  0  0
  -22.6830  -13.5090   21.1300 C   0  0  0  0  0  0  0  0  0  0  0  0
  -21.9890  -12.8120   22.0240 N   0  0  0  0  0  0  0  0  0  0  0  0
  -22.2220  -14.5320   20.6260 O   0  0  0  0  0  0  0  0  0  0  0  0
  -22.3750  -11.9880   22.4620 H   0  0  0  0  0  0  0  0  0  0  0  0
  -21.0560  -13.1080   22.2790 H   0  0  0  0  0  0  0  0  0  0  0  0
  -25.2860  -15.1810   20.2200 N   0  0  0  0  0  0  0  0  0  0  0  0
  -24.5310  -15.8430   20.3630 H   0  0  0  0  0  0  0  0  0  0  0  0
  -26.1310  -15.6190   19.8780 H   0  0  0  0  0  0  0  0  0  0  0  0
  -28.9320  -23.0590   19.2190 C   0  0  0  0  0  2  0  0  0  0  0  0
  -28.6550  -24.5730   19.0110 C   0  0  0  0  0  2  0  0  0  0  0  0
  -28.4100  -25.3370   20.3270 C   0  0  0  0  0  2  0  0  0  0  0  0
  -28.4220  -26.7560   20.1420 O   0  0  0  0  0  0  0  0  0  0  0  0
  -24.5420  -31.8670   23.1940 C   0  0  0  0  0  0  0  0  0  0  0  0
  -27.2190  -27.4270   20.1460 C   0  0  0  0  0  0  0  0  0  0  0  0
  -23.3460  -30.4530   21.5500 C   0  0  0  0  0  3  0  0  0  0  0  0
  -24.8110  -28.9080   20.1480 C   0  0  0  0  0  0  0  0  0  0  0  0
  -25.8730  -30.8170   21.3680 C   0  0  0  0  0  2  0  0  0  0  0  0
  -25.9620  -29.4480   20.7320 C   0  0  0  0  0  0  0  0  0  0  0  0
  -27.1690  -28.7170   20.7180 C   0  0  0  0  0  3  0  0  0  0  0  0
  -26.0460  -26.8850   19.5760 C   0  0  0  0  0  3  0  0  0  0  0  0
  -24.8430  -27.6210   19.5750 C   0  0  0  0  0  3  0  0  0  0  0  0
  -23.5670  -29.7630   20.1760 C   0  0  0  0  0  2  0  0  0  0  0  0
  -24.6040  -31.0620   22.0970 N   0  0  0  0  0  0  0  0  0  0  0  0
  -23.4570  -32.1400   23.7260 O   0  0  0  0  0  0  0  0  0  0  0  0
  -22.6940  -29.4370   22.5140 C   0  0  0  0  0  0  0  0  0  0  0  0
  -21.3700  -29.2620   22.3870 N   0  0  0  0  0  0  0  0  0  0  0  0
  -23.3740  -28.8100   23.3300 O   0  0  0  0  0  0  0  0  0  0  0  0
  -20.8860  -29.8200   21.6980 H   0  0  0  0  0  0  0  0  0  0  0  0
  -17.9870  -28.0940   22.8900 C   0  0  0  0  0  0  0  0  0  0  0  0
  -20.5480  -28.3290   23.1550 C   0  0  0  0  0  3  0  0  0  0  0  0
  -20.6350  -26.8980   22.5710 C   0  0  0  0  0  2  0  0  0  0  0  0
  -19.5270  -26.5920   21.5600 C   0  0  0  0  0  2  0  0  0  0  0  0
  -18.1500  -26.7470   22.2080 C   0  0  0  0  0  2  0  0  0  0  0  0
  -19.1140  -28.8450   23.3200 C   0  0  0  0  0  0  0  0  0  0  0  0
  -18.9060  -30.1090   23.9130 C   0  0  0  0  0  3  0  0  0  0  0  0
  -17.6050  -30.6190   24.0890 C   0  0  0  0  0  3  0  0  0  0  0  0
  -16.4930  -29.8650   23.6760 C   0  0  0  0  0  3  0  0  0  0  0  0
  -16.6870  -28.6060   23.0810 C   0  0  0  0  0  3  0  0  0  0  0  0
  -25.8250  -32.4990   23.8190 C   0  0  0  0  0  3  0  0  0  0  0  0
  -25.5080  -33.8920   24.1640 N   0  0  0  0  0  0  0  0  0  0  0  0
  -25.8190  -34.9520   23.4080 C   0  0  0  0  0  0  0  0  0  0  0  0
  -26.4770  -34.8650   22.3680 O   0  0  0  0  0  0  0  0  0  0  0  0
  -24.9330  -34.0330   24.9790 H   0  0  0  0  0  0  0  0  0  0  0  0
  -24.0620  -36.7250   23.0840 C   0  0  0  0  0  1  0  0  0  0  0  0
  -25.3200  -36.3340   23.8780 C   0  0  0  0  0  3  0  0  0  0  0  0
  -27.4560  -37.2400   24.6810 C   0  0  0  0  0  1  0  0  0  0  0  0
  -26.3380  -37.4010   23.7570 N   0  0  0  0  0  0  0  0  0  0  0  0
  -25.9230  -38.3150   23.9150 H   0  0  0  0  0  0  0  0  0  0  0  0
  -26.3490  -31.7220   25.0860 C   0  0  1  0  0  0  0  0  0  0  0  0
  -25.2600  -31.4710   26.1550 C   0  0  0  0  0  1  0  0  0  0  0  0
  -26.9390  -30.3500   24.6820 C   0  0  0  0  0  1  0  0  0  0  0  0
  -27.4930  -32.5200   25.7550 C   0  0  0  0  0  1  0  0  0  0  0  0
  1  7  1  0
  1  2  1  0
  1 54  1  0
  2  4  2  0
  3  6  1  0
  3  2  1  0
  5  3  1  0
  7 12  1  0
  8 10  1  0
  9 12  1  0
  9 11  2  0
 11 13  1  0
 12  8  2  0
 13 10  2  0
 13 15  1  0
 15 14  1  0
 16 24  1  0
 17 22  1  0
 18 19  1  0
 18 17  1  0
 20 19  1  0
 20 29  1  0
 20 21  1  0
 22 16  1  0
 22 21  1  0
 23 16  2  0
 24 25  1  0
 24 15  1  0
 26 27  2  0
 27 46  1  0
 28 27  1  0
 28 31  1  0
 29 26  1  0
 29 30  1  0
 30 28  2  0
 31 32  1  0
 32 33  2  0
 34 37  1  0
 34 33  1  0
 35 34  2  0
 36 35  1  0
 36 31  2  0
 37 38  1  0
 38 39  1  0
 39 40  2  0
 41 40  1  0
 41 45  1  0
 42 41  2  0
 43 38  2  0
 43 42  1  0
 44 43  1  0
 46 47  1  0
 47 50  1  0
 47 49  1  0
 48 46  2  0
 51 52  1  0
 51 26  1  0
 53 51  1  0
 55 54  1  0
 55 56  1  0
 57 59  1  0
 57 56  1  0
 58 69  2  0
 59 64  1  0
 60 68  1  0
 60 70  1  0
 61 67  1  0
 61 63  1  0
 62 68  1  0
 63 62  1  0
 64 63  2  0
 65 59  2  0
 66 65  1  0
 66 61  2  0
 67 60  1  0
 68 58  1  0
 70 72  2  0
 71 70  1  0
 73 71  1  0
 74 83  2  0
 74 79  1  0
 75 71  1  0
 75 79  1  0
 76 75  1  0
 77 78  1  0
 77 76  1  0
 78 74  1  0
 79 80  2  0
 80 81  1  0
 82 81  2  0
 83 82  1  0
 84 58  1  0
 84 85  1  0
 84 94  1  0
 85 88  1  0
 86 90  1  0
 86 85  1  0
 87 86  2  0
 90 89  1  0
 92 90  1  0
 92 93  1  0
 92 91  1  0
 94 97  1  1
 94 95  1  0
 96 94  1  0
M  ISO  4  16 100  24 100  56 101  57 101
M  END
>  <TORSDO>  (38) 
F 23

>  <SCORE>  (38) 
-12.140

>  <name>  (38) 
38

>  <ligand_id>  (38) 
38

>  <original_smiles>  (38) 
[H]c1c([H])c([H])c2c(c1[H])C([H])([H])C([H])([H])C([H])([H])C2([H])N([H])C(=O)C1([H])N(C(=O)C([H])(N([H])C(=O)C([H])(N([H])C([H])([H])[H])C([H])([H])[H])C(C([H])([H])[H])(C([H])([H])[H])C([H])([H])[H])C([H])([H])c2c([H])c(OC([H])([H])C([H])([H])C([H])([H])C([H])(C(=O)N([H])[H])C([H])([H])c3c([H])c([H])c(C([H])(N([H])C(=O)N4C([H])([H])C([H])([H])C([H])([H])C([H])(n5nc(-c6c([H])c([H])c(Oc7c([H])c([H])c(F)c([H])c7F)c([H])c6[H])c(C(=O)N([H])[H])c5N([H])[H])C4([H])[H])C([H])([H])[H])c([H])c3[H])c([H])c([H])c2C1([H])[H]

>  <smiles>  (38) 
[H]c1c([H])c([H])c2c(c1[H])C([H])([H])C([H])([H])C([H])([H])C2([H])N([H])C(=O)C1([H])N(C(=O)C([H])(N([H])C(=O)C([H])(N([H])C([H])([H])[H])C([H])([H])[H])C(C([H])([H])[H])(C([H])([H])[H])C([H])([H])[H])C([H])([H])c2c([H])c(OC([H])([H])C([H])([H])C([H])([H])C([H])(C(=O)N([H])[H])C([H])([H])c3c([H])c([H])c(C([H])(N([H])C(=O)N4C([H])([H])C([H])([H])C([H])([H])C([H])(n5nc(-c6c([H])c([H])c(Oc7c([H])c([H])c(F)c([H])c7F)c([H])c6[H])c(C(=O)N([H])[H])c5N([H])[H])C4([H])[H])C([H])([H])[H])c([H])c3[H])c([H])c([H])c2C1([H])[H]

$$$$
39:0:0
     RDKit          3D

 93101  0  0  1  0  0  0  0  0999 V2000
  -30.0710  -20.6030   22.6440 N   0  0  0  0  0  4  0  0  0  0  0  0
  -29.1580  -20.2090   22.4750 H   0  0  0  0  0  0  0  0  0  0  0  0
  -30.5770  -20.6250   21.7730 H   0  0  0  0  0  0  0  0  0  0  0  0
  -30.7610  -19.6920   23.5820 C   0  0  0  0  0  2  0  0  0  0  0  0
  -30.5560  -18.2450   23.1160 C   0  0  0  0  0  0  0  0  0  0  0  0
  -29.5370  -17.6280   23.4340 O   0  0  0  0  0  0  0  0  0  0  0  0
  -31.5690  -14.6420   20.1400 C   0  0  0  0  0  0  0  0  0  0  0  0
  -31.0670  -12.5810   18.8910 C   0  0  0  0  0  2  0  0  0  0  0  0
  -30.0920  -12.9020   17.7420 C   0  0  0  0  0  2  0  0  0  0  0  0
  -28.6320  -12.8350   18.2320 C   0  0  0  0  0  2  0  0  0  0  0  0
  -28.3990  -13.6290   19.5460 C   0  0  0  0  0  3  0  0  0  0  0  0
  -29.4850  -13.2970   20.5940 C   0  0  0  0  0  2  0  0  0  0  0  0
  -30.8020  -13.5320   19.9780 N   0  0  0  0  0  0  0  0  0  0  0  0
  -32.6510  -14.8040   19.5680 O   0  0  0  0  0  0  0  0  0  0  0  0
  -31.4410  -18.0140   20.7270 C   0  0  0  0  0  2  0  0  0  0  0  0
  -30.6440  -16.8710   20.1000 C   0  0  0  0  0  2  0  0  0  0  0  0
  -31.5720  -16.0610   22.1300 C   0  0  0  0  0  2  0  0  0  0  0  0
  -31.6190  -17.6110   22.1920 C   0  0  0  0  0  3  0  0  0  0  0  0
  -31.0020  -15.6540   20.8350 N   0  0  0  0  0  0  0  0  0  0  0  0
  -26.0700  -14.3340   20.3840 C   0  0  0  0  0  0  0  0  0  0  0  0
  -24.9770  -13.6030   20.7720 C   0  0  0  0  0  0  0  0  0  0  0  0
  -25.3620  -12.2320   20.6670 C   0  0  0  0  0  0  0  0  0  0  0  0
  -27.0540  -13.4080   20.0730 N   0  0  0  0  0  0  0  0  0  0  0  0
  -26.6320  -12.1360   20.2970 N   0  0  0  0  0  0  0  0  0  0  0  0
  -24.5760  -11.0030   20.8410 C   0  0  0  0  0  0  0  0  0  0  0  0
  -24.9430  -10.0190   21.7860 C   0  0  0  0  0  3  0  0  0  0  0  0
  -24.1630   -8.8540   21.9480 C   0  0  0  0  0  3  0  0  0  0  0  0
  -22.9990   -8.6660   21.1640 C   0  0  0  0  0  0  0  0  0  0  0  0
  -22.6510   -9.6370   20.2080 C   0  0  0  0  0  3  0  0  0  0  0  0
  -23.4330  -10.7930   20.0450 C   0  0  0  0  0  3  0  0  0  0  0  0
  -22.1930   -7.5550   21.2360 O   0  0  0  0  0  0  0  0  0  0  0  0
  -21.9920   -6.8860   22.4160 C   0  0  0  0  0  0  0  0  0  0  0  0
  -21.4840   -7.5340   23.5640 C   0  0  0  0  0  3  0  0  0  0  0  0
  -21.2260   -6.7940   24.7350 C   0  0  0  0  0  3  0  0  0  0  0  0
  -21.4660   -5.4080   24.7590 C   0  0  0  0  0  0  0  0  0  0  0  0
  -21.9660   -4.7580   23.6160 C   0  0  0  0  0  3  0  0  0  0  0  0
  -22.2250   -5.4960   22.4480 C   0  0  0  0  0  0  0  0  0  0  0  0
  -22.6870   -4.8630   21.3430 F   0  0  0  0  0  0  0  0  0  0  0  0
  -21.2110   -4.6960   25.8810 F   0  0  0  0  0  0  0  0  0  0  0  0
  -23.6220  -14.1430   21.1290 C   0  0  0  0  0  0  0  0  0  0  0  0
  -22.9120  -13.4680   22.0280 N   0  0  0  0  0  0  0  0  0  0  0  0
  -23.2040  -15.1930   20.6460 O   0  0  0  0  0  0  0  0  0  0  0  0
  -23.2630  -12.6160   22.4400 H   0  0  0  0  0  0  0  0  0  0  0  0
  -22.0020  -13.8060   22.3060 H   0  0  0  0  0  0  0  0  0  0  0  0
  -26.3000  -15.7000   20.2530 N   0  0  0  0  0  0  0  0  0  0  0  0
  -25.5800  -16.3930   20.4230 H   0  0  0  0  0  0  0  0  0  0  0  0
  -27.1710  -16.1040   19.9330 H   0  0  0  0  0  0  0  0  0  0  0  0
  -29.9100  -21.9850   23.1480 C   0  0  0  0  0  2  0  0  0  0  0  0
  -29.2510  -22.9180   22.1100 C   0  0  0  0  0  2  0  0  0  0  0  0
  -28.9760  -24.3290   22.6720 C   0  0  0  0  0  2  0  0  0  0  0  0
  -28.3030  -25.2800   21.6610 C   0  0  0  0  0  2  0  0  0  0  0  0
  -29.2680  -26.2680   20.9750 C   0  0  0  0  0  2  0  0  0  0  0  0
  -28.7230  -26.7760   19.7580 O   0  0  0  0  0  0  0  0  0  0  0  0
  -24.7980  -31.6120   23.2380 C   0  0  0  0  0  0  0  0  0  0  0  0
  -27.5520  -27.4800   19.8700 C   0  0  0  0  0  0  0  0  0  0  0  0
  -23.6220  -30.2890   21.5090 C   0  0  0  0  0  3  0  0  0  0  0  0
  -25.1140  -28.8900   19.9850 C   0  0  0  0  0  0  0  0  0  0  0  0
  -26.1340  -30.7340   21.3310 C   0  0  0  0  0  2  0  0  0  0  0  0
  -26.2540  -29.4090   20.6110 C   0  0  0  0  0  0  0  0  0  0  0  0
  -27.4780  -28.7080   20.5610 C   0  0  0  0  0  3  0  0  0  0  0  0
  -26.4020  -26.9680   19.2370 C   0  0  0  0  0  3  0  0  0  0  0  0
  -25.1790  -27.6630   19.3010 C   0  0  0  0  0  3  0  0  0  0  0  0
  -23.8450  -29.7050   20.0870 C   0  0  0  0  0  2  0  0  0  0  0  0
  -24.8680  -30.8900   22.0850 N   0  0  0  0  0  0  0  0  0  0  0  0
  -23.7140  -31.8190   23.7990 O   0  0  0  0  0  0  0  0  0  0  0  0
  -23.0060  -29.1880   22.4010 C   0  0  0  0  0  0  0  0  0  0  0  0
  -21.6900  -28.9610   22.2480 N   0  0  0  0  0  0  0  0  0  0  0  0
  -23.7070  -28.5430   23.1860 O   0  0  0  0  0  0  0  0  0  0  0  0
  -21.1830  -29.5380   21.5910 H   0  0  0  0  0  0  0  0  0  0  0  0
  -18.3650  -27.6040   22.6190 C   0  0  0  0  0  0  0  0  0  0  0  0
  -20.9030  -27.9500   22.9530 C   0  0  0  0  0  3  0  0  0  0  0  0
  -21.0770  -26.5570   22.3030 C   0  0  0  0  0  2  0  0  0  0  0  0
  -20.0060  -26.2460   21.2540 C   0  0  0  0  0  2  0  0  0  0  0  0
  -18.6080  -26.3020   21.8770 C   0  0  0  0  0  2  0  0  0  0  0  0
  -19.4420  -28.3870   23.1110 C   0  0  0  0  0  0  0  0  0  0  0  0
  -19.1620  -29.6090   23.7590 C   0  0  0  0  0  3  0  0  0  0  0  0
  -17.8340  -30.0470   23.9250 C   0  0  0  0  0  3  0  0  0  0  0  0
  -16.7700  -29.2600   23.4520 C   0  0  0  0  0  3  0  0  0  0  0  0
  -17.0350  -28.0400   22.8040 C   0  0  0  0  0  3  0  0  0  0  0  0
  -26.0720  -32.2330   23.8930 C   0  0  0  0  0  3  0  0  0  0  0  0
  -26.6160  -31.3930   25.1130 C   0  0  1  0  0  0  0  0  0  0  0  0
  -25.5360  -31.0550   26.1660 C   0  0  0  0  0  1  0  0  0  0  0  0
  -27.2340  -30.0620   24.6250 C   0  0  0  0  0  1  0  0  0  0  0  0
  -27.7470  -32.1740   25.8240 C   0  0  0  0  0  1  0  0  0  0  0  0
  -25.7320  -33.6000   24.3110 N   0  0  0  0  0  0  0  0  0  0  0  0
  -26.0530  -34.7050   23.6260 C   0  0  0  0  0  0  0  0  0  0  0  0
  -26.7390  -34.6810   22.6000 O   0  0  0  0  0  0  0  0  0  0  0  0
  -25.1260  -33.6900   25.1120 H   0  0  0  0  0  0  0  0  0  0  0  0
  -24.2960  -36.4820   23.3580 C   0  0  0  0  0  1  0  0  0  0  0  0
  -25.5310  -36.0500   24.1640 C   0  0  0  0  0  3  0  0  0  0  0  0
  -27.6350  -36.9170   25.0880 C   0  0  0  0  0  1  0  0  0  0  0  0
  -26.5440  -37.1280   24.1390 N   0  0  0  0  0  0  0  0  0  0  0  0
  -26.1170  -38.0270   24.3440 H   0  0  0  0  0  0  0  0  0  0  0  0
  1 48  1  0
  1  4  1  0
  2  1  1  0
  3  1  1  0
  5  6  2  0
  5  4  1  0
  7 19  1  0
  8 13  1  0
  9 10  1  0
  9  8  1  0
 11 10  1  0
 11 23  1  0
 11 12  1  0
 13  7  1  0
 13 12  1  0
 14  7  2  0
 15 18  1  0
 16 15  1  0
 16 19  1  0
 17 18  1  0
 18  5  1  0
 19 17  1  0
 20 21  2  0
 21 40  1  0
 22 21  1  0
 22 25  1  0
 23 24  1  0
 23 20  1  0
 24 22  2  0
 25 26  1  0
 26 27  2  0
 28 31  1  0
 28 27  1  0
 29 28  2  0
 30 29  1  0
 30 25  2  0
 31 32  1  0
 32 37  2  0
 32 33  1  0
 33 34  2  0
 34 35  1  0
 35 39  1  0
 36 35  2  0
 37 36  1  0
 38 37  1  0
 40 41  1  0
 41 44  1  0
 41 43  1  0
 42 40  2  0
 45 20  1  0
 45 46  1  0
 47 45  1  0
 49 50  1  0
 49 48  1  0
 51 50  1  0
 52 51  1  0
 53 55  1  0
 53 52  1  0
 54 65  2  0
 55 60  1  0
 56 64  1  0
 56 66  1  0
 57 63  1  0
 57 59  1  0
 58 64  1  0
 59 58  1  0
 60 59  2  0
 61 62  1  0
 61 55  2  0
 62 57  2  0
 63 56  1  0
 64 54  1  0
 66 68  2  0
 67 66  1  0
 69 67  1  0
 70 79  2  0
 70 75  1  0
 71 67  1  0
 71 75  1  0
 72 71  1  0
 73 74  1  0
 73 72  1  0
 74 70  1  0
 75 76  2  0
 76 77  1  0
 78 77  2  0
 79 78  1  0
 80 54  1  0
 80 85  1  0
 80 81  1  0
 81 84  1  1
 81 82  1  0
 83 81  1  0
 85 88  1  0
 86 90  1  0
 86 85  1  0
 87 86  2  0
 90 89  1  0
 92 90  1  0
 92 93  1  0
 92 91  1  0
M  ISO  4   7 100  19 100  52 101  53 101
M  END
>  <TORSDO>  (39) 
F 23

>  <SCORE>  (39) 
-8.561

>  <name>  (39) 
39

>  <ligand_id>  (39) 
39

>  <original_smiles>  (39) 
[H]c1c([H])c([H])c2c(c1[H])C([H])([H])C([H])([H])C([H])([H])C2([H])N([H])C(=O)C1([H])N(C(=O)C([H])(N([H])C(=O)C([H])(N([H])C([H])([H])[H])C([H])([H])[H])C(C([H])([H])[H])(C([H])([H])[H])C([H])([H])[H])C([H])([H])c2c([H])c(OC([H])([H])C([H])([H])C([H])([H])C([H])([H])C([H])([H])[N+]([H])([H])C([H])([H])C(=O)C3([H])C([H])([H])N(C(=O)N4C([H])([H])C([H])([H])C([H])([H])C([H])(n5nc(-c6c([H])c([H])c(Oc7c([H])c([H])c(F)c([H])c7F)c([H])c6[H])c(C(=O)N([H])[H])c5N([H])[H])C4([H])[H])C([H])([H])C3([H])[H])c([H])c([H])c2C1([H])[H]

>  <smiles>  (39) 
[H]c1c([H])c([H])c2c(c1[H])C([H])([H])C([H])([H])C([H])([H])C2([H])N([H])C(=O)C1([H])N(C(=O)C([H])(N([H])C(=O)C([H])(N([H])C([H])([H])[H])C([H])([H])[H])C(C([H])([H])[H])(C([H])([H])[H])C([H])([H])[H])C([H])([H])c2c([H])c(OC([H])([H])C([H])([H])C([H])([H])C([H])([H])C([H])([H])[N+]([H])([H])C([H])([H])C(=O)C3([H])C([H])([H])N(C(=O)N4C([H])([H])C([H])([H])C([H])([H])C([H])(n5nc(-c6c([H])c([H])c(Oc7c([H])c([H])c(F)c([H])c7F)c([H])c6[H])c(C(=O)N([H])[H])c5N([H])[H])C4([H])[H])C([H])([H])C3([H])[H])c([H])c([H])c2C1([H])[H]

$$$$
40:0:0
     RDKit          3D

 86 93  0  0  1  0  0  0  0  0999 V2000
  -28.9800  -22.4790   21.0050 C   0  0  0  0  0  2  0  0  0  0  0  0
  -29.4790  -21.1600   20.2530 C   0  0  0  0  0  2  0  0  0  0  0  0
  -29.7850  -19.8400   21.1050 C   0  0  0  0  0  2  0  0  0  0  0  0
  -29.6010  -18.3990   20.4310 C   0  0  0  0  0  3  0  0  0  0  0  0
  -30.3280  -17.1550   21.1200 C   0  0  0  0  0  3  0  0  0  0  0  0
  -30.6110  -14.6570   20.4230 C   0  0  0  0  0  0  0  0  0  0  0  0
  -30.3530  -12.4260   19.3360 C   0  0  0  0  0  2  0  0  0  0  0  0
  -29.3940  -12.5250   18.1310 C   0  0  0  0  0  2  0  0  0  0  0  0
  -27.9300  -12.3690   18.5830 C   0  0  0  0  0  2  0  0  0  0  0  0
  -27.5880  -13.2500   19.8130 C   0  0  0  0  0  3  0  0  0  0  0  0
  -28.6560  -13.1200   20.9190 C   0  0  0  0  0  2  0  0  0  0  0  0
  -29.9530  -13.4560   20.3160 N   0  0  0  0  0  0  0  0  0  0  0  0
  -31.7780  -14.7790   20.0480 O   0  0  0  0  0  0  0  0  0  0  0  0
  -29.8720  -15.7510   20.8020 N   0  0  0  0  0  0  0  0  0  0  0  0
  -28.9080  -15.5450   21.0140 H   0  0  0  0  0  0  0  0  0  0  0  0
  -25.2090  -13.8580   20.5630 C   0  0  0  0  0  0  0  0  0  0  0  0
  -24.1410  -13.0890   20.9420 C   0  0  0  0  0  0  0  0  0  0  0  0
  -24.5980  -11.7360   20.9050 C   0  0  0  0  0  0  0  0  0  0  0  0
  -26.2460  -12.9730   20.3150 N   0  0  0  0  0  0  0  0  0  0  0  0
  -25.8850  -11.6930   20.5850 N   0  0  0  0  0  0  0  0  0  0  0  0
  -23.8680  -10.4760   21.0980 C   0  0  0  0  0  0  0  0  0  0  0  0
  -24.3260   -9.4880   21.9970 C   0  0  0  0  0  3  0  0  0  0  0  0
  -23.6000   -8.2930   22.1790 C   0  0  0  0  0  3  0  0  0  0  0  0
  -22.3980   -8.0770   21.4620 C   0  0  0  0  0  0  0  0  0  0  0  0
  -21.9580   -9.0530   20.5510 C   0  0  0  0  0  3  0  0  0  0  0  0
  -22.6870  -10.2400   20.3670 C   0  0  0  0  0  3  0  0  0  0  0  0
  -21.6380   -6.9350   21.5570 O   0  0  0  0  0  0  0  0  0  0  0  0
  -21.6480   -6.1560   22.6860 C   0  0  0  0  0  0  0  0  0  0  0  0
  -21.3270   -6.6810   23.9570 C   0  0  0  0  0  3  0  0  0  0  0  0
  -21.2820   -5.8290   25.0790 C   0  0  0  0  0  3  0  0  0  0  0  0
  -21.5480   -4.4540   24.9310 C   0  0  0  0  0  0  0  0  0  0  0  0
  -21.8650   -3.9300   23.6660 C   0  0  0  0  0  3  0  0  0  0  0  0
  -21.9110   -4.7790   22.5470 C   0  0  0  0  0  0  0  0  0  0  0  0
  -22.1940   -4.2640   21.3250 F   0  0  0  0  0  0  0  0  0  0  0  0
  -21.4990   -3.6350   26.0070 F   0  0  0  0  0  0  0  0  0  0  0  0
  -22.7490  -13.5720   21.2330 C   0  0  0  0  0  0  0  0  0  0  0  0
  -22.0320  -12.8730   22.1050 N   0  0  0  0  0  0  0  0  0  0  0  0
  -22.3080  -14.6000   20.7210 O   0  0  0  0  0  0  0  0  0  0  0  0
  -22.4030  -12.0400   22.5360 H   0  0  0  0  0  0  0  0  0  0  0  0
  -21.0970  -13.1720   22.3460 H   0  0  0  0  0  0  0  0  0  0  0  0
  -25.3790  -15.2290   20.3850 N   0  0  0  0  0  0  0  0  0  0  0  0
  -24.6160  -15.8890   20.4880 H   0  0  0  0  0  0  0  0  0  0  0  0
  -26.2250  -15.6560   20.0270 H   0  0  0  0  0  0  0  0  0  0  0  0
  -29.1500  -23.9070   20.2970 C   0  0  0  0  0  3  0  0  0  0  0  0
  -28.0460  -25.0230   20.5970 C   0  0  0  0  0  3  0  0  0  0  0  0
  -28.2900  -26.4390   20.1990 O   0  0  0  0  0  0  0  0  0  0  0  0
  -24.6070  -31.8740   23.2220 C   0  0  0  0  0  0  0  0  0  0  0  0
  -27.1830  -27.3050   20.1620 C   0  0  0  0  0  0  0  0  0  0  0  0
  -23.3870  -30.4750   21.5950 C   0  0  0  0  0  3  0  0  0  0  0  0
  -24.8260  -28.9290   20.1560 C   0  0  0  0  0  0  0  0  0  0  0  0
  -25.9260  -30.7960   21.3860 C   0  0  0  0  0  2  0  0  0  0  0  0
  -26.0020  -29.4170   20.7410 C   0  0  0  0  0  0  0  0  0  0  0  0
  -27.1820  -28.6140   20.7330 C   0  0  0  0  0  3  0  0  0  0  0  0
  -25.9900  -26.8820   19.5320 C   0  0  0  0  0  3  0  0  0  0  0  0
  -24.8260  -27.6700   19.5400 C   0  0  0  0  0  3  0  0  0  0  0  0
  -23.5900  -29.8020   20.2120 C   0  0  0  0  0  2  0  0  0  0  0  0
  -24.6590  -31.0640   22.1250 N   0  0  0  0  0  0  0  0  0  0  0  0
  -23.5260  -32.1490   23.7670 O   0  0  0  0  0  0  0  0  0  0  0  0
  -22.7380  -29.4550   22.5610 C   0  0  0  0  0  0  0  0  0  0  0  0
  -21.4090  -29.2770   22.4470 N   0  0  0  0  0  0  0  0  0  0  0  0
  -23.4250  -28.8260   23.3720 O   0  0  0  0  0  0  0  0  0  0  0  0
  -20.9090  -29.8350   21.7690 H   0  0  0  0  0  0  0  0  0  0  0  0
  -18.0390  -28.0670   22.9680 C   0  0  0  0  0  0  0  0  0  0  0  0
  -20.5960  -28.3400   23.2270 C   0  0  0  0  0  3  0  0  0  0  0  0
  -20.7040  -26.9030   22.6660 C   0  0  0  0  0  2  0  0  0  0  0  0
  -19.6020  -26.5660   21.6570 C   0  0  0  0  0  2  0  0  0  0  0  0
  -18.2210  -26.7140   22.3010 C   0  0  0  0  0  2  0  0  0  0  0  0
  -19.1560  -28.8390   23.3880 C   0  0  0  0  0  0  0  0  0  0  0  0
  -18.9340  -30.1050   23.9690 C   0  0  0  0  0  3  0  0  0  0  0  0
  -17.6270  -30.6010   24.1370 C   0  0  0  0  0  3  0  0  0  0  0  0
  -16.5240  -29.8270   23.7350 C   0  0  0  0  0  3  0  0  0  0  0  0
  -16.7320  -28.5620   23.1540 C   0  0  0  0  0  3  0  0  0  0  0  0
  -25.8940  -32.5120   23.8280 C   0  0  0  0  0  3  0  0  0  0  0  0
  -26.4370  -31.7360   25.0900 C   0  0  1  0  0  0  0  0  0  0  0  0
  -25.3620  -31.4850   26.1750 C   0  0  0  0  0  1  0  0  0  0  0  0
  -27.0210  -30.3640   24.6790 C   0  0  0  0  0  1  0  0  0  0  0  0
  -27.5940  -32.5300   25.7380 C   0  0  0  0  0  1  0  0  0  0  0  0
  -25.5800  -33.9050   24.1760 N   0  0  0  0  0  0  0  0  0  0  0  0
  -25.8920  -34.9660   23.4210 C   0  0  0  0  0  0  0  0  0  0  0  0
  -26.5470  -34.8760   22.3760 O   0  0  0  0  0  0  0  0  0  0  0  0
  -25.0000  -34.0500   24.9900 H   0  0  0  0  0  0  0  0  0  0  0  0
  -24.1420  -36.7460   23.1190 C   0  0  0  0  0  1  0  0  0  0  0  0
  -25.4020  -36.3450   23.9010 C   0  0  0  0  0  3  0  0  0  0  0  0
  -27.5490  -37.2370   24.6910 C   0  0  0  0  0  1  0  0  0  0  0  0
  -26.4230  -37.4100   23.7780 N   0  0  0  0  0  0  0  0  0  0  0  0
  -26.0130  -38.3230   23.9600 H   0  0  0  0  0  0  0  0  0  0  0  0
  2  1  1  0
  2  3  1  0
  4  3  1  0
  4  5  2  0
  6 14  1  0
  7 12  1  0
  8  9  1  0
  8  7  1  0
 10  9  1  0
 10 19  1  0
 10 11  1  0
 12  6  1  0
 12 11  1  0
 13  6  2  0
 14 15  1  0
 14  5  1  0
 16 17  2  0
 17 36  1  0
 18 17  1  0
 18 21  1  0
 19 16  1  0
 19 20  1  0
 20 18  2  0
 21 22  1  0
 22 23  2  0
 24 27  1  0
 24 23  1  0
 25 24  2  0
 26 25  1  0
 26 21  2  0
 27 28  1  0
 28 29  1  0
 29 30  2  0
 31 30  1  0
 31 35  1  0
 32 31  2  0
 33 28  2  0
 33 32  1  0
 34 33  1  0
 36 37  1  0
 37 40  1  0
 37 39  1  0
 38 36  2  0
 41 42  1  0
 41 16  1  0
 43 41  1  0
 44 45  2  0
 44  1  1  0
 46 45  1  0
 47 58  2  0
 48 46  1  0
 48 53  1  0
 49 57  1  0
 49 59  1  0
 50 56  1  0
 50 52  1  0
 51 57  1  0
 52 51  1  0
 53 52  2  0
 54 55  1  0
 54 48  2  0
 55 50  2  0
 56 49  1  0
 57 47  1  0
 59 61  2  0
 60 59  1  0
 62 60  1  0
 63 72  2  0
 63 68  1  0
 64 60  1  0
 64 68  1  0
 65 64  1  0
 66 67  1  0
 66 65  1  0
 67 63  1  0
 68 69  2  0
 69 70  1  0
 71 70  2  0
 72 71  1  0
 73 47  1  0
 73 78  1  0
 73 74  1  0
 74 77  1  1
 74 75  1  0
 76 74  1  0
 78 81  1  0
 79 83  1  0
 79 78  1  0
 80 79  2  0
 83 82  1  0
 85 83  1  0
 85 86  1  0
 85 84  1  0
M  ISO  4   6 100  14 100  45 101  46 101
M  END
>  <TORSDO>  (40) 
F 22

>  <SCORE>  (40) 
-12.815

>  <name>  (40) 
40

>  <ligand_id>  (40) 
40

>  <original_smiles>  (40) 
[H]c1c([H])c([H])c2c(c1[H])C([H])([H])C([H])([H])C([H])([H])C2([H])N([H])C(=O)C1([H])N(C(=O)C([H])(N([H])C(=O)C([H])(N([H])C([H])([H])[H])C([H])([H])[H])C(C([H])([H])[H])(C([H])([H])[H])C([H])([H])[H])C([H])([H])c2c([H])c(OC([H])([H])C([H])([H])C([H])([H])C([H])([H])C([H])([H])C([H])([H])C([H])([H])N([H])C(=O)N3C([H])([H])C([H])([H])C([H])([H])C([H])(n4nc(-c5c([H])c([H])c(Oc6c([H])c([H])c(F)c([H])c6F)c([H])c5[H])c(C(=O)N([H])[H])c4N([H])[H])C3([H])[H])c([H])c([H])c2C1([H])[H]

>  <smiles>  (40) 
[H]c1c([H])c([H])c2c(c1[H])C([H])([H])C([H])([H])C([H])([H])C2([H])N([H])C(=O)C1([H])N(C(=O)C([H])(N([H])C(=O)C([H])(N([H])C([H])([H])[H])C([H])([H])[H])C(C([H])([H])[H])(C([H])([H])[H])C([H])([H])[H])C([H])([H])c2c([H])c(OC([H])([H])C([H])([H])C([H])([H])C([H])([H])C([H])([H])C([H])([H])C([H])([H])N([H])C(=O)N3C([H])([H])C([H])([H])C([H])([H])C([H])(n4nc(-c5c([H])c([H])c(Oc6c([H])c([H])c(F)c([H])c6F)c([H])c5[H])c(C(=O)N([H])[H])c4N([H])[H])C3([H])[H])c([H])c([H])c2C1([H])[H]

$$$$
41:0:0
     RDKit          3D

 99107  0  0  1  0  0  0  0  0999 V2000
  -28.6140  -18.8780   20.6070 C   0  0  0  0  0  2  0  0  0  0  0  0
  -29.4170  -20.1670   20.8830 C   0  0  0  0  0  2  0  0  0  0  0  0
  -31.5300  -18.9130   20.8990 C   0  0  0  0  0  2  0  0  0  0  0  0
  -30.7990  -17.5790   20.6070 C   0  0  0  0  0  3  0  0  0  0  0  0
  -29.3210  -17.5990   21.1060 C   0  0  0  0  0  3  0  0  0  0  0  0
  -30.7960  -20.0780   20.3340 N   0  0  2  0  0  4  0  0  0  0  0  0
  -30.7150  -19.9040   19.3420 H   0  0  0  0  0  0  0  0  0  0  0  0
  -29.1600  -17.4010   22.5680 N   0  0  0  0  0  4  0  0  0  0  0  0
  -29.6050  -18.1100   23.1230 H   0  0  0  0  0  0  0  0  0  0  0  0
  -29.5190  -16.5080   22.8560 H   0  0  0  0  0  0  0  0  0  0  0  0
  -28.1820  -17.3960   22.8030 H   0  0  0  0  0  0  0  0  0  0  0  0
  -31.6320  -16.3530   21.0640 C   0  0  0  0  0  2  0  0  0  0  0  0
  -31.2950  -14.3080   19.6660 C   0  0  0  0  0  0  0  0  0  0  0  0
  -30.7780  -12.1730   18.5450 C   0  0  0  0  0  2  0  0  0  0  0  0
  -29.7430  -12.3430   17.4170 C   0  0  0  0  0  2  0  0  0  0  0  0
  -28.3090  -12.2780   17.9750 C   0  0  0  0  0  2  0  0  0  0  0  0
  -28.1030  -13.2090   19.1990 C   0  0  0  0  0  3  0  0  0  0  0  0
  -29.2270  -12.9910   20.2350 C   0  0  0  0  0  2  0  0  0  0  0  0
  -30.5300  -13.1940   19.5700 N   0  0  0  0  0  0  0  0  0  0  0  0
  -32.2180  -14.5800   18.8930 O   0  0  0  0  0  0  0  0  0  0  0  0
  -31.0010  -15.0820   20.7180 N   0  0  0  0  0  0  0  0  0  0  0  0
  -30.3080  -14.7010   21.3480 H   0  0  0  0  0  0  0  0  0  0  0  0
  -25.8100  -13.9670   20.0960 C   0  0  0  0  0  0  0  0  0  0  0  0
  -24.7360  -13.2620   20.5720 C   0  0  0  0  0  0  0  0  0  0  0  0
  -25.1170  -11.8850   20.5250 C   0  0  0  0  0  0  0  0  0  0  0  0
  -26.7800  -13.0240   19.7920 N   0  0  0  0  0  0  0  0  0  0  0  0
  -26.3700  -11.7680   20.1040 N   0  0  0  0  0  0  0  0  0  0  0  0
  -24.3440  -10.6680   20.8020 C   0  0  0  0  0  0  0  0  0  0  0  0
  -24.7530   -9.7390   21.7840 C   0  0  0  0  0  3  0  0  0  0  0  0
  -23.9830   -8.5850   22.0440 C   0  0  0  0  0  3  0  0  0  0  0  0
  -22.7890   -8.3520   21.3200 C   0  0  0  0  0  0  0  0  0  0  0  0
  -22.3980   -9.2660   20.3280 C   0  0  0  0  0  3  0  0  0  0  0  0
  -23.1690  -10.4120   20.0660 C   0  0  0  0  0  3  0  0  0  0  0  0
  -21.9930   -7.2450   21.4860 O   0  0  0  0  0  0  0  0  0  0  0  0
  -21.8590   -6.6280   22.7050 C   0  0  0  0  0  0  0  0  0  0  0  0
  -21.3940   -7.3220   23.8430 C   0  0  0  0  0  3  0  0  0  0  0  0
  -21.2060   -6.6350   25.0580 C   0  0  0  0  0  3  0  0  0  0  0  0
  -21.4740   -5.2540   25.1360 C   0  0  0  0  0  0  0  0  0  0  0  0
  -21.9340   -4.5610   24.0020 C   0  0  0  0  0  3  0  0  0  0  0  0
  -22.1240   -5.2470   22.7890 C   0  0  0  0  0  0  0  0  0  0  0  0
  -22.5460   -4.5690   21.6950 F   0  0  0  0  0  0  0  0  0  0  0  0
  -21.2880   -4.5910   26.3000 F   0  0  0  0  0  0  0  0  0  0  0  0
  -23.3970  -13.8200   20.9590 C   0  0  0  0  0  0  0  0  0  0  0  0
  -22.7210  -13.1870   21.9120 N   0  0  0  0  0  0  0  0  0  0  0  0
  -22.9610  -14.8510   20.4470 O   0  0  0  0  0  0  0  0  0  0  0  0
  -23.0860  -12.3510   22.3430 H   0  0  0  0  0  0  0  0  0  0  0  0
  -21.8250  -13.5440   22.2130 H   0  0  0  0  0  0  0  0  0  0  0  0
  -26.0350  -15.3230   19.8780 N   0  0  0  0  0  0  0  0  0  0  0  0
  -25.2850  -16.0010   19.9760 H   0  0  0  0  0  0  0  0  0  0  0  0
  -26.8140  -15.6730   19.3360 H   0  0  0  0  0  0  0  0  0  0  0  0
  -31.5700  -21.3440   20.4310 C   0  0  0  0  0  2  0  0  0  0  0  0
  -31.0410  -22.4360   19.4730 C   0  0  0  0  0  2  0  0  0  0  0  0
  -31.9900  -23.6350   19.3270 C   0  0  0  0  0  2  0  0  0  0  0  0
  -31.5200  -24.6460   18.2590 C   0  0  0  0  0  2  0  0  0  0  0  0
  -30.2170  -25.3990   18.6100 C   0  0  0  0  0  2  0  0  0  0  0  0
  -30.3450  -26.3890   19.7730 C   0  0  0  0  0  0  0  0  0  0  0  0
  -31.4360  -26.6310   20.2980 O   0  0  0  0  0  0  0  0  0  0  0  0
  -29.0860  -27.1190   20.2490 C   0  0  0  0  0  2  0  0  0  0  0  0
  -27.9420  -26.7780   19.4600 O   0  0  0  0  0  0  0  0  0  0  0  0
  -24.5040  -31.8870   23.0650 C   0  0  0  0  0  0  0  0  0  0  0  0
  -26.8160  -27.5540   19.6290 C   0  0  0  0  0  0  0  0  0  0  0  0
  -23.1350  -30.5830   21.4620 C   0  0  0  0  0  3  0  0  0  0  0  0
  -24.4380  -29.0700   19.8730 C   0  0  0  0  0  0  0  0  0  0  0  0
  -25.6340  -30.9080   21.0770 C   0  0  0  0  0  2  0  0  0  0  0  0
  -25.6370  -29.5600   20.3960 C   0  0  0  0  0  0  0  0  0  0  0  0
  -26.8220  -28.8090   20.2850 C   0  0  0  0  0  3  0  0  0  0  0  0
  -25.5980  -27.0740   19.1010 C   0  0  0  0  0  3  0  0  0  0  0  0
  -24.4080  -27.8210   19.2270 C   0  0  0  0  0  3  0  0  0  0  0  0
  -23.2170  -29.9460   20.0470 C   0  0  0  0  0  2  0  0  0  0  0  0
  -24.4480  -31.1380   21.9260 N   0  0  0  0  0  0  0  0  0  0  0  0
  -23.4780  -32.1640   23.6990 O   0  0  0  0  0  0  0  0  0  0  0  0
  -22.5360  -29.5420   22.4320 C   0  0  0  0  0  0  0  0  0  0  0  0
  -21.2040  -29.3760   22.3790 N   0  0  0  0  0  0  0  0  0  0  0  0
  -23.2620  -28.8860   23.1830 O   0  0  0  0  0  0  0  0  0  0  0  0
  -20.6780  -29.9560   21.7380 H   0  0  0  0  0  0  0  0  0  0  0  0
  -17.8600  -28.1710   22.9910 C   0  0  0  0  0  0  0  0  0  0  0  0
  -20.4250  -28.4250   23.1660 C   0  0  0  0  0  3  0  0  0  0  0  0
  -20.5070  -27.0040   22.5590 C   0  0  0  0  0  2  0  0  0  0  0  0
  -19.3650  -26.6980   21.5860 C   0  0  0  0  0  2  0  0  0  0  0  0
  -18.0090  -26.8330   22.2880 C   0  0  0  0  0  2  0  0  0  0  0  0
  -18.9950  -28.9240   23.3910 C   0  0  0  0  0  0  0  0  0  0  0  0
  -18.8020  -30.1810   24.0070 C   0  0  0  0  0  3  0  0  0  0  0  0
  -17.5040  -30.6800   24.2300 C   0  0  0  0  0  3  0  0  0  0  0  0
  -16.3840  -29.9190   23.8510 C   0  0  0  0  0  3  0  0  0  0  0  0
  -16.5620  -28.6680   23.2360 C   0  0  0  0  0  3  0  0  0  0  0  0
  -25.8550  -32.4570   23.6050 C   0  0  0  0  0  3  0  0  0  0  0  0
  -26.4560  -31.6120   24.7940 C   0  0  1  0  0  0  0  0  0  0  0  0
  -25.4500  -31.3480   25.9390 C   0  0  0  0  0  1  0  0  0  0  0  0
  -26.9610  -30.2430   24.2820 C   0  0  0  0  0  1  0  0  0  0  0  0
  -27.6800  -32.3430   25.3950 C   0  0  0  0  0  1  0  0  0  0  0  0
  -25.6170  -33.8440   24.0230 N   0  0  0  0  0  0  0  0  0  0  0  0
  -25.9310  -34.9210   23.2890 C   0  0  0  0  0  0  0  0  0  0  0  0
  -26.5260  -34.8460   22.2100 O   0  0  0  0  0  0  0  0  0  0  0  0
  -25.0880  -33.9760   24.8720 H   0  0  0  0  0  0  0  0  0  0  0  0
  -24.2410  -36.7700   23.1340 C   0  0  0  0  0  1  0  0  0  0  0  0
  -25.5190  -36.2960   23.8420 C   0  0  0  0  0  3  0  0  0  0  0  0
  -27.7320  -37.0800   24.5650 C   0  0  0  0  0  1  0  0  0  0  0  0
  -26.5740  -37.3250   23.7080 N   0  0  0  0  0  0  0  0  0  0  0  0
  -26.2070  -38.2460   23.9290 H   0  0  0  0  0  0  0  0  0  0  0  0
  1  2  1  0
  1  5  1  0
  4  3  1  0
  4 12  1  0
  4  5  1  0
  5  8  1  0
  6 51  1  0
  6  2  1  0
  6  3  1  0
  6  7  1  6
  8 11  1  0
  8 10  1  0
  8  9  1  0
 13 21  1  0
 14 19  1  0
 15 16  1  0
 15 14  1  0
 17 16  1  0
 17 26  1  0
 17 18  1  0
 19 13  1  0
 19 18  1  0
 20 13  2  0
 21 12  1  0
 21 22  1  0
 23 24  2  0
 24 43  1  0
 25 24  1  0
 25 28  1  0
 26 23  1  0
 26 27  1  0
 27 25  2  0
 28 29  1  0
 29 30  2  0
 31 34  1  0
 31 30  1  0
 32 31  2  0
 33 32  1  0
 33 28  2  0
 34 35  1  0
 35 40  2  0
 35 36  1  0
 36 37  2  0
 37 38  1  0
 38 42  1  0
 39 38  2  0
 40 39  1  0
 41 40  1  0
 43 44  1  0
 44 47  1  0
 44 46  1  0
 45 43  2  0
 48 49  1  0
 48 23  1  0
 50 48  1  0
 52 51  1  0
 53 52  1  0
 54 55  1  0
 54 53  1  0
 55 56  1  0
 56 58  1  0
 56 57  2  0
 59 61  1  0
 59 58  1  0
 60 71  2  0
 61 66  1  0
 62 70  1  0
 62 72  1  0
 63 69  1  0
 63 65  1  0
 64 70  1  0
 65 64  1  0
 66 65  2  0
 67 68  1  0
 67 61  2  0
 68 63  2  0
 69 62  1  0
 70 60  1  0
 72 74  2  0
 73 72  1  0
 75 73  1  0
 76 85  2  0
 76 81  1  0
 77 73  1  0
 77 81  1  0
 78 77  1  0
 79 80  1  0
 79 78  1  0
 80 76  1  0
 81 82  2  0
 82 83  1  0
 84 83  2  0
 85 84  1  0
 86 60  1  0
 86 91  1  0
 86 87  1  0
 87 90  1  1
 87 88  1  0
 89 87  1  0
 91 94  1  0
 92 96  1  0
 92 91  1  0
 93 92  2  0
 96 95  1  0
 98 96  1  0
 98 99  1  0
 98 97  1  0
M  ISO  4  13 100  21 100  58 101  59 101
M  END
>  <TORSDO>  (41) 
F 25

>  <SCORE>  (41) 
-9.593

>  <name>  (41) 
41

>  <ligand_id>  (41) 
41

>  <original_smiles>  (41) 
[H]c1c([H])c([H])c2c(c1[H])C([H])([H])C([H])([H])C([H])([H])C2([H])N([H])C(=O)C1([H])N(C(=O)C([H])(N([H])C(=O)C([H])(N([H])C([H])([H])[H])C([H])([H])[H])C(C([H])([H])[H])(C([H])([H])[H])C([H])([H])[H])C([H])([H])c2c([H])c(OC([H])([H])C(=O)C([H])([H])C([H])([H])C([H])([H])C([H])([H])C([H])([H])[N+]3([H])C([H])([H])C([H])([H])C([H])([N+]([H])([H])[H])C([H])(C([H])([H])N([H])C(=O)N4C([H])([H])C([H])([H])C([H])([H])C([H])(n5nc(-c6c([H])c([H])c(Oc7c([H])c([H])c(F)c([H])c7F)c([H])c6[H])c(C(=O)N([H])[H])c5N([H])[H])C4([H])[H])C3([H])[H])c([H])c([H])c2C1([H])[H]

>  <smiles>  (41) 
[H]c1c([H])c([H])c2c(c1[H])C([H])([H])C([H])([H])C([H])([H])C2([H])N([H])C(=O)C1([H])N(C(=O)C([H])(N([H])C(=O)C([H])(N([H])C([H])([H])[H])C([H])([H])[H])C(C([H])([H])[H])(C([H])([H])[H])C([H])([H])[H])C([H])([H])c2c([H])c(OC([H])([H])C(=O)C([H])([H])C([H])([H])C([H])([H])C([H])([H])C([H])([H])[N+]3([H])C([H])([H])C([H])([H])C([H])([N+]([H])([H])[H])C([H])(C([H])([H])N([H])C(=O)N4C([H])([H])C([H])([H])C([H])([H])C([H])(n5nc(-c6c([H])c([H])c(Oc7c([H])c([H])c(F)c([H])c7F)c([H])c6[H])c(C(=O)N([H])[H])c5N([H])[H])C4([H])[H])C3([H])[H])c([H])c([H])c2C1([H])[H]

$$$$
42:0:0
     RDKit          3D

 92100  0  0  1  0  0  0  0  0999 V2000
  -29.8590  -21.2540   21.2350 N   0  0  0  0  0  4  0  0  0  0  0  0
  -30.7290  -21.0570   20.7670 H   0  0  0  0  0  0  0  0  0  0  0  0
  -30.1030  -21.6560   22.1250 H   0  0  0  0  0  0  0  0  0  0  0  0
  -29.1400  -19.9950   21.5550 C   0  0  0  0  0  2  0  0  0  0  0  0
  -28.9930  -18.9910   20.3850 C   0  0  0  0  0  2  0  0  0  0  0  0
  -31.7850  -14.7850   20.0370 C   0  0  0  0  0  0  0  0  0  0  0  0
  -31.5340  -12.4040   19.4760 C   0  0  0  0  0  2  0  0  0  0  0  0
  -30.6480  -12.2910   18.2180 C   0  0  0  0  0  2  0  0  0  0  0  0
  -29.1540  -12.2590   18.6000 C   0  0  0  0  0  2  0  0  0  0  0  0
  -28.7640  -13.3750   19.6090 C   0  0  0  0  0  3  0  0  0  0  0  0
  -29.7730  -13.4400   20.7790 C   0  0  0  0  0  2  0  0  0  0  0  0
  -31.1080  -13.6140   20.1940 N   0  0  0  0  0  0  0  0  0  0  0  0
  -32.9890  -14.7930   19.7560 O   0  0  0  0  0  0  0  0  0  0  0  0
  -30.5880  -18.0000   18.6410 C   0  0  0  0  0  2  0  0  0  0  0  0
  -30.1200  -16.6190   20.5370 C   0  0  0  0  0  2  0  0  0  0  0  0
  -30.2360  -18.1010   20.1170 C   0  0  0  0  0  3  0  0  0  0  0  0
  -31.4440  -16.7370   18.5520 C   0  0  0  0  0  3  0  0  0  0  0  0
  -31.3290  -16.0610   17.1730 C   0  0  0  0  0  1  0  0  0  0  0  0
  -31.0240  -15.8540   19.6600 N   0  0  0  0  0  0  0  0  0  0  0  0
  -26.4230  -14.1830   20.3040 C   0  0  0  0  0  0  0  0  0  0  0  0
  -25.2940  -13.5040   20.6740 C   0  0  0  0  0  0  0  0  0  0  0  0
  -25.6420  -12.1200   20.6540 C   0  0  0  0  0  0  0  0  0  0  0  0
  -27.3930  -13.2170   20.0850 N   0  0  0  0  0  0  0  0  0  0  0  0
  -26.9260  -11.9720   20.3540 N   0  0  0  0  0  0  0  0  0  0  0  0
  -24.8130  -10.9230   20.8460 C   0  0  0  0  0  0  0  0  0  0  0  0
  -25.1300   -9.9570   21.8280 C   0  0  0  0  0  3  0  0  0  0  0  0
  -24.3100   -8.8230   22.0060 C   0  0  0  0  0  3  0  0  0  0  0  0
  -23.1580   -8.6460   21.2030 C   0  0  0  0  0  0  0  0  0  0  0  0
  -22.8600   -9.5980   20.2120 C   0  0  0  0  0  3  0  0  0  0  0  0
  -23.6800  -10.7250   20.0320 C   0  0  0  0  0  3  0  0  0  0  0  0
  -22.3180   -7.5630   21.2880 O   0  0  0  0  0  0  0  0  0  0  0  0
  -22.0690   -6.9370   22.4820 C   0  0  0  0  0  0  0  0  0  0  0  0
  -21.5050   -7.6230   23.5800 C   0  0  0  0  0  3  0  0  0  0  0  0
  -21.2030   -6.9250   24.7670 C   0  0  0  0  0  3  0  0  0  0  0  0
  -21.4550   -5.5420   24.8530 C   0  0  0  0  0  0  0  0  0  0  0  0
  -22.0110   -4.8570   23.7600 C   0  0  0  0  0  3  0  0  0  0  0  0
  -22.3150   -5.5530   22.5760 C   0  0  0  0  0  0  0  0  0  0  0  0
  -22.8320   -4.8840   21.5180 F   0  0  0  0  0  0  0  0  0  0  0  0
  -21.1570   -4.8690   25.9910 F   0  0  0  0  0  0  0  0  0  0  0  0
  -23.9390  -14.0970   20.9320 C   0  0  0  0  0  0  0  0  0  0  0  0
  -23.1730  -13.5030   21.8400 N   0  0  0  0  0  0  0  0  0  0  0  0
  -23.5700  -15.1230   20.3610 O   0  0  0  0  0  0  0  0  0  0  0  0
  -23.4840  -12.6740   22.3250 H   0  0  0  0  0  0  0  0  0  0  0  0
  -22.2610  -13.8810   22.0530 H   0  0  0  0  0  0  0  0  0  0  0  0
  -26.7010  -15.5330   20.1130 N   0  0  0  0  0  0  0  0  0  0  0  0
  -25.9920  -16.2510   20.2100 H   0  0  0  0  0  0  0  0  0  0  0  0
  -27.5810  -15.8890   19.7640 H   0  0  0  0  0  0  0  0  0  0  0  0
  -29.1140  -22.3020   20.4930 C   0  0  0  0  0  2  0  0  0  0  0  0
  -29.3770  -23.7020   21.1030 C   0  0  0  0  0  2  0  0  0  0  0  0
  -28.8150  -24.9020   20.3040 C   0  0  0  0  0  2  0  0  0  0  0  0
  -29.1570  -26.2550   20.9740 C   0  0  0  0  0  2  0  0  0  0  0  0
  -28.9800  -27.3800   20.1120 O   0  0  0  0  0  0  0  0  0  0  0  0
  -24.6060  -31.9640   23.3850 C   0  0  0  0  0  0  0  0  0  0  0  0
  -27.7510  -27.9870   20.1650 C   0  0  0  0  0  0  0  0  0  0  0  0
  -23.5950  -30.5780   21.6000 C   0  0  0  0  0  3  0  0  0  0  0  0
  -25.2370  -29.2670   20.1550 C   0  0  0  0  0  0  0  0  0  0  0  0
  -26.0810  -31.1680   21.5410 C   0  0  0  0  0  2  0  0  0  0  0  0
  -26.3160  -29.8500   20.8310 C   0  0  0  0  0  0  0  0  0  0  0  0
  -27.5780  -29.2170   20.8380 C   0  0  0  0  0  3  0  0  0  0  0  0
  -26.6610  -27.4090   19.4870 C   0  0  0  0  0  3  0  0  0  0  0  0
  -25.4020  -28.0410   19.4830 C   0  0  0  0  0  3  0  0  0  0  0  0
  -23.9220  -30.0120   20.1920 C   0  0  0  0  0  2  0  0  0  0  0  0
  -24.7750  -31.2490   22.2370 N   0  0  0  0  0  0  0  0  0  0  0  0
  -23.4840  -32.1060   23.8920 O   0  0  0  0  0  0  0  0  0  0  0  0
  -22.9980  -29.4420   22.4630 C   0  0  0  0  0  0  0  0  0  0  0  0
  -21.7020  -29.1570   22.2610 N   0  0  0  0  0  0  0  0  0  0  0  0
  -23.7010  -28.8250   23.2680 O   0  0  0  0  0  0  0  0  0  0  0  0
  -21.1950  -29.7150   21.5890 H   0  0  0  0  0  0  0  0  0  0  0  0
  -18.4170  -27.6850   22.5580 C   0  0  0  0  0  0  0  0  0  0  0  0
  -20.9400  -28.1040   22.9300 C   0  0  0  0  0  3  0  0  0  0  0  0
  -21.1650  -26.7360   22.2460 C   0  0  0  0  0  2  0  0  0  0  0  0
  -20.1160  -26.4170   21.1760 C   0  0  0  0  0  2  0  0  0  0  0  0
  -18.7100  -26.4100   21.7850 C   0  0  0  0  0  2  0  0  0  0  0  0
  -19.4640  -28.4880   23.0810 C   0  0  0  0  0  0  0  0  0  0  0  0
  -19.1390  -29.6810   23.7620 C   0  0  0  0  0  3  0  0  0  0  0  0
  -17.7980  -30.0750   23.9250 C   0  0  0  0  0  3  0  0  0  0  0  0
  -16.7640  -29.2690   23.4180 C   0  0  0  0  0  3  0  0  0  0  0  0
  -17.0740  -28.0760   22.7420 C   0  0  0  0  0  3  0  0  0  0  0  0
  -25.8080  -32.6560   24.1020 C   0  0  0  0  0  3  0  0  0  0  0  0
  -26.2200  -31.9480   25.4510 C   0  0  1  0  0  0  0  0  0  0  0  0
  -25.0300  -31.6860   26.4030 C   0  0  0  0  0  1  0  0  0  0  0  0
  -26.9070  -30.5910   25.1660 C   0  0  0  0  0  1  0  0  0  0  0  0
  -27.2550  -32.8170   26.2060 C   0  0  0  0  0  1  0  0  0  0  0  0
  -25.4330  -34.0560   24.3400 N   0  0  0  0  0  0  0  0  0  0  0  0
  -25.8080  -35.0850   23.5670 C   0  0  0  0  0  0  0  0  0  0  0  0
  -26.5780  -34.9580   22.6110 O   0  0  0  0  0  0  0  0  0  0  0  0
  -24.7620  -34.2260   25.0760 H   0  0  0  0  0  0  0  0  0  0  0  0
  -24.0710  -36.8010   22.9690 C   0  0  0  0  0  1  0  0  0  0  0  0
  -25.2400  -36.4750   23.9110 C   0  0  0  0  0  3  0  0  0  0  0  0
  -27.2520  -37.4740   24.9050 C   0  0  0  0  0  1  0  0  0  0  0  0
  -26.2490  -37.5550   23.8460 N   0  0  0  0  0  0  0  0  0  0  0  0
  -25.8020  -38.4670   23.9040 H   0  0  0  0  0  0  0  0  0  0  0  0
  1  4  1  0
  1  3  1  0
  2  1  1  0
  5  4  1  0
  6 12  1  0
  7 12  1  0
  8  9  1  0
  8  7  1  0
 10  9  1  0
 10 23  1  0
 10 11  1  0
 12 11  1  0
 13  6  2  0
 14 16  1  0
 16  5  1  0
 16 15  1  0
 17 18  1  0
 17 14  1  0
 17 19  1  0
 19  6  1  0
 19 15  1  0
 20 21  2  0
 21 40  1  0
 22 21  1  0
 22 25  1  0
 23 20  1  0
 23 24  1  0
 24 22  2  0
 25 26  1  0
 26 27  2  0
 28 31  1  0
 28 27  1  0
 29 28  2  0
 30 29  1  0
 30 25  2  0
 31 32  1  0
 32 37  2  0
 32 33  1  0
 33 34  2  0
 34 35  1  0
 35 39  1  0
 36 35  2  0
 37 36  1  0
 38 37  1  0
 40 41  1  0
 41 44  1  0
 41 43  1  0
 42 40  2  0
 45 46  1  0
 45 20  1  0
 47 45  1  0
 48 49  1  0
 48  1  1  0
 50 51  1  0
 50 49  1  0
 52 54  1  0
 52 51  1  0
 53 64  2  0
 54 59  1  0
 55 63  1  0
 55 65  1  0
 56 62  1  0
 56 58  1  0
 57 63  1  0
 58 59  2  0
 58 57  1  0
 60 54  2  0
 61 60  1  0
 61 56  2  0
 62 55  1  0
 63 53  1  0
 65 67  2  0
 66 65  1  0
 68 66  1  0
 69 78  2  0
 69 74  1  0
 70 66  1  0
 70 74  1  0
 71 70  1  0
 72 73  1  0
 72 71  1  0
 73 69  1  0
 74 75  2  0
 75 76  1  0
 77 76  2  0
 78 77  1  0
 79 53  1  0
 79 84  1  0
 79 80  1  0
 80 83  1  1
 80 81  1  0
 82 80  1  0
 84 87  1  0
 85 89  1  0
 85 84  1  0
 86 85  2  0
 89 88  1  0
 91 92  1  0
 91 89  1  0
 91 90  1  0
M  ISO  4   6 100  19 100  51 101  52 101
M  END
>  <TORSDO>  (42) 
F 22

>  <SCORE>  (42) 
-10.533

>  <name>  (42) 
42

>  <ligand_id>  (42) 
42

>  <original_smiles>  (42) 
[H]c1c([H])c([H])c2c(c1[H])C([H])([H])C([H])([H])C([H])([H])C2([H])N([H])C(=O)C1([H])N(C(=O)C([H])(N([H])C(=O)C([H])(N([H])C([H])([H])[H])C([H])([H])[H])C(C([H])([H])[H])(C([H])([H])[H])C([H])([H])[H])C([H])([H])c2c([H])c(OC([H])([H])C([H])([H])C([H])([H])C([H])([H])[N+]([H])([H])C([H])([H])C([H])([H])C3([H])C([H])([H])N(C(=O)N4C([H])([H])C([H])([H])C([H])([H])C([H])(n5nc(-c6c([H])c([H])c(Oc7c([H])c([H])c(F)c([H])c7F)c([H])c6[H])c(C(=O)N([H])[H])c5N([H])[H])C4([H])[H])C([H])(C([H])([H])[H])C3([H])[H])c([H])c([H])c2C1([H])[H]

>  <smiles>  (42) 
[H]c1c([H])c([H])c2c(c1[H])C([H])([H])C([H])([H])C([H])([H])C2([H])N([H])C(=O)C1([H])N(C(=O)C([H])(N([H])C(=O)C([H])(N([H])C([H])([H])[H])C([H])([H])[H])C(C([H])([H])[H])(C([H])([H])[H])C([H])([H])[H])C([H])([H])c2c([H])c(OC([H])([H])C([H])([H])C([H])([H])C([H])([H])[N+]([H])([H])C([H])([H])C([H])([H])C3([H])C([H])([H])N(C(=O)N4C([H])([H])C([H])([H])C([H])([H])C([H])(n5nc(-c6c([H])c([H])c(Oc7c([H])c([H])c(F)c([H])c7F)c([H])c6[H])c(C(=O)N([H])[H])c5N([H])[H])C4([H])[H])C([H])(C([H])([H])[H])C3([H])[H])c([H])c([H])c2C1([H])[H]

$$$$
43:0:0
     RDKit          3D

 91 99  0  0  1  0  0  0  0  0999 V2000
  -30.3720  -22.8310   19.3780 C   0  0  0  0  0  3  0  0  0  0  0  0
  -30.1050  -21.5360   19.1330 C   0  0  0  0  0  3  0  0  0  0  0  0
  -29.7500  -23.9830   18.6080 C   0  0  0  0  0  2  0  0  0  0  0  0
  -28.3660  -24.3970   19.1350 C   0  0  0  0  0  2  0  0  0  0  0  0
  -28.3830  -25.2290   20.4330 C   0  0  0  0  0  2  0  0  0  0  0  0
  -28.4920  -26.6340   20.1880 O   0  0  0  0  0  0  0  0  0  0  0  0
  -24.6010  -31.7630   23.2000 C   0  0  0  0  0  0  0  0  0  0  0  0
  -27.3100  -27.3440   20.1590 C   0  0  0  0  0  0  0  0  0  0  0  0
  -23.4300  -30.3730   21.5220 C   0  0  0  0  0  3  0  0  0  0  0  0
  -24.9130  -28.8420   20.1260 C   0  0  0  0  0  0  0  0  0  0  0  0
  -25.9600  -30.7330   21.3830 C   0  0  0  0  0  2  0  0  0  0  0  0
  -26.0590  -29.3680   20.7350 C   0  0  0  0  0  0  0  0  0  0  0  0
  -27.2620  -28.6280   20.7410 C   0  0  0  0  0  3  0  0  0  0  0  0
  -26.1400  -26.8260   19.5550 C   0  0  0  0  0  3  0  0  0  0  0  0
  -24.9470  -27.5700   19.5330 C   0  0  0  0  0  3  0  0  0  0  0  0
  -23.6700  -29.7010   20.1440 C   0  0  0  0  0  2  0  0  0  0  0  0
  -24.6810  -30.9690   22.0940 N   0  0  0  0  0  0  0  0  0  0  0  0
  -23.5080  -32.0340   23.7160 O   0  0  0  0  0  0  0  0  0  0  0  0
  -22.7560  -29.3470   22.4600 C   0  0  0  0  0  0  0  0  0  0  0  0
  -21.4340  -29.1710   22.3020 N   0  0  0  0  0  0  0  0  0  0  0  0
  -23.4190  -28.7120   23.2840 O   0  0  0  0  0  0  0  0  0  0  0  0
  -20.9610  -29.7350   21.6080 H   0  0  0  0  0  0  0  0  0  0  0  0
  -18.0440  -27.9920   22.7110 C   0  0  0  0  0  0  0  0  0  0  0  0
  -20.5950  -28.2330   23.0470 C   0  0  0  0  0  3  0  0  0  0  0  0
  -20.7030  -26.8050   22.4620 C   0  0  0  0  0  2  0  0  0  0  0  0
  -19.6240  -26.4960   21.4200 C   0  0  0  0  0  2  0  0  0  0  0  0
  -18.2280  -26.6450   22.0320 C   0  0  0  0  0  2  0  0  0  0  0  0
  -19.1560  -28.7440   23.1740 C   0  0  0  0  0  0  0  0  0  0  0  0
  -18.9320  -30.0060   23.7660 C   0  0  0  0  0  3  0  0  0  0  0  0
  -17.6270  -30.5150   23.9020 C   0  0  0  0  0  3  0  0  0  0  0  0
  -16.5280  -29.7600   23.4580 C   0  0  0  0  0  3  0  0  0  0  0  0
  -16.7370  -28.5000   22.8690 C   0  0  0  0  0  3  0  0  0  0  0  0
  -25.8740  -32.3850   23.8530 C   0  0  0  0  0  3  0  0  0  0  0  0
  -25.5560  -33.7760   24.2010 N   0  0  0  0  0  0  0  0  0  0  0  0
  -25.9030  -34.8410   23.4670 C   0  0  0  0  0  0  0  0  0  0  0  0
  -26.5970  -34.7570   22.4500 O   0  0  0  0  0  0  0  0  0  0  0  0
  -24.9440  -33.9160   24.9910 H   0  0  0  0  0  0  0  0  0  0  0  0
  -24.1870  -36.6410   23.0930 C   0  0  0  0  0  1  0  0  0  0  0  0
  -25.4020  -36.2210   23.9360 C   0  0  0  0  0  3  0  0  0  0  0  0
  -27.5070  -37.0890   24.8540 C   0  0  0  0  0  1  0  0  0  0  0  0
  -26.4380  -37.2750   23.8760 N   0  0  0  0  0  0  0  0  0  0  0  0
  -26.0270  -38.1920   24.0260 H   0  0  0  0  0  0  0  0  0  0  0  0
  -26.3750  -31.5920   25.1220 C   0  0  1  0  0  0  0  0  0  0  0  0
  -25.2650  -31.3260   26.1650 C   0  0  0  0  0  1  0  0  0  0  0  0
  -26.9730  -30.2260   24.7100 C   0  0  0  0  0  1  0  0  0  0  0  0
  -27.5070  -32.3800   25.8200 C   0  0  0  0  0  1  0  0  0  0  0  0
  -30.7570  -20.3620   19.8380 C   0  0  0  0  0  2  0  0  0  0  0  0
  -29.8500  -18.5700   21.3580 C   0  0  0  0  0  0  0  0  0  0  0  0
  -29.8930  -19.8250   20.8850 N   0  0  0  0  0  0  0  0  0  0  0  0
  -29.1260  -18.3060   22.3180 O   0  0  0  0  0  0  0  0  0  0  0  0
  -29.3010  -20.4960   21.3560 H   0  0  0  0  0  0  0  0  0  0  0  0
  -30.9800  -14.3900   19.8960 C   0  0  0  0  0  0  0  0  0  0  0  0
  -30.5120  -12.3260   18.6400 C   0  0  0  0  0  2  0  0  0  0  0  0
  -29.4690  -12.6290   17.5450 C   0  0  0  0  0  2  0  0  0  0  0  0
  -28.0370  -12.5050   18.1020 C   0  0  0  0  0  2  0  0  0  0  0  0
  -27.8410  -13.2760   19.4340 C   0  0  0  0  0  3  0  0  0  0  0  0
  -28.9820  -12.9530   20.4250 C   0  0  0  0  0  2  0  0  0  0  0  0
  -30.2610  -13.2470   19.7560 N   0  0  0  0  0  0  0  0  0  0  0  0
  -32.0590  -14.5930   19.3290 O   0  0  0  0  0  0  0  0  0  0  0  0
  -29.8480  -16.5390   19.8150 C   0  0  0  0  0  2  0  0  0  0  0  0
  -31.0240  -16.2400   21.5480 C   0  0  0  0  0  2  0  0  0  0  0  0
  -30.6930  -17.4620   20.6870 C   0  0  0  0  0  3  0  0  0  0  0  0
  -30.3490  -15.3760   20.5660 N   0  0  0  0  0  0  0  0  0  0  0  0
  -25.5200  -13.9030   20.3580 C   0  0  0  0  0  0  0  0  0  0  0  0
  -24.4720  -13.1360   20.7940 C   0  0  0  0  0  0  0  0  0  0  0  0
  -24.9060  -11.7790   20.6850 C   0  0  0  0  0  0  0  0  0  0  0  0
  -26.5260  -13.0130   20.0170 N   0  0  0  0  0  0  0  0  0  0  0  0
  -26.1640  -11.7290   20.2680 N   0  0  0  0  0  0  0  0  0  0  0  0
  -24.1770  -10.5230   20.9000 C   0  0  0  0  0  0  0  0  0  0  0  0
  -24.6160   -9.5650   21.8410 C   0  0  0  0  0  3  0  0  0  0  0  0
  -23.8880   -8.3730   22.0430 C   0  0  0  0  0  3  0  0  0  0  0  0
  -22.7070   -8.1300   21.3030 C   0  0  0  0  0  0  0  0  0  0  0  0
  -22.2860   -9.0760   20.3500 C   0  0  0  0  0  3  0  0  0  0  0  0
  -23.0150  -10.2590   20.1480 C   0  0  0  0  0  3  0  0  0  0  0  0
  -21.9490   -6.9890   21.4120 O   0  0  0  0  0  0  0  0  0  0  0  0
  -21.8400   -6.3100   22.5990 C   0  0  0  0  0  0  0  0  0  0  0  0
  -21.3430   -6.9280   23.7680 C   0  0  0  0  0  3  0  0  0  0  0  0
  -21.1820   -6.1740   24.9490 C   0  0  0  0  0  3  0  0  0  0  0  0
  -21.5050   -4.8050   24.9600 C   0  0  0  0  0  0  0  0  0  0  0  0
  -21.9950   -4.1870   23.7960 C   0  0  0  0  0  3  0  0  0  0  0  0
  -22.1580   -4.9370   22.6180 C   0  0  0  0  0  0  0  0  0  0  0  0
  -22.6100   -4.3320   21.4930 F   0  0  0  0  0  0  0  0  0  0  0  0
  -21.3430   -4.0790   26.0910 F   0  0  0  0  0  0  0  0  0  0  0  0
  -23.1110  -13.6260   21.1990 C   0  0  0  0  0  0  0  0  0  0  0  0
  -22.4650  -12.9360   22.1320 N   0  0  0  0  0  0  0  0  0  0  0  0
  -22.6340  -14.6550   20.7230 O   0  0  0  0  0  0  0  0  0  0  0  0
  -22.8660  -12.1030   22.5380 H   0  0  0  0  0  0  0  0  0  0  0  0
  -21.5570  -13.2460   22.4480 H   0  0  0  0  0  0  0  0  0  0  0  0
  -25.6930  -15.2750   20.2060 N   0  0  0  0  0  0  0  0  0  0  0  0
  -24.9560  -15.9410   20.4110 H   0  0  0  0  0  0  0  0  0  0  0  0
  -26.5350  -15.7100   19.8510 H   0  0  0  0  0  0  0  0  0  0  0  0
  2  1  2  0
  2 47  1  0
  3  4  1  0
  3  1  1  0
  4  5  1  0
  6  5  1  0
  7 18  2  0
  8  6  1  0
  8 13  1  0
  9 17  1  0
  9 19  1  0
 10 16  1  0
 10 12  1  0
 11 17  1  0
 12 13  2  0
 12 11  1  0
 14  8  2  0
 15 14  1  0
 15 10  2  0
 16  9  1  0
 17  7  1  0
 19 21  2  0
 20 19  1  0
 22 20  1  0
 23 32  2  0
 23 28  1  0
 24 20  1  0
 24 28  1  0
 25 24  1  0
 26 27  1  0
 26 25  1  0
 27 23  1  0
 28 29  2  0
 29 30  1  0
 31 30  2  0
 32 31  1  0
 33  7  1  0
 33 34  1  0
 33 43  1  0
 34 37  1  0
 35 39  1  0
 35 34  1  0
 36 35  2  0
 39 38  1  0
 41 39  1  0
 41 42  1  0
 41 40  1  0
 43 46  1  1
 43 44  1  0
 45 43  1  0
 47 49  1  0
 48 50  2  0
 49 51  1  0
 49 48  1  0
 52 63  1  0
 53 58  1  0
 54 55  1  0
 54 53  1  0
 56 55  1  0
 56 67  1  0
 56 57  1  0
 58 52  1  0
 58 57  1  0
 59 52  2  0
 60 63  1  0
 60 62  1  0
 62 48  1  0
 62 61  1  0
 63 61  1  0
 64 65  2  0
 65 84  1  0
 66 65  1  0
 66 69  1  0
 67 68  1  0
 67 64  1  0
 68 66  2  0
 69 70  1  0
 70 71  2  0
 72 75  1  0
 72 71  1  0
 73 72  2  0
 74 73  1  0
 74 69  2  0
 75 76  1  0
 76 81  2  0
 76 77  1  0
 77 78  2  0
 78 79  1  0
 79 83  1  0
 80 79  2  0
 81 80  1  0
 82 81  1  0
 84 85  1  0
 85 88  1  0
 85 87  1  0
 86 84  2  0
 89 64  1  0
 89 90  1  0
 91 89  1  0
M  ISO  4   5 101   6 101  52 100  63 100
M  END
>  <TORSDO>  (43) 
F 21

>  <SCORE>  (43) 
-11.553

>  <name>  (43) 
43

>  <ligand_id>  (43) 
43

>  <original_smiles>  (43) 
[H]C(=C([H])C([H])([H])C([H])([H])C([H])([H])Oc1c([H])c([H])c2c(c1[H])C([H])([H])N(C(=O)C([H])(N([H])C(=O)C([H])(N([H])C([H])([H])[H])C([H])([H])[H])C(C([H])([H])[H])(C([H])([H])[H])C([H])([H])[H])C([H])(C(=O)N([H])C1([H])c3c([H])c([H])c([H])c([H])c3C([H])([H])C([H])([H])C1([H])[H])C2([H])[H])C([H])([H])N([H])C(=O)C1([H])C([H])([H])N(C(=O)N2C([H])([H])C([H])([H])C([H])([H])C([H])(n3nc(-c4c([H])c([H])c(Oc5c([H])c([H])c(F)c([H])c5F)c([H])c4[H])c(C(=O)N([H])[H])c3N([H])[H])C2([H])[H])C1([H])[H]

>  <smiles>  (43) 
[H]C(=C([H])C([H])([H])C([H])([H])C([H])([H])Oc1c([H])c([H])c2c(c1[H])C([H])([H])N(C(=O)C([H])(N([H])C(=O)C([H])(N([H])C([H])([H])[H])C([H])([H])[H])C(C([H])([H])[H])(C([H])([H])[H])C([H])([H])[H])C([H])(C(=O)N([H])C1([H])c3c([H])c([H])c([H])c([H])c3C([H])([H])C([H])([H])C1([H])[H])C2([H])[H])C([H])([H])N([H])C(=O)C1([H])C([H])([H])N(C(=O)N2C([H])([H])C([H])([H])C([H])([H])C([H])(n3nc(-c4c([H])c([H])c(Oc5c([H])c([H])c(F)c([H])c5F)c([H])c4[H])c(C(=O)N([H])[H])c3N([H])[H])C2([H])[H])C1([H])[H]

$$$$
44:0:0
     RDKit          3D

 94103  0  0  1  0  0  0  0  0999 V2000
  -30.7090  -14.8060   20.3750 C   0  0  0  0  0  0  0  0  0  0  0  0
  -30.4510  -12.4900   19.4900 C   0  0  0  0  0  2  0  0  0  0  0  0
  -29.5530  -12.4990   18.2380 C   0  0  0  0  0  2  0  0  0  0  0  0
  -28.0680  -12.3740   18.6370 C   0  0  0  0  0  2  0  0  0  0  0  0
  -27.6660  -13.3300   19.7950 C   0  0  0  0  0  3  0  0  0  0  0  0
  -28.7040  -13.3320   20.9390 C   0  0  0  0  0  2  0  0  0  0  0  0
  -30.0110  -13.6190   20.3390 N   0  0  0  0  0  0  0  0  0  0  0  0
  -31.9350  -14.7870   20.2580 O   0  0  0  0  0  0  0  0  0  0  0  0
  -30.3470  -17.9630   18.3120 C   0  0  0  0  0  2  0  0  0  0  0  0
  -27.6170  -17.6940   20.5980 C   0  0  0  0  0  2  0  0  0  0  0  0
  -30.1000  -16.4400   18.6640 C   0  0  0  0  0  2  0  0  0  0  0  0
  -30.1250  -17.2290   20.9840 C   0  0  0  0  0  2  0  0  0  0  0  0
  -26.9950  -17.9350   19.1710 C   0  0  0  0  0  2  0  0  0  0  0  0
  -28.9830  -18.3710   20.9040 C   0  0  0  0  0  3  0  0  0  0  0  0
  -29.0500  -19.6210   19.9190 C   0  0  0  0  0  3  0  0  0  0  0  0
  -29.1960  -19.0100   18.5020 C   0  0  0  0  0  3  0  0  0  0  0  0
  -30.0390  -16.0070   20.0930 N   0  0  0  0  0  0  0  0  0  0  0  0
  -27.9120  -18.3990   18.0910 N   0  0  0  0  0  4  0  0  0  0  0  0
  -27.4040  -19.0720   17.5360 H   0  0  0  0  0  0  0  0  0  0  0  0
  -28.1130  -17.6270   17.4790 H   0  0  0  0  0  0  0  0  0  0  0  0
  -25.2680  -13.9490   20.4670 C   0  0  0  0  0  0  0  0  0  0  0  0
  -24.1800  -13.2010   20.8070 C   0  0  0  0  0  0  0  0  0  0  0  0
  -24.6260  -11.8460   20.8090 C   0  0  0  0  0  0  0  0  0  0  0  0
  -26.3100  -13.0600   20.2700 N   0  0  0  0  0  0  0  0  0  0  0  0
  -25.9280  -11.7870   20.5450 N   0  0  0  0  0  0  0  0  0  0  0  0
  -23.8720  -10.6020   20.9940 C   0  0  0  0  0  0  0  0  0  0  0  0
  -24.2670   -9.6340   21.9420 C   0  0  0  0  0  3  0  0  0  0  0  0
  -23.5090   -8.4570   22.1150 C   0  0  0  0  0  3  0  0  0  0  0  0
  -22.3450   -8.2400   21.3400 C   0  0  0  0  0  0  0  0  0  0  0  0
  -21.9700   -9.1970   20.3810 C   0  0  0  0  0  3  0  0  0  0  0  0
  -22.7280  -10.3670   20.2060 C   0  0  0  0  0  3  0  0  0  0  0  0
  -21.5620   -7.1150   21.4230 O   0  0  0  0  0  0  0  0  0  0  0  0
  -21.4820   -6.3790   22.5780 C   0  0  0  0  0  0  0  0  0  0  0  0
  -21.0620   -6.9520   23.7980 C   0  0  0  0  0  3  0  0  0  0  0  0
  -20.9250   -6.1440   24.9450 C   0  0  0  0  0  3  0  0  0  0  0  0
  -21.2010   -4.7660   24.8720 C   0  0  0  0  0  0  0  0  0  0  0  0
  -21.6190   -4.1930   23.6580 C   0  0  0  0  0  3  0  0  0  0  0  0
  -21.7570   -4.9980   22.5140 C   0  0  0  0  0  0  0  0  0  0  0  0
  -22.1380   -4.4390   21.3390 F   0  0  0  0  0  0  0  0  0  0  0  0
  -21.0610   -3.9880   25.9710 F   0  0  0  0  0  0  0  0  0  0  0  0
  -22.7870  -13.7120   21.0280 C   0  0  0  0  0  0  0  0  0  0  0  0
  -22.0260  -13.0580   21.8980 N   0  0  0  0  0  0  0  0  0  0  0  0
  -22.3810  -14.7280   20.4650 O   0  0  0  0  0  0  0  0  0  0  0  0
  -22.3680  -12.2360   22.3750 H   0  0  0  0  0  0  0  0  0  0  0  0
  -21.0910  -13.3860   22.0910 H   0  0  0  0  0  0  0  0  0  0  0  0
  -25.4420  -15.3110   20.2970 N   0  0  0  0  0  0  0  0  0  0  0  0
  -24.6900  -15.9700   20.4550 H   0  0  0  0  0  0  0  0  0  0  0  0
  -26.3490  -15.7340   20.1790 H   0  0  0  0  0  0  0  0  0  0  0  0
  -29.5970  -21.0060   20.2290 N   0  0  0  0  0  0  0  0  0  0  0  0
  -29.7450  -21.0570   21.2350 H   0  0  0  0  0  0  0  0  0  0  0  0
  -28.7530  -22.2120   19.8220 C   0  0  0  0  0  2  0  0  0  0  0  0
  -29.1730  -23.7390   20.1950 C   0  0  0  0  0  3  0  0  0  0  0  0
  -28.1430  -24.9410   19.8380 C   0  0  0  0  0  3  0  0  0  0  0  0
  -28.3710  -26.4030   20.1360 O   0  0  0  0  0  0  0  0  0  0  0  0
  -24.5670  -31.8270   23.1440 C   0  0  0  0  0  0  0  0  0  0  0  0
  -27.2700  -27.2980   20.0610 C   0  0  0  0  0  0  0  0  0  0  0  0
  -23.4090  -30.4470   21.4590 C   0  0  0  0  0  3  0  0  0  0  0  0
  -24.9000  -28.9320   20.0310 C   0  0  0  0  0  0  0  0  0  0  0  0
  -25.9550  -30.7730   21.3380 C   0  0  0  0  0  2  0  0  0  0  0  0
  -26.0570  -29.4060   20.6640 C   0  0  0  0  0  0  0  0  0  0  0  0
  -27.2440  -28.6010   20.6700 C   0  0  0  0  0  3  0  0  0  0  0  0
  -26.0880  -26.9040   19.3930 C   0  0  0  0  0  3  0  0  0  0  0  0
  -24.9230  -27.6900   19.3820 C   0  0  0  0  0  3  0  0  0  0  0  0
  -23.6560  -29.7980   20.0720 C   0  0  0  0  0  2  0  0  0  0  0  0
  -24.6620  -31.0340   22.0360 N   0  0  0  0  0  0  0  0  0  0  0  0
  -23.4700  -32.0910   23.6570 O   0  0  0  0  0  0  0  0  0  0  0  0
  -22.7330  -29.4090   22.3880 C   0  0  0  0  0  0  0  0  0  0  0  0
  -21.4010  -29.2690   22.2700 N   0  0  0  0  0  0  0  0  0  0  0  0
  -23.4040  -28.7380   23.1740 O   0  0  0  0  0  0  0  0  0  0  0  0
  -20.9170  -29.8640   21.6130 H   0  0  0  0  0  0  0  0  0  0  0  0
  -17.9960  -28.1690   22.8160 C   0  0  0  0  0  0  0  0  0  0  0  0
  -20.5700  -28.3210   23.0160 C   0  0  0  0  0  3  0  0  0  0  0  0
  -20.6000  -26.9190   22.3640 C   0  0  0  0  0  2  0  0  0  0  0  0
  -19.4560  -26.6890   21.3710 C   0  0  0  0  0  2  0  0  0  0  0  0
  -18.1020  -26.8510   22.0660 C   0  0  0  0  0  2  0  0  0  0  0  0
  -19.1550  -28.8670   23.2480 C   0  0  0  0  0  0  0  0  0  0  0  0
  -19.0020  -30.1040   23.9110 C   0  0  0  0  0  3  0  0  0  0  0  0
  -17.7230  -30.6400   24.1480 C   0  0  0  0  0  3  0  0  0  0  0  0
  -16.5790  -29.9370   23.7330 C   0  0  0  0  0  3  0  0  0  0  0  0
  -16.7170  -28.7040   23.0700 C   0  0  0  0  0  3  0  0  0  0  0  0
  -25.8300  -32.4590   23.8050 C   0  0  0  0  0  3  0  0  0  0  0  0
  -26.3210  -31.6730   25.0820 C   0  0  1  0  0  0  0  0  0  0  0  0
  -25.2070  -31.4150   26.1230 C   0  0  0  0  0  1  0  0  0  0  0  0
  -26.9200  -30.3020   24.6860 C   0  0  0  0  0  1  0  0  0  0  0  0
  -27.4550  -32.4640   25.7790 C   0  0  0  0  0  1  0  0  0  0  0  0
  -25.5010  -33.8500   24.1500 N   0  0  0  0  0  0  0  0  0  0  0  0
  -25.8210  -34.9180   23.4070 C   0  0  0  0  0  0  0  0  0  0  0  0
  -26.4960  -34.8360   22.3770 O   0  0  0  0  0  0  0  0  0  0  0  0
  -24.9020  -33.9870   24.9520 H   0  0  0  0  0  0  0  0  0  0  0  0
  -24.0640  -36.6890   23.0830 C   0  0  0  0  0  1  0  0  0  0  0  0
  -25.3180  -36.2950   23.8810 C   0  0  0  0  0  3  0  0  0  0  0  0
  -27.4440  -37.2060   24.7060 C   0  0  0  0  0  1  0  0  0  0  0  0
  -26.3340  -37.3640   23.7700 N   0  0  0  0  0  0  0  0  0  0  0  0
  -25.9150  -38.2770   23.9250 H   0  0  0  0  0  0  0  0  0  0  0  0
  2  7  1  0
  3  4  1  0
  3  2  1  0
  5  4  1  0
  5 24  1  0
  5  6  1  0
  7  1  1  0
  7  6  1  0
  8  1  2  0
  9 11  1  0
 11 17  1  0
 13 10  1  0
 14 10  1  0
 14 12  1  0
 15 49  1  0
 15 14  1  0
 16  9  1  0
 16 15  1  0
 17  1  1  0
 17 12  1  0
 18 16  1  0
 18 13  1  0
 19 18  1  0
 20 18  1  0
 21 22  2  0
 22 23  1  0
 22 41  1  0
 23 26  1  0
 24 21  1  0
 24 25  1  0
 25 23  2  0
 26 27  1  0
 27 28  2  0
 29 32  1  0
 29 28  1  0
 30 29  2  0
 31 30  1  0
 31 26  2  0
 32 33  1  0
 33 34  1  0
 34 35  2  0
 36 35  1  0
 36 40  1  0
 37 36  2  0
 38 33  2  0
 38 37  1  0
 39 38  1  0
 41 42  1  0
 42 45  1  0
 42 44  1  0
 43 41  2  0
 46 47  1  0
 46 21  1  0
 48 46  1  0
 49 50  1  0
 51 52  1  0
 51 49  1  0
 53 54  1  0
 53 52  2  0
 55 66  2  0
 56 54  1  0
 56 61  1  0
 57 65  1  0
 57 67  1  0
 58 64  1  0
 58 60  1  0
 59 65  1  0
 60 61  2  0
 60 59  1  0
 62 56  2  0
 63 62  1  0
 63 58  2  0
 64 57  1  0
 65 55  1  0
 67 69  2  0
 68 67  1  0
 70 68  1  0
 71 80  2  0
 71 76  1  0
 72 68  1  0
 72 76  1  0
 73 72  1  0
 74 75  1  0
 74 73  1  0
 75 71  1  0
 76 77  2  0
 77 78  1  0
 79 78  2  0
 80 79  1  0
 81 55  1  0
 81 86  1  0
 81 82  1  0
 82 85  1  1
 82 83  1  0
 84 82  1  0
 86 89  1  0
 87 91  1  0
 87 86  1  0
 88 87  2  0
 91 90  1  0
 93 91  1  0
 93 94  1  0
 93 92  1  0
M  ISO  4   1 100  17 100  53 101  54 101
M  END
>  <TORSDO>  (44) 
F 19

>  <SCORE>  (44) 
-13.701

>  <name>  (44) 
44

>  <ligand_id>  (44) 
44

>  <original_smiles>  (44) 
[H]c1c([H])c([H])c2c(c1[H])C([H])([H])C([H])([H])C([H])([H])C2([H])N([H])C(=O)C1([H])N(C(=O)C([H])(N([H])C(=O)C([H])(N([H])C([H])([H])[H])C([H])([H])[H])C(C([H])([H])[H])(C([H])([H])[H])C([H])([H])[H])C([H])([H])c2c([H])c(OC([H])([H])C([H])([H])C([H])([H])N([H])C3([H])C4([H])C([H])([H])N(C(=O)N5C([H])([H])C([H])([H])C([H])([H])C([H])(n6nc(-c7c([H])c([H])c(Oc8c([H])c([H])c(F)c([H])c8F)c([H])c7[H])c(C(=O)N([H])[H])c6N([H])[H])C5([H])[H])C([H])([H])C([H])([H])C3([H])[N+]([H])([H])C([H])([H])C4([H])[H])c([H])c([H])c2C1([H])[H]

>  <smiles>  (44) 
[H]c1c([H])c([H])c2c(c1[H])C([H])([H])C([H])([H])C([H])([H])C2([H])N([H])C(=O)C1([H])N(C(=O)C([H])(N([H])C(=O)C([H])(N([H])C([H])([H])[H])C([H])([H])[H])C(C([H])([H])[H])(C([H])([H])[H])C([H])([H])[H])C([H])([H])c2c([H])c(OC([H])([H])C([H])([H])C([H])([H])N([H])C3([H])C4([H])C([H])([H])N(C(=O)N5C([H])([H])C([H])([H])C([H])([H])C([H])(n6nc(-c7c([H])c([H])c(Oc8c([H])c([H])c(F)c([H])c8F)c([H])c7[H])c(C(=O)N([H])[H])c6N([H])[H])C5([H])[H])C([H])([H])C([H])([H])C3([H])[N+]([H])([H])C([H])([H])C4([H])[H])c([H])c([H])c2C1([H])[H]

$$$$
45:0:0
     RDKit          3D

 93101  0  0  1  0  0  0  0  0999 V2000
  -28.9480  -20.7180   20.5430 N   0  0  0  0  0  4  0  0  0  0  0  0
  -29.9470  -20.7860   20.4380 H   0  0  0  0  0  0  0  0  0  0  0  0
  -28.7500  -20.5260   21.5110 H   0  0  0  0  0  0  0  0  0  0  0  0
  -28.4610  -19.5650   19.7560 C   0  0  0  0  0  2  0  0  0  0  0  0
  -28.8460  -18.2520   20.4590 C   0  0  0  0  0  0  0  0  0  0  0  0
  -28.2320  -17.8910   21.4650 O   0  0  0  0  0  0  0  0  0  0  0  0
  -31.6200  -14.0750   19.9640 C   0  0  0  0  0  0  0  0  0  0  0  0
  -31.3020  -11.6960   19.4490 C   0  0  0  0  0  2  0  0  0  0  0  0
  -30.3700  -11.5670   18.2260 C   0  0  0  0  0  2  0  0  0  0  0  0
  -28.8900  -11.5720   18.6610 C   0  0  0  0  0  2  0  0  0  0  0  0
  -28.5490  -12.7300   19.6360 C   0  0  0  0  0  3  0  0  0  0  0  0
  -29.5920  -12.7970   20.7730 C   0  0  0  0  0  2  0  0  0  0  0  0
  -30.9190  -12.9280   20.1560 N   0  0  0  0  0  0  0  0  0  0  0  0
  -32.8080  -14.0550   19.6270 O   0  0  0  0  0  0  0  0  0  0  0  0
  -29.9100  -16.9940   18.4790 C   0  0  0  0  0  2  0  0  0  0  0  0
  -30.3080  -16.0960   20.6630 C   0  0  0  0  0  2  0  0  0  0  0  0
  -30.0480  -17.4360   19.9340 C   0  0  0  0  0  3  0  0  0  0  0  0
  -30.9100  -15.8450   18.3540 C   0  0  0  0  0  3  0  0  0  0  0  0
  -32.3100  -16.3870   17.9740 C   0  0  0  0  0  1  0  0  0  0  0  0
  -30.8620  -15.1630   19.6650 N   0  0  0  0  0  0  0  0  0  0  0  0
  -26.2620  -13.6040   20.4260 C   0  0  0  0  0  0  0  0  0  0  0  0
  -25.1170  -12.9570   20.8060 C   0  0  0  0  0  0  0  0  0  0  0  0
  -25.4130  -11.5610   20.7340 C   0  0  0  0  0  0  0  0  0  0  0  0
  -27.1880  -12.6100   20.1490 N   0  0  0  0  0  0  0  0  0  0  0  0
  -26.6810  -11.3770   20.3890 N   0  0  0  0  0  0  0  0  0  0  0  0
  -24.5490  -10.3890   20.9140 C   0  0  0  0  0  0  0  0  0  0  0  0
  -24.7670   -9.4650   21.9600 C   0  0  0  0  0  3  0  0  0  0  0  0
  -23.9100   -8.3560   22.1250 C   0  0  0  0  0  3  0  0  0  0  0  0
  -22.8210   -8.1620   21.2420 C   0  0  0  0  0  0  0  0  0  0  0  0
  -22.6240   -9.0700   20.1870 C   0  0  0  0  0  3  0  0  0  0  0  0
  -23.4800  -10.1720   20.0210 C   0  0  0  0  0  3  0  0  0  0  0  0
  -21.9520   -7.1020   21.3100 O   0  0  0  0  0  0  0  0  0  0  0  0
  -21.5740   -6.5570   22.5100 C   0  0  0  0  0  0  0  0  0  0  0  0
  -20.9270   -7.3210   23.5060 C   0  0  0  0  0  3  0  0  0  0  0  0
  -20.5000   -6.7050   24.7000 C   0  0  0  0  0  3  0  0  0  0  0  0
  -20.7050   -5.3260   24.8920 C   0  0  0  0  0  0  0  0  0  0  0  0
  -21.3390   -4.5610   23.8970 C   0  0  0  0  0  3  0  0  0  0  0  0
  -21.7710   -5.1750   22.7080 C   0  0  0  0  0  0  0  0  0  0  0  0
  -22.3650   -4.4320   21.7440 F   0  0  0  0  0  0  0  0  0  0  0  0
  -20.2860   -4.7320   26.0330 F   0  0  0  0  0  0  0  0  0  0  0  0
  -23.7930  -13.5890   21.1240 C   0  0  0  0  0  0  0  0  0  0  0  0
  -23.0280  -12.9910   22.0300 N   0  0  0  0  0  0  0  0  0  0  0  0
  -23.4490  -14.6480   20.6000 O   0  0  0  0  0  0  0  0  0  0  0  0
  -23.3160  -12.1330   22.4750 H   0  0  0  0  0  0  0  0  0  0  0  0
  -22.1390  -13.4000   22.2850 H   0  0  0  0  0  0  0  0  0  0  0  0
  -26.5890  -14.9470   20.2730 N   0  0  0  0  0  0  0  0  0  0  0  0
  -25.9160  -15.6870   20.4330 H   0  0  0  0  0  0  0  0  0  0  0  0
  -27.4810  -15.2760   19.9290 H   0  0  0  0  0  0  0  0  0  0  0  0
  -28.3180  -22.0090   20.1840 C   0  0  0  0  0  2  0  0  0  0  0  0
  -29.0710  -23.2110   20.7940 C   0  0  0  0  0  2  0  0  0  0  0  0
  -28.3560  -24.5720   20.6310 C   0  0  0  0  0  2  0  0  0  0  0  0
  -29.1400  -25.5950   19.7840 C   0  0  0  0  0  2  0  0  0  0  0  0
  -28.9650  -26.9270   20.2630 O   0  0  0  0  0  0  0  0  0  0  0  0
  -24.6590  -31.6740   23.2970 C   0  0  0  0  0  0  0  0  0  0  0  0
  -27.7310  -27.5330   20.2050 C   0  0  0  0  0  0  0  0  0  0  0  0
  -23.6410  -30.3040   21.5040 C   0  0  0  0  0  3  0  0  0  0  0  0
  -25.2630  -28.9080   20.1220 C   0  0  0  0  0  0  0  0  0  0  0  0
  -26.1530  -30.7910   21.5090 C   0  0  0  0  0  2  0  0  0  0  0  0
  -26.3480  -29.4590   20.8150 C   0  0  0  0  0  0  0  0  0  0  0  0
  -27.5810  -28.7750   20.8590 C   0  0  0  0  0  3  0  0  0  0  0  0
  -26.6260  -26.9890   19.5100 C   0  0  0  0  0  3  0  0  0  0  0  0
  -25.3950  -27.6680   19.4730 C   0  0  0  0  0  3  0  0  0  0  0  0
  -23.9810  -29.7040   20.1150 C   0  0  0  0  0  2  0  0  0  0  0  0
  -24.8310  -30.9350   22.1640 N   0  0  0  0  0  0  0  0  0  0  0  0
  -23.5310  -31.8700   23.7680 O   0  0  0  0  0  0  0  0  0  0  0  0
  -22.9710  -29.2090   22.3660 C   0  0  0  0  0  0  0  0  0  0  0  0
  -21.6570  -29.0140   22.1720 N   0  0  0  0  0  0  0  0  0  0  0  0
  -23.6340  -28.5410   23.1640 O   0  0  0  0  0  0  0  0  0  0  0  0
  -21.1860  -29.5810   21.4810 H   0  0  0  0  0  0  0  0  0  0  0  0
  -18.2660  -27.8350   22.5720 C   0  0  0  0  0  0  0  0  0  0  0  0
  -20.8270  -28.0250   22.8610 C   0  0  0  0  0  3  0  0  0  0  0  0
  -20.9030  -26.6500   22.1600 C   0  0  0  0  0  2  0  0  0  0  0  0
  -19.7990  -26.4560   21.1120 C   0  0  0  0  0  2  0  0  0  0  0  0
  -18.4200  -26.5500   21.7750 C   0  0  0  0  0  2  0  0  0  0  0  0
  -19.3970  -28.5350   23.0710 C   0  0  0  0  0  0  0  0  0  0  0  0
  -19.1990  -29.7390   23.7820 C   0  0  0  0  0  3  0  0  0  0  0  0
  -17.9040  -30.2460   23.9950 C   0  0  0  0  0  3  0  0  0  0  0  0
  -16.7880  -29.5420   23.5100 C   0  0  0  0  0  3  0  0  0  0  0  0
  -16.9700  -28.3360   22.8090 C   0  0  0  0  0  3  0  0  0  0  0  0
  -25.8680  -32.3280   24.0380 C   0  0  0  0  0  3  0  0  0  0  0  0
  -26.2740  -31.5630   25.3580 C   0  0  1  0  0  0  0  0  0  0  0  0
  -25.0860  -31.2920   26.3110 C   0  0  0  0  0  1  0  0  0  0  0  0
  -26.9260  -30.2040   25.0180 C   0  0  0  0  0  1  0  0  0  0  0  0
  -27.3340  -32.3830   26.1320 C   0  0  0  0  0  1  0  0  0  0  0  0
  -25.5050  -33.7210   24.3310 N   0  0  0  0  0  0  0  0  0  0  0  0
  -25.8900  -34.7760   23.6020 C   0  0  0  0  0  0  0  0  0  0  0  0
  -26.6580  -34.6800   22.6390 O   0  0  0  0  0  0  0  0  0  0  0  0
  -24.8340  -33.8680   25.0730 H   0  0  0  0  0  0  0  0  0  0  0  0
  -24.1710  -36.5320   23.0740 C   0  0  0  0  0  1  0  0  0  0  0  0
  -25.3380  -36.1560   24.0020 C   0  0  0  0  0  3  0  0  0  0  0  0
  -27.3640  -37.0880   25.0280 C   0  0  0  0  0  1  0  0  0  0  0  0
  -26.3580  -37.2270   23.9780 N   0  0  0  0  0  0  0  0  0  0  0  0
  -25.9230  -38.1410   24.0740 H   0  0  0  0  0  0  0  0  0  0  0  0
  1  3  1  0
  2  1  1  0
  4  5  1  0
  4  1  1  0
  5  6  2  0
  7 13  1  0
  8 13  1  0
  9 10  1  0
  9  8  1  0
 11 10  1  0
 11 24  1  0
 11 12  1  0
 13 12  1  0
 14  7  2  0
 15 17  1  0
 17  5  1  0
 17 16  1  0
 18 19  1  0
 18 15  1  0
 18 20  1  0
 20  7  1  0
 20 16  1  0
 21 22  2  0
 22 41  1  0
 23 22  1  0
 23 26  1  0
 24 25  1  0
 24 21  1  0
 25 23  2  0
 26 27  1  0
 27 28  2  0
 29 32  1  0
 29 28  1  0
 30 29  2  0
 31 30  1  0
 31 26  2  0
 32 33  1  0
 33 38  2  0
 33 34  1  0
 34 35  2  0
 35 36  1  0
 36 40  1  0
 37 36  2  0
 38 37  1  0
 39 38  1  0
 41 42  1  0
 42 45  1  0
 42 44  1  0
 43 41  2  0
 46 21  1  0
 46 47  1  0
 48 46  1  0
 49  1  1  0
 49 50  1  0
 51 50  1  0
 52 53  1  0
 52 51  1  0
 54 65  2  0
 55 53  1  0
 55 60  1  0
 56 64  1  0
 56 66  1  0
 57 59  1  0
 58 64  1  0
 59 60  2  0
 59 58  1  0
 61 55  2  0
 62 61  1  0
 62 57  2  0
 63 57  1  0
 63 56  1  0
 64 54  1  0
 66 68  2  0
 67 66  1  0
 69 67  1  0
 70 79  2  0
 70 75  1  0
 71 67  1  0
 71 75  1  0
 72 71  1  0
 73 74  1  0
 73 72  1  0
 74 70  1  0
 75 76  2  0
 76 77  1  0
 78 77  2  0
 79 78  1  0
 80 54  1  0
 80 85  1  0
 80 81  1  0
 81 84  1  1
 81 82  1  0
 83 81  1  0
 85 88  1  0
 86 90  1  0
 86 85  1  0
 87 86  2  0
 90 89  1  0
 92 90  1  0
 92 93  1  0
 92 91  1  0
M  ISO  4   7 100  20 100  52 101  53 101
M  END
>  <TORSDO>  (45) 
F 22

>  <SCORE>  (45) 
-10.705

>  <name>  (45) 
45

>  <ligand_id>  (45) 
45

>  <original_smiles>  (45) 
[H]c1c([H])c([H])c2c(c1[H])C([H])([H])C([H])([H])C([H])([H])C2([H])N([H])C(=O)C1([H])N(C(=O)C([H])(N([H])C(=O)C([H])(N([H])C([H])([H])[H])C([H])([H])[H])C(C([H])([H])[H])(C([H])([H])[H])C([H])([H])[H])C([H])([H])c2c([H])c(OC([H])([H])C([H])([H])C([H])([H])C([H])([H])[N+]([H])([H])C([H])([H])C(=O)C3([H])C([H])([H])N(C(=O)N4C([H])([H])C([H])([H])C([H])([H])C([H])(n5nc(-c6c([H])c([H])c(Oc7c([H])c([H])c(F)c([H])c7F)c([H])c6[H])c(C(=O)N([H])[H])c5N([H])[H])C4([H])[H])C([H])(C([H])([H])[H])C3([H])[H])c([H])c([H])c2C1([H])[H]

>  <smiles>  (45) 
[H]c1c([H])c([H])c2c(c1[H])C([H])([H])C([H])([H])C([H])([H])C2([H])N([H])C(=O)C1([H])N(C(=O)C([H])(N([H])C(=O)C([H])(N([H])C([H])([H])[H])C([H])([H])[H])C(C([H])([H])[H])(C([H])([H])[H])C([H])([H])[H])C([H])([H])c2c([H])c(OC([H])([H])C([H])([H])C([H])([H])C([H])([H])[N+]([H])([H])C([H])([H])C(=O)C3([H])C([H])([H])N(C(=O)N4C([H])([H])C([H])([H])C([H])([H])C([H])(n5nc(-c6c([H])c([H])c(Oc7c([H])c([H])c(F)c([H])c7F)c([H])c6[H])c(C(=O)N([H])[H])c5N([H])[H])C4([H])[H])C([H])(C([H])([H])[H])C3([H])[H])c([H])c([H])c2C1([H])[H]

$$$$
46:0:0
     RDKit          3D

 95103  0  0  1  0  0  0  0  0999 V2000
  -28.3560  -19.6100   21.2180 C   0  0  0  0  0  2  0  0  0  0  0  0
  -29.7570  -20.1560   21.4540 C   0  0  0  0  0  2  0  0  0  0  0  0
  -28.5250  -18.6180   20.0570 C   0  0  0  0  0  3  0  0  0  0  0  0
  -29.9580  -18.8550   19.5100 C   0  0  0  0  0  3  0  0  0  0  0  0
  -30.3220  -20.1970   20.1080 N   0  0  0  0  0  0  0  0  0  0  0  0
  -27.4940  -18.8270   19.0260 N   0  0  0  0  0  4  0  0  0  0  0  0
  -27.4790  -19.7870   18.7330 H   0  0  0  0  0  0  0  0  0  0  0  0
  -26.5890  -18.5880   19.3900 H   0  0  0  0  0  0  0  0  0  0  0  0
  -27.6740  -18.2540   18.2230 H   0  0  0  0  0  0  0  0  0  0  0  0
  -30.9870  -17.6490   19.8550 C   0  0  0  0  0  2  0  0  0  0  0  0
  -31.2920  -15.0590   19.5830 C   0  0  0  0  0  0  0  0  0  0  0  0
  -31.0360  -12.7000   18.8080 C   0  0  0  0  0  2  0  0  0  0  0  0
  -30.0180  -12.6560   17.6480 C   0  0  0  0  0  2  0  0  0  0  0  0
  -28.5770  -12.5350   18.1850 C   0  0  0  0  0  2  0  0  0  0  0  0
  -28.2820  -13.5370   19.3320 C   0  0  0  0  0  3  0  0  0  0  0  0
  -29.4140  -13.5530   20.3820 C   0  0  0  0  0  2  0  0  0  0  0  0
  -30.6680  -13.8390   19.6750 N   0  0  0  0  0  0  0  0  0  0  0  0
  -32.4370  -15.1470   19.1300 O   0  0  0  0  0  0  0  0  0  0  0  0
  -30.5470  -16.1910   19.8420 N   0  0  0  0  0  0  0  0  0  0  0  0
  -29.6140  -15.9990   20.1740 H   0  0  0  0  0  0  0  0  0  0  0  0
  -26.0220  -14.2190   20.3370 C   0  0  0  0  0  0  0  0  0  0  0  0
  -24.9540  -13.4870   20.7810 C   0  0  0  0  0  0  0  0  0  0  0  0
  -25.3230  -12.1170   20.6230 C   0  0  0  0  0  0  0  0  0  0  0  0
  -26.9770  -13.2980   19.9420 N   0  0  0  0  0  0  0  0  0  0  0  0
  -26.5690  -12.0250   20.1730 N   0  0  0  0  0  0  0  0  0  0  0  0
  -24.5390  -10.8890   20.8110 C   0  0  0  0  0  0  0  0  0  0  0  0
  -24.9170   -9.9080   21.7530 C   0  0  0  0  0  3  0  0  0  0  0  0
  -24.1350   -8.7460   21.9310 C   0  0  0  0  0  3  0  0  0  0  0  0
  -22.9590   -8.5580   21.1670 C   0  0  0  0  0  0  0  0  0  0  0  0
  -22.5990   -9.5270   20.2130 C   0  0  0  0  0  3  0  0  0  0  0  0
  -23.3810  -10.6800   20.0340 C   0  0  0  0  0  3  0  0  0  0  0  0
  -22.1520   -7.4500   21.2540 O   0  0  0  0  0  0  0  0  0  0  0  0
  -21.9480   -6.8010   22.4460 C   0  0  0  0  0  0  0  0  0  0  0  0
  -21.3560   -7.4470   23.5540 C   0  0  0  0  0  3  0  0  0  0  0  0
  -21.1020   -6.7230   24.7360 C   0  0  0  0  0  3  0  0  0  0  0  0
  -21.4300   -5.3560   24.8100 C   0  0  0  0  0  0  0  0  0  0  0  0
  -22.0140   -4.7110   23.7060 C   0  0  0  0  0  3  0  0  0  0  0  0
  -22.2700   -5.4320   22.5260 C   0  0  0  0  0  0  0  0  0  0  0  0
  -22.8150   -4.8010   21.4580 F   0  0  0  0  0  0  0  0  0  0  0  0
  -21.1780   -4.6580   25.9420 F   0  0  0  0  0  0  0  0  0  0  0  0
  -23.6240  -14.0270   21.2200 C   0  0  0  0  0  0  0  0  0  0  0  0
  -22.9510  -13.3330   22.1320 N   0  0  0  0  0  0  0  0  0  0  0  0
  -23.1980  -15.0990   20.7900 O   0  0  0  0  0  0  0  0  0  0  0  0
  -23.3110  -12.4640   22.4970 H   0  0  0  0  0  0  0  0  0  0  0  0
  -22.0620  -13.6760   22.4680 H   0  0  0  0  0  0  0  0  0  0  0  0
  -26.2470  -15.5860   20.1970 N   0  0  0  0  0  0  0  0  0  0  0  0
  -25.4050  -16.1500   20.2540 H   0  0  0  0  0  0  0  0  0  0  0  0
  -26.8160  -15.8360   19.4010 H   0  0  0  0  0  0  0  0  0  0  0  0
  -30.1500  -21.5120   19.3630 C   0  0  0  0  0  2  0  0  0  0  0  0
  -29.2200  -22.7340   19.8810 C   0  0  0  0  0  2  0  0  0  0  0  0
  -29.5050  -24.2920   17.8440 C   0  0  0  0  0  1  0  0  0  0  0  0
  -30.8260  -24.7230   19.9450 C   0  0  0  0  0  1  0  0  0  0  0  0
  -29.4680  -24.2540   19.3840 C   0  0  2  0  0  0  0  0  0  0  0  0
  -28.3600  -25.3080   19.8730 C   0  0  0  0  0  2  0  0  0  0  0  0
  -28.5070  -26.7610   19.5800 O   0  0  0  0  0  0  0  0  0  0  0  0
  -24.6230  -31.7580   23.0790 C   0  0  0  0  0  0  0  0  0  0  0  0
  -27.3570  -27.5660   19.6340 C   0  0  0  0  0  0  0  0  0  0  0  0
  -23.4480  -30.4430   21.3520 C   0  0  0  0  0  3  0  0  0  0  0  0
  -24.9310  -29.0760   19.7800 C   0  0  0  0  0  0  0  0  0  0  0  0
  -25.9660  -30.8810   21.1560 C   0  0  0  0  0  2  0  0  0  0  0  0
  -26.0890  -29.5650   20.3980 C   0  0  0  0  0  0  0  0  0  0  0  0
  -27.3070  -28.8230   20.3150 C   0  0  0  0  0  3  0  0  0  0  0  0
  -26.1750  -27.1420   18.9840 C   0  0  0  0  0  3  0  0  0  0  0  0
  -24.9750  -27.8730   19.0640 C   0  0  0  0  0  3  0  0  0  0  0  0
  -23.6640  -29.8940   19.9170 C   0  0  0  0  0  2  0  0  0  0  0  0
  -24.6980  -31.0410   21.9200 N   0  0  0  0  0  0  0  0  0  0  0  0
  -23.5380  -31.9510   23.6470 O   0  0  0  0  0  0  0  0  0  0  0  0
  -22.8450  -29.3250   22.2380 C   0  0  0  0  0  0  0  0  0  0  0  0
  -21.5250  -29.1060   22.1180 N   0  0  0  0  0  0  0  0  0  0  0  0
  -23.5620  -28.6650   22.9940 O   0  0  0  0  0  0  0  0  0  0  0  0
  -21.0060  -29.7000   21.4870 H   0  0  0  0  0  0  0  0  0  0  0  0
  -18.2000  -27.7510   22.5830 C   0  0  0  0  0  0  0  0  0  0  0  0
  -20.7540  -28.0780   22.8210 C   0  0  0  0  0  3  0  0  0  0  0  0
  -20.8910  -26.7060   22.1240 C   0  0  0  0  0  2  0  0  0  0  0  0
  -19.7780  -26.4310   21.1080 C   0  0  0  0  0  2  0  0  0  0  0  0
  -18.4070  -26.4690   21.7920 C   0  0  0  0  0  2  0  0  0  0  0  0
  -19.3020  -28.5150   23.0510 C   0  0  0  0  0  0  0  0  0  0  0  0
  -19.0550  -29.7140   23.7520 C   0  0  0  0  0  3  0  0  0  0  0  0
  -17.7390  -30.1530   23.9900 C   0  0  0  0  0  3  0  0  0  0  0  0
  -16.6520  -29.3850   23.5360 C   0  0  0  0  0  3  0  0  0  0  0  0
  -16.8820  -28.1880   22.8380 C   0  0  0  0  0  3  0  0  0  0  0  0
  -25.8910  -32.3900   23.7300 C   0  0  0  0  0  3  0  0  0  0  0  0
  -25.5590  -33.7730   24.0990 N   0  0  0  0  0  0  0  0  0  0  0  0
  -25.8760  -34.8540   23.3740 C   0  0  0  0  0  0  0  0  0  0  0  0
  -26.5520  -34.7910   22.3430 O   0  0  0  0  0  0  0  0  0  0  0  0
  -24.9570  -33.8900   24.9030 H   0  0  0  0  0  0  0  0  0  0  0  0
  -24.1170  -36.6280   23.0730 C   0  0  0  0  0  1  0  0  0  0  0  0
  -25.3650  -36.2200   23.8720 C   0  0  0  0  0  3  0  0  0  0  0  0
  -27.4780  -37.1260   24.7370 C   0  0  0  0  0  1  0  0  0  0  0  0
  -26.3800  -37.2930   23.7890 N   0  0  0  0  0  0  0  0  0  0  0  0
  -25.9580  -38.2040   23.9480 H   0  0  0  0  0  0  0  0  0  0  0  0
  -26.4080  -31.5910   24.9900 C   0  0  1  0  0  0  0  0  0  0  0  0
  -25.3080  -31.3050   26.0400 C   0  0  0  0  0  1  0  0  0  0  0  0
  -27.0220  -30.2370   24.5660 C   0  0  0  0  0  1  0  0  0  0  0  0
  -27.5380  -32.3880   25.6870 C   0  0  0  0  0  1  0  0  0  0  0  0
  1  2  1  0
  3  6  1  0
  3  1  1  0
  4 10  1  0
  4  3  1  0
  4  5  1  0
  5  2  1  0
  6  8  1  0
  7  6  1  0
  9  6  1  0
 11 17  1  0
 11 19  1  0
 12 17  1  0
 13 14  1  0
 13 12  1  0
 15 14  1  0
 15 24  1  0
 15 16  1  0
 17 16  1  0
 18 11  2  0
 19 10  1  0
 19 20  1  0
 21 22  2  0
 22 41  1  0
 23 22  1  0
 23 26  1  0
 24 25  1  0
 24 21  1  0
 25 23  2  0
 26 27  1  0
 27 28  2  0
 29 32  1  0
 29 28  1  0
 30 29  2  0
 31 30  1  0
 31 26  2  0
 32 33  1  0
 33 38  2  0
 33 34  1  0
 34 35  2  0
 35 36  1  0
 36 40  1  0
 37 36  2  0
 38 37  1  0
 39 38  1  0
 41 42  1  0
 42 45  1  0
 42 44  1  0
 43 41  2  0
 46 47  1  0
 46 21  1  0
 48 46  1  0
 49 50  1  0
 49  5  1  0
 53 51  1  6
 53 54  1  0
 53 50  1  0
 53 52  1  0
 55 57  1  0
 55 54  1  0
 56 67  2  0
 57 62  1  0
 58 66  1  0
 58 68  1  0
 59 65  1  0
 59 61  1  0
 60 66  1  0
 61 60  1  0
 62 61  2  0
 63 64  1  0
 63 57  2  0
 64 59  2  0
 65 58  1  0
 66 56  1  0
 68 70  2  0
 69 68  1  0
 71 69  1  0
 72 81  2  0
 72 77  1  0
 73 69  1  0
 73 77  1  0
 74 73  1  0
 75 76  1  0
 75 74  1  0
 76 72  1  0
 77 78  2  0
 78 79  1  0
 80 79  2  0
 81 80  1  0
 82 56  1  0
 82 83  1  0
 82 92  1  0
 83 86  1  0
 84 88  1  0
 84 83  1  0
 85 84  2  0
 88 87  1  0
 90 88  1  0
 90 91  1  0
 90 89  1  0
 92 95  1  1
 92 93  1  0
 94 92  1  0
M  ISO  4  11 100  19 100  54 101  55 101
M  END
>  <TORSDO>  (46) 
F 22

>  <SCORE>  (46) 
-11.295

>  <name>  (46) 
46

>  <ligand_id>  (46) 
46

>  <original_smiles>  (46) 
[H]c1c([H])c([H])c2c(c1[H])C([H])([H])C([H])([H])C([H])([H])C2([H])N([H])C(=O)C1([H])N(C(=O)C([H])(N([H])C(=O)C([H])(N([H])C([H])([H])[H])C([H])([H])[H])C(C([H])([H])[H])(C([H])([H])[H])C([H])([H])[H])C([H])([H])c2c([H])c(OC([H])([H])C(C([H])([H])[H])(C([H])([H])[H])C([H])([H])C([H])([H])N3C([H])([H])C([H])([H])C([H])([N+]([H])([H])[H])C3([H])C([H])([H])N([H])C(=O)N3C([H])([H])C([H])([H])C([H])([H])C([H])(n4nc(-c5c([H])c([H])c(Oc6c([H])c([H])c(F)c([H])c6F)c([H])c5[H])c(C(=O)N([H])[H])c4N([H])[H])C3([H])[H])c([H])c([H])c2C1([H])[H]

>  <smiles>  (46) 
[H]c1c([H])c([H])c2c(c1[H])C([H])([H])C([H])([H])C([H])([H])C2([H])N([H])C(=O)C1([H])N(C(=O)C([H])(N([H])C(=O)C([H])(N([H])C([H])([H])[H])C([H])([H])[H])C(C([H])([H])[H])(C([H])([H])[H])C([H])([H])[H])C([H])([H])c2c([H])c(OC([H])([H])C(C([H])([H])[H])(C([H])([H])[H])C([H])([H])C([H])([H])N3C([H])([H])C([H])([H])C([H])([N+]([H])([H])[H])C3([H])C([H])([H])N([H])C(=O)N3C([H])([H])C([H])([H])C([H])([H])C([H])(n4nc(-c5c([H])c([H])c(Oc6c([H])c([H])c(F)c([H])c6F)c([H])c5[H])c(C(=O)N([H])[H])c4N([H])[H])C3([H])[H])c([H])c([H])c2C1([H])[H]

$$$$
47:0:0
     RDKit          3D

 91 99  0  0  1  0  0  0  0  0999 V2000
  -30.4570  -21.1500   21.9820 C   0  0  0  0  0  2  0  0  0  0  0  0
  -30.2090  -17.8480   19.9550 C   0  0  0  0  0  2  0  0  0  0  0  0
  -30.2710  -17.3280   22.3920 C   0  0  0  0  0  2  0  0  0  0  0  0
  -30.5640  -19.3220   20.2770 C   0  0  0  0  0  2  0  0  0  0  0  0
  -30.6270  -18.8020   22.6780 C   0  0  0  0  0  2  0  0  0  0  0  0
  -30.7710  -16.8690   21.0110 C   0  0  0  0  0  3  0  0  0  0  0  0
  -30.1130  -19.7370   21.6360 N   0  0  1  0  0  4  0  0  0  0  0  0
  -29.1060  -19.6710   21.6580 H   0  0  0  0  0  0  0  0  0  0  0  0
  -31.0010  -14.5280   20.0800 C   0  0  0  0  0  0  0  0  0  0  0  0
  -30.6540  -12.3750   18.9240 C   0  0  0  0  0  2  0  0  0  0  0  0
  -29.6430  -12.5660   17.7750 C   0  0  0  0  0  2  0  0  0  0  0  0
  -28.1940  -12.4310   18.2840 C   0  0  0  0  0  2  0  0  0  0  0  0
  -27.9250  -13.2790   19.5560 C   0  0  0  0  0  3  0  0  0  0  0  0
  -29.0330  -13.0430   20.6060 C   0  0  0  0  0  2  0  0  0  0  0  0
  -30.3290  -13.3510   19.9720 N   0  0  0  0  0  0  0  0  0  0  0  0
  -32.0720  -14.7530   19.5090 O   0  0  0  0  0  0  0  0  0  0  0  0
  -30.3560  -15.4800   20.7760 N   0  0  0  0  0  0  0  0  0  0  0  0
  -29.4810  -15.1900   21.1840 H   0  0  0  0  0  0  0  0  0  0  0  0
  -25.5830  -13.9120   20.4190 C   0  0  0  0  0  0  0  0  0  0  0  0
  -24.5230  -13.1480   20.8290 C   0  0  0  0  0  0  0  0  0  0  0  0
  -24.9540  -11.7900   20.7300 C   0  0  0  0  0  0  0  0  0  0  0  0
  -26.5950  -13.0190   20.1020 N   0  0  0  0  0  0  0  0  0  0  0  0
  -26.2210  -11.7360   20.3430 N   0  0  0  0  0  0  0  0  0  0  0  0
  -24.2160  -10.5350   20.9260 C   0  0  0  0  0  0  0  0  0  0  0  0
  -24.6160   -9.5870   21.8920 C   0  0  0  0  0  3  0  0  0  0  0  0
  -23.8800   -8.3960   22.0740 C   0  0  0  0  0  3  0  0  0  0  0  0
  -22.7300   -8.1460   21.2880 C   0  0  0  0  0  0  0  0  0  0  0  0
  -22.3500   -9.0820   20.3100 C   0  0  0  0  0  3  0  0  0  0  0  0
  -23.0870  -10.2640   20.1270 C   0  0  0  0  0  3  0  0  0  0  0  0
  -21.9680   -7.0060   21.3770 O   0  0  0  0  0  0  0  0  0  0  0  0
  -21.7730   -6.3630   22.5730 C   0  0  0  0  0  0  0  0  0  0  0  0
  -21.1650   -7.0050   23.6750 C   0  0  0  0  0  3  0  0  0  0  0  0
  -20.9200   -6.2870   24.8620 C   0  0  0  0  0  3  0  0  0  0  0  0
  -21.2720   -4.9260   24.9470 C   0  0  0  0  0  0  0  0  0  0  0  0
  -21.8710   -4.2830   23.8490 C   0  0  0  0  0  3  0  0  0  0  0  0
  -22.1180   -4.9990   22.6650 C   0  0  0  0  0  0  0  0  0  0  0  0
  -22.6770   -4.3690   21.6040 F   0  0  0  0  0  0  0  0  0  0  0  0
  -21.0290   -4.2330   26.0840 F   0  0  0  0  0  0  0  0  0  0  0  0
  -23.1540  -13.6410   21.2000 C   0  0  0  0  0  0  0  0  0  0  0  0
  -22.4730  -12.9390   22.1000 N   0  0  0  0  0  0  0  0  0  0  0  0
  -22.7000  -14.6830   20.7290 O   0  0  0  0  0  0  0  0  0  0  0  0
  -22.8530  -12.0950   22.5010 H   0  0  0  0  0  0  0  0  0  0  0  0
  -21.5570  -13.2520   22.3920 H   0  0  0  0  0  0  0  0  0  0  0  0
  -25.7650  -15.2840   20.2720 N   0  0  0  0  0  0  0  0  0  0  0  0
  -25.0170  -15.9490   20.4360 H   0  0  0  0  0  0  0  0  0  0  0  0
  -26.5990  -15.7130   19.8920 H   0  0  0  0  0  0  0  0  0  0  0  0
  -29.9310  -22.2480   21.0140 C   0  0  0  0  0  2  0  0  0  0  0  0
  -30.2680  -23.6600   21.5510 C   0  0  0  0  0  2  0  0  0  0  0  0
  -30.0620  -24.8590   20.5930 C   0  0  0  0  0  2  0  0  0  0  0  0
  -28.6190  -25.3910   20.4600 C   0  0  0  0  0  2  0  0  0  0  0  0
  -28.6640  -26.7670   20.0610 O   0  0  0  0  0  0  0  0  0  0  0  0
  -24.7140  -31.7470   23.2630 C   0  0  0  0  0  0  0  0  0  0  0  0
  -27.4690  -27.4530   20.0810 C   0  0  0  0  0  0  0  0  0  0  0  0
  -23.5470  -30.3760   21.5660 C   0  0  0  0  0  3  0  0  0  0  0  0
  -25.0410  -28.9040   20.1130 C   0  0  0  0  0  0  0  0  0  0  0  0
  -26.0670  -30.7870   21.4010 C   0  0  0  0  0  2  0  0  0  0  0  0
  -26.1840  -29.4390   20.7220 C   0  0  0  0  0  0  0  0  0  0  0  0
  -27.4020  -28.7230   20.6960 C   0  0  0  0  0  3  0  0  0  0  0  0
  -26.3080  -26.9260   19.4740 C   0  0  0  0  0  3  0  0  0  0  0  0
  -25.0980  -27.6470   19.4860 C   0  0  0  0  0  3  0  0  0  0  0  0
  -23.7810  -29.7380   20.1700 C   0  0  0  0  0  2  0  0  0  0  0  0
  -24.7940  -30.9830   22.1360 N   0  0  0  0  0  0  0  0  0  0  0  0
  -23.6240  -31.9830   23.8010 O   0  0  0  0  0  0  0  0  0  0  0  0
  -22.9050  -29.3150   22.4890 C   0  0  0  0  0  0  0  0  0  0  0  0
  -21.5910  -29.0940   22.3220 N   0  0  0  0  0  0  0  0  0  0  0  0
  -23.5870  -28.6940   23.3100 O   0  0  0  0  0  0  0  0  0  0  0  0
  -21.1020  -29.6510   21.6350 H   0  0  0  0  0  0  0  0  0  0  0  0
  -18.2470  -27.7770   22.6910 C   0  0  0  0  0  0  0  0  0  0  0  0
  -20.7840  -28.1150   23.0500 C   0  0  0  0  0  3  0  0  0  0  0  0
  -20.9530  -26.6990   22.4530 C   0  0  0  0  0  2  0  0  0  0  0  0
  -19.8950  -26.3570   21.3990 C   0  0  0  0  0  2  0  0  0  0  0  0
  -18.4900  -26.4450   22.0000 C   0  0  0  0  0  2  0  0  0  0  0  0
  -19.3250  -28.5680   23.1700 C   0  0  0  0  0  0  0  0  0  0  0  0
  -19.0450  -29.8130   23.7730 C   0  0  0  0  0  3  0  0  0  0  0  0
  -17.7190  -30.2680   23.9050 C   0  0  0  0  0  3  0  0  0  0  0  0
  -16.6550  -29.4740   23.4440 C   0  0  0  0  0  3  0  0  0  0  0  0
  -16.9200  -28.2310   22.8430 C   0  0  0  0  0  3  0  0  0  0  0  0
  -25.9840  -32.3790   23.9160 C   0  0  0  0  0  3  0  0  0  0  0  0
  -25.6510  -33.7610   24.2820 N   0  0  0  0  0  0  0  0  0  0  0  0
  -25.9910  -34.8410   23.5660 C   0  0  0  0  0  0  0  0  0  0  0  0
  -26.6890  -34.7790   22.5510 O   0  0  0  0  0  0  0  0  0  0  0  0
  -25.0330  -33.8840   25.0720 H   0  0  0  0  0  0  0  0  0  0  0  0
  -24.2640  -36.6340   23.2060 C   0  0  0  0  0  1  0  0  0  0  0  0
  -25.4740  -36.2090   24.0540 C   0  0  0  0  0  3  0  0  0  0  0  0
  -27.5620  -37.0790   25.0070 C   0  0  0  0  0  1  0  0  0  0  0  0
  -26.5020  -37.2720   24.0220 N   0  0  0  0  0  0  0  0  0  0  0  0
  -26.0820  -38.1840   24.1820 H   0  0  0  0  0  0  0  0  0  0  0  0
  -26.5030  -31.5770   25.1710 C   0  0  1  0  0  0  0  0  0  0  0  0
  -25.4020  -31.2690   26.2120 C   0  0  0  0  0  1  0  0  0  0  0  0
  -27.1310  -30.2320   24.7380 C   0  0  0  0  0  1  0  0  0  0  0  0
  -27.6220  -32.3780   25.8800 C   0  0  0  0  0  1  0  0  0  0  0  0
  2  4  1  0
  2  6  1  0
  3  5  1  0
  4  7  1  0
  6 17  1  0
  6  3  1  0
  7  8  1  6
  7  1  1  0
  7  5  1  0
  9 17  1  0
 10 15  1  0
 11 12  1  0
 11 10  1  0
 13 12  1  0
 13 22  1  0
 13 14  1  0
 15  9  1  0
 15 14  1  0
 16  9  2  0
 17 18  1  0
 19 20  2  0
 20 39  1  0
 21 20  1  0
 21 24  1  0
 22 23  1  0
 22 19  1  0
 23 21  2  0
 24 25  1  0
 25 26  2  0
 27 30  1  0
 27 26  1  0
 28 27  2  0
 29 28  1  0
 29 24  2  0
 30 31  1  0
 31 36  2  0
 31 32  1  0
 32 33  2  0
 33 34  1  0
 34 38  1  0
 35 34  2  0
 36 35  1  0
 37 36  1  0
 39 40  1  0
 40 43  1  0
 40 42  1  0
 41 39  2  0
 44 19  1  0
 44 45  1  0
 46 44  1  0
 47 48  1  0
 47  1  1  0
 49 48  1  0
 50 49  1  0
 51 53  1  0
 51 50  1  0
 52 63  2  0
 53 58  1  0
 54 62  1  0
 54 64  1  0
 55 61  1  0
 55 57  1  0
 56 62  1  0
 57 56  1  0
 58 57  2  0
 59 60  1  0
 59 53  2  0
 60 55  2  0
 61 54  1  0
 62 52  1  0
 64 66  2  0
 65 64  1  0
 67 65  1  0
 68 77  2  0
 68 73  1  0
 69 65  1  0
 69 73  1  0
 70 69  1  0
 71 72  1  0
 71 70  1  0
 72 68  1  0
 73 74  2  0
 74 75  1  0
 76 75  2  0
 77 76  1  0
 78 52  1  0
 78 79  1  0
 78 88  1  0
 79 82  1  0
 80 84  1  0
 80 79  1  0
 81 80  2  0
 84 83  1  0
 86 84  1  0
 86 87  1  0
 86 85  1  0
 88 91  1  1
 88 89  1  0
 90 88  1  0
M  ISO  4   9 100  17 100  50 101  51 101
M  END
>  <TORSDO>  (47) 
F 21

>  <SCORE>  (47) 
-12.629

>  <name>  (47) 
47

>  <ligand_id>  (47) 
47

>  <original_smiles>  (47) 
[H]c1c([H])c([H])c2c(c1[H])C([H])([H])C([H])([H])C([H])([H])C2([H])N([H])C(=O)C1([H])N(C(=O)C([H])(N([H])C(=O)C([H])(N([H])C([H])([H])[H])C([H])([H])[H])C(C([H])([H])[H])(C([H])([H])[H])C([H])([H])[H])C([H])([H])c2c([H])c(OC([H])([H])C([H])([H])C([H])([H])C([H])([H])C([H])([H])[N+]3([H])C([H])([H])C([H])([H])C([H])(N([H])C(=O)N4C([H])([H])C([H])([H])C([H])([H])C([H])(n5nc(-c6c([H])c([H])c(Oc7c([H])c([H])c(F)c([H])c7F)c([H])c6[H])c(C(=O)N([H])[H])c5N([H])[H])C4([H])[H])C([H])([H])C3([H])[H])c([H])c([H])c2C1([H])[H]

>  <smiles>  (47) 
[H]c1c([H])c([H])c2c(c1[H])C([H])([H])C([H])([H])C([H])([H])C2([H])N([H])C(=O)C1([H])N(C(=O)C([H])(N([H])C(=O)C([H])(N([H])C([H])([H])[H])C([H])([H])[H])C(C([H])([H])[H])(C([H])([H])[H])C([H])([H])[H])C([H])([H])c2c([H])c(OC([H])([H])C([H])([H])C([H])([H])C([H])([H])C([H])([H])[N+]3([H])C([H])([H])C([H])([H])C([H])(N([H])C(=O)N4C([H])([H])C([H])([H])C([H])([H])C([H])(n5nc(-c6c([H])c([H])c(Oc7c([H])c([H])c(F)c([H])c7F)c([H])c6[H])c(C(=O)N([H])[H])c5N([H])[H])C4([H])[H])C([H])([H])C3([H])[H])c([H])c([H])c2C1([H])[H]

$$$$
48:0:0
     RDKit          3D

 98106  0  0  1  0  0  0  0  0999 V2000
  -31.4980  -22.0490   19.6920 C   0  0  0  0  0  2  0  0  0  0  0  0
  -30.2710  -22.2170   17.4850 C   0  0  0  0  0  1  0  0  0  0  0  0
  -30.2160  -22.5660   18.9880 C   0  0  0  0  0  3  0  0  0  0  0  0
  -29.9950  -24.0850   19.2710 C   0  0  0  0  0  2  0  0  0  0  0  0
  -28.9130  -24.7990   18.4280 C   0  0  0  0  0  3  0  0  0  0  0  0
  -27.6640  -24.1330   18.4900 O   0  0  0  0  0  0  0  0  0  0  0  0
  -27.3230  -24.2370   19.3710 H   0  0  0  0  0  0  0  0  0  0  0  0
  -28.7380  -26.3130   18.7240 C   0  0  0  0  0  2  0  0  0  0  0  0
  -28.3420  -26.6660   20.0640 O   0  0  0  0  0  0  0  0  0  0  0  0
  -24.5380  -31.8580   23.2500 C   0  0  0  0  0  0  0  0  0  0  0  0
  -27.1710  -27.3920   20.1500 C   0  0  0  0  0  0  0  0  0  0  0  0
  -23.3340  -30.4580   21.6080 C   0  0  0  0  0  3  0  0  0  0  0  0
  -24.7810  -28.9050   20.1990 C   0  0  0  0  0  0  0  0  0  0  0  0
  -25.8660  -30.7900   21.4300 C   0  0  0  0  0  2  0  0  0  0  0  0
  -25.9410  -29.4140   20.7940 C   0  0  0  0  0  0  0  0  0  0  0  0
  -27.1380  -28.6560   20.7840 C   0  0  0  0  0  3  0  0  0  0  0  0
  -25.9800  -26.8860   19.5830 C   0  0  0  0  0  3  0  0  0  0  0  0
  -24.7920  -27.6330   19.6030 C   0  0  0  0  0  3  0  0  0  0  0  0
  -23.5460  -29.7770   20.2320 C   0  0  0  0  0  2  0  0  0  0  0  0
  -24.5970  -31.0520   22.1530 N   0  0  0  0  0  0  0  0  0  0  0  0
  -23.4540  -32.1380   23.7820 O   0  0  0  0  0  0  0  0  0  0  0  0
  -22.6710  -29.4420   22.5650 C   0  0  0  0  0  0  0  0  0  0  0  0
  -21.3470  -29.2610   22.4230 N   0  0  0  0  0  0  0  0  0  0  0  0
  -23.3430  -28.8220   23.3920 O   0  0  0  0  0  0  0  0  0  0  0  0
  -20.8650  -29.8160   21.7290 H   0  0  0  0  0  0  0  0  0  0  0  0
  -17.9640  -28.0740   22.8810 C   0  0  0  0  0  0  0  0  0  0  0  0
  -20.5180  -28.3280   23.1870 C   0  0  0  0  0  3  0  0  0  0  0  0
  -20.6280  -26.8950   22.6190 C   0  0  0  0  0  2  0  0  0  0  0  0
  -19.5380  -26.5670   21.5940 C   0  0  0  0  0  2  0  0  0  0  0  0
  -18.1470  -26.7190   22.2180 C   0  0  0  0  0  2  0  0  0  0  0  0
  -19.0780  -28.8360   23.3220 C   0  0  0  0  0  0  0  0  0  0  0  0
  -18.8540  -30.1030   23.9020 C   0  0  0  0  0  3  0  0  0  0  0  0
  -17.5490  -30.6090   24.0440 C   0  0  0  0  0  3  0  0  0  0  0  0
  -16.4480  -29.8430   23.6250 C   0  0  0  0  0  3  0  0  0  0  0  0
  -16.6570  -28.5770   23.0470 C   0  0  0  0  0  3  0  0  0  0  0  0
  -25.8230  -32.4830   23.8770 C   0  0  0  0  0  3  0  0  0  0  0  0
  -25.5250  -33.8850   24.1940 N   0  0  0  0  0  0  0  0  0  0  0  0
  -25.8630  -34.9290   23.4270 C   0  0  0  0  0  0  0  0  0  0  0  0
  -26.5360  -34.8130   22.3980 O   0  0  0  0  0  0  0  0  0  0  0  0
  -24.9320  -34.0490   24.9950 H   0  0  0  0  0  0  0  0  0  0  0  0
  -24.1500  -36.7290   23.0430 C   0  0  0  0  0  1  0  0  0  0  0  0
  -25.3810  -36.3240   23.8700 C   0  0  0  0  0  3  0  0  0  0  0  0
  -27.5140  -37.1980   24.7130 C   0  0  0  0  0  1  0  0  0  0  0  0
  -26.4190  -37.3710   23.7620 N   0  0  0  0  0  0  0  0  0  0  0  0
  -26.0170  -38.2930   23.9070 H   0  0  0  0  0  0  0  0  0  0  0  0
  -26.3240  -31.7170   25.1610 C   0  0  1  0  0  0  0  0  0  0  0  0
  -25.2220  -31.4930   26.2240 C   0  0  0  0  0  1  0  0  0  0  0  0
  -26.9010  -30.3340   24.7820 C   0  0  0  0  0  1  0  0  0  0  0  0
  -27.4760  -32.5080   25.8280 C   0  0  0  0  0  1  0  0  0  0  0  0
  -31.2500  -21.1080   20.8890 C   0  0  0  0  0  2  0  0  0  0  0  0
  -29.8210  -17.7060   21.6450 C   0  0  0  0  0  2  0  0  0  0  0  0
  -30.4280  -19.1120   21.8320 C   0  0  0  0  0  2  0  0  0  0  0  0
  -31.4360  -19.0240   19.6510 C   0  0  0  0  0  2  0  0  0  0  0  0
  -30.6670  -16.8540   20.6780 C   0  0  0  0  0  3  0  0  0  0  0  0
  -30.7740  -17.6570   19.3470 C   0  0  0  0  0  3  0  0  0  0  0  0
  -30.6050  -19.8290   20.5600 N   0  0  0  0  0  0  0  0  0  0  0  0
  -30.8030  -14.4070   20.1260 C   0  0  0  0  0  0  0  0  0  0  0  0
  -30.3990  -12.3050   18.9320 C   0  0  0  0  0  2  0  0  0  0  0  0
  -29.4160  -12.5790   17.7760 C   0  0  0  0  0  2  0  0  0  0  0  0
  -27.9570  -12.4600   18.2640 C   0  0  0  0  0  2  0  0  0  0  0  0
  -27.6890  -13.2590   19.5700 C   0  0  0  0  0  3  0  0  0  0  0  0
  -28.7860  -12.9840   20.6230 C   0  0  0  0  0  2  0  0  0  0  0  0
  -30.0880  -13.2620   20.0010 N   0  0  0  0  0  0  0  0  0  0  0  0
  -31.9280  -14.5510   19.6470 O   0  0  0  0  0  0  0  0  0  0  0  0
  -30.1330  -15.4790   20.5700 N   0  0  0  0  0  0  0  0  0  0  0  0
  -29.1850  -15.3270   20.8870 H   0  0  0  0  0  0  0  0  0  0  0  0
  -25.3290  -13.8710   20.3960 C   0  0  0  0  0  0  0  0  0  0  0  0
  -24.2770  -13.0980   20.8080 C   0  0  0  0  0  0  0  0  0  0  0  0
  -24.7310  -11.7460   20.7470 C   0  0  0  0  0  0  0  0  0  0  0  0
  -26.3570  -12.9860   20.1070 N   0  0  0  0  0  0  0  0  0  0  0  0
  -26.0040  -11.7020   20.3780 N   0  0  0  0  0  0  0  0  0  0  0  0
  -24.0100  -10.4850   20.9590 C   0  0  0  0  0  0  0  0  0  0  0  0
  -24.4540   -9.5280   21.8980 C   0  0  0  0  0  3  0  0  0  0  0  0
  -23.7330   -8.3300   22.0960 C   0  0  0  0  0  3  0  0  0  0  0  0
  -22.5530   -8.0800   21.3570 C   0  0  0  0  0  0  0  0  0  0  0  0
  -22.1290   -9.0260   20.4060 C   0  0  0  0  0  3  0  0  0  0  0  0
  -22.8520  -10.2130   20.2070 C   0  0  0  0  0  3  0  0  0  0  0  0
  -21.8000   -6.9360   21.4650 O   0  0  0  0  0  0  0  0  0  0  0  0
  -21.7360   -6.2260   22.6380 C   0  0  0  0  0  0  0  0  0  0  0  0
  -21.2700   -6.8060   23.8370 C   0  0  0  0  0  3  0  0  0  0  0  0
  -21.1530   -6.0190   25.0010 C   0  0  0  0  0  3  0  0  0  0  0  0
  -21.4940   -4.6530   24.9650 C   0  0  0  0  0  0  0  0  0  0  0  0
  -21.9520   -4.0730   23.7690 C   0  0  0  0  0  3  0  0  0  0  0  0
  -22.0690   -4.8570   22.6090 C   0  0  0  0  0  0  0  0  0  0  0  0
  -22.4900   -4.2870   21.4550 F   0  0  0  0  0  0  0  0  0  0  0  0
  -21.3760   -3.8940   26.0790 F   0  0  0  0  0  0  0  0  0  0  0  0
  -22.8910  -13.5750   21.1410 C   0  0  0  0  0  0  0  0  0  0  0  0
  -22.1970  -12.8760   22.0320 N   0  0  0  0  0  0  0  0  0  0  0  0
  -22.4320  -14.6020   20.6420 O   0  0  0  0  0  0  0  0  0  0  0  0
  -22.5780  -12.0470   22.4640 H   0  0  0  0  0  0  0  0  0  0  0  0
  -21.2660  -13.1760   22.2870 H   0  0  0  0  0  0  0  0  0  0  0  0
  -25.4930  -15.2440   20.2240 N   0  0  0  0  0  0  0  0  0  0  0  0
  -24.7390  -15.9050   20.3800 H   0  0  0  0  0  0  0  0  0  0  0  0
  -26.3240  -15.6760   19.8400 H   0  0  0  0  0  0  0  0  0  0  0  0
  -31.5260  -16.9660   18.2880 N   0  0  0  0  0  4  0  0  0  0  0  0
  -32.4780  -17.2790   18.2570 H   0  0  0  0  0  0  0  0  0  0  0  0
  -31.1040  -17.1050   17.3860 H   0  0  0  0  0  0  0  0  0  0  0  0
  -31.5520  -15.9740   18.5120 H   0  0  0  0  0  0  0  0  0  0  0  0
  1 50  1  0
  3  2  1  0
  3  4  1  0
  3  1  1  0
  5  6  1  0
  5  8  1  0
  5  4  1  0
  6  7  1  0
  8  9  1  0
  9 11  1  0
 10 21  2  0
 11 16  1  0
 12 20  1  0
 12 22  1  0
 13 19  1  0
 13 15  1  0
 14 20  1  0
 15 14  1  0
 16 15  2  0
 17 18  1  0
 17 11  2  0
 18 13  2  0
 19 12  1  0
 20 10  1  0
 22 24  2  0
 23 22  1  0
 25 23  1  0
 26 35  2  0
 26 31  1  0
 27 23  1  0
 27 31  1  0
 28 27  1  0
 29 30  1  0
 29 28  1  0
 30 26  1  0
 31 32  2  0
 32 33  1  0
 34 33  2  0
 35 34  1  0
 36 10  1  0
 36 37  1  0
 36 46  1  0
 37 40  1  0
 38 42  1  0
 38 37  1  0
 39 38  2  0
 42 41  1  0
 44 42  1  0
 44 45  1  0
 44 43  1  0
 46 49  1  1
 46 47  1  0
 48 46  1  0
 51 52  1  0
 53 56  1  0
 54 65  1  0
 54 51  1  0
 55 95  1  0
 55 53  1  0
 55 54  1  0
 56 50  1  0
 56 52  1  0
 57 65  1  0
 58 63  1  0
 59 60  1  0
 59 58  1  0
 61 60  1  0
 61 70  1  0
 61 62  1  0
 63 57  1  0
 63 62  1  0
 64 57  2  0
 65 66  1  0
 67 68  2  0
 68 87  1  0
 69 68  1  0
 69 72  1  0
 70 71  1  0
 70 67  1  0
 71 69  2  0
 72 73  1  0
 73 74  2  0
 75 78  1  0
 75 74  1  0
 76 75  2  0
 77 76  1  0
 77 72  2  0
 78 79  1  0
 79 80  1  0
 80 81  2  0
 82 81  1  0
 82 86  1  0
 83 82  2  0
 84 79  2  0
 84 83  1  0
 85 84  1  0
 87 88  1  0
 88 91  1  0
 88 90  1  0
 89 87  2  0
 92 93  1  0
 92 67  1  0
 94 92  1  0
 95 98  1  0
 96 95  1  0
 97 95  1  0
M  ISO  4   8 101   9 101  57 100  65 100
M  END
>  <TORSDO>  (48) 
F 24

>  <SCORE>  (48) 
-12.528

>  <name>  (48) 
48

>  <ligand_id>  (48) 
48

>  <original_smiles>  (48) 
[H]OC([H])(C([H])([H])Oc1c([H])c([H])c2c(c1[H])C([H])([H])N(C(=O)C([H])(N([H])C(=O)C([H])(N([H])C([H])([H])[H])C([H])([H])[H])C(C([H])([H])[H])(C([H])([H])[H])C([H])([H])[H])C([H])(C(=O)N([H])C1([H])c3c([H])c([H])c([H])c([H])c3C([H])([H])C([H])([H])C1([H])[H])C2([H])[H])C([H])([H])C([H])(C([H])([H])[H])C([H])([H])C([H])([H])N1C([H])([H])C([H])([H])C([H])(N([H])C(=O)N2C([H])([H])C([H])([H])C([H])([H])C([H])(n3nc(-c4c([H])c([H])c(Oc5c([H])c([H])c(F)c([H])c5F)c([H])c4[H])c(C(=O)N([H])[H])c3N([H])[H])C2([H])[H])C([H])([N+]([H])([H])[H])C1([H])[H]

>  <smiles>  (48) 
[H]OC([H])(C([H])([H])Oc1c([H])c([H])c2c(c1[H])C([H])([H])N(C(=O)C([H])(N([H])C(=O)C([H])(N([H])C([H])([H])[H])C([H])([H])[H])C(C([H])([H])[H])(C([H])([H])[H])C([H])([H])[H])C([H])(C(=O)N([H])C1([H])c3c([H])c([H])c([H])c([H])c3C([H])([H])C([H])([H])C1([H])[H])C2([H])[H])C([H])([H])C([H])(C([H])([H])[H])C([H])([H])C([H])([H])N1C([H])([H])C([H])([H])C([H])(N([H])C(=O)N2C([H])([H])C([H])([H])C([H])([H])C([H])(n3nc(-c4c([H])c([H])c(Oc5c([H])c([H])c(F)c([H])c5F)c([H])c4[H])c(C(=O)N([H])[H])c3N([H])[H])C2([H])[H])C([H])([N+]([H])([H])[H])C1([H])[H]

$$$$
49:0:0
     RDKit          3D

 90 98  0  0  1  0  0  0  0  0999 V2000
  -29.1280  -20.3650   20.5950 C   0  0  0  0  0  0  0  0  0  0  0  0
  -29.8040  -19.2730   20.1920 N   0  0  0  0  0  0  0  0  0  0  0  0
  -28.1760  -20.2860   21.3730 O   0  0  0  0  0  0  0  0  0  0  0  0
  -30.5720  -19.4140   19.5480 H   0  0  0  0  0  0  0  0  0  0  0  0
  -30.8430  -14.5120   19.9230 C   0  0  0  0  0  0  0  0  0  0  0  0
  -30.4280  -12.4140   18.6950 C   0  0  0  0  0  2  0  0  0  0  0  0
  -29.3750  -12.6950   17.6020 C   0  0  0  0  0  2  0  0  0  0  0  0
  -27.9430  -12.5540   18.1600 C   0  0  0  0  0  2  0  0  0  0  0  0
  -27.7460  -13.3050   19.5060 C   0  0  0  0  0  3  0  0  0  0  0  0
  -28.9020  -12.9770   20.4780 C   0  0  0  0  0  2  0  0  0  0  0  0
  -30.1610  -13.3370   19.8080 N   0  0  0  0  0  0  0  0  0  0  0  0
  -31.9240  -14.6980   19.3530 O   0  0  0  0  0  0  0  0  0  0  0  0
  -29.8020  -17.4040   21.8810 C   0  0  0  0  0  2  0  0  0  0  0  0
  -29.8120  -15.8760   21.7430 C   0  0  0  0  0  2  0  0  0  0  0  0
  -30.1080  -16.8490   19.5900 C   0  0  0  0  0  2  0  0  0  0  0  0
  -29.4150  -17.8860   20.4860 C   0  0  0  0  0  3  0  0  0  0  0  0
  -30.1100  -15.5790   20.3370 N   0  0  0  0  0  0  0  0  0  0  0  0
  -25.4280  -13.8940   20.4570 C   0  0  0  0  0  0  0  0  0  0  0  0
  -24.3930  -13.1120   20.8920 C   0  0  0  0  0  0  0  0  0  0  0  0
  -24.8360  -11.7610   20.7580 C   0  0  0  0  0  0  0  0  0  0  0  0
  -26.4400  -13.0180   20.0940 N   0  0  0  0  0  0  0  0  0  0  0  0
  -26.0910  -11.7270   20.3270 N   0  0  0  0  0  0  0  0  0  0  0  0
  -24.1190  -10.4940   20.9600 C   0  0  0  0  0  0  0  0  0  0  0  0
  -24.5770   -9.5260   21.8810 C   0  0  0  0  0  3  0  0  0  0  0  0
  -23.8610   -8.3250   22.0710 C   0  0  0  0  0  3  0  0  0  0  0  0
  -22.6730   -8.0820   21.3400 C   0  0  0  0  0  0  0  0  0  0  0  0
  -22.2360   -9.0380   20.4070 C   0  0  0  0  0  3  0  0  0  0  0  0
  -22.9510  -10.2320   20.2150 C   0  0  0  0  0  3  0  0  0  0  0  0
  -21.9280   -6.9320   21.4410 O   0  0  0  0  0  0  0  0  0  0  0  0
  -21.8330   -6.2370   22.6200 C   0  0  0  0  0  0  0  0  0  0  0  0
  -21.3440   -6.8370   23.8010 C   0  0  0  0  0  3  0  0  0  0  0  0
  -21.1960   -6.0680   24.9720 C   0  0  0  0  0  3  0  0  0  0  0  0
  -21.5260   -4.6990   24.9630 C   0  0  0  0  0  0  0  0  0  0  0  0
  -22.0080   -4.0990   23.7860 C   0  0  0  0  0  3  0  0  0  0  0  0
  -22.1570   -4.8660   22.6180 C   0  0  0  0  0  0  0  0  0  0  0  0
  -22.6020   -4.2770   21.4810 F   0  0  0  0  0  0  0  0  0  0  0  0
  -21.3770   -3.9570   26.0850 F   0  0  0  0  0  0  0  0  0  0  0  0
  -23.0320  -13.5830   21.3190 C   0  0  0  0  0  0  0  0  0  0  0  0
  -22.3920  -12.8560   22.2280 N   0  0  0  0  0  0  0  0  0  0  0  0
  -22.5500  -14.6270   20.8820 O   0  0  0  0  0  0  0  0  0  0  0  0
  -22.7970  -12.0120   22.6020 H   0  0  0  0  0  0  0  0  0  0  0  0
  -21.4810  -13.1500   22.5570 H   0  0  0  0  0  0  0  0  0  0  0  0
  -25.5870  -15.2700   20.3210 N   0  0  0  0  0  0  0  0  0  0  0  0
  -24.8320  -15.9200   20.5070 H   0  0  0  0  0  0  0  0  0  0  0  0
  -26.4010  -15.7110   19.9130 H   0  0  0  0  0  0  0  0  0  0  0  0
  -29.5540  -21.7330   20.0190 C   0  0  0  0  0  2  0  0  0  0  0  0
  -28.8740  -22.9530   20.7020 C   0  0  0  0  0  2  0  0  0  0  0  0
  -29.0660  -24.3140   19.9850 C   0  0  0  0  0  2  0  0  0  0  0  0
  -28.4560  -25.4860   20.7850 C   0  0  0  0  0  2  0  0  0  0  0  0
  -28.5640  -26.7430   20.0990 O   0  0  0  0  0  0  0  0  0  0  0  0
  -24.7420  -31.8660   23.2340 C   0  0  0  0  0  0  0  0  0  0  0  0
  -27.4060  -27.4870   20.0980 C   0  0  0  0  0  0  0  0  0  0  0  0
  -23.5440  -30.4890   21.5650 C   0  0  0  0  0  3  0  0  0  0  0  0
  -25.0070  -28.9780   20.1190 C   0  0  0  0  0  0  0  0  0  0  0  0
  -26.0670  -30.8610   21.3790 C   0  0  0  0  0  2  0  0  0  0  0  0
  -26.1610  -29.5010   20.7180 C   0  0  0  0  0  0  0  0  0  0  0  0
  -27.3660  -28.7630   20.7030 C   0  0  0  0  0  3  0  0  0  0  0  0
  -26.2400  -26.9780   19.4880 C   0  0  0  0  0  3  0  0  0  0  0  0
  -25.0400  -27.7160   19.5000 C   0  0  0  0  0  3  0  0  0  0  0  0
  -23.7590  -29.8300   20.1760 C   0  0  0  0  0  2  0  0  0  0  0  0
  -24.8020  -31.0860   22.1190 N   0  0  0  0  0  0  0  0  0  0  0  0
  -23.6580  -32.1260   23.7760 O   0  0  0  0  0  0  0  0  0  0  0  0
  -22.8910  -29.4520   22.5070 C   0  0  0  0  0  0  0  0  0  0  0  0
  -21.5670  -29.2700   22.3710 N   0  0  0  0  0  0  0  0  0  0  0  0
  -23.5730  -28.8120   23.3120 O   0  0  0  0  0  0  0  0  0  0  0  0
  -21.0780  -29.8390   21.6940 H   0  0  0  0  0  0  0  0  0  0  0  0
  -18.1920  -28.0720   22.8370 C   0  0  0  0  0  0  0  0  0  0  0  0
  -20.7480  -28.3200   23.1220 C   0  0  0  0  0  3  0  0  0  0  0  0
  -20.8490  -26.9000   22.5170 C   0  0  0  0  0  2  0  0  0  0  0  0
  -19.7500  -26.5990   21.4930 C   0  0  0  0  0  2  0  0  0  0  0  0
  -18.3670  -26.7360   22.1370 C   0  0  0  0  0  2  0  0  0  0  0  0
  -19.3110  -28.8230   23.2840 C   0  0  0  0  0  0  0  0  0  0  0  0
  -19.0940  -30.0770   23.8960 C   0  0  0  0  0  3  0  0  0  0  0  0
  -17.7890  -30.5790   24.0670 C   0  0  0  0  0  3  0  0  0  0  0  0
  -16.6840  -29.8230   23.6390 C   0  0  0  0  0  3  0  0  0  0  0  0
  -16.8860  -28.5710   23.0290 C   0  0  0  0  0  3  0  0  0  0  0  0
  -26.0260  -32.4880   23.8690 C   0  0  0  0  0  3  0  0  0  0  0  0
  -26.5470  -31.6880   25.1260 C   0  0  1  0  0  0  0  0  0  0  0  0
  -25.4550  -31.4140   26.1860 C   0  0  0  0  0  1  0  0  0  0  0  0
  -27.1390  -30.3250   24.6960 C   0  0  0  0  0  1  0  0  0  0  0  0
  -27.6910  -32.4720   25.8100 C   0  0  0  0  0  1  0  0  0  0  0  0
  -25.7160  -33.8780   24.2280 N   0  0  0  0  0  0  0  0  0  0  0  0
  -26.0520  -34.9460   23.4920 C   0  0  0  0  0  0  0  0  0  0  0  0
  -26.7310  -34.8630   22.4630 O   0  0  0  0  0  0  0  0  0  0  0  0
  -25.1190  -34.0160   25.0310 H   0  0  0  0  0  0  0  0  0  0  0  0
  -24.3320  -36.7470   23.1490 C   0  0  0  0  0  1  0  0  0  0  0  0
  -25.5600  -36.3250   23.9710 C   0  0  0  0  0  3  0  0  0  0  0  0
  -27.6800  -37.1870   24.8560 C   0  0  0  0  0  1  0  0  0  0  0  0
  -26.5950  -37.3780   23.8990 N   0  0  0  0  0  0  0  0  0  0  0  0
  -26.1860  -38.2940   24.0640 H   0  0  0  0  0  0  0  0  0  0  0  0
  1  3  2  0
  2  1  1  0
  4  2  1  0
  5 17  1  0
  6 11  1  0
  7  8  1  0
  7  6  1  0
  9  8  1  0
  9 21  1  0
  9 10  1  0
 11  5  1  0
 11 10  1  0
 12  5  2  0
 14 13  1  0
 15 17  1  0
 15 16  1  0
 16  2  1  0
 16 13  1  0
 17 14  1  0
 18 19  2  0
 19 38  1  0
 20 19  1  0
 20 23  1  0
 21 22  1  0
 21 18  1  0
 22 20  2  0
 23 24  1  0
 24 25  2  0
 26 29  1  0
 26 25  1  0
 27 26  2  0
 28 27  1  0
 28 23  2  0
 29 30  1  0
 30 31  1  0
 31 32  2  0
 33 32  1  0
 33 37  1  0
 34 33  2  0
 35 30  2  0
 35 34  1  0
 36 35  1  0
 38 39  1  0
 39 42  1  0
 39 41  1  0
 40 38  2  0
 43 18  1  0
 43 44  1  0
 45 43  1  0
 46  1  1  0
 46 47  1  0
 48 47  1  0
 48 49  1  0
 50 49  1  0
 51 62  2  0
 52 50  1  0
 52 57  1  0
 53 61  1  0
 53 63  1  0
 54 60  1  0
 54 56  1  0
 55 61  1  0
 56 55  1  0
 57 56  2  0
 58 59  1  0
 58 52  2  0
 59 54  2  0
 60 53  1  0
 61 51  1  0
 63 65  2  0
 64 63  1  0
 66 64  1  0
 67 76  2  0
 67 72  1  0
 68 64  1  0
 68 72  1  0
 69 68  1  0
 70 71  1  0
 70 69  1  0
 71 67  1  0
 72 73  2  0
 73 74  1  0
 75 74  2  0
 76 75  1  0
 77 51  1  0
 77 82  1  0
 77 78  1  0
 78 81  1  1
 78 79  1  0
 80 78  1  0
 82 85  1  0
 83 87  1  0
 83 82  1  0
 84 83  2  0
 87 86  1  0
 89 87  1  0
 89 90  1  0
 89 88  1  0
M  ISO  4   5 100  17 100  49 101  50 101
M  END
>  <TORSDO>  (49) 
F 20

>  <SCORE>  (49) 
-12.598

>  <name>  (49) 
49

>  <ligand_id>  (49) 
49

>  <original_smiles>  (49) 
[H]c1c([H])c([H])c2c(c1[H])C([H])([H])C([H])([H])C([H])([H])C2([H])N([H])C(=O)C1([H])N(C(=O)C([H])(N([H])C(=O)C([H])(N([H])C([H])([H])[H])C([H])([H])[H])C(C([H])([H])[H])(C([H])([H])[H])C([H])([H])[H])C([H])([H])c2c([H])c(OC([H])([H])C([H])([H])C([H])([H])C([H])([H])C(=O)N([H])C3([H])C([H])([H])N(C(=O)N4C([H])([H])C([H])([H])C([H])([H])C([H])(n5nc(-c6c([H])c([H])c(Oc7c([H])c([H])c(F)c([H])c7F)c([H])c6[H])c(C(=O)N([H])[H])c5N([H])[H])C4([H])[H])C([H])([H])C3([H])[H])c([H])c([H])c2C1([H])[H]

>  <smiles>  (49) 
[H]c1c([H])c([H])c2c(c1[H])C([H])([H])C([H])([H])C([H])([H])C2([H])N([H])C(=O)C1([H])N(C(=O)C([H])(N([H])C(=O)C([H])(N([H])C([H])([H])[H])C([H])([H])[H])C(C([H])([H])[H])(C([H])([H])[H])C([H])([H])[H])C([H])([H])c2c([H])c(OC([H])([H])C([H])([H])C([H])([H])C([H])([H])C(=O)N([H])C3([H])C([H])([H])N(C(=O)N4C([H])([H])C([H])([H])C([H])([H])C([H])(n5nc(-c6c([H])c([H])c(Oc7c([H])c([H])c(F)c([H])c7F)c([H])c6[H])c(C(=O)N([H])[H])c5N([H])[H])C4([H])[H])C([H])([H])C3([H])[H])c([H])c([H])c2C1([H])[H]

$$$$
50:0:0
     RDKit          3D

 93101  0  0  1  0  0  0  0  0999 V2000
  -28.6560  -21.2590   20.4610 N   0  0  0  0  0  4  0  0  0  0  0  0
  -28.0100  -21.2780   19.6860 H   0  0  0  0  0  0  0  0  0  0  0  0
  -29.5800  -21.4030   20.0880 H   0  0  0  0  0  0  0  0  0  0  0  0
  -28.6370  -19.9110   21.0720 C   0  0  0  0  0  2  0  0  0  0  0  0
  -29.3470  -18.9010   20.1440 C   0  0  0  0  0  2  0  0  0  0  0  0
  -30.5930  -14.3170   18.9120 C   0  0  0  0  0  0  0  0  0  0  0  0
  -29.8550  -12.3240   17.6530 C   0  0  0  0  0  2  0  0  0  0  0  0
  -28.6350  -12.6580   16.7710 C   0  0  0  0  0  2  0  0  0  0  0  0
  -27.3260  -12.4870   17.5680 C   0  0  0  0  0  2  0  0  0  0  0  0
  -27.3730  -13.2210   18.9330 C   0  0  0  0  0  3  0  0  0  0  0  0
  -28.6660  -12.8740   19.6960 C   0  0  0  0  0  2  0  0  0  0  0  0
  -29.8210  -13.1970   18.8380 N   0  0  0  0  0  0  0  0  0  0  0  0
  -31.3990  -14.6220   18.0220 O   0  0  0  0  0  0  0  0  0  0  0  0
  -29.7990  -17.1720   22.0180 C   0  0  0  0  0  2  0  0  0  0  0  0
  -29.8730  -15.6670   22.3220 C   0  0  0  0  0  2  0  0  0  0  0  0
  -30.2400  -16.6140   19.5990 C   0  0  0  0  0  2  0  0  0  0  0  0
  -29.3390  -17.4130   20.5690 C   0  0  0  0  0  3  0  0  0  0  0  0
  -30.7550  -14.8990   21.3110 C   0  0  0  0  0  3  0  0  0  0  0  0
  -32.2630  -15.1480   21.5200 C   0  0  0  0  0  1  0  0  0  0  0  0
  -30.3200  -15.1790   19.9240 N   0  0  0  0  0  0  0  0  0  0  0  0
  -25.3110  -13.8060   20.3590 C   0  0  0  0  0  0  0  0  0  0  0  0
  -24.3430  -13.0230   20.9300 C   0  0  0  0  0  0  0  0  0  0  0  0
  -24.6910  -11.6730   20.6160 C   0  0  0  0  0  0  0  0  0  0  0  0
  -26.1900  -12.9300   19.7390 N   0  0  0  0  0  0  0  0  0  0  0  0
  -25.8350  -11.6360   19.9430 N   0  0  0  0  0  0  0  0  0  0  0  0
  -23.9710  -10.4180   20.8640 C   0  0  0  0  0  0  0  0  0  0  0  0
  -24.4910   -9.4250   21.7240 C   0  0  0  0  0  3  0  0  0  0  0  0
  -23.7710   -8.2340   21.9580 C   0  0  0  0  0  3  0  0  0  0  0  0
  -22.5190   -8.0260   21.3330 C   0  0  0  0  0  0  0  0  0  0  0  0
  -22.0160   -9.0080   20.4610 C   0  0  0  0  0  3  0  0  0  0  0  0
  -22.7350  -10.1920   20.2250 C   0  0  0  0  0  3  0  0  0  0  0  0
  -21.7600   -6.8910   21.4820 O   0  0  0  0  0  0  0  0  0  0  0  0
  -21.7180   -6.2040   22.6690 C   0  0  0  0  0  0  0  0  0  0  0  0
  -21.2900   -6.8150   23.8680 C   0  0  0  0  0  3  0  0  0  0  0  0
  -21.1970   -6.0550   25.0510 C   0  0  0  0  0  3  0  0  0  0  0  0
  -21.5210   -4.6850   25.0360 C   0  0  0  0  0  0  0  0  0  0  0  0
  -21.9410   -4.0740   23.8410 C   0  0  0  0  0  3  0  0  0  0  0  0
  -22.0380   -4.8310   22.6610 C   0  0  0  0  0  0  0  0  0  0  0  0
  -22.4240   -4.2330   21.5080 F   0  0  0  0  0  0  0  0  0  0  0  0
  -21.4230   -3.9520   26.1700 F   0  0  0  0  0  0  0  0  0  0  0  0
  -23.1130  -13.5010   21.6480 C   0  0  0  0  0  0  0  0  0  0  0  0
  -22.6650  -12.7590   22.6560 N   0  0  0  0  0  0  0  0  0  0  0  0
  -22.5720  -14.5650   21.3500 O   0  0  0  0  0  0  0  0  0  0  0  0
  -23.1200  -11.8960   22.9110 H   0  0  0  0  0  0  0  0  0  0  0  0
  -21.8530  -13.0580   23.1770 H   0  0  0  0  0  0  0  0  0  0  0  0
  -25.5090  -15.1820   20.3000 N   0  0  0  0  0  0  0  0  0  0  0  0
  -24.8480  -15.8400   20.7000 H   0  0  0  0  0  0  0  0  0  0  0  0
  -26.2700  -15.6300   19.8060 H   0  0  0  0  0  0  0  0  0  0  0  0
  -28.3730  -22.3910   21.3710 C   0  0  0  0  0  2  0  0  0  0  0  0
  -28.6730  -23.7420   20.6850 C   0  0  0  0  0  2  0  0  0  0  0  0
  -28.5280  -24.9680   21.6100 C   0  0  0  0  0  2  0  0  0  0  0  0
  -29.1920  -26.2430   21.0460 C   0  0  0  0  0  2  0  0  0  0  0  0
  -28.6510  -26.6080   19.7780 O   0  0  0  0  0  0  0  0  0  0  0  0
  -24.7360  -31.6520   22.9450 C   0  0  0  0  0  0  0  0  0  0  0  0
  -27.4890  -27.3360   19.8210 C   0  0  0  0  0  0  0  0  0  0  0  0
  -23.5630  -30.2430   21.2810 C   0  0  0  0  0  3  0  0  0  0  0  0
  -25.0550  -28.7570   19.8420 C   0  0  0  0  0  0  0  0  0  0  0  0
  -26.0730  -30.6760   21.0830 C   0  0  0  0  0  2  0  0  0  0  0  0
  -26.1940  -29.3110   20.4390 C   0  0  0  0  0  0  0  0  0  0  0  0
  -27.4150  -28.6080   20.4300 C   0  0  0  0  0  3  0  0  0  0  0  0
  -26.3440  -26.7920   19.2100 C   0  0  0  0  0  3  0  0  0  0  0  0
  -25.1230  -27.4940   19.2250 C   0  0  0  0  0  3  0  0  0  0  0  0
  -23.7910  -29.5840   19.8930 C   0  0  0  0  0  2  0  0  0  0  0  0
  -24.8090  -30.8710   21.8300 N   0  0  0  0  0  0  0  0  0  0  0  0
  -23.6500  -31.8890   23.4910 O   0  0  0  0  0  0  0  0  0  0  0  0
  -22.9380  -29.1950   22.2290 C   0  0  0  0  0  0  0  0  0  0  0  0
  -21.6180  -28.9830   22.0990 N   0  0  0  0  0  0  0  0  0  0  0  0
  -23.6380  -28.5750   23.0360 O   0  0  0  0  0  0  0  0  0  0  0  0
  -21.1160  -29.5420   21.4230 H   0  0  0  0  0  0  0  0  0  0  0  0
  -18.2690  -27.7250   22.6000 C   0  0  0  0  0  0  0  0  0  0  0  0
  -20.8240  -28.0160   22.8560 C   0  0  0  0  0  3  0  0  0  0  0  0
  -20.9430  -26.5990   22.2490 C   0  0  0  0  0  2  0  0  0  0  0  0
  -19.8370  -26.2810   21.2380 C   0  0  0  0  0  2  0  0  0  0  0  0
  -18.4590  -26.3920   21.8970 C   0  0  0  0  0  2  0  0  0  0  0  0
  -19.3790  -28.4930   23.0380 C   0  0  0  0  0  0  0  0  0  0  0  0
  -19.1500  -29.7410   23.6570 C   0  0  0  0  0  3  0  0  0  0  0  0
  -17.8390  -30.2190   23.8440 C   0  0  0  0  0  3  0  0  0  0  0  0
  -16.7430  -29.4480   23.4230 C   0  0  0  0  0  3  0  0  0  0  0  0
  -16.9580  -28.2030   22.8050 C   0  0  0  0  0  3  0  0  0  0  0  0
  -26.0080  -32.3040   23.5730 C   0  0  0  0  0  3  0  0  0  0  0  0
  -26.6180  -31.4590   24.7580 C   0  0  1  0  0  0  0  0  0  0  0  0
  -25.5770  -31.0170   25.8130 C   0  0  0  0  0  1  0  0  0  0  0  0
  -27.3080  -30.1850   24.2170 C   0  0  0  0  0  1  0  0  0  0  0  0
  -27.7100  -32.2820   25.4820 C   0  0  0  0  0  1  0  0  0  0  0  0
  -25.6360  -33.6510   24.0270 N   0  0  0  0  0  0  0  0  0  0  0  0
  -25.8910  -34.7780   23.3490 C   0  0  0  0  0  0  0  0  0  0  0  0
  -26.5400  -34.7970   22.3000 O   0  0  0  0  0  0  0  0  0  0  0  0
  -25.0510  -33.7060   24.8480 H   0  0  0  0  0  0  0  0  0  0  0  0
  -24.0690  -36.5030   23.1700 C   0  0  0  0  0  1  0  0  0  0  0  0
  -25.3410  -36.0950   23.9300 C   0  0  0  0  0  3  0  0  0  0  0  0
  -27.4410  -37.0120   24.8130 C   0  0  0  0  0  1  0  0  0  0  0  0
  -26.3170  -37.2070   23.8990 N   0  0  0  0  0  0  0  0  0  0  0  0
  -25.8670  -38.0890   24.1340 H   0  0  0  0  0  0  0  0  0  0  0  0
  1  4  1  0
  1 49  1  0
  2  1  1  0
  3  1  1  0
  5  4  1  0
  6 20  1  0
  7 12  1  0
  8  9  1  0
  8  7  1  0
 10  9  1  0
 10 11  1  0
 10 24  1  0
 12  6  1  0
 12 11  1  0
 13  6  2  0
 14 15  1  0
 16 20  1  0
 16 17  1  0
 17  5  1  0
 17 14  1  0
 18 19  1  0
 18 15  1  0
 20 18  1  0
 21 22  2  0
 22 41  1  0
 23 26  1  0
 23 22  1  0
 24 25  1  0
 24 21  1  0
 25 23  2  0
 26 27  1  0
 27 28  2  0
 29 32  1  0
 29 28  1  0
 30 29  2  0
 31 30  1  0
 31 26  2  0
 32 33  1  0
 33 34  1  0
 34 35  2  0
 36 35  1  0
 36 40  1  0
 37 36  2  0
 38 33  2  0
 38 37  1  0
 39 38  1  0
 41 42  1  0
 42 44  1  0
 42 45  1  0
 43 41  2  0
 46 21  1  0
 46 47  1  0
 48 46  1  0
 50 49  1  0
 50 51  1  0
 52 51  1  0
 53 55  1  0
 53 52  1  0
 54 65  2  0
 55 60  1  0
 56 64  1  0
 56 66  1  0
 57 63  1  0
 57 59  1  0
 58 64  1  0
 59 58  1  0
 60 59  2  0
 61 62  1  0
 61 55  2  0
 62 57  2  0
 63 56  1  0
 64 54  1  0
 66 68  2  0
 67 66  1  0
 69 67  1  0
 70 79  2  0
 70 75  1  0
 71 67  1  0
 71 75  1  0
 72 71  1  0
 73 74  1  0
 73 72  1  0
 74 70  1  0
 75 76  2  0
 76 77  1  0
 78 77  2  0
 79 78  1  0
 80 54  1  0
 80 85  1  0
 80 81  1  0
 81 84  1  1
 81 82  1  0
 83 81  1  0
 85 88  1  0
 86 90  1  0
 86 85  1  0
 87 86  2  0
 90 89  1  0
 92 90  1  0
 92 93  1  0
 92 91  1  0
M  ISO  4   6 100  20 100  52 101  53 101
M  END
>  <TORSDO>  (50) 
F 22

>  <SCORE>  (50) 
-7.202

>  <name>  (50) 
50

>  <ligand_id>  (50) 
50

>  <original_smiles>  (50) 
[H]c1c([H])c([H])c2c(c1[H])C([H])([H])C([H])([H])C([H])([H])C2([H])N([H])C(=O)C1([H])N(C(=O)C([H])(N([H])C(=O)C([H])(N([H])C([H])([H])[H])C([H])([H])[H])C(C([H])([H])[H])(C([H])([H])[H])C([H])([H])[H])C([H])([H])c2c([H])c(OC([H])([H])C([H])([H])C([H])([H])C([H])([H])[N+]([H])([H])C([H])([H])C([H])([H])C3([H])C([H])([H])N(C(=O)N4C([H])([H])C([H])([H])C([H])([H])C([H])(n5nc(-c6c([H])c([H])c(Oc7c([H])c([H])c(F)c([H])c7F)c([H])c6[H])c(C(=O)N([H])[H])c5N([H])[H])C4([H])[H])C([H])(C([H])([H])[H])C([H])([H])C3([H])[H])c([H])c([H])c2C1([H])[H]

>  <smiles>  (50) 
[H]c1c([H])c([H])c2c(c1[H])C([H])([H])C([H])([H])C([H])([H])C2([H])N([H])C(=O)C1([H])N(C(=O)C([H])(N([H])C(=O)C([H])(N([H])C([H])([H])[H])C([H])([H])[H])C(C([H])([H])[H])(C([H])([H])[H])C([H])([H])[H])C([H])([H])c2c([H])c(OC([H])([H])C([H])([H])C([H])([H])C([H])([H])[N+]([H])([H])C([H])([H])C([H])([H])C3([H])C([H])([H])N(C(=O)N4C([H])([H])C([H])([H])C([H])([H])C([H])(n5nc(-c6c([H])c([H])c(Oc7c([H])c([H])c(F)c([H])c7F)c([H])c6[H])c(C(=O)N([H])[H])c5N([H])[H])C4([H])[H])C([H])(C([H])([H])[H])C([H])([H])C3([H])[H])c([H])c([H])c2C1([H])[H]

$$$$
51:0:0
     RDKit          3D

 91 99  0  0  1  0  0  0  0  0999 V2000
  -29.1540  -19.4480   20.8140 C   0  0  0  0  0  0  0  0  0  0  0  0
  -29.6570  -20.6980   20.7030 N   0  0  0  0  0  0  0  0  0  0  0  0
  -27.9980  -19.2360   21.1850 O   0  0  0  0  0  0  0  0  0  0  0  0
  -30.6190  -20.7820   20.4000 H   0  0  0  0  0  0  0  0  0  0  0  0
  -30.9820  -14.7060   20.6870 C   0  0  0  0  0  0  0  0  0  0  0  0
  -30.7750  -12.3960   19.8750 C   0  0  0  0  0  2  0  0  0  0  0  0
  -29.9780  -12.4510   18.5580 C   0  0  0  0  0  2  0  0  0  0  0  0
  -28.4610  -12.3720   18.8340 C   0  0  0  0  0  2  0  0  0  0  0  0
  -27.9820  -13.3060   19.9790 C   0  0  0  0  0  3  0  0  0  0  0  0
  -28.9450  -13.3040   21.1880 C   0  0  0  0  0  2  0  0  0  0  0  0
  -30.3100  -13.5220   20.6900 N   0  0  0  0  0  0  0  0  0  0  0  0
  -32.2090  -14.7710   20.5900 O   0  0  0  0  0  0  0  0  0  0  0  0
  -29.3810  -17.6170   19.0990 C   0  0  0  0  0  2  0  0  0  0  0  0
  -30.1950  -17.0170   21.2430 C   0  0  0  0  0  2  0  0  0  0  0  0
  -30.0270  -18.2650   20.3230 C   0  0  0  0  0  3  0  0  0  0  0  0
  -30.0660  -16.2600   18.9830 C   0  0  0  0  0  3  0  0  0  0  0  0
  -31.3970  -16.4400   18.2070 C   0  0  0  0  0  1  0  0  0  0  0  0
  -30.2330  -15.8040   20.3860 N   0  0  0  0  0  0  0  0  0  0  0  0
  -25.5390  -13.8970   20.5090 C   0  0  0  0  0  0  0  0  0  0  0  0
  -24.4550  -13.1270   20.8160 C   0  0  0  0  0  0  0  0  0  0  0  0
  -24.9260  -11.7770   20.8600 C   0  0  0  0  0  0  0  0  0  0  0  0
  -26.6070  -13.0220   20.3770 N   0  0  0  0  0  0  0  0  0  0  0  0
  -26.2370  -11.7440   20.6500 N   0  0  0  0  0  0  0  0  0  0  0  0
  -24.2000  -10.5150   21.0320 C   0  0  0  0  0  0  0  0  0  0  0  0
  -24.5570   -9.5860   22.0340 C   0  0  0  0  0  3  0  0  0  0  0  0
  -23.8230   -8.3890   22.1920 C   0  0  0  0  0  3  0  0  0  0  0  0
  -22.7250   -8.1120   21.3430 C   0  0  0  0  0  0  0  0  0  0  0  0
  -22.3900   -9.0310   20.3340 C   0  0  0  0  0  3  0  0  0  0  0  0
  -23.1240  -10.2180   20.1740 C   0  0  0  0  0  3  0  0  0  0  0  0
  -21.9750   -6.9620   21.4000 O   0  0  0  0  0  0  0  0  0  0  0  0
  -21.8040   -6.2730   22.5740 C   0  0  0  0  0  0  0  0  0  0  0  0
  -21.1790   -6.8600   23.6970 C   0  0  0  0  0  3  0  0  0  0  0  0
  -20.9580   -6.0940   24.8590 C   0  0  0  0  0  3  0  0  0  0  0  0
  -21.3540   -4.7420   24.8990 C   0  0  0  0  0  0  0  0  0  0  0  0
  -21.9740   -4.1570   23.7800 C   0  0  0  0  0  3  0  0  0  0  0  0
  -22.1920   -4.9190   22.6200 C   0  0  0  0  0  0  0  0  0  0  0  0
  -22.7670   -4.3430   21.5360 F   0  0  0  0  0  0  0  0  0  0  0  0
  -21.1380   -4.0060   26.0130 F   0  0  0  0  0  0  0  0  0  0  0  0
  -23.0370  -13.5960   20.9720 C   0  0  0  0  0  0  0  0  0  0  0  0
  -22.2610  -12.9290   21.8150 N   0  0  0  0  0  0  0  0  0  0  0  0
  -22.6230  -14.5940   20.3800 O   0  0  0  0  0  0  0  0  0  0  0  0
  -22.6070  -12.1220   22.3170 H   0  0  0  0  0  0  0  0  0  0  0  0
  -21.3090  -13.2270   21.9660 H   0  0  0  0  0  0  0  0  0  0  0  0
  -25.7060  -15.2670   20.3100 N   0  0  0  0  0  0  0  0  0  0  0  0
  -24.9320  -15.9220   20.3530 H   0  0  0  0  0  0  0  0  0  0  0  0
  -26.5840  -15.7050   20.0660 H   0  0  0  0  0  0  0  0  0  0  0  0
  -28.8160  -21.9010   20.5510 C   0  0  0  0  0  2  0  0  0  0  0  0
  -29.5120  -23.2620   20.8100 C   0  0  0  0  0  2  0  0  0  0  0  0
  -28.6280  -24.4560   20.3310 C   0  0  0  0  0  2  0  0  0  0  0  0
  -28.7940  -25.7910   21.1020 C   0  0  0  0  0  2  0  0  0  0  0  0
  -28.6940  -26.9340   20.2370 O   0  0  0  0  0  0  0  0  0  0  0  0
  -24.5760  -31.8710   23.2950 C   0  0  0  0  0  0  0  0  0  0  0  0
  -27.4950  -27.6100   20.2360 C   0  0  0  0  0  0  0  0  0  0  0  0
  -23.4910  -30.4860   21.5520 C   0  0  0  0  0  3  0  0  0  0  0  0
  -25.0560  -29.0430   20.1440 C   0  0  0  0  0  0  0  0  0  0  0  0
  -26.0040  -30.9370   21.4710 C   0  0  0  0  0  2  0  0  0  0  0  0
  -26.1650  -29.5860   20.8030 C   0  0  0  0  0  0  0  0  0  0  0  0
  -27.3900  -28.8830   20.8390 C   0  0  0  0  0  3  0  0  0  0  0  0
  -26.3710  -27.0740   19.5740 C   0  0  0  0  0  3  0  0  0  0  0  0
  -25.1550  -27.7840   19.5190 C   0  0  0  0  0  3  0  0  0  0  0  0
  -23.7870  -29.8660   20.1570 C   0  0  0  0  0  2  0  0  0  0  0  0
  -24.7060  -31.1070   22.1690 N   0  0  0  0  0  0  0  0  0  0  0  0
  -23.4630  -32.0970   23.7890 O   0  0  0  0  0  0  0  0  0  0  0  0
  -22.8240  -29.4170   22.4480 C   0  0  0  0  0  0  0  0  0  0  0  0
  -21.5000  -29.2380   22.2850 N   0  0  0  0  0  0  0  0  0  0  0  0
  -23.4890  -28.7560   23.2500 O   0  0  0  0  0  0  0  0  0  0  0  0
  -21.0290  -29.7830   21.5770 H   0  0  0  0  0  0  0  0  0  0  0  0
  -18.0940  -28.1450   22.7160 C   0  0  0  0  0  0  0  0  0  0  0  0
  -20.6540  -28.2950   23.0150 C   0  0  0  0  0  3  0  0  0  0  0  0
  -20.6820  -26.9060   22.3470 C   0  0  0  0  0  2  0  0  0  0  0  0
  -19.6130  -26.7580   21.2660 C   0  0  0  0  0  2  0  0  0  0  0  0
  -18.2400  -26.8520   21.9340 C   0  0  0  0  0  2  0  0  0  0  0  0
  -19.2330  -28.8370   23.2070 C   0  0  0  0  0  0  0  0  0  0  0  0
  -19.0500  -30.0550   23.8880 C   0  0  0  0  0  3  0  0  0  0  0  0
  -17.7620  -30.5820   24.0930 C   0  0  0  0  0  3  0  0  0  0  0  0
  -16.6370  -29.8790   23.6310 C   0  0  0  0  0  3  0  0  0  0  0  0
  -16.8030  -28.6630   22.9450 C   0  0  0  0  0  3  0  0  0  0  0  0
  -25.8110  -32.5100   24.0020 C   0  0  0  0  0  3  0  0  0  0  0  0
  -26.2290  -31.7550   25.3260 C   0  0  1  0  0  0  0  0  0  0  0  0
  -25.0530  -31.5070   26.2990 C   0  0  0  0  0  1  0  0  0  0  0  0
  -26.8610  -30.3850   24.9850 C   0  0  0  0  0  1  0  0  0  0  0  0
  -27.3080  -32.5700   26.0790 C   0  0  0  0  0  1  0  0  0  0  0  0
  -25.4880  -33.9140   24.2900 N   0  0  0  0  0  0  0  0  0  0  0  0
  -25.8690  -34.9500   23.5300 C   0  0  0  0  0  0  0  0  0  0  0  0
  -26.6020  -34.8260   22.5460 O   0  0  0  0  0  0  0  0  0  0  0  0
  -24.8460  -34.0850   25.0500 H   0  0  0  0  0  0  0  0  0  0  0  0
  -24.1720  -36.7400   23.0290 C   0  0  0  0  0  1  0  0  0  0  0  0
  -25.3550  -36.3470   23.9280 C   0  0  0  0  0  3  0  0  0  0  0  0
  -27.4240  -37.2590   24.8930 C   0  0  0  0  0  1  0  0  0  0  0  0
  -26.3950  -37.3980   23.8650 N   0  0  0  0  0  0  0  0  0  0  0  0
  -25.9780  -38.3220   23.9520 H   0  0  0  0  0  0  0  0  0  0  0  0
  1  3  2  0
  2  1  1  0
  4  2  1  0
  5 11  1  0
  6 11  1  0
  7  8  1  0
  7  6  1  0
  9  8  1  0
  9 22  1  0
  9 10  1  0
 11 10  1  0
 12  5  2  0
 13 15  1  0
 15  1  1  0
 15 14  1  0
 16 17  1  0
 16 13  1  0
 16 18  1  0
 18  5  1  0
 18 14  1  0
 19 20  2  0
 20 21  1  0
 20 39  1  0
 21 24  1  0
 22 19  1  0
 22 23  1  0
 23 21  2  0
 24 25  1  0
 25 26  2  0
 27 30  1  0
 27 26  1  0
 28 27  2  0
 29 28  1  0
 29 24  2  0
 30 31  1  0
 31 36  2  0
 31 32  1  0
 32 33  2  0
 33 34  1  0
 34 38  1  0
 35 34  2  0
 36 35  1  0
 37 36  1  0
 39 40  1  0
 40 43  1  0
 40 42  1  0
 41 39  2  0
 44 45  1  0
 44 19  1  0
 46 44  1  0
 47  2  1  0
 47 48  1  0
 49 48  1  0
 49 50  1  0
 51 50  1  0
 52 63  2  0
 53 51  1  0
 53 58  1  0
 54 62  1  0
 54 64  1  0
 55 61  1  0
 55 57  1  0
 56 62  1  0
 57 58  2  0
 57 56  1  0
 59 53  2  0
 60 59  1  0
 60 55  2  0
 61 54  1  0
 62 52  1  0
 64 66  2  0
 65 64  1  0
 67 65  1  0
 68 77  2  0
 68 73  1  0
 69 65  1  0
 69 73  1  0
 70 69  1  0
 71 72  1  0
 71 70  1  0
 72 68  1  0
 73 74  2  0
 74 75  1  0
 76 75  2  0
 77 76  1  0
 78 52  1  0
 78 83  1  0
 78 79  1  0
 79 82  1  1
 79 80  1  0
 81 79  1  0
 83 86  1  0
 84 88  1  0
 84 83  1  0
 85 84  2  0
 88 87  1  0
 90 88  1  0
 90 91  1  0
 90 89  1  0
M  ISO  4   5 100  18 100  50 101  51 101
M  END
>  <TORSDO>  (51) 
F 20

>  <SCORE>  (51) 
-13.002

>  <name>  (51) 
51

>  <ligand_id>  (51) 
51

>  <original_smiles>  (51) 
[H]c1c([H])c([H])c2c(c1[H])C([H])([H])C([H])([H])C([H])([H])C2([H])N([H])C(=O)C1([H])N(C(=O)C([H])(N([H])C(=O)C([H])(N([H])C([H])([H])[H])C([H])([H])[H])C(C([H])([H])[H])(C([H])([H])[H])C([H])([H])[H])C([H])([H])c2c([H])c(OC([H])([H])C([H])([H])C([H])([H])C([H])([H])N([H])C(=O)C3([H])C([H])([H])N(C(=O)N4C([H])([H])C([H])([H])C([H])([H])C([H])(n5nc(-c6c([H])c([H])c(Oc7c([H])c([H])c(F)c([H])c7F)c([H])c6[H])c(C(=O)N([H])[H])c5N([H])[H])C4([H])[H])C([H])(C([H])([H])[H])C3([H])[H])c([H])c([H])c2C1([H])[H]

>  <smiles>  (51) 
[H]c1c([H])c([H])c2c(c1[H])C([H])([H])C([H])([H])C([H])([H])C2([H])N([H])C(=O)C1([H])N(C(=O)C([H])(N([H])C(=O)C([H])(N([H])C([H])([H])[H])C([H])([H])[H])C(C([H])([H])[H])(C([H])([H])[H])C([H])([H])[H])C([H])([H])c2c([H])c(OC([H])([H])C([H])([H])C([H])([H])C([H])([H])N([H])C(=O)C3([H])C([H])([H])N(C(=O)N4C([H])([H])C([H])([H])C([H])([H])C([H])(n5nc(-c6c([H])c([H])c(Oc7c([H])c([H])c(F)c([H])c7F)c([H])c6[H])c(C(=O)N([H])[H])c5N([H])[H])C4([H])[H])C([H])(C([H])([H])[H])C3([H])[H])c([H])c([H])c2C1([H])[H]

$$$$
52:0:0
     RDKit          3D

 95103  0  0  1  0  0  0  0  0999 V2000
  -27.9100  -22.0700   21.1250 C   0  0  0  0  0  2  0  0  0  0  0  0
  -30.0860  -22.8170   21.8670 C   0  0  0  0  0  2  0  0  0  0  0  0
  -28.6350  -20.8990   21.8100 C   0  0  0  0  0  3  0  0  0  0  0  0
  -29.0060  -23.0870   20.8050 C   0  0  0  0  0  3  0  0  0  0  0  0
  -29.8610  -21.4570   22.4100 N   0  0  0  0  0  4  0  0  0  0  0  0
  -29.7310  -21.5060   23.4070 H   0  0  0  0  0  0  0  0  0  0  0  0
  -30.6350  -20.8390   22.2330 H   0  0  0  0  0  0  0  0  0  0  0  0
  -28.8430  -19.6700   20.8980 C   0  0  0  0  0  0  0  0  0  0  0  0
  -30.0620  -19.1130   20.7480 N   0  0  0  0  0  0  0  0  0  0  0  0
  -27.8540  -19.1840   20.3410 O   0  0  0  0  0  0  0  0  0  0  0  0
  -30.8850  -19.5640   21.1190 H   0  0  0  0  0  0  0  0  0  0  0  0
  -30.2830  -17.8660   20.0150 C   0  0  0  0  0  2  0  0  0  0  0  0
  -31.5480  -17.1170   20.4870 C   0  0  0  0  0  2  0  0  0  0  0  0
  -31.8050  -14.6990   19.8830 C   0  0  0  0  0  0  0  0  0  0  0  0
  -31.3890  -12.4450   18.9720 C   0  0  0  0  0  2  0  0  0  0  0  0
  -30.4080  -12.5280   17.7860 C   0  0  0  0  0  2  0  0  0  0  0  0
  -28.9460  -12.5040   18.2720 C   0  0  0  0  0  2  0  0  0  0  0  0
  -28.6820  -13.5200   19.4160 C   0  0  0  0  0  3  0  0  0  0  0  0
  -29.7570  -13.3700   20.5150 C   0  0  0  0  0  2  0  0  0  0  0  0
  -31.0850  -13.5470   19.8950 N   0  0  0  0  0  0  0  0  0  0  0  0
  -32.8380  -14.8550   19.2260 O   0  0  0  0  0  0  0  0  0  0  0  0
  -31.2590  -15.6910   20.5950 N   0  0  0  0  0  0  0  0  0  0  0  0
  -30.4490  -15.4360   21.1390 H   0  0  0  0  0  0  0  0  0  0  0  0
  -26.4020  -14.3580   20.2790 C   0  0  0  0  0  0  0  0  0  0  0  0
  -25.2750  -13.6880   20.6780 C   0  0  0  0  0  0  0  0  0  0  0  0
  -25.5800  -12.2990   20.5590 C   0  0  0  0  0  0  0  0  0  0  0  0
  -27.3310  -13.3790   19.9530 N   0  0  0  0  0  0  0  0  0  0  0  0
  -26.8390  -12.1320   20.1760 N   0  0  0  0  0  0  0  0  0  0  0  0
  -24.7260  -11.1170   20.7360 C   0  0  0  0  0  0  0  0  0  0  0  0
  -25.0460  -10.1090   21.6720 C   0  0  0  0  0  3  0  0  0  0  0  0
  -24.2030   -8.9890   21.8340 C   0  0  0  0  0  3  0  0  0  0  0  0
  -23.0240   -8.8700   21.0600 C   0  0  0  0  0  0  0  0  0  0  0  0
  -22.7240   -9.8640   20.1110 C   0  0  0  0  0  3  0  0  0  0  0  0
  -23.5670  -10.9770   19.9470 C   0  0  0  0  0  3  0  0  0  0  0  0
  -22.1590   -7.8040   21.1310 O   0  0  0  0  0  0  0  0  0  0  0  0
  -21.9280   -7.1430   22.3110 C   0  0  0  0  0  0  0  0  0  0  0  0
  -21.4380   -7.8110   23.4540 C   0  0  0  0  0  3  0  0  0  0  0  0
  -21.1450   -7.0810   24.6240 C   0  0  0  0  0  3  0  0  0  0  0  0
  -21.3370   -5.6870   24.6510 C   0  0  0  0  0  0  0  0  0  0  0  0
  -21.8230   -5.0210   23.5130 C   0  0  0  0  0  3  0  0  0  0  0  0
  -22.1160   -5.7470   22.3460 C   0  0  0  0  0  0  0  0  0  0  0  0
  -22.5630   -5.0990   21.2430 F   0  0  0  0  0  0  0  0  0  0  0  0
  -21.0510   -4.9820   25.7720 F   0  0  0  0  0  0  0  0  0  0  0  0
  -23.9580  -14.3020   21.0560 C   0  0  0  0  0  0  0  0  0  0  0  0
  -23.2140  -13.6580   21.9490 N   0  0  0  0  0  0  0  0  0  0  0  0
  -23.6030  -15.3860   20.5950 O   0  0  0  0  0  0  0  0  0  0  0  0
  -23.5140  -12.7790   22.3420 H   0  0  0  0  0  0  0  0  0  0  0  0
  -22.3270  -14.0470   22.2340 H   0  0  0  0  0  0  0  0  0  0  0  0
  -26.7070  -15.7090   20.1490 N   0  0  0  0  0  0  0  0  0  0  0  0
  -26.0200  -16.4330   20.3150 H   0  0  0  0  0  0  0  0  0  0  0  0
  -27.5790  -16.0710   19.7810 H   0  0  0  0  0  0  0  0  0  0  0  0
  -28.4690  -24.5310   20.7910 C   0  0  0  0  0  2  0  0  0  0  0  0
  -29.5360  -25.6010   20.4990 C   0  0  0  0  0  2  0  0  0  0  0  0
  -28.9500  -27.0190   20.5030 C   0  0  0  0  0  2  0  0  0  0  0  0
  -28.0340  -27.1090   19.4180 O   0  0  0  0  0  0  0  0  0  0  0  0
  -24.5590  -32.0500   23.2150 C   0  0  0  0  0  0  0  0  0  0  0  0
  -26.8980  -27.8450   19.6370 C   0  0  0  0  0  0  0  0  0  0  0  0
  -23.1950  -30.7450   21.6130 C   0  0  0  0  0  3  0  0  0  0  0  0
  -24.5060  -29.3000   19.9700 C   0  0  0  0  0  0  0  0  0  0  0  0
  -25.6840  -31.1370   21.1920 C   0  0  0  0  0  2  0  0  0  0  0  0
  -25.7100  -29.8040   20.4780 C   0  0  0  0  0  0  0  0  0  0  0  0
  -26.9100  -29.0810   20.3200 C   0  0  0  0  0  3  0  0  0  0  0  0
  -25.6830  -27.3490   19.1240 C   0  0  0  0  0  3  0  0  0  0  0  0
  -24.4830  -28.0650   19.2970 C   0  0  0  0  0  3  0  0  0  0  0  0
  -23.2690  -30.1430   20.1820 C   0  0  0  0  0  2  0  0  0  0  0  0
  -24.5040  -31.3220   22.0650 N   0  0  0  0  0  0  0  0  0  0  0  0
  -23.5370  -32.2870   23.8720 O   0  0  0  0  0  0  0  0  0  0  0  0
  -22.6390  -29.6680   22.5690 C   0  0  0  0  0  0  0  0  0  0  0  0
  -21.3230  -29.4110   22.4770 N   0  0  0  0  0  0  0  0  0  0  0  0
  -23.3830  -29.0650   23.3460 O   0  0  0  0  0  0  0  0  0  0  0  0
  -20.7810  -29.9550   21.8210 H   0  0  0  0  0  0  0  0  0  0  0  0
  -18.0720  -27.9080   22.9320 C   0  0  0  0  0  0  0  0  0  0  0  0
  -20.5870  -28.4110   23.2490 C   0  0  0  0  0  3  0  0  0  0  0  0
  -20.8360  -26.9880   22.6990 C   0  0  0  0  0  2  0  0  0  0  0  0
  -19.7900  -26.5470   21.6690 C   0  0  0  0  0  2  0  0  0  0  0  0
  -18.3880  -26.5710   22.2840 C   0  0  0  0  0  2  0  0  0  0  0  0
  -19.1040  -28.7790   23.3700 C   0  0  0  0  0  0  0  0  0  0  0  0
  -18.7560  -30.0260   23.9330 C   0  0  0  0  0  3  0  0  0  0  0  0
  -17.4070  -30.4040   24.0650 C   0  0  0  0  0  3  0  0  0  0  0  0
  -16.3890  -29.5320   23.6440 C   0  0  0  0  0  3  0  0  0  0  0  0
  -16.7210  -28.2860   23.0830 C   0  0  0  0  0  3  0  0  0  0  0  0
  -25.9030  -32.6440   23.7440 C   0  0  0  0  0  3  0  0  0  0  0  0
  -25.6480  -34.0390   24.1280 N   0  0  0  0  0  0  0  0  0  0  0  0
  -25.9870  -35.1040   23.3890 C   0  0  0  0  0  0  0  0  0  0  0  0
  -26.6180  -35.0130   22.3330 O   0  0  0  0  0  0  0  0  0  0  0  0
  -25.0870  -34.1860   24.9550 H   0  0  0  0  0  0  0  0  0  0  0  0
  -24.3070  -36.9580   23.1350 C   0  0  0  0  0  1  0  0  0  0  0  0
  -25.5540  -36.4900   23.9030 C   0  0  0  0  0  3  0  0  0  0  0  0
  -27.7360  -37.2770   24.7060 C   0  0  0  0  0  1  0  0  0  0  0  0
  -26.6160  -37.5140   23.7980 N   0  0  0  0  0  0  0  0  0  0  0  0
  -26.2420  -38.4390   23.9900 H   0  0  0  0  0  0  0  0  0  0  0  0
  -26.5090  -31.8320   24.9540 C   0  0  1  0  0  0  0  0  0  0  0  0
  -25.4970  -31.5640   26.0920 C   0  0  0  0  0  1  0  0  0  0  0  0
  -27.0530  -30.4670   24.4730 C   0  0  0  0  0  1  0  0  0  0  0  0
  -27.7080  -32.6030   25.5560 C   0  0  0  0  0  1  0  0  0  0  0  0
  1  3  1  0
  2  5  1  0
  3  8  1  0
  3  5  1  0
  4 52  1  0
  4  1  1  0
  4  2  1  0
  5  6  1  0
  7  5  1  0
  9  8  1  0
  9 11  1  0
 10  8  2  0
 12 13  1  0
 12  9  1  0
 13 22  1  0
 14 20  1  0
 14 22  1  0
 15 20  1  0
 16 17  1  0
 16 15  1  0
 18 17  1  0
 18 27  1  0
 18 19  1  0
 20 19  1  0
 21 14  2  0
 22 23  1  0
 24 25  2  0
 25 44  1  0
 26 25  1  0
 26 29  1  0
 27 28  1  0
 27 24  1  0
 28 26  2  0
 29 30  1  0
 30 31  2  0
 32 35  1  0
 32 31  1  0
 33 32  2  0
 34 33  1  0
 34 29  2  0
 35 36  1  0
 36 41  2  0
 36 37  1  0
 37 38  2  0
 38 39  1  0
 39 43  1  0
 40 39  2  0
 41 40  1  0
 42 41  1  0
 44 45  1  0
 45 48  1  0
 45 47  1  0
 46 44  2  0
 49 24  1  0
 49 50  1  0
 51 49  1  0
 53 54  1  0
 53 52  1  0
 55 57  1  0
 55 54  1  0
 56 67  2  0
 57 62  1  0
 58 66  1  0
 58 68  1  0
 59 65  1  0
 59 61  1  0
 60 66  1  0
 61 60  1  0
 62 61  2  0
 63 64  1  0
 63 57  2  0
 64 59  2  0
 65 58  1  0
 66 56  1  0
 68 70  2  0
 69 68  1  0
 71 69  1  0
 72 81  2  0
 72 77  1  0
 73 69  1  0
 73 77  1  0
 74 73  1  0
 75 76  1  0
 75 74  1  0
 76 72  1  0
 77 78  2  0
 78 79  1  0
 80 79  2  0
 81 80  1  0
 82 56  1  0
 82 83  1  0
 82 92  1  0
 83 86  1  0
 84 88  1  0
 84 83  1  0
 85 84  2  0
 88 87  1  0
 90 88  1  0
 90 91  1  0
 90 89  1  0
 92 95  1  1
 92 93  1  0
 94 92  1  0
M  ISO  4  14 100  22 100  54 101  55 101
M  END
>  <TORSDO>  (52) 
F 22

>  <SCORE>  (52) 
-11.284

>  <name>  (52) 
52

>  <ligand_id>  (52) 
52

>  <original_smiles>  (52) 
[H]c1c([H])c([H])c2c(c1[H])C([H])([H])C([H])([H])C([H])([H])C2([H])N([H])C(=O)C1([H])N(C(=O)C([H])(N([H])C(=O)C([H])(N([H])C([H])([H])[H])C([H])([H])[H])C(C([H])([H])[H])(C([H])([H])[H])C([H])([H])[H])C([H])([H])c2c([H])c(OC([H])([H])C([H])([H])C([H])([H])C3([H])C([H])([H])C([H])(C(=O)N([H])C([H])([H])C([H])([H])N([H])C(=O)N4C([H])([H])C([H])([H])C([H])([H])C([H])(n5nc(-c6c([H])c([H])c(Oc7c([H])c([H])c(F)c([H])c7F)c([H])c6[H])c(C(=O)N([H])[H])c5N([H])[H])C4([H])[H])[N+]([H])([H])C3([H])[H])c([H])c([H])c2C1([H])[H]

>  <smiles>  (52) 
[H]c1c([H])c([H])c2c(c1[H])C([H])([H])C([H])([H])C([H])([H])C2([H])N([H])C(=O)C1([H])N(C(=O)C([H])(N([H])C(=O)C([H])(N([H])C([H])([H])[H])C([H])([H])[H])C(C([H])([H])[H])(C([H])([H])[H])C([H])([H])[H])C([H])([H])c2c([H])c(OC([H])([H])C([H])([H])C([H])([H])C3([H])C([H])([H])C([H])(C(=O)N([H])C([H])([H])C([H])([H])N([H])C(=O)N4C([H])([H])C([H])([H])C([H])([H])C([H])(n5nc(-c6c([H])c([H])c(Oc7c([H])c([H])c(F)c([H])c7F)c([H])c6[H])c(C(=O)N([H])[H])c5N([H])[H])C4([H])[H])[N+]([H])([H])C3([H])[H])c([H])c([H])c2C1([H])[H]

$$$$
53:0:0
     RDKit          3D

 91 98  0  0  1  0  0  0  0  0999 V2000
  -29.4000  -24.3540   20.4410 C   0  0  0  0  0  3  0  0  0  0  0  0
  -29.6020  -24.5290   21.8940 N   0  0  0  0  0  4  0  0  0  0  0  0
  -28.7880  -24.2430   22.4080 H   0  0  0  0  0  0  0  0  0  0  0  0
  -29.8200  -25.4850   22.1180 H   0  0  0  0  0  0  0  0  0  0  0  0
  -30.3640  -23.9380   22.1810 H   0  0  0  0  0  0  0  0  0  0  0  0
  -29.1660  -22.8610   20.1510 C   0  0  0  0  0  3  0  0  0  0  0  0
  -29.6210  -21.8870   20.8550 N   0  0  0  0  0  0  0  0  0  0  0  0
  -29.2050  -20.5350   20.4610 C   0  0  0  0  0  2  0  0  0  0  0  0
  -30.1450  -19.4260   21.0120 C   0  0  0  0  0  2  0  0  0  0  0  0
  -29.6540  -17.9780   20.7070 C   0  0  0  0  0  2  0  0  0  0  0  0
  -30.5130  -16.8550   21.3530 C   0  0  0  0  0  2  0  0  0  0  0  0
  -30.6660  -14.4800   20.4870 C   0  0  0  0  0  0  0  0  0  0  0  0
  -30.3560  -12.3210   19.3260 C   0  0  0  0  0  2  0  0  0  0  0  0
  -29.4180  -12.5090   18.1170 C   0  0  0  0  0  2  0  0  0  0  0  0
  -27.9420  -12.3810   18.5420 C   0  0  0  0  0  2  0  0  0  0  0  0
  -27.6030  -13.2320   19.7960 C   0  0  0  0  0  3  0  0  0  0  0  0
  -28.6510  -13.0140   20.9100 C   0  0  0  0  0  2  0  0  0  0  0  0
  -29.9780  -13.3120   20.3470 N   0  0  0  0  0  0  0  0  0  0  0  0
  -31.7850  -14.6540   19.9980 O   0  0  0  0  0  0  0  0  0  0  0  0
  -30.0090  -15.4870   21.0990 N   0  0  0  0  0  0  0  0  0  0  0  0
  -29.0850  -15.2670   21.4450 H   0  0  0  0  0  0  0  0  0  0  0  0
  -25.2090  -13.8660   20.4900 C   0  0  0  0  0  0  0  0  0  0  0  0
  -24.1310  -13.1070   20.8590 C   0  0  0  0  0  0  0  0  0  0  0  0
  -24.5780  -11.7500   20.8380 C   0  0  0  0  0  0  0  0  0  0  0  0
  -26.2460  -12.9720   20.2690 N   0  0  0  0  0  0  0  0  0  0  0  0
  -25.8700  -11.6950   20.5370 N   0  0  0  0  0  0  0  0  0  0  0  0
  -23.8380  -10.4980   21.0360 C   0  0  0  0  0  0  0  0  0  0  0  0
  -24.2710   -9.5260   21.9640 C   0  0  0  0  0  3  0  0  0  0  0  0
  -23.5370   -8.3350   22.1490 C   0  0  0  0  0  3  0  0  0  0  0  0
  -22.3540   -8.1080   21.4050 C   0  0  0  0  0  0  0  0  0  0  0  0
  -21.9410   -9.0690   20.4650 C   0  0  0  0  0  3  0  0  0  0  0  0
  -22.6750  -10.2510   20.2790 C   0  0  0  0  0  3  0  0  0  0  0  0
  -21.5910   -6.9700   21.4990 O   0  0  0  0  0  0  0  0  0  0  0  0
  -21.5540   -6.2200   22.6460 C   0  0  0  0  0  0  0  0  0  0  0  0
  -21.1650   -6.7720   23.8860 C   0  0  0  0  0  3  0  0  0  0  0  0
  -21.0760   -5.9480   25.0260 C   0  0  0  0  0  3  0  0  0  0  0  0
  -21.3640   -4.5740   24.9270 C   0  0  0  0  0  0  0  0  0  0  0  0
  -21.7450   -4.0210   23.6910 C   0  0  0  0  0  3  0  0  0  0  0  0
  -21.8370   -4.8430   22.5540 C   0  0  0  0  0  0  0  0  0  0  0  0
  -22.1840   -4.3020   21.3610 F   0  0  0  0  0  0  0  0  0  0  0  0
  -21.2710   -3.7790   26.0190 F   0  0  0  0  0  0  0  0  0  0  0  0
  -22.7380  -13.6010   21.1220 C   0  0  0  0  0  0  0  0  0  0  0  0
  -22.0000  -12.9190   21.9900 N   0  0  0  0  0  0  0  0  0  0  0  0
  -22.3120  -14.6260   20.5920 O   0  0  0  0  0  0  0  0  0  0  0  0
  -22.3570  -12.0910   22.4440 H   0  0  0  0  0  0  0  0  0  0  0  0
  -21.0630  -13.2290   22.2050 H   0  0  0  0  0  0  0  0  0  0  0  0
  -25.3900  -15.2340   20.3060 N   0  0  0  0  0  0  0  0  0  0  0  0
  -24.6330  -15.8980   20.4190 H   0  0  0  0  0  0  0  0  0  0  0  0
  -26.2510  -15.6630   19.9910 H   0  0  0  0  0  0  0  0  0  0  0  0
  -28.2280  -25.2340   19.9250 C   0  0  0  0  0  2  0  0  0  0  0  0
  -28.3680  -26.6510   20.1870 O   0  0  0  0  0  0  0  0  0  0  0  0
  -24.6140  -31.8920   23.2460 C   0  0  0  0  0  0  0  0  0  0  0  0
  -27.2080  -27.4130   20.1480 C   0  0  0  0  0  0  0  0  0  0  0  0
  -23.3880  -30.4970   21.6150 C   0  0  0  0  0  3  0  0  0  0  0  0
  -24.8220  -28.9560   20.1740 C   0  0  0  0  0  0  0  0  0  0  0  0
  -25.9180  -30.8330   21.4050 C   0  0  0  0  0  2  0  0  0  0  0  0
  -25.9890  -29.4620   20.7610 C   0  0  0  0  0  0  0  0  0  0  0  0
  -27.1810  -28.6980   20.7480 C   0  0  0  0  0  3  0  0  0  0  0  0
  -26.0190  -26.9410   19.5360 C   0  0  0  0  0  3  0  0  0  0  0  0
  -24.8340  -27.6970   19.5570 C   0  0  0  0  0  3  0  0  0  0  0  0
  -23.5810  -29.8190   20.2330 C   0  0  0  0  0  2  0  0  0  0  0  0
  -24.6570  -31.0910   22.1450 N   0  0  0  0  0  0  0  0  0  0  0  0
  -23.5380  -32.1710   23.7950 O   0  0  0  0  0  0  0  0  0  0  0  0
  -22.7420  -29.4780   22.5800 C   0  0  0  0  0  0  0  0  0  0  0  0
  -21.4160  -29.2970   22.4580 N   0  0  0  0  0  0  0  0  0  0  0  0
  -23.4290  -28.8540   23.3930 O   0  0  0  0  0  0  0  0  0  0  0  0
  -20.9270  -29.8480   21.7660 H   0  0  0  0  0  0  0  0  0  0  0  0
  -18.0430  -28.1030   22.9600 C   0  0  0  0  0  0  0  0  0  0  0  0
  -20.5990  -28.3620   23.2310 C   0  0  0  0  0  3  0  0  0  0  0  0
  -20.7020  -26.9310   22.6570 C   0  0  0  0  0  2  0  0  0  0  0  0
  -19.6000  -26.6040   21.6450 C   0  0  0  0  0  2  0  0  0  0  0  0
  -18.2190  -26.7520   22.2900 C   0  0  0  0  0  2  0  0  0  0  0  0
  -19.1610  -28.8670   23.3870 C   0  0  0  0  0  0  0  0  0  0  0  0
  -18.9430  -30.1330   23.9720 C   0  0  0  0  0  3  0  0  0  0  0  0
  -17.6380  -30.6350   24.1370 C   0  0  0  0  0  3  0  0  0  0  0  0
  -16.5340  -29.8680   23.7270 C   0  0  0  0  0  3  0  0  0  0  0  0
  -16.7370  -28.6050   23.1460 C   0  0  0  0  0  3  0  0  0  0  0  0
  -25.9080  -32.5160   23.8570 C   0  0  0  0  0  3  0  0  0  0  0  0
  -26.4380  -31.7340   25.1220 C   0  0  1  0  0  0  0  0  0  0  0  0
  -25.3560  -31.4920   26.1990 C   0  0  0  0  0  1  0  0  0  0  0  0
  -27.0150  -30.3580   24.7140 C   0  0  0  0  0  1  0  0  0  0  0  0
  -27.5990  -32.5210   25.7740 C   0  0  0  0  0  1  0  0  0  0  0  0
  -25.6060  -33.9130   24.1990 N   0  0  0  0  0  0  0  0  0  0  0  0
  -25.9200  -34.9670   23.4340 C   0  0  0  0  0  0  0  0  0  0  0  0
  -26.5680  -34.8660   22.3880 O   0  0  0  0  0  0  0  0  0  0  0  0
  -25.0290  -34.0630   25.0130 H   0  0  0  0  0  0  0  0  0  0  0  0
  -24.1740  -36.7500   23.1270 C   0  0  0  0  0  1  0  0  0  0  0  0
  -25.4400  -36.3530   23.9030 C   0  0  0  0  0  3  0  0  0  0  0  0
  -27.5980  -37.2420   24.6670 C   0  0  0  0  0  1  0  0  0  0  0  0
  -26.4640  -37.4110   23.7620 N   0  0  0  0  0  0  0  0  0  0  0  0
  -26.0580  -38.3280   23.9280 H   0  0  0  0  0  0  0  0  0  0  0  0
  1 50  1  0
  1  2  1  0
  2  4  1  0
  2  5  1  0
  2  3  1  0
  6  1  1  0
  6  7  2  0
  8  7  1  0
  8  9  1  0
 10  9  1  0
 10 11  1  0
 12 20  1  0
 13 18  1  0
 14 15  1  0
 14 13  1  0
 16 15  1  0
 16 25  1  0
 16 17  1  0
 18 12  1  0
 18 17  1  0
 19 12  2  0
 20 11  1  0
 20 21  1  0
 22 23  2  0
 23 42  1  0
 24 23  1  0
 24 27  1  0
 25 22  1  0
 25 26  1  0
 26 24  2  0
 27 28  1  0
 28 29  2  0
 30 33  1  0
 30 29  1  0
 31 30  2  0
 32 31  1  0
 32 27  2  0
 33 34  1  0
 34 35  1  0
 35 36  2  0
 37 36  1  0
 37 41  1  0
 38 37  2  0
 39 34  2  0
 39 38  1  0
 40 39  1  0
 42 43  1  0
 43 46  1  0
 43 45  1  0
 44 42  2  0
 47 48  1  0
 47 22  1  0
 49 47  1  0
 50 51  1  0
 52 63  2  0
 53 51  1  0
 53 58  1  0
 54 62  1  0
 54 64  1  0
 55 61  1  0
 55 57  1  0
 56 62  1  0
 57 56  1  0
 58 57  2  0
 59 60  1  0
 59 53  2  0
 60 55  2  0
 61 54  1  0
 62 52  1  0
 64 66  2  0
 65 64  1  0
 67 65  1  0
 68 77  2  0
 68 73  1  0
 69 65  1  0
 69 73  1  0
 70 69  1  0
 71 72  1  0
 71 70  1  0
 72 68  1  0
 73 74  2  0
 74 75  1  0
 76 75  2  0
 77 76  1  0
 78 52  1  0
 78 83  1  0
 78 79  1  0
 79 82  1  1
 79 80  1  0
 81 79  1  0
 83 86  1  0
 84 88  1  0
 84 83  1  0
 85 84  2  0
 88 87  1  0
 90 88  1  0
 90 91  1  0
 90 89  1  0
M  ISO  4  12 100  20 100  50 101  51 101
M  END
>  <TORSDO>  (53) 
F 23

>  <SCORE>  (53) 
-12.884

>  <name>  (53) 
53

>  <ligand_id>  (53) 
53

>  <original_smiles>  (53) 
[H]C(=NC([H])([H])C([H])([H])C([H])([H])C([H])([H])N([H])C(=O)N1C([H])([H])C([H])([H])C([H])([H])C([H])(n2nc(-c3c([H])c([H])c(Oc4c([H])c([H])c(F)c([H])c4F)c([H])c3[H])c(C(=O)N([H])[H])c2N([H])[H])C1([H])[H])C([H])(C([H])([H])Oc1c([H])c([H])c2c(c1[H])C([H])([H])N(C(=O)C([H])(N([H])C(=O)C([H])(N([H])C([H])([H])[H])C([H])([H])[H])C(C([H])([H])[H])(C([H])([H])[H])C([H])([H])[H])C([H])(C(=O)N([H])C1([H])c3c([H])c([H])c([H])c([H])c3C([H])([H])C([H])([H])C1([H])[H])C2([H])[H])[N+]([H])([H])[H]

>  <smiles>  (53) 
[H]C(=NC([H])([H])C([H])([H])C([H])([H])C([H])([H])N([H])C(=O)N1C([H])([H])C([H])([H])C([H])([H])C([H])(n2nc(-c3c([H])c([H])c(Oc4c([H])c([H])c(F)c([H])c4F)c([H])c3[H])c(C(=O)N([H])[H])c2N([H])[H])C1([H])[H])C([H])(C([H])([H])Oc1c([H])c([H])c2c(c1[H])C([H])([H])N(C(=O)C([H])(N([H])C(=O)C([H])(N([H])C([H])([H])[H])C([H])([H])[H])C(C([H])([H])[H])(C([H])([H])[H])C([H])([H])[H])C([H])(C(=O)N([H])C1([H])c3c([H])c([H])c([H])c([H])c3C([H])([H])C([H])([H])C1([H])[H])C2([H])[H])[N+]([H])([H])[H]

$$$$
54:0:0
     RDKit          3D

 99107  0  0  1  0  0  0  0  0999 V2000
  -29.6240  -20.3670   22.7300 N   0  0  0  0  0  4  0  0  0  0  0  0
  -28.9880  -19.5910   22.7910 H   0  0  0  0  0  0  0  0  0  0  0  0
  -29.6840  -20.7950   23.6440 H   0  0  0  0  0  0  0  0  0  0  0  0
  -29.0300  -21.3800   21.8280 C   0  0  0  0  0  2  0  0  0  0  0  0
  -29.7510  -22.7130   22.0360 C   0  0  0  0  0  0  0  0  0  0  0  0
  -30.3310  -22.9630   23.0980 O   0  0  0  0  0  0  0  0  0  0  0  0
  -29.7390  -23.7260   20.8800 C   0  0  0  0  0  2  0  0  0  0  0  0
  -28.6320  -25.6230   22.1570 C   0  0  0  0  0  1  0  0  0  0  0  0
  -27.2220  -24.0550   20.7780 C   0  0  0  0  0  1  0  0  0  0  0  0
  -28.5870  -24.7740   20.8630 C   0  0  2  0  0  0  0  0  0  0  0  0
  -28.7900  -25.6740   19.5990 C   0  0  0  0  0  2  0  0  0  0  0  0
  -28.6540  -27.0760   19.8400 O   0  0  0  0  0  0  0  0  0  0  0  0
  -24.6110  -31.8050   23.2230 C   0  0  0  0  0  0  0  0  0  0  0  0
  -27.4150  -27.6740   19.8730 C   0  0  0  0  0  0  0  0  0  0  0  0
  -23.4480  -30.4420   21.5180 C   0  0  0  0  0  3  0  0  0  0  0  0
  -24.9490  -29.0460   20.0040 C   0  0  0  0  0  0  0  0  0  0  0  0
  -25.9520  -30.9190   21.3250 C   0  0  0  0  0  2  0  0  0  0  0  0
  -26.0840  -29.5920   20.6100 C   0  0  0  0  0  0  0  0  0  0  0  0
  -27.3160  -28.9100   20.5470 C   0  0  0  0  0  3  0  0  0  0  0  0
  -26.2600  -27.1360   19.2620 C   0  0  0  0  0  3  0  0  0  0  0  0
  -25.0280  -27.8120   19.3370 C   0  0  0  0  0  3  0  0  0  0  0  0
  -23.6700  -29.8460   20.1010 C   0  0  0  0  0  2  0  0  0  0  0  0
  -24.6880  -31.0680   22.0790 N   0  0  0  0  0  0  0  0  0  0  0  0
  -23.5250  -32.0080   23.7800 O   0  0  0  0  0  0  0  0  0  0  0  0
  -22.8500  -29.3450   22.4270 C   0  0  0  0  0  0  0  0  0  0  0  0
  -21.5420  -29.0900   22.2710 N   0  0  0  0  0  0  0  0  0  0  0  0
  -23.5610  -28.7270   23.2230 O   0  0  0  0  0  0  0  0  0  0  0  0
  -21.0280  -29.6440   21.6010 H   0  0  0  0  0  0  0  0  0  0  0  0
  -18.2330  -27.7010   22.6730 C   0  0  0  0  0  0  0  0  0  0  0  0
  -20.7710  -28.0760   22.9880 C   0  0  0  0  0  3  0  0  0  0  0  0
  -20.9540  -26.6820   22.3450 C   0  0  0  0  0  2  0  0  0  0  0  0
  -19.8810  -26.3520   21.3050 C   0  0  0  0  0  2  0  0  0  0  0  0
  -18.4870  -26.3960   21.9380 C   0  0  0  0  0  2  0  0  0  0  0  0
  -19.3060  -28.5000   23.1500 C   0  0  0  0  0  0  0  0  0  0  0  0
  -19.0160  -29.7230   23.7920 C   0  0  0  0  0  3  0  0  0  0  0  0
  -17.6850  -30.1510   23.9600 C   0  0  0  0  0  3  0  0  0  0  0  0
  -16.6280  -29.3490   23.4990 C   0  0  0  0  0  3  0  0  0  0  0  0
  -16.9010  -28.1260   22.8640 C   0  0  0  0  0  3  0  0  0  0  0  0
  -25.8780  -32.4490   23.8700 C   0  0  0  0  0  3  0  0  0  0  0  0
  -26.3910  -31.6750   25.1480 C   0  0  1  0  0  0  0  0  0  0  0  0
  -25.2860  -31.4040   26.1980 C   0  0  0  0  0  1  0  0  0  0  0  0
  -27.0030  -30.3120   24.7470 C   0  0  0  0  0  1  0  0  0  0  0  0
  -27.5210  -32.4800   25.8320 C   0  0  0  0  0  1  0  0  0  0  0  0
  -25.5470  -33.8400   24.2040 N   0  0  0  0  0  0  0  0  0  0  0  0
  -25.8870  -34.9010   23.4590 C   0  0  0  0  0  0  0  0  0  0  0  0
  -26.5880  -34.8110   22.4460 O   0  0  0  0  0  0  0  0  0  0  0  0
  -24.9310  -33.9850   24.9910 H   0  0  0  0  0  0  0  0  0  0  0  0
  -24.1510  -36.6710   23.0580 C   0  0  0  0  0  1  0  0  0  0  0  0
  -25.3700  -36.2790   23.9100 C   0  0  0  0  0  3  0  0  0  0  0  0
  -27.4590  -37.1840   24.8240 C   0  0  0  0  0  1  0  0  0  0  0  0
  -26.3940  -37.3440   23.8370 N   0  0  0  0  0  0  0  0  0  0  0  0
  -25.9730  -38.2590   23.9710 H   0  0  0  0  0  0  0  0  0  0  0  0
  -30.9750  -19.9070   22.3190 C   0  0  0  0  0  2  0  0  0  0  0  0
  -31.3260  -18.5010   22.8300 C   0  0  0  0  0  2  0  0  0  0  0  0
  -30.6350  -17.3300   22.0940 C   0  0  0  0  0  2  0  0  0  0  0  0
  -31.4510  -14.6760   20.3240 C   0  0  0  0  0  0  0  0  0  0  0  0
  -31.1190  -12.4800   19.3160 C   0  0  0  0  0  2  0  0  0  0  0  0
  -30.2100  -12.6760   18.0870 C   0  0  0  0  0  2  0  0  0  0  0  0
  -28.7210  -12.6110   18.4930 C   0  0  0  0  0  2  0  0  0  0  0  0
  -28.3800  -13.4940   19.7270 C   0  0  0  0  0  3  0  0  0  0  0  0
  -29.4180  -13.3030   20.8550 C   0  0  0  0  0  2  0  0  0  0  0  0
  -30.7580  -13.5150   20.2880 N   0  0  0  0  0  0  0  0  0  0  0  0
  -32.6580  -14.7680   20.0930 O   0  0  0  0  0  0  0  0  0  0  0  0
  -30.5860  -16.2820   18.8080 C   0  0  0  0  0  2  0  0  0  0  0  0
  -30.2040  -17.5990   19.4400 C   0  0  0  0  0  3  0  0  0  0  0  0
  -31.0650  -17.1300   20.6230 C   0  0  0  0  0  3  0  0  0  0  0  0
  -30.6690  -15.7660   20.1870 N   0  0  0  0  0  0  0  0  0  0  0  0
  -25.9970  -14.1840   20.4090 C   0  0  0  0  0  0  0  0  0  0  0  0
  -24.9000  -13.4490   20.7600 C   0  0  0  0  0  0  0  0  0  0  0  0
  -25.3170  -12.0820   20.7330 C   0  0  0  0  0  0  0  0  0  0  0  0
  -27.0150  -13.2690   20.1900 N   0  0  0  0  0  0  0  0  0  0  0  0
  -26.6090  -12.0010   20.4450 N   0  0  0  0  0  0  0  0  0  0  0  0
  -24.5510  -10.8430   20.9100 C   0  0  0  0  0  0  0  0  0  0  0  0
  -24.8920   -9.9030   21.9070 C   0  0  0  0  0  3  0  0  0  0  0  0
  -24.1310   -8.7260   22.0710 C   0  0  0  0  0  3  0  0  0  0  0  0
  -23.0150   -8.4810   21.2350 C   0  0  0  0  0  0  0  0  0  0  0  0
  -22.6940   -9.4090   20.2290 C   0  0  0  0  0  3  0  0  0  0  0  0
  -23.4570  -10.5790   20.0640 C   0  0  0  0  0  3  0  0  0  0  0  0
  -22.2320   -7.3550   21.3040 O   0  0  0  0  0  0  0  0  0  0  0  0
  -22.0110   -6.7050   22.4910 C   0  0  0  0  0  0  0  0  0  0  0  0
  -21.4020   -7.3480   23.5920 C   0  0  0  0  0  3  0  0  0  0  0  0
  -21.1300   -6.6220   24.7680 C   0  0  0  0  0  3  0  0  0  0  0  0
  -21.4580   -5.2560   24.8460 C   0  0  0  0  0  0  0  0  0  0  0  0
  -22.0570   -4.6130   23.7480 C   0  0  0  0  0  3  0  0  0  0  0  0
  -22.3330   -5.3350   22.5750 C   0  0  0  0  0  0  0  0  0  0  0  0
  -22.8910   -4.7070   21.5130 F   0  0  0  0  0  0  0  0  0  0  0  0
  -21.1880   -4.5560   25.9720 F   0  0  0  0  0  0  0  0  0  0  0  0
  -23.5150  -13.9690   21.0160 C   0  0  0  0  0  0  0  0  0  0  0  0
  -22.7560  -13.2970   21.8750 N   0  0  0  0  0  0  0  0  0  0  0  0
  -23.1120  -15.0060   20.4890 O   0  0  0  0  0  0  0  0  0  0  0  0
  -23.0960  -12.4600   22.3240 H   0  0  0  0  0  0  0  0  0  0  0  0
  -21.8240  -13.6240   22.0890 H   0  0  0  0  0  0  0  0  0  0  0  0
  -26.2150  -15.5490   20.2340 N   0  0  0  0  0  0  0  0  0  0  0  0
  -25.4740  -16.2360   20.3300 H   0  0  0  0  0  0  0  0  0  0  0  0
  -27.0960  -15.9500   19.9400 H   0  0  0  0  0  0  0  0  0  0  0  0
  -30.6280  -18.7770   18.6530 N   0  0  0  0  0  4  0  0  0  0  0  0
  -30.1180  -18.8070   17.7860 H   0  0  0  0  0  0  0  0  0  0  0  0
  -31.6060  -18.7490   18.4270 H   0  0  0  0  0  0  0  0  0  0  0  0
  -30.4270  -19.6350   19.1250 H   0  0  0  0  0  0  0  0  0  0  0  0
  1  2  1  0
  1  3  1  0
  4  5  1  0
  4  1  1  0
  5  6  2  0
  7  5  1  0
 10  9  1  6
 10  7  1  0
 10  8  1  0
 11 12  1  0
 11 10  1  0
 12 14  1  0
 13 24  2  0
 14 19  1  0
 15 23  1  0
 15 25  1  0
 16 22  1  0
 16 18  1  0
 17 23  1  0
 18 17  1  0
 19 18  2  0
 20 21  1  0
 20 14  2  0
 21 16  2  0
 22 15  1  0
 23 13  1  0
 25 27  2  0
 26 25  1  0
 28 26  1  0
 29 38  2  0
 29 34  1  0
 30 26  1  0
 30 34  1  0
 31 30  1  0
 32 33  1  0
 32 31  1  0
 33 29  1  0
 34 35  2  0
 35 36  1  0
 37 36  2  0
 38 37  1  0
 39 13  1  0
 39 44  1  0
 39 40  1  0
 40 43  1  1
 40 41  1  0
 42 40  1  0
 44 47  1  0
 45 49  1  0
 45 44  1  0
 46 45  2  0
 49 48  1  0
 51 49  1  0
 51 52  1  0
 51 50  1  0
 53  1  1  0
 53 54  1  0
 55 54  1  0
 57 62  1  0
 58 59  1  0
 58 57  1  0
 60 59  1  0
 60 71  1  0
 60 61  1  0
 62 56  1  0
 62 61  1  0
 63 56  2  0
 64 65  1  0
 64 67  1  0
 65 96  1  0
 65 66  1  0
 66 55  1  0
 67 56  1  0
 67 66  1  0
 68 69  2  0
 69 88  1  0
 70 69  1  0
 70 73  1  0
 71 68  1  0
 71 72  1  0
 72 70  2  0
 73 74  1  0
 74 75  2  0
 76 79  1  0
 76 75  1  0
 77 76  2  0
 78 77  1  0
 78 73  2  0
 79 80  1  0
 80 85  2  0
 80 81  1  0
 81 82  2  0
 82 83  1  0
 83 87  1  0
 84 83  2  0
 85 84  1  0
 86 85  1  0
 88 89  1  0
 89 92  1  0
 89 91  1  0
 90 88  2  0
 93 94  1  0
 93 68  1  0
 95 93  1  0
 96 99  1  0
 97 96  1  0
 98 96  1  0
M  ISO  4  11 101  12 101  56 100  67 100
M  END
>  <TORSDO>  (54) 
F 25

>  <SCORE>  (54) 
-11.176

>  <name>  (54) 
54

>  <ligand_id>  (54) 
54

>  <original_smiles>  (54) 
[H]c1c([H])c([H])c2c(c1[H])C([H])([H])C([H])([H])C([H])([H])C2([H])N([H])C(=O)C1([H])N(C(=O)C([H])(N([H])C(=O)C([H])(N([H])C([H])([H])[H])C([H])([H])[H])C(C([H])([H])[H])(C([H])([H])[H])C([H])([H])[H])C([H])([H])c2c([H])c(OC([H])([H])C(C([H])([H])[H])(C([H])([H])[H])C([H])([H])C(=O)C([H])([H])[N+]([H])([H])C([H])([H])C([H])([H])C([H])([H])C3([H])N(C(=O)N4C([H])([H])C([H])([H])C([H])([H])C([H])(n5nc(-c6c([H])c([H])c(Oc7c([H])c([H])c(F)c([H])c7F)c([H])c6[H])c(C(=O)N([H])[H])c5N([H])[H])C4([H])[H])C([H])([H])C3([H])[N+]([H])([H])[H])c([H])c([H])c2C1([H])[H]

>  <smiles>  (54) 
[H]c1c([H])c([H])c2c(c1[H])C([H])([H])C([H])([H])C([H])([H])C2([H])N([H])C(=O)C1([H])N(C(=O)C([H])(N([H])C(=O)C([H])(N([H])C([H])([H])[H])C([H])([H])[H])C(C([H])([H])[H])(C([H])([H])[H])C([H])([H])[H])C([H])([H])c2c([H])c(OC([H])([H])C(C([H])([H])[H])(C([H])([H])[H])C([H])([H])C(=O)C([H])([H])[N+]([H])([H])C([H])([H])C([H])([H])C([H])([H])C3([H])N(C(=O)N4C([H])([H])C([H])([H])C([H])([H])C([H])(n5nc(-c6c([H])c([H])c(Oc7c([H])c([H])c(F)c([H])c7F)c([H])c6[H])c(C(=O)N([H])[H])c5N([H])[H])C4([H])[H])C([H])([H])C3([H])[N+]([H])([H])[H])c([H])c([H])c2C1([H])[H]

$$$$
55:0:0
     RDKit          3D

 96 97  0  0  1  0  0  0  0  0999 V2000
  -28.5090  -16.7980   20.9390 C   0  0  0  0  0  0  0  0  0  0  0  0
  -28.0030  -18.0800   20.4750 N   0  0  0  0  0  0  0  0  0  0  0  0
  -29.5440  -16.8540   21.5990 O   0  0  0  0  0  0  0  0  0  0  0  0
  -27.1260  -18.0190   19.9700 H   0  0  0  0  0  0  0  0  0  0  0  0
  -27.1510  -12.5810   18.2630 C   0  0  0  0  0 15  0  0  0  0  0  0
  -27.8240  -11.0900   19.7860 C   0  0  0  0  0 15  0  0  0  0  0  0
  -28.2950  -13.5950   22.0720 C   0  0  0  0  0 15  0  0  0  0  0  0
  -27.9070  -15.2060   20.7410 C   0  0  0  0  0  1  0  0  0  0  0  0
  -27.6170  -14.6820   18.7470 C   0  0  0  0  0  1  0  0  0  0  0  0
  -28.3090  -11.7210   21.5710 N   0  0  0  0  0  2  0  0  0  0  0  0
  -29.1310  -11.2510   21.9200 H   0  0  0  0  0  0  0  0  0  0  0  0
  -27.5250  -11.3720   22.1040 H   0  0  0  0  0  0  0  0  0  0  0  0
  -29.0480  -15.3700   18.1580 C   0  0  0  0  0  2  0  0  0  0  0  0
  -31.4280  -14.6320   19.5610 C   0  0  0  0  0  0  0  0  0  0  0  0
  -31.6470  -12.2840   18.9440 C   0  0  0  0  0  2  0  0  0  0  0  0
  -30.6980  -12.3770   17.8020 C   0  0  0  0  0  2  0  0  0  0  0  0
  -29.3160  -12.4730   18.3170 C   0  0  0  0  0  2  0  0  0  0  0  0
  -28.7950  -13.1610   19.8380 C   0  0  0  0  0  2  0  0  0  0  0  0
  -30.1450  -12.8320   20.6150 C   0  0  0  0  0  2  0  0  0  0  0  0
  -31.2120  -13.3210   19.8370 N   0  0  0  0  0  0  0  0  0  0  0  0
  -32.5630  -15.0360   19.7490 O   0  0  0  0  0  0  0  0  0  0  0  0
  -30.4800  -15.4060   18.8450 N   0  0  0  0  0  0  0  0  0  0  0  0
  -30.8910  -16.3200   18.7060 H   0  0  0  0  0  0  0  0  0  0  0  0
  -25.4520  -14.1760   20.3970 C   0  0  0  0  0  0  0  0  0  0  0  0
  -24.3720  -13.3870   20.6730 C   0  0  0  0  0  0  0  0  0  0  0  0
  -24.7870  -12.0770   20.7390 C   0  0  0  0  0  3  0  0  0  0  0  0
  -26.6260  -13.3690   20.5490 N   0  0  0  0  0  2  0  0  0  0  0  0
  -25.8550  -12.4060   21.2680 N   0  0  0  0  0  2  0  0  0  0  0  0
  -24.2180  -10.7340   20.9320 C   0  0  0  0  0  0  0  0  0  0  0  0
  -24.6950   -9.7720   21.8630 C   0  0  0  0  0  3  0  0  0  0  0  0
  -24.0040   -8.5510   22.0410 C   0  0  0  0  0  3  0  0  0  0  0  0
  -22.8360   -8.2920   21.2830 C   0  0  0  0  0  0  0  0  0  0  0  0
  -22.4210   -9.2210   20.3170 C   0  0  0  0  0  3  0  0  0  0  0  0
  -23.1110  -10.4230   20.1340 C   0  0  0  0  0  3  0  0  0  0  0  0
  -22.0650   -7.1610   21.3890 O   0  0  0  0  0  0  0  0  0  0  0  0
  -21.9160   -6.4910   22.5730 C   0  0  0  0  0  0  0  0  0  0  0  0
  -21.4280   -7.1170   23.7410 C   0  0  0  0  0  3  0  0  0  0  0  0
  -21.2300   -6.3580   24.9130 C   0  0  0  0  0  3  0  0  0  0  0  0
  -21.5050   -4.9760   24.9120 C   0  0  0  0  0  0  0  0  0  0  0  0
  -21.9810   -4.3530   23.7450 C   0  0  0  0  0  3  0  0  0  0  0  0
  -22.1830   -5.1090   22.5790 C   0  0  0  0  0  0  0  0  0  0  0  0
  -22.6240   -4.5020   21.4500 F   0  0  0  0  0  0  0  0  0  0  0  0
  -21.3080   -4.2460   26.0330 F   0  0  0  0  0  0  0  0  0  0  0  0
  -23.0210  -13.8600   20.9430 C   0  0  0  0  0  0  0  0  0  0  0  0
  -22.3680  -13.2000   21.8870 N   0  0  0  0  0  0  0  0  0  0  0  0
  -22.6040  -14.8740   20.4060 O   0  0  0  0  0  0  0  0  0  0  0  0
  -22.7760  -12.4000   22.3410 H   0  0  0  0  0  0  0  0  0  0  0  0
  -21.4520  -13.5130   22.1690 H   0  0  0  0  0  0  0  0  0  0  0  0
  -25.3460  -15.5140   20.0440 N   0  0  0  0  0  0  0  0  0  0  0  0
  -26.0900  -16.0220   19.5900 H   0  0  0  0  0  0  0  0  0  0  0  0
  -24.4180  -15.8740   19.8410 H   0  0  0  0  0  0  0  0  0  0  0  0
  -28.5800  -19.5970   20.5870 C   0  0  0  0  0  3  0  0  0  0  0  0
  -27.8570  -21.1230   20.1530 C   0  0  0  0  0  3  0  0  0  0  0  0
  -28.5130  -22.7420   20.2320 C   0  0  0  0  0  3  0  0  0  0  0  0
  -27.7350  -24.2750   19.9510 C   0  0  0  0  0  3  0  0  0  0  0  0
  -28.2230  -25.8100   19.9430 O   0  0  0  0  0  0  0  0  0  0  0  0
  -24.6560  -31.5560   22.9850 C   0  0  0  0  0  0  0  0  0  0  0  0
  -27.2700  -26.9100   19.8420 C   0  0  0  0  0  0  0  0  0  0  0  0
  -23.4930  -30.1750   21.3150 C   0  0  0  0  0  3  0  0  0  0  0  0
  -24.9710  -28.7020   19.8190 C   0  0  0  0  0  0  0  0  0  0  0  0
  -26.0440  -30.5000   21.1500 C   0  0  0  0  0  2  0  0  0  0  0  0
  -26.1460  -29.1230   20.4550 C   0  0  0  0  0  0  0  0  0  0  0  0
  -27.3050  -28.2430   20.4500 C   0  0  0  0  0  3  0  0  0  0  0  0
  -26.0930  -26.6490   19.1150 C   0  0  0  0  0  3  0  0  0  0  0  0
  -24.9680  -27.4890   19.1200 C   0  0  0  0  0  3  0  0  0  0  0  0
  -23.7250  -29.5680   19.9080 C   0  0  0  0  0  2  0  0  0  0  0  0
  -24.7520  -30.7680   21.8710 N   0  0  0  0  0  0  0  0  0  0  0  0
  -23.5640  -31.7860   23.5260 O   0  0  0  0  0  0  0  0  0  0  0  0
  -22.8600  -29.1080   22.2450 C   0  0  0  0  0  0  0  0  0  0  0  0
  -21.5300  -28.9190   22.1530 N   0  0  0  0  0  0  0  0  0  0  0  0
  -23.5650  -28.4570   23.0200 O   0  0  0  0  0  0  0  0  0  0  0  0
  -21.0140  -29.4990   21.5060 H   0  0  0  0  0  0  0  0  0  0  0  0
  -18.1810  -27.6600   22.7350 C   0  0  0  0  0  0  0  0  0  0  0  0
  -20.7480  -27.9350   22.9070 C   0  0  0  0  0  3  0  0  0  0  0  0
  -20.8360  -26.5350   22.2540 C   0  0  0  0  0  2  0  0  0  0  0  0
  -19.6940  -26.2550   21.2720 C   0  0  0  0  0  2  0  0  0  0  0  0
  -18.3400  -26.3520   21.9800 C   0  0  0  0  0  2  0  0  0  0  0  0
  -19.3110  -28.4110   23.1570 C   0  0  0  0  0  0  0  0  0  0  0  0
  -19.1060  -29.6360   23.8290 C   0  0  0  0  0  3  0  0  0  0  0  0
  -17.8050  -30.1110   24.0800 C   0  0  0  0  0  3  0  0  0  0  0  0
  -16.6910  -29.3580   23.6710 C   0  0  0  0  0  3  0  0  0  0  0  0
  -16.8810  -28.1330   23.0050 C   0  0  0  0  0  3  0  0  0  0  0  0
  -25.9130  -32.2220   23.6220 C   0  0  0  0  0  3  0  0  0  0  0  0
  -25.5460  -33.5940   24.0090 N   0  0  0  0  0  0  0  0  0  0  0  0
  -25.8420  -34.6930   23.3020 C   0  0  0  0  0  0  0  0  0  0  0  0
  -26.5180  -34.6620   22.2720 O   0  0  0  0  0  0  0  0  0  0  0  0
  -24.9420  -33.6900   24.8120 H   0  0  0  0  0  0  0  0  0  0  0  0
  -24.0550  -36.4460   23.0210 C   0  0  0  0  0  1  0  0  0  0  0  0
  -25.3040  -36.0420   23.8210 C   0  0  0  0  0  3  0  0  0  0  0  0
  -27.3970  -36.9670   24.7150 C   0  0  0  0  0  1  0  0  0  0  0  0
  -26.2990  -37.1360   23.7650 N   0  0  0  0  0  0  0  0  0  0  0  0
  -25.8590  -38.0340   23.9450 H   0  0  0  0  0  0  0  0  0  0  0  0
  -26.4660  -31.4310   24.8710 C   0  0  1  0  0  0  0  0  0  0  0  0
  -25.3910  -31.1250   25.9410 C   0  0  0  0  0  1  0  0  0  0  0  0
  -27.0920  -30.0840   24.4400 C   0  0  0  0  0  1  0  0  0  0  0  0
  -27.5940  -32.2440   25.5470 C   0  0  0  0  0  1  0  0  0  0  0  0
  1  3  2  0
  2 52  1  0
  2  1  1  0
  4  2  1  0
  8  1  1  0
 10 11  1  0
 10 12  1  0
 13  9  1  0
 13 22  1  0
 14 21  2  0
 14 20  1  0
 15 20  1  0
 16 17  1  0
 16 15  1  0
 17 18  1  0
 18 19  1  0
 20 19  1  0
 22 14  1  0
 23 22  1  0
 24 27  1  0
 24 25  2  0
 25 26  1  0
 25 44  1  0
 26 29  1  0
 26 28  1  0
 27 28  1  0
 29 30  1  0
 30 31  2  0
 32 35  1  0
 32 31  1  0
 33 32  2  0
 34 33  1  0
 34 29  2  0
 35 36  1  0
 36 41  2  0
 36 37  1  0
 37 38  2  0
 39 38  1  0
 39 43  1  0
 40 39  2  0
 41 40  1  0
 42 41  1  0
 44 45  1  0
 45 48  1  0
 45 47  1  0
 46 44  2  0
 49 24  1  0
 50 49  1  0
 51 49  1  0
 53 54  1  0
 53 52  2  0
 55 54  2  0
 56 55  1  0
 57 68  2  0
 58 56  1  0
 58 63  1  0
 59 67  1  0
 59 69  1  0
 60 66  1  0
 60 62  1  0
 61 67  1  0
 62 61  1  0
 63 62  2  0
 64 65  1  0
 64 58  2  0
 65 60  2  0
 66 59  1  0
 67 57  1  0
 69 71  2  0
 70 69  1  0
 72 70  1  0
 73 82  2  0
 73 78  1  0
 74 70  1  0
 74 78  1  0
 75 74  1  0
 76 77  1  0
 76 75  1  0
 77 73  1  0
 78 79  2  0
 79 80  1  0
 81 80  2  0
 82 81  1  0
 83 57  1  0
 83 84  1  0
 83 93  1  0
 84 87  1  0
 85 89  1  0
 85 84  1  0
 86 85  2  0
 89 88  1  0
 91 89  1  0
 91 92  1  0
 91 90  1  0
 93 96  1  1
 93 94  1  0
 95 93  1  0
M  ISO  4  14 100  22 100  55 101  56 101
M  END
>  <TORSDO>  (55) 
F 22

>  <SCORE>  (55) 
-12.986

>  <name>  (55) 
55

>  <ligand_id>  (55) 
55

>  <original_smiles>  (55) 
[H]c1c([H])c([H])c2c(c1[H])C([H])([H])C([H])([H])C([H])([H])C2([H])N([H])C(=O)C1([H])N(C(=O)C([H])(N([H])C(=O)C([H])(N([H])C([H])([H])[H])C([H])([H])[H])C(C([H])([H])[H])(C([H])([H])[H])C([H])([H])[H])C([H])([H])c2c([H])c(OC([H])([H])C([H])([H])C([H])([H])C([H])([H])N([H])C(=O)C3([H])C([H])(C([H])([H])N([H])C(=O)N4C([H])([H])C([H])([H])C([H])([H])C([H])(n5nc(-c6c([H])c([H])c(Oc7c([H])c([H])c(F)c([H])c7F)c([H])c6[H])c(C(=O)N([H])[H])c5N([H])[H])C4([H])[H])C([H])([H])C([H])([H])[N+]([H])([H])C3([H])[H])c([H])c([H])c2C1([H])[H]

>  <smiles>  (55) 
[H]c1c([H])c([H])c2c(c1[H])C([H])([H])C([H])([H])C([H])([H])C2([H])N([H])C(=O)C1([H])N(C(=O)C([H])(N([H])C(=O)C([H])(N([H])C([H])([H])[H])C([H])([H])[H])C(C([H])([H])[H])(C([H])([H])[H])C([H])([H])[H])C([H])([H])c2c([H])c(OC([H])([H])C([H])([H])C([H])([H])C([H])([H])N([H])C(=O)C3([H])C([H])(C([H])([H])N([H])C(=O)N4C([H])([H])C([H])([H])C([H])([H])C([H])(n5nc(-c6c([H])c([H])c(Oc7c([H])c([H])c(F)c([H])c7F)c([H])c6[H])c(C(=O)N([H])[H])c5N([H])[H])C4([H])[H])C([H])([H])C([H])([H])[N+]([H])([H])C3([H])[H])c([H])c([H])c2C1([H])[H]

$$$$
56:0:0
     RDKit          3D

104113  0  0  1  0  0  0  0  0999 V2000
  -30.7470  -14.3800   20.6820 C   0  0  0  0  0  0  0  0  0  0  0  0
  -30.4260  -12.2960   19.3880 C   0  0  0  0  0  2  0  0  0  0  0  0
  -29.4870  -12.5240   18.1870 C   0  0  0  0  0  2  0  0  0  0  0  0
  -28.0110  -12.3730   18.6060 C   0  0  0  0  0  2  0  0  0  0  0  0
  -27.6660  -13.1930   19.8760 C   0  0  0  0  0  3  0  0  0  0  0  0
  -28.7060  -12.9220   20.9850 C   0  0  0  0  0  2  0  0  0  0  0  0
  -30.0450  -13.2370   20.4510 N   0  0  0  0  0  0  0  0  0  0  0  0
  -31.7990  -14.6650   20.1000 O   0  0  0  0  0  0  0  0  0  0  0  0
  -31.0990  -16.6340   23.4970 C   0  0  0  0  0  2  0  0  0  0  0  0
  -30.7690  -15.2130   22.9950 C   0  0  0  0  0  2  0  0  0  0  0  0
  -29.2180  -16.2080   21.2720 C   0  0  0  0  0  2  0  0  0  0  0  0
  -29.9190  -17.5910   23.2680 C   0  0  0  0  0  3  0  0  0  0  0  0
  -29.5930  -17.6250   21.7590 C   0  0  0  0  0  3  0  0  0  0  0  0
  -30.2290  -15.1950   21.6250 N   0  0  0  0  0  0  0  0  0  0  0  0
  -31.3770  -21.0960   23.9330 C   0  0  0  0  0  3  0  0  0  0  0  0
  -29.3420  -20.8370   25.2360 C   0  0  0  0  0  3  0  0  0  0  0  0
  -31.2420  -19.7780   23.4550 C   0  0  0  0  0  3  0  0  0  0  0  0
  -29.2010  -19.5210   24.7570 C   0  0  0  0  0  3  0  0  0  0  0  0
  -30.4260  -21.6450   24.8270 C   0  0  0  0  0  0  0  0  0  0  0  0
  -30.1420  -18.9860   23.8510 C   0  0  0  0  0  0  0  0  0  0  0  0
  -30.5420  -23.0370   25.3310 C   0  0  0  0  0  0  0  0  0  0  0  0
  -31.4570  -23.8460   25.0090 N   0  0  0  0  0  0  0  0  0  0  0  0
  -29.6150  -23.4890   26.1930 F   0  0  0  0  0  0  0  0  0  0  0  0
  -32.0940  -23.4020   24.3610 H   0  0  0  0  0  0  0  0  0  0  0  0
  -25.2610  -13.8120   20.5660 C   0  0  0  0  0  0  0  0  0  0  0  0
  -24.1850  -13.0430   20.9210 C   0  0  0  0  0  0  0  0  0  0  0  0
  -24.6390  -11.6880   20.8750 C   0  0  0  0  0  0  0  0  0  0  0  0
  -26.3040  -12.9270   20.3340 N   0  0  0  0  0  0  0  0  0  0  0  0
  -25.9300  -11.6450   20.5740 N   0  0  0  0  0  0  0  0  0  0  0  0
  -23.9040  -10.4290   21.0410 C   0  0  0  0  0  0  0  0  0  0  0  0
  -24.3600   -9.4210   21.9180 C   0  0  0  0  0  3  0  0  0  0  0  0
  -23.6290   -8.2230   22.0750 C   0  0  0  0  0  3  0  0  0  0  0  0
  -22.4270   -8.0270   21.3540 C   0  0  0  0  0  0  0  0  0  0  0  0
  -21.9910   -9.0250   20.4650 C   0  0  0  0  0  3  0  0  0  0  0  0
  -22.7220  -10.2130   20.3060 C   0  0  0  0  0  3  0  0  0  0  0  0
  -21.6640   -6.8870   21.4240 O   0  0  0  0  0  0  0  0  0  0  0  0
  -21.6850   -6.0730   22.5280 C   0  0  0  0  0  0  0  0  0  0  0  0
  -21.4010   -6.5640   23.8220 C   0  0  0  0  0  3  0  0  0  0  0  0
  -21.3660   -5.6790   24.9180 C   0  0  0  0  0  3  0  0  0  0  0  0
  -21.6050   -4.3050   24.7230 C   0  0  0  0  0  0  0  0  0  0  0  0
  -21.8820   -3.8140   23.4350 C   0  0  0  0  0  3  0  0  0  0  0  0
  -21.9190   -4.6960   22.3400 C   0  0  0  0  0  0  0  0  0  0  0  0
  -22.1660   -4.2150   21.0980 F   0  0  0  0  0  0  0  0  0  0  0  0
  -21.5630   -3.4530   25.7730 F   0  0  0  0  0  0  0  0  0  0  0  0
  -22.7880  -13.5250   21.1870 C   0  0  0  0  0  0  0  0  0  0  0  0
  -22.0500  -12.8250   22.0410 N   0  0  0  0  0  0  0  0  0  0  0  0
  -22.3590  -14.5560   20.6700 O   0  0  0  0  0  0  0  0  0  0  0  0
  -22.4090  -11.9910   22.4820 H   0  0  0  0  0  0  0  0  0  0  0  0
  -21.1110  -13.1260   22.2580 H   0  0  0  0  0  0  0  0  0  0  0  0
  -25.4320  -15.1820   20.3950 N   0  0  0  0  0  0  0  0  0  0  0  0
  -24.6260  -15.7990   20.4140 H   0  0  0  0  0  0  0  0  0  0  0  0
  -26.2110  -15.5670   19.8780 H   0  0  0  0  0  0  0  0  0  0  0  0
  -28.5020  -18.5850   21.4770 N   0  0  0  0  0  4  0  0  0  0  0  0
  -28.1670  -18.9560   22.3540 H   0  0  0  0  0  0  0  0  0  0  0  0
  -27.7310  -18.1120   21.0330 H   0  0  0  0  0  0  0  0  0  0  0  0
  -28.8850  -19.7710   20.6770 C   0  0  0  0  0  2  0  0  0  0  0  0
  -26.5150  -20.3310   19.9400 C   0  0  0  0  0  1  0  0  0  0  0  0
  -27.7610  -20.8290   20.6970 C   0  0  1  0  0  0  0  0  0  0  0  0
  -27.3860  -20.9970   21.9670 F   0  0  0  0  0  0  0  0  0  0  0  0
  -28.2040  -22.2070   20.1380 C   0  0  0  0  0  2  0  0  0  0  0  0
  -29.1080  -23.0600   21.0640 C   0  0  0  0  0  2  0  0  0  0  0  0
  -29.4310  -24.4800   20.5350 C   0  0  0  0  0  2  0  0  0  0  0  0
  -28.1730  -25.2830   20.1700 C   0  0  0  0  0  2  0  0  0  0  0  0
  -28.3850  -26.6980   20.1010 O   0  0  0  0  0  0  0  0  0  0  0  0
  -24.6130  -31.8710   23.2140 C   0  0  0  0  0  0  0  0  0  0  0  0
  -27.2260  -27.4500   20.0780 C   0  0  0  0  0  0  0  0  0  0  0  0
  -23.3980  -30.4980   21.5550 C   0  0  0  0  0  3  0  0  0  0  0  0
  -24.8410  -28.9720   20.1140 C   0  0  0  0  0  0  0  0  0  0  0  0
  -25.9280  -30.8400   21.3640 C   0  0  0  0  0  2  0  0  0  0  0  0
  -26.0050  -29.4780   20.7060 C   0  0  0  0  0  0  0  0  0  0  0  0
  -27.2020  -28.7260   20.6840 C   0  0  0  0  0  3  0  0  0  0  0  0
  -26.0410  -26.9660   19.4730 C   0  0  0  0  0  3  0  0  0  0  0  0
  -24.8520  -27.7130   19.4970 C   0  0  0  0  0  3  0  0  0  0  0  0
  -23.6020  -29.8350   20.1690 C   0  0  0  0  0  2  0  0  0  0  0  0
  -24.6650  -31.0830   22.1020 N   0  0  0  0  0  0  0  0  0  0  0  0
  -23.5320  -32.1460   23.7540 O   0  0  0  0  0  0  0  0  0  0  0  0
  -22.7380  -29.4690   22.5010 C   0  0  0  0  0  0  0  0  0  0  0  0
  -21.4120  -29.3030   22.3730 N   0  0  0  0  0  0  0  0  0  0  0  0
  -23.4160  -28.8200   23.3020 O   0  0  0  0  0  0  0  0  0  0  0  0
  -20.9260  -29.8750   21.6980 H   0  0  0  0  0  0  0  0  0  0  0  0
  -18.0260  -28.1380   22.8490 C   0  0  0  0  0  0  0  0  0  0  0  0
  -20.5840  -28.3660   23.1320 C   0  0  0  0  0  3  0  0  0  0  0  0
  -20.6760  -26.9400   22.5410 C   0  0  0  0  0  2  0  0  0  0  0  0
  -19.5750  -26.6380   21.5200 C   0  0  0  0  0  2  0  0  0  0  0  0
  -18.1910  -26.7930   22.1600 C   0  0  0  0  0  2  0  0  0  0  0  0
  -19.1510  -28.8830   23.2900 C   0  0  0  0  0  0  0  0  0  0  0  0
  -18.9450  -30.1420   23.8930 C   0  0  0  0  0  3  0  0  0  0  0  0
  -17.6460  -30.6590   24.0550 C   0  0  0  0  0  3  0  0  0  0  0  0
  -16.5340  -29.9090   23.6330 C   0  0  0  0  0  3  0  0  0  0  0  0
  -16.7240  -28.6490   23.0370 C   0  0  0  0  0  3  0  0  0  0  0  0
  -25.9030  -32.4850   23.8420 C   0  0  0  0  0  3  0  0  0  0  0  0
  -25.5900  -33.8650   24.2350 N   0  0  0  0  0  0  0  0  0  0  0  0
  -25.9030  -34.9490   23.5120 C   0  0  0  0  0  0  0  0  0  0  0  0
  -26.5580  -34.8930   22.4680 O   0  0  0  0  0  0  0  0  0  0  0  0
  -25.0140  -33.9840   25.0550 H   0  0  0  0  0  0  0  0  0  0  0  0
  -24.1500  -36.7310   23.2640 C   0  0  0  0  0  1  0  0  0  0  0  0
  -25.4120  -36.3120   24.0340 C   0  0  0  0  0  3  0  0  0  0  0  0
  -27.5590  -37.1810   24.8460 C   0  0  0  0  0  1  0  0  0  0  0  0
  -26.4310  -37.3800   23.9400 N   0  0  0  0  0  0  0  0  0  0  0  0
  -26.0190  -38.2870   24.1420 H   0  0  0  0  0  0  0  0  0  0  0  0
  -26.4470  -31.6620   25.0730 C   0  0  1  0  0  0  0  0  0  0  0  0
  -25.3750  -31.3710   26.1490 C   0  0  0  0  0  1  0  0  0  0  0  0
  -27.0280  -30.3060   24.6060 C   0  0  0  0  0  1  0  0  0  0  0  0
  -27.6070  -32.4340   25.7470 C   0  0  0  0  0  1  0  0  0  0  0  0
  1 14  1  0
  2  7  1  0
  3  4  1  0
  3  2  1  0
  5  4  1  0
  5 28  1  0
  5  6  1  0
  7  1  1  0
  7  6  1  0
  8  1  2  0
 10  9  1  0
 11 14  1  0
 11 13  1  0
 12  9  1  0
 12 20  1  0
 13 53  1  0
 13 12  1  0
 14 10  1  0
 15 19  1  0
 17 20  1  0
 17 15  2  0
 18 16  1  0
 19 16  2  0
 19 21  1  0
 20 18  2  0
 21 23  1  0
 22 21  2  0
 24 22  1  0
 25 26  2  0
 26 45  1  0
 27 26  1  0
 27 30  1  0
 28 25  1  0
 28 29  1  0
 29 27  2  0
 30 31  1  0
 31 32  2  0
 33 36  1  0
 33 32  1  0
 34 33  2  0
 35 34  1  0
 35 30  2  0
 36 37  1  0
 37 38  1  0
 38 39  2  0
 40 39  1  0
 40 44  1  0
 41 40  2  0
 42 37  2  0
 42 41  1  0
 43 42  1  0
 45 46  1  0
 46 49  1  0
 46 48  1  0
 47 45  2  0
 50 51  1  0
 50 25  1  0
 52 50  1  0
 53 54  1  0
 55 53  1  0
 56 58  1  0
 56 53  1  0
 58 57  1  6
 58 59  1  0
 60 58  1  0
 60 61  1  0
 62 61  1  0
 63 62  1  0
 64 63  1  0
 65 76  2  0
 66 64  1  0
 66 71  1  0
 67 75  1  0
 67 77  1  0
 68 74  1  0
 68 70  1  0
 69 75  1  0
 70 69  1  0
 71 70  2  0
 72 73  1  0
 72 66  2  0
 73 68  2  0
 74 67  1  0
 75 65  1  0
 77 79  2  0
 78 77  1  0
 80 78  1  0
 81 90  2  0
 81 86  1  0
 82 78  1  0
 82 86  1  0
 83 82  1  0
 84 85  1  0
 84 83  1  0
 85 81  1  0
 86 87  2  0
 87 88  1  0
 89 88  2  0
 90 89  1  0
 91 65  1  0
 91 92  1  0
 91101  1  0
 92 95  1  0
 93 97  1  0
 93 92  1  0
 94 93  2  0
 97 96  1  0
 99 97  1  0
 99100  1  0
 99 98  1  0
101104  1  1
101102  1  0
103101  1  0
M  ISO  4   1 100  14 100  63 101  64 101
M  END
>  <TORSDO>  (56) 
F 24

>  <SCORE>  (56) 
3.377

>  <name>  (56) 
56

>  <ligand_id>  (56) 
56

>  <original_smiles>  (56) 
[H]N=C(F)c1c([H])c([H])c(C2([H])C([H])([H])C([H])([H])N(C(=O)N3C([H])([H])C([H])([H])C([H])([H])C([H])(n4nc(-c5c([H])c([H])c(Oc6c([H])c([H])c(F)c([H])c6F)c([H])c5[H])c(C(=O)N([H])[H])c4N([H])[H])C3([H])[H])C([H])([H])C2([H])[N+]([H])([H])C([H])([H])C(F)(C([H])([H])[H])C([H])([H])C([H])([H])C([H])([H])C([H])([H])Oc2c([H])c([H])c3c(c2[H])C([H])([H])N(C(=O)C([H])(N([H])C(=O)C([H])(N([H])C([H])([H])[H])C([H])([H])[H])C(C([H])([H])[H])(C([H])([H])[H])C([H])([H])[H])C([H])(C(=O)N([H])C2([H])c4c([H])c([H])c([H])c([H])c4C([H])([H])C([H])([H])C2([H])[H])C3([H])[H])c([H])c1[H]

>  <smiles>  (56) 
[H]N=C(F)c1c([H])c([H])c(C2([H])C([H])([H])C([H])([H])N(C(=O)N3C([H])([H])C([H])([H])C([H])([H])C([H])(n4nc(-c5c([H])c([H])c(Oc6c([H])c([H])c(F)c([H])c6F)c([H])c5[H])c(C(=O)N([H])[H])c4N([H])[H])C3([H])[H])C([H])([H])C2([H])[N+]([H])([H])C([H])([H])C(F)(C([H])([H])[H])C([H])([H])C([H])([H])C([H])([H])C([H])([H])Oc2c([H])c([H])c3c(c2[H])C([H])([H])N(C(=O)C([H])(N([H])C(=O)C([H])(N([H])C([H])([H])[H])C([H])([H])[H])C(C([H])([H])[H])(C([H])([H])[H])C([H])([H])[H])C([H])(C(=O)N([H])C2([H])c4c([H])c([H])c([H])c([H])c4C([H])([H])C([H])([H])C2([H])[H])C3([H])[H])c([H])c1[H]

$$$$
57:0:0
     RDKit          3D

 92100  0  0  1  0  0  0  0  0999 V2000
  -29.4610  -20.1820   20.5780 C   0  0  0  0  0  0  0  0  0  0  0  0
  -28.6740  -21.3040   20.6200 N   0  0  0  0  0  0  0  0  0  0  0  0
  -30.6810  -20.2730   20.4380 O   0  0  0  0  0  0  0  0  0  0  0  0
  -27.6780  -21.1420   20.7090 H   0  0  0  0  0  0  0  0  0  0  0  0
  -30.6870  -14.6770   20.0830 C   0  0  0  0  0  0  0  0  0  0  0  0
  -30.3530  -12.4800   18.9790 C   0  0  0  0  0  2  0  0  0  0  0  0
  -29.3660  -12.6500   17.8080 C   0  0  0  0  0  2  0  0  0  0  0  0
  -27.9180  -12.4740   18.3060 C   0  0  0  0  0  2  0  0  0  0  0  0
  -27.6140  -13.3060   19.5830 C   0  0  0  0  0  3  0  0  0  0  0  0
  -28.7280  -13.1640   20.6420 C   0  0  0  0  0  2  0  0  0  0  0  0
  -29.9990  -13.4960   19.9900 N   0  0  0  0  0  0  0  0  0  0  0  0
  -31.8720  -14.7340   19.7390 O   0  0  0  0  0  0  0  0  0  0  0  0
  -29.5400  -17.8600   21.8890 C   0  0  0  0  0  2  0  0  0  0  0  0
  -28.5240  -17.8570   19.5810 C   0  0  0  0  0  2  0  0  0  0  0  0
  -30.5370  -16.7710   21.3720 C   0  0  0  0  0  2  0  0  0  0  0  0
  -28.8350  -18.7500   20.8200 C   0  0  0  0  0  3  0  0  0  0  0  0
  -29.5250  -16.6920   19.1960 C   0  0  0  0  0  3  0  0  0  0  0  0
  -29.9900  -15.8480   20.3440 N   0  0  0  0  0  0  0  0  0  0  0  0
  -25.2570  -13.8750   20.4140 C   0  0  0  0  0  0  0  0  0  0  0  0
  -24.2120  -13.0880   20.8170 C   0  0  0  0  0  0  0  0  0  0  0  0
  -24.6840  -11.7430   20.7530 C   0  0  0  0  0  0  0  0  0  0  0  0
  -26.2960  -13.0040   20.1280 N   0  0  0  0  0  0  0  0  0  0  0  0
  -25.9620  -11.7170   20.3930 N   0  0  0  0  0  0  0  0  0  0  0  0
  -23.9760  -10.4730   20.9610 C   0  0  0  0  0  0  0  0  0  0  0  0
  -24.4330   -9.5160   21.8950 C   0  0  0  0  0  3  0  0  0  0  0  0
  -23.7240   -8.3120   22.0890 C   0  0  0  0  0  3  0  0  0  0  0  0
  -22.5470   -8.0530   21.3490 C   0  0  0  0  0  0  0  0  0  0  0  0
  -22.1090   -8.9980   20.4040 C   0  0  0  0  0  3  0  0  0  0  0  0
  -22.8180  -10.1950   20.2080 C   0  0  0  0  0  3  0  0  0  0  0  0
  -21.8080   -6.9000   21.4540 O   0  0  0  0  0  0  0  0  0  0  0  0
  -21.7480   -6.1850   22.6240 C   0  0  0  0  0  0  0  0  0  0  0  0
  -21.2940   -6.7650   23.8280 C   0  0  0  0  0  3  0  0  0  0  0  0
  -21.1840   -5.9780   24.9910 C   0  0  0  0  0  3  0  0  0  0  0  0
  -21.5170   -4.6100   24.9500 C   0  0  0  0  0  0  0  0  0  0  0  0
  -21.9620   -4.0290   23.7500 C   0  0  0  0  0  3  0  0  0  0  0  0
  -22.0760   -4.8150   22.5900 C   0  0  0  0  0  0  0  0  0  0  0  0
  -22.4860   -4.2450   21.4310 F   0  0  0  0  0  0  0  0  0  0  0  0
  -21.4010   -3.8500   26.0640 F   0  0  0  0  0  0  0  0  0  0  0  0
  -22.8250  -13.5540   21.1490 C   0  0  0  0  0  0  0  0  0  0  0  0
  -22.1410  -12.8480   22.0440 N   0  0  0  0  0  0  0  0  0  0  0  0
  -22.3570  -14.5760   20.6530 O   0  0  0  0  0  0  0  0  0  0  0  0
  -22.5340  -12.0210   22.4690 H   0  0  0  0  0  0  0  0  0  0  0  0
  -21.2100  -13.1400   22.3060 H   0  0  0  0  0  0  0  0  0  0  0  0
  -25.4030  -15.2480   20.2480 N   0  0  0  0  0  0  0  0  0  0  0  0
  -24.6400  -15.8960   20.4100 H   0  0  0  0  0  0  0  0  0  0  0  0
  -26.2500  -15.7020   19.9340 H   0  0  0  0  0  0  0  0  0  0  0  0
  -30.7710  -18.2450   17.1810 C   0  0  0  0  0  1  0  0  0  0  0  0
  -30.7230  -17.1280   18.2670 C   0  0  0  0  0  2  0  0  0  0  0  0
  -29.1280  -22.7200   20.8540 C   0  0  0  0  0  2  0  0  0  0  0  0
  -28.2800  -23.9310   20.2570 C   0  0  0  0  0  2  0  0  0  0  0  0
  -28.5180  -25.3460   20.9450 C   0  0  0  0  0  2  0  0  0  0  0  0
  -28.4540  -26.5940   20.1760 O   0  0  0  0  0  0  0  0  0  0  0  0
  -24.6390  -31.8920   23.2370 C   0  0  0  0  0  0  0  0  0  0  0  0
  -27.3000  -27.3700   20.2210 C   0  0  0  0  0  0  0  0  0  0  0  0
  -23.4500  -30.4750   21.5980 C   0  0  0  0  0  3  0  0  0  0  0  0
  -24.9160  -28.9230   20.1920 C   0  0  0  0  0  0  0  0  0  0  0  0
  -25.9800  -30.8260   21.4110 C   0  0  0  0  0  2  0  0  0  0  0  0
  -26.0740  -29.4430   20.7820 C   0  0  0  0  0  0  0  0  0  0  0  0
  -27.2740  -28.6790   20.7810 C   0  0  0  0  0  3  0  0  0  0  0  0
  -26.1230  -26.8800   19.6260 C   0  0  0  0  0  3  0  0  0  0  0  0
  -24.9390  -27.6440   19.6070 C   0  0  0  0  0  3  0  0  0  0  0  0
  -23.6710  -29.7850   20.2250 C   0  0  0  0  0  2  0  0  0  0  0  0
  -24.7090  -31.0820   22.1390 N   0  0  0  0  0  0  0  0  0  0  0  0
  -23.5530  -32.1620   23.7700 O   0  0  0  0  0  0  0  0  0  0  0  0
  -22.7930  -29.4610   22.5650 C   0  0  0  0  0  0  0  0  0  0  0  0
  -21.4690  -29.2800   22.4400 N   0  0  0  0  0  0  0  0  0  0  0  0
  -23.4750  -28.8360   23.3820 O   0  0  0  0  0  0  0  0  0  0  0  0
  -20.9780  -29.8350   21.7520 H   0  0  0  0  0  0  0  0  0  0  0  0
  -18.0940  -28.0830   22.9430 C   0  0  0  0  0  0  0  0  0  0  0  0
  -20.6520  -28.3430   23.2120 C   0  0  0  0  0  3  0  0  0  0  0  0
  -20.7560  -26.9120   22.6360 C   0  0  0  0  0  2  0  0  0  0  0  0
  -19.6540  -26.5870   21.6240 C   0  0  0  0  0  2  0  0  0  0  0  0
  -18.2720  -26.7320   22.2690 C   0  0  0  0  0  2  0  0  0  0  0  0
  -19.2130  -28.8450   23.3720 C   0  0  0  0  0  0  0  0  0  0  0  0
  -18.9940  -30.1080   23.9630 C   0  0  0  0  0  3  0  0  0  0  0  0
  -17.6900  -30.6100   24.1280 C   0  0  0  0  0  3  0  0  0  0  0  0
  -16.5850  -29.8450   23.7160 C   0  0  0  0  0  3  0  0  0  0  0  0
  -16.7890  -28.5830   23.1290 C   0  0  0  0  0  3  0  0  0  0  0  0
  -25.9160  -32.5340   23.8590 C   0  0  0  0  0  3  0  0  0  0  0  0
  -26.4370  -31.7670   25.1370 C   0  0  1  0  0  0  0  0  0  0  0  0
  -25.3460  -31.5240   26.2050 C   0  0  0  0  0  1  0  0  0  0  0  0
  -27.0290  -30.3930   24.7440 C   0  0  0  0  0  1  0  0  0  0  0  0
  -27.5820  -32.5700   25.7980 C   0  0  0  0  0  1  0  0  0  0  0  0
  -25.5960  -33.9310   24.1900 N   0  0  0  0  0  0  0  0  0  0  0  0
  -25.9210  -34.9850   23.4300 C   0  0  0  0  0  0  0  0  0  0  0  0
  -26.5910  -34.8850   22.3980 O   0  0  0  0  0  0  0  0  0  0  0  0
  -24.9980  -34.0810   24.9890 H   0  0  0  0  0  0  0  0  0  0  0  0
  -24.1760  -36.7610   23.0800 C   0  0  0  0  0  1  0  0  0  0  0  0
  -25.4250  -36.3700   23.8870 C   0  0  0  0  0  3  0  0  0  0  0  0
  -27.5570  -37.2760   24.7020 C   0  0  0  0  0  1  0  0  0  0  0  0
  -26.4480  -37.4310   23.7640 N   0  0  0  0  0  0  0  0  0  0  0  0
  -26.0370  -38.3490   23.9100 H   0  0  0  0  0  0  0  0  0  0  0  0
  1  2  1  0
  2  4  1  0
  2 49  1  0
  3  1  2  0
  5 18  1  0
  6 11  1  0
  7  8  1  0
  7  6  1  0
  9  8  1  0
  9 22  1  0
  9 10  1  0
 11  5  1  0
 11 10  1  0
 12  5  2  0
 14 16  1  0
 15 13  1  0
 16  1  1  0
 16 13  1  0
 17 48  1  0
 17 14  1  0
 17 18  1  0
 18 15  1  0
 19 20  2  0
 20 39  1  0
 21 20  1  0
 21 24  1  0
 22 23  1  0
 22 19  1  0
 23 21  2  0
 24 25  1  0
 25 26  2  0
 27 30  1  0
 27 26  1  0
 28 27  2  0
 29 28  1  0
 29 24  2  0
 30 31  1  0
 31 32  1  0
 32 33  2  0
 34 33  1  0
 34 38  1  0
 35 34  2  0
 36 31  2  0
 36 35  1  0
 37 36  1  0
 39 40  1  0
 40 43  1  0
 40 42  1  0
 41 39  2  0
 44 45  1  0
 44 19  1  0
 46 44  1  0
 47 48  1  0
 50 49  1  0
 50 51  1  0
 52 54  1  0
 52 51  1  0
 53 64  2  0
 54 59  1  0
 55 63  1  0
 55 65  1  0
 56 62  1  0
 56 58  1  0
 57 63  1  0
 58 57  1  0
 59 58  2  0
 60 54  2  0
 61 60  1  0
 61 56  2  0
 62 55  1  0
 63 53  1  0
 65 67  2  0
 66 65  1  0
 68 66  1  0
 69 78  2  0
 69 74  1  0
 70 66  1  0
 70 74  1  0
 71 70  1  0
 72 73  1  0
 72 71  1  0
 73 69  1  0
 74 75  2  0
 75 76  1  0
 77 76  2  0
 78 77  1  0
 79 53  1  0
 79 84  1  0
 79 80  1  0
 80 83  1  1
 80 81  1  0
 82 80  1  0
 84 87  1  0
 85 89  1  0
 85 84  1  0
 86 85  2  0
 89 88  1  0
 91 89  1  0
 91 92  1  0
 91 90  1  0
M  ISO  4   5 100  18 100  51 101  52 101
M  END
>  <TORSDO>  (57) 
F 20

>  <SCORE>  (57) 
-13.231

>  <name>  (57) 
57

>  <ligand_id>  (57) 
57

>  <original_smiles>  (57) 
[H]c1c([H])c([H])c2c(c1[H])C([H])([H])C([H])([H])C([H])([H])C2([H])N([H])C(=O)C1([H])N(C(=O)C([H])(N([H])C(=O)C([H])(N([H])C([H])([H])[H])C([H])([H])[H])C(C([H])([H])[H])(C([H])([H])[H])C([H])([H])[H])C([H])([H])c2c([H])c(OC([H])([H])C([H])([H])C([H])([H])N([H])C(=O)C3([H])C([H])([H])C([H])([H])N(C(=O)N4C([H])([H])C([H])([H])C([H])([H])C([H])(n5nc(-c6c([H])c([H])c(Oc7c([H])c([H])c(F)c([H])c7F)c([H])c6[H])c(C(=O)N([H])[H])c5N([H])[H])C4([H])[H])C([H])(C([H])([H])C([H])([H])[H])C3([H])[H])c([H])c([H])c2C1([H])[H]

>  <smiles>  (57) 
[H]c1c([H])c([H])c2c(c1[H])C([H])([H])C([H])([H])C([H])([H])C2([H])N([H])C(=O)C1([H])N(C(=O)C([H])(N([H])C(=O)C([H])(N([H])C([H])([H])[H])C([H])([H])[H])C(C([H])([H])[H])(C([H])([H])[H])C([H])([H])[H])C([H])([H])c2c([H])c(OC([H])([H])C([H])([H])C([H])([H])N([H])C(=O)C3([H])C([H])([H])C([H])([H])N(C(=O)N4C([H])([H])C([H])([H])C([H])([H])C([H])(n5nc(-c6c([H])c([H])c(Oc7c([H])c([H])c(F)c([H])c7F)c([H])c6[H])c(C(=O)N([H])[H])c5N([H])[H])C4([H])[H])C([H])(C([H])([H])C([H])([H])[H])C3([H])[H])c([H])c([H])c2C1([H])[H]

$$$$
58:0:0
     RDKit          3D

 92 96  0  0  1  0  0  0  0  0999 V2000
  -20.3740  -28.6170   20.3260 C   0  0  0  0  0  3  0  0  0  0  0  0
  -21.2700  -27.9230   24.7190 C   0  0  0  0  0  1  0  0  0  0  0  0
  -21.4260  -26.9250   21.1070 C   0  0  0  0  0  3  0  0  0  0  0  0
  -23.1230  -26.5310   24.2460 C   0  0  0  0  0  1  0  0  0  0  0  0
  -24.0940  -25.5040   22.5110 C   0  0  0  0  0 15  0  0  0  0  0  0
  -24.2120  -27.2380   25.0620 C   0  0  0  0  0  1  0  0  0  0  0  0
  -20.2340  -28.0240   21.8760 N   0  0  2  0  0  4  0  0  0  0  0  0
  -20.5000  -28.9690   22.1150 H   0  0  0  0  0  0  0  0  0  0  0  0
  -26.6100  -23.5940   21.4790 C   0  0  0  0  0 15  0  0  0  0  0  0
  -30.6730  -20.6440   20.2340 C   0  0  0  0  0  2  0  0  0  0  0  0
  -33.0510  -18.6280   18.7890 C   0  0  0  0  0  2  0  0  0  0  0  0
  -33.3200  -17.3450   17.6990 C   0  0  0  0  0  2  0  0  0  0  0  0
  -32.6440  -16.0290   18.0500 C   0  0  0  0  0  2  0  0  0  0  0  0
  -31.5800  -16.6030   18.9610 C   0  0  0  0  0  3  0  0  0  0  0  0
  -31.9010  -17.6190   20.1560 C   0  0  0  0  0  2  0  0  0  0  0  0
  -31.5980  -19.1230   19.7180 N   0  0  0  0  0  0  0  0  0  0  0  0
  -31.9840  -20.9430   19.9470 O   0  0  0  0  0  1  0  0  0  0  0  0
  -28.7620  -21.7920   20.8360 N   0  0  0  0  0  1  0  0  0  0  0  0
  -28.2030  -20.9460   20.8630 H   0  0  0  0  0  0  0  0  0  0  0  0
  -29.3090  -16.3300   19.5960 C   0  0  0  0  0  0  0  0  0  0  0  0
  -28.5870  -15.3010   20.0550 C   0  0  0  0  0  0  0  0  0  0  0  0
  -29.4450  -14.1580   20.0290 C   0  0  0  0  0  0  0  0  0  0  0  0
  -30.5450  -15.7900   19.3740 N   0  0  0  0  0  0  0  0  0  0  0  0
  -30.6800  -14.4840   19.6680 N   0  0  0  0  0  0  0  0  0  0  0  0
  -29.1140  -12.7620   20.2550 C   0  0  0  0  0  0  0  0  0  0  0  0
  -29.9840  -11.8920   20.9400 C   0  0  0  0  0  3  0  0  0  0  0  0
  -29.5990  -10.5550   21.1760 C   0  0  0  0  0  3  0  0  0  0  0  0
  -28.3400  -10.0940   20.7260 C   0  0  0  0  0  0  0  0  0  0  0  0
  -27.4940  -10.9630   20.0170 C   0  0  0  0  0  3  0  0  0  0  0  0
  -27.8790  -12.2880   19.7770 C   0  0  0  0  0  3  0  0  0  0  0  0
  -27.8850   -8.8110   20.8940 O   0  0  0  0  0  0  0  0  0  0  0  0
  -28.4990   -7.9460   21.7580 C   0  0  0  0  0  0  0  0  0  0  0  0
  -28.8510   -8.3260   23.0720 C   0  0  0  0  0  3  0  0  0  0  0  0
  -29.4170   -7.3780   23.9480 C   0  0  0  0  0  3  0  0  0  0  0  0
  -29.6210   -6.0550   23.5150 C   0  0  0  0  0  0  0  0  0  0  0  0
  -29.2700   -5.6750   22.2080 C   0  0  0  0  0  3  0  0  0  0  0  0
  -28.7080   -6.6200   21.3320 C   0  0  0  0  0  0  0  0  0  0  0  0
  -28.3500   -6.2480   20.0800 F   0  0  0  0  0  0  0  0  0  0  0  0
  -30.1560   -5.1420   24.3600 F   0  0  0  0  0  0  0  0  0  0  0  0
  -27.1430  -15.4050   20.3860 C   0  0  0  0  0  0  0  0  0  0  0  0
  -26.6850  -14.6020   21.3320 N   0  0  0  0  0  0  0  0  0  0  0  0
  -26.4350  -16.2630   19.8570 O   0  0  0  0  0  0  0  0  0  0  0  0
  -27.2880  -13.9220   21.7740 H   0  0  0  0  0  0  0  0  0  0  0  0
  -25.7160  -14.6640   21.6110 H   0  0  0  0  0  0  0  0  0  0  0  0
  -29.0080  -17.6710   19.3470 N   0  0  0  0  0  0  0  0  0  0  0  0
  -28.0480  -17.9950   19.3360 H   0  0  0  0  0  0  0  0  0  0  0  0
  -29.6440  -18.2470   18.8080 H   0  0  0  0  0  0  0  0  0  0  0  0
  -21.4870  -28.3040   18.8550 C   0  0  0  0  0  3  0  0  0  0  0  0
  -22.7450  -27.2760   18.1690 C   0  0  0  0  0  0  0  0  0  0  0  0
  -22.3540  -26.7620   17.1180 O   0  0  0  0  0  0  0  0  0  0  0  0
  -24.3940  -26.6750   18.5160 C   0  0  0  0  0  2  0  0  0  0  0  0
  -25.7270  -27.1350   19.3900 O   0  0  0  0  0  0  0  0  0  0  0  0
  -24.5990  -31.9580   23.2570 C   0  0  0  0  0  0  0  0  0  0  0  0
  -26.6650  -28.0920   19.0720 C   0  0  0  0  0  3  0  0  0  0  0  0
  -23.3760  -30.7660   21.5450 C   0  0  0  0  0  3  0  0  0  0  0  0
  -24.7100  -29.9070   19.5390 C   0  0  0  0  0  3  0  0  0  0  0  0
  -25.8890  -31.1240   21.2930 C   0  0  0  0  0  2  0  0  0  0  0  0
  -25.8420  -29.9610   20.3340 C   0  0  0  0  0  0  0  0  0  0  0  0
  -26.8980  -29.0490   20.0980 C   0  0  0  0  0  3  0  0  0  0  0  0
  -26.0400  -28.6060   17.9800 C   0  0  0  0  0  2  0  0  0  0  0  0
  -24.8980  -29.3860   18.2570 C   0  0  0  0  0  2  0  0  0  0  0  0
  -23.5500  -30.7560   20.0020 C   0  0  0  0  0  2  0  0  0  0  0  0
  -24.6300  -31.3390   22.0620 N   0  0  0  0  0  0  0  0  0  0  0  0
  -23.5410  -32.1120   23.8870 O   0  0  0  0  0  0  0  0  0  0  0  0
  -23.2130  -29.4010   22.2740 C   0  0  0  0  0  0  0  0  0  0  0  0
  -22.2690  -28.5830   21.9570 N   0  0  0  0  0  0  0  0  0  0  0  0
  -23.9820  -28.9990   23.1330 O   0  0  0  0  0  0  0  0  0  0  0  0
  -21.6990  -28.8780   21.1830 H   0  0  0  0  0  0  0  0  0  0  0  0
  -19.1330  -25.7680   21.8900 C   0  0  0  0  0  2  0  0  0  0  0  0
  -22.2170  -27.1290   22.2850 C   0  0  2  0  0  0  0  0  0  0  0  0
  -22.6640  -26.1070   20.8900 C   0  0  0  0  0  2  0  0  0  0  0  0
  -21.2030  -24.7780   19.7770 C   0  0  0  0  0  1  0  0  0  0  0  0
  -19.5160  -24.6450   20.7420 C   0  0  0  0  0  2  0  0  0  0  0  0
  -20.8150  -27.0670   22.7650 C   0  0  1  0  0  0  0  0  0  0  0  0
  -20.1120  -28.5250   23.4800 C   0  0  2  0  0  0  0  0  0  0  0  0
  -18.5610  -28.8820   23.5070 C   0  0  0  0  0  3  0  0  0  0  0  0
  -17.4290  -28.0150   22.9080 C   0  0  0  0  0  3  0  0  0  0  0  0
  -17.6010  -26.6060   22.1420 C   0  0  0  0  0  2  0  0  0  0  0  0
  -25.9150  -32.4890   23.8590 C   0  0  0  0  0  3  0  0  0  0  0  0
  -25.6160  -33.8250   24.3740 N   0  0  0  0  0  0  0  0  0  0  0  0
  -25.8580  -34.9550   23.7000 C   0  0  0  0  0  0  0  0  0  0  0  0
  -26.4610  -34.9820   22.6220 O   0  0  0  0  0  0  0  0  0  0  0  0
  -25.0740  -33.8810   25.2270 H   0  0  0  0  0  0  0  0  0  0  0  0
  -24.1130  -36.7610   23.5970 C   0  0  0  0  0  1  0  0  0  0  0  0
  -25.3640  -36.2620   24.3370 C   0  0  0  0  0  3  0  0  0  0  0  0
  -27.5080  -37.0290   25.2520 C   0  0  0  0  0  1  0  0  0  0  0  0
  -26.3920  -37.3240   24.3560 N   0  0  0  0  0  0  0  0  0  0  0  0
  -25.9820  -38.2090   24.6380 H   0  0  0  0  0  0  0  0  0  0  0  0
  -26.4990  -31.5500   24.9820 C   0  0  1  0  0  0  0  0  0  0  0  0
  -25.4650  -31.1560   26.0590 C   0  0  0  0  0  1  0  0  0  0  0  0
  -27.0850  -30.2380   24.4030 C   0  0  0  0  0  1  0  0  0  0  0  0
  -27.6750  -32.2720   25.6730 C   0  0  0  0  0  1  0  0  0  0  0  0
  1  7  1  0
  3 71  1  0
  3 70  1  0
 74  3  1  1
  4  6  1  0
  7  8  1  1
  7 75  1  0
 11 16  1  0
 12 13  1  0
 12 11  1  0
 14 13  1  0
 14 23  1  0
 14 15  1  0
 16 15  1  0
 16 10  1  0
 17 10  1  0
 18 19  1  0
 20 21  2  0
 21 40  1  0
 22 21  1  0
 22 25  1  0
 23 20  1  0
 23 24  1  0
 24 22  2  0
 25 26  1  0
 26 27  2  0
 28 31  1  0
 28 27  1  0
 29 28  2  0
 30 29  1  0
 30 25  2  0
 31 32  1  0
 32 33  1  0
 33 34  2  0
 35 34  1  0
 35 39  1  0
 36 35  2  0
 37 32  2  0
 37 36  1  0
 38 37  1  0
 40 41  1  0
 41 44  1  0
 41 43  1  0
 42 40  2  0
 45 20  1  0
 46 45  1  0
 47 45  1  0
 48  1  2  0
 49 51  1  0
 49 48  1  0
 50 49  2  0
 51 52  1  0
 53 64  2  0
 54 60  1  0
 54 52  1  0
 54 59  1  0
 55 62  1  0
 55 63  1  0
 55 65  1  0
 56 61  1  0
 56 62  1  0
 56 58  1  0
 57 63  1  0
 58 57  1  0
 59 58  2  0
 60 61  1  0
 63 53  1  0
 65 67  2  0
 66 65  1  0
 66 70  1  0
 68 66  1  0
 69 78  1  0
 70 71  1  1
 70 74  1  0
 72 73  1  0
 73 69  1  0
 74  7  1  0
 74 75  1  0
 75 76  1  0
 75  2  1  6
 77 76  2  0
 78 77  1  0
 79 53  1  0
 79 80  1  0
 79 89  1  0
 80 83  1  0
 81 85  1  0
 81 80  1  0
 82 81  2  0
 85 84  1  0
 85 87  1  0
 87 88  1  0
 87 86  1  0
 89 92  1  1
 89 90  1  0
 91 89  1  0
M  ISO  4  10 100  18 100  51 101  52 101
M  END
>  <TORSDO>  (58) 
F 21

>  <SCORE>  (58) 
-7.599

>  <name>  (58) 
58

>  <ligand_id>  (58) 
58

>  <original_smiles>  (58) 
[H]c1c([H])c([H])c2c(c1[H])C([H])([H])C([H])([H])C([H])([H])C2([H])N([H])C(=O)C1([H])N(C(=O)C([H])(N([H])C(=O)C([H])(N([H])C([H])([H])[H])C([H])([H])[H])C(C([H])([H])[H])(C([H])([H])[H])C([H])([H])[H])C([H])([H])c2c([H])c(OC([H])([H])C(=O)C([H])([H])C([H])([H])[N+]3([H])C([H])([H])C([H])(C([H])([H])[H])C([H])(C([H])([H])N([H])C(=O)N4C([H])([H])C([H])([H])C([H])([H])C([H])(n5nc(-c6c([H])c([H])c(Oc7c([H])c([H])c(F)c([H])c7F)c([H])c6[H])c(C(=O)N([H])[H])c5N([H])[H])C4([H])[H])C3([H])[H])c([H])c([H])c2C1([H])[H]

>  <smiles>  (58) 
[H]c1c([H])c([H])c2c(c1[H])C([H])([H])C([H])([H])C([H])([H])C2([H])N([H])C(=O)C1([H])N(C(=O)C([H])(N([H])C(=O)C([H])(N([H])C([H])([H])[H])C([H])([H])[H])C(C([H])([H])[H])(C([H])([H])[H])C([H])([H])[H])C([H])([H])c2c([H])c(OC([H])([H])C(=O)C([H])([H])C([H])([H])[N+]3([H])C([H])([H])C([H])(C([H])([H])[H])C([H])(C([H])([H])N([H])C(=O)N4C([H])([H])C([H])([H])C([H])([H])C([H])(n5nc(-c6c([H])c([H])c(Oc7c([H])c([H])c(F)c([H])c7F)c([H])c6[H])c(C(=O)N([H])[H])c5N([H])[H])C4([H])[H])C3([H])[H])c([H])c([H])c2C1([H])[H]

$$$$
59:0:0
     RDKit          3D

 96104  0  0  1  0  0  0  0  0999 V2000
  -31.4520  -21.7530   23.5010 C   0  0  0  0  0  2  0  0  0  0  0  0
  -31.6130  -20.5540   22.6460 N   0  0  0  0  0  4  0  0  0  0  0  0
  -31.0970  -19.7940   23.0590 H   0  0  0  0  0  0  0  0  0  0  0  0
  -32.5860  -20.3000   22.6880 H   0  0  0  0  0  0  0  0  0  0  0  0
  -31.2340  -20.7360   21.2250 C   0  0  0  0  0  2  0  0  0  0  0  0
  -31.8630  -19.7020   20.2780 C   0  0  0  0  0  2  0  0  0  0  0  0
  -31.0230  -14.5830   20.1050 C   0  0  0  0  0  0  0  0  0  0  0  0
  -30.6220  -12.4710   18.9420 C   0  0  0  0  0  2  0  0  0  0  0  0
  -29.6670  -12.7800   17.7710 C   0  0  0  0  0  2  0  0  0  0  0  0
  -28.1950  -12.7000   18.2340 C   0  0  0  0  0  2  0  0  0  0  0  0
  -27.9190  -13.4830   19.5480 C   0  0  0  0  0  3  0  0  0  0  0  0
  -29.0000  -13.1790   20.6130 C   0  0  0  0  0  2  0  0  0  0  0  0
  -30.3180  -13.4300   20.0070 N   0  0  0  0  0  0  0  0  0  0  0  0
  -32.1780  -14.7170   19.6860 O   0  0  0  0  0  0  0  0  0  0  0  0
  -31.0890  -17.6240   19.0040 C   0  0  0  0  0  2  0  0  0  0  0  0
  -30.2320  -17.9200   21.3680 C   0  0  0  0  0  2  0  0  0  0  0  0
  -30.0390  -16.5040   19.0680 C   0  0  0  0  0  2  0  0  0  0  0  0
  -31.4010  -18.2250   20.3980 C   0  0  0  0  0  3  0  0  0  0  0  0
  -30.0370  -16.3910   21.5430 C   0  0  0  0  0  3  0  0  0  0  0  0
  -30.9190  -15.8690   22.7050 C   0  0  0  0  0  1  0  0  0  0  0  0
  -30.2420  -15.6720   20.2620 N   0  0  0  0  0  0  0  0  0  0  0  0
  -25.5320  -14.1150   20.2770 C   0  0  0  0  0  0  0  0  0  0  0  0
  -24.4650  -13.3520   20.6740 C   0  0  0  0  0  0  0  0  0  0  0  0
  -24.9180  -12.0000   20.6510 C   0  0  0  0  0  0  0  0  0  0  0  0
  -26.5710  -13.2250   20.0480 N   0  0  0  0  0  0  0  0  0  0  0  0
  -26.2040  -11.9490   20.3270 N   0  0  0  0  0  0  0  0  0  0  0  0
  -24.1880  -10.7450   20.8650 C   0  0  0  0  0  0  0  0  0  0  0  0
  -24.6120   -9.7990   21.8230 C   0  0  0  0  0  3  0  0  0  0  0  0
  -23.8820   -8.6070   22.0250 C   0  0  0  0  0  3  0  0  0  0  0  0
  -22.7170   -8.3530   21.2640 C   0  0  0  0  0  0  0  0  0  0  0  0
  -22.3110   -9.2870   20.2960 C   0  0  0  0  0  3  0  0  0  0  0  0
  -23.0410  -10.4710   20.0940 C   0  0  0  0  0  3  0  0  0  0  0  0
  -21.9610   -7.2100   21.3750 O   0  0  0  0  0  0  0  0  0  0  0  0
  -21.8740   -6.5140   22.5520 C   0  0  0  0  0  0  0  0  0  0  0  0
  -21.4270   -7.1220   23.7450 C   0  0  0  0  0  3  0  0  0  0  0  0
  -21.2870   -6.3530   24.9170 C   0  0  0  0  0  3  0  0  0  0  0  0
  -21.5830   -4.9770   24.8980 C   0  0  0  0  0  0  0  0  0  0  0  0
  -22.0270   -4.3690   23.7100 C   0  0  0  0  0  3  0  0  0  0  0  0
  -22.1690   -5.1350   22.5410 C   0  0  0  0  0  0  0  0  0  0  0  0
  -22.5760   -4.5400   21.3930 F   0  0  0  0  0  0  0  0  0  0  0  0
  -21.4400   -4.2360   26.0220 F   0  0  0  0  0  0  0  0  0  0  0  0
  -23.0760  -13.8450   20.9620 C   0  0  0  0  0  0  0  0  0  0  0  0
  -22.3680  -13.1820   21.8720 N   0  0  0  0  0  0  0  0  0  0  0  0
  -22.6290  -14.8520   20.4180 O   0  0  0  0  0  0  0  0  0  0  0  0
  -22.7460  -12.3750   22.3440 H   0  0  0  0  0  0  0  0  0  0  0  0
  -21.4360  -13.4950   22.1080 H   0  0  0  0  0  0  0  0  0  0  0  0
  -25.6910  -15.4820   20.0770 N   0  0  0  0  0  0  0  0  0  0  0  0
  -24.9050  -16.1180   20.1570 H   0  0  0  0  0  0  0  0  0  0  0  0
  -26.5250  -15.9230   19.7080 H   0  0  0  0  0  0  0  0  0  0  0  0
  -29.9700  -21.9940   23.8330 C   0  0  0  0  0  0  0  0  0  0  0  0
  -29.4910  -21.5690   24.8880 O   0  0  0  0  0  0  0  0  0  0  0  0
  -29.0810  -22.7260   22.8150 C   0  0  0  0  0  2  0  0  0  0  0  0
  -29.5070  -24.1860   22.5540 C   0  0  0  0  0  2  0  0  0  0  0  0
  -28.8750  -24.7970   21.2910 C   0  0  0  0  0  2  0  0  0  0  0  0
  -29.1980  -26.3010   21.1610 C   0  0  0  0  0  2  0  0  0  0  0  0
  -28.6820  -26.8190   19.9380 O   0  0  0  0  0  0  0  0  0  0  0  0
  -24.6360  -31.7430   23.1720 C   0  0  0  0  0  0  0  0  0  0  0  0
  -27.4910  -27.4960   20.0220 C   0  0  0  0  0  0  0  0  0  0  0  0
  -23.5010  -30.3330   21.4830 C   0  0  0  0  0  3  0  0  0  0  0  0
  -25.0320  -28.8830   20.0480 C   0  0  0  0  0  0  0  0  0  0  0  0
  -26.0100  -30.7970   21.3260 C   0  0  0  0  0  2  0  0  0  0  0  0
  -26.1590  -29.4430   20.6660 C   0  0  0  0  0  0  0  0  0  0  0  0
  -27.3900  -28.7520   20.6600 C   0  0  0  0  0  3  0  0  0  0  0  0
  -26.3540  -26.9460   19.3990 C   0  0  0  0  0  3  0  0  0  0  0  0
  -25.1220  -27.6290   19.4170 C   0  0  0  0  0  3  0  0  0  0  0  0
  -23.7540  -29.6880   20.0930 C   0  0  0  0  0  2  0  0  0  0  0  0
  -24.7310  -30.9730   22.0530 N   0  0  0  0  0  0  0  0  0  0  0  0
  -23.5410  -31.9570   23.7100 O   0  0  0  0  0  0  0  0  0  0  0  0
  -22.8850  -29.2640   22.4130 C   0  0  0  0  0  0  0  0  0  0  0  0
  -21.5700  -29.0380   22.2730 N   0  0  0  0  0  0  0  0  0  0  0  0
  -23.5890  -28.6410   23.2130 O   0  0  0  0  0  0  0  0  0  0  0  0
  -21.0650  -29.5990   21.6030 H   0  0  0  0  0  0  0  0  0  0  0  0
  -18.2360  -27.7210   22.7230 C   0  0  0  0  0  0  0  0  0  0  0  0
  -20.7820  -28.0490   23.0100 C   0  0  0  0  0  3  0  0  0  0  0  0
  -20.9310  -26.6400   22.3910 C   0  0  0  0  0  2  0  0  0  0  0  0
  -19.8430  -26.3160   21.3620 C   0  0  0  0  0  2  0  0  0  0  0  0
  -18.4560  -26.3970   22.0080 C   0  0  0  0  0  2  0  0  0  0  0  0
  -19.3290  -28.5040   23.1790 C   0  0  0  0  0  0  0  0  0  0  0  0
  -19.0700  -29.7420   23.8070 C   0  0  0  0  0  3  0  0  0  0  0  0
  -17.7520  -30.2000   23.9790 C   0  0  0  0  0  3  0  0  0  0  0  0
  -16.6720  -29.4140   23.5390 C   0  0  0  0  0  3  0  0  0  0  0  0
  -16.9160  -28.1750   22.9190 C   0  0  0  0  0  3  0  0  0  0  0  0
  -25.8920  -32.4080   23.8180 C   0  0  0  0  0  3  0  0  0  0  0  0
  -26.4180  -31.6400   25.0920 C   0  0  1  0  0  0  0  0  0  0  0  0
  -25.3180  -31.3510   26.1400 C   0  0  0  0  0  1  0  0  0  0  0  0
  -27.0520  -30.2890   24.6890 C   0  0  0  0  0  1  0  0  0  0  0  0
  -27.5290  -32.4650   25.7820 C   0  0  0  0  0  1  0  0  0  0  0  0
  -25.5320  -33.7920   24.1560 N   0  0  0  0  0  0  0  0  0  0  0  0
  -25.8410  -34.8620   23.4110 C   0  0  0  0  0  0  0  0  0  0  0  0
  -26.5310  -34.7900   22.3900 O   0  0  0  0  0  0  0  0  0  0  0  0
  -24.9190  -33.9160   24.9480 H   0  0  0  0  0  0  0  0  0  0  0  0
  -24.0580  -36.5960   23.0450 C   0  0  0  0  0  1  0  0  0  0  0  0
  -25.2990  -36.2280   23.8720 C   0  0  0  0  0  3  0  0  0  0  0  0
  -27.3860  -37.1770   24.7490 C   0  0  0  0  0  1  0  0  0  0  0  0
  -26.2960  -37.3160   23.7860 N   0  0  0  0  0  0  0  0  0  0  0  0
  -25.8570  -38.2200   23.9350 H   0  0  0  0  0  0  0  0  0  0  0  0
  1 50  1  0
  2  4  1  0
  2  3  1  0
  2  1  1  0
  5  2  1  0
  6  5  1  0
  7 21  1  0
  8 13  1  0
  9 10  1  0
  9  8  1  0
 11 10  1  0
 11 25  1  0
 11 12  1  0
 13  7  1  0
 13 12  1  0
 14  7  2  0
 15 17  1  0
 15 18  1  0
 16 19  1  0
 17 21  1  0
 18  6  1  0
 18 16  1  0
 19 20  1  0
 21 19  1  0
 22 23  2  0
 23 42  1  0
 24 23  1  0
 24 27  1  0
 25 22  1  0
 25 26  1  0
 26 24  2  0
 27 28  1  0
 28 29  2  0
 30 33  1  0
 30 29  1  0
 31 30  2  0
 32 31  1  0
 32 27  2  0
 33 34  1  0
 34 35  1  0
 35 36  2  0
 37 36  1  0
 37 41  1  0
 38 37  2  0
 39 34  2  0
 39 38  1  0
 40 39  1  0
 42 43  1  0
 43 46  1  0
 43 45  1  0
 44 42  2  0
 47 48  1  0
 47 22  1  0
 49 47  1  0
 50 51  2  0
 52 50  1  0
 53 52  1  0
 54 53  1  0
 55 54  1  0
 56 58  1  0
 56 55  1  0
 57 68  2  0
 58 63  1  0
 59 67  1  0
 59 69  1  0
 60 66  1  0
 60 62  1  0
 61 67  1  0
 62 61  1  0
 63 62  2  0
 64 65  1  0
 64 58  2  0
 65 60  2  0
 66 59  1  0
 67 57  1  0
 69 71  2  0
 70 69  1  0
 72 70  1  0
 73 82  2  0
 73 78  1  0
 74 70  1  0
 74 78  1  0
 75 74  1  0
 76 77  1  0
 76 75  1  0
 77 73  1  0
 78 79  2  0
 79 80  1  0
 81 80  2  0
 82 81  1  0
 83 57  1  0
 83 88  1  0
 83 84  1  0
 84 87  1  1
 84 85  1  0
 86 84  1  0
 88 91  1  0
 89 93  1  0
 89 88  1  0
 90 89  2  0
 93 92  1  0
 95 93  1  0
 95 96  1  0
 95 94  1  0
M  ISO  4   7 100  21 100  55 101  56 101
M  END
>  <TORSDO>  (59) 
F 24

>  <SCORE>  (59) 
-11.425

>  <name>  (59) 
59

>  <ligand_id>  (59) 
59

>  <original_smiles>  (59) 
[H]c1c([H])c([H])c2c(c1[H])C([H])([H])C([H])([H])C([H])([H])C2([H])N([H])C(=O)C1([H])N(C(=O)C([H])(N([H])C(=O)C([H])(N([H])C([H])([H])[H])C([H])([H])[H])C(C([H])([H])[H])(C([H])([H])[H])C([H])([H])[H])C([H])([H])c2c([H])c(OC([H])([H])C([H])([H])C([H])([H])C([H])([H])C(=O)C([H])([H])[N+]([H])([H])C([H])([H])C([H])([H])C3([H])C([H])([H])C([H])([H])N(C(=O)N4C([H])([H])C([H])([H])C([H])([H])C([H])(n5nc(-c6c([H])c([H])c(Oc7c([H])c([H])c(F)c([H])c7F)c([H])c6[H])c(C(=O)N([H])[H])c5N([H])[H])C4([H])[H])C([H])(C([H])([H])[H])C3([H])[H])c([H])c([H])c2C1([H])[H]

>  <smiles>  (59) 
[H]c1c([H])c([H])c2c(c1[H])C([H])([H])C([H])([H])C([H])([H])C2([H])N([H])C(=O)C1([H])N(C(=O)C([H])(N([H])C(=O)C([H])(N([H])C([H])([H])[H])C([H])([H])[H])C(C([H])([H])[H])(C([H])([H])[H])C([H])([H])[H])C([H])([H])c2c([H])c(OC([H])([H])C([H])([H])C([H])([H])C([H])([H])C(=O)C([H])([H])[N+]([H])([H])C([H])([H])C([H])([H])C3([H])C([H])([H])C([H])([H])N(C(=O)N4C([H])([H])C([H])([H])C([H])([H])C([H])(n5nc(-c6c([H])c([H])c(Oc7c([H])c([H])c(F)c([H])c7F)c([H])c6[H])c(C(=O)N([H])[H])c5N([H])[H])C4([H])[H])C([H])(C([H])([H])[H])C3([H])[H])c([H])c([H])c2C1([H])[H]

$$$$
60:0:0
     RDKit          3D

 91 99  0  0  1  0  0  0  0  0999 V2000
  -29.8590  -19.7540   19.8850 N   0  0  0  0  0  4  0  0  0  0  0  0
  -29.4090  -19.7750   18.9830 H   0  0  0  0  0  0  0  0  0  0  0  0
  -30.8410  -19.8980   19.7120 H   0  0  0  0  0  0  0  0  0  0  0  0
  -30.7520  -14.6480   19.4020 C   0  0  0  0  0  0  0  0  0  0  0  0
  -30.1860  -12.5510   18.1750 C   0  0  0  0  0  2  0  0  0  0  0  0
  -29.0470  -12.8180   17.1700 C   0  0  0  0  0  2  0  0  0  0  0  0
  -27.6770  -12.6390   17.8490 C   0  0  0  0  0  2  0  0  0  0  0  0
  -27.5870  -13.3820   19.2080 C   0  0  0  0  0  3  0  0  0  0  0  0
  -28.8260  -13.1210   20.0900 C   0  0  0  0  0  2  0  0  0  0  0  0
  -30.0180  -13.4860   19.3110 N   0  0  0  0  0  0  0  0  0  0  0  0
  -31.7620  -14.7940   18.7050 O   0  0  0  0  0  0  0  0  0  0  0  0
  -30.1000  -18.1740   21.8980 C   0  0  0  0  0  2  0  0  0  0  0  0
  -30.3470  -17.1450   19.5750 C   0  0  0  0  0  2  0  0  0  0  0  0
  -30.6280  -15.6990   21.5470 C   0  0  0  0  0  2  0  0  0  0  0  0
  -29.6740  -18.3290   20.4280 C   0  0  0  0  0  3  0  0  0  0  0  0
  -29.8660  -16.7360   22.3880 C   0  0  0  0  0  3  0  0  0  0  0  0
  -30.2590  -15.7240   20.1200 N   0  0  0  0  0  0  0  0  0  0  0  0
  -28.5630  -16.4500   22.3580 F   0  0  0  0  0  0  0  0  0  0  0  0
  -25.4130  -13.9430   20.4520 C   0  0  0  0  0  0  0  0  0  0  0  0
  -24.3960  -13.1580   20.9240 C   0  0  0  0  0  0  0  0  0  0  0  0
  -24.7720  -11.8090   20.6370 C   0  0  0  0  0  0  0  0  0  0  0  0
  -26.3450  -13.0730   19.9110 N   0  0  0  0  0  0  0  0  0  0  0  0
  -25.9770  -11.7760   20.0790 N   0  0  0  0  0  0  0  0  0  0  0  0
  -24.0290  -10.5540   20.8090 C   0  0  0  0  0  0  0  0  0  0  0  0
  -24.5560   -9.4800   21.5600 C   0  0  0  0  0  3  0  0  0  0  0  0
  -23.8130   -8.2910   21.7280 C   0  0  0  0  0  3  0  0  0  0  0  0
  -22.5290   -8.1690   21.1440 C   0  0  0  0  0  0  0  0  0  0  0  0
  -22.0200   -9.2320   20.3780 C   0  0  0  0  0  3  0  0  0  0  0  0
  -22.7630  -10.4120   20.2080 C   0  0  0  0  0  3  0  0  0  0  0  0
  -21.7460   -7.0420   21.2310 O   0  0  0  0  0  0  0  0  0  0  0  0
  -21.8040   -6.2080   22.3190 C   0  0  0  0  0  0  0  0  0  0  0  0
  -21.5630   -6.6740   23.6290 C   0  0  0  0  0  3  0  0  0  0  0  0
  -21.5650   -5.7690   24.7100 C   0  0  0  0  0  3  0  0  0  0  0  0
  -21.7970   -4.4000   24.4820 C   0  0  0  0  0  0  0  0  0  0  0  0
  -22.0320   -3.9330   23.1770 C   0  0  0  0  0  3  0  0  0  0  0  0
  -22.0320   -4.8350   22.0980 C   0  0  0  0  0  0  0  0  0  0  0  0
  -22.2380   -4.3760   20.8400 F   0  0  0  0  0  0  0  0  0  0  0  0
  -21.7910   -3.5290   25.5180 F   0  0  0  0  0  0  0  0  0  0  0  0
  -23.1050  -13.6350   21.5220 C   0  0  0  0  0  0  0  0  0  0  0  0
  -22.5330  -12.8620   22.4400 N   0  0  0  0  0  0  0  0  0  0  0  0
  -22.6200  -14.7220   21.2140 O   0  0  0  0  0  0  0  0  0  0  0  0
  -22.9420  -11.9790   22.7080 H   0  0  0  0  0  0  0  0  0  0  0  0
  -21.6740  -13.1580   22.8820 H   0  0  0  0  0  0  0  0  0  0  0  0
  -25.6150  -15.3190   20.4180 N   0  0  0  0  0  0  0  0  0  0  0  0
  -24.9420  -15.9800   20.7900 H   0  0  0  0  0  0  0  0  0  0  0  0
  -26.4540  -15.7630   20.0670 H   0  0  0  0  0  0  0  0  0  0  0  0
  -29.3720  -20.9730   20.6730 C   0  0  0  0  0  3  0  0  0  0  0  0
  -29.1070  -22.3370   19.8650 C   0  0  0  0  0  3  0  0  0  0  0  0
  -28.9270  -23.7370   20.6420 C   0  0  0  0  0  3  0  0  0  0  0  0
  -28.2180  -24.9440   19.8680 C   0  0  0  0  0  3  0  0  0  0  0  0
  -28.2840  -26.3500   20.3710 O   0  0  0  0  0  0  0  0  0  0  0  0
  -24.5290  -31.8360   23.2050 C   0  0  0  0  0  0  0  0  0  0  0  0
  -27.1830  -27.2250   20.2420 C   0  0  0  0  0  0  0  0  0  0  0  0
  -23.3650  -30.4460   21.5320 C   0  0  0  0  0  3  0  0  0  0  0  0
  -24.8430  -28.8840   20.1510 C   0  0  0  0  0  0  0  0  0  0  0  0
  -25.9140  -30.7310   21.4340 C   0  0  0  0  0  2  0  0  0  0  0  0
  -25.9970  -29.3500   20.7930 C   0  0  0  0  0  0  0  0  0  0  0  0
  -27.1660  -28.5290   20.8360 C   0  0  0  0  0  3  0  0  0  0  0  0
  -26.0140  -26.8370   19.5440 C   0  0  0  0  0  3  0  0  0  0  0  0
  -24.8560  -27.6340   19.5170 C   0  0  0  0  0  3  0  0  0  0  0  0
  -23.6160  -29.7710   20.1590 C   0  0  0  0  0  2  0  0  0  0  0  0
  -24.6200  -31.0220   22.1140 N   0  0  0  0  0  0  0  0  0  0  0  0
  -23.4320  -32.1270   23.7030 O   0  0  0  0  0  0  0  0  0  0  0  0
  -22.6630  -29.4360   22.4710 C   0  0  0  0  0  0  0  0  0  0  0  0
  -21.3440  -29.2520   22.2860 N   0  0  0  0  0  0  0  0  0  0  0  0
  -23.3050  -28.8220   23.3270 O   0  0  0  0  0  0  0  0  0  0  0  0
  -20.8860  -29.7990   21.5700 H   0  0  0  0  0  0  0  0  0  0  0  0
  -17.9540  -28.0380   22.6330 C   0  0  0  0  0  0  0  0  0  0  0  0
  -20.4930  -28.3230   23.0300 C   0  0  0  0  0  3  0  0  0  0  0  0
  -20.6350  -26.8810   22.4870 C   0  0  0  0  0  2  0  0  0  0  0  0
  -19.5890  -26.5320   21.4230 C   0  0  0  0  0  2  0  0  0  0  0  0
  -18.1740  -26.6790   21.9910 C   0  0  0  0  0  2  0  0  0  0  0  0
  -19.0440  -28.8170   23.1060 C   0  0  0  0  0  0  0  0  0  0  0  0
  -18.7850  -30.0880   23.6620 C   0  0  0  0  0  3  0  0  0  0  0  0
  -17.4700  -30.5830   23.7510 C   0  0  0  0  0  3  0  0  0  0  0  0
  -16.3940  -29.8020   23.2950 C   0  0  0  0  0  3  0  0  0  0  0  0
  -16.6370  -28.5310   22.7420 C   0  0  0  0  0  3  0  0  0  0  0  0
  -25.7980  -32.4580   23.8660 C   0  0  0  0  0  3  0  0  0  0  0  0
  -26.2780  -31.6740   25.1480 C   0  0  1  0  0  0  0  0  0  0  0  0
  -25.1540  -31.4190   26.1780 C   0  0  0  0  0  1  0  0  0  0  0  0
  -26.8810  -30.3040   24.7610 C   0  0  0  0  0  1  0  0  0  0  0  0
  -27.4050  -32.4650   25.8540 C   0  0  0  0  0  1  0  0  0  0  0  0
  -25.4850  -33.8550   24.2000 N   0  0  0  0  0  0  0  0  0  0  0  0
  -25.8260  -34.9120   23.4530 C   0  0  0  0  0  0  0  0  0  0  0  0
  -26.5090  -34.8160   22.4290 O   0  0  0  0  0  0  0  0  0  0  0  0
  -24.8800  -34.0030   24.9940 H   0  0  0  0  0  0  0  0  0  0  0  0
  -24.0980  -36.7050   23.0960 C   0  0  0  0  0  1  0  0  0  0  0  0
  -25.3350  -36.2990   23.9130 C   0  0  0  0  0  3  0  0  0  0  0  0
  -27.4640  -37.1790   24.7580 C   0  0  0  0  0  1  0  0  0  0  0  0
  -26.3660  -37.3530   23.8120 N   0  0  0  0  0  0  0  0  0  0  0  0
  -25.9580  -38.2720   23.9650 H   0  0  0  0  0  0  0  0  0  0  0  0
  1 47  1  0
  2  1  1  0
  3  1  1  0
  4 17  1  0
  5 10  1  0
  6  7  1  0
  6  5  1  0
  8  7  1  0
  8 22  1  0
  8  9  1  0
 10  4  1  0
 10  9  1  0
 11  4  2  0
 12 16  1  0
 13 17  1  0
 13 15  1  0
 14 16  1  0
 15  1  1  0
 15 12  1  0
 16 18  1  0
 17 14  1  0
 19 20  2  0
 20 39  1  0
 21 24  1  0
 21 20  1  0
 22 23  1  0
 22 19  1  0
 23 21  2  0
 24 25  1  0
 25 26  2  0
 27 30  1  0
 27 26  1  0
 28 27  2  0
 29 28  1  0
 29 24  2  0
 30 31  1  0
 31 32  1  0
 32 33  2  0
 34 33  1  0
 34 38  1  0
 35 34  2  0
 36 31  2  0
 36 35  1  0
 37 36  1  0
 39 40  1  0
 40 42  1  0
 40 43  1  0
 41 39  2  0
 44 19  1  0
 44 45  1  0
 46 44  1  0
 48 49  1  0
 48 47  2  0
 50 51  1  0
 50 49  2  0
 52 63  2  0
 53 51  1  0
 53 58  1  0
 54 62  1  0
 54 64  1  0
 55 61  1  0
 55 57  1  0
 56 62  1  0
 57 58  2  0
 57 56  1  0
 59 53  2  0
 60 59  1  0
 60 55  2  0
 61 54  1  0
 62 52  1  0
 64 66  2  0
 65 64  1  0
 67 65  1  0
 68 77  2  0
 68 73  1  0
 69 65  1  0
 69 73  1  0
 70 69  1  0
 71 72  1  0
 71 70  1  0
 72 68  1  0
 73 74  2  0
 74 75  1  0
 76 75  2  0
 77 76  1  0
 78 52  1  0
 78 83  1  0
 78 79  1  0
 79 82  1  1
 79 80  1  0
 81 79  1  0
 83 86  1  0
 84 88  1  0
 84 83  1  0
 85 84  2  0
 88 87  1  0
 90 88  1  0
 90 91  1  0
 90 89  1  0
M  ISO  4   4 100  17 100  50 101  51 101
M  END
>  <TORSDO>  (60) 
F 20

>  <SCORE>  (60) 
-9.577

>  <name>  (60) 
60

>  <ligand_id>  (60) 
60

>  <original_smiles>  (60) 
[H]c1c([H])c([H])c2c(c1[H])C([H])([H])C([H])([H])C([H])([H])C2([H])N([H])C(=O)C1([H])N(C(=O)C([H])(N([H])C(=O)C([H])(N([H])C([H])([H])[H])C([H])([H])[H])C(C([H])([H])[H])(C([H])([H])[H])C([H])([H])[H])C([H])([H])c2c([H])c(OC([H])([H])C([H])([H])C([H])([H])C([H])([H])[N+]([H])([H])C3([H])C([H])([H])N(C(=O)N4C([H])([H])C([H])([H])C([H])([H])C([H])(n5nc(-c6c([H])c([H])c(Oc7c([H])c([H])c(F)c([H])c7F)c([H])c6[H])c(C(=O)N([H])[H])c5N([H])[H])C4([H])[H])C([H])([H])C([H])(F)C3([H])[H])c([H])c([H])c2C1([H])[H]

>  <smiles>  (60) 
[H]c1c([H])c([H])c2c(c1[H])C([H])([H])C([H])([H])C([H])([H])C2([H])N([H])C(=O)C1([H])N(C(=O)C([H])(N([H])C(=O)C([H])(N([H])C([H])([H])[H])C([H])([H])[H])C(C([H])([H])[H])(C([H])([H])[H])C([H])([H])[H])C([H])([H])c2c([H])c(OC([H])([H])C([H])([H])C([H])([H])C([H])([H])[N+]([H])([H])C3([H])C([H])([H])N(C(=O)N4C([H])([H])C([H])([H])C([H])([H])C([H])(n5nc(-c6c([H])c([H])c(Oc7c([H])c([H])c(F)c([H])c7F)c([H])c6[H])c(C(=O)N([H])[H])c5N([H])[H])C4([H])[H])C([H])([H])C([H])(F)C3([H])[H])c([H])c([H])c2C1([H])[H]

$$$$
61:0:0
     RDKit          3D

 92100  0  0  1  0  0  0  0  0999 V2000
  -27.8890  -22.0760   20.4160 C   0  0  0  0  0  2  0  0  0  0  0  0
  -28.2750  -22.8230   19.1220 C   0  0  0  0  0  2  0  0  0  0  0  0
  -28.7780  -24.2220   19.5090 C   0  0  0  0  0  2  0  0  0  0  0  0
  -28.7820  -25.2690   18.3860 C   0  0  0  0  0  2  0  0  0  0  0  0
  -29.1470  -26.6610   18.9320 C   0  0  0  0  0  2  0  0  0  0  0  0
  -28.5400  -26.9300   20.1960 O   0  0  0  0  0  0  0  0  0  0  0  0
  -24.6100  -31.9550   23.2680 C   0  0  0  0  0  0  0  0  0  0  0  0
  -27.3340  -27.5810   20.1940 C   0  0  0  0  0  0  0  0  0  0  0  0
  -23.4210  -30.5360   21.6230 C   0  0  0  0  0  3  0  0  0  0  0  0
  -24.8990  -29.0060   20.2150 C   0  0  0  0  0  0  0  0  0  0  0  0
  -25.9390  -30.9330   21.4310 C   0  0  0  0  0  2  0  0  0  0  0  0
  -26.0420  -29.5610   20.8050 C   0  0  0  0  0  0  0  0  0  0  0  0
  -27.2570  -28.8470   20.8080 C   0  0  0  0  0  3  0  0  0  0  0  0
  -26.1700  -27.0160   19.6310 C   0  0  0  0  0  3  0  0  0  0  0  0
  -24.9520  -27.7260   19.6360 C   0  0  0  0  0  3  0  0  0  0  0  0
  -23.6430  -29.8470   20.2490 C   0  0  0  0  0  2  0  0  0  0  0  0
  -24.6740  -31.1580   22.1660 N   0  0  0  0  0  0  0  0  0  0  0  0
  -23.5260  -32.2220   23.8020 O   0  0  0  0  0  0  0  0  0  0  0  0
  -22.7790  -29.5160   22.5890 C   0  0  0  0  0  0  0  0  0  0  0  0
  -21.4570  -29.3230   22.4540 N   0  0  0  0  0  0  0  0  0  0  0  0
  -23.4650  -28.9020   23.4090 O   0  0  0  0  0  0  0  0  0  0  0  0
  -20.9630  -29.8900   21.7790 H   0  0  0  0  0  0  0  0  0  0  0  0
  -18.1000  -28.0620   22.8880 C   0  0  0  0  0  0  0  0  0  0  0  0
  -20.6460  -28.3680   23.2080 C   0  0  0  0  0  3  0  0  0  0  0  0
  -20.7900  -26.9400   22.6280 C   0  0  0  0  0  2  0  0  0  0  0  0
  -19.7080  -26.5920   21.6020 C   0  0  0  0  0  2  0  0  0  0  0  0
  -18.3130  -26.7170   22.2170 C   0  0  0  0  0  2  0  0  0  0  0  0
  -19.1950  -28.8470   23.3360 C   0  0  0  0  0  0  0  0  0  0  0  0
  -18.9410  -30.1130   23.9070 C   0  0  0  0  0  3  0  0  0  0  0  0
  -17.6240  -30.5980   24.0300 C   0  0  0  0  0  3  0  0  0  0  0  0
  -16.5440  -29.8080   23.6000 C   0  0  0  0  0  3  0  0  0  0  0  0
  -16.7830  -28.5420   23.0390 C   0  0  0  0  0  3  0  0  0  0  0  0
  -25.8910  -32.5960   23.8920 C   0  0  0  0  0  3  0  0  0  0  0  0
  -25.5830  -34.0000   24.1890 N   0  0  0  0  0  0  0  0  0  0  0  0
  -25.9310  -35.0340   23.4120 C   0  0  0  0  0  0  0  0  0  0  0  0
  -26.6170  -34.9090   22.3950 O   0  0  0  0  0  0  0  0  0  0  0  0
  -24.9790  -34.1750   24.9780 H   0  0  0  0  0  0  0  0  0  0  0  0
  -24.2080  -36.8180   22.9950 C   0  0  0  0  0  1  0  0  0  0  0  0
  -25.4390  -36.4330   23.8330 C   0  0  0  0  0  3  0  0  0  0  0  0
  -27.5630  -37.3340   24.6710 C   0  0  0  0  0  1  0  0  0  0  0  0
  -26.4740  -37.4830   23.7100 N   0  0  0  0  0  0  0  0  0  0  0  0
  -26.0660  -38.4060   23.8320 H   0  0  0  0  0  0  0  0  0  0  0  0
  -26.3970  -31.8480   25.1860 C   0  0  1  0  0  0  0  0  0  0  0  0
  -25.2930  -31.6210   26.2440 C   0  0  0  0  0  1  0  0  0  0  0  0
  -26.9940  -30.4690   24.8200 C   0  0  0  0  0  1  0  0  0  0  0  0
  -27.5370  -32.6570   25.8490 C   0  0  0  0  0  1  0  0  0  0  0  0
  -27.5140  -20.5990   20.2740 C   0  0  0  0  0  2  0  0  0  0  0  0
  -28.6510  -19.7950   19.7920 N   0  0  0  0  0  4  0  0  0  0  0  0
  -28.6510  -19.7950   18.7830 H   0  0  0  0  0  0  0  0  0  0  0  0
  -29.5070  -20.2300   20.0950 H   0  0  0  0  0  0  0  0  0  0  0  0
  -29.2360  -18.1950   21.6380 C   0  0  0  0  0  2  0  0  0  0  0  0
  -29.9670  -17.7460   20.3850 C   0  0  0  0  0  3  0  0  0  0  0  0
  -28.6140  -18.4040   20.2780 C   0  0  0  0  0  3  0  0  0  0  0  0
  -30.0430  -16.2900   20.0120 C   0  0  0  0  0  2  0  0  0  0  0  0
  -31.6540  -14.5120   19.8920 C   0  0  0  0  0  0  0  0  0  0  0  0
  -31.2150  -12.3010   18.9010 C   0  0  0  0  0  2  0  0  0  0  0  0
  -30.2470  -12.4060   17.7070 C   0  0  0  0  0  2  0  0  0  0  0  0
  -28.7820  -12.3450   18.1790 C   0  0  0  0  0  2  0  0  0  0  0  0
  -28.4960  -13.3310   19.3370 C   0  0  0  0  0  3  0  0  0  0  0  0
  -29.5640  -13.1930   20.4490 C   0  0  0  0  0  2  0  0  0  0  0  0
  -30.8930  -13.3860   19.8390 N   0  0  0  0  0  0  0  0  0  0  0  0
  -32.7460  -14.6330   19.3360 O   0  0  0  0  0  0  0  0  0  0  0  0
  -31.1530  -15.5380   20.5820 N   0  0  0  0  0  0  0  0  0  0  0  0
  -31.8720  -16.1390   20.9600 H   0  0  0  0  0  0  0  0  0  0  0  0
  -26.1660  -14.1280   20.0950 C   0  0  0  0  0  0  0  0  0  0  0  0
  -25.0550  -13.4430   20.5020 C   0  0  0  0  0  0  0  0  0  0  0  0
  -25.4190  -12.0600   20.4790 C   0  0  0  0  0  0  0  0  0  0  0  0
  -27.1400  -13.1700   19.8530 N   0  0  0  0  0  0  0  0  0  0  0  0
  -26.6920  -11.9230   20.1400 N   0  0  0  0  0  0  0  0  0  0  0  0
  -24.6120  -10.8560   20.7040 C   0  0  0  0  0  0  0  0  0  0  0  0
  -24.9550   -9.9180   21.7040 C   0  0  0  0  0  3  0  0  0  0  0  0
  -24.1570   -8.7720   21.9120 C   0  0  0  0  0  3  0  0  0  0  0  0
  -23.0050   -8.5570   21.1180 C   0  0  0  0  0  0  0  0  0  0  0  0
  -22.6840   -9.4810   20.1090 C   0  0  0  0  0  3  0  0  0  0  0  0
  -23.4800  -10.6190   19.9010 C   0  0  0  0  0  3  0  0  0  0  0  0
  -22.1850   -7.4600   21.2320 O   0  0  0  0  0  0  0  0  0  0  0  0
  -21.9860   -6.8350   22.4350 C   0  0  0  0  0  0  0  0  0  0  0  0
  -21.4790   -7.5230   23.5590 C   0  0  0  0  0  3  0  0  0  0  0  0
  -21.2250   -6.8250   24.7570 C   0  0  0  0  0  3  0  0  0  0  0  0
  -21.4670   -5.4400   24.8300 C   0  0  0  0  0  0  0  0  0  0  0  0
  -21.9660   -4.7520   23.7110 C   0  0  0  0  0  3  0  0  0  0  0  0
  -22.2230   -5.4470   22.5160 C   0  0  0  0  0  0  0  0  0  0  0  0
  -22.6840   -4.7760   21.4330 F   0  0  0  0  0  0  0  0  0  0  0  0
  -21.2150   -4.7650   25.9770 F   0  0  0  0  0  0  0  0  0  0  0  0
  -23.7020  -14.0200   20.8040 C   0  0  0  0  0  0  0  0  0  0  0  0
  -22.9610  -13.3970   21.7120 N   0  0  0  0  0  0  0  0  0  0  0  0
  -23.3160  -15.0590   20.2680 O   0  0  0  0  0  0  0  0  0  0  0  0
  -23.2900  -12.5530   22.1570 H   0  0  0  0  0  0  0  0  0  0  0  0
  -22.0540  -13.7640   21.9660 H   0  0  0  0  0  0  0  0  0  0  0  0
  -26.4250  -15.4820   19.8890 N   0  0  0  0  0  0  0  0  0  0  0  0
  -25.7010  -16.1850   19.9760 H   0  0  0  0  0  0  0  0  0  0  0  0
  -27.2620  -15.8220   19.4370 H   0  0  0  0  0  0  0  0  0  0  0  0
  2  3  1  0
  2  1  1  0
  4  5  1  0
  4  3  1  0
  5  6  1  0
  7 18  2  0
  8  6  1  0
  8 13  1  0
  9 17  1  0
  9 19  1  0
 10 16  1  0
 10 12  1  0
 11 17  1  0
 12 13  2  0
 12 11  1  0
 14 15  1  0
 14  8  2  0
 15 10  2  0
 16  9  1  0
 17  7  1  0
 19 21  2  0
 20 19  1  0
 22 20  1  0
 23 32  2  0
 23 28  1  0
 24 20  1  0
 24 28  1  0
 25 24  1  0
 26 27  1  0
 26 25  1  0
 27 23  1  0
 28 29  2  0
 29 30  1  0
 31 30  2  0
 32 31  1  0
 33  7  1  0
 33 34  1  0
 33 43  1  0
 34 37  1  0
 35 39  1  0
 35 34  1  0
 36 35  2  0
 39 38  1  0
 41 42  1  0
 41 39  1  0
 41 40  1  0
 43 46  1  1
 43 44  1  0
 45 43  1  0
 47  1  1  0
 48 50  1  0
 48 47  1  0
 49 48  1  0
 52 54  1  0
 52 51  1  0
 53 48  1  0
 53 52  1  0
 53 51  1  0
 54 63  1  0
 55 63  1  0
 56 61  1  0
 57 58  1  0
 57 56  1  0
 59 58  1  0
 59 68  1  0
 59 60  1  0
 61 55  1  0
 61 60  1  0
 62 55  2  0
 63 64  1  0
 65 66  2  0
 66 85  1  0
 67 66  1  0
 67 70  1  0
 68 65  1  0
 68 69  1  0
 69 67  2  0
 70 71  1  0
 71 72  2  0
 73 76  1  0
 73 72  1  0
 74 73  2  0
 75 74  1  0
 75 70  2  0
 76 77  1  0
 77 82  2  0
 77 78  1  0
 78 79  2  0
 79 80  1  0
 80 84  1  0
 81 80  2  0
 82 81  1  0
 83 82  1  0
 85 86  1  0
 86 89  1  0
 86 88  1  0
 87 85  2  0
 90 91  1  0
 90 65  1  0
 92 90  1  0
M  ISO  4   5 101   6 101  55 100  63 100
M  END
>  <TORSDO>  (61) 
F 24

>  <SCORE>  (61) 
-10.645

>  <name>  (61) 
61

>  <ligand_id>  (61) 
61

>  <original_smiles>  (61) 
[H]c1c([H])c([H])c2c(c1[H])C([H])([H])C([H])([H])C([H])([H])C2([H])N([H])C(=O)C1([H])N(C(=O)C([H])(N([H])C(=O)C([H])(N([H])C([H])([H])[H])C([H])([H])[H])C(C([H])([H])[H])(C([H])([H])[H])C([H])([H])[H])C([H])([H])c2c([H])c(OC([H])([H])C([H])([H])C([H])([H])C([H])([H])C([H])([H])C([H])([H])[N+]([H])([H])C3([H])C([H])([H])C3([H])C([H])([H])N([H])C(=O)N3C([H])([H])C([H])([H])C([H])([H])C([H])(n4nc(-c5c([H])c([H])c(Oc6c([H])c([H])c(F)c([H])c6F)c([H])c5[H])c(C(=O)N([H])[H])c4N([H])[H])C3([H])[H])c([H])c([H])c2C1([H])[H]

>  <smiles>  (61) 
[H]c1c([H])c([H])c2c(c1[H])C([H])([H])C([H])([H])C([H])([H])C2([H])N([H])C(=O)C1([H])N(C(=O)C([H])(N([H])C(=O)C([H])(N([H])C([H])([H])[H])C([H])([H])[H])C(C([H])([H])[H])(C([H])([H])[H])C([H])([H])[H])C([H])([H])c2c([H])c(OC([H])([H])C([H])([H])C([H])([H])C([H])([H])C([H])([H])C([H])([H])[N+]([H])([H])C3([H])C([H])([H])C3([H])C([H])([H])N([H])C(=O)N3C([H])([H])C([H])([H])C([H])([H])C([H])(n4nc(-c5c([H])c([H])c(Oc6c([H])c([H])c(F)c([H])c6F)c([H])c5[H])c(C(=O)N([H])[H])c4N([H])[H])C3([H])[H])c([H])c([H])c2C1([H])[H]

$$$$
62:0:0
     RDKit          3D

 92100  0  0  1  0  0  0  0  0999 V2000
  -27.5630  -21.3010   19.6020 C   0  0  0  0  0  3  0  0  0  0  0  0
  -26.4050  -23.0250   21.1530 C   0  0  0  0  0  1  0  0  0  0  0  0
  -27.6960  -22.6810   20.3850 C   0  0  0  0  0  3  0  0  0  0  0  0
  -28.1660  -23.9380   19.5210 C   0  0  0  0  0  3  0  0  0  0  0  0
  -28.6290  -25.2440   20.3040 C   0  0  0  0  0  3  0  0  0  0  0  0
  -28.8020  -26.5300   19.6110 O   0  0  0  0  0  0  0  0  0  0  0  0
  -24.6360  -31.3250   22.8830 C   0  0  0  0  0  0  0  0  0  0  0  0
  -27.6630  -27.3140   19.5600 C   0  0  0  0  0  0  0  0  0  0  0  0
  -23.5830  -29.9540   21.1170 C   0  0  0  0  0  3  0  0  0  0  0  0
  -25.1860  -28.6830   19.5930 C   0  0  0  0  0  0  0  0  0  0  0  0
  -26.0780  -30.5370   21.0060 C   0  0  0  0  0  2  0  0  0  0  0  0
  -26.2920  -29.2350   20.2550 C   0  0  0  0  0  0  0  0  0  0  0  0
  -27.5390  -28.5580   20.2370 C   0  0  0  0  0  3  0  0  0  0  0  0
  -26.5560  -26.8170   18.8500 C   0  0  0  0  0  3  0  0  0  0  0  0
  -25.3220  -27.4820   18.8770 C   0  0  0  0  0  3  0  0  0  0  0  0
  -23.8710  -29.4230   19.6910 C   0  0  0  0  0  2  0  0  0  0  0  0
  -24.7820  -30.6200   21.7250 N   0  0  0  0  0  0  0  0  0  0  0  0
  -23.5280  -31.4500   23.4220 O   0  0  0  0  0  0  0  0  0  0  0  0
  -23.0230  -28.7980   21.9800 C   0  0  0  0  0  0  0  0  0  0  0  0
  -21.7210  -28.5030   21.8180 N   0  0  0  0  0  0  0  0  0  0  0  0
  -23.7550  -28.1720   22.7500 O   0  0  0  0  0  0  0  0  0  0  0  0
  -21.1890  -29.0690   21.1730 H   0  0  0  0  0  0  0  0  0  0  0  0
  -18.4580  -27.0010   22.2080 C   0  0  0  0  0  0  0  0  0  0  0  0
  -20.9880  -27.4360   22.5010 C   0  0  0  0  0  3  0  0  0  0  0  0
  -21.2020  -26.0770   21.7960 C   0  0  0  0  0  2  0  0  0  0  0  0
  -20.1250  -25.7600   20.7570 C   0  0  0  0  0  2  0  0  0  0  0  0
  -18.7390  -25.7370   21.4120 C   0  0  0  0  0  2  0  0  0  0  0  0
  -19.5160  -27.8070   22.7060 C   0  0  0  0  0  0  0  0  0  0  0  0
  -19.2020  -28.9880   23.4120 C   0  0  0  0  0  3  0  0  0  0  0  0
  -17.8630  -29.3650   23.6270 C   0  0  0  0  0  3  0  0  0  0  0  0
  -16.8210  -28.5540   23.1490 C   0  0  0  0  0  3  0  0  0  0  0  0
  -17.1160  -27.3740   22.4440 C   0  0  0  0  0  3  0  0  0  0  0  0
  -25.8500  -32.0250   23.5740 C   0  0  0  0  0  3  0  0  0  0  0  0
  -26.4100  -31.2210   24.8120 C   0  0  1  0  0  0  0  0  0  0  0  0
  -25.3200  -30.8050   25.8270 C   0  0  0  0  0  1  0  0  0  0  0  0
  -27.1370  -29.9370   24.3490 C   0  0  0  0  0  1  0  0  0  0  0  0
  -27.4640  -32.0730   25.5570 C   0  0  0  0  0  1  0  0  0  0  0  0
  -25.4100  -33.3670   23.9830 N   0  0  0  0  0  0  0  0  0  0  0  0
  -25.6740  -34.4920   23.3090 C   0  0  0  0  0  0  0  0  0  0  0  0
  -26.3790  -34.5170   22.2960 O   0  0  0  0  0  0  0  0  0  0  0  0
  -24.7820  -33.4160   24.7720 H   0  0  0  0  0  0  0  0  0  0  0  0
  -23.8190  -36.1640   22.9990 C   0  0  0  0  0  1  0  0  0  0  0  0
  -25.0540  -35.8000   23.8390 C   0  0  0  0  0  3  0  0  0  0  0  0
  -27.0660  -36.7890   24.8410 C   0  0  0  0  0  1  0  0  0  0  0  0
  -26.0020  -36.9370   23.8520 N   0  0  0  0  0  0  0  0  0  0  0  0
  -25.5170  -37.8100   24.0370 H   0  0  0  0  0  0  0  0  0  0  0  0
  -27.0710  -19.9950   20.3740 C   0  0  0  0  0  3  0  0  0  0  0  0
  -27.0840  -18.7040   19.5900 N   0  0  0  0  0  4  0  0  0  0  0  0
  -26.8880  -18.9100   18.6240 H   0  0  0  0  0  0  0  0  0  0  0  0
  -28.0310  -18.3620   19.6240 H   0  0  0  0  0  0  0  0  0  0  0  0
  -26.1610  -17.5810   20.0220 C   0  0  0  0  0  2  0  0  0  0  0  0
  -26.8530  -16.1580   20.0550 C   0  0  0  0  0  3  0  0  0  0  0  0
  -26.5780  -15.0520   21.2150 C   0  0  0  0  0  3  0  0  0  0  0  0
  -27.1170  -13.4620   21.0410 C   0  0  0  0  0  3  0  0  0  0  0  0
  -30.2290  -13.9350   20.5450 C   0  0  0  0  0  0  0  0  0  0  0  0
  -31.7090  -11.8190   20.3820 C   0  0  0  0  0  2  0  0  0  0  0  0
  -31.1660  -10.8240   19.2620 C   0  0  0  0  0  2  0  0  0  0  0  0
  -29.6550  -10.4470   19.2780 C   0  0  0  0  0  2  0  0  0  0  0  0
  -29.0350  -11.7040   19.6890 C   0  0  0  0  0  3  0  0  0  0  0  0
  -29.6090  -11.8880   21.1640 C   0  0  0  0  0  2  0  0  0  0  0  0
  -30.6570  -12.7150   20.9020 N   0  0  0  0  0  0  0  0  0  0  0  0
  -31.1730  -14.6080   20.0230 O   0  0  0  0  0  0  0  0  0  0  0  0
  -28.7330  -14.1650   20.7670 N   0  0  0  0  0  0  0  0  0  0  0  0
  -28.5880  -15.1410   20.5690 H   0  0  0  0  0  0  0  0  0  0  0  0
  -26.3010  -13.0060   19.6080 C   0  0  2  0  0  0  0  0  0  0  0  0
  -25.0350  -12.4710   20.6530 C   0  0  0  0  0  3  0  0  0  0  0  0
  -25.5170  -10.9630   21.4900 C   0  0  0  0  0  3  0  0  0  0  0  0
  -27.7140  -11.7410   19.7900 N   0  0  0  0  0  0  0  0  0  0  0  0
  -27.1070  -10.5290   21.0350 N   0  0  0  0  0  2  0  0  0  0  0  0
  -24.6960   -9.6900   21.5290 C   0  0  0  0  0  0  0  0  0  0  0  0
  -24.6320   -9.0060   22.7490 C   0  0  0  0  0  3  0  0  0  0  0  0
  -23.8550   -7.8390   22.9110 C   0  0  0  0  0  3  0  0  0  0  0  0
  -23.1220   -7.2960   21.8360 C   0  0  0  0  0  0  0  0  0  0  0  0
  -23.2760   -7.8860   20.5650 C   0  0  0  0  0  3  0  0  0  0  0  0
  -24.0690   -9.0570   20.4040 C   0  0  0  0  0  3  0  0  0  0  0  0
  -22.2980   -6.1950   21.9830 O   0  0  0  0  0  0  0  0  0  0  0  0
  -21.4590   -6.0760   23.0730 C   0  0  0  0  0  0  0  0  0  0  0  0
  -20.4970   -7.0600   23.3860 C   0  0  0  0  0  3  0  0  0  0  0  0
  -19.6310   -6.8910   24.4860 C   0  0  0  0  0  3  0  0  0  0  0  0
  -19.7120   -5.7260   25.2760 C   0  0  0  0  0  0  0  0  0  0  0  0
  -20.6630   -4.7370   24.9640 C   0  0  0  0  0  3  0  0  0  0  0  0
  -21.5300   -4.9090   23.8690 C   0  0  0  0  0  0  0  0  0  0  0  0
  -22.4280   -3.9390   23.5720 F   0  0  0  0  0  0  0  0  0  0  0  0
  -18.8800   -5.5580   26.3290 F   0  0  0  0  0  0  0  0  0  0  0  0
  -23.5960  -12.7010   20.3160 C   0  0  0  0  0  0  0  0  0  0  0  0
  -22.6830  -12.1500   21.1070 N   0  0  0  0  0  0  0  0  0  0  0  0
  -23.2780  -13.3600   19.3320 O   0  0  0  0  0  0  0  0  0  0  0  0
  -22.9400  -11.6010   21.9120 H   0  0  0  0  0  0  0  0  0  0  0  0
  -21.7010  -12.2890   20.9070 H   0  0  0  0  0  0  0  0  0  0  0  0
  -26.4210  -14.1570   18.8930 N   0  0  0  0  0  0  0  0  0  0  0  0
  -25.5530  -14.5990   18.6120 H   0  0  0  0  0  0  0  0  0  0  0  0
  -27.1330  -14.2070   18.1740 H   0  0  0  0  0  0  0  0  0  0  0  0
  1 47  2  0
  1  3  1  0
  3  2  1  0
  4  5  2  0
  4  3  1  0
  6  5  1  0
  7 18  2  0
  8  6  1  0
  8 13  1  0
  9 17  1  0
  9 19  1  0
 10 16  1  0
 10 12  1  0
 11 17  1  0
 12 11  1  0
 13 12  2  0
 14 15  1  0
 14  8  2  0
 15 10  2  0
 16  9  1  0
 17  7  1  0
 19 21  2  0
 20 19  1  0
 22 20  1  0
 23 32  2  0
 23 28  1  0
 24 20  1  0
 24 28  1  0
 25 24  1  0
 26 27  1  0
 26 25  1  0
 27 23  1  0
 28 29  2  0
 29 30  1  0
 31 30  2  0
 32 31  1  0
 33  7  1  0
 33 38  1  0
 33 34  1  0
 34 37  1  1
 34 35  1  0
 36 34  1  0
 38 41  1  0
 39 43  1  0
 39 38  1  0
 40 39  2  0
 43 42  1  0
 43 45  1  0
 45 46  1  0
 45 44  1  0
 48 50  1  0
 48 51  1  0
 48 47  1  0
 49 48  1  0
 51 52  1  0
 52 53  2  0
 54 53  1  0
 55 63  1  0
 55 61  1  0
 56 61  1  0
 57 58  1  0
 57 56  1  0
 59 58  1  0
 59 68  1  0
 59 60  1  0
 61 60  1  0
 62 55  2  0
 63 54  1  0
 64 63  1  0
 65 90  1  1
 65 68  1  0
 65 66  1  0
 65 54  1  0
 66 85  1  0
 66 67  1  0
 67 70  1  0
 68 69  1  0
 69 67  1  0
 70 71  1  0
 71 72  2  0
 73 76  1  0
 73 72  1  0
 74 73  2  0
 75 74  1  0
 75 70  2  0
 76 77  1  0
 77 78  2  0
 77 82  1  0
 78 79  1  0
 79 80  2  0
 80 84  1  0
 81 80  1  0
 82 81  2  0
 83 82  1  0
 85 86  1  0
 86 88  1  0
 87 85  2  0
 89 86  1  0
 91 90  1  0
 92 90  1  0
M  ISO  4   5 101   6 101  55 100  63 100
M  END
>  <TORSDO>  (62) 
F 25

>  <SCORE>  (62) 
-7.238

>  <name>  (62) 
62

>  <ligand_id>  (62) 
62

>  <original_smiles>  (62) 
[H]c1c([H])c([H])c2c(c1[H])C([H])([H])C([H])([H])C([H])([H])C2([H])N([H])C(=O)C1([H])N(C(=O)C([H])(N([H])C(=O)C([H])(N([H])C([H])([H])[H])C([H])([H])[H])C(C([H])([H])[H])(C([H])([H])[H])C([H])([H])[H])C([H])([H])c2c([H])c(OC([H])([H])C([H])([H])C([H])(C([H])([H])[H])C([H])([H])C([H])([H])[N+]([H])([H])C([H])([H])C([H])([H])C([H])([H])C([H])([H])N([H])C(=O)N3C([H])([H])C([H])([H])C([H])([H])C([H])(n4nc(-c5c([H])c([H])c(Oc6c([H])c([H])c(F)c([H])c6F)c([H])c5[H])c(C(=O)N([H])[H])c4N([H])[H])C3([H])[H])c([H])c([H])c2C1([H])[H]

>  <smiles>  (62) 
[H]c1c([H])c([H])c2c(c1[H])C([H])([H])C([H])([H])C([H])([H])C2([H])N([H])C(=O)C1([H])N(C(=O)C([H])(N([H])C(=O)C([H])(N([H])C([H])([H])[H])C([H])([H])[H])C(C([H])([H])[H])(C([H])([H])[H])C([H])([H])[H])C([H])([H])c2c([H])c(OC([H])([H])C([H])([H])C([H])(C([H])([H])[H])C([H])([H])C([H])([H])[N+]([H])([H])C([H])([H])C([H])([H])C([H])([H])C([H])([H])N([H])C(=O)N3C([H])([H])C([H])([H])C([H])([H])C([H])(n4nc(-c5c([H])c([H])c(Oc6c([H])c([H])c(F)c([H])c6F)c([H])c5[H])c(C(=O)N([H])[H])c4N([H])[H])C3([H])[H])c([H])c([H])c2C1([H])[H]

$$$$
63:0:0
     RDKit          3D

 93101  0  0  1  0  0  0  0  0999 V2000
  -27.7010  -19.7480   20.8740 C   0  0  0  0  0  2  0  0  0  0  0  0
  -30.7820  -14.5390   20.0270 C   0  0  0  0  0  0  0  0  0  0  0  0
  -30.3980  -12.3680   18.9500 C   0  0  0  0  0  2  0  0  0  0  0  0
  -29.3990  -12.5600   17.7900 C   0  0  0  0  0  2  0  0  0  0  0  0
  -27.9490  -12.4250   18.2990 C   0  0  0  0  0  2  0  0  0  0  0  0
  -27.6730  -13.2700   19.5700 C   0  0  0  0  0  3  0  0  0  0  0  0
  -28.7930  -13.1010   20.6250 C   0  0  0  0  0  2  0  0  0  0  0  0
  -30.0810  -13.3760   19.9680 N   0  0  0  0  0  0  0  0  0  0  0  0
  -31.9540  -14.6290   19.6470 O   0  0  0  0  0  0  0  0  0  0  0  0
  -29.0540  -17.7670   20.5910 C   0  0  0  0  0  0  0  0  0  0  0  0
  -29.7970  -16.5460   21.1350 C   0  0  0  0  0  2  0  0  0  0  0  0
  -30.0850  -16.5490   18.8270 C   0  0  0  0  0  2  0  0  0  0  0  0
  -28.9740  -17.5760   19.0810 C   0  0  0  0  0  3  0  0  0  0  0  0
  -28.5860  -18.6910   21.3480 N   0  0  0  0  0  0  0  0  0  0  0  0
  -30.0190  -15.6550   19.9880 N   0  0  0  0  0  0  0  0  0  0  0  0
  -25.3120  -13.8680   20.3980 C   0  0  0  0  0  0  0  0  0  0  0  0
  -24.2640  -13.0950   20.8100 C   0  0  0  0  0  0  0  0  0  0  0  0
  -24.7260  -11.7420   20.7580 C   0  0  0  0  0  0  0  0  0  0  0  0
  -26.3470  -12.9920   20.1180 N   0  0  0  0  0  0  0  0  0  0  0  0
  -26.0010  -11.7070   20.3980 N   0  0  0  0  0  0  0  0  0  0  0  0
  -24.0120  -10.4780   20.9810 C   0  0  0  0  0  0  0  0  0  0  0  0
  -24.4700   -9.5240   21.9140 C   0  0  0  0  0  3  0  0  0  0  0  0
  -23.7550   -8.3250   22.1260 C   0  0  0  0  0  3  0  0  0  0  0  0
  -22.5650   -8.0710   21.4000 C   0  0  0  0  0  0  0  0  0  0  0  0
  -22.1240   -9.0160   20.4550 C   0  0  0  0  0  3  0  0  0  0  0  0
  -22.8420  -10.2060   20.2440 C   0  0  0  0  0  3  0  0  0  0  0  0
  -21.8220   -6.9200   21.5170 O   0  0  0  0  0  0  0  0  0  0  0  0
  -21.7860   -6.2030   22.6850 C   0  0  0  0  0  0  0  0  0  0  0  0
  -21.3680   -6.7830   23.9020 C   0  0  0  0  0  3  0  0  0  0  0  0
  -21.2760   -5.9940   25.0650 C   0  0  0  0  0  3  0  0  0  0  0  0
  -21.5960   -4.6220   25.0120 C   0  0  0  0  0  0  0  0  0  0  0  0
  -22.0060   -4.0410   23.7990 C   0  0  0  0  0  3  0  0  0  0  0  0
  -22.0970   -4.8290   22.6390 C   0  0  0  0  0  0  0  0  0  0  0  0
  -22.4740   -4.2590   21.4690 F   0  0  0  0  0  0  0  0  0  0  0  0
  -21.5010   -3.8600   26.1270 F   0  0  0  0  0  0  0  0  0  0  0  0
  -22.8790  -13.5680   21.1450 C   0  0  0  0  0  0  0  0  0  0  0  0
  -22.1970  -12.8680   22.0430 N   0  0  0  0  0  0  0  0  0  0  0  0
  -22.4150  -14.5940   20.6490 O   0  0  0  0  0  0  0  0  0  0  0  0
  -22.5910  -12.0370   22.4640 H   0  0  0  0  0  0  0  0  0  0  0  0
  -21.2730  -13.1670   22.3210 H   0  0  0  0  0  0  0  0  0  0  0  0
  -25.4700  -15.2390   20.2150 N   0  0  0  0  0  0  0  0  0  0  0  0
  -24.7190  -15.9010   20.3740 H   0  0  0  0  0  0  0  0  0  0  0  0
  -26.3220  -15.6750   19.8960 H   0  0  0  0  0  0  0  0  0  0  0  0
  -29.0900  -18.7820   18.2310 N   0  0  0  0  0  4  0  0  0  0  0  0
  -29.9360  -19.2960   18.4100 H   0  0  0  0  0  0  0  0  0  0  0  0
  -28.3010  -19.3890   18.3780 H   0  0  0  0  0  0  0  0  0  0  0  0
  -29.0770  -18.5140   17.2630 H   0  0  0  0  0  0  0  0  0  0  0  0
  -28.4530  -21.0710   20.5740 C   0  0  0  0  0  2  0  0  0  0  0  0
  -27.9720  -22.2930   21.3900 C   0  0  0  0  0  2  0  0  0  0  0  0
  -28.6450  -23.6140   20.9420 C   0  0  0  0  0  2  0  0  0  0  0  0
  -28.2890  -24.8600   21.7950 C   0  0  0  0  0  2  0  0  0  0  0  0
  -29.0120  -26.1730   21.3720 C   0  0  0  0  0  2  0  0  0  0  0  0
  -28.5420  -26.7220   20.1360 O   0  0  0  0  0  0  0  0  0  0  0  0
  -24.7520  -31.8590   23.3660 C   0  0  0  0  0  0  0  0  0  0  0  0
  -27.3990  -27.4870   20.2040 C   0  0  0  0  0  0  0  0  0  0  0  0
  -23.5560  -30.5100   21.6780 C   0  0  0  0  0  3  0  0  0  0  0  0
  -25.0130  -28.9970   20.2270 C   0  0  0  0  0  0  0  0  0  0  0  0
  -26.0840  -30.8620   21.5120 C   0  0  0  0  0  2  0  0  0  0  0  0
  -26.1680  -29.5060   20.8380 C   0  0  0  0  0  0  0  0  0  0  0  0
  -27.3680  -28.7590   20.8200 C   0  0  0  0  0  3  0  0  0  0  0  0
  -26.2290  -26.9890   19.5970 C   0  0  0  0  0  3  0  0  0  0  0  0
  -25.0370  -27.7360   19.6080 C   0  0  0  0  0  3  0  0  0  0  0  0
  -23.7710  -29.8580   20.2840 C   0  0  0  0  0  2  0  0  0  0  0  0
  -24.8150  -31.0890   22.2430 N   0  0  0  0  0  0  0  0  0  0  0  0
  -23.6650  -32.1240   23.8980 O   0  0  0  0  0  0  0  0  0  0  0  0
  -22.8870  -29.4690   22.6050 C   0  0  0  0  0  0  0  0  0  0  0  0
  -21.5650  -29.2990   22.4530 N   0  0  0  0  0  0  0  0  0  0  0  0
  -23.5590  -28.8150   23.4070 O   0  0  0  0  0  0  0  0  0  0  0  0
  -21.0890  -29.8710   21.7690 H   0  0  0  0  0  0  0  0  0  0  0  0
  -18.1760  -28.1220   22.8860 C   0  0  0  0  0  0  0  0  0  0  0  0
  -20.7320  -28.3520   23.1900 C   0  0  0  0  0  3  0  0  0  0  0  0
  -20.8290  -26.9360   22.5790 C   0  0  0  0  0  2  0  0  0  0  0  0
  -19.7370  -26.6490   21.5430 C   0  0  0  0  0  2  0  0  0  0  0  0
  -18.3470  -26.7920   22.1700 C   0  0  0  0  0  2  0  0  0  0  0  0
  -19.2950  -28.8630   23.3480 C   0  0  0  0  0  0  0  0  0  0  0  0
  -19.0810  -30.1110   23.9700 C   0  0  0  0  0  3  0  0  0  0  0  0
  -17.7790  -30.6190   24.1360 C   0  0  0  0  0  3  0  0  0  0  0  0
  -16.6740  -29.8750   23.6930 C   0  0  0  0  0  3  0  0  0  0  0  0
  -16.8710  -28.6270   23.0750 C   0  0  0  0  0  3  0  0  0  0  0  0
  -26.0350  -32.4640   24.0150 C   0  0  0  0  0  3  0  0  0  0  0  0
  -26.5560  -31.6430   25.2600 C   0  0  1  0  0  0  0  0  0  0  0  0
  -25.4580  -31.3610   26.3140 C   0  0  0  0  0  1  0  0  0  0  0  0
  -27.1480  -30.2840   24.8190 C   0  0  0  0  0  1  0  0  0  0  0  0
  -27.7060  -32.4150   25.9530 C   0  0  0  0  0  1  0  0  0  0  0  0
  -25.7270  -33.8470   24.4030 N   0  0  0  0  0  0  0  0  0  0  0  0
  -26.0550  -34.9300   23.6840 C   0  0  0  0  0  0  0  0  0  0  0  0
  -26.7300  -34.8720   22.6520 O   0  0  0  0  0  0  0  0  0  0  0  0
  -25.1280  -33.9680   25.2090 H   0  0  0  0  0  0  0  0  0  0  0  0
  -24.3200  -36.7280   23.4160 C   0  0  0  0  0  1  0  0  0  0  0  0
  -25.5700  -36.2960   24.2000 C   0  0  0  0  0  3  0  0  0  0  0  0
  -27.7080  -37.1490   25.0530 C   0  0  0  0  0  1  0  0  0  0  0  0
  -26.5980  -37.3550   24.1240 N   0  0  0  0  0  0  0  0  0  0  0  0
  -26.1890  -38.2640   24.3180 H   0  0  0  0  0  0  0  0  0  0  0  0
  1 14  1  0
  3  8  1  0
  4  5  1  0
  4  3  1  0
  6  5  1  0
  6 19  1  0
  6  7  1  0
  8  2  1  0
  8  7  1  0
  9  2  2  0
 10 11  1  0
 10 14  2  0
 12 13  1  0
 12 15  1  0
 13 44  1  0
 13 10  1  0
 15  2  1  0
 15 11  1  0
 16 17  2  0
 17 36  1  0
 18 17  1  0
 18 21  1  0
 19 20  1  0
 19 16  1  0
 20 18  2  0
 21 22  1  0
 22 23  2  0
 24 27  1  0
 24 23  1  0
 25 24  2  0
 26 25  1  0
 26 21  2  0
 27 28  1  0
 28 29  1  0
 29 30  2  0
 31 30  1  0
 31 35  1  0
 32 31  2  0
 33 28  2  0
 33 32  1  0
 34 33  1  0
 36 37  1  0
 37 40  1  0
 37 39  1  0
 38 36  2  0
 41 42  1  0
 41 16  1  0
 43 41  1  0
 44 46  1  0
 44 45  1  0
 47 44  1  0
 48  1  1  0
 48 49  1  0
 50 49  1  0
 50 51  1  0
 52 51  1  0
 53 55  1  0
 53 52  1  0
 54 65  2  0
 55 60  1  0
 56 64  1  0
 56 66  1  0
 57 63  1  0
 57 59  1  0
 58 64  1  0
 59 58  1  0
 60 59  2  0
 61 62  1  0
 61 55  2  0
 62 57  2  0
 63 56  1  0
 64 54  1  0
 66 68  2  0
 67 66  1  0
 69 67  1  0
 70 79  2  0
 70 75  1  0
 71 67  1  0
 71 75  1  0
 72 71  1  0
 73 74  1  0
 73 72  1  0
 74 70  1  0
 75 76  2  0
 76 77  1  0
 78 77  2  0
 79 78  1  0
 80 54  1  0
 80 85  1  0
 80 81  1  0
 81 84  1  1
 81 82  1  0
 83 81  1  0
 85 88  1  0
 86 90  1  0
 86 85  1  0
 87 86  2  0
 90 89  1  0
 92 90  1  0
 92 93  1  0
 92 91  1  0
M  ISO  4   2 100  15 100  52 101  53 101
M  END
>  <TORSDO>  (63) 
F 22

>  <SCORE>  (63) 
-11.991

>  <name>  (63) 
63

>  <ligand_id>  (63) 
63

>  <original_smiles>  (63) 
[H]c1c([H])c([H])c2c(c1[H])C([H])([H])C([H])([H])C([H])([H])C2([H])N([H])C(=O)C1([H])N(C(=O)C([H])(N([H])C(=O)C([H])(N([H])C([H])([H])[H])C([H])([H])[H])C(C([H])([H])[H])(C([H])([H])[H])C([H])([H])[H])C([H])([H])c2c([H])c(OC([H])([H])C([H])([H])C([H])([H])C([H])([H])C([H])([H])C([H])([H])N=C3C([H])([H])N(C(=O)N4C([H])([H])C([H])([H])C([H])([H])C([H])(n5nc(-c6c([H])c([H])c(Oc7c([H])c([H])c(F)c([H])c7F)c([H])c6[H])c(C(=O)N([H])[H])c5N([H])[H])C4([H])[H])C([H])([H])C3([H])[N+]([H])([H])[H])c([H])c([H])c2C1([H])[H]

>  <smiles>  (63) 
[H]c1c([H])c([H])c2c(c1[H])C([H])([H])C([H])([H])C([H])([H])C2([H])N([H])C(=O)C1([H])N(C(=O)C([H])(N([H])C(=O)C([H])(N([H])C([H])([H])[H])C([H])([H])[H])C(C([H])([H])[H])(C([H])([H])[H])C([H])([H])[H])C([H])([H])c2c([H])c(OC([H])([H])C([H])([H])C([H])([H])C([H])([H])C([H])([H])C([H])([H])N=C3C([H])([H])N(C(=O)N4C([H])([H])C([H])([H])C([H])([H])C([H])(n5nc(-c6c([H])c([H])c(Oc7c([H])c([H])c(F)c([H])c7F)c([H])c6[H])c(C(=O)N([H])[H])c5N([H])[H])C4([H])[H])C([H])([H])C3([H])[N+]([H])([H])[H])c([H])c([H])c2C1([H])[H]

$$$$
64:0:0
     RDKit          3D

 93101  0  0  1  0  0  0  0  0999 V2000
  -28.8190  -18.6380   20.7730 C   0  0  0  0  0  3  0  0  0  0  0  0
  -28.9250  -17.2400   21.3180 C   0  0  0  0  0  2  0  0  0  0  0  0
  -31.3620  -17.5040   21.3590 C   0  0  0  0  0  2  0  0  0  0  0  0
  -31.3110  -18.8540   20.6220 C   0  0  0  0  0  2  0  0  0  0  0  0
  -30.2280  -16.6350   20.8190 C   0  0  0  0  0  3  0  0  0  0  0  0
  -29.9240  -19.3490   20.3880 N   0  0  0  0  0  0  0  0  0  0  0  0
  -27.5680  -19.1300   20.6650 N   0  0  0  0  0  0  0  0  0  0  0  0
  -26.7740  -18.5810   20.9640 H   0  0  0  0  0  0  0  0  0  0  0  0
  -27.3770  -20.0670   20.3410 H   0  0  0  0  0  0  0  0  0  0  0  0
  -30.8500  -14.3370   20.2230 C   0  0  0  0  0  0  0  0  0  0  0  0
  -30.4320  -12.3100   18.9090 C   0  0  0  0  0  2  0  0  0  0  0  0
  -29.4170  -12.6080   17.7830 C   0  0  0  0  0  2  0  0  0  0  0  0
  -27.9580  -12.5060   18.2780 C   0  0  0  0  0  2  0  0  0  0  0  0
  -27.7260  -13.2480   19.6200 C   0  0  0  0  0  3  0  0  0  0  0  0
  -28.8300  -12.8840   20.6410 C   0  0  0  0  0  2  0  0  0  0  0  0
  -30.1430  -13.1910   20.0460 N   0  0  0  0  0  0  0  0  0  0  0  0
  -31.8530  -14.6340   19.5730 O   0  0  0  0  0  0  0  0  0  0  0  0
  -30.3010  -15.1990   21.0910 N   0  0  0  0  0  0  0  0  0  0  0  0
  -29.5280  -14.8120   21.6110 H   0  0  0  0  0  0  0  0  0  0  0  0
  -25.3660  -13.8950   20.4330 C   0  0  0  0  0  0  0  0  0  0  0  0
  -24.2990  -13.1470   20.8420 C   0  0  0  0  0  0  0  0  0  0  0  0
  -24.7270  -11.7830   20.7720 C   0  0  0  0  0  0  0  0  0  0  0  0
  -26.3840  -12.9990   20.1490 N   0  0  0  0  0  0  0  0  0  0  0  0
  -26.0000  -11.7240   20.4030 N   0  0  0  0  0  0  0  0  0  0  0  0
  -23.9880  -10.5350   20.9850 C   0  0  0  0  0  0  0  0  0  0  0  0
  -24.4390   -9.5590   21.9000 C   0  0  0  0  0  3  0  0  0  0  0  0
  -23.7070   -8.3670   22.1000 C   0  0  0  0  0  3  0  0  0  0  0  0
  -22.5040   -8.1440   21.3860 C   0  0  0  0  0  0  0  0  0  0  0  0
  -22.0710   -9.1090   20.4570 C   0  0  0  0  0  3  0  0  0  0  0  0
  -22.8060  -10.2890   20.2570 C   0  0  0  0  0  3  0  0  0  0  0  0
  -21.7410   -7.0060   21.4910 O   0  0  0  0  0  0  0  0  0  0  0  0
  -21.7120   -6.2720   22.6480 C   0  0  0  0  0  0  0  0  0  0  0  0
  -21.2980   -6.8310   23.8780 C   0  0  0  0  0  3  0  0  0  0  0  0
  -21.2140   -6.0210   25.0260 C   0  0  0  0  0  3  0  0  0  0  0  0
  -21.5270   -4.6510   24.9490 C   0  0  0  0  0  0  0  0  0  0  0  0
  -21.9330   -4.0910   23.7270 C   0  0  0  0  0  3  0  0  0  0  0  0
  -22.0230   -4.8980   22.5790 C   0  0  0  0  0  0  0  0  0  0  0  0
  -22.3910   -4.3480   21.3930 F   0  0  0  0  0  0  0  0  0  0  0  0
  -21.4410   -3.8710   26.0510 F   0  0  0  0  0  0  0  0  0  0  0  0
  -22.9240  -13.6410   21.1890 C   0  0  0  0  0  0  0  0  0  0  0  0
  -22.2190  -12.9530   22.0760 N   0  0  0  0  0  0  0  0  0  0  0  0
  -22.4820  -14.6870   20.7100 O   0  0  0  0  0  0  0  0  0  0  0  0
  -22.5770  -12.1020   22.4830 H   0  0  0  0  0  0  0  0  0  0  0  0
  -21.2980  -13.2700   22.3360 H   0  0  0  0  0  0  0  0  0  0  0  0
  -25.5630  -15.2640   20.2500 N   0  0  0  0  0  0  0  0  0  0  0  0
  -24.8330  -15.9550   20.3550 H   0  0  0  0  0  0  0  0  0  0  0  0
  -26.3820  -15.6270   19.7810 H   0  0  0  0  0  0  0  0  0  0  0  0
  -29.7890  -20.5360   19.5050 C   0  0  0  0  0  2  0  0  0  0  0  0
  -30.1020  -21.8840   20.1780 C   0  0  0  0  0  2  0  0  0  0  0  0
  -29.4420  -23.0670   19.4380 C   0  0  0  0  0  2  0  0  0  0  0  0
  -29.7330  -24.4660   20.0380 C   0  0  0  0  0  2  0  0  0  0  0  0
  -28.6490  -25.4570   19.5730 C   0  0  0  0  0  2  0  0  0  0  0  0
  -28.6080  -26.7380   20.1940 O   0  0  0  0  0  0  0  0  0  0  0  0
  -24.6950  -31.7900   23.2390 C   0  0  0  0  0  0  0  0  0  0  0  0
  -27.4170  -27.4510   20.1420 C   0  0  0  0  0  0  0  0  0  0  0  0
  -23.5050  -30.4040   21.5610 C   0  0  0  0  0  3  0  0  0  0  0  0
  -24.9890  -28.9300   20.1240 C   0  0  0  0  0  0  0  0  0  0  0  0
  -26.0280  -30.8110   21.3800 C   0  0  0  0  0  2  0  0  0  0  0  0
  -26.1350  -29.4550   20.7320 C   0  0  0  0  0  0  0  0  0  0  0  0
  -27.3480  -28.7300   20.7450 C   0  0  0  0  0  3  0  0  0  0  0  0
  -26.2480  -26.9630   19.5030 C   0  0  0  0  0  3  0  0  0  0  0  0
  -25.0460  -27.6810   19.4970 C   0  0  0  0  0  3  0  0  0  0  0  0
  -23.7220  -29.7480   20.1750 C   0  0  0  0  0  2  0  0  0  0  0  0
  -24.7590  -31.0160   22.1190 N   0  0  0  0  0  0  0  0  0  0  0  0
  -23.6100  -32.0450   23.7770 O   0  0  0  0  0  0  0  0  0  0  0  0
  -22.8570  -29.3650   22.5040 C   0  0  0  0  0  0  0  0  0  0  0  0
  -21.5380  -29.1700   22.3560 N   0  0  0  0  0  0  0  0  0  0  0  0
  -23.5390  -28.7390   23.3190 O   0  0  0  0  0  0  0  0  0  0  0  0
  -21.0520  -29.7360   21.6760 H   0  0  0  0  0  0  0  0  0  0  0  0
  -18.1740  -27.9130   22.7670 C   0  0  0  0  0  0  0  0  0  0  0  0
  -20.7200  -28.2110   23.0970 C   0  0  0  0  0  3  0  0  0  0  0  0
  -20.8590  -26.7850   22.5180 C   0  0  0  0  0  2  0  0  0  0  0  0
  -19.7850  -26.4490   21.4770 C   0  0  0  0  0  2  0  0  0  0  0  0
  -18.3850  -26.5730   22.0840 C   0  0  0  0  0  2  0  0  0  0  0  0
  -19.2680  -28.6920   23.2270 C   0  0  0  0  0  0  0  0  0  0  0  0
  -19.0170  -29.9480   23.8170 C   0  0  0  0  0  3  0  0  0  0  0  0
  -17.7030  -30.4310   23.9520 C   0  0  0  0  0  3  0  0  0  0  0  0
  -16.6220  -29.6500   23.5170 C   0  0  0  0  0  3  0  0  0  0  0  0
  -16.8570  -28.3910   22.9310 C   0  0  0  0  0  3  0  0  0  0  0  0
  -25.9770  -32.4120   23.8730 C   0  0  0  0  0  3  0  0  0  0  0  0
  -25.6530  -33.7950   24.2470 N   0  0  0  0  0  0  0  0  0  0  0  0
  -25.9640  -34.8750   23.5160 C   0  0  0  0  0  0  0  0  0  0  0  0
  -26.6340  -34.8130   22.4820 O   0  0  0  0  0  0  0  0  0  0  0  0
  -25.0510  -33.9160   25.0500 H   0  0  0  0  0  0  0  0  0  0  0  0
  -24.2040  -36.6490   23.2310 C   0  0  0  0  0  1  0  0  0  0  0  0
  -25.4590  -36.2400   24.0210 C   0  0  0  0  0  3  0  0  0  0  0  0
  -27.5830  -37.1350   24.8650 C   0  0  0  0  0  1  0  0  0  0  0  0
  -26.4730  -37.3120   23.9300 N   0  0  0  0  0  0  0  0  0  0  0  0
  -26.0540  -38.2210   24.1060 H   0  0  0  0  0  0  0  0  0  0  0  0
  -26.5080  -31.6040   25.1190 C   0  0  1  0  0  0  0  0  0  0  0  0
  -25.4300  -31.3360   26.1930 C   0  0  0  0  0  1  0  0  0  0  0  0
  -27.0800  -30.2380   24.6800 C   0  0  0  0  0  1  0  0  0  0  0  0
  -27.6670  -32.3780   25.7930 C   0  0  0  0  0  1  0  0  0  0  0  0
  1  7  1  0
  1  2  1  0
  4  3  1  0
  5 18  1  0
  5  2  1  0
  5  3  1  0
  6  4  1  0
  6  1  1  0
  7  8  1  0
  9  7  1  0
 10 18  1  0
 11 16  1  0
 12 13  1  0
 12 11  1  0
 14 13  1  0
 14 23  1  0
 14 15  1  0
 16 10  1  0
 16 15  1  0
 17 10  2  0
 18 19  1  0
 20 21  2  0
 21 40  1  0
 22 21  1  0
 22 25  1  0
 23 24  1  0
 23 20  1  0
 24 22  2  0
 25 26  1  0
 26 27  2  0
 28 31  1  0
 28 27  1  0
 29 28  2  0
 30 29  1  0
 30 25  2  0
 31 32  1  0
 32 33  1  0
 33 34  2  0
 35 34  1  0
 35 39  1  0
 36 35  2  0
 37 32  2  0
 37 36  1  0
 38 37  1  0
 40 41  1  0
 41 44  1  0
 41 43  1  0
 42 40  2  0
 45 46  1  0
 45 20  1  0
 47 45  1  0
 48 49  1  0
 48  6  1  0
 50 51  1  0
 50 49  1  0
 52 51  1  0
 52 53  1  0
 54 65  2  0
 55 53  1  0
 55 60  1  0
 56 64  1  0
 56 66  1  0
 57 63  1  0
 57 59  1  0
 58 64  1  0
 59 60  2  0
 59 58  1  0
 61 55  2  0
 62 61  1  0
 62 57  2  0
 63 56  1  0
 64 54  1  0
 66 68  2  0
 67 66  1  0
 69 67  1  0
 70 79  2  0
 70 75  1  0
 71 67  1  0
 71 75  1  0
 72 71  1  0
 73 74  1  0
 73 72  1  0
 74 70  1  0
 75 76  2  0
 76 77  1  0
 78 77  2  0
 79 78  1  0
 80 54  1  0
 80 81  1  0
 80 90  1  0
 81 84  1  0
 82 86  1  0
 82 81  1  0
 83 82  2  0
 86 85  1  0
 88 86  1  0
 88 89  1  0
 88 87  1  0
 90 93  1  1
 90 91  1  0
 92 90  1  0
M  ISO  4  10 100  18 100  52 101  53 101
M  END
>  <TORSDO>  (64) 
F 21

>  <SCORE>  (64) 
-13.089

>  <name>  (64) 
64

>  <ligand_id>  (64) 
64

>  <original_smiles>  (64) 
[H]c1c([H])c([H])c2c(c1[H])C([H])([H])C([H])([H])C([H])([H])C2([H])N([H])C(=O)C1([H])N(C(=O)C([H])(N([H])C(=O)C([H])(N([H])C([H])([H])[H])C([H])([H])[H])C(C([H])([H])[H])(C([H])([H])[H])C([H])([H])[H])C([H])([H])c2c([H])c(OC([H])([H])C([H])([H])C([H])([H])C([H])([H])C([H])([H])N3C(=[N+]([H])[H])C([H])([H])C([H])(N([H])C(=O)N4C([H])([H])C([H])([H])C([H])([H])C([H])(n5nc(-c6c([H])c([H])c(Oc7c([H])c([H])c(F)c([H])c7F)c([H])c6[H])c(C(=O)N([H])[H])c5N([H])[H])C4([H])[H])C([H])([H])C3([H])[H])c([H])c([H])c2C1([H])[H]

>  <smiles>  (64) 
[H]c1c([H])c([H])c2c(c1[H])C([H])([H])C([H])([H])C([H])([H])C2([H])N([H])C(=O)C1([H])N(C(=O)C([H])(N([H])C(=O)C([H])(N([H])C([H])([H])[H])C([H])([H])[H])C(C([H])([H])[H])(C([H])([H])[H])C([H])([H])[H])C([H])([H])c2c([H])c(OC([H])([H])C([H])([H])C([H])([H])C([H])([H])C([H])([H])N3C(=[N+]([H])[H])C([H])([H])C([H])(N([H])C(=O)N4C([H])([H])C([H])([H])C([H])([H])C([H])(n5nc(-c6c([H])c([H])c(Oc7c([H])c([H])c(F)c([H])c7F)c([H])c6[H])c(C(=O)N([H])[H])c5N([H])[H])C4([H])[H])C([H])([H])C3([H])[H])c([H])c([H])c2C1([H])[H]

$$$$
65:0:0
     RDKit          3D

 92100  0  0  1  0  0  0  0  0999 V2000
  -29.7320  -20.6570   20.2900 C   0  0  0  0  0  2  0  0  0  0  0  0
  -29.6250  -20.0690   22.5620 C   0  0  0  0  0  2  0  0  0  0  0  0
  -30.8030  -19.5830   20.0120 C   0  0  0  0  0  2  0  0  0  0  0  0
  -30.6970  -18.9660   22.3770 C   0  0  0  0  0  2  0  0  0  0  0  0
  -29.9060  -21.1850   21.6500 N   0  0  0  0  0  0  0  0  0  0  0  0
  -30.7390  -18.4520   20.9790 N   0  0  2  0  0  4  0  0  0  0  0  0
  -29.8730  -17.9660   20.8080 H   0  0  0  0  0  0  0  0  0  0  0  0
  -29.0080  -22.3180   21.8950 C   0  0  0  0  0  2  0  0  0  0  0  0
  -29.6930  -23.6410   21.4910 C   0  0  0  0  0  2  0  0  0  0  0  0
  -28.7040  -24.8070   21.2830 C   0  0  0  0  0  2  0  0  0  0  0  0
  -29.3990  -26.1800   21.1430 C   0  0  0  0  0  2  0  0  0  0  0  0
  -28.9710  -26.8800   19.9790 O   0  0  0  0  0  0  0  0  0  0  0  0
  -24.8510  -31.7810   23.1540 C   0  0  0  0  0  0  0  0  0  0  0  0
  -27.7690  -27.5350   20.0640 C   0  0  0  0  0  0  0  0  0  0  0  0
  -23.7480  -30.3580   21.4550 C   0  0  0  0  0  3  0  0  0  0  0  0
  -25.3060  -28.9090   20.0460 C   0  0  0  0  0  0  0  0  0  0  0  0
  -26.2560  -30.8330   21.3300 C   0  0  0  0  0  2  0  0  0  0  0  0
  -26.4200  -29.4760   20.6800 C   0  0  0  0  0  0  0  0  0  0  0  0
  -27.6560  -28.7910   20.6990 C   0  0  0  0  0  3  0  0  0  0  0  0
  -26.6460  -26.9770   19.4230 C   0  0  0  0  0  3  0  0  0  0  0  0
  -25.4110  -27.6530   19.4200 C   0  0  0  0  0  3  0  0  0  0  0  0
  -24.0240  -29.7100   20.0720 C   0  0  0  0  0  2  0  0  0  0  0  0
  -24.9680  -31.0050   22.0400 N   0  0  0  0  0  0  0  0  0  0  0  0
  -23.7450  -31.9980   23.6690 O   0  0  0  0  0  0  0  0  0  0  0  0
  -23.1200  -29.2900   22.3800 C   0  0  0  0  0  0  0  0  0  0  0  0
  -21.8090  -29.0550   22.2150 N   0  0  0  0  0  0  0  0  0  0  0  0
  -23.8110  -28.6790   23.1980 O   0  0  0  0  0  0  0  0  0  0  0  0
  -21.3140  -29.6050   21.5280 H   0  0  0  0  0  0  0  0  0  0  0  0
  -18.4740  -27.7200   22.6080 C   0  0  0  0  0  0  0  0  0  0  0  0
  -21.0130  -28.0680   22.9430 C   0  0  0  0  0  3  0  0  0  0  0  0
  -21.1830  -26.6580   22.3360 C   0  0  0  0  0  2  0  0  0  0  0  0
  -20.1170  -26.3180   21.2900 C   0  0  0  0  0  2  0  0  0  0  0  0
  -18.7170  -26.3940   21.9060 C   0  0  0  0  0  2  0  0  0  0  0  0
  -19.5530  -28.5130   23.0800 C   0  0  0  0  0  0  0  0  0  0  0  0
  -19.2750  -29.7540   23.6920 C   0  0  0  0  0  3  0  0  0  0  0  0
  -17.9490  -30.2030   23.8400 C   0  0  0  0  0  3  0  0  0  0  0  0
  -16.8840  -29.4070   23.3850 C   0  0  0  0  0  3  0  0  0  0  0  0
  -17.1470  -28.1670   22.7750 C   0  0  0  0  0  3  0  0  0  0  0  0
  -26.0930  -32.4520   23.8190 C   0  0  0  0  0  3  0  0  0  0  0  0
  -25.7200  -33.8310   24.1580 N   0  0  0  0  0  0  0  0  0  0  0  0
  -26.0260  -34.9050   23.4160 C   0  0  0  0  0  0  0  0  0  0  0  0
  -26.7260  -34.8400   22.4010 O   0  0  0  0  0  0  0  0  0  0  0  0
  -25.0960  -33.9510   24.9420 H   0  0  0  0  0  0  0  0  0  0  0  0
  -24.2290  -36.6210   23.0450 C   0  0  0  0  0  1  0  0  0  0  0  0
  -25.4720  -36.2660   23.8760 C   0  0  0  0  0  3  0  0  0  0  0  0
  -27.5490  -37.2340   24.7570 C   0  0  0  0  0  1  0  0  0  0  0  0
  -26.4610  -37.3620   23.7900 N   0  0  0  0  0  0  0  0  0  0  0  0
  -26.0120  -38.2630   23.9380 H   0  0  0  0  0  0  0  0  0  0  0  0
  -26.6090  -31.6800   25.0950 C   0  0  1  0  0  0  0  0  0  0  0  0
  -25.4990  -31.3770   26.1280 C   0  0  0  0  0  1  0  0  0  0  0  0
  -27.2610  -30.3360   24.6940 C   0  0  0  0  0  1  0  0  0  0  0  0
  -27.7090  -32.5120   25.8000 C   0  0  0  0  0  1  0  0  0  0  0  0
  -31.8560  -17.4970   20.7280 C   0  0  0  0  0  2  0  0  0  0  0  0
  -31.7670  -16.1380   21.4660 C   0  0  0  0  0  2  0  0  0  0  0  0
  -31.2010  -14.3510   19.8280 C   0  0  0  0  0  0  0  0  0  0  0  0
  -30.7300  -12.2310   18.6540 C   0  0  0  0  0  2  0  0  0  0  0  0
  -29.7120  -12.4090   17.5120 C   0  0  0  0  0  2  0  0  0  0  0  0
  -28.2710  -12.2970   18.0450 C   0  0  0  0  0  2  0  0  0  0  0  0
  -28.0280  -13.1890   19.2910 C   0  0  0  0  0  3  0  0  0  0  0  0
  -29.1420  -12.9820   20.3390 C   0  0  0  0  0  2  0  0  0  0  0  0
  -30.4430  -13.2340   19.6910 N   0  0  0  0  0  0  0  0  0  0  0  0
  -32.1760  -14.6010   19.1130 O   0  0  0  0  0  0  0  0  0  0  0  0
  -30.8740  -15.1450   20.8590 N   0  0  0  0  0  0  0  0  0  0  0  0
  -30.0720  -14.8540   21.3990 H   0  0  0  0  0  0  0  0  0  0  0  0
  -25.7040  -13.8720   20.1670 C   0  0  0  0  0  0  0  0  0  0  0  0
  -24.6400  -13.1320   20.6090 C   0  0  0  0  0  0  0  0  0  0  0  0
  -25.0530  -11.7660   20.5400 C   0  0  0  0  0  0  0  0  0  0  0  0
  -26.7020  -12.9590   19.8600 N   0  0  0  0  0  0  0  0  0  0  0  0
  -26.3170  -11.6870   20.1400 N   0  0  0  0  0  0  0  0  0  0  0  0
  -24.3040  -10.5260   20.7790 C   0  0  0  0  0  0  0  0  0  0  0  0
  -24.7250   -9.5820   21.7410 C   0  0  0  0  0  3  0  0  0  0  0  0
  -23.9770   -8.4070   21.9650 C   0  0  0  0  0  3  0  0  0  0  0  0
  -22.7950   -8.1650   21.2260 C   0  0  0  0  0  0  0  0  0  0  0  0
  -22.3930   -9.0970   20.2520 C   0  0  0  0  0  3  0  0  0  0  0  0
  -23.1400  -10.2660   20.0270 C   0  0  0  0  0  3  0  0  0  0  0  0
  -22.0180   -7.0390   21.3570 O   0  0  0  0  0  0  0  0  0  0  0  0
  -21.9020   -6.3800   22.5540 C   0  0  0  0  0  0  0  0  0  0  0  0
  -21.4160   -7.0220   23.7140 C   0  0  0  0  0  3  0  0  0  0  0  0
  -21.2480   -6.2880   24.9060 C   0  0  0  0  0  3  0  0  0  0  0  0
  -21.5570   -4.9150   24.9380 C   0  0  0  0  0  0  0  0  0  0  0  0
  -22.0370   -4.2740   23.7830 C   0  0  0  0  0  3  0  0  0  0  0  0
  -22.2080   -5.0040   22.5930 C   0  0  0  0  0  0  0  0  0  0  0  0
  -22.6500   -4.3760   21.4770 F   0  0  0  0  0  0  0  0  0  0  0  0
  -21.3880   -4.2090   26.0800 F   0  0  0  0  0  0  0  0  0  0  0  0
  -23.2820  -13.6510   20.9840 C   0  0  0  0  0  0  0  0  0  0  0  0
  -22.6030  -12.9810   21.9090 N   0  0  0  0  0  0  0  0  0  0  0  0
  -22.8340  -14.6860   20.4900 O   0  0  0  0  0  0  0  0  0  0  0  0
  -22.9790  -12.1440   22.3290 H   0  0  0  0  0  0  0  0  0  0  0  0
  -21.6940  -13.3110   22.2010 H   0  0  0  0  0  0  0  0  0  0  0  0
  -25.9010  -15.2380   19.9800 N   0  0  0  0  0  0  0  0  0  0  0  0
  -25.1650  -15.9170   20.1360 H   0  0  0  0  0  0  0  0  0  0  0  0
  -26.7410  -15.6440   19.5870 H   0  0  0  0  0  0  0  0  0  0  0  0
  1  5  1  0
  3  1  1  0
  3  6  1  0
  4  2  1  0
  5  8  1  0
  5  2  1  0
  6  4  1  0
  6  7  1  6
  9  8  1  0
 10  9  1  0
 11 10  1  0
 12 14  1  0
 12 11  1  0
 13 24  2  0
 14 19  1  0
 15 23  1  0
 15 25  1  0
 16 22  1  0
 16 18  1  0
 17 23  1  0
 18 19  2  0
 18 17  1  0
 20 14  2  0
 21 20  1  0
 21 16  2  0
 22 15  1  0
 23 13  1  0
 25 27  2  0
 26 25  1  0
 28 26  1  0
 29 38  2  0
 29 34  1  0
 30 26  1  0
 30 34  1  0
 31 30  1  0
 32 33  1  0
 32 31  1  0
 33 29  1  0
 34 35  2  0
 35 36  1  0
 37 36  2  0
 38 37  1  0
 39 13  1  0
 39 40  1  0
 39 49  1  0
 40 43  1  0
 41 45  1  0
 41 40  1  0
 42 41  2  0
 45 44  1  0
 47 45  1  0
 47 48  1  0
 47 46  1  0
 49 52  1  1
 49 50  1  0
 51 49  1  0
 53  6  1  0
 53 54  1  0
 55 63  1  0
 56 61  1  0
 57 58  1  0
 57 56  1  0
 59 58  1  0
 59 68  1  0
 59 60  1  0
 61 55  1  0
 61 60  1  0
 62 55  2  0
 63 64  1  0
 63 54  1  0
 65 66  2  0
 66 85  1  0
 67 66  1  0
 67 70  1  0
 68 69  1  0
 68 65  1  0
 69 67  2  0
 70 71  1  0
 71 72  2  0
 73 76  1  0
 73 72  1  0
 74 73  2  0
 75 74  1  0
 75 70  2  0
 76 77  1  0
 77 82  2  0
 77 78  1  0
 78 79  2  0
 79 80  1  0
 80 84  1  0
 81 80  2  0
 82 81  1  0
 83 82  1  0
 85 86  1  0
 86 89  1  0
 86 88  1  0
 87 85  2  0
 90 91  1  0
 90 65  1  0
 92 90  1  0
M  ISO  4  11 101  12 101  55 100  63 100
M  END
>  <TORSDO>  (65) 
F 22

>  <SCORE>  (65) 
-10.750

>  <name>  (65) 
65

>  <ligand_id>  (65) 
65

>  <original_smiles>  (65) 
[H]c1c([H])c([H])c2c(c1[H])C([H])([H])C([H])([H])C([H])([H])C2([H])N([H])C(=O)C1([H])N(C(=O)C([H])(N([H])C(=O)C([H])(N([H])C([H])([H])[H])C([H])([H])[H])C(C([H])([H])[H])(C([H])([H])[H])C([H])([H])[H])C([H])([H])c2c([H])c(OC([H])([H])C([H])([H])C([H])([H])C([H])([H])N3C([H])([H])C([H])([H])[N+]([H])(C([H])([H])C([H])([H])N([H])C(=O)N4C([H])([H])C([H])([H])C([H])([H])C([H])(n5nc(-c6c([H])c([H])c(Oc7c([H])c([H])c(F)c([H])c7F)c([H])c6[H])c(C(=O)N([H])[H])c5N([H])[H])C4([H])[H])C([H])([H])C3([H])[H])c([H])c([H])c2C1([H])[H]

>  <smiles>  (65) 
[H]c1c([H])c([H])c2c(c1[H])C([H])([H])C([H])([H])C([H])([H])C2([H])N([H])C(=O)C1([H])N(C(=O)C([H])(N([H])C(=O)C([H])(N([H])C([H])([H])[H])C([H])([H])[H])C(C([H])([H])[H])(C([H])([H])[H])C([H])([H])[H])C([H])([H])c2c([H])c(OC([H])([H])C([H])([H])C([H])([H])C([H])([H])N3C([H])([H])C([H])([H])[N+]([H])(C([H])([H])C([H])([H])N([H])C(=O)N4C([H])([H])C([H])([H])C([H])([H])C([H])(n5nc(-c6c([H])c([H])c(Oc7c([H])c([H])c(F)c([H])c7F)c([H])c6[H])c(C(=O)N([H])[H])c5N([H])[H])C4([H])[H])C([H])([H])C3([H])[H])c([H])c([H])c2C1([H])[H]

$$$$
66:0:0
     RDKit          3D

 93101  0  0  1  0  0  0  0  0999 V2000
  -29.3740  -21.1490   20.2580 N   0  0  0  0  0  4  0  0  0  0  0  0
  -30.3070  -21.3370   20.5890 H   0  0  0  0  0  0  0  0  0  0  0  0
  -29.4230  -21.0780   19.2540 H   0  0  0  0  0  0  0  0  0  0  0  0
  -28.4950  -22.3590   20.5730 C   0  0  0  0  0  2  0  0  0  0  0  0
  -29.0590  -23.8480   20.3340 C   0  0  0  0  0  3  0  0  0  0  0  0
  -27.9600  -25.0020   20.1990 C   0  0  0  0  0  3  0  0  0  0  0  0
  -28.2650  -26.4620   20.2230 O   0  0  0  0  0  0  0  0  0  0  0  0
  -24.5770  -31.9100   23.2550 C   0  0  0  0  0  0  0  0  0  0  0  0
  -27.1640  -27.3420   20.1760 C   0  0  0  0  0  0  0  0  0  0  0  0
  -23.3660  -30.5200   21.6170 C   0  0  0  0  0  3  0  0  0  0  0  0
  -24.8080  -28.9750   20.1820 C   0  0  0  0  0  0  0  0  0  0  0  0
  -25.9080  -30.8290   21.4290 C   0  0  0  0  0  2  0  0  0  0  0  0
  -25.9830  -29.4540   20.7750 C   0  0  0  0  0  0  0  0  0  0  0  0
  -27.1660  -28.6510   20.7590 C   0  0  0  0  0  3  0  0  0  0  0  0
  -25.9600  -26.9300   19.5560 C   0  0  0  0  0  3  0  0  0  0  0  0
  -24.7990  -27.7200   19.5630 C   0  0  0  0  0  3  0  0  0  0  0  0
  -23.5730  -29.8500   20.2350 C   0  0  0  0  0  2  0  0  0  0  0  0
  -24.6360  -31.1040   22.1560 N   0  0  0  0  0  0  0  0  0  0  0  0
  -23.4950  -32.1900   23.7920 O   0  0  0  0  0  0  0  0  0  0  0  0
  -22.7030  -29.5010   22.5760 C   0  0  0  0  0  0  0  0  0  0  0  0
  -21.3770  -29.3220   22.4470 N   0  0  0  0  0  0  0  0  0  0  0  0
  -23.3800  -28.8740   23.3940 O   0  0  0  0  0  0  0  0  0  0  0  0
  -20.8900  -29.8800   21.7610 H   0  0  0  0  0  0  0  0  0  0  0  0
  -17.9990  -28.1230   22.9430 C   0  0  0  0  0  0  0  0  0  0  0  0
  -20.5560  -28.3840   23.2170 C   0  0  0  0  0  3  0  0  0  0  0  0
  -20.6600  -26.9530   22.6420 C   0  0  0  0  0  2  0  0  0  0  0  0
  -19.5590  -26.6270   21.6260 C   0  0  0  0  0  2  0  0  0  0  0  0
  -18.1760  -26.7740   22.2680 C   0  0  0  0  0  2  0  0  0  0  0  0
  -19.1160  -28.8860   23.3740 C   0  0  0  0  0  0  0  0  0  0  0  0
  -18.8950  -30.1500   23.9640 C   0  0  0  0  0  3  0  0  0  0  0  0
  -17.5890  -30.6500   24.1270 C   0  0  0  0  0  3  0  0  0  0  0  0
  -16.4870  -29.8850   23.7130 C   0  0  0  0  0  3  0  0  0  0  0  0
  -16.6910  -28.6220   23.1260 C   0  0  0  0  0  3  0  0  0  0  0  0
  -25.8610  -32.5370   23.8770 C   0  0  0  0  0  3  0  0  0  0  0  0
  -25.5580  -33.9380   24.2040 N   0  0  0  0  0  0  0  0  0  0  0  0
  -25.8930  -34.9870   23.4400 C   0  0  0  0  0  0  0  0  0  0  0  0
  -26.5620  -34.8770   22.4080 O   0  0  0  0  0  0  0  0  0  0  0  0
  -24.9630  -34.0960   25.0030 H   0  0  0  0  0  0  0  0  0  0  0  0
  -24.1750  -36.7910   23.0840 C   0  0  0  0  0  1  0  0  0  0  0  0
  -25.4130  -36.3790   23.8960 C   0  0  0  0  0  3  0  0  0  0  0  0
  -27.5540  -37.2550   24.7250 C   0  0  0  0  0  1  0  0  0  0  0  0
  -26.4520  -37.4260   23.7810 N   0  0  0  0  0  0  0  0  0  0  0  0
  -26.0520  -38.3500   23.9230 H   0  0  0  0  0  0  0  0  0  0  0  0
  -26.3730  -31.7660   25.1570 C   0  0  1  0  0  0  0  0  0  0  0  0
  -25.2770  -31.5370   26.2250 C   0  0  0  0  0  1  0  0  0  0  0  0
  -26.9500  -30.3840   24.7720 C   0  0  0  0  0  1  0  0  0  0  0  0
  -27.5270  -32.5580   25.8170 C   0  0  0  0  0  1  0  0  0  0  0  0
  -28.9350  -19.7950   20.8150 C   0  0  0  0  0  2  0  0  0  0  0  0
  -29.3980  -18.4270   20.0910 C   0  0  0  0  0  2  0  0  0  0  0  0
  -30.2610  -17.3040   20.8650 C   0  0  0  0  0  3  0  0  0  0  0  0
  -30.6350  -14.7090   20.2630 C   0  0  0  0  0  0  0  0  0  0  0  0
  -30.3660  -12.4670   19.2150 C   0  0  0  0  0  2  0  0  0  0  0  0
  -29.4210  -12.5740   17.9990 C   0  0  0  0  0  2  0  0  0  0  0  0
  -27.9540  -12.4170   18.4410 C   0  0  0  0  0  2  0  0  0  0  0  0
  -27.5990  -13.2990   19.6680 C   0  0  0  0  0  3  0  0  0  0  0  0
  -28.6660  -13.1870   20.7810 C   0  0  0  0  0  2  0  0  0  0  0  0
  -29.9660  -13.5140   20.1780 N   0  0  0  0  0  0  0  0  0  0  0  0
  -31.8110  -14.7730   19.9040 O   0  0  0  0  0  0  0  0  0  0  0  0
  -29.9070  -15.8370   20.5890 N   0  0  0  0  0  0  0  0  0  0  0  0
  -28.9440  -15.6150   20.7870 H   0  0  0  0  0  0  0  0  0  0  0  0
  -25.2130  -13.8950   20.4030 C   0  0  0  0  0  0  0  0  0  0  0  0
  -24.1500  -13.1230   20.7830 C   0  0  0  0  0  0  0  0  0  0  0  0
  -24.6140  -11.7720   20.7620 C   0  0  0  0  0  0  0  0  0  0  0  0
  -26.2570  -13.0160   20.1680 N   0  0  0  0  0  0  0  0  0  0  0  0
  -25.9030  -11.7340   20.4480 N   0  0  0  0  0  0  0  0  0  0  0  0
  -23.8890  -10.5110   20.9640 C   0  0  0  0  0  0  0  0  0  0  0  0
  -24.3230   -9.5510   21.9070 C   0  0  0  0  0  3  0  0  0  0  0  0
  -23.5970   -8.3550   22.0970 C   0  0  0  0  0  3  0  0  0  0  0  0
  -22.4240   -8.1090   21.3440 C   0  0  0  0  0  0  0  0  0  0  0  0
  -22.0090   -9.0570   20.3910 C   0  0  0  0  0  3  0  0  0  0  0  0
  -22.7360  -10.2440   20.2000 C   0  0  0  0  0  3  0  0  0  0  0  0
  -21.6710   -6.9640   21.4430 O   0  0  0  0  0  0  0  0  0  0  0  0
  -21.6230   -6.2320   22.6030 C   0  0  0  0  0  0  0  0  0  0  0  0
  -21.1920   -6.7960   23.8230 C   0  0  0  0  0  3  0  0  0  0  0  0
  -21.0910   -5.9900   24.9740 C   0  0  0  0  0  3  0  0  0  0  0  0
  -21.4130   -4.6200   24.9060 C   0  0  0  0  0  0  0  0  0  0  0  0
  -21.8390   -4.0560   23.6910 C   0  0  0  0  0  3  0  0  0  0  0  0
  -21.9410   -4.8590   22.5420 C   0  0  0  0  0  0  0  0  0  0  0  0
  -22.3310   -4.3060   21.3680 F   0  0  0  0  0  0  0  0  0  0  0  0
  -21.3100   -3.8440   26.0100 F   0  0  0  0  0  0  0  0  0  0  0  0
  -22.7530  -13.6010   21.0560 C   0  0  0  0  0  0  0  0  0  0  0  0
  -22.0290  -12.9090   21.9290 N   0  0  0  0  0  0  0  0  0  0  0  0
  -22.3120  -14.6220   20.5310 O   0  0  0  0  0  0  0  0  0  0  0  0
  -22.4010  -12.0830   22.3740 H   0  0  0  0  0  0  0  0  0  0  0  0
  -21.0920  -13.2110   22.1570 H   0  0  0  0  0  0  0  0  0  0  0  0
  -25.3730  -15.2640   20.2120 N   0  0  0  0  0  0  0  0  0  0  0  0
  -24.5980  -15.9120   20.3100 H   0  0  0  0  0  0  0  0  0  0  0  0
  -26.2050  -15.6980   19.8340 H   0  0  0  0  0  0  0  0  0  0  0  0
  -32.8500  -19.1880   19.2450 C   0  0  0  0  0  2  0  0  0  0  0  0
  -33.2920  -19.5530   20.6560 C   0  0  0  0  0  2  0  0  0  0  0  0
  -32.3730  -17.7420   19.3790 C   0  0  0  0  0  2  0  0  0  0  0  0
  -32.2600  -18.8690   21.5580 C   0  0  0  0  0  2  0  0  0  0  0  0
  -31.7950  -17.6010   20.8060 C   0  0  0  0  0  3  0  0  0  0  0  0
  1  4  1  0
  1  2  1  0
  1 48  1  0
  3  1  1  0
  5  4  1  0
  6  7  1  0
  6  5  2  0
  8 19  2  0
  9  7  1  0
  9 14  1  0
 10 18  1  0
 10 20  1  0
 11 17  1  0
 11 13  1  0
 12 18  1  0
 13 12  1  0
 14 13  2  0
 15 16  1  0
 15  9  2  0
 16 11  2  0
 17 10  1  0
 18  8  1  0
 20 22  2  0
 21 20  1  0
 23 21  1  0
 24 33  2  0
 24 29  1  0
 25 21  1  0
 25 29  1  0
 26 25  1  0
 27 28  1  0
 27 26  1  0
 28 24  1  0
 29 30  2  0
 30 31  1  0
 32 31  2  0
 33 32  1  0
 34  8  1  0
 34 35  1  0
 34 44  1  0
 35 38  1  0
 36 40  1  0
 36 35  1  0
 37 36  2  0
 40 39  1  0
 42 40  1  0
 42 43  1  0
 42 41  1  0
 44 47  1  1
 44 45  1  0
 46 44  1  0
 49 48  1  0
 50 49  1  0
 51 59  1  0
 52 57  1  0
 53 54  1  0
 53 52  1  0
 55 54  1  0
 55 64  1  0
 55 56  1  0
 57 51  1  0
 57 56  1  0
 58 51  2  0
 59 60  1  0
 59 50  1  0
 61 62  2  0
 62 81  1  0
 63 62  1  0
 63 66  1  0
 64 61  1  0
 64 65  1  0
 65 63  2  0
 66 67  1  0
 67 68  2  0
 69 72  1  0
 69 68  1  0
 70 69  2  0
 71 70  1  0
 71 66  2  0
 72 73  1  0
 73 74  1  0
 74 75  2  0
 76 75  1  0
 76 80  1  0
 77 76  2  0
 78 73  2  0
 78 77  1  0
 79 78  1  0
 81 82  1  0
 82 85  1  0
 82 84  1  0
 83 81  2  0
 86 87  1  0
 86 61  1  0
 88 86  1  0
 89 91  1  0
 89 90  1  0
 90 92  1  0
 91 93  1  0
 93 50  1  0
 93 92  1  0
M  ISO  4   6 101   7 101  51 100  59 100
M  END
>  <TORSDO>  (66) 
F 23

>  <SCORE>  (66) 
-12.877

>  <name>  (66) 
66

>  <ligand_id>  (66) 
66

>  <original_smiles>  (66) 
[H]c1c([H])c([H])c2c(c1[H])C([H])([H])C([H])([H])C([H])([H])C2([H])N([H])C(=O)C1([H])N(C(=O)C([H])(N([H])C(=O)C([H])(N([H])C([H])([H])[H])C([H])([H])[H])C(C([H])([H])[H])(C([H])([H])[H])C([H])([H])[H])C([H])([H])c2c([H])c(OC([H])([H])C([H])([H])C([H])([H])[N+]([H])([H])C([H])([H])C([H])([H])C([H])(N([H])C(=O)N3C([H])([H])C([H])([H])C([H])([H])C([H])(n4nc(-c5c([H])c([H])c(Oc6c([H])c([H])c(F)c([H])c6F)c([H])c5[H])c(C(=O)N([H])[H])c4N([H])[H])C3([H])[H])C3([H])C([H])([H])C([H])([H])C([H])([H])C3([H])[H])c([H])c([H])c2C1([H])[H]

>  <smiles>  (66) 
[H]c1c([H])c([H])c2c(c1[H])C([H])([H])C([H])([H])C([H])([H])C2([H])N([H])C(=O)C1([H])N(C(=O)C([H])(N([H])C(=O)C([H])(N([H])C([H])([H])[H])C([H])([H])[H])C(C([H])([H])[H])(C([H])([H])[H])C([H])([H])[H])C([H])([H])c2c([H])c(OC([H])([H])C([H])([H])C([H])([H])[N+]([H])([H])C([H])([H])C([H])([H])C([H])(N([H])C(=O)N3C([H])([H])C([H])([H])C([H])([H])C([H])(n4nc(-c5c([H])c([H])c(Oc6c([H])c([H])c(F)c([H])c6F)c([H])c5[H])c(C(=O)N([H])[H])c4N([H])[H])C3([H])[H])C3([H])C([H])([H])C([H])([H])C([H])([H])C3([H])[H])c([H])c([H])c2C1([H])[H]

$$$$
67:0:0
     RDKit          3D

 97105  0  0  1  0  0  0  0  0999 V2000
  -29.2100  -19.6920   20.2610 C   0  0  0  0  0  0  0  0  0  0  0  0
  -28.1960  -18.6820   20.8060 C   0  0  0  0  0  2  0  0  0  0  0  0
  -30.2960  -17.5490   19.2180 C   0  0  0  0  0  2  0  0  0  0  0  0
  -30.1700  -17.4280   21.8460 C   0  0  0  0  0  2  0  0  0  0  0  0
  -30.2680  -19.1100   19.2930 C   0  0  0  0  0  3  0  0  0  0  0  0
  -30.6530  -16.7740   20.5240 C   0  0  0  0  0  3  0  0  0  0  0  0
  -29.1370  -20.9130   20.6500 N   0  0  0  0  0  0  0  0  0  0  0  0
  -28.7330  -17.8150   21.8880 N   0  0  0  0  0  4  0  0  0  0  0  0
  -28.1520  -16.9960   21.9630 H   0  0  0  0  0  0  0  0  0  0  0  0
  -28.6060  -18.3240   22.7480 H   0  0  0  0  0  0  0  0  0  0  0  0
  -30.8510  -14.3870   19.7540 C   0  0  0  0  0  0  0  0  0  0  0  0
  -30.3910  -12.2860   18.5530 C   0  0  0  0  0  2  0  0  0  0  0  0
  -29.3490  -12.5570   17.4490 C   0  0  0  0  0  2  0  0  0  0  0  0
  -27.9150  -12.4480   18.0070 C   0  0  0  0  0  2  0  0  0  0  0  0
  -27.7200  -13.2560   19.3180 C   0  0  0  0  0  3  0  0  0  0  0  0
  -28.8600  -12.9520   20.3180 C   0  0  0  0  0  2  0  0  0  0  0  0
  -30.1410  -13.2350   19.6460 N   0  0  0  0  0  0  0  0  0  0  0  0
  -31.9130  -14.5900   19.1580 O   0  0  0  0  0  0  0  0  0  0  0  0
  -30.2330  -15.3650   20.4390 N   0  0  0  0  0  0  0  0  0  0  0  0
  -29.3780  -15.0870   20.8960 H   0  0  0  0  0  0  0  0  0  0  0  0
  -25.4170  -13.9220   20.2570 C   0  0  0  0  0  0  0  0  0  0  0  0
  -24.3620  -13.1730   20.7070 C   0  0  0  0  0  0  0  0  0  0  0  0
  -24.7720  -11.8090   20.5960 C   0  0  0  0  0  0  0  0  0  0  0  0
  -26.4050  -13.0150   19.9080 N   0  0  0  0  0  0  0  0  0  0  0  0
  -26.0240  -11.7380   20.1680 N   0  0  0  0  0  0  0  0  0  0  0  0
  -24.0240  -10.5650   20.8180 C   0  0  0  0  0  0  0  0  0  0  0  0
  -24.4560   -9.6030   21.7570 C   0  0  0  0  0  3  0  0  0  0  0  0
  -23.7110   -8.4220   21.9660 C   0  0  0  0  0  3  0  0  0  0  0  0
  -22.5200   -8.1960   21.2360 C   0  0  0  0  0  0  0  0  0  0  0  0
  -22.1070   -9.1460   20.2860 C   0  0  0  0  0  3  0  0  0  0  0  0
  -22.8520  -10.3190   20.0750 C   0  0  0  0  0  3  0  0  0  0  0  0
  -21.7450   -7.0680   21.3550 O   0  0  0  0  0  0  0  0  0  0  0  0
  -21.6280   -6.3970   22.5470 C   0  0  0  0  0  0  0  0  0  0  0  0
  -21.1350   -7.0270   23.7100 C   0  0  0  0  0  3  0  0  0  0  0  0
  -20.9650   -6.2820   24.8940 C   0  0  0  0  0  3  0  0  0  0  0  0
  -21.2780   -4.9090   24.9150 C   0  0  0  0  0  0  0  0  0  0  0  0
  -21.7650   -4.2800   23.7560 C   0  0  0  0  0  3  0  0  0  0  0  0
  -21.9360   -5.0220   22.5740 C   0  0  0  0  0  0  0  0  0  0  0  0
  -22.3840   -4.4060   21.4540 F   0  0  0  0  0  0  0  0  0  0  0  0
  -21.1080   -4.1920   26.0500 F   0  0  0  0  0  0  0  0  0  0  0  0
  -23.0110  -13.6860   21.1160 C   0  0  0  0  0  0  0  0  0  0  0  0
  -22.3450  -12.9950   22.0350 N   0  0  0  0  0  0  0  0  0  0  0  0
  -22.5590  -14.7340   20.6550 O   0  0  0  0  0  0  0  0  0  0  0  0
  -22.7240  -12.1460   22.4280 H   0  0  0  0  0  0  0  0  0  0  0  0
  -21.4420  -13.3200   22.3500 H   0  0  0  0  0  0  0  0  0  0  0  0
  -25.6130  -15.2910   20.0920 N   0  0  0  0  0  0  0  0  0  0  0  0
  -24.8190  -15.9180   20.1800 H   0  0  0  0  0  0  0  0  0  0  0  0
  -26.3250  -15.6450   19.4680 H   0  0  0  0  0  0  0  0  0  0  0  0
  -30.0590  -19.6890   17.9490 N   0  0  0  0  0  4  0  0  0  0  0  0
  -29.1810  -19.4030   17.5530 H   0  0  0  0  0  0  0  0  0  0  0  0
  -30.7940  -19.4180   17.3200 H   0  0  0  0  0  0  0  0  0  0  0  0
  -30.0520  -20.6930   18.0070 H   0  0  0  0  0  0  0  0  0  0  0  0
  -30.1360  -21.9130   20.2960 C   0  0  0  0  0  2  0  0  0  0  0  0
  -29.8190  -23.2640   20.9780 C   0  0  0  0  0  2  0  0  0  0  0  0
  -29.2560  -24.3450   20.0300 C   0  0  0  0  0  2  0  0  0  0  0  0
  -28.8990  -25.6540   20.7590 C   0  0  0  0  0  2  0  0  0  0  0  0
  -28.7630  -26.7300   19.8310 O   0  0  0  0  0  0  0  0  0  0  0  0
  -24.6330  -31.5240   23.0950 C   0  0  0  0  0  0  0  0  0  0  0  0
  -27.5590  -27.3850   19.8790 C   0  0  0  0  0  0  0  0  0  0  0  0
  -23.5290  -30.1360   21.3690 C   0  0  0  0  0  3  0  0  0  0  0  0
  -25.0860  -28.7380   19.9110 C   0  0  0  0  0  0  0  0  0  0  0  0
  -26.0310  -30.6410   21.2320 C   0  0  0  0  0  2  0  0  0  0  0  0
  -26.2010  -29.3050   20.5410 C   0  0  0  0  0  0  0  0  0  0  0  0
  -27.4440  -28.6350   20.5230 C   0  0  0  0  0  3  0  0  0  0  0  0
  -26.4310  -26.8200   19.2500 C   0  0  0  0  0  3  0  0  0  0  0  0
  -25.1940  -27.4920   19.2650 C   0  0  0  0  0  3  0  0  0  0  0  0
  -23.7960  -29.5260   19.9670 C   0  0  0  0  0  2  0  0  0  0  0  0
  -24.7480  -30.7810   21.9590 N   0  0  0  0  0  0  0  0  0  0  0  0
  -23.5310  -31.7150   23.6270 O   0  0  0  0  0  0  0  0  0  0  0  0
  -22.9160  -29.0410   22.2720 C   0  0  0  0  0  0  0  0  0  0  0  0
  -21.6040  -28.8060   22.1190 N   0  0  0  0  0  0  0  0  0  0  0  0
  -23.6190  -28.4090   23.0650 O   0  0  0  0  0  0  0  0  0  0  0  0
  -21.0960  -29.3710   21.4530 H   0  0  0  0  0  0  0  0  0  0  0  0
  -18.2800  -27.4500   22.5230 C   0  0  0  0  0  0  0  0  0  0  0  0
  -20.8230  -27.7960   22.8310 C   0  0  0  0  0  3  0  0  0  0  0  0
  -20.9880  -26.4030   22.1810 C   0  0  0  0  0  2  0  0  0  0  0  0
  -19.9070  -26.0910   21.1410 C   0  0  0  0  0  2  0  0  0  0  0  0
  -18.5160  -26.1460   21.7780 C   0  0  0  0  0  2  0  0  0  0  0  0
  -19.3630  -28.2320   23.0020 C   0  0  0  0  0  0  0  0  0  0  0  0
  -19.0900  -29.4530   23.6560 C   0  0  0  0  0  3  0  0  0  0  0  0
  -17.7640  -29.8940   23.8350 C   0  0  0  0  0  3  0  0  0  0  0  0
  -16.6950  -29.1070   23.3720 C   0  0  0  0  0  3  0  0  0  0  0  0
  -16.9540  -27.8880   22.7210 C   0  0  0  0  0  3  0  0  0  0  0  0
  -25.8750  -32.1900   23.7670 C   0  0  0  0  0  3  0  0  0  0  0  0
  -25.4920  -33.5560   24.1470 N   0  0  0  0  0  0  0  0  0  0  0  0
  -25.7790  -34.6520   23.4330 C   0  0  0  0  0  0  0  0  0  0  0  0
  -26.4640  -34.6230   22.4060 O   0  0  0  0  0  0  0  0  0  0  0  0
  -24.8830  -33.6490   24.9460 H   0  0  0  0  0  0  0  0  0  0  0  0
  -23.9590  -36.3610   23.1290 C   0  0  0  0  0  1  0  0  0  0  0  0
  -25.2150  -35.9940   23.9360 C   0  0  0  0  0  3  0  0  0  0  0  0
  -27.2920  -36.9620   24.8200 C   0  0  0  0  0  1  0  0  0  0  0  0
  -26.1910  -37.1040   23.8700 N   0  0  0  0  0  0  0  0  0  0  0  0
  -25.7340  -37.9960   24.0450 H   0  0  0  0  0  0  0  0  0  0  0  0
  -26.4110  -31.3890   25.0160 C   0  0  1  0  0  0  0  0  0  0  0  0
  -25.3150  -31.0520   26.0540 C   0  0  0  0  0  1  0  0  0  0  0  0
  -27.0680  -30.0610   24.5720 C   0  0  0  0  0  1  0  0  0  0  0  0
  -27.5090  -32.2100   25.7330 C   0  0  0  0  0  1  0  0  0  0  0  0
  1  7  2  0
  1  2  1  0
  2  8  1  0
  3  5  1  0
  3  6  1  0
  4  8  1  0
  5 49  1  0
  5  1  1  0
  6 19  1  0
  6  4  1  0
  8  9  1  0
  8 10  1  0
 11 19  1  0
 12 17  1  0
 13 14  1  0
 13 12  1  0
 15 14  1  0
 15 24  1  0
 15 16  1  0
 17 11  1  0
 17 16  1  0
 18 11  2  0
 19 20  1  0
 21 22  2  0
 22 41  1  0
 23 22  1  0
 23 26  1  0
 24 25  1  0
 24 21  1  0
 25 23  2  0
 26 27  1  0
 27 28  2  0
 29 32  1  0
 29 28  1  0
 30 29  2  0
 31 30  1  0
 31 26  2  0
 32 33  1  0
 33 38  2  0
 33 34  1  0
 34 35  2  0
 35 36  1  0
 36 40  1  0
 37 36  2  0
 38 37  1  0
 39 38  1  0
 41 42  1  0
 42 45  1  0
 42 44  1  0
 43 41  2  0
 46 47  1  0
 46 21  1  0
 48 46  1  0
 49 52  1  0
 50 49  1  0
 51 49  1  0
 53  7  1  0
 53 54  1  0
 55 56  1  0
 55 54  1  0
 57 59  1  0
 57 56  1  0
 58 69  2  0
 59 64  1  0
 60 68  1  0
 60 70  1  0
 61 67  1  0
 61 63  1  0
 62 68  1  0
 63 62  1  0
 64 63  2  0
 65 66  1  0
 65 59  2  0
 66 61  2  0
 67 60  1  0
 68 58  1  0
 70 72  2  0
 71 70  1  0
 73 71  1  0
 74 83  2  0
 74 79  1  0
 75 71  1  0
 75 79  1  0
 76 75  1  0
 77 78  1  0
 77 76  1  0
 78 74  1  0
 79 80  2  0
 80 81  1  0
 82 81  2  0
 83 82  1  0
 84 58  1  0
 84 85  1  0
 84 94  1  0
 85 88  1  0
 86 90  1  0
 86 85  1  0
 87 86  2  0
 90 89  1  0
 92 90  1  0
 92 93  1  0
 92 91  1  0
 94 97  1  1
 94 95  1  0
 96 94  1  0
M  ISO  4  11 100  19 100  56 101  57 101
M  END
>  <TORSDO>  (67) 
F 21

>  <SCORE>  (67) 
-11.053

>  <name>  (67) 
67

>  <ligand_id>  (67) 
67

>  <original_smiles>  (67) 
[H]c1c([H])c([H])c2c(c1[H])C([H])([H])C([H])([H])C([H])([H])C2([H])N([H])C(=O)C1([H])N(C(=O)C([H])(N([H])C(=O)C([H])(N([H])C([H])([H])[H])C([H])([H])[H])C(C([H])([H])[H])(C([H])([H])[H])C([H])([H])[H])C([H])([H])c2c([H])c(OC([H])([H])C([H])([H])C([H])([H])C([H])([H])N=C3C([H])([N+]([H])([H])[H])C([H])([H])C([H])(N([H])C(=O)N4C([H])([H])C([H])([H])C([H])([H])C([H])(n5nc(-c6c([H])c([H])c(Oc7c([H])c([H])c(F)c([H])c7F)c([H])c6[H])c(C(=O)N([H])[H])c5N([H])[H])C4([H])[H])C([H])([H])[N+]([H])([H])C3([H])[H])c([H])c([H])c2C1([H])[H]

>  <smiles>  (67) 
[H]c1c([H])c([H])c2c(c1[H])C([H])([H])C([H])([H])C([H])([H])C2([H])N([H])C(=O)C1([H])N(C(=O)C([H])(N([H])C(=O)C([H])(N([H])C([H])([H])[H])C([H])([H])[H])C(C([H])([H])[H])(C([H])([H])[H])C([H])([H])[H])C([H])([H])c2c([H])c(OC([H])([H])C([H])([H])C([H])([H])C([H])([H])N=C3C([H])([N+]([H])([H])[H])C([H])([H])C([H])(N([H])C(=O)N4C([H])([H])C([H])([H])C([H])([H])C([H])(n5nc(-c6c([H])c([H])c(Oc7c([H])c([H])c(F)c([H])c7F)c([H])c6[H])c(C(=O)N([H])[H])c5N([H])[H])C4([H])[H])C([H])([H])[N+]([H])([H])C3([H])[H])c([H])c([H])c2C1([H])[H]

$$$$
68:0:0
     RDKit          3D

 97105  0  0  1  0  0  0  0  0999 V2000
  -31.2190  -19.6410   21.5710 C   0  0  0  0  0  2  0  0  0  0  0  0
  -30.1420  -20.6610   21.7240 N   0  0  0  0  0  4  0  0  0  0  0  0
  -29.3850  -20.4370   21.1010 H   0  0  0  0  0  0  0  0  0  0  0  0
  -29.7960  -20.6130   22.6690 H   0  0  0  0  0  0  0  0  0  0  0  0
  -30.5450  -22.0740   21.4580 C   0  0  0  0  0  2  0  0  0  0  0  0
  -29.3290  -23.0420   21.4160 C   0  0  0  0  0  2  0  0  0  0  0  0
  -29.6380  -24.5280   21.0580 C   0  0  0  0  0  2  0  0  0  0  0  0
  -28.3460  -25.3340   20.7570 C   0  0  0  0  0  2  0  0  0  0  0  0
  -28.5170  -26.7460   20.4950 O   0  0  0  0  0  0  0  0  0  0  0  0
  -24.5450  -31.9680   23.3000 C   0  0  0  0  0  0  0  0  0  0  0  0
  -27.3410  -27.4810   20.4100 C   0  0  0  0  0  0  0  0  0  0  0  0
  -23.3980  -30.4930   21.6830 C   0  0  0  0  0  3  0  0  0  0  0  0
  -24.9120  -28.9480   20.3300 C   0  0  0  0  0  0  0  0  0  0  0  0
  -25.9200  -30.9010   21.5130 C   0  0  0  0  0  2  0  0  0  0  0  0
  -26.0530  -29.5140   20.9150 C   0  0  0  0  0  0  0  0  0  0  0  0
  -27.2720  -28.7900   20.9470 C   0  0  0  0  0  3  0  0  0  0  0  0
  -26.1770  -26.9430   19.8050 C   0  0  0  0  0  3  0  0  0  0  0  0
  -24.9700  -27.6630   19.7700 C   0  0  0  0  0  3  0  0  0  0  0  0
  -23.6480  -29.7790   20.3280 C   0  0  0  0  0  2  0  0  0  0  0  0
  -24.6370  -31.1370   22.2240 N   0  0  0  0  0  0  0  0  0  0  0  0
  -23.4490  -32.2270   23.8200 O   0  0  0  0  0  0  0  0  0  0  0  0
  -22.7570  -29.4820   22.6630 C   0  0  0  0  0  0  0  0  0  0  0  0
  -21.4460  -29.2380   22.5060 N   0  0  0  0  0  0  0  0  0  0  0  0
  -23.4410  -28.9160   23.5180 O   0  0  0  0  0  0  0  0  0  0  0  0
  -20.9510  -29.7490   21.7880 H   0  0  0  0  0  0  0  0  0  0  0  0
  -18.1170  -27.9070   22.9360 C   0  0  0  0  0  0  0  0  0  0  0  0
  -20.6460  -28.3000   23.2930 C   0  0  0  0  0  3  0  0  0  0  0  0
  -20.8390  -26.8470   22.7970 C   0  0  0  0  0  2  0  0  0  0  0  0
  -19.7960  -26.4240   21.7580 C   0  0  0  0  0  2  0  0  0  0  0  0
  -18.3820  -26.5350   22.3400 C   0  0  0  0  0  2  0  0  0  0  0  0
  -19.1800  -28.7410   23.3720 C   0  0  0  0  0  0  0  0  0  0  0  0
  -18.8790  -30.0200   23.8900 C   0  0  0  0  0  3  0  0  0  0  0  0
  -17.5460  -30.4650   23.9760 C   0  0  0  0  0  3  0  0  0  0  0  0
  -16.4960  -29.6290   23.5620 C   0  0  0  0  0  3  0  0  0  0  0  0
  -16.7830  -28.3520   23.0460 C   0  0  0  0  0  3  0  0  0  0  0  0
  -25.8040  -32.6530   23.9150 C   0  0  0  0  0  3  0  0  0  0  0  0
  -25.4560  -34.0520   24.1970 N   0  0  0  0  0  0  0  0  0  0  0  0
  -25.7840  -35.0890   23.4160 C   0  0  0  0  0  0  0  0  0  0  0  0
  -26.4790  -34.9700   22.4030 O   0  0  0  0  0  0  0  0  0  0  0  0
  -24.8390  -34.2140   24.9800 H   0  0  0  0  0  0  0  0  0  0  0  0
  -24.0250  -36.8280   22.9670 C   0  0  0  0  0  1  0  0  0  0  0  0
  -25.2540  -36.4760   23.8210 C   0  0  0  0  0  3  0  0  0  0  0  0
  -27.3480  -37.4340   24.6750 C   0  0  0  0  0  1  0  0  0  0  0  0
  -26.2640  -37.5490   23.7010 N   0  0  0  0  0  0  0  0  0  0  0  0
  -25.8350  -38.4630   23.8130 H   0  0  0  0  0  0  0  0  0  0  0  0
  -26.3260  -31.9340   25.2180 C   0  0  1  0  0  0  0  0  0  0  0  0
  -25.2250  -31.6770   26.2710 C   0  0  0  0  0  1  0  0  0  0  0  0
  -26.9730  -30.5740   24.8670 C   0  0  0  0  0  1  0  0  0  0  0  0
  -27.4320  -32.7870   25.8830 C   0  0  0  0  0  1  0  0  0  0  0  0
  -30.7650  -18.1640   21.8350 C   0  0  0  0  0  2  0  0  0  0  0  0
  -30.3500  -17.3280   20.5810 C   0  0  0  0  0  3  0  0  0  0  0  0
  -30.7590  -14.8360   20.5020 C   0  0  0  0  0  0  0  0  0  0  0  0
  -30.4390  -12.7260   19.2750 C   0  0  0  0  0  2  0  0  0  0  0  0
  -29.5060  -12.9820   18.0720 C   0  0  0  0  0  2  0  0  0  0  0  0
  -28.0280  -12.8460   18.4890 C   0  0  0  0  0  2  0  0  0  0  0  0
  -27.6850  -13.6140   19.7950 C   0  0  0  0  0  3  0  0  0  0  0  0
  -28.7440  -13.3590   20.8950 C   0  0  0  0  0  2  0  0  0  0  0  0
  -30.0680  -13.6750   20.3390 N   0  0  0  0  0  0  0  0  0  0  0  0
  -31.9100  -14.9820   20.0880 O   0  0  0  0  0  0  0  0  0  0  0  0
  -30.0390  -15.9080   20.9060 N   0  0  0  0  0  0  0  0  0  0  0  0
  -29.1180  -15.7080   21.2640 H   0  0  0  0  0  0  0  0  0  0  0  0
  -25.2520  -14.1680   20.4390 C   0  0  0  0  0  0  0  0  0  0  0  0
  -24.1940  -13.3780   20.7880 C   0  0  0  0  0  0  0  0  0  0  0  0
  -24.6880  -12.0380   20.7880 C   0  0  0  0  0  0  0  0  0  0  0  0
  -26.3280  -13.3130   20.2520 N   0  0  0  0  0  0  0  0  0  0  0  0
  -25.9890  -12.0260   20.5200 N   0  0  0  0  0  0  0  0  0  0  0  0
  -23.9850  -10.7630   20.9760 C   0  0  0  0  0  0  0  0  0  0  0  0
  -24.3830   -9.8410   21.9690 C   0  0  0  0  0  3  0  0  0  0  0  0
  -23.6790   -8.6300   22.1420 C   0  0  0  0  0  3  0  0  0  0  0  0
  -22.5640   -8.3330   21.3220 C   0  0  0  0  0  0  0  0  0  0  0  0
  -22.1850   -9.2460   20.3230 C   0  0  0  0  0  3  0  0  0  0  0  0
  -22.8890  -10.4490   20.1480 C   0  0  0  0  0  3  0  0  0  0  0  0
  -21.8370   -7.1710   21.4030 O   0  0  0  0  0  0  0  0  0  0  0  0
  -21.6950   -6.4900   22.5840 C   0  0  0  0  0  0  0  0  0  0  0  0
  -21.1410   -7.0960   23.7320 C   0  0  0  0  0  3  0  0  0  0  0  0
  -20.9520   -6.3400   24.9060 C   0  0  0  0  0  3  0  0  0  0  0  0
  -21.3050   -4.9770   24.9310 C   0  0  0  0  0  0  0  0  0  0  0  0
  -21.8510   -4.3700   23.7870 C   0  0  0  0  0  3  0  0  0  0  0  0
  -22.0440   -5.1240   22.6160 C   0  0  0  0  0  0  0  0  0  0  0  0
  -22.5520   -4.5300   21.5090 F   0  0  0  0  0  0  0  0  0  0  0  0
  -21.1140   -4.2480   26.0550 F   0  0  0  0  0  0  0  0  0  0  0  0
  -22.7820  -13.8290   21.0270 C   0  0  0  0  0  0  0  0  0  0  0  0
  -22.0540  -13.1350   21.8950 N   0  0  0  0  0  0  0  0  0  0  0  0
  -22.3340  -14.8370   20.4830 O   0  0  0  0  0  0  0  0  0  0  0  0
  -22.4290  -12.3200   22.3580 H   0  0  0  0  0  0  0  0  0  0  0  0
  -21.1070  -13.4210   22.0980 H   0  0  0  0  0  0  0  0  0  0  0  0
  -25.3830  -15.5380   20.2510 N   0  0  0  0  0  0  0  0  0  0  0  0
  -24.6010  -16.1280   20.5120 H   0  0  0  0  0  0  0  0  0  0  0  0
  -26.2740  -15.9740   20.4320 H   0  0  0  0  0  0  0  0  0  0  0  0
  -27.8870  -18.1240   20.5930 C   0  0  0  0  0  2  0  0  0  0  0  0
  -28.8800  -17.2440   18.4500 C   0  0  0  0  0  2  0  0  0  0  0  0
  -26.7470  -18.7590   19.7710 C   0  0  0  0  0  2  0  0  0  0  0  0
  -27.7120  -17.8910   17.6800 C   0  0  0  0  0  2  0  0  0  0  0  0
  -29.1890  -17.9820   19.7750 C   0  0  0  0  0  3  0  0  0  0  0  0
  -26.5030  -18.0020   18.5250 N   0  0  0  0  0  4  0  0  0  0  0  0
  -25.7800  -18.4700   18.0010 H   0  0  0  0  0  0  0  0  0  0  0  0
  -26.1520  -17.0860   18.7530 H   0  0  0  0  0  0  0  0  0  0  0  0
  1  2  1  0
  1 50  1  0
  2  4  1  0
  3  2  1  0
  5  2  1  0
  6  5  1  0
  7  6  1  0
  8  7  1  0
  9  8  1  0
 10 21  2  0
 11  9  1  0
 11 16  1  0
 12 20  1  0
 12 22  1  0
 13 15  1  0
 14 20  1  0
 15 16  2  0
 15 14  1  0
 17 11  2  0
 18 17  1  0
 18 13  2  0
 19 13  1  0
 19 12  1  0
 20 10  1  0
 22 24  2  0
 23 22  1  0
 25 23  1  0
 26 35  2  0
 26 31  1  0
 27 23  1  0
 27 31  1  0
 28 27  1  0
 29 30  1  0
 29 28  1  0
 30 26  1  0
 31 32  2  0
 32 33  1  0
 34 33  2  0
 35 34  1  0
 36 10  1  0
 36 37  1  0
 36 46  1  0
 37 40  1  0
 38 42  1  0
 38 37  1  0
 39 38  2  0
 42 41  1  0
 44 45  1  0
 44 42  1  0
 44 43  1  0
 46 49  1  1
 46 47  1  0
 48 46  1  0
 51 60  1  0
 51 50  1  0
 52 60  1  0
 53 58  1  0
 54 55  1  0
 54 53  1  0
 56 55  1  0
 56 65  1  0
 56 57  1  0
 58 52  1  0
 58 57  1  0
 59 52  2  0
 60 61  1  0
 62 63  2  0
 63 82  1  0
 64 63  1  0
 64 67  1  0
 65 62  1  0
 65 66  1  0
 66 64  2  0
 67 68  1  0
 68 69  2  0
 70 73  1  0
 70 69  1  0
 71 70  2  0
 72 71  1  0
 72 67  2  0
 73 74  1  0
 74 79  2  0
 74 75  1  0
 75 76  2  0
 76 77  1  0
 77 81  1  0
 78 77  2  0
 79 78  1  0
 80 79  1  0
 82 83  1  0
 83 86  1  0
 83 85  1  0
 84 82  2  0
 87 89  1  0
 87 62  1  0
 87 88  1  0
 91 94  1  0
 92 90  1  0
 93 91  1  0
 93 95  1  0
 94 51  1  0
 94 90  1  0
 95 97  1  0
 95 92  1  0
 96 95  1  0
M  ISO  4   8 101   9 101  52 100  60 100
M  END
>  <TORSDO>  (68) 
F 24

>  <SCORE>  (68) 
-11.357

>  <name>  (68) 
68

>  <ligand_id>  (68) 
68

>  <original_smiles>  (68) 
[H]c1c([H])c([H])c2c(c1[H])C([H])([H])C([H])([H])C([H])([H])C2([H])N([H])C(=O)C1([H])N(C(=O)C([H])(N([H])C(=O)C([H])(N([H])C([H])([H])[H])C([H])([H])[H])C(C([H])([H])[H])(C([H])([H])[H])C([H])([H])[H])C([H])([H])c2c([H])c(OC([H])([H])C([H])([H])C([H])([H])C([H])([H])[N+]([H])([H])C([H])([H])C([H])([H])C([H])(N([H])C(=O)N3C([H])([H])C([H])([H])C([H])([H])C([H])(n4nc(-c5c([H])c([H])c(Oc6c([H])c([H])c(F)c([H])c6F)c([H])c5[H])c(C(=O)N([H])[H])c4N([H])[H])C3([H])[H])C3([H])C([H])([H])C([H])([H])[N+]([H])([H])C([H])([H])C3([H])[H])c([H])c([H])c2C1([H])[H]

>  <smiles>  (68) 
[H]c1c([H])c([H])c2c(c1[H])C([H])([H])C([H])([H])C([H])([H])C2([H])N([H])C(=O)C1([H])N(C(=O)C([H])(N([H])C(=O)C([H])(N([H])C([H])([H])[H])C([H])([H])[H])C(C([H])([H])[H])(C([H])([H])[H])C([H])([H])[H])C([H])([H])c2c([H])c(OC([H])([H])C([H])([H])C([H])([H])C([H])([H])[N+]([H])([H])C([H])([H])C([H])([H])C([H])(N([H])C(=O)N3C([H])([H])C([H])([H])C([H])([H])C([H])(n4nc(-c5c([H])c([H])c(Oc6c([H])c([H])c(F)c([H])c6F)c([H])c5[H])c(C(=O)N([H])[H])c4N([H])[H])C3([H])[H])C3([H])C([H])([H])C([H])([H])[N+]([H])([H])C([H])([H])C3([H])[H])c([H])c([H])c2C1([H])[H]

$$$$
69:0:0
     RDKit          3D

 97105  0  0  1  0  0  0  0  0999 V2000
  -31.0050  -21.3770   17.7010 C   0  0  0  0  0  2  0  0  0  0  0  0
  -28.5020  -18.5230   18.2070 C   0  0  0  0  0  2  0  0  0  0  0  0
  -29.0240  -17.4200   19.1390 C   0  0  0  0  0  2  0  0  0  0  0  0
  -29.8680  -19.3300   20.7060 C   0  0  0  0  0  2  0  0  0  0  0  0
  -29.6320  -19.3270   17.5400 C   0  0  0  0  0  2  0  0  0  0  0  0
  -30.8670  -19.8230   19.6360 C   0  0  0  0  0  2  0  0  0  0  0  0
  -29.3990  -17.8540   20.5830 C   0  0  0  0  0  3  0  0  0  0  0  0
  -30.1860  -20.3730   18.4320 N   0  0  1  0  0  4  0  0  0  0  0  0
  -29.3860  -20.8920   18.7600 H   0  0  0  0  0  0  0  0  0  0  0  0
  -30.7410  -14.5240   20.7060 C   0  0  0  0  0  0  0  0  0  0  0  0
  -30.4400  -12.3900   19.5220 C   0  0  0  0  0  2  0  0  0  0  0  0
  -29.5390  -12.6070   18.2880 C   0  0  0  0  0  2  0  0  0  0  0  0
  -28.0520  -12.4620   18.6660 C   0  0  0  0  0  2  0  0  0  0  0  0
  -27.6710  -13.3020   19.9140 C   0  0  0  0  0  3  0  0  0  0  0  0
  -28.6900  -13.0830   21.0570 C   0  0  0  0  0  2  0  0  0  0  0  0
  -30.0360  -13.3750   20.5360 N   0  0  0  0  0  0  0  0  0  0  0  0
  -31.8960  -14.6550   20.2880 O   0  0  0  0  0  0  0  0  0  0  0  0
  -30.4210  -16.8460   21.1390 C   0  0  0  0  0  0  0  0  0  0  0  0
  -30.0160  -15.5640   21.1470 N   0  0  0  0  0  0  0  0  0  0  0  0
  -31.5520  -17.2250   21.4640 O   0  0  0  0  0  0  0  0  0  0  0  0
  -29.0270  -15.3890   21.1990 H   0  0  0  0  0  0  0  0  0  0  0  0
  -25.2430  -13.8970   20.5230 C   0  0  0  0  0  0  0  0  0  0  0  0
  -24.1650  -13.1180   20.8540 C   0  0  0  0  0  0  0  0  0  0  0  0
  -24.6360  -11.7700   20.8500 C   0  0  0  0  0  0  0  0  0  0  0  0
  -26.3030  -13.0200   20.3430 N   0  0  0  0  0  0  0  0  0  0  0  0
  -25.9370  -11.7360   20.5950 N   0  0  0  0  0  0  0  0  0  0  0  0
  -23.9130  -10.5020   21.0170 C   0  0  0  0  0  0  0  0  0  0  0  0
  -24.3280   -9.5360   21.9600 C   0  0  0  0  0  3  0  0  0  0  0  0
  -23.6080   -8.3320   22.1160 C   0  0  0  0  0  3  0  0  0  0  0  0
  -22.4570   -8.0880   21.3300 C   0  0  0  0  0  0  0  0  0  0  0  0
  -22.0600   -9.0430   20.3780 C   0  0  0  0  0  3  0  0  0  0  0  0
  -22.7820  -10.2380   20.2190 C   0  0  0  0  0  3  0  0  0  0  0  0
  -21.7080   -6.9360   21.3960 O   0  0  0  0  0  0  0  0  0  0  0  0
  -21.6460   -6.1840   22.5410 C   0  0  0  0  0  0  0  0  0  0  0  0
  -21.2070   -6.7280   23.7680 C   0  0  0  0  0  3  0  0  0  0  0  0
  -21.0920   -5.9010   24.9040 C   0  0  0  0  0  3  0  0  0  0  0  0
  -21.4050   -4.5320   24.8120 C   0  0  0  0  0  0  0  0  0  0  0  0
  -21.8380   -3.9880   23.5890 C   0  0  0  0  0  3  0  0  0  0  0  0
  -21.9540   -4.8110   22.4570 C   0  0  0  0  0  0  0  0  0  0  0  0
  -22.3510   -4.2790   21.2760 F   0  0  0  0  0  0  0  0  0  0  0  0
  -21.2870   -3.7360   25.9000 F   0  0  0  0  0  0  0  0  0  0  0  0
  -22.7540  -13.5870   21.0690 C   0  0  0  0  0  0  0  0  0  0  0  0
  -21.9980  -12.8830   21.9050 N   0  0  0  0  0  0  0  0  0  0  0  0
  -22.3300  -14.6060   20.5300 O   0  0  0  0  0  0  0  0  0  0  0  0
  -22.3550  -12.0580   22.3600 H   0  0  0  0  0  0  0  0  0  0  0  0
  -21.0490  -13.1750   22.0920 H   0  0  0  0  0  0  0  0  0  0  0  0
  -25.4080  -15.2650   20.3400 N   0  0  0  0  0  0  0  0  0  0  0  0
  -24.6310  -15.9150   20.3830 H   0  0  0  0  0  0  0  0  0  0  0  0
  -26.2600  -15.6920   20.0010 H   0  0  0  0  0  0  0  0  0  0  0  0
  -30.5790  -22.8140   18.0510 C   0  0  0  0  0  2  0  0  0  0  0  0
  -31.0130  -23.2470   19.4640 C   0  0  0  0  0  2  0  0  0  0  0  0
  -30.7890  -24.7300   19.7350 C   0  0  0  0  0  2  0  0  0  0  0  0
  -31.1560  -25.1410   21.1740 C   0  0  0  0  0  2  0  0  0  0  0  0
  -31.3690  -26.6510   21.3760 C   0  0  0  0  0  2  0  0  0  0  0  0
  -30.0960  -27.5160   21.2940 C   0  0  0  0  0  2  0  0  0  0  0  0
  -29.5380  -27.6890   19.8680 C   0  0  0  0  0  2  0  0  0  0  0  0
  -28.3090  -26.9610   19.7160 O   0  0  0  0  0  0  0  0  0  0  0  0
  -24.5450  -31.9720   23.1180 C   0  0  0  0  0  0  0  0  0  0  0  0
  -27.1300  -27.6470   19.8860 C   0  0  0  0  0  0  0  0  0  0  0  0
  -23.2790  -30.5880   21.4960 C   0  0  0  0  0  3  0  0  0  0  0  0
  -24.6880  -29.0650   20.0150 C   0  0  0  0  0  0  0  0  0  0  0  0
  -25.7780  -30.9770   21.2070 C   0  0  0  0  0  2  0  0  0  0  0  0
  -25.8460  -29.6080   20.5770 C   0  0  0  0  0  0  0  0  0  0  0  0
  -27.0540  -28.8930   20.5460 C   0  0  0  0  0  3  0  0  0  0  0  0
  -25.9490  -27.0950   19.3460 C   0  0  0  0  0  3  0  0  0  0  0  0
  -24.7260  -27.7950   19.4120 C   0  0  0  0  0  3  0  0  0  0  0  0
  -23.4370  -29.9100   20.1070 C   0  0  0  0  0  2  0  0  0  0  0  0
  -24.5540  -31.1940   22.0010 N   0  0  0  0  0  0  0  0  0  0  0  0
  -23.4850  -32.2350   23.7030 O   0  0  0  0  0  0  0  0  0  0  0  0
  -22.6680  -29.5580   22.4710 C   0  0  0  0  0  0  0  0  0  0  0  0
  -21.3430  -29.3650   22.3730 N   0  0  0  0  0  0  0  0  0  0  0  0
  -23.3770  -28.9300   23.2640 O   0  0  0  0  0  0  0  0  0  0  0  0
  -20.8340  -29.9200   21.6980 H   0  0  0  0  0  0  0  0  0  0  0  0
  -17.9920  -28.1490   22.9270 C   0  0  0  0  0  0  0  0  0  0  0  0
  -20.5510  -28.4200   23.1570 C   0  0  0  0  0  3  0  0  0  0  0  0
  -20.6550  -26.9940   22.5690 C   0  0  0  0  0  2  0  0  0  0  0  0
  -19.5340  -26.6710   21.5750 C   0  0  0  0  0  2  0  0  0  0  0  0
  -18.1630  -26.8060   22.2420 C   0  0  0  0  0  2  0  0  0  0  0  0
  -19.1130  -28.9170   23.3420 C   0  0  0  0  0  0  0  0  0  0  0  0
  -18.8910  -30.1780   23.9370 C   0  0  0  0  0  3  0  0  0  0  0  0
  -17.5850  -30.6680   24.1220 C   0  0  0  0  0  3  0  0  0  0  0  0
  -16.4790  -29.8930   23.7240 C   0  0  0  0  0  3  0  0  0  0  0  0
  -16.6850  -28.6360   23.1300 C   0  0  0  0  0  3  0  0  0  0  0  0
  -25.8570  -32.5890   23.7020 C   0  0  0  0  0  3  0  0  0  0  0  0
  -25.5580  -33.9730   24.0870 N   0  0  0  0  0  0  0  0  0  0  0  0
  -25.8730  -35.0480   23.3540 C   0  0  0  0  0  0  0  0  0  0  0  0
  -26.5140  -34.9780   22.3020 O   0  0  0  0  0  0  0  0  0  0  0  0
  -24.9820  -34.1000   24.9050 H   0  0  0  0  0  0  0  0  0  0  0  0
  -24.1480  -36.8530   23.0770 C   0  0  0  0  0  1  0  0  0  0  0  0
  -25.3970  -36.4210   23.8640 C   0  0  0  0  0  3  0  0  0  0  0  0
  -27.5510  -37.2660   24.6860 C   0  0  0  0  0  1  0  0  0  0  0  0
  -26.4310  -37.4720   23.7700 N   0  0  0  0  0  0  0  0  0  0  0  0
  -26.0330  -38.3900   23.9510 H   0  0  0  0  0  0  0  0  0  0  0  0
  -26.4340  -31.7830   24.9290 C   0  0  1  0  0  0  0  0  0  0  0  0
  -25.3910  -31.4920   26.0310 C   0  0  0  0  0  1  0  0  0  0  0  0
  -27.0170  -30.4310   24.4580 C   0  0  0  0  0  1  0  0  0  0  0  0
  -27.6000  -32.5700   25.5700 C   0  0  0  0  0  1  0  0  0  0  0  0
  1 50  1  0
  1  8  1  0
  2  3  1  0
  3  7  1  0
  5  2  1  0
  5  8  1  0
  6  4  1  0
  7  4  1  0
  7 18  1  0
  8  9  1  1
  8  6  1  0
 10 19  1  0
 11 16  1  0
 12 13  1  0
 12 11  1  0
 14 13  1  0
 14 25  1  0
 14 15  1  0
 16 10  1  0
 16 15  1  0
 17 10  2  0
 18 19  1  0
 18 20  2  0
 19 21  1  0
 22 23  2  0
 23 42  1  0
 24 23  1  0
 24 27  1  0
 25 22  1  0
 25 26  1  0
 26 24  2  0
 27 28  1  0
 28 29  2  0
 30 33  1  0
 30 29  1  0
 31 30  2  0
 32 31  1  0
 32 27  2  0
 33 34  1  0
 34 35  1  0
 35 36  2  0
 37 36  1  0
 37 41  1  0
 38 37  2  0
 39 34  2  0
 39 38  1  0
 40 39  1  0
 42 43  1  0
 43 46  1  0
 43 45  1  0
 44 42  2  0
 47 48  1  0
 47 22  1  0
 49 47  1  0
 50 51  1  0
 51 52  1  0
 52 53  1  0
 53 54  1  0
 55 54  1  0
 56 55  1  0
 57 56  1  0
 57 59  1  0
 58 69  2  0
 59 64  1  0
 60 68  1  0
 60 70  1  0
 61 67  1  0
 61 63  1  0
 62 68  1  0
 63 62  1  0
 64 63  2  0
 65 66  1  0
 65 59  2  0
 66 61  2  0
 67 60  1  0
 68 58  1  0
 70 72  2  0
 71 70  1  0
 73 71  1  0
 74 83  2  0
 74 79  1  0
 75 71  1  0
 75 79  1  0
 76 75  1  0
 77 78  1  0
 77 76  1  0
 78 74  1  0
 79 80  2  0
 80 81  1  0
 82 81  2  0
 83 82  1  0
 84 58  1  0
 84 85  1  0
 84 94  1  0
 85 88  1  0
 86 90  1  0
 86 85  1  0
 87 86  2  0
 90 89  1  0
 92 90  1  0
 92 93  1  0
 92 91  1  0
 94 97  1  1
 94 95  1  0
 96 94  1  0
M  ISO  4  10 100  19 100  56 101  57 101
M  END
>  <TORSDO>  (69) 
F 24

>  <SCORE>  (69) 
-12.769

>  <name>  (69) 
69

>  <ligand_id>  (69) 
69

>  <original_smiles>  (69) 
[H]c1c([H])c([H])c2c(c1[H])C([H])([H])C([H])([H])C([H])([H])C2([H])N([H])C(=O)C1([H])N(C(=O)C([H])(N([H])C(=O)C([H])(N([H])C([H])([H])[H])C([H])([H])[H])C(C([H])([H])[H])(C([H])([H])[H])C([H])([H])[H])C([H])([H])c2c([H])c(OC([H])([H])C([H])([H])C([H])([H])C([H])([H])C([H])([H])C([H])([H])C([H])([H])C([H])([H])[N+]3([H])C([H])([H])C([H])([H])C([H])([H])C([H])(C(=O)N([H])C(=O)N4C([H])([H])C([H])([H])C([H])([H])C([H])(n5nc(-c6c([H])c([H])c(Oc7c([H])c([H])c(F)c([H])c7F)c([H])c6[H])c(C(=O)N([H])[H])c5N([H])[H])C4([H])[H])C([H])([H])C3([H])[H])c([H])c([H])c2C1([H])[H]

>  <smiles>  (69) 
[H]c1c([H])c([H])c2c(c1[H])C([H])([H])C([H])([H])C([H])([H])C2([H])N([H])C(=O)C1([H])N(C(=O)C([H])(N([H])C(=O)C([H])(N([H])C([H])([H])[H])C([H])([H])[H])C(C([H])([H])[H])(C([H])([H])[H])C([H])([H])[H])C([H])([H])c2c([H])c(OC([H])([H])C([H])([H])C([H])([H])C([H])([H])C([H])([H])C([H])([H])C([H])([H])C([H])([H])[N+]3([H])C([H])([H])C([H])([H])C([H])([H])C([H])(C(=O)N([H])C(=O)N4C([H])([H])C([H])([H])C([H])([H])C([H])(n5nc(-c6c([H])c([H])c(Oc7c([H])c([H])c(F)c([H])c7F)c([H])c6[H])c(C(=O)N([H])[H])c5N([H])[H])C4([H])[H])C([H])([H])C3([H])[H])c([H])c([H])c2C1([H])[H]

$$$$
70:0:0
     RDKit          3D

 91 98  0  0  1  0  0  0  0  0999 V2000
  -27.2340  -22.3380   21.2550 C   0  0  0  0  0  2  0  0  0  0  0  0
  -28.1200  -21.3530   20.6170 N   0  0  0  0  0  4  0  0  0  0  0  0
  -29.0210  -21.5760   21.0220 H   0  0  0  0  0  0  0  0  0  0  0  0
  -28.1730  -21.5350   19.6300 H   0  0  0  0  0  0  0  0  0  0  0  0
  -27.8310  -19.9320   20.8730 C   0  0  0  0  0  2  0  0  0  0  0  0
  -29.0050  -19.0780   20.3730 C   0  0  0  0  0  2  0  0  0  0  0  0
  -28.8940  -17.6020   20.7640 C   0  0  0  0  0  2  0  0  0  0  0  0
  -30.1860  -16.8440   20.4170 C   0  0  0  0  0  2  0  0  0  0  0  0
  -30.7520  -14.4630   20.0860 C   0  0  0  0  0  0  0  0  0  0  0  0
  -30.4600  -12.2830   18.9870 C   0  0  0  0  0  2  0  0  0  0  0  0
  -29.4580  -12.4530   17.8280 C   0  0  0  0  0  2  0  0  0  0  0  0
  -28.0050  -12.3200   18.3230 C   0  0  0  0  0  2  0  0  0  0  0  0
  -27.7190  -13.1840   19.5810 C   0  0  0  0  0  3  0  0  0  0  0  0
  -28.8170  -12.9600   20.6430 C   0  0  0  0  0  2  0  0  0  0  0  0
  -30.1170  -13.2660   20.0220 N   0  0  0  0  0  0  0  0  0  0  0  0
  -31.8200  -14.7130   19.5130 O   0  0  0  0  0  0  0  0  0  0  0  0
  -30.0320  -15.4210   20.6760 N   0  0  0  0  0  0  0  0  0  0  0  0
  -29.1820  -15.1240   21.1340 H   0  0  0  0  0  0  0  0  0  0  0  0
  -25.3570  -13.8080   20.4000 C   0  0  0  0  0  0  0  0  0  0  0  0
  -24.3020  -13.0430   20.8150 C   0  0  0  0  0  0  0  0  0  0  0  0
  -24.7520  -11.6870   20.7560 C   0  0  0  0  0  0  0  0  0  0  0  0
  -26.3840  -12.9220   20.1130 N   0  0  0  0  0  0  0  0  0  0  0  0
  -26.0240  -11.6410   20.3810 N   0  0  0  0  0  0  0  0  0  0  0  0
  -24.0310  -10.4280   20.9720 C   0  0  0  0  0  0  0  0  0  0  0  0
  -24.4650   -9.4870   21.9330 C   0  0  0  0  0  3  0  0  0  0  0  0
  -23.7480   -8.2890   22.1380 C   0  0  0  0  0  3  0  0  0  0  0  0
  -22.5820   -8.0220   21.3790 C   0  0  0  0  0  0  0  0  0  0  0  0
  -22.1680   -8.9510   20.4080 C   0  0  0  0  0  3  0  0  0  0  0  0
  -22.8860  -10.1400   20.2020 C   0  0  0  0  0  3  0  0  0  0  0  0
  -21.8370   -6.8720   21.4890 O   0  0  0  0  0  0  0  0  0  0  0  0
  -21.7310   -6.1980   22.6770 C   0  0  0  0  0  0  0  0  0  0  0  0
  -21.2300   -6.8160   23.8450 C   0  0  0  0  0  3  0  0  0  0  0  0
  -21.0700   -6.0650   25.0280 C   0  0  0  0  0  3  0  0  0  0  0  0
  -21.4040   -4.6970   25.0430 C   0  0  0  0  0  0  0  0  0  0  0  0
  -21.8980   -4.0770   23.8820 C   0  0  0  0  0  3  0  0  0  0  0  0
  -22.0590   -4.8270   22.7020 C   0  0  0  0  0  0  0  0  0  0  0  0
  -22.5140   -4.2210   21.5790 F   0  0  0  0  0  0  0  0  0  0  0  0
  -21.2450   -3.9730   26.1770 F   0  0  0  0  0  0  0  0  0  0  0  0
  -22.9190  -13.5240   21.1610 C   0  0  0  0  0  0  0  0  0  0  0  0
  -22.2370  -12.8280   22.0640 N   0  0  0  0  0  0  0  0  0  0  0  0
  -22.4600  -14.5530   20.6670 O   0  0  0  0  0  0  0  0  0  0  0  0
  -22.6210  -11.9940   22.4830 H   0  0  0  0  0  0  0  0  0  0  0  0
  -21.3140  -13.1370   22.3330 H   0  0  0  0  0  0  0  0  0  0  0  0
  -25.5260  -15.1810   20.2230 N   0  0  0  0  0  0  0  0  0  0  0  0
  -24.7730  -15.8440   20.3750 H   0  0  0  0  0  0  0  0  0  0  0  0
  -26.3650  -15.6040   19.8520 H   0  0  0  0  0  0  0  0  0  0  0  0
  -28.1790  -23.4730   21.6230 C   0  0  0  0  0  0  0  0  0  0  0  0
  -29.2870  -23.2290   22.1180 O   0  0  0  0  0  0  0  0  0  0  0  0
  -27.7570  -24.8990   21.2980 C   0  0  0  0  0  2  0  0  0  0  0  0
  -28.5280  -25.4660   20.0850 C   0  0  0  0  0  2  0  0  0  0  0  0
  -28.5550  -26.8920   20.0960 O   0  0  0  0  0  0  0  0  0  0  0  0
  -24.6030  -31.8530   23.2510 C   0  0  0  0  0  0  0  0  0  0  0  0
  -27.3500  -27.5530   20.0910 C   0  0  0  0  0  0  0  0  0  0  0  0
  -23.4250  -30.4370   21.6010 C   0  0  0  0  0  3  0  0  0  0  0  0
  -24.9100  -28.9650   20.1500 C   0  0  0  0  0  0  0  0  0  0  0  0
  -25.9350  -30.8780   21.3890 C   0  0  0  0  0  2  0  0  0  0  0  0
  -26.0550  -29.5230   20.7310 C   0  0  0  0  0  0  0  0  0  0  0  0
  -27.2800  -28.8250   20.6980 C   0  0  0  0  0  3  0  0  0  0  0  0
  -26.1860  -26.9970   19.5130 C   0  0  0  0  0  3  0  0  0  0  0  0
  -24.9710  -27.7030   19.5340 C   0  0  0  0  0  3  0  0  0  0  0  0
  -23.6450  -29.7840   20.2130 C   0  0  0  0  0  2  0  0  0  0  0  0
  -24.6720  -31.0660   22.1400 N   0  0  0  0  0  0  0  0  0  0  0  0
  -23.5200  -32.0880   23.8050 O   0  0  0  0  0  0  0  0  0  0  0  0
  -22.8120  -29.3860   22.5530 C   0  0  0  0  0  0  0  0  0  0  0  0
  -21.4970  -29.1490   22.4110 N   0  0  0  0  0  0  0  0  0  0  0  0
  -23.5100  -28.7870   23.3780 O   0  0  0  0  0  0  0  0  0  0  0  0
  -20.9920  -29.6860   21.7190 H   0  0  0  0  0  0  0  0  0  0  0  0
  -18.1630  -27.8190   22.8690 C   0  0  0  0  0  0  0  0  0  0  0  0
  -20.7060  -28.1880   23.1820 C   0  0  0  0  0  3  0  0  0  0  0  0
  -20.8740  -26.7550   22.6380 C   0  0  0  0  0  2  0  0  0  0  0  0
  -19.8120  -26.3770   21.5970 C   0  0  0  0  0  2  0  0  0  0  0  0
  -18.4090  -26.4780   22.1950 C   0  0  0  0  0  2  0  0  0  0  0  0
  -19.2420  -28.6270   23.3190 C   0  0  0  0  0  0  0  0  0  0  0  0
  -18.9570  -29.8750   23.9130 C   0  0  0  0  0  3  0  0  0  0  0  0
  -17.6270  -30.3120   24.0630 C   0  0  0  0  0  3  0  0  0  0  0  0
  -16.5650  -29.5040   23.6230 C   0  0  0  0  0  3  0  0  0  0  0  0
  -16.8330  -28.2570   23.0340 C   0  0  0  0  0  3  0  0  0  0  0  0
  -25.8770  -32.5120   23.8680 C   0  0  0  0  0  3  0  0  0  0  0  0
  -26.4050  -31.7640   25.1530 C   0  0  1  0  0  0  0  0  0  0  0  0
  -25.3120  -31.5160   26.2210 C   0  0  0  0  0  1  0  0  0  0  0  0
  -27.0160  -30.3950   24.7710 C   0  0  0  0  0  1  0  0  0  0  0  0
  -27.5440  -32.5850   25.8030 C   0  0  0  0  0  1  0  0  0  0  0  0
  -25.5440  -33.9090   24.1800 N   0  0  0  0  0  0  0  0  0  0  0  0
  -25.8620  -34.9560   23.4070 C   0  0  0  0  0  0  0  0  0  0  0  0
  -26.5400  -34.8500   22.3800 O   0  0  0  0  0  0  0  0  0  0  0  0
  -24.9420  -34.0640   24.9760 H   0  0  0  0  0  0  0  0  0  0  0  0
  -24.1040  -36.7110   23.0230 C   0  0  0  0  0  1  0  0  0  0  0  0
  -25.3520  -36.3440   23.8440 C   0  0  0  0  0  3  0  0  0  0  0  0
  -27.4710  -37.2770   24.6610 C   0  0  0  0  0  1  0  0  0  0  0  0
  -26.3680  -37.4130   23.7120 N   0  0  0  0  0  0  0  0  0  0  0  0
  -25.9470  -38.3310   23.8420 H   0  0  0  0  0  0  0  0  0  0  0  0
  1 47  1  0
  2  5  1  0
  2  3  1  0
  2  1  1  0
  4  2  1  0
  6  7  1  0
  6  5  1  0
  8 17  1  0
  8  7  1  0
  9 17  1  0
 10 15  1  0
 11 12  1  0
 11 10  1  0
 13 12  1  0
 13 22  1  0
 13 14  1  0
 15  9  1  0
 15 14  1  0
 16  9  2  0
 17 18  1  0
 19 20  2  0
 20 39  1  0
 21 20  1  0
 21 24  1  0
 22 23  1  0
 22 19  1  0
 23 21  2  0
 24 25  1  0
 25 26  2  0
 27 30  1  0
 27 26  1  0
 28 27  2  0
 29 28  1  0
 29 24  2  0
 30 31  1  0
 31 36  2  0
 31 32  1  0
 32 33  2  0
 33 34  1  0
 34 38  1  0
 35 34  2  0
 36 35  1  0
 37 36  1  0
 39 40  1  0
 40 43  1  0
 40 42  1  0
 41 39  2  0
 44 45  1  0
 44 19  1  0
 46 44  1  0
 47 48  2  0
 49 47  1  0
 50 51  1  0
 50 49  1  0
 52 63  2  0
 53 51  1  0
 53 58  1  0
 54 62  1  0
 54 64  1  0
 55 61  1  0
 55 57  1  0
 56 62  1  0
 57 56  1  0
 58 57  2  0
 59 60  1  0
 59 53  2  0
 60 55  2  0
 61 54  1  0
 62 52  1  0
 64 66  2  0
 65 64  1  0
 67 65  1  0
 68 77  2  0
 68 73  1  0
 69 65  1  0
 69 73  1  0
 70 69  1  0
 71 72  1  0
 71 70  1  0
 72 68  1  0
 73 74  2  0
 74 75  1  0
 76 75  2  0
 77 76  1  0
 78 52  1  0
 78 83  1  0
 78 79  1  0
 79 82  1  1
 79 80  1  0
 81 79  1  0
 83 86  1  0
 84 88  1  0
 84 83  1  0
 85 84  2  0
 88 87  1  0
 90 91  1  0
 90 88  1  0
 90 89  1  0
M  ISO  4   9 100  17 100  50 101  51 101
M  END
>  <TORSDO>  (70) 
F 24

>  <SCORE>  (70) 
-11.749

>  <name>  (70) 
70

>  <ligand_id>  (70) 
70

>  <original_smiles>  (70) 
[H]c1c([H])c([H])c2c(c1[H])C([H])([H])C([H])([H])C([H])([H])C2([H])N([H])C(=O)C1([H])N(C(=O)C([H])(N([H])C(=O)C([H])(N([H])C([H])([H])[H])C([H])([H])[H])C(C([H])([H])[H])(C([H])([H])[H])C([H])([H])[H])C([H])([H])c2c([H])c(OC([H])([H])C([H])([H])C(=O)C([H])([H])[N+]([H])([H])C([H])([H])C([H])([H])C([H])([H])C([H])([H])N([H])C(=O)N3C([H])([H])C([H])([H])C([H])([H])C([H])(n4nc(-c5c([H])c([H])c(Oc6c([H])c([H])c(F)c([H])c6F)c([H])c5[H])c(C(=O)N([H])[H])c4N([H])[H])C3([H])[H])c([H])c([H])c2C1([H])[H]

>  <smiles>  (70) 
[H]c1c([H])c([H])c2c(c1[H])C([H])([H])C([H])([H])C([H])([H])C2([H])N([H])C(=O)C1([H])N(C(=O)C([H])(N([H])C(=O)C([H])(N([H])C([H])([H])[H])C([H])([H])[H])C(C([H])([H])[H])(C([H])([H])[H])C([H])([H])[H])C([H])([H])c2c([H])c(OC([H])([H])C([H])([H])C(=O)C([H])([H])[N+]([H])([H])C([H])([H])C([H])([H])C([H])([H])C([H])([H])N([H])C(=O)N3C([H])([H])C([H])([H])C([H])([H])C([H])(n4nc(-c5c([H])c([H])c(Oc6c([H])c([H])c(F)c([H])c6F)c([H])c5[H])c(C(=O)N([H])[H])c4N([H])[H])C3([H])[H])c([H])c([H])c2C1([H])[H]

$$$$
71:0:0
     RDKit          3D

 95103  0  0  1  0  0  0  0  0999 V2000
  -30.1660  -19.3860   20.4820 N   0  0  0  0  0  4  0  0  0  0  0  0
  -30.2840  -19.5840   19.5010 H   0  0  0  0  0  0  0  0  0  0  0  0
  -31.0790  -19.4480   20.9080 H   0  0  0  0  0  0  0  0  0  0  0  0
  -30.8440  -14.5290   20.1170 C   0  0  0  0  0  0  0  0  0  0  0  0
  -30.4150  -12.4620   18.8530 C   0  0  0  0  0  2  0  0  0  0  0  0
  -29.4100  -12.7560   17.7210 C   0  0  0  0  0  2  0  0  0  0  0  0
  -27.9580  -12.6220   18.2260 C   0  0  0  0  0  2  0  0  0  0  0  0
  -27.7150  -13.3600   19.5710 C   0  0  0  0  0  3  0  0  0  0  0  0
  -28.8340  -13.0310   20.5840 C   0  0  0  0  0  2  0  0  0  0  0  0
  -30.1140  -13.3880   19.9570 N   0  0  0  0  0  0  0  0  0  0  0  0
  -31.9570  -14.6550   19.6000 O   0  0  0  0  0  0  0  0  0  0  0  0
  -29.6240  -17.4350   22.0250 C   0  0  0  0  0  2  0  0  0  0  0  0
  -29.6100  -15.9100   21.8240 C   0  0  0  0  0  2  0  0  0  0  0  0
  -30.4970  -16.9520   19.8480 C   0  0  0  0  0  3  0  0  0  0  0  0
  -29.6480  -17.9950   20.6090 C   0  0  0  0  0  3  0  0  0  0  0  0
  -30.1970  -15.6610   20.5010 N   0  0  0  0  0  0  0  0  0  0  0  0
  -25.3480  -13.9280   20.4070 C   0  0  0  0  0  0  0  0  0  0  0  0
  -24.3100  -13.1400   20.8240 C   0  0  0  0  0  0  0  0  0  0  0  0
  -24.7830  -11.7930   20.7500 C   0  0  0  0  0  0  0  0  0  0  0  0
  -26.3900  -13.0630   20.1120 N   0  0  0  0  0  0  0  0  0  0  0  0
  -26.0540  -11.7730   20.3720 N   0  0  0  0  0  0  0  0  0  0  0  0
  -24.0800  -10.5200   20.9590 C   0  0  0  0  0  0  0  0  0  0  0  0
  -24.5270   -9.5770   21.9100 C   0  0  0  0  0  3  0  0  0  0  0  0
  -23.8250   -8.3680   22.1060 C   0  0  0  0  0  3  0  0  0  0  0  0
  -22.6600   -8.0960   21.3510 C   0  0  0  0  0  0  0  0  0  0  0  0
  -22.2310   -9.0280   20.3890 C   0  0  0  0  0  3  0  0  0  0  0  0
  -22.9360  -10.2270   20.1910 C   0  0  0  0  0  3  0  0  0  0  0  0
  -21.9260   -6.9380   21.4540 O   0  0  0  0  0  0  0  0  0  0  0  0
  -21.8240   -6.2550   22.6400 C   0  0  0  0  0  0  0  0  0  0  0  0
  -21.3110   -6.8610   23.8080 C   0  0  0  0  0  3  0  0  0  0  0  0
  -21.1580   -6.1030   24.9860 C   0  0  0  0  0  3  0  0  0  0  0  0
  -21.5100   -4.7390   24.9960 C   0  0  0  0  0  0  0  0  0  0  0  0
  -22.0180   -4.1330   23.8330 C   0  0  0  0  0  3  0  0  0  0  0  0
  -22.1710   -4.8890   22.6580 C   0  0  0  0  0  0  0  0  0  0  0  0
  -22.6400   -4.2940   21.5340 F   0  0  0  0  0  0  0  0  0  0  0  0
  -21.3560   -4.0090   26.1250 F   0  0  0  0  0  0  0  0  0  0  0  0
  -22.9240  -13.5980   21.1770 C   0  0  0  0  0  0  0  0  0  0  0  0
  -22.2510  -12.8870   22.0750 N   0  0  0  0  0  0  0  0  0  0  0  0
  -22.4470  -14.6220   20.6900 O   0  0  0  0  0  0  0  0  0  0  0  0
  -22.6480  -12.0560   22.4880 H   0  0  0  0  0  0  0  0  0  0  0  0
  -21.3250  -13.1800   22.3550 H   0  0  0  0  0  0  0  0  0  0  0  0
  -25.4900  -15.3020   20.2360 N   0  0  0  0  0  0  0  0  0  0  0  0
  -24.7060  -15.9380   20.3460 H   0  0  0  0  0  0  0  0  0  0  0  0
  -26.2970  -15.7370   19.8060 H   0  0  0  0  0  0  0  0  0  0  0  0
  -30.0930  -16.9120   18.3580 C   0  0  0  0  0  0  0  0  0  0  0  0
  -30.9830  -17.3180   17.4600 N   0  0  0  0  0  0  0  0  0  0  0  0
  -28.9800  -16.5170   18.0160 O   0  0  0  0  0  0  0  0  0  0  0  0
  -31.9160  -17.5920   17.7370 H   0  0  0  0  0  0  0  0  0  0  0  0
  -30.7540  -17.2940   16.4770 H   0  0  0  0  0  0  0  0  0  0  0  0
  -29.3110  -20.4590   21.0420 C   0  0  0  0  0  2  0  0  0  0  0  0
  -29.7790  -21.8630   20.5870 C   0  0  0  0  0  2  0  0  0  0  0  0
  -28.9230  -23.0220   21.1420 C   0  0  0  0  0  2  0  0  0  0  0  0
  -29.2240  -24.3860   20.4750 C   0  0  0  0  0  2  0  0  0  0  0  0
  -28.3840  -25.5350   21.0620 C   0  0  0  0  0  2  0  0  0  0  0  0
  -28.5240  -26.7490   20.3070 O   0  0  0  0  0  0  0  0  0  0  0  0
  -24.6330  -31.9220   23.2520 C   0  0  0  0  0  0  0  0  0  0  0  0
  -27.3690  -27.4920   20.2570 C   0  0  0  0  0  0  0  0  0  0  0  0
  -23.4630  -30.4820   21.6150 C   0  0  0  0  0  3  0  0  0  0  0  0
  -24.9540  -28.9520   20.2200 C   0  0  0  0  0  0  0  0  0  0  0  0
  -25.9840  -30.8810   21.4360 C   0  0  0  0  0  2  0  0  0  0  0  0
  -26.0980  -29.5050   20.8120 C   0  0  0  0  0  0  0  0  0  0  0  0
  -27.3130  -28.7830   20.8270 C   0  0  0  0  0  3  0  0  0  0  0  0
  -26.2170  -26.9560   19.6440 C   0  0  0  0  0  3  0  0  0  0  0  0
  -25.0090  -27.6770   19.6290 C   0  0  0  0  0  3  0  0  0  0  0  0
  -23.6970  -29.7900   20.2450 C   0  0  0  0  0  2  0  0  0  0  0  0
  -24.7100  -31.1100   22.1590 N   0  0  0  0  0  0  0  0  0  0  0  0
  -23.5430  -32.1850   23.7780 O   0  0  0  0  0  0  0  0  0  0  0  0
  -22.8170  -29.4630   22.5790 C   0  0  0  0  0  0  0  0  0  0  0  0
  -21.4970  -29.2570   22.4400 N   0  0  0  0  0  0  0  0  0  0  0  0
  -23.5010  -28.8590   23.4120 O   0  0  0  0  0  0  0  0  0  0  0  0
  -21.0070  -29.8000   21.7420 H   0  0  0  0  0  0  0  0  0  0  0  0
  -18.1390  -28.0060   22.8980 C   0  0  0  0  0  0  0  0  0  0  0  0
  -20.6850  -28.3170   23.2110 C   0  0  0  0  0  3  0  0  0  0  0  0
  -20.8250  -26.8790   22.6610 C   0  0  0  0  0  2  0  0  0  0  0  0
  -19.7480  -26.5190   21.6330 C   0  0  0  0  0  2  0  0  0  0  0  0
  -18.3530  -26.6500   22.2490 C   0  0  0  0  0  2  0  0  0  0  0  0
  -19.2340  -28.7970   23.3350 C   0  0  0  0  0  0  0  0  0  0  0  0
  -18.9830  -30.0660   23.8990 C   0  0  0  0  0  3  0  0  0  0  0  0
  -17.6670  -30.5460   24.0320 C   0  0  0  0  0  3  0  0  0  0  0  0
  -16.5840  -29.7530   23.6140 C   0  0  0  0  0  3  0  0  0  0  0  0
  -16.8200  -28.4860   23.0520 C   0  0  0  0  0  3  0  0  0  0  0  0
  -25.9050  -32.5770   23.8770 C   0  0  0  0  0  3  0  0  0  0  0  0
  -25.5740  -33.9740   24.1890 N   0  0  0  0  0  0  0  0  0  0  0  0
  -25.8990  -35.0210   23.4190 C   0  0  0  0  0  0  0  0  0  0  0  0
  -26.5790  -34.9140   22.3950 O   0  0  0  0  0  0  0  0  0  0  0  0
  -24.9690  -34.1300   24.9810 H   0  0  0  0  0  0  0  0  0  0  0  0
  -24.1470  -36.7810   23.0260 C   0  0  0  0  0  1  0  0  0  0  0  0
  -25.3870  -36.4070   23.8540 C   0  0  0  0  0  3  0  0  0  0  0  0
  -27.5040  -37.3290   24.6900 C   0  0  0  0  0  1  0  0  0  0  0  0
  -26.4050  -37.4750   23.7370 N   0  0  0  0  0  0  0  0  0  0  0  0
  -25.9850  -38.3900   23.8750 H   0  0  0  0  0  0  0  0  0  0  0  0
  -26.4250  -31.8240   25.1640 C   0  0  1  0  0  0  0  0  0  0  0  0
  -25.3250  -31.5780   26.2230 C   0  0  0  0  0  1  0  0  0  0  0  0
  -27.0320  -30.4530   24.7860 C   0  0  0  0  0  1  0  0  0  0  0  0
  -27.5580  -32.6410   25.8280 C   0  0  0  0  0  1  0  0  0  0  0  0
  1  3  1  0
  1 50  1  0
  2  1  1  0
  4 16  1  0
  5 10  1  0
  6  7  1  0
  6  5  1  0
  8  7  1  0
  8 20  1  0
  8  9  1  0
 10  4  1  0
 10  9  1  0
 11  4  2  0
 13 12  1  0
 14 45  1  0
 14 16  1  0
 14 15  1  0
 15  1  1  0
 15 12  1  0
 16 13  1  0
 17 18  2  0
 18 37  1  0
 19 18  1  0
 19 22  1  0
 20 21  1  0
 20 17  1  0
 21 19  2  0
 22 23  1  0
 23 24  2  0
 25 28  1  0
 25 24  1  0
 26 25  2  0
 27 26  1  0
 27 22  2  0
 28 29  1  0
 29 34  2  0
 29 30  1  0
 30 31  2  0
 31 32  1  0
 32 36  1  0
 33 32  2  0
 34 33  1  0
 35 34  1  0
 37 38  1  0
 38 41  1  0
 38 40  1  0
 39 37  2  0
 42 43  1  0
 42 17  1  0
 44 42  1  0
 46 48  1  0
 46 45  1  0
 47 45  2  0
 49 46  1  0
 51 50  1  0
 51 52  1  0
 53 54  1  0
 53 52  1  0
 55 54  1  0
 56 67  2  0
 57 55  1  0
 57 62  1  0
 58 66  1  0
 58 68  1  0
 59 65  1  0
 59 61  1  0
 60 66  1  0
 61 62  2  0
 61 60  1  0
 63 57  2  0
 64 63  1  0
 64 59  2  0
 65 58  1  0
 66 56  1  0
 68 70  2  0
 69 68  1  0
 71 69  1  0
 72 81  2  0
 72 77  1  0
 73 69  1  0
 73 77  1  0
 74 73  1  0
 75 76  1  0
 75 74  1  0
 76 72  1  0
 77 78  2  0
 78 79  1  0
 80 79  2  0
 81 80  1  0
 82 56  1  0
 82 83  1  0
 82 92  1  0
 83 86  1  0
 84 88  1  0
 84 83  1  0
 85 84  2  0
 88 87  1  0
 90 88  1  0
 90 91  1  0
 90 89  1  0
 92 95  1  1
 92 93  1  0
 94 92  1  0
M  ISO  4   4 100  16 100  54 101  55 101
M  END
>  <TORSDO>  (71) 
F 22

>  <SCORE>  (71) 
-11.561

>  <name>  (71) 
71

>  <ligand_id>  (71) 
71

>  <original_smiles>  (71) 
[H]c1c([H])c([H])c2c(c1[H])C([H])([H])C([H])([H])C([H])([H])C2([H])N([H])C(=O)C1([H])N(C(=O)C([H])(N([H])C(=O)C([H])(N([H])C([H])([H])[H])C([H])([H])[H])C(C([H])([H])[H])(C([H])([H])[H])C([H])([H])[H])C([H])([H])c2c([H])c(OC([H])([H])C([H])([H])C([H])([H])C([H])([H])C([H])([H])[N+]([H])([H])C3([H])C([H])(C(=O)N([H])[H])N(C(=O)N4C([H])([H])C([H])([H])C([H])([H])C([H])(n5nc(-c6c([H])c([H])c(Oc7c([H])c([H])c(F)c([H])c7F)c([H])c6[H])c(C(=O)N([H])[H])c5N([H])[H])C4([H])[H])C([H])([H])C3([H])[H])c([H])c([H])c2C1([H])[H]

>  <smiles>  (71) 
[H]c1c([H])c([H])c2c(c1[H])C([H])([H])C([H])([H])C([H])([H])C2([H])N([H])C(=O)C1([H])N(C(=O)C([H])(N([H])C(=O)C([H])(N([H])C([H])([H])[H])C([H])([H])[H])C(C([H])([H])[H])(C([H])([H])[H])C([H])([H])[H])C([H])([H])c2c([H])c(OC([H])([H])C([H])([H])C([H])([H])C([H])([H])C([H])([H])[N+]([H])([H])C3([H])C([H])(C(=O)N([H])[H])N(C(=O)N4C([H])([H])C([H])([H])C([H])([H])C([H])(n5nc(-c6c([H])c([H])c(Oc7c([H])c([H])c(F)c([H])c7F)c([H])c6[H])c(C(=O)N([H])[H])c5N([H])[H])C4([H])[H])C([H])([H])C3([H])[H])c([H])c([H])c2C1([H])[H]

$$$$
72:0:0
     RDKit          3D

 93101  0  0  1  0  0  0  0  0999 V2000
  -27.6610  -21.3810   21.1190 C   0  0  0  0  0  2  0  0  0  0  0  0
  -28.8070  -22.4140   21.2640 C   0  0  0  0  0  2  0  0  0  0  0  0
  -28.4070  -23.8660   20.8840 C   0  0  0  0  0  2  0  0  0  0  0  0
  -30.6760  -24.9450   20.4880 C   0  0  0  0  0  1  0  0  0  0  0  0
  -29.4130  -24.9360   21.3640 C   0  0  0  0  0  3  0  0  0  0  0  0
  -28.7800  -26.3470   21.4760 C   0  0  0  0  0  2  0  0  0  0  0  0
  -28.3880  -26.8170   20.1920 O   0  0  0  0  0  0  0  0  0  0  0  0
  -24.5600  -31.9930   23.2510 C   0  0  0  0  0  0  0  0  0  0  0  0
  -27.2470  -27.5760   20.2010 C   0  0  0  0  0  0  0  0  0  0  0  0
  -23.3720  -30.5730   21.6030 C   0  0  0  0  0  3  0  0  0  0  0  0
  -24.8470  -29.0490   20.1850 C   0  0  0  0  0  0  0  0  0  0  0  0
  -25.8920  -30.9570   21.4220 C   0  0  0  0  0  2  0  0  0  0  0  0
  -25.9920  -29.5870   20.7870 C   0  0  0  0  0  0  0  0  0  0  0  0
  -27.2010  -28.8520   20.7980 C   0  0  0  0  0  3  0  0  0  0  0  0
  -26.0980  -27.0500   19.5820 C   0  0  0  0  0  3  0  0  0  0  0  0
  -24.8920  -27.7810   19.5760 C   0  0  0  0  0  3  0  0  0  0  0  0
  -23.5940  -29.8970   20.2220 C   0  0  0  0  0  2  0  0  0  0  0  0
  -24.6230  -31.1870   22.1550 N   0  0  0  0  0  0  0  0  0  0  0  0
  -23.4720  -32.2640   23.7820 O   0  0  0  0  0  0  0  0  0  0  0  0
  -22.7210  -29.5500   22.5610 C   0  0  0  0  0  0  0  0  0  0  0  0
  -21.3980  -29.3670   22.4290 N   0  0  0  0  0  0  0  0  0  0  0  0
  -23.4060  -28.9280   23.3760 O   0  0  0  0  0  0  0  0  0  0  0  0
  -20.9240  -29.9240   21.7330 H   0  0  0  0  0  0  0  0  0  0  0  0
  -18.0130  -28.1930   22.9020 C   0  0  0  0  0  0  0  0  0  0  0  0
  -20.5700  -28.4300   23.1870 C   0  0  0  0  0  3  0  0  0  0  0  0
  -20.6600  -27.0020   22.5930 C   0  0  0  0  0  2  0  0  0  0  0  0
  -19.5580  -26.6970   21.5750 C   0  0  0  0  0  2  0  0  0  0  0  0
  -18.1780  -26.8500   22.2150 C   0  0  0  0  0  2  0  0  0  0  0  0
  -19.1330  -28.9460   23.3450 C   0  0  0  0  0  0  0  0  0  0  0  0
  -18.9180  -30.2090   23.9450 C   0  0  0  0  0  3  0  0  0  0  0  0
  -17.6150  -30.7140   24.1060 C   0  0  0  0  0  3  0  0  0  0  0  0
  -16.5110  -29.9560   23.6790 C   0  0  0  0  0  3  0  0  0  0  0  0
  -16.7110  -28.6960   23.0820 C   0  0  0  0  0  3  0  0  0  0  0  0
  -25.8400  -32.6310   23.8790 C   0  0  0  0  0  3  0  0  0  0  0  0
  -26.3420  -31.8730   25.1660 C   0  0  1  0  0  0  0  0  0  0  0  0
  -25.2370  -31.6400   26.2230 C   0  0  0  0  0  1  0  0  0  0  0  0
  -26.9340  -30.4940   24.7910 C   0  0  0  0  0  1  0  0  0  0  0  0
  -27.4840  -32.6720   25.8320 C   0  0  0  0  0  1  0  0  0  0  0  0
  -25.5290  -34.0300   24.1890 N   0  0  0  0  0  0  0  0  0  0  0  0
  -25.8790  -35.0740   23.4250 C   0  0  0  0  0  0  0  0  0  0  0  0
  -26.5670  -34.9580   22.4060 O   0  0  0  0  0  0  0  0  0  0  0  0
  -24.9260  -34.1980   24.9810 H   0  0  0  0  0  0  0  0  0  0  0  0
  -24.1620  -36.8640   23.0150 C   0  0  0  0  0  1  0  0  0  0  0  0
  -25.3860  -36.4690   23.8580 C   0  0  0  0  0  3  0  0  0  0  0  0
  -27.5060  -37.3550   24.7240 C   0  0  0  0  0  1  0  0  0  0  0  0
  -26.4260  -37.5170   23.7560 N   0  0  0  0  0  0  0  0  0  0  0  0
  -26.0180  -38.4380   23.8880 H   0  0  0  0  0  0  0  0  0  0  0  0
  -27.9820  -20.1020   20.3110 C   0  0  0  0  0  2  0  0  0  0  0  0
  -28.7870  -19.0770   21.0250 N   0  0  0  0  0  4  0  0  0  0  0  0
  -29.6490  -19.4730   21.3640 H   0  0  0  0  0  0  0  0  0  0  0  0
  -28.2570  -18.7970   21.8350 H   0  0  0  0  0  0  0  0  0  0  0  0
  -30.9400  -14.6650   20.2400 C   0  0  0  0  0  0  0  0  0  0  0  0
  -30.6240  -12.4540   19.2180 C   0  0  0  0  0  2  0  0  0  0  0  0
  -29.6840  -12.6060   18.0060 C   0  0  0  0  0  2  0  0  0  0  0  0
  -28.2160  -12.4820   18.4500 C   0  0  0  0  0  2  0  0  0  0  0  0
  -27.8780  -13.3570   19.6890 C   0  0  0  0  0  3  0  0  0  0  0  0
  -28.9430  -13.2180   20.7990 C   0  0  0  0  0  2  0  0  0  0  0  0
  -30.2500  -13.4900   20.1910 N   0  0  0  0  0  0  0  0  0  0  0  0
  -32.1480  -14.7200   20.0060 O   0  0  0  0  0  0  0  0  0  0  0  0
  -30.4980  -16.5990   18.7740 C   0  0  0  0  0  2  0  0  0  0  0  0
  -29.6000  -16.6430   20.9760 C   0  0  0  0  0  2  0  0  0  0  0  0
  -30.0520  -18.0500   19.0590 C   0  0  0  0  0  3  0  0  0  0  0  0
  -29.0630  -17.8630   20.2090 C   0  0  0  0  0  3  0  0  0  0  0  0
  -31.2540  -18.9800   19.3710 C   0  0  0  0  0  1  0  0  0  0  0  0
  -30.1870  -15.7630   19.9580 N   0  0  0  0  0  0  0  0  0  0  0  0
  -25.4820  -13.9640   20.3860 C   0  0  0  0  0  0  0  0  0  0  0  0
  -24.4140  -13.1940   20.7620 C   0  0  0  0  0  0  0  0  0  0  0  0
  -24.8770  -11.8420   20.7410 C   0  0  0  0  0  0  0  0  0  0  0  0
  -26.5290  -13.0810   20.1760 N   0  0  0  0  0  0  0  0  0  0  0  0
  -26.1660  -11.8010   20.4410 N   0  0  0  0  0  0  0  0  0  0  0  0
  -24.1490  -10.5800   20.9370 C   0  0  0  0  0  0  0  0  0  0  0  0
  -24.5620   -9.6310   21.8990 C   0  0  0  0  0  3  0  0  0  0  0  0
  -23.8340   -8.4380   22.0810 C   0  0  0  0  0  3  0  0  0  0  0  0
  -22.6810   -8.1850   21.3030 C   0  0  0  0  0  0  0  0  0  0  0  0
  -22.2910   -9.1180   20.3280 C   0  0  0  0  0  3  0  0  0  0  0  0
  -23.0190  -10.3040   20.1420 C   0  0  0  0  0  3  0  0  0  0  0  0
  -21.9290   -7.0410   21.3910 O   0  0  0  0  0  0  0  0  0  0  0  0
  -21.8310   -6.3290   22.5600 C   0  0  0  0  0  0  0  0  0  0  0  0
  -21.3440   -6.9160   23.7470 C   0  0  0  0  0  3  0  0  0  0  0  0
  -21.1980   -6.1340   24.9100 C   0  0  0  0  0  3  0  0  0  0  0  0
  -21.5280   -4.7670   24.8850 C   0  0  0  0  0  0  0  0  0  0  0  0
  -22.0020   -4.1770   23.7000 C   0  0  0  0  0  3  0  0  0  0  0  0
  -22.1500   -4.9550   22.5390 C   0  0  0  0  0  0  0  0  0  0  0  0
  -22.5910   -4.3780   21.3980 F   0  0  0  0  0  0  0  0  0  0  0  0
  -21.3750   -4.0140   25.9990 F   0  0  0  0  0  0  0  0  0  0  0  0
  -23.0130  -13.6680   21.0060 C   0  0  0  0  0  0  0  0  0  0  0  0
  -22.2830  -12.9840   21.8790 N   0  0  0  0  0  0  0  0  0  0  0  0
  -22.5790  -14.6880   20.4650 O   0  0  0  0  0  0  0  0  0  0  0  0
  -22.6580  -12.1690   22.3400 H   0  0  0  0  0  0  0  0  0  0  0  0
  -21.3400  -13.2800   22.0990 H   0  0  0  0  0  0  0  0  0  0  0  0
  -25.6420  -15.3320   20.1760 N   0  0  0  0  0  0  0  0  0  0  0  0
  -24.8270  -15.9320   20.1240 H   0  0  0  0  0  0  0  0  0  0  0  0
  -26.4300  -15.6960   19.6570 H   0  0  0  0  0  0  0  0  0  0  0  0
  1  2  1  0
  3  2  1  0
  3  5  1  0
  5  4  1  0
  5  6  1  0
  7  9  1  0
  7  6  1  0
  8 19  2  0
  9 14  1  0
 10 18  1  0
 10 20  1  0
 11 17  1  0
 11 13  1  0
 12 18  1  0
 13 14  2  0
 13 12  1  0
 15  9  2  0
 16 15  1  0
 16 11  2  0
 17 10  1  0
 18  8  1  0
 20 22  2  0
 21 20  1  0
 23 21  1  0
 24 33  2  0
 24 29  1  0
 25 21  1  0
 25 29  1  0
 26 25  1  0
 27 28  1  0
 27 26  1  0
 28 24  1  0
 29 30  2  0
 30 31  1  0
 32 31  2  0
 33 32  1  0
 34  8  1  0
 34 39  1  0
 34 35  1  0
 35 38  1  1
 35 36  1  0
 37 35  1  0
 39 42  1  0
 40 44  1  0
 40 39  1  0
 41 40  2  0
 44 43  1  0
 46 44  1  0
 46 47  1  0
 46 45  1  0
 48 49  1  0
 48  1  1  0
 49 50  1  0
 49 51  1  0
 53 58  1  0
 54 55  1  0
 54 53  1  0
 56 55  1  0
 56 69  1  0
 56 57  1  0
 58 52  1  0
 58 57  1  0
 59 52  2  0
 60 62  1  0
 60 65  1  0
 62 64  1  0
 62 63  1  0
 63 61  1  0
 63 49  1  0
 65 52  1  0
 65 61  1  0
 66 67  2  0
 67 86  1  0
 68 67  1  0
 68 71  1  0
 69 66  1  0
 69 70  1  0
 70 68  2  0
 71 72  1  0
 72 73  2  0
 74 77  1  0
 74 73  1  0
 75 74  2  0
 76 75  1  0
 76 71  2  0
 77 78  1  0
 78 79  1  0
 79 80  2  0
 81 80  1  0
 81 85  1  0
 82 81  2  0
 83 78  2  0
 83 82  1  0
 84 83  1  0
 86 87  1  0
 87 90  1  0
 87 89  1  0
 88 86  2  0
 91 66  1  0
 92 91  1  0
 93 91  1  0
M  ISO  4   6 101   7 101  52 100  65 100
M  END
>  <TORSDO>  (72) 
F 22

>  <SCORE>  (72) 
-12.941

>  <name>  (72) 
72

>  <ligand_id>  (72) 
72

>  <original_smiles>  (72) 
[H]c1c([H])c([H])c2c(c1[H])C([H])([H])C([H])([H])C([H])([H])C2([H])N([H])C(=O)C1([H])N(C(=O)C([H])(N([H])C(=O)C([H])(N([H])C([H])([H])[H])C([H])([H])[H])C(C([H])([H])[H])(C([H])([H])[H])C([H])([H])[H])C([H])([H])c2c([H])c(OC([H])([H])C([H])(C([H])([H])[H])C([H])([H])C([H])([H])C([H])([H])C([H])([H])[N+]([H])([H])C3([H])C([H])([H])N(C(=O)N4C([H])([H])C([H])([H])C([H])([H])C([H])(n5nc(-c6c([H])c([H])c(Oc7c([H])c([H])c(F)c([H])c7F)c([H])c6[H])c(C(=O)N([H])[H])c5N([H])[H])C4([H])[H])C([H])([H])C3([H])C([H])([H])[H])c([H])c([H])c2C1([H])[H]

>  <smiles>  (72) 
[H]c1c([H])c([H])c2c(c1[H])C([H])([H])C([H])([H])C([H])([H])C2([H])N([H])C(=O)C1([H])N(C(=O)C([H])(N([H])C(=O)C([H])(N([H])C([H])([H])[H])C([H])([H])[H])C(C([H])([H])[H])(C([H])([H])[H])C([H])([H])[H])C([H])([H])c2c([H])c(OC([H])([H])C([H])(C([H])([H])[H])C([H])([H])C([H])([H])C([H])([H])C([H])([H])[N+]([H])([H])C3([H])C([H])([H])N(C(=O)N4C([H])([H])C([H])([H])C([H])([H])C([H])(n5nc(-c6c([H])c([H])c(Oc7c([H])c([H])c(F)c([H])c7F)c([H])c6[H])c(C(=O)N([H])[H])c5N([H])[H])C4([H])[H])C([H])([H])C3([H])C([H])([H])[H])c([H])c([H])c2C1([H])[H]

$$$$
73:0:0
     RDKit          3D

 96104  0  0  1  0  0  0  0  0999 V2000
  -29.8320  -19.1190   20.1340 C   0  0  0  0  0  3  0  0  0  0  0  0
  -30.6030  -20.2990   17.9400 C   0  0  0  0  0  2  0  0  0  0  0  0
  -31.7990  -19.9790   17.0290 C   0  0  0  0  0  2  0  0  0  0  0  0
  -31.2720  -17.9840   18.2740 C   0  0  0  0  0  2  0  0  0  0  0  0
  -30.1450  -18.9820   18.6140 C   0  0  0  0  0  3  0  0  0  0  0  0
  -31.8990  -18.4540   16.9540 C   0  0  0  0  0  3  0  0  0  0  0  0
  -31.1920  -17.9110   15.7780 N   0  0  0  0  0  4  0  0  0  0  0  0
  -30.2220  -18.1710   15.7740 H   0  0  0  0  0  0  0  0  0  0  0  0
  -31.2570  -16.9090   15.7600 H   0  0  0  0  0  0  0  0  0  0  0  0
  -31.6150  -18.2550   14.9340 H   0  0  0  0  0  0  0  0  0  0  0  0
  -28.8500  -20.3560   20.3900 N   0  0  0  0  0  4  0  0  0  0  0  0
  -28.2170  -20.3820   19.6080 H   0  0  0  0  0  0  0  0  0  0  0  0
  -28.2760  -20.0730   21.1680 H   0  0  0  0  0  0  0  0  0  0  0  0
  -29.2270  -21.8660   20.7450 C   0  0  0  0  0  2  0  0  0  0  0  0
  -28.5200  -23.2610   20.0720 C   0  0  0  0  0  2  0  0  0  0  0  0
  -28.3010  -24.7570   20.8390 C   0  0  0  0  0  2  0  0  0  0  0  0
  -28.3500  -26.2210   20.3000 O   0  0  0  0  0  0  0  0  0  0  0  0
  -24.6090  -31.8800   23.2610 C   0  0  0  0  0  0  0  0  0  0  0  0
  -27.2550  -27.1550   20.3180 C   0  0  0  0  0  0  0  0  0  0  0  0
  -23.4380  -30.4670   21.6140 C   0  0  0  0  0  3  0  0  0  0  0  0
  -24.9130  -28.8770   20.2320 C   0  0  0  0  0  0  0  0  0  0  0  0
  -25.9910  -30.7440   21.4800 C   0  0  0  0  0  2  0  0  0  0  0  0
  -26.0820  -29.3430   20.8480 C   0  0  0  0  0  0  0  0  0  0  0  0
  -27.2570  -28.5020   20.8630 C   0  0  0  0  0  3  0  0  0  0  0  0
  -26.0580  -26.7770   19.6780 C   0  0  0  0  0  3  0  0  0  0  0  0
  -24.9130  -27.6070   19.6320 C   0  0  0  0  0  3  0  0  0  0  0  0
  -23.6820  -29.7720   20.2460 C   0  0  0  0  0  2  0  0  0  0  0  0
  -24.6990  -31.0530   22.1740 N   0  0  0  0  0  0  0  0  0  0  0  0
  -23.5150  -32.1630   23.7720 O   0  0  0  0  0  0  0  0  0  0  0  0
  -22.7480  -29.4660   22.5740 C   0  0  0  0  0  0  0  0  0  0  0  0
  -21.4220  -29.2920   22.4310 N   0  0  0  0  0  0  0  0  0  0  0  0
  -23.4090  -28.8480   23.4120 O   0  0  0  0  0  0  0  0  0  0  0  0
  -20.9450  -29.8420   21.7310 H   0  0  0  0  0  0  0  0  0  0  0  0
  -18.0350  -28.0970   22.9050 C   0  0  0  0  0  0  0  0  0  0  0  0
  -20.5920  -28.3580   23.1970 C   0  0  0  0  0  3  0  0  0  0  0  0
  -20.6970  -26.9230   22.6290 C   0  0  0  0  0  2  0  0  0  0  0  0
  -19.6050  -26.5980   21.6050 C   0  0  0  0  0  2  0  0  0  0  0  0
  -18.2160  -26.7460   22.2340 C   0  0  0  0  0  2  0  0  0  0  0  0
  -19.1500  -28.8610   23.3430 C   0  0  0  0  0  0  0  0  0  0  0  0
  -18.9230  -30.1250   23.9300 C   0  0  0  0  0  3  0  0  0  0  0  0
  -17.6160  -30.6260   24.0830 C   0  0  0  0  0  3  0  0  0  0  0  0
  -16.5170  -29.8580   23.6620 C   0  0  0  0  0  3  0  0  0  0  0  0
  -16.7260  -28.5960   23.0770 C   0  0  0  0  0  3  0  0  0  0  0  0
  -25.8760  -32.5240   23.9030 C   0  0  0  0  0  3  0  0  0  0  0  0
  -25.5580  -33.9280   24.2140 N   0  0  0  0  0  0  0  0  0  0  0  0
  -25.9030  -34.9760   23.4530 C   0  0  0  0  0  0  0  0  0  0  0  0
  -26.5880  -34.8620   22.4330 O   0  0  0  0  0  0  0  0  0  0  0  0
  -24.9530  -34.0890   25.0050 H   0  0  0  0  0  0  0  0  0  0  0  0
  -24.1890  -36.7730   23.0530 C   0  0  0  0  0  1  0  0  0  0  0  0
  -25.4120  -36.3690   23.8910 C   0  0  0  0  0  3  0  0  0  0  0  0
  -27.5290  -37.2570   24.7640 C   0  0  0  0  0  1  0  0  0  0  0  0
  -26.4500  -37.4180   23.7930 N   0  0  0  0  0  0  0  0  0  0  0  0
  -26.0430  -38.3410   23.9230 H   0  0  0  0  0  0  0  0  0  0  0  0
  -26.3640  -31.7730   25.2020 C   0  0  1  0  0  0  0  0  0  0  0  0
  -25.2500  -31.5500   26.2510 C   0  0  0  0  0  1  0  0  0  0  0  0
  -26.9570  -30.3900   24.8470 C   0  0  0  0  0  1  0  0  0  0  0  0
  -27.5030  -32.5760   25.8760 C   0  0  0  0  0  1  0  0  0  0  0  0
  -29.5810  -17.6190   20.8970 C   0  0  0  0  0  2  0  0  0  0  0  0
  -30.4860  -14.9710   20.3440 C   0  0  0  0  0  0  0  0  0  0  0  0
  -30.3830  -12.6350   19.3410 C   0  0  0  0  0  2  0  0  0  0  0  0
  -29.4290  -12.5950   18.1220 C   0  0  0  0  0  2  0  0  0  0  0  0
  -27.9660  -12.3890   18.5650 C   0  0  0  0  0  2  0  0  0  0  0  0
  -27.5730  -13.3000   19.7560 C   0  0  0  0  0  3  0  0  0  0  0  0
  -28.6410  -13.2870   20.8690 C   0  0  0  0  0  2  0  0  0  0  0  0
  -29.9030  -13.7110   20.2460 N   0  0  0  0  0  0  0  0  0  0  0  0
  -31.7070  -15.0590   20.1770 O   0  0  0  0  0  0  0  0  0  0  0  0
  -29.6380  -16.1110   20.3840 N   0  0  0  0  0  0  0  0  0  0  0  0
  -28.6950  -15.7830   20.2460 H   0  0  0  0  0  0  0  0  0  0  0  0
  -25.1960  -13.8870   20.5070 C   0  0  0  0  0  0  0  0  0  0  0  0
  -24.1320  -13.1150   20.8780 C   0  0  0  0  0  0  0  0  0  0  0  0
  -24.5930  -11.7630   20.8460 C   0  0  0  0  0  0  0  0  0  0  0  0
  -26.2370  -13.0070   20.2620 N   0  0  0  0  0  0  0  0  0  0  0  0
  -25.8840  -11.7230   20.5330 N   0  0  0  0  0  0  0  0  0  0  0  0
  -23.8640  -10.5020   21.0340 C   0  0  0  0  0  0  0  0  0  0  0  0
  -24.2850   -9.5380   21.9770 C   0  0  0  0  0  3  0  0  0  0  0  0
  -23.5560   -8.3420   22.1530 C   0  0  0  0  0  3  0  0  0  0  0  0
  -22.3900   -8.1040   21.3870 C   0  0  0  0  0  0  0  0  0  0  0  0
  -21.9880   -9.0560   20.4340 C   0  0  0  0  0  3  0  0  0  0  0  0
  -22.7170  -10.2430   20.2570 C   0  0  0  0  0  3  0  0  0  0  0  0
  -21.6310   -6.9620   21.4730 O   0  0  0  0  0  0  0  0  0  0  0  0
  -21.5620   -6.2300   22.6320 C   0  0  0  0  0  0  0  0  0  0  0  0
  -21.1020   -6.7920   23.8420 C   0  0  0  0  0  3  0  0  0  0  0  0
  -20.9820   -5.9870   24.9920 C   0  0  0  0  0  3  0  0  0  0  0  0
  -21.3110   -4.6190   24.9310 C   0  0  0  0  0  0  0  0  0  0  0  0
  -21.7630   -4.0560   23.7250 C   0  0  0  0  0  3  0  0  0  0  0  0
  -21.8870   -4.8600   22.5780 C   0  0  0  0  0  0  0  0  0  0  0  0
  -22.3030   -4.3070   21.4130 F   0  0  0  0  0  0  0  0  0  0  0  0
  -21.1880   -3.8430   26.0320 F   0  0  0  0  0  0  0  0  0  0  0  0
  -22.7350  -13.5940   21.1480 C   0  0  0  0  0  0  0  0  0  0  0  0
  -22.0010  -12.8960   22.0080 N   0  0  0  0  0  0  0  0  0  0  0  0
  -22.3050  -14.6260   20.6330 O   0  0  0  0  0  0  0  0  0  0  0  0
  -22.3610  -12.0630   22.4470 H   0  0  0  0  0  0  0  0  0  0  0  0
  -21.0640  -13.2040   22.2300 H   0  0  0  0  0  0  0  0  0  0  0  0
  -25.3600  -15.2580   20.3250 N   0  0  0  0  0  0  0  0  0  0  0  0
  -24.5820  -15.9010   20.4290 H   0  0  0  0  0  0  0  0  0  0  0  0
  -26.1770  -15.6940   19.9220 H   0  0  0  0  0  0  0  0  0  0  0  0
  1 11  1  0
  1 58  1  0
  2  5  1  0
  3  2  1  0
  4  5  1  0
  5  1  1  0
  6  7  1  0
  6  3  1  0
  6  4  1  0
  8  7  1  0
  9  7  1  0
 10  7  1  0
 11 14  1  0
 11 13  1  0
 12 11  1  0
 15 14  1  0
 15 16  1  0
 17 19  1  0
 17 16  1  0
 18 29  2  0
 19 24  1  0
 20 28  1  0
 20 30  1  0
 21 27  1  0
 21 23  1  0
 22 28  1  0
 23 24  2  0
 23 22  1  0
 25 19  2  0
 26 25  1  0
 26 21  2  0
 27 20  1  0
 28 18  1  0
 30 32  2  0
 31 30  1  0
 33 31  1  0
 34 43  2  0
 34 39  1  0
 35 31  1  0
 35 39  1  0
 36 35  1  0
 37 38  1  0
 37 36  1  0
 38 34  1  0
 39 40  2  0
 40 41  1  0
 42 41  2  0
 43 42  1  0
 44 18  1  0
 44 45  1  0
 44 54  1  0
 45 48  1  0
 46 50  1  0
 46 45  1  0
 47 46  2  0
 50 49  1  0
 52 50  1  0
 52 53  1  0
 52 51  1  0
 54 57  1  1
 54 55  1  0
 56 54  1  0
 59 67  1  0
 60 65  1  0
 61 62  1  0
 61 60  1  0
 63 62  1  0
 63 72  1  0
 63 64  1  0
 65 59  1  0
 65 64  1  0
 66 59  2  0
 67 58  1  0
 68 67  1  0
 69 70  2  0
 70 89  1  0
 71 70  1  0
 71 74  1  0
 72 69  1  0
 72 73  1  0
 73 71  2  0
 74 75  1  0
 75 76  2  0
 77 80  1  0
 77 76  1  0
 78 77  2  0
 79 78  1  0
 79 74  2  0
 80 81  1  0
 81 82  1  0
 82 83  2  0
 84 83  1  0
 84 88  1  0
 85 84  2  0
 86 81  2  0
 86 85  1  0
 87 86  1  0
 89 90  1  0
 90 93  1  0
 90 92  1  0
 91 89  2  0
 94 95  1  0
 94 69  1  0
 96 94  1  0
M  ISO  4  16 101  17 101  59 100  67 100
M  END
>  <TORSDO>  (73) 
F 23

>  <SCORE>  (73) 
-14.791

>  <name>  (73) 
73

>  <ligand_id>  (73) 
73

>  <original_smiles>  (73) 
[H]c1c([H])c([H])c2c(c1[H])C([H])([H])C([H])([H])C([H])([H])C2([H])N([H])C(=O)C1([H])N(C(=O)C([H])(N([H])C(=O)C([H])(N([H])C([H])([H])[H])C([H])([H])[H])C(C([H])([H])[H])(C([H])([H])[H])C([H])([H])[H])C([H])([H])c2c([H])c(OC([H])([H])C([H])([H])C([H])([H])[N+]([H])([H])C([H])(C([H])([H])N([H])C(=O)N3C([H])([H])C([H])([H])C([H])([H])C([H])(n4nc(-c5c([H])c([H])c(Oc6c([H])c([H])c(F)c([H])c6F)c([H])c5[H])c(C(=O)N([H])[H])c4N([H])[H])C3([H])[H])C3([H])C([H])([H])C([H])([H])C([H])([N+]([H])([H])[H])C3([H])[H])c([H])c([H])c2C1([H])[H]

>  <smiles>  (73) 
[H]c1c([H])c([H])c2c(c1[H])C([H])([H])C([H])([H])C([H])([H])C2([H])N([H])C(=O)C1([H])N(C(=O)C([H])(N([H])C(=O)C([H])(N([H])C([H])([H])[H])C([H])([H])[H])C(C([H])([H])[H])(C([H])([H])[H])C([H])([H])[H])C([H])([H])c2c([H])c(OC([H])([H])C([H])([H])C([H])([H])[N+]([H])([H])C([H])(C([H])([H])N([H])C(=O)N3C([H])([H])C([H])([H])C([H])([H])C([H])(n4nc(-c5c([H])c([H])c(Oc6c([H])c([H])c(F)c([H])c6F)c([H])c5[H])c(C(=O)N([H])[H])c4N([H])[H])C3([H])[H])C3([H])C([H])([H])C([H])([H])C([H])([N+]([H])([H])[H])C3([H])[H])c([H])c([H])c2C1([H])[H]

$$$$
74:0:0
     RDKit          3D

 92 90  0  0  1  0  0  0  0  0999 V2000
  -24.4800  -14.5670   18.7760 C   0  0  0  0  0 15  0  0  0  0  0  0
  -26.4250  -15.1220   21.9570 C   0  0  0  0  0  1  0  0  0  0  0  0
  -25.3330  -12.4880   18.6760 C   0  0  0  0  0 15  0  0  0  0  0  0
  -27.2450  -13.1010   21.9090 C   0  0  0  0  0 15  0  0  0  0  0  0
  -25.1030  -16.0070   20.4460 C   0  0  0  0  0 15  0  0  0  0  0  0
  -26.7400  -11.6600   20.2590 C   0  0  0  0  0  1  0  0  0  0  0  0
  -25.3550  -17.9560   20.2580 C   0  0  0  0  0 15  0  0  0  0  0  0
  -26.1270  -19.5580   19.2140 C   0  0  0  0  0 15  0  0  0  0  0  0
  -26.8300  -21.3950   19.3650 C   0  0  0  0  0  2  0  0  0  0  0  0
  -27.5110  -21.4720   20.3910 O   0  0  0  0  0  1  0  0  0  0  0  0
  -26.8290  -23.1390   18.4550 C   0  0  0  0  0  2  0  0  0  0  0  0
  -27.5900  -24.8400   18.5240 O   0  0  0  0  0  0  0  0  0  0  0  0
  -24.8400  -30.9390   22.3990 C   0  0  0  0  0  0  0  0  0  0  0  0
  -27.0100  -26.3010   18.5620 C   0  0  0  0  0  0  0  0  0  0  0  0
  -23.6070  -29.7100   20.6810 C   0  0  0  0  0  3  0  0  0  0  0  0
  -24.9640  -28.4530   18.8660 C   0  0  0  0  0  0  0  0  0  0  0  0
  -26.1550  -29.9940   20.3870 C   0  0  0  0  0  2  0  0  0  0  0  0
  -26.1830  -28.6700   19.5120 C   0  0  0  0  0  0  0  0  0  0  0  0
  -27.2210  -27.6040   19.3430 C   0  0  0  0  0  3  0  0  0  0  0  0
  -25.8840  -26.4440   17.7570 C   0  0  0  0  0  3  0  0  0  0  0  0
  -24.8740  -27.4090   17.9420 C   0  0  0  0  0  3  0  0  0  0  0  0
  -23.7460  -29.3190   19.1860 C   0  0  0  0  0  2  0  0  0  0  0  0
  -24.8980  -30.2540   21.2050 N   0  0  0  0  0  0  0  0  0  0  0  0
  -23.7790  -31.0610   23.0350 O   0  0  0  0  0  0  0  0  0  0  0  0
  -23.0930  -28.5070   21.5200 C   0  0  0  0  0  0  0  0  0  0  0  0
  -21.7840  -28.2000   21.4450 N   0  0  0  0  0  0  0  0  0  0  0  0
  -23.8760  -27.8650   22.2230 O   0  0  0  0  0  0  0  0  0  0  0  0
  -21.1920  -28.7780   20.8640 H   0  0  0  0  0  0  0  0  0  0  0  0
  -18.6410  -26.4270   21.8450 C   0  0  0  0  0  0  0  0  0  0  0  0
  -21.1310  -27.0750   22.1240 C   0  0  0  0  0  3  0  0  0  0  0  0
  -21.4480  -25.7380   21.4120 C   0  0  0  0  0  2  0  0  0  0  0  0
  -20.3940  -25.3440   20.3740 C   0  0  0  0  0  2  0  0  0  0  0  0
  -19.0190  -25.1990   21.0320 C   0  0  0  0  0  2  0  0  0  0  0  0
  -19.6320  -27.3160   22.3440 C   0  0  0  0  0  0  0  0  0  0  0  0
  -19.2230  -28.4550   23.0690 C   0  0  0  0  0  3  0  0  0  0  0  0
  -17.8570  -28.7140   23.2960 C   0  0  0  0  0  3  0  0  0  0  0  0
  -16.8830  -27.8250   22.8100 C   0  0  0  0  0  3  0  0  0  0  0  0
  -17.2760  -26.6830   22.0910 C   0  0  0  0  0  3  0  0  0  0  0  0
  -26.0950  -31.6180   23.0200 C   0  0  0  0  0  3  0  0  0  0  0  0
  -25.6500  -32.8290   23.7400 N   0  0  0  0  0  0  0  0  0  0  0  0
  -25.8040  -34.0900   23.3120 C   0  0  0  0  0  0  0  0  0  0  0  0
  -26.3950  -34.3660   22.2660 O   0  0  0  0  0  0  0  0  0  0  0  0
  -25.1070  -32.6760   24.5770 H   0  0  0  0  0  0  0  0  0  0  0  0
  -23.8830  -35.7030   23.5770 C   0  0  0  0  0  1  0  0  0  0  0  0
  -25.2150  -35.2260   24.1790 C   0  0  0  0  0  3  0  0  0  0  0  0
  -27.3010  -36.0880   25.1500 C   0  0  0  0  0  1  0  0  0  0  0  0
  -26.1240  -36.3830   24.3380 N   0  0  0  0  0  0  0  0  0  0  0  0
  -25.6370  -37.1690   24.7590 H   0  0  0  0  0  0  0  0  0  0  0  0
  -26.8800  -30.6720   24.0130 C   0  0  1  0  0  0  0  0  0  0  0  0
  -25.9870  -30.0350   25.1050 C   0  0  0  0  0  1  0  0  0  0  0  0
  -27.5770  -29.5200   23.2590 C   0  0  0  0  0  1  0  0  0  0  0  0
  -28.0030  -31.4710   24.7160 C   0  0  0  0  0  1  0  0  0  0  0  0
  -27.5790  -10.3670   20.2300 C   0  0  0  0  0  2  0  0  0  0  0  0
  -29.1770  -10.3830   20.1000 C   0  0  0  0  0  2  0  0  0  0  0  0
  -30.7160  -12.9730   19.8700 C   0  0  1  0  0  0  0  0  0  0  0  0
  -31.4370  -12.0190   18.8720 C   0  0  0  0  0  2  0  0  0  0  0  0
  -30.0940  -12.1140   17.7160 C   0  0  0  0  0  2  0  0  0  0  0  0
  -28.5800  -12.5170   18.2570 C   0  0  0  0  0  2  0  0  0  0  0  0
  -28.4050  -13.4550   19.6330 C   0  0  0  0  0  3  0  0  0  0  0  0
  -29.5730  -13.5920   20.9360 C   0  0  0  0  0  2  0  0  0  0  0  0
  -31.0440  -12.5760   20.6350 N   0  0  0  0  0  2  0  0  0  0  0  0
  -31.5940  -14.0100   19.9220 O   0  0  0  0  0  1  0  0  0  0  0  0
  -30.1010  -11.5230   20.5150 N   0  0  0  0  0  0  0  0  0  0  0  0
  -30.5780  -11.3270   21.3810 H   0  0  0  0  0  0  0  0  0  0  0  0
  -26.3330  -14.2340   20.2560 C   0  0  1  0  0  0  0  0  0  0  0  0
  -24.6880  -13.4770   20.9770 C   0  0  0  0  0  0  0  0  0  0  0  0
  -24.6740  -12.1820   21.3850 C   0  0  0  0  0  2  0  0  0  0  0  0
  -27.0520  -13.7590   20.1220 N   0  0  0  0  0  2  0  0  0  0  0  0
  -25.3750  -13.3300   20.7950 N   0  0  0  0  0  2  0  0  0  0  0  0
  -24.1490  -10.7240   21.1200 C   0  0  0  0  0  3  0  0  0  0  0  0
  -24.5860   -9.6540   21.9710 C   0  0  0  0  0  3  0  0  0  0  0  0
  -23.9010   -8.4080   22.0870 C   0  0  0  0  0  3  0  0  0  0  0  0
  -22.7210   -8.1710   21.3470 C   0  0  0  0  0  0  0  0  0  0  0  0
  -22.3440   -9.1640   20.4140 C   0  0  0  0  0  3  0  0  0  0  0  0
  -23.0470  -10.3970   20.2880 C   0  0  0  0  0  3  0  0  0  0  0  0
  -21.9390   -7.0270   21.4440 O   0  0  0  0  0  0  0  0  0  0  0  0
  -21.8540   -6.2550   22.5890 C   0  0  0  0  0  0  0  0  0  0  0  0
  -21.4960   -6.7970   23.8450 C   0  0  0  0  0  3  0  0  0  0  0  0
  -21.3620   -5.9590   24.9740 C   0  0  0  0  0  3  0  0  0  0  0  0
  -21.5740   -4.5720   24.8580 C   0  0  0  0  0  0  0  0  0  0  0  0
  -21.9110   -4.0220   23.6090 C   0  0  0  0  0  3  0  0  0  0  0  0
  -22.0420   -4.8560   22.4820 C   0  0  0  0  0  0  0  0  0  0  0  0
  -22.3400   -4.3030   21.2820 F   0  0  0  0  0  0  0  0  0  0  0  0
  -21.4540   -3.7680   25.9420 F   0  0  0  0  0  0  0  0  0  0  0  0
  -23.0690  -13.8550   21.2230 C   0  0  0  0  0  0  0  0  0  0  0  0
  -22.3650  -13.1440   22.1200 N   0  0  0  0  0  0  0  0  0  0  0  0
  -22.4730  -14.7310   20.6130 O   0  0  0  0  0  0  0  0  0  0  0  0
  -22.7920  -12.4210   22.6780 H   0  0  0  0  0  0  0  0  0  0  0  0
  -21.3900  -13.3590   22.2670 H   0  0  0  0  0  0  0  0  0  0  0  0
  -26.9700  -15.4440   19.6570 N   0  0  0  0  0  0  0  0  0  0  0  0
  -26.3870  -16.2440   19.8640 H   0  0  0  0  0  0  0  0  0  0  0  0
  -27.9420  -15.6150   19.8600 H   0  0  0  0  0  0  0  0  0  0  0  0
  9 10  1  0
 11 12  1  0
 11  9  1  0
 12 14  1  0
 13 24  2  0
 14 19  1  0
 15 23  1  0
 15 25  1  0
 16 22  1  0
 16 18  1  0
 17 23  1  0
 18 17  1  0
 19 18  2  0
 20 21  1  0
 20 14  2  0
 21 16  2  0
 22 15  1  0
 23 13  1  0
 25 27  2  0
 26 25  1  0
 28 26  1  0
 29 38  2  0
 29 34  1  0
 30 26  1  0
 30 34  1  0
 31 30  1  0
 32 33  1  0
 32 31  1  0
 33 29  1  0
 34 35  2  0
 35 36  1  0
 37 36  2  0
 38 37  1  0
 39 13  1  0
 39 40  1  0
 39 49  1  0
 40 43  1  0
 41 40  1  0
 41 45  1  0
 42 41  2  0
 45 44  1  0
 45 47  1  0
 47 48  1  0
 47 46  1  0
 49 52  1  1
 49 50  1  0
 51 49  1  0
 53  6  1  0
 54 53  1  0
 54 63  1  0
 55 62  1  6
 55 61  1  0
 55 60  1  0
 56 55  1  0
 57 58  1  0
 57 56  1  0
 58 59  1  0
 59 68  1  0
 59 60  1  0
 63 61  1  0
 63 64  1  0
 65 69  1  0
 65  2  1  1
 66 85  1  0
 66 67  2  0
 68 65  1  0
 69 66  1  0
 70 71  1  0
 71 72  2  0
 73 76  1  0
 73 72  1  0
 74 73  2  0
 75 74  1  0
 75 70  2  0
 76 77  1  0
 77 78  1  0
 78 79  2  0
 80 79  1  0
 80 84  1  0
 81 80  2  0
 82 77  2  0
 82 81  1  0
 83 82  1  0
 85 86  1  0
 86 89  1  0
 86 88  1  0
 87 85  2  0
 90 92  1  0
 90 91  1  0
 90 65  1  0
M  ISO  4  11 101  12 101  55 100  63 100
M  END
>  <TORSDO>  (74) 
F 22

>  <SCORE>  (74) 
-4.664

>  <name>  (74) 
74

>  <ligand_id>  (74) 
74

>  <original_smiles>  (74) 
[H]c1c([H])c([H])c2c(c1[H])C([H])([H])C([H])([H])C([H])([H])C2([H])N([H])C(=O)C1([H])N(C(=O)C([H])(N([H])C(=O)C([H])(N([H])C([H])([H])[H])C([H])([H])[H])C(C([H])([H])[H])(C([H])([H])[H])C([H])([H])[H])C([H])([H])c2c([H])c(OC([H])([H])C(=O)C([H])([H])C([H])([H])c3c([H])c([H])c(C([H])([H])C([H])([H])N([H])C(=O)N4C([H])([H])C([H])([H])C([H])([H])C([H])(n5nc(-c6c([H])c([H])c(Oc7c([H])c([H])c(F)c([H])c7F)c([H])c6[H])c(C(=O)N([H])[H])c5N([H])[H])C4([H])[H])c([H])c3[H])c([H])c([H])c2C1([H])[H]

>  <smiles>  (74) 
[H]c1c([H])c([H])c2c(c1[H])C([H])([H])C([H])([H])C([H])([H])C2([H])N([H])C(=O)C1([H])N(C(=O)C([H])(N([H])C(=O)C([H])(N([H])C([H])([H])[H])C([H])([H])[H])C(C([H])([H])[H])(C([H])([H])[H])C([H])([H])[H])C([H])([H])c2c([H])c(OC([H])([H])C(=O)C([H])([H])C([H])([H])c3c([H])c([H])c(C([H])([H])C([H])([H])N([H])C(=O)N4C([H])([H])C([H])([H])C([H])([H])C([H])(n5nc(-c6c([H])c([H])c(Oc7c([H])c([H])c(F)c([H])c7F)c([H])c6[H])c(C(=O)N([H])[H])c5N([H])[H])C4([H])[H])c([H])c3[H])c([H])c([H])c2C1([H])[H]

$$$$
75:0:0
     RDKit          3D

 93101  0  0  1  0  0  0  0  0999 V2000
  -30.8680  -14.4720   20.3880 C   0  0  0  0  0  0  0  0  0  0  0  0
  -30.5870  -12.2320   19.3970 C   0  0  0  0  0  2  0  0  0  0  0  0
  -29.6800  -12.3550   18.1550 C   0  0  0  0  0  2  0  0  0  0  0  0
  -28.1930  -12.2570   18.5530 C   0  0  0  0  0  2  0  0  0  0  0  0
  -27.8310  -13.1830   19.7460 C   0  0  0  0  0  3  0  0  0  0  0  0
  -28.8560  -13.0310   20.8940 C   0  0  0  0  0  2  0  0  0  0  0  0
  -30.1890  -13.2940   20.3360 N   0  0  0  0  0  0  0  0  0  0  0  0
  -32.0300  -14.5760   19.9790 O   0  0  0  0  0  0  0  0  0  0  0  0
  -29.3140  -18.5250   20.7490 C   0  0  0  0  0  0  0  0  0  0  0  0
  -29.8750  -17.6890   21.9020 C   0  0  0  0  0  2  0  0  0  0  0  0
  -29.6530  -16.1520   21.7600 C   0  0  0  0  0  2  0  0  0  0  0  0
  -30.2260  -16.5790   19.3800 C   0  0  0  0  0  2  0  0  0  0  0  0
  -29.1970  -17.7360   19.4420 C   0  0  0  0  0  3  0  0  0  0  0  0
  -28.9940  -19.7600   20.9190 N   0  0  0  0  0  0  0  0  0  0  0  0
  -30.0880  -15.5860   20.4640 N   0  0  0  0  0  0  0  0  0  0  0  0
  -25.4370  -13.8700   20.3820 C   0  0  0  0  0  0  0  0  0  0  0  0
  -24.3490  -13.1380   20.7740 C   0  0  0  0  0  0  0  0  0  0  0  0
  -24.7790  -11.7760   20.8010 C   0  0  0  0  0  0  0  0  0  0  0  0
  -26.4640  -12.9560   20.2070 N   0  0  0  0  0  0  0  0  0  0  0  0
  -26.0720  -11.6960   20.5140 N   0  0  0  0  0  0  0  0  0  0  0  0
  -24.0230  -10.5360   21.0210 C   0  0  0  0  0  0  0  0  0  0  0  0
  -24.4460   -9.5720   21.9630 C   0  0  0  0  0  3  0  0  0  0  0  0
  -23.6940   -8.3970   22.1700 C   0  0  0  0  0  3  0  0  0  0  0  0
  -22.5050   -8.1760   21.4370 C   0  0  0  0  0  0  0  0  0  0  0  0
  -22.1010   -9.1270   20.4820 C   0  0  0  0  0  3  0  0  0  0  0  0
  -22.8530  -10.2940   20.2730 C   0  0  0  0  0  3  0  0  0  0  0  0
  -21.7230   -7.0530   21.5560 O   0  0  0  0  0  0  0  0  0  0  0  0
  -21.7130   -6.3020   22.7040 C   0  0  0  0  0  0  0  0  0  0  0  0
  -21.3870   -6.8620   23.9590 C   0  0  0  0  0  3  0  0  0  0  0  0
  -21.3220   -6.0400   25.1010 C   0  0  0  0  0  3  0  0  0  0  0  0
  -21.5720   -4.6590   24.9910 C   0  0  0  0  0  0  0  0  0  0  0  0
  -21.8920   -4.0980   23.7420 C   0  0  0  0  0  3  0  0  0  0  0  0
  -21.9600   -4.9180   22.6020 C   0  0  0  0  0  0  0  0  0  0  0  0
  -22.2480   -4.3690   21.3970 F   0  0  0  0  0  0  0  0  0  0  0  0
  -21.5020   -3.8670   26.0860 F   0  0  0  0  0  0  0  0  0  0  0  0
  -22.9550  -13.6530   20.9910 C   0  0  0  0  0  0  0  0  0  0  0  0
  -22.1970  -13.0170   21.8770 N   0  0  0  0  0  0  0  0  0  0  0  0
  -22.5510  -14.6580   20.4090 O   0  0  0  0  0  0  0  0  0  0  0  0
  -22.5370  -12.2050   22.3710 H   0  0  0  0  0  0  0  0  0  0  0  0
  -21.2600  -13.3480   22.0650 H   0  0  0  0  0  0  0  0  0  0  0  0
  -25.6360  -15.2230   20.1100 N   0  0  0  0  0  0  0  0  0  0  0  0
  -24.7660  -15.7100   20.3010 H   0  0  0  0  0  0  0  0  0  0  0  0
  -25.7790  -15.2710   19.1090 H   0  0  0  0  0  0  0  0  0  0  0  0
  -27.8050  -17.2710   19.2830 N   0  0  0  0  0  4  0  0  0  0  0  0
  -27.5310  -16.6010   19.9840 H   0  0  0  0  0  0  0  0  0  0  0  0
  -27.6710  -16.8720   18.3710 H   0  0  0  0  0  0  0  0  0  0  0  0
  -27.1840  -18.0570   19.3710 H   0  0  0  0  0  0  0  0  0  0  0  0
  -28.5110  -20.5760   19.8040 C   0  0  0  0  0  2  0  0  0  0  0  0
  -27.7020  -21.8080   20.2740 C   0  0  0  0  0  2  0  0  0  0  0  0
  -28.5150  -23.0870   20.6070 C   0  0  0  0  0  2  0  0  0  0  0  0
  -27.9650  -24.3610   19.9150 C   0  0  0  0  0  2  0  0  0  0  0  0
  -28.5950  -25.6830   20.4140 C   0  0  0  0  0  2  0  0  0  0  0  0
  -28.3970  -26.7880   19.5240 O   0  0  0  0  0  0  0  0  0  0  0  0
  -24.6170  -31.6910   23.0560 C   0  0  0  0  0  0  0  0  0  0  0  0
  -27.2150  -27.4770   19.6560 C   0  0  0  0  0  0  0  0  0  0  0  0
  -23.3740  -30.3640   21.3770 C   0  0  0  0  0  3  0  0  0  0  0  0
  -24.8000  -28.9290   19.8240 C   0  0  0  0  0  0  0  0  0  0  0  0
  -25.8840  -30.7770   21.1140 C   0  0  0  0  0  2  0  0  0  0  0  0
  -25.9670  -29.4430   20.4030 C   0  0  0  0  0  0  0  0  0  0  0  0
  -27.1800  -28.7230   20.3180 C   0  0  0  0  0  3  0  0  0  0  0  0
  -26.0370  -26.9750   19.0650 C   0  0  0  0  0  3  0  0  0  0  0  0
  -24.8280  -27.6930   19.1520 C   0  0  0  0  0  3  0  0  0  0  0  0
  -23.5450  -29.7640   19.9560 C   0  0  0  0  0  2  0  0  0  0  0  0
  -24.6460  -30.9560   21.9080 N   0  0  0  0  0  0  0  0  0  0  0  0
  -23.5530  -31.9140   23.6470 O   0  0  0  0  0  0  0  0  0  0  0  0
  -22.7720  -29.2810   22.3000 C   0  0  0  0  0  0  0  0  0  0  0  0
  -21.4450  -29.0950   22.2180 N   0  0  0  0  0  0  0  0  0  0  0  0
  -23.4940  -28.6110   23.0440 O   0  0  0  0  0  0  0  0  0  0  0  0
  -20.9210  -29.6890   21.5910 H   0  0  0  0  0  0  0  0  0  0  0  0
  -18.1030  -27.8430   22.7750 C   0  0  0  0  0  0  0  0  0  0  0  0
  -20.6680  -28.1050   22.9630 C   0  0  0  0  0  3  0  0  0  0  0  0
  -20.7550  -26.7130   22.2960 C   0  0  0  0  0  2  0  0  0  0  0  0
  -19.6170  -26.4440   21.3070 C   0  0  0  0  0  2  0  0  0  0  0  0
  -18.2610  -26.5380   22.0120 C   0  0  0  0  0  2  0  0  0  0  0  0
  -19.2330  -28.5860   23.2070 C   0  0  0  0  0  0  0  0  0  0  0  0
  -19.0310  -29.8110   23.8790 C   0  0  0  0  0  3  0  0  0  0  0  0
  -17.7310  -30.2920   24.1240 C   0  0  0  0  0  3  0  0  0  0  0  0
  -16.6150  -29.5450   23.7080 C   0  0  0  0  0  3  0  0  0  0  0  0
  -16.8030  -28.3220   23.0400 C   0  0  0  0  0  3  0  0  0  0  0  0
  -25.9170  -32.3050   23.6660 C   0  0  0  0  0  3  0  0  0  0  0  0
  -25.6110  -33.6880   24.0530 N   0  0  0  0  0  0  0  0  0  0  0  0
  -25.9240  -34.7680   23.3240 C   0  0  0  0  0  0  0  0  0  0  0  0
  -26.5690  -34.7040   22.2750 O   0  0  0  0  0  0  0  0  0  0  0  0
  -25.0370  -33.8120   24.8740 H   0  0  0  0  0  0  0  0  0  0  0  0
  -24.1710  -36.5550   23.0840 C   0  0  0  0  0  1  0  0  0  0  0  0
  -25.4420  -36.1360   23.8410 C   0  0  0  0  0  3  0  0  0  0  0  0
  -27.5970  -37.0110   24.6270 C   0  0  0  0  0  1  0  0  0  0  0  0
  -26.4620  -37.2010   23.7280 N   0  0  0  0  0  0  0  0  0  0  0  0
  -26.0550  -38.1120   23.9200 H   0  0  0  0  0  0  0  0  0  0  0  0
  -26.4720  -31.4880   24.8970 C   0  0  1  0  0  0  0  0  0  0  0  0
  -25.4130  -31.2110   25.9880 C   0  0  0  0  0  1  0  0  0  0  0  0
  -27.0400  -30.1260   24.4340 C   0  0  0  0  0  1  0  0  0  0  0  0
  -27.6450  -32.2570   25.5500 C   0  0  0  0  0  1  0  0  0  0  0  0
  1 15  1  0
  2  7  1  0
  3  4  1  0
  3  2  1  0
  5  4  1  0
  5 19  1  0
  5  6  1  0
  7  1  1  0
  7  6  1  0
  8  1  2  0
  9 14  2  0
  9 10  1  0
 11 10  1  0
 12 13  1  0
 12 15  1  0
 13 44  1  0
 13  9  1  0
 15 11  1  0
 16 17  2  0
 17 18  1  0
 17 36  1  0
 18 21  1  0
 19 16  1  0
 19 20  1  0
 20 18  2  0
 21 22  1  0
 22 23  2  0
 24 27  1  0
 24 23  1  0
 25 24  2  0
 26 25  1  0
 26 21  2  0
 27 28  1  0
 28 29  1  0
 29 30  2  0
 31 30  1  0
 31 35  1  0
 32 31  2  0
 33 28  2  0
 33 32  1  0
 34 33  1  0
 36 37  1  0
 37 40  1  0
 37 39  1  0
 38 36  2  0
 41 42  1  0
 41 16  1  0
 43 41  1  0
 44 47  1  0
 44 45  1  0
 46 44  1  0
 48 49  1  0
 48 14  1  0
 49 50  1  0
 51 52  1  0
 51 50  1  0
 53 55  1  0
 53 52  1  0
 54 65  2  0
 55 60  1  0
 56 64  1  0
 56 66  1  0
 57 63  1  0
 57 59  1  0
 58 64  1  0
 59 58  1  0
 60 59  2  0
 61 62  1  0
 61 55  2  0
 62 57  2  0
 63 56  1  0
 64 54  1  0
 66 68  2  0
 67 66  1  0
 69 67  1  0
 70 79  2  0
 70 75  1  0
 71 67  1  0
 71 75  1  0
 72 71  1  0
 73 74  1  0
 73 72  1  0
 74 70  1  0
 75 76  2  0
 76 77  1  0
 78 77  2  0
 79 78  1  0
 80 54  1  0
 80 81  1  0
 80 90  1  0
 81 84  1  0
 82 86  1  0
 82 81  1  0
 83 82  2  0
 86 85  1  0
 88 86  1  0
 88 89  1  0
 88 87  1  0
 90 93  1  1
 90 91  1  0
 92 90  1  0
M  ISO  4   1 100  15 100  52 101  53 101
M  END
>  <TORSDO>  (75) 
F 21

>  <SCORE>  (75) 
-12.663

>  <name>  (75) 
75

>  <ligand_id>  (75) 
75

>  <original_smiles>  (75) 
[H]c1c([H])c([H])c2c(c1[H])C([H])([H])C([H])([H])C([H])([H])C2([H])N([H])C(=O)C1([H])N(C(=O)C([H])(N([H])C(=O)C([H])(N([H])C([H])([H])[H])C([H])([H])[H])C(C([H])([H])[H])(C([H])([H])[H])C([H])([H])[H])C([H])([H])c2c([H])c(OC([H])([H])C([H])([H])C([H])([H])C([H])([H])C([H])([H])N=C3C([H])([H])C([H])([H])N(C(=O)N4C([H])([H])C([H])([H])C([H])([H])C([H])(n5nc(-c6c([H])c([H])c(Oc7c([H])c([H])c(F)c([H])c7F)c([H])c6[H])c(C(=O)N([H])[H])c5N([H])[H])C4([H])[H])C([H])([H])C3([H])[N+]([H])([H])[H])c([H])c([H])c2C1([H])[H]

>  <smiles>  (75) 
[H]c1c([H])c([H])c2c(c1[H])C([H])([H])C([H])([H])C([H])([H])C2([H])N([H])C(=O)C1([H])N(C(=O)C([H])(N([H])C(=O)C([H])(N([H])C([H])([H])[H])C([H])([H])[H])C(C([H])([H])[H])(C([H])([H])[H])C([H])([H])[H])C([H])([H])c2c([H])c(OC([H])([H])C([H])([H])C([H])([H])C([H])([H])C([H])([H])N=C3C([H])([H])C([H])([H])N(C(=O)N4C([H])([H])C([H])([H])C([H])([H])C([H])(n5nc(-c6c([H])c([H])c(Oc7c([H])c([H])c(F)c([H])c7F)c([H])c6[H])c(C(=O)N([H])[H])c5N([H])[H])C4([H])[H])C([H])([H])C3([H])[N+]([H])([H])[H])c([H])c([H])c2C1([H])[H]

$$$$
76:0:0
     RDKit          3D

 93101  0  0  1  0  0  0  0  0999 V2000
  -28.6560  -22.4340   19.5360 C   0  0  0  0  0  2  0  0  0  0  0  0
  -30.0680  -20.5690   18.6460 C   0  0  0  0  0  3  0  0  0  0  0  0
  -27.7380  -20.1130   19.2490 C   0  0  0  0  0  3  0  0  0  0  0  0
  -30.3220  -19.1930   18.5690 C   0  0  0  0  0  3  0  0  0  0  0  0
  -27.9920  -18.7370   19.1670 C   0  0  0  0  0  3  0  0  0  0  0  0
  -28.7990  -21.0170   19.0610 C   0  0  0  0  0  0  0  0  0  0  0  0
  -29.3000  -18.2870   18.9020 C   0  0  0  0  0  0  0  0  0  0  0  0
  -29.6400  -16.8510   19.1670 C   0  0  0  0  0  2  0  0  0  0  0  0
  -30.0300  -16.7020   20.6570 C   0  0  0  0  0  2  0  0  0  0  0  0
  -30.6990  -14.3510   20.5500 C   0  0  0  0  0  0  0  0  0  0  0  0
  -30.3910  -12.2350   19.3520 C   0  0  0  0  0  2  0  0  0  0  0  0
  -29.4690  -12.5050   18.1450 C   0  0  0  0  0  2  0  0  0  0  0  0
  -27.9850  -12.3920   18.5480 C   0  0  0  0  0  2  0  0  0  0  0  0
  -27.6520  -13.1970   19.8340 C   0  0  0  0  0  3  0  0  0  0  0  0
  -28.6850  -12.8980   20.9460 C   0  0  0  0  0  2  0  0  0  0  0  0
  -30.0310  -13.1820   20.4110 N   0  0  0  0  0  0  0  0  0  0  0  0
  -31.8010  -14.5930   20.0500 O   0  0  0  0  0  0  0  0  0  0  0  0
  -29.9500  -15.3150   21.0760 N   0  0  0  0  0  0  0  0  0  0  0  0
  -29.0780  -15.0130   21.4810 H   0  0  0  0  0  0  0  0  0  0  0  0
  -25.2380  -13.8240   20.4850 C   0  0  0  0  0  0  0  0  0  0  0  0
  -24.1640  -13.0590   20.8520 C   0  0  0  0  0  0  0  0  0  0  0  0
  -24.6250  -11.7080   20.8460 C   0  0  0  0  0  0  0  0  0  0  0  0
  -26.2870  -12.9390   20.2860 N   0  0  0  0  0  0  0  0  0  0  0  0
  -25.9170  -11.6620   20.5540 N   0  0  0  0  0  0  0  0  0  0  0  0
  -23.8960  -10.4490   21.0420 C   0  0  0  0  0  0  0  0  0  0  0  0
  -24.3310   -9.4860   21.9760 C   0  0  0  0  0  3  0  0  0  0  0  0
  -23.6110   -8.2870   22.1570 C   0  0  0  0  0  3  0  0  0  0  0  0
  -22.4380   -8.0420   21.4030 C   0  0  0  0  0  0  0  0  0  0  0  0
  -22.0200   -8.9970   20.4590 C   0  0  0  0  0  3  0  0  0  0  0  0
  -22.7410  -10.1900   20.2790 C   0  0  0  0  0  3  0  0  0  0  0  0
  -21.6850   -6.8990   21.4930 O   0  0  0  0  0  0  0  0  0  0  0  0
  -21.6490   -6.1470   22.6420 C   0  0  0  0  0  0  0  0  0  0  0  0
  -21.2540   -6.6970   23.8820 C   0  0  0  0  0  3  0  0  0  0  0  0
  -21.1690   -5.8730   25.0240 C   0  0  0  0  0  3  0  0  0  0  0  0
  -21.4680   -4.5020   24.9250 C   0  0  0  0  0  0  0  0  0  0  0  0
  -21.8560   -3.9530   23.6910 C   0  0  0  0  0  3  0  0  0  0  0  0
  -21.9420   -4.7720   22.5530 C   0  0  0  0  0  0  0  0  0  0  0  0
  -22.2990   -4.2330   21.3610 F   0  0  0  0  0  0  0  0  0  0  0  0
  -21.3780   -3.7070   26.0180 F   0  0  0  0  0  0  0  0  0  0  0  0
  -22.7640  -13.5380   21.1060 C   0  0  0  0  0  0  0  0  0  0  0  0
  -22.0290  -12.8530   21.9740 N   0  0  0  0  0  0  0  0  0  0  0  0
  -22.3300  -14.5560   20.5680 O   0  0  0  0  0  0  0  0  0  0  0  0
  -22.3910  -12.0280   22.4280 H   0  0  0  0  0  0  0  0  0  0  0  0
  -21.0910  -13.1590   22.1920 H   0  0  0  0  0  0  0  0  0  0  0  0
  -25.4080  -15.1920   20.2920 N   0  0  0  0  0  0  0  0  0  0  0  0
  -24.6330  -15.8420   20.3690 H   0  0  0  0  0  0  0  0  0  0  0  0
  -26.2490  -15.6200   19.9320 H   0  0  0  0  0  0  0  0  0  0  0  0
  -29.3220  -22.5180   20.9250 C   0  0  0  0  0  2  0  0  0  0  0  0
  -29.0440  -23.8060   21.6840 C   0  0  0  0  0  0  0  0  0  0  0  0
  -28.4450  -23.7930   22.7620 O   0  0  0  0  0  0  0  0  0  0  0  0
  -29.5490  -25.1020   21.0730 C   0  0  0  0  0  2  0  0  0  0  0  0
  -28.6540  -25.5490   19.9140 C   0  0  0  0  0  2  0  0  0  0  0  0
  -28.5350  -26.9460   20.0180 O   0  0  0  0  0  0  0  0  0  0  0  0
  -24.6440  -31.8800   23.2140 C   0  0  0  0  0  0  0  0  0  0  0  0
  -27.2940  -27.5250   20.0690 C   0  0  0  0  0  0  0  0  0  0  0  0
  -23.4200  -30.4800   21.5780 C   0  0  0  0  0  3  0  0  0  0  0  0
  -24.8640  -28.9540   20.1370 C   0  0  0  0  0  0  0  0  0  0  0  0
  -25.9340  -30.8640   21.3500 C   0  0  0  0  0  2  0  0  0  0  0  0
  -26.0180  -29.5020   20.7060 C   0  0  0  0  0  0  0  0  0  0  0  0
  -27.2320  -28.7930   20.6720 C   0  0  0  0  0  3  0  0  0  0  0  0
  -26.1200  -26.9670   19.5060 C   0  0  0  0  0  3  0  0  0  0  0  0
  -24.9050  -27.6790   19.5430 C   0  0  0  0  0  3  0  0  0  0  0  0
  -23.6140  -29.8000   20.1950 C   0  0  0  0  0  2  0  0  0  0  0  0
  -24.6840  -31.0880   22.1070 N   0  0  0  0  0  0  0  0  0  0  0  0
  -23.5700  -32.1490   23.7670 O   0  0  0  0  0  0  0  0  0  0  0  0
  -22.7890  -29.4510   22.5420 C   0  0  0  0  0  0  0  0  0  0  0  0
  -21.4650  -29.2660   22.4250 N   0  0  0  0  0  0  0  0  0  0  0  0
  -23.4850  -28.8220   23.3430 O   0  0  0  0  0  0  0  0  0  0  0  0
  -20.9680  -29.8220   21.7430 H   0  0  0  0  0  0  0  0  0  0  0  0
  -18.0990  -28.0760   22.9490 C   0  0  0  0  0  0  0  0  0  0  0  0
  -20.6580  -28.3270   23.2020 C   0  0  0  0  0  3  0  0  0  0  0  0
  -20.7540  -26.9000   22.6170 C   0  0  0  0  0  2  0  0  0  0  0  0
  -19.6420  -26.5830   21.6120 C   0  0  0  0  0  2  0  0  0  0  0  0
  -18.2670  -26.7270   22.2690 C   0  0  0  0  0  2  0  0  0  0  0  0
  -19.2210  -28.8340   23.3730 C   0  0  0  0  0  0  0  0  0  0  0  0
  -19.0110  -30.0980   23.9660 C   0  0  0  0  0  3  0  0  0  0  0  0
  -17.7090  -30.6010   24.1440 C   0  0  0  0  0  3  0  0  0  0  0  0
  -16.6000  -29.8390   23.7380 C   0  0  0  0  0  3  0  0  0  0  0  0
  -16.7950  -28.5780   23.1460 C   0  0  0  0  0  3  0  0  0  0  0  0
  -25.9400  -32.5070   23.8180 C   0  0  0  0  0  3  0  0  0  0  0  0
  -25.6340  -33.9000   24.1650 N   0  0  0  0  0  0  0  0  0  0  0  0
  -25.9520  -34.9580   23.4080 C   0  0  0  0  0  0  0  0  0  0  0  0
  -26.6070  -34.8640   22.3650 O   0  0  0  0  0  0  0  0  0  0  0  0
  -25.0510  -34.0480   24.9760 H   0  0  0  0  0  0  0  0  0  0  0  0
  -24.2080  -36.7390   23.0880 C   0  0  0  0  0  1  0  0  0  0  0  0
  -25.4630  -36.3400   23.8800 C   0  0  0  0  0  3  0  0  0  0  0  0
  -27.6060  -37.2270   24.6850 C   0  0  0  0  0  1  0  0  0  0  0  0
  -26.4890  -37.4000   23.7580 N   0  0  0  0  0  0  0  0  0  0  0  0
  -26.0820  -38.3170   23.9200 H   0  0  0  0  0  0  0  0  0  0  0  0
  -26.4840  -31.7220   25.0740 C   0  0  1  0  0  0  0  0  0  0  0  0
  -25.4130  -31.4640   26.1580 C   0  0  0  0  0  1  0  0  0  0  0  0
  -27.0660  -30.3530   24.6490 C   0  0  0  0  0  1  0  0  0  0  0  0
  -27.6470  -32.5100   25.7220 C   0  0  0  0  0  1  0  0  0  0  0  0
  1 48  1  0
  2  6  1  0
  4  2  2  0
  4  7  1  0
  5  3  1  0
  6  3  2  0
  6  1  1  0
  7  5  2  0
  7  8  1  0
  8  9  1  0
  9 18  1  0
 10 18  1  0
 11 16  1  0
 12 13  1  0
 12 11  1  0
 14 13  1  0
 14 23  1  0
 14 15  1  0
 16 10  1  0
 16 15  1  0
 17 10  2  0
 18 19  1  0
 20 21  2  0
 21 40  1  0
 22 21  1  0
 22 25  1  0
 23 20  1  0
 23 24  1  0
 24 22  2  0
 25 26  1  0
 26 27  2  0
 28 31  1  0
 28 27  1  0
 29 28  2  0
 30 29  1  0
 30 25  2  0
 31 32  1  0
 32 33  1  0
 33 34  2  0
 35 34  1  0
 35 39  1  0
 36 35  2  0
 37 32  2  0
 37 36  1  0
 38 37  1  0
 40 41  1  0
 41 44  1  0
 41 43  1  0
 42 40  2  0
 45 46  1  0
 45 20  1  0
 47 45  1  0
 48 49  1  0
 49 50  2  0
 51 49  1  0
 52 53  1  0
 52 51  1  0
 53 55  1  0
 54 65  2  0
 55 60  1  0
 56 64  1  0
 56 66  1  0
 57 63  1  0
 57 59  1  0
 58 64  1  0
 59 58  1  0
 60 59  2  0
 61 62  1  0
 61 55  2  0
 62 57  2  0
 63 56  1  0
 64 54  1  0
 66 68  2  0
 67 66  1  0
 69 67  1  0
 70 79  2  0
 70 75  1  0
 71 67  1  0
 71 75  1  0
 72 71  1  0
 73 74  1  0
 73 72  1  0
 74 70  1  0
 75 76  2  0
 76 77  1  0
 78 77  2  0
 79 78  1  0
 80 54  1  0
 80 81  1  0
 80 90  1  0
 81 84  1  0
 82 86  1  0
 82 81  1  0
 83 82  2  0
 86 85  1  0
 88 86  1  0
 88 89  1  0
 88 87  1  0
 90 93  1  1
 90 91  1  0
 92 90  1  0
M  ISO  4  10 100  18 100  52 101  53 101
M  END
>  <TORSDO>  (76) 
F 23

>  <SCORE>  (76) 
-12.697

>  <name>  (76) 
76

>  <ligand_id>  (76) 
76

>  <original_smiles>  (76) 
[H]c1c([H])c([H])c2c(c1[H])C([H])([H])C([H])([H])C([H])([H])C2([H])N([H])C(=O)C1([H])N(C(=O)C([H])(N([H])C(=O)C([H])(N([H])C([H])([H])[H])C([H])([H])[H])C(C([H])([H])[H])(C([H])([H])[H])C([H])([H])[H])C([H])([H])c2c([H])c(OC([H])([H])C([H])([H])C(=O)C([H])([H])C([H])([H])c3c([H])c([H])c(C([H])([H])C([H])([H])N([H])C(=O)N4C([H])([H])C([H])([H])C([H])([H])C([H])(n5nc(-c6c([H])c([H])c(Oc7c([H])c([H])c(F)c([H])c7F)c([H])c6[H])c(C(=O)N([H])[H])c5N([H])[H])C4([H])[H])c([H])c3[H])c([H])c([H])c2C1([H])[H]

>  <smiles>  (76) 
[H]c1c([H])c([H])c2c(c1[H])C([H])([H])C([H])([H])C([H])([H])C2([H])N([H])C(=O)C1([H])N(C(=O)C([H])(N([H])C(=O)C([H])(N([H])C([H])([H])[H])C([H])([H])[H])C(C([H])([H])[H])(C([H])([H])[H])C([H])([H])[H])C([H])([H])c2c([H])c(OC([H])([H])C([H])([H])C(=O)C([H])([H])C([H])([H])c3c([H])c([H])c(C([H])([H])C([H])([H])N([H])C(=O)N4C([H])([H])C([H])([H])C([H])([H])C([H])(n5nc(-c6c([H])c([H])c(Oc7c([H])c([H])c(F)c([H])c7F)c([H])c6[H])c(C(=O)N([H])[H])c5N([H])[H])C4([H])[H])c([H])c3[H])c([H])c([H])c2C1([H])[H]

$$$$
77:0:0
     RDKit          3D

 95103  0  0  1  0  0  0  0  0999 V2000
  -32.0560  -23.0370   21.7820 C   0  0  0  0  0  1  0  0  0  0  0  0
  -31.0080  -22.9810   20.6530 C   0  0  0  0  0  3  0  0  0  0  0  0
  -31.0620  -24.3060   19.8490 C   0  0  0  0  0  2  0  0  0  0  0  0
  -29.9360  -24.5420   18.8180 C   0  0  0  0  0  2  0  0  0  0  0  0
  -28.5260  -24.4490   19.4050 C   0  0  0  0  0  0  0  0  0  0  0  0
  -27.7330  -23.5970   18.9970 O   0  0  0  0  0  0  0  0  0  0  0  0
  -28.1460  -25.4200   20.5260 C   0  0  0  0  0  2  0  0  0  0  0  0
  -28.2840  -26.7760   20.0950 O   0  0  0  0  0  0  0  0  0  0  0  0
  -24.5000  -31.8880   23.2480 C   0  0  0  0  0  0  0  0  0  0  0  0
  -27.1140  -27.4950   20.0990 C   0  0  0  0  0  0  0  0  0  0  0  0
  -23.2800  -30.5150   21.5900 C   0  0  0  0  0  3  0  0  0  0  0  0
  -24.7210  -28.9910   20.1410 C   0  0  0  0  0  0  0  0  0  0  0  0
  -25.8040  -30.8700   21.3860 C   0  0  0  0  0  2  0  0  0  0  0  0
  -25.8830  -29.5100   20.7270 C   0  0  0  0  0  0  0  0  0  0  0  0
  -27.0840  -28.7700   20.7000 C   0  0  0  0  0  3  0  0  0  0  0  0
  -25.9370  -26.9820   19.5090 C   0  0  0  0  0  3  0  0  0  0  0  0
  -24.7420  -27.7250   19.5300 C   0  0  0  0  0  3  0  0  0  0  0  0
  -23.4790  -29.8500   20.2030 C   0  0  0  0  0  2  0  0  0  0  0  0
  -24.5470  -31.1040   22.1340 N   0  0  0  0  0  0  0  0  0  0  0  0
  -23.4230  -32.1590   23.7950 O   0  0  0  0  0  0  0  0  0  0  0  0
  -22.6270  -29.4860   22.5370 C   0  0  0  0  0  0  0  0  0  0  0  0
  -21.3030  -29.3020   22.4000 N   0  0  0  0  0  0  0  0  0  0  0  0
  -23.3060  -28.8530   23.3500 O   0  0  0  0  0  0  0  0  0  0  0  0
  -20.8160  -29.8620   21.7140 H   0  0  0  0  0  0  0  0  0  0  0  0
  -17.9280  -28.1010   22.8650 C   0  0  0  0  0  0  0  0  0  0  0  0
  -20.4840  -28.3570   23.1570 C   0  0  0  0  0  3  0  0  0  0  0  0
  -20.5910  -26.9310   22.5690 C   0  0  0  0  0  2  0  0  0  0  0  0
  -19.4970  -26.6170   21.5440 C   0  0  0  0  0  2  0  0  0  0  0  0
  -18.1100  -26.7570   22.1790 C   0  0  0  0  0  2  0  0  0  0  0  0
  -19.0440  -28.8590   23.3090 C   0  0  0  0  0  0  0  0  0  0  0  0
  -18.8210  -30.1180   23.9090 C   0  0  0  0  0  3  0  0  0  0  0  0
  -17.5160  -30.6210   24.0650 C   0  0  0  0  0  3  0  0  0  0  0  0
  -16.4150  -29.8590   23.6380 C   0  0  0  0  0  3  0  0  0  0  0  0
  -16.6210  -28.6000   23.0440 C   0  0  0  0  0  3  0  0  0  0  0  0
  -25.7930  -32.5000   23.8730 C   0  0  0  0  0  3  0  0  0  0  0  0
  -25.5070  -33.9060   24.1900 N   0  0  0  0  0  0  0  0  0  0  0  0
  -25.8740  -34.9460   23.4290 C   0  0  0  0  0  0  0  0  0  0  0  0
  -26.5610  -34.8220   22.4120 O   0  0  0  0  0  0  0  0  0  0  0  0
  -24.8970  -34.0780   24.9760 H   0  0  0  0  0  0  0  0  0  0  0  0
  -24.1930  -36.7720   23.0250 C   0  0  0  0  0  1  0  0  0  0  0  0
  -25.4040  -36.3450   23.8690 C   0  0  0  0  0  3  0  0  0  0  0  0
  -27.5340  -37.1900   24.7490 C   0  0  0  0  0  1  0  0  0  0  0  0
  -26.4610  -37.3760   23.7760 N   0  0  0  0  0  0  0  0  0  0  0  0
  -26.0700  -38.3060   23.9100 H   0  0  0  0  0  0  0  0  0  0  0  0
  -26.2910  -31.7270   25.1550 C   0  0  1  0  0  0  0  0  0  0  0  0
  -25.1890  -31.5070   26.2170 C   0  0  0  0  0  1  0  0  0  0  0  0
  -26.8580  -30.3410   24.7700 C   0  0  0  0  0  1  0  0  0  0  0  0
  -27.4520  -32.5070   25.8200 C   0  0  0  0  0  1  0  0  0  0  0  0
  -31.1800  -21.7380   19.7410 C   0  0  0  0  0  2  0  0  0  0  0  0
  -32.1600  -18.5080   21.5670 C   0  0  0  0  0  2  0  0  0  0  0  0
  -29.8100  -18.2660   20.7380 C   0  0  0  0  0  2  0  0  0  0  0  0
  -32.3260  -19.7550   20.6830 C   0  0  0  0  0  2  0  0  0  0  0  0
  -30.0030  -19.5460   19.8940 C   0  0  0  0  0  2  0  0  0  0  0  0
  -31.1420  -17.5240   20.9630 C   0  0  0  0  0  3  0  0  0  0  0  0
  -31.0290  -20.4530   20.4800 N   0  0  2  0  0  4  0  0  0  0  0  0
  -30.6860  -20.6990   21.3970 H   0  0  0  0  0  0  0  0  0  0  0  0
  -31.0010  -16.2660   21.8520 C   0  0  0  0  0  2  0  0  0  0  0  0
  -30.6310  -14.3960   20.2490 C   0  0  0  0  0  0  0  0  0  0  0  0
  -30.1950  -12.3620   18.9230 C   0  0  0  0  0  2  0  0  0  0  0  0
  -29.1930  -12.6360   17.7870 C   0  0  0  0  0  2  0  0  0  0  0  0
  -27.7460  -12.4710   18.2870 C   0  0  0  0  0  2  0  0  0  0  0  0
  -27.4800  -13.2460   19.6050 C   0  0  0  0  0  3  0  0  0  0  0  0
  -28.5870  -12.9640   20.6450 C   0  0  0  0  0  2  0  0  0  0  0  0
  -29.8900  -13.2790   20.0310 N   0  0  0  0  0  0  0  0  0  0  0  0
  -31.6420  -14.6710   19.5970 O   0  0  0  0  0  0  0  0  0  0  0  0
  -30.2210  -15.1810   21.2530 N   0  0  0  0  0  0  0  0  0  0  0  0
  -29.3760  -14.8990   21.7290 H   0  0  0  0  0  0  0  0  0  0  0  0
  -25.0980  -13.8120   20.4040 C   0  0  0  0  0  0  0  0  0  0  0  0
  -24.0590  -13.0210   20.8160 C   0  0  0  0  0  0  0  0  0  0  0  0
  -24.5440  -11.6780   20.7690 C   0  0  0  0  0  0  0  0  0  0  0  0
  -26.1510  -12.9500   20.1360 N   0  0  0  0  0  0  0  0  0  0  0  0
  -25.8210  -11.6620   20.4100 N   0  0  0  0  0  0  0  0  0  0  0  0
  -23.8480  -10.4020   20.9890 C   0  0  0  0  0  0  0  0  0  0  0  0
  -24.3120   -9.4630   21.9370 C   0  0  0  0  0  3  0  0  0  0  0  0
  -23.6160   -8.2530   22.1430 C   0  0  0  0  0  3  0  0  0  0  0  0
  -22.4430   -7.9730   21.4040 C   0  0  0  0  0  0  0  0  0  0  0  0
  -21.9990   -8.9010   20.4460 C   0  0  0  0  0  3  0  0  0  0  0  0
  -22.6960  -10.1030   20.2370 C   0  0  0  0  0  3  0  0  0  0  0  0
  -21.7170   -6.8120   21.5190 O   0  0  0  0  0  0  0  0  0  0  0  0
  -21.6750   -6.1030   22.6920 C   0  0  0  0  0  0  0  0  0  0  0  0
  -21.2230   -6.6830   23.8980 C   0  0  0  0  0  3  0  0  0  0  0  0
  -21.1300   -5.8990   25.0660 C   0  0  0  0  0  3  0  0  0  0  0  0
  -21.4790   -4.5360   25.0280 C   0  0  0  0  0  0  0  0  0  0  0  0
  -21.9250   -3.9550   23.8280 C   0  0  0  0  0  3  0  0  0  0  0  0
  -22.0190   -4.7370   22.6620 C   0  0  0  0  0  0  0  0  0  0  0  0
  -22.4280   -4.1670   21.5030 F   0  0  0  0  0  0  0  0  0  0  0  0
  -21.3830   -3.7800   26.1470 F   0  0  0  0  0  0  0  0  0  0  0  0
  -22.6650  -13.4730   21.1450 C   0  0  0  0  0  0  0  0  0  0  0  0
  -21.9830  -12.7590   22.0320 N   0  0  0  0  0  0  0  0  0  0  0  0
  -22.1910  -14.4950   20.6500 O   0  0  0  0  0  0  0  0  0  0  0  0
  -22.3800  -11.9320   22.4530 H   0  0  0  0  0  0  0  0  0  0  0  0
  -21.0500  -13.0430   22.2950 H   0  0  0  0  0  0  0  0  0  0  0  0
  -25.2310  -15.1850   20.2180 N   0  0  0  0  0  0  0  0  0  0  0  0
  -24.4590  -15.8280   20.3580 H   0  0  0  0  0  0  0  0  0  0  0  0
  -26.0670  -15.6380   19.8690 H   0  0  0  0  0  0  0  0  0  0  0  0
  2  1  1  0
  3  2  1  0
  4  5  1  0
  4  3  1  0
  5  7  1  0
  6  5  2  0
  8 10  1  0
  8  7  1  0
  9 20  2  0
 10 15  1  0
 11 19  1  0
 11 21  1  0
 12 18  1  0
 12 14  1  0
 13 19  1  0
 14 13  1  0
 15 14  2  0
 16 17  1  0
 16 10  2  0
 17 12  2  0
 18 11  1  0
 19  9  1  0
 21 23  2  0
 22 21  1  0
 24 22  1  0
 25 34  2  0
 25 30  1  0
 26 22  1  0
 26 30  1  0
 27 26  1  0
 28 29  1  0
 28 27  1  0
 29 25  1  0
 30 31  2  0
 31 32  1  0
 33 32  2  0
 34 33  1  0
 35  9  1  0
 35 36  1  0
 35 45  1  0
 36 39  1  0
 37 41  1  0
 37 36  1  0
 38 37  2  0
 41 40  1  0
 43 41  1  0
 43 44  1  0
 43 42  1  0
 45 48  1  1
 45 46  1  0
 47 45  1  0
 49 55  1  0
 49  2  1  0
 51 54  1  0
 52 50  1  0
 53 55  1  0
 53 51  1  0
 54 50  1  0
 54 57  1  0
 55 52  1  0
 55 56  1  1
 58 66  1  0
 59 64  1  0
 60 61  1  0
 60 59  1  0
 62 61  1  0
 62 71  1  0
 62 63  1  0
 64 58  1  0
 64 63  1  0
 65 58  2  0
 66 67  1  0
 66 57  1  0
 68 69  2  0
 69 88  1  0
 70 69  1  0
 70 73  1  0
 71 68  1  0
 71 72  1  0
 72 70  2  0
 73 74  1  0
 74 75  2  0
 76 79  1  0
 76 75  1  0
 77 76  2  0
 78 77  1  0
 78 73  2  0
 79 80  1  0
 80 81  1  0
 81 82  2  0
 83 82  1  0
 83 87  1  0
 84 83  2  0
 85 80  2  0
 85 84  1  0
 86 85  1  0
 88 89  1  0
 89 92  1  0
 89 91  1  0
 90 88  2  0
 93 94  1  0
 93 68  1  0
 95 93  1  0
M  ISO  4   7 101   8 101  58 100  66 100
M  END
>  <TORSDO>  (77) 
F 23

>  <SCORE>  (77) 
-11.798

>  <name>  (77) 
77

>  <ligand_id>  (77) 
77

>  <original_smiles>  (77) 
[H]c1c([H])c([H])c2c(c1[H])C([H])([H])C([H])([H])C([H])([H])C2([H])N([H])C(=O)C1([H])N(C(=O)C([H])(N([H])C(=O)C([H])(N([H])C([H])([H])[H])C([H])([H])[H])C(C([H])([H])[H])(C([H])([H])[H])C([H])([H])[H])C([H])([H])c2c([H])c(OC([H])([H])C(=O)C([H])([H])C([H])([H])C([H])(C([H])([H])[H])C([H])([H])[N+]3([H])C([H])([H])C([H])([H])C([H])(C([H])([H])N([H])C(=O)N4C([H])([H])C([H])([H])C([H])([H])C([H])(n5nc(-c6c([H])c([H])c(Oc7c([H])c([H])c(F)c([H])c7F)c([H])c6[H])c(C(=O)N([H])[H])c5N([H])[H])C4([H])[H])C([H])([H])C3([H])[H])c([H])c([H])c2C1([H])[H]

>  <smiles>  (77) 
[H]c1c([H])c([H])c2c(c1[H])C([H])([H])C([H])([H])C([H])([H])C2([H])N([H])C(=O)C1([H])N(C(=O)C([H])(N([H])C(=O)C([H])(N([H])C([H])([H])[H])C([H])([H])[H])C(C([H])([H])[H])(C([H])([H])[H])C([H])([H])[H])C([H])([H])c2c([H])c(OC([H])([H])C(=O)C([H])([H])C([H])([H])C([H])(C([H])([H])[H])C([H])([H])[N+]3([H])C([H])([H])C([H])([H])C([H])(C([H])([H])N([H])C(=O)N4C([H])([H])C([H])([H])C([H])([H])C([H])(n5nc(-c6c([H])c([H])c(Oc7c([H])c([H])c(F)c([H])c7F)c([H])c6[H])c(C(=O)N([H])[H])c5N([H])[H])C4([H])[H])C([H])([H])C3([H])[H])c([H])c([H])c2C1([H])[H]

$$$$
78:0:0
     RDKit          3D

 91 99  0  0  1  0  0  0  0  0999 V2000
  -29.3970  -19.3770   20.6260 C   0  0  0  0  0  0  0  0  0  0  0  0
  -28.8190  -20.4340   20.0360 N   0  0  0  0  0  0  0  0  0  0  0  0
  -30.5320  -19.4220   21.1010 O   0  0  0  0  0  0  0  0  0  0  0  0
  -27.8920  -20.2860   19.6580 H   0  0  0  0  0  0  0  0  0  0  0  0
  -30.8480  -14.4730   20.0910 C   0  0  0  0  0  0  0  0  0  0  0  0
  -30.5050  -12.3400   18.9330 C   0  0  0  0  0  2  0  0  0  0  0  0
  -29.5310  -12.6100   17.7690 C   0  0  0  0  0  2  0  0  0  0  0  0
  -28.0680  -12.4630   18.2430 C   0  0  0  0  0  2  0  0  0  0  0  0
  -27.7750  -13.2490   19.5500 C   0  0  0  0  0  3  0  0  0  0  0  0
  -28.8710  -13.0050   20.6120 C   0  0  0  0  0  2  0  0  0  0  0  0
  -30.1730  -13.2980   19.9940 N   0  0  0  0  0  0  0  0  0  0  0  0
  -31.9950  -14.6360   19.6670 O   0  0  0  0  0  0  0  0  0  0  0  0
  -28.6200  -17.3190   19.3300 C   0  0  0  0  0  2  0  0  0  0  0  0
  -28.9160  -17.1250   21.8410 C   0  0  0  0  0  2  0  0  0  0  0  0
  -29.9050  -16.4850   19.1850 C   0  0  0  0  0  2  0  0  0  0  0  0
  -30.1710  -16.2610   21.5830 C   0  0  0  0  0  2  0  0  0  0  0  0
  -28.5580  -18.0800   20.6710 C   0  0  0  0  0  3  0  0  0  0  0  0
  -30.0580  -15.5490   20.3090 N   0  0  0  0  0  0  0  0  0  0  0  0
  -25.3910  -13.8210   20.3330 C   0  0  0  0  0  0  0  0  0  0  0  0
  -24.3440  -13.0330   20.7280 C   0  0  0  0  0  0  0  0  0  0  0  0
  -24.8270  -11.6890   20.6870 C   0  0  0  0  0  0  0  0  0  0  0  0
  -26.4420  -12.9560   20.0700 N   0  0  0  0  0  0  0  0  0  0  0  0
  -26.1070  -11.6680   20.3400 N   0  0  0  0  0  0  0  0  0  0  0  0
  -24.1270  -10.4160   20.9020 C   0  0  0  0  0  0  0  0  0  0  0  0
  -24.5630   -9.4880   21.8740 C   0  0  0  0  0  3  0  0  0  0  0  0
  -23.8620   -8.2790   22.0740 C   0  0  0  0  0  3  0  0  0  0  0  0
  -22.7120   -7.9890   21.3020 C   0  0  0  0  0  0  0  0  0  0  0  0
  -22.2950   -8.9070   20.3200 C   0  0  0  0  0  3  0  0  0  0  0  0
  -22.9980  -10.1070   20.1180 C   0  0  0  0  0  3  0  0  0  0  0  0
  -21.9850   -6.8280   21.4070 O   0  0  0  0  0  0  0  0  0  0  0  0
  -21.8770   -6.1520   22.5960 C   0  0  0  0  0  0  0  0  0  0  0  0
  -21.3620   -6.7670   23.7580 C   0  0  0  0  0  3  0  0  0  0  0  0
  -21.2030   -6.0170   24.9410 C   0  0  0  0  0  3  0  0  0  0  0  0
  -21.5490   -4.6530   24.9610 C   0  0  0  0  0  0  0  0  0  0  0  0
  -22.0590   -4.0380   23.8040 C   0  0  0  0  0  3  0  0  0  0  0  0
  -22.2200   -4.7860   22.6240 C   0  0  0  0  0  0  0  0  0  0  0  0
  -22.6900   -4.1830   21.5040 F   0  0  0  0  0  0  0  0  0  0  0  0
  -21.3910   -3.9300   26.0950 F   0  0  0  0  0  0  0  0  0  0  0  0
  -22.9470  -13.4890   21.0400 C   0  0  0  0  0  0  0  0  0  0  0  0
  -22.2560  -12.7870   21.9320 N   0  0  0  0  0  0  0  0  0  0  0  0
  -22.4760  -14.5040   20.5280 O   0  0  0  0  0  0  0  0  0  0  0  0
  -22.6490  -11.9690   22.3710 H   0  0  0  0  0  0  0  0  0  0  0  0
  -21.3200  -13.0730   22.1810 H   0  0  0  0  0  0  0  0  0  0  0  0
  -25.5330  -15.1940   20.1600 N   0  0  0  0  0  0  0  0  0  0  0  0
  -24.7750  -15.8480   20.3220 H   0  0  0  0  0  0  0  0  0  0  0  0
  -26.3970  -15.6440   19.8920 H   0  0  0  0  0  0  0  0  0  0  0  0
  -29.4240  -21.7440   19.7880 C   0  0  0  0  0  2  0  0  0  0  0  0
  -28.5830  -22.8780   20.4040 C   0  0  0  0  0  2  0  0  0  0  0  0
  -28.9920  -24.2880   19.9250 C   0  0  0  0  0  2  0  0  0  0  0  0
  -28.2880  -25.4010   20.7190 C   0  0  0  0  0  2  0  0  0  0  0  0
  -28.4630  -26.7000   20.1270 O   0  0  0  0  0  0  0  0  0  0  0  0
  -24.6420  -31.8490   23.2060 C   0  0  0  0  0  0  0  0  0  0  0  0
  -27.3140  -27.4560   20.0970 C   0  0  0  0  0  0  0  0  0  0  0  0
  -23.4490  -30.4550   21.5480 C   0  0  0  0  0  3  0  0  0  0  0  0
  -24.9160  -28.9450   20.1090 C   0  0  0  0  0  0  0  0  0  0  0  0
  -25.9720  -30.8340   21.3600 C   0  0  0  0  0  2  0  0  0  0  0  0
  -26.0680  -29.4710   20.7080 C   0  0  0  0  0  0  0  0  0  0  0  0
  -27.2740  -28.7330   20.7000 C   0  0  0  0  0  3  0  0  0  0  0  0
  -26.1520  -26.9520   19.4740 C   0  0  0  0  0  3  0  0  0  0  0  0
  -24.9520  -27.6850   19.4880 C   0  0  0  0  0  3  0  0  0  0  0  0
  -23.6670  -29.7940   20.1620 C   0  0  0  0  0  2  0  0  0  0  0  0
  -24.7050  -31.0590   22.0970 N   0  0  0  0  0  0  0  0  0  0  0  0
  -23.5580  -32.1100   23.7460 O   0  0  0  0  0  0  0  0  0  0  0  0
  -22.8030  -29.4190   22.4970 C   0  0  0  0  0  0  0  0  0  0  0  0
  -21.4790  -29.2370   22.3730 N   0  0  0  0  0  0  0  0  0  0  0  0
  -23.4910  -28.7820   23.3010 O   0  0  0  0  0  0  0  0  0  0  0  0
  -20.9840  -29.8020   21.6960 H   0  0  0  0  0  0  0  0  0  0  0  0
  -18.1070  -28.0370   22.8670 C   0  0  0  0  0  0  0  0  0  0  0  0
  -20.6650  -28.2900   23.1350 C   0  0  0  0  0  3  0  0  0  0  0  0
  -20.7650  -26.8660   22.5410 C   0  0  0  0  0  2  0  0  0  0  0  0
  -19.6600  -26.5570   21.5250 C   0  0  0  0  0  2  0  0  0  0  0  0
  -18.2810  -26.6960   22.1750 C   0  0  0  0  0  2  0  0  0  0  0  0
  -19.2280  -28.7930   23.3040 C   0  0  0  0  0  0  0  0  0  0  0  0
  -19.0120  -30.0480   23.9120 C   0  0  0  0  0  3  0  0  0  0  0  0
  -17.7080  -30.5500   24.0860 C   0  0  0  0  0  3  0  0  0  0  0  0
  -16.6020  -29.7910   23.6650 C   0  0  0  0  0  3  0  0  0  0  0  0
  -16.8010  -28.5370   23.0620 C   0  0  0  0  0  3  0  0  0  0  0  0
  -25.9230  -32.4830   23.8330 C   0  0  0  0  0  3  0  0  0  0  0  0
  -26.4450  -31.7030   25.1010 C   0  0  1  0  0  0  0  0  0  0  0  0
  -25.3530  -31.4490   26.1660 C   0  0  0  0  0  1  0  0  0  0  0  0
  -27.0360  -30.3330   24.6940 C   0  0  0  0  0  1  0  0  0  0  0  0
  -27.5910  -32.4980   25.7720 C   0  0  0  0  0  1  0  0  0  0  0  0
  -25.6060  -33.8760   24.1730 N   0  0  0  0  0  0  0  0  0  0  0  0
  -25.9310  -34.9350   23.4180 C   0  0  0  0  0  0  0  0  0  0  0  0
  -26.6000  -34.8430   22.3870 O   0  0  0  0  0  0  0  0  0  0  0  0
  -25.0130  -34.0230   24.9760 H   0  0  0  0  0  0  0  0  0  0  0  0
  -24.1880  -36.7140   23.0740 C   0  0  0  0  0  1  0  0  0  0  0  0
  -25.4330  -36.3170   23.8840 C   0  0  0  0  0  3  0  0  0  0  0  0
  -27.5630  -37.2120   24.7150 C   0  0  0  0  0  1  0  0  0  0  0  0
  -26.4570  -37.3780   23.7760 N   0  0  0  0  0  0  0  0  0  0  0  0
  -26.0430  -38.2940   23.9330 H   0  0  0  0  0  0  0  0  0  0  0  0
  1  3  2  0
  2  1  1  0
  4  2  1  0
  5 18  1  0
  6 11  1  0
  7  8  1  0
  7  6  1  0
  9  8  1  0
  9 22  1  0
  9 10  1  0
 11  5  1  0
 11 10  1  0
 12  5  2  0
 13 17  1  0
 15 13  1  0
 15 18  1  0
 16 14  1  0
 17  1  1  0
 17 14  1  0
 18 16  1  0
 19 20  2  0
 20 39  1  0
 21 20  1  0
 21 24  1  0
 22 19  1  0
 22 23  1  0
 23 21  2  0
 24 25  1  0
 25 26  2  0
 27 30  1  0
 27 26  1  0
 28 27  2  0
 29 28  1  0
 29 24  2  0
 30 31  1  0
 31 36  2  0
 31 32  1  0
 32 33  2  0
 33 34  1  0
 34 38  1  0
 35 34  2  0
 36 35  1  0
 37 36  1  0
 39 40  1  0
 40 43  1  0
 40 42  1  0
 41 39  2  0
 44 45  1  0
 44 19  1  0
 46 44  1  0
 47  2  1  0
 47 48  1  0
 49 48  1  0
 49 50  1  0
 51 50  1  0
 52 63  2  0
 53 51  1  0
 53 58  1  0
 54 62  1  0
 54 64  1  0
 55 61  1  0
 55 57  1  0
 56 62  1  0
 57 56  1  0
 58 57  2  0
 59 60  1  0
 59 53  2  0
 60 55  2  0
 61 54  1  0
 62 52  1  0
 64 66  2  0
 65 64  1  0
 67 65  1  0
 68 77  2  0
 68 73  1  0
 69 65  1  0
 69 73  1  0
 70 69  1  0
 71 72  1  0
 71 70  1  0
 72 68  1  0
 73 74  2  0
 74 75  1  0
 76 75  2  0
 77 76  1  0
 78 52  1  0
 78 83  1  0
 78 79  1  0
 79 82  1  1
 79 80  1  0
 81 79  1  0
 83 86  1  0
 84 88  1  0
 84 83  1  0
 85 84  2  0
 88 87  1  0
 90 88  1  0
 90 91  1  0
 90 89  1  0
M  ISO  4   5 100  18 100  50 101  51 101
M  END
>  <TORSDO>  (78) 
F 20

>  <SCORE>  (78) 
-12.504

>  <name>  (78) 
78

>  <ligand_id>  (78) 
78

>  <original_smiles>  (78) 
[H]c1c([H])c([H])c2c(c1[H])C([H])([H])C([H])([H])C([H])([H])C2([H])N([H])C(=O)C1([H])N(C(=O)C([H])(N([H])C(=O)C([H])(N([H])C([H])([H])[H])C([H])([H])[H])C(C([H])([H])[H])(C([H])([H])[H])C([H])([H])[H])C([H])([H])c2c([H])c(OC([H])([H])C([H])([H])C([H])([H])C([H])([H])N([H])C(=O)C3([H])C([H])([H])C([H])([H])N(C(=O)N4C([H])([H])C([H])([H])C([H])([H])C([H])(n5nc(-c6c([H])c([H])c(Oc7c([H])c([H])c(F)c([H])c7F)c([H])c6[H])c(C(=O)N([H])[H])c5N([H])[H])C4([H])[H])C([H])([H])C3([H])[H])c([H])c([H])c2C1([H])[H]

>  <smiles>  (78) 
[H]c1c([H])c([H])c2c(c1[H])C([H])([H])C([H])([H])C([H])([H])C2([H])N([H])C(=O)C1([H])N(C(=O)C([H])(N([H])C(=O)C([H])(N([H])C([H])([H])[H])C([H])([H])[H])C(C([H])([H])[H])(C([H])([H])[H])C([H])([H])[H])C([H])([H])c2c([H])c(OC([H])([H])C([H])([H])C([H])([H])C([H])([H])N([H])C(=O)C3([H])C([H])([H])C([H])([H])N(C(=O)N4C([H])([H])C([H])([H])C([H])([H])C([H])(n5nc(-c6c([H])c([H])c(Oc7c([H])c([H])c(F)c([H])c7F)c([H])c6[H])c(C(=O)N([H])[H])c5N([H])[H])C4([H])[H])C([H])([H])C3([H])[H])c([H])c([H])c2C1([H])[H]

$$$$
79:0:0
     RDKit          3D

 95103  0  0  1  0  0  0  0  0999 V2000
  -29.6200  -21.4110   20.6420 N   0  0  0  0  0  4  0  0  0  0  0  0
  -29.8730  -21.7540   19.7300 H   0  0  0  0  0  0  0  0  0  0  0  0
  -30.4710  -21.3240   21.1740 H   0  0  0  0  0  0  0  0  0  0  0  0
  -28.9320  -19.2490   21.7330 C   0  0  0  0  0  2  0  0  0  0  0  0
  -30.2070  -18.4170   21.7350 C   0  0  0  0  0  2  0  0  0  0  0  0
  -29.0220  -20.0680   20.4410 C   0  0  0  0  0  3  0  0  0  0  0  0
  -29.9310  -19.1970   19.5320 C   0  0  0  0  0  3  0  0  0  0  0  0
  -30.3460  -18.0390   20.3330 N   0  0  0  0  0  0  0  0  0  0  0  0
  -28.1160  -17.7170   18.3970 C   0  0  0  0  0  1  0  0  0  0  0  0
  -29.2700  -18.7190   18.2200 C   0  0  0  0  0  2  0  0  0  0  0  0
  -31.6990  -17.5820   20.0070 C   0  0  0  0  0  2  0  0  0  0  0  0
  -32.0880  -16.3360   20.8310 C   0  0  0  0  0  2  0  0  0  0  0  0
  -31.5070  -14.2930   19.5430 C   0  0  0  0  0  0  0  0  0  0  0  0
  -31.0150  -12.0480   18.6490 C   0  0  0  0  0  2  0  0  0  0  0  0
  -29.9860  -12.0830   17.5060 C   0  0  0  0  0  2  0  0  0  0  0  0
  -28.5540  -12.0300   18.0660 C   0  0  0  0  0  2  0  0  0  0  0  0
  -28.3180  -13.0720   19.1910 C   0  0  0  0  0  3  0  0  0  0  0  0
  -29.4460  -13.0150   20.2450 C   0  0  0  0  0  2  0  0  0  0  0  0
  -30.7420  -13.1720   19.5580 N   0  0  0  0  0  0  0  0  0  0  0  0
  -32.4470  -14.4600   18.7590 O   0  0  0  0  0  0  0  0  0  0  0  0
  -31.2550  -15.1760   20.5160 N   0  0  0  0  0  0  0  0  0  0  0  0
  -30.4740  -14.9860   21.1250 H   0  0  0  0  0  0  0  0  0  0  0  0
  -26.0450  -13.8600   20.1100 C   0  0  0  0  0  0  0  0  0  0  0  0
  -24.9670  -13.1720   20.5970 C   0  0  0  0  0  0  0  0  0  0  0  0
  -25.3270  -11.7910   20.5490 C   0  0  0  0  0  0  0  0  0  0  0  0
  -27.0000  -12.9040   19.8010 N   0  0  0  0  0  0  0  0  0  0  0  0
  -26.5750  -11.6550   20.1200 N   0  0  0  0  0  0  0  0  0  0  0  0
  -24.5360  -10.5870   20.8350 C   0  0  0  0  0  0  0  0  0  0  0  0
  -24.9180   -9.6750   21.8430 C   0  0  0  0  0  3  0  0  0  0  0  0
  -24.1320   -8.5330   22.1110 C   0  0  0  0  0  3  0  0  0  0  0  0
  -22.9480   -8.2980   21.3710 C   0  0  0  0  0  0  0  0  0  0  0  0
  -22.5840   -9.1970   20.3550 C   0  0  0  0  0  3  0  0  0  0  0  0
  -23.3720  -10.3290   20.0850 C   0  0  0  0  0  3  0  0  0  0  0  0
  -22.1360   -7.2040   21.5450 O   0  0  0  0  0  0  0  0  0  0  0  0
  -21.9690   -6.6190   22.7750 C   0  0  0  0  0  0  0  0  0  0  0  0
  -21.4670   -7.3390   23.8810 C   0  0  0  0  0  3  0  0  0  0  0  0
  -21.2460   -6.6820   25.1080 C   0  0  0  0  0  3  0  0  0  0  0  0
  -21.5160   -5.3050   25.2290 C   0  0  0  0  0  0  0  0  0  0  0  0
  -22.0100   -4.5860   24.1270 C   0  0  0  0  0  3  0  0  0  0  0  0
  -22.2330   -5.2400   22.9030 C   0  0  0  0  0  0  0  0  0  0  0  0
  -22.6890   -4.5370   21.8380 F   0  0  0  0  0  0  0  0  0  0  0  0
  -21.2960   -4.6720   26.4040 F   0  0  0  0  0  0  0  0  0  0  0  0
  -23.6390  -13.7530   20.9930 C   0  0  0  0  0  0  0  0  0  0  0  0
  -22.9660  -13.1380   21.9590 N   0  0  0  0  0  0  0  0  0  0  0  0
  -23.2150  -14.7870   20.4810 O   0  0  0  0  0  0  0  0  0  0  0  0
  -23.3240  -12.3010   22.3950 H   0  0  0  0  0  0  0  0  0  0  0  0
  -22.0800  -13.5110   22.2690 H   0  0  0  0  0  0  0  0  0  0  0  0
  -26.2840  -15.2120   19.8900 N   0  0  0  0  0  0  0  0  0  0  0  0
  -25.5790  -15.9210   20.0600 H   0  0  0  0  0  0  0  0  0  0  0  0
  -27.1360  -15.5870   19.4910 H   0  0  0  0  0  0  0  0  0  0  0  0
  -28.7490  -22.4300   21.2720 C   0  0  0  0  0  2  0  0  0  0  0  0
  -29.2860  -23.8570   21.0410 C   0  0  0  0  0  2  0  0  0  0  0  0
  -28.5550  -24.9260   21.8750 C   0  0  0  0  0  2  0  0  0  0  0  0
  -29.0210  -26.3570   21.5560 C   0  0  0  0  0  2  0  0  0  0  0  0
  -28.5250  -26.7500   20.2780 O   0  0  0  0  0  0  0  0  0  0  0  0
  -24.5590  -31.8190   23.3380 C   0  0  0  0  0  0  0  0  0  0  0  0
  -27.3600  -27.4770   20.2920 C   0  0  0  0  0  0  0  0  0  0  0  0
  -23.4200  -30.4300   21.6330 C   0  0  0  0  0  3  0  0  0  0  0  0
  -24.9400  -28.9270   20.2390 C   0  0  0  0  0  0  0  0  0  0  0  0
  -25.9420  -30.8260   21.5230 C   0  0  0  0  0  2  0  0  0  0  0  0
  -26.0650  -29.4650   20.8750 C   0  0  0  0  0  0  0  0  0  0  0  0
  -27.2770  -28.7470   20.9030 C   0  0  0  0  0  3  0  0  0  0  0  0
  -26.2260  -26.9490   19.6440 C   0  0  0  0  0  3  0  0  0  0  0  0
  -25.0120  -27.6640   19.6220 C   0  0  0  0  0  3  0  0  0  0  0  0
  -23.6820  -29.7680   20.2530 C   0  0  0  0  0  2  0  0  0  0  0  0
  -24.6570  -31.0380   22.2250 N   0  0  0  0  0  0  0  0  0  0  0  0
  -23.4580  -32.0740   23.8460 O   0  0  0  0  0  0  0  0  0  0  0  0
  -22.7490  -29.3900   22.5570 C   0  0  0  0  0  0  0  0  0  0  0  0
  -21.4350  -29.1860   22.3700 N   0  0  0  0  0  0  0  0  0  0  0  0
  -23.4090  -28.7680   23.3940 O   0  0  0  0  0  0  0  0  0  0  0  0
  -20.9670  -29.7400   21.6670 H   0  0  0  0  0  0  0  0  0  0  0  0
  -18.0640  -27.9350   22.7040 C   0  0  0  0  0  0  0  0  0  0  0  0
  -20.6010  -28.2290   23.0960 C   0  0  0  0  0  3  0  0  0  0  0  0
  -20.7530  -26.8070   22.5130 C   0  0  0  0  0  2  0  0  0  0  0  0
  -19.7040  -26.4760   21.4470 C   0  0  0  0  0  2  0  0  0  0  0  0
  -18.2920  -26.5940   22.0270 C   0  0  0  0  0  2  0  0  0  0  0  0
  -19.1490  -28.7110   23.1910 C   0  0  0  0  0  0  0  0  0  0  0  0
  -18.8850  -29.9660   23.7800 C   0  0  0  0  0  3  0  0  0  0  0  0
  -17.5660  -30.4470   23.8890 C   0  0  0  0  0  3  0  0  0  0  0  0
  -16.4940  -29.6690   23.4190 C   0  0  0  0  0  3  0  0  0  0  0  0
  -16.7430  -28.4150   22.8330 C   0  0  0  0  0  3  0  0  0  0  0  0
  -25.8200  -32.4490   24.0090 C   0  0  0  0  0  3  0  0  0  0  0  0
  -25.5030  -33.8480   24.3190 N   0  0  0  0  0  0  0  0  0  0  0  0
  -25.8870  -34.8960   23.5770 C   0  0  0  0  0  0  0  0  0  0  0  0
  -26.6170  -34.7850   22.5870 O   0  0  0  0  0  0  0  0  0  0  0  0
  -24.8640  -34.0090   25.0840 H   0  0  0  0  0  0  0  0  0  0  0  0
  -24.2060  -36.7030   23.1000 C   0  0  0  0  0  1  0  0  0  0  0  0
  -25.3810  -36.2880   23.9990 C   0  0  0  0  0  3  0  0  0  0  0  0
  -27.4560  -37.1530   24.9850 C   0  0  0  0  0  1  0  0  0  0  0  0
  -26.4290  -37.3310   23.9630 N   0  0  0  0  0  0  0  0  0  0  0  0
  -26.0230  -38.2550   24.0800 H   0  0  0  0  0  0  0  0  0  0  0  0
  -26.2850  -31.6800   25.3070 C   0  0  1  0  0  0  0  0  0  0  0  0
  -25.1460  -31.4380   26.3260 C   0  0  0  0  0  1  0  0  0  0  0  0
  -26.8910  -30.3060   24.9380 C   0  0  0  0  0  1  0  0  0  0  0  0
  -27.4020  -32.4790   26.0180 C   0  0  0  0  0  1  0  0  0  0  0  0
  1  3  1  0
  1 51  1  0
  2  1  1  0
  4  5  1  0
  6  1  1  0
  6  4  1  0
  7 10  1  0
  7  8  1  0
  7  6  1  0
  8  5  1  0
 10  9  1  0
 11  8  1  0
 11 12  1  0
 13 19  1  0
 13 21  1  0
 14 19  1  0
 15 16  1  0
 15 14  1  0
 17 16  1  0
 17 26  1  0
 17 18  1  0
 19 18  1  0
 20 13  2  0
 21 12  1  0
 21 22  1  0
 23 24  2  0
 24 43  1  0
 25 24  1  0
 25 28  1  0
 26 23  1  0
 26 27  1  0
 27 25  2  0
 28 29  1  0
 29 30  2  0
 31 34  1  0
 31 30  1  0
 32 31  2  0
 33 32  1  0
 33 28  2  0
 34 35  1  0
 35 40  2  0
 35 36  1  0
 36 37  2  0
 37 38  1  0
 38 42  1  0
 39 38  2  0
 40 39  1  0
 41 40  1  0
 43 44  1  0
 44 47  1  0
 44 46  1  0
 45 43  2  0
 48 49  1  0
 48 23  1  0
 50 48  1  0
 52 51  1  0
 52 53  1  0
 54 53  1  0
 55 57  1  0
 55 54  1  0
 56 67  2  0
 57 62  1  0
 58 66  1  0
 58 68  1  0
 59 65  1  0
 59 61  1  0
 60 66  1  0
 61 62  2  0
 61 60  1  0
 63 57  2  0
 64 63  1  0
 64 59  2  0
 65 58  1  0
 66 56  1  0
 68 70  2  0
 69 68  1  0
 71 69  1  0
 72 81  2  0
 72 77  1  0
 73 69  1  0
 73 77  1  0
 74 73  1  0
 75 76  1  0
 75 74  1  0
 76 72  1  0
 77 78  2  0
 78 79  1  0
 80 79  2  0
 81 80  1  0
 82 56  1  0
 82 83  1  0
 82 92  1  0
 83 86  1  0
 84 88  1  0
 84 83  1  0
 85 84  2  0
 88 87  1  0
 90 88  1  0
 90 91  1  0
 90 89  1  0
 92 95  1  1
 92 93  1  0
 94 92  1  0
M  ISO  4  13 100  21 100  54 101  55 101
M  END
>  <TORSDO>  (79) 
F 24

>  <SCORE>  (79) 
-10.127

>  <name>  (79) 
79

>  <ligand_id>  (79) 
79

>  <original_smiles>  (79) 
[H]c1c([H])c([H])c2c(c1[H])C([H])([H])C([H])([H])C([H])([H])C2([H])N([H])C(=O)C1([H])N(C(=O)C([H])(N([H])C(=O)C([H])(N([H])C([H])([H])[H])C([H])([H])[H])C(C([H])([H])[H])(C([H])([H])[H])C([H])([H])[H])C([H])([H])c2c([H])c(OC([H])([H])C([H])([H])C([H])([H])C([H])([H])[N+]([H])([H])C3([H])C([H])([H])C([H])([H])N(C([H])([H])C([H])([H])N([H])C(=O)N4C([H])([H])C([H])([H])C([H])([H])C([H])(n5nc(-c6c([H])c([H])c(Oc7c([H])c([H])c(F)c([H])c7F)c([H])c6[H])c(C(=O)N([H])[H])c5N([H])[H])C4([H])[H])C3([H])C([H])([H])C([H])([H])[H])c([H])c([H])c2C1([H])[H]

>  <smiles>  (79) 
[H]c1c([H])c([H])c2c(c1[H])C([H])([H])C([H])([H])C([H])([H])C2([H])N([H])C(=O)C1([H])N(C(=O)C([H])(N([H])C(=O)C([H])(N([H])C([H])([H])[H])C([H])([H])[H])C(C([H])([H])[H])(C([H])([H])[H])C([H])([H])[H])C([H])([H])c2c([H])c(OC([H])([H])C([H])([H])C([H])([H])C([H])([H])[N+]([H])([H])C3([H])C([H])([H])C([H])([H])N(C([H])([H])C([H])([H])N([H])C(=O)N4C([H])([H])C([H])([H])C([H])([H])C([H])(n5nc(-c6c([H])c([H])c(Oc7c([H])c([H])c(F)c([H])c7F)c([H])c6[H])c(C(=O)N([H])[H])c5N([H])[H])C4([H])[H])C3([H])C([H])([H])C([H])([H])[H])c([H])c([H])c2C1([H])[H]

$$$$
80:0:0
     RDKit          3D

 96104  0  0  1  0  0  0  0  0999 V2000
  -29.2760  -22.0180   22.1340 C   0  0  0  0  0  3  0  0  0  0  0  0
  -27.4480  -21.6620   20.6930 C   0  0  0  0  0  2  0  0  0  0  0  0
  -28.0920  -23.0260   20.4220 C   0  0  0  0  0  2  0  0  0  0  0  0
  -28.4730  -20.8940   21.5450 C   0  0  0  0  0  3  0  0  0  0  0  0
  -29.0920  -23.1800   21.4800 N   0  0  0  0  0  0  0  0  0  0  0  0
  -30.0650  -21.8720   23.2210 N   0  0  0  0  0  0  0  0  0  0  0  0
  -30.1540  -20.9840   23.6990 H   0  0  0  0  0  0  0  0  0  0  0  0
  -30.5730  -22.6480   23.6220 H   0  0  0  0  0  0  0  0  0  0  0  0
  -29.3970  -19.9980   20.6960 C   0  0  0  0  0  0  0  0  0  0  0  0
  -29.7820  -18.8320   21.2300 N   0  0  0  0  0  0  0  0  0  0  0  0
  -29.7710  -20.3570   19.5760 O   0  0  0  0  0  0  0  0  0  0  0  0
  -29.4280  -18.5850   22.1460 H   0  0  0  0  0  0  0  0  0  0  0  0
  -30.6640  -17.8780   20.5730 C   0  0  0  0  0  2  0  0  0  0  0  0
  -31.2520  -16.8780   21.5860 C   0  0  0  0  0  2  0  0  0  0  0  0
  -31.2870  -14.6730   20.4330 C   0  0  0  0  0  0  0  0  0  0  0  0
  -30.9280  -12.5400   19.2500 C   0  0  0  0  0  2  0  0  0  0  0  0
  -30.0110  -12.7390   18.0280 C   0  0  0  0  0  2  0  0  0  0  0  0
  -28.5240  -12.6580   18.4300 C   0  0  0  0  0  2  0  0  0  0  0  0
  -28.1900  -13.5440   19.6610 C   0  0  0  0  0  3  0  0  0  0  0  0
  -29.2080  -13.2960   20.7950 C   0  0  0  0  0  2  0  0  0  0  0  0
  -30.5640  -13.5370   20.2650 N   0  0  0  0  0  0  0  0  0  0  0  0
  -32.3320  -14.9210   19.8210 O   0  0  0  0  0  0  0  0  0  0  0  0
  -30.7720  -15.5300   21.3190 N   0  0  0  0  0  0  0  0  0  0  0  0
  -29.9210  -15.2440   21.7800 H   0  0  0  0  0  0  0  0  0  0  0  0
  -25.8020  -14.2500   20.3210 C   0  0  0  0  0  0  0  0  0  0  0  0
  -24.6980  -13.5200   20.6770 C   0  0  0  0  0  0  0  0  0  0  0  0
  -25.1070  -12.1520   20.6530 C   0  0  0  0  0  0  0  0  0  0  0  0
  -26.8170  -13.3290   20.1130 N   0  0  0  0  0  0  0  0  0  0  0  0
  -26.3990  -12.0630   20.3670 N   0  0  0  0  0  0  0  0  0  0  0  0
  -24.3290  -10.9190   20.8340 C   0  0  0  0  0  0  0  0  0  0  0  0
  -24.6840   -9.9600   21.8090 C   0  0  0  0  0  3  0  0  0  0  0  0
  -23.9120   -8.7910   21.9770 C   0  0  0  0  0  3  0  0  0  0  0  0
  -22.7690   -8.5730   21.1720 C   0  0  0  0  0  0  0  0  0  0  0  0
  -22.4310   -9.5200   20.1890 C   0  0  0  0  0  3  0  0  0  0  0  0
  -23.2040  -10.6810   20.0190 C   0  0  0  0  0  3  0  0  0  0  0  0
  -21.9750   -7.4550   21.2480 O   0  0  0  0  0  0  0  0  0  0  0  0
  -21.8090   -6.7670   22.4230 C   0  0  0  0  0  0  0  0  0  0  0  0
  -21.3070   -7.3910   23.5870 C   0  0  0  0  0  3  0  0  0  0  0  0
  -21.0880   -6.6310   24.7540 C   0  0  0  0  0  3  0  0  0  0  0  0
  -21.3600   -5.2500   24.7550 C   0  0  0  0  0  0  0  0  0  0  0  0
  -21.8520   -4.6270   23.5950 C   0  0  0  0  0  3  0  0  0  0  0  0
  -22.0730   -5.3840   22.4310 C   0  0  0  0  0  0  0  0  0  0  0  0
  -22.5280   -4.7750   21.3090 F   0  0  0  0  0  0  0  0  0  0  0  0
  -21.1410   -4.5170   25.8720 F   0  0  0  0  0  0  0  0  0  0  0  0
  -23.3170  -14.0510   20.9280 C   0  0  0  0  0  0  0  0  0  0  0  0
  -22.5520  -13.3900   21.7890 N   0  0  0  0  0  0  0  0  0  0  0  0
  -22.9230  -15.0860   20.3920 O   0  0  0  0  0  0  0  0  0  0  0  0
  -22.8800  -12.5510   22.2440 H   0  0  0  0  0  0  0  0  0  0  0  0
  -21.6250  -13.7310   21.9990 H   0  0  0  0  0  0  0  0  0  0  0  0
  -26.0200  -15.6120   20.1400 N   0  0  0  0  0  0  0  0  0  0  0  0
  -25.2740  -16.2920   20.2350 H   0  0  0  0  0  0  0  0  0  0  0  0
  -26.8920  -16.0170   19.8230 H   0  0  0  0  0  0  0  0  0  0  0  0
  -29.7200  -24.4830   21.7810 C   0  0  0  0  0  2  0  0  0  0  0  0
  -30.4300  -25.1100   20.5630 C   0  0  0  0  0  2  0  0  0  0  0  0
  -29.5020  -25.9620   19.6870 C   0  0  0  0  0  2  0  0  0  0  0  0
  -29.2040  -27.1610   20.3970 O   0  0  0  0  0  0  0  0  0  0  0  0
  -24.8100  -31.8840   23.3290 C   0  0  0  0  0  0  0  0  0  0  0  0
  -27.9580  -27.7420   20.3060 C   0  0  0  0  0  0  0  0  0  0  0  0
  -23.8120  -30.4510   21.5790 C   0  0  0  0  0  3  0  0  0  0  0  0
  -25.4560  -29.0610   20.2140 C   0  0  0  0  0  0  0  0  0  0  0  0
  -26.3120  -30.9890   21.5560 C   0  0  0  0  0  2  0  0  0  0  0  0
  -26.5310  -29.6470   20.8920 C   0  0  0  0  0  0  0  0  0  0  0  0
  -27.7780  -28.9880   20.9430 C   0  0  0  0  0  3  0  0  0  0  0  0
  -26.8600  -27.1650   19.6210 C   0  0  0  0  0  3  0  0  0  0  0  0
  -25.6140  -27.8180   19.5810 C   0  0  0  0  0  3  0  0  0  0  0  0
  -24.1540  -29.8280   20.1990 C   0  0  0  0  0  2  0  0  0  0  0  0
  -24.9920  -31.1220   22.2150 N   0  0  0  0  0  0  0  0  0  0  0  0
  -23.6810  -32.0660   23.8050 O   0  0  0  0  0  0  0  0  0  0  0  0
  -23.1780  -29.3590   22.4670 C   0  0  0  0  0  0  0  0  0  0  0  0
  -21.8720  -29.1140   22.2730 N   0  0  0  0  0  0  0  0  0  0  0  0
  -23.8580  -28.7350   23.2860 O   0  0  0  0  0  0  0  0  0  0  0  0
  -21.3830  -29.6730   21.5880 H   0  0  0  0  0  0  0  0  0  0  0  0
  -18.5330  -27.7820   22.6160 C   0  0  0  0  0  0  0  0  0  0  0  0
  -21.0710  -28.1080   22.9690 C   0  0  0  0  0  3  0  0  0  0  0  0
  -21.2390  -26.7160   22.3150 C   0  0  0  0  0  2  0  0  0  0  0  0
  -20.1730  -26.4160   21.2570 C   0  0  0  0  0  2  0  0  0  0  0  0
  -18.7720  -26.4790   21.8730 C   0  0  0  0  0  2  0  0  0  0  0  0
  -19.6130  -28.5550   23.1170 C   0  0  0  0  0  0  0  0  0  0  0  0
  -19.3370  -29.7760   23.7700 C   0  0  0  0  0  3  0  0  0  0  0  0
  -18.0120  -30.2240   23.9280 C   0  0  0  0  0  3  0  0  0  0  0  0
  -16.9450  -29.4480   23.4440 C   0  0  0  0  0  3  0  0  0  0  0  0
  -17.2060  -28.2280   22.7940 C   0  0  0  0  0  3  0  0  0  0  0  0
  -26.0090  -32.5820   24.0460 C   0  0  0  0  0  3  0  0  0  0  0  0
  -25.6040  -33.9640   24.3390 N   0  0  0  0  0  0  0  0  0  0  0  0
  -25.9410  -35.0280   23.5990 C   0  0  0  0  0  0  0  0  0  0  0  0
  -26.6960  -34.9540   22.6250 O   0  0  0  0  0  0  0  0  0  0  0  0
  -24.9400  -34.0910   25.0890 H   0  0  0  0  0  0  0  0  0  0  0  0
  -24.1540  -36.7210   23.0920 C   0  0  0  0  0  1  0  0  0  0  0  0
  -25.3470  -36.3890   24.0020 C   0  0  0  0  0  3  0  0  0  0  0  0
  -27.3600  -37.3910   24.9880 C   0  0  0  0  0  1  0  0  0  0  0  0
  -26.3280  -37.4960   23.9590 N   0  0  0  0  0  0  0  0  0  0  0  0
  -25.8640  -38.3930   24.0670 H   0  0  0  0  0  0  0  0  0  0  0  0
  -26.4640  -31.8410   25.3630 C   0  0  1  0  0  0  0  0  0  0  0  0
  -25.3030  -31.5330   26.3360 C   0  0  0  0  0  1  0  0  0  0  0  0
  -27.1610  -30.5040   25.0220 C   0  0  0  0  0  1  0  0  0  0  0  0
  -27.5040  -32.7040   26.1170 C   0  0  0  0  0  1  0  0  0  0  0  0
  1  6  1  0
  2  4  1  0
  3  2  1  0
  3  5  1  0
  4  9  1  0
  4  1  1  0
  5 53  1  0
  5  1  1  0
  6  8  1  0
  6  7  1  0
  9 10  1  0
 10 12  1  0
 11  9  2  0
 13 10  1  0
 13 14  1  0
 15 23  1  0
 16 21  1  0
 17 18  1  0
 17 16  1  0
 19 18  1  0
 19 28  1  0
 19 20  1  0
 21 15  1  0
 21 20  1  0
 22 15  2  0
 23 14  1  0
 23 24  1  0
 25 26  2  0
 26 45  1  0
 27 26  1  0
 27 30  1  0
 28 25  1  0
 28 29  1  0
 29 27  2  0
 30 31  1  0
 31 32  2  0
 33 36  1  0
 33 32  1  0
 34 33  2  0
 35 34  1  0
 35 30  2  0
 36 37  1  0
 37 42  2  0
 37 38  1  0
 38 39  2  0
 39 40  1  0
 40 44  1  0
 41 40  2  0
 42 41  1  0
 43 42  1  0
 45 46  1  0
 46 49  1  0
 46 48  1  0
 47 45  2  0
 50 51  1  0
 50 25  1  0
 52 50  1  0
 54 53  1  0
 55 56  1  0
 55 54  1  0
 57 68  2  0
 58 56  1  0
 58 63  1  0
 59 67  1  0
 59 69  1  0
 60 62  1  0
 61 67  1  0
 62 63  2  0
 62 61  1  0
 64 58  2  0
 65 64  1  0
 65 60  2  0
 66 60  1  0
 66 59  1  0
 67 57  1  0
 69 71  2  0
 70 69  1  0
 72 70  1  0
 73 82  2  0
 73 78  1  0
 74 70  1  0
 74 78  1  0
 75 74  1  0
 76 77  1  0
 76 75  1  0
 77 73  1  0
 78 79  2  0
 79 80  1  0
 81 80  2  0
 82 81  1  0
 83 57  1  0
 83 84  1  0
 83 93  1  0
 84 87  1  0
 85 89  1  0
 85 84  1  0
 86 85  2  0
 89 88  1  0
 91 89  1  0
 91 92  1  0
 91 90  1  0
 93 96  1  1
 93 94  1  0
 95 93  1  0
M  ISO  4  15 100  23 100  55 101  56 101
M  END
>  <TORSDO>  (80) 
F 22

>  <SCORE>  (80) 
-12.323

>  <name>  (80) 
80

>  <ligand_id>  (80) 
80

>  <original_smiles>  (80) 
[H]c1c([H])c([H])c2c(c1[H])C([H])([H])C([H])([H])C([H])([H])C2([H])N([H])C(=O)C1([H])N(C(=O)C([H])(N([H])C(=O)C([H])(N([H])C([H])([H])[H])C([H])([H])[H])C(C([H])([H])[H])(C([H])([H])[H])C([H])([H])[H])C([H])([H])c2c([H])c(OC([H])([H])C([H])([H])C([H])([H])N3C(=[N+]([H])[H])C([H])(C(=O)N([H])C([H])([H])C([H])([H])N([H])C(=O)N4C([H])([H])C([H])([H])C([H])([H])C([H])(n5nc(-c6c([H])c([H])c(Oc7c([H])c([H])c(F)c([H])c7F)c([H])c6[H])c(C(=O)N([H])[H])c5N([H])[H])C4([H])[H])C([H])([H])C3([H])[H])c([H])c([H])c2C1([H])[H]

>  <smiles>  (80) 
[H]c1c([H])c([H])c2c(c1[H])C([H])([H])C([H])([H])C([H])([H])C2([H])N([H])C(=O)C1([H])N(C(=O)C([H])(N([H])C(=O)C([H])(N([H])C([H])([H])[H])C([H])([H])[H])C(C([H])([H])[H])(C([H])([H])[H])C([H])([H])[H])C([H])([H])c2c([H])c(OC([H])([H])C([H])([H])C([H])([H])N3C(=[N+]([H])[H])C([H])(C(=O)N([H])C([H])([H])C([H])([H])N([H])C(=O)N4C([H])([H])C([H])([H])C([H])([H])C([H])(n5nc(-c6c([H])c([H])c(Oc7c([H])c([H])c(F)c([H])c7F)c([H])c6[H])c(C(=O)N([H])[H])c5N([H])[H])C4([H])[H])C([H])([H])C3([H])[H])c([H])c([H])c2C1([H])[H]

$$$$
81:0:0
     RDKit          3D

 98106  0  0  1  0  0  0  0  0999 V2000
  -27.7980  -22.2220   20.0380 C   0  0  0  0  0  3  0  0  0  0  0  0
  -28.6260  -20.9310   20.4080 C   0  0  0  0  0  2  0  0  0  0  0  0
  -27.7560  -19.5020   18.4150 C   0  0  0  0  0  2  0  0  0  0  0  0
  -28.9390  -18.5400   18.4620 C   0  0  0  0  0  2  0  0  0  0  0  0
  -27.8890  -19.6260   19.9510 C   0  0  0  0  0  3  0  0  0  0  0  0
  -28.4320  -18.1350   19.8440 C   0  0  0  0  0  3  0  0  0  0  0  0
  -29.3330  -17.2760   20.7900 C   0  0  0  0  0  2  0  0  0  0  0  0
  -30.5010  -14.9890   20.4290 C   0  0  0  0  0  0  0  0  0  0  0  0
  -30.3730  -12.7790   19.3580 C   0  0  0  0  0  2  0  0  0  0  0  0
  -29.4210  -12.9240   18.1500 C   0  0  0  0  0  2  0  0  0  0  0  0
  -27.9510  -12.7230   18.5740 C   0  0  0  0  0  2  0  0  0  0  0  0
  -27.5670  -13.5210   19.8510 C   0  0  0  0  0  3  0  0  0  0  0  0
  -28.6430  -13.3840   20.9550 C   0  0  0  0  0  2  0  0  0  0  0  0
  -29.9320  -13.7580   20.3560 N   0  0  0  0  0  0  0  0  0  0  0  0
  -31.7070  -15.1710   20.2400 O   0  0  0  0  0  0  0  0  0  0  0  0
  -29.6420  -15.9910   20.1070 N   0  0  0  0  0  0  0  0  0  0  0  0
  -29.6790  -16.1400   19.1060 H   0  0  0  0  0  0  0  0  0  0  0  0
  -25.1500  -14.0040   20.5830 C   0  0  0  0  0  0  0  0  0  0  0  0
  -24.1160  -13.1760   20.9360 C   0  0  0  0  0  0  0  0  0  0  0  0
  -24.6380  -11.8510   20.8870 C   0  0  0  0  0  0  0  0  0  0  0  0
  -26.2320  -13.1750   20.3330 N   0  0  0  0  0  0  0  0  0  0  0  0
  -25.9290  -11.8730   20.5730 N   0  0  0  0  0  0  0  0  0  0  0  0
  -23.9690  -10.5570   21.0600 C   0  0  0  0  0  0  0  0  0  0  0  0
  -24.4200   -9.6170   22.0130 C   0  0  0  0  0  3  0  0  0  0  0  0
  -23.7520   -8.3830   22.1730 C   0  0  0  0  0  3  0  0  0  0  0  0
  -22.6160   -8.0830   21.3800 C   0  0  0  0  0  0  0  0  0  0  0  0
  -22.1830   -9.0150   20.4190 C   0  0  0  0  0  3  0  0  0  0  0  0
  -22.8540  -10.2400   20.2590 C   0  0  0  0  0  3  0  0  0  0  0  0
  -21.9160   -6.9020   21.4470 O   0  0  0  0  0  0  0  0  0  0  0  0
  -21.8440   -6.1790   22.6080 C   0  0  0  0  0  0  0  0  0  0  0  0
  -21.2920   -6.7160   23.7920 C   0  0  0  0  0  3  0  0  0  0  0  0
  -21.1730   -5.9110   24.9420 C   0  0  0  0  0  3  0  0  0  0  0  0
  -21.5930   -4.5680   24.9100 C   0  0  0  0  0  0  0  0  0  0  0  0
  -22.1390   -4.0290   23.7310 C   0  0  0  0  0  3  0  0  0  0  0  0
  -22.2600   -4.8330   22.5830 C   0  0  0  0  0  0  0  0  0  0  0  0
  -22.7660   -4.3010   21.4440 F   0  0  0  0  0  0  0  0  0  0  0  0
  -21.4740   -3.7900   26.0130 F   0  0  0  0  0  0  0  0  0  0  0  0
  -22.7010  -13.5920   21.2180 C   0  0  0  0  0  0  0  0  0  0  0  0
  -22.0060  -12.8510   22.0750 N   0  0  0  0  0  0  0  0  0  0  0  0
  -22.2140  -14.6050   20.7190 O   0  0  0  0  0  0  0  0  0  0  0  0
  -22.4040  -12.0310   22.5040 H   0  0  0  0  0  0  0  0  0  0  0  0
  -21.0570  -13.1160   22.3040 H   0  0  0  0  0  0  0  0  0  0  0  0
  -25.2400  -15.3840   20.4310 N   0  0  0  0  0  0  0  0  0  0  0  0
  -24.4320  -15.9810   20.5610 H   0  0  0  0  0  0  0  0  0  0  0  0
  -26.0570  -15.8850   20.1140 H   0  0  0  0  0  0  0  0  0  0  0  0
  -28.5260  -23.5700   19.6600 C   0  0  0  0  0  2  0  0  0  0  0  0
  -29.3740  -24.4190   20.6800 C   0  0  0  0  0  3  0  0  0  0  0  0
  -29.7040  -23.6590   21.9170 N   0  0  0  0  0  4  0  0  0  0  0  0
  -28.8960  -23.4300   22.4680 H   0  0  0  0  0  0  0  0  0  0  0  0
  -30.3050  -24.2150   22.5070 H   0  0  0  0  0  0  0  0  0  0  0  0
  -30.1990  -22.8030   21.7230 H   0  0  0  0  0  0  0  0  0  0  0  0
  -28.7510  -25.8130   21.0650 C   0  0  0  0  0  2  0  0  0  0  0  0
  -28.8540  -26.9190   20.1250 O   0  0  0  0  0  0  0  0  0  0  0  0
  -24.7120  -31.8570   23.2630 C   0  0  0  0  0  0  0  0  0  0  0  0
  -27.7020  -27.6800   20.0810 C   0  0  0  0  0  0  0  0  0  0  0  0
  -23.6460  -30.4480   21.5370 C   0  0  0  0  0  3  0  0  0  0  0  0
  -25.2280  -29.0590   20.0950 C   0  0  0  0  0  0  0  0  0  0  0  0
  -26.1530  -30.9570   21.4290 C   0  0  0  0  0  2  0  0  0  0  0  0
  -26.3420  -29.6210   20.7370 C   0  0  0  0  0  0  0  0  0  0  0  0
  -27.5880  -28.9400   20.7240 C   0  0  0  0  0  3  0  0  0  0  0  0
  -26.5790  -27.1530   19.4090 C   0  0  0  0  0  3  0  0  0  0  0  0
  -25.3440  -27.8300   19.4250 C   0  0  0  0  0  3  0  0  0  0  0  0
  -23.9350  -29.8440   20.1390 C   0  0  0  0  0  2  0  0  0  0  0  0
  -24.8560  -31.0990   22.1380 N   0  0  0  0  0  0  0  0  0  0  0  0
  -23.5990  -32.0420   23.7750 O   0  0  0  0  0  0  0  0  0  0  0  0
  -23.0330  -29.3470   22.4370 C   0  0  0  0  0  0  0  0  0  0  0  0
  -21.7230  -29.1040   22.2770 N   0  0  0  0  0  0  0  0  0  0  0  0
  -23.7340  -28.7160   23.2310 O   0  0  0  0  0  0  0  0  0  0  0  0
  -21.2080  -29.6950   21.6380 H   0  0  0  0  0  0  0  0  0  0  0  0
  -18.4110  -27.6890   22.6410 C   0  0  0  0  0  0  0  0  0  0  0  0
  -20.9440  -28.0780   22.9680 C   0  0  0  0  0  3  0  0  0  0  0  0
  -21.1450  -26.6870   22.3250 C   0  0  0  0  0  2  0  0  0  0  0  0
  -20.0630  -26.3210   21.3000 C   0  0  0  0  0  2  0  0  0  0  0  0
  -18.6620  -26.3770   21.9180 C   0  0  0  0  0  2  0  0  0  0  0  0
  -19.4800  -28.4950   23.1140 C   0  0  0  0  0  0  0  0  0  0  0  0
  -19.1770  -29.7180   23.7540 C   0  0  0  0  0  3  0  0  0  0  0  0
  -17.8450  -30.1360   23.9170 C   0  0  0  0  0  3  0  0  0  0  0  0
  -16.7900  -29.3260   23.4670 C   0  0  0  0  0  3  0  0  0  0  0  0
  -17.0780  -28.1020   22.8300 C   0  0  0  0  0  3  0  0  0  0  0  0
  -25.9370  -32.5460   23.9440 C   0  0  0  0  0  3  0  0  0  0  0  0
  -26.4200  -31.7970   25.2480 C   0  0  1  0  0  0  0  0  0  0  0  0
  -25.2890  -31.5110   26.2630 C   0  0  0  0  0  1  0  0  0  0  0  0
  -27.0790  -30.4460   24.8830 C   0  0  0  0  0  1  0  0  0  0  0  0
  -27.5050  -32.6440   25.9580 C   0  0  0  0  0  1  0  0  0  0  0  0
  -25.5530  -33.9320   24.2430 N   0  0  0  0  0  0  0  0  0  0  0  0
  -25.8760  -34.9870   23.4870 C   0  0  0  0  0  0  0  0  0  0  0  0
  -26.6010  -34.9000   22.4880 O   0  0  0  0  0  0  0  0  0  0  0  0
  -24.9070  -34.0710   25.0080 H   0  0  0  0  0  0  0  0  0  0  0  0
  -24.0860  -36.6960   23.0450 C   0  0  0  0  0  1  0  0  0  0  0  0
  -25.3160  -36.3600   23.9040 C   0  0  0  0  0  3  0  0  0  0  0  0
  -27.3760  -37.3520   24.7980 C   0  0  0  0  0  1  0  0  0  0  0  0
  -26.3060  -37.4560   23.8090 N   0  0  0  0  0  0  0  0  0  0  0  0
  -25.8580  -38.3620   23.9220 H   0  0  0  0  0  0  0  0  0  0  0  0
  -26.5420  -22.4450   20.9350 C   0  0  0  0  0  2  0  0  0  0  0  0
  -25.4000  -23.0300   20.1980 N   0  0  0  0  0  4  0  0  0  0  0  0
  -25.6600  -23.8970   19.7590 H   0  0  0  0  0  0  0  0  0  0  0  0
  -24.6300  -23.2100   20.8170 H   0  0  0  0  0  0  0  0  0  0  0  0
  -25.0670  -22.3970   19.4920 H   0  0  0  0  0  0  0  0  0  0  0  0
  1 46  1  0
  1  2  1  0
  1 94  1  0
  3  4  1  0
  3  5  1  0
  4  6  1  0
  5  2  1  0
  6  5  1  0
  6  7  1  0
  9 14  1  0
 10 11  1  0
 10  9  1  0
 12 11  1  0
 12 21  1  0
 12 13  1  0
 14  8  1  0
 14 13  1  0
 15  8  2  0
 16  8  1  0
 16  7  1  0
 17 16  1  0
 18 19  2  0
 19 38  1  0
 20 19  1  0
 20 23  1  0
 21 22  1  0
 21 18  1  0
 22 20  2  0
 23 24  1  0
 24 25  2  0
 26 29  1  0
 26 25  1  0
 27 26  2  0
 28 27  1  0
 28 23  2  0
 29 30  1  0
 30 31  1  0
 31 32  2  0
 33 32  1  0
 33 37  1  0
 34 33  2  0
 35 30  2  0
 35 34  1  0
 36 35  1  0
 38 39  1  0
 39 42  1  0
 39 41  1  0
 40 38  2  0
 43 44  1  0
 43 18  1  0
 45 43  1  0
 47 46  1  0
 47 52  1  0
 47 48  1  0
 48 49  1  0
 48 50  1  0
 51 48  1  0
 53 52  1  0
 54 65  2  0
 55 53  1  0
 55 60  1  0
 56 64  1  0
 56 66  1  0
 57 63  1  0
 57 59  1  0
 58 64  1  0
 59 58  1  0
 60 59  2  0
 61 62  1  0
 61 55  2  0
 62 57  2  0
 63 56  1  0
 64 54  1  0
 66 68  2  0
 67 66  1  0
 69 67  1  0
 70 79  2  0
 70 75  1  0
 71 67  1  0
 71 75  1  0
 72 71  1  0
 73 74  1  0
 73 72  1  0
 74 70  1  0
 75 76  2  0
 76 77  1  0
 78 77  2  0
 79 78  1  0
 80 54  1  0
 80 85  1  0
 80 81  1  0
 81 84  1  1
 81 82  1  0
 83 81  1  0
 85 88  1  0
 86 90  1  0
 86 85  1  0
 87 86  2  0
 90 89  1  0
 92 90  1  0
 92 93  1  0
 92 91  1  0
 95 97  1  0
 95 94  1  0
 96 95  1  0
 98 95  1  0
M  ISO  4   8 100  16 100  52 101  53 101
M  END
>  <TORSDO>  (81) 
F 25

>  <SCORE>  (81) 
-12.278

>  <name>  (81) 
81

>  <ligand_id>  (81) 
81

>  <original_smiles>  (81) 
[H]c1c([H])c([H])c2c(c1[H])C([H])([H])C([H])([H])C([H])([H])C2([H])N([H])C(=O)C1([H])N(C(=O)C([H])(N([H])C(=O)C([H])(N([H])C([H])([H])[H])C([H])([H])[H])C(C([H])([H])[H])(C([H])([H])[H])C([H])([H])[H])C([H])([H])c2c([H])c(OC([H])([H])C([H])(C([H])([H])C([H])(C([H])([H])C3([H])C([H])([H])C([H])([H])C3([H])C([H])([H])N([H])C(=O)N3C([H])([H])C([H])([H])C([H])([H])C([H])(n4nc(-c5c([H])c([H])c(Oc6c([H])c([H])c(F)c([H])c6F)c([H])c5[H])c(C(=O)N([H])[H])c4N([H])[H])C3([H])[H])C([H])([H])[N+]([H])([H])[H])[N+]([H])([H])[H])c([H])c([H])c2C1([H])[H]

>  <smiles>  (81) 
[H]c1c([H])c([H])c2c(c1[H])C([H])([H])C([H])([H])C([H])([H])C2([H])N([H])C(=O)C1([H])N(C(=O)C([H])(N([H])C(=O)C([H])(N([H])C([H])([H])[H])C([H])([H])[H])C(C([H])([H])[H])(C([H])([H])[H])C([H])([H])[H])C([H])([H])c2c([H])c(OC([H])([H])C([H])(C([H])([H])C([H])(C([H])([H])C3([H])C([H])([H])C([H])([H])C3([H])C([H])([H])N([H])C(=O)N3C([H])([H])C([H])([H])C([H])([H])C([H])(n4nc(-c5c([H])c([H])c(Oc6c([H])c([H])c(F)c([H])c6F)c([H])c5[H])c(C(=O)N([H])[H])c4N([H])[H])C3([H])[H])C([H])([H])[N+]([H])([H])[H])[N+]([H])([H])[H])c([H])c([H])c2C1([H])[H]

$$$$
82:0:0
     RDKit          3D

 97105  0  0  1  0  0  0  0  0999 V2000
  -28.4490  -19.7490   20.4780 C   0  0  0  0  0  2  0  0  0  0  0  0
  -28.2410  -21.0800   21.1150 N   0  0  0  0  0  4  0  0  0  0  0  0
  -29.0820  -21.3740   21.5870 H   0  0  0  0  0  0  0  0  0  0  0  0
  -27.5210  -20.9800   21.8120 H   0  0  0  0  0  0  0  0  0  0  0  0
  -27.8290  -22.1620   20.1790 C   0  0  0  0  0  2  0  0  0  0  0  0
  -27.2990  -23.4310   20.9000 C   0  0  0  0  0  2  0  0  0  0  0  0
  -28.3090  -24.5790   21.1430 C   0  0  0  0  0  2  0  0  0  0  0  0
  -28.6920  -25.4100   19.8910 C   0  0  0  0  0  2  0  0  0  0  0  0
  -28.6590  -26.8190   20.1660 O   0  0  0  0  0  0  0  0  0  0  0  0
  -24.6750  -31.8740   23.2070 C   0  0  0  0  0  0  0  0  0  0  0  0
  -27.4490  -27.4890   20.1520 C   0  0  0  0  0  0  0  0  0  0  0  0
  -23.5210  -30.4630   21.5380 C   0  0  0  0  0  3  0  0  0  0  0  0
  -25.0250  -28.9560   20.1350 C   0  0  0  0  0  0  0  0  0  0  0  0
  -26.0450  -30.8650   21.3840 C   0  0  0  0  0  2  0  0  0  0  0  0
  -26.1650  -29.4980   20.7400 C   0  0  0  0  0  0  0  0  0  0  0  0
  -27.3780  -28.7720   20.7430 C   0  0  0  0  0  3  0  0  0  0  0  0
  -26.2800  -26.9560   19.5570 C   0  0  0  0  0  3  0  0  0  0  0  0
  -25.0780  -27.6830   19.5430 C   0  0  0  0  0  3  0  0  0  0  0  0
  -23.7670  -29.7950   20.1590 C   0  0  0  0  0  2  0  0  0  0  0  0
  -24.7650  -31.0820   22.1010 N   0  0  0  0  0  0  0  0  0  0  0  0
  -23.5800  -32.1250   23.7250 O   0  0  0  0  0  0  0  0  0  0  0  0
  -22.8700  -29.4240   22.4810 C   0  0  0  0  0  0  0  0  0  0  0  0
  -21.5510  -29.2210   22.3280 N   0  0  0  0  0  0  0  0  0  0  0  0
  -23.5470  -28.8040   23.3050 O   0  0  0  0  0  0  0  0  0  0  0  0
  -21.0620  -29.7710   21.6350 H   0  0  0  0  0  0  0  0  0  0  0  0
  -18.1880  -27.9720   22.7650 C   0  0  0  0  0  0  0  0  0  0  0  0
  -20.7380  -28.2630   23.0780 C   0  0  0  0  0  3  0  0  0  0  0  0
  -20.8700  -26.8400   22.4890 C   0  0  0  0  0  2  0  0  0  0  0  0
  -19.7870  -26.5090   21.4580 C   0  0  0  0  0  2  0  0  0  0  0  0
  -18.3950  -26.6290   22.0870 C   0  0  0  0  0  2  0  0  0  0  0  0
  -19.2900  -28.7460   23.2180 C   0  0  0  0  0  0  0  0  0  0  0  0
  -19.0460  -30.0030   23.8110 C   0  0  0  0  0  3  0  0  0  0  0  0
  -17.7310  -30.4870   23.9580 C   0  0  0  0  0  3  0  0  0  0  0  0
  -16.6440  -29.7090   23.5210 C   0  0  0  0  0  3  0  0  0  0  0  0
  -16.8730  -28.4550   22.9300 C   0  0  0  0  0  3  0  0  0  0  0  0
  -25.9390  -32.5220   23.8510 C   0  0  0  0  0  3  0  0  0  0  0  0
  -25.5960  -33.9060   24.2030 N   0  0  0  0  0  0  0  0  0  0  0  0
  -25.9030  -34.9770   23.4600 C   0  0  0  0  0  0  0  0  0  0  0  0
  -26.5790  -34.9050   22.4280 O   0  0  0  0  0  0  0  0  0  0  0  0
  -25.0010  -34.0370   25.0080 H   0  0  0  0  0  0  0  0  0  0  0  0
  -24.1280  -36.7220   23.1240 C   0  0  0  0  0  1  0  0  0  0  0  0
  -25.3780  -36.3440   23.9340 C   0  0  0  0  0  3  0  0  0  0  0  0
  -27.4840  -37.2790   24.7830 C   0  0  0  0  0  1  0  0  0  0  0  0
  -26.3820  -37.4260   23.8350 N   0  0  0  0  0  0  0  0  0  0  0  0
  -25.9500  -38.3330   23.9900 H   0  0  0  0  0  0  0  0  0  0  0  0
  -26.4640  -31.7370   25.1150 C   0  0  1  0  0  0  0  0  0  0  0  0
  -25.3650  -31.4370   26.1600 C   0  0  0  0  0  1  0  0  0  0  0  0
  -27.1030  -30.3940   24.6970 C   0  0  0  0  0  1  0  0  0  0  0  0
  -27.5780  -32.5540   25.8100 C   0  0  0  0  0  1  0  0  0  0  0  0
  -29.1010  -18.7060   21.4320 C   0  0  0  0  0  2  0  0  0  0  0  0
  -29.2570  -17.2900   20.8200 C   0  0  0  0  0  0  0  0  0  0  0  0
  -28.2370  -16.7480   20.3900 O   0  0  0  0  0  0  0  0  0  0  0  0
  -31.2170  -14.4410   19.6380 C   0  0  0  0  0  0  0  0  0  0  0  0
  -30.7540  -12.1960   18.7710 C   0  0  0  0  0  2  0  0  0  0  0  0
  -29.7510  -12.2640   17.6050 C   0  0  0  0  0  2  0  0  0  0  0  0
  -28.3140  -12.1600   18.1490 C   0  0  0  0  0  2  0  0  0  0  0  0
  -28.0430  -13.1470   19.3200 C   0  0  0  0  0  3  0  0  0  0  0  0
  -29.1740  -13.1280   20.3710 C   0  0  0  0  0  2  0  0  0  0  0  0
  -30.4450  -13.3240   19.6630 N   0  0  0  0  0  0  0  0  0  0  0  0
  -32.4030  -14.3890   19.3140 O   0  0  0  0  0  0  0  0  0  0  0  0
  -31.7980  -17.7480   19.0380 C   0  0  0  0  0  2  0  0  0  0  0  0
  -31.0890  -16.5150   18.4270 C   0  0  0  0  0  2  0  0  0  0  0  0
  -30.6390  -16.5450   20.7270 C   0  0  0  0  0  3  0  0  0  0  0  0
  -31.9460  -17.3450   20.5000 C   0  0  0  0  0  3  0  0  0  0  0  0
  -30.5950  -15.6490   19.5460 N   0  0  0  0  0  0  0  0  0  0  0  0
  -25.7310  -13.8160   20.2190 C   0  0  0  0  0  0  0  0  0  0  0  0
  -24.6740  -13.0730   20.6660 C   0  0  0  0  0  0  0  0  0  0  0  0
  -25.0940  -11.7090   20.6120 C   0  0  0  0  0  0  0  0  0  0  0  0
  -26.7350  -12.9070   19.9220 N   0  0  0  0  0  0  0  0  0  0  0  0
  -26.3600  -11.6340   20.2200 N   0  0  0  0  0  0  0  0  0  0  0  0
  -24.3480  -10.4710   20.8610 C   0  0  0  0  0  0  0  0  0  0  0  0
  -24.7330   -9.5690   21.8790 C   0  0  0  0  0  3  0  0  0  0  0  0
  -23.9860   -8.3940   22.1140 C   0  0  0  0  0  3  0  0  0  0  0  0
  -22.8410   -8.1140   21.3320 C   0  0  0  0  0  0  0  0  0  0  0  0
  -22.4750   -9.0030   20.3050 C   0  0  0  0  0  3  0  0  0  0  0  0
  -23.2230  -10.1690   20.0700 C   0  0  0  0  0  3  0  0  0  0  0  0
  -22.0710   -6.9840   21.4700 O   0  0  0  0  0  0  0  0  0  0  0  0
  -21.8550   -6.4050   22.6950 C   0  0  0  0  0  0  0  0  0  0  0  0
  -21.2550   -7.1130   23.7590 C   0  0  0  0  0  3  0  0  0  0  0  0
  -20.9900   -6.4610   24.9790 C   0  0  0  0  0  3  0  0  0  0  0  0
  -21.3120   -5.1000   25.1350 C   0  0  0  0  0  0  0  0  0  0  0  0
  -21.9060   -4.3910   24.0760 C   0  0  0  0  0  3  0  0  0  0  0  0
  -22.1740   -5.0420   22.8590 C   0  0  0  0  0  0  0  0  0  0  0  0
  -22.7270   -4.3490   21.8350 F   0  0  0  0  0  0  0  0  0  0  0  0
  -21.0500   -4.4700   26.3040 F   0  0  0  0  0  0  0  0  0  0  0  0
  -23.3170  -13.5910   21.0450 C   0  0  0  0  0  0  0  0  0  0  0  0
  -22.6400  -12.9190   21.9690 N   0  0  0  0  0  0  0  0  0  0  0  0
  -22.8720  -14.6310   20.5590 O   0  0  0  0  0  0  0  0  0  0  0  0
  -23.0110  -12.0750   22.3780 H   0  0  0  0  0  0  0  0  0  0  0  0
  -21.7330  -13.2480   22.2660 H   0  0  0  0  0  0  0  0  0  0  0  0
  -25.9150  -15.1790   20.0240 N   0  0  0  0  0  0  0  0  0  0  0  0
  -25.1900  -15.8430   20.2740 H   0  0  0  0  0  0  0  0  0  0  0  0
  -26.8430  -15.6020   20.0180 H   0  0  0  0  0  0  0  0  0  0  0  0
  -32.3200  -18.4120   21.4540 N   0  0  0  0  0  4  0  0  0  0  0  0
  -31.7230  -19.2160   21.4230 H   0  0  0  0  0  0  0  0  0  0  0  0
  -33.2540  -18.7260   21.2520 H   0  0  0  0  0  0  0  0  0  0  0  0
  -32.3370  -18.0590   22.3960 H   0  0  0  0  0  0  0  0  0  0  0  0
  1  2  1  0
  1 50  1  0
  2  3  1  0
  2  4  1  0
  5  6  1  0
  5  2  1  0
  6  7  1  0
  8  9  1  0
  8  7  1  0
 10 21  2  0
 11  9  1  0
 11 16  1  0
 12 20  1  0
 12 22  1  0
 13 19  1  0
 13 15  1  0
 14 20  1  0
 15 16  2  0
 15 14  1  0
 17 11  2  0
 18 17  1  0
 18 13  2  0
 19 12  1  0
 20 10  1  0
 22 24  2  0
 23 22  1  0
 25 23  1  0
 26 35  2  0
 26 31  1  0
 27 23  1  0
 27 31  1  0
 28 27  1  0
 29 30  1  0
 29 28  1  0
 30 26  1  0
 31 32  2  0
 32 33  1  0
 34 33  2  0
 35 34  1  0
 36 10  1  0
 36 37  1  0
 36 46  1  0
 37 40  1  0
 38 42  1  0
 38 37  1  0
 39 38  2  0
 42 41  1  0
 44 42  1  0
 44 45  1  0
 44 43  1  0
 46 49  1  1
 46 47  1  0
 48 46  1  0
 51 50  1  0
 52 51  2  0
 53 59  1  0
 54 59  1  0
 55 56  1  0
 55 54  1  0
 57 56  1  0
 57 69  1  0
 57 58  1  0
 59 58  1  0
 60 53  2  0
 61 64  1  0
 62 61  1  0
 62 65  1  0
 63 51  1  0
 64 63  1  0
 64 94  1  0
 65 53  1  0
 65 63  1  0
 66 67  2  0
 67 86  1  0
 68 67  1  0
 68 71  1  0
 69 66  1  0
 69 70  1  0
 70 68  2  0
 71 72  1  0
 72 73  2  0
 74 77  1  0
 74 73  1  0
 75 74  2  0
 76 75  1  0
 76 71  2  0
 77 78  1  0
 78 83  2  0
 78 79  1  0
 79 80  2  0
 80 81  1  0
 81 85  1  0
 82 81  2  0
 83 82  1  0
 84 83  1  0
 86 87  1  0
 87 90  1  0
 87 89  1  0
 88 86  2  0
 91 66  1  0
 91 92  1  0
 93 91  1  0
 94 97  1  0
 95 94  1  0
 96 94  1  0
M  ISO  4   8 101   9 101  53 100  65 100
M  END
>  <TORSDO>  (82) 
F 24

>  <SCORE>  (82) 
-11.644

>  <name>  (82) 
82

>  <ligand_id>  (82) 
82

>  <original_smiles>  (82) 
[H]c1c([H])c([H])c2c(c1[H])C([H])([H])C([H])([H])C([H])([H])C2([H])N([H])C(=O)C1([H])N(C(=O)C([H])(N([H])C(=O)C([H])(N([H])C([H])([H])[H])C([H])([H])[H])C(C([H])([H])[H])(C([H])([H])[H])C([H])([H])[H])C([H])([H])c2c([H])c(OC([H])([H])C([H])([H])C([H])([H])C([H])([H])[N+]([H])([H])C([H])([H])C([H])([H])C(=O)C3([H])N(C(=O)N4C([H])([H])C([H])([H])C([H])([H])C([H])(n5nc(-c6c([H])c([H])c(Oc7c([H])c([H])c(F)c([H])c7F)c([H])c6[H])c(C(=O)N([H])[H])c5N([H])[H])C4([H])[H])C([H])([H])C([H])([H])C3([H])[N+]([H])([H])[H])c([H])c([H])c2C1([H])[H]

>  <smiles>  (82) 
[H]c1c([H])c([H])c2c(c1[H])C([H])([H])C([H])([H])C([H])([H])C2([H])N([H])C(=O)C1([H])N(C(=O)C([H])(N([H])C(=O)C([H])(N([H])C([H])([H])[H])C([H])([H])[H])C(C([H])([H])[H])(C([H])([H])[H])C([H])([H])[H])C([H])([H])c2c([H])c(OC([H])([H])C([H])([H])C([H])([H])C([H])([H])[N+]([H])([H])C([H])([H])C([H])([H])C(=O)C3([H])N(C(=O)N4C([H])([H])C([H])([H])C([H])([H])C([H])(n5nc(-c6c([H])c([H])c(Oc7c([H])c([H])c(F)c([H])c7F)c([H])c6[H])c(C(=O)N([H])[H])c5N([H])[H])C4([H])[H])C([H])([H])C([H])([H])C3([H])[N+]([H])([H])[H])c([H])c([H])c2C1([H])[H]

$$$$
83:0:0
     RDKit          3D

 95104  0  0  1  0  0  0  0  0999 V2000
  -30.6600  -19.2060   17.5480 C   0  0  0  0  0  0  0  0  0  0  0  0
  -29.3330  -19.8430   17.1530 C   0  0  0  0  0  2  0  0  0  0  0  0
  -29.3960  -21.3630   17.3560 C   0  0  0  0  0  2  0  0  0  0  0  0
  -29.8170  -17.6880   21.5230 C   0  0  0  0  0  2  0  0  0  0  0  0
  -30.4360  -17.2880   19.1500 C   0  0  0  0  0  2  0  0  0  0  0  0
  -30.1810  -19.1880   21.3450 C   0  0  0  0  0  2  0  0  0  0  0  0
  -30.3530  -21.1330   19.7840 C   0  0  0  0  0  2  0  0  0  0  0  0
  -30.8370  -18.7740   19.0110 C   0  0  0  0  0  3  0  0  0  0  0  0
  -29.3730  -21.8810   18.8190 C   0  0  0  0  0  3  0  0  0  0  0  0
  -30.6360  -16.7730   20.5870 C   0  0  0  0  0  3  0  0  0  0  0  0
  -30.0590  -19.6650   19.9340 N   0  0  1  0  0  4  0  0  0  0  0  0
  -31.5430  -19.0680   16.6980 O   0  0  0  0  0  0  0  0  0  0  0  0
  -29.0850  -19.5650   19.6930 H   0  0  0  0  0  0  0  0  0  0  0  0
  -30.9230  -14.3170   20.1930 C   0  0  0  0  0  0  0  0  0  0  0  0
  -30.5170  -12.2170   18.9810 C   0  0  0  0  0  2  0  0  0  0  0  0
  -29.5360  -12.5030   17.8250 C   0  0  0  0  0  2  0  0  0  0  0  0
  -28.0770  -12.3940   18.3050 C   0  0  0  0  0  2  0  0  0  0  0  0
  -27.8140  -13.1840   19.6160 C   0  0  0  0  0  3  0  0  0  0  0  0
  -28.9030  -12.8850   20.6710 C   0  0  0  0  0  2  0  0  0  0  0  0
  -30.2140  -13.1650   20.0620 N   0  0  0  0  0  0  0  0  0  0  0  0
  -32.0430  -14.4800   19.7020 O   0  0  0  0  0  0  0  0  0  0  0  0
  -30.2390  -15.3590   20.7050 N   0  0  0  0  0  0  0  0  0  0  0  0
  -29.3270  -15.1520   21.0840 H   0  0  0  0  0  0  0  0  0  0  0  0
  -25.4470  -13.8210   20.4020 C   0  0  0  0  0  0  0  0  0  0  0  0
  -24.3800  -13.0610   20.7990 C   0  0  0  0  0  0  0  0  0  0  0  0
  -24.8210  -11.7040   20.7440 C   0  0  0  0  0  0  0  0  0  0  0  0
  -26.4720  -12.9270   20.1340 N   0  0  0  0  0  0  0  0  0  0  0  0
  -26.0990  -11.6490   20.3950 N   0  0  0  0  0  0  0  0  0  0  0  0
  -24.0830  -10.4500   20.9500 C   0  0  0  0  0  0  0  0  0  0  0  0
  -24.5150   -9.4830   21.8840 C   0  0  0  0  0  3  0  0  0  0  0  0
  -23.7780   -8.2930   22.0750 C   0  0  0  0  0  3  0  0  0  0  0  0
  -22.5960   -8.0650   21.3330 C   0  0  0  0  0  0  0  0  0  0  0  0
  -22.1820   -9.0220   20.3880 C   0  0  0  0  0  3  0  0  0  0  0  0
  -22.9190  -10.2020   20.1950 C   0  0  0  0  0  3  0  0  0  0  0  0
  -21.8300   -6.9290   21.4340 O   0  0  0  0  0  0  0  0  0  0  0  0
  -21.7620   -6.2090   22.5990 C   0  0  0  0  0  0  0  0  0  0  0  0
  -21.3040   -6.7830   23.8050 C   0  0  0  0  0  3  0  0  0  0  0  0
  -21.1850   -5.9880   24.9630 C   0  0  0  0  0  3  0  0  0  0  0  0
  -21.5130   -4.6200   24.9140 C   0  0  0  0  0  0  0  0  0  0  0  0
  -21.9650   -4.0450   23.7130 C   0  0  0  0  0  3  0  0  0  0  0  0
  -22.0850   -4.8370   22.5580 C   0  0  0  0  0  0  0  0  0  0  0  0
  -22.5000   -4.2740   21.3970 F   0  0  0  0  0  0  0  0  0  0  0  0
  -21.3910   -3.8540   26.0230 F   0  0  0  0  0  0  0  0  0  0  0  0
  -22.9990  -13.5570   21.1220 C   0  0  0  0  0  0  0  0  0  0  0  0
  -22.2900  -12.8640   22.0060 N   0  0  0  0  0  0  0  0  0  0  0  0
  -22.5600  -14.5930   20.6260 O   0  0  0  0  0  0  0  0  0  0  0  0
  -22.6630  -12.0260   22.4290 H   0  0  0  0  0  0  0  0  0  0  0  0
  -21.3640  -13.1740   22.2630 H   0  0  0  0  0  0  0  0  0  0  0  0
  -25.6240  -15.1890   20.2260 N   0  0  0  0  0  0  0  0  0  0  0  0
  -24.8640  -15.8490   20.3490 H   0  0  0  0  0  0  0  0  0  0  0  0
  -26.4650  -15.6180   19.8650 H   0  0  0  0  0  0  0  0  0  0  0  0
  -29.6440  -23.4130   18.7450 C   0  0  0  0  0  2  0  0  0  0  0  0
  -29.0340  -24.3240   19.8340 C   0  0  0  0  0  2  0  0  0  0  0  0
  -29.0930  -25.8090   19.4000 C   0  0  0  0  0  2  0  0  0  0  0  0
  -28.7090  -26.7220   20.4310 O   0  0  0  0  0  0  0  0  0  0  0  0
  -24.7010  -31.8340   23.2970 C   0  0  0  0  0  0  0  0  0  0  0  0
  -27.5050  -27.3940   20.3510 C   0  0  0  0  0  0  0  0  0  0  0  0
  -23.5690  -30.4090   21.6190 C   0  0  0  0  0  3  0  0  0  0  0  0
  -25.0870  -28.8640   20.2660 C   0  0  0  0  0  0  0  0  0  0  0  0
  -26.0950  -30.7810   21.5190 C   0  0  0  0  0  2  0  0  0  0  0  0
  -26.2130  -29.4030   20.9010 C   0  0  0  0  0  0  0  0  0  0  0  0
  -27.4160  -28.6680   20.9540 C   0  0  0  0  0  3  0  0  0  0  0  0
  -26.3590  -26.8580   19.7190 C   0  0  0  0  0  3  0  0  0  0  0  0
  -25.1540  -27.5880   19.6780 C   0  0  0  0  0  3  0  0  0  0  0  0
  -23.8360  -29.7140   20.2560 C   0  0  0  0  0  2  0  0  0  0  0  0
  -24.8040  -31.0230   22.2050 N   0  0  0  0  0  0  0  0  0  0  0  0
  -23.5990  -32.1050   23.7920 O   0  0  0  0  0  0  0  0  0  0  0  0
  -22.8860  -29.3950   22.5650 C   0  0  0  0  0  0  0  0  0  0  0  0
  -21.5630  -29.2260   22.4060 N   0  0  0  0  0  0  0  0  0  0  0  0
  -23.5450  -28.7620   23.3940 O   0  0  0  0  0  0  0  0  0  0  0  0
  -21.0920  -29.7890   21.7110 H   0  0  0  0  0  0  0  0  0  0  0  0
  -18.1590  -28.1080   22.8700 C   0  0  0  0  0  0  0  0  0  0  0  0
  -20.7210  -28.2950   23.1580 C   0  0  0  0  0  3  0  0  0  0  0  0
  -20.7890  -26.8740   22.5530 C   0  0  0  0  0  2  0  0  0  0  0  0
  -19.6840  -26.5990   21.5280 C   0  0  0  0  0  2  0  0  0  0  0  0
  -18.3040  -26.7680   22.1710 C   0  0  0  0  0  2  0  0  0  0  0  0
  -19.2960  -28.8320   23.3190 C   0  0  0  0  0  0  0  0  0  0  0  0
  -19.1090  -30.0890   23.9330 C   0  0  0  0  0  3  0  0  0  0  0  0
  -17.8170  -30.6250   24.1020 C   0  0  0  0  0  3  0  0  0  0  0  0
  -16.6950  -29.8990   23.6670 C   0  0  0  0  0  3  0  0  0  0  0  0
  -16.8670  -28.6420   23.0590 C   0  0  0  0  0  3  0  0  0  0  0  0
  -25.9600  -32.4750   23.9600 C   0  0  0  0  0  3  0  0  0  0  0  0
  -26.4220  -31.7300   25.2710 C   0  0  1  0  0  0  0  0  0  0  0  0
  -25.2820  -31.5100   26.2950 C   0  0  0  0  0  1  0  0  0  0  0  0
  -27.0210  -30.3460   24.9300 C   0  0  0  0  0  1  0  0  0  0  0  0
  -27.5440  -32.5360   25.9670 C   0  0  0  0  0  1  0  0  0  0  0  0
  -25.6410  -33.8810   24.2430 N   0  0  0  0  0  0  0  0  0  0  0  0
  -26.0050  -34.9140   23.4720 C   0  0  0  0  0  0  0  0  0  0  0  0
  -26.7170  -34.7850   22.4720 O   0  0  0  0  0  0  0  0  0  0  0  0
  -25.0060  -34.0550   25.0110 H   0  0  0  0  0  0  0  0  0  0  0  0
  -24.2910  -36.6960   23.0070 C   0  0  0  0  0  1  0  0  0  0  0  0
  -25.5000  -36.3130   23.8760 C   0  0  0  0  0  3  0  0  0  0  0  0
  -27.5980  -37.2230   24.7700 C   0  0  0  0  0  1  0  0  0  0  0  0
  -26.5360  -37.3650   23.7760 N   0  0  0  0  0  0  0  0  0  0  0  0
  -26.1230  -38.2870   23.8830 H   0  0  0  0  0  0  0  0  0  0  0  0
  1  8  1  0
  2  3  1  0
  2  1  1  0
  3  9  1  0
  5 10  1  0
  6  4  1  0
  7 11  1  0
  8  5  1  0
  8 11  1  0
  9 52  1  0
  9  7  1  0
 10 22  1  0
 10  4  1  0
 11 13  1  6
 11  6  1  0
 12  1  2  0
 14 22  1  0
 15 20  1  0
 16 17  1  0
 16 15  1  0
 18 17  1  0
 18 27  1  0
 18 19  1  0
 20 14  1  0
 20 19  1  0
 21 14  2  0
 22 23  1  0
 24 25  2  0
 25 44  1  0
 26 25  1  0
 26 29  1  0
 27 28  1  0
 27 24  1  0
 28 26  2  0
 29 30  1  0
 30 31  2  0
 32 35  1  0
 32 31  1  0
 33 32  2  0
 34 33  1  0
 34 29  2  0
 35 36  1  0
 36 37  1  0
 37 38  2  0
 39 38  1  0
 39 43  1  0
 40 39  2  0
 41 36  2  0
 41 40  1  0
 42 41  1  0
 44 45  1  0
 45 48  1  0
 45 47  1  0
 46 44  2  0
 49 50  1  0
 49 24  1  0
 51 49  1  0
 52 53  1  0
 54 53  1  0
 54 55  1  0
 56 67  2  0
 57 55  1  0
 57 62  1  0
 58 66  1  0
 58 68  1  0
 59 61  1  0
 60 66  1  0
 61 62  2  0
 61 60  1  0
 63 57  2  0
 64 63  1  0
 64 59  2  0
 65 59  1  0
 65 58  1  0
 66 56  1  0
 68 70  2  0
 69 68  1  0
 71 69  1  0
 72 81  2  0
 72 77  1  0
 73 69  1  0
 73 77  1  0
 74 73  1  0
 75 76  1  0
 75 74  1  0
 76 72  1  0
 77 78  2  0
 78 79  1  0
 80 79  2  0
 81 80  1  0
 82 56  1  0
 82 87  1  0
 82 83  1  0
 83 86  1  1
 83 84  1  0
 85 83  1  0
 87 90  1  0
 88 92  1  0
 88 87  1  0
 89 88  2  0
 92 91  1  0
 94 92  1  0
 94 95  1  0
 94 93  1  0
M  ISO  4  14 100  22 100  54 101  55 101
M  END
>  <TORSDO>  (83) 
F 19

>  <SCORE>  (83) 
-14.045

>  <name>  (83) 
83

>  <ligand_id>  (83) 
83

>  <original_smiles>  (83) 
[H]c1c([H])c([H])c2c(c1[H])C([H])([H])C([H])([H])C([H])([H])C2([H])N([H])C(=O)C1([H])N(C(=O)C([H])(N([H])C(=O)C([H])(N([H])C([H])([H])[H])C([H])([H])[H])C(C([H])([H])[H])(C([H])([H])[H])C([H])([H])[H])C([H])([H])c2c([H])c(OC([H])([H])C([H])([H])C([H])([H])C3([H])C([H])([H])C([H])([H])C(=O)C4([H])C([H])([H])C([H])(N([H])C(=O)N5C([H])([H])C([H])([H])C([H])([H])C([H])(n6nc(-c7c([H])c([H])c(Oc8c([H])c([H])c(F)c([H])c8F)c([H])c7[H])c(C(=O)N([H])[H])c6N([H])[H])C5([H])[H])C([H])([H])C([H])([H])[N+]4([H])C3([H])[H])c([H])c([H])c2C1([H])[H]

>  <smiles>  (83) 
[H]c1c([H])c([H])c2c(c1[H])C([H])([H])C([H])([H])C([H])([H])C2([H])N([H])C(=O)C1([H])N(C(=O)C([H])(N([H])C(=O)C([H])(N([H])C([H])([H])[H])C([H])([H])[H])C(C([H])([H])[H])(C([H])([H])[H])C([H])([H])[H])C([H])([H])c2c([H])c(OC([H])([H])C([H])([H])C([H])([H])C3([H])C([H])([H])C([H])([H])C(=O)C4([H])C([H])([H])C([H])(N([H])C(=O)N5C([H])([H])C([H])([H])C([H])([H])C([H])(n6nc(-c7c([H])c([H])c(Oc8c([H])c([H])c(F)c([H])c8F)c([H])c7[H])c(C(=O)N([H])[H])c6N([H])[H])C5([H])[H])C([H])([H])C([H])([H])[N+]4([H])C3([H])[H])c([H])c([H])c2C1([H])[H]

$$$$
84:0:0
     RDKit          3D

 94 93  0  0  1  0  0  0  0  0999 V2000
  -21.8860  -27.7830   20.9060 C   0  0  0  0  0  2  0  0  0  0  0  0
  -22.4680  -28.5010   23.5790 C   0  0  0  0  0 15  0  0  0  0  0  0
  -23.2530  -25.6500   20.5270 C   0  0  0  0  0 15  0  0  0  0  0  0
  -24.0710  -26.7290   24.3640 C   0  0  0  0  0  1  0  0  0  0  0  0
  -24.6610  -23.9910   21.6280 C   0  0  0  0  0 15  0  0  0  0  0  0
  -21.1310  -28.3910   20.0810 N   0  0  0  0  0  0  0  0  0  0  0  0
  -24.6370  -25.0830   23.2800 N   0  0  0  0  0  2  0  0  0  0  0  0
  -20.6840  -29.2090   20.4810 H   0  0  0  0  0  0  0  0  0  0  0  0
  -25.6300  -25.2350   23.3690 H   0  0  0  0  0  0  0  0  0  0  0  0
  -24.4430  -24.3610   23.9570 H   0  0  0  0  0  0  0  0  0  0  0  0
  -25.4060  -26.6820   25.2390 C   0  0  0  0  0  2  0  0  0  0  0  0
  -26.8590  -26.9410   24.5180 C   0  0  0  0  0  2  0  0  0  0  0  0
  -27.4260  -26.2570   23.1650 C   0  0  0  0  0  2  0  0  0  0  0  0
  -28.3930  -27.0350   22.1410 C   0  0  0  0  0  2  0  0  0  0  0  0
  -28.1470  -26.8990   20.6630 O   0  0  0  0  0  0  0  0  0  0  0  0
  -24.4320  -31.7770   23.1920 C   0  0  0  0  0  0  0  0  0  0  0  0
  -27.2100  -27.7620   20.1490 C   0  0  0  0  0  0  0  0  0  0  0  0
  -23.6600  -29.7470   21.5520 C   0  0  0  0  0  3  0  0  0  0  0  0
  -25.0040  -29.3880   19.7160 C   0  0  0  0  0  0  0  0  0  0  0  0
  -25.8770  -31.0090   21.4080 C   0  0  0  0  0  2  0  0  0  0  0  0
  -26.0860  -29.8630   20.4570 C   0  0  0  0  0  0  0  0  0  0  0  0
  -27.2360  -29.1010   20.5740 C   0  0  0  0  0  3  0  0  0  0  0  0
  -26.1530  -27.3040   19.3230 C   0  0  0  0  0  3  0  0  0  0  0  0
  -25.0440  -28.1430   19.0730 C   0  0  0  0  0  3  0  0  0  0  0  0
  -23.7330  -30.0510   20.0260 C   0  0  0  0  0  2  0  0  0  0  0  0
  -24.6230  -30.8370   22.1730 N   0  0  0  0  0  0  0  0  0  0  0  0
  -23.3160  -32.0480   23.6580 O   0  0  0  0  0  0  0  0  0  0  0  0
  -23.8740  -27.9360   21.9260 C   0  0  0  0  0  0  0  0  0  0  0  0
  -22.5330  -26.7550   22.5590 N   0  0  0  0  0  0  0  0  0  0  0  0
  -25.0050  -27.8810   22.1860 O   0  0  0  0  0  0  0  0  0  0  0  0
  -22.8710  -25.8380   22.8080 H   0  0  0  0  0  0  0  0  0  0  0  0
  -18.0730  -28.0710   22.9700 C   0  0  0  0  0  0  0  0  0  0  0  0
  -20.7370  -27.0860   23.1510 C   0  0  0  0  0  3  0  0  0  0  0  0
  -20.0700  -25.9500   22.5470 C   0  0  0  0  0  2  0  0  0  0  0  0
  -18.9470  -26.2340   21.5750 C   0  0  0  0  0  2  0  0  0  0  0  0
  -17.7710  -26.7620   22.3310 C   0  0  0  0  0  2  0  0  0  0  0  0
  -19.4600  -28.4160   23.2530 C   0  0  0  0  0  0  0  0  0  0  0  0
  -19.3940  -29.8190   23.7570 C   0  0  0  0  0  3  0  0  0  0  0  0
  -18.1990  -30.6170   23.9830 C   0  0  0  0  0  3  0  0  0  0  0  0
  -16.9120  -30.1100   23.7470 C   0  0  0  0  0  3  0  0  0  0  0  0
  -16.8790  -28.8220   23.2210 C   0  0  0  0  0  3  0  0  0  0  0  0
  -25.6590  -32.5230   23.8940 C   0  0  0  0  0  3  0  0  0  0  0  0
  -25.3550  -33.9370   24.1870 N   0  0  0  0  0  0  0  0  0  0  0  0
  -25.8550  -34.9960   23.5280 C   0  0  0  0  0  0  0  0  0  0  0  0
  -26.6180  -34.8870   22.5630 O   0  0  0  0  0  0  0  0  0  0  0  0
  -24.6810  -34.1010   24.9210 H   0  0  0  0  0  0  0  0  0  0  0  0
  -24.2100  -36.8620   23.1620 C   0  0  0  0  0  1  0  0  0  0  0  0
  -25.4190  -36.4020   23.9930 C   0  0  0  0  0  3  0  0  0  0  0  0
  -27.5570  -37.2230   24.8880 C   0  0  0  0  0  1  0  0  0  0  0  0
  -26.4900  -37.4220   23.9110 N   0  0  0  0  0  0  0  0  0  0  0  0
  -26.1100  -38.3540   24.0390 H   0  0  0  0  0  0  0  0  0  0  0  0
  -26.1300  -31.8140   25.2270 C   0  0  1  0  0  0  0  0  0  0  0  0
  -24.9740  -31.5580   26.2230 C   0  0  0  0  0  1  0  0  0  0  0  0
  -26.7420  -30.4630   24.8850 C   0  0  0  0  0  1  0  0  0  0  0  0
  -27.2450  -32.5990   25.9550 C   0  0  0  0  0  1  0  0  0  0  0  0
  -26.3040  -21.6260   21.0320 C   0  0  0  0  0 15  0  0  0  0  0  0
  -28.6080  -17.6340   20.3890 C   0  0  0  0  0  2  0  0  0  0  0  0
  -29.8860  -14.8830   19.2990 C   0  0  0  0  0  2  0  0  0  0  0  0
  -29.5310  -13.6500   18.2580 C   0  0  0  0  0  2  0  0  0  0  0  0
  -28.4300  -12.7180   18.7500 C   0  0  0  0  0  2  0  0  0  0  0  0
  -27.5950  -13.6470   19.6220 C   0  0  0  0  0  3  0  0  0  0  0  0
  -28.3010  -14.5700   20.7030 C   0  0  0  0  0  2  0  0  0  0  0  0
  -28.7590  -15.9220   20.0760 N   0  0  0  0  0  0  0  0  0  0  0  0
  -29.9170  -17.5120   20.1810 O   0  0  0  0  0  1  0  0  0  0  0  0
  -27.3990  -19.3200   20.7360 N   0  0  0  0  0  1  0  0  0  0  0  0
  -28.2900  -19.7900   20.8450 H   0  0  0  0  0  0  0  0  0  0  0  0
  -25.3260  -13.9350   20.4550 C   0  0  0  0  0  0  0  0  0  0  0  0
  -24.3460  -13.0990   20.8650 C   0  0  0  0  0  0  0  0  0  0  0  0
  -24.8680  -11.7720   20.7460 C   0  0  0  0  0  0  0  0  0  0  0  0
  -26.3800  -13.1210   20.1350 N   0  0  0  0  0  0  0  0  0  0  0  0
  -26.1420  -11.8010   20.3460 N   0  0  0  0  0  0  0  0  0  0  0  0
  -24.1890  -10.4870   20.9290 C   0  0  0  0  0  0  0  0  0  0  0  0
  -24.6310   -9.5400   21.8790 C   0  0  0  0  0  3  0  0  0  0  0  0
  -23.9250   -8.3310   22.0600 C   0  0  0  0  0  3  0  0  0  0  0  0
  -22.7660   -8.0630   21.2910 C   0  0  0  0  0  0  0  0  0  0  0  0
  -22.3450   -9.0000   20.3320 C   0  0  0  0  0  3  0  0  0  0  0  0
  -23.0510  -10.1990   20.1490 C   0  0  0  0  0  3  0  0  0  0  0  0
  -22.0300   -6.9070   21.3790 O   0  0  0  0  0  0  0  0  0  0  0  0
  -21.8900   -6.2320   22.5640 C   0  0  0  0  0  0  0  0  0  0  0  0
  -21.3430   -6.8480   23.7120 C   0  0  0  0  0  3  0  0  0  0  0  0
  -21.1530   -6.0970   24.8890 C   0  0  0  0  0  3  0  0  0  0  0  0
  -21.5020   -4.7330   24.9190 C   0  0  0  0  0  0  0  0  0  0  0  0
  -22.0420   -4.1180   23.7750 C   0  0  0  0  0  3  0  0  0  0  0  0
  -22.2330   -4.8660   22.6010 C   0  0  0  0  0  0  0  0  0  0  0  0
  -22.7350   -4.2640   21.4960 F   0  0  0  0  0  0  0  0  0  0  0  0
  -21.3120   -4.0100   26.0470 F   0  0  0  0  0  0  0  0  0  0  0  0
  -22.9680  -13.5380   21.2380 C   0  0  0  0  0  0  0  0  0  0  0  0
  -22.3260  -12.8210   22.1490 N   0  0  0  0  0  0  0  0  0  0  0  0
  -22.4850  -14.5660   20.7620 O   0  0  0  0  0  0  0  0  0  0  0  0
  -22.7360  -11.9930   22.5530 H   0  0  0  0  0  0  0  0  0  0  0  0
  -21.4040  -13.1050   22.4470 H   0  0  0  0  0  0  0  0  0  0  0  0
  -25.4070  -15.3200   20.3010 N   0  0  0  0  0  0  0  0  0  0  0  0
  -24.6180  -15.9370   20.4510 H   0  0  0  0  0  0  0  0  0  0  0  0
  -26.2120  -15.7850   19.9020 H   0  0  0  0  0  0  0  0  0  0  0  0
  4 11  1  0
  6  8  1  0
  6  1  2  0
  7  9  1  0
  7 10  1  0
 12 11  1  0
 13 12  1  0
 14 13  1  0
 15 14  1  0
 16 27  2  0
 17 22  1  0
 17 15  1  0
 18 28  1  0
 18 26  1  0
 19 25  1  0
 19 21  1  0
 20 26  1  0
 21 22  2  0
 21 20  1  0
 23 17  2  0
 24 23  1  0
 24 19  2  0
 25 18  1  0
 26 16  1  0
 28 30  2  0
 28 29  1  0
 29 31  1  0
 32 41  2  0
 32 37  1  0
 33 29  1  0
 33 37  1  0
 34 33  1  0
 35 36  1  0
 35 34  1  0
 36 32  1  0
 37 38  2  0
 38 39  1  0
 40 39  2  0
 41 40  1  0
 42 16  1  0
 42 43  1  0
 42 52  1  0
 43 46  1  0
 44 48  1  0
 44 43  1  0
 45 44  2  0
 48 47  1  0
 50 48  1  0
 50 51  1  0
 50 49  1  0
 52 55  1  1
 52 53  1  0
 54 52  1  0
 58 63  1  0
 59 60  1  0
 59 58  1  0
 61 60  1  0
 61 70  1  0
 61 62  1  0
 63 57  1  0
 63 62  1  0
 64 57  1  0
 65 66  1  0
 67 68  2  0
 68 87  1  0
 69 68  1  0
 69 72  1  0
 70 71  1  0
 70 67  1  0
 71 69  2  0
 72 73  1  0
 73 74  2  0
 75 78  1  0
 75 74  1  0
 76 75  2  0
 77 76  1  0
 77 72  2  0
 78 79  1  0
 79 84  2  0
 79 80  1  0
 80 81  2  0
 81 82  1  0
 82 86  1  0
 83 82  2  0
 84 83  1  0
 85 84  1  0
 87 88  1  0
 88 91  1  0
 88 90  1  0
 89 87  2  0
 92 93  1  0
 92 67  1  0
 94 92  1  0
M  ISO  4  14 101  15 101  57 100  65 100
M  END
>  <TORSDO>  (84) 
F 21

>  <SCORE>  (84) 
-12.843

>  <name>  (84) 
84

>  <ligand_id>  (84) 
84

>  <original_smiles>  (84) 
[H]N=C1C([H])([H])C([H])(C([H])([H])N([H])C(=O)N2C([H])([H])C([H])([H])C([H])([H])C([H])(n3nc(-c4c([H])c([H])c(Oc5c([H])c([H])c(F)c([H])c5F)c([H])c4[H])c(C(=O)N([H])[H])c3N([H])[H])C2([H])[H])[N+]([H])([H])C([H])(C([H])([H])C([H])([H])C([H])([H])C([H])([H])Oc2c([H])c([H])c3c(c2[H])C([H])([H])N(C(=O)C([H])(N([H])C(=O)C([H])(N([H])C([H])([H])[H])C([H])([H])[H])C(C([H])([H])[H])(C([H])([H])[H])C([H])([H])[H])C([H])(C(=O)N([H])C2([H])c4c([H])c([H])c([H])c([H])c4C([H])([H])C([H])([H])C2([H])[H])C3([H])[H])C1([H])[H]

>  <smiles>  (84) 
[H]N=C1C([H])([H])C([H])(C([H])([H])N([H])C(=O)N2C([H])([H])C([H])([H])C([H])([H])C([H])(n3nc(-c4c([H])c([H])c(Oc5c([H])c([H])c(F)c([H])c5F)c([H])c4[H])c(C(=O)N([H])[H])c3N([H])[H])C2([H])[H])[N+]([H])([H])C([H])(C([H])([H])C([H])([H])C([H])([H])C([H])([H])Oc2c([H])c([H])c3c(c2[H])C([H])([H])N(C(=O)C([H])(N([H])C(=O)C([H])(N([H])C([H])([H])[H])C([H])([H])[H])C(C([H])([H])[H])(C([H])([H])[H])C([H])([H])[H])C([H])(C(=O)N([H])C2([H])c4c([H])c([H])c([H])c([H])c4C([H])([H])C([H])([H])C2([H])[H])C3([H])[H])C1([H])[H]

$$$$
85:0:0
     RDKit          3D

 91 98  0  0  1  0  0  0  0  0999 V2000
  -28.4910  -22.4040   21.5040 C   0  0  0  0  0  0  0  0  0  0  0  0
  -28.3620  -21.4780   20.5420 N   0  0  0  0  0  0  0  0  0  0  0  0
  -28.7950  -22.1070   22.6620 O   0  0  0  0  0  0  0  0  0  0  0  0
  -28.1030  -21.8020   19.6180 H   0  0  0  0  0  0  0  0  0  0  0  0
  -28.1980  -23.8660   21.1290 C   0  0  0  0  0  2  0  0  0  0  0  0
  -29.1990  -24.8800   21.7330 C   0  0  0  0  0  2  0  0  0  0  0  0
  -28.7450  -26.3490   21.6810 C   0  0  0  0  0  2  0  0  0  0  0  0
  -28.4300  -26.7820   20.3530 O   0  0  0  0  0  0  0  0  0  0  0  0
  -24.6580  -31.9700   23.4200 C   0  0  0  0  0  0  0  0  0  0  0  0
  -27.3130  -27.5800   20.3090 C   0  0  0  0  0  0  0  0  0  0  0  0
  -23.4690  -30.6210   21.7180 C   0  0  0  0  0  3  0  0  0  0  0  0
  -24.9380  -29.1000   20.2860 C   0  0  0  0  0  0  0  0  0  0  0  0
  -25.9990  -30.9540   21.5860 C   0  0  0  0  0  2  0  0  0  0  0  0
  -26.0820  -29.5990   20.9220 C   0  0  0  0  0  0  0  0  0  0  0  0
  -27.2740  -28.8440   20.9380 C   0  0  0  0  0  3  0  0  0  0  0  0
  -26.1670  -27.0960   19.6520 C   0  0  0  0  0  3  0  0  0  0  0  0
  -24.9750  -27.8460   19.6460 C   0  0  0  0  0  3  0  0  0  0  0  0
  -23.7000  -29.9680   20.3260 C   0  0  0  0  0  2  0  0  0  0  0  0
  -24.7250  -31.1950   22.3010 N   0  0  0  0  0  0  0  0  0  0  0  0
  -23.5690  -32.2450   23.9440 O   0  0  0  0  0  0  0  0  0  0  0  0
  -22.7830  -29.5880   22.6410 C   0  0  0  0  0  0  0  0  0  0  0  0
  -21.4710  -29.3860   22.4420 N   0  0  0  0  0  0  0  0  0  0  0  0
  -23.4310  -28.9750   23.4930 O   0  0  0  0  0  0  0  0  0  0  0  0
  -21.0100  -29.9370   21.7330 H   0  0  0  0  0  0  0  0  0  0  0  0
  -18.1080  -28.1000   22.7090 C   0  0  0  0  0  0  0  0  0  0  0  0
  -20.6290  -28.4360   23.1660 C   0  0  0  0  0  3  0  0  0  0  0  0
  -20.8140  -27.0000   22.6200 C   0  0  0  0  0  2  0  0  0  0  0  0
  -19.8010  -26.6320   21.5320 C   0  0  0  0  0  2  0  0  0  0  0  0
  -18.3720  -26.7460   22.0690 C   0  0  0  0  0  2  0  0  0  0  0  0
  -19.1690  -28.8990   23.2080 C   0  0  0  0  0  0  0  0  0  0  0  0
  -18.8730  -30.1650   23.7590 C   0  0  0  0  0  3  0  0  0  0  0  0
  -17.5460  -30.6310   23.8210 C   0  0  0  0  0  3  0  0  0  0  0  0
  -16.4980  -29.8290   23.3390 C   0  0  0  0  0  3  0  0  0  0  0  0
  -16.7780  -28.5660   22.7890 C   0  0  0  0  0  3  0  0  0  0  0  0
  -25.9400  -32.5680   24.0800 C   0  0  0  0  0  3  0  0  0  0  0  0
  -25.6540  -33.9690   24.4180 N   0  0  0  0  0  0  0  0  0  0  0  0
  -26.0360  -35.0210   23.6820 C   0  0  0  0  0  0  0  0  0  0  0  0
  -26.7400  -34.9130   22.6750 O   0  0  0  0  0  0  0  0  0  0  0  0
  -25.0360  -34.1280   25.2000 H   0  0  0  0  0  0  0  0  0  0  0  0
  -24.3640  -36.8550   23.2790 C   0  0  0  0  0  1  0  0  0  0  0  0
  -25.5630  -36.4140   24.1360 C   0  0  0  0  0  3  0  0  0  0  0  0
  -27.6860  -37.2380   25.0560 C   0  0  0  0  0  1  0  0  0  0  0  0
  -26.6220  -37.4440   24.0750 N   0  0  0  0  0  0  0  0  0  0  0  0
  -26.2320  -38.3710   24.2190 H   0  0  0  0  0  0  0  0  0  0  0  0
  -26.4100  -31.7700   25.3600 C   0  0  1  0  0  0  0  0  0  0  0  0
  -25.2830  -31.5300   26.3910 C   0  0  0  0  0  1  0  0  0  0  0  0
  -26.9870  -30.3890   24.9620 C   0  0  0  0  0  1  0  0  0  0  0  0
  -27.5470  -32.5380   26.0700 C   0  0  0  0  0  1  0  0  0  0  0  0
  -28.3920  -20.0290   20.7550 C   0  0  0  0  0  2  0  0  0  0  0  0
  -29.8090  -19.4200   20.6640 C   0  0  0  0  0  2  0  0  0  0  0  0
  -29.9100  -18.0600   21.3860 C   0  0  0  0  0  2  0  0  0  0  0  0
  -31.3530  -17.5420   21.5400 C   0  0  0  0  0  2  0  0  0  0  0  0
  -31.8590  -16.6390   20.4040 C   0  0  0  0  0  2  0  0  0  0  0  0
  -31.6640  -14.2760   19.7240 C   0  0  0  0  0  0  0  0  0  0  0  0
  -31.2330  -11.9620   18.9960 C   0  0  0  0  0  2  0  0  0  0  0  0
  -30.2770  -11.9450   17.7900 C   0  0  0  0  0  2  0  0  0  0  0  0
  -28.8070  -11.9710   18.2520 C   0  0  0  0  0  2  0  0  0  0  0  0
  -28.5280  -13.0560   19.3260 C   0  0  0  0  0  3  0  0  0  0  0  0
  -29.5960  -13.0220   20.4420 C   0  0  0  0  0  2  0  0  0  0  0  0
  -30.9200  -13.1430   19.8100 N   0  0  0  0  0  0  0  0  0  0  0  0
  -32.7170  -14.3460   19.0810 O   0  0  0  0  0  0  0  0  0  0  0  0
  -31.1760  -15.3460   20.3610 N   0  0  0  0  0  0  0  0  0  0  0  0
  -30.2910  -15.2450   20.8370 H   0  0  0  0  0  0  0  0  0  0  0  0
  -26.2490  -13.9270   20.1450 C   0  0  0  0  0  0  0  0  0  0  0  0
  -25.1190  -13.2780   20.5670 C   0  0  0  0  0  0  0  0  0  0  0  0
  -25.4240  -11.8830   20.5230 C   0  0  0  0  0  0  0  0  0  0  0  0
  -27.1770  -12.9340   19.8690 N   0  0  0  0  0  0  0  0  0  0  0  0
  -26.6850  -11.6990   20.1510 N   0  0  0  0  0  0  0  0  0  0  0  0
  -24.5720  -10.7090   20.7580 C   0  0  0  0  0  0  0  0  0  0  0  0
  -24.9080   -9.7340   21.7220 C   0  0  0  0  0  3  0  0  0  0  0  0
  -24.0660   -8.6230   21.9430 C   0  0  0  0  0  3  0  0  0  0  0  0
  -22.8720   -8.4790   21.1980 C   0  0  0  0  0  0  0  0  0  0  0  0
  -22.5520   -9.4400   20.2220 C   0  0  0  0  0  3  0  0  0  0  0  0
  -23.3950  -10.5430   20.0010 C   0  0  0  0  0  3  0  0  0  0  0  0
  -22.0050   -7.4210   21.3260 O   0  0  0  0  0  0  0  0  0  0  0  0
  -21.8410   -6.7640   22.5200 C   0  0  0  0  0  0  0  0  0  0  0  0
  -21.4340   -7.4380   23.6910 C   0  0  0  0  0  3  0  0  0  0  0  0
  -21.2100   -6.7130   24.8780 C   0  0  0  0  0  3  0  0  0  0  0  0
  -21.3840   -5.3160   24.8950 C   0  0  0  0  0  0  0  0  0  0  0  0
  -21.7840   -4.6430   23.7280 C   0  0  0  0  0  3  0  0  0  0  0  0
  -22.0090   -5.3640   22.5430 C   0  0  0  0  0  0  0  0  0  0  0  0
  -22.3740   -4.7070   21.4150 F   0  0  0  0  0  0  0  0  0  0  0  0
  -21.1610   -4.6190   26.0330 F   0  0  0  0  0  0  0  0  0  0  0  0
  -23.7980  -13.9080   20.9020 C   0  0  0  0  0  0  0  0  0  0  0  0
  -23.0500  -13.3140   21.8260 N   0  0  0  0  0  0  0  0  0  0  0  0
  -23.4410  -14.9620   20.3770 O   0  0  0  0  0  0  0  0  0  0  0  0
  -23.3480  -12.4610   22.2770 H   0  0  0  0  0  0  0  0  0  0  0  0
  -22.1630  -13.7200   22.0850 H   0  0  0  0  0  0  0  0  0  0  0  0
  -26.5590  -15.2700   19.9540 N   0  0  0  0  0  0  0  0  0  0  0  0
  -25.8910  -16.0120   20.1290 H   0  0  0  0  0  0  0  0  0  0  0  0
  -27.4440  -15.6100   19.5970 H   0  0  0  0  0  0  0  0  0  0  0  0
  1  3  2  0
  2 49  1  0
  2  1  1  0
  4  2  1  0
  5  1  1  0
  5  6  1  0
  7  6  1  0
  8  7  1  0
  9 20  2  0
 10  8  1  0
 10 15  1  0
 11 19  1  0
 11 21  1  0
 12 18  1  0
 12 14  1  0
 13 19  1  0
 14 15  2  0
 14 13  1  0
 16 10  2  0
 17 16  1  0
 17 12  2  0
 18 11  1  0
 19  9  1  0
 21 23  2  0
 22 21  1  0
 24 22  1  0
 25 34  2  0
 25 30  1  0
 26 22  1  0
 26 30  1  0
 27 26  1  0
 28 29  1  0
 28 27  1  0
 29 25  1  0
 30 31  2  0
 31 32  1  0
 33 32  2  0
 34 33  1  0
 35  9  1  0
 35 36  1  0
 35 45  1  0
 36 39  1  0
 37 41  1  0
 37 36  1  0
 38 37  2  0
 41 40  1  0
 43 41  1  0
 43 44  1  0
 43 42  1  0
 45 48  1  1
 45 46  1  0
 47 45  1  0
 50 49  1  0
 50 51  1  0
 51 52  1  0
 53 52  1  0
 54 60  1  0
 54 62  1  0
 55 60  1  0
 56 57  1  0
 56 55  1  0
 58 57  1  0
 58 67  1  0
 58 59  1  0
 60 59  1  0
 61 54  2  0
 62 53  1  0
 62 63  1  0
 64 65  2  0
 65 84  1  0
 66 65  1  0
 66 69  1  0
 67 64  1  0
 67 68  1  0
 68 66  2  0
 69 70  1  0
 70 71  2  0
 72 75  1  0
 72 71  1  0
 73 72  2  0
 74 73  1  0
 74 69  2  0
 75 76  1  0
 76 81  2  0
 76 77  1  0
 77 78  2  0
 78 79  1  0
 79 83  1  0
 80 79  2  0
 81 80  1  0
 82 81  1  0
 84 85  1  0
 85 88  1  0
 85 87  1  0
 86 84  2  0
 89 90  1  0
 89 64  1  0
 91 89  1  0
M  ISO  4   7 101   8 101  54 100  62 100
M  END
>  <TORSDO>  (85) 
F 24

>  <SCORE>  (85) 
-11.467

>  <name>  (85) 
85

>  <ligand_id>  (85) 
85

>  <original_smiles>  (85) 
[H]c1c([H])c([H])c2c(c1[H])C([H])([H])C([H])([H])C([H])([H])C2([H])N([H])C(=O)C1([H])N(C(=O)C([H])(N([H])C(=O)C([H])(N([H])C([H])([H])[H])C([H])([H])[H])C(C([H])([H])[H])(C([H])([H])[H])C([H])([H])[H])C([H])([H])c2c([H])c(OC([H])([H])C([H])([H])C([H])([H])C(=O)N([H])C([H])([H])C([H])([H])C([H])([H])C([H])([H])C([H])([H])N([H])C(=O)N3C([H])([H])C([H])([H])C([H])([H])C([H])(n4nc(-c5c([H])c([H])c(Oc6c([H])c([H])c(F)c([H])c6F)c([H])c5[H])c(C(=O)N([H])[H])c4N([H])[H])C3([H])[H])c([H])c([H])c2C1([H])[H]

>  <smiles>  (85) 
[H]c1c([H])c([H])c2c(c1[H])C([H])([H])C([H])([H])C([H])([H])C2([H])N([H])C(=O)C1([H])N(C(=O)C([H])(N([H])C(=O)C([H])(N([H])C([H])([H])[H])C([H])([H])[H])C(C([H])([H])[H])(C([H])([H])[H])C([H])([H])[H])C([H])([H])c2c([H])c(OC([H])([H])C([H])([H])C([H])([H])C(=O)N([H])C([H])([H])C([H])([H])C([H])([H])C([H])([H])C([H])([H])N([H])C(=O)N3C([H])([H])C([H])([H])C([H])([H])C([H])(n4nc(-c5c([H])c([H])c(Oc6c([H])c([H])c(F)c([H])c6F)c([H])c5[H])c(C(=O)N([H])[H])c4N([H])[H])C3([H])[H])c([H])c([H])c2C1([H])[H]

$$$$
86:0:0
     RDKit          3D

 92 99  0  0  1  0  0  0  0  0999 V2000
  -29.0740  -22.1800   21.2910 C   0  0  0  0  0  2  0  0  0  0  0  0
  -30.0350  -21.1300   20.9130 N   0  0  0  0  0  4  0  0  0  0  0  0
  -29.9710  -21.0310   19.9120 H   0  0  0  0  0  0  0  0  0  0  0  0
  -30.9640  -21.4530   21.1300 H   0  0  0  0  0  0  0  0  0  0  0  0
  -29.8230  -19.8150   21.5470 C   0  0  0  0  0  2  0  0  0  0  0  0
  -30.9060  -18.8260   21.0900 C   0  0  0  0  0  2  0  0  0  0  0  0
  -30.6650  -17.3880   21.5640 C   0  0  0  0  0  2  0  0  0  0  0  0
  -31.8520  -16.4810   21.2050 C   0  0  0  0  0  2  0  0  0  0  0  0
  -31.6910  -15.0240   21.6630 C   0  0  0  0  0  2  0  0  0  0  0  0
  -30.4560  -13.9990   19.7460 C   0  0  0  0  0  0  0  0  0  0  0  0
  -29.8250  -12.0320   18.4130 C   0  0  0  0  0  2  0  0  0  0  0  0
  -28.7060  -12.2590   17.3870 C   0  0  0  0  0  2  0  0  0  0  0  0
  -27.3300  -12.0710   18.0460 C   0  0  0  0  0  2  0  0  0  0  0  0
  -27.1810  -12.8970   19.3480 C   0  0  0  0  0  3  0  0  0  0  0  0
  -28.3870  -12.6830   20.2890 C   0  0  0  0  0  2  0  0  0  0  0  0
  -29.6320  -12.9460   19.5460 N   0  0  0  0  0  0  0  0  0  0  0  0
  -31.2240  -14.4450   18.8870 O   0  0  0  0  0  0  0  0  0  0  0  0
  -30.5650  -14.3320   21.0380 N   0  0  0  0  0  0  0  0  0  0  0  0
  -29.9230  -13.8620   21.6600 H   0  0  0  0  0  0  0  0  0  0  0  0
  -24.9130  -13.4670   20.4280 C   0  0  0  0  0  0  0  0  0  0  0  0
  -23.9170  -12.6770   20.9350 C   0  0  0  0  0  0  0  0  0  0  0  0
  -24.3760  -11.3300   20.7990 C   0  0  0  0  0  0  0  0  0  0  0  0
  -25.9150  -12.6020   20.0190 N   0  0  0  0  0  0  0  0  0  0  0  0
  -25.6030  -11.3110   20.2980 N   0  0  0  0  0  0  0  0  0  0  0  0
  -23.6940  -10.0560   21.0650 C   0  0  0  0  0  0  0  0  0  0  0  0
  -24.2220   -9.1120   21.9740 C   0  0  0  0  0  3  0  0  0  0  0  0
  -23.5410   -7.9020   22.2270 C   0  0  0  0  0  3  0  0  0  0  0  0
  -22.3170   -7.6260   21.5720 C   0  0  0  0  0  0  0  0  0  0  0  0
  -21.8070   -8.5590   20.6520 C   0  0  0  0  0  3  0  0  0  0  0  0
  -22.4890   -9.7620   20.3980 C   0  0  0  0  0  3  0  0  0  0  0  0
  -21.6000   -6.4660   21.7350 O   0  0  0  0  0  0  0  0  0  0  0  0
  -21.6200   -5.7670   22.9140 C   0  0  0  0  0  0  0  0  0  0  0  0
  -21.2210   -6.3530   24.1350 C   0  0  0  0  0  3  0  0  0  0  0  0
  -21.1900   -5.5780   25.3100 C   0  0  0  0  0  3  0  0  0  0  0  0
  -21.5500   -4.2180   25.2690 C   0  0  0  0  0  0  0  0  0  0  0  0
  -21.9440   -3.6320   24.0530 C   0  0  0  0  0  3  0  0  0  0  0  0
  -21.9750   -4.4030   22.8790 C   0  0  0  0  0  0  0  0  0  0  0  0
  -22.3350   -3.8290   21.7060 F   0  0  0  0  0  0  0  0  0  0  0  0
  -21.5140   -3.4710   26.3970 F   0  0  0  0  0  0  0  0  0  0  0  0
  -22.5750  -13.1330   21.4280 C   0  0  0  0  0  0  0  0  0  0  0  0
  -22.0000  -12.4210   22.3910 N   0  0  0  0  0  0  0  0  0  0  0  0
  -22.0470  -14.1560   20.9940 O   0  0  0  0  0  0  0  0  0  0  0  0
  -22.4430  -11.5920   22.7620 H   0  0  0  0  0  0  0  0  0  0  0  0
  -21.1060  -12.7080   22.7630 H   0  0  0  0  0  0  0  0  0  0  0  0
  -25.0420  -14.8440   20.2630 N   0  0  0  0  0  0  0  0  0  0  0  0
  -24.3030  -15.4930   20.5090 H   0  0  0  0  0  0  0  0  0  0  0  0
  -25.8390  -15.2960   19.8320 H   0  0  0  0  0  0  0  0  0  0  0  0
  -29.1710  -23.3290   20.2820 C   0  0  0  0  0  3  0  0  0  0  0  0
  -28.9340  -22.8420   19.0620 F   0  0  0  0  0  0  0  0  0  0  0  0
  -28.2090  -24.4930   20.5600 C   0  0  0  0  0  2  0  0  0  0  0  0
  -28.3720  -25.6250   19.5310 C   0  0  0  0  0  2  0  0  0  0  0  0
  -28.2390  -26.8890   20.1640 O   0  0  0  0  0  0  0  0  0  0  0  0
  -24.4940  -31.9890   23.3430 C   0  0  0  0  0  0  0  0  0  0  0  0
  -27.0260  -27.5370   20.2000 C   0  0  0  0  0  0  0  0  0  0  0  0
  -23.2370  -30.6090   21.7160 C   0  0  0  0  0  3  0  0  0  0  0  0
  -24.6400  -29.0480   20.2720 C   0  0  0  0  0  0  0  0  0  0  0  0
  -25.7610  -30.9340   21.4760 C   0  0  0  0  0  2  0  0  0  0  0  0
  -25.8130  -29.5640   20.8380 C   0  0  0  0  0  0  0  0  0  0  0  0
  -27.0030  -28.8130   20.8000 C   0  0  0  0  0  3  0  0  0  0  0  0
  -25.8280  -27.0140   19.6590 C   0  0  0  0  0  3  0  0  0  0  0  0
  -24.6400  -27.7700   19.6880 C   0  0  0  0  0  3  0  0  0  0  0  0
  -23.4130  -29.9280   20.3330 C   0  0  0  0  0  2  0  0  0  0  0  0
  -24.5160  -31.1910   22.2380 N   0  0  0  0  0  0  0  0  0  0  0  0
  -23.4270  -32.2780   23.9010 O   0  0  0  0  0  0  0  0  0  0  0  0
  -22.5870  -29.5950   22.6860 C   0  0  0  0  0  0  0  0  0  0  0  0
  -21.2690  -29.3870   22.5330 N   0  0  0  0  0  0  0  0  0  0  0  0
  -23.2650  -29.0010   23.5270 O   0  0  0  0  0  0  0  0  0  0  0  0
  -20.7850  -29.9200   21.8250 H   0  0  0  0  0  0  0  0  0  0  0  0
  -17.9200  -28.0960   22.9330 C   0  0  0  0  0  0  0  0  0  0  0  0
  -20.4520  -28.4520   23.3050 C   0  0  0  0  0  3  0  0  0  0  0  0
  -20.6270  -27.0040   22.7910 C   0  0  0  0  0  2  0  0  0  0  0  0
  -19.5840  -26.6040   21.7440 C   0  0  0  0  0  2  0  0  0  0  0  0
  -18.1690  -26.7290   22.3190 C   0  0  0  0  0  2  0  0  0  0  0  0
  -18.9930  -28.9120   23.3800 C   0  0  0  0  0  0  0  0  0  0  0  0
  -18.7080  -30.1900   23.9070 C   0  0  0  0  0  3  0  0  0  0  0  0
  -17.3820  -30.6540   23.9950 C   0  0  0  0  0  3  0  0  0  0  0  0
  -16.3230  -29.8350   23.5660 C   0  0  0  0  0  3  0  0  0  0  0  0
  -16.5920  -28.5590   23.0410 C   0  0  0  0  0  3  0  0  0  0  0  0
  -25.8020  -32.5930   23.9430 C   0  0  0  0  0  3  0  0  0  0  0  0
  -26.3190  -31.8180   25.2180 C   0  0  1  0  0  0  0  0  0  0  0  0
  -25.2300  -31.5860   26.2900 C   0  0  0  0  0  1  0  0  0  0  0  0
  -26.8910  -30.4370   24.8200 C   0  0  0  0  0  1  0  0  0  0  0  0
  -27.4820  -32.6020   25.8740 C   0  0  0  0  0  1  0  0  0  0  0  0
  -25.5310  -34.0010   24.2650 N   0  0  0  0  0  0  0  0  0  0  0  0
  -25.8720  -35.0370   23.4890 C   0  0  0  0  0  0  0  0  0  0  0  0
  -26.5220  -34.9080   22.4480 O   0  0  0  0  0  0  0  0  0  0  0  0
  -24.9610  -34.1780   25.0800 H   0  0  0  0  0  0  0  0  0  0  0  0
  -24.1690  -36.8550   23.1440 C   0  0  0  0  0  1  0  0  0  0  0  0
  -25.4180  -36.4400   23.9380 C   0  0  0  0  0  3  0  0  0  0  0  0
  -27.5820  -37.2970   24.7190 C   0  0  0  0  0  1  0  0  0  0  0  0
  -26.4680  -37.4710   23.7900 N   0  0  0  0  0  0  0  0  0  0  0  0
  -26.0810  -38.4000   23.9270 H   0  0  0  0  0  0  0  0  0  0  0  0
  2  4  1  0
  2  1  1  0
  2  5  1  0
  3  2  1  0
  6  5  1  0
  6  7  1  0
  8  7  1  0
  8  9  1  0
 10 18  1  0
 11 16  1  0
 12 13  1  0
 12 11  1  0
 14 13  1  0
 14 23  1  0
 14 15  1  0
 16 10  1  0
 16 15  1  0
 17 10  2  0
 18 19  1  0
 18  9  1  0
 20 21  2  0
 21 40  1  0
 22 21  1  0
 22 25  1  0
 23 24  1  0
 23 20  1  0
 24 22  2  0
 25 26  1  0
 26 27  2  0
 28 31  1  0
 28 27  1  0
 29 28  2  0
 30 29  1  0
 30 25  2  0
 31 32  1  0
 32 33  1  0
 33 34  2  0
 35 34  1  0
 35 39  1  0
 36 35  2  0
 37 32  2  0
 37 36  1  0
 38 37  1  0
 40 41  1  0
 41 43  1  0
 41 44  1  0
 42 40  2  0
 45 20  1  0
 45 46  1  0
 47 45  1  0
 48 49  1  0
 48 50  1  0
 48  1  1  0
 51 52  1  0
 51 50  1  0
 52 54  1  0
 53 64  2  0
 54 59  1  0
 55 63  1  0
 55 65  1  0
 56 62  1  0
 56 58  1  0
 57 63  1  0
 58 57  1  0
 59 58  2  0
 60 61  1  0
 60 54  2  0
 61 56  2  0
 62 55  1  0
 63 53  1  0
 65 67  2  0
 66 65  1  0
 68 66  1  0
 69 78  2  0
 69 74  1  0
 70 66  1  0
 70 74  1  0
 71 70  1  0
 72 73  1  0
 72 71  1  0
 73 69  1  0
 74 75  2  0
 75 76  1  0
 77 76  2  0
 78 77  1  0
 79 53  1  0
 79 84  1  0
 79 80  1  0
 80 83  1  1
 80 81  1  0
 82 80  1  0
 84 87  1  0
 85 89  1  0
 85 84  1  0
 86 85  2  0
 89 88  1  0
 91 92  1  0
 91 89  1  0
 91 90  1  0
M  ISO  4  10 100  18 100  51 101  52 101
M  END
>  <TORSDO>  (86) 
F 25

>  <SCORE>  (86) 
-10.311

>  <name>  (86) 
86

>  <ligand_id>  (86) 
86

>  <original_smiles>  (86) 
[H]c1c([H])c([H])c2c(c1[H])C([H])([H])C([H])([H])C([H])([H])C2([H])N([H])C(=O)C1([H])N(C(=O)C([H])(N([H])C(=O)C([H])(N([H])C([H])([H])[H])C([H])([H])[H])C(C([H])([H])[H])(C([H])([H])[H])C([H])([H])[H])C([H])([H])c2c([H])c(OC([H])([H])C([H])([H])C([H])(F)C([H])([H])[N+]([H])([H])C([H])([H])C([H])([H])C([H])([H])C([H])([H])C([H])([H])N([H])C(=O)N3C([H])([H])C([H])([H])C([H])([H])C([H])(n4nc(-c5c([H])c([H])c(Oc6c([H])c([H])c(F)c([H])c6F)c([H])c5[H])c(C(=O)N([H])[H])c4N([H])[H])C3([H])[H])c([H])c([H])c2C1([H])[H]

>  <smiles>  (86) 
[H]c1c([H])c([H])c2c(c1[H])C([H])([H])C([H])([H])C([H])([H])C2([H])N([H])C(=O)C1([H])N(C(=O)C([H])(N([H])C(=O)C([H])(N([H])C([H])([H])[H])C([H])([H])[H])C(C([H])([H])[H])(C([H])([H])[H])C([H])([H])[H])C([H])([H])c2c([H])c(OC([H])([H])C([H])([H])C([H])(F)C([H])([H])[N+]([H])([H])C([H])([H])C([H])([H])C([H])([H])C([H])([H])C([H])([H])N([H])C(=O)N3C([H])([H])C([H])([H])C([H])([H])C([H])(n4nc(-c5c([H])c([H])c(Oc6c([H])c([H])c(F)c([H])c6F)c([H])c5[H])c(C(=O)N([H])[H])c4N([H])[H])C3([H])[H])c([H])c([H])c2C1([H])[H]

$$$$
87:0:0
     RDKit          3D

 95104  0  0  1  0  0  0  0  0999 V2000
  -31.0490  -14.8930   20.1100 C   0  0  0  0  0  0  0  0  0  0  0  0
  -30.7000  -12.6430   19.0070 C   0  0  0  0  0  2  0  0  0  0  0  0
  -29.7370  -12.7360   17.8070 C   0  0  0  0  0  2  0  0  0  0  0  0
  -28.2810  -12.5700   18.2780 C   0  0  0  0  0  2  0  0  0  0  0  0
  -27.9600  -13.4270   19.5310 C   0  0  0  0  0  3  0  0  0  0  0  0
  -29.0560  -13.3410   20.6150 C   0  0  0  0  0  2  0  0  0  0  0  0
  -30.3140  -13.7180   19.9660 N   0  0  0  0  0  0  0  0  0  0  0  0
  -32.2540  -14.8080   19.8590 O   0  0  0  0  0  0  0  0  0  0  0  0
  -31.9860  -19.1730   20.2790 C   0  0  0  0  0  2  0  0  0  0  0  0
  -30.6600  -16.9460   18.7360 C   0  0  0  0  0  2  0  0  0  0  0  0
  -32.2660  -19.6200   18.8280 C   0  0  0  0  0  2  0  0  0  0  0  0
  -30.1390  -17.3610   20.9730 C   0  0  0  0  0  3  0  0  0  0  0  0
  -30.2130  -18.4520   18.9020 C   0  0  0  0  0  3  0  0  0  0  0  0
  -30.4660  -18.8690   20.3500 C   0  0  2  0  0  0  0  0  0  0  0  0
  -30.4570  -16.1930   19.9950 N   0  0  0  0  0  0  0  0  0  0  0  0
  -31.0300  -19.3470   18.0700 N   0  0  0  0  0  4  0  0  0  0  0  0
  -31.2100  -18.9810   17.1510 H   0  0  0  0  0  0  0  0  0  0  0  0
  -30.5360  -20.2270   17.9780 H   0  0  0  0  0  0  0  0  0  0  0  0
  -25.6030  -14.0360   20.3120 C   0  0  0  0  0  0  0  0  0  0  0  0
  -24.5360  -13.2770   20.7040 C   0  0  0  0  0  0  0  0  0  0  0  0
  -24.9820  -11.9190   20.6750 C   0  0  0  0  0  0  0  0  0  0  0  0
  -26.6300  -13.1440   20.0620 N   0  0  0  0  0  0  0  0  0  0  0  0
  -26.2690  -11.8650   20.3490 N   0  0  0  0  0  0  0  0  0  0  0  0
  -24.2400  -10.6670   20.8810 C   0  0  0  0  0  0  0  0  0  0  0  0
  -24.6440   -9.7180   21.8460 C   0  0  0  0  0  3  0  0  0  0  0  0
  -23.9010   -8.5340   22.0400 C   0  0  0  0  0  3  0  0  0  0  0  0
  -22.7390   -8.2900   21.2720 C   0  0  0  0  0  0  0  0  0  0  0  0
  -22.3540   -9.2260   20.2960 C   0  0  0  0  0  3  0  0  0  0  0  0
  -23.0970  -10.4020   20.1010 C   0  0  0  0  0  3  0  0  0  0  0  0
  -21.9690   -7.1550   21.3750 O   0  0  0  0  0  0  0  0  0  0  0  0
  -21.8750   -6.4500   22.5490 C   0  0  0  0  0  0  0  0  0  0  0  0
  -21.3700   -7.0360   23.7300 C   0  0  0  0  0  3  0  0  0  0  0  0
  -21.2290   -6.2600   24.8970 C   0  0  0  0  0  3  0  0  0  0  0  0
  -21.5800   -4.8960   24.8810 C   0  0  0  0  0  0  0  0  0  0  0  0
  -22.0750   -4.3080   23.7050 C   0  0  0  0  0  3  0  0  0  0  0  0
  -22.2200   -5.0830   22.5410 C   0  0  0  0  0  0  0  0  0  0  0  0
  -22.6790   -4.5080   21.4020 F   0  0  0  0  0  0  0  0  0  0  0  0
  -21.4360   -4.1460   26.0000 F   0  0  0  0  0  0  0  0  0  0  0  0
  -23.1490  -13.7730   20.9890 C   0  0  0  0  0  0  0  0  0  0  0  0
  -22.4340  -13.1140   21.8940 N   0  0  0  0  0  0  0  0  0  0  0  0
  -22.7060  -14.7820   20.4410 O   0  0  0  0  0  0  0  0  0  0  0  0
  -22.8020  -12.2990   22.3610 H   0  0  0  0  0  0  0  0  0  0  0  0
  -21.5030  -13.4310   22.1250 H   0  0  0  0  0  0  0  0  0  0  0  0
  -25.7860  -15.4040   20.1240 N   0  0  0  0  0  0  0  0  0  0  0  0
  -25.0320  -16.0730   20.2440 H   0  0  0  0  0  0  0  0  0  0  0  0
  -26.6360  -15.8230   19.7720 H   0  0  0  0  0  0  0  0  0  0  0  0
  -30.7100  -17.1720   22.3910 C   0  0  0  0  0  0  0  0  0  0  0  0
  -30.2820  -18.1830   23.4460 C   0  0  0  0  0  1  0  0  0  0  0  0
  -31.4930  -16.2700   22.6980 O   0  0  0  0  0  0  0  0  0  0  0  0
  -29.7250  -20.2960   20.9110 C   0  0  0  0  0  2  0  0  0  0  0  0
  -29.6680  -21.7840   20.1780 C   0  0  0  0  0  0  0  0  0  0  0  0
  -29.8660  -21.7900   18.9600 O   0  0  0  0  0  0  0  0  0  0  0  0
  -29.3900  -23.2470   20.9090 C   0  0  0  0  0  3  0  0  0  0  0  0
  -28.6930  -24.6060   20.1910 C   0  0  0  0  0  3  0  0  0  0  0  0
  -28.6820  -26.0900   20.6960 O   0  0  0  0  0  0  0  0  0  0  0  0
  -24.6560  -31.6970   23.2830 C   0  0  0  0  0  0  0  0  0  0  0  0
  -27.6060  -27.0360   20.5020 C   0  0  0  0  0  0  0  0  0  0  0  0
  -23.6360  -30.2590   21.5600 C   0  0  0  0  0  3  0  0  0  0  0  0
  -25.2410  -28.7210   20.2670 C   0  0  0  0  0  0  0  0  0  0  0  0
  -26.1860  -30.5920   21.6080 C   0  0  0  0  0  2  0  0  0  0  0  0
  -26.3490  -29.1970   20.9770 C   0  0  0  0  0  0  0  0  0  0  0  0
  -27.5290  -28.3670   21.0840 C   0  0  0  0  0  3  0  0  0  0  0  0
  -26.4770  -26.6730   19.7320 C   0  0  0  0  0  3  0  0  0  0  0  0
  -25.3190  -27.4750   19.6310 C   0  0  0  0  0  3  0  0  0  0  0  0
  -23.9880  -29.5830   20.2090 C   0  0  0  0  0  2  0  0  0  0  0  0
  -24.8400  -30.8720   22.2070 N   0  0  0  0  0  0  0  0  0  0  0  0
  -23.5220  -31.9550   23.7160 O   0  0  0  0  0  0  0  0  0  0  0  0
  -22.9080  -29.2380   22.4710 C   0  0  0  0  0  0  0  0  0  0  0  0
  -21.5870  -29.0770   22.2790 N   0  0  0  0  0  0  0  0  0  0  0  0
  -23.5370  -28.5950   23.3150 O   0  0  0  0  0  0  0  0  0  0  0  0
  -21.1380  -29.6460   21.5750 H   0  0  0  0  0  0  0  0  0  0  0  0
  -18.1670  -27.9430   22.6580 C   0  0  0  0  0  0  0  0  0  0  0  0
  -20.7250  -28.1320   22.9930 C   0  0  0  0  0  3  0  0  0  0  0  0
  -20.8060  -26.7210   22.3660 C   0  0  0  0  0  2  0  0  0  0  0  0
  -19.7210  -26.4650   21.3160 C   0  0  0  0  0  2  0  0  0  0  0  0
  -18.3270  -26.6180   21.9320 C   0  0  0  0  0  2  0  0  0  0  0  0
  -19.2930  -28.6610   23.1430 C   0  0  0  0  0  0  0  0  0  0  0  0
  -19.0880  -29.9030   23.7810 C   0  0  0  0  0  3  0  0  0  0  0  0
  -17.7920  -30.4260   23.9420 C   0  0  0  0  0  3  0  0  0  0  0  0
  -16.6800  -29.7050   23.4730 C   0  0  0  0  0  3  0  0  0  0  0  0
  -16.8690  -28.4660   22.8360 C   0  0  0  0  0  3  0  0  0  0  0  0
  -25.8600  -32.3730   24.0080 C   0  0  0  0  0  3  0  0  0  0  0  0
  -26.2560  -31.6490   25.3530 C   0  0  1  0  0  0  0  0  0  0  0  0
  -25.0660  -31.4200   26.3130 C   0  0  0  0  0  1  0  0  0  0  0  0
  -26.9020  -30.2720   25.0720 C   0  0  0  0  0  1  0  0  0  0  0  0
  -27.3190  -32.4870   26.1050 C   0  0  0  0  0  1  0  0  0  0  0  0
  -25.4960  -33.7750   24.2700 N   0  0  0  0  0  0  0  0  0  0  0  0
  -25.8580  -34.8150   23.5060 C   0  0  0  0  0  0  0  0  0  0  0  0
  -26.6020  -34.6960   22.5290 O   0  0  0  0  0  0  0  0  0  0  0  0
  -24.8420  -33.9390   25.0220 H   0  0  0  0  0  0  0  0  0  0  0  0
  -24.1060  -36.5500   23.0000 C   0  0  0  0  0  1  0  0  0  0  0  0
  -25.3150  -36.2070   23.8860 C   0  0  0  0  0  3  0  0  0  0  0  0
  -27.3750  -37.1890   24.7920 C   0  0  0  0  0  1  0  0  0  0  0  0
  -26.3250  -37.2830   23.7810 N   0  0  0  0  0  0  0  0  0  0  0  0
  -25.8870  -38.1960   23.8630 H   0  0  0  0  0  0  0  0  0  0  0  0
  2  7  1  0
  3  4  1  0
  3  2  1  0
  5  4  1  0
  5 22  1  0
  5  6  1  0
  7  1  1  0
  7  6  1  0
  8  1  2  0
  9 14  1  0
 10 15  1  0
 11  9  1  0
 12 47  1  0
 13 10  1  0
 13 14  1  0
 14 50  1  1
 14 12  1  0
 15  1  1  0
 15 12  1  0
 16 11  1  0
 16 13  1  0
 17 16  1  0
 18 16  1  0
 19 20  2  0
 20 39  1  0
 21 20  1  0
 21 24  1  0
 22 19  1  0
 22 23  1  0
 23 21  2  0
 24 25  1  0
 25 26  2  0
 27 30  1  0
 27 26  1  0
 28 27  2  0
 29 28  1  0
 29 24  2  0
 30 31  1  0
 31 32  1  0
 32 33  2  0
 34 33  1  0
 34 38  1  0
 35 34  2  0
 36 31  2  0
 36 35  1  0
 37 36  1  0
 39 40  1  0
 40 43  1  0
 40 42  1  0
 41 39  2  0
 44 45  1  0
 44 19  1  0
 46 44  1  0
 47 49  2  0
 47 48  1  0
 51 53  1  0
 51 50  1  0
 52 51  2  0
 54 55  1  0
 54 53  2  0
 56 67  2  0
 57 55  1  0
 57 62  1  0
 58 66  1  0
 58 68  1  0
 59 61  1  0
 60 66  1  0
 61 62  2  0
 61 60  1  0
 63 57  2  0
 64 63  1  0
 64 59  2  0
 65 59  1  0
 65 58  1  0
 66 56  1  0
 68 70  2  0
 69 68  1  0
 71 69  1  0
 72 81  2  0
 72 77  1  0
 73 69  1  0
 73 77  1  0
 74 73  1  0
 75 76  1  0
 75 74  1  0
 76 72  1  0
 77 78  2  0
 78 79  1  0
 80 79  2  0
 81 80  1  0
 82 56  1  0
 82 87  1  0
 82 83  1  0
 83 86  1  1
 83 84  1  0
 85 83  1  0
 87 90  1  0
 88 92  1  0
 88 87  1  0
 89 88  2  0
 92 91  1  0
 94 95  1  0
 94 92  1  0
 94 93  1  0
M  ISO  4   1 100  15 100  54 101  55 101
M  END
>  <TORSDO>  (87) 
F 20

>  <SCORE>  (87) 
-12.921

>  <name>  (87) 
87

>  <ligand_id>  (87) 
87

>  <original_smiles>  (87) 
[H]c1c([H])c([H])c2c(c1[H])C([H])([H])C([H])([H])C([H])([H])C2([H])N([H])C(=O)C1([H])N(C(=O)C([H])(N([H])C(=O)C([H])(N([H])C([H])([H])[H])C([H])([H])[H])C(C([H])([H])[H])(C([H])([H])[H])C([H])([H])[H])C([H])([H])c2c([H])c(OC([H])([H])C([H])([H])C(=O)C([H])([H])C34C([H])(C(=O)C([H])([H])[H])N(C(=O)N5C([H])([H])C([H])([H])C([H])([H])C([H])(n6nc(-c7c([H])c([H])c(Oc8c([H])c([H])c(F)c([H])c8F)c([H])c7[H])c(C(=O)N([H])[H])c6N([H])[H])C5([H])[H])C([H])([H])C3([H])[N+]([H])([H])C([H])([H])C4([H])[H])c([H])c([H])c2C1([H])[H]

>  <smiles>  (87) 
[H]c1c([H])c([H])c2c(c1[H])C([H])([H])C([H])([H])C([H])([H])C2([H])N([H])C(=O)C1([H])N(C(=O)C([H])(N([H])C(=O)C([H])(N([H])C([H])([H])[H])C([H])([H])[H])C(C([H])([H])[H])(C([H])([H])[H])C([H])([H])[H])C([H])([H])c2c([H])c(OC([H])([H])C([H])([H])C(=O)C([H])([H])C34C([H])(C(=O)C([H])([H])[H])N(C(=O)N5C([H])([H])C([H])([H])C([H])([H])C([H])(n6nc(-c7c([H])c([H])c(Oc8c([H])c([H])c(F)c([H])c8F)c([H])c7[H])c(C(=O)N([H])[H])c6N([H])[H])C5([H])[H])C([H])([H])C3([H])[N+]([H])([H])C([H])([H])C4([H])[H])c([H])c([H])c2C1([H])[H]

$$$$
88:0:0
     RDKit          3D

 96104  0  0  1  0  0  0  0  0999 V2000
  -29.9980  -20.0480   21.5440 C   0  0  0  0  0  0  0  0  0  0  0  0
  -29.1760  -21.0980   21.6540 N   0  0  0  0  0  0  0  0  0  0  0  0
  -31.0670  -20.1020   20.9340 O   0  0  0  0  0  0  0  0  0  0  0  0
  -28.3160  -20.9590   22.1700 H   0  0  0  0  0  0  0  0  0  0  0  0
  -29.5100  -18.7070   22.1060 C   0  0  0  0  0  2  0  0  0  0  0  0
  -28.4060  -17.9570   19.8530 C   0  0  0  0  0  2  0  0  0  0  0  0
  -29.1430  -18.7700   18.7560 C   0  0  0  0  0  2  0  0  0  0  0  0
  -30.9610  -17.1510   19.1120 C   0  0  0  0  0  2  0  0  0  0  0  0
  -29.2820  -17.5630   21.0670 C   0  0  0  0  0  3  0  0  0  0  0  0
  -30.5680  -16.8170   20.5860 C   0  0  0  0  0  3  0  0  0  0  0  0
  -30.6050  -18.5320   18.7630 N   0  0  0  0  0  4  0  0  0  0  0  0
  -31.0180  -19.1270   19.4770 H   0  0  0  0  0  0  0  0  0  0  0  0
  -31.0060  -18.7880   17.8750 H   0  0  0  0  0  0  0  0  0  0  0  0
  -31.0690  -14.3750   20.1950 C   0  0  0  0  0  0  0  0  0  0  0  0
  -30.6670  -12.2940   18.9540 C   0  0  0  0  0  2  0  0  0  0  0  0
  -29.6980  -12.5920   17.7890 C   0  0  0  0  0  2  0  0  0  0  0  0
  -28.2310  -12.4950   18.2550 C   0  0  0  0  0  2  0  0  0  0  0  0
  -27.9620  -13.2910   19.5610 C   0  0  0  0  0  3  0  0  0  0  0  0
  -29.0330  -12.9580   20.6300 C   0  0  0  0  0  2  0  0  0  0  0  0
  -30.3600  -13.2280   20.0450 N   0  0  0  0  0  0  0  0  0  0  0  0
  -32.1750  -14.5740   19.6830 O   0  0  0  0  0  0  0  0  0  0  0  0
  -30.3710  -15.3720   20.7520 N   0  0  0  0  0  0  0  0  0  0  0  0
  -29.4880  -15.0890   21.1500 H   0  0  0  0  0  0  0  0  0  0  0  0
  -25.5800  -13.9590   20.2930 C   0  0  0  0  0  0  0  0  0  0  0  0
  -24.5000  -13.2130   20.6800 C   0  0  0  0  0  0  0  0  0  0  0  0
  -24.9310  -11.8530   20.6490 C   0  0  0  0  0  0  0  0  0  0  0  0
  -26.6060  -13.0540   20.0560 N   0  0  0  0  0  0  0  0  0  0  0  0
  -26.2170  -11.7810   20.3260 N   0  0  0  0  0  0  0  0  0  0  0  0
  -24.1810  -10.6070   20.8540 C   0  0  0  0  0  0  0  0  0  0  0  0
  -24.5710   -9.6650   21.8320 C   0  0  0  0  0  3  0  0  0  0  0  0
  -23.8240   -8.4840   22.0240 C   0  0  0  0  0  3  0  0  0  0  0  0
  -22.6730   -8.2360   21.2390 C   0  0  0  0  0  0  0  0  0  0  0  0
  -22.3040   -9.1660   20.2490 C   0  0  0  0  0  3  0  0  0  0  0  0
  -23.0510  -10.3390   20.0560 C   0  0  0  0  0  3  0  0  0  0  0  0
  -21.9030   -7.1030   21.3380 O   0  0  0  0  0  0  0  0  0  0  0  0
  -21.7560   -6.4320   22.5260 C   0  0  0  0  0  0  0  0  0  0  0  0
  -21.2270   -7.0590   23.6750 C   0  0  0  0  0  3  0  0  0  0  0  0
  -21.0260   -6.3150   24.8550 C   0  0  0  0  0  3  0  0  0  0  0  0
  -21.3470   -4.9450   24.8870 C   0  0  0  0  0  0  0  0  0  0  0  0
  -21.8710   -4.3170   23.7440 C   0  0  0  0  0  3  0  0  0  0  0  0
  -22.0720   -5.0590   22.5660 C   0  0  0  0  0  0  0  0  0  0  0  0
  -22.5560   -4.4450   21.4600 F   0  0  0  0  0  0  0  0  0  0  0  0
  -21.1500   -4.2280   26.0180 F   0  0  0  0  0  0  0  0  0  0  0  0
  -23.1170  -13.7210   20.9700 C   0  0  0  0  0  0  0  0  0  0  0  0
  -22.3910  -13.0460   21.8530 N   0  0  0  0  0  0  0  0  0  0  0  0
  -22.6920  -14.7510   20.4500 O   0  0  0  0  0  0  0  0  0  0  0  0
  -22.7520  -12.2170   22.2990 H   0  0  0  0  0  0  0  0  0  0  0  0
  -21.4620  -13.3660   22.0890 H   0  0  0  0  0  0  0  0  0  0  0  0
  -25.7670  -15.3230   20.1090 N   0  0  0  0  0  0  0  0  0  0  0  0
  -25.0080  -15.9850   20.2250 H   0  0  0  0  0  0  0  0  0  0  0  0
  -26.6120  -15.7480   19.7570 H   0  0  0  0  0  0  0  0  0  0  0  0
  -29.3340  -22.3830   20.9730 C   0  0  0  0  0  2  0  0  0  0  0  0
  -29.3310  -23.5540   21.9700 C   0  0  0  0  0  2  0  0  0  0  0  0
  -29.5370  -24.9360   21.3180 C   0  0  0  0  0  2  0  0  0  0  0  0
  -28.4050  -25.3430   20.3590 C   0  0  0  0  0  2  0  0  0  0  0  0
  -28.5160  -26.7330   20.0450 O   0  0  0  0  0  0  0  0  0  0  0  0
  -24.5900  -31.7450   23.1530 C   0  0  0  0  0  0  0  0  0  0  0  0
  -27.3300  -27.4290   20.0140 C   0  0  0  0  0  0  0  0  0  0  0  0
  -23.4140  -30.3570   21.4750 C   0  0  0  0  0  3  0  0  0  0  0  0
  -24.9010  -28.8680   20.0350 C   0  0  0  0  0  0  0  0  0  0  0  0
  -25.9320  -30.7680   21.2960 C   0  0  0  0  0  2  0  0  0  0  0  0
  -26.0440  -29.4120   20.6330 C   0  0  0  0  0  0  0  0  0  0  0  0
  -27.2630  -28.7010   20.6180 C   0  0  0  0  0  3  0  0  0  0  0  0
  -26.1730  -26.8950   19.4010 C   0  0  0  0  0  3  0  0  0  0  0  0
  -24.9580  -27.6050   19.4160 C   0  0  0  0  0  3  0  0  0  0  0  0
  -23.6410  -29.7010   20.0870 C   0  0  0  0  0  2  0  0  0  0  0  0
  -24.6630  -30.9700   22.0350 N   0  0  0  0  0  0  0  0  0  0  0  0
  -23.5020  -31.9890   23.6960 O   0  0  0  0  0  0  0  0  0  0  0  0
  -22.7760  -29.3100   22.4130 C   0  0  0  0  0  0  0  0  0  0  0  0
  -21.4580  -29.1060   22.2660 N   0  0  0  0  0  0  0  0  0  0  0  0
  -23.4650  -28.6870   23.2260 O   0  0  0  0  0  0  0  0  0  0  0  0
  -20.9630  -29.6730   21.5930 H   0  0  0  0  0  0  0  0  0  0  0  0
  -18.1130  -27.8180   22.6840 C   0  0  0  0  0  0  0  0  0  0  0  0
  -20.6540  -28.1370   23.0070 C   0  0  0  0  0  3  0  0  0  0  0  0
  -20.8060  -26.7190   22.4140 C   0  0  0  0  0  2  0  0  0  0  0  0
  -19.7320  -26.3820   21.3730 C   0  0  0  0  0  2  0  0  0  0  0  0
  -18.3360  -26.4830   21.9940 C   0  0  0  0  0  2  0  0  0  0  0  0
  -19.2020  -28.6000   23.1460 C   0  0  0  0  0  0  0  0  0  0  0  0
  -18.9420  -29.8460   23.7590 C   0  0  0  0  0  3  0  0  0  0  0  0
  -17.6230  -30.3100   23.9090 C   0  0  0  0  0  3  0  0  0  0  0  0
  -16.5460  -29.5280   23.4570 C   0  0  0  0  0  3  0  0  0  0  0  0
  -16.7920  -28.2830   22.8540 C   0  0  0  0  0  3  0  0  0  0  0  0
  -25.8640  -32.3840   23.7910 C   0  0  0  0  0  3  0  0  0  0  0  0
  -25.5340  -33.7740   24.1330 N   0  0  0  0  0  0  0  0  0  0  0  0
  -25.8630  -34.8380   23.3890 C   0  0  0  0  0  0  0  0  0  0  0  0
  -26.5440  -34.7540   22.3640 O   0  0  0  0  0  0  0  0  0  0  0  0
  -24.9310  -33.9130   24.9300 H   0  0  0  0  0  0  0  0  0  0  0  0
  -24.1180  -36.6160   23.0290 C   0  0  0  0  0  1  0  0  0  0  0  0
  -25.3520  -36.2160   23.8530 C   0  0  0  0  0  3  0  0  0  0  0  0
  -27.4610  -37.1220   24.7270 C   0  0  0  0  0  1  0  0  0  0  0  0
  -26.3730  -37.2830   23.7660 N   0  0  0  0  0  0  0  0  0  0  0  0
  -25.9520  -38.1970   23.9110 H   0  0  0  0  0  0  0  0  0  0  0  0
  -26.3820  -31.6050   25.0610 C   0  0  1  0  0  0  0  0  0  0  0  0
  -25.2870  -31.3350   26.1200 C   0  0  0  0  0  1  0  0  0  0  0  0
  -26.9900  -30.2440   24.6530 C   0  0  0  0  0  1  0  0  0  0  0  0
  -27.5100  -32.4090   25.7460 C   0  0  0  0  0  1  0  0  0  0  0  0
  1  2  1  0
  1  5  1  0
  2  4  1  0
  3  1  2  0
  6  9  1  0
  7 11  1  0
  7  6  1  0
  8 10  1  0
  9  5  1  0
 10 22  1  0
 10  9  1  0
 11  8  1  0
 11 12  1  0
 13 11  1  0
 14 22  1  0
 15 20  1  0
 16 17  1  0
 16 15  1  0
 18 17  1  0
 18 27  1  0
 18 19  1  0
 20 14  1  0
 20 19  1  0
 21 14  2  0
 22 23  1  0
 24 25  2  0
 25 44  1  0
 26 25  1  0
 26 29  1  0
 27 24  1  0
 27 28  1  0
 28 26  2  0
 29 30  1  0
 30 31  2  0
 32 35  1  0
 32 31  1  0
 33 32  2  0
 34 33  1  0
 34 29  2  0
 35 36  1  0
 36 41  2  0
 36 37  1  0
 37 38  2  0
 38 39  1  0
 39 43  1  0
 40 39  2  0
 41 40  1  0
 42 41  1  0
 44 45  1  0
 45 48  1  0
 45 47  1  0
 46 44  2  0
 49 50  1  0
 49 24  1  0
 51 49  1  0
 52  2  1  0
 52 53  1  0
 54 53  1  0
 55 54  1  0
 56 55  1  0
 57 68  2  0
 58 56  1  0
 58 63  1  0
 59 67  1  0
 59 69  1  0
 60 66  1  0
 60 62  1  0
 61 67  1  0
 62 61  1  0
 63 62  2  0
 64 65  1  0
 64 58  2  0
 65 60  2  0
 66 59  1  0
 67 57  1  0
 69 71  2  0
 70 69  1  0
 72 70  1  0
 73 82  2  0
 73 78  1  0
 74 70  1  0
 74 78  1  0
 75 74  1  0
 76 77  1  0
 76 75  1  0
 77 73  1  0
 78 79  2  0
 79 80  1  0
 81 80  2  0
 82 81  1  0
 83 57  1  0
 83 84  1  0
 83 93  1  0
 84 87  1  0
 85 89  1  0
 85 84  1  0
 86 85  2  0
 89 88  1  0
 91 89  1  0
 91 92  1  0
 91 90  1  0
 93 96  1  1
 93 94  1  0
 95 93  1  0
M  ISO  4  14 100  22 100  55 101  56 101
M  END
>  <TORSDO>  (88) 
F 22

>  <SCORE>  (88) 
-12.014

>  <name>  (88) 
88

>  <ligand_id>  (88) 
88

>  <original_smiles>  (88) 
[H]c1c([H])c([H])c2c(c1[H])C([H])([H])C([H])([H])C([H])([H])C2([H])N([H])C(=O)C1([H])N(C(=O)C([H])(N([H])C(=O)C([H])(N([H])C([H])([H])[H])C([H])([H])[H])C(C([H])([H])[H])(C([H])([H])[H])C([H])([H])[H])C([H])([H])c2c([H])c(OC([H])([H])C([H])([H])C([H])([H])C([H])([H])N([H])C(=O)C([H])([H])C3([H])C([H])([H])C([H])([H])[N+]([H])([H])C([H])([H])C3([H])N([H])C(=O)N3C([H])([H])C([H])([H])C([H])([H])C([H])(n4nc(-c5c([H])c([H])c(Oc6c([H])c([H])c(F)c([H])c6F)c([H])c5[H])c(C(=O)N([H])[H])c4N([H])[H])C3([H])[H])c([H])c([H])c2C1([H])[H]

>  <smiles>  (88) 
[H]c1c([H])c([H])c2c(c1[H])C([H])([H])C([H])([H])C([H])([H])C2([H])N([H])C(=O)C1([H])N(C(=O)C([H])(N([H])C(=O)C([H])(N([H])C([H])([H])[H])C([H])([H])[H])C(C([H])([H])[H])(C([H])([H])[H])C([H])([H])[H])C([H])([H])c2c([H])c(OC([H])([H])C([H])([H])C([H])([H])C([H])([H])N([H])C(=O)C([H])([H])C3([H])C([H])([H])C([H])([H])[N+]([H])([H])C([H])([H])C3([H])N([H])C(=O)N3C([H])([H])C([H])([H])C([H])([H])C([H])(n4nc(-c5c([H])c([H])c(Oc6c([H])c([H])c(F)c([H])c6F)c([H])c5[H])c(C(=O)N([H])[H])c4N([H])[H])C3([H])[H])c([H])c([H])c2C1([H])[H]

$$$$
89:0:0
     RDKit          3D

 95103  0  0  1  0  0  0  0  0999 V2000
  -32.1230  -20.2210   21.0710 C   0  0  0  0  0  3  0  0  0  0  0  0
  -31.0480  -14.7280   20.5950 C   0  0  0  0  0  0  0  0  0  0  0  0
  -30.6830  -12.5370   19.5860 C   0  0  0  0  0  2  0  0  0  0  0  0
  -29.8060  -12.6700   18.3290 C   0  0  0  0  0  2  0  0  0  0  0  0
  -28.3210  -12.5340   18.7180 C   0  0  0  0  0  2  0  0  0  0  0  0
  -27.9050  -13.4500   19.9050 C   0  0  0  0  0  3  0  0  0  0  0  0
  -28.9330  -13.3910   21.0570 C   0  0  0  0  0  2  0  0  0  0  0  0
  -30.2720  -13.6140   20.4910 N   0  0  0  0  0  0  0  0  0  0  0  0
  -32.2710  -14.6610   20.6000 O   0  0  0  0  0  0  0  0  0  0  0  0
  -32.0700  -17.8710   19.9580 C   0  0  0  0  0  0  0  0  0  0  0  0
  -32.4900  -19.1480   20.0580 C   0  0  0  0  0  3  0  0  0  0  0  0
  -32.4520  -17.0790   18.7140 C   0  0  0  0  0  2  0  0  0  0  0  0
  -31.1210  -17.1560   20.9460 C   0  0  0  0  0  2  0  0  0  0  0  0
  -30.0240  -16.2870   19.0090 C   0  0  0  0  0  2  0  0  0  0  0  0
  -31.2050  -16.4970   18.0180 C   0  0  0  0  0  3  0  0  0  0  0  0
  -30.7760  -17.3640   16.8220 C   0  0  0  0  0  1  0  0  0  0  0  0
  -30.4780  -15.9420   20.3710 N   0  0  0  0  0  0  0  0  0  0  0  0
  -25.4880  -14.0500   20.5200 C   0  0  0  0  0  0  0  0  0  0  0  0
  -24.4100  -13.2740   20.8500 C   0  0  0  0  0  0  0  0  0  0  0  0
  -24.8850  -11.9250   20.8670 C   0  0  0  0  0  0  0  0  0  0  0  0
  -26.5470  -13.1710   20.3550 N   0  0  0  0  0  0  0  0  0  0  0  0
  -26.1900  -11.8930   20.6330 N   0  0  0  0  0  0  0  0  0  0  0  0
  -24.1640  -10.6600   21.0350 C   0  0  0  0  0  0  0  0  0  0  0  0
  -24.5370   -9.7260   22.0270 C   0  0  0  0  0  3  0  0  0  0  0  0
  -23.8190   -8.5220   22.1840 C   0  0  0  0  0  3  0  0  0  0  0  0
  -22.7100   -8.2440   21.3480 C   0  0  0  0  0  0  0  0  0  0  0  0
  -22.3570   -9.1650   20.3460 C   0  0  0  0  0  3  0  0  0  0  0  0
  -23.0770  -10.3610   20.1890 C   0  0  0  0  0  3  0  0  0  0  0  0
  -21.9630   -7.0940   21.4130 O   0  0  0  0  0  0  0  0  0  0  0  0
  -21.8210   -6.3960   22.5850 C   0  0  0  0  0  0  0  0  0  0  0  0
  -21.2350   -6.9740   23.7330 C   0  0  0  0  0  3  0  0  0  0  0  0
  -21.0450   -6.1970   24.8930 C   0  0  0  0  0  3  0  0  0  0  0  0
  -21.4260   -4.8430   24.9070 C   0  0  0  0  0  0  0  0  0  0  0  0
  -22.0030   -4.2630   23.7620 C   0  0  0  0  0  3  0  0  0  0  0  0
  -22.1950   -5.0380   22.6050 C   0  0  0  0  0  0  0  0  0  0  0  0
  -22.7310   -4.4680   21.4990 F   0  0  0  0  0  0  0  0  0  0  0  0
  -21.2340   -4.0950   26.0200 F   0  0  0  0  0  0  0  0  0  0  0  0
  -22.9950  -13.7390   21.0360 C   0  0  0  0  0  0  0  0  0  0  0  0
  -22.2280  -13.0530   21.8760 N   0  0  0  0  0  0  0  0  0  0  0  0
  -22.5750  -14.7480   20.4710 O   0  0  0  0  0  0  0  0  0  0  0  0
  -22.5810  -12.2440   22.3650 H   0  0  0  0  0  0  0  0  0  0  0  0
  -21.2730  -13.3430   22.0330 H   0  0  0  0  0  0  0  0  0  0  0  0
  -25.6540  -15.4170   20.3190 N   0  0  0  0  0  0  0  0  0  0  0  0
  -24.8910  -16.0820   20.3900 H   0  0  0  0  0  0  0  0  0  0  0  0
  -26.5290  -15.8490   20.0510 H   0  0  0  0  0  0  0  0  0  0  0  0
  -33.3570  -20.7170   21.7070 N   0  0  0  0  0  4  0  0  0  0  0  0
  -33.9980  -21.0960   21.0320 H   0  0  0  0  0  0  0  0  0  0  0  0
  -33.8180  -19.9620   22.1840 H   0  0  0  0  0  0  0  0  0  0  0  0
  -33.1550  -21.4270   22.3900 H   0  0  0  0  0  0  0  0  0  0  0  0
  -31.3290  -21.3110   20.3040 C   0  0  0  0  0  2  0  0  0  0  0  0
  -31.0810  -22.6750   20.9780 C   0  0  0  0  0  2  0  0  0  0  0  0
  -30.0650  -23.4950   20.1570 C   0  0  0  0  0  2  0  0  0  0  0  0
  -29.8750  -24.9440   20.6310 C   0  0  0  0  0  2  0  0  0  0  0  0
  -28.6410  -25.6050   19.9880 C   0  0  0  0  0  2  0  0  0  0  0  0
  -28.5600  -26.9660   20.4010 O   0  0  0  0  0  0  0  0  0  0  0  0
  -24.5790  -32.0040   23.3990 C   0  0  0  0  0  0  0  0  0  0  0  0
  -27.3440  -27.6150   20.3580 C   0  0  0  0  0  0  0  0  0  0  0  0
  -23.4130  -30.5800   21.7450 C   0  0  0  0  0  3  0  0  0  0  0  0
  -24.9100  -29.0580   20.3450 C   0  0  0  0  0  0  0  0  0  0  0  0
  -25.9320  -30.9810   21.5750 C   0  0  0  0  0  2  0  0  0  0  0  0
  -26.0470  -29.6100   20.9470 C   0  0  0  0  0  0  0  0  0  0  0  0
  -27.2600  -28.8890   20.9580 C   0  0  0  0  0  3  0  0  0  0  0  0
  -26.1860  -27.0740   19.7460 C   0  0  0  0  0  3  0  0  0  0  0  0
  -24.9720  -27.7870   19.7500 C   0  0  0  0  0  3  0  0  0  0  0  0
  -23.6510  -29.8950   20.3700 C   0  0  0  0  0  2  0  0  0  0  0  0
  -24.6590  -31.2040   22.2970 N   0  0  0  0  0  0  0  0  0  0  0  0
  -23.4880  -32.2600   23.9270 O   0  0  0  0  0  0  0  0  0  0  0  0
  -22.7680  -29.5520   22.7010 C   0  0  0  0  0  0  0  0  0  0  0  0
  -21.4560  -29.3160   22.5270 N   0  0  0  0  0  0  0  0  0  0  0  0
  -23.4470  -28.9680   23.5500 O   0  0  0  0  0  0  0  0  0  0  0  0
  -20.9710  -29.8440   21.8150 H   0  0  0  0  0  0  0  0  0  0  0  0
  -18.1220  -27.9780   22.9040 C   0  0  0  0  0  0  0  0  0  0  0  0
  -20.6500  -28.3610   23.2860 C   0  0  0  0  0  3  0  0  0  0  0  0
  -20.8440  -26.9220   22.7550 C   0  0  0  0  0  2  0  0  0  0  0  0
  -19.8070  -26.5230   21.6990 C   0  0  0  0  0  2  0  0  0  0  0  0
  -18.3910  -26.6210   22.2730 C   0  0  0  0  0  2  0  0  0  0  0  0
  -19.1840  -28.8010   23.3650 C   0  0  0  0  0  0  0  0  0  0  0  0
  -18.8810  -30.0670   23.9090 C   0  0  0  0  0  3  0  0  0  0  0  0
  -17.5500  -30.5150   23.9990 C   0  0  0  0  0  3  0  0  0  0  0  0
  -16.5020  -29.6890   23.5540 C   0  0  0  0  0  3  0  0  0  0  0  0
  -16.7890  -28.4230   23.0130 C   0  0  0  0  0  3  0  0  0  0  0  0
  -25.8510  -32.6530   24.0330 C   0  0  0  0  0  3  0  0  0  0  0  0
  -26.3260  -31.9360   25.3550 C   0  0  1  0  0  0  0  0  0  0  0  0
  -25.1970  -31.7400   26.3940 C   0  0  0  0  0  1  0  0  0  0  0  0
  -26.9210  -30.5450   25.0350 C   0  0  0  0  0  1  0  0  0  0  0  0
  -27.4520  -32.7580   26.0230 C   0  0  0  0  0  1  0  0  0  0  0  0
  -25.5420  -34.0660   24.2900 N   0  0  0  0  0  0  0  0  0  0  0  0
  -25.9070  -35.0810   23.4950 C   0  0  0  0  0  0  0  0  0  0  0  0
  -26.6100  -34.9280   22.4910 O   0  0  0  0  0  0  0  0  0  0  0  0
  -24.9270  -34.2610   25.0660 H   0  0  0  0  0  0  0  0  0  0  0  0
  -24.2150  -36.8700   22.9850 C   0  0  0  0  0  1  0  0  0  0  0  0
  -25.4140  -36.4910   23.8710 C   0  0  0  0  0  3  0  0  0  0  0  0
  -27.5090  -37.3980   24.7710 C   0  0  0  0  0  1  0  0  0  0  0  0
  -26.4620  -37.5290   23.7620 N   0  0  0  0  0  0  0  0  0  0  0  0
  -26.0570  -38.4580   23.8410 H   0  0  0  0  0  0  0  0  0  0  0  0
  1 11  1  0
  1 46  1  0
  2  9  2  0
  3  8  1  0
  4  5  1  0
  4  3  1  0
  6  5  1  0
  6 21  1  0
  6  7  1  0
  8  2  1  0
  8  7  1  0
 10 11  2  0
 10 13  1  0
 12 10  1  0
 14 17  1  0
 15 16  1  0
 15 12  1  0
 15 14  1  0
 17  2  1  0
 17 13  1  0
 18 19  2  0
 19 20  1  0
 19 38  1  0
 20 23  1  0
 21 18  1  0
 21 22  1  0
 22 20  2  0
 23 24  1  0
 24 25  2  0
 26 29  1  0
 26 25  1  0
 27 26  2  0
 28 27  1  0
 28 23  2  0
 29 30  1  0
 30 35  2  0
 30 31  1  0
 31 32  2  0
 32 33  1  0
 33 37  1  0
 34 33  2  0
 35 34  1  0
 36 35  1  0
 38 39  1  0
 39 42  1  0
 39 41  1  0
 40 38  2  0
 43 44  1  0
 43 18  1  0
 45 43  1  0
 46 48  1  0
 46 49  1  0
 47 46  1  0
 50 51  1  0
 50  1  1  0
 52 53  1  0
 52 51  1  0
 54 55  1  0
 54 53  1  0
 56 67  2  0
 57 55  1  0
 57 62  1  0
 58 66  1  0
 58 68  1  0
 59 65  1  0
 59 61  1  0
 60 66  1  0
 61 62  2  0
 61 60  1  0
 63 64  1  0
 63 57  2  0
 64 59  2  0
 65 58  1  0
 66 56  1  0
 68 70  2  0
 69 68  1  0
 71 69  1  0
 72 81  2  0
 72 77  1  0
 73 69  1  0
 73 77  1  0
 74 73  1  0
 75 76  1  0
 75 74  1  0
 76 72  1  0
 77 78  2  0
 78 79  1  0
 80 79  2  0
 81 80  1  0
 82 56  1  0
 82 87  1  0
 82 83  1  0
 83 86  1  1
 83 84  1  0
 85 83  1  0
 87 90  1  0
 88 92  1  0
 88 87  1  0
 89 88  2  0
 92 91  1  0
 94 95  1  0
 94 92  1  0
 94 93  1  0
M  ISO  4   2 100  17 100  54 101  55 101
M  END
>  <TORSDO>  (89) 
F 22

>  <SCORE>  (89) 
-12.669

>  <name>  (89) 
89

>  <ligand_id>  (89) 
89

>  <original_smiles>  (89) 
[H]C(=C1C([H])([H])N(C(=O)N2C([H])([H])C([H])([H])C([H])([H])C([H])(n3nc(-c4c([H])c([H])c(Oc5c([H])c([H])c(F)c([H])c5F)c([H])c4[H])c(C(=O)N([H])[H])c3N([H])[H])C2([H])[H])C([H])([H])C([H])(C([H])([H])[H])C1([H])[H])C([H])(C([H])([H])C([H])([H])C([H])([H])C([H])([H])C([H])([H])Oc1c([H])c([H])c2c(c1[H])C([H])([H])N(C(=O)C([H])(N([H])C(=O)C([H])(N([H])C([H])([H])[H])C([H])([H])[H])C(C([H])([H])[H])(C([H])([H])[H])C([H])([H])[H])C([H])(C(=O)N([H])C1([H])c3c([H])c([H])c([H])c([H])c3C([H])([H])C([H])([H])C1([H])[H])C2([H])[H])[N+]([H])([H])[H]

>  <smiles>  (89) 
[H]C(=C1C([H])([H])N(C(=O)N2C([H])([H])C([H])([H])C([H])([H])C([H])(n3nc(-c4c([H])c([H])c(Oc5c([H])c([H])c(F)c([H])c5F)c([H])c4[H])c(C(=O)N([H])[H])c3N([H])[H])C2([H])[H])C([H])([H])C([H])(C([H])([H])[H])C1([H])[H])C([H])(C([H])([H])C([H])([H])C([H])([H])C([H])([H])C([H])([H])Oc1c([H])c([H])c2c(c1[H])C([H])([H])N(C(=O)C([H])(N([H])C(=O)C([H])(N([H])C([H])([H])[H])C([H])([H])[H])C(C([H])([H])[H])(C([H])([H])[H])C([H])([H])[H])C([H])(C(=O)N([H])C1([H])c3c([H])c([H])c([H])c([H])c3C([H])([H])C([H])([H])C1([H])[H])C2([H])[H])[N+]([H])([H])[H]

$$$$
90:0:0
     RDKit          3D

 98106  0  0  1  0  0  0  0  0999 V2000
  -32.5580  -22.3710   19.6150 C   0  0  0  0  0  0  0  0  0  0  0  0
  -33.7800  -22.4430   19.7800 O   0  0  0  0  0  0  0  0  0  0  0  0
  -32.4410  -24.8800   20.0110 C   0  0  0  0  0  1  0  0  0  0  0  0
  -31.6730  -23.6290   19.5320 C   0  0  0  0  0  3  0  0  0  0  0  0
  -31.0750  -23.8150   18.1150 C   0  0  0  0  0  2  0  0  0  0  0  0
  -30.0470  -24.9650   17.9490 C   0  0  0  0  0  2  0  0  0  0  0  0
  -28.6150  -24.6780   18.4570 C   0  0  0  0  0  2  0  0  0  0  0  0
  -28.3140  -25.1840   19.8770 C   0  0  0  0  0  2  0  0  0  0  0  0
  -28.3040  -26.6120   19.9400 O   0  0  0  0  0  0  0  0  0  0  0  0
  -24.5030  -31.6680   23.1500 C   0  0  0  0  0  0  0  0  0  0  0  0
  -27.0980  -27.2830   19.9580 C   0  0  0  0  0  0  0  0  0  0  0  0
  -23.2710  -30.3200   21.4780 C   0  0  0  0  0  3  0  0  0  0  0  0
  -24.7020  -28.7930   20.0170 C   0  0  0  0  0  0  0  0  0  0  0  0
  -25.7970  -30.6580   21.2770 C   0  0  0  0  0  2  0  0  0  0  0  0
  -25.8660  -29.3010   20.6060 C   0  0  0  0  0  0  0  0  0  0  0  0
  -27.0620  -28.5540   20.5700 C   0  0  0  0  0  3  0  0  0  0  0  0
  -25.9140  -26.7780   19.3710 C   0  0  0  0  0  3  0  0  0  0  0  0
  -24.7210  -27.5290   19.3980 C   0  0  0  0  0  3  0  0  0  0  0  0
  -23.4650  -29.6620   20.0850 C   0  0  0  0  0  2  0  0  0  0  0  0
  -24.5410  -30.8960   22.0260 N   0  0  0  0  0  0  0  0  0  0  0  0
  -23.4280  -31.9440   23.7020 O   0  0  0  0  0  0  0  0  0  0  0  0
  -22.6110  -29.2890   22.4190 C   0  0  0  0  0  0  0  0  0  0  0  0
  -21.2840  -29.1240   22.2880 N   0  0  0  0  0  0  0  0  0  0  0  0
  -23.2880  -28.6410   23.2210 O   0  0  0  0  0  0  0  0  0  0  0  0
  -20.8030  -29.6990   21.6120 H   0  0  0  0  0  0  0  0  0  0  0  0
  -17.8930  -27.9760   22.7690 C   0  0  0  0  0  0  0  0  0  0  0  0
  -20.4550  -28.1810   23.0370 C   0  0  0  0  0  3  0  0  0  0  0  0
  -20.5310  -26.7650   22.4210 C   0  0  0  0  0  2  0  0  0  0  0  0
  -19.4210  -26.4890   21.4030 C   0  0  0  0  0  2  0  0  0  0  0  0
  -18.0440  -26.6410   22.0570 C   0  0  0  0  0  2  0  0  0  0  0  0
  -19.0260  -28.7070   23.2140 C   0  0  0  0  0  0  0  0  0  0  0  0
  -18.8340  -29.9580   23.8390 C   0  0  0  0  0  3  0  0  0  0  0  0
  -17.5390  -30.4780   24.0210 C   0  0  0  0  0  3  0  0  0  0  0  0
  -16.4200  -29.7420   23.5930 C   0  0  0  0  0  3  0  0  0  0  0  0
  -16.5980  -28.4930   22.9720 C   0  0  0  0  0  3  0  0  0  0  0  0
  -25.8010  -32.2650   23.7800 C   0  0  0  0  0  3  0  0  0  0  0  0
  -25.5230  -33.6660   24.1280 N   0  0  0  0  0  0  0  0  0  0  0  0
  -25.8970  -34.7190   23.3900 C   0  0  0  0  0  0  0  0  0  0  0  0
  -26.5840  -34.6130   22.3710 O   0  0  0  0  0  0  0  0  0  0  0  0
  -24.9150  -33.8240   24.9180 H   0  0  0  0  0  0  0  0  0  0  0  0
  -24.2410  -36.5720   23.0060 C   0  0  0  0  0  1  0  0  0  0  0  0
  -25.4350  -36.1130   23.8580 C   0  0  0  0  0  3  0  0  0  0  0  0
  -27.5590  -36.9120   24.7910 C   0  0  0  0  0  1  0  0  0  0  0  0
  -26.5020  -37.1340   23.8080 N   0  0  0  0  0  0  0  0  0  0  0  0
  -26.1200  -38.0640   23.9550 H   0  0  0  0  0  0  0  0  0  0  0  0
  -26.3040  -31.4660   25.0460 C   0  0  1  0  0  0  0  0  0  0  0  0
  -25.2030  -31.2200   26.1030 C   0  0  0  0  0  1  0  0  0  0  0  0
  -26.8730  -30.0890   24.6310 C   0  0  0  0  0  1  0  0  0  0  0  0
  -27.4600  -32.2340   25.7280 C   0  0  0  0  0  1  0  0  0  0  0  0
  -31.8650  -21.0170   19.4670 C   0  0  0  0  0  2  0  0  0  0  0  0
  -32.4930  -19.8860   20.3200 C   0  0  0  0  0  2  0  0  0  0  0  0
  -30.6870  -14.3650   19.7790 C   0  0  0  0  0  0  0  0  0  0  0  0
  -30.1280  -12.3520   18.4540 C   0  0  0  0  0  2  0  0  0  0  0  0
  -29.1020  -12.6730   17.3490 C   0  0  0  0  0  2  0  0  0  0  0  0
  -27.6720  -12.5220   17.8980 C   0  0  0  0  0  2  0  0  0  0  0  0
  -27.4760  -13.2940   19.2270 C   0  0  0  0  0  3  0  0  0  0  0  0
  -28.6100  -12.9750   20.2310 C   0  0  0  0  0  2  0  0  0  0  0  0
  -29.8980  -13.2700   19.5850 N   0  0  0  0  0  0  0  0  0  0  0  0
  -31.6900  -14.5850   19.0900 O   0  0  0  0  0  0  0  0  0  0  0  0
  -32.0540  -16.7920   22.0280 C   0  0  0  0  0  2  0  0  0  0  0  0
  -31.4500  -15.3700   21.8740 C   0  0  0  0  0  2  0  0  0  0  0  0
  -32.6320  -17.4400   20.7470 C   0  0  0  0  0  2  0  0  0  0  0  0
  -30.3680  -18.5580   20.3710 C   0  0  0  0  0  2  0  0  0  0  0  0
  -29.5930  -17.3420   19.7980 C   0  0  0  0  0  3  0  0  0  0  0  0
  -29.3090  -16.1540   20.7730 C   0  0  0  0  0  3  0  0  0  0  0  0
  -28.2750  -17.8300   19.1670 C   0  0  0  0  0  1  0  0  0  0  0  0
  -28.6710  -16.4750   22.1480 C   0  0  0  0  0  1  0  0  0  0  0  0
  -30.4130  -15.1720   20.8410 N   0  0  0  0  0  0  0  0  0  0  0  0
  -31.8430  -18.5500   20.1290 N   0  0  1  0  0  4  0  0  0  0  0  0
  -31.9500  -18.3820   19.1390 H   0  0  0  0  0  0  0  0  0  0  0  0
  -25.1460  -13.9340   20.1090 C   0  0  0  0  0  0  0  0  0  0  0  0
  -24.1020  -13.1710   20.5610 C   0  0  0  0  0  0  0  0  0  0  0  0
  -24.5550  -11.8190   20.5220 C   0  0  0  0  0  0  0  0  0  0  0  0
  -26.1630  -13.0390   19.8120 N   0  0  0  0  0  0  0  0  0  0  0  0
  -25.8200  -11.7640   20.1220 N   0  0  0  0  0  0  0  0  0  0  0  0
  -23.8410  -10.5650   20.7910 C   0  0  0  0  0  0  0  0  0  0  0  0
  -24.3020   -9.6490   21.7630 C   0  0  0  0  0  3  0  0  0  0  0  0
  -23.5900   -8.4550   22.0140 C   0  0  0  0  0  3  0  0  0  0  0  0
  -22.4050   -8.1720   21.2920 C   0  0  0  0  0  0  0  0  0  0  0  0
  -21.9640   -9.0780   20.3110 C   0  0  0  0  0  3  0  0  0  0  0  0
  -22.6750  -10.2620   20.0570 C   0  0  0  0  0  3  0  0  0  0  0  0
  -21.6650   -7.0250   21.4470 O   0  0  0  0  0  0  0  0  0  0  0  0
  -21.6330   -6.3410   22.6380 C   0  0  0  0  0  0  0  0  0  0  0  0
  -21.2250   -6.9600   23.8400 C   0  0  0  0  0  3  0  0  0  0  0  0
  -21.1390   -6.2030   25.0260 C   0  0  0  0  0  3  0  0  0  0  0  0
  -21.4530   -4.8310   25.0130 C   0  0  0  0  0  0  0  0  0  0  0  0
  -21.8550   -4.2130   23.8160 C   0  0  0  0  0  3  0  0  0  0  0  0
  -21.9440   -4.9660   22.6320 C   0  0  0  0  0  0  0  0  0  0  0  0
  -22.3090   -4.3620   21.4750 F   0  0  0  0  0  0  0  0  0  0  0  0
  -21.3650   -4.1030   26.1510 F   0  0  0  0  0  0  0  0  0  0  0  0
  -22.7310  -13.6620   20.9240 C   0  0  0  0  0  0  0  0  0  0  0  0
  -22.0720  -12.9890   21.8590 N   0  0  0  0  0  0  0  0  0  0  0  0
  -22.2570  -14.6750   20.4130 O   0  0  0  0  0  0  0  0  0  0  0  0
  -22.4740  -12.1720   22.2930 H   0  0  0  0  0  0  0  0  0  0  0  0
  -21.1550  -13.3040   22.1440 H   0  0  0  0  0  0  0  0  0  0  0  0
  -25.3080  -15.2990   19.9110 N   0  0  0  0  0  0  0  0  0  0  0  0
  -24.5710  -15.9690   20.1040 H   0  0  0  0  0  0  0  0  0  0  0  0
  -26.1700  -15.7330   19.6120 H   0  0  0  0  0  0  0  0  0  0  0  0
  1  2  2  0
  4  1  1  0
  4  3  1  0
  5  4  1  0
  6  5  1  0
  6  7  1  0
  7  8  1  0
  8  9  1  0
  9 11  1  0
 10 21  2  0
 11 16  1  0
 12 20  1  0
 12 22  1  0
 13 19  1  0
 13 15  1  0
 14 20  1  0
 15 14  1  0
 16 15  2  0
 17 18  1  0
 17 11  2  0
 18 13  2  0
 19 12  1  0
 20 10  1  0
 22 24  2  0
 23 22  1  0
 25 23  1  0
 26 35  2  0
 26 31  1  0
 27 23  1  0
 27 31  1  0
 28 27  1  0
 29 30  1  0
 29 28  1  0
 30 26  1  0
 31 32  2  0
 32 33  1  0
 34 33  2  0
 35 34  1  0
 36 10  1  0
 36 37  1  0
 36 46  1  0
 37 40  1  0
 38 42  1  0
 38 37  1  0
 39 38  2  0
 42 41  1  0
 44 42  1  0
 44 45  1  0
 44 43  1  0
 46 49  1  1
 46 47  1  0
 48 46  1  0
 50  1  1  0
 50 51  1  0
 52 68  1  0
 53 58  1  0
 54 55  1  0
 54 53  1  0
 56 55  1  0
 56 74  1  0
 56 57  1  0
 58 52  1  0
 58 57  1  0
 59 52  2  0
 61 60  1  0
 62 60  1  0
 64 66  1  0
 64 63  1  0
 64 65  1  0
 65 68  1  0
 65 67  1  0
 68 61  1  0
 69 51  1  0
 69 63  1  0
 69 62  1  0
 69 70  1  6
 71 72  2  0
 72 91  1  0
 73 72  1  0
 73 76  1  0
 74 71  1  0
 74 75  1  0
 75 73  2  0
 76 77  1  0
 77 78  2  0
 79 82  1  0
 79 78  1  0
 80 79  2  0
 81 80  1  0
 81 76  2  0
 82 83  1  0
 83 84  1  0
 84 85  2  0
 86 85  1  0
 86 90  1  0
 87 86  2  0
 88 83  2  0
 88 87  1  0
 89 88  1  0
 91 92  1  0
 92 95  1  0
 92 94  1  0
 93 91  2  0
 96 97  1  0
 96 71  1  0
 98 96  1  0
M  ISO  4   8 101   9 101  52 100  68 100
M  END
>  <TORSDO>  (90) 
F 23

>  <SCORE>  (90) 
-8.178

>  <name>  (90) 
90

>  <ligand_id>  (90) 
90

>  <original_smiles>  (90) 
[H]c1c([H])c([H])c2c(c1[H])C([H])([H])C([H])([H])C([H])([H])C2([H])N([H])C(=O)C1([H])N(C(=O)C([H])(N([H])C(=O)C([H])(N([H])C([H])([H])[H])C([H])([H])[H])C(C([H])([H])[H])(C([H])([H])[H])C([H])([H])[H])C([H])([H])c2c([H])c(OC([H])([H])C([H])([H])C([H])([H])C([H])([H])C([H])(C(=O)C([H])([H])C([H])([H])[N+]3([H])C([H])([H])C([H])([H])C([H])([H])N(C(=O)N4C([H])([H])C([H])([H])C([H])([H])C([H])(n5nc(-c6c([H])c([H])c(Oc7c([H])c([H])c(F)c([H])c7F)c([H])c6[H])c(C(=O)N([H])[H])c5N([H])[H])C4([H])[H])C([H])(C([H])([H])[H])C([H])(C([H])([H])[H])C3([H])[H])C([H])([H])[H])c([H])c([H])c2C1([H])[H]

>  <smiles>  (90) 
[H]c1c([H])c([H])c2c(c1[H])C([H])([H])C([H])([H])C([H])([H])C2([H])N([H])C(=O)C1([H])N(C(=O)C([H])(N([H])C(=O)C([H])(N([H])C([H])([H])[H])C([H])([H])[H])C(C([H])([H])[H])(C([H])([H])[H])C([H])([H])[H])C([H])([H])c2c([H])c(OC([H])([H])C([H])([H])C([H])([H])C([H])([H])C([H])(C(=O)C([H])([H])C([H])([H])[N+]3([H])C([H])([H])C([H])([H])C([H])([H])N(C(=O)N4C([H])([H])C([H])([H])C([H])([H])C([H])(n5nc(-c6c([H])c([H])c(Oc7c([H])c([H])c(F)c([H])c7F)c([H])c6[H])c(C(=O)N([H])[H])c5N([H])[H])C4([H])[H])C([H])(C([H])([H])[H])C([H])(C([H])([H])[H])C3([H])[H])C([H])([H])[H])c([H])c([H])c2C1([H])[H]

$$$$
91:0:0
     RDKit          3D

 96105  0  0  1  0  0  0  0  0999 V2000
  -34.6250  -20.4240   19.8470 C   0  0  0  0  0  2  0  0  0  0  0  0
  -34.1070  -19.2540   20.6750 C   0  0  0  0  0  2  0  0  0  0  0  0
  -33.3670  -21.2390   19.5170 C   0  0  0  0  0  2  0  0  0  0  0  0
  -32.9320  -19.8860   21.4320 C   0  0  0  0  0  3  0  0  0  0  0  0
  -32.3110  -20.8450   20.4870 N   0  0  1  0  0  4  0  0  0  0  0  0
  -31.6220  -20.3220   19.9690 H   0  0  0  0  0  0  0  0  0  0  0  0
  -30.4020  -18.3650   23.8770 C   0  0  0  0  0  3  0  0  0  0  0  0
  -31.3160  -19.2430   23.2690 C   0  0  0  0  0  3  0  0  0  0  0  0
  -30.1100  -17.1290   23.2760 C   0  0  0  0  0  3  0  0  0  0  0  0
  -31.6390  -17.6530   21.4470 C   0  0  0  0  0  3  0  0  0  0  0  0
  -31.9410  -18.8980   22.0520 C   0  0  0  0  0  0  0  0  0  0  0  0
  -30.7310  -16.7560   22.0650 C   0  0  0  0  0  0  0  0  0  0  0  0
  -30.8250  -14.7920   20.4850 C   0  0  0  0  0  0  0  0  0  0  0  0
  -30.5650  -12.6610   19.2510 C   0  0  0  0  0  2  0  0  0  0  0  0
  -29.6100  -12.8080   18.0510 C   0  0  0  0  0  2  0  0  0  0  0  0
  -28.1440  -12.6190   18.4840 C   0  0  0  0  0  2  0  0  0  0  0  0
  -27.7790  -13.4740   19.7260 C   0  0  0  0  0  3  0  0  0  0  0  0
  -28.8320  -13.2850   20.8380 C   0  0  0  0  0  2  0  0  0  0  0  0
  -30.1610  -13.6220   20.2870 N   0  0  0  0  0  0  0  0  0  0  0  0
  -31.8070  -15.1330   19.8170 O   0  0  0  0  0  0  0  0  0  0  0  0
  -30.3570  -15.4960   21.5290 N   0  0  0  0  0  0  0  0  0  0  0  0
  -29.6250  -15.0160   22.0310 H   0  0  0  0  0  0  0  0  0  0  0  0
  -25.3660  -14.0270   20.4450 C   0  0  0  0  0  0  0  0  0  0  0  0
  -24.3170  -13.2300   20.8170 C   0  0  0  0  0  0  0  0  0  0  0  0
  -24.8070  -11.8900   20.7760 C   0  0  0  0  0  0  0  0  0  0  0  0
  -26.4300  -13.1700   20.2050 N   0  0  0  0  0  0  0  0  0  0  0  0
  -26.0950  -11.8800   20.4580 N   0  0  0  0  0  0  0  0  0  0  0  0
  -24.1120  -10.6110   20.9650 C   0  0  0  0  0  0  0  0  0  0  0  0
  -24.4960   -9.7030   21.9770 C   0  0  0  0  0  3  0  0  0  0  0  0
  -23.8000   -8.4880   22.1500 C   0  0  0  0  0  3  0  0  0  0  0  0
  -22.7050   -8.1710   21.3120 C   0  0  0  0  0  0  0  0  0  0  0  0
  -22.3410   -9.0670   20.2910 C   0  0  0  0  0  3  0  0  0  0  0  0
  -23.0390  -10.2740   20.1160 C   0  0  0  0  0  3  0  0  0  0  0  0
  -21.9870   -7.0020   21.3890 O   0  0  0  0  0  0  0  0  0  0  0  0
  -21.7720   -6.3690   22.5870 C   0  0  0  0  0  0  0  0  0  0  0  0
  -21.1300   -7.0140   23.6660 C   0  0  0  0  0  3  0  0  0  0  0  0
  -20.8650   -6.3040   24.8550 C   0  0  0  0  0  3  0  0  0  0  0  0
  -21.2310   -4.9490   24.9610 C   0  0  0  0  0  0  0  0  0  0  0  0
  -21.8650   -4.3030   23.8860 C   0  0  0  0  0  3  0  0  0  0  0  0
  -22.1310   -5.0100   22.7000 C   0  0  0  0  0  0  0  0  0  0  0  0
  -22.7220   -4.3770   21.6590 F   0  0  0  0  0  0  0  0  0  0  0  0
  -20.9700   -4.2640   26.1000 F   0  0  0  0  0  0  0  0  0  0  0  0
  -22.9120  -13.6750   21.1040 C   0  0  0  0  0  0  0  0  0  0  0  0
  -22.2120  -12.9660   21.9830 N   0  0  0  0  0  0  0  0  0  0  0  0
  -22.4420  -14.6860   20.5850 O   0  0  0  0  0  0  0  0  0  0  0  0
  -22.6040  -12.1460   22.4220 H   0  0  0  0  0  0  0  0  0  0  0  0
  -21.2700  -13.2460   22.2190 H   0  0  0  0  0  0  0  0  0  0  0  0
  -25.5000  -15.4010   20.2750 N   0  0  0  0  0  0  0  0  0  0  0  0
  -24.7220  -16.0420   20.3940 H   0  0  0  0  0  0  0  0  0  0  0  0
  -26.3470  -15.8610   19.9620 H   0  0  0  0  0  0  0  0  0  0  0  0
  -31.6090  -21.9810   21.1450 C   0  0  0  0  0  2  0  0  0  0  0  0
  -30.8000  -22.8640   20.1660 C   0  0  0  0  0  2  0  0  0  0  0  0
  -29.9830  -23.9510   20.8870 C   0  0  0  0  0  2  0  0  0  0  0  0
  -29.4390  -25.0220   19.9260 C   0  0  0  0  0  2  0  0  0  0  0  0
  -28.6330  -26.1160   20.6390 C   0  0  0  0  0  2  0  0  0  0  0  0
  -28.4560  -27.2070   19.7440 O   0  0  0  0  0  0  0  0  0  0  0  0
  -24.6850  -31.9940   23.4070 C   0  0  0  0  0  0  0  0  0  0  0  0
  -27.2760  -27.8820   19.8900 C   0  0  0  0  0  0  0  0  0  0  0  0
  -23.4400  -30.7190   21.6890 C   0  0  0  0  0  3  0  0  0  0  0  0
  -24.8630  -29.3180   20.1020 C   0  0  0  0  0  0  0  0  0  0  0  0
  -25.9500  -31.1330   21.4410 C   0  0  0  0  0  2  0  0  0  0  0  0
  -26.0300  -29.8190   20.6940 C   0  0  0  0  0  0  0  0  0  0  0  0
  -27.2430  -29.1080   20.5860 C   0  0  0  0  0  3  0  0  0  0  0  0
  -26.0970  -27.3790   19.3040 C   0  0  0  0  0  3  0  0  0  0  0  0
  -24.8890  -28.0960   19.4060 C   0  0  0  0  0  3  0  0  0  0  0  0
  -23.6110  -30.1540   20.2520 C   0  0  0  0  0  2  0  0  0  0  0  0
  -24.7110  -31.2910   22.2390 N   0  0  0  0  0  0  0  0  0  0  0  0
  -23.6200  -32.2050   24.0040 O   0  0  0  0  0  0  0  0  0  0  0  0
  -22.8300  -29.6140   22.5810 C   0  0  0  0  0  0  0  0  0  0  0  0
  -21.5080  -29.4100   22.4590 N   0  0  0  0  0  0  0  0  0  0  0  0
  -23.5410  -28.9460   23.3370 O   0  0  0  0  0  0  0  0  0  0  0  0
  -20.9960  -30.0020   21.8200 H   0  0  0  0  0  0  0  0  0  0  0  0
  -18.1730  -28.0950   22.8960 C   0  0  0  0  0  0  0  0  0  0  0  0
  -20.7260  -28.4000   23.1700 C   0  0  0  0  0  3  0  0  0  0  0  0
  -20.8620  -27.0160   22.4930 C   0  0  0  0  0  2  0  0  0  0  0  0
  -19.7610  -26.7370   21.4660 C   0  0  0  0  0  2  0  0  0  0  0  0
  -18.3800  -26.8010   22.1260 C   0  0  0  0  0  2  0  0  0  0  0  0
  -19.2760  -28.8530   23.3720 C   0  0  0  0  0  0  0  0  0  0  0  0
  -19.0300  -30.0680   24.0490 C   0  0  0  0  0  3  0  0  0  0  0  0
  -17.7150  -30.5220   24.2570 C   0  0  0  0  0  3  0  0  0  0  0  0
  -16.6260  -29.7600   23.7970 C   0  0  0  0  0  3  0  0  0  0  0  0
  -16.8580  -28.5480   23.1230 C   0  0  0  0  0  3  0  0  0  0  0  0
  -25.9860  -32.5830   24.0380 C   0  0  0  0  0  3  0  0  0  0  0  0
  -25.7000  -33.9690   24.4290 N   0  0  0  0  0  0  0  0  0  0  0  0
  -26.0630  -35.0480   23.7240 C   0  0  0  0  0  0  0  0  0  0  0  0
  -26.7470  -34.9800   22.6990 O   0  0  0  0  0  0  0  0  0  0  0  0
  -25.0980  -34.0980   25.2300 H   0  0  0  0  0  0  0  0  0  0  0  0
  -24.3820  -36.8910   23.4120 C   0  0  0  0  0  1  0  0  0  0  0  0
  -25.5920  -36.4220   24.2360 C   0  0  0  0  0  3  0  0  0  0  0  0
  -27.7210  -37.2150   25.1650 C   0  0  0  0  0  1  0  0  0  0  0  0
  -26.6490  -37.4570   24.2050 N   0  0  0  0  0  0  0  0  0  0  0  0
  -26.2580  -38.3770   24.3880 H   0  0  0  0  0  0  0  0  0  0  0  0
  -26.5100  -31.7520   25.2710 C   0  0  1  0  0  0  0  0  0  0  0  0
  -25.4290  -31.4810   26.3430 C   0  0  0  0  0  1  0  0  0  0  0  0
  -27.0700  -30.3860   24.8090 C   0  0  0  0  0  1  0  0  0  0  0  0
  -27.6800  -32.5020   25.9510 C   0  0  0  0  0  1  0  0  0  0  0  0
  1  2  1  0
  2  4  1  0
  3  1  1  0
  3  5  1  0
  4 11  1  0
  5 51  1  0
  5  4  1  0
  5  6  1  6
  8  7  2  0
  9  7  1  0
 10 11  2  0
 10 12  1  0
 11  8  1  0
 12  9  2  0
 13 21  1  0
 14 19  1  0
 15 16  1  0
 15 14  1  0
 17 16  1  0
 17 26  1  0
 17 18  1  0
 19 13  1  0
 19 18  1  0
 20 13  2  0
 21 22  1  0
 21 12  1  0
 23 24  2  0
 24 43  1  0
 25 24  1  0
 25 28  1  0
 26 23  1  0
 26 27  1  0
 27 25  2  0
 28 29  1  0
 29 30  2  0
 31 34  1  0
 31 30  1  0
 32 31  2  0
 33 32  1  0
 33 28  2  0
 34 35  1  0
 35 40  2  0
 35 36  1  0
 36 37  2  0
 37 38  1  0
 38 42  1  0
 39 38  2  0
 40 39  1  0
 41 40  1  0
 43 44  1  0
 44 47  1  0
 44 46  1  0
 45 43  2  0
 48 49  1  0
 48 23  1  0
 50 48  1  0
 52 53  1  0
 52 51  1  0
 54 55  1  0
 54 53  1  0
 56 58  1  0
 56 55  1  0
 57 68  2  0
 58 63  1  0
 59 67  1  0
 59 69  1  0
 60 66  1  0
 60 62  1  0
 61 67  1  0
 62 61  1  0
 63 62  2  0
 64 65  1  0
 64 58  2  0
 65 60  2  0
 66 59  1  0
 67 57  1  0
 69 71  2  0
 70 69  1  0
 72 70  1  0
 73 82  2  0
 73 78  1  0
 74 70  1  0
 74 78  1  0
 75 74  1  0
 76 77  1  0
 76 75  1  0
 77 73  1  0
 78 79  2  0
 79 80  1  0
 81 80  2  0
 82 81  1  0
 83 57  1  0
 83 84  1  0
 83 93  1  0
 84 87  1  0
 85 89  1  0
 85 84  1  0
 86 85  2  0
 89 88  1  0
 91 89  1  0
 91 92  1  0
 91 90  1  0
 93 96  1  1
 93 94  1  0
 95 93  1  0
M  ISO  4  13 100  21 100  55 101  56 101
M  END
>  <TORSDO>  (91) 
F 22

>  <SCORE>  (91) 
-10.825

>  <name>  (91) 
91

>  <ligand_id>  (91) 
91

>  <original_smiles>  (91) 
[H]c1c([H])c([H])c2c(c1[H])C([H])([H])C([H])([H])C([H])([H])C2([H])N([H])C(=O)C1([H])N(C(=O)C([H])(N([H])C(=O)C([H])(N([H])C([H])([H])[H])C([H])([H])[H])C(C([H])([H])[H])(C([H])([H])[H])C([H])([H])[H])C([H])([H])c2c([H])c(OC([H])([H])C([H])([H])C([H])([H])C([H])([H])C([H])([H])[N+]3([H])C([H])([H])C([H])([H])C([H])([H])C3([H])c3c([H])c([H])c([H])c(N([H])C(=O)N4C([H])([H])C([H])([H])C([H])([H])C([H])(n5nc(-c6c([H])c([H])c(Oc7c([H])c([H])c(F)c([H])c7F)c([H])c6[H])c(C(=O)N([H])[H])c5N([H])[H])C4([H])[H])c3[H])c([H])c([H])c2C1([H])[H]

>  <smiles>  (91) 
[H]c1c([H])c([H])c2c(c1[H])C([H])([H])C([H])([H])C([H])([H])C2([H])N([H])C(=O)C1([H])N(C(=O)C([H])(N([H])C(=O)C([H])(N([H])C([H])([H])[H])C([H])([H])[H])C(C([H])([H])[H])(C([H])([H])[H])C([H])([H])[H])C([H])([H])c2c([H])c(OC([H])([H])C([H])([H])C([H])([H])C([H])([H])C([H])([H])[N+]3([H])C([H])([H])C([H])([H])C([H])([H])C3([H])c3c([H])c([H])c([H])c(N([H])C(=O)N4C([H])([H])C([H])([H])C([H])([H])C([H])(n5nc(-c6c([H])c([H])c(Oc7c([H])c([H])c(F)c([H])c7F)c([H])c6[H])c(C(=O)N([H])[H])c5N([H])[H])C4([H])[H])c3[H])c([H])c([H])c2C1([H])[H]

$$$$
92:0:0
     RDKit          3D

 88 95  0  0  1  0  0  0  0  0999 V2000
  -29.2230  -22.9070   20.3600 C   0  0  0  0  0  0  0  0  0  0  0  0
  -28.7800  -22.4430   19.3050 O   0  0  0  0  0  0  0  0  0  0  0  0
  -29.6200  -21.9900   21.5340 C   0  0  0  0  0  2  0  0  0  0  0  0
  -29.0560  -20.5350   21.5160 C   0  0  0  0  0  2  0  0  0  0  0  0
  -30.0190  -19.4480   20.9750 C   0  0  0  0  0  2  0  0  0  0  0  0
  -29.4810  -17.9960   21.1090 C   0  0  0  0  0  2  0  0  0  0  0  0
  -30.5210  -16.9230   20.7050 C   0  0  0  0  0  2  0  0  0  0  0  0
  -30.6740  -14.4940   20.2070 C   0  0  0  0  0  0  0  0  0  0  0  0
  -30.3120  -12.3530   19.0420 C   0  0  0  0  0  2  0  0  0  0  0  0
  -29.3400  -12.5770   17.8670 C   0  0  0  0  0  2  0  0  0  0  0  0
  -27.8780  -12.4450   18.3370 C   0  0  0  0  0  2  0  0  0  0  0  0
  -27.5820  -13.2680   19.6200 C   0  0  0  0  0  3  0  0  0  0  0  0
  -28.6690  -13.0370   20.6960 C   0  0  0  0  0  2  0  0  0  0  0  0
  -29.9770  -13.3320   20.0890 N   0  0  0  0  0  0  0  0  0  0  0  0
  -31.7890  -14.6550   19.7030 O   0  0  0  0  0  0  0  0  0  0  0  0
  -30.0200  -15.5370   20.7550 N   0  0  0  0  0  0  0  0  0  0  0  0
  -29.0980  -15.3680   21.1290 H   0  0  0  0  0  0  0  0  0  0  0  0
  -25.2020  -13.8740   20.3890 C   0  0  0  0  0  0  0  0  0  0  0  0
  -24.1450  -13.1020   20.7850 C   0  0  0  0  0  0  0  0  0  0  0  0
  -24.6050  -11.7500   20.7440 C   0  0  0  0  0  0  0  0  0  0  0  0
  -26.2420  -12.9940   20.1330 N   0  0  0  0  0  0  0  0  0  0  0  0
  -25.8870  -11.7110   20.4040 N   0  0  0  0  0  0  0  0  0  0  0  0
  -23.8840  -10.4880   20.9530 C   0  0  0  0  0  0  0  0  0  0  0  0
  -24.3370   -9.5240   21.8810 C   0  0  0  0  0  3  0  0  0  0  0  0
  -23.6170   -8.3260   22.0780 C   0  0  0  0  0  3  0  0  0  0  0  0
  -22.4290   -8.0840   21.3480 C   0  0  0  0  0  0  0  0  0  0  0  0
  -21.9950   -9.0360   20.4100 C   0  0  0  0  0  3  0  0  0  0  0  0
  -22.7160  -10.2250   20.2100 C   0  0  0  0  0  3  0  0  0  0  0  0
  -21.6780   -6.9390   21.4550 O   0  0  0  0  0  0  0  0  0  0  0  0
  -21.6470   -6.2030   22.6130 C   0  0  0  0  0  0  0  0  0  0  0  0
  -21.2470   -6.7680   23.8440 C   0  0  0  0  0  3  0  0  0  0  0  0
  -21.1630   -5.9600   24.9950 C   0  0  0  0  0  3  0  0  0  0  0  0
  -21.4690   -4.5890   24.9180 C   0  0  0  0  0  0  0  0  0  0  0  0
  -21.8630   -4.0230   23.6920 C   0  0  0  0  0  3  0  0  0  0  0  0
  -21.9490   -4.8280   22.5420 C   0  0  0  0  0  0  0  0  0  0  0  0
  -22.3080   -4.2740   21.3590 F   0  0  0  0  0  0  0  0  0  0  0  0
  -21.3820   -3.8100   26.0210 F   0  0  0  0  0  0  0  0  0  0  0  0
  -22.7540  -13.5790   21.0910 C   0  0  0  0  0  0  0  0  0  0  0  0
  -22.0490  -12.8850   21.9780 N   0  0  0  0  0  0  0  0  0  0  0  0
  -22.3010  -14.6030   20.5790 O   0  0  0  0  0  0  0  0  0  0  0  0
  -22.4290  -12.0580   22.4150 H   0  0  0  0  0  0  0  0  0  0  0  0
  -21.1170  -13.1870   22.2250 H   0  0  0  0  0  0  0  0  0  0  0  0
  -25.3620  -15.2450   20.2040 N   0  0  0  0  0  0  0  0  0  0  0  0
  -24.5980  -15.8990   20.3360 H   0  0  0  0  0  0  0  0  0  0  0  0
  -26.2010  -15.6840   19.8480 H   0  0  0  0  0  0  0  0  0  0  0  0
  -29.4130  -24.4300   20.5400 C   0  0  0  0  0  2  0  0  0  0  0  0
  -28.2430  -25.2650   19.9670 C   0  0  0  0  0  2  0  0  0  0  0  0
  -28.3780  -26.6870   20.1840 O   0  0  0  0  0  0  0  0  0  0  0  0
  -24.5940  -31.9020   23.2320 C   0  0  0  0  0  0  0  0  0  0  0  0
  -27.2160  -27.4410   20.1420 C   0  0  0  0  0  0  0  0  0  0  0  0
  -23.3810  -30.5060   21.5930 C   0  0  0  0  0  3  0  0  0  0  0  0
  -24.8270  -28.9730   20.1580 C   0  0  0  0  0  0  0  0  0  0  0  0
  -25.9100  -30.8540   21.3900 C   0  0  0  0  0  2  0  0  0  0  0  0
  -25.9900  -29.4850   20.7450 C   0  0  0  0  0  0  0  0  0  0  0  0
  -27.1860  -28.7280   20.7330 C   0  0  0  0  0  3  0  0  0  0  0  0
  -26.0310  -26.9580   19.5320 C   0  0  0  0  0  3  0  0  0  0  0  0
  -24.8430  -27.7090   19.5470 C   0  0  0  0  0  3  0  0  0  0  0  0
  -23.5850  -29.8330   20.2090 C   0  0  0  0  0  2  0  0  0  0  0  0
  -24.6480  -31.1030   22.1300 N   0  0  0  0  0  0  0  0  0  0  0  0
  -23.5150  -32.1750   23.7750 O   0  0  0  0  0  0  0  0  0  0  0  0
  -22.7320  -29.4820   22.5520 C   0  0  0  0  0  0  0  0  0  0  0  0
  -21.4070  -29.2990   22.4260 N   0  0  0  0  0  0  0  0  0  0  0  0
  -23.4160  -28.8570   23.3660 O   0  0  0  0  0  0  0  0  0  0  0  0
  -20.9160  -29.8550   21.7400 H   0  0  0  0  0  0  0  0  0  0  0  0
  -18.0350  -28.0960   22.9190 C   0  0  0  0  0  0  0  0  0  0  0  0
  -20.5910  -28.3610   23.1970 C   0  0  0  0  0  3  0  0  0  0  0  0
  -20.6990  -26.9280   22.6240 C   0  0  0  0  0  2  0  0  0  0  0  0
  -19.6000  -26.6010   21.6080 C   0  0  0  0  0  2  0  0  0  0  0  0
  -18.2160  -26.7460   22.2470 C   0  0  0  0  0  2  0  0  0  0  0  0
  -19.1510  -28.8620   23.3500 C   0  0  0  0  0  0  0  0  0  0  0  0
  -18.9280  -30.1270   23.9370 C   0  0  0  0  0  3  0  0  0  0  0  0
  -17.6210  -30.6270   24.0960 C   0  0  0  0  0  3  0  0  0  0  0  0
  -16.5210  -29.8590   23.6810 C   0  0  0  0  0  3  0  0  0  0  0  0
  -16.7280  -28.5950   23.0990 C   0  0  0  0  0  3  0  0  0  0  0  0
  -25.8830  -32.5300   23.8490 C   0  0  0  0  0  3  0  0  0  0  0  0
  -25.5760  -33.9270   24.1820 N   0  0  0  0  0  0  0  0  0  0  0  0
  -25.9010  -34.9800   23.4190 C   0  0  0  0  0  0  0  0  0  0  0  0
  -26.5630  -34.8790   22.3830 O   0  0  0  0  0  0  0  0  0  0  0  0
  -24.9920  -34.0810   24.9910 H   0  0  0  0  0  0  0  0  0  0  0  0
  -24.1650  -36.7670   23.0860 C   0  0  0  0  0  1  0  0  0  0  0  0
  -25.4170  -36.3680   23.8820 C   0  0  0  0  0  3  0  0  0  0  0  0
  -27.5610  -37.2560   24.6840 C   0  0  0  0  0  1  0  0  0  0  0  0
  -26.4450  -37.4230   23.7550 N   0  0  0  0  0  0  0  0  0  0  0  0
  -26.0390  -38.3420   23.9080 H   0  0  0  0  0  0  0  0  0  0  0  0
  -26.4070  -31.7550   25.1190 C   0  0  1  0  0  0  0  0  0  0  0  0
  -25.3200  -31.5140   26.1920 C   0  0  0  0  0  1  0  0  0  0  0  0
  -26.9860  -30.3790   24.7170 C   0  0  0  0  0  1  0  0  0  0  0  0
  -27.5620  -32.5460   25.7770 C   0  0  0  0  0  1  0  0  0  0  0  0
  1 46  1  0
  1  3  1  0
  2  1  2  0
  4  3  1  0
  5  6  1  0
  5  4  1  0
  7 16  1  0
  7  6  1  0
  8 16  1  0
  9 14  1  0
 10 11  1  0
 10  9  1  0
 12 11  1  0
 12 21  1  0
 12 13  1  0
 14  8  1  0
 14 13  1  0
 15  8  2  0
 16 17  1  0
 18 19  2  0
 19 38  1  0
 20 19  1  0
 20 23  1  0
 21 18  1  0
 21 22  1  0
 22 20  2  0
 23 24  1  0
 24 25  2  0
 26 29  1  0
 26 25  1  0
 27 26  2  0
 28 27  1  0
 28 23  2  0
 29 30  1  0
 30 31  1  0
 31 32  2  0
 33 32  1  0
 33 37  1  0
 34 33  2  0
 35 30  2  0
 35 34  1  0
 36 35  1  0
 38 39  1  0
 39 42  1  0
 39 41  1  0
 40 38  2  0
 43 44  1  0
 43 18  1  0
 45 43  1  0
 47 48  1  0
 47 46  1  0
 49 60  2  0
 50 48  1  0
 50 55  1  0
 51 59  1  0
 51 61  1  0
 52 58  1  0
 52 54  1  0
 53 59  1  0
 54 53  1  0
 55 54  2  0
 56 57  1  0
 56 50  2  0
 57 52  2  0
 58 51  1  0
 59 49  1  0
 61 63  2  0
 62 61  1  0
 64 62  1  0
 65 74  2  0
 65 70  1  0
 66 62  1  0
 66 70  1  0
 67 66  1  0
 68 69  1  0
 68 67  1  0
 69 65  1  0
 70 71  2  0
 71 72  1  0
 73 72  2  0
 74 73  1  0
 75 49  1  0
 75 76  1  0
 75 85  1  0
 76 79  1  0
 77 81  1  0
 77 76  1  0
 78 77  2  0
 81 80  1  0
 83 81  1  0
 83 84  1  0
 83 82  1  0
 85 88  1  1
 85 86  1  0
 87 85  1  0
M  ISO  4   8 100  16 100  47 101  48 101
M  END
>  <TORSDO>  (92) 
F 23

>  <SCORE>  (92) 
-12.306

>  <name>  (92) 
92

>  <ligand_id>  (92) 
92

>  <original_smiles>  (92) 
[H]c1c([H])c([H])c2c(c1[H])C([H])([H])C([H])([H])C([H])([H])C2([H])N([H])C(=O)C1([H])N(C(=O)C([H])(N([H])C(=O)C([H])(N([H])C([H])([H])[H])C([H])([H])[H])C(C([H])([H])[H])(C([H])([H])[H])C([H])([H])[H])C([H])([H])c2c([H])c(OC([H])([H])C([H])([H])C(=O)C([H])([H])C([H])([H])C([H])([H])C([H])([H])C([H])([H])N([H])C(=O)N3C([H])([H])C([H])([H])C([H])([H])C([H])(n4nc(-c5c([H])c([H])c(Oc6c([H])c([H])c(F)c([H])c6F)c([H])c5[H])c(C(=O)N([H])[H])c4N([H])[H])C3([H])[H])c([H])c([H])c2C1([H])[H]

>  <smiles>  (92) 
[H]c1c([H])c([H])c2c(c1[H])C([H])([H])C([H])([H])C([H])([H])C2([H])N([H])C(=O)C1([H])N(C(=O)C([H])(N([H])C(=O)C([H])(N([H])C([H])([H])[H])C([H])([H])[H])C(C([H])([H])[H])(C([H])([H])[H])C([H])([H])[H])C([H])([H])c2c([H])c(OC([H])([H])C([H])([H])C(=O)C([H])([H])C([H])([H])C([H])([H])C([H])([H])C([H])([H])N([H])C(=O)N3C([H])([H])C([H])([H])C([H])([H])C([H])(n4nc(-c5c([H])c([H])c(Oc6c([H])c([H])c(F)c([H])c6F)c([H])c5[H])c(C(=O)N([H])[H])c4N([H])[H])C3([H])[H])c([H])c([H])c2C1([H])[H]

$$$$
93:0:0
     RDKit          3D

 92100  0  0  1  0  0  0  0  0999 V2000
  -31.8480  -21.4740   22.7430 C   0  0  0  0  0  3  0  0  0  0  0  0
  -31.9080  -20.3410   23.5740 C   0  0  0  0  0  3  0  0  0  0  0  0
  -30.4920  -20.2280   21.1420 C   0  0  0  0  0  3  0  0  0  0  0  0
  -31.1360  -21.4260   21.5270 C   0  0  0  0  0  0  0  0  0  0  0  0
  -30.5460  -19.0860   21.9770 C   0  0  0  0  0  0  0  0  0  0  0  0
  -31.2530  -19.1540   23.1980 C   0  0  0  0  0  0  0  0  0  0  0  0
  -31.3120  -18.0750   24.0140 F   0  0  0  0  0  0  0  0  0  0  0  0
  -31.0460  -22.6730   20.6630 C   0  0  0  0  0  2  0  0  0  0  0  0
  -29.6860  -23.3780   20.8040 C   0  0  0  0  0  2  0  0  0  0  0  0
  -29.6970  -24.8260   20.2770 C   0  0  0  0  0  2  0  0  0  0  0  0
  -28.3080  -25.4760   20.3030 C   0  0  0  0  0  2  0  0  0  0  0  0
  -28.4160  -26.8690   20.0000 O   0  0  0  0  0  0  0  0  0  0  0  0
  -24.6020  -31.9320   23.2350 C   0  0  0  0  0  0  0  0  0  0  0  0
  -27.2360  -27.5780   20.0340 C   0  0  0  0  0  0  0  0  0  0  0  0
  -23.3880  -30.5660   21.5700 C   0  0  0  0  0  3  0  0  0  0  0  0
  -24.8360  -29.0680   20.1010 C   0  0  0  0  0  0  0  0  0  0  0  0
  -25.9110  -30.9390   21.3630 C   0  0  0  0  0  2  0  0  0  0  0  0
  -25.9960  -29.5850   20.6910 C   0  0  0  0  0  0  0  0  0  0  0  0
  -27.2020  -28.8480   20.6520 C   0  0  0  0  0  3  0  0  0  0  0  0
  -26.0570  -27.0740   19.4400 C   0  0  0  0  0  3  0  0  0  0  0  0
  -24.8590  -27.8110   19.4750 C   0  0  0  0  0  3  0  0  0  0  0  0
  -23.5900  -29.9210   20.1720 C   0  0  0  0  0  2  0  0  0  0  0  0
  -24.6510  -31.1590   22.1140 N   0  0  0  0  0  0  0  0  0  0  0  0
  -23.5250  -32.1900   23.7880 O   0  0  0  0  0  0  0  0  0  0  0  0
  -22.7490  -29.5180   22.5090 C   0  0  0  0  0  0  0  0  0  0  0  0
  -21.4280  -29.3190   22.3690 N   0  0  0  0  0  0  0  0  0  0  0  0
  -23.4360  -28.8880   23.3160 O   0  0  0  0  0  0  0  0  0  0  0  0
  -20.9340  -29.8820   21.6900 H   0  0  0  0  0  0  0  0  0  0  0  0
  -18.0680  -28.0780   22.8290 C   0  0  0  0  0  0  0  0  0  0  0  0
  -20.6210  -28.3600   23.1200 C   0  0  0  0  0  3  0  0  0  0  0  0
  -20.7420  -26.9400   22.5210 C   0  0  0  0  0  2  0  0  0  0  0  0
  -19.6510  -26.6220   21.4950 C   0  0  0  0  0  2  0  0  0  0  0  0
  -18.2630  -26.7410   22.1320 C   0  0  0  0  0  2  0  0  0  0  0  0
  -19.1750  -28.8440   23.2780 C   0  0  0  0  0  0  0  0  0  0  0  0
  -18.9400  -30.0960   23.8870 C   0  0  0  0  0  3  0  0  0  0  0  0
  -17.6300  -30.5820   24.0520 C   0  0  0  0  0  3  0  0  0  0  0  0
  -16.5360  -29.8130   23.6210 C   0  0  0  0  0  3  0  0  0  0  0  0
  -16.7560  -28.5620   23.0160 C   0  0  0  0  0  3  0  0  0  0  0  0
  -25.8930  -32.5520   23.8600 C   0  0  0  0  0  3  0  0  0  0  0  0
  -25.5970  -33.9520   24.1860 N   0  0  0  0  0  0  0  0  0  0  0  0
  -25.9390  -34.9980   23.4220 C   0  0  0  0  0  0  0  0  0  0  0  0
  -26.6120  -34.8850   22.3940 O   0  0  0  0  0  0  0  0  0  0  0  0
  -24.9990  -34.1150   24.9830 H   0  0  0  0  0  0  0  0  0  0  0  0
  -24.2270  -36.8030   23.0520 C   0  0  0  0  0  1  0  0  0  0  0  0
  -25.4610  -36.3920   23.8710 C   0  0  0  0  0  3  0  0  0  0  0  0
  -27.5960  -37.2640   24.7120 C   0  0  0  0  0  1  0  0  0  0  0  0
  -26.5020  -37.4360   23.7600 N   0  0  0  0  0  0  0  0  0  0  0  0
  -26.1020  -38.3600   23.9010 H   0  0  0  0  0  0  0  0  0  0  0  0
  -26.4000  -31.7760   25.1370 C   0  0  1  0  0  0  0  0  0  0  0  0
  -25.3010  -31.5430   26.2000 C   0  0  0  0  0  1  0  0  0  0  0  0
  -26.9790  -30.3960   24.7460 C   0  0  0  0  0  1  0  0  0  0  0  0
  -27.5500  -32.5630   25.8060 C   0  0  0  0  0  1  0  0  0  0  0  0
  -29.8500  -17.7930   21.5680 C   0  0  0  0  0  2  0  0  0  0  0  0
  -30.8570  -16.6700   21.2640 C   0  0  0  0  0  2  0  0  0  0  0  0
  -30.7000  -14.4540   20.1740 C   0  0  0  0  0  0  0  0  0  0  0  0
  -30.3120  -12.3150   19.0210 C   0  0  0  0  0  2  0  0  0  0  0  0
  -29.3330  -12.5060   17.8460 C   0  0  0  0  0  2  0  0  0  0  0  0
  -27.8750  -12.3710   18.3250 C   0  0  0  0  0  2  0  0  0  0  0  0
  -27.5770  -13.2280   19.5840 C   0  0  0  0  0  3  0  0  0  0  0  0
  -28.6670  -13.0310   20.6630 C   0  0  0  0  0  2  0  0  0  0  0  0
  -29.9800  -13.3090   20.0530 N   0  0  0  0  0  0  0  0  0  0  0  0
  -31.7360  -14.6660   19.5390 O   0  0  0  0  0  0  0  0  0  0  0  0
  -30.2110  -15.3770   21.0130 N   0  0  0  0  0  0  0  0  0  0  0  0
  -29.3640  -15.1510   21.5130 H   0  0  0  0  0  0  0  0  0  0  0  0
  -25.2020  -13.8310   20.3750 C   0  0  0  0  0  0  0  0  0  0  0  0
  -24.1490  -13.0560   20.7790 C   0  0  0  0  0  0  0  0  0  0  0  0
  -24.6090  -11.7030   20.7250 C   0  0  0  0  0  0  0  0  0  0  0  0
  -26.2400  -12.9520   20.1070 N   0  0  0  0  0  0  0  0  0  0  0  0
  -25.8880  -11.6660   20.3720 N   0  0  0  0  0  0  0  0  0  0  0  0
  -23.8900  -10.4400   20.9360 C   0  0  0  0  0  0  0  0  0  0  0  0
  -24.3290   -9.4890   21.8820 C   0  0  0  0  0  3  0  0  0  0  0  0
  -23.6120   -8.2890   22.0790 C   0  0  0  0  0  3  0  0  0  0  0  0
  -22.4390   -8.0330   21.3300 C   0  0  0  0  0  0  0  0  0  0  0  0
  -22.0190   -8.9720   20.3720 C   0  0  0  0  0  3  0  0  0  0  0  0
  -22.7380  -10.1630   20.1730 C   0  0  0  0  0  3  0  0  0  0  0  0
  -21.6910   -6.8860   21.4350 O   0  0  0  0  0  0  0  0  0  0  0  0
  -21.6160   -6.1810   22.6090 C   0  0  0  0  0  0  0  0  0  0  0  0
  -21.1470   -6.7700   23.8030 C   0  0  0  0  0  3  0  0  0  0  0  0
  -21.0200   -5.9910   24.9710 C   0  0  0  0  0  3  0  0  0  0  0  0
  -21.3540   -4.6230   24.9450 C   0  0  0  0  0  0  0  0  0  0  0  0
  -21.8170   -4.0340   23.7550 C   0  0  0  0  0  3  0  0  0  0  0  0
  -21.9440   -4.8100   22.5910 C   0  0  0  0  0  0  0  0  0  0  0  0
  -22.3710   -4.2310   21.4420 F   0  0  0  0  0  0  0  0  0  0  0  0
  -21.2250   -3.8730   26.0650 F   0  0  0  0  0  0  0  0  0  0  0  0
  -22.7610  -13.5280   21.1030 C   0  0  0  0  0  0  0  0  0  0  0  0
  -22.0630  -12.8230   21.9870 N   0  0  0  0  0  0  0  0  0  0  0  0
  -22.3040  -14.5590   20.6090 O   0  0  0  0  0  0  0  0  0  0  0  0
  -22.4450  -11.9880   22.4060 H   0  0  0  0  0  0  0  0  0  0  0  0
  -21.1330  -13.1200   22.2490 H   0  0  0  0  0  0  0  0  0  0  0  0
  -25.3600  -15.2030   20.1970 N   0  0  0  0  0  0  0  0  0  0  0  0
  -24.6020  -15.8610   20.3380 H   0  0  0  0  0  0  0  0  0  0  0  0
  -26.2030  -15.6390   19.8430 H   0  0  0  0  0  0  0  0  0  0  0  0
  1  2  1  0
  3  4  1  0
  3  5  2  0
  4  1  2  0
  5  6  1  0
  6  2  2  0
  6  7  1  0
  8  9  1  0
  8  4  1  0
 10 11  1  0
 10  9  1  0
 12 14  1  0
 12 11  1  0
 13 24  2  0
 14 19  1  0
 15 23  1  0
 15 25  1  0
 16 22  1  0
 16 18  1  0
 17 23  1  0
 18 17  1  0
 19 18  2  0
 20 21  1  0
 20 14  2  0
 21 16  2  0
 22 15  1  0
 23 13  1  0
 25 27  2  0
 26 25  1  0
 28 26  1  0
 29 38  2  0
 29 34  1  0
 30 26  1  0
 30 34  1  0
 31 30  1  0
 32 33  1  0
 32 31  1  0
 33 29  1  0
 34 35  2  0
 35 36  1  0
 37 36  2  0
 38 37  1  0
 39 13  1  0
 39 40  1  0
 39 49  1  0
 40 43  1  0
 41 45  1  0
 41 40  1  0
 42 41  2  0
 45 44  1  0
 47 45  1  0
 47 48  1  0
 47 46  1  0
 49 52  1  1
 49 50  1  0
 51 49  1  0
 53  5  1  0
 54 53  1  0
 55 63  1  0
 56 61  1  0
 57 58  1  0
 57 56  1  0
 59 58  1  0
 59 68  1  0
 59 60  1  0
 61 55  1  0
 61 60  1  0
 62 55  2  0
 63 54  1  0
 63 64  1  0
 65 66  2  0
 66 85  1  0
 67 66  1  0
 67 70  1  0
 68 69  1  0
 68 65  1  0
 69 67  2  0
 70 71  1  0
 71 72  2  0
 73 76  1  0
 73 72  1  0
 74 73  2  0
 75 74  1  0
 75 70  2  0
 76 77  1  0
 77 78  1  0
 78 79  2  0
 80 79  1  0
 80 84  1  0
 81 80  2  0
 82 77  2  0
 82 81  1  0
 83 82  1  0
 85 86  1  0
 86 89  1  0
 86 88  1  0
 87 85  2  0
 90 91  1  0
 90 65  1  0
 92 90  1  0
M  ISO  4  11 101  12 101  55 100  63 100
M  END
>  <TORSDO>  (93) 
F 22

>  <SCORE>  (93) 
-12.615

>  <name>  (93) 
93

>  <ligand_id>  (93) 
93

>  <original_smiles>  (93) 
[H]c1c([H])c([H])c2c(c1[H])C([H])([H])C([H])([H])C([H])([H])C2([H])N([H])C(=O)C1([H])N(C(=O)C([H])(N([H])C(=O)C([H])(N([H])C([H])([H])[H])C([H])([H])[H])C(C([H])([H])[H])(C([H])([H])[H])C([H])([H])[H])C([H])([H])c2c([H])c(OC([H])([H])C([H])([H])C([H])([H])C([H])([H])c3c([H])c([H])c(F)c(C([H])([H])C([H])([H])N([H])C(=O)N4C([H])([H])C([H])([H])C([H])([H])C([H])(n5nc(-c6c([H])c([H])c(Oc7c([H])c([H])c(F)c([H])c7F)c([H])c6[H])c(C(=O)N([H])[H])c5N([H])[H])C4([H])[H])c3[H])c([H])c([H])c2C1([H])[H]

>  <smiles>  (93) 
[H]c1c([H])c([H])c2c(c1[H])C([H])([H])C([H])([H])C([H])([H])C2([H])N([H])C(=O)C1([H])N(C(=O)C([H])(N([H])C(=O)C([H])(N([H])C([H])([H])[H])C([H])([H])[H])C(C([H])([H])[H])(C([H])([H])[H])C([H])([H])[H])C([H])([H])c2c([H])c(OC([H])([H])C([H])([H])C([H])([H])C([H])([H])c3c([H])c([H])c(F)c(C([H])([H])C([H])([H])N([H])C(=O)N4C([H])([H])C([H])([H])C([H])([H])C([H])(n5nc(-c6c([H])c([H])c(Oc7c([H])c([H])c(F)c([H])c7F)c([H])c6[H])c(C(=O)N([H])[H])c5N([H])[H])C4([H])[H])c3[H])c([H])c([H])c2C1([H])[H]

$$$$
94:0:0
     RDKit          3D

 98106  0  0  1  0  0  0  0  0999 V2000
  -29.0580  -19.0020   19.3610 C   0  0  0  0  0  2  0  0  0  0  0  0
  -26.9630  -18.1320   20.2610 C   0  0  0  0  0  2  0  0  0  0  0  0
  -27.6020  -19.3930   19.6470 C   0  0  0  0  0  3  0  0  0  0  0  0
  -29.0840  -17.4750   19.3920 C   0  0  0  0  0  3  0  0  0  0  0  0
  -28.0230  -17.1110   20.3590 N   0  0  0  0  0  4  0  0  0  0  0  0
  -27.6100  -16.2090   20.1750 H   0  0  0  0  0  0  0  0  0  0  0  0
  -28.3870  -17.1320   21.2970 H   0  0  0  0  0  0  0  0  0  0  0  0
  -27.5640  -20.5340   20.5590 N   0  0  0  0  0  0  0  0  0  0  0  0
  -26.6050  -20.6850   20.8650 H   0  0  0  0  0  0  0  0  0  0  0  0
  -28.0150  -21.7330   19.8590 C   0  0  0  0  0  2  0  0  0  0  0  0
  -28.0260  -22.9200   20.8200 C   0  0  0  0  0  2  0  0  0  0  0  0
  -28.4620  -24.2090   20.1120 C   0  0  0  0  0  2  0  0  0  0  0  0
  -28.4060  -25.4300   21.0400 C   0  0  0  0  0  2  0  0  0  0  0  0
  -28.5200  -26.6370   20.2930 O   0  0  0  0  0  0  0  0  0  0  0  0
  -24.5520  -31.7070   23.2680 C   0  0  0  0  0  0  0  0  0  0  0  0
  -27.3540  -27.3540   20.2400 C   0  0  0  0  0  0  0  0  0  0  0  0
  -23.4290  -30.3340   21.5410 C   0  0  0  0  0  3  0  0  0  0  0  0
  -24.9530  -28.8230   20.1670 C   0  0  0  0  0  0  0  0  0  0  0  0
  -25.9560  -30.7080   21.4690 C   0  0  0  0  0  2  0  0  0  0  0  0
  -26.0760  -29.3490   20.8170 C   0  0  0  0  0  0  0  0  0  0  0  0
  -27.2820  -28.6210   20.8520 C   0  0  0  0  0  3  0  0  0  0  0  0
  -26.2190  -26.8330   19.5850 C   0  0  0  0  0  3  0  0  0  0  0  0
  -25.0160  -27.5610   19.5490 C   0  0  0  0  0  3  0  0  0  0  0  0
  -23.7050  -29.6740   20.1630 C   0  0  0  0  0  2  0  0  0  0  0  0
  -24.6610  -30.9290   22.1540 N   0  0  0  0  0  0  0  0  0  0  0  0
  -23.4470  -31.9710   23.7580 O   0  0  0  0  0  0  0  0  0  0  0  0
  -22.7320  -29.2980   22.4530 C   0  0  0  0  0  0  0  0  0  0  0  0
  -21.4110  -29.1380   22.2740 N   0  0  0  0  0  0  0  0  0  0  0  0
  -23.3800  -28.6390   23.2720 O   0  0  0  0  0  0  0  0  0  0  0  0
  -20.9540  -29.7270   21.5910 H   0  0  0  0  0  0  0  0  0  0  0  0
  -17.9970  -28.0190   22.6510 C   0  0  0  0  0  0  0  0  0  0  0  0
  -20.5540  -28.1910   22.9840 C   0  0  0  0  0  3  0  0  0  0  0  0
  -20.6300  -26.7850   22.3450 C   0  0  0  0  0  2  0  0  0  0  0  0
  -19.5380  -26.5390   21.2980 C   0  0  0  0  0  2  0  0  0  0  0  0
  -18.1490  -26.6970   21.9200 C   0  0  0  0  0  2  0  0  0  0  0  0
  -19.1270  -28.7280   23.1360 C   0  0  0  0  0  0  0  0  0  0  0  0
  -18.9330  -29.9710   23.7760 C   0  0  0  0  0  3  0  0  0  0  0  0
  -17.6410  -30.5040   23.9380 C   0  0  0  0  0  3  0  0  0  0  0  0
  -16.5240  -29.7910   23.4690 C   0  0  0  0  0  3  0  0  0  0  0  0
  -16.7030  -28.5500   22.8310 C   0  0  0  0  0  3  0  0  0  0  0  0
  -25.8080  -32.3220   23.9630 C   0  0  0  0  0  3  0  0  0  0  0  0
  -26.2320  -31.5560   25.2750 C   0  0  1  0  0  0  0  0  0  0  0  0
  -25.0690  -31.3380   26.2710 C   0  0  0  0  0  1  0  0  0  0  0  0
  -26.8260  -30.1700   24.9270 C   0  0  0  0  0  1  0  0  0  0  0  0
  -27.3480  -32.3420   26.0050 C   0  0  0  0  0  1  0  0  0  0  0  0
  -25.5050  -33.7280   24.2570 N   0  0  0  0  0  0  0  0  0  0  0  0
  -25.8890  -34.7620   23.4950 C   0  0  0  0  0  0  0  0  0  0  0  0
  -26.6060  -34.6320   22.4990 O   0  0  0  0  0  0  0  0  0  0  0  0
  -24.8800  -33.9060   25.0300 H   0  0  0  0  0  0  0  0  0  0  0  0
  -24.1970  -36.5630   23.0310 C   0  0  0  0  0  1  0  0  0  0  0  0
  -25.3990  -36.1640   23.9030 C   0  0  0  0  0  3  0  0  0  0  0  0
  -27.5000  -37.0510   24.8110 C   0  0  0  0  0  1  0  0  0  0  0  0
  -26.4470  -37.2040   23.8110 N   0  0  0  0  0  0  0  0  0  0  0  0
  -26.0450  -38.1310   23.9120 H   0  0  0  0  0  0  0  0  0  0  0  0
  -30.4920  -16.8560   19.6750 C   0  0  0  0  0  3  0  0  0  0  0  0
  -31.1210  -14.4260   20.0510 C   0  0  0  0  0  0  0  0  0  0  0  0
  -30.7850  -12.2310   19.0400 C   0  0  0  0  0  2  0  0  0  0  0  0
  -29.8280  -12.4380   17.8440 C   0  0  0  0  0  2  0  0  0  0  0  0
  -28.3530  -12.3690   18.2960 C   0  0  0  0  0  2  0  0  0  0  0  0
  -28.0600  -13.2580   19.5320 C   0  0  0  0  0  3  0  0  0  0  0  0
  -29.1250  -13.0320   20.6340 C   0  0  0  0  0  2  0  0  0  0  0  0
  -30.4530  -13.2510   20.0400 N   0  0  0  0  0  0  0  0  0  0  0  0
  -32.3000  -14.5590   19.7250 O   0  0  0  0  0  0  0  0  0  0  0  0
  -30.2820  -15.4700   20.1210 N   0  0  0  0  0  0  0  0  0  0  0  0
  -29.3430  -15.1850   20.3380 H   0  0  0  0  0  0  0  0  0  0  0  0
  -25.7100  -13.9880   20.2850 C   0  0  0  0  0  0  0  0  0  0  0  0
  -24.6170  -13.2670   20.6890 C   0  0  0  0  0  0  0  0  0  0  0  0
  -25.0170  -11.8950   20.6600 C   0  0  0  0  0  0  0  0  0  0  0  0
  -26.7060  -13.0540   20.0380 N   0  0  0  0  0  0  0  0  0  0  0  0
  -26.2950  -11.7940   20.3240 N   0  0  0  0  0  0  0  0  0  0  0  0
  -24.2440  -10.6660   20.8750 C   0  0  0  0  0  0  0  0  0  0  0  0
  -24.6420   -9.7040   21.8320 C   0  0  0  0  0  3  0  0  0  0  0  0
  -23.8730   -8.5380   22.0350 C   0  0  0  0  0  3  0  0  0  0  0  0
  -22.6930   -8.3260   21.2820 C   0  0  0  0  0  0  0  0  0  0  0  0
  -22.3140   -9.2760   20.3180 C   0  0  0  0  0  3  0  0  0  0  0  0
  -23.0830  -10.4340   20.1130 C   0  0  0  0  0  3  0  0  0  0  0  0
  -21.8990   -7.2100   21.3940 O   0  0  0  0  0  0  0  0  0  0  0  0
  -21.8100   -6.5040   22.5660 C   0  0  0  0  0  0  0  0  0  0  0  0
  -21.3630   -7.1020   23.7640 C   0  0  0  0  0  3  0  0  0  0  0  0
  -21.2240   -6.3230   24.9300 C   0  0  0  0  0  3  0  0  0  0  0  0
  -21.5180   -4.9470   24.8980 C   0  0  0  0  0  0  0  0  0  0  0  0
  -21.9590   -4.3490   23.7040 C   0  0  0  0  0  3  0  0  0  0  0  0
  -22.1020   -5.1250   22.5410 C   0  0  0  0  0  0  0  0  0  0  0  0
  -22.5070   -4.5400   21.3880 F   0  0  0  0  0  0  0  0  0  0  0  0
  -21.3760   -4.1960   26.0150 F   0  0  0  0  0  0  0  0  0  0  0  0
  -23.2460  -13.8070   20.9760 C   0  0  0  0  0  0  0  0  0  0  0  0
  -22.5050  -13.1590   21.8680 N   0  0  0  0  0  0  0  0  0  0  0  0
  -22.8430  -14.8400   20.4410 O   0  0  0  0  0  0  0  0  0  0  0  0
  -22.8440  -12.3240   22.3190 H   0  0  0  0  0  0  0  0  0  0  0  0
  -21.5860  -13.5060   22.1040 H   0  0  0  0  0  0  0  0  0  0  0  0
  -25.9430  -15.3470   20.0780 N   0  0  0  0  0  0  0  0  0  0  0  0
  -25.0690  -15.8640   20.1070 H   0  0  0  0  0  0  0  0  0  0  0  0
  -26.3900  -15.4990   19.1830 H   0  0  0  0  0  0  0  0  0  0  0  0
  -31.4100  -16.9490   18.4020 C   0  0  0  0  0  2  0  0  0  0  0  0
  -32.0470  -18.2670   18.2100 N   0  0  0  0  0  4  0  0  0  0  0  0
  -31.3890  -18.9910   17.9820 H   0  0  0  0  0  0  0  0  0  0  0  0
  -32.7010  -18.2070   17.4490 H   0  0  0  0  0  0  0  0  0  0  0  0
  -32.5670  -18.5380   19.0280 H   0  0  0  0  0  0  0  0  0  0  0  0
  1  4  1  0
  1  3  1  0
  2  5  1  0
  3  2  1  0
  3  8  1  0
  4 55  1  0
  4  5  1  0
  5  7  1  0
  6  5  1  0
  8  9  1  0
 10  8  1  0
 10 11  1  0
 12 11  1  0
 12 13  1  0
 14 13  1  0
 15 26  2  0
 16 14  1  0
 16 21  1  0
 17 25  1  0
 17 27  1  0
 18 20  1  0
 19 25  1  0
 20 21  2  0
 20 19  1  0
 22 16  2  0
 23 22  1  0
 23 18  2  0
 24 18  1  0
 24 17  1  0
 25 15  1  0
 27 29  2  0
 28 27  1  0
 30 28  1  0
 31 40  2  0
 31 36  1  0
 32 28  1  0
 32 36  1  0
 33 32  1  0
 34 35  1  0
 34 33  1  0
 35 31  1  0
 36 37  2  0
 37 38  1  0
 39 38  2  0
 40 39  1  0
 41 15  1  0
 41 46  1  0
 41 42  1  0
 42 45  1  1
 42 43  1  0
 44 42  1  0
 46 49  1  0
 47 51  1  0
 47 46  1  0
 48 47  2  0
 51 50  1  0
 53 51  1  0
 53 54  1  0
 53 52  1  0
 55 94  1  0
 55 64  1  0
 56 64  1  0
 57 62  1  0
 58 59  1  0
 58 57  1  0
 60 59  1  0
 60 69  1  0
 60 61  1  0
 62 56  1  0
 62 61  1  0
 63 56  2  0
 64 65  1  0
 66 67  2  0
 67 86  1  0
 68 67  1  0
 68 71  1  0
 69 66  1  0
 69 70  1  0
 70 68  2  0
 71 72  1  0
 72 73  2  0
 74 77  1  0
 74 73  1  0
 75 74  2  0
 76 75  1  0
 76 71  2  0
 77 78  1  0
 78 79  1  0
 79 80  2  0
 81 80  1  0
 81 85  1  0
 82 81  2  0
 83 78  2  0
 83 82  1  0
 84 83  1  0
 86 87  1  0
 87 90  1  0
 87 89  1  0
 88 86  2  0
 91 92  1  0
 91 66  1  0
 93 91  1  0
 95 94  1  0
 95 98  1  0
 96 95  1  0
 97 95  1  0
M  ISO  4  13 101  14 101  56 100  64 100
M  END
>  <TORSDO>  (94) 
F 24

>  <SCORE>  (94) 
-12.384

>  <name>  (94) 
94

>  <ligand_id>  (94) 
94

>  <original_smiles>  (94) 
[H]c1c([H])c([H])c2c(c1[H])C([H])([H])C([H])([H])C([H])([H])C2([H])N([H])C(=O)C1([H])N(C(=O)C([H])(N([H])C(=O)C([H])(N([H])C([H])([H])[H])C([H])([H])[H])C(C([H])([H])[H])(C([H])([H])[H])C([H])([H])[H])C([H])([H])c2c([H])c(OC([H])([H])C([H])([H])C([H])([H])C([H])([H])N([H])C3([H])C([H])([H])C([H])(C([H])(N([H])C(=O)N4C([H])([H])C([H])([H])C([H])([H])C([H])(n5nc(-c6c([H])c([H])c(Oc7c([H])c([H])c(F)c([H])c7F)c([H])c6[H])c(C(=O)N([H])[H])c5N([H])[H])C4([H])[H])C([H])([H])[N+]([H])([H])[H])[N+]([H])([H])C3([H])[H])c([H])c([H])c2C1([H])[H]

>  <smiles>  (94) 
[H]c1c([H])c([H])c2c(c1[H])C([H])([H])C([H])([H])C([H])([H])C2([H])N([H])C(=O)C1([H])N(C(=O)C([H])(N([H])C(=O)C([H])(N([H])C([H])([H])[H])C([H])([H])[H])C(C([H])([H])[H])(C([H])([H])[H])C([H])([H])[H])C([H])([H])c2c([H])c(OC([H])([H])C([H])([H])C([H])([H])C([H])([H])N([H])C3([H])C([H])([H])C([H])(C([H])(N([H])C(=O)N4C([H])([H])C([H])([H])C([H])([H])C([H])(n5nc(-c6c([H])c([H])c(Oc7c([H])c([H])c(F)c([H])c7F)c([H])c6[H])c(C(=O)N([H])[H])c5N([H])[H])C4([H])[H])C([H])([H])[N+]([H])([H])[H])[N+]([H])([H])C3([H])[H])c([H])c([H])c2C1([H])[H]

$$$$
95:0:0
     RDKit          3D

 93101  0  0  1  0  0  0  0  0999 V2000
  -30.5450  -20.1720   20.7160 C   0  0  0  0  0  2  0  0  0  0  0  0
  -30.6720  -14.4910   20.1820 C   0  0  0  0  0  0  0  0  0  0  0  0
  -30.2780  -12.4190   18.9040 C   0  0  0  0  0  2  0  0  0  0  0  0
  -29.2590  -12.6960   17.7780 C   0  0  0  0  0  2  0  0  0  0  0  0
  -27.8140  -12.5340   18.2910 C   0  0  0  0  0  2  0  0  0  0  0  0
  -27.5600  -13.2960   19.6160 C   0  0  0  0  0  3  0  0  0  0  0  0
  -28.6810  -13.0080   20.6410 C   0  0  0  0  0  2  0  0  0  0  0  0
  -29.9740  -13.3360   20.0110 N   0  0  0  0  0  0  0  0  0  0  0  0
  -31.7550  -14.7210   19.6340 O   0  0  0  0  0  0  0  0  0  0  0  0
  -30.3750  -15.7780   22.2480 C   0  0  0  0  0  2  0  0  0  0  0  0
  -29.2020  -16.4530   20.1630 C   0  0  0  0  0  2  0  0  0  0  0  0
  -31.2270  -17.0580   22.3600 C   0  0  0  0  0  2  0  0  0  0  0  0
  -29.9400  -17.7800   19.8460 C   0  0  0  0  0  3  0  0  0  0  0  0
  -29.8860  -18.7980   21.0320 C   0  0  0  0  0  3  0  0  0  0  0  0
  -29.3260  -18.3750   18.5630 C   0  0  0  0  0  1  0  0  0  0  0  0
  -30.0260  -15.4610   20.8660 N   0  0  0  0  0  0  0  0  0  0  0  0
  -30.3990  -18.2870   22.3300 N   0  0  0  0  0  4  0  0  0  0  0  0
  -30.9440  -19.0290   22.7390 H   0  0  0  0  0  0  0  0  0  0  0  0
  -29.6110  -18.1510   22.9450 H   0  0  0  0  0  0  0  0  0  0  0  0
  -25.2060  -13.8960   20.4620 C   0  0  0  0  0  0  0  0  0  0  0  0
  -24.1580  -13.1160   20.8690 C   0  0  0  0  0  0  0  0  0  0  0  0
  -24.6180  -11.7670   20.7880 C   0  0  0  0  0  0  0  0  0  0  0  0
  -26.2360  -13.0180   20.1610 N   0  0  0  0  0  0  0  0  0  0  0  0
  -25.8890  -11.7320   20.4130 N   0  0  0  0  0  0  0  0  0  0  0  0
  -23.9060  -10.5000   20.9900 C   0  0  0  0  0  0  0  0  0  0  0  0
  -24.3790   -9.5270   21.8990 C   0  0  0  0  0  3  0  0  0  0  0  0
  -23.6680   -8.3240   22.0870 C   0  0  0  0  0  3  0  0  0  0  0  0
  -22.4750   -8.0820   21.3650 C   0  0  0  0  0  0  0  0  0  0  0  0
  -22.0240   -9.0440   20.4440 C   0  0  0  0  0  3  0  0  0  0  0  0
  -22.7330  -10.2410   20.2560 C   0  0  0  0  0  3  0  0  0  0  0  0
  -21.7320   -6.9300   21.4610 O   0  0  0  0  0  0  0  0  0  0  0  0
  -21.7010   -6.1890   22.6140 C   0  0  0  0  0  0  0  0  0  0  0  0
  -21.2970   -6.7480   23.8470 C   0  0  0  0  0  3  0  0  0  0  0  0
  -21.2160   -5.9350   24.9950 C   0  0  0  0  0  3  0  0  0  0  0  0
  -21.5260   -4.5640   24.9110 C   0  0  0  0  0  0  0  0  0  0  0  0
  -21.9190   -4.0040   23.6830 C   0  0  0  0  0  3  0  0  0  0  0  0
  -22.0060   -4.8150   22.5370 C   0  0  0  0  0  0  0  0  0  0  0  0
  -22.3670   -4.2680   21.3520 F   0  0  0  0  0  0  0  0  0  0  0  0
  -21.4400   -3.7810   26.0120 F   0  0  0  0  0  0  0  0  0  0  0  0
  -22.7760  -13.5820   21.2260 C   0  0  0  0  0  0  0  0  0  0  0  0
  -22.1010  -12.8650   22.1150 N   0  0  0  0  0  0  0  0  0  0  0  0
  -22.3100  -14.6180   20.7530 O   0  0  0  0  0  0  0  0  0  0  0  0
  -22.4970  -12.0260   22.5160 H   0  0  0  0  0  0  0  0  0  0  0  0
  -21.1770  -13.1590   22.4010 H   0  0  0  0  0  0  0  0  0  0  0  0
  -25.3630  -15.2710   20.3010 N   0  0  0  0  0  0  0  0  0  0  0  0
  -24.6020  -15.9230   20.4560 H   0  0  0  0  0  0  0  0  0  0  0  0
  -26.1860  -15.7130   19.9140 H   0  0  0  0  0  0  0  0  0  0  0  0
  -29.5300  -21.2860   20.3780 C   0  0  0  0  0  2  0  0  0  0  0  0
  -30.1960  -22.6350   20.0520 C   0  0  0  0  0  2  0  0  0  0  0  0
  -29.1800  -23.7590   19.7770 C   0  0  0  0  0  2  0  0  0  0  0  0
  -29.8430  -25.0530   19.2710 C   0  0  0  0  0  2  0  0  0  0  0  0
  -28.8420  -26.1740   18.9430 C   0  0  0  0  0  2  0  0  0  0  0  0
  -28.3950  -26.7920   20.1510 O   0  0  0  0  0  0  0  0  0  0  0  0
  -24.5280  -31.8980   23.2170 C   0  0  0  0  0  0  0  0  0  0  0  0
  -27.2080  -27.4880   20.1210 C   0  0  0  0  0  0  0  0  0  0  0  0
  -23.3270  -30.4830   21.5810 C   0  0  0  0  0  3  0  0  0  0  0  0
  -24.7900  -28.9520   20.1550 C   0  0  0  0  0  0  0  0  0  0  0  0
  -25.8480  -30.8610   21.3770 C   0  0  0  0  0  2  0  0  0  0  0  0
  -25.9420  -29.4890   20.7420 C   0  0  0  0  0  0  0  0  0  0  0  0
  -27.1500  -28.7590   20.7340 C   0  0  0  0  0  3  0  0  0  0  0  0
  -26.0340  -26.9500   19.5490 C   0  0  0  0  0  3  0  0  0  0  0  0
  -24.8280  -27.6780   19.5620 C   0  0  0  0  0  3  0  0  0  0  0  0
  -23.5380  -29.7990   20.2020 C   0  0  0  0  0  2  0  0  0  0  0  0
  -24.5860  -31.0960   22.1170 N   0  0  0  0  0  0  0  0  0  0  0  0
  -23.4460  -32.1650   23.7590 O   0  0  0  0  0  0  0  0  0  0  0  0
  -22.6860  -29.4610   22.5450 C   0  0  0  0  0  0  0  0  0  0  0  0
  -21.3620  -29.2720   22.4210 N   0  0  0  0  0  0  0  0  0  0  0  0
  -23.3750  -28.8420   23.3590 O   0  0  0  0  0  0  0  0  0  0  0  0
  -20.8680  -29.8230   21.7330 H   0  0  0  0  0  0  0  0  0  0  0  0
  -17.9950  -28.0630   22.9240 C   0  0  0  0  0  0  0  0  0  0  0  0
  -20.5520  -28.3320   23.1940 C   0  0  0  0  0  3  0  0  0  0  0  0
  -20.6610  -26.9000   22.6200 C   0  0  0  0  0  2  0  0  0  0  0  0
  -19.5600  -26.5710   21.6080 C   0  0  0  0  0  2  0  0  0  0  0  0
  -18.1770  -26.7120   22.2510 C   0  0  0  0  0  2  0  0  0  0  0  0
  -19.1110  -28.8310   23.3510 C   0  0  0  0  0  0  0  0  0  0  0  0
  -18.8880  -30.0960   23.9380 C   0  0  0  0  0  3  0  0  0  0  0  0
  -17.5810  -30.5930   24.1010 C   0  0  0  0  0  3  0  0  0  0  0  0
  -16.4810  -29.8220   23.6900 C   0  0  0  0  0  3  0  0  0  0  0  0
  -16.6880  -28.5590   23.1070 C   0  0  0  0  0  3  0  0  0  0  0  0
  -25.8130  -32.5380   23.8320 C   0  0  0  0  0  3  0  0  0  0  0  0
  -25.4940  -33.9320   24.1670 N   0  0  0  0  0  0  0  0  0  0  0  0
  -25.8180  -34.9880   23.4100 C   0  0  0  0  0  0  0  0  0  0  0  0
  -26.4890  -34.8920   22.3780 O   0  0  0  0  0  0  0  0  0  0  0  0
  -24.8980  -34.0810   24.9680 H   0  0  0  0  0  0  0  0  0  0  0  0
  -24.0770  -36.7670   23.0590 C   0  0  0  0  0  1  0  0  0  0  0  0
  -25.3200  -36.3710   23.8700 C   0  0  0  0  0  3  0  0  0  0  0  0
  -27.4500  -37.2670   24.7020 C   0  0  0  0  0  1  0  0  0  0  0  0
  -26.3450  -37.4320   23.7610 N   0  0  0  0  0  0  0  0  0  0  0  0
  -25.9330  -38.3490   23.9130 H   0  0  0  0  0  0  0  0  0  0  0  0
  -26.3460  -31.7660   25.1010 C   0  0  1  0  0  0  0  0  0  0  0  0
  -25.2610  -31.5120   26.1750 C   0  0  0  0  0  1  0  0  0  0  0  0
  -26.9380  -30.3960   24.6950 C   0  0  0  0  0  1  0  0  0  0  0  0
  -27.4930  -32.5670   25.7590 C   0  0  0  0  0  1  0  0  0  0  0  0
  2 16  1  0
  3  8  1  0
  4  5  1  0
  4  3  1  0
  6  5  1  0
  6 23  1  0
  6  7  1  0
  8  2  1  0
  8  7  1  0
  9  2  2  0
 10 12  1  0
 11 16  1  0
 13 15  1  0
 13 11  1  0
 13 14  1  0
 14  1  1  0
 14 17  1  0
 16 10  1  0
 17 12  1  0
 17 18  1  0
 17 19  1  0
 20 21  2  0
 21 40  1  0
 22 21  1  0
 22 25  1  0
 23 24  1  0
 23 20  1  0
 24 22  2  0
 25 26  1  0
 26 27  2  0
 28 31  1  0
 28 27  1  0
 29 28  2  0
 30 29  1  0
 30 25  2  0
 31 32  1  0
 32 33  1  0
 33 34  2  0
 35 34  1  0
 35 39  1  0
 36 35  2  0
 37 32  2  0
 37 36  1  0
 38 37  1  0
 40 41  1  0
 41 44  1  0
 41 43  1  0
 42 40  2  0
 45 46  1  0
 45 20  1  0
 47 45  1  0
 48  1  1  0
 49 48  1  0
 50 49  1  0
 51 50  1  0
 52 51  1  0
 52 53  1  0
 54 65  2  0
 55 53  1  0
 55 60  1  0
 56 64  1  0
 56 66  1  0
 57 63  1  0
 57 59  1  0
 58 64  1  0
 59 58  1  0
 60 59  2  0
 61 62  1  0
 61 55  2  0
 62 57  2  0
 63 56  1  0
 64 54  1  0
 66 68  2  0
 67 66  1  0
 69 67  1  0
 70 79  2  0
 70 75  1  0
 71 67  1  0
 71 75  1  0
 72 71  1  0
 73 74  1  0
 73 72  1  0
 74 70  1  0
 75 76  2  0
 76 77  1  0
 78 77  2  0
 79 78  1  0
 80 54  1  0
 80 81  1  0
 80 90  1  0
 81 84  1  0
 82 86  1  0
 82 81  1  0
 83 82  2  0
 86 85  1  0
 88 86  1  0
 88 89  1  0
 88 87  1  0
 90 93  1  1
 90 91  1  0
 92 90  1  0
M  ISO  4   2 100  16 100  52 101  53 101
M  END
>  <TORSDO>  (95) 
F 21

>  <SCORE>  (95) 
-12.855

>  <name>  (95) 
95

>  <ligand_id>  (95) 
95

>  <original_smiles>  (95) 
[H]c1c([H])c([H])c2c(c1[H])C([H])([H])C([H])([H])C([H])([H])C2([H])N([H])C(=O)C1([H])N(C(=O)C([H])(N([H])C(=O)C([H])(N([H])C([H])([H])[H])C([H])([H])[H])C(C([H])([H])[H])(C([H])([H])[H])C([H])([H])[H])C([H])([H])c2c([H])c(OC([H])([H])C([H])([H])C([H])([H])C([H])([H])C([H])([H])C([H])([H])C3([H])C([H])(C([H])([H])[H])C([H])([H])N(C(=O)N4C([H])([H])C([H])([H])C([H])([H])C([H])(n5nc(-c6c([H])c([H])c(Oc7c([H])c([H])c(F)c([H])c7F)c([H])c6[H])c(C(=O)N([H])[H])c5N([H])[H])C4([H])[H])C([H])([H])C([H])([H])[N+]3([H])[H])c([H])c([H])c2C1([H])[H]

>  <smiles>  (95) 
[H]c1c([H])c([H])c2c(c1[H])C([H])([H])C([H])([H])C([H])([H])C2([H])N([H])C(=O)C1([H])N(C(=O)C([H])(N([H])C(=O)C([H])(N([H])C([H])([H])[H])C([H])([H])[H])C(C([H])([H])[H])(C([H])([H])[H])C([H])([H])[H])C([H])([H])c2c([H])c(OC([H])([H])C([H])([H])C([H])([H])C([H])([H])C([H])([H])C([H])([H])C3([H])C([H])(C([H])([H])[H])C([H])([H])N(C(=O)N4C([H])([H])C([H])([H])C([H])([H])C([H])(n5nc(-c6c([H])c([H])c(Oc7c([H])c([H])c(F)c([H])c7F)c([H])c6[H])c(C(=O)N([H])[H])c5N([H])[H])C4([H])[H])C([H])([H])C([H])([H])[N+]3([H])[H])c([H])c([H])c2C1([H])[H]

$$$$
96:0:0
     RDKit          3D

 94102  0  0  1  0  0  0  0  0999 V2000
  -25.1570  -22.4040   20.3250 N   0  0  0  0  0  4  0  0  0  0  0  0
  -24.4540  -22.3040   21.0440 H   0  0  0  0  0  0  0  0  0  0  0  0
  -24.7590  -22.9950   19.6140 H   0  0  0  0  0  0  0  0  0  0  0  0
  -25.3870  -21.0370   19.8000 C   0  0  0  0  0  2  0  0  0  0  0  0
  -26.3840  -20.9780   18.6270 C   0  0  0  0  0  2  0  0  0  0  0  0
  -27.8260  -20.5940   19.0180 C   0  0  0  0  0  2  0  0  0  0  0  0
  -27.9810  -19.1200   19.4530 C   0  0  0  0  0  2  0  0  0  0  0  0
  -31.4270  -15.5850   20.1990 C   0  0  0  0  0  0  0  0  0  0  0  0
  -31.2300  -13.2280   19.5360 C   0  0  0  0  0  2  0  0  0  0  0  0
  -30.3790  -13.1520   18.2540 C   0  0  0  0  0  2  0  0  0  0  0  0
  -28.8790  -13.0580   18.5980 C   0  0  0  0  0  2  0  0  0  0  0  0
  -28.4300  -14.1150   19.6420 C   0  0  0  0  0  3  0  0  0  0  0  0
  -29.4160  -14.1810   20.8320 C   0  0  0  0  0  2  0  0  0  0  0  0
  -30.7590  -14.4040   20.2830 N   0  0  0  0  0  0  0  0  0  0  0  0
  -32.6500  -15.6230   20.0450 O   0  0  0  0  0  0  0  0  0  0  0  0
  -30.2070  -18.5650   18.3920 C   0  0  0  0  0  2  0  0  0  0  0  0
  -29.6420  -17.3520   20.4050 C   0  0  0  0  0  2  0  0  0  0  0  0
  -29.4490  -18.7130   19.7020 C   0  0  0  0  0  3  0  0  0  0  0  0
  -31.2640  -17.5090   18.6550 C   0  0  0  0  0  3  0  0  0  0  0  0
  -31.6690  -16.7950   17.3470 C   0  0  0  0  0  1  0  0  0  0  0  0
  -30.7010  -16.6190   19.6880 N   0  0  0  0  0  0  0  0  0  0  0  0
  -26.0440  -14.8110   20.2920 C   0  0  0  0  0  0  0  0  0  0  0  0
  -24.9340  -14.0790   20.6230 C   0  0  0  0  0  0  0  0  0  0  0  0
  -25.3450  -12.7120   20.5960 C   0  0  0  0  0  0  0  0  0  0  0  0
  -27.0580  -13.8900   20.0840 N   0  0  0  0  0  0  0  0  0  0  0  0
  -26.6400  -12.6220   20.3250 N   0  0  0  0  0  0  0  0  0  0  0  0
  -24.5630  -11.4820   20.7500 C   0  0  0  0  0  0  0  0  0  0  0  0
  -24.9010  -10.5130   21.7220 C   0  0  0  0  0  3  0  0  0  0  0  0
  -24.1260   -9.3420   21.8610 C   0  0  0  0  0  3  0  0  0  0  0  0
  -23.0010   -9.1320   21.0310 C   0  0  0  0  0  0  0  0  0  0  0  0
  -22.6820  -10.0900   20.0520 C   0  0  0  0  0  3  0  0  0  0  0  0
  -23.4570  -11.2520   19.9100 C   0  0  0  0  0  3  0  0  0  0  0  0
  -22.2070   -8.0120   21.0800 O   0  0  0  0  0  0  0  0  0  0  0  0
  -21.9950   -7.3300   22.2520 C   0  0  0  0  0  0  0  0  0  0  0  0
  -21.4340   -7.9560   23.3860 C   0  0  0  0  0  3  0  0  0  0  0  0
  -21.1680   -7.2030   24.5470 C   0  0  0  0  0  3  0  0  0  0  0  0
  -21.4520   -5.8250   24.5730 C   0  0  0  0  0  0  0  0  0  0  0  0
  -22.0080   -5.1980   23.4440 C   0  0  0  0  0  3  0  0  0  0  0  0
  -22.2750   -5.9480   22.2850 C   0  0  0  0  0  0  0  0  0  0  0  0
  -22.7920   -5.3350   21.1940 F   0  0  0  0  0  0  0  0  0  0  0  0
  -21.1880   -5.1000   25.6850 F   0  0  0  0  0  0  0  0  0  0  0  0
  -23.5520  -14.6100   20.8590 C   0  0  0  0  0  0  0  0  0  0  0  0
  -22.7780  -13.9480   21.7120 N   0  0  0  0  0  0  0  0  0  0  0  0
  -23.1660  -15.6510   20.3260 O   0  0  0  0  0  0  0  0  0  0  0  0
  -23.1020  -13.1050   22.1650 H   0  0  0  0  0  0  0  0  0  0  0  0
  -21.8520  -14.2890   21.9180 H   0  0  0  0  0  0  0  0  0  0  0  0
  -26.2690  -16.1700   20.1260 N   0  0  0  0  0  0  0  0  0  0  0  0
  -25.5360  -16.8620   20.2100 H   0  0  0  0  0  0  0  0  0  0  0  0
  -27.1490  -16.5550   19.8100 H   0  0  0  0  0  0  0  0  0  0  0  0
  -26.3090  -23.0800   20.9680 C   0  0  0  0  0  2  0  0  0  0  0  0
  -27.1810  -23.8920   19.9850 C   0  0  0  0  0  2  0  0  0  0  0  0
  -28.1430  -24.8510   20.7220 C   0  0  0  0  0  2  0  0  0  0  0  0
  -28.9200  -25.8320   19.8110 C   0  0  0  0  0  2  0  0  0  0  0  0
  -28.8380  -27.1770   20.2970 O   0  0  0  0  0  0  0  0  0  0  0  0
  -24.7190  -32.0300   23.4570 C   0  0  0  0  0  0  0  0  0  0  0  0
  -27.6190  -27.8280   20.2750 C   0  0  0  0  0  0  0  0  0  0  0  0
  -23.6170  -30.6630   21.7150 C   0  0  0  0  0  3  0  0  0  0  0  0
  -25.1650  -29.2390   20.2800 C   0  0  0  0  0  0  0  0  0  0  0  0
  -26.1350  -31.1100   21.6250 C   0  0  0  0  0  2  0  0  0  0  0  0
  -26.2850  -29.7780   20.9230 C   0  0  0  0  0  0  0  0  0  0  0  0
  -27.5130  -29.0810   20.9150 C   0  0  0  0  0  3  0  0  0  0  0  0
  -26.4690  -27.2960   19.6410 C   0  0  0  0  0  3  0  0  0  0  0  0
  -25.2500  -27.9930   19.6440 C   0  0  0  0  0  3  0  0  0  0  0  0
  -23.8940  -30.0530   20.3170 C   0  0  0  0  0  2  0  0  0  0  0  0
  -24.8390  -31.2810   22.3250 N   0  0  0  0  0  0  0  0  0  0  0  0
  -23.6110  -32.2410   23.9680 O   0  0  0  0  0  0  0  0  0  0  0  0
  -22.9710  -29.5780   22.6070 C   0  0  0  0  0  0  0  0  0  0  0  0
  -21.6660  -29.3340   22.3980 N   0  0  0  0  0  0  0  0  0  0  0  0
  -23.6400  -28.9620   23.4400 O   0  0  0  0  0  0  0  0  0  0  0  0
  -21.1900  -29.8890   21.7020 H   0  0  0  0  0  0  0  0  0  0  0  0
  -18.3350  -27.9540   22.6550 C   0  0  0  0  0  0  0  0  0  0  0  0
  -20.8570  -28.3310   23.0900 C   0  0  0  0  0  3  0  0  0  0  0  0
  -21.0670  -26.9240   22.4810 C   0  0  0  0  0  2  0  0  0  0  0  0
  -20.0440  -26.5780   21.3930 C   0  0  0  0  0  2  0  0  0  0  0  0
  -18.6210  -26.6350   21.9550 C   0  0  0  0  0  2  0  0  0  0  0  0
  -19.3860  -28.7570   23.1730 C   0  0  0  0  0  0  0  0  0  0  0  0
  -19.0670  -29.9900   23.7830 C   0  0  0  0  0  3  0  0  0  0  0  0
  -17.7320  -30.4220   23.8790 C   0  0  0  0  0  3  0  0  0  0  0  0
  -16.6950  -29.6160   23.3780 C   0  0  0  0  0  3  0  0  0  0  0  0
  -16.9960  -28.3820   22.7750 C   0  0  0  0  0  3  0  0  0  0  0  0
  -25.9630  -32.6720   24.1480 C   0  0  0  0  0  3  0  0  0  0  0  0
  -26.3890  -31.9360   25.4760 C   0  0  1  0  0  0  0  0  0  0  0  0
  -25.2210  -31.7020   26.4630 C   0  0  0  0  0  1  0  0  0  0  0  0
  -27.0230  -30.5620   25.1580 C   0  0  0  0  0  1  0  0  0  0  0  0
  -27.4700  -32.7640   26.2100 C   0  0  0  0  0  1  0  0  0  0  0  0
  -25.6350  -34.0790   24.4160 N   0  0  0  0  0  0  0  0  0  0  0  0
  -26.0080  -35.1080   23.6440 C   0  0  0  0  0  0  0  0  0  0  0  0
  -26.7360  -34.9770   22.6560 O   0  0  0  0  0  0  0  0  0  0  0  0
  -25.0090  -34.2570   25.1890 H   0  0  0  0  0  0  0  0  0  0  0  0
  -24.2970  -36.8790   23.1410 C   0  0  0  0  0  1  0  0  0  0  0  0
  -25.4940  -36.5090   24.0300 C   0  0  0  0  0  3  0  0  0  0  0  0
  -27.5820  -37.4320   24.9370 C   0  0  0  0  0  1  0  0  0  0  0  0
  -26.5290  -37.5620   23.9330 N   0  0  0  0  0  0  0  0  0  0  0  0
  -26.1140  -38.4840   24.0260 H   0  0  0  0  0  0  0  0  0  0  0  0
  1 50  1  0
  1  2  1  0
  3  1  1  0
  4  1  1  0
  5  6  1  0
  5  4  1  0
  6  7  1  0
  8 14  1  0
  9 14  1  0
 10 11  1  0
 10  9  1  0
 12 11  1  0
 12 25  1  0
 12 13  1  0
 14 13  1  0
 15  8  2  0
 16 19  1  0
 16 18  1  0
 18  7  1  0
 18 17  1  0
 19 20  1  0
 19 21  1  0
 21  8  1  0
 21 17  1  0
 22 23  2  0
 23 42  1  0
 24 23  1  0
 24 27  1  0
 25 22  1  0
 25 26  1  0
 26 24  2  0
 27 28  1  0
 28 29  2  0
 30 33  1  0
 30 29  1  0
 31 30  2  0
 32 31  1  0
 32 27  2  0
 33 34  1  0
 34 39  2  0
 34 35  1  0
 35 36  2  0
 36 37  1  0
 37 41  1  0
 38 37  2  0
 39 38  1  0
 40 39  1  0
 42 43  1  0
 43 46  1  0
 43 45  1  0
 44 42  2  0
 47 48  1  0
 47 22  1  0
 49 47  1  0
 51 52  1  0
 51 50  1  0
 53 54  1  0
 53 52  1  0
 55 66  2  0
 56 54  1  0
 56 61  1  0
 57 65  1  0
 57 67  1  0
 58 64  1  0
 58 60  1  0
 59 65  1  0
 60 59  1  0
 61 60  2  0
 62 63  1  0
 62 56  2  0
 63 58  2  0
 64 57  1  0
 65 55  1  0
 67 69  2  0
 68 67  1  0
 70 68  1  0
 71 80  2  0
 71 76  1  0
 72 68  1  0
 72 76  1  0
 73 72  1  0
 74 75  1  0
 74 73  1  0
 75 71  1  0
 76 77  2  0
 77 78  1  0
 79 78  2  0
 80 79  1  0
 81 55  1  0
 81 86  1  0
 81 82  1  0
 82 85  1  1
 82 83  1  0
 84 82  1  0
 86 89  1  0
 87 91  1  0
 87 86  1  0
 88 87  2  0
 91 90  1  0
 93 94  1  0
 93 91  1  0
 93 92  1  0
M  ISO  4   8 100  21 100  53 101  54 101
M  END
>  <TORSDO>  (96) 
F 24

>  <SCORE>  (96) 
-9.025

>  <name>  (96) 
96

>  <ligand_id>  (96) 
96

>  <original_smiles>  (96) 
[H]c1c([H])c([H])c2c(c1[H])C([H])([H])C([H])([H])C([H])([H])C2([H])N([H])C(=O)C1([H])N(C(=O)C([H])(N([H])C(=O)C([H])(N([H])C([H])([H])[H])C([H])([H])[H])C(C([H])([H])[H])(C([H])([H])[H])C([H])([H])[H])C([H])([H])c2c([H])c(OC([H])([H])C([H])([H])C([H])([H])C([H])([H])[N+]([H])([H])C([H])([H])C([H])([H])C([H])([H])C([H])([H])C3([H])C([H])([H])N(C(=O)N4C([H])([H])C([H])([H])C([H])([H])C([H])(n5nc(-c6c([H])c([H])c(Oc7c([H])c([H])c(F)c([H])c7F)c([H])c6[H])c(C(=O)N([H])[H])c5N([H])[H])C4([H])[H])C([H])(C([H])([H])[H])C3([H])[H])c([H])c([H])c2C1([H])[H]

>  <smiles>  (96) 
[H]c1c([H])c([H])c2c(c1[H])C([H])([H])C([H])([H])C([H])([H])C2([H])N([H])C(=O)C1([H])N(C(=O)C([H])(N([H])C(=O)C([H])(N([H])C([H])([H])[H])C([H])([H])[H])C(C([H])([H])[H])(C([H])([H])[H])C([H])([H])[H])C([H])([H])c2c([H])c(OC([H])([H])C([H])([H])C([H])([H])C([H])([H])[N+]([H])([H])C([H])([H])C([H])([H])C([H])([H])C([H])([H])C3([H])C([H])([H])N(C(=O)N4C([H])([H])C([H])([H])C([H])([H])C([H])(n5nc(-c6c([H])c([H])c(Oc7c([H])c([H])c(F)c([H])c7F)c([H])c6[H])c(C(=O)N([H])[H])c5N([H])[H])C4([H])[H])C([H])(C([H])([H])[H])C3([H])[H])c([H])c([H])c2C1([H])[H]

$$$$
97:0:0
     RDKit          3D

 92100  0  0  1  0  0  0  0  0999 V2000
  -28.1350  -21.7520   20.6150 C   0  0  0  0  0  2  0  0  0  0  0  0
  -30.3470  -20.4800   20.2030 C   0  0  0  0  0  3  0  0  0  0  0  0
  -28.4340  -19.2650   21.0730 C   0  0  0  0  0  3  0  0  0  0  0  0
  -31.1000  -19.2840   20.2190 C   0  0  0  0  0  3  0  0  0  0  0  0
  -29.1850  -18.0690   21.0830 C   0  0  0  0  0  3  0  0  0  0  0  0
  -29.0050  -20.4860   20.6420 C   0  0  0  0  0  0  0  0  0  0  0  0
  -30.5320  -18.0680   20.6630 C   0  0  0  0  0  0  0  0  0  0  0  0
  -31.3980  -16.8070   20.7730 C   0  0  0  0  0  2  0  0  0  0  0  0
  -31.2410  -14.5050   19.8020 C   0  0  0  0  0  0  0  0  0  0  0  0
  -30.8260  -12.2660   18.8410 C   0  0  0  0  0  2  0  0  0  0  0  0
  -29.8210  -12.3560   17.6750 C   0  0  0  0  0  2  0  0  0  0  0  0
  -28.3730  -12.2810   18.1970 C   0  0  0  0  0  2  0  0  0  0  0  0
  -28.1130  -13.2470   19.3820 C   0  0  0  0  0  3  0  0  0  0  0  0
  -29.2220  -13.1260   20.4500 C   0  0  0  0  0  2  0  0  0  0  0  0
  -30.5180  -13.3500   19.7890 N   0  0  0  0  0  0  0  0  0  0  0  0
  -32.2950  -14.6350   19.1740 O   0  0  0  0  0  0  0  0  0  0  0  0
  -30.7250  -15.5240   20.5130 N   0  0  0  0  0  0  0  0  0  0  0  0
  -29.8480  -15.3570   20.9820 H   0  0  0  0  0  0  0  0  0  0  0  0
  -25.8170  -13.9780   20.2860 C   0  0  0  0  0  0  0  0  0  0  0  0
  -24.7330  -13.2620   20.7160 C   0  0  0  0  0  0  0  0  0  0  0  0
  -25.1040  -11.8860   20.6160 C   0  0  0  0  0  0  0  0  0  0  0  0
  -26.7850  -13.0410   19.9550 N   0  0  0  0  0  0  0  0  0  0  0  0
  -26.3620  -11.7770   20.2090 N   0  0  0  0  0  0  0  0  0  0  0  0
  -24.3150  -10.6660   20.8280 C   0  0  0  0  0  0  0  0  0  0  0  0
  -24.7000   -9.6940   21.7790 C   0  0  0  0  0  3  0  0  0  0  0  0
  -23.9140   -8.5380   21.9780 C   0  0  0  0  0  3  0  0  0  0  0  0
  -22.7300   -8.3450   21.2280 C   0  0  0  0  0  0  0  0  0  0  0  0
  -22.3640   -9.3050   20.2660 C   0  0  0  0  0  3  0  0  0  0  0  0
  -23.1500  -10.4520   20.0650 C   0  0  0  0  0  3  0  0  0  0  0  0
  -21.9190   -7.2420   21.3360 O   0  0  0  0  0  0  0  0  0  0  0  0
  -21.7640   -6.5770   22.5260 C   0  0  0  0  0  0  0  0  0  0  0  0
  -21.2800   -7.2230   23.6830 C   0  0  0  0  0  3  0  0  0  0  0  0
  -21.0690   -6.4860   24.8660 C   0  0  0  0  0  3  0  0  0  0  0  0
  -21.3320   -5.1030   24.8910 C   0  0  0  0  0  0  0  0  0  0  0  0
  -21.8100   -4.4570   23.7370 C   0  0  0  0  0  3  0  0  0  0  0  0
  -22.0230   -5.1920   22.5580 C   0  0  0  0  0  0  0  0  0  0  0  0
  -22.4620   -4.5590   21.4430 F   0  0  0  0  0  0  0  0  0  0  0  0
  -21.1220   -4.3940   26.0230 F   0  0  0  0  0  0  0  0  0  0  0  0
  -23.3930  -13.8160   21.1070 C   0  0  0  0  0  0  0  0  0  0  0  0
  -22.6940  -13.1440   22.0140 N   0  0  0  0  0  0  0  0  0  0  0  0
  -22.9790  -14.8780   20.6430 O   0  0  0  0  0  0  0  0  0  0  0  0
  -23.0420  -12.2840   22.4100 H   0  0  0  0  0  0  0  0  0  0  0  0
  -21.7970  -13.4950   22.3170 H   0  0  0  0  0  0  0  0  0  0  0  0
  -26.0570  -15.3410   20.1310 N   0  0  0  0  0  0  0  0  0  0  0  0
  -25.3460  -16.0400   20.3150 H   0  0  0  0  0  0  0  0  0  0  0  0
  -26.9100  -15.7320   19.7520 H   0  0  0  0  0  0  0  0  0  0  0  0
  -28.8390  -23.1310   20.8280 C   0  0  0  0  0  2  0  0  0  0  0  0
  -27.8720  -24.3270   20.9510 C   0  0  0  0  0  0  0  0  0  0  0  0
  -26.6140  -24.1650   20.9370 N   0  0  0  0  0  0  0  0  0  0  0  0
  -26.3540  -23.1940   20.8200 H   0  0  0  0  0  0  0  0  0  0  0  0
  -28.4950  -25.7280   21.1520 C   0  0  0  0  0  2  0  0  0  0  0  0
  -28.3190  -26.6610   20.0610 O   0  0  0  0  0  0  0  0  0  0  0  0
  -24.3940  -31.7910   23.1330 C   0  0  0  0  0  0  0  0  0  0  0  0
  -27.1600  -27.4070   20.0800 C   0  0  0  0  0  0  0  0  0  0  0  0
  -23.2390  -30.3710   21.4700 C   0  0  0  0  0  3  0  0  0  0  0  0
  -24.7440  -28.8740   20.0550 C   0  0  0  0  0  0  0  0  0  0  0  0
  -25.7600  -30.7810   21.3080 C   0  0  0  0  0  2  0  0  0  0  0  0
  -25.8820  -29.4120   20.6710 C   0  0  0  0  0  0  0  0  0  0  0  0
  -27.0950  -28.6830   20.6890 C   0  0  0  0  0  3  0  0  0  0  0  0
  -26.0160  -26.9020   19.4320 C   0  0  0  0  0  3  0  0  0  0  0  0
  -24.8050  -27.6170   19.4320 C   0  0  0  0  0  3  0  0  0  0  0  0
  -23.4810  -29.7060   20.0890 C   0  0  0  0  0  2  0  0  0  0  0  0
  -24.4820  -30.9970   22.0290 N   0  0  0  0  0  0  0  0  0  0  0  0
  -23.3000  -32.0380   23.6600 O   0  0  0  0  0  0  0  0  0  0  0  0
  -22.5990  -29.3310   22.4170 C   0  0  0  0  0  0  0  0  0  0  0  0
  -21.2820  -29.1110   22.2630 N   0  0  0  0  0  0  0  0  0  0  0  0
  -23.2820  -28.7260   23.2470 O   0  0  0  0  0  0  0  0  0  0  0  0
  -20.7900  -29.6520   21.5670 H   0  0  0  0  0  0  0  0  0  0  0  0
  -17.9340  -27.8250   22.6950 C   0  0  0  0  0  0  0  0  0  0  0  0
  -20.4780  -28.1500   23.0180 C   0  0  0  0  0  3  0  0  0  0  0  0
  -20.6310  -26.7230   22.4430 C   0  0  0  0  0  2  0  0  0  0  0  0
  -19.5590  -26.3720   21.4080 C   0  0  0  0  0  2  0  0  0  0  0  0
  -18.1600  -26.4810   22.0240 C   0  0  0  0  0  2  0  0  0  0  0  0
  -19.0230  -28.6160   23.1480 C   0  0  0  0  0  0  0  0  0  0  0  0
  -18.7590  -29.8740   23.7320 C   0  0  0  0  0  3  0  0  0  0  0  0
  -17.4380  -30.3400   23.8720 C   0  0  0  0  0  3  0  0  0  0  0  0
  -16.3630  -29.5450   23.4360 C   0  0  0  0  0  3  0  0  0  0  0  0
  -16.6120  -28.2910   22.8520 C   0  0  0  0  0  3  0  0  0  0  0  0
  -25.6590  -32.4460   23.7700 C   0  0  0  0  0  3  0  0  0  0  0  0
  -25.3250  -33.8410   24.0820 N   0  0  0  0  0  0  0  0  0  0  0  0
  -25.6590  -34.8910   23.3200 C   0  0  0  0  0  0  0  0  0  0  0  0
  -26.3490  -34.7880   22.3010 O   0  0  0  0  0  0  0  0  0  0  0  0
  -24.7130  -33.9960   24.8700 H   0  0  0  0  0  0  0  0  0  0  0  0
  -23.9070  -36.6520   22.9170 C   0  0  0  0  0  1  0  0  0  0  0  0
  -25.1400  -36.2760   23.7530 C   0  0  0  0  0  3  0  0  0  0  0  0
  -27.2450  -37.2060   24.6120 C   0  0  0  0  0  1  0  0  0  0  0  0
  -26.1580  -37.3440   23.6460 N   0  0  0  0  0  0  0  0  0  0  0  0
  -25.7340  -38.2590   23.7740 H   0  0  0  0  0  0  0  0  0  0  0  0
  -26.1680  -31.6910   25.0580 C   0  0  1  0  0  0  0  0  0  0  0  0
  -25.0620  -31.4400   26.1090 C   0  0  0  0  0  1  0  0  0  0  0  0
  -26.7820  -30.3220   24.6810 C   0  0  0  0  0  1  0  0  0  0  0  0
  -27.2920  -32.5090   25.7360 C   0  0  0  0  0  1  0  0  0  0  0  0
  1  6  1  0
  1 47  1  0
  2  4  2  0
  2  6  1  0
  3  5  1  0
  4  7  1  0
  6  3  2  0
  7  8  1  0
  7  5  2  0
  9 17  1  0
 10 15  1  0
 11 12  1  0
 11 10  1  0
 13 12  1  0
 13 22  1  0
 13 14  1  0
 15  9  1  0
 15 14  1  0
 16  9  2  0
 17  8  1  0
 17 18  1  0
 19 20  2  0
 20 39  1  0
 21 20  1  0
 21 24  1  0
 22 23  1  0
 22 19  1  0
 23 21  2  0
 24 25  1  0
 25 26  2  0
 27 30  1  0
 27 26  1  0
 28 27  2  0
 29 28  1  0
 29 24  2  0
 30 31  1  0
 31 36  2  0
 31 32  1  0
 32 33  2  0
 33 34  1  0
 34 38  1  0
 35 34  2  0
 36 35  1  0
 37 36  1  0
 39 40  1  0
 40 43  1  0
 40 42  1  0
 41 39  2  0
 44 19  1  0
 44 45  1  0
 46 44  1  0
 47 48  1  0
 48 51  1  0
 49 48  2  0
 50 49  1  0
 52 54  1  0
 52 51  1  0
 53 64  2  0
 54 59  1  0
 55 63  1  0
 55 65  1  0
 56 62  1  0
 56 58  1  0
 57 63  1  0
 58 59  2  0
 58 57  1  0
 60 61  1  0
 60 54  2  0
 61 56  2  0
 62 55  1  0
 63 53  1  0
 65 67  2  0
 66 65  1  0
 68 66  1  0
 69 78  2  0
 69 74  1  0
 70 66  1  0
 70 74  1  0
 71 70  1  0
 72 73  1  0
 72 71  1  0
 73 69  1  0
 74 75  2  0
 75 76  1  0
 77 76  2  0
 78 77  1  0
 79 53  1  0
 79 80  1  0
 79 89  1  0
 80 83  1  0
 81 85  1  0
 81 80  1  0
 82 81  2  0
 85 84  1  0
 87 85  1  0
 87 88  1  0
 87 86  1  0
 89 92  1  1
 89 90  1  0
 91 89  1  0
M  ISO  4   9 100  17 100  51 101  52 101
M  END
>  <TORSDO>  (97) 
F 21

>  <SCORE>  (97) 
-12.465

>  <name>  (97) 
97

>  <ligand_id>  (97) 
97

>  <original_smiles>  (97) 
[H]N=C(C([H])([H])Oc1c([H])c([H])c2c(c1[H])C([H])([H])N(C(=O)C([H])(N([H])C(=O)C([H])(N([H])C([H])([H])[H])C([H])([H])[H])C(C([H])([H])[H])(C([H])([H])[H])C([H])([H])[H])C([H])(C(=O)N([H])C1([H])c3c([H])c([H])c([H])c([H])c3C([H])([H])C([H])([H])C1([H])[H])C2([H])[H])C([H])([H])C([H])([H])c1c([H])c([H])c(C([H])([H])N([H])C(=O)N2C([H])([H])C([H])([H])C([H])([H])C([H])(n3nc(-c4c([H])c([H])c(Oc5c([H])c([H])c(F)c([H])c5F)c([H])c4[H])c(C(=O)N([H])[H])c3N([H])[H])C2([H])[H])c([H])c1[H]

>  <smiles>  (97) 
[H]N=C(C([H])([H])Oc1c([H])c([H])c2c(c1[H])C([H])([H])N(C(=O)C([H])(N([H])C(=O)C([H])(N([H])C([H])([H])[H])C([H])([H])[H])C(C([H])([H])[H])(C([H])([H])[H])C([H])([H])[H])C([H])(C(=O)N([H])C1([H])c3c([H])c([H])c([H])c([H])c3C([H])([H])C([H])([H])C1([H])[H])C2([H])[H])C([H])([H])C([H])([H])c1c([H])c([H])c(C([H])([H])N([H])C(=O)N2C([H])([H])C([H])([H])C([H])([H])C([H])(n3nc(-c4c([H])c([H])c(Oc5c([H])c([H])c(F)c([H])c5F)c([H])c4[H])c(C(=O)N([H])[H])c3N([H])[H])C2([H])[H])c([H])c1[H]

$$$$
98:0:0
     RDKit          3D

 96104  0  0  1  0  0  0  0  0999 V2000
  -29.7080  -19.9610   21.2440 C   0  0  0  0  0  0  0  0  0  0  0  0
  -30.2850  -21.0980   21.6620 N   0  0  0  0  0  0  0  0  0  0  0  0
  -28.4880  -19.8330   21.1360 O   0  0  0  0  0  0  0  0  0  0  0  0
  -31.2950  -21.0950   21.7320 H   0  0  0  0  0  0  0  0  0  0  0  0
  -30.8860  -14.5820   20.1720 C   0  0  0  0  0  0  0  0  0  0  0  0
  -30.5520  -12.4090   19.0930 C   0  0  0  0  0  2  0  0  0  0  0  0
  -29.5740  -12.5960   17.9120 C   0  0  0  0  0  2  0  0  0  0  0  0
  -28.1090  -12.4950   18.3800 C   0  0  0  0  0  2  0  0  0  0  0  0
  -27.8100  -13.3320   19.6530 C   0  0  0  0  0  3  0  0  0  0  0  0
  -28.9020  -13.1170   20.7260 C   0  0  0  0  0  2  0  0  0  0  0  0
  -30.2000  -13.4120   20.1070 N   0  0  0  0  0  0  0  0  0  0  0  0
  -32.0810  -14.6560   19.8730 O   0  0  0  0  0  0  0  0  0  0  0  0
  -30.3140  -17.4780   21.5950 C   0  0  0  0  0  2  0  0  0  0  0  0
  -30.7110  -18.7390   19.3090 C   0  0  0  0  0  2  0  0  0  0  0  0
  -29.3910  -16.4740   20.8690 C   0  0  0  0  0  2  0  0  0  0  0  0
  -30.3510  -16.3300   18.5880 C   0  0  0  0  0  2  0  0  0  0  0  0
  -30.6530  -18.8040   20.8550 C   0  0  0  0  0  3  0  0  0  0  0  0
  -31.3670  -17.4950   18.6740 C   0  0  0  0  0  3  0  0  0  0  0  0
  -30.1220  -15.6660   19.8810 N   0  0  0  0  0  0  0  0  0  0  0  0
  -25.4420  -13.9490   20.4460 C   0  0  0  0  0  0  0  0  0  0  0  0
  -24.3770  -13.1800   20.8300 C   0  0  0  0  0  0  0  0  0  0  0  0
  -24.8240  -11.8250   20.7620 C   0  0  0  0  0  0  0  0  0  0  0  0
  -26.4720  -13.0610   20.1720 N   0  0  0  0  0  0  0  0  0  0  0  0
  -26.1050  -11.7780   20.4190 N   0  0  0  0  0  0  0  0  0  0  0  0
  -24.0920  -10.5660   20.9520 C   0  0  0  0  0  0  0  0  0  0  0  0
  -24.5090   -9.6040   21.8990 C   0  0  0  0  0  3  0  0  0  0  0  0
  -23.7800   -8.4080   22.0740 C   0  0  0  0  0  3  0  0  0  0  0  0
  -22.6190   -8.1670   21.3020 C   0  0  0  0  0  0  0  0  0  0  0  0
  -22.2210   -9.1170   20.3450 C   0  0  0  0  0  3  0  0  0  0  0  0
  -22.9530  -10.3030   20.1670 C   0  0  0  0  0  3  0  0  0  0  0  0
  -21.8610   -7.0240   21.3860 O   0  0  0  0  0  0  0  0  0  0  0  0
  -21.7510   -6.3180   22.5580 C   0  0  0  0  0  0  0  0  0  0  0  0
  -21.1910   -6.8900   23.7220 C   0  0  0  0  0  3  0  0  0  0  0  0
  -21.0330   -6.1070   24.8850 C   0  0  0  0  0  3  0  0  0  0  0  0
  -21.4250   -4.7560   24.8820 C   0  0  0  0  0  0  0  0  0  0  0  0
  -21.9770   -4.1840   23.7220 C   0  0  0  0  0  3  0  0  0  0  0  0
  -22.1370   -4.9630   22.5630 C   0  0  0  0  0  0  0  0  0  0  0  0
  -22.6520   -4.4020   21.4420 F   0  0  0  0  0  0  0  0  0  0  0  0
  -21.2660   -4.0020   25.9940 F   0  0  0  0  0  0  0  0  0  0  0  0
  -22.9920  -13.6660   21.1500 C   0  0  0  0  0  0  0  0  0  0  0  0
  -22.2840  -12.9620   22.0270 N   0  0  0  0  0  0  0  0  0  0  0  0
  -22.5480  -14.7020   20.6570 O   0  0  0  0  0  0  0  0  0  0  0  0
  -22.6560  -12.1240   22.4470 H   0  0  0  0  0  0  0  0  0  0  0  0
  -21.3570  -13.2660   22.2850 H   0  0  0  0  0  0  0  0  0  0  0  0
  -25.6150  -15.3210   20.2870 N   0  0  0  0  0  0  0  0  0  0  0  0
  -24.8570  -15.9800   20.4290 H   0  0  0  0  0  0  0  0  0  0  0  0
  -26.4660  -15.7570   19.9610 H   0  0  0  0  0  0  0  0  0  0  0  0
  -31.8560  -17.8260   17.3230 N   0  0  0  0  0  4  0  0  0  0  0  0
  -31.1100  -18.1200   16.7180 H   0  0  0  0  0  0  0  0  0  0  0  0
  -32.3050  -17.0250   16.9120 H   0  0  0  0  0  0  0  0  0  0  0  0
  -32.5390  -18.5630   17.3640 H   0  0  0  0  0  0  0  0  0  0  0  0
  -29.6060  -22.3510   22.0020 C   0  0  0  0  0  2  0  0  0  0  0  0
  -29.6090  -23.3300   20.8110 C   0  0  0  0  0  2  0  0  0  0  0  0
  -28.9340  -24.6870   21.1100 C   0  0  0  0  0  2  0  0  0  0  0  0
  -29.0710  -25.6900   19.9470 C   0  0  0  0  0  2  0  0  0  0  0  0
  -28.8210  -27.0220   20.3950 O   0  0  0  0  0  0  0  0  0  0  0  0
  -24.5420  -31.8620   23.3000 C   0  0  0  0  0  0  0  0  0  0  0  0
  -27.5700  -27.6010   20.3310 C   0  0  0  0  0  0  0  0  0  0  0  0
  -23.5000  -30.4410   21.5600 C   0  0  0  0  0  3  0  0  0  0  0  0
  -25.1020  -28.9840   20.2130 C   0  0  0  0  0  0  0  0  0  0  0  0
  -26.0100  -30.9160   21.5210 C   0  0  0  0  0  2  0  0  0  0  0  0
  -26.1930  -29.5570   20.8780 C   0  0  0  0  0  0  0  0  0  0  0  0
  -27.4230  -28.8720   20.9330 C   0  0  0  0  0  3  0  0  0  0  0  0
  -26.4530  -27.0270   19.6780 C   0  0  0  0  0  3  0  0  0  0  0  0
  -25.2260  -27.7180   19.6130 C   0  0  0  0  0  3  0  0  0  0  0  0
  -23.8210  -29.7890   20.1870 C   0  0  0  0  0  2  0  0  0  0  0  0
  -24.6980  -31.0880   22.1890 N   0  0  0  0  0  0  0  0  0  0  0  0
  -23.4190  -32.0810   23.7760 O   0  0  0  0  0  0  0  0  0  0  0  0
  -22.8330  -29.3810   22.4640 C   0  0  0  0  0  0  0  0  0  0  0  0
  -21.5190  -29.1810   22.2780 N   0  0  0  0  0  0  0  0  0  0  0  0
  -23.4960  -28.7420   23.2870 O   0  0  0  0  0  0  0  0  0  0  0  0
  -21.0460  -29.7490   21.5900 H   0  0  0  0  0  0  0  0  0  0  0  0
  -18.1330  -27.9840   22.6660 C   0  0  0  0  0  0  0  0  0  0  0  0
  -20.6890  -28.2040   22.9820 C   0  0  0  0  0  3  0  0  0  0  0  0
  -20.7880  -26.8090   22.3200 C   0  0  0  0  0  2  0  0  0  0  0  0
  -19.6940  -26.5590   21.2770 C   0  0  0  0  0  2  0  0  0  0  0  0
  -18.3070  -26.6750   21.9140 C   0  0  0  0  0  2  0  0  0  0  0  0
  -19.2520  -28.7090   23.1540 C   0  0  0  0  0  0  0  0  0  0  0  0
  -19.0360  -29.9380   23.8140 C   0  0  0  0  0  3  0  0  0  0  0  0
  -17.7330  -30.4390   23.9970 C   0  0  0  0  0  3  0  0  0  0  0  0
  -16.6280  -29.7080   23.5260 C   0  0  0  0  0  3  0  0  0  0  0  0
  -16.8290  -28.4840   22.8650 C   0  0  0  0  0  3  0  0  0  0  0  0
  -25.7600  -32.5310   24.0130 C   0  0  0  0  0  3  0  0  0  0  0  0
  -25.3990  -33.9290   24.2880 N   0  0  0  0  0  0  0  0  0  0  0  0
  -25.7720  -34.9720   23.5360 C   0  0  0  0  0  0  0  0  0  0  0  0
  -26.5280  -34.8640   22.5660 O   0  0  0  0  0  0  0  0  0  0  0  0
  -24.7380  -34.0870   25.0350 H   0  0  0  0  0  0  0  0  0  0  0  0
  -24.0550  -36.7260   22.9920 C   0  0  0  0  0  1  0  0  0  0  0  0
  -25.2210  -36.3580   23.9230 C   0  0  0  0  0  3  0  0  0  0  0  0
  -27.2440  -37.3040   24.9430 C   0  0  0  0  0  1  0  0  0  0  0  0
  -26.2420  -37.4280   23.8860 N   0  0  0  0  0  0  0  0  0  0  0  0
  -25.8090  -38.3440   23.9690 H   0  0  0  0  0  0  0  0  0  0  0  0
  -26.1850  -31.7920   25.3410 C   0  0  1  0  0  0  0  0  0  0  0  0
  -25.0100  -31.5350   26.3140 C   0  0  0  0  0  1  0  0  0  0  0  0
  -26.8360  -30.4290   25.0150 C   0  0  0  0  0  1  0  0  0  0  0  0
  -27.2470  -32.6300   26.0900 C   0  0  0  0  0  1  0  0  0  0  0  0
  1  2  1  0
  2  4  1  0
  2 52  1  0
  3  1  2  0
  6 11  1  0
  7  8  1  0
  7  6  1  0
  9  8  1  0
  9 23  1  0
  9 10  1  0
 11  5  1  0
 11 10  1  0
 12  5  2  0
 14 17  1  0
 15 13  1  0
 16 18  1  0
 16 19  1  0
 17  1  1  0
 17 13  1  0
 18 48  1  0
 18 14  1  0
 19  5  1  0
 19 15  1  0
 20 21  2  0
 21 40  1  0
 22 21  1  0
 22 25  1  0
 23 24  1  0
 23 20  1  0
 24 22  2  0
 25 26  1  0
 26 27  2  0
 28 31  1  0
 28 27  1  0
 29 28  2  0
 30 29  1  0
 30 25  2  0
 31 32  1  0
 32 37  2  0
 32 33  1  0
 33 34  2  0
 35 34  1  0
 35 39  1  0
 36 35  2  0
 37 36  1  0
 38 37  1  0
 40 41  1  0
 41 44  1  0
 41 43  1  0
 42 40  2  0
 45 46  1  0
 45 20  1  0
 47 45  1  0
 48 51  1  0
 49 48  1  0
 50 48  1  0
 53 54  1  0
 53 52  1  0
 55 56  1  0
 55 54  1  0
 57 68  2  0
 58 56  1  0
 58 63  1  0
 59 67  1  0
 59 69  1  0
 60 62  1  0
 61 67  1  0
 62 63  2  0
 62 61  1  0
 64 58  2  0
 65 64  1  0
 65 60  2  0
 66 60  1  0
 66 59  1  0
 67 57  1  0
 69 71  2  0
 70 69  1  0
 72 70  1  0
 73 82  2  0
 73 78  1  0
 74 70  1  0
 74 78  1  0
 75 74  1  0
 76 77  1  0
 76 75  1  0
 77 73  1  0
 78 79  2  0
 79 80  1  0
 81 80  2  0
 82 81  1  0
 83 57  1  0
 83 84  1  0
 83 93  1  0
 84 87  1  0
 85 89  1  0
 85 84  1  0
 86 85  2  0
 89 88  1  0
 91 89  1  0
 91 92  1  0
 91 90  1  0
 93 96  1  1
 93 94  1  0
 95 93  1  0
M  ISO  4   5 100  19 100  55 101  56 101
M  END
>  <TORSDO>  (98) 
F 21

>  <SCORE>  (98) 
-13.417

>  <name>  (98) 
98

>  <ligand_id>  (98) 
98

>  <original_smiles>  (98) 
[H]c1c([H])c([H])c2c(c1[H])C([H])([H])C([H])([H])C([H])([H])C2([H])N([H])C(=O)C1([H])N(C(=O)C([H])(N([H])C(=O)C([H])(N([H])C([H])([H])[H])C([H])([H])[H])C(C([H])([H])[H])(C([H])([H])[H])C([H])([H])[H])C([H])([H])c2c([H])c(OC([H])([H])C([H])([H])C([H])([H])C([H])([H])N([H])C(=O)C3([H])C([H])([H])C([H])([H])N(C(=O)N4C([H])([H])C([H])([H])C([H])([H])C([H])(n5nc(-c6c([H])c([H])c(Oc7c([H])c([H])c(F)c([H])c7F)c([H])c6[H])c(C(=O)N([H])[H])c5N([H])[H])C4([H])[H])C([H])([H])C([H])([N+]([H])([H])[H])C3([H])[H])c([H])c([H])c2C1([H])[H]

>  <smiles>  (98) 
[H]c1c([H])c([H])c2c(c1[H])C([H])([H])C([H])([H])C([H])([H])C2([H])N([H])C(=O)C1([H])N(C(=O)C([H])(N([H])C(=O)C([H])(N([H])C([H])([H])[H])C([H])([H])[H])C(C([H])([H])[H])(C([H])([H])[H])C([H])([H])[H])C([H])([H])c2c([H])c(OC([H])([H])C([H])([H])C([H])([H])C([H])([H])N([H])C(=O)C3([H])C([H])([H])C([H])([H])N(C(=O)N4C([H])([H])C([H])([H])C([H])([H])C([H])(n5nc(-c6c([H])c([H])c(Oc7c([H])c([H])c(F)c([H])c7F)c([H])c6[H])c(C(=O)N([H])[H])c5N([H])[H])C4([H])[H])C([H])([H])C([H])([N+]([H])([H])[H])C3([H])[H])c([H])c([H])c2C1([H])[H]

$$$$
99:0:0
     RDKit          3D

 93101  0  0  1  0  0  0  0  0999 V2000
  -28.9220  -19.2130   20.3900 C   0  0  0  0  0  2  0  0  0  0  0  0
  -28.9910  -20.5960   21.0750 C   0  0  0  0  0  2  0  0  0  0  0  0
  -28.7920  -21.7680   20.0960 C   0  0  0  0  0  2  0  0  0  0  0  0
  -28.8890  -23.1480   20.7730 C   0  0  0  0  0  2  0  0  0  0  0  0
  -28.6310  -24.3190   19.8050 C   0  0  0  0  0  2  0  0  0  0  0  0
  -28.7140  -25.6920   20.4930 C   0  0  0  0  0  2  0  0  0  0  0  0
  -28.5450  -26.7450   19.5430 O   0  0  0  0  0  0  0  0  0  0  0  0
  -24.6690  -31.5450   23.0820 C   0  0  0  0  0  0  0  0  0  0  0  0
  -27.3570  -27.4200   19.6470 C   0  0  0  0  0  0  0  0  0  0  0  0
  -23.4570  -30.2160   21.3830 C   0  0  0  0  0  3  0  0  0  0  0  0
  -24.9150  -28.8190   19.8240 C   0  0  0  0  0  0  0  0  0  0  0  0
  -25.9600  -30.6740   21.1400 C   0  0  0  0  0  2  0  0  0  0  0  0
  -26.0710  -29.3500   20.4130 C   0  0  0  0  0  0  0  0  0  0  0  0
  -27.2970  -28.6580   20.3230 C   0  0  0  0  0  3  0  0  0  0  0  0
  -26.1920  -26.8940   19.0550 C   0  0  0  0  0  3  0  0  0  0  0  0
  -24.9690  -27.5880   19.1430 C   0  0  0  0  0  3  0  0  0  0  0  0
  -23.6450  -29.6280   19.9590 C   0  0  0  0  0  2  0  0  0  0  0  0
  -24.7150  -30.8240   21.9270 N   0  0  0  0  0  0  0  0  0  0  0  0
  -23.5980  -31.7500   23.6690 O   0  0  0  0  0  0  0  0  0  0  0  0
  -22.8630  -29.1180   22.2940 C   0  0  0  0  0  0  0  0  0  0  0  0
  -21.5510  -28.8710   22.1540 N   0  0  0  0  0  0  0  0  0  0  0  0
  -23.5790  -28.4920   23.0810 O   0  0  0  0  0  0  0  0  0  0  0  0
  -21.0350  -29.4330   21.4920 H   0  0  0  0  0  0  0  0  0  0  0  0
  -18.2520  -27.4520   22.5530 C   0  0  0  0  0  0  0  0  0  0  0  0
  -20.7850  -27.8540   22.8740 C   0  0  0  0  0  3  0  0  0  0  0  0
  -20.9840  -26.4570   22.2420 C   0  0  0  0  0  2  0  0  0  0  0  0
  -19.9170  -26.1090   21.1990 C   0  0  0  0  0  2  0  0  0  0  0  0
  -18.5200  -26.1430   21.8280 C   0  0  0  0  0  2  0  0  0  0  0  0
  -19.3160  -28.2620   23.0290 C   0  0  0  0  0  0  0  0  0  0  0  0
  -19.0130  -29.4850   23.6640 C   0  0  0  0  0  3  0  0  0  0  0  0
  -17.6790  -29.8990   23.8300 C   0  0  0  0  0  3  0  0  0  0  0  0
  -16.6290  -29.0850   23.3710 C   0  0  0  0  0  3  0  0  0  0  0  0
  -16.9160  -27.8630   22.7380 C   0  0  0  0  0  3  0  0  0  0  0  0
  -25.9550  -32.1720   23.7090 C   0  0  0  0  0  3  0  0  0  0  0  0
  -26.5130  -31.3510   24.9350 C   0  0  1  0  0  0  0  0  0  0  0  0
  -25.4430  -31.0330   26.0070 C   0  0  0  0  0  1  0  0  0  0  0  0
  -27.1210  -30.0090   24.4600 C   0  0  0  0  0  1  0  0  0  0  0  0
  -27.6570  -32.1400   25.6160 C   0  0  0  0  0  1  0  0  0  0  0  0
  -25.6270  -33.5460   24.1050 N   0  0  0  0  0  0  0  0  0  0  0  0
  -25.9450  -34.6390   23.3970 C   0  0  0  0  0  0  0  0  0  0  0  0
  -26.6130  -34.5940   22.3600 O   0  0  0  0  0  0  0  0  0  0  0  0
  -25.0290  -33.6540   24.9120 H   0  0  0  0  0  0  0  0  0  0  0  0
  -24.1880  -36.4190   23.1360 C   0  0  0  0  0  1  0  0  0  0  0  0
  -25.4400  -35.9970   23.9210 C   0  0  0  0  0  3  0  0  0  0  0  0
  -27.5650  -36.8770   24.7820 C   0  0  0  0  0  1  0  0  0  0  0  0
  -26.4570  -37.0690   23.8490 N   0  0  0  0  0  0  0  0  0  0  0  0
  -26.0380  -37.9760   24.0370 H   0  0  0  0  0  0  0  0  0  0  0  0
  -28.8810  -18.0190   21.3730 C   0  0  0  0  0  2  0  0  0  0  0  0
  -30.1050  -17.8240   22.1940 N   0  0  0  0  0  4  0  0  0  0  0  0
  -30.6410  -18.6770   22.2130 H   0  0  0  0  0  0  0  0  0  0  0  0
  -29.7880  -17.6690   23.1380 H   0  0  0  0  0  0  0  0  0  0  0  0
  -31.7130  -13.9300   19.4410 C   0  0  0  0  0  0  0  0  0  0  0  0
  -31.0330  -11.7560   18.4820 C   0  0  0  0  0  2  0  0  0  0  0  0
  -29.9530  -11.9320   17.3940 C   0  0  0  0  0  2  0  0  0  0  0  0
  -28.5430  -11.9420   18.0120 C   0  0  0  0  0  2  0  0  0  0  0  0
  -28.4440  -12.8920   19.2330 C   0  0  0  0  0  3  0  0  0  0  0  0
  -29.6150  -12.6280   20.2030 C   0  0  0  0  0  2  0  0  0  0  0  0
  -30.8880  -12.8340   19.4870 N   0  0  0  0  0  0  0  0  0  0  0  0
  -32.6050  -13.9870   18.5850 O   0  0  0  0  0  0  0  0  0  0  0  0
  -32.2170  -17.1360   21.0730 C   0  0  0  0  0  0  0  0  0  0  0  0
  -32.7880  -15.8970   20.4200 C   0  0  0  0  0  2  0  0  0  0  0  0
  -30.5500  -15.4330   21.1890 C   0  0  0  0  0  2  0  0  0  0  0  0
  -31.0460  -16.7120   21.8890 C   0  0  0  0  0  3  0  0  0  0  0  0
  -31.6910  -14.8940   20.4120 N   0  0  0  0  0  0  0  0  0  0  0  0
  -32.6780  -18.2720   20.9480 O   0  0  0  0  0  0  0  0  0  0  0  0
  -26.3210  -13.7600   20.4030 C   0  0  0  0  0  0  0  0  0  0  0  0
  -25.2120  -13.1150   20.8820 C   0  0  0  0  0  0  0  0  0  0  0  0
  -25.4280  -11.7250   20.6370 C   0  0  0  0  0  0  0  0  0  0  0  0
  -27.1530  -12.7690   19.9060 N   0  0  0  0  0  0  0  0  0  0  0  0
  -26.6250  -11.5320   20.0990 N   0  0  0  0  0  0  0  0  0  0  0  0
  -24.5390  -10.5710   20.8340 C   0  0  0  0  0  0  0  0  0  0  0  0
  -24.8570   -9.5430   21.7490 C   0  0  0  0  0  3  0  0  0  0  0  0
  -23.9800   -8.4530   21.9330 C   0  0  0  0  0  3  0  0  0  0  0  0
  -22.7710   -8.3840   21.2020 C   0  0  0  0  0  0  0  0  0  0  0  0
  -22.4710   -9.3970   20.2750 C   0  0  0  0  0  3  0  0  0  0  0  0
  -23.3480  -10.4810   20.0890 C   0  0  0  0  0  3  0  0  0  0  0  0
  -21.8710   -7.3500   21.2950 O   0  0  0  0  0  0  0  0  0  0  0  0
  -21.6330   -6.7070   22.4830 C   0  0  0  0  0  0  0  0  0  0  0  0
  -21.1900   -7.4020   23.6290 C   0  0  0  0  0  3  0  0  0  0  0  0
  -20.8900   -6.6940   24.8100 C   0  0  0  0  0  3  0  0  0  0  0  0
  -21.0230   -5.2930   24.8440 C   0  0  0  0  0  0  0  0  0  0  0  0
  -21.4590   -4.5990   23.7020 C   0  0  0  0  0  3  0  0  0  0  0  0
  -21.7600   -5.3040   22.5240 C   0  0  0  0  0  0  0  0  0  0  0  0
  -22.1590   -4.6290   21.4190 F   0  0  0  0  0  0  0  0  0  0  0  0
  -20.7270   -4.6110   25.9750 F   0  0  0  0  0  0  0  0  0  0  0  0
  -23.9760  -13.7590   21.4450 C   0  0  0  0  0  0  0  0  0  0  0  0
  -23.3310  -13.1100   22.4070 N   0  0  0  0  0  0  0  0  0  0  0  0
  -23.6040  -14.8680   21.0630 O   0  0  0  0  0  0  0  0  0  0  0  0
  -23.6510  -12.2110   22.7350 H   0  0  0  0  0  0  0  0  0  0  0  0
  -22.5040  -13.5190   22.8190 H   0  0  0  0  0  0  0  0  0  0  0  0
  -26.6820  -15.1030   20.3290 N   0  0  0  0  0  0  0  0  0  0  0  0
  -26.0310  -15.8360   20.5890 H   0  0  0  0  0  0  0  0  0  0  0  0
  -27.4700  -15.4440   19.7930 H   0  0  0  0  0  0  0  0  0  0  0  0
  1  2  1  0
  1 48  1  0
  3  4  1  0
  3  2  1  0
  5  6  1  0
  5  4  1  0
  7  9  1  0
  7  6  1  0
  8 19  2  0
  9 14  1  0
 10 18  1  0
 10 20  1  0
 11 17  1  0
 11 13  1  0
 12 18  1  0
 13 12  1  0
 14 13  2  0
 15 16  1  0
 15  9  2  0
 16 11  2  0
 17 10  1  0
 18  8  1  0
 20 22  2  0
 21 20  1  0
 23 21  1  0
 24 33  2  0
 24 29  1  0
 25 21  1  0
 25 29  1  0
 26 25  1  0
 27 28  1  0
 27 26  1  0
 28 24  1  0
 29 30  2  0
 30 31  1  0
 32 31  2  0
 33 32  1  0
 34  8  1  0
 34 39  1  0
 34 35  1  0
 35 38  1  1
 35 36  1  0
 37 35  1  0
 39 42  1  0
 40 44  1  0
 40 39  1  0
 41 40  2  0
 44 43  1  0
 46 44  1  0
 46 47  1  0
 46 45  1  0
 48 49  1  0
 49 50  1  0
 49 51  1  0
 52 58  1  0
 52 64  1  0
 53 58  1  0
 54 55  1  0
 54 53  1  0
 56 55  1  0
 56 69  1  0
 56 57  1  0
 58 57  1  0
 59 52  2  0
 60 63  1  0
 61 60  1  0
 62 63  1  0
 63 49  1  0
 64 61  1  0
 64 62  1  0
 65 60  2  0
 66 67  2  0
 67 86  1  0
 68 71  1  0
 68 67  1  0
 69 70  1  0
 69 66  1  0
 70 68  2  0
 71 72  1  0
 72 73  2  0
 74 77  1  0
 74 73  1  0
 75 74  2  0
 76 75  1  0
 76 71  2  0
 77 78  1  0
 78 83  2  0
 78 79  1  0
 79 80  2  0
 80 81  1  0
 81 85  1  0
 82 81  2  0
 83 82  1  0
 84 83  1  0
 86 87  1  0
 87 89  1  0
 87 90  1  0
 88 86  2  0
 91 66  1  0
 91 92  1  0
 93 91  1  0
M  ISO  4   6 101   7 101  52 100  64 100
M  END
>  <TORSDO>  (99) 
F 23

>  <SCORE>  (99) 
-9.650

>  <name>  (99) 
99

>  <ligand_id>  (99) 
99

>  <original_smiles>  (99) 
[H]c1c([H])c([H])c2c(c1[H])C([H])([H])C([H])([H])C([H])([H])C2([H])N([H])C(=O)C1([H])N(C(=O)C([H])(N([H])C(=O)C([H])(N([H])C([H])([H])[H])C([H])([H])[H])C(C([H])([H])[H])(C([H])([H])[H])C([H])([H])[H])C([H])([H])c2c([H])c(OC([H])([H])C([H])([H])C([H])([H])C([H])([H])C([H])([H])C([H])([H])C([H])([H])[N+]([H])([H])C3([H])C(=O)C([H])([H])N(C(=O)N4C([H])([H])C([H])([H])C([H])([H])C([H])(n5nc(-c6c([H])c([H])c(Oc7c([H])c([H])c(F)c([H])c7F)c([H])c6[H])c(C(=O)N([H])[H])c5N([H])[H])C4([H])[H])C3([H])[H])c([H])c([H])c2C1([H])[H]

>  <smiles>  (99) 
[H]c1c([H])c([H])c2c(c1[H])C([H])([H])C([H])([H])C([H])([H])C2([H])N([H])C(=O)C1([H])N(C(=O)C([H])(N([H])C(=O)C([H])(N([H])C([H])([H])[H])C([H])([H])[H])C(C([H])([H])[H])(C([H])([H])[H])C([H])([H])[H])C([H])([H])c2c([H])c(OC([H])([H])C([H])([H])C([H])([H])C([H])([H])C([H])([H])C([H])([H])C([H])([H])[N+]([H])([H])C3([H])C(=O)C([H])([H])N(C(=O)N4C([H])([H])C([H])([H])C([H])([H])C([H])(n5nc(-c6c([H])c([H])c(Oc7c([H])c([H])c(F)c([H])c7F)c([H])c6[H])c(C(=O)N([H])[H])c5N([H])[H])C4([H])[H])C3([H])[H])c([H])c([H])c2C1([H])[H]

$$$$
