0:0:0
     RDKit          3D

 92100  0  0  1  0  0  0  0  0999 V2000
  -30.4540  -21.7170   21.2480 C   0  0  0  0  0  2  0  0  0  0  0  0
  -29.6910  -22.8280   21.9860 C   0  0  0  0  0  2  0  0  0  0  0  0
  -29.8860  -24.2090   21.3410 C   0  0  0  0  0  2  0  0  0  0  0  0
  -29.2480  -25.3380   22.1650 C   0  0  0  0  0  2  0  0  0  0  0  0
  -29.4190  -26.7210   21.5210 C   0  0  0  0  0  2  0  0  0  0  0  0
  -28.6400  -26.7960   20.3240 O   0  0  0  0  0  0  0  0  0  0  0  0
  -24.6840  -31.9460   23.2920 C   0  0  0  0  0  0  0  0  0  0  0  0
  -27.4740  -27.5290   20.3520 C   0  0  0  0  0  0  0  0  0  0  0  0
  -23.5270  -30.4970   21.6490 C   0  0  0  0  0  3  0  0  0  0  0  0
  -25.0340  -28.9560   20.2850 C   0  0  0  0  0  0  0  0  0  0  0  0
  -26.0420  -30.9080   21.4840 C   0  0  0  0  0  2  0  0  0  0  0  0
  -26.1640  -29.5270   20.8810 C   0  0  0  0  0  0  0  0  0  0  0  0
  -27.3840  -28.8260   20.9100 C   0  0  0  0  0  3  0  0  0  0  0  0
  -26.3320  -26.9700   19.7450 C   0  0  0  0  0  3  0  0  0  0  0  0
  -25.1100  -27.6730   19.7130 C   0  0  0  0  0  3  0  0  0  0  0  0
  -23.7720  -29.7890   20.2890 C   0  0  0  0  0  2  0  0  0  0  0  0
  -24.7680  -31.1320   22.2020 N   0  0  0  0  0  0  0  0  0  0  0  0
  -23.5900  -32.2110   23.8100 O   0  0  0  0  0  0  0  0  0  0  0  0
  -22.8760  -29.4850   22.6170 C   0  0  0  0  0  0  0  0  0  0  0  0
  -21.5640  -29.2560   22.4450 N   0  0  0  0  0  0  0  0  0  0  0  0
  -23.5480  -28.9050   23.4740 O   0  0  0  0  0  0  0  0  0  0  0  0
  -21.0840  -29.7760   21.7240 H   0  0  0  0  0  0  0  0  0  0  0  0
  -18.2040  -28.0030   22.8720 C   0  0  0  0  0  0  0  0  0  0  0  0
  -20.7480  -28.3150   23.2100 C   0  0  0  0  0  3  0  0  0  0  0  0
  -20.8940  -26.8770   22.6600 C   0  0  0  0  0  2  0  0  0  0  0  0
  -19.8270  -26.5160   21.6220 C   0  0  0  0  0  2  0  0  0  0  0  0
  -18.4250  -26.6450   22.2270 C   0  0  0  0  0  2  0  0  0  0  0  0
  -19.2960  -28.7940   23.3190 C   0  0  0  0  0  0  0  0  0  0  0  0
  -19.0370  -30.0640   23.8790 C   0  0  0  0  0  3  0  0  0  0  0  0
  -17.7200  -30.5440   23.9990 C   0  0  0  0  0  3  0  0  0  0  0  0
  -16.6420  -29.7500   23.5690 C   0  0  0  0  0  3  0  0  0  0  0  0
  -16.8850  -28.4810   23.0120 C   0  0  0  0  0  3  0  0  0  0  0  0
  -25.9520  -32.6030   23.9250 C   0  0  0  0  0  3  0  0  0  0  0  0
  -26.4530  -31.8630   25.2250 C   0  0  1  0  0  0  0  0  0  0  0  0
  -25.3350  -31.5980   26.2600 C   0  0  0  0  0  1  0  0  0  0  0  0
  -27.0950  -30.5030   24.8640 C   0  0  0  0  0  1  0  0  0  0  0  0
  -27.5530  -32.7030   25.9160 C   0  0  0  0  0  1  0  0  0  0  0  0
  -25.6240  -34.0050   24.2160 N   0  0  0  0  0  0  0  0  0  0  0  0
  -26.0000  -35.0450   23.4590 C   0  0  0  0  0  0  0  0  0  0  0  0
  -26.7300  -34.9250   22.4700 O   0  0  0  0  0  0  0  0  0  0  0  0
  -24.9860  -34.1720   24.9790 H   0  0  0  0  0  0  0  0  0  0  0  0
  -24.3240  -36.8450   22.9410 C   0  0  0  0  0  1  0  0  0  0  0  0
  -25.4850  -36.4390   23.8630 C   0  0  0  0  0  3  0  0  0  0  0  0
  -27.5400  -37.3160   24.8800 C   0  0  0  0  0  1  0  0  0  0  0  0
  -26.5320  -37.4830   23.8360 N   0  0  0  0  0  0  0  0  0  0  0  0
  -26.1210  -38.4080   23.9370 H   0  0  0  0  0  0  0  0  0  0  0  0
  -30.1320  -20.3150   21.7940 C   0  0  0  0  0  2  0  0  0  0  0  0
  -30.8320  -19.2520   21.0400 N   0  0  0  0  0  4  0  0  0  0  0  0
  -30.6060  -19.3270   20.0620 H   0  0  0  0  0  0  0  0  0  0  0  0
  -31.8210  -19.4170   21.1350 H   0  0  0  0  0  0  0  0  0  0  0  0
  -30.4410  -14.3120   19.7440 C   0  0  0  0  0  0  0  0  0  0  0  0
  -29.9340  -12.2730   18.4420 C   0  0  0  0  0  2  0  0  0  0  0  0
  -28.8220  -12.5210   17.4050 C   0  0  0  0  0  2  0  0  0  0  0  0
  -27.4310  -12.3220   18.0340 C   0  0  0  0  0  2  0  0  0  0  0  0
  -27.2740  -13.0910   19.3710 C   0  0  0  0  0  3  0  0  0  0  0  0
  -28.4750  -12.8050   20.3020 C   0  0  0  0  0  2  0  0  0  0  0  0
  -29.7100  -13.1720   19.5880 N   0  0  0  0  0  0  0  0  0  0  0  0
  -31.3600  -14.6150   18.9760 O   0  0  0  0  0  0  0  0  0  0  0  0
  -31.7600  -16.9470   21.2870 C   0  0  0  0  0  2  0  0  0  0  0  0
  -29.3120  -17.2850   20.7750 C   0  0  0  0  0  2  0  0  0  0  0  0
  -31.4260  -15.4870   21.6620 C   0  0  0  0  0  2  0  0  0  0  0  0
  -29.0710  -15.8160   21.1660 C   0  0  0  0  0  2  0  0  0  0  0  0
  -30.5440  -17.8730   21.4970 C   0  0  0  0  0  3  0  0  0  0  0  0
  -30.2650  -14.9940   20.9040 N   0  0  0  0  0  0  0  0  0  0  0  0
  -24.9890  -13.6400   20.4260 C   0  0  0  0  0  0  0  0  0  0  0  0
  -23.9920  -12.8370   20.9120 C   0  0  0  0  0  0  0  0  0  0  0  0
  -24.4600  -11.4950   20.7650 C   0  0  0  0  0  0  0  0  0  0  0  0
  -26.0010  -12.7840   20.0200 N   0  0  0  0  0  0  0  0  0  0  0  0
  -25.6940  -11.4880   20.2780 N   0  0  0  0  0  0  0  0  0  0  0  0
  -23.7850  -10.2140   21.0070 C   0  0  0  0  0  0  0  0  0  0  0  0
  -24.2770   -9.2880   21.9510 C   0  0  0  0  0  3  0  0  0  0  0  0
  -23.6010   -8.0690   22.1780 C   0  0  0  0  0  3  0  0  0  0  0  0
  -22.4190   -7.7700   21.4590 C   0  0  0  0  0  0  0  0  0  0  0  0
  -21.9460   -8.6870   20.5030 C   0  0  0  0  0  3  0  0  0  0  0  0
  -22.6230   -9.8960   20.2750 C   0  0  0  0  0  3  0  0  0  0  0  0
  -21.7090   -6.6010   21.5950 O   0  0  0  0  0  0  0  0  0  0  0  0
  -21.6490   -5.9310   22.7910 C   0  0  0  0  0  0  0  0  0  0  0  0
  -21.1390   -6.5380   23.9590 C   0  0  0  0  0  3  0  0  0  0  0  0
  -21.0300   -5.7910   25.1500 C   0  0  0  0  0  3  0  0  0  0  0  0
  -21.4180   -4.4380   25.1720 C   0  0  0  0  0  0  0  0  0  0  0  0
  -21.9210   -3.8310   24.0070 C   0  0  0  0  0  3  0  0  0  0  0  0
  -22.0330   -4.5750   22.8190 C   0  0  0  0  0  0  0  0  0  0  0  0
  -22.4970   -3.9800   21.6940 F   0  0  0  0  0  0  0  0  0  0  0  0
  -21.3060   -3.7180   26.3120 F   0  0  0  0  0  0  0  0  0  0  0  0
  -22.6410  -13.2780   21.3970 C   0  0  0  0  0  0  0  0  0  0  0  0
  -22.0480  -12.5340   22.3240 N   0  0  0  0  0  0  0  0  0  0  0  0
  -22.1220  -14.3170   20.9880 O   0  0  0  0  0  0  0  0  0  0  0  0
  -22.4810  -11.6930   22.6740 H   0  0  0  0  0  0  0  0  0  0  0  0
  -21.1480  -12.8110   22.6900 H   0  0  0  0  0  0  0  0  0  0  0  0
  -25.1090  -15.0180   20.2780 N   0  0  0  0  0  0  0  0  0  0  0  0
  -24.3560  -15.6550   20.5140 H   0  0  0  0  0  0  0  0  0  0  0  0
  -25.8940  -15.4820   19.8370 H   0  0  0  0  0  0  0  0  0  0  0  0
  1 47  1  0
  1  2  1  0
  3  2  1  0
  3  4  1  0
  5  4  1  0
  6  8  1  0
  6  5  1  0
  7 18  2  0
  8 13  1  0
  9 17  1  0
  9 19  1  0
 10 16  1  0
 10 12  1  0
 11 17  1  0
 12 13  2  0
 12 11  1  0
 14  8  2  0
 15 14  1  0
 15 10  2  0
 16  9  1  0
 17  7  1  0
 19 21  2  0
 20 19  1  0
 22 20  1  0
 23 32  2  0
 23 28  1  0
 24 20  1  0
 24 28  1  0
 25 24  1  0
 26 27  1  0
 26 25  1  0
 27 23  1  0
 28 29  2  0
 29 30  1  0
 31 30  2  0
 32 31  1  0
 33  7  1  0
 33 38  1  0
 33 34  1  0
 34 37  1  1
 34 35  1  0
 36 34  1  0
 38 41  1  0
 39 43  1  0
 39 38  1  0
 40 39  2  0
 43 42  1  0
 45 43  1  0
 45 46  1  0
 45 44  1  0
 48 50  1  0
 48 47  1  0
 49 48  1  0
 51 64  1  0
 52 57  1  0
 53 54  1  0
 53 52  1  0
 55 54  1  0
 55 68  1  0
 55 56  1  0
 57 51  1  0
 57 56  1  0
 58 51  2  0
 59 63  1  0
 59 61  1  0
 60 62  1  0
 60 63  1  0
 63 48  1  0
 64 62  1  0
 64 61  1  0
 65 66  2  0
 66 85  1  0
 67 66  1  0
 67 70  1  0
 68 69  1  0
 68 65  1  0
 69 67  2  0
 70 71  1  0
 71 72  2  0
 73 76  1  0
 73 72  1  0
 74 73  2  0
 75 74  1  0
 75 70  2  0
 76 77  1  0
 77 82  2  0
 77 78  1  0
 78 79  2  0
 79 80  1  0
 80 84  1  0
 81 80  2  0
 82 81  1  0
 83 82  1  0
 85 86  1  0
 86 88  1  0
 86 89  1  0
 87 85  2  0
 90 65  1  0
 90 91  1  0
 92 90  1  0
M  ISO  4   5 101   6 101  51 100  64 100
M  END
>  <TORSDO>  (1) 
F 22

>  <SCORE>  (1) 
-11.932

>  <name>  (1) 
0

>  <ligand_id>  (1) 
0

>  <original_smiles>  (1) 
[H]c1c([H])c([H])c2c(c1[H])C([H])([H])C([H])([H])C([H])([H])C2([H])N([H])C(=O)C1([H])N(C(=O)C([H])(N([H])C(=O)C([H])(N([H])C([H])([H])[H])C([H])([H])[H])C(C([H])([H])[H])(C([H])([H])[H])C([H])([H])[H])C([H])([H])c2c([H])c(OC([H])([H])C([H])([H])C([H])([H])C([H])([H])C([H])([H])C([H])([H])[N+]([H])([H])C3([H])C([H])([H])C([H])([H])N(C(=O)N4C([H])([H])C([H])([H])C([H])([H])C([H])(n5nc(-c6c([H])c([H])c(Oc7c([H])c([H])c(F)c([H])c7F)c([H])c6[H])c(C(=O)N([H])[H])c5N([H])[H])C4([H])[H])C([H])([H])C3([H])[H])c([H])c([H])c2C1([H])[H]

>  <smiles>  (1) 
[H]c1c([H])c([H])c2c(c1[H])C([H])([H])C([H])([H])C([H])([H])C2([H])N([H])C(=O)C1([H])N(C(=O)C([H])(N([H])C(=O)C([H])(N([H])C([H])([H])[H])C([H])([H])[H])C(C([H])([H])[H])(C([H])([H])[H])C([H])([H])[H])C([H])([H])c2c([H])c(OC([H])([H])C([H])([H])C([H])([H])C([H])([H])C([H])([H])C([H])([H])[N+]([H])([H])C3([H])C([H])([H])C([H])([H])N(C(=O)N4C([H])([H])C([H])([H])C([H])([H])C([H])(n5nc(-c6c([H])c([H])c(Oc7c([H])c([H])c(F)c([H])c7F)c([H])c6[H])c(C(=O)N([H])[H])c5N([H])[H])C4([H])[H])C([H])([H])C3([H])[H])c([H])c([H])c2C1([H])[H]

$$$$
1:0:0
     RDKit          3D

 93101  0  0  1  0  0  0  0  0999 V2000
  -29.1760  -20.2450   20.3710 C   0  0  0  0  0  0  0  0  0  0  0  0
  -28.9090  -19.9580   19.2000 O   0  0  0  0  0  0  0  0  0  0  0  0
  -30.0260  -18.0080   21.0050 C   0  0  0  0  0  3  0  0  0  0  0  0
  -29.7430  -19.2840   21.3310 C   0  0  0  0  0  3  0  0  0  0  0  0
  -31.2090  -15.9210   21.6760 C   0  0  0  0  0  0  0  0  0  0  0  0
  -30.5930  -17.0810   21.9700 C   0  0  0  0  0  3  0  0  0  0  0  0
  -31.8700  -15.0400   22.7110 C   0  0  0  0  0  2  0  0  0  0  0  0
  -32.8910  -14.1860   21.9460 C   0  0  0  0  0  2  0  0  0  0  0  0
  -32.8920  -14.7060   20.5000 C   0  0  0  0  0  2  0  0  0  0  0  0
  -31.5270  -15.3820   20.2990 C   0  0  0  0  0  3  0  0  0  0  0  0
  -30.3930  -13.8530   18.6960 C   0  0  0  0  0  0  0  0  0  0  0  0
  -29.5150  -11.8950   17.4820 C   0  0  0  0  0  2  0  0  0  0  0  0
  -28.2690  -12.2190   16.6410 C   0  0  0  0  0  2  0  0  0  0  0  0
  -26.9940  -12.0940   17.4930 C   0  0  0  0  0  2  0  0  0  0  0  0
  -27.0970  -12.8740   18.8280 C   0  0  0  0  0  3  0  0  0  0  0  0
  -28.4180  -12.5480   19.5610 C   0  0  0  0  0  2  0  0  0  0  0  0
  -29.5470  -12.7950   18.6430 N   0  0  0  0  0  0  0  0  0  0  0  0
  -31.1030  -14.2090   17.7500 O   0  0  0  0  0  0  0  0  0  0  0  0
  -30.5200  -14.4010   19.9090 N   0  0  0  0  0  0  0  0  0  0  0  0
  -29.9310  -14.0320   20.6390 H   0  0  0  0  0  0  0  0  0  0  0  0
  -25.0760  -13.5330   20.2830 C   0  0  0  0  0  0  0  0  0  0  0  0
  -24.1150  -12.7830   20.9070 C   0  0  0  0  0  0  0  0  0  0  0  0
  -24.4400  -11.4190   20.6340 C   0  0  0  0  0  0  0  0  0  0  0  0
  -25.9340  -12.6260   19.6790 N   0  0  0  0  0  0  0  0  0  0  0  0
  -25.5690  -11.3450   19.9400 N   0  0  0  0  0  0  0  0  0  0  0  0
  -23.7130  -10.1820   20.9470 C   0  0  0  0  0  0  0  0  0  0  0  0
  -24.2700   -9.1910   21.7850 C   0  0  0  0  0  3  0  0  0  0  0  0
  -23.5440   -8.0180   22.0850 C   0  0  0  0  0  3  0  0  0  0  0  0
  -22.2490   -7.8280   21.5480 C   0  0  0  0  0  0  0  0  0  0  0  0
  -21.7090   -8.8070   20.6960 C   0  0  0  0  0  3  0  0  0  0  0  0
  -22.4340   -9.9710   20.3940 C   0  0  0  0  0  3  0  0  0  0  0  0
  -21.4810   -6.7090   21.7640 O   0  0  0  0  0  0  0  0  0  0  0  0
  -21.5430   -6.0090   22.9430 C   0  0  0  0  0  0  0  0  0  0  0  0
  -21.2220   -6.6060   24.1810 C   0  0  0  0  0  3  0  0  0  0  0  0
  -21.2300   -5.8320   25.3580 C   0  0  0  0  0  3  0  0  0  0  0  0
  -21.5510   -4.4630   25.2990 C   0  0  0  0  0  0  0  0  0  0  0  0
  -21.8670   -3.8650   24.0660 C   0  0  0  0  0  3  0  0  0  0  0  0
  -21.8600   -4.6370   22.8910 C   0  0  0  0  0  0  0  0  0  0  0  0
  -22.1440   -4.0520   21.7020 F   0  0  0  0  0  0  0  0  0  0  0  0
  -21.5530   -3.7180   26.4290 F   0  0  0  0  0  0  0  0  0  0  0  0
  -22.9080  -13.3010   21.6360 C   0  0  0  0  0  0  0  0  0  0  0  0
  -22.4610  -12.5870   22.6630 N   0  0  0  0  0  0  0  0  0  0  0  0
  -22.3830  -14.3690   21.3260 O   0  0  0  0  0  0  0  0  0  0  0  0
  -22.9050  -11.7210   22.9310 H   0  0  0  0  0  0  0  0  0  0  0  0
  -21.6650  -12.9130   23.1920 H   0  0  0  0  0  0  0  0  0  0  0  0
  -25.2830  -14.9050   20.1670 N   0  0  0  0  0  0  0  0  0  0  0  0
  -24.6420  -15.5860   20.5550 H   0  0  0  0  0  0  0  0  0  0  0  0
  -26.0420  -15.3260   19.6450 H   0  0  0  0  0  0  0  0  0  0  0  0
  -28.9110  -21.6630   20.8930 C   0  0  0  0  0  2  0  0  0  0  0  0
  -28.7480  -22.7270   19.7900 C   0  0  0  0  0  2  0  0  0  0  0  0
  -28.5470  -24.1410   20.3610 C   0  0  0  0  0  2  0  0  0  0  0  0
  -28.6520  -25.2370   19.2890 C   0  0  0  0  0  2  0  0  0  0  0  0
  -28.5220  -26.5310   19.8730 O   0  0  0  0  0  0  0  0  0  0  0  0
  -24.7120  -31.6010   23.0450 C   0  0  0  0  0  0  0  0  0  0  0  0
  -27.3040  -27.1750   19.9030 C   0  0  0  0  0  0  0  0  0  0  0  0
  -23.4730  -30.2030   21.4210 C   0  0  0  0  0  3  0  0  0  0  0  0
  -24.8970  -28.6600   19.9750 C   0  0  0  0  0  0  0  0  0  0  0  0
  -25.9930  -30.5610   21.1770 C   0  0  0  0  0  2  0  0  0  0  0  0
  -26.0630  -29.1890   20.5390 C   0  0  0  0  0  0  0  0  0  0  0  0
  -27.2630  -28.4520   20.5050 C   0  0  0  0  0  3  0  0  0  0  0  0
  -26.1130  -26.6460   19.3520 C   0  0  0  0  0  3  0  0  0  0  0  0
  -24.9140  -27.3830   19.3870 C   0  0  0  0  0  3  0  0  0  0  0  0
  -23.6560  -29.5210   20.0400 C   0  0  0  0  0  2  0  0  0  0  0  0
  -24.7460  -30.8040   21.9390 N   0  0  0  0  0  0  0  0  0  0  0  0
  -23.6410  -31.8750   23.6040 O   0  0  0  0  0  0  0  0  0  0  0  0
  -22.8370  -29.1830   22.3920 C   0  0  0  0  0  0  0  0  0  0  0  0
  -21.5240  -28.9510   22.2370 N   0  0  0  0  0  0  0  0  0  0  0  0
  -23.5220  -28.6020   23.2380 O   0  0  0  0  0  0  0  0  0  0  0  0
  -21.0320  -29.4720   21.5250 H   0  0  0  0  0  0  0  0  0  0  0  0
  -18.1790  -27.6680   22.6910 C   0  0  0  0  0  0  0  0  0  0  0  0
  -20.7220  -28.0040   23.0100 C   0  0  0  0  0  3  0  0  0  0  0  0
  -20.8790  -26.5660   22.4640 C   0  0  0  0  0  2  0  0  0  0  0  0
  -19.8080  -26.1920   21.4330 C   0  0  0  0  0  2  0  0  0  0  0  0
  -18.4080  -26.3110   22.0450 C   0  0  0  0  0  2  0  0  0  0  0  0
  -19.2660  -28.4690   23.1290 C   0  0  0  0  0  0  0  0  0  0  0  0
  -18.9990  -29.7380   23.6880 C   0  0  0  0  0  3  0  0  0  0  0  0
  -17.6780  -30.2050   23.8170 C   0  0  0  0  0  3  0  0  0  0  0  0
  -16.6050  -29.4000   23.3960 C   0  0  0  0  0  3  0  0  0  0  0  0
  -16.8560  -28.1340   22.8390 C   0  0  0  0  0  3  0  0  0  0  0  0
  -26.0120  -32.2260   23.6430 C   0  0  0  0  0  3  0  0  0  0  0  0
  -25.6880  -33.5930   24.0710 N   0  0  0  0  0  0  0  0  0  0  0  0
  -25.9330  -34.6940   23.3470 C   0  0  0  0  0  0  0  0  0  0  0  0
  -26.5270  -34.6660   22.2660 O   0  0  0  0  0  0  0  0  0  0  0  0
  -25.1540  -33.6870   24.9220 H   0  0  0  0  0  0  0  0  0  0  0  0
  -24.1180  -36.4290   23.2270 C   0  0  0  0  0  1  0  0  0  0  0  0
  -25.4370  -36.0390   23.9110 C   0  0  0  0  0  3  0  0  0  0  0  0
  -27.6040  -36.9650   24.6010 C   0  0  0  0  0  1  0  0  0  0  0  0
  -26.4190  -37.1360   23.7640 N   0  0  0  0  0  0  0  0  0  0  0  0
  -25.9950  -38.0310   23.9930 H   0  0  0  0  0  0  0  0  0  0  0  0
  -26.6070  -31.3910   24.8430 C   0  0  1  0  0  0  0  0  0  0  0  0
  -25.5560  -30.9890   25.9010 C   0  0  0  0  0  1  0  0  0  0  0  0
  -27.2780  -30.0990   24.3250 C   0  0  0  0  0  1  0  0  0  0  0  0
  -27.7120  -32.2110   25.5520 C   0  0  0  0  0  1  0  0  0  0  0  0
  1 49  1  0
  1  4  1  0
  2  1  2  0
  3  4  2  0
  3  6  1  0
  5  6  2  0
  5  7  1  0
  8  7  1  0
  9  8  1  0
 10 19  1  0
 10  9  1  0
 10  5  1  0
 11 19  1  0
 12 17  1  0
 13 12  1  0
 13 14  1  0
 15 14  1  0
 15 16  1  0
 15 24  1  0
 17 11  1  0
 17 16  1  0
 18 11  2  0
 19 20  1  0
 21 22  2  0
 22 41  1  0
 23 22  1  0
 23 26  1  0
 24 25  1  0
 24 21  1  0
 25 23  2  0
 26 27  1  0
 27 28  2  0
 29 32  1  0
 29 28  1  0
 30 29  2  0
 31 30  1  0
 31 26  2  0
 32 33  1  0
 33 34  1  0
 34 35  2  0
 36 35  1  0
 36 40  1  0
 37 36  2  0
 38 33  2  0
 38 37  1  0
 39 38  1  0
 41 42  1  0
 42 44  1  0
 42 45  1  0
 43 41  2  0
 46 21  1  0
 46 47  1  0
 48 46  1  0
 50 51  1  0
 50 49  1  0
 52 53  1  0
 52 51  1  0
 53 55  1  0
 54 65  2  0
 55 60  1  0
 56 64  1  0
 56 66  1  0
 57 63  1  0
 57 59  1  0
 58 64  1  0
 59 58  1  0
 60 59  2  0
 61 62  1  0
 61 55  2  0
 62 57  2  0
 63 56  1  0
 64 54  1  0
 66 68  2  0
 67 66  1  0
 69 67  1  0
 70 79  2  0
 70 75  1  0
 71 67  1  0
 71 75  1  0
 72 71  1  0
 73 74  1  0
 73 72  1  0
 74 70  1  0
 75 76  2  0
 76 77  1  0
 78 77  2  0
 79 78  1  0
 80 54  1  0
 80 81  1  0
 80 90  1  0
 81 84  1  0
 82 86  1  0
 82 81  1  0
 83 82  2  0
 86 85  1  0
 88 86  1  0
 88 89  1  0
 88 87  1  0
 90 93  1  1
 90 91  1  0
 92 90  1  0
M  ISO  4  11 100  19 100  52 101  53 101
M  END
>  <TORSDO>  (2) 
F 22

>  <SCORE>  (2) 
-4.975

>  <name>  (2) 
1

>  <ligand_id>  (2) 
1

>  <original_smiles>  (2) 
[H]C(C(=O)C([H])([H])C([H])([H])C([H])([H])C([H])([H])Oc1c([H])c([H])c2c(c1[H])C([H])([H])N(C(=O)C([H])(N([H])C(=O)C([H])(N([H])C([H])([H])[H])C([H])([H])[H])C(C([H])([H])[H])(C([H])([H])[H])C([H])([H])[H])C([H])(C(=O)N([H])C1([H])c3c([H])c([H])c([H])c([H])c3C([H])([H])C([H])([H])C1([H])[H])C2([H])[H])=C([H])C([H])=C1C([H])([H])C([H])([H])C([H])([H])C1([H])N([H])C(=O)N1C([H])([H])C([H])([H])C([H])([H])C([H])(n2nc(-c3c([H])c([H])c(Oc4c([H])c([H])c(F)c([H])c4F)c([H])c3[H])c(C(=O)N([H])[H])c2N([H])[H])C1([H])[H]

>  <smiles>  (2) 
[H]C(C(=O)C([H])([H])C([H])([H])C([H])([H])C([H])([H])Oc1c([H])c([H])c2c(c1[H])C([H])([H])N(C(=O)C([H])(N([H])C(=O)C([H])(N([H])C([H])([H])[H])C([H])([H])[H])C(C([H])([H])[H])(C([H])([H])[H])C([H])([H])[H])C([H])(C(=O)N([H])C1([H])c3c([H])c([H])c([H])c([H])c3C([H])([H])C([H])([H])C1([H])[H])C2([H])[H])=C([H])C([H])=C1C([H])([H])C([H])([H])C([H])([H])C1([H])N([H])C(=O)N1C([H])([H])C([H])([H])C([H])([H])C([H])(n2nc(-c3c([H])c([H])c(Oc4c([H])c([H])c(F)c([H])c4F)c([H])c3[H])c(C(=O)N([H])[H])c2N([H])[H])C1([H])[H]

$$$$
2:0:0
     RDKit          3D

 94102  0  0  1  0  0  0  0  0999 V2000
  -29.7610  -19.0410   19.1690 C   0  0  0  0  0  2  0  0  0  0  0  0
  -28.8370  -20.2610   19.0940 C   0  0  0  0  0  2  0  0  0  0  0  0
  -30.0840  -18.6700   20.6300 C   0  0  0  0  0  3  0  0  0  0  0  0
  -29.6610  -21.0450   21.2110 C   0  0  0  0  0  3  0  0  0  0  0  0
  -29.4790  -21.3660   19.7950 N   0  0  0  0  0  0  0  0  0  0  0  0
  -30.5600  -19.8750   21.3530 N   0  0  0  0  0  4  0  0  0  0  0  0
  -28.8920  -22.1910   19.7250 H   0  0  0  0  0  0  0  0  0  0  0  0
  -31.4740  -20.1300   21.0150 H   0  0  0  0  0  0  0  0  0  0  0  0
  -30.6460  -19.6550   22.3330 H   0  0  0  0  0  0  0  0  0  0  0  0
  -31.1240  -17.5280   20.6940 C   0  0  0  0  0  2  0  0  0  0  0  0
  -30.9180  -16.4960   21.8340 C   0  0  0  0  0  2  0  0  0  0  0  0
  -30.7430  -14.3690   20.5510 C   0  0  0  0  0  0  0  0  0  0  0  0
  -30.3330  -12.3090   19.2680 C   0  0  0  0  0  2  0  0  0  0  0  0
  -29.3910  -12.5760   18.0800 C   0  0  0  0  0  2  0  0  0  0  0  0
  -27.9190  -12.4610   18.5150 C   0  0  0  0  0  2  0  0  0  0  0  0
  -27.6070  -13.2730   19.7990 C   0  0  0  0  0  3  0  0  0  0  0  0
  -28.6560  -12.9900   20.8980 C   0  0  0  0  0  2  0  0  0  0  0  0
  -29.9940  -13.2580   20.3400 N   0  0  0  0  0  0  0  0  0  0  0  0
  -31.8150  -14.5770   19.9780 O   0  0  0  0  0  0  0  0  0  0  0  0
  -30.2380  -15.2680   21.4080 N   0  0  0  0  0  0  0  0  0  0  0  0
  -29.3580  -15.0350   21.8480 H   0  0  0  0  0  0  0  0  0  0  0  0
  -25.2090  -13.9070   20.4930 C   0  0  0  0  0  0  0  0  0  0  0  0
  -24.1300  -13.1450   20.8580 C   0  0  0  0  0  0  0  0  0  0  0  0
  -24.5790  -11.7890   20.8340 C   0  0  0  0  0  0  0  0  0  0  0  0
  -26.2470  -13.0140   20.2710 N   0  0  0  0  0  0  0  0  0  0  0  0
  -25.8700  -11.7360   20.5320 N   0  0  0  0  0  0  0  0  0  0  0  0
  -23.8420  -10.5340   21.0230 C   0  0  0  0  0  0  0  0  0  0  0  0
  -24.2630   -9.5630   21.9590 C   0  0  0  0  0  3  0  0  0  0  0  0
  -23.5260   -8.3720   22.1370 C   0  0  0  0  0  3  0  0  0  0  0  0
  -22.3540   -8.1440   21.3780 C   0  0  0  0  0  0  0  0  0  0  0  0
  -21.9510   -9.1020   20.4320 C   0  0  0  0  0  3  0  0  0  0  0  0
  -22.6880  -10.2840   20.2520 C   0  0  0  0  0  3  0  0  0  0  0  0
  -21.5880   -7.0050   21.4650 O   0  0  0  0  0  0  0  0  0  0  0  0
  -21.5310   -6.2620   22.6180 C   0  0  0  0  0  0  0  0  0  0  0  0
  -21.1150   -6.8210   23.8460 C   0  0  0  0  0  3  0  0  0  0  0  0
  -21.0050   -6.0060   24.9900 C   0  0  0  0  0  3  0  0  0  0  0  0
  -21.3020   -4.6320   24.9070 C   0  0  0  0  0  0  0  0  0  0  0  0
  -21.7110   -4.0720   23.6830 C   0  0  0  0  0  3  0  0  0  0  0  0
  -21.8230   -4.8850   22.5420 C   0  0  0  0  0  0  0  0  0  0  0  0
  -22.1980   -4.3370   21.3610 F   0  0  0  0  0  0  0  0  0  0  0  0
  -21.1880   -3.8470   26.0040 F   0  0  0  0  0  0  0  0  0  0  0  0
  -22.7360  -13.6350   21.1230 C   0  0  0  0  0  0  0  0  0  0  0  0
  -21.9980  -12.9460   21.9860 N   0  0  0  0  0  0  0  0  0  0  0  0
  -22.3100  -14.6630   20.5980 O   0  0  0  0  0  0  0  0  0  0  0  0
  -22.3540  -12.1140   22.4300 H   0  0  0  0  0  0  0  0  0  0  0  0
  -21.0600  -13.2540   22.2030 H   0  0  0  0  0  0  0  0  0  0  0  0
  -25.3890  -15.2740   20.3100 N   0  0  0  0  0  0  0  0  0  0  0  0
  -24.6310  -15.9410   20.4170 H   0  0  0  0  0  0  0  0  0  0  0  0
  -26.2490  -15.6990   19.9870 H   0  0  0  0  0  0  0  0  0  0  0  0
  -30.2270  -22.2910   21.9200 C   0  0  0  0  0  2  0  0  0  0  0  0
  -29.2180  -23.4570   21.9630 C   0  0  0  0  0  2  0  0  0  0  0  0
  -29.5050  -24.6250   20.9930 C   0  0  0  0  0  2  0  0  0  0  0  0
  -28.2050  -25.3290   20.5720 C   0  0  0  0  0  2  0  0  0  0  0  0
  -28.4080  -26.7050   20.2370 O   0  0  0  0  0  0  0  0  0  0  0  0
  -24.5810  -31.8880   23.2420 C   0  0  0  0  0  0  0  0  0  0  0  0
  -27.2440  -27.4420   20.1930 C   0  0  0  0  0  0  0  0  0  0  0  0
  -23.3850  -30.4710   21.6070 C   0  0  0  0  0  3  0  0  0  0  0  0
  -24.8450  -28.9360   20.1900 C   0  0  0  0  0  0  0  0  0  0  0  0
  -25.9090  -30.8410   21.4120 C   0  0  0  0  0  2  0  0  0  0  0  0
  -26.0010  -29.4690   20.7750 C   0  0  0  0  0  0  0  0  0  0  0  0
  -27.2060  -28.7320   20.7670 C   0  0  0  0  0  3  0  0  0  0  0  0
  -26.0690  -26.9230   19.6010 C   0  0  0  0  0  3  0  0  0  0  0  0
  -24.8740  -27.6600   19.6000 C   0  0  0  0  0  3  0  0  0  0  0  0
  -23.5990  -29.7900   20.2320 C   0  0  0  0  0  2  0  0  0  0  0  0
  -24.6450  -31.0790   22.1460 N   0  0  0  0  0  0  0  0  0  0  0  0
  -23.4980  -32.1660   23.7730 O   0  0  0  0  0  0  0  0  0  0  0  0
  -22.7320  -29.4540   22.5680 C   0  0  0  0  0  0  0  0  0  0  0  0
  -21.4060  -29.2780   22.4420 N   0  0  0  0  0  0  0  0  0  0  0  0
  -23.4150  -28.8240   23.3820 O   0  0  0  0  0  0  0  0  0  0  0  0
  -20.9220  -29.8360   21.7530 H   0  0  0  0  0  0  0  0  0  0  0  0
  -18.0180  -28.1260   22.9560 C   0  0  0  0  0  0  0  0  0  0  0  0
  -20.5810  -28.3490   23.2130 C   0  0  0  0  0  3  0  0  0  0  0  0
  -20.6640  -26.9180   22.6310 C   0  0  0  0  0  2  0  0  0  0  0  0
  -19.5490  -26.6160   21.6240 C   0  0  0  0  0  2  0  0  0  0  0  0
  -18.1730  -26.7760   22.2770 C   0  0  0  0  0  2  0  0  0  0  0  0
  -19.1500  -28.8720   23.3810 C   0  0  0  0  0  0  0  0  0  0  0  0
  -18.9510  -30.1370   23.9740 C   0  0  0  0  0  3  0  0  0  0  0  0
  -17.6540  -30.6560   24.1490 C   0  0  0  0  0  3  0  0  0  0  0  0
  -16.5380  -29.9050   23.7430 C   0  0  0  0  0  3  0  0  0  0  0  0
  -16.7210  -28.6430   23.1500 C   0  0  0  0  0  3  0  0  0  0  0  0
  -25.8660  -32.5230   23.8620 C   0  0  0  0  0  3  0  0  0  0  0  0
  -25.5550  -33.9210   24.1860 N   0  0  0  0  0  0  0  0  0  0  0  0
  -25.8910  -34.9690   23.4220 C   0  0  0  0  0  0  0  0  0  0  0  0
  -26.5700  -34.8600   22.3960 O   0  0  0  0  0  0  0  0  0  0  0  0
  -24.9530  -34.0770   24.9810 H   0  0  0  0  0  0  0  0  0  0  0  0
  -24.1710  -36.7590   23.0360 C   0  0  0  0  0  1  0  0  0  0  0  0
  -25.3980  -36.3580   23.8670 C   0  0  0  0  0  3  0  0  0  0  0  0
  -27.5230  -37.2400   24.7240 C   0  0  0  0  0  1  0  0  0  0  0  0
  -26.4360  -37.4090   23.7650 N   0  0  0  0  0  0  0  0  0  0  0  0
  -26.0300  -38.3310   23.9070 H   0  0  0  0  0  0  0  0  0  0  0  0
  -26.3810  -31.7540   25.1390 C   0  0  1  0  0  0  0  0  0  0  0  0
  -25.2870  -31.5110   26.2050 C   0  0  0  0  0  1  0  0  0  0  0  0
  -26.9720  -30.3800   24.7460 C   0  0  0  0  0  1  0  0  0  0  0  0
  -27.5310  -32.5530   25.8000 C   0  0  0  0  0  1  0  0  0  0  0  0
  1  3  1  0
  2  1  1  0
  2  5  1  0
  3 10  1  0
  3  6  1  0
  4  6  1  0
  4 50  1  0
  5  4  1  0
  6  9  1  0
  7  5  1  0
  8  6  1  0
 10 11  1  0
 12 20  1  0
 13 18  1  0
 14 15  1  0
 14 13  1  0
 16 15  1  0
 16 25  1  0
 16 17  1  0
 18 12  1  0
 18 17  1  0
 19 12  2  0
 20 11  1  0
 20 21  1  0
 22 23  2  0
 23 42  1  0
 24 23  1  0
 24 27  1  0
 25 22  1  0
 25 26  1  0
 26 24  2  0
 27 28  1  0
 28 29  2  0
 30 33  1  0
 30 29  1  0
 31 30  2  0
 32 31  1  0
 32 27  2  0
 33 34  1  0
 34 35  1  0
 35 36  2  0
 37 36  1  0
 37 41  1  0
 38 37  2  0
 39 34  2  0
 39 38  1  0
 40 39  1  0
 42 43  1  0
 43 46  1  0
 43 45  1  0
 44 42  2  0
 47 48  1  0
 47 22  1  0
 49 47  1  0
 50 51  1  0
 52 51  1  0
 53 52  1  0
 54 53  1  0
 55 66  2  0
 56 54  1  0
 56 61  1  0
 57 65  1  0
 57 67  1  0
 58 64  1  0
 58 60  1  0
 59 65  1  0
 60 59  1  0
 61 60  2  0
 62 56  2  0
 63 62  1  0
 63 58  2  0
 64 57  1  0
 65 55  1  0
 67 69  2  0
 68 67  1  0
 70 68  1  0
 71 80  2  0
 71 76  1  0
 72 68  1  0
 72 76  1  0
 73 72  1  0
 74 75  1  0
 74 73  1  0
 75 71  1  0
 76 77  2  0
 77 78  1  0
 79 78  2  0
 80 79  1  0
 81 55  1  0
 81 82  1  0
 81 91  1  0
 82 85  1  0
 83 87  1  0
 83 82  1  0
 84 83  2  0
 87 86  1  0
 89 87  1  0
 89 90  1  0
 89 88  1  0
 91 94  1  1
 91 92  1  0
 93 91  1  0
M  ISO  4  12 100  20 100  53 101  54 101
M  END
>  <TORSDO>  (3) 
F 22

>  <SCORE>  (3) 
-13.431

>  <name>  (3) 
2

>  <ligand_id>  (3) 
2

>  <original_smiles>  (3) 
[H]c1c([H])c([H])c2c(c1[H])C([H])([H])C([H])([H])C([H])([H])C2([H])N([H])C(=O)C1([H])N(C(=O)C([H])(N([H])C(=O)C([H])(N([H])C([H])([H])[H])C([H])([H])[H])C(C([H])([H])[H])(C([H])([H])[H])C([H])([H])[H])C([H])([H])c2c([H])c(OC([H])([H])C([H])([H])C([H])([H])C([H])([H])C3([H])N([H])C([H])([H])C([H])([H])C([H])(C([H])([H])C([H])([H])N([H])C(=O)N4C([H])([H])C([H])([H])C([H])([H])C([H])(n5nc(-c6c([H])c([H])c(Oc7c([H])c([H])c(F)c([H])c7F)c([H])c6[H])c(C(=O)N([H])[H])c5N([H])[H])C4([H])[H])[N+]3([H])[H])c([H])c([H])c2C1([H])[H]

>  <smiles>  (3) 
[H]c1c([H])c([H])c2c(c1[H])C([H])([H])C([H])([H])C([H])([H])C2([H])N([H])C(=O)C1([H])N(C(=O)C([H])(N([H])C(=O)C([H])(N([H])C([H])([H])[H])C([H])([H])[H])C(C([H])([H])[H])(C([H])([H])[H])C([H])([H])[H])C([H])([H])c2c([H])c(OC([H])([H])C([H])([H])C([H])([H])C([H])([H])C3([H])N([H])C([H])([H])C([H])([H])C([H])(C([H])([H])C([H])([H])N([H])C(=O)N4C([H])([H])C([H])([H])C([H])([H])C([H])(n5nc(-c6c([H])c([H])c(Oc7c([H])c([H])c(F)c([H])c7F)c([H])c6[H])c(C(=O)N([H])[H])c5N([H])[H])C4([H])[H])[N+]3([H])[H])c([H])c([H])c2C1([H])[H]

$$$$
3:0:0
     RDKit          3D

 92100  0  0  1  0  0  0  0  0999 V2000
  -27.3050  -20.5090   19.1600 C   0  0  0  0  0  2  0  0  0  0  0  0
  -28.1300  -21.7810   18.8320 C   0  0  0  0  0  2  0  0  0  0  0  0
  -29.5840  -21.7000   20.9600 C   0  0  0  0  0  2  0  0  0  0  0  0
  -27.9580  -19.4640   20.0970 C   0  0  0  0  0  2  0  0  0  0  0  0
  -30.2770  -20.3770   20.4130 C   0  0  0  0  0  2  0  0  0  0  0  0
  -28.6120  -22.5740   20.0660 C   0  0  0  0  0  3  0  0  0  0  0  0
  -29.4020  -19.3140   19.8060 N   0  0  1  0  0  4  0  0  0  0  0  0
  -29.4250  -19.5690   18.8290 H   0  0  0  0  0  0  0  0  0  0  0  0
  -30.5120  -24.3430   19.6650 C   0  0  0  0  0  1  0  0  0  0  0  0
  -28.9960  -24.0870   19.7150 C   0  0  0  0  0  3  0  0  0  0  0  0
  -28.2520  -25.1910   20.5600 C   0  0  0  0  0  2  0  0  0  0  0  0
  -28.3830  -26.5780   20.1060 O   0  0  0  0  0  0  0  0  0  0  0  0
  -24.6220  -31.8630   23.2050 C   0  0  0  0  0  0  0  0  0  0  0  0
  -27.2370  -27.3700   20.1100 C   0  0  0  0  0  0  0  0  0  0  0  0
  -23.4130  -30.4850   21.5460 C   0  0  0  0  0  3  0  0  0  0  0  0
  -24.8620  -28.9420   20.1140 C   0  0  0  0  0  0  0  0  0  0  0  0
  -25.9480  -30.8100   21.3660 C   0  0  0  0  0  2  0  0  0  0  0  0
  -26.0260  -29.4390   20.7130 C   0  0  0  0  0  0  0  0  0  0  0  0
  -27.2190  -28.6640   20.7000 C   0  0  0  0  0  3  0  0  0  0  0  0
  -26.0530  -26.9090   19.4930 C   0  0  0  0  0  3  0  0  0  0  0  0
  -24.8740  -27.6790   19.4960 C   0  0  0  0  0  3  0  0  0  0  0  0
  -23.6260  -29.8160   20.1620 C   0  0  0  0  0  2  0  0  0  0  0  0
  -24.6800  -31.0670   22.0980 N   0  0  0  0  0  0  0  0  0  0  0  0
  -23.5390  -32.1400   23.7400 O   0  0  0  0  0  0  0  0  0  0  0  0
  -22.7450  -29.4630   22.4960 C   0  0  0  0  0  0  0  0  0  0  0  0
  -21.4180  -29.3040   22.3710 N   0  0  0  0  0  0  0  0  0  0  0  0
  -23.4200  -28.8170   23.3030 O   0  0  0  0  0  0  0  0  0  0  0  0
  -20.9340  -29.8760   21.6930 H   0  0  0  0  0  0  0  0  0  0  0  0
  -18.0280  -28.1380   22.8490 C   0  0  0  0  0  0  0  0  0  0  0  0
  -20.5880  -28.3680   23.1300 C   0  0  0  0  0  3  0  0  0  0  0  0
  -20.6770  -26.9410   22.5410 C   0  0  0  0  0  2  0  0  0  0  0  0
  -19.5750  -26.6390   21.5210 C   0  0  0  0  0  2  0  0  0  0  0  0
  -18.1930  -26.7930   22.1630 C   0  0  0  0  0  2  0  0  0  0  0  0
  -19.1530  -28.8850   23.2900 C   0  0  0  0  0  0  0  0  0  0  0  0
  -18.9450  -30.1450   23.8910 C   0  0  0  0  0  3  0  0  0  0  0  0
  -17.6460  -30.6590   24.0570 C   0  0  0  0  0  3  0  0  0  0  0  0
  -16.5350  -29.9090   23.6330 C   0  0  0  0  0  3  0  0  0  0  0  0
  -16.7270  -28.6510   23.0350 C   0  0  0  0  0  3  0  0  0  0  0  0
  -25.9080  -32.4800   23.8370 C   0  0  0  0  0  3  0  0  0  0  0  0
  -26.4480  -31.6590   25.0710 C   0  0  1  0  0  0  0  0  0  0  0  0
  -25.3740  -31.3700   26.1450 C   0  0  0  0  0  1  0  0  0  0  0  0
  -27.0310  -30.3020   24.6110 C   0  0  0  0  0  1  0  0  0  0  0  0
  -27.6060  -32.4300   25.7480 C   0  0  0  0  0  1  0  0  0  0  0  0
  -25.5920  -33.8600   24.2300 N   0  0  0  0  0  0  0  0  0  0  0  0
  -25.9040  -34.9460   23.5120 C   0  0  0  0  0  0  0  0  0  0  0  0
  -26.5610  -34.8920   22.4680 O   0  0  0  0  0  0  0  0  0  0  0  0
  -25.0080  -33.9750   25.0460 H   0  0  0  0  0  0  0  0  0  0  0  0
  -24.1490  -36.7300   23.2640 C   0  0  0  0  0  1  0  0  0  0  0  0
  -25.4110  -36.3090   24.0330 C   0  0  0  0  0  3  0  0  0  0  0  0
  -27.5580  -37.1810   24.8470 C   0  0  0  0  0  1  0  0  0  0  0  0
  -26.4290  -37.3790   23.9410 N   0  0  0  0  0  0  0  0  0  0  0  0
  -26.0170  -38.2860   24.1410 H   0  0  0  0  0  0  0  0  0  0  0  0
  -29.9000  -17.8810   19.7360 C   0  0  0  0  0  2  0  0  0  0  0  0
  -30.0060  -17.0570   21.0690 C   0  0  0  0  0  2  0  0  0  0  0  0
  -30.6370  -14.5710   20.5360 C   0  0  0  0  0  0  0  0  0  0  0  0
  -30.4370  -12.3570   19.4330 C   0  0  0  0  0  2  0  0  0  0  0  0
  -29.5040  -12.5120   18.2120 C   0  0  0  0  0  2  0  0  0  0  0  0
  -28.0250  -12.3580   18.6210 C   0  0  0  0  0  2  0  0  0  0  0  0
  -27.6570  -13.2070   19.8680 C   0  0  0  0  0  3  0  0  0  0  0  0
  -28.7020  -13.0160   20.9910 C   0  0  0  0  0  2  0  0  0  0  0  0
  -30.0230  -13.3540   20.4340 N   0  0  0  0  0  0  0  0  0  0  0  0
  -31.7830  -14.7790   20.1300 O   0  0  0  0  0  0  0  0  0  0  0  0
  -29.8260  -15.5780   20.9470 N   0  0  0  0  0  0  0  0  0  0  0  0
  -28.9150  -15.2480   21.2310 H   0  0  0  0  0  0  0  0  0  0  0  0
  -25.2580  -13.8140   20.5680 C   0  0  0  0  0  0  0  0  0  0  0  0
  -24.1830  -13.0420   20.9180 C   0  0  0  0  0  0  0  0  0  0  0  0
  -24.6380  -11.6890   20.8710 C   0  0  0  0  0  0  0  0  0  0  0  0
  -26.3000  -12.9300   20.3320 N   0  0  0  0  0  0  0  0  0  0  0  0
  -25.9300  -11.6460   20.5720 N   0  0  0  0  0  0  0  0  0  0  0  0
  -23.9050  -10.4280   21.0390 C   0  0  0  0  0  0  0  0  0  0  0  0
  -24.3600   -9.4200   21.9180 C   0  0  0  0  0  3  0  0  0  0  0  0
  -23.6280   -8.2240   22.0760 C   0  0  0  0  0  3  0  0  0  0  0  0
  -22.4270   -8.0270   21.3540 C   0  0  0  0  0  0  0  0  0  0  0  0
  -21.9900   -9.0240   20.4640 C   0  0  0  0  0  3  0  0  0  0  0  0
  -22.7220  -10.2130   20.3050 C   0  0  0  0  0  3  0  0  0  0  0  0
  -21.6640   -6.8860   21.4240 O   0  0  0  0  0  0  0  0  0  0  0  0
  -21.6850   -6.0720   22.5280 C   0  0  0  0  0  0  0  0  0  0  0  0
  -21.4010   -6.5630   23.8210 C   0  0  0  0  0  3  0  0  0  0  0  0
  -21.3670   -5.6780   24.9180 C   0  0  0  0  0  3  0  0  0  0  0  0
  -21.6050   -4.3050   24.7220 C   0  0  0  0  0  0  0  0  0  0  0  0
  -21.8820   -3.8140   23.4340 C   0  0  0  0  0  3  0  0  0  0  0  0
  -21.9190   -4.6950   22.3400 C   0  0  0  0  0  0  0  0  0  0  0  0
  -22.1650   -4.2140   21.0980 F   0  0  0  0  0  0  0  0  0  0  0  0
  -21.5630   -3.4540   25.7740 F   0  0  0  0  0  0  0  0  0  0  0  0
  -22.7860  -13.5240   21.1850 C   0  0  0  0  0  0  0  0  0  0  0  0
  -22.0490  -12.8240   22.0400 N   0  0  0  0  0  0  0  0  0  0  0  0
  -22.3560  -14.5540   20.6700 O   0  0  0  0  0  0  0  0  0  0  0  0
  -22.4100  -11.9900   22.4790 H   0  0  0  0  0  0  0  0  0  0  0  0
  -21.1100  -13.1260   22.2610 H   0  0  0  0  0  0  0  0  0  0  0  0
  -25.4310  -15.1870   20.4110 N   0  0  0  0  0  0  0  0  0  0  0  0
  -24.6600  -15.8370   20.5210 H   0  0  0  0  0  0  0  0  0  0  0  0
  -26.2760  -15.6260   20.0700 H   0  0  0  0  0  0  0  0  0  0  0  0
  1  4  1  0
  2  1  1  0
  2  6  1  0
  5  3  1  0
  6 10  1  0
  6  3  1  0
  7  4  1  0
  7  5  1  0
  7  8  1  6
 10  9  1  0
 10 11  1  0
 12 14  1  0
 12 11  1  0
 13 24  2  0
 14 19  1  0
 15 23  1  0
 15 25  1  0
 16 22  1  0
 16 18  1  0
 17 23  1  0
 18 17  1  0
 19 18  2  0
 20 21  1  0
 20 14  2  0
 21 16  2  0
 22 15  1  0
 23 13  1  0
 25 27  2  0
 26 25  1  0
 28 26  1  0
 29 38  2  0
 29 34  1  0
 30 26  1  0
 30 34  1  0
 31 30  1  0
 32 33  1  0
 32 31  1  0
 33 29  1  0
 34 35  2  0
 35 36  1  0
 37 36  2  0
 38 37  1  0
 39 13  1  0
 39 44  1  0
 39 40  1  0
 40 43  1  1
 40 41  1  0
 42 40  1  0
 44 47  1  0
 45 49  1  0
 45 44  1  0
 46 45  2  0
 49 48  1  0
 51 49  1  0
 51 52  1  0
 51 50  1  0
 53  7  1  0
 53 54  1  0
 55 63  1  0
 56 61  1  0
 57 58  1  0
 57 56  1  0
 59 58  1  0
 59 68  1  0
 59 60  1  0
 61 55  1  0
 61 60  1  0
 62 55  2  0
 63 54  1  0
 63 64  1  0
 65 66  2  0
 66 85  1  0
 67 66  1  0
 67 70  1  0
 68 65  1  0
 68 69  1  0
 69 67  2  0
 70 71  1  0
 71 72  2  0
 73 76  1  0
 73 72  1  0
 74 73  2  0
 75 74  1  0
 75 70  2  0
 76 77  1  0
 77 78  1  0
 78 79  2  0
 80 79  1  0
 80 84  1  0
 81 80  2  0
 82 77  2  0
 82 81  1  0
 83 82  1  0
 85 86  1  0
 86 89  1  0
 86 88  1  0
 87 85  2  0
 90 91  1  0
 90 65  1  0
 92 90  1  0
M  ISO  4  11 101  12 101  55 100  63 100
M  END
>  <TORSDO>  (4) 
F 20

>  <SCORE>  (4) 
-13.736

>  <name>  (4) 
3

>  <ligand_id>  (4) 
3

>  <original_smiles>  (4) 
[H]c1c([H])c([H])c2c(c1[H])C([H])([H])C([H])([H])C([H])([H])C2([H])N([H])C(=O)C1([H])N(C(=O)C([H])(N([H])C(=O)C([H])(N([H])C([H])([H])[H])C([H])([H])[H])C(C([H])([H])[H])(C([H])([H])[H])C([H])([H])[H])C([H])([H])c2c([H])c(OC([H])([H])C([H])(C([H])([H])[H])C3([H])C([H])([H])C([H])([H])C([H])([H])[N+]([H])(C([H])([H])C([H])([H])N([H])C(=O)N4C([H])([H])C([H])([H])C([H])([H])C([H])(n5nc(-c6c([H])c([H])c(Oc7c([H])c([H])c(F)c([H])c7F)c([H])c6[H])c(C(=O)N([H])[H])c5N([H])[H])C4([H])[H])C([H])([H])C3([H])[H])c([H])c([H])c2C1([H])[H]

>  <smiles>  (4) 
[H]c1c([H])c([H])c2c(c1[H])C([H])([H])C([H])([H])C([H])([H])C2([H])N([H])C(=O)C1([H])N(C(=O)C([H])(N([H])C(=O)C([H])(N([H])C([H])([H])[H])C([H])([H])[H])C(C([H])([H])[H])(C([H])([H])[H])C([H])([H])[H])C([H])([H])c2c([H])c(OC([H])([H])C([H])(C([H])([H])[H])C3([H])C([H])([H])C([H])([H])C([H])([H])[N+]([H])(C([H])([H])C([H])([H])N([H])C(=O)N4C([H])([H])C([H])([H])C([H])([H])C([H])(n5nc(-c6c([H])c([H])c(Oc7c([H])c([H])c(F)c([H])c7F)c([H])c6[H])c(C(=O)N([H])[H])c5N([H])[H])C4([H])[H])C([H])([H])C3([H])[H])c([H])c([H])c2C1([H])[H]

$$$$
4:0:0
     RDKit          3D

 92100  0  0  1  0  0  0  0  0999 V2000
  -28.1560  -21.2830   20.5330 C   0  0  0  0  0  3  0  0  0  0  0  0
  -29.5350  -17.8560   21.8120 C   0  0  0  0  0  2  0  0  0  0  0  0
  -29.5930  -19.4150   21.6110 C   0  0  0  0  0  2  0  0  0  0  0  0
  -29.0980  -19.2230   19.1970 C   0  0  0  0  0  2  0  0  0  0  0  0
  -29.9210  -17.8580   19.2990 C   0  0  0  0  0  3  0  0  0  0  0  0
  -29.5460  -16.9490   20.5300 C   0  0  0  0  0  3  0  0  0  0  0  0
  -31.4370  -18.1070   19.1610 C   0  0  0  0  0  1  0  0  0  0  0  0
  -28.7190  -19.8590   20.4980 N   0  0  2  0  0  4  0  0  0  0  0  0
  -27.8740  -19.3550   20.7280 H   0  0  0  0  0  0  0  0  0  0  0  0
  -30.7880  -14.6610   20.0010 C   0  0  0  0  0  0  0  0  0  0  0  0
  -30.4220  -12.4730   18.8800 C   0  0  0  0  0  2  0  0  0  0  0  0
  -29.4050  -12.6270   17.7310 C   0  0  0  0  0  2  0  0  0  0  0  0
  -27.9760  -12.4280   18.2660 C   0  0  0  0  0  2  0  0  0  0  0  0
  -27.6980  -13.2730   19.5380 C   0  0  0  0  0  3  0  0  0  0  0  0
  -28.8310  -13.1420   20.5810 C   0  0  0  0  0  2  0  0  0  0  0  0
  -30.0950  -13.4800   19.9140 N   0  0  0  0  0  0  0  0  0  0  0  0
  -31.8670  -14.7930   19.4230 O   0  0  0  0  0  0  0  0  0  0  0  0
  -30.3300  -15.6750   20.7970 N   0  0  0  0  0  0  0  0  0  0  0  0
  -31.0870  -15.9100   21.4220 H   0  0  0  0  0  0  0  0  0  0  0  0
  -25.3650  -13.8280   20.4550 C   0  0  0  0  0  0  0  0  0  0  0  0
  -24.3330  -13.0350   20.8810 C   0  0  0  0  0  0  0  0  0  0  0  0
  -24.7980  -11.6900   20.7740 C   0  0  0  0  0  0  0  0  0  0  0  0
  -26.3930  -12.9640   20.1150 N   0  0  0  0  0  0  0  0  0  0  0  0
  -26.0620  -11.6710   20.3680 N   0  0  0  0  0  0  0  0  0  0  0  0
  -24.0930  -10.4170   20.9800 C   0  0  0  0  0  0  0  0  0  0  0  0
  -24.5520   -9.4610   21.9130 C   0  0  0  0  0  3  0  0  0  0  0  0
  -23.8450   -8.2550   22.1070 C   0  0  0  0  0  3  0  0  0  0  0  0
  -22.6670   -7.9960   21.3680 C   0  0  0  0  0  0  0  0  0  0  0  0
  -22.2260   -8.9400   20.4250 C   0  0  0  0  0  3  0  0  0  0  0  0
  -22.9340  -10.1390   20.2300 C   0  0  0  0  0  3  0  0  0  0  0  0
  -21.9330   -6.8370   21.4670 O   0  0  0  0  0  0  0  0  0  0  0  0
  -21.8480   -6.1410   22.6450 C   0  0  0  0  0  0  0  0  0  0  0  0
  -21.3630   -6.7350   23.8290 C   0  0  0  0  0  3  0  0  0  0  0  0
  -21.2290   -5.9640   25.0020 C   0  0  0  0  0  3  0  0  0  0  0  0
  -21.5680   -4.5970   24.9860 C   0  0  0  0  0  0  0  0  0  0  0  0
  -22.0440   -4.0010   23.8050 C   0  0  0  0  0  3  0  0  0  0  0  0
  -22.1810   -4.7710   22.6370 C   0  0  0  0  0  0  0  0  0  0  0  0
  -22.6220   -4.1880   21.4960 F   0  0  0  0  0  0  0  0  0  0  0  0
  -21.4290   -3.8520   26.1080 F   0  0  0  0  0  0  0  0  0  0  0  0
  -22.9580  -13.4960   21.2680 C   0  0  0  0  0  0  0  0  0  0  0  0
  -22.3040  -12.7770   22.1740 N   0  0  0  0  0  0  0  0  0  0  0  0
  -22.4750  -14.5270   20.8010 O   0  0  0  0  0  0  0  0  0  0  0  0
  -22.7110  -11.9440   22.5760 H   0  0  0  0  0  0  0  0  0  0  0  0
  -21.3860  -13.0720   22.4770 H   0  0  0  0  0  0  0  0  0  0  0  0
  -25.5050  -15.2020   20.3040 N   0  0  0  0  0  0  0  0  0  0  0  0
  -24.7380  -15.8460   20.4650 H   0  0  0  0  0  0  0  0  0  0  0  0
  -26.3050  -15.6390   19.8670 H   0  0  0  0  0  0  0  0  0  0  0  0
  -28.9940  -22.5630   20.0970 C   0  0  0  0  0  3  0  0  0  0  0  0
  -28.3720  -23.9710   20.4790 C   0  0  0  0  0  0  0  0  0  0  0  0
  -27.7420  -24.0890   21.5340 O   0  0  0  0  0  0  0  0  0  0  0  0
  -28.5500  -25.2240   19.5350 C   0  0  0  0  0  2  0  0  0  0  0  0
  -28.4290  -26.5590   20.1650 O   0  0  0  0  0  0  0  0  0  0  0  0
  -24.6340  -31.8660   23.1930 C   0  0  0  0  0  0  0  0  0  0  0  0
  -27.2690  -27.3430   20.1060 C   0  0  0  0  0  0  0  0  0  0  0  0
  -23.4310  -30.4650   21.5510 C   0  0  0  0  0  3  0  0  0  0  0  0
  -24.8850  -28.9220   20.1170 C   0  0  0  0  0  0  0  0  0  0  0  0
  -25.9650  -30.8000   21.3610 C   0  0  0  0  0  2  0  0  0  0  0  0
  -26.0500  -29.4220   20.7100 C   0  0  0  0  0  0  0  0  0  0  0  0
  -27.2410  -28.6430   20.6980 C   0  0  0  0  0  3  0  0  0  0  0  0
  -26.0800  -26.8820   19.5010 C   0  0  0  0  0  3  0  0  0  0  0  0
  -24.9020  -27.6560   19.5060 C   0  0  0  0  0  3  0  0  0  0  0  0
  -23.6430  -29.7890   20.1690 C   0  0  0  0  0  2  0  0  0  0  0  0
  -24.6950  -31.0630   22.0900 N   0  0  0  0  0  0  0  0  0  0  0  0
  -23.5520  -32.1380   23.7330 O   0  0  0  0  0  0  0  0  0  0  0  0
  -22.7780  -29.4440   22.5120 C   0  0  0  0  0  0  0  0  0  0  0  0
  -21.4520  -29.2630   22.3900 N   0  0  0  0  0  0  0  0  0  0  0  0
  -23.4620  -28.8170   23.3250 O   0  0  0  0  0  0  0  0  0  0  0  0
  -20.9610  -29.8200   21.7040 H   0  0  0  0  0  0  0  0  0  0  0  0
  -18.0820  -28.0510   22.8880 C   0  0  0  0  0  0  0  0  0  0  0  0
  -20.6390  -28.3180   23.1570 C   0  0  0  0  0  3  0  0  0  0  0  0
  -20.7470  -26.8890   22.5770 C   0  0  0  0  0  2  0  0  0  0  0  0
  -19.6450  -26.5660   21.5640 C   0  0  0  0  0  2  0  0  0  0  0  0
  -18.2620  -26.7040   22.2080 C   0  0  0  0  0  2  0  0  0  0  0  0
  -19.1990  -28.8150   23.3200 C   0  0  0  0  0  0  0  0  0  0  0  0
  -18.9770  -30.0740   23.9170 C   0  0  0  0  0  3  0  0  0  0  0  0
  -17.6720  -30.5700   24.0870 C   0  0  0  0  0  3  0  0  0  0  0  0
  -16.5690  -29.8040   23.6730 C   0  0  0  0  0  3  0  0  0  0  0  0
  -16.7750  -28.5460   23.0800 C   0  0  0  0  0  3  0  0  0  0  0  0
  -25.9170  -32.5000   23.8120 C   0  0  0  0  0  3  0  0  0  0  0  0
  -26.4430  -31.7200   25.0810 C   0  0  1  0  0  0  0  0  0  0  0  0
  -25.3560  -31.4660   26.1530 C   0  0  0  0  0  1  0  0  0  0  0  0
  -27.0340  -30.3500   24.6750 C   0  0  0  0  0  1  0  0  0  0  0  0
  -27.5920  -32.5160   25.7440 C   0  0  0  0  0  1  0  0  0  0  0  0
  -25.5990  -33.8910   24.1600 N   0  0  0  0  0  0  0  0  0  0  0  0
  -25.9170  -34.9560   23.4100 C   0  0  0  0  0  0  0  0  0  0  0  0
  -26.5810  -34.8680   22.3750 O   0  0  0  0  0  0  0  0  0  0  0  0
  -25.0080  -34.0300   24.9680 H   0  0  0  0  0  0  0  0  0  0  0  0
  -24.1740  -36.7400   23.0830 C   0  0  0  0  0  1  0  0  0  0  0  0
  -25.4220  -36.3360   23.8860 C   0  0  0  0  0  3  0  0  0  0  0  0
  -27.5560  -37.2290   24.7110 C   0  0  0  0  0  1  0  0  0  0  0  0
  -26.4470  -37.3980   23.7760 N   0  0  0  0  0  0  0  0  0  0  0  0
  -26.0370  -38.3150   23.9320 H   0  0  0  0  0  0  0  0  0  0  0  0
  3  2  1  0
  4  5  1  0
  4  8  1  0
  5  7  1  0
  5  6  1  0
  6 18  1  0
  6  2  1  0
  8  1  1  0
  8  9  1  1
  8  3  1  0
 10 18  1  0
 11 16  1  0
 12 13  1  0
 12 11  1  0
 14 13  1  0
 14 23  1  0
 14 15  1  0
 16 10  1  0
 16 15  1  0
 17 10  2  0
 18 19  1  0
 20 21  2  0
 21 40  1  0
 22 21  1  0
 22 25  1  0
 23 24  1  0
 23 20  1  0
 24 22  2  0
 25 26  1  0
 26 27  2  0
 28 31  1  0
 28 27  1  0
 29 28  2  0
 30 29  1  0
 30 25  2  0
 31 32  1  0
 32 33  1  0
 33 34  2  0
 35 34  1  0
 35 39  1  0
 36 35  2  0
 37 32  2  0
 37 36  1  0
 38 37  1  0
 40 41  1  0
 41 44  1  0
 41 43  1  0
 42 40  2  0
 45 20  1  0
 45 46  1  0
 47 45  1  0
 48 49  1  0
 48  1  2  0
 49 50  2  0
 51 52  1  0
 51 49  1  0
 53 64  2  0
 54 52  1  0
 54 59  1  0
 55 63  1  0
 55 65  1  0
 56 62  1  0
 56 58  1  0
 57 63  1  0
 58 57  1  0
 59 58  2  0
 60 61  1  0
 60 54  2  0
 61 56  2  0
 62 55  1  0
 63 53  1  0
 65 67  2  0
 66 65  1  0
 68 66  1  0
 69 78  2  0
 69 74  1  0
 70 66  1  0
 70 74  1  0
 71 70  1  0
 72 73  1  0
 72 71  1  0
 73 69  1  0
 74 75  2  0
 75 76  1  0
 77 76  2  0
 78 77  1  0
 79 53  1  0
 79 84  1  0
 79 80  1  0
 80 83  1  1
 80 81  1  0
 82 80  1  0
 84 87  1  0
 85 89  1  0
 85 84  1  0
 86 85  2  0
 89 88  1  0
 91 89  1  0
 91 92  1  0
 91 90  1  0
M  ISO  4  10 100  18 100  51 101  52 101
M  END
>  <TORSDO>  (5) 
F 20

>  <SCORE>  (5) 
-12.797

>  <name>  (5) 
4

>  <ligand_id>  (5) 
4

>  <original_smiles>  (5) 
[H]c1c([H])c([H])c2c(c1[H])C([H])([H])C([H])([H])C([H])([H])C2([H])N([H])C(=O)C1([H])N(C(=O)C([H])(N([H])C(=O)C([H])(N([H])C([H])([H])[H])C([H])([H])[H])C(C([H])([H])[H])(C([H])([H])[H])C([H])([H])[H])C([H])([H])c2c([H])c(OC([H])([H])C(=O)C([H])([H])C([H])([H])[N+]3([H])C([H])([H])C([H])([H])C([H])(N([H])C(=O)N4C([H])([H])C([H])([H])C([H])([H])C([H])(n5nc(-c6c([H])c([H])c(Oc7c([H])c([H])c(F)c([H])c7F)c([H])c6[H])c(C(=O)N([H])[H])c5N([H])[H])C4([H])[H])C([H])(C([H])([H])[H])C3([H])[H])c([H])c([H])c2C1([H])[H]

>  <smiles>  (5) 
[H]c1c([H])c([H])c2c(c1[H])C([H])([H])C([H])([H])C([H])([H])C2([H])N([H])C(=O)C1([H])N(C(=O)C([H])(N([H])C(=O)C([H])(N([H])C([H])([H])[H])C([H])([H])[H])C(C([H])([H])[H])(C([H])([H])[H])C([H])([H])[H])C([H])([H])c2c([H])c(OC([H])([H])C(=O)C([H])([H])C([H])([H])[N+]3([H])C([H])([H])C([H])([H])C([H])(N([H])C(=O)N4C([H])([H])C([H])([H])C([H])([H])C([H])(n5nc(-c6c([H])c([H])c(Oc7c([H])c([H])c(F)c([H])c7F)c([H])c6[H])c(C(=O)N([H])[H])c5N([H])[H])C4([H])[H])C([H])(C([H])([H])[H])C3([H])[H])c([H])c([H])c2C1([H])[H]

$$$$
5:0:0
     RDKit          3D

 93101  0  0  1  0  0  0  0  0999 V2000
  -27.4030  -18.5800   19.7970 C   0  0  0  0  0  0  0  0  0  0  0  0
  -27.5780  -19.8850   19.5800 N   0  0  0  0  0  0  0  0  0  0  0  0
  -26.3940  -18.1350   20.3480 O   0  0  0  0  0  0  0  0  0  0  0  0
  -28.4250  -20.2000   19.1250 H   0  0  0  0  0  0  0  0  0  0  0  0
  -28.5090  -17.6330   19.3330 C   0  0  0  0  0  2  0  0  0  0  0  0
  -31.2090  -14.3560   19.6260 C   0  0  0  0  0  0  0  0  0  0  0  0
  -30.6370  -12.2350   18.5210 C   0  0  0  0  0  2  0  0  0  0  0  0
  -29.5880  -12.4500   17.4140 C   0  0  0  0  0  2  0  0  0  0  0  0
  -28.1670  -12.3450   17.9970 C   0  0  0  0  0  2  0  0  0  0  0  0
  -27.9760  -13.2330   19.2530 C   0  0  0  0  0  3  0  0  0  0  0  0
  -29.1320  -13.0280   20.2560 C   0  0  0  0  0  2  0  0  0  0  0  0
  -30.4160  -13.2490   19.5640 N   0  0  0  0  0  0  0  0  0  0  0  0
  -32.2050  -14.5020   18.9100 O   0  0  0  0  0  0  0  0  0  0  0  0
  -30.6700  -16.7930   22.4390 C   0  0  0  0  0  2  0  0  0  0  0  0
  -29.4530  -17.4020   21.7310 C   0  0  0  0  0  2  0  0  0  0  0  0
  -31.0700  -15.4470   21.7920 C   0  0  0  0  0  2  0  0  0  0  0  0
  -30.8510  -16.7280   19.7110 C   0  0  0  0  0  2  0  0  0  0  0  0
  -29.7580  -17.6770   20.2370 C   0  0  0  0  0  3  0  0  0  0  0  0
  -30.7620  -15.4020   20.3480 N   0  0  0  0  0  0  0  0  0  0  0  0
  -25.6990  -13.9010   20.2570 C   0  0  0  0  0  0  0  0  0  0  0  0
  -24.6460  -13.1630   20.7160 C   0  0  0  0  0  0  0  0  0  0  0  0
  -25.0380  -11.7960   20.5790 C   0  0  0  0  0  0  0  0  0  0  0  0
  -26.6740  -12.9930   19.8760 N   0  0  0  0  0  0  0  0  0  0  0  0
  -26.2840  -11.7160   20.1280 N   0  0  0  0  0  0  0  0  0  0  0  0
  -24.2790  -10.5600   20.7970 C   0  0  0  0  0  0  0  0  0  0  0  0
  -24.6860   -9.6010   21.7510 C   0  0  0  0  0  3  0  0  0  0  0  0
  -23.9260   -8.4290   21.9540 C   0  0  0  0  0  3  0  0  0  0  0  0
  -22.7470   -8.2110   21.2030 C   0  0  0  0  0  0  0  0  0  0  0  0
  -22.3600   -9.1590   20.2390 C   0  0  0  0  0  3  0  0  0  0  0  0
  -23.1210  -10.3200   20.0330 C   0  0  0  0  0  3  0  0  0  0  0  0
  -21.9560   -7.0940   21.3180 O   0  0  0  0  0  0  0  0  0  0  0  0
  -21.8030   -6.4410   22.5150 C   0  0  0  0  0  0  0  0  0  0  0  0
  -21.2840   -7.0900   23.6570 C   0  0  0  0  0  3  0  0  0  0  0  0
  -21.0790   -6.3640   24.8480 C   0  0  0  0  0  3  0  0  0  0  0  0
  -21.3840   -4.9900   24.8960 C   0  0  0  0  0  0  0  0  0  0  0  0
  -21.8960   -4.3410   23.7590 C   0  0  0  0  0  3  0  0  0  0  0  0
  -22.1030   -5.0650   22.5710 C   0  0  0  0  0  0  0  0  0  0  0  0
  -22.5770   -4.4310   21.4720 F   0  0  0  0  0  0  0  0  0  0  0  0
  -21.1820   -4.2900   26.0370 F   0  0  0  0  0  0  0  0  0  0  0  0
  -23.3110  -13.6850   21.1720 C   0  0  0  0  0  0  0  0  0  0  0  0
  -22.6800  -12.9990   22.1180 N   0  0  0  0  0  0  0  0  0  0  0  0
  -22.8460  -14.7320   20.7240 O   0  0  0  0  0  0  0  0  0  0  0  0
  -23.0680  -12.1410   22.4830 H   0  0  0  0  0  0  0  0  0  0  0  0
  -21.7920  -13.3250   22.4770 H   0  0  0  0  0  0  0  0  0  0  0  0
  -25.9090  -15.2630   20.1100 N   0  0  0  0  0  0  0  0  0  0  0  0
  -25.2410  -15.9730   20.3950 H   0  0  0  0  0  0  0  0  0  0  0  0
  -26.7940  -15.6660   19.8390 H   0  0  0  0  0  0  0  0  0  0  0  0
  -26.5860  -20.8760   19.9700 C   0  0  0  0  0  2  0  0  0  0  0  0
  -26.8630  -22.2440   19.3450 C   0  0  0  0  0  2  0  0  0  0  0  0
  -28.0390  -23.0310   19.9630 C   0  0  0  0  0  2  0  0  0  0  0  0
  -27.8930  -24.5050   19.5710 C   0  0  0  0  0  2  0  0  0  0  0  0
  -28.8020  -25.5390   20.2610 C   0  0  0  0  0  2  0  0  0  0  0  0
  -28.7390  -26.8690   19.7090 O   0  0  0  0  0  0  0  0  0  0  0  0
  -24.6080  -31.6250   23.0650 C   0  0  0  0  0  0  0  0  0  0  0  0
  -27.5310  -27.5330   19.7600 C   0  0  0  0  0  0  0  0  0  0  0  0
  -23.5060  -30.2620   21.3260 C   0  0  0  0  0  3  0  0  0  0  0  0
  -25.0580  -28.9060   19.8340 C   0  0  0  0  0  0  0  0  0  0  0  0
  -26.0120  -30.7650   21.1980 C   0  0  0  0  0  2  0  0  0  0  0  0
  -26.1780  -29.4430   20.4820 C   0  0  0  0  0  0  0  0  0  0  0  0
  -27.4160  -28.7610   20.4520 C   0  0  0  0  0  3  0  0  0  0  0  0
  -26.4030  -27.0520   19.0570 C   0  0  0  0  0  3  0  0  0  0  0  0
  -25.1650  -27.7060   19.1180 C   0  0  0  0  0  3  0  0  0  0  0  0
  -23.7690  -29.6870   19.9120 C   0  0  0  0  0  2  0  0  0  0  0  0
  -24.7260  -30.8970   21.9210 N   0  0  0  0  0  0  0  0  0  0  0  0
  -23.5050  -31.8050   23.6010 O   0  0  0  0  0  0  0  0  0  0  0  0
  -22.9040  -29.1450   22.2100 C   0  0  0  0  0  0  0  0  0  0  0  0
  -21.5860  -28.9230   22.0800 N   0  0  0  0  0  0  0  0  0  0  0  0
  -23.6170  -28.4860   22.9700 O   0  0  0  0  0  0  0  0  0  0  0  0
  -21.0660  -29.5200   21.4510 H   0  0  0  0  0  0  0  0  0  0  0  0
  -18.2500  -27.6050   22.5460 C   0  0  0  0  0  0  0  0  0  0  0  0
  -20.8080  -27.9020   22.7840 C   0  0  0  0  0  3  0  0  0  0  0  0
  -20.9300  -26.5260   22.0890 C   0  0  0  0  0  2  0  0  0  0  0  0
  -19.8140  -26.2620   21.0730 C   0  0  0  0  0  2  0  0  0  0  0  0
  -18.4430  -26.3240   21.7530 C   0  0  0  0  0  2  0  0  0  0  0  0
  -19.3620  -28.3540   23.0140 C   0  0  0  0  0  0  0  0  0  0  0  0
  -19.1320  -29.5600   23.7070 C   0  0  0  0  0  3  0  0  0  0  0  0
  -17.8210  -30.0150   23.9410 C   0  0  0  0  0  3  0  0  0  0  0  0
  -16.7220  -29.2590   23.4980 C   0  0  0  0  0  3  0  0  0  0  0  0
  -16.9370  -28.0530   22.8080 C   0  0  0  0  0  3  0  0  0  0  0  0
  -25.8460  -32.2880   23.7400 C   0  0  0  0  0  3  0  0  0  0  0  0
  -25.4680  -33.6610   24.1020 N   0  0  0  0  0  0  0  0  0  0  0  0
  -25.7690  -34.7480   23.3770 C   0  0  0  0  0  0  0  0  0  0  0  0
  -26.4670  -34.7040   22.3610 O   0  0  0  0  0  0  0  0  0  0  0  0
  -24.8470  -33.7640   24.8910 H   0  0  0  0  0  0  0  0  0  0  0  0
  -23.9570  -36.4600   23.0440 C   0  0  0  0  0  1  0  0  0  0  0  0
  -25.2100  -36.1010   23.8610 C   0  0  0  0  0  3  0  0  0  0  0  0
  -27.2880  -37.0700   24.7380 C   0  0  0  0  0  1  0  0  0  0  0  0
  -26.1910  -37.2040   23.7830 N   0  0  0  0  0  0  0  0  0  0  0  0
  -25.7400  -38.1010   23.9430 H   0  0  0  0  0  0  0  0  0  0  0  0
  -26.3630  -31.4980   25.0030 C   0  0  1  0  0  0  0  0  0  0  0  0
  -25.2560  -31.1750   26.0350 C   0  0  0  0  0  1  0  0  0  0  0  0
  -27.0170  -30.1630   24.5810 C   0  0  0  0  0  1  0  0  0  0  0  0
  -27.4620  -32.3190   25.7190 C   0  0  0  0  0  1  0  0  0  0  0  0
  1  3  2  0
  2  1  1  0
  2 48  1  0
  4  2  1  0
  5  1  1  0
  6 19  1  0
  7 12  1  0
  8  9  1  0
  8  7  1  0
 10  9  1  0
 10 23  1  0
 10 11  1  0
 12  6  1  0
 12 11  1  0
 13  6  2  0
 15 14  1  0
 16 14  1  0
 17 18  1  0
 17 19  1  0
 18  5  1  0
 18 15  1  0
 19 16  1  0
 20 21  2  0
 21 40  1  0
 22 21  1  0
 22 25  1  0
 23 24  1  0
 23 20  1  0
 24 22  2  0
 25 26  1  0
 26 27  2  0
 28 31  1  0
 28 27  1  0
 29 28  2  0
 30 29  1  0
 30 25  2  0
 31 32  1  0
 32 37  2  0
 32 33  1  0
 33 34  2  0
 34 35  1  0
 35 39  1  0
 36 35  2  0
 37 36  1  0
 38 37  1  0
 40 41  1  0
 41 44  1  0
 41 43  1  0
 42 40  2  0
 45 20  1  0
 45 46  1  0
 47 45  1  0
 49 50  1  0
 49 48  1  0
 51 50  1  0
 51 52  1  0
 53 55  1  0
 53 52  1  0
 54 65  2  0
 55 60  1  0
 56 64  1  0
 56 66  1  0
 57 63  1  0
 57 59  1  0
 58 64  1  0
 59 58  1  0
 60 59  2  0
 61 62  1  0
 61 55  2  0
 62 57  2  0
 63 56  1  0
 64 54  1  0
 66 68  2  0
 67 66  1  0
 69 67  1  0
 70 79  2  0
 70 75  1  0
 71 67  1  0
 71 75  1  0
 72 71  1  0
 73 74  1  0
 73 72  1  0
 74 70  1  0
 75 76  2  0
 76 77  1  0
 78 77  2  0
 79 78  1  0
 80 54  1  0
 80 81  1  0
 80 90  1  0
 81 84  1  0
 82 86  1  0
 82 81  1  0
 83 82  2  0
 86 85  1  0
 88 86  1  0
 88 89  1  0
 88 87  1  0
 90 93  1  1
 90 91  1  0
 92 90  1  0
M  ISO  4   6 100  19 100  52 101  53 101
M  END
>  <TORSDO>  (6) 
F 22

>  <SCORE>  (6) 
-10.971

>  <name>  (6) 
5

>  <ligand_id>  (6) 
5

>  <original_smiles>  (6) 
[H]c1c([H])c([H])c2c(c1[H])C([H])([H])C([H])([H])C([H])([H])C2([H])N([H])C(=O)C1([H])N(C(=O)C([H])(N([H])C(=O)C([H])(N([H])C([H])([H])[H])C([H])([H])[H])C(C([H])([H])[H])(C([H])([H])[H])C([H])([H])[H])C([H])([H])c2c([H])c(OC([H])([H])C([H])([H])C([H])([H])C([H])([H])C([H])([H])N([H])C(=O)C([H])([H])C3([H])C([H])([H])N(C(=O)N4C([H])([H])C([H])([H])C([H])([H])C([H])(n5nc(-c6c([H])c([H])c(Oc7c([H])c([H])c(F)c([H])c7F)c([H])c6[H])c(C(=O)N([H])[H])c5N([H])[H])C4([H])[H])C([H])([H])C([H])([H])C3([H])[H])c([H])c([H])c2C1([H])[H]

>  <smiles>  (6) 
[H]c1c([H])c([H])c2c(c1[H])C([H])([H])C([H])([H])C([H])([H])C2([H])N([H])C(=O)C1([H])N(C(=O)C([H])(N([H])C(=O)C([H])(N([H])C([H])([H])[H])C([H])([H])[H])C(C([H])([H])[H])(C([H])([H])[H])C([H])([H])[H])C([H])([H])c2c([H])c(OC([H])([H])C([H])([H])C([H])([H])C([H])([H])C([H])([H])N([H])C(=O)C([H])([H])C3([H])C([H])([H])N(C(=O)N4C([H])([H])C([H])([H])C([H])([H])C([H])(n5nc(-c6c([H])c([H])c(Oc7c([H])c([H])c(F)c([H])c7F)c([H])c6[H])c(C(=O)N([H])[H])c5N([H])[H])C4([H])[H])C([H])([H])C([H])([H])C3([H])[H])c([H])c([H])c2C1([H])[H]

$$$$
6:0:0
     RDKit          3D

 91 99  0  0  1  0  0  0  0  0999 V2000
  -29.0010  -20.7680   21.1800 C   0  0  0  0  0  2  0  0  0  0  0  0
  -29.9030  -19.5700   21.2200 N   0  0  0  0  0  4  0  0  0  0  0  0
  -30.7060  -19.7700   20.6460 H   0  0  0  0  0  0  0  0  0  0  0  0
  -30.2370  -19.4660   22.1660 H   0  0  0  0  0  0  0  0  0  0  0  0
  -30.6500  -14.6280   20.4420 C   0  0  0  0  0  0  0  0  0  0  0  0
  -30.3980  -12.3760   19.4660 C   0  0  0  0  0  2  0  0  0  0  0  0
  -29.4880  -12.4300   18.2200 C   0  0  0  0  0  2  0  0  0  0  0  0
  -27.9930  -12.3870   18.6110 C   0  0  0  0  0  2  0  0  0  0  0  0
  -27.6120  -13.2750   19.8300 C   0  0  0  0  0  3  0  0  0  0  0  0
  -28.6540  -13.1720   20.9640 C   0  0  0  0  0  2  0  0  0  0  0  0
  -29.9740  -13.4430   20.3840 N   0  0  0  0  0  0  0  0  0  0  0  0
  -31.8730  -14.6930   20.2920 O   0  0  0  0  0  0  0  0  0  0  0  0
  -28.3910  -17.0180   18.7600 C   0  0  0  0  0  2  0  0  0  0  0  0
  -28.7980  -18.3700   19.3210 C   0  0  0  0  0  2  0  0  0  0  0  0
  -29.5590  -16.0450   18.8820 C   0  0  0  0  0  2  0  0  0  0  0  0
  -30.3440  -17.0540   20.9110 C   0  0  0  0  0  2  0  0  0  0  0  0
  -29.3270  -18.2580   20.7700 C   0  0  0  0  0  3  0  0  0  0  0  0
  -29.9030  -15.7670   20.2900 N   0  0  0  0  0  0  0  0  0  0  0  0
  -25.2080  -13.8900   20.4930 C   0  0  0  0  0  0  0  0  0  0  0  0
  -24.1310  -13.1230   20.8430 C   0  0  0  0  0  0  0  0  0  0  0  0
  -24.5950  -11.7720   20.8450 C   0  0  0  0  0  0  0  0  0  0  0  0
  -26.2570  -13.0060   20.2980 N   0  0  0  0  0  0  0  0  0  0  0  0
  -25.8930  -11.7300   20.5750 N   0  0  0  0  0  0  0  0  0  0  0  0
  -23.8660  -10.5120   21.0310 C   0  0  0  0  0  0  0  0  0  0  0  0
  -24.2770   -9.5590   21.9880 C   0  0  0  0  0  3  0  0  0  0  0  0
  -23.5500   -8.3620   22.1630 C   0  0  0  0  0  3  0  0  0  0  0  0
  -22.3980   -8.1110   21.3800 C   0  0  0  0  0  0  0  0  0  0  0  0
  -22.0070   -9.0550   20.4140 C   0  0  0  0  0  3  0  0  0  0  0  0
  -22.7350  -10.2430   20.2370 C   0  0  0  0  0  3  0  0  0  0  0  0
  -21.6440   -6.9660   21.4640 O   0  0  0  0  0  0  0  0  0  0  0  0
  -21.5670   -6.2380   22.6240 C   0  0  0  0  0  0  0  0  0  0  0  0
  -21.1070   -6.8060   23.8310 C   0  0  0  0  0  3  0  0  0  0  0  0
  -20.9800   -6.0040   24.9820 C   0  0  0  0  0  3  0  0  0  0  0  0
  -21.3030   -4.6340   24.9270 C   0  0  0  0  0  0  0  0  0  0  0  0
  -21.7560   -4.0660   23.7240 C   0  0  0  0  0  3  0  0  0  0  0  0
  -21.8860   -4.8650   22.5740 C   0  0  0  0  0  0  0  0  0  0  0  0
  -22.3040   -4.3090   21.4120 F   0  0  0  0  0  0  0  0  0  0  0  0
  -21.1720   -3.8610   26.0300 F   0  0  0  0  0  0  0  0  0  0  0  0
  -22.7260  -13.6030   21.0670 C   0  0  0  0  0  0  0  0  0  0  0  0
  -21.9740  -12.9170   21.9210 N   0  0  0  0  0  0  0  0  0  0  0  0
  -22.3030  -14.6210   20.5220 O   0  0  0  0  0  0  0  0  0  0  0  0
  -22.3280  -12.0940   22.3840 H   0  0  0  0  0  0  0  0  0  0  0  0
  -21.0300  -13.2210   22.1140 H   0  0  0  0  0  0  0  0  0  0  0  0
  -25.3730  -15.2590   20.3070 N   0  0  0  0  0  0  0  0  0  0  0  0
  -24.6050  -15.9150   20.3950 H   0  0  0  0  0  0  0  0  0  0  0  0
  -26.2410  -15.6960   20.0280 H   0  0  0  0  0  0  0  0  0  0  0  0
  -29.7380  -22.1350   21.3210 C   0  0  0  0  0  2  0  0  0  0  0  0
  -28.8150  -23.3870   21.1870 C   0  0  0  0  0  2  0  0  0  0  0  0
  -29.5500  -24.7500   21.3290 C   0  0  0  0  0  2  0  0  0  0  0  0
  -28.6490  -26.0150   21.4460 C   0  0  0  0  0  2  0  0  0  0  0  0
  -28.4200  -26.6940   20.2020 O   0  0  0  0  0  0  0  0  0  0  0  0
  -24.5980  -31.9170   23.2370 C   0  0  0  0  0  0  0  0  0  0  0  0
  -27.2840  -27.4740   20.2000 C   0  0  0  0  0  0  0  0  0  0  0  0
  -23.4100  -30.5030   21.5920 C   0  0  0  0  0  3  0  0  0  0  0  0
  -24.8840  -28.9690   20.1800 C   0  0  0  0  0  0  0  0  0  0  0  0
  -25.9340  -30.8750   21.4090 C   0  0  0  0  0  2  0  0  0  0  0  0
  -26.0350  -29.5010   20.7800 C   0  0  0  0  0  0  0  0  0  0  0  0
  -27.2380  -28.7570   20.7940 C   0  0  0  0  0  3  0  0  0  0  0  0
  -26.1260  -26.9630   19.5840 C   0  0  0  0  0  3  0  0  0  0  0  0
  -24.9250  -27.6980   19.5780 C   0  0  0  0  0  3  0  0  0  0  0  0
  -23.6330  -29.8190   20.2160 C   0  0  0  0  0  2  0  0  0  0  0  0
  -24.6650  -31.1150   22.1380 N   0  0  0  0  0  0  0  0  0  0  0  0
  -23.5130  -32.1860   23.7710 O   0  0  0  0  0  0  0  0  0  0  0  0
  -22.7580  -29.4830   22.5520 C   0  0  0  0  0  0  0  0  0  0  0  0
  -21.4360  -29.2910   22.4160 N   0  0  0  0  0  0  0  0  0  0  0  0
  -23.4390  -28.8660   23.3750 O   0  0  0  0  0  0  0  0  0  0  0  0
  -20.9480  -29.8410   21.7230 H   0  0  0  0  0  0  0  0  0  0  0  0
  -18.0650  -28.0800   22.8950 C   0  0  0  0  0  0  0  0  0  0  0  0
  -20.6200  -28.3510   23.1840 C   0  0  0  0  0  3  0  0  0  0  0  0
  -20.7320  -26.9190   22.6110 C   0  0  0  0  0  2  0  0  0  0  0  0
  -19.6390  -26.5900   21.5900 C   0  0  0  0  0  2  0  0  0  0  0  0
  -18.2520  -26.7290   22.2250 C   0  0  0  0  0  2  0  0  0  0  0  0
  -19.1770  -28.8480   23.3310 C   0  0  0  0  0  0  0  0  0  0  0  0
  -18.9490  -30.1120   23.9170 C   0  0  0  0  0  3  0  0  0  0  0  0
  -17.6400  -30.6080   24.0720 C   0  0  0  0  0  3  0  0  0  0  0  0
  -16.5420  -29.8370   23.6540 C   0  0  0  0  0  3  0  0  0  0  0  0
  -16.7550  -28.5750   23.0710 C   0  0  0  0  0  3  0  0  0  0  0  0
  -25.8780  -32.5570   23.8630 C   0  0  0  0  0  3  0  0  0  0  0  0
  -25.5640  -33.9570   24.1790 N   0  0  0  0  0  0  0  0  0  0  0  0
  -25.9050  -35.0040   23.4150 C   0  0  0  0  0  0  0  0  0  0  0  0
  -26.5880  -34.8930   22.3940 O   0  0  0  0  0  0  0  0  0  0  0  0
  -24.9600  -34.1160   24.9710 H   0  0  0  0  0  0  0  0  0  0  0  0
  -24.1830  -36.7930   23.0190 C   0  0  0  0  0  1  0  0  0  0  0  0
  -25.4090  -36.3940   23.8550 C   0  0  0  0  0  3  0  0  0  0  0  0
  -27.5290  -37.2840   24.7180 C   0  0  0  0  0  1  0  0  0  0  0  0
  -26.4440  -37.4470   23.7540 N   0  0  0  0  0  0  0  0  0  0  0  0
  -26.0350  -38.3680   23.8870 H   0  0  0  0  0  0  0  0  0  0  0  0
  -26.3900  -31.7950   25.1470 C   0  0  1  0  0  0  0  0  0  0  0  0
  -25.2920  -31.5600   26.2100 C   0  0  0  0  0  1  0  0  0  0  0  0
  -26.9810  -30.4180   24.7640 C   0  0  0  0  0  1  0  0  0  0  0  0
  -27.5350  -32.5970   25.8100 C   0  0  0  0  0  1  0  0  0  0  0  0
  1  2  1  0
  1 47  1  0
  2  4  1  0
  3  2  1  0
  6 11  1  0
  7  8  1  0
  7  6  1  0
  9  8  1  0
  9 22  1  0
  9 10  1  0
 11  5  1  0
 11 10  1  0
 12  5  2  0
 13 15  1  0
 13 14  1  0
 14 17  1  0
 15 18  1  0
 17 16  1  0
 17  2  1  0
 18  5  1  0
 18 16  1  0
 19 20  2  0
 20 21  1  0
 20 39  1  0
 21 24  1  0
 22 19  1  0
 22 23  1  0
 23 21  2  0
 24 25  1  0
 25 26  2  0
 27 30  1  0
 27 26  1  0
 28 27  2  0
 29 28  1  0
 29 24  2  0
 30 31  1  0
 31 32  1  0
 32 33  2  0
 34 33  1  0
 34 38  1  0
 35 34  2  0
 36 31  2  0
 36 35  1  0
 37 36  1  0
 39 40  1  0
 40 43  1  0
 40 42  1  0
 41 39  2  0
 44 45  1  0
 44 19  1  0
 46 44  1  0
 48 47  1  0
 48 49  1  0
 49 50  1  0
 51 50  1  0
 52 63  2  0
 53 51  1  0
 53 58  1  0
 54 62  1  0
 54 64  1  0
 55 61  1  0
 55 57  1  0
 56 62  1  0
 57 58  2  0
 57 56  1  0
 59 53  2  0
 60 59  1  0
 60 55  2  0
 61 54  1  0
 62 52  1  0
 64 66  2  0
 65 64  1  0
 67 65  1  0
 68 77  2  0
 68 73  1  0
 69 65  1  0
 69 73  1  0
 70 69  1  0
 71 72  1  0
 71 70  1  0
 72 68  1  0
 73 74  2  0
 74 75  1  0
 76 75  2  0
 77 76  1  0
 78 52  1  0
 78 79  1  0
 78 88  1  0
 79 82  1  0
 80 84  1  0
 80 79  1  0
 81 80  2  0
 84 83  1  0
 86 84  1  0
 86 87  1  0
 86 85  1  0
 88 91  1  1
 88 89  1  0
 90 88  1  0
M  ISO  4   5 100  18 100  50 101  51 101
M  END
>  <TORSDO>  (7) 
F 21

>  <SCORE>  (7) 
-13.440

>  <name>  (7) 
6

>  <ligand_id>  (7) 
6

>  <original_smiles>  (7) 
[H]c1c([H])c([H])c2c(c1[H])C([H])([H])C([H])([H])C([H])([H])C2([H])N([H])C(=O)C1([H])N(C(=O)C([H])(N([H])C(=O)C([H])(N([H])C([H])([H])[H])C([H])([H])[H])C(C([H])([H])[H])(C([H])([H])[H])C([H])([H])[H])C([H])([H])c2c([H])c(OC([H])([H])C([H])([H])C([H])([H])C([H])([H])C([H])([H])[N+]([H])([H])C3([H])C([H])([H])N(C(=O)N4C([H])([H])C([H])([H])C([H])([H])C([H])(n5nc(-c6c([H])c([H])c(Oc7c([H])c([H])c(F)c([H])c7F)c([H])c6[H])c(C(=O)N([H])[H])c5N([H])[H])C4([H])[H])C([H])([H])C([H])([H])C3([H])[H])c([H])c([H])c2C1([H])[H]

>  <smiles>  (7) 
[H]c1c([H])c([H])c2c(c1[H])C([H])([H])C([H])([H])C([H])([H])C2([H])N([H])C(=O)C1([H])N(C(=O)C([H])(N([H])C(=O)C([H])(N([H])C([H])([H])[H])C([H])([H])[H])C(C([H])([H])[H])(C([H])([H])[H])C([H])([H])[H])C([H])([H])c2c([H])c(OC([H])([H])C([H])([H])C([H])([H])C([H])([H])C([H])([H])[N+]([H])([H])C3([H])C([H])([H])N(C(=O)N4C([H])([H])C([H])([H])C([H])([H])C([H])(n5nc(-c6c([H])c([H])c(Oc7c([H])c([H])c(F)c([H])c7F)c([H])c6[H])c(C(=O)N([H])[H])c5N([H])[H])C4([H])[H])C([H])([H])C([H])([H])C3([H])[H])c([H])c([H])c2C1([H])[H]

$$$$
7:0:0
     RDKit          3D

 96104  0  0  1  0  0  0  0  0999 V2000
  -29.6860  -19.5250   20.7260 C   0  0  0  0  0  0  0  0  0  0  0  0
  -30.9390  -19.6660   21.6020 C   0  0  0  0  0  2  0  0  0  0  0  0
  -31.7280  -17.3800   20.8480 C   0  0  0  0  0  2  0  0  0  0  0  0
  -29.3050  -18.0360   20.4690 C   0  0  0  0  0  3  0  0  0  0  0  0
  -30.2570  -16.9910   21.1710 C   0  0  0  0  0  3  0  0  0  0  0  0
  -28.9730  -20.4830   20.2190 N   0  0  0  0  0  0  0  0  0  0  0  0
  -32.0530  -18.7980   21.1460 N   0  0  0  0  0  4  0  0  0  0  0  0
  -32.7710  -18.8140   21.8510 H   0  0  0  0  0  0  0  0  0  0  0  0
  -32.4630  -19.2020   20.3200 H   0  0  0  0  0  0  0  0  0  0  0  0
  -30.5900  -14.5540   20.2980 C   0  0  0  0  0  0  0  0  0  0  0  0
  -30.2800  -12.4250   19.0800 C   0  0  0  0  0  2  0  0  0  0  0  0
  -29.3010  -12.6410   17.9070 C   0  0  0  0  0  2  0  0  0  0  0  0
  -27.8440  -12.4760   18.3780 C   0  0  0  0  0  2  0  0  0  0  0  0
  -27.5380  -13.2820   19.6690 C   0  0  0  0  0  3  0  0  0  0  0  0
  -28.6190  -13.0390   20.7440 C   0  0  0  0  0  2  0  0  0  0  0  0
  -29.9220  -13.3750   20.1490 N   0  0  0  0  0  0  0  0  0  0  0  0
  -31.6920  -14.7440   19.7830 O   0  0  0  0  0  0  0  0  0  0  0  0
  -29.9070  -15.5480   20.9270 N   0  0  0  0  0  0  0  0  0  0  0  0
  -29.0530  -15.2300   21.3610 H   0  0  0  0  0  0  0  0  0  0  0  0
  -25.1550  -13.8790   20.4330 C   0  0  0  0  0  0  0  0  0  0  0  0
  -24.1030  -13.1000   20.8390 C   0  0  0  0  0  0  0  0  0  0  0  0
  -24.5690  -11.7510   20.7910 C   0  0  0  0  0  0  0  0  0  0  0  0
  -26.1970  -13.0010   20.1750 N   0  0  0  0  0  0  0  0  0  0  0  0
  -25.8510  -11.7200   20.4510 N   0  0  0  0  0  0  0  0  0  0  0  0
  -23.8580  -10.4830   20.9910 C   0  0  0  0  0  0  0  0  0  0  0  0
  -24.3190   -9.5170   21.9120 C   0  0  0  0  0  3  0  0  0  0  0  0
  -23.6070   -8.3130   22.1020 C   0  0  0  0  0  3  0  0  0  0  0  0
  -22.4220   -8.0660   21.3720 C   0  0  0  0  0  0  0  0  0  0  0  0
  -21.9790   -9.0220   20.4390 C   0  0  0  0  0  3  0  0  0  0  0  0
  -22.6910  -10.2170   20.2460 C   0  0  0  0  0  3  0  0  0  0  0  0
  -21.6790   -6.9150   21.4710 O   0  0  0  0  0  0  0  0  0  0  0  0
  -21.6600   -6.1690   22.6230 C   0  0  0  0  0  0  0  0  0  0  0  0
  -21.2590   -6.7170   23.8610 C   0  0  0  0  0  3  0  0  0  0  0  0
  -21.1900   -5.8970   25.0040 C   0  0  0  0  0  3  0  0  0  0  0  0
  -21.5100   -4.5290   24.9100 C   0  0  0  0  0  0  0  0  0  0  0  0
  -21.9040   -3.9810   23.6770 C   0  0  0  0  0  3  0  0  0  0  0  0
  -21.9760   -4.7980   22.5360 C   0  0  0  0  0  0  0  0  0  0  0  0
  -22.3360   -4.2600   21.3460 F   0  0  0  0  0  0  0  0  0  0  0  0
  -21.4360   -3.7390   26.0060 F   0  0  0  0  0  0  0  0  0  0  0  0
  -22.7080  -13.5670   21.1410 C   0  0  0  0  0  0  0  0  0  0  0  0
  -21.9980  -12.8630   22.0180 N   0  0  0  0  0  0  0  0  0  0  0  0
  -22.2560  -14.5910   20.6300 O   0  0  0  0  0  0  0  0  0  0  0  0
  -22.3710  -12.0330   22.4540 H   0  0  0  0  0  0  0  0  0  0  0  0
  -21.0620  -13.1630   22.2530 H   0  0  0  0  0  0  0  0  0  0  0  0
  -25.3100  -15.2490   20.2300 N   0  0  0  0  0  0  0  0  0  0  0  0
  -24.4330  -15.7600   20.2410 H   0  0  0  0  0  0  0  0  0  0  0  0
  -25.8310  -15.4660   19.3890 H   0  0  0  0  0  0  0  0  0  0  0  0
  -27.8760  -17.8370   20.7730 N   0  0  0  0  0  4  0  0  0  0  0  0
  -27.6810  -17.9490   21.7520 H   0  0  0  0  0  0  0  0  0  0  0  0
  -27.5360  -16.9440   20.4670 H   0  0  0  0  0  0  0  0  0  0  0  0
  -27.3680  -18.5540   20.2820 H   0  0  0  0  0  0  0  0  0  0  0  0
  -29.3270  -21.9250   20.2250 C   0  0  0  0  0  2  0  0  0  0  0  0
  -28.3120  -22.8110   21.0080 C   0  0  0  0  0  2  0  0  0  0  0  0
  -28.6300  -24.3430   21.1590 C   0  0  0  0  0  2  0  0  0  0  0  0
  -28.4930  -25.2540   19.9040 C   0  0  0  0  0  2  0  0  0  0  0  0
  -28.4600  -26.6790   20.2160 O   0  0  0  0  0  0  0  0  0  0  0  0
  -24.6150  -31.9050   23.2440 C   0  0  0  0  0  0  0  0  0  0  0  0
  -27.2760  -27.4120   20.1920 C   0  0  0  0  0  0  0  0  0  0  0  0
  -23.4230  -30.4990   21.5980 C   0  0  0  0  0  3  0  0  0  0  0  0
  -24.8870  -28.9630   20.1870 C   0  0  0  0  0  0  0  0  0  0  0  0
  -25.9560  -30.8470   21.4220 C   0  0  0  0  0  2  0  0  0  0  0  0
  -26.0450  -29.4730   20.7820 C   0  0  0  0  0  0  0  0  0  0  0  0
  -27.2390  -28.7050   20.7800 C   0  0  0  0  0  3  0  0  0  0  0  0
  -26.0900  -26.9360   19.5840 C   0  0  0  0  0  3  0  0  0  0  0  0
  -24.9080  -27.6960   19.5850 C   0  0  0  0  0  3  0  0  0  0  0  0
  -23.6440  -29.8240   20.2210 C   0  0  0  0  0  2  0  0  0  0  0  0
  -24.6830  -31.1000   22.1460 N   0  0  0  0  0  0  0  0  0  0  0  0
  -23.5270  -32.1750   23.7740 O   0  0  0  0  0  0  0  0  0  0  0  0
  -22.7690  -29.4770   22.5550 C   0  0  0  0  0  0  0  0  0  0  0  0
  -21.4450  -29.2990   22.4270 N   0  0  0  0  0  0  0  0  0  0  0  0
  -23.4490  -28.8460   23.3680 O   0  0  0  0  0  0  0  0  0  0  0  0
  -20.9550  -29.8620   21.7460 H   0  0  0  0  0  0  0  0  0  0  0  0
  -18.0720  -28.1040   22.9190 C   0  0  0  0  0  0  0  0  0  0  0  0
  -20.6280  -28.3570   23.1930 C   0  0  0  0  0  3  0  0  0  0  0  0
  -20.7320  -26.9290   22.6100 C   0  0  0  0  0  2  0  0  0  0  0  0
  -19.6290  -26.6110   21.5960 C   0  0  0  0  0  2  0  0  0  0  0  0
  -18.2490  -26.7560   22.2380 C   0  0  0  0  0  2  0  0  0  0  0  0
  -19.1910  -28.8610   23.3530 C   0  0  0  0  0  0  0  0  0  0  0  0
  -18.9750  -30.1210   23.9500 C   0  0  0  0  0  3  0  0  0  0  0  0
  -17.6730  -30.6260   24.1160 C   0  0  0  0  0  3  0  0  0  0  0  0
  -16.5660  -29.8640   23.7000 C   0  0  0  0  0  3  0  0  0  0  0  0
  -16.7680  -28.6030   23.1070 C   0  0  0  0  0  3  0  0  0  0  0  0
  -25.8930  -32.5410   23.8700 C   0  0  0  0  0  3  0  0  0  0  0  0
  -25.5790  -33.9390   24.1940 N   0  0  0  0  0  0  0  0  0  0  0  0
  -25.9110  -34.9890   23.4330 C   0  0  0  0  0  0  0  0  0  0  0  0
  -26.5870  -34.8840   22.4060 O   0  0  0  0  0  0  0  0  0  0  0  0
  -24.9800  -34.0940   24.9900 H   0  0  0  0  0  0  0  0  0  0  0  0
  -24.1770  -36.7740   23.0630 C   0  0  0  0  0  1  0  0  0  0  0  0
  -25.4150  -36.3770   23.8820 C   0  0  0  0  0  3  0  0  0  0  0  0
  -27.5400  -37.2720   24.7240 C   0  0  0  0  0  1  0  0  0  0  0  0
  -26.4430  -37.4330   23.7730 N   0  0  0  0  0  0  0  0  0  0  0  0
  -26.0330  -38.3530   23.9160 H   0  0  0  0  0  0  0  0  0  0  0  0
  -26.4080  -31.7740   25.1500 C   0  0  1  0  0  0  0  0  0  0  0  0
  -25.3080  -31.5350   26.2110 C   0  0  0  0  0  1  0  0  0  0  0  0
  -26.9990  -30.3990   24.7620 C   0  0  0  0  0  1  0  0  0  0  0  0
  -27.5500  -32.5760   25.8160 C   0  0  0  0  0  1  0  0  0  0  0  0
  1  2  1  0
  3  7  1  0
  3  5  1  0
  4  1  1  0
  4 48  1  0
  4  5  1  0
  5 18  1  0
  6 52  1  0
  6  1  2  0
  7  2  1  0
  7  8  1  0
  9  7  1  0
 10 18  1  0
 11 16  1  0
 12 13  1  0
 12 11  1  0
 14 13  1  0
 14 23  1  0
 14 15  1  0
 16 10  1  0
 16 15  1  0
 17 10  2  0
 18 19  1  0
 20 21  2  0
 21 40  1  0
 22 21  1  0
 22 25  1  0
 23 20  1  0
 23 24  1  0
 24 22  2  0
 25 26  1  0
 26 27  2  0
 28 31  1  0
 28 27  1  0
 29 28  2  0
 30 29  1  0
 30 25  2  0
 31 32  1  0
 32 33  1  0
 33 34  2  0
 35 34  1  0
 35 39  1  0
 36 35  2  0
 37 32  2  0
 37 36  1  0
 38 37  1  0
 40 41  1  0
 41 44  1  0
 41 43  1  0
 42 40  2  0
 45 46  1  0
 45 20  1  0
 47 45  1  0
 48 49  1  0
 50 48  1  0
 51 48  1  0
 52 53  1  0
 53 54  1  0
 55 56  1  0
 55 54  1  0
 57 68  2  0
 58 56  1  0
 58 63  1  0
 59 67  1  0
 59 69  1  0
 60 66  1  0
 60 62  1  0
 61 67  1  0
 62 61  1  0
 63 62  2  0
 64 65  1  0
 64 58  2  0
 65 60  2  0
 66 59  1  0
 67 57  1  0
 69 71  2  0
 70 69  1  0
 72 70  1  0
 73 82  2  0
 73 78  1  0
 74 70  1  0
 74 78  1  0
 75 74  1  0
 76 77  1  0
 76 75  1  0
 77 73  1  0
 78 79  2  0
 79 80  1  0
 81 80  2  0
 82 81  1  0
 83 57  1  0
 83 84  1  0
 83 93  1  0
 84 87  1  0
 85 89  1  0
 85 84  1  0
 86 85  2  0
 89 88  1  0
 91 89  1  0
 91 92  1  0
 91 90  1  0
 93 96  1  1
 93 94  1  0
 95 93  1  0
M  ISO  4  10 100  18 100  55 101  56 101
M  END
>  <TORSDO>  (8) 
F 21

>  <SCORE>  (8) 
-13.909

>  <name>  (8) 
7

>  <ligand_id>  (8) 
7

>  <original_smiles>  (8) 
[H]c1c([H])c([H])c2c(c1[H])C([H])([H])C([H])([H])C([H])([H])C2([H])N([H])C(=O)C1([H])N(C(=O)C([H])(N([H])C(=O)C([H])(N([H])C([H])([H])[H])C([H])([H])[H])C(C([H])([H])[H])(C([H])([H])[H])C([H])([H])[H])C([H])([H])c2c([H])c(OC([H])([H])C([H])([H])C([H])([H])C([H])([H])N=C3C([H])([N+]([H])([H])[H])C([H])(N([H])C(=O)N4C([H])([H])C([H])([H])C([H])([H])C([H])(n5nc(-c6c([H])c([H])c(Oc7c([H])c([H])c(F)c([H])c7F)c([H])c6[H])c(C(=O)N([H])[H])c5N([H])[H])C4([H])[H])C([H])([H])[N+]([H])([H])C3([H])[H])c([H])c([H])c2C1([H])[H]

>  <smiles>  (8) 
[H]c1c([H])c([H])c2c(c1[H])C([H])([H])C([H])([H])C([H])([H])C2([H])N([H])C(=O)C1([H])N(C(=O)C([H])(N([H])C(=O)C([H])(N([H])C([H])([H])[H])C([H])([H])[H])C(C([H])([H])[H])(C([H])([H])[H])C([H])([H])[H])C([H])([H])c2c([H])c(OC([H])([H])C([H])([H])C([H])([H])C([H])([H])N=C3C([H])([N+]([H])([H])[H])C([H])(N([H])C(=O)N4C([H])([H])C([H])([H])C([H])([H])C([H])(n5nc(-c6c([H])c([H])c(Oc7c([H])c([H])c(F)c([H])c7F)c([H])c6[H])c(C(=O)N([H])[H])c5N([H])[H])C4([H])[H])C([H])([H])[N+]([H])([H])C3([H])[H])c([H])c([H])c2C1([H])[H]

$$$$
8:0:0
     RDKit          3D

 91 99  0  0  1  0  0  0  0  0999 V2000
  -29.5010  -19.7940   22.0840 C   0  0  0  0  0  3  0  0  0  0  0  0
  -29.7980  -19.8930   19.6640 C   0  0  0  0  0  3  0  0  0  0  0  0
  -29.2730  -21.1830   22.1100 C   0  0  0  0  0  3  0  0  0  0  0  0
  -29.5700  -21.2840   19.6920 C   0  0  0  0  0  3  0  0  0  0  0  0
  -29.6980  -19.1350   20.8530 C   0  0  0  0  0  0  0  0  0  0  0  0
  -29.2370  -21.9180   20.9080 C   0  0  0  0  0  0  0  0  0  0  0  0
  -29.6480  -17.6190   20.7870 C   0  0  0  0  0  2  0  0  0  0  0  0
  -30.9820  -16.9040   21.0220 C   0  0  0  0  0  2  0  0  0  0  0  0
  -31.2020  -14.5960   20.1050 C   0  0  0  0  0  0  0  0  0  0  0  0
  -30.7980  -12.4550   18.9530 C   0  0  0  0  0  2  0  0  0  0  0  0
  -29.8140  -12.6480   17.7810 C   0  0  0  0  0  2  0  0  0  0  0  0
  -28.3570  -12.5390   18.2610 C   0  0  0  0  0  2  0  0  0  0  0  0
  -28.0760  -13.4180   19.5060 C   0  0  0  0  0  3  0  0  0  0  0  0
  -29.1570  -13.1960   20.5900 C   0  0  0  0  0  2  0  0  0  0  0  0
  -30.4840  -13.4480   19.9910 N   0  0  0  0  0  0  0  0  0  0  0  0
  -32.1910  -14.8530   19.4130 O   0  0  0  0  0  0  0  0  0  0  0  0
  -30.7370  -15.4620   21.0110 N   0  0  0  0  0  0  0  0  0  0  0  0
  -29.9890  -15.1270   21.5970 H   0  0  0  0  0  0  0  0  0  0  0  0
  -25.7210  -14.0950   20.3080 C   0  0  0  0  0  0  0  0  0  0  0  0
  -24.6410  -13.3520   20.7070 C   0  0  0  0  0  0  0  0  0  0  0  0
  -25.0570  -11.9870   20.6360 C   0  0  0  0  0  0  0  0  0  0  0  0
  -26.7290  -13.1850   20.0280 N   0  0  0  0  0  0  0  0  0  0  0  0
  -26.3310  -11.9110   20.2760 N   0  0  0  0  0  0  0  0  0  0  0  0
  -24.2970  -10.7450   20.8330 C   0  0  0  0  0  0  0  0  0  0  0  0
  -24.6710   -9.7990   21.8120 C   0  0  0  0  0  3  0  0  0  0  0  0
  -23.9150   -8.6200   21.9950 C   0  0  0  0  0  3  0  0  0  0  0  0
  -22.7720   -8.3800   21.1960 C   0  0  0  0  0  0  0  0  0  0  0  0
  -22.4180   -9.3150   20.2070 C   0  0  0  0  0  3  0  0  0  0  0  0
  -23.1740  -10.4850   20.0220 C   0  0  0  0  0  3  0  0  0  0  0  0
  -21.9940   -7.2510   21.2820 O   0  0  0  0  0  0  0  0  0  0  0  0
  -21.7920   -6.6080   22.4770 C   0  0  0  0  0  0  0  0  0  0  0  0
  -21.1870   -7.2530   23.5790 C   0  0  0  0  0  3  0  0  0  0  0  0
  -20.9350   -6.5350   24.7640 C   0  0  0  0  0  3  0  0  0  0  0  0
  -21.2740   -5.1710   24.8490 C   0  0  0  0  0  0  0  0  0  0  0  0
  -21.8740   -4.5250   23.7530 C   0  0  0  0  0  3  0  0  0  0  0  0
  -22.1290   -5.2420   22.5700 C   0  0  0  0  0  0  0  0  0  0  0  0
  -22.6840   -4.6090   21.5090 F   0  0  0  0  0  0  0  0  0  0  0  0
  -21.0280   -4.4790   25.9850 F   0  0  0  0  0  0  0  0  0  0  0  0
  -23.2730  -13.8710   21.0460 C   0  0  0  0  0  0  0  0  0  0  0  0
  -22.5630  -13.1890   21.9370 N   0  0  0  0  0  0  0  0  0  0  0  0
  -22.8430  -14.9130   20.5540 O   0  0  0  0  0  0  0  0  0  0  0  0
  -22.9230  -12.3440   22.3570 H   0  0  0  0  0  0  0  0  0  0  0  0
  -21.6440  -13.5170   22.2050 H   0  0  0  0  0  0  0  0  0  0  0  0
  -25.9250  -15.4620   20.1450 N   0  0  0  0  0  0  0  0  0  0  0  0
  -25.1830  -16.1390   20.2810 H   0  0  0  0  0  0  0  0  0  0  0  0
  -26.7740  -15.8760   19.7810 H   0  0  0  0  0  0  0  0  0  0  0  0
  -28.5810  -23.2870   20.8990 C   0  0  0  0  0  2  0  0  0  0  0  0
  -30.0160  -25.1630   21.8380 C   0  0  0  0  0  1  0  0  0  0  0  0
  -29.4190  -24.5510   20.5630 C   0  0  0  0  0  3  0  0  0  0  0  0
  -28.4420  -25.5180   19.8570 C   0  0  0  0  0  2  0  0  0  0  0  0
  -28.6530  -26.9380   19.9620 O   0  0  0  0  0  0  0  0  0  0  0  0
  -24.5800  -31.8090   23.1860 C   0  0  0  0  0  0  0  0  0  0  0  0
  -27.4740  -27.6660   19.9150 C   0  0  0  0  0  0  0  0  0  0  0  0
  -23.4620  -30.4270   21.4690 C   0  0  0  0  0  3  0  0  0  0  0  0
  -25.0060  -29.0540   19.9790 C   0  0  0  0  0  0  0  0  0  0  0  0
  -25.9700  -30.9240   21.3180 C   0  0  0  0  0  2  0  0  0  0  0  0
  -26.1330  -29.5970   20.6090 C   0  0  0  0  0  0  0  0  0  0  0  0
  -27.3710  -28.9100   20.5780 C   0  0  0  0  0  3  0  0  0  0  0  0
  -26.3270  -27.1650   19.2460 C   0  0  0  0  0  3  0  0  0  0  0  0
  -25.0970  -27.8340   19.2950 C   0  0  0  0  0  3  0  0  0  0  0  0
  -23.7170  -29.8370   20.0590 C   0  0  0  0  0  2  0  0  0  0  0  0
  -24.6880  -31.0660   22.0490 N   0  0  0  0  0  0  0  0  0  0  0  0
  -23.4810  -31.9990   23.7260 O   0  0  0  0  0  0  0  0  0  0  0  0
  -22.8610  -29.3220   22.3690 C   0  0  0  0  0  0  0  0  0  0  0  0
  -21.5500  -29.0730   22.2160 N   0  0  0  0  0  0  0  0  0  0  0  0
  -23.5700  -28.6970   23.1610 O   0  0  0  0  0  0  0  0  0  0  0  0
  -21.0380  -29.6350   21.5510 H   0  0  0  0  0  0  0  0  0  0  0  0
  -18.2350  -27.6970   22.6340 C   0  0  0  0  0  0  0  0  0  0  0  0
  -20.7770  -28.0590   22.9320 C   0  0  0  0  0  3  0  0  0  0  0  0
  -20.9480  -26.6660   22.2820 C   0  0  0  0  0  2  0  0  0  0  0  0
  -19.8660  -26.3470   21.2470 C   0  0  0  0  0  2  0  0  0  0  0  0
  -18.4770  -26.3940   21.8910 C   0  0  0  0  0  2  0  0  0  0  0  0
  -19.3160  -28.4860   23.1090 C   0  0  0  0  0  0  0  0  0  0  0  0
  -19.0380  -29.7050   23.7640 C   0  0  0  0  0  3  0  0  0  0  0  0
  -17.7110  -30.1380   23.9470 C   0  0  0  0  0  3  0  0  0  0  0  0
  -16.6440  -29.3460   23.4890 C   0  0  0  0  0  3  0  0  0  0  0  0
  -16.9070  -28.1260   22.8390 C   0  0  0  0  0  3  0  0  0  0  0  0
  -25.8250  -32.4770   23.8460 C   0  0  0  0  0  3  0  0  0  0  0  0
  -25.4620  -33.8610   24.1760 N   0  0  0  0  0  0  0  0  0  0  0  0
  -25.7660  -34.9270   23.4240 C   0  0  0  0  0  0  0  0  0  0  0  0
  -26.4570  -34.8510   22.4020 O   0  0  0  0  0  0  0  0  0  0  0  0
  -24.8510  -33.9900   24.9690 H   0  0  0  0  0  0  0  0  0  0  0  0
  -23.9770  -36.6500   23.0440 C   0  0  0  0  0  1  0  0  0  0  0  0
  -25.2200  -36.2930   23.8750 C   0  0  0  0  0  3  0  0  0  0  0  0
  -27.2990  -37.2620   24.7490 C   0  0  0  0  0  1  0  0  0  0  0  0
  -26.2130  -37.3850   23.7800 N   0  0  0  0  0  0  0  0  0  0  0  0
  -25.7690  -38.2890   23.9160 H   0  0  0  0  0  0  0  0  0  0  0  0
  -26.3350  -31.7110   25.1280 C   0  0  1  0  0  0  0  0  0  0  0  0
  -25.2200  -31.4090   26.1560 C   0  0  0  0  0  1  0  0  0  0  0  0
  -26.9920  -30.3670   24.7350 C   0  0  0  0  0  1  0  0  0  0  0  0
  -27.4260  -32.5460   25.8380 C   0  0  0  0  0  1  0  0  0  0  0  0
  1  3  1  0
  2  4  2  0
  2  5  1  0
  4  6  1  0
  5  1  2  0
  6  3  2  0
  7  5  1  0
  7  8  1  0
  9 17  1  0
 10 15  1  0
 11 12  1  0
 11 10  1  0
 13 12  1  0
 13 22  1  0
 13 14  1  0
 15  9  1  0
 15 14  1  0
 16  9  2  0
 17  8  1  0
 17 18  1  0
 19 20  2  0
 20 39  1  0
 21 20  1  0
 21 24  1  0
 22 23  1  0
 22 19  1  0
 23 21  2  0
 24 25  1  0
 25 26  2  0
 27 30  1  0
 27 26  1  0
 28 27  2  0
 29 28  1  0
 29 24  2  0
 30 31  1  0
 31 36  2  0
 31 32  1  0
 32 33  2  0
 33 34  1  0
 34 38  1  0
 35 34  2  0
 36 35  1  0
 37 36  1  0
 39 40  1  0
 40 43  1  0
 40 42  1  0
 41 39  2  0
 44 45  1  0
 44 19  1  0
 46 44  1  0
 47  6  1  0
 49 47  1  0
 49 48  1  0
 50 51  1  0
 50 49  1  0
 52 63  2  0
 53 51  1  0
 53 58  1  0
 54 62  1  0
 54 64  1  0
 55 61  1  0
 55 57  1  0
 56 62  1  0
 57 56  1  0
 58 57  2  0
 59 60  1  0
 59 53  2  0
 60 55  2  0
 61 54  1  0
 62 52  1  0
 64 66  2  0
 65 64  1  0
 67 65  1  0
 68 77  2  0
 68 73  1  0
 69 65  1  0
 69 73  1  0
 70 69  1  0
 71 72  1  0
 71 70  1  0
 72 68  1  0
 73 74  2  0
 74 75  1  0
 76 75  2  0
 77 76  1  0
 78 52  1  0
 78 79  1  0
 78 88  1  0
 79 82  1  0
 80 84  1  0
 80 79  1  0
 81 80  2  0
 84 83  1  0
 86 84  1  0
 86 87  1  0
 86 85  1  0
 88 91  1  1
 88 89  1  0
 90 88  1  0
M  ISO  4   9 100  17 100  50 101  51 101
M  END
>  <TORSDO>  (9) 
F 21

>  <SCORE>  (9) 
-11.970

>  <name>  (9) 
8

>  <ligand_id>  (9) 
8

>  <original_smiles>  (9) 
[H]c1c([H])c([H])c2c(c1[H])C([H])([H])C([H])([H])C([H])([H])C2([H])N([H])C(=O)C1([H])N(C(=O)C([H])(N([H])C(=O)C([H])(N([H])C([H])([H])[H])C([H])([H])[H])C(C([H])([H])[H])(C([H])([H])[H])C([H])([H])[H])C([H])([H])c2c([H])c(OC([H])([H])C([H])(C([H])([H])[H])C([H])([H])c3c([H])c([H])c(C([H])([H])C([H])([H])N([H])C(=O)N4C([H])([H])C([H])([H])C([H])([H])C([H])(n5nc(-c6c([H])c([H])c(Oc7c([H])c([H])c(F)c([H])c7F)c([H])c6[H])c(C(=O)N([H])[H])c5N([H])[H])C4([H])[H])c([H])c3[H])c([H])c([H])c2C1([H])[H]

>  <smiles>  (9) 
[H]c1c([H])c([H])c2c(c1[H])C([H])([H])C([H])([H])C([H])([H])C2([H])N([H])C(=O)C1([H])N(C(=O)C([H])(N([H])C(=O)C([H])(N([H])C([H])([H])[H])C([H])([H])[H])C(C([H])([H])[H])(C([H])([H])[H])C([H])([H])[H])C([H])([H])c2c([H])c(OC([H])([H])C([H])(C([H])([H])[H])C([H])([H])c3c([H])c([H])c(C([H])([H])C([H])([H])N([H])C(=O)N4C([H])([H])C([H])([H])C([H])([H])C([H])(n5nc(-c6c([H])c([H])c(Oc7c([H])c([H])c(F)c([H])c7F)c([H])c6[H])c(C(=O)N([H])[H])c5N([H])[H])C4([H])[H])c([H])c3[H])c([H])c([H])c2C1([H])[H]

$$$$
9:0:0
     RDKit          3D

 95103  0  0  1  0  0  0  0  0999 V2000
  -30.4570  -22.2350   20.7330 C   0  0  0  0  0  3  0  0  0  0  0  0
  -29.0620  -24.3710   21.0370 C   0  0  0  0  0  3  0  0  0  0  0  0
  -29.2400  -23.0290   21.1950 C   0  0  0  0  0  3  0  0  0  0  0  0
  -28.1140  -25.5810   21.1750 C   0  0  0  0  0  2  0  0  0  0  0  0
  -28.3220  -26.6190   20.1980 O   0  0  0  0  0  0  0  0  0  0  0  0
  -24.5780  -31.8500   23.2230 C   0  0  0  0  0  0  0  0  0  0  0  0
  -27.2110  -27.4300   20.1190 C   0  0  0  0  0  0  0  0  0  0  0  0
  -23.3660  -30.4560   21.5770 C   0  0  0  0  0  3  0  0  0  0  0  0
  -24.8200  -28.9320   20.1350 C   0  0  0  0  0  0  0  0  0  0  0  0
  -25.8920  -30.8210   21.3750 C   0  0  0  0  0  2  0  0  0  0  0  0
  -25.9800  -29.4560   20.7230 C   0  0  0  0  0  0  0  0  0  0  0  0
  -27.1820  -28.7100   20.7140 C   0  0  0  0  0  3  0  0  0  0  0  0
  -26.0430  -26.9280   19.5070 C   0  0  0  0  0  3  0  0  0  0  0  0
  -24.8460  -27.6680   19.5230 C   0  0  0  0  0  3  0  0  0  0  0  0
  -23.5740  -29.7840   20.1930 C   0  0  0  0  0  2  0  0  0  0  0  0
  -24.6300  -31.0550   22.1180 N   0  0  0  0  0  0  0  0  0  0  0  0
  -23.4980  -32.1220   23.7660 O   0  0  0  0  0  0  0  0  0  0  0  0
  -22.7180  -29.4290   22.5340 C   0  0  0  0  0  0  0  0  0  0  0  0
  -21.3900  -29.2590   22.4180 N   0  0  0  0  0  0  0  0  0  0  0  0
  -23.4040  -28.7910   23.3370 O   0  0  0  0  0  0  0  0  0  0  0  0
  -20.8980  -29.8230   21.7410 H   0  0  0  0  0  0  0  0  0  0  0  0
  -18.0110  -28.1000   22.9470 C   0  0  0  0  0  0  0  0  0  0  0  0
  -20.5740  -28.3220   23.1890 C   0  0  0  0  0  3  0  0  0  0  0  0
  -20.6500  -26.8970   22.5930 C   0  0  0  0  0  2  0  0  0  0  0  0
  -19.5320  -26.6010   21.5890 C   0  0  0  0  0  2  0  0  0  0  0  0
  -18.1610  -26.7560   22.2540 C   0  0  0  0  0  2  0  0  0  0  0  0
  -19.1430  -28.8420   23.3710 C   0  0  0  0  0  0  0  0  0  0  0  0
  -18.9490  -30.1010   23.9800 C   0  0  0  0  0  3  0  0  0  0  0  0
  -17.6530  -30.6170   24.1680 C   0  0  0  0  0  3  0  0  0  0  0  0
  -16.5330  -29.8710   23.7590 C   0  0  0  0  0  3  0  0  0  0  0  0
  -16.7140  -28.6140   23.1550 C   0  0  0  0  0  3  0  0  0  0  0  0
  -25.8660  -32.4770   23.8410 C   0  0  0  0  0  3  0  0  0  0  0  0
  -25.5630  -33.8760   24.1660 N   0  0  0  0  0  0  0  0  0  0  0  0
  -25.9090  -34.9250   23.4070 C   0  0  0  0  0  0  0  0  0  0  0  0
  -26.5860  -34.8160   22.3810 O   0  0  0  0  0  0  0  0  0  0  0  0
  -24.9640  -34.0370   24.9620 H   0  0  0  0  0  0  0  0  0  0  0  0
  -24.1990  -36.7300   23.0270 C   0  0  0  0  0  1  0  0  0  0  0  0
  -25.4250  -36.3170   23.8580 C   0  0  0  0  0  3  0  0  0  0  0  0
  -27.5520  -37.1850   24.7240 C   0  0  0  0  0  1  0  0  0  0  0  0
  -26.4680  -37.3630   23.7610 N   0  0  0  0  0  0  0  0  0  0  0  0
  -26.0660  -38.2860   23.9020 H   0  0  0  0  0  0  0  0  0  0  0  0
  -26.3830  -31.7060   25.1170 C   0  0  1  0  0  0  0  0  0  0  0  0
  -25.2910  -31.4730   26.1870 C   0  0  0  0  0  1  0  0  0  0  0  0
  -26.9620  -30.3270   24.7240 C   0  0  0  0  0  1  0  0  0  0  0  0
  -27.5360  -32.4990   25.7780 C   0  0  0  0  0  1  0  0  0  0  0  0
  -30.0490  -21.1840   19.6540 C   0  0  0  0  0  2  0  0  0  0  0  0
  -31.2040  -18.9060   19.5580 C   0  0  0  0  0  3  0  0  0  0  0  0
  -29.1250  -19.0930   20.7960 C   0  0  0  0  0  3  0  0  0  0  0  0
  -31.2410  -17.5220   19.8270 C   0  0  0  0  0  3  0  0  0  0  0  0
  -29.1560  -17.7060   21.0590 C   0  0  0  0  0  3  0  0  0  0  0  0
  -30.1400  -19.7030   20.0310 C   0  0  0  0  0  0  0  0  0  0  0  0
  -30.2000  -16.8920   20.5590 C   0  0  0  0  0  0  0  0  0  0  0  0
  -30.7650  -14.4720   20.1780 C   0  0  0  0  0  0  0  0  0  0  0  0
  -30.3850  -12.3440   18.9980 C   0  0  0  0  0  2  0  0  0  0  0  0
  -29.4050  -12.6140   17.8370 C   0  0  0  0  0  2  0  0  0  0  0  0
  -27.9480  -12.4800   18.3200 C   0  0  0  0  0  2  0  0  0  0  0  0
  -27.6700  -13.2770   19.6230 C   0  0  0  0  0  3  0  0  0  0  0  0
  -28.7650  -13.0100   20.6800 C   0  0  0  0  0  2  0  0  0  0  0  0
  -30.0750  -13.3040   20.0700 N   0  0  0  0  0  0  0  0  0  0  0  0
  -31.8770  -14.6260   19.6690 O   0  0  0  0  0  0  0  0  0  0  0  0
  -30.1050  -15.4790   20.7890 N   0  0  0  0  0  0  0  0  0  0  0  0
  -29.2740  -15.1790   21.2720 H   0  0  0  0  0  0  0  0  0  0  0  0
  -25.2950  -13.8780   20.4190 C   0  0  0  0  0  0  0  0  0  0  0  0
  -24.2400  -13.1020   20.8180 C   0  0  0  0  0  0  0  0  0  0  0  0
  -24.6990  -11.7490   20.7560 C   0  0  0  0  0  0  0  0  0  0  0  0
  -26.3310  -13.0000   20.1430 N   0  0  0  0  0  0  0  0  0  0  0  0
  -25.9770  -11.7140   20.4020 N   0  0  0  0  0  0  0  0  0  0  0  0
  -23.9790  -10.4860   20.9600 C   0  0  0  0  0  0  0  0  0  0  0  0
  -24.4240   -9.5260   21.8960 C   0  0  0  0  0  3  0  0  0  0  0  0
  -23.7040   -8.3270   22.0900 C   0  0  0  0  0  3  0  0  0  0  0  0
  -22.5270   -8.0780   21.3450 C   0  0  0  0  0  0  0  0  0  0  0  0
  -22.0990   -9.0280   20.4000 C   0  0  0  0  0  3  0  0  0  0  0  0
  -22.8190  -10.2190   20.2060 C   0  0  0  0  0  3  0  0  0  0  0  0
  -21.7790   -6.9300   21.4460 O   0  0  0  0  0  0  0  0  0  0  0  0
  -21.7210   -6.2090   22.6120 C   0  0  0  0  0  0  0  0  0  0  0  0
  -21.2740   -6.7830   23.8210 C   0  0  0  0  0  3  0  0  0  0  0  0
  -21.1640   -5.9870   24.9800 C   0  0  0  0  0  3  0  0  0  0  0  0
  -21.4910   -4.6190   24.9290 C   0  0  0  0  0  0  0  0  0  0  0  0
  -21.9310   -4.0440   23.7230 C   0  0  0  0  0  3  0  0  0  0  0  0
  -22.0440   -4.8360   22.5670 C   0  0  0  0  0  0  0  0  0  0  0  0
  -22.4490   -4.2740   21.4020 F   0  0  0  0  0  0  0  0  0  0  0  0
  -21.3770   -3.8530   26.0380 F   0  0  0  0  0  0  0  0  0  0  0  0
  -22.8540  -13.5760   21.1440 C   0  0  0  0  0  0  0  0  0  0  0  0
  -22.1570  -12.8740   22.0300 N   0  0  0  0  0  0  0  0  0  0  0  0
  -22.4000  -14.6070   20.6500 O   0  0  0  0  0  0  0  0  0  0  0  0
  -22.5380  -12.0410   22.4540 H   0  0  0  0  0  0  0  0  0  0  0  0
  -21.2280  -13.1770   22.2880 H   0  0  0  0  0  0  0  0  0  0  0  0
  -25.4530  -15.2510   20.2530 N   0  0  0  0  0  0  0  0  0  0  0  0
  -24.6870  -15.8980   20.3990 H   0  0  0  0  0  0  0  0  0  0  0  0
  -26.2870  -15.6970   19.8900 H   0  0  0  0  0  0  0  0  0  0  0  0
  -31.1820  -21.6690   21.9840 C   0  0  0  0  0  2  0  0  0  0  0  0
  -32.5290  -21.1500   21.6960 N   0  0  0  0  0  4  0  0  0  0  0  0
  -32.4730  -20.3740   21.0600 H   0  0  0  0  0  0  0  0  0  0  0  0
  -32.9560  -20.8300   22.5480 H   0  0  0  0  0  0  0  0  0  0  0  0
  -33.1130  -21.8670   21.3040 H   0  0  0  0  0  0  0  0  0  0  0  0
  1 46  1  0
  1  3  1  0
  1 91  1  0
  2  4  1  0
  2  3  2  0
  5  4  1  0
  6 17  2  0
  7  5  1  0
  7 12  1  0
  8 16  1  0
  8 18  1  0
  9 15  1  0
  9 11  1  0
 10 16  1  0
 11 10  1  0
 12 11  2  0
 13 14  1  0
 13  7  2  0
 14  9  2  0
 15  8  1  0
 16  6  1  0
 18 20  2  0
 19 18  1  0
 21 19  1  0
 22 31  2  0
 22 27  1  0
 23 19  1  0
 23 27  1  0
 24 23  1  0
 25 26  1  0
 25 24  1  0
 26 22  1  0
 27 28  2  0
 28 29  1  0
 30 29  2  0
 31 30  1  0
 32  6  1  0
 32 33  1  0
 32 42  1  0
 33 36  1  0
 34 38  1  0
 34 33  1  0
 35 34  2  0
 38 37  1  0
 40 38  1  0
 40 41  1  0
 40 39  1  0
 42 45  1  1
 42 43  1  0
 44 42  1  0
 46 51  1  0
 47 49  2  0
 47 51  1  0
 48 50  1  0
 49 52  1  0
 51 48  2  0
 52 61  1  0
 52 50  2  0
 53 61  1  0
 54 59  1  0
 55 56  1  0
 55 54  1  0
 57 56  1  0
 57 66  1  0
 57 58  1  0
 59 53  1  0
 59 58  1  0
 60 53  2  0
 61 62  1  0
 63 64  2  0
 64 83  1  0
 65 64  1  0
 65 68  1  0
 66 67  1  0
 66 63  1  0
 67 65  2  0
 68 69  1  0
 69 70  2  0
 71 74  1  0
 71 70  1  0
 72 71  2  0
 73 72  1  0
 73 68  2  0
 74 75  1  0
 75 76  1  0
 76 77  2  0
 78 77  1  0
 78 82  1  0
 79 78  2  0
 80 75  2  0
 80 79  1  0
 81 80  1  0
 83 84  1  0
 84 87  1  0
 84 86  1  0
 85 83  2  0
 88 89  1  0
 88 63  1  0
 90 88  1  0
 92 91  1  0
 92 94  1  0
 93 92  1  0
 95 92  1  0
M  ISO  4   4 101   5 101  53 100  61 100
M  END
>  <TORSDO>  (10) 
F 22

>  <SCORE>  (10) 
-13.325

>  <name>  (10) 
9

>  <ligand_id>  (10) 
9

>  <original_smiles>  (10) 
[H]C(=C([H])C([H])(C([H])([H])c1c([H])c([H])c(N([H])C(=O)N2C([H])([H])C([H])([H])C([H])([H])C([H])(n3nc(-c4c([H])c([H])c(Oc5c([H])c([H])c(F)c([H])c5F)c([H])c4[H])c(C(=O)N([H])[H])c3N([H])[H])C2([H])[H])c([H])c1[H])C([H])([H])[N+]([H])([H])[H])C([H])([H])Oc1c([H])c([H])c2c(c1[H])C([H])([H])N(C(=O)C([H])(N([H])C(=O)C([H])(N([H])C([H])([H])[H])C([H])([H])[H])C(C([H])([H])[H])(C([H])([H])[H])C([H])([H])[H])C([H])(C(=O)N([H])C1([H])c3c([H])c([H])c([H])c([H])c3C([H])([H])C([H])([H])C1([H])[H])C2([H])[H]

>  <smiles>  (10) 
[H]C(=C([H])C([H])(C([H])([H])c1c([H])c([H])c(N([H])C(=O)N2C([H])([H])C([H])([H])C([H])([H])C([H])(n3nc(-c4c([H])c([H])c(Oc5c([H])c([H])c(F)c([H])c5F)c([H])c4[H])c(C(=O)N([H])[H])c3N([H])[H])C2([H])[H])c([H])c1[H])C([H])([H])[N+]([H])([H])[H])C([H])([H])Oc1c([H])c([H])c2c(c1[H])C([H])([H])N(C(=O)C([H])(N([H])C(=O)C([H])(N([H])C([H])([H])[H])C([H])([H])[H])C(C([H])([H])[H])(C([H])([H])[H])C([H])([H])[H])C([H])(C(=O)N([H])C1([H])c3c([H])c([H])c([H])c([H])c3C([H])([H])C([H])([H])C1([H])[H])C2([H])[H]

$$$$
10:0:0
     RDKit          3D

 98106  0  0  1  0  0  0  0  0999 V2000
  -32.2960  -20.0000   21.4430 C   0  0  0  0  0  2  0  0  0  0  0  0
  -29.8620  -20.3250   21.3770 C   0  0  0  0  0  2  0  0  0  0  0  0
  -32.5160  -21.4660   20.9920 C   0  0  0  0  0  2  0  0  0  0  0  0
  -30.0540  -21.7970   20.9460 C   0  0  0  0  0  2  0  0  0  0  0  0
  -30.9910  -19.4070   20.8640 C   0  0  0  0  0  3  0  0  0  0  0  0
  -31.3760  -22.3760   21.3230 N   0  0  2  0  0  4  0  0  0  0  0  0
  -31.3800  -22.4820   22.3280 H   0  0  0  0  0  0  0  0  0  0  0  0
  -30.7610  -17.9090   21.2480 C   0  0  0  0  0  2  0  0  0  0  0  0
  -30.1560  -16.9450   20.1750 C   0  0  0  0  0  3  0  0  0  0  0  0
  -30.7430  -14.5050   20.4570 C   0  0  0  0  0  0  0  0  0  0  0  0
  -30.4470  -12.3090   19.3910 C   0  0  0  0  0  2  0  0  0  0  0  0
  -29.5370  -12.5040   18.1600 C   0  0  0  0  0  2  0  0  0  0  0  0
  -28.0520  -12.3840   18.5590 C   0  0  0  0  0  2  0  0  0  0  0  0
  -27.6920  -13.2450   19.7990 C   0  0  0  0  0  3  0  0  0  0  0  0
  -28.7270  -13.0560   20.9360 C   0  0  0  0  0  2  0  0  0  0  0  0
  -30.0690  -13.3240   20.3880 N   0  0  0  0  0  0  0  0  0  0  0  0
  -31.8930  -14.6450   20.0400 O   0  0  0  0  0  0  0  0  0  0  0  0
  -29.9890  -15.5860   20.7500 N   0  0  0  0  0  0  0  0  0  0  0  0
  -29.0910  -15.3770   21.1570 H   0  0  0  0  0  0  0  0  0  0  0  0
  -25.2830  -13.8790   20.4570 C   0  0  0  0  0  0  0  0  0  0  0  0
  -24.1990  -13.1230   20.8140 C   0  0  0  0  0  0  0  0  0  0  0  0
  -24.6530  -11.7670   20.8150 C   0  0  0  0  0  0  0  0  0  0  0  0
  -26.3260  -12.9890   20.2580 N   0  0  0  0  0  0  0  0  0  0  0  0
  -25.9470  -11.7130   20.5320 N   0  0  0  0  0  0  0  0  0  0  0  0
  -23.9110  -10.5140   21.0120 C   0  0  0  0  0  0  0  0  0  0  0  0
  -24.3300   -9.5530   21.9590 C   0  0  0  0  0  3  0  0  0  0  0  0
  -23.5930   -8.3640   22.1450 C   0  0  0  0  0  3  0  0  0  0  0  0
  -22.4230   -8.1280   21.3820 C   0  0  0  0  0  0  0  0  0  0  0  0
  -22.0230   -9.0790   20.4290 C   0  0  0  0  0  3  0  0  0  0  0  0
  -22.7600  -10.2600   20.2410 C   0  0  0  0  0  3  0  0  0  0  0  0
  -21.6580   -6.9900   21.4770 O   0  0  0  0  0  0  0  0  0  0  0  0
  -21.6080   -6.2490   22.6300 C   0  0  0  0  0  0  0  0  0  0  0  0
  -21.2080   -6.8130   23.8630 C   0  0  0  0  0  3  0  0  0  0  0  0
  -21.1000   -6.0000   25.0070 C   0  0  0  0  0  3  0  0  0  0  0  0
  -21.3850   -4.6230   24.9220 C   0  0  0  0  0  0  0  0  0  0  0  0
  -21.7790   -4.0580   23.6960 C   0  0  0  0  0  3  0  0  0  0  0  0
  -21.8880   -4.8690   22.5530 C   0  0  0  0  0  0  0  0  0  0  0  0
  -22.2460   -4.3170   21.3680 F   0  0  0  0  0  0  0  0  0  0  0  0
  -21.2770   -3.8390   26.0190 F   0  0  0  0  0  0  0  0  0  0  0  0
  -22.8020  -13.6170   21.0480 C   0  0  0  0  0  0  0  0  0  0  0  0
  -22.0470  -12.9460   21.9130 N   0  0  0  0  0  0  0  0  0  0  0  0
  -22.3820  -14.6360   20.5020 O   0  0  0  0  0  0  0  0  0  0  0  0
  -22.3950  -12.1210   22.3800 H   0  0  0  0  0  0  0  0  0  0  0  0
  -21.1100  -13.2630   22.1090 H   0  0  0  0  0  0  0  0  0  0  0  0
  -25.4610  -15.2490   20.2680 N   0  0  0  0  0  0  0  0  0  0  0  0
  -24.6950  -15.9040   20.3680 H   0  0  0  0  0  0  0  0  0  0  0  0
  -26.3330  -15.6880   20.0230 H   0  0  0  0  0  0  0  0  0  0  0  0
  -28.7790  -17.3580   19.5690 C   0  0  0  0  0  2  0  0  0  0  0  0
  -28.8320  -18.4460   18.5570 N   0  0  0  0  0  4  0  0  0  0  0  0
  -29.1250  -19.3040   18.9910 H   0  0  0  0  0  0  0  0  0  0  0  0
  -29.5150  -18.1970   17.8570 H   0  0  0  0  0  0  0  0  0  0  0  0
  -27.6250  -19.7770   16.7760 C   0  0  0  0  0  1  0  0  0  0  0  0
  -27.5390  -18.6880   17.8640 C   0  0  0  0  0  2  0  0  0  0  0  0
  -31.5970  -23.7330   20.7350 C   0  0  0  0  0  2  0  0  0  0  0  0
  -30.5800  -24.8250   21.1650 C   0  0  0  0  0  2  0  0  0  0  0  0
  -30.7000  -26.1210   20.3340 C   0  0  0  0  0  2  0  0  0  0  0  0
  -29.6020  -27.1660   20.6250 C   0  0  0  0  0  2  0  0  0  0  0  0
  -28.3600  -26.6740   20.1260 O   0  0  0  0  0  0  0  0  0  0  0  0
  -24.5720  -31.9010   23.2410 C   0  0  0  0  0  0  0  0  0  0  0  0
  -27.2320  -27.4660   20.1880 C   0  0  0  0  0  0  0  0  0  0  0  0
  -23.3620  -30.4970   21.6030 C   0  0  0  0  0  3  0  0  0  0  0  0
  -24.8160  -28.9450   20.1970 C   0  0  0  0  0  0  0  0  0  0  0  0
  -25.8830  -30.8590   21.3970 C   0  0  0  0  0  2  0  0  0  0  0  0
  -25.9720  -29.4820   20.7770 C   0  0  0  0  0  0  0  0  0  0  0  0
  -27.1810  -28.7540   20.7730 C   0  0  0  0  0  3  0  0  0  0  0  0
  -26.0560  -26.9360   19.6200 C   0  0  0  0  0  3  0  0  0  0  0  0
  -24.8500  -27.6670   19.6180 C   0  0  0  0  0  3  0  0  0  0  0  0
  -23.5710  -29.8040   20.2300 C   0  0  0  0  0  2  0  0  0  0  0  0
  -24.6230  -31.1020   22.1380 N   0  0  0  0  0  0  0  0  0  0  0  0
  -23.4930  -32.1760   23.7840 O   0  0  0  0  0  0  0  0  0  0  0  0
  -22.7070  -29.4860   22.5700 C   0  0  0  0  0  0  0  0  0  0  0  0
  -21.3800  -29.3120   22.4500 N   0  0  0  0  0  0  0  0  0  0  0  0
  -23.3900  -28.8550   23.3810 O   0  0  0  0  0  0  0  0  0  0  0  0
  -20.8900  -29.8710   21.7650 H   0  0  0  0  0  0  0  0  0  0  0  0
  -18.0040  -28.1470   22.9710 C   0  0  0  0  0  0  0  0  0  0  0  0
  -20.5640  -28.3820   23.2290 C   0  0  0  0  0  3  0  0  0  0  0  0
  -20.6510  -26.9480   22.6590 C   0  0  0  0  0  2  0  0  0  0  0  0
  -19.5420  -26.6310   21.6500 C   0  0  0  0  0  2  0  0  0  0  0  0
  -18.1650  -26.7940   22.3010 C   0  0  0  0  0  2  0  0  0  0  0  0
  -19.1310  -28.8990   23.3940 C   0  0  0  0  0  0  0  0  0  0  0  0
  -18.9250  -30.1670   23.9810 C   0  0  0  0  0  3  0  0  0  0  0  0
  -17.6250  -30.6820   24.1490 C   0  0  0  0  0  3  0  0  0  0  0  0
  -16.5120  -29.9260   23.7400 C   0  0  0  0  0  3  0  0  0  0  0  0
  -16.7040  -28.6600   23.1580 C   0  0  0  0  0  3  0  0  0  0  0  0
  -25.8620  -32.5280   23.8570 C   0  0  0  0  0  3  0  0  0  0  0  0
  -26.3870  -31.7550   25.1290 C   0  0  1  0  0  0  0  0  0  0  0  0
  -25.3030  -31.5220   26.2080 C   0  0  0  0  0  1  0  0  0  0  0  0
  -26.9640  -30.3770   24.7270 C   0  0  0  0  0  1  0  0  0  0  0  0
  -27.5460  -32.5460   25.7780 C   0  0  0  0  0  1  0  0  0  0  0  0
  -25.5610  -33.9270   24.1850 N   0  0  0  0  0  0  0  0  0  0  0  0
  -25.9020  -34.9750   23.4240 C   0  0  0  0  0  0  0  0  0  0  0  0
  -26.5730  -34.8670   22.3950 O   0  0  0  0  0  0  0  0  0  0  0  0
  -24.9660  -34.0840   24.9870 H   0  0  0  0  0  0  0  0  0  0  0  0
  -24.1900  -36.7800   23.0480 C   0  0  0  0  0  1  0  0  0  0  0  0
  -25.4160  -36.3670   23.8760 C   0  0  0  0  0  3  0  0  0  0  0  0
  -27.5530  -37.2360   24.7230 C   0  0  0  0  0  1  0  0  0  0  0  0
  -26.4560  -37.4130   23.7760 N   0  0  0  0  0  0  0  0  0  0  0  0
  -26.0540  -38.3340   23.9220 H   0  0  0  0  0  0  0  0  0  0  0  0
  3  6  1  0
  3  1  1  0
  4  6  1  0
  4  2  1  0
  5  8  1  0
  5  2  1  0
  5  1  1  0
  6  7  1  1
  9 48  1  0
  9 18  1  0
  9  8  1  0
 10 18  1  0
 11 16  1  0
 12 13  1  0
 12 11  1  0
 14 13  1  0
 14 23  1  0
 14 15  1  0
 16 10  1  0
 16 15  1  0
 17 10  2  0
 18 19  1  0
 20 21  2  0
 21 22  1  0
 21 40  1  0
 22 25  1  0
 23 20  1  0
 23 24  1  0
 24 22  2  0
 25 26  1  0
 26 27  2  0
 28 31  1  0
 28 27  1  0
 29 28  2  0
 30 29  1  0
 30 25  2  0
 31 32  1  0
 32 33  1  0
 33 34  2  0
 35 34  1  0
 35 39  1  0
 36 35  2  0
 37 32  2  0
 37 36  1  0
 38 37  1  0
 40 41  1  0
 41 44  1  0
 41 43  1  0
 42 40  2  0
 45 46  1  0
 45 20  1  0
 47 45  1  0
 49 50  1  0
 49 48  1  0
 51 49  1  0
 52 53  1  0
 53 49  1  0
 54 55  1  0
 54  6  1  0
 56 57  1  0
 56 55  1  0
 58 60  1  0
 58 57  1  0
 59 70  2  0
 60 65  1  0
 61 69  1  0
 61 71  1  0
 62 68  1  0
 62 64  1  0
 63 69  1  0
 64 63  1  0
 65 64  2  0
 66 60  2  0
 67 66  1  0
 67 62  2  0
 68 61  1  0
 69 59  1  0
 71 73  2  0
 72 71  1  0
 74 72  1  0
 75 84  2  0
 75 80  1  0
 76 72  1  0
 76 80  1  0
 77 76  1  0
 78 79  1  0
 78 77  1  0
 79 75  1  0
 80 81  2  0
 81 82  1  0
 83 82  2  0
 84 83  1  0
 85 59  1  0
 85 90  1  0
 85 86  1  0
 86 89  1  1
 86 87  1  0
 88 86  1  0
 90 93  1  0
 91 95  1  0
 91 90  1  0
 92 91  2  0
 95 94  1  0
 97 95  1  0
 97 98  1  0
 97 96  1  0
M  ISO  4  10 100  18 100  57 101  58 101
M  END
>  <TORSDO>  (11) 
F 25

>  <SCORE>  (11) 
-12.406

>  <name>  (11) 
10

>  <ligand_id>  (11) 
10

>  <original_smiles>  (11) 
[H]c1c([H])c([H])c2c(c1[H])C([H])([H])C([H])([H])C([H])([H])C2([H])N([H])C(=O)C1([H])N(C(=O)C([H])(N([H])C(=O)C([H])(N([H])C([H])([H])[H])C([H])([H])[H])C(C([H])([H])[H])(C([H])([H])[H])C([H])([H])[H])C([H])([H])c2c([H])c(OC([H])([H])C([H])([H])C([H])([H])C([H])([H])[N+]3([H])C([H])([H])C([H])([H])C([H])(C([H])([H])C([H])(N([H])C(=O)N4C([H])([H])C([H])([H])C([H])([H])C([H])(n5nc(-c6c([H])c([H])c(Oc7c([H])c([H])c(F)c([H])c7F)c([H])c6[H])c(C(=O)N([H])[H])c5N([H])[H])C4([H])[H])C([H])([H])[N+]([H])([H])C([H])([H])C([H])([H])[H])C([H])([H])C3([H])[H])c([H])c([H])c2C1([H])[H]

>  <smiles>  (11) 
[H]c1c([H])c([H])c2c(c1[H])C([H])([H])C([H])([H])C([H])([H])C2([H])N([H])C(=O)C1([H])N(C(=O)C([H])(N([H])C(=O)C([H])(N([H])C([H])([H])[H])C([H])([H])[H])C(C([H])([H])[H])(C([H])([H])[H])C([H])([H])[H])C([H])([H])c2c([H])c(OC([H])([H])C([H])([H])C([H])([H])C([H])([H])[N+]3([H])C([H])([H])C([H])([H])C([H])(C([H])([H])C([H])(N([H])C(=O)N4C([H])([H])C([H])([H])C([H])([H])C([H])(n5nc(-c6c([H])c([H])c(Oc7c([H])c([H])c(F)c([H])c7F)c([H])c6[H])c(C(=O)N([H])[H])c5N([H])[H])C4([H])[H])C([H])([H])[N+]([H])([H])C([H])([H])C([H])([H])[H])C([H])([H])C3([H])[H])c([H])c([H])c2C1([H])[H]

$$$$
11:0:0
     RDKit          3D

 92 99  0  0  1  0  0  0  0  0999 V2000
  -28.4530  -21.4100   18.1680 N   0  0  0  0  0  4  0  0  0  0  0  0
  -28.3300  -21.8810   17.2870 H   0  0  0  0  0  0  0  0  0  0  0  0
  -29.2710  -20.8260   18.0990 H   0  0  0  0  0  0  0  0  0  0  0  0
  -28.6840  -22.4070   19.2300 C   0  0  0  0  0  2  0  0  0  0  0  0
  -29.7430  -23.4580   18.8210 C   0  0  0  0  0  2  0  0  0  0  0  0
  -29.7240  -24.7510   19.6660 C   0  0  0  0  0  2  0  0  0  0  0  0
  -28.3890  -25.4860   19.5350 C   0  0  0  0  0  2  0  0  0  0  0  0
  -28.4000  -26.7690   20.1480 O   0  0  0  0  0  0  0  0  0  0  0  0
  -24.5730  -31.8830   23.2520 C   0  0  0  0  0  0  0  0  0  0  0  0
  -27.2030  -27.4540   20.1530 C   0  0  0  0  0  0  0  0  0  0  0  0
  -23.3620  -30.4830   21.6190 C   0  0  0  0  0  3  0  0  0  0  0  0
  -24.8020  -28.9470   20.1900 C   0  0  0  0  0  0  0  0  0  0  0  0
  -25.8870  -30.8350   21.4150 C   0  0  0  0  0  2  0  0  0  0  0  0
  -25.9630  -29.4650   20.7810 C   0  0  0  0  0  0  0  0  0  0  0  0
  -27.1630  -28.7220   20.7700 C   0  0  0  0  0  3  0  0  0  0  0  0
  -26.0160  -26.9480   19.5610 C   0  0  0  0  0  3  0  0  0  0  0  0
  -24.8210  -27.6840   19.5860 C   0  0  0  0  0  3  0  0  0  0  0  0
  -23.5600  -29.8060   20.2390 C   0  0  0  0  0  2  0  0  0  0  0  0
  -24.6250  -31.0800   22.1530 N   0  0  0  0  0  0  0  0  0  0  0  0
  -23.4930  -32.1590   23.7930 O   0  0  0  0  0  0  0  0  0  0  0  0
  -22.7130  -29.4610   22.5810 C   0  0  0  0  0  0  0  0  0  0  0  0
  -21.3890  -29.2830   22.4510 N   0  0  0  0  0  0  0  0  0  0  0  0
  -23.3950  -28.8310   23.3940 O   0  0  0  0  0  0  0  0  0  0  0  0
  -20.9010  -29.8460   21.7690 H   0  0  0  0  0  0  0  0  0  0  0  0
  -18.0110  -28.0960   22.9410 C   0  0  0  0  0  0  0  0  0  0  0  0
  -20.5690  -28.3480   23.2190 C   0  0  0  0  0  3  0  0  0  0  0  0
  -20.6680  -26.9150   22.6470 C   0  0  0  0  0  2  0  0  0  0  0  0
  -19.5680  -26.5900   21.6310 C   0  0  0  0  0  2  0  0  0  0  0  0
  -18.1850  -26.7420   22.2720 C   0  0  0  0  0  2  0  0  0  0  0  0
  -19.1310  -28.8550   23.3720 C   0  0  0  0  0  0  0  0  0  0  0  0
  -18.9150  -30.1220   23.9580 C   0  0  0  0  0  3  0  0  0  0  0  0
  -17.6120  -30.6300   24.1150 C   0  0  0  0  0  3  0  0  0  0  0  0
  -16.5060  -29.8670   23.7020 C   0  0  0  0  0  3  0  0  0  0  0  0
  -16.7070  -28.6030   23.1210 C   0  0  0  0  0  3  0  0  0  0  0  0
  -25.8650  -32.5050   23.8690 C   0  0  0  0  0  3  0  0  0  0  0  0
  -26.3800  -31.7350   25.1450 C   0  0  1  0  0  0  0  0  0  0  0  0
  -25.2870  -31.5030   26.2140 C   0  0  0  0  0  1  0  0  0  0  0  0
  -26.9570  -30.3550   24.7500 C   0  0  0  0  0  1  0  0  0  0  0  0
  -27.5350  -32.5250   25.8010 C   0  0  0  0  0  1  0  0  0  0  0  0
  -25.5610  -33.9030   24.1950 N   0  0  0  0  0  0  0  0  0  0  0  0
  -25.9020  -34.9510   23.4340 C   0  0  0  0  0  0  0  0  0  0  0  0
  -26.5760  -34.8430   22.4070 O   0  0  0  0  0  0  0  0  0  0  0  0
  -24.9610  -34.0620   24.9900 H   0  0  0  0  0  0  0  0  0  0  0  0
  -24.1860  -36.7540   23.0700 C   0  0  0  0  0  1  0  0  0  0  0  0
  -25.4210  -36.3420   23.8880 C   0  0  0  0  0  3  0  0  0  0  0  0
  -27.5590  -37.2140   24.7260 C   0  0  0  0  0  1  0  0  0  0  0  0
  -26.4610  -37.3900   23.7780 N   0  0  0  0  0  0  0  0  0  0  0  0
  -26.0620  -38.3120   23.9220 H   0  0  0  0  0  0  0  0  0  0  0  0
  -27.2680  -20.5510   18.3870 C   0  0  0  0  0  2  0  0  0  0  0  0
  -27.3590  -19.2490   17.5770 C   0  0  0  0  0  2  0  0  0  0  0  0
  -28.8620  -17.7460   18.9420 C   0  0  0  0  0  3  0  0  0  0  0  0
  -28.6560  -18.5310   17.8760 C   0  0  0  0  0  3  0  0  0  0  0  0
  -30.2060  -17.1400   19.2500 C   0  0  0  0  0  2  0  0  0  0  0  0
  -30.3970  -16.8140   20.7500 C   0  0  0  0  0  2  0  0  0  0  0  0
  -30.7230  -14.3910   20.5540 C   0  0  0  0  0  0  0  0  0  0  0  0
  -30.3740  -12.2820   19.3580 C   0  0  0  0  0  2  0  0  0  0  0  0
  -29.4620  -12.5560   18.1470 C   0  0  0  0  0  2  0  0  0  0  0  0
  -27.9760  -12.4570   18.5500 C   0  0  0  0  0  2  0  0  0  0  0  0
  -27.6410  -13.2670   19.8320 C   0  0  0  0  0  3  0  0  0  0  0  0
  -28.6710  -12.9860   20.9530 C   0  0  0  0  0  2  0  0  0  0  0  0
  -30.0160  -13.2450   20.4090 N   0  0  0  0  0  0  0  0  0  0  0  0
  -31.8530  -14.5570   20.0860 O   0  0  0  0  0  0  0  0  0  0  0  0
  -30.0280  -15.4290   21.0310 N   0  0  0  0  0  0  0  0  0  0  0  0
  -29.1100  -15.2450   21.4080 H   0  0  0  0  0  0  0  0  0  0  0  0
  -25.2250  -13.9050   20.4600 C   0  0  0  0  0  0  0  0  0  0  0  0
  -24.1440  -13.1460   20.8220 C   0  0  0  0  0  0  0  0  0  0  0  0
  -24.5960  -11.7890   20.8260 C   0  0  0  0  0  0  0  0  0  0  0  0
  -26.2710  -13.0130   20.2770 N   0  0  0  0  0  0  0  0  0  0  0  0
  -25.8920  -11.7370   20.5490 N   0  0  0  0  0  0  0  0  0  0  0  0
  -23.8590  -10.5340   21.0220 C   0  0  0  0  0  0  0  0  0  0  0  0
  -24.2750   -9.5720   21.9690 C   0  0  0  0  0  3  0  0  0  0  0  0
  -23.5350   -8.3840   22.1510 C   0  0  0  0  0  3  0  0  0  0  0  0
  -22.3680   -8.1470   21.3860 C   0  0  0  0  0  0  0  0  0  0  0  0
  -21.9730   -9.0990   20.4300 C   0  0  0  0  0  3  0  0  0  0  0  0
  -22.7140  -10.2800   20.2440 C   0  0  0  0  0  3  0  0  0  0  0  0
  -21.6040   -7.0090   21.4740 O   0  0  0  0  0  0  0  0  0  0  0  0
  -21.5530   -6.2680   22.6280 C   0  0  0  0  0  0  0  0  0  0  0  0
  -21.1460   -6.8310   23.8570 C   0  0  0  0  0  3  0  0  0  0  0  0
  -21.0350   -6.0190   25.0030 C   0  0  0  0  0  3  0  0  0  0  0  0
  -21.3250   -4.6430   24.9230 C   0  0  0  0  0  0  0  0  0  0  0  0
  -21.7280   -4.0800   23.6980 C   0  0  0  0  0  3  0  0  0  0  0  0
  -21.8350   -4.8890   22.5540 C   0  0  0  0  0  0  0  0  0  0  0  0
  -22.2020   -4.3360   21.3730 F   0  0  0  0  0  0  0  0  0  0  0  0
  -21.2140   -3.8590   26.0210 F   0  0  0  0  0  0  0  0  0  0  0  0
  -22.7450  -13.6370   21.0600 C   0  0  0  0  0  0  0  0  0  0  0  0
  -21.9980  -12.9580   21.9240 N   0  0  0  0  0  0  0  0  0  0  0  0
  -22.3220  -14.6580   20.5180 O   0  0  0  0  0  0  0  0  0  0  0  0
  -22.3490  -12.1290   22.3800 H   0  0  0  0  0  0  0  0  0  0  0  0
  -21.0610  -13.2730   22.1370 H   0  0  0  0  0  0  0  0  0  0  0  0
  -25.4040  -15.2700   20.2550 N   0  0  0  0  0  0  0  0  0  0  0  0
  -24.6410  -15.9350   20.3210 H   0  0  0  0  0  0  0  0  0  0  0  0
  -26.2660  -15.6870   19.9230 H   0  0  0  0  0  0  0  0  0  0  0  0
  1 49  1  0
  1  4  1  0
  2  1  1  0
  3  1  1  0
  5  4  1  0
  5  6  1  0
  7  6  1  0
  7  8  1  0
  8 10  1  0
  9 20  2  0
 10 15  1  0
 11 19  1  0
 11 21  1  0
 12 18  1  0
 12 14  1  0
 13 19  1  0
 14 13  1  0
 15 14  2  0
 16 17  1  0
 16 10  2  0
 17 12  2  0
 18 11  1  0
 19  9  1  0
 21 23  2  0
 22 21  1  0
 24 22  1  0
 25 34  2  0
 25 30  1  0
 26 22  1  0
 26 30  1  0
 27 26  1  0
 28 29  1  0
 28 27  1  0
 29 25  1  0
 30 31  2  0
 31 32  1  0
 33 32  2  0
 34 33  1  0
 35  9  1  0
 35 40  1  0
 35 36  1  0
 36 39  1  1
 36 37  1  0
 38 36  1  0
 40 43  1  0
 41 45  1  0
 41 40  1  0
 42 41  2  0
 45 44  1  0
 47 45  1  0
 47 48  1  0
 47 46  1  0
 50 52  1  0
 50 49  1  0
 51 53  1  0
 52 51  2  0
 53 54  1  0
 54 63  1  0
 55 63  1  0
 56 61  1  0
 57 58  1  0
 57 56  1  0
 59 58  1  0
 59 68  1  0
 59 60  1  0
 61 55  1  0
 61 60  1  0
 62 55  2  0
 63 64  1  0
 65 66  2  0
 66 67  1  0
 66 85  1  0
 67 70  1  0
 68 65  1  0
 68 69  1  0
 69 67  2  0
 70 71  1  0
 71 72  2  0
 73 76  1  0
 73 72  1  0
 74 73  2  0
 75 74  1  0
 75 70  2  0
 76 77  1  0
 77 78  1  0
 78 79  2  0
 80 79  1  0
 80 84  1  0
 81 80  2  0
 82 77  2  0
 82 81  1  0
 83 82  1  0
 85 86  1  0
 86 89  1  0
 86 88  1  0
 87 85  2  0
 90 91  1  0
 90 65  1  0
 92 90  1  0
M  ISO  4   7 101   8 101  55 100  63 100
M  END
>  <TORSDO>  (12) 
F 25

>  <SCORE>  (12) 
-12.128

>  <name>  (12) 
11

>  <ligand_id>  (12) 
11

>  <original_smiles>  (12) 
[H]C(=C([H])C([H])([H])C([H])([H])[N+]([H])([H])C([H])([H])C([H])([H])C([H])([H])C([H])([H])Oc1c([H])c([H])c2c(c1[H])C([H])([H])N(C(=O)C([H])(N([H])C(=O)C([H])(N([H])C([H])([H])[H])C([H])([H])[H])C(C([H])([H])[H])(C([H])([H])[H])C([H])([H])[H])C([H])(C(=O)N([H])C1([H])c3c([H])c([H])c([H])c([H])c3C([H])([H])C([H])([H])C1([H])[H])C2([H])[H])C([H])([H])C([H])([H])N([H])C(=O)N1C([H])([H])C([H])([H])C([H])([H])C([H])(n2nc(-c3c([H])c([H])c(Oc4c([H])c([H])c(F)c([H])c4F)c([H])c3[H])c(C(=O)N([H])[H])c2N([H])[H])C1([H])[H]

>  <smiles>  (12) 
[H]C(=C([H])C([H])([H])C([H])([H])[N+]([H])([H])C([H])([H])C([H])([H])C([H])([H])C([H])([H])Oc1c([H])c([H])c2c(c1[H])C([H])([H])N(C(=O)C([H])(N([H])C(=O)C([H])(N([H])C([H])([H])[H])C([H])([H])[H])C(C([H])([H])[H])(C([H])([H])[H])C([H])([H])[H])C([H])(C(=O)N([H])C1([H])c3c([H])c([H])c([H])c([H])c3C([H])([H])C([H])([H])C1([H])[H])C2([H])[H])C([H])([H])C([H])([H])N([H])C(=O)N1C([H])([H])C([H])([H])C([H])([H])C([H])(n2nc(-c3c([H])c([H])c(Oc4c([H])c([H])c(F)c([H])c4F)c([H])c3[H])c(C(=O)N([H])[H])c2N([H])[H])C1([H])[H]

$$$$
12:0:0
     RDKit          3D

 95104  0  0  1  0  0  0  0  0999 V2000
  -24.6040  -21.7170   18.4640 C   0  0  0  0  0  2  0  0  0  0  0  0
  -25.0520  -22.7010   19.5400 C   0  0  0  0  0  2  0  0  0  0  0  0
  -26.7440  -20.9870   19.2840 C   0  0  0  0  0  3  0  0  0  0  0  0
  -25.3810  -20.4190   18.7820 C   0  0  0  0  0  3  0  0  0  0  0  0
  -24.5410  -19.5260   19.7120 C   0  0  0  0  0  1  0  0  0  0  0  0
  -26.4820  -22.3980   19.7740 N   0  0  2  0  0  4  0  0  0  0  0  0
  -26.9830  -22.9550   19.1030 H   0  0  0  0  0  0  0  0  0  0  0  0
  -27.8870  -20.0270   19.8490 C   0  0  0  0  0  0  0  0  0  0  0  0
  -28.2370  -19.0360   18.9990 N   0  0  0  0  0  0  0  0  0  0  0  0
  -28.4020  -20.1520   20.9500 O   0  0  0  0  0  0  0  0  0  0  0  0
  -27.5480  -19.0470   18.2610 H   0  0  0  0  0  0  0  0  0  0  0  0
  -31.0490  -15.1600   19.2330 C   0  0  0  0  0  0  0  0  0  0  0  0
  -30.8390  -12.7950   18.4610 C   0  0  0  0  0  2  0  0  0  0  0  0
  -29.7160  -12.7070   17.4040 C   0  0  0  0  0  2  0  0  0  0  0  0
  -28.3480  -12.5070   18.0850 C   0  0  0  0  0  2  0  0  0  0  0  0
  -28.1260  -13.5120   19.2280 C   0  0  0  0  0  3  0  0  0  0  0  0
  -29.3390  -13.5720   20.1810 C   0  0  0  0  0  2  0  0  0  0  0  0
  -30.5020  -13.9080   19.3640 N   0  0  0  0  0  0  0  0  0  0  0  0
  -32.1950  -15.2930   18.7860 O   0  0  0  0  0  0  0  0  0  0  0  0
  -30.5210  -17.7290   19.7290 C   0  0  0  0  0  2  0  0  0  0  0  0
  -28.8670  -16.6140   19.2330 C   0  0  0  0  0  2  0  0  0  0  0  0
  -29.2980  -17.9900   18.8100 C   0  0  0  0  0  3  0  0  0  0  0  0
  -30.2590  -16.2570   19.5550 N   0  0  0  0  0  0  0  0  0  0  0  0
  -26.0460  -14.2610   20.5260 C   0  0  0  0  0  0  0  0  0  0  0  0
  -24.9770  -13.5590   21.0000 C   0  0  0  0  0  0  0  0  0  0  0  0
  -25.2400  -12.1970   20.6690 C   0  0  0  0  0  0  0  0  0  0  0  0
  -26.8890  -13.3220   19.9500 N   0  0  0  0  0  0  0  0  0  0  0  0
  -26.4220  -12.0670   20.0950 N   0  0  0  0  0  0  0  0  0  0  0  0
  -24.4000  -11.0170   20.7880 C   0  0  0  0  0  0  0  0  0  0  0  0
  -24.7720   -9.9430   21.6230 C   0  0  0  0  0  3  0  0  0  0  0  0
  -23.9430   -8.8100   21.7300 C   0  0  0  0  0  3  0  0  0  0  0  0
  -22.7290   -8.7560   21.0020 C   0  0  0  0  0  0  0  0  0  0  0  0
  -22.3750   -9.8250   20.1570 C   0  0  0  0  0  3  0  0  0  0  0  0
  -23.2060  -10.9490   20.0460 C   0  0  0  0  0  3  0  0  0  0  0  0
  -21.8630   -7.6920   21.0340 O   0  0  0  0  0  0  0  0  0  0  0  0
  -21.6470   -6.9830   22.1860 C   0  0  0  0  0  0  0  0  0  0  0  0
  -21.1480   -7.5930   23.3570 C   0  0  0  0  0  3  0  0  0  0  0  0
  -20.8670   -6.8090   24.4930 C   0  0  0  0  0  3  0  0  0  0  0  0
  -21.0780   -5.4170   24.4600 C   0  0  0  0  0  0  0  0  0  0  0  0
  -21.5720   -4.8080   23.2920 C   0  0  0  0  0  3  0  0  0  0  0  0
  -21.8520   -5.5900   22.1570 C   0  0  0  0  0  0  0  0  0  0  0  0
  -22.3060   -4.9950   21.0280 F   0  0  0  0  0  0  0  0  0  0  0  0
  -20.8060   -4.6620   25.5500 F   0  0  0  0  0  0  0  0  0  0  0  0
  -23.7430  -14.1350   21.6280 C   0  0  0  0  0  0  0  0  0  0  0  0
  -23.1260  -13.3870   22.5320 N   0  0  0  0  0  0  0  0  0  0  0  0
  -23.3470  -15.2650   21.3500 O   0  0  0  0  0  0  0  0  0  0  0  0
  -23.4840  -12.4710   22.7610 H   0  0  0  0  0  0  0  0  0  0  0  0
  -22.3040  -13.7280   23.0000 H   0  0  0  0  0  0  0  0  0  0  0  0
  -26.3360  -15.6190   20.5000 N   0  0  0  0  0  0  0  0  0  0  0  0
  -25.6700  -16.3140   20.8080 H   0  0  0  0  0  0  0  0  0  0  0  0
  -27.0920  -16.0250   19.9680 H   0  0  0  0  0  0  0  0  0  0  0  0
  -27.0610  -22.9470   21.0430 C   0  0  0  0  0  2  0  0  0  0  0  0
  -28.0280  -24.1860   20.8010 C   0  0  0  0  0  2  0  0  0  0  0  0
  -27.5210  -25.6800   21.0280 C   0  0  0  0  0  2  0  0  0  0  0  0
  -28.1130  -26.8300   20.2900 O   0  0  0  0  0  0  0  0  0  0  0  0
  -24.7140  -32.0660   23.6660 C   0  0  0  0  0  0  0  0  0  0  0  0
  -27.1710  -27.8400   20.1700 C   0  0  0  0  0  0  0  0  0  0  0  0
  -23.4980  -30.9280   21.8780 C   0  0  0  0  0  3  0  0  0  0  0  0
  -24.9140  -29.5530   20.2190 C   0  0  0  0  0  0  0  0  0  0  0  0
  -26.0340  -31.1910   21.7290 C   0  0  0  0  0  2  0  0  0  0  0  0
  -26.0800  -29.9110   20.9080 C   0  0  0  0  0  0  0  0  0  0  0  0
  -27.2130  -29.0680   20.8750 C   0  0  0  0  0  3  0  0  0  0  0  0
  -26.0190  -27.5400   19.4310 C   0  0  0  0  0  3  0  0  0  0  0  0
  -24.8920  -28.3740   19.4420 C   0  0  0  0  0  3  0  0  0  0  0  0
  -23.6900  -30.4270   20.4170 C   0  0  0  0  0  2  0  0  0  0  0  0
  -24.7750  -31.4020   22.4970 N   0  0  0  0  0  0  0  0  0  0  0  0
  -23.6390  -32.2970   24.2240 O   0  0  0  0  0  0  0  0  0  0  0  0
  -22.8060  -29.8270   22.7180 C   0  0  0  0  0  0  0  0  0  0  0  0
  -21.4790  -29.7380   22.6080 N   0  0  0  0  0  0  0  0  0  0  0  0
  -23.4660  -29.0410   23.4100 O   0  0  0  0  0  0  0  0  0  0  0  0
  -21.0310  -30.3790   21.9680 H   0  0  0  0  0  0  0  0  0  0  0  0
  -18.0980  -28.4430   22.7270 C   0  0  0  0  0  0  0  0  0  0  0  0
  -20.6550  -28.6620   23.1430 C   0  0  0  0  0  0  0  0  0  0  0  0
  -20.8540  -27.3790   22.3000 C   0  0  0  0  0  3  0  0  0  0  0  0
  -19.6960  -26.8560   21.4300 C   0  0  0  0  0  3  0  0  0  0  0  0
  -18.2680  -27.2920   21.7390 C   0  0  0  0  0  3  0  0  0  0  0  0
  -19.1980  -29.1160   23.3080 C   0  0  0  0  0  0  0  0  0  0  0  0
  -18.9590  -30.2560   24.0810 C   0  0  0  0  0  3  0  0  0  0  0  0
  -17.6460  -30.7180   24.3060 C   0  0  0  0  0  3  0  0  0  0  0  0
  -16.5720  -30.0190   23.7410 C   0  0  0  0  0  3  0  0  0  0  0  0
  -16.7950  -28.8910   22.9560 C   0  0  0  0  0  3  0  0  0  0  0  0
  -26.0250  -32.5930   24.3630 C   0  0  0  0  0  3  0  0  0  0  0  0
  -26.4610  -31.7090   25.5940 C   0  0  1  0  0  0  0  0  0  0  0  0
  -25.3260  -31.4620   26.6160 C   0  0  0  0  0  1  0  0  0  0  0  0
  -26.9750  -30.3270   25.1210 C   0  0  0  0  0  1  0  0  0  0  0  0
  -27.6330  -32.3820   26.3320 C   0  0  0  0  0  1  0  0  0  0  0  0
  -25.7590  -33.9800   24.7830 N   0  0  0  0  0  0  0  0  0  0  0  0
  -26.1920  -35.0490   24.1200 C   0  0  0  0  0  0  0  0  0  0  0  0
  -26.9030  -34.9850   23.1170 O   0  0  0  0  0  0  0  0  0  0  0  0
  -25.1410  -34.1210   25.5680 H   0  0  0  0  0  0  0  0  0  0  0  0
  -24.5980  -36.9700   23.8080 C   0  0  0  0  0  1  0  0  0  0  0  0
  -25.7570  -36.4390   24.6600 C   0  0  0  0  0  3  0  0  0  0  0  0
  -27.8890  -37.1240   25.6630 C   0  0  0  0  0  1  0  0  0  0  0  0
  -26.8550  -37.4250   24.6820 N   0  0  0  0  0  0  0  0  0  0  0  0
  -26.4930  -38.3530   24.8840 H   0  0  0  0  0  0  0  0  0  0  0  0
  1  4  1  0
  1  2  1  0
  2  6  1  0
  3  6  1  0
  3  8  1  0
  4  3  1  0
  4  5  1  0
  6 52  1  0
  6  7  1  6
  8 10  2  0
  9  8  1  0
 11  9  1  0
 12 18  1  0
 12 23  1  0
 13 18  1  0
 14 15  1  0
 14 13  1  0
 16 15  1  0
 16 27  1  0
 16 17  1  0
 18 17  1  0
 19 12  2  0
 21 23  1  0
 22  9  1  0
 22 21  1  0
 22 20  1  0
 23 20  1  0
 24 25  2  0
 25 44  1  0
 26 29  1  0
 26 25  1  0
 27 28  1  0
 27 24  1  0
 28 26  2  0
 29 30  1  0
 30 31  2  0
 32 35  1  0
 32 31  1  0
 33 32  2  0
 34 33  1  0
 34 29  2  0
 35 36  1  0
 36 37  1  0
 37 38  2  0
 39 38  1  0
 39 43  1  0
 40 39  2  0
 41 36  2  0
 41 40  1  0
 42 41  1  0
 44 45  1  0
 45 47  1  0
 45 48  1  0
 46 44  2  0
 49 24  1  0
 49 50  1  0
 51 49  1  0
 53 54  1  0
 53 52  1  0
 55 54  1  0
 56 67  2  0
 57 55  1  0
 57 62  1  0
 58 66  1  0
 58 68  1  0
 59 65  1  0
 59 61  1  0
 60 66  1  0
 61 60  1  0
 62 61  2  0
 63 64  1  0
 63 57  2  0
 64 59  2  0
 65 58  1  0
 66 56  1  0
 68 70  2  0
 69 68  1  0
 69 73  1  0
 71 69  1  0
 72 81  2  0
 72 77  1  0
 73 77  1  0
 74 73  2  0
 75 76  2  0
 75 74  1  0
 76 72  1  0
 77 78  2  0
 78 79  1  0
 80 79  2  0
 81 80  1  0
 82 56  1  0
 82 87  1  0
 82 83  1  0
 83 86  1  1
 83 84  1  0
 85 83  1  0
 87 90  1  0
 88 92  1  0
 88 87  1  0
 89 88  2  0
 92 91  1  0
 92 94  1  0
 94 95  1  0
 94 93  1  0
M  ISO  4  12 100  23 100  54 101  55 101
M  END
>  <TORSDO>  (13) 
F 20

>  <SCORE>  (13) 
-8.492

>  <name>  (13) 
12

>  <ligand_id>  (13) 
12

>  <original_smiles>  (13) 
[H]c1c([H])c([H])c2c(c1[H])C([H])([H])C([H])([H])C([H])([H])C2([H])N([H])C(=O)C1([H])N(C(=O)C([H])(N([H])C(=O)C([H])(N([H])C([H])([H])[H])C([H])([H])[H])C(C([H])([H])[H])(C([H])([H])[H])C([H])([H])[H])C([H])([H])c2c([H])c(OC([H])([H])C([H])([H])C([H])([H])[N+]3([H])C([H])([H])C([H])([H])C([H])(C([H])([H])[H])C3([H])C(=O)N([H])C3([H])C([H])([H])N(C(=O)N4C([H])([H])C([H])([H])C([H])([H])C([H])(n5nc(-c6c([H])c([H])c(Oc7c([H])c([H])c(F)c([H])c7F)c([H])c6[H])c(C(=O)N([H])[H])c5N([H])[H])C4([H])[H])C3([H])[H])c([H])c([H])c2C1([H])[H]

>  <smiles>  (13) 
[H]c1c([H])c([H])c2c(c1[H])C([H])([H])C([H])([H])C([H])([H])C2([H])N([H])C(=O)C1([H])N(C(=O)C([H])(N([H])C(=O)C([H])(N([H])C([H])([H])[H])C([H])([H])[H])C(C([H])([H])[H])(C([H])([H])[H])C([H])([H])[H])C([H])([H])c2c([H])c(OC([H])([H])C([H])([H])C([H])([H])[N+]3([H])C([H])([H])C([H])([H])C([H])(C([H])([H])[H])C3([H])C(=O)N([H])C3([H])C([H])([H])N(C(=O)N4C([H])([H])C([H])([H])C([H])([H])C([H])(n5nc(-c6c([H])c([H])c(Oc7c([H])c([H])c(F)c([H])c7F)c([H])c6[H])c(C(=O)N([H])[H])c5N([H])[H])C4([H])[H])C3([H])[H])c([H])c([H])c2C1([H])[H]

$$$$
13:0:0
     RDKit          3D

 90 97  0  0  1  0  0  0  0  0999 V2000
  -30.5340  -22.3190   20.9270 N   0  0  0  0  0  4  0  0  0  0  0  0
  -30.7260  -21.8760   20.0430 H   0  0  0  0  0  0  0  0  0  0  0  0
  -31.3040  -22.9380   21.1210 H   0  0  0  0  0  0  0  0  0  0  0  0
  -30.5170  -21.2890   21.9980 C   0  0  0  0  0  2  0  0  0  0  0  0
  -29.3910  -20.2390   21.8550 C   0  0  0  0  0  2  0  0  0  0  0  0
  -29.6310  -19.1860   20.7590 C   0  0  0  0  0  2  0  0  0  0  0  0
  -30.0700  -17.8120   21.3010 C   0  0  0  0  0  2  0  0  0  0  0  0
  -30.3520  -16.8190   20.1650 C   0  0  0  0  0  2  0  0  0  0  0  0
  -30.9050  -14.4050   20.0790 C   0  0  0  0  0  0  0  0  0  0  0  0
  -30.5060  -12.2750   18.9210 C   0  0  0  0  0  2  0  0  0  0  0  0
  -29.5470  -12.5620   17.7480 C   0  0  0  0  0  2  0  0  0  0  0  0
  -28.0780  -12.4690   18.2110 C   0  0  0  0  0  2  0  0  0  0  0  0
  -27.8050  -13.2820   19.5080 C   0  0  0  0  0  3  0  0  0  0  0  0
  -28.8810  -12.9870   20.5790 C   0  0  0  0  0  2  0  0  0  0  0  0
  -30.2060  -13.2430   19.9840 N   0  0  0  0  0  0  0  0  0  0  0  0
  -32.0100  -14.5840   19.5570 O   0  0  0  0  0  0  0  0  0  0  0  0
  -30.2060  -15.4260   20.5900 N   0  0  0  0  0  0  0  0  0  0  0  0
  -29.3250  -15.1810   21.0170 H   0  0  0  0  0  0  0  0  0  0  0  0
  -25.4340  -13.9390   20.2760 C   0  0  0  0  0  0  0  0  0  0  0  0
  -24.3660  -13.1880   20.6860 C   0  0  0  0  0  0  0  0  0  0  0  0
  -24.8040  -11.8300   20.6550 C   0  0  0  0  0  0  0  0  0  0  0  0
  -26.4580  -13.0390   20.0230 N   0  0  0  0  0  0  0  0  0  0  0  0
  -26.0840  -11.7660   20.3070 N   0  0  0  0  0  0  0  0  0  0  0  0
  -24.0670  -10.5790   20.8820 C   0  0  0  0  0  0  0  0  0  0  0  0
  -24.4980   -9.6290   21.8330 C   0  0  0  0  0  3  0  0  0  0  0  0
  -23.7600   -8.4440   22.0470 C   0  0  0  0  0  3  0  0  0  0  0  0
  -22.5780   -8.2040   21.3080 C   0  0  0  0  0  0  0  0  0  0  0  0
  -22.1660   -9.1420   20.3460 C   0  0  0  0  0  3  0  0  0  0  0  0
  -22.9040  -10.3170   20.1310 C   0  0  0  0  0  3  0  0  0  0  0  0
  -21.8130   -7.0680   21.4280 O   0  0  0  0  0  0  0  0  0  0  0  0
  -21.7470   -6.3650   22.6040 C   0  0  0  0  0  0  0  0  0  0  0  0
  -21.3210   -6.9650   23.8090 C   0  0  0  0  0  3  0  0  0  0  0  0
  -21.2010   -6.1890   24.9790 C   0  0  0  0  0  3  0  0  0  0  0  0
  -21.5010   -4.8130   24.9450 C   0  0  0  0  0  0  0  0  0  0  0  0
  -21.9200   -4.2130   23.7450 C   0  0  0  0  0  3  0  0  0  0  0  0
  -22.0410   -4.9860   22.5770 C   0  0  0  0  0  0  0  0  0  0  0  0
  -22.4260   -4.3980   21.4190 F   0  0  0  0  0  0  0  0  0  0  0  0
  -21.3780   -4.0650   26.0660 F   0  0  0  0  0  0  0  0  0  0  0  0
  -22.9840  -13.6890   20.9960 C   0  0  0  0  0  0  0  0  0  0  0  0
  -22.2710  -13.0150   21.8910 N   0  0  0  0  0  0  0  0  0  0  0  0
  -22.5430  -14.7120   20.4750 O   0  0  0  0  0  0  0  0  0  0  0  0
  -22.6390  -12.1880   22.3390 H   0  0  0  0  0  0  0  0  0  0  0  0
  -21.3430  -13.3270   22.1350 H   0  0  0  0  0  0  0  0  0  0  0  0
  -25.6120  -15.3060   20.0800 N   0  0  0  0  0  0  0  0  0  0  0  0
  -24.8560  -15.9680   20.2130 H   0  0  0  0  0  0  0  0  0  0  0  0
  -26.4600  -15.7390   19.7350 H   0  0  0  0  0  0  0  0  0  0  0  0
  -29.3080  -23.1400   20.7920 C   0  0  0  0  0  2  0  0  0  0  0  0
  -29.5920  -24.6320   20.5080 C   0  0  0  0  0  2  0  0  0  0  0  0
  -28.3200  -25.3590   20.0570 C   0  0  0  0  0  2  0  0  0  0  0  0
  -28.4350  -26.7780   20.1770 O   0  0  0  0  0  0  0  0  0  0  0  0
  -24.5700  -31.8930   23.2370 C   0  0  0  0  0  0  0  0  0  0  0  0
  -27.2490  -27.4830   20.1560 C   0  0  0  0  0  0  0  0  0  0  0  0
  -23.3760  -30.4910   21.5870 C   0  0  0  0  0  3  0  0  0  0  0  0
  -24.8390  -28.9630   20.1700 C   0  0  0  0  0  0  0  0  0  0  0  0
  -25.8930  -30.8760   21.3810 C   0  0  0  0  0  2  0  0  0  0  0  0
  -25.9930  -29.5000   20.7540 C   0  0  0  0  0  0  0  0  0  0  0  0
  -27.2030  -28.7680   20.7460 C   0  0  0  0  0  3  0  0  0  0  0  0
  -26.0720  -26.9640   19.5650 C   0  0  0  0  0  3  0  0  0  0  0  0
  -24.8720  -27.6920   19.5800 C   0  0  0  0  0  3  0  0  0  0  0  0
  -23.5920  -29.8110   20.2100 C   0  0  0  0  0  2  0  0  0  0  0  0
  -24.6330  -31.0980   22.1310 N   0  0  0  0  0  0  0  0  0  0  0  0
  -23.4840  -32.1560   23.7750 O   0  0  0  0  0  0  0  0  0  0  0  0
  -22.7220  -29.4650   22.5410 C   0  0  0  0  0  0  0  0  0  0  0  0
  -21.4000  -29.2790   22.4040 N   0  0  0  0  0  0  0  0  0  0  0  0
  -23.4020  -28.8420   23.3610 O   0  0  0  0  0  0  0  0  0  0  0  0
  -20.9130  -29.8410   21.7200 H   0  0  0  0  0  0  0  0  0  0  0  0
  -18.0280  -28.0680   22.8670 C   0  0  0  0  0  0  0  0  0  0  0  0
  -20.5810  -28.3350   23.1630 C   0  0  0  0  0  3  0  0  0  0  0  0
  -20.6930  -26.9070   22.5820 C   0  0  0  0  0  2  0  0  0  0  0  0
  -19.6010  -26.5840   21.5550 C   0  0  0  0  0  2  0  0  0  0  0  0
  -18.2150  -26.7210   22.1890 C   0  0  0  0  0  2  0  0  0  0  0  0
  -19.1390  -28.8320   23.3100 C   0  0  0  0  0  0  0  0  0  0  0  0
  -18.9130  -30.0930   23.9030 C   0  0  0  0  0  3  0  0  0  0  0  0
  -17.6040  -30.5930   24.0540 C   0  0  0  0  0  3  0  0  0  0  0  0
  -16.5080  -29.8250   23.6250 C   0  0  0  0  0  3  0  0  0  0  0  0
  -16.7190  -28.5650   23.0390 C   0  0  0  0  0  3  0  0  0  0  0  0
  -25.8480  -32.5240   23.8670 C   0  0  0  0  0  3  0  0  0  0  0  0
  -26.3480  -31.7570   25.1500 C   0  0  1  0  0  0  0  0  0  0  0  0
  -25.2450  -31.5290   26.2100 C   0  0  0  0  0  1  0  0  0  0  0  0
  -26.9260  -30.3750   24.7600 C   0  0  0  0  0  1  0  0  0  0  0  0
  -27.4960  -32.5460   25.8230 C   0  0  0  0  0  1  0  0  0  0  0  0
  -25.5420  -33.9250   24.1830 N   0  0  0  0  0  0  0  0  0  0  0  0
  -25.8960  -34.9680   23.4210 C   0  0  0  0  0  0  0  0  0  0  0  0
  -26.5880  -34.8530   22.4070 O   0  0  0  0  0  0  0  0  0  0  0  0
  -24.9230  -34.0870   24.9640 H   0  0  0  0  0  0  0  0  0  0  0  0
  -24.1920  -36.7740   23.0020 C   0  0  0  0  0  1  0  0  0  0  0  0
  -25.4050  -36.3640   23.8550 C   0  0  0  0  0  3  0  0  0  0  0  0
  -27.5220  -37.2400   24.7400 C   0  0  0  0  0  1  0  0  0  0  0  0
  -26.4480  -37.4090   23.7640 N   0  0  0  0  0  0  0  0  0  0  0  0
  -26.0450  -38.3330   23.8910 H   0  0  0  0  0  0  0  0  0  0  0  0
  1  3  1  0
  1  4  1  0
  2  1  1  0
  5  4  1  0
  6  7  1  0
  6  5  1  0
  8 17  1  0
  8  7  1  0
  9 17  1  0
 10 15  1  0
 11 12  1  0
 11 10  1  0
 13 12  1  0
 13 22  1  0
 13 14  1  0
 15  9  1  0
 15 14  1  0
 16  9  2  0
 17 18  1  0
 19 20  2  0
 20 39  1  0
 21 20  1  0
 21 24  1  0
 22 19  1  0
 22 23  1  0
 23 21  2  0
 24 25  1  0
 25 26  2  0
 27 30  1  0
 27 26  1  0
 28 27  2  0
 29 28  1  0
 29 24  2  0
 30 31  1  0
 31 32  1  0
 32 33  2  0
 34 33  1  0
 34 38  1  0
 35 34  2  0
 36 31  2  0
 36 35  1  0
 37 36  1  0
 39 40  1  0
 40 43  1  0
 40 42  1  0
 41 39  2  0
 44 45  1  0
 44 19  1  0
 46 44  1  0
 47  1  1  0
 48 47  1  0
 49 50  1  0
 49 48  1  0
 51 62  2  0
 52 50  1  0
 52 57  1  0
 53 61  1  0
 53 63  1  0
 54 60  1  0
 54 56  1  0
 55 61  1  0
 56 55  1  0
 57 56  2  0
 58 59  1  0
 58 52  2  0
 59 54  2  0
 60 53  1  0
 61 51  1  0
 63 65  2  0
 64 63  1  0
 66 64  1  0
 67 76  2  0
 67 72  1  0
 68 64  1  0
 68 72  1  0
 69 68  1  0
 70 71  1  0
 70 69  1  0
 71 67  1  0
 72 73  2  0
 73 74  1  0
 75 74  2  0
 76 75  1  0
 77 51  1  0
 77 82  1  0
 77 78  1  0
 78 81  1  1
 78 79  1  0
 80 78  1  0
 82 85  1  0
 83 87  1  0
 83 82  1  0
 84 83  2  0
 87 86  1  0
 89 87  1  0
 89 90  1  0
 89 88  1  0
M  ISO  4   9 100  17 100  49 101  50 101
M  END
>  <TORSDO>  (14) 
F 24

>  <SCORE>  (14) 
-11.747

>  <name>  (14) 
13

>  <ligand_id>  (14) 
13

>  <original_smiles>  (14) 
[H]c1c([H])c([H])c2c(c1[H])C([H])([H])C([H])([H])C([H])([H])C2([H])N([H])C(=O)C1([H])N(C(=O)C([H])(N([H])C(=O)C([H])(N([H])C([H])([H])[H])C([H])([H])[H])C(C([H])([H])[H])(C([H])([H])[H])C([H])([H])[H])C([H])([H])c2c([H])c(OC([H])([H])C([H])([H])C([H])([H])[N+]([H])([H])C([H])([H])C([H])([H])C([H])([H])C([H])([H])C([H])([H])N([H])C(=O)N3C([H])([H])C([H])([H])C([H])([H])C([H])(n4nc(-c5c([H])c([H])c(Oc6c([H])c([H])c(F)c([H])c6F)c([H])c5[H])c(C(=O)N([H])[H])c4N([H])[H])C3([H])[H])c([H])c([H])c2C1([H])[H]

>  <smiles>  (14) 
[H]c1c([H])c([H])c2c(c1[H])C([H])([H])C([H])([H])C([H])([H])C2([H])N([H])C(=O)C1([H])N(C(=O)C([H])(N([H])C(=O)C([H])(N([H])C([H])([H])[H])C([H])([H])[H])C(C([H])([H])[H])(C([H])([H])[H])C([H])([H])[H])C([H])([H])c2c([H])c(OC([H])([H])C([H])([H])C([H])([H])[N+]([H])([H])C([H])([H])C([H])([H])C([H])([H])C([H])([H])C([H])([H])N([H])C(=O)N3C([H])([H])C([H])([H])C([H])([H])C([H])(n4nc(-c5c([H])c([H])c(Oc6c([H])c([H])c(F)c([H])c6F)c([H])c5[H])c(C(=O)N([H])[H])c4N([H])[H])C3([H])[H])c([H])c([H])c2C1([H])[H]

$$$$
14:0:0
     RDKit          3D

 93101  0  0  1  0  0  0  0  0999 V2000
  -29.4020  -21.0240   20.5310 C   0  0  0  0  0  0  0  0  0  0  0  0
  -29.6720  -22.3210   20.7540 N   0  0  0  0  0  0  0  0  0  0  0  0
  -28.3510  -20.6360   20.0150 O   0  0  0  0  0  0  0  0  0  0  0  0
  -30.5420  -22.5420   21.2210 H   0  0  0  0  0  0  0  0  0  0  0  0
  -30.4550  -19.9890   20.9390 C   0  0  0  0  0  2  0  0  0  0  0  0
  -30.7390  -14.5760   20.2680 C   0  0  0  0  0  0  0  0  0  0  0  0
  -30.4070  -12.4210   19.1340 C   0  0  0  0  0  2  0  0  0  0  0  0
  -29.4200  -12.6120   17.9650 C   0  0  0  0  0  2  0  0  0  0  0  0
  -27.9620  -12.4740   18.4450 C   0  0  0  0  0  2  0  0  0  0  0  0
  -27.6610  -13.2910   19.7300 C   0  0  0  0  0  3  0  0  0  0  0  0
  -28.7610  -13.0850   20.7930 C   0  0  0  0  0  2  0  0  0  0  0  0
  -30.0570  -13.4030   20.1710 N   0  0  0  0  0  0  0  0  0  0  0  0
  -31.9150  -14.6860   19.9100 O   0  0  0  0  0  0  0  0  0  0  0  0
  -29.4020  -16.2920   21.4570 C   0  0  0  0  0  2  0  0  0  0  0  0
  -29.9890  -17.6900   21.7870 C   0  0  0  0  0  2  0  0  0  0  0  0
  -30.6290  -18.0050   19.4420 C   0  0  0  0  0  2  0  0  0  0  0  0
  -30.0410  -16.6170   19.0750 C   0  0  0  0  0  3  0  0  0  0  0  0
  -28.6870  -16.7130   18.3460 C   0  0  0  0  0  1  0  0  0  0  0  0
  -29.9560  -15.6890   20.2310 N   0  0  0  0  0  0  0  0  0  0  0  0
  -29.9780  -18.6130   20.6260 N   0  0  2  0  0  4  0  0  0  0  0  0
  -29.0110  -18.7950   20.3770 H   0  0  0  0  0  0  0  0  0  0  0  0
  -25.2830  -13.8840   20.5150 C   0  0  0  0  0  0  0  0  0  0  0  0
  -24.2270  -13.1030   20.9000 C   0  0  0  0  0  0  0  0  0  0  0  0
  -24.6930  -11.7530   20.8370 C   0  0  0  0  0  0  0  0  0  0  0  0
  -26.3250  -13.0080   20.2470 N   0  0  0  0  0  0  0  0  0  0  0  0
  -25.9750  -11.7210   20.5000 N   0  0  0  0  0  0  0  0  0  0  0  0
  -23.9790  -10.4840   21.0250 C   0  0  0  0  0  0  0  0  0  0  0  0
  -24.4200   -9.5200   21.9590 C   0  0  0  0  0  3  0  0  0  0  0  0
  -23.7100   -8.3120   22.1310 C   0  0  0  0  0  3  0  0  0  0  0  0
  -22.5420   -8.0610   21.3700 C   0  0  0  0  0  0  0  0  0  0  0  0
  -22.1210   -9.0140   20.4270 C   0  0  0  0  0  3  0  0  0  0  0  0
  -22.8320  -10.2120   20.2530 C   0  0  0  0  0  3  0  0  0  0  0  0
  -21.7980   -6.9100   21.4560 O   0  0  0  0  0  0  0  0  0  0  0  0
  -21.7210   -6.1900   22.6210 C   0  0  0  0  0  0  0  0  0  0  0  0
  -21.2190   -6.7530   23.8150 C   0  0  0  0  0  3  0  0  0  0  0  0
  -21.0930   -5.9560   24.9700 C   0  0  0  0  0  3  0  0  0  0  0  0
  -21.4570   -4.5960   24.9320 C   0  0  0  0  0  0  0  0  0  0  0  0
  -21.9510   -4.0330   23.7420 C   0  0  0  0  0  3  0  0  0  0  0  0
  -22.0800   -4.8280   22.5900 C   0  0  0  0  0  0  0  0  0  0  0  0
  -22.5380   -4.2740   21.4410 F   0  0  0  0  0  0  0  0  0  0  0  0
  -21.3270   -3.8290   26.0390 F   0  0  0  0  0  0  0  0  0  0  0  0
  -22.8360  -13.5700   21.2140 C   0  0  0  0  0  0  0  0  0  0  0  0
  -22.1330  -12.8550   22.0840 N   0  0  0  0  0  0  0  0  0  0  0  0
  -22.3800  -14.6000   20.7200 O   0  0  0  0  0  0  0  0  0  0  0  0
  -22.5180  -12.0230   22.5040 H   0  0  0  0  0  0  0  0  0  0  0  0
  -21.2010  -13.1490   22.3400 H   0  0  0  0  0  0  0  0  0  0  0  0
  -25.4420  -15.2570   20.3450 N   0  0  0  0  0  0  0  0  0  0  0  0
  -24.6690  -15.9060   20.4370 H   0  0  0  0  0  0  0  0  0  0  0  0
  -26.2710  -15.6810   19.9530 H   0  0  0  0  0  0  0  0  0  0  0  0
  -28.8140  -23.4610   20.3980 C   0  0  0  0  0  2  0  0  0  0  0  0
  -29.6450  -24.6440   19.8470 C   0  0  0  0  0  2  0  0  0  0  0  0
  -28.8010  -25.7930   19.2480 C   0  0  0  0  0  2  0  0  0  0  0  0
  -28.4880  -26.7890   20.2330 O   0  0  0  0  0  0  0  0  0  0  0  0
  -24.6080  -31.9380   23.2310 C   0  0  0  0  0  0  0  0  0  0  0  0
  -27.2970  -27.4900   20.1730 C   0  0  0  0  0  0  0  0  0  0  0  0
  -23.4220  -30.5250   21.5860 C   0  0  0  0  0  3  0  0  0  0  0  0
  -24.8920  -28.9950   20.1730 C   0  0  0  0  0  0  0  0  0  0  0  0
  -25.9480  -30.8900   21.4100 C   0  0  0  0  0  2  0  0  0  0  0  0
  -26.0420  -29.5170   20.7720 C   0  0  0  0  0  0  0  0  0  0  0  0
  -27.2420  -28.7700   20.7770 C   0  0  0  0  0  3  0  0  0  0  0  0
  -26.1140  -26.9730   19.5910 C   0  0  0  0  0  3  0  0  0  0  0  0
  -24.9190  -27.7190   19.5850 C   0  0  0  0  0  3  0  0  0  0  0  0
  -23.6480  -29.8550   20.2050 C   0  0  0  0  0  2  0  0  0  0  0  0
  -24.6770  -31.1320   22.1340 N   0  0  0  0  0  0  0  0  0  0  0  0
  -23.5200  -32.2040   23.7610 O   0  0  0  0  0  0  0  0  0  0  0  0
  -22.7700  -29.4990   22.5410 C   0  0  0  0  0  0  0  0  0  0  0  0
  -21.4490  -29.3050   22.4000 N   0  0  0  0  0  0  0  0  0  0  0  0
  -23.4500  -28.8830   23.3660 O   0  0  0  0  0  0  0  0  0  0  0  0
  -20.9600  -29.8560   21.7080 H   0  0  0  0  0  0  0  0  0  0  0  0
  -18.0760  -28.0990   22.8780 C   0  0  0  0  0  0  0  0  0  0  0  0
  -20.6310  -28.3670   23.1680 C   0  0  0  0  0  3  0  0  0  0  0  0
  -20.7420  -26.9340   22.5960 C   0  0  0  0  0  2  0  0  0  0  0  0
  -19.6470  -26.6050   21.5760 C   0  0  0  0  0  2  0  0  0  0  0  0
  -18.2610  -26.7470   22.2110 C   0  0  0  0  0  2  0  0  0  0  0  0
  -19.1900  -28.8650   23.3140 C   0  0  0  0  0  0  0  0  0  0  0  0
  -18.9610  -30.1290   23.9010 C   0  0  0  0  0  3  0  0  0  0  0  0
  -17.6540  -30.6260   24.0570 C   0  0  0  0  0  3  0  0  0  0  0  0
  -16.5560  -29.8580   23.6350 C   0  0  0  0  0  3  0  0  0  0  0  0
  -16.7680  -28.5940   23.0520 C   0  0  0  0  0  3  0  0  0  0  0  0
  -25.8850  -32.5800   23.8560 C   0  0  0  0  0  3  0  0  0  0  0  0
  -26.4010  -31.8170   25.1370 C   0  0  1  0  0  0  0  0  0  0  0  0
  -25.3040  -31.5690   26.1990 C   0  0  0  0  0  1  0  0  0  0  0  0
  -27.0030  -30.4470   24.7500 C   0  0  0  0  0  1  0  0  0  0  0  0
  -27.5370  -32.6270   25.8060 C   0  0  0  0  0  1  0  0  0  0  0  0
  -25.5660  -33.9770   24.1780 N   0  0  0  0  0  0  0  0  0  0  0  0
  -25.8960  -35.0250   23.4110 C   0  0  0  0  0  0  0  0  0  0  0  0
  -26.5730  -34.9200   22.3860 O   0  0  0  0  0  0  0  0  0  0  0  0
  -24.9740  -34.1340   24.9800 H   0  0  0  0  0  0  0  0  0  0  0  0
  -24.1680  -36.8070   23.0160 C   0  0  0  0  0  1  0  0  0  0  0  0
  -25.3940  -36.4130   23.8540 C   0  0  0  0  0  3  0  0  0  0  0  0
  -27.5060  -37.3090   24.7290 C   0  0  0  0  0  1  0  0  0  0  0  0
  -26.4240  -37.4710   23.7590 N   0  0  0  0  0  0  0  0  0  0  0  0
  -26.0110  -38.3890   23.9000 H   0  0  0  0  0  0  0  0  0  0  0  0
  1  2  1  0
  1  5  1  0
  2  4  1  0
  3  1  2  0
  7 12  1  0
  8  9  1  0
  8  7  1  0
 10  9  1  0
 10 25  1  0
 10 11  1  0
 12  6  1  0
 12 11  1  0
 13  6  2  0
 14 15  1  0
 16 20  1  0
 17 18  1  0
 17 16  1  0
 17 19  1  0
 19  6  1  0
 19 14  1  0
 20  5  1  0
 20 15  1  0
 20 21  1  6
 22 23  2  0
 23 42  1  0
 24 23  1  0
 24 27  1  0
 25 26  1  0
 25 22  1  0
 26 24  2  0
 27 28  1  0
 28 29  2  0
 30 33  1  0
 30 29  1  0
 31 30  2  0
 32 31  1  0
 32 27  2  0
 33 34  1  0
 34 35  1  0
 35 36  2  0
 37 36  1  0
 37 41  1  0
 38 37  2  0
 39 34  2  0
 39 38  1  0
 40 39  1  0
 42 43  1  0
 43 46  1  0
 43 45  1  0
 44 42  2  0
 47 48  1  0
 47 22  1  0
 49 47  1  0
 50  2  1  0
 51 50  1  0
 52 51  1  0
 52 53  1  0
 54 65  2  0
 55 53  1  0
 55 60  1  0
 56 64  1  0
 56 66  1  0
 57 63  1  0
 57 59  1  0
 58 64  1  0
 59 60  2  0
 59 58  1  0
 61 55  2  0
 62 61  1  0
 62 57  2  0
 63 56  1  0
 64 54  1  0
 66 68  2  0
 67 66  1  0
 69 67  1  0
 70 79  2  0
 70 75  1  0
 71 67  1  0
 71 75  1  0
 72 71  1  0
 73 74  1  0
 73 72  1  0
 74 70  1  0
 75 76  2  0
 76 77  1  0
 78 77  2  0
 79 78  1  0
 80 54  1  0
 80 85  1  0
 80 81  1  0
 81 84  1  1
 81 82  1  0
 83 81  1  0
 85 88  1  0
 86 90  1  0
 86 85  1  0
 87 86  2  0
 90 89  1  0
 92 90  1  0
 92 93  1  0
 92 91  1  0
M  ISO  4   6 100  19 100  52 101  53 101
M  END
>  <TORSDO>  (15) 
F 20

>  <SCORE>  (15) 
-13.432

>  <name>  (15) 
14

>  <ligand_id>  (15) 
14

>  <original_smiles>  (15) 
[H]c1c([H])c([H])c2c(c1[H])C([H])([H])C([H])([H])C([H])([H])C2([H])N([H])C(=O)C1([H])N(C(=O)C([H])(N([H])C(=O)C([H])(N([H])C([H])([H])[H])C([H])([H])[H])C(C([H])([H])[H])(C([H])([H])[H])C([H])([H])[H])C([H])([H])c2c([H])c(OC([H])([H])C([H])([H])C([H])([H])N([H])C(=O)C([H])([H])[N+]3([H])C([H])([H])C([H])([H])N(C(=O)N4C([H])([H])C([H])([H])C([H])([H])C([H])(n5nc(-c6c([H])c([H])c(Oc7c([H])c([H])c(F)c([H])c7F)c([H])c6[H])c(C(=O)N([H])[H])c5N([H])[H])C4([H])[H])C([H])(C([H])([H])[H])C3([H])[H])c([H])c([H])c2C1([H])[H]

>  <smiles>  (15) 
[H]c1c([H])c([H])c2c(c1[H])C([H])([H])C([H])([H])C([H])([H])C2([H])N([H])C(=O)C1([H])N(C(=O)C([H])(N([H])C(=O)C([H])(N([H])C([H])([H])[H])C([H])([H])[H])C(C([H])([H])[H])(C([H])([H])[H])C([H])([H])[H])C([H])([H])c2c([H])c(OC([H])([H])C([H])([H])C([H])([H])N([H])C(=O)C([H])([H])[N+]3([H])C([H])([H])C([H])([H])N(C(=O)N4C([H])([H])C([H])([H])C([H])([H])C([H])(n5nc(-c6c([H])c([H])c(Oc7c([H])c([H])c(F)c([H])c7F)c([H])c6[H])c(C(=O)N([H])[H])c5N([H])[H])C4([H])[H])C([H])(C([H])([H])[H])C3([H])[H])c([H])c([H])c2C1([H])[H]

$$$$
15:0:0
     RDKit          3D

 92100  0  0  1  0  0  0  0  0999 V2000
  -30.9310  -21.2940   20.0290 C   0  0  0  0  0  2  0  0  0  0  0  0
  -31.0980  -18.6280   22.7010 C   0  0  0  0  0  2  0  0  0  0  0  0
  -30.4200  -17.2750   22.4100 C   0  0  0  0  0  2  0  0  0  0  0  0
  -30.4710  -17.5260   19.8840 C   0  0  0  0  0  2  0  0  0  0  0  0
  -30.4640  -19.8780   22.0400 C   0  0  0  0  0  2  0  0  0  0  0  0
  -31.2020  -18.8760   19.8270 C   0  0  0  0  0  2  0  0  0  0  0  0
  -30.8860  -16.6550   21.0840 C   0  0  0  0  0  3  0  0  0  0  0  0
  -30.4920  -19.9680   20.5450 N   0  0  2  0  0  4  0  0  0  0  0  0
  -29.5290  -19.8850   20.2560 H   0  0  0  0  0  0  0  0  0  0  0  0
  -30.9330  -14.3400   20.1770 C   0  0  0  0  0  0  0  0  0  0  0  0
  -30.4970  -12.2670   18.9250 C   0  0  0  0  0  2  0  0  0  0  0  0
  -29.5130  -12.5510   17.7750 C   0  0  0  0  0  2  0  0  0  0  0  0
  -28.0550  -12.4410   18.2620 C   0  0  0  0  0  2  0  0  0  0  0  0
  -27.7990  -13.2390   19.5690 C   0  0  0  0  0  3  0  0  0  0  0  0
  -28.8890  -12.9350   20.6230 C   0  0  0  0  0  2  0  0  0  0  0  0
  -30.2020  -13.2090   20.0140 N   0  0  0  0  0  0  0  0  0  0  0  0
  -32.0030  -14.5430   19.5950 O   0  0  0  0  0  0  0  0  0  0  0  0
  -30.3660  -15.2940   20.9340 N   0  0  0  0  0  0  0  0  0  0  0  0
  -29.4880  -15.0660   21.3760 H   0  0  0  0  0  0  0  0  0  0  0  0
  -25.4340  -13.8820   20.3600 C   0  0  0  0  0  0  0  0  0  0  0  0
  -24.3690  -13.1240   20.7670 C   0  0  0  0  0  0  0  0  0  0  0  0
  -24.8080  -11.7650   20.7150 C   0  0  0  0  0  0  0  0  0  0  0  0
  -26.4570  -12.9860   20.0910 N   0  0  0  0  0  0  0  0  0  0  0  0
  -26.0850  -11.7080   20.3600 N   0  0  0  0  0  0  0  0  0  0  0  0
  -24.0720  -10.5130   20.9300 C   0  0  0  0  0  0  0  0  0  0  0  0
  -24.5110   -9.5480   21.8630 C   0  0  0  0  0  3  0  0  0  0  0  0
  -23.7770   -8.3590   22.0630 C   0  0  0  0  0  3  0  0  0  0  0  0
  -22.5890   -8.1270   21.3310 C   0  0  0  0  0  0  0  0  0  0  0  0
  -22.1680   -9.0810   20.3870 C   0  0  0  0  0  3  0  0  0  0  0  0
  -22.9030  -10.2610   20.1840 C   0  0  0  0  0  3  0  0  0  0  0  0
  -21.8250   -6.9910   21.4410 O   0  0  0  0  0  0  0  0  0  0  0  0
  -21.7690   -6.2710   22.6080 C   0  0  0  0  0  0  0  0  0  0  0  0
  -21.3550   -6.8560   23.8250 C   0  0  0  0  0  3  0  0  0  0  0  0
  -21.2460   -6.0640   24.9860 C   0  0  0  0  0  3  0  0  0  0  0  0
  -21.5400   -4.6880   24.9300 C   0  0  0  0  0  0  0  0  0  0  0  0
  -21.9460   -4.1040   23.7180 C   0  0  0  0  0  3  0  0  0  0  0  0
  -22.0580   -4.8920   22.5600 C   0  0  0  0  0  0  0  0  0  0  0  0
  -22.4300   -4.3200   21.3900 F   0  0  0  0  0  0  0  0  0  0  0  0
  -21.4270   -3.9250   26.0430 F   0  0  0  0  0  0  0  0  0  0  0  0
  -22.9910  -13.6200   21.0940 C   0  0  0  0  0  0  0  0  0  0  0  0
  -22.2870  -12.9340   21.9880 N   0  0  0  0  0  0  0  0  0  0  0  0
  -22.5450  -14.6500   20.5900 O   0  0  0  0  0  0  0  0  0  0  0  0
  -22.6600  -12.0980   22.4150 H   0  0  0  0  0  0  0  0  0  0  0  0
  -21.3630  -13.2480   22.2500 H   0  0  0  0  0  0  0  0  0  0  0  0
  -25.6120  -15.2510   20.1780 N   0  0  0  0  0  0  0  0  0  0  0  0
  -24.8600  -15.9180   20.3130 H   0  0  0  0  0  0  0  0  0  0  0  0
  -26.4590  -15.6760   19.8160 H   0  0  0  0  0  0  0  0  0  0  0  0
  -30.0060  -22.4800   20.3710 C   0  0  0  0  0  2  0  0  0  0  0  0
  -30.4580  -23.7370   19.6070 C   0  0  0  0  0  2  0  0  0  0  0  0
  -29.9640  -25.0650   20.1900 C   0  0  0  0  0  2  0  0  0  0  0  0
  -28.5060  -25.4270   19.8790 C   0  0  0  0  0  2  0  0  0  0  0  0
  -28.4050  -26.7840   20.2730 O   0  0  0  0  0  0  0  0  0  0  0  0
  -24.5100  -31.8720   23.2450 C   0  0  0  0  0  0  0  0  0  0  0  0
  -27.1920  -27.4240   20.2360 C   0  0  0  0  0  0  0  0  0  0  0  0
  -23.3190  -30.4570   21.5980 C   0  0  0  0  0  3  0  0  0  0  0  0
  -24.7850  -28.8980   20.2120 C   0  0  0  0  0  0  0  0  0  0  0  0
  -25.8420  -30.8170   21.4250 C   0  0  0  0  0  2  0  0  0  0  0  0
  -25.9330  -29.4400   20.8040 C   0  0  0  0  0  0  0  0  0  0  0  0
  -27.1350  -28.7080   20.8140 C   0  0  0  0  0  3  0  0  0  0  0  0
  -26.0270  -26.8790   19.6490 C   0  0  0  0  0  3  0  0  0  0  0  0
  -24.8260  -27.6150   19.6350 C   0  0  0  0  0  3  0  0  0  0  0  0
  -23.5420  -29.7580   20.2300 C   0  0  0  0  0  2  0  0  0  0  0  0
  -24.5750  -31.0640   22.1480 N   0  0  0  0  0  0  0  0  0  0  0  0
  -23.4240  -32.1510   23.7710 O   0  0  0  0  0  0  0  0  0  0  0  0
  -22.6540  -29.4480   22.5600 C   0  0  0  0  0  0  0  0  0  0  0  0
  -21.3360  -29.2520   22.4000 N   0  0  0  0  0  0  0  0  0  0  0  0
  -23.3220  -28.8410   23.4030 O   0  0  0  0  0  0  0  0  0  0  0  0
  -20.8590  -29.7940   21.6940 H   0  0  0  0  0  0  0  0  0  0  0  0
  -17.9670  -28.0170   22.8010 C   0  0  0  0  0  0  0  0  0  0  0  0
  -20.5070  -28.3210   23.1640 C   0  0  0  0  0  3  0  0  0  0  0  0
  -20.6540  -26.8790   22.6270 C   0  0  0  0  0  2  0  0  0  0  0  0
  -19.5960  -26.5120   21.5810 C   0  0  0  0  0  2  0  0  0  0  0  0
  -18.1890  -26.6530   22.1680 C   0  0  0  0  0  2  0  0  0  0  0  0
  -19.0560  -28.8070   23.2530 C   0  0  0  0  0  0  0  0  0  0  0  0
  -18.7980  -30.0840   23.7960 C   0  0  0  0  0  3  0  0  0  0  0  0
  -17.4800  -30.5700   23.8990 C   0  0  0  0  0  3  0  0  0  0  0  0
  -16.4040  -29.7770   23.4650 C   0  0  0  0  0  3  0  0  0  0  0  0
  -16.6480  -28.5020   22.9220 C   0  0  0  0  0  3  0  0  0  0  0  0
  -25.7930  -32.5000   23.8760 C   0  0  0  0  0  3  0  0  0  0  0  0
  -25.4830  -33.8980   24.2050 N   0  0  0  0  0  0  0  0  0  0  0  0
  -25.8210  -34.9500   23.4480 C   0  0  0  0  0  0  0  0  0  0  0  0
  -26.4990  -34.8470   22.4210 O   0  0  0  0  0  0  0  0  0  0  0  0
  -24.8900  -34.0550   25.0060 H   0  0  0  0  0  0  0  0  0  0  0  0
  -24.0900  -36.7370   23.0760 C   0  0  0  0  0  1  0  0  0  0  0  0
  -25.3260  -36.3360   23.8990 C   0  0  0  0  0  3  0  0  0  0  0  0
  -27.4520  -37.2260   24.7460 C   0  0  0  0  0  1  0  0  0  0  0  0
  -26.3570  -37.3930   23.7940 N   0  0  0  0  0  0  0  0  0  0  0  0
  -25.9470  -38.3120   23.9450 H   0  0  0  0  0  0  0  0  0  0  0  0
  -26.3070  -31.7250   25.1500 C   0  0  1  0  0  0  0  0  0  0  0  0
  -25.2100  -31.4700   26.2100 C   0  0  0  0  0  1  0  0  0  0  0  0
  -26.9040  -30.3560   24.7480 C   0  0  0  0  0  1  0  0  0  0  0  0
  -27.4450  -32.5250   25.8280 C   0  0  0  0  0  1  0  0  0  0  0  0
  1 48  1  0
  1  8  1  0
  3  2  1  0
  4  7  1  0
  5  2  1  0
  6  4  1  0
  6  8  1  0
  7 18  1  0
  7  3  1  0
  8  5  1  0
  8  9  1  6
 10 18  1  0
 11 16  1  0
 12 13  1  0
 12 11  1  0
 14 13  1  0
 14 23  1  0
 14 15  1  0
 16 10  1  0
 16 15  1  0
 17 10  2  0
 18 19  1  0
 20 21  2  0
 21 40  1  0
 22 21  1  0
 22 25  1  0
 23 20  1  0
 23 24  1  0
 24 22  2  0
 25 26  1  0
 26 27  2  0
 28 31  1  0
 28 27  1  0
 29 28  2  0
 30 29  1  0
 30 25  2  0
 31 32  1  0
 32 33  1  0
 33 34  2  0
 35 34  1  0
 35 39  1  0
 36 35  2  0
 37 32  2  0
 37 36  1  0
 38 37  1  0
 40 41  1  0
 41 44  1  0
 41 43  1  0
 42 40  2  0
 45 46  1  0
 45 20  1  0
 47 45  1  0
 49 50  1  0
 49 48  1  0
 51 50  1  0
 51 52  1  0
 53 64  2  0
 54 52  1  0
 54 59  1  0
 55 63  1  0
 55 65  1  0
 56 62  1  0
 56 58  1  0
 57 63  1  0
 58 59  2  0
 58 57  1  0
 60 54  2  0
 61 60  1  0
 61 56  2  0
 62 55  1  0
 63 53  1  0
 65 67  2  0
 66 65  1  0
 68 66  1  0
 69 78  2  0
 69 74  1  0
 70 66  1  0
 70 74  1  0
 71 70  1  0
 72 73  1  0
 72 71  1  0
 73 69  1  0
 74 75  2  0
 75 76  1  0
 77 76  2  0
 78 77  1  0
 79 53  1  0
 79 80  1  0
 79 89  1  0
 80 83  1  0
 81 85  1  0
 81 80  1  0
 82 81  2  0
 85 84  1  0
 87 85  1  0
 87 88  1  0
 87 86  1  0
 89 92  1  1
 89 90  1  0
 91 89  1  0
M  ISO  4  10 100  18 100  51 101  52 101
M  END
>  <TORSDO>  (16) 
F 21

>  <SCORE>  (16) 
-13.025

>  <name>  (16) 
15

>  <ligand_id>  (16) 
15

>  <original_smiles>  (16) 
[H]c1c([H])c([H])c2c(c1[H])C([H])([H])C([H])([H])C([H])([H])C2([H])N([H])C(=O)C1([H])N(C(=O)C([H])(N([H])C(=O)C([H])(N([H])C([H])([H])[H])C([H])([H])[H])C(C([H])([H])[H])(C([H])([H])[H])C([H])([H])[H])C([H])([H])c2c([H])c(OC([H])([H])C([H])([H])C([H])([H])C([H])([H])C([H])([H])[N+]3([H])C([H])([H])C([H])([H])C([H])([H])C([H])(N([H])C(=O)N4C([H])([H])C([H])([H])C([H])([H])C([H])(n5nc(-c6c([H])c([H])c(Oc7c([H])c([H])c(F)c([H])c7F)c([H])c6[H])c(C(=O)N([H])[H])c5N([H])[H])C4([H])[H])C([H])([H])C3([H])[H])c([H])c([H])c2C1([H])[H]

>  <smiles>  (16) 
[H]c1c([H])c([H])c2c(c1[H])C([H])([H])C([H])([H])C([H])([H])C2([H])N([H])C(=O)C1([H])N(C(=O)C([H])(N([H])C(=O)C([H])(N([H])C([H])([H])[H])C([H])([H])[H])C(C([H])([H])[H])(C([H])([H])[H])C([H])([H])[H])C([H])([H])c2c([H])c(OC([H])([H])C([H])([H])C([H])([H])C([H])([H])C([H])([H])[N+]3([H])C([H])([H])C([H])([H])C([H])([H])C([H])(N([H])C(=O)N4C([H])([H])C([H])([H])C([H])([H])C([H])(n5nc(-c6c([H])c([H])c(Oc7c([H])c([H])c(F)c([H])c7F)c([H])c6[H])c(C(=O)N([H])[H])c5N([H])[H])C4([H])[H])C([H])([H])C3([H])[H])c([H])c([H])c2C1([H])[H]

$$$$
16:0:0
     RDKit          3D

 95 91  0  0  1  0  0  0  0  0999 V2000
  -18.3130  -23.8260   21.4850 C   0  0  0  0  0 15  0  0  0  0  0  0
  -18.0060  -25.9110   20.5790 C   0  0  0  0  0  2  0  0  0  0  0  0
  -21.4540  -24.8500   21.5590 C   0  0  0  0  0 15  0  0  0  0  0  0
  -22.1680  -22.5330   20.9650 C   0  0  0  0  0 15  0  0  0  0  0  0
  -20.1170  -22.5700   21.4940 C   0  0  0  0  0  1  0  0  0  0  0  0
  -19.7360  -26.8730   20.6230 N   0  0  0  0  0  2  0  0  0  0  0  0
  -19.9600  -26.8960   19.6360 H   0  0  0  0  0  0  0  0  0  0  0  0
  -20.0230  -21.7440   22.7140 N   0  0  0  0  0  4  0  0  0  0  0  0
  -20.2200  -22.2840   23.5380 H   0  0  0  0  0  0  0  0  0  0  0  0
  -20.6780  -20.9840   22.6730 H   0  0  0  0  0  0  0  0  0  0  0  0
  -19.1060  -21.3490   22.8040 H   0  0  0  0  0  0  0  0  0  0  0  0
  -24.3770  -20.5120   20.5570 C   0  0  0  0  0 15  0  0  0  0  0  0
  -27.4670  -16.9990   19.6600 C   0  0  0  0  0  2  0  0  0  0  0  0
  -29.1490  -14.4290   18.5660 C   0  0  0  0  0  2  0  0  0  0  0  0
  -28.8930  -13.0360   17.6990 C   0  0  0  0  0  2  0  0  0  0  0  0
  -27.8590  -12.1090   18.3280 C   0  0  0  0  0  2  0  0  0  0  0  0
  -27.0740  -13.1060   19.1530 C   0  0  0  0  0  3  0  0  0  0  0  0
  -27.8170  -14.0260   20.1620 C   0  0  0  0  0  2  0  0  0  0  0  0
  -27.9490  -15.3450   19.4160 N   0  0  0  0  0  0  0  0  0  0  0  0
  -28.7810  -17.0530   19.3520 O   0  0  0  0  0  1  0  0  0  0  0  0
  -25.9310  -18.4470   20.0530 N   0  0  0  0  0  1  0  0  0  0  0  0
  -26.7030  -19.1000   19.9700 H   0  0  0  0  0  0  0  0  0  0  0  0
  -24.9840  -13.6360   20.2080 C   0  0  0  0  0  0  0  0  0  0  0  0
  -24.0330  -12.8830   20.7840 C   0  0  0  0  0  0  0  0  0  0  0  0
  -24.4560  -11.5250   20.6380 C   0  0  0  0  0  0  0  0  0  0  0  0
  -25.9050  -12.7190   19.7730 N   0  0  0  0  0  0  0  0  0  0  0  0
  -25.6520  -11.4410   20.0790 N   0  0  0  0  0  0  0  0  0  0  0  0
  -23.7480  -10.2930   20.9200 C   0  0  0  0  0  0  0  0  0  0  0  0
  -24.2480   -9.3470   21.8370 C   0  0  0  0  0  3  0  0  0  0  0  0
  -23.5160   -8.1750   22.1000 C   0  0  0  0  0  3  0  0  0  0  0  0
  -22.2800   -7.9530   21.4460 C   0  0  0  0  0  0  0  0  0  0  0  0
  -21.8070   -8.8910   20.5120 C   0  0  0  0  0  3  0  0  0  0  0  0
  -22.5390  -10.0540   20.2450 C   0  0  0  0  0  3  0  0  0  0  0  0
  -21.5040   -6.8390   21.6280 O   0  0  0  0  0  0  0  0  0  0  0  0
  -21.4990   -6.1650   22.8190 C   0  0  0  0  0  0  0  0  0  0  0  0
  -21.1090   -6.7840   24.0270 C   0  0  0  0  0  3  0  0  0  0  0  0
  -21.0510   -6.0280   25.2150 C   0  0  0  0  0  3  0  0  0  0  0  0
  -21.3740   -4.6580   25.1940 C   0  0  0  0  0  0  0  0  0  0  0  0
  -21.7590   -4.0410   23.9910 C   0  0  0  0  0  3  0  0  0  0  0  0
  -21.8190   -4.7940   22.8050 C   0  0  0  0  0  0  0  0  0  0  0  0
  -22.1700   -4.1930   21.6430 F   0  0  0  0  0  0  0  0  0  0  0  0
  -21.3070   -3.9300   26.3320 F   0  0  0  0  0  0  0  0  0  0  0  0
  -22.7520  -13.4240   21.3110 C   0  0  0  0  0  0  0  0  0  0  0  0
  -22.1710  -12.7520   22.2910 N   0  0  0  0  0  0  0  0  0  0  0  0
  -22.2980  -14.4880   20.8910 O   0  0  0  0  0  0  0  0  0  0  0  0
  -22.5660  -11.8970   22.6500 H   0  0  0  0  0  0  0  0  0  0  0  0
  -21.3170  -13.1060   22.7000 H   0  0  0  0  0  0  0  0  0  0  0  0
  -25.1300  -15.0090   20.0000 N   0  0  0  0  0  0  0  0  0  0  0  0
  -24.3420  -15.6290   20.1570 H   0  0  0  0  0  0  0  0  0  0  0  0
  -25.7480  -15.3320   19.2690 H   0  0  0  0  0  0  0  0  0  0  0  0
  -19.9530  -28.6730   21.1190 C   0  0  0  0  0  1  0  0  0  0  0  0
  -21.1830  -29.4170   22.7550 C   0  0  0  0  0 15  0  0  0  0  0  0
  -22.6780  -28.4130   23.8290 C   0  0  0  0  0 15  0  0  0  0  0  0
  -24.2250  -27.0340   23.3770 C   0  0  0  0  0  1  0  0  0  0  0  0
  -25.7660  -26.6680   22.4660 O   0  0  0  0  0  0  0  0  0  0  0  0
  -24.4260  -31.5950   22.5990 C   0  0  0  0  0  0  0  0  0  0  0  0
  -26.4020  -26.9710   21.2060 C   0  0  0  0  0  3  0  0  0  0  0  0
  -23.6790  -30.2920   20.5280 C   0  0  0  0  0  3  0  0  0  0  0  0
  -25.3820  -28.7060   19.5020 C   0  0  0  0  0  3  0  0  0  0  0  0
  -26.1580  -30.5910   21.0280 C   0  0  0  0  0  2  0  0  0  0  0  0
  -26.3040  -29.1630   20.4700 C   0  0  0  0  0  3  0  0  0  0  0  0
  -27.0530  -28.2090   21.1720 C   0  0  0  0  0  2  0  0  0  0  0  0
  -25.9500  -26.4160   19.9850 C   0  0  0  0  0  2  0  0  0  0  0  0
  -25.3360  -27.3420   19.1260 C   0  0  0  0  0  2  0  0  0  0  0  0
  -24.2320  -29.6670   19.2150 C   0  0  0  0  0  2  0  0  0  0  0  0
  -24.7570  -31.0080   21.3740 N   0  0  0  0  0  0  0  0  0  0  0  0
  -23.2450  -31.7770   22.9390 O   0  0  0  0  0  0  0  0  0  0  0  0
  -23.3680  -29.0360   21.2560 C   0  0  0  0  0  0  0  0  0  0  0  0
  -22.4500  -28.0930   20.9990 N   0  0  0  0  0  0  0  0  0  0  0  0
  -24.1320  -28.9260   22.1310 O   0  0  0  0  0  0  0  0  0  0  0  0
  -22.0640  -28.2450   20.0850 H   0  0  0  0  0  0  0  0  0  0  0  0
  -18.8140  -26.0390   22.3270 C   0  0  0  0  0  3  0  0  0  0  0  0
  -21.6450  -26.9510   21.8170 C   0  0  0  0  0  2  0  0  0  0  0  0
  -21.8640  -26.4220   20.1300 C   0  0  0  0  0  2  0  0  0  0  0  0
  -20.7300  -25.6850   19.1310 C   0  0  0  0  0  2  0  0  0  0  0  0
  -19.3860  -25.0690   19.8500 C   0  0  0  0  0  2  0  0  0  0  0  0
  -19.9620  -26.9560   22.9530 C   0  0  0  0  0  2  0  0  0  0  0  0
  -19.4660  -28.1530   23.8530 C   0  0  0  0  0  2  0  0  0  0  0  0
  -18.4080  -29.1390   23.6740 C   0  0  0  0  0  2  0  0  0  0  0  0
  -17.3690  -28.5210   22.9990 C   0  0  0  0  0  2  0  0  0  0  0  0
  -17.5610  -27.0590   22.6850 C   0  0  0  0  0  2  0  0  0  0  0  0
  -25.5140  -32.0700   23.6220 C   0  0  0  0  0  3  0  0  0  0  0  0
  -25.1380  -33.4340   23.9990 N   0  0  0  0  0  0  0  0  0  0  0  0
  -25.5360  -34.5180   23.3220 C   0  0  0  0  0  0  0  0  0  0  0  0
  -26.3270  -34.4560   22.3760 O   0  0  0  0  0  0  0  0  0  0  0  0
  -24.4400  -33.5340   24.7220 H   0  0  0  0  0  0  0  0  0  0  0  0
  -23.7780  -36.2500   22.8490 C   0  0  0  0  0  1  0  0  0  0  0  0
  -24.9630  -35.8780   23.7550 C   0  0  0  0  0  3  0  0  0  0  0  0
  -27.0070  -36.8220   24.7380 C   0  0  0  0  0  1  0  0  0  0  0  0
  -25.9630  -36.9660   23.7270 N   0  0  0  0  0  0  0  0  0  0  0  0
  -25.5160  -37.8700   23.8520 H   0  0  0  0  0  0  0  0  0  0  0  0
  -25.7510  -31.2000   24.9350 C   0  0  1  0  0  0  0  0  0  0  0  0
  -24.5070  -30.9660   25.8320 C   0  0  0  0  0  1  0  0  0  0  0  0
  -26.3410  -29.8180   24.5890 C   0  0  0  0  0  1  0  0  0  0  0  0
  -26.8130  -31.9020   25.8130 C   0  0  0  0  0  1  0  0  0  0  0  0
  2 72  1  0
  5  8  1  0
  6 51  1  0
  7  6  1  0
  8 11  1  0
  8  9  1  0
 10  8  1  0
 14 19  1  0
 15 16  1  0
 15 14  1  0
 17 16  1  0
 17 26  1  0
 17 18  1  0
 19 13  1  0
 19 18  1  0
 20 13  1  0
 22 21  1  0
 23 24  2  0
 24 43  1  0
 25 24  1  0
 25 28  1  0
 26 27  1  0
 26 23  1  0
 27 25  2  0
 28 29  1  0
 29 30  2  0
 31 34  1  0
 31 30  1  0
 32 31  2  0
 33 32  1  0
 33 28  2  0
 34 35  1  0
 35 36  1  0
 36 37  2  0
 38 37  1  0
 38 42  1  0
 39 38  2  0
 40 35  2  0
 40 39  1  0
 41 40  1  0
 43 44  1  0
 44 46  1  0
 44 47  1  0
 45 43  2  0
 48 49  1  0
 48 23  1  0
 50 48  1  0
 55 54  1  0
 56 67  2  0
 57 55  1  0
 58 68  1  0
 58 66  1  0
 59 64  1  0
 59 61  1  0
 60 66  1  0
 61 60  1  0
 61 62  1  0
 62 57  1  0
 63 57  1  0
 64 63  1  0
 65 59  1  0
 65 58  1  0
 66 56  1  0
 68 70  2  0
 69 68  1  0
 69 73  1  0
 71 69  1  0
 72 81  1  0
 72 77  1  0
 74 73  1  0
 75 76  1  0
 75 74  1  0
 76  2  1  0
 77 78  1  0
 79 78  1  0
 80 79  1  0
 81 80  1  0
 82 56  1  0
 82 83  1  0
 82 92  1  0
 83 86  1  0
 84 88  1  0
 84 83  1  0
 85 84  2  0
 88 87  1  0
 90 88  1  0
 90 91  1  0
 90 89  1  0
 92 95  1  1
 92 93  1  0
 94 92  1  0
M  ISO  4  13 100  21 100  54 101  55 101
M  END
>  <TORSDO>  (17) 
F 22

>  <SCORE>  (17) 
-2.426

>  <name>  (17) 
16

>  <ligand_id>  (17) 
16

>  <original_smiles>  (17) 
[H]c1c([H])c([H])c2c(c1[H])C([H])([H])C([H])([H])C([H])([H])C2([H])N([H])C(=O)C1([H])N(C(=O)C([H])(N([H])C(=O)C([H])(N([H])C([H])([H])[H])C([H])([H])[H])C(C([H])([H])[H])(C([H])([H])[H])C([H])([H])[H])C([H])([H])c2c([H])c(OC([H])([H])C([H])([H])C([H])([H])C([H])([H])[N+]3([H])C([H])([H])C([H])([H])C([H])([N+]([H])([H])[H])C([H])(C([H])([H])N([H])C(=O)N4C([H])([H])C([H])([H])C([H])([H])C([H])(n5nc(-c6c([H])c([H])c(Oc7c([H])c([H])c(F)c([H])c7F)c([H])c6[H])c(C(=O)N([H])[H])c5N([H])[H])C4([H])[H])C3([H])[H])c([H])c([H])c2C1([H])[H]

>  <smiles>  (17) 
[H]c1c([H])c([H])c2c(c1[H])C([H])([H])C([H])([H])C([H])([H])C2([H])N([H])C(=O)C1([H])N(C(=O)C([H])(N([H])C(=O)C([H])(N([H])C([H])([H])[H])C([H])([H])[H])C(C([H])([H])[H])(C([H])([H])[H])C([H])([H])[H])C([H])([H])c2c([H])c(OC([H])([H])C([H])([H])C([H])([H])C([H])([H])[N+]3([H])C([H])([H])C([H])([H])C([H])([N+]([H])([H])[H])C([H])(C([H])([H])N([H])C(=O)N4C([H])([H])C([H])([H])C([H])([H])C([H])(n5nc(-c6c([H])c([H])c(Oc7c([H])c([H])c(F)c([H])c7F)c([H])c6[H])c(C(=O)N([H])[H])c5N([H])[H])C4([H])[H])C3([H])[H])c([H])c([H])c2C1([H])[H]

$$$$
17:0:0
     RDKit          3D

 94103  0  0  1  0  0  0  0  0999 V2000
  -31.3740  -18.1160   20.5740 C   0  0  0  0  0  0  0  0  0  0  0  0
  -32.1720  -21.2600   18.8700 C   0  0  0  0  0  2  0  0  0  0  0  0
  -30.1240  -21.6580   20.2100 C   0  0  0  0  0  2  0  0  0  0  0  0
  -31.8270  -19.7660   18.8010 C   0  0  0  0  0  2  0  0  0  0  0  0
  -30.9090  -22.1250   18.9680 C   0  0  0  0  0  3  0  0  0  0  0  0
  -29.8550  -20.1260   20.2850 C   0  0  0  0  0  3  0  0  0  0  0  0
  -28.6460  -19.6970   19.4360 C   0  0  0  0  0  1  0  0  0  0  0  0
  -31.0470  -19.2980   19.9690 N   0  0  0  0  0  0  0  0  0  0  0  0
  -32.4430  -17.5520   20.3200 O   0  0  0  0  0  0  0  0  0  0  0  0
  -30.7060  -14.4410   20.5810 C   0  0  0  0  0  0  0  0  0  0  0  0
  -30.3470  -12.3650   19.2950 C   0  0  0  0  0  2  0  0  0  0  0  0
  -29.4170  -12.6160   18.0910 C   0  0  0  0  0  2  0  0  0  0  0  0
  -27.9410  -12.4800   18.5050 C   0  0  0  0  0  2  0  0  0  0  0  0
  -27.6020  -13.2910   19.7850 C   0  0  0  0  0  3  0  0  0  0  0  0
  -28.6390  -13.0190   20.8970 C   0  0  0  0  0  2  0  0  0  0  0  0
  -29.9800  -13.3100   20.3630 N   0  0  0  0  0  0  0  0  0  0  0  0
  -31.7880  -14.6450   20.0290 O   0  0  0  0  0  0  0  0  0  0  0  0
  -29.3820  -16.4800   21.0010 C   0  0  0  0  0  2  0  0  0  0  0  0
  -30.9720  -16.2080   22.3400 C   0  0  0  0  0  2  0  0  0  0  0  0
  -30.4190  -17.4390   21.6000 C   0  0  0  0  0  3  0  0  0  0  0  0
  -30.1790  -15.3290   21.4590 N   0  0  0  0  0  0  0  0  0  0  0  0
  -25.1910  -13.9110   20.4310 C   0  0  0  0  0  0  0  0  0  0  0  0
  -24.1130  -13.1470   20.7950 C   0  0  0  0  0  0  0  0  0  0  0  0
  -24.5710  -11.7940   20.7930 C   0  0  0  0  0  0  0  0  0  0  0  0
  -26.2380  -13.0250   20.2390 N   0  0  0  0  0  0  0  0  0  0  0  0
  -25.8660  -11.7460   20.5110 N   0  0  0  0  0  0  0  0  0  0  0  0
  -23.8370  -10.5360   20.9960 C   0  0  0  0  0  0  0  0  0  0  0  0
  -24.2630   -9.5820   21.9450 C   0  0  0  0  0  3  0  0  0  0  0  0
  -23.5390   -8.3860   22.1340 C   0  0  0  0  0  3  0  0  0  0  0  0
  -22.3700   -8.1380   21.3760 C   0  0  0  0  0  0  0  0  0  0  0  0
  -21.9590   -9.0830   20.4170 C   0  0  0  0  0  3  0  0  0  0  0  0
  -22.6860  -10.2690   20.2260 C   0  0  0  0  0  3  0  0  0  0  0  0
  -21.6140   -6.9960   21.4710 O   0  0  0  0  0  0  0  0  0  0  0  0
  -21.5700   -6.2560   22.6250 C   0  0  0  0  0  0  0  0  0  0  0  0
  -21.1710   -6.8180   23.8560 C   0  0  0  0  0  3  0  0  0  0  0  0
  -21.0750   -6.0070   25.0040 C   0  0  0  0  0  3  0  0  0  0  0  0
  -21.3640   -4.6320   24.9220 C   0  0  0  0  0  0  0  0  0  0  0  0
  -21.7530   -4.0680   23.6930 C   0  0  0  0  0  3  0  0  0  0  0  0
  -21.8520   -4.8780   22.5490 C   0  0  0  0  0  0  0  0  0  0  0  0
  -22.2090   -4.3240   21.3650 F   0  0  0  0  0  0  0  0  0  0  0  0
  -21.2620   -3.8490   26.0210 F   0  0  0  0  0  0  0  0  0  0  0  0
  -22.7120  -13.6320   21.0340 C   0  0  0  0  0  0  0  0  0  0  0  0
  -21.9670  -12.9480   21.8960 N   0  0  0  0  0  0  0  0  0  0  0  0
  -22.2840  -14.6480   20.4880 O   0  0  0  0  0  0  0  0  0  0  0  0
  -22.3230  -12.1260   22.3610 H   0  0  0  0  0  0  0  0  0  0  0  0
  -21.0240  -13.2520   22.0940 H   0  0  0  0  0  0  0  0  0  0  0  0
  -25.3700  -15.2770   20.2290 N   0  0  0  0  0  0  0  0  0  0  0  0
  -24.6110  -15.9470   20.2820 H   0  0  0  0  0  0  0  0  0  0  0  0
  -26.2370  -15.6820   19.8990 H   0  0  0  0  0  0  0  0  0  0  0  0
  -31.2950  -23.6250   19.0140 C   0  0  0  0  0  2  0  0  0  0  0  0
  -30.1290  -24.6350   18.9040 C   0  0  0  0  0  2  0  0  0  0  0  0
  -30.5760  -26.0800   19.2240 C   0  0  0  0  0  2  0  0  0  0  0  0
  -29.4420  -27.1270   19.2180 C   0  0  0  0  0  2  0  0  0  0  0  0
  -28.4670  -26.7550   20.1830 O   0  0  0  0  0  0  0  0  0  0  0  0
  -24.6230  -31.9040   23.2540 C   0  0  0  0  0  0  0  0  0  0  0  0
  -27.3180  -27.5040   20.1780 C   0  0  0  0  0  0  0  0  0  0  0  0
  -23.4280  -30.4850   21.6160 C   0  0  0  0  0  3  0  0  0  0  0  0
  -24.9000  -28.9510   20.2010 C   0  0  0  0  0  0  0  0  0  0  0  0
  -25.9490  -30.8700   21.4190 C   0  0  0  0  0  2  0  0  0  0  0  0
  -26.0500  -29.5000   20.7840 C   0  0  0  0  0  0  0  0  0  0  0  0
  -27.2650  -28.7810   20.7720 C   0  0  0  0  0  3  0  0  0  0  0  0
  -26.1540  -26.9510   19.6120 C   0  0  0  0  0  3  0  0  0  0  0  0
  -24.9440  -27.6730   19.6160 C   0  0  0  0  0  3  0  0  0  0  0  0
  -23.6450  -29.7930   20.2440 C   0  0  0  0  0  2  0  0  0  0  0  0
  -24.6850  -31.1010   22.1550 N   0  0  0  0  0  0  0  0  0  0  0  0
  -23.5400  -32.1710   23.7930 O   0  0  0  0  0  0  0  0  0  0  0  0
  -22.7820  -29.4670   22.5840 C   0  0  0  0  0  0  0  0  0  0  0  0
  -21.4580  -29.2780   22.4580 N   0  0  0  0  0  0  0  0  0  0  0  0
  -23.4700  -28.8480   23.3990 O   0  0  0  0  0  0  0  0  0  0  0  0
  -20.9670  -29.8310   21.7710 H   0  0  0  0  0  0  0  0  0  0  0  0
  -18.0880  -28.0740   22.9560 C   0  0  0  0  0  0  0  0  0  0  0  0
  -20.6450  -28.3390   23.2300 C   0  0  0  0  0  3  0  0  0  0  0  0
  -20.7510  -26.9080   22.6550 C   0  0  0  0  0  2  0  0  0  0  0  0
  -19.6510  -26.5800   21.6400 C   0  0  0  0  0  2  0  0  0  0  0  0
  -18.2680  -26.7240   22.2820 C   0  0  0  0  0  2  0  0  0  0  0  0
  -19.2050  -28.8390   23.3850 C   0  0  0  0  0  0  0  0  0  0  0  0
  -18.9850  -30.1050   23.9700 C   0  0  0  0  0  3  0  0  0  0  0  0
  -17.6790  -30.6050   24.1340 C   0  0  0  0  0  3  0  0  0  0  0  0
  -16.5760  -29.8360   23.7240 C   0  0  0  0  0  3  0  0  0  0  0  0
  -16.7810  -28.5730   23.1410 C   0  0  0  0  0  3  0  0  0  0  0  0
  -25.9050  -32.5470   23.8740 C   0  0  0  0  0  3  0  0  0  0  0  0
  -26.4300  -31.7810   25.1500 C   0  0  1  0  0  0  0  0  0  0  0  0
  -25.3420  -31.5420   26.2230 C   0  0  0  0  0  1  0  0  0  0  0  0
  -27.0180  -30.4060   24.7580 C   0  0  0  0  0  1  0  0  0  0  0  0
  -27.5770  -32.5830   25.8100 C   0  0  0  0  0  1  0  0  0  0  0  0
  -25.5890  -33.9430   24.1990 N   0  0  0  0  0  0  0  0  0  0  0  0
  -25.9190  -34.9950   23.4350 C   0  0  0  0  0  0  0  0  0  0  0  0
  -26.5910  -34.8910   22.4060 O   0  0  0  0  0  0  0  0  0  0  0  0
  -24.9970  -34.0980   25.0020 H   0  0  0  0  0  0  0  0  0  0  0  0
  -24.1790  -36.7730   23.0670 C   0  0  0  0  0  1  0  0  0  0  0  0
  -25.4210  -36.3820   23.8850 C   0  0  0  0  0  3  0  0  0  0  0  0
  -27.5490  -37.2810   24.7140 C   0  0  0  0  0  1  0  0  0  0  0  0
  -26.4470  -37.4400   23.7700 N   0  0  0  0  0  0  0  0  0  0  0  0
  -26.0330  -38.3600   23.9150 H   0  0  0  0  0  0  0  0  0  0  0  0
  2  5  1  0
  3  6  1  0
  4  2  1  0
  4  8  1  0
  5 50  1  0
  5  3  1  0
  6  7  1  0
  8  6  1  0
  8  1  1  0
  9  1  2  0
 10 21  1  0
 11 16  1  0
 12 13  1  0
 12 11  1  0
 14 13  1  0
 14 25  1  0
 14 15  1  0
 16 10  1  0
 16 15  1  0
 17 10  2  0
 18 21  1  0
 18 20  1  0
 20  1  1  0
 20 19  1  0
 21 19  1  0
 22 23  2  0
 23 42  1  0
 24 23  1  0
 24 27  1  0
 25 22  1  0
 25 26  1  0
 26 24  2  0
 27 28  1  0
 28 29  2  0
 30 33  1  0
 30 29  1  0
 31 30  2  0
 32 31  1  0
 32 27  2  0
 33 34  1  0
 34 35  1  0
 35 36  2  0
 37 36  1  0
 37 41  1  0
 38 37  2  0
 39 34  2  0
 39 38  1  0
 40 39  1  0
 42 43  1  0
 43 46  1  0
 43 45  1  0
 44 42  2  0
 47 48  1  0
 47 22  1  0
 49 47  1  0
 51 50  1  0
 51 52  1  0
 53 52  1  0
 53 54  1  0
 55 66  2  0
 56 54  1  0
 56 61  1  0
 57 65  1  0
 57 67  1  0
 58 64  1  0
 58 60  1  0
 59 65  1  0
 60 59  1  0
 61 60  2  0
 62 63  1  0
 62 56  2  0
 63 58  2  0
 64 57  1  0
 65 55  1  0
 67 69  2  0
 68 67  1  0
 70 68  1  0
 71 80  2  0
 71 76  1  0
 72 68  1  0
 72 76  1  0
 73 72  1  0
 74 75  1  0
 74 73  1  0
 75 71  1  0
 76 77  2  0
 77 78  1  0
 79 78  2  0
 80 79  1  0
 81 55  1  0
 81 86  1  0
 81 82  1  0
 82 85  1  1
 82 83  1  0
 84 82  1  0
 86 89  1  0
 87 91  1  0
 87 86  1  0
 88 87  2  0
 91 90  1  0
 93 91  1  0
 93 94  1  0
 93 92  1  0
M  ISO  4  10 100  21 100  53 101  54 101
M  END
>  <TORSDO>  (18) 
F 20

>  <SCORE>  (18) 
-13.970

>  <name>  (18) 
17

>  <ligand_id>  (18) 
17

>  <original_smiles>  (18) 
[H]c1c([H])c([H])c2c(c1[H])C([H])([H])C([H])([H])C([H])([H])C2([H])N([H])C(=O)C1([H])N(C(=O)C([H])(N([H])C(=O)C([H])(N([H])C([H])([H])[H])C([H])([H])[H])C(C([H])([H])[H])(C([H])([H])[H])C([H])([H])[H])C([H])([H])c2c([H])c(OC([H])([H])C([H])([H])C([H])([H])C([H])([H])C3([H])C([H])([H])C([H])([H])N(C(=O)C4([H])C([H])([H])N(C(=O)N5C([H])([H])C([H])([H])C([H])([H])C([H])(n6nc(-c7c([H])c([H])c(Oc8c([H])c([H])c(F)c([H])c8F)c([H])c7[H])c(C(=O)N([H])[H])c6N([H])[H])C5([H])[H])C4([H])[H])C([H])(C([H])([H])[H])C3([H])[H])c([H])c([H])c2C1([H])[H]

>  <smiles>  (18) 
[H]c1c([H])c([H])c2c(c1[H])C([H])([H])C([H])([H])C([H])([H])C2([H])N([H])C(=O)C1([H])N(C(=O)C([H])(N([H])C(=O)C([H])(N([H])C([H])([H])[H])C([H])([H])[H])C(C([H])([H])[H])(C([H])([H])[H])C([H])([H])[H])C([H])([H])c2c([H])c(OC([H])([H])C([H])([H])C([H])([H])C([H])([H])C3([H])C([H])([H])C([H])([H])N(C(=O)C4([H])C([H])([H])N(C(=O)N5C([H])([H])C([H])([H])C([H])([H])C([H])(n6nc(-c7c([H])c([H])c(Oc8c([H])c([H])c(F)c([H])c8F)c([H])c7[H])c(C(=O)N([H])[H])c6N([H])[H])C5([H])[H])C4([H])[H])C([H])(C([H])([H])[H])C3([H])[H])c([H])c([H])c2C1([H])[H]

$$$$
18:0:0
     RDKit          3D

 99107  0  0  1  0  0  0  0  0999 V2000
  -24.6310  -21.8040   20.4180 C   0  0  0  0  0  1  0  0  0  0  0  0
  -26.1130  -22.1980   20.3140 C   0  0  0  0  0  3  0  0  0  0  0  0
  -26.2570  -23.7170   20.1030 C   0  0  0  0  0  2  0  0  0  0  0  0
  -27.7700  -24.1520   20.0700 C   0  0  0  0  0  2  0  0  0  0  0  0
  -28.3980  -25.5390   20.4450 C   0  0  0  0  0  3  0  0  0  0  0  0
  -29.4590  -25.4180   21.4830 N   0  0  0  0  0  4  0  0  0  0  0  0
  -30.1960  -24.7910   21.2050 H   0  0  0  0  0  0  0  0  0  0  0  0
  -29.0800  -25.0820   22.3540 H   0  0  0  0  0  0  0  0  0  0  0  0
  -29.8720  -26.3170   21.6660 H   0  0  0  0  0  0  0  0  0  0  0  0
  -28.9840  -26.3110   19.2140 C   0  0  0  0  0  2  0  0  0  0  0  0
  -28.7760  -27.7120   19.3500 O   0  0  0  0  0  0  0  0  0  0  0  0
  -24.5330  -31.7500   23.3000 C   0  0  0  0  0  0  0  0  0  0  0  0
  -27.4890  -28.1910   19.4870 C   0  0  0  0  0  0  0  0  0  0  0  0
  -23.3890  -30.4130   21.5580 C   0  0  0  0  0  3  0  0  0  0  0  0
  -24.9120  -29.2910   19.8540 C   0  0  0  0  0  0  0  0  0  0  0  0
  -25.8140  -31.1590   21.2490 C   0  0  0  0  0  2  0  0  0  0  0  0
  -26.0280  -29.9070   20.4280 C   0  0  0  0  0  0  0  0  0  0  0  0
  -27.3150  -29.3670   20.2410 C   0  0  0  0  0  3  0  0  0  0  0  0
  -26.3500  -27.5720   18.9140 C   0  0  0  0  0  3  0  0  0  0  0  0
  -25.0660  -28.1150   19.0990 C   0  0  0  0  0  3  0  0  0  0  0  0
  -23.5720  -29.9490   20.0900 C   0  0  0  0  0  2  0  0  0  0  0  0
  -24.5990  -31.1180   22.0940 N   0  0  0  0  0  0  0  0  0  0  0  0
  -23.4760  -31.7900   23.9450 O   0  0  0  0  0  0  0  0  0  0  0  0
  -22.9620  -29.1950   22.4080 C   0  0  0  0  0  0  0  0  0  0  0  0
  -21.7330  -28.7070   22.1780 N   0  0  0  0  0  0  0  0  0  0  0  0
  -23.7360  -28.6940   23.2280 O   0  0  0  0  0  0  0  0  0  0  0  0
  -21.1580  -29.1680   21.4870 H   0  0  0  0  0  0  0  0  0  0  0  0
  -18.8070  -26.5940   22.2430 C   0  0  0  0  0  0  0  0  0  0  0  0
  -21.1350  -27.5460   22.8360 C   0  0  0  0  0  3  0  0  0  0  0  0
  -21.7090  -26.2290   22.2650 C   0  0  0  0  0  2  0  0  0  0  0  0
  -20.8700  -25.6570   21.1180 C   0  0  0  0  0  2  0  0  0  0  0  0
  -19.4380  -25.3790   21.5830 C   0  0  0  0  0  2  0  0  0  0  0  0
  -19.6040  -27.6190   22.8160 C   0  0  0  0  0  0  0  0  0  0  0  0
  -18.9690  -28.7460   23.3830 C   0  0  0  0  0  3  0  0  0  0  0  0
  -17.5650  -28.8540   23.3890 C   0  0  0  0  0  3  0  0  0  0  0  0
  -16.7800  -27.8290   22.8320 C   0  0  0  0  0  3  0  0  0  0  0  0
  -17.4000  -26.7020   22.2640 C   0  0  0  0  0  3  0  0  0  0  0  0
  -25.7720  -32.4720   23.9140 C   0  0  0  0  0  3  0  0  0  0  0  0
  -26.3750  -31.7180   25.1640 C   0  0  1  0  0  0  0  0  0  0  0  0
  -25.3130  -31.2910   26.2030 C   0  0  0  0  0  1  0  0  0  0  0  0
  -27.1400  -30.4480   24.7180 C   0  0  0  0  0  1  0  0  0  0  0  0
  -27.3990  -32.6270   25.8800 C   0  0  0  0  0  1  0  0  0  0  0  0
  -25.3590  -33.8320   24.2760 N   0  0  0  0  0  0  0  0  0  0  0  0
  -25.6170  -34.9250   23.5460 C   0  0  0  0  0  0  0  0  0  0  0  0
  -26.3040  -34.9000   22.5210 O   0  0  0  0  0  0  0  0  0  0  0  0
  -24.7550  -33.9220   25.0800 H   0  0  0  0  0  0  0  0  0  0  0  0
  -23.7670  -36.5940   23.2040 C   0  0  0  0  0  1  0  0  0  0  0  0
  -25.0200  -36.2600   24.0300 C   0  0  0  0  0  3  0  0  0  0  0  0
  -27.0660  -37.2760   24.9270 C   0  0  0  0  0  1  0  0  0  0  0  0
  -25.9700  -37.3900   23.9670 N   0  0  0  0  0  0  0  0  0  0  0  0
  -25.4950  -38.2730   24.1340 H   0  0  0  0  0  0  0  0  0  0  0  0
  -26.8220  -21.4120   19.1790 C   0  0  0  0  0  2  0  0  0  0  0  0
  -29.9480  -19.9040   20.8360 C   0  0  0  0  0  2  0  0  0  0  0  0
  -29.0290  -20.9820   20.2320 C   0  0  0  0  0  2  0  0  0  0  0  0
  -28.0700  -19.3620   18.6540 C   0  0  0  0  0  2  0  0  0  0  0  0
  -30.2910  -18.8300   19.7920 C   0  0  0  0  0  3  0  0  0  0  0  0
  -28.9940  -18.2510   19.1880 C   0  0  0  0  0  3  0  0  0  0  0  0
  -27.7770  -20.3920   19.6840 N   0  0  2  0  0  4  0  0  0  0  0  0
  -29.3870  -17.1400   17.8430 Cl  0  0  0  0  0  0  0  0  0  0  0  0
  -27.3040  -19.9200   20.4420 H   0  0  0  0  0  0  0  0  0  0  0  0
  -31.3020  -17.7860   20.3320 C   0  0  0  0  0  2  0  0  0  0  0  0
  -31.4880  -15.3710   20.6970 C   0  0  0  0  0  0  0  0  0  0  0  0
  -31.2400  -13.1540   19.6980 C   0  0  0  0  0  2  0  0  0  0  0  0
  -30.3900  -13.2910   18.4210 C   0  0  0  0  0  2  0  0  0  0  0  0
  -28.8890  -13.1770   18.7530 C   0  0  0  0  0  2  0  0  0  0  0  0
  -28.4590  -14.0770   19.9410 C   0  0  0  0  0  3  0  0  0  0  0  0
  -29.4390  -13.9530   21.1310 C   0  0  0  0  0  2  0  0  0  0  0  0
  -30.7980  -14.2050   20.6260 N   0  0  0  0  0  0  0  0  0  0  0  0
  -32.6860  -15.4570   20.4200 O   0  0  0  0  0  0  0  0  0  0  0  0
  -30.7550  -16.4930   20.7930 N   0  0  0  0  0  0  0  0  0  0  0  0
  -29.7710  -16.4080   20.9940 H   0  0  0  0  0  0  0  0  0  0  0  0
  -26.0330  -14.6950   20.5410 C   0  0  0  0  0  0  0  0  0  0  0  0
  -24.9430  -13.9240   20.8440 C   0  0  0  0  0  0  0  0  0  0  0  0
  -25.3880  -12.5660   20.7910 C   0  0  0  0  0  0  0  0  0  0  0  0
  -27.0790  -13.8070   20.3410 N   0  0  0  0  0  0  0  0  0  0  0  0
  -26.6910  -12.5210   20.5490 N   0  0  0  0  0  0  0  0  0  0  0  0
  -24.6410  -11.3040   20.8970 C   0  0  0  0  0  0  0  0  0  0  0  0
  -24.9570  -10.3380   21.8770 C   0  0  0  0  0  3  0  0  0  0  0  0
  -24.2090   -9.1420   21.9740 C   0  0  0  0  0  3  0  0  0  0  0  0
  -23.1320   -8.9050   21.0860 C   0  0  0  0  0  0  0  0  0  0  0  0
  -22.8410   -9.8570   20.0930 C   0  0  0  0  0  3  0  0  0  0  0  0
  -23.5900  -11.0410   19.9950 C   0  0  0  0  0  3  0  0  0  0  0  0
  -22.3740   -7.7590   21.0860 O   0  0  0  0  0  0  0  0  0  0  0  0
  -22.0710   -7.0950   22.2490 C   0  0  0  0  0  0  0  0  0  0  0  0
  -21.3650   -7.7180   23.3000 C   0  0  0  0  0  3  0  0  0  0  0  0
  -21.0130   -6.9800   24.4470 C   0  0  0  0  0  3  0  0  0  0  0  0
  -21.3600   -5.6180   24.5440 C   0  0  0  0  0  0  0  0  0  0  0  0
  -22.0610   -4.9950   23.4970 C   0  0  0  0  0  3  0  0  0  0  0  0
  -22.4120   -5.7320   22.3510 C   0  0  0  0  0  0  0  0  0  0  0  0
  -23.0660   -5.1190   21.3340 F   0  0  0  0  0  0  0  0  0  0  0  0
  -21.0170   -4.9060   25.6430 F   0  0  0  0  0  0  0  0  0  0  0  0
  -23.5360  -14.4070   21.0540 C   0  0  0  0  0  0  0  0  0  0  0  0
  -22.7580  -13.6920   21.8590 N   0  0  0  0  0  0  0  0  0  0  0  0
  -23.1380  -15.4490   20.5360 O   0  0  0  0  0  0  0  0  0  0  0  0
  -23.1010  -12.8520   22.3030 H   0  0  0  0  0  0  0  0  0  0  0  0
  -21.8080  -13.9860   22.0330 H   0  0  0  0  0  0  0  0  0  0  0  0
  -26.2260  -16.0640   20.3770 N   0  0  0  0  0  0  0  0  0  0  0  0
  -25.3910  -16.6410   20.3540 H   0  0  0  0  0  0  0  0  0  0  0  0
  -26.8310  -16.2780   19.5960 H   0  0  0  0  0  0  0  0  0  0  0  0
  2  1  1  0
  3  2  1  0
  4  3  1  0
  4  5  1  0
  5 10  1  0
  5  6  1  0
  6  9  1  0
  6  8  1  0
  7  6  1  0
 10 11  1  0
 11 13  1  0
 12 23  2  0
 13 18  1  0
 14 22  1  0
 14 24  1  0
 15 21  1  0
 15 17  1  0
 16 22  1  0
 17 16  1  0
 18 17  2  0
 19 20  1  0
 19 13  2  0
 20 15  2  0
 21 14  1  0
 22 12  1  0
 24 26  2  0
 25 24  1  0
 27 25  1  0
 28 37  2  0
 28 33  1  0
 29 25  1  0
 30 29  1  0
 31 32  1  0
 31 30  1  0
 32 28  1  0
 33 29  1  0
 33 34  2  0
 34 35  1  0
 36 35  2  0
 37 36  1  0
 38 12  1  0
 38 43  1  0
 38 39  1  0
 39 42  1  1
 39 40  1  0
 41 39  1  0
 43 46  1  0
 44 48  1  0
 44 43  1  0
 45 44  2  0
 48 47  1  0
 50 48  1  0
 50 51  1  0
 50 49  1  0
 52 58  1  0
 52  2  1  0
 54 53  1  0
 55 57  1  0
 55 58  1  0
 56 61  1  0
 56 53  1  0
 57 59  1  0
 57 56  1  0
 58 54  1  0
 58 60  1  1
 61 70  1  0
 62 70  1  0
 63 68  1  0
 64 65  1  0
 64 63  1  0
 66 65  1  0
 66 75  1  0
 66 67  1  0
 68 62  1  0
 68 67  1  0
 69 62  2  0
 70 71  1  0
 72 73  2  0
 73 92  1  0
 74 73  1  0
 74 77  1  0
 75 72  1  0
 75 76  1  0
 76 74  2  0
 77 78  1  0
 78 79  2  0
 80 79  1  0
 81 80  2  0
 82 81  1  0
 82 77  2  0
 83 80  1  0
 83 84  1  0
 84 89  2  0
 84 85  1  0
 85 86  2  0
 86 87  1  0
 87 91  1  0
 88 87  2  0
 89 88  1  0
 90 89  1  0
 92 93  1  0
 93 96  1  0
 93 95  1  0
 94 92  2  0
 97 72  1  0
 98 97  1  0
 99 97  1  0
M  ISO  4  10 101  11 101  62 100  70 100
M  END
>  <TORSDO>  (19) 
F 24

>  <SCORE>  (19) 
-7.065

>  <name>  (19) 
18

>  <ligand_id>  (19) 
18

>  <original_smiles>  (19) 
[H]c1c([H])c([H])c2c(c1[H])C([H])([H])C([H])([H])C([H])([H])C2([H])N([H])C(=O)C1([H])N(C(=O)C([H])(N([H])C(=O)C([H])(N([H])C([H])([H])[H])C([H])([H])[H])C(C([H])([H])[H])(C([H])([H])[H])C([H])([H])[H])C([H])([H])c2c([H])c(OC([H])([H])C([H])(C([H])([H])C([H])([H])C([H])(C([H])([H])[H])C([H])([H])[N+]3([H])C([H])([H])C([H])([H])C([H])(C([H])([H])N([H])C(=O)N4C([H])([H])C([H])([H])C([H])([H])C([H])(n5nc(-c6c([H])c([H])c(Oc7c([H])c([H])c(F)c([H])c7F)c([H])c6[H])c(C(=O)N([H])[H])c5N([H])[H])C4([H])[H])C([H])(Cl)C3([H])[H])[N+]([H])([H])[H])c([H])c([H])c2C1([H])[H]

>  <smiles>  (19) 
[H]c1c([H])c([H])c2c(c1[H])C([H])([H])C([H])([H])C([H])([H])C2([H])N([H])C(=O)C1([H])N(C(=O)C([H])(N([H])C(=O)C([H])(N([H])C([H])([H])[H])C([H])([H])[H])C(C([H])([H])[H])(C([H])([H])[H])C([H])([H])[H])C([H])([H])c2c([H])c(OC([H])([H])C([H])(C([H])([H])C([H])([H])C([H])(C([H])([H])[H])C([H])([H])[N+]3([H])C([H])([H])C([H])([H])C([H])(C([H])([H])N([H])C(=O)N4C([H])([H])C([H])([H])C([H])([H])C([H])(n5nc(-c6c([H])c([H])c(Oc7c([H])c([H])c(F)c([H])c7F)c([H])c6[H])c(C(=O)N([H])[H])c5N([H])[H])C4([H])[H])C([H])(Cl)C3([H])[H])[N+]([H])([H])[H])c([H])c([H])c2C1([H])[H]

$$$$
19:0:0
     RDKit          3D

 93101  0  0  1  0  0  0  0  0999 V2000
  -29.7400  -20.3450   20.6170 C   0  0  0  0  0  3  0  0  0  0  0  0
  -32.9800  -18.7030   20.3560 C   0  0  0  0  0  2  0  0  0  0  0  0
  -32.1620  -19.8300   20.9850 C   0  0  0  0  0  2  0  0  0  0  0  0
  -31.9580  -17.9090   19.5540 C   0  0  0  0  0  3  0  0  0  0  0  0
  -30.6760  -17.9970   20.4180 C   0  0  0  0  0  3  0  0  0  0  0  0
  -31.7810  -18.4630   18.1290 C   0  0  0  0  0  1  0  0  0  0  0  0
  -30.7600  -19.3440   21.0860 N   0  0  2  0  0  4  0  0  0  0  0  0
  -30.5680  -19.1760   22.0640 H   0  0  0  0  0  0  0  0  0  0  0  0
  -30.6030  -16.8460   21.4850 C   0  0  0  0  0  2  0  0  0  0  0  0
  -30.7120  -14.5030   20.4980 C   0  0  0  0  0  0  0  0  0  0  0  0
  -30.3710  -12.3570   19.3290 C   0  0  0  0  0  2  0  0  0  0  0  0
  -29.4380  -12.5580   18.1200 C   0  0  0  0  0  2  0  0  0  0  0  0
  -27.9590  -12.4310   18.5410 C   0  0  0  0  0  2  0  0  0  0  0  0
  -27.6180  -13.2650   19.8070 C   0  0  0  0  0  3  0  0  0  0  0  0
  -28.6760  -13.0610   20.9160 C   0  0  0  0  0  2  0  0  0  0  0  0
  -29.9980  -13.3550   20.3440 N   0  0  0  0  0  0  0  0  0  0  0  0
  -31.8580  -14.6340   20.0710 O   0  0  0  0  0  0  0  0  0  0  0  0
  -30.0550  -15.5440   21.0430 N   0  0  0  0  0  0  0  0  0  0  0  0
  -29.0930  -15.3630   21.2890 H   0  0  0  0  0  0  0  0  0  0  0  0
  -25.2180  -13.8690   20.5130 C   0  0  0  0  0  0  0  0  0  0  0  0
  -24.1500  -13.0950   20.8820 C   0  0  0  0  0  0  0  0  0  0  0  0
  -24.6120  -11.7440   20.8580 C   0  0  0  0  0  0  0  0  0  0  0  0
  -26.2640  -12.9870   20.2860 N   0  0  0  0  0  0  0  0  0  0  0  0
  -25.9030  -11.7050   20.5540 N   0  0  0  0  0  0  0  0  0  0  0  0
  -23.8850  -10.4830   21.0510 C   0  0  0  0  0  0  0  0  0  0  0  0
  -24.3270   -9.5160   21.9800 C   0  0  0  0  0  3  0  0  0  0  0  0
  -23.6070   -8.3150   22.1610 C   0  0  0  0  0  3  0  0  0  0  0  0
  -22.4290   -8.0750   21.4130 C   0  0  0  0  0  0  0  0  0  0  0  0
  -22.0050   -9.0300   20.4720 C   0  0  0  0  0  3  0  0  0  0  0  0
  -22.7260  -10.2220   20.2910 C   0  0  0  0  0  3  0  0  0  0  0  0
  -21.6770   -6.9290   21.5060 O   0  0  0  0  0  0  0  0  0  0  0  0
  -21.6480   -6.1760   22.6530 C   0  0  0  0  0  0  0  0  0  0  0  0
  -21.2520   -6.7220   23.8920 C   0  0  0  0  0  3  0  0  0  0  0  0
  -21.1690   -5.8970   25.0310 C   0  0  0  0  0  3  0  0  0  0  0  0
  -21.4720   -4.5250   24.9300 C   0  0  0  0  0  0  0  0  0  0  0  0
  -21.8560   -3.9770   23.6940 C   0  0  0  0  0  3  0  0  0  0  0  0
  -21.9400   -4.8000   22.5580 C   0  0  0  0  0  0  0  0  0  0  0  0
  -22.2940   -4.2620   21.3650 F   0  0  0  0  0  0  0  0  0  0  0  0
  -21.3820   -3.7300   26.0220 F   0  0  0  0  0  0  0  0  0  0  0  0
  -22.7500  -13.5710   21.1470 C   0  0  0  0  0  0  0  0  0  0  0  0
  -22.0210  -12.8770   22.0140 N   0  0  0  0  0  0  0  0  0  0  0  0
  -22.3110  -14.5930   20.6200 O   0  0  0  0  0  0  0  0  0  0  0  0
  -22.3860  -12.0520   22.4660 H   0  0  0  0  0  0  0  0  0  0  0  0
  -21.0810  -13.1780   22.2330 H   0  0  0  0  0  0  0  0  0  0  0  0
  -25.3800  -15.2410   20.3380 N   0  0  0  0  0  0  0  0  0  0  0  0
  -24.6160  -15.8960   20.4630 H   0  0  0  0  0  0  0  0  0  0  0  0
  -26.2290  -15.6830   20.0100 H   0  0  0  0  0  0  0  0  0  0  0  0
  -29.7090  -21.7050   21.4010 C   0  0  0  0  0  3  0  0  0  0  0  0
  -27.5600  -22.2080   20.0150 C   0  0  0  0  0  1  0  0  0  0  0  0
  -28.6070  -22.7640   21.0070 C   0  0  0  0  0  3  0  0  0  0  0  0
  -29.1160  -24.1850   20.5600 C   0  0  0  0  0  2  0  0  0  0  0  0
  -28.1280  -25.3420   20.9120 C   0  0  0  0  0  2  0  0  0  0  0  0
  -28.3690  -26.6250   20.2740 O   0  0  0  0  0  0  0  0  0  0  0  0
  -24.5940  -31.9040   23.2360 C   0  0  0  0  0  0  0  0  0  0  0  0
  -27.2400  -27.4270   20.2040 C   0  0  0  0  0  0  0  0  0  0  0  0
  -23.3950  -30.4990   21.5910 C   0  0  0  0  0  3  0  0  0  0  0  0
  -24.8550  -28.9560   20.1770 C   0  0  0  0  0  0  0  0  0  0  0  0
  -25.9260  -30.8540   21.4020 C   0  0  0  0  0  2  0  0  0  0  0  0
  -26.0130  -29.4780   20.7720 C   0  0  0  0  0  0  0  0  0  0  0  0
  -27.2140  -28.7220   20.7780 C   0  0  0  0  0  3  0  0  0  0  0  0
  -26.0710  -26.9430   19.5760 C   0  0  0  0  0  3  0  0  0  0  0  0
  -24.8810  -27.6900   19.5740 C   0  0  0  0  0  3  0  0  0  0  0  0
  -23.6100  -29.8140   20.2170 C   0  0  0  0  0  2  0  0  0  0  0  0
  -24.6570  -31.1030   22.1320 N   0  0  0  0  0  0  0  0  0  0  0  0
  -23.5110  -32.1720   23.7720 O   0  0  0  0  0  0  0  0  0  0  0  0
  -22.7380  -29.4820   22.5530 C   0  0  0  0  0  0  0  0  0  0  0  0
  -21.4110  -29.3080   22.4350 N   0  0  0  0  0  0  0  0  0  0  0  0
  -23.4210  -28.8520   23.3660 O   0  0  0  0  0  0  0  0  0  0  0  0
  -20.9180  -29.8630   21.7490 H   0  0  0  0  0  0  0  0  0  0  0  0
  -18.0290  -28.1450   22.9510 C   0  0  0  0  0  0  0  0  0  0  0  0
  -20.5910  -28.3780   23.2090 C   0  0  0  0  0  3  0  0  0  0  0  0
  -20.6790  -26.9480   22.6290 C   0  0  0  0  0  2  0  0  0  0  0  0
  -19.5670  -26.6390   21.6200 C   0  0  0  0  0  2  0  0  0  0  0  0
  -18.1900  -26.7960   22.2700 C   0  0  0  0  0  2  0  0  0  0  0  0
  -19.1580  -28.8950   23.3760 C   0  0  0  0  0  0  0  0  0  0  0  0
  -18.9520  -30.1600   23.9680 C   0  0  0  0  0  3  0  0  0  0  0  0
  -17.6520  -30.6710   24.1450 C   0  0  0  0  0  3  0  0  0  0  0  0
  -16.5390  -29.9190   23.7320 C   0  0  0  0  0  3  0  0  0  0  0  0
  -16.7300  -28.6580   23.1400 C   0  0  0  0  0  3  0  0  0  0  0  0
  -25.8760  -32.5390   23.8600 C   0  0  0  0  0  3  0  0  0  0  0  0
  -25.5660  -33.9370   24.1880 N   0  0  0  0  0  0  0  0  0  0  0  0
  -25.9070  -34.9880   23.4280 C   0  0  0  0  0  0  0  0  0  0  0  0
  -26.5820  -34.8790   22.4030 O   0  0  0  0  0  0  0  0  0  0  0  0
  -24.9710  -34.0930   24.9880 H   0  0  0  0  0  0  0  0  0  0  0  0
  -24.1850  -36.7790   23.0450 C   0  0  0  0  0  1  0  0  0  0  0  0
  -25.4170  -36.3800   23.8740 C   0  0  0  0  0  3  0  0  0  0  0  0
  -27.5470  -37.2580   24.7210 C   0  0  0  0  0  1  0  0  0  0  0  0
  -26.4530  -37.4310   23.7680 N   0  0  0  0  0  0  0  0  0  0  0  0
  -26.0490  -38.3540   23.9110 H   0  0  0  0  0  0  0  0  0  0  0  0
  -26.3900  -31.7670   25.1360 C   0  0  1  0  0  0  0  0  0  0  0  0
  -25.2950  -31.5270   26.2010 C   0  0  0  0  0  1  0  0  0  0  0  0
  -26.9730  -30.3890   24.7420 C   0  0  0  0  0  1  0  0  0  0  0  0
  -27.5470  -32.5550   25.7940 C   0  0  0  0  0  1  0  0  0  0  0  0
  1  7  1  0
  1 48  2  0
  2  3  1  0
  3  7  1  0
  4  6  1  0
  4  2  1  0
  4  5  1  0
  5  7  1  0
  5  9  1  0
  7  8  1  1
 10 18  1  0
 11 16  1  0
 12 13  1  0
 12 11  1  0
 14 13  1  0
 14 23  1  0
 14 15  1  0
 16 10  1  0
 16 15  1  0
 17 10  2  0
 18 19  1  0
 18  9  1  0
 20 21  2  0
 21 40  1  0
 22 21  1  0
 22 25  1  0
 23 20  1  0
 23 24  1  0
 24 22  2  0
 25 26  1  0
 26 27  2  0
 28 31  1  0
 28 27  1  0
 29 28  2  0
 30 29  1  0
 30 25  2  0
 31 32  1  0
 32 33  1  0
 33 34  2  0
 35 34  1  0
 35 39  1  0
 36 35  2  0
 37 32  2  0
 37 36  1  0
 38 37  1  0
 40 41  1  0
 41 44  1  0
 41 43  1  0
 42 40  2  0
 45 46  1  0
 45 20  1  0
 47 45  1  0
 50 49  1  0
 50 48  1  0
 51 52  1  0
 51 50  1  0
 53 52  1  0
 54 65  2  0
 55 53  1  0
 55 60  1  0
 56 64  1  0
 56 66  1  0
 57 63  1  0
 57 59  1  0
 58 64  1  0
 59 60  2  0
 59 58  1  0
 61 55  2  0
 62 61  1  0
 62 57  2  0
 63 56  1  0
 64 54  1  0
 66 68  2  0
 67 66  1  0
 69 67  1  0
 70 79  2  0
 70 75  1  0
 71 67  1  0
 71 75  1  0
 72 71  1  0
 73 74  1  0
 73 72  1  0
 74 70  1  0
 75 76  2  0
 76 77  1  0
 78 77  2  0
 79 78  1  0
 80 54  1  0
 80 81  1  0
 80 90  1  0
 81 84  1  0
 82 86  1  0
 82 81  1  0
 83 82  2  0
 86 85  1  0
 88 86  1  0
 88 89  1  0
 88 87  1  0
 90 93  1  1
 90 91  1  0
 92 90  1  0
M  ISO  4  10 100  18 100  52 101  53 101
M  END
>  <TORSDO>  (20) 
F 22

>  <SCORE>  (20) 
-13.464

>  <name>  (20) 
19

>  <ligand_id>  (20) 
19

>  <original_smiles>  (20) 
[H]c1c([H])c([H])c2c(c1[H])C([H])([H])C([H])([H])C([H])([H])C2([H])N([H])C(=O)C1([H])N(C(=O)C([H])(N([H])C(=O)C([H])(N([H])C([H])([H])[H])C([H])([H])[H])C(C([H])([H])[H])(C([H])([H])[H])C([H])([H])[H])C([H])([H])c2c([H])c(OC([H])([H])C([H])([H])C([H])(C([H])([H])[H])C([H])([H])C([H])([H])[N+]3([H])C([H])([H])C([H])([H])C([H])(C([H])([H])[H])C3([H])C([H])([H])N([H])C(=O)N3C([H])([H])C([H])([H])C([H])([H])C([H])(n4nc(-c5c([H])c([H])c(Oc6c([H])c([H])c(F)c([H])c6F)c([H])c5[H])c(C(=O)N([H])[H])c4N([H])[H])C3([H])[H])c([H])c([H])c2C1([H])[H]

>  <smiles>  (20) 
[H]c1c([H])c([H])c2c(c1[H])C([H])([H])C([H])([H])C([H])([H])C2([H])N([H])C(=O)C1([H])N(C(=O)C([H])(N([H])C(=O)C([H])(N([H])C([H])([H])[H])C([H])([H])[H])C(C([H])([H])[H])(C([H])([H])[H])C([H])([H])[H])C([H])([H])c2c([H])c(OC([H])([H])C([H])([H])C([H])(C([H])([H])[H])C([H])([H])C([H])([H])[N+]3([H])C([H])([H])C([H])([H])C([H])(C([H])([H])[H])C3([H])C([H])([H])N([H])C(=O)N3C([H])([H])C([H])([H])C([H])([H])C([H])(n4nc(-c5c([H])c([H])c(Oc6c([H])c([H])c(F)c([H])c6F)c([H])c5[H])c(C(=O)N([H])[H])c4N([H])[H])C3([H])[H])c([H])c([H])c2C1([H])[H]

$$$$
20:0:0
     RDKit          3D

 93101  0  0  1  0  0  0  0  0999 V2000
  -28.8790  -22.1960   21.4320 C   0  0  0  0  0  3  0  0  0  0  0  0
  -29.8900  -22.6280   22.1900 F   0  0  0  0  0  0  0  0  0  0  0  0
  -29.2910  -20.8890   20.7170 C   0  0  0  0  0  0  0  0  0  0  0  0
  -29.8010  -19.9130   21.4880 N   0  0  0  0  0  0  0  0  0  0  0  0
  -29.1210  -20.7440   19.5040 O   0  0  0  0  0  0  0  0  0  0  0  0
  -29.9800  -20.1590   22.4540 H   0  0  0  0  0  0  0  0  0  0  0  0
  -30.7120  -14.5220   20.1740 C   0  0  0  0  0  0  0  0  0  0  0  0
  -30.2860  -12.3990   18.9770 C   0  0  0  0  0  2  0  0  0  0  0  0
  -29.2940  -12.6150   17.8190 C   0  0  0  0  0  2  0  0  0  0  0  0
  -27.8470  -12.4330   18.3140 C   0  0  0  0  0  2  0  0  0  0  0  0
  -27.5590  -13.2570   19.5950 C   0  0  0  0  0  3  0  0  0  0  0  0
  -28.6730  -13.0700   20.6570 C   0  0  0  0  0  2  0  0  0  0  0  0
  -29.9670  -13.3830   20.0290 N   0  0  0  0  0  0  0  0  0  0  0  0
  -31.8110  -14.6380   19.6210 O   0  0  0  0  0  0  0  0  0  0  0  0
  -28.8340  -17.7650   20.7190 C   0  0  0  0  0  2  0  0  0  0  0  0
  -30.7630  -17.7460   22.1980 C   0  0  0  0  0  2  0  0  0  0  0  0
  -29.0470  -16.2780   20.3610 C   0  0  0  0  0  2  0  0  0  0  0  0
  -31.1930  -16.3350   21.7460 C   0  0  0  0  0  2  0  0  0  0  0  0
  -30.1070  -18.5390   21.0670 C   0  0  0  0  0  3  0  0  0  0  0  0
  -30.2210  -15.5600   20.9180 N   0  0  0  0  0  0  0  0  0  0  0  0
  -25.2020  -13.8450   20.4360 C   0  0  0  0  0  0  0  0  0  0  0  0
  -24.1560  -13.0650   20.8490 C   0  0  0  0  0  0  0  0  0  0  0  0
  -24.6190  -11.7160   20.7720 C   0  0  0  0  0  0  0  0  0  0  0  0
  -26.2360  -12.9710   20.1400 N   0  0  0  0  0  0  0  0  0  0  0  0
  -25.8920  -11.6840   20.4000 N   0  0  0  0  0  0  0  0  0  0  0  0
  -23.9080  -10.4480   20.9770 C   0  0  0  0  0  0  0  0  0  0  0  0
  -24.3640   -9.4890   21.9050 C   0  0  0  0  0  3  0  0  0  0  0  0
  -23.6550   -8.2830   22.0960 C   0  0  0  0  0  3  0  0  0  0  0  0
  -22.4770   -8.0280   21.3550 C   0  0  0  0  0  0  0  0  0  0  0  0
  -22.0390   -8.9800   20.4160 C   0  0  0  0  0  3  0  0  0  0  0  0
  -22.7490  -10.1740   20.2250 C   0  0  0  0  0  3  0  0  0  0  0  0
  -21.7350   -6.8760   21.4540 O   0  0  0  0  0  0  0  0  0  0  0  0
  -21.6780   -6.1580   22.6200 C   0  0  0  0  0  0  0  0  0  0  0  0
  -21.2330   -6.7330   23.8300 C   0  0  0  0  0  3  0  0  0  0  0  0
  -21.1270   -5.9380   24.9890 C   0  0  0  0  0  3  0  0  0  0  0  0
  -21.4540   -4.5700   24.9390 C   0  0  0  0  0  0  0  0  0  0  0  0
  -21.8940   -3.9960   23.7320 C   0  0  0  0  0  3  0  0  0  0  0  0
  -22.0040   -4.7870   22.5760 C   0  0  0  0  0  0  0  0  0  0  0  0
  -22.4070   -4.2240   21.4120 F   0  0  0  0  0  0  0  0  0  0  0  0
  -21.3440   -3.8050   26.0500 F   0  0  0  0  0  0  0  0  0  0  0  0
  -22.7720  -13.5320   21.1970 C   0  0  0  0  0  0  0  0  0  0  0  0
  -22.0840  -12.8180   22.0820 N   0  0  0  0  0  0  0  0  0  0  0  0
  -22.3090  -14.5680   20.7210 O   0  0  0  0  0  0  0  0  0  0  0  0
  -22.4670  -11.9750   22.4840 H   0  0  0  0  0  0  0  0  0  0  0  0
  -21.1640  -13.1240   22.3660 H   0  0  0  0  0  0  0  0  0  0  0  0
  -25.3520  -15.2190   20.2700 N   0  0  0  0  0  0  0  0  0  0  0  0
  -24.5860  -15.8650   20.4280 H   0  0  0  0  0  0  0  0  0  0  0  0
  -26.1800  -15.6680   19.9010 H   0  0  0  0  0  0  0  0  0  0  0  0
  -28.3740  -23.3420   20.5140 C   0  0  0  0  0  2  0  0  0  0  0  0
  -29.4540  -24.0080   19.6310 C   0  0  0  0  0  2  0  0  0  0  0  0
  -28.8980  -25.0260   18.6090 C   0  0  0  0  0  2  0  0  0  0  0  0
  -29.0800  -26.5050   18.9960 C   0  0  0  0  0  2  0  0  0  0  0  0
  -28.4490  -26.8240   20.2290 O   0  0  0  0  0  0  0  0  0  0  0  0
  -24.5720  -31.9170   23.2250 C   0  0  0  0  0  0  0  0  0  0  0  0
  -27.2730  -27.5270   20.1670 C   0  0  0  0  0  0  0  0  0  0  0  0
  -23.3740  -30.5000   21.5830 C   0  0  0  0  0  3  0  0  0  0  0  0
  -24.8480  -28.9700   20.1590 C   0  0  0  0  0  0  0  0  0  0  0  0
  -25.8880  -30.8920   21.3810 C   0  0  0  0  0  2  0  0  0  0  0  0
  -25.9920  -29.5200   20.7550 C   0  0  0  0  0  0  0  0  0  0  0  0
  -27.2000  -28.7940   20.7760 C   0  0  0  0  0  3  0  0  0  0  0  0
  -26.1190  -26.9800   19.5650 C   0  0  0  0  0  3  0  0  0  0  0  0
  -24.9060  -27.6970   19.5640 C   0  0  0  0  0  3  0  0  0  0  0  0
  -23.5870  -29.8070   20.2070 C   0  0  0  0  0  2  0  0  0  0  0  0
  -24.6290  -31.1170   22.1220 N   0  0  0  0  0  0  0  0  0  0  0  0
  -23.4920  -32.1750   23.7710 O   0  0  0  0  0  0  0  0  0  0  0  0
  -22.7330  -29.4790   22.5490 C   0  0  0  0  0  0  0  0  0  0  0  0
  -21.4070  -29.2870   22.4230 N   0  0  0  0  0  0  0  0  0  0  0  0
  -23.4250  -28.8630   23.3640 O   0  0  0  0  0  0  0  0  0  0  0  0
  -20.9100  -29.8500   21.7480 H   0  0  0  0  0  0  0  0  0  0  0  0
  -18.0440  -28.0640   22.9040 C   0  0  0  0  0  0  0  0  0  0  0  0
  -20.5970  -28.3420   23.1910 C   0  0  0  0  0  3  0  0  0  0  0  0
  -20.7130  -26.9100   22.6180 C   0  0  0  0  0  2  0  0  0  0  0  0
  -19.6210  -26.5760   21.5970 C   0  0  0  0  0  2  0  0  0  0  0  0
  -18.2350  -26.7130   22.2350 C   0  0  0  0  0  2  0  0  0  0  0  0
  -19.1530  -28.8370   23.3370 C   0  0  0  0  0  0  0  0  0  0  0  0
  -18.9220  -30.1010   23.9220 C   0  0  0  0  0  3  0  0  0  0  0  0
  -17.6110  -30.5930   24.0740 C   0  0  0  0  0  3  0  0  0  0  0  0
  -16.5150  -29.8170   23.6600 C   0  0  0  0  0  3  0  0  0  0  0  0
  -16.7330  -28.5560   23.0790 C   0  0  0  0  0  3  0  0  0  0  0  0
  -25.8560  -32.5580   23.8390 C   0  0  0  0  0  3  0  0  0  0  0  0
  -25.5370  -33.9540   24.1660 N   0  0  0  0  0  0  0  0  0  0  0  0
  -25.8760  -35.0070   23.4110 C   0  0  0  0  0  0  0  0  0  0  0  0
  -26.5580  -34.9040   22.3870 O   0  0  0  0  0  0  0  0  0  0  0  0
  -24.9210  -34.0980   24.9510 H   0  0  0  0  0  0  0  0  0  0  0  0
  -24.1530  -36.7970   23.0280 C   0  0  0  0  0  1  0  0  0  0  0  0
  -25.3810  -36.3950   23.8600 C   0  0  0  0  0  3  0  0  0  0  0  0
  -27.5020  -37.2820   24.7190 C   0  0  0  0  0  1  0  0  0  0  0  0
  -26.4140  -37.4500   23.7620 N   0  0  0  0  0  0  0  0  0  0  0  0
  -26.0050  -38.3700   23.9050 H   0  0  0  0  0  0  0  0  0  0  0  0
  -26.3790  -31.7960   25.1190 C   0  0  1  0  0  0  0  0  0  0  0  0
  -25.2880  -31.5520   26.1870 C   0  0  0  0  0  1  0  0  0  0  0  0
  -26.9720  -30.4240   24.7290 C   0  0  0  0  0  1  0  0  0  0  0  0
  -27.5240  -32.6010   25.7740 C   0  0  0  0  0  1  0  0  0  0  0  0
  1  2  1  0
  3  1  1  0
  3  4  1  0
  4  6  1  0
  5  3  2  0
  7 20  1  0
  8 13  1  0
  9 10  1  0
  9  8  1  0
 11 10  1  0
 11 24  1  0
 11 12  1  0
 13  7  1  0
 13 12  1  0
 14  7  2  0
 15 19  1  0
 17 15  1  0
 17 20  1  0
 18 16  1  0
 19  4  1  0
 19 16  1  0
 20 18  1  0
 21 22  2  0
 22 41  1  0
 23 22  1  0
 23 26  1  0
 24 25  1  0
 24 21  1  0
 25 23  2  0
 26 27  1  0
 27 28  2  0
 29 32  1  0
 29 28  1  0
 30 29  2  0
 31 30  1  0
 31 26  2  0
 32 33  1  0
 33 34  1  0
 34 35  2  0
 36 35  1  0
 36 40  1  0
 37 36  2  0
 38 33  2  0
 38 37  1  0
 39 38  1  0
 41 42  1  0
 42 45  1  0
 42 44  1  0
 43 41  2  0
 46 47  1  0
 46 21  1  0
 48 46  1  0
 49  1  1  0
 50 49  1  0
 51 52  1  0
 51 50  1  0
 52 53  1  0
 54 65  2  0
 55 53  1  0
 55 60  1  0
 56 64  1  0
 56 66  1  0
 57 63  1  0
 57 59  1  0
 58 64  1  0
 59 60  2  0
 59 58  1  0
 61 55  2  0
 62 61  1  0
 62 57  2  0
 63 56  1  0
 64 54  1  0
 66 68  2  0
 67 66  1  0
 69 67  1  0
 70 79  2  0
 70 75  1  0
 71 67  1  0
 71 75  1  0
 72 71  1  0
 73 74  1  0
 73 72  1  0
 74 70  1  0
 75 76  2  0
 76 77  1  0
 78 77  2  0
 79 78  1  0
 80 54  1  0
 80 81  1  0
 80 90  1  0
 81 84  1  0
 82 86  1  0
 82 81  1  0
 83 82  2  0
 86 85  1  0
 88 86  1  0
 88 89  1  0
 88 87  1  0
 90 93  1  1
 90 91  1  0
 92 90  1  0
M  ISO  4   7 100  20 100  52 101  53 101
M  END
>  <TORSDO>  (21) 
F 21

>  <SCORE>  (21) 
-13.755

>  <name>  (21) 
20

>  <ligand_id>  (21) 
20

>  <original_smiles>  (21) 
[H]c1c([H])c([H])c2c(c1[H])C([H])([H])C([H])([H])C([H])([H])C2([H])N([H])C(=O)C1([H])N(C(=O)C([H])(N([H])C(=O)C([H])(N([H])C([H])([H])[H])C([H])([H])[H])C(C([H])([H])[H])(C([H])([H])[H])C([H])([H])[H])C([H])([H])c2c([H])c(OC([H])([H])C([H])([H])C([H])([H])C([H])([H])C([H])(F)C(=O)N([H])C3([H])C([H])([H])C([H])([H])N(C(=O)N4C([H])([H])C([H])([H])C([H])([H])C([H])(n5nc(-c6c([H])c([H])c(Oc7c([H])c([H])c(F)c([H])c7F)c([H])c6[H])c(C(=O)N([H])[H])c5N([H])[H])C4([H])[H])C([H])([H])C3([H])[H])c([H])c([H])c2C1([H])[H]

>  <smiles>  (21) 
[H]c1c([H])c([H])c2c(c1[H])C([H])([H])C([H])([H])C([H])([H])C2([H])N([H])C(=O)C1([H])N(C(=O)C([H])(N([H])C(=O)C([H])(N([H])C([H])([H])[H])C([H])([H])[H])C(C([H])([H])[H])(C([H])([H])[H])C([H])([H])[H])C([H])([H])c2c([H])c(OC([H])([H])C([H])([H])C([H])([H])C([H])([H])C([H])(F)C(=O)N([H])C3([H])C([H])([H])C([H])([H])N(C(=O)N4C([H])([H])C([H])([H])C([H])([H])C([H])(n5nc(-c6c([H])c([H])c(Oc7c([H])c([H])c(F)c([H])c7F)c([H])c6[H])c(C(=O)N([H])[H])c5N([H])[H])C4([H])[H])C([H])([H])C3([H])[H])c([H])c([H])c2C1([H])[H]

$$$$
21:0:0
     RDKit          3D

 94102  0  0  1  0  0  0  0  0999 V2000
  -30.8740  -19.3840   18.7770 C   0  0  0  0  0  0  0  0  0  0  0  0
  -31.8770  -18.2450   18.8660 C   0  0  0  0  0  2  0  0  0  0  0  0
  -29.8520  -19.3140   19.9170 C   0  0  0  0  0  3  0  0  0  0  0  0
  -30.3230  -18.0230   20.6850 C   0  0  0  0  0  3  0  0  0  0  0  0
  -31.7100  -17.7670   20.2510 N   0  0  0  0  0  4  0  0  0  0  0  0
  -30.9330  -20.2650   17.9140 O   0  0  0  0  0  0  0  0  0  0  0  0
  -32.3330  -18.2860   20.8480 H   0  0  0  0  0  0  0  0  0  0  0  0
  -31.9310  -16.7800   20.3180 H   0  0  0  0  0  0  0  0  0  0  0  0
  -29.7920  -20.5870   20.7200 N   0  0  0  0  0  0  0  0  0  0  0  0
  -30.7250  -20.9690   20.8510 H   0  0  0  0  0  0  0  0  0  0  0  0
  -28.9140  -21.6230   20.1340 C   0  0  0  0  0  2  0  0  0  0  0  0
  -29.1640  -23.0580   20.7030 C   0  0  0  0  0  2  0  0  0  0  0  0
  -28.0950  -24.1440   20.3220 C   0  0  0  0  0  2  0  0  0  0  0  0
  -28.5890  -25.4150   19.5530 C   0  0  0  0  0  2  0  0  0  0  0  0
  -28.4350  -26.6870   20.2260 O   0  0  0  0  0  0  0  0  0  0  0  0
  -24.5900  -31.8870   23.2320 C   0  0  0  0  0  0  0  0  0  0  0  0
  -27.2460  -27.4040   20.1800 C   0  0  0  0  0  0  0  0  0  0  0  0
  -23.3910  -30.4810   21.5890 C   0  0  0  0  0  3  0  0  0  0  0  0
  -24.8490  -28.9340   20.1730 C   0  0  0  0  0  0  0  0  0  0  0  0
  -25.9200  -30.8280   21.4050 C   0  0  0  0  0  2  0  0  0  0  0  0
  -26.0050  -29.4520   20.7680 C   0  0  0  0  0  0  0  0  0  0  0  0
  -27.2000  -28.6930   20.7690 C   0  0  0  0  0  3  0  0  0  0  0  0
  -26.0650  -26.9020   19.5850 C   0  0  0  0  0  3  0  0  0  0  0  0
  -24.8760  -27.6590   19.5800 C   0  0  0  0  0  3  0  0  0  0  0  0
  -23.6050  -29.7960   20.2130 C   0  0  0  0  0  2  0  0  0  0  0  0
  -24.6520  -31.0830   22.1330 N   0  0  0  0  0  0  0  0  0  0  0  0
  -23.5060  -32.1620   23.7670 O   0  0  0  0  0  0  0  0  0  0  0  0
  -22.7340  -29.4650   22.5510 C   0  0  0  0  0  0  0  0  0  0  0  0
  -21.4090  -29.2840   22.4180 N   0  0  0  0  0  0  0  0  0  0  0  0
  -23.4120  -28.8430   23.3720 O   0  0  0  0  0  0  0  0  0  0  0  0
  -20.9230  -29.8370   21.7270 H   0  0  0  0  0  0  0  0  0  0  0  0
  -18.0320  -28.0890   22.9000 C   0  0  0  0  0  0  0  0  0  0  0  0
  -20.5890  -28.3480   23.1870 C   0  0  0  0  0  3  0  0  0  0  0  0
  -20.6940  -26.9150   22.6170 C   0  0  0  0  0  2  0  0  0  0  0  0
  -19.5990  -26.5900   21.5960 C   0  0  0  0  0  2  0  0  0  0  0  0
  -18.2130  -26.7370   22.2300 C   0  0  0  0  0  2  0  0  0  0  0  0
  -19.1480  -28.8520   23.3350 C   0  0  0  0  0  0  0  0  0  0  0  0
  -18.9260  -30.1170   23.9200 C   0  0  0  0  0  3  0  0  0  0  0  0
  -17.6200  -30.6200   24.0750 C   0  0  0  0  0  3  0  0  0  0  0  0
  -16.5180  -29.8530   23.6580 C   0  0  0  0  0  3  0  0  0  0  0  0
  -16.7250  -28.5900   23.0760 C   0  0  0  0  0  3  0  0  0  0  0  0
  -25.8730  -32.5200   23.8570 C   0  0  0  0  0  3  0  0  0  0  0  0
  -25.5630  -33.9180   24.1840 N   0  0  0  0  0  0  0  0  0  0  0  0
  -25.9010  -34.9710   23.4280 C   0  0  0  0  0  0  0  0  0  0  0  0
  -26.5770  -34.8670   22.4000 O   0  0  0  0  0  0  0  0  0  0  0  0
  -24.9650  -34.0730   24.9820 H   0  0  0  0  0  0  0  0  0  0  0  0
  -24.1760  -36.7630   23.0610 C   0  0  0  0  0  1  0  0  0  0  0  0
  -25.4110  -36.3590   23.8820 C   0  0  0  0  0  3  0  0  0  0  0  0
  -27.5410  -37.2410   24.7250 C   0  0  0  0  0  1  0  0  0  0  0  0
  -26.4440  -37.4120   23.7770 N   0  0  0  0  0  0  0  0  0  0  0  0
  -26.0380  -38.3320   23.9240 H   0  0  0  0  0  0  0  0  0  0  0  0
  -26.3880  -31.7490   25.1350 C   0  0  1  0  0  0  0  0  0  0  0  0
  -25.2940  -31.5150   26.2020 C   0  0  0  0  0  1  0  0  0  0  0  0
  -26.9710  -30.3710   24.7440 C   0  0  0  0  0  1  0  0  0  0  0  0
  -27.5370  -32.5440   25.7970 C   0  0  0  0  0  1  0  0  0  0  0  0
  -29.4550  -16.7710   20.3480 C   0  0  0  0  0  2  0  0  0  0  0  0
  -30.5930  -14.5180   20.4960 C   0  0  0  0  0  0  0  0  0  0  0  0
  -30.3780  -12.3490   19.3440 C   0  0  0  0  0  2  0  0  0  0  0  0
  -29.4240  -12.5570   18.1440 C   0  0  0  0  0  2  0  0  0  0  0  0
  -27.9480  -12.4090   18.5720 C   0  0  0  0  0  2  0  0  0  0  0  0
  -27.6120  -13.2280   19.8470 C   0  0  0  0  0  3  0  0  0  0  0  0
  -28.6660  -12.9660   20.9490 C   0  0  0  0  0  2  0  0  0  0  0  0
  -29.9940  -13.2980   20.4000 N   0  0  0  0  0  0  0  0  0  0  0  0
  -31.6790  -14.8000   19.9830 O   0  0  0  0  0  0  0  0  0  0  0  0
  -29.8000  -15.4850   21.0020 N   0  0  0  0  0  0  0  0  0  0  0  0
  -29.0450  -15.1080   21.5570 H   0  0  0  0  0  0  0  0  0  0  0  0
  -25.2110  -13.8500   20.5430 C   0  0  0  0  0  0  0  0  0  0  0  0
  -24.1390  -13.0830   20.9130 C   0  0  0  0  0  0  0  0  0  0  0  0
  -24.5950  -11.7290   20.8830 C   0  0  0  0  0  0  0  0  0  0  0  0
  -26.2530  -12.9630   20.3170 N   0  0  0  0  0  0  0  0  0  0  0  0
  -25.8850  -11.6840   20.5770 N   0  0  0  0  0  0  0  0  0  0  0  0
  -23.8650  -10.4710   21.0740 C   0  0  0  0  0  0  0  0  0  0  0  0
  -24.3030   -9.4960   21.9970 C   0  0  0  0  0  3  0  0  0  0  0  0
  -23.5750   -8.2990   22.1740 C   0  0  0  0  0  3  0  0  0  0  0  0
  -22.3950   -8.0700   21.4290 C   0  0  0  0  0  0  0  0  0  0  0  0
  -21.9760   -9.0330   20.4940 C   0  0  0  0  0  3  0  0  0  0  0  0
  -22.7040  -10.2210   20.3140 C   0  0  0  0  0  3  0  0  0  0  0  0
  -21.6360   -6.9270   21.5180 O   0  0  0  0  0  0  0  0  0  0  0  0
  -21.6050   -6.1730   22.6620 C   0  0  0  0  0  0  0  0  0  0  0  0
  -21.2100   -6.7170   23.9050 C   0  0  0  0  0  3  0  0  0  0  0  0
  -21.1250   -5.8870   25.0410 C   0  0  0  0  0  3  0  0  0  0  0  0
  -21.4230   -4.5150   24.9370 C   0  0  0  0  0  0  0  0  0  0  0  0
  -21.8100   -3.9710   23.7000 C   0  0  0  0  0  3  0  0  0  0  0  0
  -21.8970   -4.7980   22.5650 C   0  0  0  0  0  0  0  0  0  0  0  0
  -22.2490   -4.2630   21.3710 F   0  0  0  0  0  0  0  0  0  0  0  0
  -21.3340   -3.7170   26.0250 F   0  0  0  0  0  0  0  0  0  0  0  0
  -22.7430  -13.5650   21.1860 C   0  0  0  0  0  0  0  0  0  0  0  0
  -22.0110  -12.8720   22.0510 N   0  0  0  0  0  0  0  0  0  0  0  0
  -22.3090  -14.5930   20.6660 O   0  0  0  0  0  0  0  0  0  0  0  0
  -22.3730  -12.0410   22.4960 H   0  0  0  0  0  0  0  0  0  0  0  0
  -21.0740  -13.1760   22.2740 H   0  0  0  0  0  0  0  0  0  0  0  0
  -25.3810  -15.2190   20.3620 N   0  0  0  0  0  0  0  0  0  0  0  0
  -24.6130  -15.8730   20.4630 H   0  0  0  0  0  0  0  0  0  0  0  0
  -26.2270  -15.6530   20.0160 H   0  0  0  0  0  0  0  0  0  0  0  0
  1  2  1  0
  1  3  1  0
  2  5  1  0
  3  4  1  0
  3  9  1  0
  4 56  1  0
  5  8  1  0
  5  4  1  0
  5  7  1  0
  6  1  2  0
  9 10  1  0
 11 12  1  0
 11  9  1  0
 13 12  1  0
 14 15  1  0
 14 13  1  0
 16 27  2  0
 17 15  1  0
 17 22  1  0
 18 26  1  0
 18 28  1  0
 19 25  1  0
 19 21  1  0
 20 26  1  0
 21 22  2  0
 21 20  1  0
 23 17  2  0
 24 23  1  0
 24 19  2  0
 25 18  1  0
 26 16  1  0
 28 30  2  0
 29 28  1  0
 31 29  1  0
 32 41  2  0
 32 37  1  0
 33 29  1  0
 33 37  1  0
 34 33  1  0
 35 36  1  0
 35 34  1  0
 36 32  1  0
 37 38  2  0
 38 39  1  0
 40 39  2  0
 41 40  1  0
 42 16  1  0
 42 43  1  0
 42 52  1  0
 43 46  1  0
 44 48  1  0
 44 43  1  0
 45 44  2  0
 48 47  1  0
 50 48  1  0
 50 51  1  0
 50 49  1  0
 52 55  1  1
 52 53  1  0
 54 52  1  0
 56 65  1  0
 57 65  1  0
 58 63  1  0
 59 60  1  0
 59 58  1  0
 61 60  1  0
 61 70  1  0
 61 62  1  0
 63 57  1  0
 63 62  1  0
 64 57  2  0
 65 66  1  0
 67 68  2  0
 68 87  1  0
 69 68  1  0
 69 72  1  0
 70 67  1  0
 70 71  1  0
 71 69  2  0
 72 73  1  0
 73 74  2  0
 75 78  1  0
 75 74  1  0
 76 75  2  0
 77 76  1  0
 77 72  2  0
 78 79  1  0
 79 80  1  0
 80 81  2  0
 82 81  1  0
 82 86  1  0
 83 82  2  0
 84 79  2  0
 84 83  1  0
 85 84  1  0
 87 88  1  0
 88 91  1  0
 88 90  1  0
 89 87  2  0
 92 93  1  0
 92 67  1  0
 94 92  1  0
M  ISO  4  14 101  15 101  57 100  65 100
M  END
>  <TORSDO>  (22) 
F 22

>  <SCORE>  (22) 
-13.226

>  <name>  (22) 
21

>  <ligand_id>  (22) 
21

>  <original_smiles>  (22) 
[H]c1c([H])c([H])c2c(c1[H])C([H])([H])C([H])([H])C([H])([H])C2([H])N([H])C(=O)C1([H])N(C(=O)C([H])(N([H])C(=O)C([H])(N([H])C([H])([H])[H])C([H])([H])[H])C(C([H])([H])[H])(C([H])([H])[H])C([H])([H])[H])C([H])([H])c2c([H])c(OC([H])([H])C([H])([H])C([H])([H])C([H])([H])N([H])C3([H])C(=O)C([H])([H])[N+]([H])([H])C3([H])C([H])([H])N([H])C(=O)N3C([H])([H])C([H])([H])C([H])([H])C([H])(n4nc(-c5c([H])c([H])c(Oc6c([H])c([H])c(F)c([H])c6F)c([H])c5[H])c(C(=O)N([H])[H])c4N([H])[H])C3([H])[H])c([H])c([H])c2C1([H])[H]

>  <smiles>  (22) 
[H]c1c([H])c([H])c2c(c1[H])C([H])([H])C([H])([H])C([H])([H])C2([H])N([H])C(=O)C1([H])N(C(=O)C([H])(N([H])C(=O)C([H])(N([H])C([H])([H])[H])C([H])([H])[H])C(C([H])([H])[H])(C([H])([H])[H])C([H])([H])[H])C([H])([H])c2c([H])c(OC([H])([H])C([H])([H])C([H])([H])C([H])([H])N([H])C3([H])C(=O)C([H])([H])[N+]([H])([H])C3([H])C([H])([H])N([H])C(=O)N3C([H])([H])C([H])([H])C([H])([H])C([H])(n4nc(-c5c([H])c([H])c(Oc6c([H])c([H])c(F)c([H])c6F)c([H])c5[H])c(C(=O)N([H])[H])c4N([H])[H])C3([H])[H])c([H])c([H])c2C1([H])[H]

$$$$
22:0:0
     RDKit          3D

 90 98  0  0  1  0  0  0  0  0999 V2000
  -29.4520  -20.0660   20.1520 C   0  0  0  0  0  0  0  0  0  0  0  0
  -28.7860  -21.2400   20.3890 N   0  0  0  0  0  0  0  0  0  0  0  0
  -30.4540  -20.0430   19.4350 O   0  0  0  0  0  0  0  0  0  0  0  0
  -27.9710  -21.1770   20.9880 H   0  0  0  0  0  0  0  0  0  0  0  0
  -30.6920  -14.6050   20.1210 C   0  0  0  0  0  0  0  0  0  0  0  0
  -30.3460  -12.4080   19.0270 C   0  0  0  0  0  2  0  0  0  0  0  0
  -29.3640  -12.5890   17.8550 C   0  0  0  0  0  2  0  0  0  0  0  0
  -27.9080  -12.4440   18.3380 C   0  0  0  0  0  2  0  0  0  0  0  0
  -27.6140  -13.2620   19.6260 C   0  0  0  0  0  3  0  0  0  0  0  0
  -28.7260  -13.1030   20.6870 C   0  0  0  0  0  2  0  0  0  0  0  0
  -30.0020  -13.4250   20.0390 N   0  0  0  0  0  0  0  0  0  0  0  0
  -31.8650  -14.6720   19.7390 O   0  0  0  0  0  0  0  0  0  0  0  0
  -28.4330  -17.6480   19.7050 C   0  0  0  0  0  2  0  0  0  0  0  0
  -29.8320  -17.9680   21.7790 C   0  0  0  0  0  2  0  0  0  0  0  0
  -29.4560  -16.5400   19.2940 C   0  0  0  0  0  2  0  0  0  0  0  0
  -30.7150  -16.7790   21.2630 C   0  0  0  0  0  2  0  0  0  0  0  0
  -28.9190  -18.7030   20.7470 C   0  0  0  0  0  3  0  0  0  0  0  0
  -30.0100  -15.7670   20.4310 N   0  0  0  0  0  0  0  0  0  0  0  0
  -25.2550  -13.8410   20.4460 C   0  0  0  0  0  0  0  0  0  0  0  0
  -24.2070  -13.0630   20.8500 C   0  0  0  0  0  0  0  0  0  0  0  0
  -24.6710  -11.7120   20.7910 C   0  0  0  0  0  0  0  0  0  0  0  0
  -26.2930  -12.9670   20.1670 N   0  0  0  0  0  0  0  0  0  0  0  0
  -25.9500  -11.6800   20.4340 N   0  0  0  0  0  0  0  0  0  0  0  0
  -23.9560  -10.4470   20.9980 C   0  0  0  0  0  0  0  0  0  0  0  0
  -24.4090   -9.4860   21.9290 C   0  0  0  0  0  3  0  0  0  0  0  0
  -23.6920   -8.2850   22.1240 C   0  0  0  0  0  3  0  0  0  0  0  0
  -22.5080   -8.0390   21.3890 C   0  0  0  0  0  0  0  0  0  0  0  0
  -22.0740   -8.9880   20.4470 C   0  0  0  0  0  3  0  0  0  0  0  0
  -22.7920  -10.1800   20.2500 C   0  0  0  0  0  3  0  0  0  0  0  0
  -21.7610   -6.8900   21.4940 O   0  0  0  0  0  0  0  0  0  0  0  0
  -21.7150   -6.1660   22.6580 C   0  0  0  0  0  0  0  0  0  0  0  0
  -21.2710   -6.7340   23.8720 C   0  0  0  0  0  3  0  0  0  0  0  0
  -21.1730   -5.9350   25.0290 C   0  0  0  0  0  3  0  0  0  0  0  0
  -21.5090   -4.5690   24.9730 C   0  0  0  0  0  0  0  0  0  0  0  0
  -21.9450   -4.0010   23.7630 C   0  0  0  0  0  3  0  0  0  0  0  0
  -22.0440   -4.7970   22.6080 C   0  0  0  0  0  0  0  0  0  0  0  0
  -22.4450   -4.2390   21.4410 F   0  0  0  0  0  0  0  0  0  0  0  0
  -21.4070   -3.8000   26.0820 F   0  0  0  0  0  0  0  0  0  0  0  0
  -22.8220  -13.5350   21.1830 C   0  0  0  0  0  0  0  0  0  0  0  0
  -22.1280  -12.8290   22.0690 N   0  0  0  0  0  0  0  0  0  0  0  0
  -22.3630  -14.5660   20.6900 O   0  0  0  0  0  0  0  0  0  0  0  0
  -22.5130  -11.9950   22.4860 H   0  0  0  0  0  0  0  0  0  0  0  0
  -21.2010  -13.1290   22.3360 H   0  0  0  0  0  0  0  0  0  0  0  0
  -25.4060  -15.2120   20.2690 N   0  0  0  0  0  0  0  0  0  0  0  0
  -24.6400  -15.8640   20.3990 H   0  0  0  0  0  0  0  0  0  0  0  0
  -26.2450  -15.6480   19.9090 H   0  0  0  0  0  0  0  0  0  0  0  0
  -29.0160  -22.5720   19.7270 C   0  0  0  0  0  2  0  0  0  0  0  0
  -28.4400  -23.8810   20.4290 C   0  0  0  0  0  3  0  0  0  0  0  0
  -28.5490  -25.2330   19.5940 C   0  0  0  0  0  3  0  0  0  0  0  0
  -28.3870  -26.5400   20.2560 O   0  0  0  0  0  0  0  0  0  0  0  0
  -24.6070  -31.8910   23.1940 C   0  0  0  0  0  0  0  0  0  0  0  0
  -27.2270  -27.3190   20.1810 C   0  0  0  0  0  0  0  0  0  0  0  0
  -23.4030  -30.4820   21.5600 C   0  0  0  0  0  3  0  0  0  0  0  0
  -24.8530  -28.9120   20.1540 C   0  0  0  0  0  0  0  0  0  0  0  0
  -25.9400  -30.7970   21.3820 C   0  0  0  0  0  2  0  0  0  0  0  0
  -26.0170  -29.4140   20.7480 C   0  0  0  0  0  0  0  0  0  0  0  0
  -27.2000  -28.6260   20.7560 C   0  0  0  0  0  3  0  0  0  0  0  0
  -26.0350  -26.8530   19.5800 C   0  0  0  0  0  3  0  0  0  0  0  0
  -24.8620  -27.6360   19.5650 C   0  0  0  0  0  3  0  0  0  0  0  0
  -23.6170  -29.7880   20.1890 C   0  0  0  0  0  2  0  0  0  0  0  0
  -24.6690  -31.0740   22.1030 N   0  0  0  0  0  0  0  0  0  0  0  0
  -23.5240  -32.1800   23.7210 O   0  0  0  0  0  0  0  0  0  0  0  0
  -22.7330  -29.4790   22.5280 C   0  0  0  0  0  0  0  0  0  0  0  0
  -21.4040  -29.3200   22.4070 N   0  0  0  0  0  0  0  0  0  0  0  0
  -23.4070  -28.8440   23.3430 O   0  0  0  0  0  0  0  0  0  0  0  0
  -20.9220  -29.8790   21.7180 H   0  0  0  0  0  0  0  0  0  0  0  0
  -18.0110  -28.1940   22.9370 C   0  0  0  0  0  0  0  0  0  0  0  0
  -20.5760  -28.3970   23.1830 C   0  0  0  0  0  3  0  0  0  0  0  0
  -20.6430  -26.9670   22.5990 C   0  0  0  0  0  2  0  0  0  0  0  0
  -19.5240  -26.6710   21.5970 C   0  0  0  0  0  2  0  0  0  0  0  0
  -18.1520  -26.8440   22.2540 C   0  0  0  0  0  2  0  0  0  0  0  0
  -19.1500  -28.9300   23.3590 C   0  0  0  0  0  0  0  0  0  0  0  0
  -18.9640  -30.1960   23.9560 C   0  0  0  0  0  3  0  0  0  0  0  0
  -17.6720  -30.7240   24.1370 C   0  0  0  0  0  3  0  0  0  0  0  0
  -16.5480  -29.9840   23.7320 C   0  0  0  0  0  3  0  0  0  0  0  0
  -16.7180  -28.7210   23.1380 C   0  0  0  0  0  3  0  0  0  0  0  0
  -25.8930  -32.5220   23.8160 C   0  0  0  0  0  3  0  0  0  0  0  0
  -26.4090  -31.7450   25.0880 C   0  0  1  0  0  0  0  0  0  0  0  0
  -25.3160  -31.5040   26.1550 C   0  0  0  0  0  1  0  0  0  0  0  0
  -26.9920  -30.3690   24.6910 C   0  0  0  0  0  1  0  0  0  0  0  0
  -27.5600  -32.5380   25.7550 C   0  0  0  0  0  1  0  0  0  0  0  0
  -25.5830  -33.9180   24.1550 N   0  0  0  0  0  0  0  0  0  0  0  0
  -25.9150  -34.9760   23.4030 C   0  0  0  0  0  0  0  0  0  0  0  0
  -26.5850  -34.8800   22.3710 O   0  0  0  0  0  0  0  0  0  0  0  0
  -24.9880  -34.0680   24.9570 H   0  0  0  0  0  0  0  0  0  0  0  0
  -24.1900  -36.7720   23.0540 C   0  0  0  0  0  1  0  0  0  0  0  0
  -25.4260  -36.3610   23.8700 C   0  0  0  0  0  3  0  0  0  0  0  0
  -27.5600  -37.2330   24.7160 C   0  0  0  0  0  1  0  0  0  0  0  0
  -26.4580  -37.4160   23.7750 N   0  0  0  0  0  0  0  0  0  0  0  0
  -26.0500  -38.3320   23.9420 H   0  0  0  0  0  0  0  0  0  0  0  0
  1  2  1  0
  2  4  1  0
  3  1  2  0
  5 18  1  0
  6 11  1  0
  7  8  1  0
  7  6  1  0
  9  8  1  0
  9 22  1  0
  9 10  1  0
 11  5  1  0
 11 10  1  0
 12  5  2  0
 13 17  1  0
 15 13  1  0
 15 18  1  0
 16 14  1  0
 17  1  1  0
 17 14  1  0
 18 16  1  0
 19 20  2  0
 20 39  1  0
 21 20  1  0
 21 24  1  0
 22 23  1  0
 22 19  1  0
 23 21  2  0
 24 25  1  0
 25 26  2  0
 27 30  1  0
 27 26  1  0
 28 27  2  0
 29 28  1  0
 29 24  2  0
 30 31  1  0
 31 32  1  0
 32 33  2  0
 34 33  1  0
 34 38  1  0
 35 34  2  0
 36 31  2  0
 36 35  1  0
 37 36  1  0
 39 40  1  0
 40 43  1  0
 40 42  1  0
 41 39  2  0
 44 45  1  0
 44 19  1  0
 46 44  1  0
 47  2  1  0
 47 48  1  0
 49 50  1  0
 49 48  2  0
 51 62  2  0
 52 50  1  0
 52 57  1  0
 53 61  1  0
 53 63  1  0
 54 60  1  0
 54 56  1  0
 55 61  1  0
 56 57  2  0
 56 55  1  0
 58 52  2  0
 59 58  1  0
 59 54  2  0
 60 53  1  0
 61 51  1  0
 63 65  2  0
 64 63  1  0
 66 64  1  0
 67 76  2  0
 67 72  1  0
 68 64  1  0
 68 72  1  0
 69 68  1  0
 70 71  1  0
 70 69  1  0
 71 67  1  0
 72 73  2  0
 73 74  1  0
 75 74  2  0
 76 75  1  0
 77 51  1  0
 77 82  1  0
 77 78  1  0
 78 81  1  1
 78 79  1  0
 80 78  1  0
 82 85  1  0
 83 87  1  0
 83 82  1  0
 84 83  2  0
 87 86  1  0
 89 87  1  0
 89 90  1  0
 89 88  1  0
M  ISO  4   5 100  18 100  49 101  50 101
M  END
>  <TORSDO>  (23) 
F 19

>  <SCORE>  (23) 
-13.905

>  <name>  (23) 
22

>  <ligand_id>  (23) 
22

>  <original_smiles>  (23) 
[H]c1c([H])c([H])c2c(c1[H])C([H])([H])C([H])([H])C([H])([H])C2([H])N([H])C(=O)C1([H])N(C(=O)C([H])(N([H])C(=O)C([H])(N([H])C([H])([H])[H])C([H])([H])[H])C(C([H])([H])[H])(C([H])([H])[H])C([H])([H])[H])C([H])([H])c2c([H])c(OC([H])([H])C([H])([H])C([H])([H])N([H])C(=O)C3([H])C([H])([H])C([H])([H])N(C(=O)N4C([H])([H])C([H])([H])C([H])([H])C([H])(n5nc(-c6c([H])c([H])c(Oc7c([H])c([H])c(F)c([H])c7F)c([H])c6[H])c(C(=O)N([H])[H])c5N([H])[H])C4([H])[H])C([H])([H])C3([H])[H])c([H])c([H])c2C1([H])[H]

>  <smiles>  (23) 
[H]c1c([H])c([H])c2c(c1[H])C([H])([H])C([H])([H])C([H])([H])C2([H])N([H])C(=O)C1([H])N(C(=O)C([H])(N([H])C(=O)C([H])(N([H])C([H])([H])[H])C([H])([H])[H])C(C([H])([H])[H])(C([H])([H])[H])C([H])([H])[H])C([H])([H])c2c([H])c(OC([H])([H])C([H])([H])C([H])([H])N([H])C(=O)C3([H])C([H])([H])C([H])([H])N(C(=O)N4C([H])([H])C([H])([H])C([H])([H])C([H])(n5nc(-c6c([H])c([H])c(Oc7c([H])c([H])c(F)c([H])c7F)c([H])c6[H])c(C(=O)N([H])[H])c5N([H])[H])C4([H])[H])C([H])([H])C3([H])[H])c([H])c([H])c2C1([H])[H]

$$$$
23:0:0
     RDKit          3D

 97105  0  0  1  0  0  0  0  0999 V2000
  -30.9600  -17.9510   19.8760 C   0  0  0  0  0  2  0  0  0  0  0  0
  -31.0410  -17.9410   22.9070 C   0  0  0  0  0  2  0  0  0  0  0  0
  -30.7860  -19.4330   20.2220 C   0  0  0  0  0  2  0  0  0  0  0  0
  -30.4050  -19.3400   22.7100 C   0  0  0  0  0  2  0  0  0  0  0  0
  -32.0420  -17.1510   20.6490 C   0  0  0  0  0  3  0  0  0  0  0  0
  -32.3270  -17.6130   22.1080 C   0  0  0  0  0  3  0  0  0  0  0  0
  -29.8470  -19.6490   21.3620 N   0  0  1  0  0  4  0  0  0  0  0  0
  -29.0530  -19.0380   21.2240 H   0  0  0  0  0  0  0  0  0  0  0  0
  -32.1390  -14.7150   20.0690 C   0  0  0  0  0  0  0  0  0  0  0  0
  -31.8370  -12.3350   19.4960 C   0  0  0  0  0  2  0  0  0  0  0  0
  -30.8910  -12.1800   18.2900 C   0  0  0  0  0  2  0  0  0  0  0  0
  -29.4180  -12.1730   18.7370 C   0  0  0  0  0  2  0  0  0  0  0  0
  -29.0740  -13.3390   19.7010 C   0  0  0  0  0  3  0  0  0  0  0  0
  -30.1190  -13.4180   20.8360 C   0  0  0  0  0  2  0  0  0  0  0  0
  -31.4550  -13.5540   20.2230 N   0  0  0  0  0  0  0  0  0  0  0  0
  -33.1750  -14.8230   19.4090 O   0  0  0  0  0  0  0  0  0  0  0  0
  -31.5790  -15.7640   20.6810 N   0  0  0  0  0  0  0  0  0  0  0  0
  -30.7100  -15.5720   21.1560 H   0  0  0  0  0  0  0  0  0  0  0  0
  -26.8220  -14.1960   20.6240 C   0  0  0  0  0  0  0  0  0  0  0  0
  -25.6700  -13.5460   20.9690 C   0  0  0  0  0  0  0  0  0  0  0  0
  -25.9200  -12.1560   20.7490 C   0  0  0  0  0  0  0  0  0  0  0  0
  -27.7150  -13.2110   20.2260 N   0  0  0  0  0  0  0  0  0  0  0  0
  -27.1740  -11.9720   20.3570 N   0  0  0  0  0  0  0  0  0  0  0  0
  -25.0210  -10.9970   20.8370 C   0  0  0  0  0  0  0  0  0  0  0  0
  -25.3960   -9.8200   21.5220 C   0  0  0  0  0  3  0  0  0  0  0  0
  -24.5070   -8.7270   21.6050 C   0  0  0  0  0  3  0  0  0  0  0  0
  -23.2270   -8.8030   21.0050 C   0  0  0  0  0  0  0  0  0  0  0  0
  -22.8680   -9.9690   20.3040 C   0  0  0  0  0  3  0  0  0  0  0  0
  -23.7570  -11.0540   20.2170 C   0  0  0  0  0  3  0  0  0  0  0  0
  -22.3110   -7.7800   21.0130 O   0  0  0  0  0  0  0  0  0  0  0  0
  -22.3560   -6.7780   21.9480 C   0  0  0  0  0  0  0  0  0  0  0  0
  -22.2760   -7.0470   23.3330 C   0  0  0  0  0  3  0  0  0  0  0  0
  -22.2550   -5.9820   24.2560 C   0  0  0  0  0  3  0  0  0  0  0  0
  -22.3100   -4.6530   23.7990 C   0  0  0  0  0  0  0  0  0  0  0  0
  -22.3890   -4.3830   22.4220 C   0  0  0  0  0  3  0  0  0  0  0  0
  -22.4090   -5.4430   21.4970 C   0  0  0  0  0  0  0  0  0  0  0  0
  -22.4620   -5.1780   20.1700 F   0  0  0  0  0  0  0  0  0  0  0  0
  -22.2860   -3.6270   24.6840 F   0  0  0  0  0  0  0  0  0  0  0  0
  -24.3710  -14.1800   21.3820 C   0  0  0  0  0  0  0  0  0  0  0  0
  -23.6020  -13.5100   22.2320 N   0  0  0  0  0  0  0  0  0  0  0  0
  -24.0570  -15.3040   20.9900 O   0  0  0  0  0  0  0  0  0  0  0  0
  -23.8660  -12.5990   22.5740 H   0  0  0  0  0  0  0  0  0  0  0  0
  -22.7350  -13.9210   22.5490 H   0  0  0  0  0  0  0  0  0  0  0  0
  -27.1820  -15.5410   20.5940 N   0  0  0  0  0  0  0  0  0  0  0  0
  -26.5010  -16.2690   20.7790 H   0  0  0  0  0  0  0  0  0  0  0  0
  -28.0400  -15.8890   20.1870 H   0  0  0  0  0  0  0  0  0  0  0  0
  -33.3620  -18.6700   22.1910 N   0  0  0  0  0  4  0  0  0  0  0  0
  -34.2070  -18.3370   21.7570 H   0  0  0  0  0  0  0  0  0  0  0  0
  -33.6010  -18.8560   23.1510 H   0  0  0  0  0  0  0  0  0  0  0  0
  -33.1230  -19.5370   21.7500 H   0  0  0  0  0  0  0  0  0  0  0  0
  -29.2920  -21.0260   21.3370 C   0  0  0  0  0  2  0  0  0  0  0  0
  -28.3850  -21.2850   20.1170 C   0  0  0  0  0  2  0  0  0  0  0  0
  -27.8420  -22.7180   20.0830 C   0  0  0  0  0  2  0  0  0  0  0  0
  -28.9260  -23.7500   19.7190 C   0  0  0  0  0  2  0  0  0  0  0  0
  -28.4740  -25.1950   19.9660 C   0  0  0  0  0  2  0  0  0  0  0  0
  -28.8400  -26.1240   18.7990 C   0  0  0  0  0  2  0  0  0  0  0  0
  -28.6600  -27.4850   19.1680 O   0  0  0  0  0  0  0  0  0  0  0  0
  -24.4360  -31.5980   23.0950 C   0  0  0  0  0  0  0  0  0  0  0  0
  -27.3830  -27.9820   19.3160 C   0  0  0  0  0  0  0  0  0  0  0  0
  -23.2980  -30.2900   21.3320 C   0  0  0  0  0  3  0  0  0  0  0  0
  -24.8260  -29.1380   19.6520 C   0  0  0  0  0  0  0  0  0  0  0  0
  -25.7460  -30.9830   21.0690 C   0  0  0  0  0  2  0  0  0  0  0  0
  -25.9470  -29.7280   20.2490 C   0  0  0  0  0  0  0  0  0  0  0  0
  -27.2240  -29.1560   20.0790 C   0  0  0  0  0  3  0  0  0  0  0  0
  -26.2390  -27.3870   18.7300 C   0  0  0  0  0  3  0  0  0  0  0  0
  -24.9650  -27.9610   18.8960 C   0  0  0  0  0  3  0  0  0  0  0  0
  -23.4970  -29.8250   19.8650 C   0  0  0  0  0  2  0  0  0  0  0  0
  -24.5140  -30.9650   21.8920 N   0  0  0  0  0  0  0  0  0  0  0  0
  -23.3660  -31.6630   23.7170 O   0  0  0  0  0  0  0  0  0  0  0  0
  -22.8290  -29.0800   22.1680 C   0  0  0  0  0  0  0  0  0  0  0  0
  -21.5560  -28.6890   21.9940 N   0  0  0  0  0  0  0  0  0  0  0  0
  -23.6070  -28.4960   22.9270 O   0  0  0  0  0  0  0  0  0  0  0  0
  -20.9780  -29.2210   21.3590 H   0  0  0  0  0  0  0  0  0  0  0  0
  -18.4750  -26.8180   22.1870 C   0  0  0  0  0  0  0  0  0  0  0  0
  -20.9090  -27.5550   22.6510 C   0  0  0  0  0  3  0  0  0  0  0  0
  -21.3290  -26.2170   21.9990 C   0  0  0  0  0  2  0  0  0  0  0  0
  -20.3730  -25.7620   20.8910 C   0  0  0  0  0  2  0  0  0  0  0  0
  -18.9570  -25.5830   21.4460 C   0  0  0  0  0  2  0  0  0  0  0  0
  -19.3920  -27.7520   22.7400 C   0  0  0  0  0  0  0  0  0  0  0  0
  -18.8910  -28.9020   23.3880 C   0  0  0  0  0  3  0  0  0  0  0  0
  -17.5060  -29.1250   23.4900 C   0  0  0  0  0  3  0  0  0  0  0  0
  -16.6020  -28.1920   22.9530 C   0  0  0  0  0  3  0  0  0  0  0  0
  -17.0870  -27.0390   22.3090 C   0  0  0  0  0  3  0  0  0  0  0  0
  -25.6790  -32.2900   23.7370 C   0  0  0  0  0  3  0  0  0  0  0  0
  -26.2070  -31.5460   25.0250 C   0  0  1  0  0  0  0  0  0  0  0  0
  -25.1100  -31.2710   26.0800 C   0  0  0  0  0  1  0  0  0  0  0  0
  -26.8510  -30.1910   24.6470 C   0  0  0  0  0  1  0  0  0  0  0  0
  -27.3120  -32.3900   25.7020 C   0  0  0  0  0  1  0  0  0  0  0  0
  -25.3000  -33.6730   24.0540 N   0  0  0  0  0  0  0  0  0  0  0  0
  -25.6330  -34.7400   23.3130 C   0  0  0  0  0  0  0  0  0  0  0  0
  -26.3630  -34.6640   22.3210 O   0  0  0  0  0  0  0  0  0  0  0  0
  -24.6580  -33.8040   24.8210 H   0  0  0  0  0  0  0  0  0  0  0  0
  -23.8530  -36.4580   22.8630 C   0  0  0  0  0  1  0  0  0  0  0  0
  -25.0640  -36.1050   23.7410 C   0  0  0  0  0  3  0  0  0  0  0  0
  -27.1190  -37.0690   24.6760 C   0  0  0  0  0  1  0  0  0  0  0  0
  -26.0560  -37.2000   23.6830 N   0  0  0  0  0  0  0  0  0  0  0  0
  -25.6060  -38.1010   23.8150 H   0  0  0  0  0  0  0  0  0  0  0  0
  1  3  1  0
  1  5  1  0
  3  7  1  0
  4  2  1  0
  5 17  1  0
  5  6  1  0
  6 47  1  0
  6  2  1  0
  7  4  1  0
  7  8  1  6
  9 15  1  0
  9 17  1  0
 10 15  1  0
 11 12  1  0
 11 10  1  0
 13 12  1  0
 13 22  1  0
 13 14  1  0
 15 14  1  0
 16  9  2  0
 17 18  1  0
 19 20  2  0
 20 39  1  0
 21 24  1  0
 21 20  1  0
 22 23  1  0
 22 19  1  0
 23 21  2  0
 24 25  1  0
 25 26  2  0
 27 30  1  0
 27 26  1  0
 28 27  2  0
 29 28  1  0
 29 24  2  0
 30 31  1  0
 31 32  1  0
 32 33  2  0
 34 33  1  0
 34 38  1  0
 35 34  2  0
 36 31  2  0
 36 35  1  0
 37 36  1  0
 39 40  1  0
 40 43  1  0
 40 42  1  0
 41 39  2  0
 44 19  1  0
 44 45  1  0
 46 44  1  0
 47 49  1  0
 48 47  1  0
 50 47  1  0
 51  7  1  0
 52 51  1  0
 53 52  1  0
 54 55  1  0
 54 53  1  0
 56 57  1  0
 56 55  1  0
 57 59  1  0
 58 69  2  0
 59 64  1  0
 60 68  1  0
 60 70  1  0
 61 67  1  0
 61 63  1  0
 62 68  1  0
 63 62  1  0
 64 63  2  0
 65 66  1  0
 65 59  2  0
 66 61  2  0
 67 60  1  0
 68 58  1  0
 70 72  2  0
 71 70  1  0
 73 71  1  0
 74 83  2  0
 74 79  1  0
 75 71  1  0
 75 79  1  0
 76 75  1  0
 77 78  1  0
 77 76  1  0
 78 74  1  0
 79 80  2  0
 80 81  1  0
 82 81  2  0
 83 82  1  0
 84 58  1  0
 84 89  1  0
 84 85  1  0
 85 88  1  1
 85 86  1  0
 87 85  1  0
 89 92  1  0
 90 94  1  0
 90 89  1  0
 91 90  2  0
 94 93  1  0
 96 94  1  0
 96 97  1  0
 96 95  1  0
M  ISO  4   9 100  17 100  56 101  57 101
M  END
>  <TORSDO>  (24) 
F 23

>  <SCORE>  (24) 
-6.918

>  <name>  (24) 
23

>  <ligand_id>  (24) 
23

>  <original_smiles>  (24) 
[H]c1c([H])c([H])c2c(c1[H])C([H])([H])C([H])([H])C([H])([H])C2([H])N([H])C(=O)C1([H])N(C(=O)C([H])(N([H])C(=O)C([H])(N([H])C([H])([H])[H])C([H])([H])[H])C(C([H])([H])[H])(C([H])([H])[H])C([H])([H])[H])C([H])([H])c2c([H])c(OC([H])([H])C([H])([H])C([H])([H])C([H])([H])C([H])([H])C([H])([H])[N+]3([H])C([H])([H])C([H])([H])C([H])(N([H])C(=O)N4C([H])([H])C([H])([H])C([H])([H])C([H])(n5nc(-c6c([H])c([H])c(Oc7c([H])c([H])c(F)c([H])c7F)c([H])c6[H])c(C(=O)N([H])[H])c5N([H])[H])C4([H])[H])C([H])([N+]([H])([H])[H])C([H])([H])C3([H])[H])c([H])c([H])c2C1([H])[H]

>  <smiles>  (24) 
[H]c1c([H])c([H])c2c(c1[H])C([H])([H])C([H])([H])C([H])([H])C2([H])N([H])C(=O)C1([H])N(C(=O)C([H])(N([H])C(=O)C([H])(N([H])C([H])([H])[H])C([H])([H])[H])C(C([H])([H])[H])(C([H])([H])[H])C([H])([H])[H])C([H])([H])c2c([H])c(OC([H])([H])C([H])([H])C([H])([H])C([H])([H])C([H])([H])C([H])([H])[N+]3([H])C([H])([H])C([H])([H])C([H])(N([H])C(=O)N4C([H])([H])C([H])([H])C([H])([H])C([H])(n5nc(-c6c([H])c([H])c(Oc7c([H])c([H])c(F)c([H])c7F)c([H])c6[H])c(C(=O)N([H])[H])c5N([H])[H])C4([H])[H])C([H])([N+]([H])([H])[H])C([H])([H])C3([H])[H])c([H])c([H])c2C1([H])[H]

$$$$
24:0:0
     RDKit          3D

 91 99  0  0  1  0  0  0  0  0999 V2000
  -27.3830  -20.7710   19.0740 C   0  0  0  0  0  2  0  0  0  0  0  0
  -27.8530  -22.0120   19.8540 C   0  0  0  0  0  2  0  0  0  0  0  0
  -28.0310  -23.2700   18.9860 C   0  0  0  0  0  2  0  0  0  0  0  0
  -28.2930  -24.5000   19.8670 C   0  0  0  0  0  2  0  0  0  0  0  0
  -28.6150  -25.7790   19.0930 C   0  0  0  0  0  2  0  0  0  0  0  0
  -28.4580  -26.8870   19.9740 O   0  0  0  0  0  0  0  0  0  0  0  0
  -24.5970  -31.8890   23.2210 C   0  0  0  0  0  0  0  0  0  0  0  0
  -27.2330  -27.5140   20.0410 C   0  0  0  0  0  0  0  0  0  0  0  0
  -23.3700  -30.4910   21.5900 C   0  0  0  0  0  3  0  0  0  0  0  0
  -24.8090  -28.9620   20.1440 C   0  0  0  0  0  0  0  0  0  0  0  0
  -25.8900  -30.8630   21.3560 C   0  0  0  0  0  2  0  0  0  0  0  0
  -25.9690  -29.4940   20.7170 C   0  0  0  0  0  0  0  0  0  0  0  0
  -27.1790  -28.7710   20.6760 C   0  0  0  0  0  3  0  0  0  0  0  0
  -26.0440  -26.9770   19.4860 C   0  0  0  0  0  3  0  0  0  0  0  0
  -24.8390  -27.6970   19.5350 C   0  0  0  0  0  3  0  0  0  0  0  0
  -23.5600  -29.8090   20.2090 C   0  0  0  0  0  2  0  0  0  0  0  0
  -24.6390  -31.0950   22.1150 N   0  0  0  0  0  0  0  0  0  0  0  0
  -23.5220  -32.1560   23.7750 O   0  0  0  0  0  0  0  0  0  0  0  0
  -22.7320  -29.4680   22.5520 C   0  0  0  0  0  0  0  0  0  0  0  0
  -21.4080  -29.2840   22.4350 N   0  0  0  0  0  0  0  0  0  0  0  0
  -23.4270  -28.8400   23.3560 O   0  0  0  0  0  0  0  0  0  0  0  0
  -20.9100  -29.8470   21.7580 H   0  0  0  0  0  0  0  0  0  0  0  0
  -18.0470  -28.0750   22.9490 C   0  0  0  0  0  0  0  0  0  0  0  0
  -20.6040  -28.3430   23.2090 C   0  0  0  0  0  3  0  0  0  0  0  0
  -20.7080  -26.9130   22.6320 C   0  0  0  0  0  2  0  0  0  0  0  0
  -19.6030  -26.5870   21.6200 C   0  0  0  0  0  2  0  0  0  0  0  0
  -18.2230  -26.7270   22.2700 C   0  0  0  0  0  2  0  0  0  0  0  0
  -19.1630  -28.8410   23.3760 C   0  0  0  0  0  0  0  0  0  0  0  0
  -18.9450  -30.1040   23.9670 C   0  0  0  0  0  3  0  0  0  0  0  0
  -17.6390  -30.6000   24.1470 C   0  0  0  0  0  3  0  0  0  0  0  0
  -16.5360  -29.8320   23.7340 C   0  0  0  0  0  3  0  0  0  0  0  0
  -16.7400  -28.5720   23.1450 C   0  0  0  0  0  3  0  0  0  0  0  0
  -25.8910  -32.5170   23.8260 C   0  0  0  0  0  3  0  0  0  0  0  0
  -26.4320  -31.7340   25.0840 C   0  0  1  0  0  0  0  0  0  0  0  0
  -25.3610  -31.4770   26.1690 C   0  0  0  0  0  1  0  0  0  0  0  0
  -27.0170  -30.3650   24.6660 C   0  0  0  0  0  1  0  0  0  0  0  0
  -27.5950  -32.5200   25.7340 C   0  0  0  0  0  1  0  0  0  0  0  0
  -25.5840  -33.9100   24.1750 N   0  0  0  0  0  0  0  0  0  0  0  0
  -25.9110  -34.9710   23.4240 C   0  0  0  0  0  0  0  0  0  0  0  0
  -26.5730  -34.8780   22.3860 O   0  0  0  0  0  0  0  0  0  0  0  0
  -24.9900  -34.0560   24.9780 H   0  0  0  0  0  0  0  0  0  0  0  0
  -24.1750  -36.7670   23.0970 C   0  0  0  0  0  1  0  0  0  0  0  0
  -25.4230  -36.3530   23.8960 C   0  0  0  0  0  3  0  0  0  0  0  0
  -27.5620  -37.2310   24.7220 C   0  0  0  0  0  1  0  0  0  0  0  0
  -26.4530  -37.4100   23.7880 N   0  0  0  0  0  0  0  0  0  0  0  0
  -26.0460  -38.3250   23.9530 H   0  0  0  0  0  0  0  0  0  0  0  0
  -27.0860  -19.5530   19.9760 C   0  0  0  0  0  2  0  0  0  0  0  0
  -28.2970  -18.9560   20.5930 N   0  0  0  0  0  4  0  0  0  0  0  0
  -29.1070  -19.5190   20.3780 H   0  0  0  0  0  0  0  0  0  0  0  0
  -28.1580  -18.9920   21.5900 H   0  0  0  0  0  0  0  0  0  0  0  0
  -30.7430  -14.6290   20.7620 C   0  0  0  0  0  0  0  0  0  0  0  0
  -30.6190  -12.3590   19.8660 C   0  0  0  0  0  2  0  0  0  0  0  0
  -29.7770  -12.4320   18.5760 C   0  0  0  0  0  2  0  0  0  0  0  0
  -28.2640  -12.3590   18.8900 C   0  0  0  0  0  2  0  0  0  0  0  0
  -27.8070  -13.2460   20.0850 C   0  0  0  0  0  3  0  0  0  0  0  0
  -28.7910  -13.1370   21.2740 C   0  0  0  0  0  2  0  0  0  0  0  0
  -30.1400  -13.4140   20.7630 N   0  0  0  0  0  0  0  0  0  0  0  0
  -31.9610  -14.7890   20.6410 O   0  0  0  0  0  0  0  0  0  0  0  0
  -29.1530  -17.3590   18.8330 C   0  0  0  0  0  2  0  0  0  0  0  0
  -29.8280  -15.9860   18.9170 C   0  0  0  0  0  2  0  0  0  0  0  0
  -29.5210  -16.7770   21.1370 C   0  0  0  0  0  2  0  0  0  0  0  0
  -28.5490  -17.5450   20.2220 C   0  0  0  0  0  3  0  0  0  0  0  0
  -29.9030  -15.6090   20.3460 N   0  0  0  0  0  0  0  0  0  0  0  0
  -25.3600  -13.8330   20.6100 C   0  0  0  0  0  0  0  0  0  0  0  0
  -24.2790  -13.0550   20.9220 C   0  0  0  0  0  0  0  0  0  0  0  0
  -24.7650  -11.7140   20.9690 C   0  0  0  0  0  0  0  0  0  0  0  0
  -26.4310  -12.9640   20.4810 N   0  0  0  0  0  0  0  0  0  0  0  0
  -26.0740  -11.6850   20.7630 N   0  0  0  0  0  0  0  0  0  0  0  0
  -24.0510  -10.4450   21.1340 C   0  0  0  0  0  0  0  0  0  0  0  0
  -24.4530   -9.4930   22.0970 C   0  0  0  0  0  3  0  0  0  0  0  0
  -23.7300   -8.2900   22.2470 C   0  0  0  0  0  3  0  0  0  0  0  0
  -22.6010   -8.0320   21.4360 C   0  0  0  0  0  0  0  0  0  0  0  0
  -22.2300   -8.9700   20.4560 C   0  0  0  0  0  3  0  0  0  0  0  0
  -22.9470  -10.1640   20.3020 C   0  0  0  0  0  3  0  0  0  0  0  0
  -21.8540   -6.8810   21.4930 O   0  0  0  0  0  0  0  0  0  0  0  0
  -21.7710   -6.1360   22.6430 C   0  0  0  0  0  0  0  0  0  0  0  0
  -21.3070   -6.6900   23.8550 C   0  0  0  0  0  3  0  0  0  0  0  0
  -21.1690   -5.8740   24.9950 C   0  0  0  0  0  3  0  0  0  0  0  0
  -21.4900   -4.5040   24.9240 C   0  0  0  0  0  0  0  0  0  0  0  0
  -21.9500   -3.9500   23.7130 C   0  0  0  0  0  3  0  0  0  0  0  0
  -22.0860   -4.7660   22.5770 C   0  0  0  0  0  0  0  0  0  0  0  0
  -22.5080   -4.2210   21.4100 F   0  0  0  0  0  0  0  0  0  0  0  0
  -21.3510   -3.7180   26.0170 F   0  0  0  0  0  0  0  0  0  0  0  0
  -22.8590  -13.5150   21.0660 C   0  0  0  0  0  0  0  0  0  0  0  0
  -22.0810  -12.8330   21.8980 N   0  0  0  0  0  0  0  0  0  0  0  0
  -22.4440  -14.5160   20.4820 O   0  0  0  0  0  0  0  0  0  0  0  0
  -22.4220  -12.0230   22.3930 H   0  0  0  0  0  0  0  0  0  0  0  0
  -21.1210  -13.1120   22.0340 H   0  0  0  0  0  0  0  0  0  0  0  0
  -25.5050  -15.2010   20.3910 N   0  0  0  0  0  0  0  0  0  0  0  0
  -24.7120  -15.8340   20.3670 H   0  0  0  0  0  0  0  0  0  0  0  0
  -26.3540  -15.6000   20.0220 H   0  0  0  0  0  0  0  0  0  0  0  0
  1  2  1  0
  1 47  1  0
  3  2  1  0
  3  4  1  0
  5  4  1  0
  5  6  1  0
  6  8  1  0
  7 18  2  0
  8 13  1  0
  9 17  1  0
  9 19  1  0
 10 16  1  0
 10 12  1  0
 11 17  1  0
 12 11  1  0
 13 12  2  0
 14 15  1  0
 14  8  2  0
 15 10  2  0
 16  9  1  0
 17  7  1  0
 19 21  2  0
 20 19  1  0
 22 20  1  0
 23 32  2  0
 23 28  1  0
 24 20  1  0
 24 28  1  0
 25 24  1  0
 26 27  1  0
 26 25  1  0
 27 23  1  0
 28 29  2  0
 29 30  1  0
 31 30  2  0
 32 31  1  0
 33  7  1  0
 33 38  1  0
 33 34  1  0
 34 37  1  1
 34 35  1  0
 36 34  1  0
 38 41  1  0
 39 43  1  0
 39 38  1  0
 40 39  2  0
 43 42  1  0
 45 43  1  0
 45 46  1  0
 45 44  1  0
 47 48  1  0
 48 50  1  0
 49 48  1  0
 51 57  1  0
 52 57  1  0
 53 54  1  0
 53 52  1  0
 55 54  1  0
 55 67  1  0
 55 56  1  0
 57 56  1  0
 58 51  2  0
 59 60  1  0
 59 62  1  0
 60 63  1  0
 62 48  1  0
 62 61  1  0
 63 51  1  0
 63 61  1  0
 64 65  2  0
 65 66  1  0
 65 84  1  0
 66 69  1  0
 67 64  1  0
 67 68  1  0
 68 66  2  0
 69 70  1  0
 70 71  2  0
 72 75  1  0
 72 71  1  0
 73 72  2  0
 74 73  1  0
 74 69  2  0
 75 76  1  0
 76 77  1  0
 77 78  2  0
 79 78  1  0
 79 83  1  0
 80 79  2  0
 81 76  2  0
 81 80  1  0
 82 81  1  0
 84 85  1  0
 85 88  1  0
 85 87  1  0
 86 84  2  0
 89 64  1  0
 90 89  1  0
 91 89  1  0
M  ISO  4   5 101   6 101  51 100  63 100
M  END
>  <TORSDO>  (25) 
F 22

>  <SCORE>  (25) 
-12.563

>  <name>  (25) 
24

>  <ligand_id>  (25) 
24

>  <original_smiles>  (25) 
[H]c1c([H])c([H])c2c(c1[H])C([H])([H])C([H])([H])C([H])([H])C2([H])N([H])C(=O)C1([H])N(C(=O)C([H])(N([H])C(=O)C([H])(N([H])C([H])([H])[H])C([H])([H])[H])C(C([H])([H])[H])(C([H])([H])[H])C([H])([H])[H])C([H])([H])c2c([H])c(OC([H])([H])C([H])([H])C([H])([H])C([H])([H])C([H])([H])C([H])([H])[N+]([H])([H])C3([H])C([H])([H])N(C(=O)N4C([H])([H])C([H])([H])C([H])([H])C([H])(n5nc(-c6c([H])c([H])c(Oc7c([H])c([H])c(F)c([H])c7F)c([H])c6[H])c(C(=O)N([H])[H])c5N([H])[H])C4([H])[H])C([H])([H])C3([H])[H])c([H])c([H])c2C1([H])[H]

>  <smiles>  (25) 
[H]c1c([H])c([H])c2c(c1[H])C([H])([H])C([H])([H])C([H])([H])C2([H])N([H])C(=O)C1([H])N(C(=O)C([H])(N([H])C(=O)C([H])(N([H])C([H])([H])[H])C([H])([H])[H])C(C([H])([H])[H])(C([H])([H])[H])C([H])([H])[H])C([H])([H])c2c([H])c(OC([H])([H])C([H])([H])C([H])([H])C([H])([H])C([H])([H])C([H])([H])[N+]([H])([H])C3([H])C([H])([H])N(C(=O)N4C([H])([H])C([H])([H])C([H])([H])C([H])(n5nc(-c6c([H])c([H])c(Oc7c([H])c([H])c(F)c([H])c7F)c([H])c6[H])c(C(=O)N([H])[H])c5N([H])[H])C4([H])[H])C([H])([H])C3([H])[H])c([H])c([H])c2C1([H])[H]

$$$$
25:0:0
     RDKit          3D

 96104  0  0  1  0  0  0  0  0999 V2000
  -31.0610  -20.8250   19.0810 C   0  0  0  0  0  1  0  0  0  0  0  0
  -30.2450  -20.6550   20.3860 C   0  0  0  0  0  3  0  0  0  0  0  0
  -30.3070  -17.9680   20.2000 C   0  0  0  0  0  2  0  0  0  0  0  0
  -28.6120  -18.9890   21.6370 C   0  0  0  0  0  2  0  0  0  0  0  0
  -29.4550  -19.2820   20.3810 C   0  0  0  0  0  3  0  0  0  0  0  0
  -29.8600  -16.9260   21.2760 C   0  0  0  0  0  3  0  0  0  0  0  0
  -28.4750  -17.4660   21.7010 C   0  0  0  0  0  3  0  0  0  0  0  0
  -30.6090  -14.5390   20.5400 C   0  0  0  0  0  0  0  0  0  0  0  0
  -30.4470  -12.3460   19.4090 C   0  0  0  0  0  2  0  0  0  0  0  0
  -29.5040  -12.5080   18.1950 C   0  0  0  0  0  2  0  0  0  0  0  0
  -28.0150  -12.3820   18.5980 C   0  0  0  0  0  2  0  0  0  0  0  0
  -27.6550  -13.1990   19.8660 C   0  0  0  0  0  3  0  0  0  0  0  0
  -28.7040  -12.9620   20.9750 C   0  0  0  0  0  2  0  0  0  0  0  0
  -30.0190  -13.3190   20.4220 N   0  0  0  0  0  0  0  0  0  0  0  0
  -31.7750  -14.7660   20.2120 O   0  0  0  0  0  0  0  0  0  0  0  0
  -29.7210  -15.5100   20.8650 N   0  0  0  0  0  0  0  0  0  0  0  0
  -28.7840  -15.1440   20.9010 H   0  0  0  0  0  0  0  0  0  0  0  0
  -25.2510  -13.8140   20.5560 C   0  0  0  0  0  0  0  0  0  0  0  0
  -24.1800  -13.0440   20.9230 C   0  0  0  0  0  0  0  0  0  0  0  0
  -24.6350  -11.6900   20.8810 C   0  0  0  0  0  0  0  0  0  0  0  0
  -26.2950  -12.9290   20.3260 N   0  0  0  0  0  0  0  0  0  0  0  0
  -25.9250  -11.6470   20.5710 N   0  0  0  0  0  0  0  0  0  0  0  0
  -23.9020  -10.4290   21.0490 C   0  0  0  0  0  0  0  0  0  0  0  0
  -24.3590   -9.4180   21.9250 C   0  0  0  0  0  3  0  0  0  0  0  0
  -23.6250   -8.2200   22.0770 C   0  0  0  0  0  3  0  0  0  0  0  0
  -22.4240   -8.0250   21.3540 C   0  0  0  0  0  0  0  0  0  0  0  0
  -21.9900   -9.0240   20.4650 C   0  0  0  0  0  3  0  0  0  0  0  0
  -22.7220  -10.2120   20.3090 C   0  0  0  0  0  3  0  0  0  0  0  0
  -21.6580   -6.8860   21.4230 O   0  0  0  0  0  0  0  0  0  0  0  0
  -21.6800   -6.0730   22.5290 C   0  0  0  0  0  0  0  0  0  0  0  0
  -21.4020   -6.5640   23.8240 C   0  0  0  0  0  3  0  0  0  0  0  0
  -21.3680   -5.6780   24.9190 C   0  0  0  0  0  3  0  0  0  0  0  0
  -21.6050   -4.3040   24.7240 C   0  0  0  0  0  0  0  0  0  0  0  0
  -21.8800   -3.8150   23.4340 C   0  0  0  0  0  3  0  0  0  0  0  0
  -21.9170   -4.6970   22.3400 C   0  0  0  0  0  0  0  0  0  0  0  0
  -22.1630   -4.2180   21.0960 F   0  0  0  0  0  0  0  0  0  0  0  0
  -21.5630   -3.4520   25.7760 F   0  0  0  0  0  0  0  0  0  0  0  0
  -22.7820  -13.5250   21.1940 C   0  0  0  0  0  0  0  0  0  0  0  0
  -22.0390  -12.8260   22.0470 N   0  0  0  0  0  0  0  0  0  0  0  0
  -22.3580  -14.5580   20.6800 O   0  0  0  0  0  0  0  0  0  0  0  0
  -22.3890  -11.9970   22.5030 H   0  0  0  0  0  0  0  0  0  0  0  0
  -21.0970  -13.1330   22.2560 H   0  0  0  0  0  0  0  0  0  0  0  0
  -25.4280  -15.1840   20.3770 N   0  0  0  0  0  0  0  0  0  0  0  0
  -24.6080  -15.7760   20.3110 H   0  0  0  0  0  0  0  0  0  0  0  0
  -26.2070  -15.5470   19.8460 H   0  0  0  0  0  0  0  0  0  0  0  0
  -27.9940  -16.9890   23.0140 N   0  0  0  0  0  4  0  0  0  0  0  0
  -28.5680  -17.3410   23.7620 H   0  0  0  0  0  0  0  0  0  0  0  0
  -27.9670  -15.9850   23.0830 H   0  0  0  0  0  0  0  0  0  0  0  0
  -27.0540  -17.3160   23.1580 H   0  0  0  0  0  0  0  0  0  0  0  0
  -29.4490  -21.9550   20.7850 C   0  0  0  0  0  0  0  0  0  0  0  0
  -29.7630  -23.1340   20.2070 N   0  0  0  0  0  0  0  0  0  0  0  0
  -28.6110  -21.9190   21.6860 O   0  0  0  0  0  0  0  0  0  0  0  0
  -30.4300  -23.0900   19.4490 H   0  0  0  0  0  0  0  0  0  0  0  0
  -29.4710  -24.4960   20.7130 C   0  0  0  0  0  2  0  0  0  0  0  0
  -28.2680  -25.2150   20.0470 C   0  0  0  0  0  2  0  0  0  0  0  0
  -28.3870  -26.6530   20.1430 O   0  0  0  0  0  0  0  0  0  0  0  0
  -24.6160  -31.8660   23.2100 C   0  0  0  0  0  0  0  0  0  0  0  0
  -27.2250  -27.4100   20.0990 C   0  0  0  0  0  0  0  0  0  0  0  0
  -23.4050  -30.4960   21.5490 C   0  0  0  0  0  3  0  0  0  0  0  0
  -24.8450  -28.9580   20.1160 C   0  0  0  0  0  0  0  0  0  0  0  0
  -25.9350  -30.8330   21.3580 C   0  0  0  0  0  2  0  0  0  0  0  0
  -26.0100  -29.4650   20.7030 C   0  0  0  0  0  0  0  0  0  0  0  0
  -27.2050  -28.7020   20.6820 C   0  0  0  0  0  3  0  0  0  0  0  0
  -26.0390  -26.9290   19.4990 C   0  0  0  0  0  3  0  0  0  0  0  0
  -24.8550  -27.6890   19.5130 C   0  0  0  0  0  3  0  0  0  0  0  0
  -23.6140  -29.8320   20.1630 C   0  0  0  0  0  2  0  0  0  0  0  0
  -24.6720  -31.0770   22.1000 N   0  0  0  0  0  0  0  0  0  0  0  0
  -23.5340  -32.1400   23.7510 O   0  0  0  0  0  0  0  0  0  0  0  0
  -22.7410  -29.4670   22.4940 C   0  0  0  0  0  0  0  0  0  0  0  0
  -21.4130  -29.3050   22.3700 N   0  0  0  0  0  0  0  0  0  0  0  0
  -23.4170  -28.8180   23.2960 O   0  0  0  0  0  0  0  0  0  0  0  0
  -20.9250  -29.8820   21.7000 H   0  0  0  0  0  0  0  0  0  0  0  0
  -18.0270  -28.1370   22.8490 C   0  0  0  0  0  0  0  0  0  0  0  0
  -20.5870  -28.3660   23.1300 C   0  0  0  0  0  3  0  0  0  0  0  0
  -20.6740  -26.9390   22.5420 C   0  0  0  0  0  2  0  0  0  0  0  0
  -19.5730  -26.6380   21.5190 C   0  0  0  0  0  2  0  0  0  0  0  0
  -18.1920  -26.7910   22.1620 C   0  0  0  0  0  2  0  0  0  0  0  0
  -19.1540  -28.8820   23.2900 C   0  0  0  0  0  0  0  0  0  0  0  0
  -18.9470  -30.1420   23.8950 C   0  0  0  0  0  3  0  0  0  0  0  0
  -17.6480  -30.6580   24.0580 C   0  0  0  0  0  3  0  0  0  0  0  0
  -16.5370  -29.9110   23.6300 C   0  0  0  0  0  3  0  0  0  0  0  0
  -16.7270  -28.6520   23.0330 C   0  0  0  0  0  3  0  0  0  0  0  0
  -25.9040  -32.4820   23.8390 C   0  0  0  0  0  3  0  0  0  0  0  0
  -25.5870  -33.8620   24.2310 N   0  0  0  0  0  0  0  0  0  0  0  0
  -25.9030  -34.9480   23.5120 C   0  0  0  0  0  0  0  0  0  0  0  0
  -26.5630  -34.8940   22.4710 O   0  0  0  0  0  0  0  0  0  0  0  0
  -24.9950  -33.9790   25.0410 H   0  0  0  0  0  0  0  0  0  0  0  0
  -24.1460  -36.7310   23.2630 C   0  0  0  0  0  1  0  0  0  0  0  0
  -25.4090  -36.3110   24.0330 C   0  0  0  0  0  3  0  0  0  0  0  0
  -27.5580  -37.1790   24.8460 C   0  0  0  0  0  1  0  0  0  0  0  0
  -26.4260  -37.3820   23.9450 N   0  0  0  0  0  0  0  0  0  0  0  0
  -26.0130  -38.2870   24.1540 H   0  0  0  0  0  0  0  0  0  0  0  0
  -26.4460  -31.6610   25.0720 C   0  0  1  0  0  0  0  0  0  0  0  0
  -25.3750  -31.3710   26.1480 C   0  0  0  0  0  1  0  0  0  0  0  0
  -27.0250  -30.3050   24.6060 C   0  0  0  0  0  1  0  0  0  0  0  0
  -27.6020  -32.4310   25.7500 C   0  0  0  0  0  1  0  0  0  0  0  0
  2  1  1  0
  2 50  1  0
  3  5  1  0
  3  6  1  0
  4  7  1  0
  5  2  1  0
  5  4  1  0
  6 16  1  0
  6  7  1  0
  7 46  1  0
  8 16  1  0
  9 14  1  0
 10 11  1  0
 10  9  1  0
 12 11  1  0
 12 21  1  0
 12 13  1  0
 14  8  1  0
 14 13  1  0
 15  8  2  0
 16 17  1  0
 18 19  2  0
 19 38  1  0
 20 19  1  0
 20 23  1  0
 21 18  1  0
 21 22  1  0
 22 20  2  0
 23 24  1  0
 24 25  2  0
 26 29  1  0
 26 25  1  0
 27 26  2  0
 28 27  1  0
 28 23  2  0
 29 30  1  0
 30 31  1  0
 31 32  2  0
 33 32  1  0
 33 37  1  0
 34 33  2  0
 35 30  2  0
 35 34  1  0
 36 35  1  0
 38 39  1  0
 39 42  1  0
 39 41  1  0
 40 38  2  0
 43 18  1  0
 44 43  1  0
 45 43  1  0
 46 48  1  0
 46 49  1  0
 46 47  1  0
 50 52  2  0
 51 54  1  0
 51 50  1  0
 53 51  1  0
 55 56  1  0
 55 54  1  0
 57 68  2  0
 58 56  1  0
 58 63  1  0
 59 67  1  0
 59 69  1  0
 60 66  1  0
 60 62  1  0
 61 67  1  0
 62 61  1  0
 63 62  2  0
 64 65  1  0
 64 58  2  0
 65 60  2  0
 66 59  1  0
 67 57  1  0
 69 71  2  0
 70 69  1  0
 72 70  1  0
 73 82  2  0
 73 78  1  0
 74 70  1  0
 74 78  1  0
 75 74  1  0
 76 77  1  0
 76 75  1  0
 77 73  1  0
 78 79  2  0
 79 80  1  0
 81 80  2  0
 82 81  1  0
 83 57  1  0
 83 84  1  0
 83 93  1  0
 84 87  1  0
 85 89  1  0
 85 84  1  0
 86 85  2  0
 89 88  1  0
 91 89  1  0
 91 92  1  0
 91 90  1  0
 93 96  1  1
 93 94  1  0
 95 93  1  0
M  ISO  4   8 100  16 100  55 101  56 101
M  END
>  <TORSDO>  (26) 
F 21

>  <SCORE>  (26) 
-4.852

>  <name>  (26) 
25

>  <ligand_id>  (26) 
25

>  <original_smiles>  (26) 
[H]c1c([H])c([H])c2c(c1[H])C([H])([H])C([H])([H])C([H])([H])C2([H])N([H])C(=O)C1([H])N(C(=O)C([H])(N([H])C(=O)C([H])(N([H])C([H])([H])[H])C([H])([H])[H])C(C([H])([H])[H])(C([H])([H])[H])C([H])([H])[H])C([H])([H])c2c([H])c(OC([H])([H])C([H])([H])N([H])C(=O)C([H])(C([H])([H])[H])C3([H])C([H])([H])C([H])(N([H])C(=O)N4C([H])([H])C([H])([H])C([H])([H])C([H])(n5nc(-c6c([H])c([H])c(Oc7c([H])c([H])c(F)c([H])c7F)c([H])c6[H])c(C(=O)N([H])[H])c5N([H])[H])C4([H])[H])C([H])([N+]([H])([H])[H])C3([H])[H])c([H])c([H])c2C1([H])[H]

>  <smiles>  (26) 
[H]c1c([H])c([H])c2c(c1[H])C([H])([H])C([H])([H])C([H])([H])C2([H])N([H])C(=O)C1([H])N(C(=O)C([H])(N([H])C(=O)C([H])(N([H])C([H])([H])[H])C([H])([H])[H])C(C([H])([H])[H])(C([H])([H])[H])C([H])([H])[H])C([H])([H])c2c([H])c(OC([H])([H])C([H])([H])N([H])C(=O)C([H])(C([H])([H])[H])C3([H])C([H])([H])C([H])(N([H])C(=O)N4C([H])([H])C([H])([H])C([H])([H])C([H])(n5nc(-c6c([H])c([H])c(Oc7c([H])c([H])c(F)c([H])c7F)c([H])c6[H])c(C(=O)N([H])[H])c5N([H])[H])C4([H])[H])C([H])([N+]([H])([H])[H])C3([H])[H])c([H])c([H])c2C1([H])[H]

$$$$
26:0:0
     RDKit          3D

 94102  0  0  1  0  0  0  0  0999 V2000
  -29.1860  -20.5020   21.5150 N   0  0  0  0  0  4  0  0  0  0  0  0
  -29.2600  -20.6520   22.5100 H   0  0  0  0  0  0  0  0  0  0  0  0
  -28.2550  -20.1670   21.3290 H   0  0  0  0  0  0  0  0  0  0  0  0
  -30.1770  -19.4690   21.1050 C   0  0  0  0  0  2  0  0  0  0  0  0
  -29.7230  -17.9790   21.1880 C   0  0  0  0  0  2  0  0  0  0  0  0
  -30.7210  -14.5790   20.3640 C   0  0  0  0  0  0  0  0  0  0  0  0
  -30.4380  -12.3530   19.3830 C   0  0  0  0  0  2  0  0  0  0  0  0
  -29.5120  -12.4540   18.1510 C   0  0  0  0  0  2  0  0  0  0  0  0
  -28.0270  -12.3890   18.5560 C   0  0  0  0  0  2  0  0  0  0  0  0
  -27.6670  -13.2700   19.7840 C   0  0  0  0  0  3  0  0  0  0  0  0
  -28.7150  -13.1490   20.9100 C   0  0  0  0  0  2  0  0  0  0  0  0
  -30.0360  -13.4060   20.3250 N   0  0  0  0  0  0  0  0  0  0  0  0
  -31.9440  -14.6400   20.2250 O   0  0  0  0  0  0  0  0  0  0  0  0
  -29.8000  -15.8890   18.6030 C   0  0  0  0  0  2  0  0  0  0  0  0
  -30.2780  -17.3130   18.7210 C   0  0  0  0  0  3  0  0  0  0  0  0
  -30.5310  -17.0840   20.2120 C   0  0  0  0  0  3  0  0  0  0  0  0
  -29.9870  -15.6920   20.0610 N   0  0  0  0  0  0  0  0  0  0  0  0
  -25.2620  -13.8820   20.4520 C   0  0  0  0  0  0  0  0  0  0  0  0
  -24.1880  -13.1110   20.8080 C   0  0  0  0  0  0  0  0  0  0  0  0
  -24.6540  -11.7610   20.8120 C   0  0  0  0  0  0  0  0  0  0  0  0
  -26.3130  -12.9990   20.2590 N   0  0  0  0  0  0  0  0  0  0  0  0
  -25.9520  -11.7220   20.5380 N   0  0  0  0  0  0  0  0  0  0  0  0
  -23.9280  -10.4990   21.0050 C   0  0  0  0  0  0  0  0  0  0  0  0
  -24.3520   -9.5450   21.9570 C   0  0  0  0  0  3  0  0  0  0  0  0
  -23.6310   -8.3460   22.1370 C   0  0  0  0  0  3  0  0  0  0  0  0
  -22.4710   -8.0920   21.3680 C   0  0  0  0  0  0  0  0  0  0  0  0
  -22.0670   -9.0340   20.4060 C   0  0  0  0  0  3  0  0  0  0  0  0
  -22.7870  -10.2260   20.2230 C   0  0  0  0  0  3  0  0  0  0  0  0
  -21.7210   -6.9450   21.4590 O   0  0  0  0  0  0  0  0  0  0  0  0
  -21.6660   -6.2120   22.6160 C   0  0  0  0  0  0  0  0  0  0  0  0
  -21.2290   -6.7750   23.8360 C   0  0  0  0  0  3  0  0  0  0  0  0
  -21.1200   -5.9680   24.9840 C   0  0  0  0  0  3  0  0  0  0  0  0
  -21.4370   -4.5980   24.9160 C   0  0  0  0  0  0  0  0  0  0  0  0
  -21.8660   -4.0330   23.7010 C   0  0  0  0  0  3  0  0  0  0  0  0
  -21.9770   -4.8390   22.5540 C   0  0  0  0  0  0  0  0  0  0  0  0
  -22.3710   -4.2850   21.3810 F   0  0  0  0  0  0  0  0  0  0  0  0
  -21.3260   -3.8200   26.0170 F   0  0  0  0  0  0  0  0  0  0  0  0
  -22.7840  -13.5890   21.0350 C   0  0  0  0  0  0  0  0  0  0  0  0
  -22.0360  -12.9050   21.8940 N   0  0  0  0  0  0  0  0  0  0  0  0
  -22.3560  -14.6010   20.4830 O   0  0  0  0  0  0  0  0  0  0  0  0
  -22.3940  -12.0870   22.3620 H   0  0  0  0  0  0  0  0  0  0  0  0
  -21.0920  -13.2090   22.0840 H   0  0  0  0  0  0  0  0  0  0  0  0
  -25.4310  -15.2510   20.2550 N   0  0  0  0  0  0  0  0  0  0  0  0
  -24.6680  -15.9140   20.3400 H   0  0  0  0  0  0  0  0  0  0  0  0
  -26.3040  -15.6830   19.9790 H   0  0  0  0  0  0  0  0  0  0  0  0
  -32.0770  -18.9410   18.0740 C   0  0  0  0  0  1  0  0  0  0  0  0
  -31.4450  -17.6290   17.8510 N   0  0  0  0  0  4  0  0  0  0  0  0
  -31.1470  -17.6080   16.8880 H   0  0  0  0  0  0  0  0  0  0  0  0
  -32.1510  -16.9190   17.9520 H   0  0  0  0  0  0  0  0  0  0  0  0
  -29.3770  -21.7890   20.7860 C   0  0  0  0  0  2  0  0  0  0  0  0
  -28.7150  -23.0340   21.4260 C   0  0  0  0  0  2  0  0  0  0  0  0
  -28.9680  -24.3220   20.5950 C   0  0  0  0  0  2  0  0  0  0  0  0
  -28.2670  -25.5780   21.1430 C   0  0  0  0  0  2  0  0  0  0  0  0
  -28.3970  -26.7040   20.2560 O   0  0  0  0  0  0  0  0  0  0  0  0
  -24.5970  -31.9030   23.2600 C   0  0  0  0  0  0  0  0  0  0  0  0
  -27.2590  -27.4750   20.2030 C   0  0  0  0  0  0  0  0  0  0  0  0
  -23.3990  -30.4930   21.6130 C   0  0  0  0  0  3  0  0  0  0  0  0
  -24.8650  -28.9660   20.1860 C   0  0  0  0  0  0  0  0  0  0  0  0
  -25.9210  -30.8680   21.4210 C   0  0  0  0  0  2  0  0  0  0  0  0
  -26.0160  -29.4980   20.7810 C   0  0  0  0  0  0  0  0  0  0  0  0
  -27.2210  -28.7580   20.7880 C   0  0  0  0  0  3  0  0  0  0  0  0
  -26.1020  -26.9590   19.5840 C   0  0  0  0  0  3  0  0  0  0  0  0
  -24.9010  -27.6980   19.5790 C   0  0  0  0  0  3  0  0  0  0  0  0
  -23.6150  -29.8130   20.2330 C   0  0  0  0  0  2  0  0  0  0  0  0
  -24.6560  -31.1040   22.1550 N   0  0  0  0  0  0  0  0  0  0  0  0
  -23.5130  -32.1670   23.8000 O   0  0  0  0  0  0  0  0  0  0  0  0
  -22.7500  -29.4700   22.5740 C   0  0  0  0  0  0  0  0  0  0  0  0
  -21.4260  -29.2850   22.4450 N   0  0  0  0  0  0  0  0  0  0  0  0
  -23.4360  -28.8470   23.3890 O   0  0  0  0  0  0  0  0  0  0  0  0
  -20.9360  -29.8420   21.7600 H   0  0  0  0  0  0  0  0  0  0  0  0
  -18.0530  -28.0810   22.9350 C   0  0  0  0  0  0  0  0  0  0  0  0
  -20.6100  -28.3440   23.2120 C   0  0  0  0  0  3  0  0  0  0  0  0
  -20.7180  -26.9130   22.6350 C   0  0  0  0  0  2  0  0  0  0  0  0
  -19.6180  -26.5890   21.6190 C   0  0  0  0  0  2  0  0  0  0  0  0
  -18.2340  -26.7320   22.2590 C   0  0  0  0  0  2  0  0  0  0  0  0
  -19.1700  -28.8450   23.3660 C   0  0  0  0  0  0  0  0  0  0  0  0
  -18.9490  -30.1090   23.9540 C   0  0  0  0  0  3  0  0  0  0  0  0
  -17.6440  -30.6100   24.1170 C   0  0  0  0  0  3  0  0  0  0  0  0
  -16.5410  -29.8420   23.7060 C   0  0  0  0  0  3  0  0  0  0  0  0
  -16.7460  -28.5800   23.1210 C   0  0  0  0  0  3  0  0  0  0  0  0
  -25.8800  -32.5400   23.8800 C   0  0  0  0  0  3  0  0  0  0  0  0
  -25.5710  -33.9390   24.2010 N   0  0  0  0  0  0  0  0  0  0  0  0
  -25.9060  -34.9860   23.4330 C   0  0  0  0  0  0  0  0  0  0  0  0
  -26.5810  -34.8770   22.4070 O   0  0  0  0  0  0  0  0  0  0  0  0
  -24.9780  -34.0980   25.0020 H   0  0  0  0  0  0  0  0  0  0  0  0
  -24.1830  -36.7770   23.0510 C   0  0  0  0  0  1  0  0  0  0  0  0
  -25.4150  -36.3770   23.8790 C   0  0  0  0  0  3  0  0  0  0  0  0
  -27.5410  -37.2640   24.7260 C   0  0  0  0  0  1  0  0  0  0  0  0
  -26.4500  -37.4290   23.7710 N   0  0  0  0  0  0  0  0  0  0  0  0
  -26.0420  -38.3490   23.9140 H   0  0  0  0  0  0  0  0  0  0  0  0
  -26.3960  -31.7750   25.1600 C   0  0  1  0  0  0  0  0  0  0  0  0
  -25.3050  -31.5420   26.2290 C   0  0  0  0  0  1  0  0  0  0  0  0
  -26.9840  -30.3990   24.7740 C   0  0  0  0  0  1  0  0  0  0  0  0
  -27.5430  -32.5760   25.8210 C   0  0  0  0  0  1  0  0  0  0  0  0
  1  2  1  0
  3  1  1  0
  4  5  1  0
  4  1  1  0
  7 12  1  0
  8  9  1  0
  8  7  1  0
 10  9  1  0
 10 21  1  0
 10 11  1  0
 12  6  1  0
 12 11  1  0
 13  6  2  0
 14 15  1  0
 14 17  1  0
 15 47  1  0
 15 16  1  0
 16  5  1  0
 17 16  1  0
 17  6  1  0
 18 19  2  0
 19 20  1  0
 19 38  1  0
 20 23  1  0
 21 18  1  0
 21 22  1  0
 22 20  2  0
 23 24  1  0
 24 25  2  0
 26 29  1  0
 26 25  1  0
 27 26  2  0
 28 27  1  0
 28 23  2  0
 29 30  1  0
 30 31  1  0
 31 32  2  0
 33 32  1  0
 33 37  1  0
 34 33  2  0
 35 30  2  0
 35 34  1  0
 36 35  1  0
 38 39  1  0
 39 42  1  0
 39 41  1  0
 40 38  2  0
 43 44  1  0
 43 18  1  0
 45 43  1  0
 47 49  1  0
 47 46  1  0
 48 47  1  0
 50 51  1  0
 50  1  1  0
 52 53  1  0
 52 51  1  0
 54 53  1  0
 55 66  2  0
 56 54  1  0
 56 61  1  0
 57 65  1  0
 57 67  1  0
 58 64  1  0
 58 60  1  0
 59 65  1  0
 60 61  2  0
 60 59  1  0
 62 56  2  0
 63 62  1  0
 63 58  2  0
 64 57  1  0
 65 55  1  0
 67 69  2  0
 68 67  1  0
 70 68  1  0
 71 80  2  0
 71 76  1  0
 72 68  1  0
 72 76  1  0
 73 72  1  0
 74 75  1  0
 74 73  1  0
 75 71  1  0
 76 77  2  0
 77 78  1  0
 79 78  2  0
 80 79  1  0
 81 55  1  0
 81 82  1  0
 81 91  1  0
 82 85  1  0
 83 87  1  0
 83 82  1  0
 84 83  2  0
 87 86  1  0
 89 87  1  0
 89 90  1  0
 89 88  1  0
 91 94  1  1
 91 92  1  0
 93 91  1  0
M  ISO  4   6 100  17 100  53 101  54 101
M  END
>  <TORSDO>  (27) 
F 23

>  <SCORE>  (27) 
-12.523

>  <name>  (27) 
26

>  <ligand_id>  (27) 
26

>  <original_smiles>  (27) 
[H]c1c([H])c([H])c2c(c1[H])C([H])([H])C([H])([H])C([H])([H])C2([H])N([H])C(=O)C1([H])N(C(=O)C([H])(N([H])C(=O)C([H])(N([H])C([H])([H])[H])C([H])([H])[H])C(C([H])([H])[H])(C([H])([H])[H])C([H])([H])[H])C([H])([H])c2c([H])c(OC([H])([H])C([H])([H])C([H])([H])C([H])([H])[N+]([H])([H])C([H])([H])C([H])([H])C3([H])N(C(=O)N4C([H])([H])C([H])([H])C([H])([H])C([H])(n5nc(-c6c([H])c([H])c(Oc7c([H])c([H])c(F)c([H])c7F)c([H])c6[H])c(C(=O)N([H])[H])c5N([H])[H])C4([H])[H])C([H])([H])C3([H])[N+]([H])([H])C([H])([H])[H])c([H])c([H])c2C1([H])[H]

>  <smiles>  (27) 
[H]c1c([H])c([H])c2c(c1[H])C([H])([H])C([H])([H])C([H])([H])C2([H])N([H])C(=O)C1([H])N(C(=O)C([H])(N([H])C(=O)C([H])(N([H])C([H])([H])[H])C([H])([H])[H])C(C([H])([H])[H])(C([H])([H])[H])C([H])([H])[H])C([H])([H])c2c([H])c(OC([H])([H])C([H])([H])C([H])([H])C([H])([H])[N+]([H])([H])C([H])([H])C([H])([H])C3([H])N(C(=O)N4C([H])([H])C([H])([H])C([H])([H])C([H])(n5nc(-c6c([H])c([H])c(Oc7c([H])c([H])c(F)c([H])c7F)c([H])c6[H])c(C(=O)N([H])[H])c5N([H])[H])C4([H])[H])C([H])([H])C3([H])[N+]([H])([H])C([H])([H])[H])c([H])c([H])c2C1([H])[H]

$$$$
27:0:0
     RDKit          3D

 90 98  0  0  1  0  0  0  0  0999 V2000
  -29.0690  -21.8300   20.4980 N   0  0  0  0  0  4  0  0  0  0  0  0
  -28.6640  -21.9520   21.4120 H   0  0  0  0  0  0  0  0  0  0  0  0
  -28.3130  -21.7400   19.8360 H   0  0  0  0  0  0  0  0  0  0  0  0
  -29.8700  -20.5620   20.5100 C   0  0  0  0  0  2  0  0  0  0  0  0
  -29.0580  -19.2240   20.5440 C   0  0  0  0  0  2  0  0  0  0  0  0
  -30.6560  -14.5030   20.1210 C   0  0  0  0  0  0  0  0  0  0  0  0
  -30.2670  -12.3750   18.9210 C   0  0  0  0  0  2  0  0  0  0  0  0
  -29.2620  -12.6040   17.7760 C   0  0  0  0  0  2  0  0  0  0  0  0
  -27.8170  -12.4550   18.2870 C   0  0  0  0  0  2  0  0  0  0  0  0
  -27.5530  -13.2680   19.5820 C   0  0  0  0  0  3  0  0  0  0  0  0
  -28.6670  -13.0310   20.6260 C   0  0  0  0  0  2  0  0  0  0  0  0
  -29.9550  -13.3410   19.9880 N   0  0  0  0  0  0  0  0  0  0  0  0
  -31.7420  -14.6820   19.5590 O   0  0  0  0  0  0  0  0  0  0  0  0
  -30.4100  -17.5800   22.0570 C   0  0  0  0  0  2  0  0  0  0  0  0
  -30.8360  -16.1080   21.9550 C   0  0  0  0  0  2  0  0  0  0  0  0
  -29.3220  -16.5890   20.2000 C   0  0  0  0  0  2  0  0  0  0  0  0
  -29.9450  -17.9350   20.6490 C   0  0  0  0  0  3  0  0  0  0  0  0
  -30.0800  -15.4950   20.8520 N   0  0  0  0  0  0  0  0  0  0  0  0
  -25.2040  -13.8680   20.4440 C   0  0  0  0  0  0  0  0  0  0  0  0
  -24.1560  -13.0910   20.8590 C   0  0  0  0  0  0  0  0  0  0  0  0
  -24.6080  -11.7390   20.7750 C   0  0  0  0  0  0  0  0  0  0  0  0
  -26.2290  -12.9870   20.1340 N   0  0  0  0  0  0  0  0  0  0  0  0
  -25.8790  -11.7010   20.3930 N   0  0  0  0  0  0  0  0  0  0  0  0
  -23.8880  -10.4760   20.9800 C   0  0  0  0  0  0  0  0  0  0  0  0
  -24.3500   -9.5040   21.8940 C   0  0  0  0  0  3  0  0  0  0  0  0
  -23.6320   -8.3040   22.0880 C   0  0  0  0  0  3  0  0  0  0  0  0
  -22.4370   -8.0680   21.3690 C   0  0  0  0  0  0  0  0  0  0  0  0
  -21.9920   -9.0300   20.4450 C   0  0  0  0  0  3  0  0  0  0  0  0
  -22.7120  -10.2210   20.2480 C   0  0  0  0  0  3  0  0  0  0  0  0
  -21.6860   -6.9220   21.4730 O   0  0  0  0  0  0  0  0  0  0  0  0
  -21.6510   -6.1890   22.6320 C   0  0  0  0  0  0  0  0  0  0  0  0
  -21.2460   -6.7570   23.8600 C   0  0  0  0  0  3  0  0  0  0  0  0
  -21.1540   -5.9500   25.0120 C   0  0  0  0  0  3  0  0  0  0  0  0
  -21.4570   -4.5770   24.9380 C   0  0  0  0  0  0  0  0  0  0  0  0
  -21.8550   -4.0090   23.7150 C   0  0  0  0  0  3  0  0  0  0  0  0
  -21.9480   -4.8130   22.5640 C   0  0  0  0  0  0  0  0  0  0  0  0
  -22.3110   -4.2560   21.3840 F   0  0  0  0  0  0  0  0  0  0  0  0
  -21.3610   -3.8000   26.0420 F   0  0  0  0  0  0  0  0  0  0  0  0
  -22.7780  -13.5680   21.2190 C   0  0  0  0  0  0  0  0  0  0  0  0
  -22.0980  -12.8600   22.1150 N   0  0  0  0  0  0  0  0  0  0  0  0
  -22.3150  -14.6010   20.7410 O   0  0  0  0  0  0  0  0  0  0  0  0
  -22.4860  -12.0240   22.5250 H   0  0  0  0  0  0  0  0  0  0  0  0
  -21.1760  -13.1620   22.3950 H   0  0  0  0  0  0  0  0  0  0  0  0
  -25.3660  -15.2400   20.2840 N   0  0  0  0  0  0  0  0  0  0  0  0
  -24.6120  -15.8990   20.4510 H   0  0  0  0  0  0  0  0  0  0  0  0
  -26.2030  -15.6810   19.9250 H   0  0  0  0  0  0  0  0  0  0  0  0
  -29.8660  -23.0460   20.1370 C   0  0  0  0  0  2  0  0  0  0  0  0
  -29.3820  -24.4300   20.6920 C   0  0  0  0  0  2  0  0  0  0  0  0
  -28.3290  -25.2370   19.8810 C   0  0  0  0  0  2  0  0  0  0  0  0
  -28.3730  -26.6510   20.2070 O   0  0  0  0  0  0  0  0  0  0  0  0
  -24.5960  -31.8900   23.2490 C   0  0  0  0  0  0  0  0  0  0  0  0
  -27.2090  -27.4060   20.1610 C   0  0  0  0  0  0  0  0  0  0  0  0
  -23.3810  -30.4950   21.6110 C   0  0  0  0  0  3  0  0  0  0  0  0
  -24.8230  -28.9530   20.1780 C   0  0  0  0  0  0  0  0  0  0  0  0
  -25.9110  -30.8350   21.4090 C   0  0  0  0  0  2  0  0  0  0  0  0
  -25.9880  -29.4610   20.7660 C   0  0  0  0  0  0  0  0  0  0  0  0
  -27.1800  -28.6950   20.7550 C   0  0  0  0  0  3  0  0  0  0  0  0
  -26.0240  -26.9330   19.5470 C   0  0  0  0  0  3  0  0  0  0  0  0
  -24.8390  -27.6910   19.5660 C   0  0  0  0  0  3  0  0  0  0  0  0
  -23.5850  -29.8200   20.2290 C   0  0  0  0  0  2  0  0  0  0  0  0
  -24.6480  -31.0890   22.1470 N   0  0  0  0  0  0  0  0  0  0  0  0
  -23.5170  -32.1630   23.7940 O   0  0  0  0  0  0  0  0  0  0  0  0
  -22.7300  -29.4720   22.5710 C   0  0  0  0  0  0  0  0  0  0  0  0
  -21.4050  -29.2890   22.4430 N   0  0  0  0  0  0  0  0  0  0  0  0
  -23.4140  -28.8480   23.3870 O   0  0  0  0  0  0  0  0  0  0  0  0
  -20.9140  -29.8440   21.7550 H   0  0  0  0  0  0  0  0  0  0  0  0
  -18.0320  -28.0860   22.9380 C   0  0  0  0  0  0  0  0  0  0  0  0
  -20.5890  -28.3520   23.2160 C   0  0  0  0  0  3  0  0  0  0  0  0
  -20.6970  -26.9190   22.6470 C   0  0  0  0  0  2  0  0  0  0  0  0
  -19.5990  -26.5900   21.6300 C   0  0  0  0  0  2  0  0  0  0  0  0
  -18.2150  -26.7340   22.2690 C   0  0  0  0  0  2  0  0  0  0  0  0
  -19.1480  -28.8530   23.3680 C   0  0  0  0  0  0  0  0  0  0  0  0
  -18.9240  -30.1180   23.9530 C   0  0  0  0  0  3  0  0  0  0  0  0
  -17.6170  -30.6170   24.1100 C   0  0  0  0  0  3  0  0  0  0  0  0
  -16.5170  -29.8480   23.6950 C   0  0  0  0  0  3  0  0  0  0  0  0
  -16.7240  -28.5840   23.1150 C   0  0  0  0  0  3  0  0  0  0  0  0
  -25.8850  -32.5180   23.8650 C   0  0  0  0  0  3  0  0  0  0  0  0
  -25.5780  -33.9140   24.2020 N   0  0  0  0  0  0  0  0  0  0  0  0
  -25.9060  -34.9680   23.4430 C   0  0  0  0  0  0  0  0  0  0  0  0
  -26.5690  -34.8680   22.4070 O   0  0  0  0  0  0  0  0  0  0  0  0
  -24.9880  -34.0680   25.0060 H   0  0  0  0  0  0  0  0  0  0  0  0
  -24.1700  -36.7570   23.1060 C   0  0  0  0  0  1  0  0  0  0  0  0
  -25.4200  -36.3550   23.9060 C   0  0  0  0  0  3  0  0  0  0  0  0
  -27.5630  -37.2390   24.7160 C   0  0  0  0  0  1  0  0  0  0  0  0
  -26.4500  -37.4100   23.7850 N   0  0  0  0  0  0  0  0  0  0  0  0
  -26.0440  -38.3300   23.9410 H   0  0  0  0  0  0  0  0  0  0  0  0
  -26.4090  -31.7410   25.1350 C   0  0  1  0  0  0  0  0  0  0  0  0
  -25.3210  -31.5010   26.2080 C   0  0  0  0  0  1  0  0  0  0  0  0
  -26.9890  -30.3670   24.7340 C   0  0  0  0  0  1  0  0  0  0  0  0
  -27.5650  -32.5330   25.7930 C   0  0  0  0  0  1  0  0  0  0  0  0
  1  4  1  0
  1  2  1  0
  3  1  1  0
  4  5  1  0
  6 18  1  0
  7 12  1  0
  8  9  1  0
  8  7  1  0
 10  9  1  0
 10 22  1  0
 10 11  1  0
 12  6  1  0
 12 11  1  0
 13  6  2  0
 15 14  1  0
 16 17  1  0
 16 18  1  0
 17  5  1  0
 17 14  1  0
 18 15  1  0
 19 20  2  0
 20 39  1  0
 21 20  1  0
 21 24  1  0
 22 23  1  0
 22 19  1  0
 23 21  2  0
 24 25  1  0
 25 26  2  0
 27 30  1  0
 27 26  1  0
 28 27  2  0
 29 28  1  0
 29 24  2  0
 30 31  1  0
 31 32  1  0
 32 33  2  0
 34 33  1  0
 34 38  1  0
 35 34  2  0
 36 31  2  0
 36 35  1  0
 37 36  1  0
 39 40  1  0
 40 43  1  0
 40 42  1  0
 41 39  2  0
 44 19  1  0
 44 45  1  0
 46 44  1  0
 47  1  1  0
 47 48  1  0
 49 50  1  0
 49 48  1  0
 51 62  2  0
 52 50  1  0
 52 57  1  0
 53 61  1  0
 53 63  1  0
 54 60  1  0
 54 56  1  0
 55 61  1  0
 56 55  1  0
 57 56  2  0
 58 59  1  0
 58 52  2  0
 59 54  2  0
 60 53  1  0
 61 51  1  0
 63 65  2  0
 64 63  1  0
 66 64  1  0
 67 76  2  0
 67 72  1  0
 68 64  1  0
 68 72  1  0
 69 68  1  0
 70 71  1  0
 70 69  1  0
 71 67  1  0
 72 73  2  0
 73 74  1  0
 75 74  2  0
 76 75  1  0
 77 51  1  0
 77 78  1  0
 77 87  1  0
 78 81  1  0
 79 83  1  0
 79 78  1  0
 80 79  2  0
 83 82  1  0
 85 83  1  0
 85 86  1  0
 85 84  1  0
 87 90  1  1
 87 88  1  0
 89 87  1  0
M  ISO  4   6 100  18 100  49 101  50 101
M  END
>  <TORSDO>  (28) 
F 21

>  <SCORE>  (28) 
-13.364

>  <name>  (28) 
27

>  <ligand_id>  (28) 
27

>  <original_smiles>  (28) 
[H]c1c([H])c([H])c2c(c1[H])C([H])([H])C([H])([H])C([H])([H])C2([H])N([H])C(=O)C1([H])N(C(=O)C([H])(N([H])C(=O)C([H])(N([H])C([H])([H])[H])C([H])([H])[H])C(C([H])([H])[H])(C([H])([H])[H])C([H])([H])[H])C([H])([H])c2c([H])c(OC([H])([H])C([H])([H])C([H])([H])[N+]([H])([H])C([H])([H])C([H])([H])C3([H])C([H])([H])N(C(=O)N4C([H])([H])C([H])([H])C([H])([H])C([H])(n5nc(-c6c([H])c([H])c(Oc7c([H])c([H])c(F)c([H])c7F)c([H])c6[H])c(C(=O)N([H])[H])c5N([H])[H])C4([H])[H])C([H])([H])C3([H])[H])c([H])c([H])c2C1([H])[H]

>  <smiles>  (28) 
[H]c1c([H])c([H])c2c(c1[H])C([H])([H])C([H])([H])C([H])([H])C2([H])N([H])C(=O)C1([H])N(C(=O)C([H])(N([H])C(=O)C([H])(N([H])C([H])([H])[H])C([H])([H])[H])C(C([H])([H])[H])(C([H])([H])[H])C([H])([H])[H])C([H])([H])c2c([H])c(OC([H])([H])C([H])([H])C([H])([H])[N+]([H])([H])C([H])([H])C([H])([H])C3([H])C([H])([H])N(C(=O)N4C([H])([H])C([H])([H])C([H])([H])C([H])(n5nc(-c6c([H])c([H])c(Oc7c([H])c([H])c(F)c([H])c7F)c([H])c6[H])c(C(=O)N([H])[H])c5N([H])[H])C4([H])[H])C([H])([H])C3([H])[H])c([H])c([H])c2C1([H])[H]

$$$$
28:0:0
     RDKit          3D

 93101  0  0  1  0  0  0  0  0999 V2000
  -29.2620  -22.3250   19.7360 N   0  0  0  0  0  4  0  0  0  0  0  0
  -29.5100  -22.0310   20.6670 H   0  0  0  0  0  0  0  0  0  0  0  0
  -28.2640  -22.4520   19.7030 H   0  0  0  0  0  0  0  0  0  0  0  0
  -29.6480  -21.2560   18.7760 C   0  0  0  0  0  2  0  0  0  0  0  0
  -28.8470  -19.9250   18.8760 C   0  0  0  0  0  2  0  0  0  0  0  0
  -29.0220  -19.1260   20.1620 C   0  0  0  0  0  3  0  0  0  0  0  0
  -29.2520  -17.8690   20.1980 N   0  0  0  0  0  0  0  0  0  0  0  0
  -30.3770  -14.3210   19.7840 C   0  0  0  0  0  0  0  0  0  0  0  0
  -29.8290  -12.3220   18.4230 C   0  0  0  0  0  2  0  0  0  0  0  0
  -28.7580  -12.6770   17.3720 C   0  0  0  0  0  2  0  0  0  0  0  0
  -27.3430  -12.5210   17.9620 C   0  0  0  0  0  2  0  0  0  0  0  0
  -27.1960  -13.2130   19.3410 C   0  0  0  0  0  3  0  0  0  0  0  0
  -28.3680  -12.8390   20.2760 C   0  0  0  0  0  2  0  0  0  0  0  0
  -29.6240  -13.1970   19.5930 N   0  0  0  0  0  0  0  0  0  0  0  0
  -31.3120  -14.6050   19.0200 O   0  0  0  0  0  0  0  0  0  0  0  0
  -31.8530  -16.7180   21.6730 C   0  0  0  0  0  2  0  0  0  0  0  0
  -30.7040  -17.5990   22.1840 C   0  0  0  0  0  2  0  0  0  0  0  0
  -31.4830  -15.2280   21.7730 C   0  0  0  0  0  2  0  0  0  0  0  0
  -29.1080  -15.7170   21.4520 C   0  0  0  0  0  2  0  0  0  0  0  0
  -29.3530  -17.2530   21.5170 C   0  0  0  0  0  3  0  0  0  0  0  0
  -30.2760  -14.9320   20.9900 N   0  0  0  0  0  0  0  0  0  0  0  0
  -24.8720  -13.7910   20.2930 C   0  0  0  0  0  0  0  0  0  0  0  0
  -23.8630  -13.0070   20.7790 C   0  0  0  0  0  0  0  0  0  0  0  0
  -24.3390  -11.6620   20.7110 C   0  0  0  0  0  0  0  0  0  0  0  0
  -25.9010  -12.9230   19.9540 N   0  0  0  0  0  0  0  0  0  0  0  0
  -25.5850  -11.6370   20.2530 N   0  0  0  0  0  0  0  0  0  0  0  0
  -23.6560  -10.3910   20.9880 C   0  0  0  0  0  0  0  0  0  0  0  0
  -24.1810   -9.4560   21.9090 C   0  0  0  0  0  3  0  0  0  0  0  0
  -23.4970   -8.2480   22.1740 C   0  0  0  0  0  3  0  0  0  0  0  0
  -22.2760   -7.9660   21.5150 C   0  0  0  0  0  0  0  0  0  0  0  0
  -21.7700   -8.8890   20.5840 C   0  0  0  0  0  3  0  0  0  0  0  0
  -22.4540  -10.0860   20.3180 C   0  0  0  0  0  3  0  0  0  0  0  0
  -21.5590   -6.8060   21.6880 O   0  0  0  0  0  0  0  0  0  0  0  0
  -21.6080   -6.0980   22.8620 C   0  0  0  0  0  0  0  0  0  0  0  0
  -21.2620   -6.6830   24.1000 C   0  0  0  0  0  3  0  0  0  0  0  0
  -21.2560   -5.8990   25.2700 C   0  0  0  0  0  3  0  0  0  0  0  0
  -21.5880   -4.5320   25.2050 C   0  0  0  0  0  0  0  0  0  0  0  0
  -21.9290   -3.9460   23.9720 C   0  0  0  0  0  3  0  0  0  0  0  0
  -21.9350   -4.7280   22.8030 C   0  0  0  0  0  0  0  0  0  0  0  0
  -22.2420   -4.1550   21.6150 F   0  0  0  0  0  0  0  0  0  0  0  0
  -21.5770   -3.7780   26.3270 F   0  0  0  0  0  0  0  0  0  0  0  0
  -22.4970  -13.4690   21.2000 C   0  0  0  0  0  0  0  0  0  0  0  0
  -21.8840  -12.7780   22.1570 N   0  0  0  0  0  0  0  0  0  0  0  0
  -21.9820  -14.4780   20.7180 O   0  0  0  0  0  0  0  0  0  0  0  0
  -22.3180  -11.9610   22.5620 H   0  0  0  0  0  0  0  0  0  0  0  0
  -20.9750  -13.0690   22.4850 H   0  0  0  0  0  0  0  0  0  0  0  0
  -24.9940  -15.1630   20.0950 N   0  0  0  0  0  0  0  0  0  0  0  0
  -24.2320  -15.8030   20.2870 H   0  0  0  0  0  0  0  0  0  0  0  0
  -25.7930  -15.6110   19.6680 H   0  0  0  0  0  0  0  0  0  0  0  0
  -29.9140  -23.6370   19.4750 C   0  0  0  0  0  2  0  0  0  0  0  0
  -29.7600  -24.6480   20.6390 C   0  0  0  0  0  2  0  0  0  0  0  0
  -28.4220  -25.4180   20.7110 C   0  0  0  0  0  2  0  0  0  0  0  0
  -28.5120  -26.7130   20.1030 O   0  0  0  0  0  0  0  0  0  0  0  0
  -24.7190  -31.8760   23.2280 C   0  0  0  0  0  0  0  0  0  0  0  0
  -27.3410  -27.4360   20.1300 C   0  0  0  0  0  0  0  0  0  0  0  0
  -23.4970  -30.4690   21.6000 C   0  0  0  0  0  3  0  0  0  0  0  0
  -24.9380  -28.9250   20.1720 C   0  0  0  0  0  0  0  0  0  0  0  0
  -26.0200  -30.8340   21.3730 C   0  0  0  0  0  2  0  0  0  0  0  0
  -26.1030  -29.4600   20.7380 C   0  0  0  0  0  0  0  0  0  0  0  0
  -27.3100  -28.7250   20.7080 C   0  0  0  0  0  3  0  0  0  0  0  0
  -26.1580  -26.9090   19.5640 C   0  0  0  0  0  3  0  0  0  0  0  0
  -24.9600  -27.6490   19.5850 C   0  0  0  0  0  3  0  0  0  0  0  0
  -23.6930  -29.7830   20.2220 C   0  0  0  0  0  2  0  0  0  0  0  0
  -24.7640  -31.0720   22.1260 N   0  0  0  0  0  0  0  0  0  0  0  0
  -23.6420  -32.1480   23.7770 O   0  0  0  0  0  0  0  0  0  0  0  0
  -22.8530  -29.4510   22.5680 C   0  0  0  0  0  0  0  0  0  0  0  0
  -21.5290  -29.2670   22.4460 N   0  0  0  0  0  0  0  0  0  0  0  0
  -23.5420  -28.8300   23.3810 O   0  0  0  0  0  0  0  0  0  0  0  0
  -21.0340  -29.8200   21.7600 H   0  0  0  0  0  0  0  0  0  0  0  0
  -18.1560  -28.0780   22.9650 C   0  0  0  0  0  0  0  0  0  0  0  0
  -20.7160  -28.3320   23.2240 C   0  0  0  0  0  3  0  0  0  0  0  0
  -20.8140  -26.8990   22.6500 C   0  0  0  0  0  2  0  0  0  0  0  0
  -19.7060  -26.5760   21.6430 C   0  0  0  0  0  2  0  0  0  0  0  0
  -18.3270  -26.7270   22.2930 C   0  0  0  0  0  2  0  0  0  0  0  0
  -19.2790  -28.8400   23.3880 C   0  0  0  0  0  0  0  0  0  0  0  0
  -19.0670  -30.1050   23.9750 C   0  0  0  0  0  3  0  0  0  0  0  0
  -17.7630  -30.6120   24.1450 C   0  0  0  0  0  3  0  0  0  0  0  0
  -16.6560  -29.8470   23.7380 C   0  0  0  0  0  3  0  0  0  0  0  0
  -16.8530  -28.5830   23.1540 C   0  0  0  0  0  3  0  0  0  0  0  0
  -26.0100  -32.5050   23.8360 C   0  0  0  0  0  3  0  0  0  0  0  0
  -26.5430  -31.7290   25.1020 C   0  0  1  0  0  0  0  0  0  0  0  0
  -25.4640  -31.4850   26.1830 C   0  0  0  0  0  1  0  0  0  0  0  0
  -27.1240  -30.3540   24.6940 C   0  0  0  0  0  1  0  0  0  0  0  0
  -27.7020  -32.5220   25.7540 C   0  0  0  0  0  1  0  0  0  0  0  0
  -25.7050  -33.9020   24.1720 N   0  0  0  0  0  0  0  0  0  0  0  0
  -26.0270  -34.9530   23.4060 C   0  0  0  0  0  0  0  0  0  0  0  0
  -26.6820  -34.8500   22.3660 O   0  0  0  0  0  0  0  0  0  0  0  0
  -25.1210  -34.0570   24.9790 H   0  0  0  0  0  0  0  0  0  0  0  0
  -24.2930  -36.7430   23.0690 C   0  0  0  0  0  1  0  0  0  0  0  0
  -25.5430  -36.3410   23.8680 C   0  0  0  0  0  3  0  0  0  0  0  0
  -27.6870  -37.2270   24.6740 C   0  0  0  0  0  1  0  0  0  0  0  0
  -26.5730  -37.3960   23.7440 N   0  0  0  0  0  0  0  0  0  0  0  0
  -26.1670  -38.3140   23.8990 H   0  0  0  0  0  0  0  0  0  0  0  0
  1  2  1  0
  3  1  1  0
  4  5  1  0
  4  1  1  0
  5  6  1  0
  6  7  2  0
  8 21  1  0
  9 14  1  0
 10 11  1  0
 10  9  1  0
 12 11  1  0
 12 25  1  0
 12 13  1  0
 14  8  1  0
 14 13  1  0
 15  8  2  0
 16 18  1  0
 16 17  1  0
 19 20  1  0
 20  7  1  0
 20 17  1  0
 21 19  1  0
 21 18  1  0
 22 23  2  0
 23 42  1  0
 24 23  1  0
 24 27  1  0
 25 26  1  0
 25 22  1  0
 26 24  2  0
 27 28  1  0
 28 29  2  0
 30 33  1  0
 30 29  1  0
 31 30  2  0
 32 31  1  0
 32 27  2  0
 33 34  1  0
 34 35  1  0
 35 36  2  0
 37 36  1  0
 37 41  1  0
 38 37  2  0
 39 34  2  0
 39 38  1  0
 40 39  1  0
 42 43  1  0
 43 46  1  0
 43 45  1  0
 44 42  2  0
 47 48  1  0
 47 22  1  0
 49 47  1  0
 50  1  1  0
 50 51  1  0
 51 52  1  0
 53 55  1  0
 53 52  1  0
 54 65  2  0
 55 60  1  0
 56 64  1  0
 56 66  1  0
 57 63  1  0
 57 59  1  0
 58 64  1  0
 59 58  1  0
 60 59  2  0
 61 62  1  0
 61 55  2  0
 62 57  2  0
 63 56  1  0
 64 54  1  0
 66 68  2  0
 67 66  1  0
 69 67  1  0
 70 79  2  0
 70 75  1  0
 71 67  1  0
 71 75  1  0
 72 71  1  0
 73 74  1  0
 73 72  1  0
 74 70  1  0
 75 76  2  0
 76 77  1  0
 78 77  2  0
 79 78  1  0
 80 54  1  0
 80 85  1  0
 80 81  1  0
 81 84  1  1
 81 82  1  0
 83 81  1  0
 85 88  1  0
 86 90  1  0
 86 85  1  0
 87 86  2  0
 90 89  1  0
 92 90  1  0
 92 93  1  0
 92 91  1  0
M  ISO  4   8 100  21 100  52 101  53 101
M  END
>  <TORSDO>  (29) 
F 22

>  <SCORE>  (29) 
-10.698

>  <name>  (29) 
28

>  <ligand_id>  (29) 
28

>  <original_smiles>  (29) 
[H]C(=NC1([H])C([H])([H])N(C(=O)N2C([H])([H])C([H])([H])C([H])([H])C([H])(n3nc(-c4c([H])c([H])c(Oc5c([H])c([H])c(F)c([H])c5F)c([H])c4[H])c(C(=O)N([H])[H])c3N([H])[H])C2([H])[H])C([H])([H])C([H])([H])C1([H])[H])C([H])([H])C([H])([H])[N+]([H])([H])C([H])([H])C([H])([H])C([H])([H])Oc1c([H])c([H])c2c(c1[H])C([H])([H])N(C(=O)C([H])(N([H])C(=O)C([H])(N([H])C([H])([H])[H])C([H])([H])[H])C(C([H])([H])[H])(C([H])([H])[H])C([H])([H])[H])C([H])(C(=O)N([H])C1([H])c3c([H])c([H])c([H])c([H])c3C([H])([H])C([H])([H])C1([H])[H])C2([H])[H]

>  <smiles>  (29) 
[H]C(=NC1([H])C([H])([H])N(C(=O)N2C([H])([H])C([H])([H])C([H])([H])C([H])(n3nc(-c4c([H])c([H])c(Oc5c([H])c([H])c(F)c([H])c5F)c([H])c4[H])c(C(=O)N([H])[H])c3N([H])[H])C2([H])[H])C([H])([H])C([H])([H])C1([H])[H])C([H])([H])C([H])([H])[N+]([H])([H])C([H])([H])C([H])([H])C([H])([H])Oc1c([H])c([H])c2c(c1[H])C([H])([H])N(C(=O)C([H])(N([H])C(=O)C([H])(N([H])C([H])([H])[H])C([H])([H])[H])C(C([H])([H])[H])(C([H])([H])[H])C([H])([H])[H])C([H])(C(=O)N([H])C1([H])c3c([H])c([H])c([H])c([H])c3C([H])([H])C([H])([H])C1([H])[H])C2([H])[H]

$$$$
29:0:0
     RDKit          3D

 96104  0  0  1  0  0  0  0  0999 V2000
  -31.6470  -17.6770   16.9520 C   0  0  0  0  0  2  0  0  0  0  0  0
  -31.3510  -17.0160   18.2970 C   0  0  0  0  0  2  0  0  0  0  0  0
  -31.2090  -19.8710   18.0340 C   0  0  0  0  0  2  0  0  0  0  0  0
  -32.2090  -19.0750   17.1880 C   0  0  0  0  0  3  0  0  0  0  0  0
  -30.4770  -17.8480   19.2790 C   0  0  0  0  0  3  0  0  0  0  0  0
  -30.9430  -19.2800   19.3670 N   0  0  0  0  0  0  0  0  0  0  0  0
  -33.5360  -19.0590   17.8270 N   0  0  0  0  0  4  0  0  0  0  0  0
  -33.4500  -18.6930   18.7570 H   0  0  0  0  0  0  0  0  0  0  0  0
  -33.9030  -19.9920   17.8920 H   0  0  0  0  0  0  0  0  0  0  0  0
  -34.1810  -18.4980   17.2980 H   0  0  0  0  0  0  0  0  0  0  0  0
  -30.4800  -17.0920   20.6690 C   0  0  0  0  0  2  0  0  0  0  0  0
  -30.7010  -14.5420   20.4990 C   0  0  0  0  0  0  0  0  0  0  0  0
  -30.4000  -12.3320   19.4460 C   0  0  0  0  0  2  0  0  0  0  0  0
  -29.4930  -12.4890   18.2100 C   0  0  0  0  0  2  0  0  0  0  0  0
  -28.0110  -12.3580   18.6090 C   0  0  0  0  0  2  0  0  0  0  0  0
  -27.6360  -13.2450   19.8280 C   0  0  0  0  0  3  0  0  0  0  0  0
  -28.6690  -13.1100   20.9680 C   0  0  0  0  0  2  0  0  0  0  0  0
  -30.0020  -13.3760   20.4060 N   0  0  0  0  0  0  0  0  0  0  0  0
  -31.8970  -14.6080   20.2210 O   0  0  0  0  0  0  0  0  0  0  0  0
  -29.9840  -15.6820   20.6740 N   0  0  0  0  0  0  0  0  0  0  0  0
  -28.9960  -15.5610   20.8410 H   0  0  0  0  0  0  0  0  0  0  0  0
  -25.2290  -13.8650   20.4850 C   0  0  0  0  0  0  0  0  0  0  0  0
  -24.1490  -13.1030   20.8390 C   0  0  0  0  0  0  0  0  0  0  0  0
  -24.6050  -11.7480   20.8400 C   0  0  0  0  0  0  0  0  0  0  0  0
  -26.2750  -12.9770   20.2900 N   0  0  0  0  0  0  0  0  0  0  0  0
  -25.9030  -11.7000   20.5640 N   0  0  0  0  0  0  0  0  0  0  0  0
  -23.8640  -10.4930   21.0310 C   0  0  0  0  0  0  0  0  0  0  0  0
  -24.2740   -9.5310   21.9800 C   0  0  0  0  0  3  0  0  0  0  0  0
  -23.5370   -8.3410   22.1590 C   0  0  0  0  0  3  0  0  0  0  0  0
  -22.3740   -8.1040   21.3890 C   0  0  0  0  0  0  0  0  0  0  0  0
  -21.9810   -9.0550   20.4310 C   0  0  0  0  0  3  0  0  0  0  0  0
  -22.7180  -10.2380   20.2510 C   0  0  0  0  0  3  0  0  0  0  0  0
  -21.6100   -6.9650   21.4760 O   0  0  0  0  0  0  0  0  0  0  0  0
  -21.5470   -6.2250   22.6290 C   0  0  0  0  0  0  0  0  0  0  0  0
  -21.1330   -6.7900   23.8560 C   0  0  0  0  0  3  0  0  0  0  0  0
  -21.0180   -5.9780   25.0010 C   0  0  0  0  0  3  0  0  0  0  0  0
  -21.3060   -4.6020   24.9210 C   0  0  0  0  0  0  0  0  0  0  0  0
  -21.7150   -4.0370   23.7000 C   0  0  0  0  0  3  0  0  0  0  0  0
  -21.8330   -4.8460   22.5580 C   0  0  0  0  0  0  0  0  0  0  0  0
  -22.2050   -4.2940   21.3780 F   0  0  0  0  0  0  0  0  0  0  0  0
  -21.1890   -3.8200   26.0190 F   0  0  0  0  0  0  0  0  0  0  0  0
  -22.7480  -13.5920   21.0680 C   0  0  0  0  0  0  0  0  0  0  0  0
  -21.9950  -12.9140   21.9270 N   0  0  0  0  0  0  0  0  0  0  0  0
  -22.3280  -14.6110   20.5210 O   0  0  0  0  0  0  0  0  0  0  0  0
  -22.3470  -12.0880   22.3890 H   0  0  0  0  0  0  0  0  0  0  0  0
  -21.0550  -13.2220   22.1230 H   0  0  0  0  0  0  0  0  0  0  0  0
  -25.4060  -15.2310   20.2870 N   0  0  0  0  0  0  0  0  0  0  0  0
  -24.6300  -15.8830   20.3350 H   0  0  0  0  0  0  0  0  0  0  0  0
  -26.2630  -15.6610   19.9620 H   0  0  0  0  0  0  0  0  0  0  0  0
  -29.9180  -20.1740   19.9790 C   0  0  0  0  0  2  0  0  0  0  0  0
  -30.9530  -21.6760   21.7500 C   0  0  0  0  0  1  0  0  0  0  0  0
  -30.3470  -21.6570   20.3380 C   0  0  0  0  0  3  0  0  0  0  0  0
  -29.1700  -22.6880   20.1790 C   0  0  0  0  0  2  0  0  0  0  0  0
  -29.4580  -24.2260   20.3710 C   0  0  0  0  0  2  0  0  0  0  0  0
  -28.2600  -25.1470   19.9460 C   0  0  0  0  0  2  0  0  0  0  0  0
  -28.3770  -26.5780   20.2110 O   0  0  0  0  0  0  0  0  0  0  0  0
  -24.5840  -31.8580   23.2380 C   0  0  0  0  0  0  0  0  0  0  0  0
  -27.2160  -27.3540   20.1700 C   0  0  0  0  0  0  0  0  0  0  0  0
  -23.3760  -30.4610   21.5950 C   0  0  0  0  0  3  0  0  0  0  0  0
  -24.8290  -28.9140   20.1730 C   0  0  0  0  0  0  0  0  0  0  0  0
  -25.9090  -30.7950   21.4080 C   0  0  0  0  0  2  0  0  0  0  0  0
  -25.9920  -29.4190   20.7680 C   0  0  0  0  0  0  0  0  0  0  0  0
  -27.1840  -28.6460   20.7610 C   0  0  0  0  0  3  0  0  0  0  0  0
  -26.0260  -26.8850   19.5610 C   0  0  0  0  0  3  0  0  0  0  0  0
  -24.8440  -27.6490   19.5700 C   0  0  0  0  0  3  0  0  0  0  0  0
  -23.5880  -29.7810   20.2170 C   0  0  0  0  0  2  0  0  0  0  0  0
  -24.6430  -31.0530   22.1410 N   0  0  0  0  0  0  0  0  0  0  0  0
  -23.5010  -32.1360   23.7740 O   0  0  0  0  0  0  0  0  0  0  0  0
  -22.7150  -29.4450   22.5570 C   0  0  0  0  0  0  0  0  0  0  0  0
  -21.3880  -29.2740   22.4340 N   0  0  0  0  0  0  0  0  0  0  0  0
  -23.3950  -28.8140   23.3700 O   0  0  0  0  0  0  0  0  0  0  0  0
  -20.9000  -29.8360   21.7490 H   0  0  0  0  0  0  0  0  0  0  0  0
  -18.0040  -28.1100   22.9380 C   0  0  0  0  0  0  0  0  0  0  0  0
  -20.5650  -28.3410   23.2030 C   0  0  0  0  0  3  0  0  0  0  0  0
  -20.6540  -26.9110   22.6220 C   0  0  0  0  0  2  0  0  0  0  0  0
  -19.5460  -26.6020   21.6120 C   0  0  0  0  0  2  0  0  0  0  0  0
  -18.1660  -26.7600   22.2590 C   0  0  0  0  0  2  0  0  0  0  0  0
  -19.1310  -28.8580   23.3700 C   0  0  0  0  0  0  0  0  0  0  0  0
  -18.9280  -30.1220   23.9650 C   0  0  0  0  0  3  0  0  0  0  0  0
  -17.6280  -30.6360   24.1370 C   0  0  0  0  0  3  0  0  0  0  0  0
  -16.5140  -29.8820   23.7270 C   0  0  0  0  0  3  0  0  0  0  0  0
  -16.7040  -28.6240   23.1300 C   0  0  0  0  0  3  0  0  0  0  0  0
  -25.8690  -32.4860   23.8620 C   0  0  0  0  0  3  0  0  0  0  0  0
  -26.3830  -31.7130   25.1370 C   0  0  1  0  0  0  0  0  0  0  0  0
  -25.2880  -31.4840   26.2060 C   0  0  0  0  0  1  0  0  0  0  0  0
  -26.9590  -30.3330   24.7430 C   0  0  0  0  0  1  0  0  0  0  0  0
  -27.5380  -32.5010   25.8000 C   0  0  0  0  0  1  0  0  0  0  0  0
  -25.5650  -33.8860   24.1900 N   0  0  0  0  0  0  0  0  0  0  0  0
  -25.9030  -34.9350   23.4300 C   0  0  0  0  0  0  0  0  0  0  0  0
  -26.5730  -34.8280   22.3990 O   0  0  0  0  0  0  0  0  0  0  0  0
  -24.9730  -34.0460   24.9920 H   0  0  0  0  0  0  0  0  0  0  0  0
  -24.1830  -36.7340   23.0770 C   0  0  0  0  0  1  0  0  0  0  0  0
  -25.4220  -36.3250   23.8870 C   0  0  0  0  0  3  0  0  0  0  0  0
  -27.5610  -37.2020   24.7150 C   0  0  0  0  0  1  0  0  0  0  0  0
  -26.4580  -37.3730   23.7720 N   0  0  0  0  0  0  0  0  0  0  0  0
  -26.0560  -38.2950   23.9220 H   0  0  0  0  0  0  0  0  0  0  0  0
  1  4  1  0
  1  2  1  0
  2  5  1  0
  3  6  1  0
  4  7  1  0
  4  3  1  0
  5  6  1  0
  5 11  1  0
  6 50  1  0
  7  9  1  0
  7  8  1  0
 10  7  1  0
 11 20  1  0
 12 20  1  0
 13 18  1  0
 14 15  1  0
 14 13  1  0
 16 15  1  0
 16 25  1  0
 16 17  1  0
 18 12  1  0
 18 17  1  0
 19 12  2  0
 20 21  1  0
 22 23  2  0
 23 24  1  0
 23 42  1  0
 24 27  1  0
 25 22  1  0
 25 26  1  0
 26 24  2  0
 27 28  1  0
 28 29  2  0
 30 33  1  0
 30 29  1  0
 31 30  2  0
 32 31  1  0
 32 27  2  0
 33 34  1  0
 34 35  1  0
 35 36  2  0
 37 36  1  0
 37 41  1  0
 38 37  2  0
 39 34  2  0
 39 38  1  0
 40 39  1  0
 42 43  1  0
 43 46  1  0
 43 45  1  0
 44 42  2  0
 47 48  1  0
 47 22  1  0
 49 47  1  0
 50 52  1  0
 52 51  1  0
 53 52  1  0
 53 54  1  0
 55 56  1  0
 55 54  1  0
 57 68  2  0
 58 56  1  0
 58 63  1  0
 59 67  1  0
 59 69  1  0
 60 66  1  0
 60 62  1  0
 61 67  1  0
 62 61  1  0
 63 62  2  0
 64 65  1  0
 64 58  2  0
 65 60  2  0
 66 59  1  0
 67 57  1  0
 69 71  2  0
 70 69  1  0
 72 70  1  0
 73 82  2  0
 73 78  1  0
 74 70  1  0
 74 78  1  0
 75 74  1  0
 76 77  1  0
 76 75  1  0
 77 73  1  0
 78 79  2  0
 79 80  1  0
 81 80  2  0
 82 81  1  0
 83 57  1  0
 83 88  1  0
 83 84  1  0
 84 87  1  1
 84 85  1  0
 86 84  1  0
 88 91  1  0
 89 93  1  0
 89 88  1  0
 90 89  2  0
 93 92  1  0
 95 93  1  0
 95 96  1  0
 95 94  1  0
M  ISO  4  12 100  20 100  55 101  56 101
M  END
>  <TORSDO>  (30) 
F 23

>  <SCORE>  (30) 
-12.936

>  <name>  (30) 
29

>  <ligand_id>  (30) 
29

>  <original_smiles>  (30) 
[H]c1c([H])c([H])c2c(c1[H])C([H])([H])C([H])([H])C([H])([H])C2([H])N([H])C(=O)C1([H])N(C(=O)C([H])(N([H])C(=O)C([H])(N([H])C([H])([H])[H])C([H])([H])[H])C(C([H])([H])[H])(C([H])([H])[H])C([H])([H])[H])C([H])([H])c2c([H])c(OC([H])([H])C([H])([H])C([H])([H])C([H])(C([H])([H])[H])C([H])([H])N3C([H])([H])C([H])([N+]([H])([H])[H])C([H])([H])C([H])([H])C3([H])C([H])([H])N([H])C(=O)N3C([H])([H])C([H])([H])C([H])([H])C([H])(n4nc(-c5c([H])c([H])c(Oc6c([H])c([H])c(F)c([H])c6F)c([H])c5[H])c(C(=O)N([H])[H])c4N([H])[H])C3([H])[H])c([H])c([H])c2C1([H])[H]

>  <smiles>  (30) 
[H]c1c([H])c([H])c2c(c1[H])C([H])([H])C([H])([H])C([H])([H])C2([H])N([H])C(=O)C1([H])N(C(=O)C([H])(N([H])C(=O)C([H])(N([H])C([H])([H])[H])C([H])([H])[H])C(C([H])([H])[H])(C([H])([H])[H])C([H])([H])[H])C([H])([H])c2c([H])c(OC([H])([H])C([H])([H])C([H])([H])C([H])(C([H])([H])[H])C([H])([H])N3C([H])([H])C([H])([N+]([H])([H])[H])C([H])([H])C([H])([H])C3([H])C([H])([H])N([H])C(=O)N3C([H])([H])C([H])([H])C([H])([H])C([H])(n4nc(-c5c([H])c([H])c(Oc6c([H])c([H])c(F)c([H])c6F)c([H])c5[H])c(C(=O)N([H])[H])c4N([H])[H])C3([H])[H])c([H])c([H])c2C1([H])[H]

$$$$
30:0:0
     RDKit          3D

 94102  0  0  1  0  0  0  0  0999 V2000
  -30.6380  -21.8970   22.4450 C   0  0  0  0  0  2  0  0  0  0  0  0
  -29.2550  -22.2380   22.0120 N   0  0  0  0  0  4  0  0  0  0  0  0
  -28.7170  -21.3940   21.8940 H   0  0  0  0  0  0  0  0  0  0  0  0
  -28.8090  -22.7410   22.7640 H   0  0  0  0  0  0  0  0  0  0  0  0
  -29.1290  -23.0690   20.7830 C   0  0  0  0  0  2  0  0  0  0  0  0
  -28.7090  -24.5320   21.0780 C   0  0  0  0  0  2  0  0  0  0  0  0
  -28.5530  -25.3880   19.8020 C   0  0  0  0  0  2  0  0  0  0  0  0
  -28.4190  -26.7790   20.1280 O   0  0  0  0  0  0  0  0  0  0  0  0
  -24.5740  -31.8860   23.2150 C   0  0  0  0  0  0  0  0  0  0  0  0
  -27.2000  -27.4320   20.1330 C   0  0  0  0  0  0  0  0  0  0  0  0
  -23.3530  -30.4820   21.5840 C   0  0  0  0  0  3  0  0  0  0  0  0
  -24.7930  -28.9340   20.1600 C   0  0  0  0  0  0  0  0  0  0  0  0
  -25.8780  -30.8360   21.3690 C   0  0  0  0  0  2  0  0  0  0  0  0
  -25.9550  -29.4630   20.7350 C   0  0  0  0  0  0  0  0  0  0  0  0
  -27.1560  -28.7210   20.7140 C   0  0  0  0  0  3  0  0  0  0  0  0
  -26.0120  -26.9120   19.5650 C   0  0  0  0  0  3  0  0  0  0  0  0
  -24.8180  -27.6570   19.5740 C   0  0  0  0  0  3  0  0  0  0  0  0
  -23.5520  -29.7970   20.2070 C   0  0  0  0  0  2  0  0  0  0  0  0
  -24.6200  -31.0850   22.1150 N   0  0  0  0  0  0  0  0  0  0  0  0
  -23.4970  -32.1590   23.7640 O   0  0  0  0  0  0  0  0  0  0  0  0
  -22.7100  -29.4630   22.5530 C   0  0  0  0  0  0  0  0  0  0  0  0
  -21.3850  -29.2790   22.4340 N   0  0  0  0  0  0  0  0  0  0  0  0
  -23.3990  -28.8390   23.3650 O   0  0  0  0  0  0  0  0  0  0  0  0
  -20.8890  -29.8360   21.7510 H   0  0  0  0  0  0  0  0  0  0  0  0
  -18.0150  -28.0790   22.9430 C   0  0  0  0  0  0  0  0  0  0  0  0
  -20.5720  -28.3440   23.2110 C   0  0  0  0  0  3  0  0  0  0  0  0
  -20.6770  -26.9100   22.6440 C   0  0  0  0  0  2  0  0  0  0  0  0
  -19.5750  -26.5770   21.6320 C   0  0  0  0  0  2  0  0  0  0  0  0
  -18.1950  -26.7250   22.2760 C   0  0  0  0  0  2  0  0  0  0  0  0
  -19.1330  -28.8460   23.3680 C   0  0  0  0  0  0  0  0  0  0  0  0
  -18.9140  -30.1130   23.9500 C   0  0  0  0  0  3  0  0  0  0  0  0
  -17.6080  -30.6150   24.1090 C   0  0  0  0  0  3  0  0  0  0  0  0
  -16.5050  -29.8450   23.7020 C   0  0  0  0  0  3  0  0  0  0  0  0
  -16.7100  -28.5800   23.1260 C   0  0  0  0  0  3  0  0  0  0  0  0
  -25.8650  -32.5160   23.8250 C   0  0  0  0  0  3  0  0  0  0  0  0
  -26.3970  -31.7450   25.0950 C   0  0  1  0  0  0  0  0  0  0  0  0
  -25.3170  -31.5090   26.1750 C   0  0  0  0  0  1  0  0  0  0  0  0
  -26.9720  -30.3660   24.6950 C   0  0  0  0  0  1  0  0  0  0  0  0
  -27.5540  -32.5390   25.7470 C   0  0  0  0  0  1  0  0  0  0  0  0
  -25.5610  -33.9140   24.1550 N   0  0  0  0  0  0  0  0  0  0  0  0
  -25.8880  -34.9660   23.3910 C   0  0  0  0  0  0  0  0  0  0  0  0
  -26.5540  -34.8620   22.3560 O   0  0  0  0  0  0  0  0  0  0  0  0
  -24.9760  -34.0680   24.9620 H   0  0  0  0  0  0  0  0  0  0  0  0
  -24.1590  -36.7560   23.0450 C   0  0  0  0  0  1  0  0  0  0  0  0
  -25.4030  -36.3550   23.8500 C   0  0  0  0  0  3  0  0  0  0  0  0
  -27.5440  -37.2370   24.6690 C   0  0  0  0  0  1  0  0  0  0  0  0
  -26.4360  -37.4070   23.7320 N   0  0  0  0  0  0  0  0  0  0  0  0
  -26.0300  -38.3270   23.8850 H   0  0  0  0  0  0  0  0  0  0  0  0
  -32.8510  -20.9110   21.6300 C   0  0  0  0  0  1  0  0  0  0  0  0
  -31.3200  -20.7380   21.6500 C   0  0  0  0  0  3  0  0  0  0  0  0
  -30.9800  -19.3220   22.1820 C   0  0  0  0  0  0  0  0  0  0  0  0
  -31.0080  -19.0690   23.3890 O   0  0  0  0  0  0  0  0  0  0  0  0
  -30.6960  -14.5980   20.3970 C   0  0  0  0  0  0  0  0  0  0  0  0
  -30.3500  -12.4080   19.3030 C   0  0  0  0  0  2  0  0  0  0  0  0
  -29.3890  -12.5460   18.1040 C   0  0  0  0  0  2  0  0  0  0  0  0
  -27.9290  -12.3580   18.5630 C   0  0  0  0  0  2  0  0  0  0  0  0
  -27.5730  -13.2320   19.7900 C   0  0  0  0  0  3  0  0  0  0  0  0
  -28.6630  -13.1490   20.8910 C   0  0  0  0  0  2  0  0  0  0  0  0
  -29.9740  -13.4410   20.2820 N   0  0  0  0  0  0  0  0  0  0  0  0
  -31.8850  -14.6580   20.0760 O   0  0  0  0  0  0  0  0  0  0  0  0
  -29.0040  -17.6650   19.3730 C   0  0  0  0  0  2  0  0  0  0  0  0
  -29.2500  -18.5980   20.5360 C   0  0  0  0  0  2  0  0  0  0  0  0
  -28.9370  -16.2130   19.8570 C   0  0  0  0  0  2  0  0  0  0  0  0
  -30.6220  -16.7650   21.6560 C   0  0  0  0  0  2  0  0  0  0  0  0
  -30.6120  -18.2460   21.1390 C   0  0  0  0  0  3  0  0  0  0  0  0
  -30.0330  -15.7460   20.7350 N   0  0  0  0  0  0  0  0  0  0  0  0
  -25.2040  -13.8610   20.5460 C   0  0  0  0  0  0  0  0  0  0  0  0
  -24.1390  -13.0930   20.9270 C   0  0  0  0  0  0  0  0  0  0  0  0
  -24.6000  -11.7410   20.8970 C   0  0  0  0  0  0  0  0  0  0  0  0
  -26.2410  -12.9700   20.3040 N   0  0  0  0  0  0  0  0  0  0  0  0
  -25.8850  -11.6940   20.5770 N   0  0  0  0  0  0  0  0  0  0  0  0
  -23.8780  -10.4810   21.0870 C   0  0  0  0  0  0  0  0  0  0  0  0
  -24.3320   -9.5040   21.9980 C   0  0  0  0  0  3  0  0  0  0  0  0
  -23.6110   -8.3050   22.1770 C   0  0  0  0  0  3  0  0  0  0  0  0
  -22.4220   -8.0770   21.4430 C   0  0  0  0  0  0  0  0  0  0  0  0
  -21.9870   -9.0450   20.5190 C   0  0  0  0  0  3  0  0  0  0  0  0
  -22.7110  -10.2350   20.3380 C   0  0  0  0  0  3  0  0  0  0  0  0
  -21.6670   -6.9340   21.5370 O   0  0  0  0  0  0  0  0  0  0  0  0
  -21.6580   -6.1710   22.6760 C   0  0  0  0  0  0  0  0  0  0  0  0
  -21.2940   -6.7090   23.9300 C   0  0  0  0  0  3  0  0  0  0  0  0
  -21.2330   -5.8740   25.0640 C   0  0  0  0  0  3  0  0  0  0  0  0
  -21.5250   -4.5020   24.9450 C   0  0  0  0  0  0  0  0  0  0  0  0
  -21.8820   -3.9640   23.6970 C   0  0  0  0  0  3  0  0  0  0  0  0
  -21.9480   -4.7960   22.5650 C   0  0  0  0  0  0  0  0  0  0  0  0
  -22.2720   -4.2690   21.3600 F   0  0  0  0  0  0  0  0  0  0  0  0
  -21.4580   -3.6970   26.0310 F   0  0  0  0  0  0  0  0  0  0  0  0
  -22.7450  -13.5730   21.2080 C   0  0  0  0  0  0  0  0  0  0  0  0
  -22.0210  -12.8820   22.0790 N   0  0  0  0  0  0  0  0  0  0  0  0
  -22.3060  -14.5990   20.6880 O   0  0  0  0  0  0  0  0  0  0  0  0
  -22.3890  -12.0520   22.5220 H   0  0  0  0  0  0  0  0  0  0  0  0
  -21.0850  -13.1850   22.3100 H   0  0  0  0  0  0  0  0  0  0  0  0
  -25.3650  -15.2310   20.3630 N   0  0  0  0  0  0  0  0  0  0  0  0
  -24.5980  -15.8840   20.4820 H   0  0  0  0  0  0  0  0  0  0  0  0
  -26.2090  -15.6680   20.0200 H   0  0  0  0  0  0  0  0  0  0  0  0
  2  1  1  0
  2  4  1  0
  3  2  1  0
  5  6  1  0
  5  2  1  0
  7  8  1  0
  7  6  1  0
  8 10  1  0
  9 20  2  0
 10 15  1  0
 11 19  1  0
 11 21  1  0
 12 18  1  0
 12 14  1  0
 13 19  1  0
 14 13  1  0
 15 14  2  0
 16 17  1  0
 16 10  2  0
 17 12  2  0
 18 11  1  0
 19  9  1  0
 21 23  2  0
 22 21  1  0
 24 22  1  0
 25 34  2  0
 25 30  1  0
 26 22  1  0
 26 30  1  0
 27 26  1  0
 28 29  1  0
 28 27  1  0
 29 25  1  0
 30 31  2  0
 31 32  1  0
 33 32  2  0
 34 33  1  0
 35  9  1  0
 35 40  1  0
 35 36  1  0
 36 39  1  1
 36 37  1  0
 38 36  1  0
 40 43  1  0
 41 45  1  0
 41 40  1  0
 42 41  2  0
 45 44  1  0
 47 45  1  0
 47 48  1  0
 47 46  1  0
 50 49  1  0
 50 51  1  0
 50  1  1  0
 51 52  2  0
 53 66  1  0
 54 59  1  0
 55 56  1  0
 55 54  1  0
 57 56  1  0
 57 70  1  0
 57 58  1  0
 59 53  1  0
 59 58  1  0
 60 53  2  0
 61 63  1  0
 61 62  1  0
 62 65  1  0
 63 66  1  0
 65 64  1  0
 65 51  1  0
 66 64  1  0
 67 68  2  0
 68 87  1  0
 69 68  1  0
 69 72  1  0
 70 67  1  0
 70 71  1  0
 71 69  2  0
 72 73  1  0
 73 74  2  0
 75 78  1  0
 75 74  1  0
 76 75  2  0
 77 76  1  0
 77 72  2  0
 78 79  1  0
 79 80  1  0
 80 81  2  0
 82 81  1  0
 82 86  1  0
 83 82  2  0
 84 79  2  0
 84 83  1  0
 85 84  1  0
 87 88  1  0
 88 91  1  0
 88 90  1  0
 89 87  2  0
 92 93  1  0
 92 67  1  0
 94 92  1  0
M  ISO  4   7 101   8 101  53 100  66 100
M  END
>  <TORSDO>  (31) 
F 22

>  <SCORE>  (31) 
-13.503

>  <name>  (31) 
30

>  <ligand_id>  (31) 
30

>  <original_smiles>  (31) 
[H]c1c([H])c([H])c2c(c1[H])C([H])([H])C([H])([H])C([H])([H])C2([H])N([H])C(=O)C1([H])N(C(=O)C([H])(N([H])C(=O)C([H])(N([H])C([H])([H])[H])C([H])([H])[H])C(C([H])([H])[H])(C([H])([H])[H])C([H])([H])[H])C([H])([H])c2c([H])c(OC([H])([H])C([H])([H])C([H])([H])[N+]([H])([H])C([H])([H])C([H])(C(=O)C3([H])C([H])([H])N(C(=O)N4C([H])([H])C([H])([H])C([H])([H])C([H])(n5nc(-c6c([H])c([H])c(Oc7c([H])c([H])c(F)c([H])c7F)c([H])c6[H])c(C(=O)N([H])[H])c5N([H])[H])C4([H])[H])C([H])([H])C([H])([H])C3([H])[H])C([H])([H])[H])c([H])c([H])c2C1([H])[H]

>  <smiles>  (31) 
[H]c1c([H])c([H])c2c(c1[H])C([H])([H])C([H])([H])C([H])([H])C2([H])N([H])C(=O)C1([H])N(C(=O)C([H])(N([H])C(=O)C([H])(N([H])C([H])([H])[H])C([H])([H])[H])C(C([H])([H])[H])(C([H])([H])[H])C([H])([H])[H])C([H])([H])c2c([H])c(OC([H])([H])C([H])([H])C([H])([H])[N+]([H])([H])C([H])([H])C([H])(C(=O)C3([H])C([H])([H])N(C(=O)N4C([H])([H])C([H])([H])C([H])([H])C([H])(n5nc(-c6c([H])c([H])c(Oc7c([H])c([H])c(F)c([H])c7F)c([H])c6[H])c(C(=O)N([H])[H])c5N([H])[H])C4([H])[H])C([H])([H])C([H])([H])C3([H])[H])C([H])([H])[H])c([H])c([H])c2C1([H])[H]

$$$$
31:0:0
     RDKit          3D

 93101  0  0  1  0  0  0  0  0999 V2000
  -32.1210  -20.1600   20.5750 C   0  0  0  0  0  1  0  0  0  0  0  0
  -30.7230  -20.7720   20.7990 C   0  0  0  0  0  3  0  0  0  0  0  0
  -30.7850  -22.2770   20.4220 C   0  0  0  0  0  2  0  0  0  0  0  0
  -29.5150  -23.0940   20.7420 C   0  0  0  0  0  2  0  0  0  0  0  0
  -29.6150  -24.5860   20.3830 C   0  0  0  0  0  0  0  0  0  0  0  0
  -30.7030  -25.1660   20.2840 O   0  0  0  0  0  0  0  0  0  0  0  0
  -28.2870  -25.3080   20.1470 C   0  0  0  0  0  2  0  0  0  0  0  0
  -28.4310  -26.7320   20.1890 O   0  0  0  0  0  0  0  0  0  0  0  0
  -24.5830  -31.8830   23.2360 C   0  0  0  0  0  0  0  0  0  0  0  0
  -27.2510  -27.4450   20.1720 C   0  0  0  0  0  0  0  0  0  0  0  0
  -23.3860  -30.4710   21.5980 C   0  0  0  0  0  3  0  0  0  0  0  0
  -24.8460  -28.9350   20.1860 C   0  0  0  0  0  0  0  0  0  0  0  0
  -25.9120  -30.8390   21.4040 C   0  0  0  0  0  2  0  0  0  0  0  0
  -26.0030  -29.4690   20.7650 C   0  0  0  0  0  0  0  0  0  0  0  0
  -27.2110  -28.7340   20.7480 C   0  0  0  0  0  3  0  0  0  0  0  0
  -26.0690  -26.9230   19.5930 C   0  0  0  0  0  3  0  0  0  0  0  0
  -24.8730  -27.6600   19.5990 C   0  0  0  0  0  3  0  0  0  0  0  0
  -23.6000  -29.7880   20.2220 C   0  0  0  0  0  2  0  0  0  0  0  0
  -24.6450  -31.0780   22.1370 N   0  0  0  0  0  0  0  0  0  0  0  0
  -23.5000  -32.1530   23.7720 O   0  0  0  0  0  0  0  0  0  0  0  0
  -22.7370  -29.4500   22.5590 C   0  0  0  0  0  0  0  0  0  0  0  0
  -21.4120  -29.2690   22.4320 N   0  0  0  0  0  0  0  0  0  0  0  0
  -23.4210  -28.8230   23.3730 O   0  0  0  0  0  0  0  0  0  0  0  0
  -20.9240  -29.8230   21.7410 H   0  0  0  0  0  0  0  0  0  0  0  0
  -18.0310  -28.1020   22.9490 C   0  0  0  0  0  0  0  0  0  0  0  0
  -20.5930  -28.3340   23.2030 C   0  0  0  0  0  3  0  0  0  0  0  0
  -20.6790  -26.9060   22.6170 C   0  0  0  0  0  2  0  0  0  0  0  0
  -19.5670  -26.5990   21.6110 C   0  0  0  0  0  2  0  0  0  0  0  0
  -18.1910  -26.7550   22.2650 C   0  0  0  0  0  2  0  0  0  0  0  0
  -19.1600  -28.8520   23.3740 C   0  0  0  0  0  0  0  0  0  0  0  0
  -18.9590  -30.1140   23.9710 C   0  0  0  0  0  3  0  0  0  0  0  0
  -17.6600  -30.6290   24.1480 C   0  0  0  0  0  3  0  0  0  0  0  0
  -16.5450  -29.8750   23.7400 C   0  0  0  0  0  3  0  0  0  0  0  0
  -16.7330  -28.6150   23.1460 C   0  0  0  0  0  3  0  0  0  0  0  0
  -25.8660  -32.5180   23.8560 C   0  0  0  0  0  3  0  0  0  0  0  0
  -25.5510  -33.9140   24.1870 N   0  0  0  0  0  0  0  0  0  0  0  0
  -25.8750  -34.9670   23.4250 C   0  0  0  0  0  0  0  0  0  0  0  0
  -26.5420  -34.8660   22.3910 O   0  0  0  0  0  0  0  0  0  0  0  0
  -24.9650  -34.0690   24.9940 H   0  0  0  0  0  0  0  0  0  0  0  0
  -24.1340  -36.7440   23.0690 C   0  0  0  0  0  1  0  0  0  0  0  0
  -25.3800  -36.3530   23.8800 C   0  0  0  0  0  3  0  0  0  0  0  0
  -27.5110  -37.2500   24.7050 C   0  0  0  0  0  1  0  0  0  0  0  0
  -26.4060  -37.4110   23.7630 N   0  0  0  0  0  0  0  0  0  0  0  0
  -25.9960  -38.3300   23.9120 H   0  0  0  0  0  0  0  0  0  0  0  0
  -26.3880  -31.7490   25.1300 C   0  0  1  0  0  0  0  0  0  0  0  0
  -25.2980  -31.5010   26.1990 C   0  0  0  0  0  1  0  0  0  0  0  0
  -26.9790  -30.3760   24.7320 C   0  0  0  0  0  1  0  0  0  0  0  0
  -27.5350  -32.5500   25.7920 C   0  0  0  0  0  1  0  0  0  0  0  0
  -29.6230  -19.9920   20.0230 C   0  0  0  0  0  2  0  0  0  0  0  0
  -30.7390  -14.4870   20.1750 C   0  0  0  0  0  0  0  0  0  0  0  0
  -30.3640  -12.3500   19.0310 C   0  0  0  0  0  2  0  0  0  0  0  0
  -29.3860  -12.5790   17.8620 C   0  0  0  0  0  2  0  0  0  0  0  0
  -27.9260  -12.4640   18.3420 C   0  0  0  0  0  2  0  0  0  0  0  0
  -27.6350  -13.2820   19.6330 C   0  0  0  0  0  3  0  0  0  0  0  0
  -28.7330  -13.0520   20.6950 C   0  0  0  0  0  2  0  0  0  0  0  0
  -30.0280  -13.3350   20.0670 N   0  0  0  0  0  0  0  0  0  0  0  0
  -31.9240  -14.5630   19.8400 O   0  0  0  0  0  0  0  0  0  0  0  0
  -29.8040  -16.3630   21.4200 C   0  0  0  0  0  2  0  0  0  0  0  0
  -30.1050  -16.3880   18.8880 C   0  0  0  0  0  2  0  0  0  0  0  0
  -29.3320  -17.8410   21.3150 C   0  0  0  0  0  2  0  0  0  0  0  0
  -29.4590  -17.7800   18.8640 C   0  0  0  0  0  3  0  0  0  0  0  0
  -27.9410  -17.7160   18.6020 C   0  0  0  0  0  1  0  0  0  0  0  0
  -29.9910  -15.6190   20.1540 N   0  0  0  0  0  0  0  0  0  0  0  0
  -29.8290  -18.5150   20.0920 N   0  0  1  0  0  4  0  0  0  0  0  0
  -30.8360  -18.4390   20.1390 H   0  0  0  0  0  0  0  0  0  0  0  0
  -25.2650  -13.8800   20.4320 C   0  0  0  0  0  0  0  0  0  0  0  0
  -24.2080  -13.1040   20.8290 C   0  0  0  0  0  0  0  0  0  0  0  0
  -24.6690  -11.7540   20.7700 C   0  0  0  0  0  0  0  0  0  0  0  0
  -26.3010  -13.0010   20.1590 N   0  0  0  0  0  0  0  0  0  0  0  0
  -25.9480  -11.7190   20.4220 N   0  0  0  0  0  0  0  0  0  0  0  0
  -23.9490  -10.4910   20.9750 C   0  0  0  0  0  0  0  0  0  0  0  0
  -24.3980   -9.5290   21.9080 C   0  0  0  0  0  3  0  0  0  0  0  0
  -23.6810   -8.3280   22.0990 C   0  0  0  0  0  3  0  0  0  0  0  0
  -22.5000   -8.0820   21.3590 C   0  0  0  0  0  0  0  0  0  0  0  0
  -22.0700   -9.0320   20.4180 C   0  0  0  0  0  3  0  0  0  0  0  0
  -22.7850  -10.2250   20.2230 C   0  0  0  0  0  3  0  0  0  0  0  0
  -21.7540   -6.9320   21.4600 O   0  0  0  0  0  0  0  0  0  0  0  0
  -21.7000   -6.2070   22.6240 C   0  0  0  0  0  0  0  0  0  0  0  0
  -21.2610   -6.7790   23.8380 C   0  0  0  0  0  3  0  0  0  0  0  0
  -21.1570   -5.9810   24.9940 C   0  0  0  0  0  3  0  0  0  0  0  0
  -21.4790   -4.6110   24.9370 C   0  0  0  0  0  0  0  0  0  0  0  0
  -21.9090   -4.0400   23.7280 C   0  0  0  0  0  3  0  0  0  0  0  0
  -22.0170   -4.8350   22.5740 C   0  0  0  0  0  0  0  0  0  0  0  0
  -22.4100   -4.2750   21.4050 F   0  0  0  0  0  0  0  0  0  0  0  0
  -21.3730   -3.8420   26.0450 F   0  0  0  0  0  0  0  0  0  0  0  0
  -22.8190  -13.5780   21.1470 C   0  0  0  0  0  0  0  0  0  0  0  0
  -22.1180  -12.8790   22.0330 N   0  0  0  0  0  0  0  0  0  0  0  0
  -22.3630  -14.6020   20.6400 O   0  0  0  0  0  0  0  0  0  0  0  0
  -22.4980  -12.0500   22.4660 H   0  0  0  0  0  0  0  0  0  0  0  0
  -21.1830  -13.1710   22.2790 H   0  0  0  0  0  0  0  0  0  0  0  0
  -25.4280  -15.2510   20.2590 N   0  0  0  0  0  0  0  0  0  0  0  0
  -24.6640  -15.9040   20.3990 H   0  0  0  0  0  0  0  0  0  0  0  0
  -26.2700  -15.6850   19.9100 H   0  0  0  0  0  0  0  0  0  0  0  0
  2  1  1  0
  3  4  1  0
  3  2  1  0
  5  4  1  0
  6  5  2  0
  7  8  1  0
  7  5  1  0
  9 20  2  0
 10  8  1  0
 10 15  1  0
 11 19  1  0
 11 21  1  0
 12 18  1  0
 12 14  1  0
 13 19  1  0
 14 13  1  0
 15 14  2  0
 16 17  1  0
 16 10  2  0
 17 12  2  0
 18 11  1  0
 19  9  1  0
 21 23  2  0
 22 21  1  0
 24 22  1  0
 25 34  2  0
 25 30  1  0
 26 22  1  0
 26 30  1  0
 27 26  1  0
 28 29  1  0
 28 27  1  0
 29 25  1  0
 30 31  2  0
 31 32  1  0
 33 32  2  0
 34 33  1  0
 35  9  1  0
 35 36  1  0
 35 45  1  0
 36 39  1  0
 37 41  1  0
 37 36  1  0
 38 37  2  0
 41 40  1  0
 43 41  1  0
 43 44  1  0
 43 42  1  0
 45 48  1  1
 45 46  1  0
 47 45  1  0
 49 64  1  0
 49  2  1  0
 51 56  1  0
 52 53  1  0
 52 51  1  0
 54 53  1  0
 54 69  1  0
 54 55  1  0
 56 50  1  0
 56 55  1  0
 57 50  2  0
 59 63  1  0
 60 58  1  0
 61 62  1  0
 61 59  1  0
 61 64  1  0
 63 50  1  0
 63 58  1  0
 64 65  1  1
 64 60  1  0
 66 67  2  0
 67 86  1  0
 68 67  1  0
 68 71  1  0
 69 70  1  0
 69 66  1  0
 70 68  2  0
 71 72  1  0
 72 73  2  0
 74 77  1  0
 74 73  1  0
 75 74  2  0
 76 75  1  0
 76 71  2  0
 77 78  1  0
 78 79  1  0
 79 80  2  0
 81 80  1  0
 81 85  1  0
 82 81  2  0
 83 78  2  0
 83 82  1  0
 84 83  1  0
 86 87  1  0
 87 90  1  0
 87 89  1  0
 88 86  2  0
 91 92  1  0
 91 66  1  0
 93 91  1  0
M  ISO  4   7 101   8 101  50 100  63 100
M  END
>  <TORSDO>  (32) 
F 21

>  <SCORE>  (32) 
-13.475

>  <name>  (32) 
31

>  <ligand_id>  (32) 
31

>  <original_smiles>  (32) 
[H]c1c([H])c([H])c2c(c1[H])C([H])([H])C([H])([H])C([H])([H])C2([H])N([H])C(=O)C1([H])N(C(=O)C([H])(N([H])C(=O)C([H])(N([H])C([H])([H])[H])C([H])([H])[H])C(C([H])([H])[H])(C([H])([H])[H])C([H])([H])[H])C([H])([H])c2c([H])c(OC([H])([H])C(=O)C([H])([H])C([H])([H])C([H])(C([H])([H])[H])C([H])([H])[N+]3([H])C([H])([H])C([H])([H])N(C(=O)N4C([H])([H])C([H])([H])C([H])([H])C([H])(n5nc(-c6c([H])c([H])c(Oc7c([H])c([H])c(F)c([H])c7F)c([H])c6[H])c(C(=O)N([H])[H])c5N([H])[H])C4([H])[H])C([H])([H])C3([H])C([H])([H])[H])c([H])c([H])c2C1([H])[H]

>  <smiles>  (32) 
[H]c1c([H])c([H])c2c(c1[H])C([H])([H])C([H])([H])C([H])([H])C2([H])N([H])C(=O)C1([H])N(C(=O)C([H])(N([H])C(=O)C([H])(N([H])C([H])([H])[H])C([H])([H])[H])C(C([H])([H])[H])(C([H])([H])[H])C([H])([H])[H])C([H])([H])c2c([H])c(OC([H])([H])C(=O)C([H])([H])C([H])([H])C([H])(C([H])([H])[H])C([H])([H])[N+]3([H])C([H])([H])C([H])([H])N(C(=O)N4C([H])([H])C([H])([H])C([H])([H])C([H])(n5nc(-c6c([H])c([H])c(Oc7c([H])c([H])c(F)c([H])c7F)c([H])c6[H])c(C(=O)N([H])[H])c5N([H])[H])C4([H])[H])C([H])([H])C3([H])C([H])([H])[H])c([H])c([H])c2C1([H])[H]

$$$$
32:0:0
     RDKit          3D

 96104  0  0  1  0  0  0  0  0999 V2000
  -30.5540  -17.9210   22.2370 C   0  0  0  0  0  2  0  0  0  0  0  0
  -30.0550  -17.6270   20.7870 C   0  0  0  0  0  2  0  0  0  0  0  0
  -31.5670  -20.1810   21.6480 C   0  0  0  0  0  2  0  0  0  0  0  0
  -31.1020  -20.1530   20.1710 C   0  0  0  0  0  2  0  0  0  0  0  0
  -30.5930  -19.4290   22.5780 C   0  0  0  0  0  3  0  0  0  0  0  0
  -31.1390  -17.6260   19.6490 C   0  0  0  0  0  3  0  0  0  0  0  0
  -31.6870  -19.0640   19.2920 N   0  0  1  0  0  4  0  0  0  0  0  0
  -32.6760  -19.0310   19.4930 H   0  0  0  0  0  0  0  0  0  0  0  0
  -30.9020  -19.6630   24.0100 N   0  0  0  0  0  4  0  0  0  0  0  0
  -31.8530  -19.4410   24.2450 H   0  0  0  0  0  0  0  0  0  0  0  0
  -30.2990  -19.1160   24.6030 H   0  0  0  0  0  0  0  0  0  0  0  0
  -30.7490  -20.6280   24.2480 H   0  0  0  0  0  0  0  0  0  0  0  0
  -32.1420  -16.3860   19.9960 C   0  0  0  0  0  2  0  0  0  0  0  0
  -32.0400  -13.7990   19.2130 C   0  0  0  0  0  0  0  0  0  0  0  0
  -31.2180  -11.6870   18.1430 C   0  0  0  0  0  2  0  0  0  0  0  0
  -30.0910  -11.9670   17.1210 C   0  0  0  0  0  2  0  0  0  0  0  0
  -28.7150  -12.1000   17.8020 C   0  0  0  0  0  2  0  0  0  0  0  0
  -28.7540  -12.9960   19.0680 C   0  0  0  0  0  3  0  0  0  0  0  0
  -29.9350  -12.6000   19.9800 C   0  0  0  0  0  2  0  0  0  0  0  0
  -31.1710  -12.7360   19.1890 N   0  0  0  0  0  0  0  0  0  0  0  0
  -33.1220  -13.7470   18.6150 O   0  0  0  0  0  0  0  0  0  0  0  0
  -31.5810  -14.9660   19.7950 N   0  0  0  0  0  0  0  0  0  0  0  0
  -30.6670  -14.8320   20.2010 H   0  0  0  0  0  0  0  0  0  0  0  0
  -26.7470  -14.0370   20.2970 C   0  0  0  0  0  0  0  0  0  0  0  0
  -25.6000  -13.4950   20.8050 C   0  0  0  0  0  0  0  0  0  0  0  0
  -25.6790  -12.0930   20.5450 C   0  0  0  0  0  0  0  0  0  0  0  0
  -27.4760  -12.9790   19.7770 N   0  0  0  0  0  0  0  0  0  0  0  0
  -26.8450  -11.7920   19.9830 N   0  0  0  0  0  0  0  0  0  0  0  0
  -24.6840  -11.0330   20.7380 C   0  0  0  0  0  0  0  0  0  0  0  0
  -24.9550   -9.9090   21.5470 C   0  0  0  0  0  3  0  0  0  0  0  0
  -23.9760   -8.9110   21.7340 C   0  0  0  0  0  3  0  0  0  0  0  0
  -22.7080   -9.0350   21.1160 C   0  0  0  0  0  0  0  0  0  0  0  0
  -22.4550  -10.1440   20.2920 C   0  0  0  0  0  3  0  0  0  0  0  0
  -23.4320  -11.1320   20.1020 C   0  0  0  0  0  3  0  0  0  0  0  0
  -21.7020   -8.1020   21.2240 O   0  0  0  0  0  0  0  0  0  0  0  0
  -21.5750   -7.3090   22.3340 C   0  0  0  0  0  0  0  0  0  0  0  0
  -21.3170   -7.8490   23.6130 C   0  0  0  0  0  3  0  0  0  0  0  0
  -21.1240   -6.9920   24.7140 C   0  0  0  0  0  3  0  0  0  0  0  0
  -21.1830   -5.5950   24.5380 C   0  0  0  0  0  0  0  0  0  0  0  0
  -21.4350   -5.0570   23.2660 C   0  0  0  0  0  3  0  0  0  0  0  0
  -21.6310   -5.9120   22.1670 C   0  0  0  0  0  0  0  0  0  0  0  0
  -21.8520   -5.3840   20.9380 F   0  0  0  0  0  0  0  0  0  0  0  0
  -20.9910   -4.7700   25.5950 F   0  0  0  0  0  0  0  0  0  0  0  0
  -24.4450  -14.2480   21.4010 C   0  0  0  0  0  0  0  0  0  0  0  0
  -23.7030  -13.6200   22.3050 N   0  0  0  0  0  0  0  0  0  0  0  0
  -24.2270  -15.4220   21.0990 O   0  0  0  0  0  0  0  0  0  0  0  0
  -23.8940  -12.6640   22.5630 H   0  0  0  0  0  0  0  0  0  0  0  0
  -22.9270  -14.0990   22.7390 H   0  0  0  0  0  0  0  0  0  0  0  0
  -27.2120  -15.3440   20.1970 N   0  0  0  0  0  0  0  0  0  0  0  0
  -26.6120  -16.1220   20.4520 H   0  0  0  0  0  0  0  0  0  0  0  0
  -27.9350  -15.6100   19.5420 H   0  0  0  0  0  0  0  0  0  0  0  0
  -31.5940  -19.5580   17.8210 C   0  0  0  0  0  2  0  0  0  0  0  0
  -32.0010  -21.1050   17.4600 C   0  0  0  0  0  2  0  0  0  0  0  0
  -30.9870  -22.1720   16.7660 C   0  0  0  0  0  2  0  0  0  0  0  0
  -30.5820  -23.5070   17.5780 C   0  0  0  0  0  2  0  0  0  0  0  0
  -30.2800  -24.8100   16.9100 O   0  0  0  0  0  0  0  0  0  0  0  0
  -26.7060  -28.0440   22.3230 C   0  0  0  0  0  0  0  0  0  0  0  0
  -29.1710  -25.5520   17.3550 C   0  0  0  0  0  0  0  0  0  0  0  0
  -25.4220  -27.5460   20.2720 C   0  0  0  0  0  3  0  0  0  0  0  0
  -26.8010  -26.9050   18.2180 C   0  0  0  0  0  0  0  0  0  0  0  0
  -27.9410  -28.0110   20.1360 C   0  0  0  0  0  2  0  0  0  0  0  0
  -28.0010  -27.1050   18.9110 C   0  0  0  0  0  0  0  0  0  0  0  0
  -29.1960  -26.4540   18.4680 C   0  0  0  0  0  3  0  0  0  0  0  0
  -27.9480  -25.4110   16.6660 C   0  0  0  0  0  3  0  0  0  0  0  0
  -26.7770  -26.0740   17.0880 C   0  0  0  0  0  3  0  0  0  0  0  0
  -25.5600  -27.6120   18.7310 C   0  0  0  0  0  2  0  0  0  0  0  0
  -26.7130  -27.8520   20.9730 N   0  0  0  0  0  0  0  0  0  0  0  0
  -25.6530  -27.9840   22.9790 O   0  0  0  0  0  0  0  0  0  0  0  0
  -24.8350  -26.1680   20.6680 C   0  0  0  0  0  0  0  0  0  0  0  0
  -23.5180  -25.9880   20.4640 N   0  0  0  0  0  0  0  0  0  0  0  0
  -25.5640  -25.2820   21.1250 O   0  0  0  0  0  0  0  0  0  0  0  0
  -22.9850  -26.7720   20.1140 H   0  0  0  0  0  0  0  0  0  0  0  0
  -20.2290  -24.4840   20.3030 C   0  0  0  0  0  0  0  0  0  0  0  0
  -22.7680  -24.7540   20.7160 C   0  0  0  0  0  3  0  0  0  0  0  0
  -22.9590  -23.7300   19.5710 C   0  0  0  0  0  2  0  0  0  0  0  0
  -21.8770  -23.8210   18.4920 C   0  0  0  0  0  2  0  0  0  0  0  0
  -20.4920  -23.5840   19.1040 C   0  0  0  0  0  2  0  0  0  0  0  0
  -21.2990  -25.0430   21.0490 C   0  0  0  0  0  0  0  0  0  0  0  0
  -21.0070  -25.8960   22.1360 C   0  0  0  0  0  3  0  0  0  0  0  0
  -19.6740  -26.1880   22.4800 C   0  0  0  0  0  3  0  0  0  0  0  0
  -18.6190  -25.6250   21.7460 C   0  0  0  0  0  3  0  0  0  0  0  0
  -18.8940  -24.7740   20.6600 C   0  0  0  0  0  3  0  0  0  0  0  0
  -28.0160  -28.3630   23.1120 C   0  0  0  0  0  3  0  0  0  0  0  0
  -27.7190  -29.4690   24.0330 N   0  0  0  0  0  0  0  0  0  0  0  0
  -28.0740  -30.7460   23.8360 C   0  0  0  0  0  0  0  0  0  0  0  0
  -28.7510  -31.1120   22.8730 O   0  0  0  0  0  0  0  0  0  0  0  0
  -27.1190  -29.2560   24.8170 H   0  0  0  0  0  0  0  0  0  0  0  0
  -26.3690  -32.5290   24.3500 C   0  0  0  0  0  1  0  0  0  0  0  0
  -27.6040  -31.7810   24.8780 C   0  0  0  0  0  3  0  0  0  0  0  0
  -29.7400  -32.1840   26.0220 C   0  0  0  0  0  1  0  0  0  0  0  0
  -28.6480  -32.7620   25.2450 N   0  0  0  0  0  0  0  0  0  0  0  0
  -28.2480  -33.5210   25.7940 H   0  0  0  0  0  0  0  0  0  0  0  0
  -28.5850  -27.1190   23.9020 C   0  0  1  0  0  0  0  0  0  0  0  0
  -27.5490  -26.4380   24.8210 C   0  0  0  0  0  1  0  0  0  0  0  0
  -29.1300  -26.0540   22.9230 C   0  0  0  0  0  1  0  0  0  0  0  0
  -29.7690  -27.5640   24.7950 C   0  0  0  0  0  1  0  0  0  0  0  0
  1  5  1  0
  2  1  1  0
  3  5  1  0
  4  3  1  0
  5  9  1  0
  6 13  1  0
  6  2  1  0
  7  8  1  1
  7  6  1  0
  7  4  1  0
  9 10  1  0
  9 12  1  0
  9 11  1  0
 14 22  1  0
 15 20  1  0
 16 17  1  0
 16 15  1  0
 18 17  1  0
 18 27  1  0
 18 19  1  0
 20 14  1  0
 20 19  1  0
 21 14  2  0
 22 13  1  0
 22 23  1  0
 24 25  2  0
 25 44  1  0
 26 29  1  0
 26 25  1  0
 27 28  1  0
 27 24  1  0
 28 26  2  0
 29 30  1  0
 30 31  2  0
 32 35  1  0
 32 31  1  0
 33 32  2  0
 34 33  1  0
 34 29  2  0
 35 36  1  0
 36 37  1  0
 37 38  2  0
 39 38  1  0
 39 43  1  0
 40 39  2  0
 41 36  2  0
 41 40  1  0
 42 41  1  0
 44 45  1  0
 45 47  1  0
 45 48  1  0
 46 44  2  0
 49 24  1  0
 49 50  1  0
 51 49  1  0
 52  7  1  0
 53 52  1  0
 54 53  1  0
 54 55  1  0
 56 58  1  0
 56 55  1  0
 57 68  2  0
 58 63  1  0
 59 69  1  0
 59 67  1  0
 60 66  1  0
 60 62  1  0
 61 67  1  0
 62 61  1  0
 63 62  2  0
 64 65  1  0
 64 58  2  0
 65 60  2  0
 66 59  1  0
 67 57  1  0
 69 71  2  0
 70 69  1  0
 72 70  1  0
 73 82  2  0
 73 78  1  0
 74 70  1  0
 74 78  1  0
 75 74  1  0
 76 77  1  0
 76 75  1  0
 77 73  1  0
 78 79  2  0
 79 80  1  0
 81 80  2  0
 82 81  1  0
 83 57  1  0
 83 93  1  0
 83 84  1  0
 84 87  1  0
 85 84  1  0
 85 89  1  0
 86 85  2  0
 89 88  1  0
 89 91  1  0
 91 92  1  0
 91 90  1  0
 93 96  1  1
 93 94  1  0
 95 93  1  0
M  ISO  4  14 100  22 100  55 101  56 101
M  END
>  <TORSDO>  (33) 
F 22

>  <SCORE>  (33) 
-7.404

>  <name>  (33) 
32

>  <ligand_id>  (33) 
32

>  <original_smiles>  (33) 
[H]c1c([H])c([H])c2c(c1[H])C([H])([H])C([H])([H])C([H])([H])C2([H])N([H])C(=O)C1([H])N(C(=O)C([H])(N([H])C(=O)C([H])(N([H])C([H])([H])[H])C([H])([H])[H])C(C([H])([H])[H])(C([H])([H])[H])C([H])([H])[H])C([H])([H])c2c([H])c(OC([H])([H])C([H])([H])C([H])([H])C([H])([H])[N+]3([H])C([H])([H])C([H])([H])C([H])([N+]([H])([H])[H])C([H])([H])C([H])([H])C3([H])C([H])([H])N([H])C(=O)N3C([H])([H])C([H])([H])C([H])([H])C([H])(n4nc(-c5c([H])c([H])c(Oc6c([H])c([H])c(F)c([H])c6F)c([H])c5[H])c(C(=O)N([H])[H])c4N([H])[H])C3([H])[H])c([H])c([H])c2C1([H])[H]

>  <smiles>  (33) 
[H]c1c([H])c([H])c2c(c1[H])C([H])([H])C([H])([H])C([H])([H])C2([H])N([H])C(=O)C1([H])N(C(=O)C([H])(N([H])C(=O)C([H])(N([H])C([H])([H])[H])C([H])([H])[H])C(C([H])([H])[H])(C([H])([H])[H])C([H])([H])[H])C([H])([H])c2c([H])c(OC([H])([H])C([H])([H])C([H])([H])C([H])([H])[N+]3([H])C([H])([H])C([H])([H])C([H])([N+]([H])([H])[H])C([H])([H])C([H])([H])C3([H])C([H])([H])N([H])C(=O)N3C([H])([H])C([H])([H])C([H])([H])C([H])(n4nc(-c5c([H])c([H])c(Oc6c([H])c([H])c(F)c([H])c6F)c([H])c5[H])c(C(=O)N([H])[H])c4N([H])[H])C3([H])[H])c([H])c([H])c2C1([H])[H]

$$$$
33:0:0
     RDKit          3D

 94102  0  0  1  0  0  0  0  0999 V2000
  -29.3060  -19.3240   20.3460 C   0  0  0  0  0  2  0  0  0  0  0  0
  -29.4480  -17.9370   20.9990 C   0  0  0  0  0  2  0  0  0  0  0  0
  -31.5120  -19.9820   21.3720 C   0  0  0  0  0  2  0  0  0  0  0  0
  -30.0290  -20.3820   21.1970 C   0  0  0  0  0  3  0  0  0  0  0  0
  -30.9330  -17.5600   21.2250 C   0  0  0  0  0  3  0  0  0  0  0  0
  -31.6310  -18.6350   21.9730 N   0  0  0  0  0  4  0  0  0  0  0  0
  -31.2680  -18.6770   22.9110 H   0  0  0  0  0  0  0  0  0  0  0  0
  -32.6110  -18.4070   22.0390 H   0  0  0  0  0  0  0  0  0  0  0  0
  -29.9160  -21.6870   20.5480 N   0  0  0  0  0  0  0  0  0  0  0  0
  -29.1030  -21.6820   19.9390 H   0  0  0  0  0  0  0  0  0  0  0  0
  -29.7310  -22.7410   21.5410 C   0  0  0  0  0  2  0  0  0  0  0  0
  -29.7040  -24.1260   20.8740 C   0  0  0  0  0  2  0  0  0  0  0  0
  -29.2940  -25.2300   21.8680 C   0  0  0  0  0  2  0  0  0  0  0  0
  -29.3610  -26.6550   21.2920 C   0  0  0  0  0  2  0  0  0  0  0  0
  -28.5150  -26.7420   20.1460 O   0  0  0  0  0  0  0  0  0  0  0  0
  -24.6410  -31.9110   23.2360 C   0  0  0  0  0  0  0  0  0  0  0  0
  -27.3610  -27.4870   20.2270 C   0  0  0  0  0  0  0  0  0  0  0  0
  -23.4550  -30.4780   21.6030 C   0  0  0  0  0  3  0  0  0  0  0  0
  -24.9340  -28.9360   20.2090 C   0  0  0  0  0  0  0  0  0  0  0  0
  -25.9720  -30.8690   21.4080 C   0  0  0  0  0  2  0  0  0  0  0  0
  -26.0780  -29.4900   20.7970 C   0  0  0  0  0  0  0  0  0  0  0  0
  -27.2930  -28.7750   20.8080 C   0  0  0  0  0  3  0  0  0  0  0  0
  -26.2040  -26.9460   19.6300 C   0  0  0  0  0  3  0  0  0  0  0  0
  -24.9900  -27.6580   19.6250 C   0  0  0  0  0  3  0  0  0  0  0  0
  -23.6780  -29.7770   20.2350 C   0  0  0  0  0  2  0  0  0  0  0  0
  -24.7070  -31.1020   22.1420 N   0  0  0  0  0  0  0  0  0  0  0  0
  -23.5560  -32.1790   23.7710 O   0  0  0  0  0  0  0  0  0  0  0  0
  -22.8100  -29.4640   22.5740 C   0  0  0  0  0  0  0  0  0  0  0  0
  -21.4880  -29.2720   22.4440 N   0  0  0  0  0  0  0  0  0  0  0  0
  -23.4960  -28.8500   23.3960 O   0  0  0  0  0  0  0  0  0  0  0  0
  -20.9970  -29.8170   21.7510 H   0  0  0  0  0  0  0  0  0  0  0  0
  -18.1160  -28.0820   22.9590 C   0  0  0  0  0  0  0  0  0  0  0  0
  -20.6750  -28.3360   23.2210 C   0  0  0  0  0  3  0  0  0  0  0  0
  -20.7730  -26.9050   22.6460 C   0  0  0  0  0  2  0  0  0  0  0  0
  -19.6670  -26.5810   21.6380 C   0  0  0  0  0  2  0  0  0  0  0  0
  -18.2870  -26.7300   22.2850 C   0  0  0  0  0  2  0  0  0  0  0  0
  -19.2380  -28.8420   23.3830 C   0  0  0  0  0  0  0  0  0  0  0  0
  -19.0240  -30.1090   23.9710 C   0  0  0  0  0  3  0  0  0  0  0  0
  -17.7220  -30.6150   24.1360 C   0  0  0  0  0  3  0  0  0  0  0  0
  -16.6130  -29.8500   23.7330 C   0  0  0  0  0  3  0  0  0  0  0  0
  -16.8120  -28.5860   23.1490 C   0  0  0  0  0  3  0  0  0  0  0  0
  -25.9210  -32.5580   23.8540 C   0  0  0  0  0  3  0  0  0  0  0  0
  -25.6020  -33.9560   24.1710 N   0  0  0  0  0  0  0  0  0  0  0  0
  -25.9290  -35.0030   23.4010 C   0  0  0  0  0  0  0  0  0  0  0  0
  -26.6040  -34.8950   22.3730 O   0  0  0  0  0  0  0  0  0  0  0  0
  -25.0050  -34.1140   24.9700 H   0  0  0  0  0  0  0  0  0  0  0  0
  -24.1860  -36.7740   23.0160 C   0  0  0  0  0  1  0  0  0  0  0  0
  -25.4260  -36.3910   23.8410 C   0  0  0  0  0  3  0  0  0  0  0  0
  -27.5450  -37.3000   24.6800 C   0  0  0  0  0  1  0  0  0  0  0  0
  -26.4490  -37.4530   23.7270 N   0  0  0  0  0  0  0  0  0  0  0  0
  -26.0330  -38.3700   23.8690 H   0  0  0  0  0  0  0  0  0  0  0  0
  -26.4470  -31.8000   25.1350 C   0  0  1  0  0  0  0  0  0  0  0  0
  -25.3550  -31.5530   26.2010 C   0  0  0  0  0  1  0  0  0  0  0  0
  -27.0470  -30.4280   24.7470 C   0  0  0  0  0  1  0  0  0  0  0  0
  -27.5860  -32.6120   25.7950 C   0  0  0  0  0  1  0  0  0  0  0  0
  -31.1060  -16.2090   21.9630 C   0  0  0  0  0  2  0  0  0  0  0  0
  -30.7380  -14.3980   20.2740 C   0  0  0  0  0  0  0  0  0  0  0  0
  -30.2820  -12.3950   18.9030 C   0  0  0  0  0  2  0  0  0  0  0  0
  -29.2680  -12.6830   17.7820 C   0  0  0  0  0  2  0  0  0  0  0  0
  -27.8250  -12.5220   18.2920 C   0  0  0  0  0  2  0  0  0  0  0  0
  -27.5760  -13.2910   19.6160 C   0  0  0  0  0  3  0  0  0  0  0  0
  -28.6840  -12.9800   20.6440 C   0  0  0  0  0  2  0  0  0  0  0  0
  -29.9910  -13.2910   20.0320 N   0  0  0  0  0  0  0  0  0  0  0  0
  -31.7130  -14.7300   19.5950 O   0  0  0  0  0  0  0  0  0  0  0  0
  -30.3790  -15.0910   21.3610 N   0  0  0  0  0  0  0  0  0  0  0  0
  -29.5760  -14.7420   21.8640 H   0  0  0  0  0  0  0  0  0  0  0  0
  -25.2150  -13.8880   20.4570 C   0  0  0  0  0  0  0  0  0  0  0  0
  -24.1660  -13.1090   20.8670 C   0  0  0  0  0  0  0  0  0  0  0  0
  -24.6240  -11.7580   20.7850 C   0  0  0  0  0  0  0  0  0  0  0  0
  -26.2470  -13.0110   20.1560 N   0  0  0  0  0  0  0  0  0  0  0  0
  -25.8950  -11.7240   20.4080 N   0  0  0  0  0  0  0  0  0  0  0  0
  -23.9080  -10.4920   20.9870 C   0  0  0  0  0  0  0  0  0  0  0  0
  -24.3690   -9.5210   21.9030 C   0  0  0  0  0  3  0  0  0  0  0  0
  -23.6530   -8.3200   22.0950 C   0  0  0  0  0  3  0  0  0  0  0  0
  -22.4620   -8.0820   21.3700 C   0  0  0  0  0  0  0  0  0  0  0  0
  -22.0190   -9.0410   20.4410 C   0  0  0  0  0  3  0  0  0  0  0  0
  -22.7360  -10.2340   20.2490 C   0  0  0  0  0  3  0  0  0  0  0  0
  -21.7150   -6.9320   21.4700 O   0  0  0  0  0  0  0  0  0  0  0  0
  -21.6830   -6.1940   22.6260 C   0  0  0  0  0  0  0  0  0  0  0  0
  -21.2530   -6.7470   23.8510 C   0  0  0  0  0  3  0  0  0  0  0  0
  -21.1680   -5.9340   25.0000 C   0  0  0  0  0  3  0  0  0  0  0  0
  -21.5040   -4.5690   24.9220 C   0  0  0  0  0  0  0  0  0  0  0  0
  -21.9260   -4.0150   23.7020 C   0  0  0  0  0  3  0  0  0  0  0  0
  -22.0130   -4.8260   22.5550 C   0  0  0  0  0  0  0  0  0  0  0  0
  -22.4000   -4.2820   21.3760 F   0  0  0  0  0  0  0  0  0  0  0  0
  -21.4170   -3.7860   26.0220 F   0  0  0  0  0  0  0  0  0  0  0  0
  -22.7860  -13.5820   21.2230 C   0  0  0  0  0  0  0  0  0  0  0  0
  -22.1020  -12.8630   22.1070 N   0  0  0  0  0  0  0  0  0  0  0  0
  -22.3230  -14.6220   20.7550 O   0  0  0  0  0  0  0  0  0  0  0  0
  -22.4890  -12.0220   22.5080 H   0  0  0  0  0  0  0  0  0  0  0  0
  -21.1760  -13.1580   22.3860 H   0  0  0  0  0  0  0  0  0  0  0  0
  -25.3730  -15.2610   20.3000 N   0  0  0  0  0  0  0  0  0  0  0  0
  -24.6130  -15.9150   20.4580 H   0  0  0  0  0  0  0  0  0  0  0  0
  -26.2110  -15.7070   19.9490 H   0  0  0  0  0  0  0  0  0  0  0  0
  1  2  1  0
  1  4  1  0
  2  5  1  0
  3  6  1  0
  4  9  1  0
  4  3  1  0
  5 56  1  0
  5  6  1  0
  6  8  1  0
  6  7  1  0
  9 11  1  0
 10  9  1  0
 12 11  1  0
 12 13  1  0
 14 13  1  0
 15 17  1  0
 15 14  1  0
 16 27  2  0
 17 22  1  0
 18 26  1  0
 18 28  1  0
 19 25  1  0
 19 21  1  0
 20 26  1  0
 21 22  2  0
 21 20  1  0
 23 17  2  0
 24 23  1  0
 24 19  2  0
 25 18  1  0
 26 16  1  0
 28 30  2  0
 29 28  1  0
 31 29  1  0
 32 41  2  0
 32 37  1  0
 33 29  1  0
 33 37  1  0
 34 33  1  0
 35 36  1  0
 35 34  1  0
 36 32  1  0
 37 38  2  0
 38 39  1  0
 40 39  2  0
 41 40  1  0
 42 16  1  0
 42 43  1  0
 42 52  1  0
 43 46  1  0
 44 48  1  0
 44 43  1  0
 45 44  2  0
 48 47  1  0
 50 48  1  0
 50 51  1  0
 50 49  1  0
 52 55  1  1
 52 53  1  0
 54 52  1  0
 57 65  1  0
 58 63  1  0
 59 60  1  0
 59 58  1  0
 61 60  1  0
 61 70  1  0
 61 62  1  0
 63 57  1  0
 63 62  1  0
 64 57  2  0
 65 66  1  0
 65 56  1  0
 67 68  2  0
 68 87  1  0
 69 68  1  0
 69 72  1  0
 70 71  1  0
 70 67  1  0
 71 69  2  0
 72 73  1  0
 73 74  2  0
 75 78  1  0
 75 74  1  0
 76 75  2  0
 77 76  1  0
 77 72  2  0
 78 79  1  0
 79 80  1  0
 80 81  2  0
 82 81  1  0
 82 86  1  0
 83 82  2  0
 84 79  2  0
 84 83  1  0
 85 84  1  0
 87 88  1  0
 88 91  1  0
 88 90  1  0
 89 87  2  0
 92 67  1  0
 92 93  1  0
 94 92  1  0
M  ISO  4  14 101  15 101  57 100  65 100
M  END
>  <TORSDO>  (34) 
F 22

>  <SCORE>  (34) 
-13.135

>  <name>  (34) 
33

>  <ligand_id>  (34) 
33

>  <original_smiles>  (34) 
[H]c1c([H])c([H])c2c(c1[H])C([H])([H])C([H])([H])C([H])([H])C2([H])N([H])C(=O)C1([H])N(C(=O)C([H])(N([H])C(=O)C([H])(N([H])C([H])([H])[H])C([H])([H])[H])C(C([H])([H])[H])(C([H])([H])[H])C([H])([H])[H])C([H])([H])c2c([H])c(OC([H])([H])C([H])([H])C([H])([H])C([H])([H])N([H])C3([H])C([H])([H])C([H])([H])C([H])(C([H])([H])N([H])C(=O)N4C([H])([H])C([H])([H])C([H])([H])C([H])(n5nc(-c6c([H])c([H])c(Oc7c([H])c([H])c(F)c([H])c7F)c([H])c6[H])c(C(=O)N([H])[H])c5N([H])[H])C4([H])[H])[N+]([H])([H])C3([H])[H])c([H])c([H])c2C1([H])[H]

>  <smiles>  (34) 
[H]c1c([H])c([H])c2c(c1[H])C([H])([H])C([H])([H])C([H])([H])C2([H])N([H])C(=O)C1([H])N(C(=O)C([H])(N([H])C(=O)C([H])(N([H])C([H])([H])[H])C([H])([H])[H])C(C([H])([H])[H])(C([H])([H])[H])C([H])([H])[H])C([H])([H])c2c([H])c(OC([H])([H])C([H])([H])C([H])([H])C([H])([H])N([H])C3([H])C([H])([H])C([H])([H])C([H])(C([H])([H])N([H])C(=O)N4C([H])([H])C([H])([H])C([H])([H])C([H])(n5nc(-c6c([H])c([H])c(Oc7c([H])c([H])c(F)c([H])c7F)c([H])c6[H])c(C(=O)N([H])[H])c5N([H])[H])C4([H])[H])[N+]([H])([H])C3([H])[H])c([H])c([H])c2C1([H])[H]

$$$$
34:0:0
     RDKit          3D

 93101  0  0  1  0  0  0  0  0999 V2000
  -30.8420  -22.3650   19.8250 C   0  0  0  0  0  0  0  0  0  0  0  0
  -30.3720  -23.0910   18.8030 N   0  0  0  0  0  0  0  0  0  0  0  0
  -31.7010  -22.7780   20.6080 O   0  0  0  0  0  0  0  0  0  0  0  0
  -29.6880  -22.6470   18.2020 H   0  0  0  0  0  0  0  0  0  0  0  0
  -30.2450  -20.9690   19.9610 C   0  0  0  0  0  2  0  0  0  0  0  0
  -30.9850  -20.0120   20.9260 C   0  0  0  0  0  2  0  0  0  0  0  0
  -30.7410  -14.4720   20.3230 C   0  0  0  0  0  0  0  0  0  0  0  0
  -30.3990  -12.3130   19.2010 C   0  0  0  0  0  2  0  0  0  0  0  0
  -29.4400  -12.5270   18.0130 C   0  0  0  0  0  2  0  0  0  0  0  0
  -27.9690  -12.4040   18.4670 C   0  0  0  0  0  2  0  0  0  0  0  0
  -27.6500  -13.2260   19.7460 C   0  0  0  0  0  3  0  0  0  0  0  0
  -28.7360  -13.0250   20.8300 C   0  0  0  0  0  2  0  0  0  0  0  0
  -30.0500  -13.3050   20.2260 N   0  0  0  0  0  0  0  0  0  0  0  0
  -31.9100  -14.5990   19.9490 O   0  0  0  0  0  0  0  0  0  0  0  0
  -30.4120  -17.1330   18.5220 C   0  0  0  0  0  2  0  0  0  0  0  0
  -31.2980  -17.9950   19.4240 C   0  0  0  0  0  2  0  0  0  0  0  0
  -30.6880  -17.5920   21.8480 C   0  0  0  0  0  2  0  0  0  0  0  0
  -29.4130  -16.2310   19.2670 C   0  0  0  0  0  2  0  0  0  0  0  0
  -29.8220  -16.3070   21.7300 C   0  0  0  0  0  2  0  0  0  0  0  0
  -30.5480  -18.5590   20.6490 C   0  0  0  0  0  3  0  0  0  0  0  0
  -29.9630  -15.5680   20.4640 N   0  0  0  0  0  0  0  0  0  0  0  0
  -25.2680  -13.8450   20.4890 C   0  0  0  0  0  0  0  0  0  0  0  0
  -24.2020  -13.0740   20.8700 C   0  0  0  0  0  0  0  0  0  0  0  0
  -24.6630  -11.7220   20.8340 C   0  0  0  0  0  0  0  0  0  0  0  0
  -26.3080  -12.9580   20.2480 N   0  0  0  0  0  0  0  0  0  0  0  0
  -25.9490  -11.6780   20.5120 N   0  0  0  0  0  0  0  0  0  0  0  0
  -23.9390  -10.4620   21.0280 C   0  0  0  0  0  0  0  0  0  0  0  0
  -24.3850   -9.4950   21.9550 C   0  0  0  0  0  3  0  0  0  0  0  0
  -23.6660   -8.2950   22.1390 C   0  0  0  0  0  3  0  0  0  0  0  0
  -22.4850   -8.0560   21.3960 C   0  0  0  0  0  0  0  0  0  0  0  0
  -22.0590   -9.0110   20.4570 C   0  0  0  0  0  3  0  0  0  0  0  0
  -22.7790  -10.2020   20.2700 C   0  0  0  0  0  3  0  0  0  0  0  0
  -21.7330   -6.9110   21.4910 O   0  0  0  0  0  0  0  0  0  0  0  0
  -21.6930   -6.1690   22.6440 C   0  0  0  0  0  0  0  0  0  0  0  0
  -21.2750   -6.7240   23.8740 C   0  0  0  0  0  3  0  0  0  0  0  0
  -21.1850   -5.9090   25.0200 C   0  0  0  0  0  3  0  0  0  0  0  0
  -21.5010   -4.5400   24.9370 C   0  0  0  0  0  0  0  0  0  0  0  0
  -21.9100   -3.9830   23.7120 C   0  0  0  0  0  3  0  0  0  0  0  0
  -22.0020   -4.7960   22.5680 C   0  0  0  0  0  0  0  0  0  0  0  0
  -22.3790   -4.2520   21.3860 F   0  0  0  0  0  0  0  0  0  0  0  0
  -21.4060   -3.7540   26.0350 F   0  0  0  0  0  0  0  0  0  0  0  0
  -22.8090  -13.5520   21.1570 C   0  0  0  0  0  0  0  0  0  0  0  0
  -22.0910  -12.8580   22.0330 N   0  0  0  0  0  0  0  0  0  0  0  0
  -22.3660  -14.5770   20.6410 O   0  0  0  0  0  0  0  0  0  0  0  0
  -22.4640  -12.0310   22.4760 H   0  0  0  0  0  0  0  0  0  0  0  0
  -21.1540  -13.1570   22.2640 H   0  0  0  0  0  0  0  0  0  0  0  0
  -25.4330  -15.2150   20.3110 N   0  0  0  0  0  0  0  0  0  0  0  0
  -24.6710  -15.8730   20.4390 H   0  0  0  0  0  0  0  0  0  0  0  0
  -26.2920  -15.6550   20.0080 H   0  0  0  0  0  0  0  0  0  0  0  0
  -30.8020  -24.4350   18.4280 C   0  0  0  0  0  2  0  0  0  0  0  0
  -30.2430  -25.5240   19.3610 C   0  0  0  0  0  2  0  0  0  0  0  0
  -28.7300  -25.7840   19.2450 C   0  0  0  0  0  2  0  0  0  0  0  0
  -28.4550  -26.8340   20.1620 O   0  0  0  0  0  0  0  0  0  0  0  0
  -24.5720  -31.8870   23.2330 C   0  0  0  0  0  0  0  0  0  0  0  0
  -27.2390  -27.4780   20.1390 C   0  0  0  0  0  0  0  0  0  0  0  0
  -23.3620  -30.4800   21.5900 C   0  0  0  0  0  3  0  0  0  0  0  0
  -24.8190  -28.9380   20.1690 C   0  0  0  0  0  0  0  0  0  0  0  0
  -25.8830  -30.8470   21.3910 C   0  0  0  0  0  2  0  0  0  0  0  0
  -25.9690  -29.4750   20.7580 C   0  0  0  0  0  0  0  0  0  0  0  0
  -27.1730  -28.7440   20.7540 C   0  0  0  0  0  3  0  0  0  0  0  0
  -26.0700  -26.9380   19.5510 C   0  0  0  0  0  3  0  0  0  0  0  0
  -24.8610  -27.6640   19.5710 C   0  0  0  0  0  3  0  0  0  0  0  0
  -23.5700  -29.7890   20.2130 C   0  0  0  0  0  2  0  0  0  0  0  0
  -24.6240  -31.0870   22.1300 N   0  0  0  0  0  0  0  0  0  0  0  0
  -23.4920  -32.1580   23.7770 O   0  0  0  0  0  0  0  0  0  0  0  0
  -22.7150  -29.4630   22.5550 C   0  0  0  0  0  0  0  0  0  0  0  0
  -21.3920  -29.2770   22.4260 N   0  0  0  0  0  0  0  0  0  0  0  0
  -23.3990  -28.8420   23.3730 O   0  0  0  0  0  0  0  0  0  0  0  0
  -20.9020  -29.8310   21.7360 H   0  0  0  0  0  0  0  0  0  0  0  0
  -18.0200  -28.0750   22.9110 C   0  0  0  0  0  0  0  0  0  0  0  0
  -20.5750  -28.3410   23.1960 C   0  0  0  0  0  3  0  0  0  0  0  0
  -20.6850  -26.9070   22.6250 C   0  0  0  0  0  2  0  0  0  0  0  0
  -19.5900  -26.5780   21.6070 C   0  0  0  0  0  2  0  0  0  0  0  0
  -18.2040  -26.7240   22.2420 C   0  0  0  0  0  2  0  0  0  0  0  0
  -19.1350  -28.8410   23.3440 C   0  0  0  0  0  0  0  0  0  0  0  0
  -18.9110  -30.1080   23.9280 C   0  0  0  0  0  3  0  0  0  0  0  0
  -17.6040  -30.6080   24.0830 C   0  0  0  0  0  3  0  0  0  0  0  0
  -16.5040  -29.8380   23.6670 C   0  0  0  0  0  3  0  0  0  0  0  0
  -16.7120  -28.5740   23.0870 C   0  0  0  0  0  3  0  0  0  0  0  0
  -25.8610  -32.5160   23.8510 C   0  0  0  0  0  3  0  0  0  0  0  0
  -25.5570  -33.9140   24.1790 N   0  0  0  0  0  0  0  0  0  0  0  0
  -25.8970  -34.9650   23.4210 C   0  0  0  0  0  0  0  0  0  0  0  0
  -26.5740  -34.8590   22.3940 O   0  0  0  0  0  0  0  0  0  0  0  0
  -24.9590  -34.0720   24.9780 H   0  0  0  0  0  0  0  0  0  0  0  0
  -24.1800  -36.7650   23.0510 C   0  0  0  0  0  1  0  0  0  0  0  0
  -25.4110  -36.3550   23.8760 C   0  0  0  0  0  3  0  0  0  0  0  0
  -27.5420  -37.2280   24.7280 C   0  0  0  0  0  1  0  0  0  0  0  0
  -26.4490  -37.4030   23.7750 N   0  0  0  0  0  0  0  0  0  0  0  0
  -26.0470  -38.3250   23.9210 H   0  0  0  0  0  0  0  0  0  0  0  0
  -26.3840  -31.7440   25.1250 C   0  0  1  0  0  0  0  0  0  0  0  0
  -25.2950  -31.5100   26.1970 C   0  0  0  0  0  1  0  0  0  0  0  0
  -26.9640  -30.3660   24.7300 C   0  0  0  0  0  1  0  0  0  0  0  0
  -27.5380  -32.5380   25.7830 C   0  0  0  0  0  1  0  0  0  0  0  0
  1  5  1  0
  1  3  2  0
  2  1  1  0
  4  2  1  0
  5  6  1  0
  7 21  1  0
  8 13  1  0
  9 10  1  0
  9  8  1  0
 11 10  1  0
 11 25  1  0
 11 12  1  0
 13  7  1  0
 13 12  1  0
 14  7  2  0
 15 18  1  0
 15 16  1  0
 16 20  1  0
 18 21  1  0
 19 17  1  0
 20  6  1  0
 20 17  1  0
 21 19  1  0
 22 23  2  0
 23 42  1  0
 24 23  1  0
 24 27  1  0
 25 22  1  0
 25 26  1  0
 26 24  2  0
 27 28  1  0
 28 29  2  0
 30 33  1  0
 30 29  1  0
 31 30  2  0
 32 31  1  0
 32 27  2  0
 33 34  1  0
 34 35  1  0
 35 36  2  0
 37 36  1  0
 37 41  1  0
 38 37  2  0
 39 34  2  0
 39 38  1  0
 40 39  1  0
 42 43  1  0
 43 46  1  0
 43 45  1  0
 44 42  2  0
 47 48  1  0
 47 22  1  0
 49 47  1  0
 50  2  1  0
 50 51  1  0
 52 51  1  0
 52 53  1  0
 54 65  2  0
 55 53  1  0
 55 60  1  0
 56 64  1  0
 56 66  1  0
 57 63  1  0
 57 59  1  0
 58 64  1  0
 59 58  1  0
 60 59  2  0
 61 62  1  0
 61 55  2  0
 62 57  2  0
 63 56  1  0
 64 54  1  0
 66 68  2  0
 67 66  1  0
 69 67  1  0
 70 79  2  0
 70 75  1  0
 71 67  1  0
 71 75  1  0
 72 71  1  0
 73 74  1  0
 73 72  1  0
 74 70  1  0
 75 76  2  0
 76 77  1  0
 78 77  2  0
 79 78  1  0
 80 54  1  0
 80 81  1  0
 80 90  1  0
 81 84  1  0
 82 86  1  0
 82 81  1  0
 83 82  2  0
 86 85  1  0
 88 86  1  0
 88 89  1  0
 88 87  1  0
 90 93  1  1
 90 91  1  0
 92 90  1  0
M  ISO  4   7 100  21 100  52 101  53 101
M  END
>  <TORSDO>  (35) 
F 21

>  <SCORE>  (35) 
-13.435

>  <name>  (35) 
34

>  <ligand_id>  (35) 
34

>  <original_smiles>  (35) 
[H]c1c([H])c([H])c2c(c1[H])C([H])([H])C([H])([H])C([H])([H])C2([H])N([H])C(=O)C1([H])N(C(=O)C([H])(N([H])C(=O)C([H])(N([H])C([H])([H])[H])C([H])([H])[H])C(C([H])([H])[H])(C([H])([H])[H])C([H])([H])[H])C([H])([H])c2c([H])c(OC([H])([H])C([H])([H])C([H])([H])N([H])C(=O)C([H])([H])C([H])([H])C3([H])C([H])([H])C([H])([H])N(C(=O)N4C([H])([H])C([H])([H])C([H])([H])C([H])(n5nc(-c6c([H])c([H])c(Oc7c([H])c([H])c(F)c([H])c7F)c([H])c6[H])c(C(=O)N([H])[H])c5N([H])[H])C4([H])[H])C([H])([H])C([H])([H])C3([H])[H])c([H])c([H])c2C1([H])[H]

>  <smiles>  (35) 
[H]c1c([H])c([H])c2c(c1[H])C([H])([H])C([H])([H])C([H])([H])C2([H])N([H])C(=O)C1([H])N(C(=O)C([H])(N([H])C(=O)C([H])(N([H])C([H])([H])[H])C([H])([H])[H])C(C([H])([H])[H])(C([H])([H])[H])C([H])([H])[H])C([H])([H])c2c([H])c(OC([H])([H])C([H])([H])C([H])([H])N([H])C(=O)C([H])([H])C([H])([H])C3([H])C([H])([H])C([H])([H])N(C(=O)N4C([H])([H])C([H])([H])C([H])([H])C([H])(n5nc(-c6c([H])c([H])c(Oc7c([H])c([H])c(F)c([H])c7F)c([H])c6[H])c(C(=O)N([H])[H])c5N([H])[H])C4([H])[H])C([H])([H])C([H])([H])C3([H])[H])c([H])c([H])c2C1([H])[H]

$$$$
35:0:0
     RDKit          3D

 96104  0  0  1  0  0  0  0  0999 V2000
  -28.5220  -21.3570   20.7450 C   0  0  0  0  0  0  0  0  0  0  0  0
  -28.0030  -21.3740   21.8670 O   0  0  0  0  0  0  0  0  0  0  0  0
  -29.5980  -22.3680   20.3420 C   0  0  0  0  0  2  0  0  0  0  0  0
  -29.6660  -23.4330   21.3640 N   0  0  0  0  0  4  0  0  0  0  0  0
  -29.9680  -23.0120   22.2290 H   0  0  0  0  0  0  0  0  0  0  0  0
  -28.7240  -23.7600   21.5010 H   0  0  0  0  0  0  0  0  0  0  0  0
  -30.5480  -24.5590   20.9860 C   0  0  0  0  0  2  0  0  0  0  0  0
  -30.5560  -25.7170   22.0080 C   0  0  0  0  0  2  0  0  0  0  0  0
  -29.2220  -26.4720   22.1410 C   0  0  0  0  0  2  0  0  0  0  0  0
  -28.6900  -26.7130   20.8410 O   0  0  0  0  0  0  0  0  0  0  0  0
  -24.6100  -31.9390   23.4750 C   0  0  0  0  0  0  0  0  0  0  0  0
  -27.5320  -27.4460   20.7840 C   0  0  0  0  0  0  0  0  0  0  0  0
  -23.5410  -30.4600   21.8000 C   0  0  0  0  0  3  0  0  0  0  0  0
  -25.1150  -28.8880   20.5520 C   0  0  0  0  0  0  0  0  0  0  0  0
  -26.0640  -30.8570   21.7680 C   0  0  0  0  0  2  0  0  0  0  0  0
  -26.2130  -29.4600   21.2050 C   0  0  0  0  0  0  0  0  0  0  0  0
  -27.4240  -28.7470   21.3260 C   0  0  0  0  0  3  0  0  0  0  0  0
  -26.4250  -26.8840   20.1180 C   0  0  0  0  0  3  0  0  0  0  0  0
  -25.2130  -27.5950   20.0060 C   0  0  0  0  0  3  0  0  0  0  0  0
  -23.8600  -29.7270   20.4680 C   0  0  0  0  0  2  0  0  0  0  0  0
  -24.7520  -31.1010   22.4090 N   0  0  0  0  0  0  0  0  0  0  0  0
  -23.4900  -32.2180   23.9230 O   0  0  0  0  0  0  0  0  0  0  0  0
  -22.8300  -29.4690   22.7480 C   0  0  0  0  0  0  0  0  0  0  0  0
  -21.5150  -29.2880   22.5440 N   0  0  0  0  0  0  0  0  0  0  0  0
  -23.4600  -28.8640   23.6190 O   0  0  0  0  0  0  0  0  0  0  0  0
  -21.0690  -29.8330   21.8180 H   0  0  0  0  0  0  0  0  0  0  0  0
  -18.0990  -28.1650   22.8910 C   0  0  0  0  0  0  0  0  0  0  0  0
  -20.6460  -28.3750   23.2860 C   0  0  0  0  0  3  0  0  0  0  0  0
  -20.7470  -26.9350   22.7330 C   0  0  0  0  0  2  0  0  0  0  0  0
  -19.6920  -26.6190   21.6700 C   0  0  0  0  0  2  0  0  0  0  0  0
  -18.2830  -26.8010   22.2440 C   0  0  0  0  0  2  0  0  0  0  0  0
  -19.2100  -28.9110   23.3660 C   0  0  0  0  0  0  0  0  0  0  0  0
  -18.9890  -30.1880   23.9250 C   0  0  0  0  0  3  0  0  0  0  0  0
  -17.6890  -30.7190   24.0160 C   0  0  0  0  0  3  0  0  0  0  0  0
  -16.5910  -29.9680   23.5600 C   0  0  0  0  0  3  0  0  0  0  0  0
  -16.7970  -28.6940   23.0020 C   0  0  0  0  0  3  0  0  0  0  0  0
  -25.8420  -32.6050   24.1630 C   0  0  0  0  0  3  0  0  0  0  0  0
  -26.2760  -31.8760   25.4940 C   0  0  1  0  0  0  0  0  0  0  0  0
  -25.1100  -31.6360   26.4810 C   0  0  0  0  0  1  0  0  0  0  0  0
  -26.9200  -30.5080   25.1710 C   0  0  0  0  0  1  0  0  0  0  0  0
  -27.3570  -32.7120   26.2220 C   0  0  0  0  0  1  0  0  0  0  0  0
  -25.5030  -34.0080   24.4260 N   0  0  0  0  0  0  0  0  0  0  0  0
  -25.8840  -35.0360   23.6560 C   0  0  0  0  0  0  0  0  0  0  0  0
  -26.6290  -34.9050   22.6810 O   0  0  0  0  0  0  0  0  0  0  0  0
  -24.8620  -34.1870   25.1850 H   0  0  0  0  0  0  0  0  0  0  0  0
  -24.1750  -36.7900   23.1070 C   0  0  0  0  0  1  0  0  0  0  0  0
  -25.3520  -36.4320   24.0270 C   0  0  0  0  0  3  0  0  0  0  0  0
  -27.4150  -37.3630   24.9810 C   0  0  0  0  0  1  0  0  0  0  0  0
  -26.3810  -37.4930   23.9570 N   0  0  0  0  0  0  0  0  0  0  0  0
  -25.9560  -38.4110   24.0550 H   0  0  0  0  0  0  0  0  0  0  0  0
  -28.0990  -20.3360   19.6750 C   0  0  0  0  0  3  0  0  0  0  0  0
  -26.8500  -20.3700   17.4360 C   0  0  0  0  0  1  0  0  0  0  0  0
  -26.8610  -20.8370   18.8990 C   0  0  0  0  0  2  0  0  0  0  0  0
  -27.8890  -18.9050   20.2380 C   0  0  0  0  0  2  0  0  0  0  0  0
  -31.2510  -14.3020   19.9140 C   0  0  0  0  0  0  0  0  0  0  0  0
  -30.8420  -12.0470   19.0240 C   0  0  0  0  0  2  0  0  0  0  0  0
  -29.8760  -12.1470   17.8250 C   0  0  0  0  0  2  0  0  0  0  0  0
  -28.4100  -12.1110   18.2980 C   0  0  0  0  0  2  0  0  0  0  0  0
  -28.1290  -13.1000   19.4600 C   0  0  0  0  0  3  0  0  0  0  0  0
  -29.2030  -12.9720   20.5630 C   0  0  0  0  0  2  0  0  0  0  0  0
  -30.5220  -13.1550   19.9350 N   0  0  0  0  0  0  0  0  0  0  0  0
  -32.3830  -14.3590   19.4210 O   0  0  0  0  0  0  0  0  0  0  0  0
  -29.4360  -17.3450   18.9400 C   0  0  0  0  0  2  0  0  0  0  0  0
  -29.1090  -16.9700   21.3990 C   0  0  0  0  0  2  0  0  0  0  0  0
  -30.6760  -16.4500   19.0100 C   0  0  0  0  0  2  0  0  0  0  0  0
  -30.3610  -16.0610   21.3870 C   0  0  0  0  0  2  0  0  0  0  0  0
  -29.1680  -18.0390   20.2870 C   0  0  0  0  0  3  0  0  0  0  0  0
  -30.5350  -15.4400   20.0660 N   0  0  0  0  0  0  0  0  0  0  0  0
  -25.8190  -13.8810   20.2820 C   0  0  0  0  0  0  0  0  0  0  0  0
  -24.7120  -13.1880   20.6930 C   0  0  0  0  0  0  0  0  0  0  0  0
  -25.0630  -11.8060   20.6270 C   0  0  0  0  0  0  0  0  0  0  0  0
  -26.7810  -12.9250   19.9960 N   0  0  0  0  0  0  0  0  0  0  0  0
  -26.3320  -11.6700   20.2580 N   0  0  0  0  0  0  0  0  0  0  0  0
  -24.2500  -10.6000   20.8360 C   0  0  0  0  0  0  0  0  0  0  0  0
  -24.6210   -9.6130   21.7750 C   0  0  0  0  0  3  0  0  0  0  0  0
  -23.8120   -8.4730   21.9730 C   0  0  0  0  0  3  0  0  0  0  0  0
  -22.6170   -8.3130   21.2310 C   0  0  0  0  0  0  0  0  0  0  0  0
  -22.2640   -9.2880   20.2810 C   0  0  0  0  0  3  0  0  0  0  0  0
  -23.0730  -10.4190   20.0820 C   0  0  0  0  0  3  0  0  0  0  0  0
  -21.7840   -7.2260   21.3360 O   0  0  0  0  0  0  0  0  0  0  0  0
  -21.6620   -6.5230   22.5080 C   0  0  0  0  0  0  0  0  0  0  0  0
  -21.2620   -7.1460   23.7110 C   0  0  0  0  0  3  0  0  0  0  0  0
  -21.0820   -6.3740   24.8760 C   0  0  0  0  0  3  0  0  0  0  0  0
  -21.2910   -4.9820   24.8390 C   0  0  0  0  0  0  0  0  0  0  0  0
  -21.6840   -4.3600   23.6410 C   0  0  0  0  0  3  0  0  0  0  0  0
  -21.8660   -5.1290   22.4780 C   0  0  0  0  0  0  0  0  0  0  0  0
  -22.2230   -4.5220   21.3200 F   0  0  0  0  0  0  0  0  0  0  0  0
  -21.1120   -4.2380   25.9550 F   0  0  0  0  0  0  0  0  0  0  0  0
  -23.3710  -13.7690   21.0380 C   0  0  0  0  0  0  0  0  0  0  0  0
  -22.6410  -13.1310   21.9460 N   0  0  0  0  0  0  0  0  0  0  0  0
  -22.9800  -14.8240   20.5370 O   0  0  0  0  0  0  0  0  0  0  0  0
  -22.9690  -12.2750   22.3710 H   0  0  0  0  0  0  0  0  0  0  0  0
  -21.7420  -13.5020   22.2210 H   0  0  0  0  0  0  0  0  0  0  0  0
  -26.0800  -15.2360   20.1100 N   0  0  0  0  0  0  0  0  0  0  0  0
  -25.3690  -15.9440   20.2580 H   0  0  0  0  0  0  0  0  0  0  0  0
  -26.9580  -15.6130   19.7790 H   0  0  0  0  0  0  0  0  0  0  0  0
  1  2  2  0
  3  1  1  0
  3  4  1  0
  4  6  1  0
  4  5  1  0
  7  4  1  0
  7  8  1  0
  8  9  1  0
 10  9  1  0
 11 22  2  0
 12 10  1  0
 12 17  1  0
 13 21  1  0
 13 23  1  0
 14 16  1  0
 15 21  1  0
 16 17  2  0
 16 15  1  0
 18 12  2  0
 19 18  1  0
 19 14  2  0
 20 14  1  0
 20 13  1  0
 21 11  1  0
 23 25  2  0
 24 23  1  0
 26 24  1  0
 27 36  2  0
 27 32  1  0
 28 24  1  0
 28 32  1  0
 29 28  1  0
 30 31  1  0
 30 29  1  0
 31 27  1  0
 32 33  2  0
 33 34  1  0
 35 34  2  0
 36 35  1  0
 37 11  1  0
 37 42  1  0
 37 38  1  0
 38 41  1  1
 38 39  1  0
 40 38  1  0
 42 45  1  0
 43 47  1  0
 43 42  1  0
 44 43  2  0
 47 46  1  0
 49 47  1  0
 49 50  1  0
 49 48  1  0
 51 53  1  0
 51 54  1  0
 51  1  1  0
 52 53  1  0
 55 61  1  0
 55 68  1  0
 56 61  1  0
 57 58  1  0
 57 56  1  0
 59 58  1  0
 59 72  1  0
 59 60  1  0
 61 60  1  0
 62 55  2  0
 63 65  1  0
 63 67  1  0
 65 68  1  0
 66 64  1  0
 67 54  1  0
 67 64  1  0
 68 66  1  0
 69 70  2  0
 70 89  1  0
 71 70  1  0
 71 74  1  0
 72 73  1  0
 72 69  1  0
 73 71  2  0
 74 75  1  0
 75 76  2  0
 77 80  1  0
 77 76  1  0
 78 77  2  0
 79 78  1  0
 79 74  2  0
 80 81  1  0
 81 82  1  0
 82 83  2  0
 84 83  1  0
 84 88  1  0
 85 84  2  0
 86 81  2  0
 86 85  1  0
 87 86  1  0
 89 90  1  0
 90 93  1  0
 90 92  1  0
 91 89  2  0
 94 95  1  0
 94 69  1  0
 96 94  1  0
M  ISO  4   9 101  10 101  55 100  68 100
M  END
>  <TORSDO>  (36) 
F 24

>  <SCORE>  (36) 
-11.972

>  <name>  (36) 
35

>  <ligand_id>  (36) 
35

>  <original_smiles>  (36) 
[H]c1c([H])c([H])c2c(c1[H])C([H])([H])C([H])([H])C([H])([H])C2([H])N([H])C(=O)C1([H])N(C(=O)C([H])(N([H])C(=O)C([H])(N([H])C([H])([H])[H])C([H])([H])[H])C(C([H])([H])[H])(C([H])([H])[H])C([H])([H])[H])C([H])([H])c2c([H])c(OC([H])([H])C([H])([H])C([H])([H])[N+]([H])([H])C([H])([H])C(=O)C([H])(C([H])([H])C([H])([H])[H])C([H])([H])C3([H])C([H])([H])C([H])([H])N(C(=O)N4C([H])([H])C([H])([H])C([H])([H])C([H])(n5nc(-c6c([H])c([H])c(Oc7c([H])c([H])c(F)c([H])c7F)c([H])c6[H])c(C(=O)N([H])[H])c5N([H])[H])C4([H])[H])C([H])([H])C3([H])[H])c([H])c([H])c2C1([H])[H]

>  <smiles>  (36) 
[H]c1c([H])c([H])c2c(c1[H])C([H])([H])C([H])([H])C([H])([H])C2([H])N([H])C(=O)C1([H])N(C(=O)C([H])(N([H])C(=O)C([H])(N([H])C([H])([H])[H])C([H])([H])[H])C(C([H])([H])[H])(C([H])([H])[H])C([H])([H])[H])C([H])([H])c2c([H])c(OC([H])([H])C([H])([H])C([H])([H])[N+]([H])([H])C([H])([H])C(=O)C([H])(C([H])([H])C([H])([H])[H])C([H])([H])C3([H])C([H])([H])C([H])([H])N(C(=O)N4C([H])([H])C([H])([H])C([H])([H])C([H])(n5nc(-c6c([H])c([H])c(Oc7c([H])c([H])c(F)c([H])c7F)c([H])c6[H])c(C(=O)N([H])[H])c5N([H])[H])C4([H])[H])C([H])([H])C3([H])[H])c([H])c([H])c2C1([H])[H]

$$$$
36:0:0
     RDKit          3D

 88 95  0  0  1  0  0  0  0  0999 V2000
  -29.2230  -22.9070   20.3600 C   0  0  0  0  0  0  0  0  0  0  0  0
  -28.7800  -22.4430   19.3050 O   0  0  0  0  0  0  0  0  0  0  0  0
  -29.6200  -21.9900   21.5340 C   0  0  0  0  0  2  0  0  0  0  0  0
  -29.0560  -20.5350   21.5160 C   0  0  0  0  0  2  0  0  0  0  0  0
  -30.0190  -19.4480   20.9750 C   0  0  0  0  0  2  0  0  0  0  0  0
  -29.4810  -17.9960   21.1090 C   0  0  0  0  0  2  0  0  0  0  0  0
  -30.5210  -16.9230   20.7050 C   0  0  0  0  0  2  0  0  0  0  0  0
  -30.6740  -14.4940   20.2070 C   0  0  0  0  0  0  0  0  0  0  0  0
  -30.3120  -12.3530   19.0420 C   0  0  0  0  0  2  0  0  0  0  0  0
  -29.3400  -12.5770   17.8670 C   0  0  0  0  0  2  0  0  0  0  0  0
  -27.8780  -12.4450   18.3370 C   0  0  0  0  0  2  0  0  0  0  0  0
  -27.5820  -13.2680   19.6200 C   0  0  0  0  0  3  0  0  0  0  0  0
  -28.6690  -13.0370   20.6960 C   0  0  0  0  0  2  0  0  0  0  0  0
  -29.9770  -13.3320   20.0890 N   0  0  0  0  0  0  0  0  0  0  0  0
  -31.7890  -14.6550   19.7030 O   0  0  0  0  0  0  0  0  0  0  0  0
  -30.0200  -15.5370   20.7550 N   0  0  0  0  0  0  0  0  0  0  0  0
  -29.0980  -15.3680   21.1290 H   0  0  0  0  0  0  0  0  0  0  0  0
  -25.2020  -13.8740   20.3890 C   0  0  0  0  0  0  0  0  0  0  0  0
  -24.1450  -13.1020   20.7850 C   0  0  0  0  0  0  0  0  0  0  0  0
  -24.6050  -11.7500   20.7440 C   0  0  0  0  0  0  0  0  0  0  0  0
  -26.2420  -12.9940   20.1330 N   0  0  0  0  0  0  0  0  0  0  0  0
  -25.8870  -11.7110   20.4040 N   0  0  0  0  0  0  0  0  0  0  0  0
  -23.8840  -10.4880   20.9530 C   0  0  0  0  0  0  0  0  0  0  0  0
  -24.3370   -9.5240   21.8810 C   0  0  0  0  0  3  0  0  0  0  0  0
  -23.6170   -8.3260   22.0780 C   0  0  0  0  0  3  0  0  0  0  0  0
  -22.4290   -8.0840   21.3480 C   0  0  0  0  0  0  0  0  0  0  0  0
  -21.9950   -9.0360   20.4100 C   0  0  0  0  0  3  0  0  0  0  0  0
  -22.7160  -10.2250   20.2100 C   0  0  0  0  0  3  0  0  0  0  0  0
  -21.6780   -6.9390   21.4550 O   0  0  0  0  0  0  0  0  0  0  0  0
  -21.6470   -6.2030   22.6130 C   0  0  0  0  0  0  0  0  0  0  0  0
  -21.2470   -6.7680   23.8440 C   0  0  0  0  0  3  0  0  0  0  0  0
  -21.1630   -5.9600   24.9950 C   0  0  0  0  0  3  0  0  0  0  0  0
  -21.4690   -4.5890   24.9180 C   0  0  0  0  0  0  0  0  0  0  0  0
  -21.8630   -4.0230   23.6920 C   0  0  0  0  0  3  0  0  0  0  0  0
  -21.9490   -4.8280   22.5420 C   0  0  0  0  0  0  0  0  0  0  0  0
  -22.3080   -4.2740   21.3590 F   0  0  0  0  0  0  0  0  0  0  0  0
  -21.3820   -3.8100   26.0210 F   0  0  0  0  0  0  0  0  0  0  0  0
  -22.7540  -13.5790   21.0910 C   0  0  0  0  0  0  0  0  0  0  0  0
  -22.0490  -12.8850   21.9780 N   0  0  0  0  0  0  0  0  0  0  0  0
  -22.3010  -14.6030   20.5790 O   0  0  0  0  0  0  0  0  0  0  0  0
  -22.4290  -12.0580   22.4150 H   0  0  0  0  0  0  0  0  0  0  0  0
  -21.1170  -13.1870   22.2250 H   0  0  0  0  0  0  0  0  0  0  0  0
  -25.3620  -15.2450   20.2040 N   0  0  0  0  0  0  0  0  0  0  0  0
  -24.5980  -15.8990   20.3360 H   0  0  0  0  0  0  0  0  0  0  0  0
  -26.2010  -15.6840   19.8480 H   0  0  0  0  0  0  0  0  0  0  0  0
  -29.4130  -24.4300   20.5400 C   0  0  0  0  0  2  0  0  0  0  0  0
  -28.2430  -25.2650   19.9670 C   0  0  0  0  0  2  0  0  0  0  0  0
  -28.3780  -26.6870   20.1840 O   0  0  0  0  0  0  0  0  0  0  0  0
  -24.5940  -31.9020   23.2320 C   0  0  0  0  0  0  0  0  0  0  0  0
  -27.2160  -27.4410   20.1420 C   0  0  0  0  0  0  0  0  0  0  0  0
  -23.3810  -30.5060   21.5930 C   0  0  0  0  0  3  0  0  0  0  0  0
  -24.8270  -28.9730   20.1580 C   0  0  0  0  0  0  0  0  0  0  0  0
  -25.9100  -30.8540   21.3900 C   0  0  0  0  0  2  0  0  0  0  0  0
  -25.9900  -29.4850   20.7450 C   0  0  0  0  0  0  0  0  0  0  0  0
  -27.1860  -28.7280   20.7330 C   0  0  0  0  0  3  0  0  0  0  0  0
  -26.0310  -26.9580   19.5320 C   0  0  0  0  0  3  0  0  0  0  0  0
  -24.8430  -27.7090   19.5470 C   0  0  0  0  0  3  0  0  0  0  0  0
  -23.5850  -29.8330   20.2090 C   0  0  0  0  0  2  0  0  0  0  0  0
  -24.6480  -31.1030   22.1300 N   0  0  0  0  0  0  0  0  0  0  0  0
  -23.5150  -32.1750   23.7750 O   0  0  0  0  0  0  0  0  0  0  0  0
  -22.7320  -29.4820   22.5520 C   0  0  0  0  0  0  0  0  0  0  0  0
  -21.4070  -29.2990   22.4260 N   0  0  0  0  0  0  0  0  0  0  0  0
  -23.4160  -28.8570   23.3660 O   0  0  0  0  0  0  0  0  0  0  0  0
  -20.9160  -29.8550   21.7400 H   0  0  0  0  0  0  0  0  0  0  0  0
  -18.0350  -28.0960   22.9190 C   0  0  0  0  0  0  0  0  0  0  0  0
  -20.5910  -28.3610   23.1970 C   0  0  0  0  0  3  0  0  0  0  0  0
  -20.6990  -26.9280   22.6240 C   0  0  0  0  0  2  0  0  0  0  0  0
  -19.6000  -26.6010   21.6080 C   0  0  0  0  0  2  0  0  0  0  0  0
  -18.2160  -26.7460   22.2470 C   0  0  0  0  0  2  0  0  0  0  0  0
  -19.1510  -28.8620   23.3500 C   0  0  0  0  0  0  0  0  0  0  0  0
  -18.9280  -30.1270   23.9370 C   0  0  0  0  0  3  0  0  0  0  0  0
  -17.6210  -30.6270   24.0960 C   0  0  0  0  0  3  0  0  0  0  0  0
  -16.5210  -29.8590   23.6810 C   0  0  0  0  0  3  0  0  0  0  0  0
  -16.7280  -28.5950   23.0990 C   0  0  0  0  0  3  0  0  0  0  0  0
  -25.8830  -32.5300   23.8490 C   0  0  0  0  0  3  0  0  0  0  0  0
  -25.5760  -33.9270   24.1820 N   0  0  0  0  0  0  0  0  0  0  0  0
  -25.9010  -34.9800   23.4190 C   0  0  0  0  0  0  0  0  0  0  0  0
  -26.5630  -34.8790   22.3830 O   0  0  0  0  0  0  0  0  0  0  0  0
  -24.9920  -34.0810   24.9910 H   0  0  0  0  0  0  0  0  0  0  0  0
  -24.1650  -36.7670   23.0860 C   0  0  0  0  0  1  0  0  0  0  0  0
  -25.4170  -36.3680   23.8820 C   0  0  0  0  0  3  0  0  0  0  0  0
  -27.5610  -37.2560   24.6840 C   0  0  0  0  0  1  0  0  0  0  0  0
  -26.4450  -37.4230   23.7550 N   0  0  0  0  0  0  0  0  0  0  0  0
  -26.0390  -38.3420   23.9080 H   0  0  0  0  0  0  0  0  0  0  0  0
  -26.4070  -31.7550   25.1190 C   0  0  1  0  0  0  0  0  0  0  0  0
  -25.3200  -31.5140   26.1920 C   0  0  0  0  0  1  0  0  0  0  0  0
  -26.9860  -30.3790   24.7170 C   0  0  0  0  0  1  0  0  0  0  0  0
  -27.5620  -32.5460   25.7770 C   0  0  0  0  0  1  0  0  0  0  0  0
  1 46  1  0
  1  3  1  0
  2  1  2  0
  4  3  1  0
  5  6  1  0
  5  4  1  0
  7 16  1  0
  7  6  1  0
  8 16  1  0
  9 14  1  0
 10 11  1  0
 10  9  1  0
 12 11  1  0
 12 21  1  0
 12 13  1  0
 14  8  1  0
 14 13  1  0
 15  8  2  0
 16 17  1  0
 18 19  2  0
 19 38  1  0
 20 19  1  0
 20 23  1  0
 21 18  1  0
 21 22  1  0
 22 20  2  0
 23 24  1  0
 24 25  2  0
 26 29  1  0
 26 25  1  0
 27 26  2  0
 28 27  1  0
 28 23  2  0
 29 30  1  0
 30 31  1  0
 31 32  2  0
 33 32  1  0
 33 37  1  0
 34 33  2  0
 35 30  2  0
 35 34  1  0
 36 35  1  0
 38 39  1  0
 39 42  1  0
 39 41  1  0
 40 38  2  0
 43 44  1  0
 43 18  1  0
 45 43  1  0
 47 48  1  0
 47 46  1  0
 49 60  2  0
 50 48  1  0
 50 55  1  0
 51 59  1  0
 51 61  1  0
 52 58  1  0
 52 54  1  0
 53 59  1  0
 54 53  1  0
 55 54  2  0
 56 57  1  0
 56 50  2  0
 57 52  2  0
 58 51  1  0
 59 49  1  0
 61 63  2  0
 62 61  1  0
 64 62  1  0
 65 74  2  0
 65 70  1  0
 66 62  1  0
 66 70  1  0
 67 66  1  0
 68 69  1  0
 68 67  1  0
 69 65  1  0
 70 71  2  0
 71 72  1  0
 73 72  2  0
 74 73  1  0
 75 49  1  0
 75 76  1  0
 75 85  1  0
 76 79  1  0
 77 81  1  0
 77 76  1  0
 78 77  2  0
 81 80  1  0
 83 81  1  0
 83 84  1  0
 83 82  1  0
 85 88  1  1
 85 86  1  0
 87 85  1  0
M  ISO  4   8 100  16 100  47 101  48 101
M  END
>  <TORSDO>  (37) 
F 23

>  <SCORE>  (37) 
-12.306

>  <name>  (37) 
36

>  <ligand_id>  (37) 
36

>  <original_smiles>  (37) 
[H]c1c([H])c([H])c2c(c1[H])C([H])([H])C([H])([H])C([H])([H])C2([H])N([H])C(=O)C1([H])N(C(=O)C([H])(N([H])C(=O)C([H])(N([H])C([H])([H])[H])C([H])([H])[H])C(C([H])([H])[H])(C([H])([H])[H])C([H])([H])[H])C([H])([H])c2c([H])c(OC([H])([H])C([H])([H])C(=O)C([H])([H])C([H])([H])C([H])([H])C([H])([H])C([H])([H])N([H])C(=O)N3C([H])([H])C([H])([H])C([H])([H])C([H])(n4nc(-c5c([H])c([H])c(Oc6c([H])c([H])c(F)c([H])c6F)c([H])c5[H])c(C(=O)N([H])[H])c4N([H])[H])C3([H])[H])c([H])c([H])c2C1([H])[H]

>  <smiles>  (37) 
[H]c1c([H])c([H])c2c(c1[H])C([H])([H])C([H])([H])C([H])([H])C2([H])N([H])C(=O)C1([H])N(C(=O)C([H])(N([H])C(=O)C([H])(N([H])C([H])([H])[H])C([H])([H])[H])C(C([H])([H])[H])(C([H])([H])[H])C([H])([H])[H])C([H])([H])c2c([H])c(OC([H])([H])C([H])([H])C(=O)C([H])([H])C([H])([H])C([H])([H])C([H])([H])C([H])([H])N([H])C(=O)N3C([H])([H])C([H])([H])C([H])([H])C([H])(n4nc(-c5c([H])c([H])c(Oc6c([H])c([H])c(F)c([H])c6F)c([H])c5[H])c(C(=O)N([H])[H])c4N([H])[H])C3([H])[H])c([H])c([H])c2C1([H])[H]

$$$$
37:0:0
     RDKit          3D

 91 98  0  0  1  0  0  0  0  0999 V2000
  -30.9040  -21.2670   20.3520 C   0  0  0  0  0  0  0  0  0  0  0  0
  -30.5390  -21.9770   19.2750 N   0  0  0  0  0  0  0  0  0  0  0  0
  -31.5710  -21.7520   21.2710 O   0  0  0  0  0  0  0  0  0  0  0  0
  -29.9560  -21.5020   18.5950 H   0  0  0  0  0  0  0  0  0  0  0  0
  -30.5660  -19.7710   20.3430 C   0  0  0  0  0  2  0  0  0  0  0  0
  -30.1970  -19.1670   21.7170 C   0  0  0  0  0  2  0  0  0  0  0  0
  -30.4530  -17.6420   21.8450 C   0  0  0  0  0  2  0  0  0  0  0  0
  -30.0030  -16.8080   20.6310 C   0  0  0  0  0  2  0  0  0  0  0  0
  -30.7260  -14.4200   20.3310 C   0  0  0  0  0  0  0  0  0  0  0  0
  -30.4310  -12.3180   19.0820 C   0  0  0  0  0  2  0  0  0  0  0  0
  -29.4580  -12.5910   17.9150 C   0  0  0  0  0  2  0  0  0  0  0  0
  -27.9890  -12.4570   18.3650 C   0  0  0  0  0  2  0  0  0  0  0  0
  -27.6970  -13.2340   19.6800 C   0  0  0  0  0  3  0  0  0  0  0  0
  -28.7660  -12.9030   20.7460 C   0  0  0  0  0  2  0  0  0  0  0  0
  -30.0850  -13.2330   20.1780 N   0  0  0  0  0  0  0  0  0  0  0  0
  -31.8260  -14.6740   19.8280 O   0  0  0  0  0  0  0  0  0  0  0  0
  -29.9600  -15.3690   20.8970 N   0  0  0  0  0  0  0  0  0  0  0  0
  -29.0950  -15.0190   21.2830 H   0  0  0  0  0  0  0  0  0  0  0  0
  -25.3070  -13.8580   20.4150 C   0  0  0  0  0  0  0  0  0  0  0  0
  -24.2400  -13.0910   20.8000 C   0  0  0  0  0  0  0  0  0  0  0  0
  -24.6930  -11.7370   20.7600 C   0  0  0  0  0  0  0  0  0  0  0  0
  -26.3460  -12.9710   20.1710 N   0  0  0  0  0  0  0  0  0  0  0  0
  -25.9800  -11.6900   20.4330 N   0  0  0  0  0  0  0  0  0  0  0  0
  -23.9660  -10.4770   20.9600 C   0  0  0  0  0  0  0  0  0  0  0  0
  -24.3970   -9.5180   21.9010 C   0  0  0  0  0  3  0  0  0  0  0  0
  -23.6740   -8.3220   22.0880 C   0  0  0  0  0  3  0  0  0  0  0  0
  -22.5000   -8.0780   21.3370 C   0  0  0  0  0  0  0  0  0  0  0  0
  -22.0880   -9.0270   20.3850 C   0  0  0  0  0  3  0  0  0  0  0  0
  -22.8130  -10.2140   20.1950 C   0  0  0  0  0  3  0  0  0  0  0  0
  -21.7470   -6.9350   21.4340 O   0  0  0  0  0  0  0  0  0  0  0  0
  -21.6890   -6.2080   22.5950 C   0  0  0  0  0  0  0  0  0  0  0  0
  -21.2440   -6.7750   23.8100 C   0  0  0  0  0  3  0  0  0  0  0  0
  -21.1340   -5.9740   24.9620 C   0  0  0  0  0  3  0  0  0  0  0  0
  -21.4560   -4.6050   24.9020 C   0  0  0  0  0  0  0  0  0  0  0  0
  -21.8910   -4.0370   23.6920 C   0  0  0  0  0  3  0  0  0  0  0  0
  -22.0040   -4.8350   22.5410 C   0  0  0  0  0  0  0  0  0  0  0  0
  -22.4040   -4.2770   21.3740 F   0  0  0  0  0  0  0  0  0  0  0  0
  -21.3440   -3.8320   26.0080 F   0  0  0  0  0  0  0  0  0  0  0  0
  -22.8470  -13.5750   21.0900 C   0  0  0  0  0  0  0  0  0  0  0  0
  -22.1290  -12.8830   21.9640 N   0  0  0  0  0  0  0  0  0  0  0  0
  -22.4060  -14.6030   20.5780 O   0  0  0  0  0  0  0  0  0  0  0  0
  -22.5010  -12.0570   22.4090 H   0  0  0  0  0  0  0  0  0  0  0  0
  -21.1930  -13.1870   22.1970 H   0  0  0  0  0  0  0  0  0  0  0  0
  -25.4760  -15.2260   20.2310 N   0  0  0  0  0  0  0  0  0  0  0  0
  -24.7190  -15.8880   20.3500 H   0  0  0  0  0  0  0  0  0  0  0  0
  -26.3180  -15.6530   19.8640 H   0  0  0  0  0  0  0  0  0  0  0  0
  -31.2050  -23.1980   18.8200 C   0  0  0  0  0  2  0  0  0  0  0  0
  -30.6000  -24.5140   19.3570 C   0  0  0  0  0  2  0  0  0  0  0  0
  -29.2130  -24.8390   18.7710 C   0  0  0  0  0  2  0  0  0  0  0  0
  -28.8420  -26.3360   18.8270 C   0  0  0  0  0  2  0  0  0  0  0  0
  -28.3920  -26.7590   20.1170 O   0  0  0  0  0  0  0  0  0  0  0  0
  -24.5620  -31.8920   23.2430 C   0  0  0  0  0  0  0  0  0  0  0  0
  -27.2090  -27.4650   20.1420 C   0  0  0  0  0  0  0  0  0  0  0  0
  -23.3480  -30.4880   21.6050 C   0  0  0  0  0  3  0  0  0  0  0  0
  -24.7990  -28.9440   20.1810 C   0  0  0  0  0  0  0  0  0  0  0  0
  -25.8730  -30.8420   21.4080 C   0  0  0  0  0  2  0  0  0  0  0  0
  -25.9550  -29.4700   20.7720 C   0  0  0  0  0  0  0  0  0  0  0  0
  -27.1560  -28.7290   20.7680 C   0  0  0  0  0  3  0  0  0  0  0  0
  -26.0320  -26.9390   19.5640 C   0  0  0  0  0  3  0  0  0  0  0  0
  -24.8290  -27.6720   19.5820 C   0  0  0  0  0  3  0  0  0  0  0  0
  -23.5530  -29.8030   20.2280 C   0  0  0  0  0  2  0  0  0  0  0  0
  -24.6130  -31.0900   22.1430 N   0  0  0  0  0  0  0  0  0  0  0  0
  -23.4820  -32.1670   23.7860 O   0  0  0  0  0  0  0  0  0  0  0  0
  -22.6990  -29.4690   22.5680 C   0  0  0  0  0  0  0  0  0  0  0  0
  -21.3760  -29.2830   22.4390 N   0  0  0  0  0  0  0  0  0  0  0  0
  -23.3820  -28.8480   23.3880 O   0  0  0  0  0  0  0  0  0  0  0  0
  -20.8860  -29.8350   21.7480 H   0  0  0  0  0  0  0  0  0  0  0  0
  -18.0020  -28.0900   22.9300 C   0  0  0  0  0  0  0  0  0  0  0  0
  -20.5590  -28.3470   23.2090 C   0  0  0  0  0  3  0  0  0  0  0  0
  -20.6620  -26.9150   22.6360 C   0  0  0  0  0  2  0  0  0  0  0  0
  -19.5640  -26.5910   21.6200 C   0  0  0  0  0  2  0  0  0  0  0  0
  -18.1800  -26.7370   22.2600 C   0  0  0  0  0  2  0  0  0  0  0  0
  -19.1180  -28.8520   23.3620 C   0  0  0  0  0  0  0  0  0  0  0  0
  -18.8990  -30.1180   23.9460 C   0  0  0  0  0  3  0  0  0  0  0  0
  -17.5940  -30.6230   24.1040 C   0  0  0  0  0  3  0  0  0  0  0  0
  -16.4920  -29.8550   23.6920 C   0  0  0  0  0  3  0  0  0  0  0  0
  -16.6960  -28.5910   23.1100 C   0  0  0  0  0  3  0  0  0  0  0  0
  -25.8510  -32.5190   23.8580 C   0  0  0  0  0  3  0  0  0  0  0  0
  -25.5520  -33.9220   24.1740 N   0  0  0  0  0  0  0  0  0  0  0  0
  -25.9030  -34.9640   23.4100 C   0  0  0  0  0  0  0  0  0  0  0  0
  -26.5830  -34.8490   22.3870 O   0  0  0  0  0  0  0  0  0  0  0  0
  -24.9520  -34.0890   24.9680 H   0  0  0  0  0  0  0  0  0  0  0  0
  -24.1990  -36.7700   23.0110 C   0  0  0  0  0  1  0  0  0  0  0  0
  -25.4200  -36.3600   23.8500 C   0  0  0  0  0  3  0  0  0  0  0  0
  -27.5460  -37.2240   24.7230 C   0  0  0  0  0  1  0  0  0  0  0  0
  -26.4640  -37.4020   23.7550 N   0  0  0  0  0  0  0  0  0  0  0  0
  -26.0660  -38.3260   23.8950 H   0  0  0  0  0  0  0  0  0  0  0  0
  -26.3680  -31.7570   25.1390 C   0  0  1  0  0  0  0  0  0  0  0  0
  -25.2760  -31.5310   26.2100 C   0  0  0  0  0  1  0  0  0  0  0  0
  -26.9470  -30.3740   24.7560 C   0  0  0  0  0  1  0  0  0  0  0  0
  -27.5230  -32.5520   25.7930 C   0  0  0  0  0  1  0  0  0  0  0  0
  1  3  2  0
  2  1  1  0
  4  2  1  0
  5  1  1  0
  5  6  1  0
  6  7  1  0
  8 17  1  0
  8  7  1  0
  9 17  1  0
 10 15  1  0
 11 12  1  0
 11 10  1  0
 13 12  1  0
 13 22  1  0
 13 14  1  0
 15  9  1  0
 15 14  1  0
 16  9  2  0
 17 18  1  0
 19 20  2  0
 20 39  1  0
 21 20  1  0
 21 24  1  0
 22 19  1  0
 22 23  1  0
 23 21  2  0
 24 25  1  0
 25 26  2  0
 27 30  1  0
 27 26  1  0
 28 27  2  0
 29 28  1  0
 29 24  2  0
 30 31  1  0
 31 32  1  0
 32 33  2  0
 34 33  1  0
 34 38  1  0
 35 34  2  0
 36 31  2  0
 36 35  1  0
 37 36  1  0
 39 40  1  0
 40 43  1  0
 40 42  1  0
 41 39  2  0
 44 45  1  0
 44 19  1  0
 46 44  1  0
 47  2  1  0
 47 48  1  0
 49 50  1  0
 49 48  1  0
 50 51  1  0
 51 53  1  0
 52 63  2  0
 53 58  1  0
 54 62  1  0
 54 64  1  0
 55 61  1  0
 55 57  1  0
 56 62  1  0
 57 56  1  0
 58 57  2  0
 59 60  1  0
 59 53  2  0
 60 55  2  0
 61 54  1  0
 62 52  1  0
 64 66  2  0
 65 64  1  0
 67 65  1  0
 68 77  2  0
 68 73  1  0
 69 65  1  0
 69 73  1  0
 70 69  1  0
 71 72  1  0
 71 70  1  0
 72 68  1  0
 73 74  2  0
 74 75  1  0
 76 75  2  0
 77 76  1  0
 78 52  1  0
 78 79  1  0
 78 88  1  0
 79 82  1  0
 80 84  1  0
 80 79  1  0
 81 80  2  0
 84 83  1  0
 86 84  1  0
 86 87  1  0
 86 85  1  0
 88 91  1  1
 88 89  1  0
 90 88  1  0
M  ISO  4   9 100  17 100  50 101  51 101
M  END
>  <TORSDO>  (38) 
F 24

>  <SCORE>  (38) 
-12.167

>  <name>  (38) 
37

>  <ligand_id>  (38) 
37

>  <original_smiles>  (38) 
[H]c1c([H])c([H])c2c(c1[H])C([H])([H])C([H])([H])C([H])([H])C2([H])N([H])C(=O)C1([H])N(C(=O)C([H])(N([H])C(=O)C([H])(N([H])C([H])([H])[H])C([H])([H])[H])C(C([H])([H])[H])(C([H])([H])[H])C([H])([H])[H])C([H])([H])c2c([H])c(OC([H])([H])C([H])([H])C([H])([H])C([H])([H])N([H])C(=O)C([H])([H])C([H])([H])C([H])([H])C([H])([H])N([H])C(=O)N3C([H])([H])C([H])([H])C([H])([H])C([H])(n4nc(-c5c([H])c([H])c(Oc6c([H])c([H])c(F)c([H])c6F)c([H])c5[H])c(C(=O)N([H])[H])c4N([H])[H])C3([H])[H])c([H])c([H])c2C1([H])[H]

>  <smiles>  (38) 
[H]c1c([H])c([H])c2c(c1[H])C([H])([H])C([H])([H])C([H])([H])C2([H])N([H])C(=O)C1([H])N(C(=O)C([H])(N([H])C(=O)C([H])(N([H])C([H])([H])[H])C([H])([H])[H])C(C([H])([H])[H])(C([H])([H])[H])C([H])([H])[H])C([H])([H])c2c([H])c(OC([H])([H])C([H])([H])C([H])([H])C([H])([H])N([H])C(=O)C([H])([H])C([H])([H])C([H])([H])C([H])([H])N([H])C(=O)N3C([H])([H])C([H])([H])C([H])([H])C([H])(n4nc(-c5c([H])c([H])c(Oc6c([H])c([H])c(F)c([H])c6F)c([H])c5[H])c(C(=O)N([H])[H])c4N([H])[H])C3([H])[H])c([H])c([H])c2C1([H])[H]

$$$$
38:0:0
     RDKit          3D

 95103  0  0  1  0  0  0  0  0999 V2000
  -30.2400  -18.1140   20.7680 C   0  0  0  0  0  0  0  0  0  0  0  0
  -30.8970  -16.9970   18.4770 C   0  0  0  0  0  2  0  0  0  0  0  0
  -30.4390  -17.9710   17.3640 C   0  0  0  0  0  2  0  0  0  0  0  0
  -29.6510  -19.7910   18.8630 C   0  0  0  0  0  2  0  0  0  0  0  0
  -30.0020  -16.9560   19.7550 C   0  0  0  0  0  3  0  0  0  0  0  0
  -30.3470  -19.5850   20.2370 C   0  0  0  0  0  3  0  0  0  0  0  0
  -30.5140  -19.4000   17.7320 N   0  0  0  0  0  4  0  0  0  0  0  0
  -30.3680  -17.8860   21.9750 O   0  0  0  0  0  0  0  0  0  0  0  0
  -30.2010  -19.9260   16.9300 H   0  0  0  0  0  0  0  0  0  0  0  0
  -31.4690  -19.6820   17.8940 H   0  0  0  0  0  0  0  0  0  0  0  0
  -30.6720  -14.5420   20.3510 C   0  0  0  0  0  0  0  0  0  0  0  0
  -30.3560  -12.3730   19.2580 C   0  0  0  0  0  2  0  0  0  0  0  0
  -29.4130  -12.6300   18.0620 C   0  0  0  0  0  2  0  0  0  0  0  0
  -27.9360  -12.4990   18.4900 C   0  0  0  0  0  2  0  0  0  0  0  0
  -27.6120  -13.3030   19.7750 C   0  0  0  0  0  3  0  0  0  0  0  0
  -28.6810  -13.0870   20.8790 C   0  0  0  0  0  2  0  0  0  0  0  0
  -30.0090  -13.3550   20.2960 N   0  0  0  0  0  0  0  0  0  0  0  0
  -31.8580  -14.6720   20.0420 O   0  0  0  0  0  0  0  0  0  0  0  0
  -29.8480  -15.6060   20.3670 N   0  0  0  0  0  0  0  0  0  0  0  0
  -28.9160  -15.3920   20.6890 H   0  0  0  0  0  0  0  0  0  0  0  0
  -25.2160  -13.9160   20.4900 C   0  0  0  0  0  0  0  0  0  0  0  0
  -24.1490  -13.1450   20.8660 C   0  0  0  0  0  0  0  0  0  0  0  0
  -24.6070  -11.7940   20.8390 C   0  0  0  0  0  0  0  0  0  0  0  0
  -26.2620  -13.0300   20.2620 N   0  0  0  0  0  0  0  0  0  0  0  0
  -25.8980  -11.7510   20.5270 N   0  0  0  0  0  0  0  0  0  0  0  0
  -23.8810  -10.5350   21.0350 C   0  0  0  0  0  0  0  0  0  0  0  0
  -24.3210   -9.5640   21.9590 C   0  0  0  0  0  3  0  0  0  0  0  0
  -23.5970   -8.3660   22.1410 C   0  0  0  0  0  3  0  0  0  0  0  0
  -22.4160   -8.1340   21.3980 C   0  0  0  0  0  0  0  0  0  0  0  0
  -21.9930   -9.0930   20.4600 C   0  0  0  0  0  3  0  0  0  0  0  0
  -22.7190  -10.2830   20.2770 C   0  0  0  0  0  3  0  0  0  0  0  0
  -21.6540   -6.9940   21.4950 O   0  0  0  0  0  0  0  0  0  0  0  0
  -21.6230   -6.2410   22.6400 C   0  0  0  0  0  0  0  0  0  0  0  0
  -21.2280   -6.7890   23.8810 C   0  0  0  0  0  3  0  0  0  0  0  0
  -21.1460   -5.9630   25.0200 C   0  0  0  0  0  3  0  0  0  0  0  0
  -21.4460   -4.5910   24.9180 C   0  0  0  0  0  0  0  0  0  0  0  0
  -21.8290   -4.0430   23.6820 C   0  0  0  0  0  3  0  0  0  0  0  0
  -21.9150   -4.8650   22.5460 C   0  0  0  0  0  0  0  0  0  0  0  0
  -22.2680   -4.3260   21.3520 F   0  0  0  0  0  0  0  0  0  0  0  0
  -21.3600   -3.7950   26.0110 F   0  0  0  0  0  0  0  0  0  0  0  0
  -22.7530  -13.6280   21.1410 C   0  0  0  0  0  0  0  0  0  0  0  0
  -22.0230  -12.9390   22.0100 N   0  0  0  0  0  0  0  0  0  0  0  0
  -22.3180  -14.6530   20.6180 O   0  0  0  0  0  0  0  0  0  0  0  0
  -22.3860  -12.1100   22.4550 H   0  0  0  0  0  0  0  0  0  0  0  0
  -21.0840  -13.2430   22.2290 H   0  0  0  0  0  0  0  0  0  0  0  0
  -25.3770  -15.2850   20.3040 N   0  0  0  0  0  0  0  0  0  0  0  0
  -24.5950  -15.9260   20.3860 H   0  0  0  0  0  0  0  0  0  0  0  0
  -26.2120  -15.7310   19.9470 H   0  0  0  0  0  0  0  0  0  0  0  0
  -29.8810  -20.5930   21.2300 N   0  0  0  0  0  0  0  0  0  0  0  0
  -30.2060  -20.3240   22.1580 H   0  0  0  0  0  0  0  0  0  0  0  0
  -30.2900  -21.9800   20.9610 C   0  0  0  0  0  2  0  0  0  0  0  0
  -29.0690  -22.8980   20.7040 C   0  0  0  0  0  2  0  0  0  0  0  0
  -29.4210  -24.4020   20.5570 C   0  0  0  0  0  2  0  0  0  0  0  0
  -28.1900  -25.2540   20.1940 C   0  0  0  0  0  2  0  0  0  0  0  0
  -28.3840  -26.6780   20.3060 O   0  0  0  0  0  0  0  0  0  0  0  0
  -24.6040  -31.9480   23.2940 C   0  0  0  0  0  0  0  0  0  0  0  0
  -27.2290  -27.4430   20.2660 C   0  0  0  0  0  0  0  0  0  0  0  0
  -23.4010  -30.5440   21.6560 C   0  0  0  0  0  3  0  0  0  0  0  0
  -24.8530  -28.9900   20.2530 C   0  0  0  0  0  0  0  0  0  0  0  0
  -25.9350  -30.8740   21.4820 C   0  0  0  0  0  2  0  0  0  0  0  0
  -26.0130  -29.4990   20.8480 C   0  0  0  0  0  0  0  0  0  0  0  0
  -27.2060  -28.7320   20.8550 C   0  0  0  0  0  3  0  0  0  0  0  0
  -26.0420  -26.9610   19.6610 C   0  0  0  0  0  3  0  0  0  0  0  0
  -24.8610  -27.7190   19.6610 C   0  0  0  0  0  3  0  0  0  0  0  0
  -23.6180  -29.8620   20.2800 C   0  0  0  0  0  2  0  0  0  0  0  0
  -24.6640  -31.1370   22.2010 N   0  0  0  0  0  0  0  0  0  0  0  0
  -23.5210  -32.2350   23.8210 O   0  0  0  0  0  0  0  0  0  0  0  0
  -22.7380  -29.5300   22.6170 C   0  0  0  0  0  0  0  0  0  0  0  0
  -21.4150  -29.3500   22.4780 N   0  0  0  0  0  0  0  0  0  0  0  0
  -23.4120  -28.9120   23.4450 O   0  0  0  0  0  0  0  0  0  0  0  0
  -20.9340  -29.8920   21.7740 H   0  0  0  0  0  0  0  0  0  0  0  0
  -18.0340  -28.1770   22.9600 C   0  0  0  0  0  0  0  0  0  0  0  0
  -20.5880  -28.4270   23.2550 C   0  0  0  0  0  3  0  0  0  0  0  0
  -20.6920  -26.9900   22.6960 C   0  0  0  0  0  2  0  0  0  0  0  0
  -19.5990  -26.6580   21.6760 C   0  0  0  0  0  2  0  0  0  0  0  0
  -18.2110  -26.8190   22.3020 C   0  0  0  0  0  2  0  0  0  0  0  0
  -19.1510  -28.9380   23.3940 C   0  0  0  0  0  0  0  0  0  0  0  0
  -18.9330  -30.2100   23.9670 C   0  0  0  0  0  3  0  0  0  0  0  0
  -17.6290  -30.7200   24.1140 C   0  0  0  0  0  3  0  0  0  0  0  0
  -16.5250  -29.9560   23.6990 C   0  0  0  0  0  3  0  0  0  0  0  0
  -16.7280  -28.6860   23.1260 C   0  0  0  0  0  3  0  0  0  0  0  0
  -25.8920  -32.5780   23.9140 C   0  0  0  0  0  3  0  0  0  0  0  0
  -25.5920  -33.9790   24.2300 N   0  0  0  0  0  0  0  0  0  0  0  0
  -25.9310  -35.0210   23.4590 C   0  0  0  0  0  0  0  0  0  0  0  0
  -26.6010  -34.9030   22.4290 O   0  0  0  0  0  0  0  0  0  0  0  0
  -25.0020  -34.1470   25.0320 H   0  0  0  0  0  0  0  0  0  0  0  0
  -24.2090  -36.8110   23.0770 C   0  0  0  0  0  1  0  0  0  0  0  0
  -25.4460  -36.4140   23.8980 C   0  0  0  0  0  3  0  0  0  0  0  0
  -27.5810  -37.2970   24.7290 C   0  0  0  0  0  1  0  0  0  0  0  0
  -26.4830  -37.4630   23.7800 N   0  0  0  0  0  0  0  0  0  0  0  0
  -26.0800  -38.3850   23.9190 H   0  0  0  0  0  0  0  0  0  0  0  0
  -26.3990  -31.8120   25.1970 C   0  0  1  0  0  0  0  0  0  0  0  0
  -25.2980  -31.5870   26.2580 C   0  0  0  0  0  1  0  0  0  0  0  0
  -26.9790  -30.4300   24.8170 C   0  0  0  0  0  1  0  0  0  0  0  0
  -27.5530  -32.6030   25.8570 C   0  0  0  0  0  1  0  0  0  0  0  0
  1  8  2  0
  2  5  1  0
  3  7  1  0
  3  2  1  0
  4  6  1  0
  5 19  1  0
  5  1  1  0
  6  1  1  0
  6 49  1  0
  7 10  1  0
  7  4  1  0
  9  7  1  0
 11 19  1  0
 12 17  1  0
 13 14  1  0
 13 12  1  0
 15 14  1  0
 15 24  1  0
 15 16  1  0
 17 11  1  0
 17 16  1  0
 18 11  2  0
 19 20  1  0
 21 22  2  0
 22 41  1  0
 23 22  1  0
 23 26  1  0
 24 21  1  0
 24 25  1  0
 25 23  2  0
 26 27  1  0
 27 28  2  0
 29 32  1  0
 29 28  1  0
 30 29  2  0
 31 30  1  0
 31 26  2  0
 32 33  1  0
 33 34  1  0
 34 35  2  0
 36 35  1  0
 36 40  1  0
 37 36  2  0
 38 33  2  0
 38 37  1  0
 39 38  1  0
 41 42  1  0
 42 45  1  0
 42 44  1  0
 43 41  2  0
 46 47  1  0
 46 21  1  0
 48 46  1  0
 49 50  1  0
 51 49  1  0
 52 51  1  0
 53 52  1  0
 54 55  1  0
 54 53  1  0
 56 67  2  0
 57 55  1  0
 57 62  1  0
 58 66  1  0
 58 68  1  0
 59 65  1  0
 59 61  1  0
 60 66  1  0
 61 62  2  0
 61 60  1  0
 63 57  2  0
 64 63  1  0
 64 59  2  0
 65 58  1  0
 66 56  1  0
 68 70  2  0
 69 68  1  0
 71 69  1  0
 72 81  2  0
 72 77  1  0
 73 69  1  0
 73 77  1  0
 74 73  1  0
 75 76  1  0
 75 74  1  0
 76 72  1  0
 77 78  2  0
 78 79  1  0
 80 79  2  0
 81 80  1  0
 82 56  1  0
 82 83  1  0
 82 92  1  0
 83 86  1  0
 84 88  1  0
 84 83  1  0
 85 84  2  0
 88 87  1  0
 90 88  1  0
 90 91  1  0
 90 89  1  0
 92 95  1  1
 92 93  1  0
 94 92  1  0
M  ISO  4  11 100  19 100  54 101  55 101
M  END
>  <TORSDO>  (39) 
F 21

>  <SCORE>  (39) 
-13.520

>  <name>  (39) 
38

>  <ligand_id>  (39) 
38

>  <original_smiles>  (39) 
[H]c1c([H])c([H])c2c(c1[H])C([H])([H])C([H])([H])C([H])([H])C2([H])N([H])C(=O)C1([H])N(C(=O)C([H])(N([H])C(=O)C([H])(N([H])C([H])([H])[H])C([H])([H])[H])C(C([H])([H])[H])(C([H])([H])[H])C([H])([H])[H])C([H])([H])c2c([H])c(OC([H])([H])C([H])([H])C([H])([H])C([H])([H])N([H])C3([H])C(=O)C([H])(N([H])C(=O)N4C([H])([H])C([H])([H])C([H])([H])C([H])(n5nc(-c6c([H])c([H])c(Oc7c([H])c([H])c(F)c([H])c7F)c([H])c6[H])c(C(=O)N([H])[H])c5N([H])[H])C4([H])[H])C([H])([H])C([H])([H])[N+]([H])([H])C3([H])[H])c([H])c([H])c2C1([H])[H]

>  <smiles>  (39) 
[H]c1c([H])c([H])c2c(c1[H])C([H])([H])C([H])([H])C([H])([H])C2([H])N([H])C(=O)C1([H])N(C(=O)C([H])(N([H])C(=O)C([H])(N([H])C([H])([H])[H])C([H])([H])[H])C(C([H])([H])[H])(C([H])([H])[H])C([H])([H])[H])C([H])([H])c2c([H])c(OC([H])([H])C([H])([H])C([H])([H])C([H])([H])N([H])C3([H])C(=O)C([H])(N([H])C(=O)N4C([H])([H])C([H])([H])C([H])([H])C([H])(n5nc(-c6c([H])c([H])c(Oc7c([H])c([H])c(F)c([H])c7F)c([H])c6[H])c(C(=O)N([H])[H])c5N([H])[H])C4([H])[H])C([H])([H])C([H])([H])[N+]([H])([H])C3([H])[H])c([H])c([H])c2C1([H])[H]

$$$$
39:0:0
     RDKit          3D

 91 98  0  0  1  0  0  0  0  0999 V2000
  -28.7240  -22.1770   20.6690 N   0  0  0  0  0  4  0  0  0  0  0  0
  -28.0260  -22.0450   19.9510 H   0  0  0  0  0  0  0  0  0  0  0  0
  -29.6130  -22.3230   20.2190 H   0  0  0  0  0  0  0  0  0  0  0  0
  -28.7850  -20.9450   21.4930 C   0  0  0  0  0  2  0  0  0  0  0  0
  -29.5340  -19.8070   20.7640 C   0  0  0  0  0  2  0  0  0  0  0  0
  -29.5690  -18.4670   21.5330 C   0  0  0  0  0  2  0  0  0  0  0  0
  -30.8410  -17.6540   21.2260 C   0  0  0  0  0  2  0  0  0  0  0  0
  -31.0250  -16.3920   22.0980 C   0  0  0  0  0  2  0  0  0  0  0  0
  -30.7700  -14.3830   20.6570 C   0  0  0  0  0  0  0  0  0  0  0  0
  -30.4110  -12.2880   19.4080 C   0  0  0  0  0  2  0  0  0  0  0  0
  -29.4860  -12.5110   18.1980 C   0  0  0  0  0  2  0  0  0  0  0  0
  -28.0120  -12.3610   18.6160 C   0  0  0  0  0  2  0  0  0  0  0  0
  -27.6620  -13.2030   19.8720 C   0  0  0  0  0  3  0  0  0  0  0  0
  -28.6990  -12.9760   20.9940 C   0  0  0  0  0  2  0  0  0  0  0  0
  -30.0420  -13.2550   20.4520 N   0  0  0  0  0  0  0  0  0  0  0  0
  -31.8130  -14.6350   20.0440 O   0  0  0  0  0  0  0  0  0  0  0  0
  -30.3060  -15.2180   21.5970 N   0  0  0  0  0  0  0  0  0  0  0  0
  -29.4530  -14.9500   22.0660 H   0  0  0  0  0  0  0  0  0  0  0  0
  -25.2590  -13.8150   20.5660 C   0  0  0  0  0  0  0  0  0  0  0  0
  -24.1840  -13.0430   20.9160 C   0  0  0  0  0  0  0  0  0  0  0  0
  -24.6380  -11.6900   20.8730 C   0  0  0  0  0  0  0  0  0  0  0  0
  -26.3020  -12.9320   20.3340 N   0  0  0  0  0  0  0  0  0  0  0  0
  -25.9300  -11.6480   20.5740 N   0  0  0  0  0  0  0  0  0  0  0  0
  -23.9050  -10.4290   21.0390 C   0  0  0  0  0  0  0  0  0  0  0  0
  -24.3610   -9.4210   21.9180 C   0  0  0  0  0  3  0  0  0  0  0  0
  -23.6290   -8.2250   22.0750 C   0  0  0  0  0  3  0  0  0  0  0  0
  -22.4270   -8.0280   21.3540 C   0  0  0  0  0  0  0  0  0  0  0  0
  -21.9900   -9.0250   20.4660 C   0  0  0  0  0  3  0  0  0  0  0  0
  -22.7220  -10.2130   20.3050 C   0  0  0  0  0  3  0  0  0  0  0  0
  -21.6630   -6.8870   21.4240 O   0  0  0  0  0  0  0  0  0  0  0  0
  -21.6850   -6.0730   22.5270 C   0  0  0  0  0  0  0  0  0  0  0  0
  -21.4020   -6.5640   23.8210 C   0  0  0  0  0  3  0  0  0  0  0  0
  -21.3660   -5.6790   24.9170 C   0  0  0  0  0  3  0  0  0  0  0  0
  -21.6040   -4.3060   24.7230 C   0  0  0  0  0  0  0  0  0  0  0  0
  -21.8820   -3.8140   23.4350 C   0  0  0  0  0  3  0  0  0  0  0  0
  -21.9200   -4.6960   22.3400 C   0  0  0  0  0  0  0  0  0  0  0  0
  -22.1660   -4.2150   21.0980 F   0  0  0  0  0  0  0  0  0  0  0  0
  -21.5630   -3.4540   25.7740 F   0  0  0  0  0  0  0  0  0  0  0  0
  -22.7870  -13.5250   21.1840 C   0  0  0  0  0  0  0  0  0  0  0  0
  -22.0510  -12.8250   22.0410 N   0  0  0  0  0  0  0  0  0  0  0  0
  -22.3550  -14.5550   20.6690 O   0  0  0  0  0  0  0  0  0  0  0  0
  -22.4130  -11.9910   22.4800 H   0  0  0  0  0  0  0  0  0  0  0  0
  -21.1130  -13.1280   22.2620 H   0  0  0  0  0  0  0  0  0  0  0  0
  -25.4330  -15.1870   20.4080 N   0  0  0  0  0  0  0  0  0  0  0  0
  -24.6700  -15.8460   20.5180 H   0  0  0  0  0  0  0  0  0  0  0  0
  -26.2950  -15.6250   20.1070 H   0  0  0  0  0  0  0  0  0  0  0  0
  -28.3440  -23.4120   21.3950 C   0  0  0  0  0  2  0  0  0  0  0  0
  -27.6020  -24.4120   20.4840 C   0  0  0  0  0  3  0  0  0  0  0  0
  -26.7980  -23.7200   19.6750 F   0  0  0  0  0  0  0  0  0  0  0  0
  -28.4650  -25.3940   19.6430 C   0  0  0  0  0  2  0  0  0  0  0  0
  -28.4240  -26.7490   20.1120 O   0  0  0  0  0  0  0  0  0  0  0  0
  -24.6100  -31.8690   23.2180 C   0  0  0  0  0  0  0  0  0  0  0  0
  -27.2370  -27.4570   20.0770 C   0  0  0  0  0  0  0  0  0  0  0  0
  -23.3970  -30.4940   21.5570 C   0  0  0  0  0  3  0  0  0  0  0  0
  -24.8430  -28.9680   20.1150 C   0  0  0  0  0  0  0  0  0  0  0  0
  -25.9240  -30.8370   21.3740 C   0  0  0  0  0  2  0  0  0  0  0  0
  -26.0010  -29.4750   20.7160 C   0  0  0  0  0  0  0  0  0  0  0  0
  -27.1960  -28.7230   20.7040 C   0  0  0  0  0  3  0  0  0  0  0  0
  -26.0620  -26.9730   19.4530 C   0  0  0  0  0  3  0  0  0  0  0  0
  -24.8680  -27.7140   19.4830 C   0  0  0  0  0  3  0  0  0  0  0  0
  -23.6030  -29.8290   20.1710 C   0  0  0  0  0  2  0  0  0  0  0  0
  -24.6610  -31.0790   22.1080 N   0  0  0  0  0  0  0  0  0  0  0  0
  -23.5310  -32.1410   23.7630 O   0  0  0  0  0  0  0  0  0  0  0  0
  -22.7380  -29.4650   22.5020 C   0  0  0  0  0  0  0  0  0  0  0  0
  -21.4120  -29.3020   22.3760 N   0  0  0  0  0  0  0  0  0  0  0  0
  -23.4160  -28.8170   23.3030 O   0  0  0  0  0  0  0  0  0  0  0  0
  -20.9280  -29.8730   21.6970 H   0  0  0  0  0  0  0  0  0  0  0  0
  -18.0270  -28.1340   22.8510 C   0  0  0  0  0  0  0  0  0  0  0  0
  -20.5850  -28.3640   23.1340 C   0  0  0  0  0  3  0  0  0  0  0  0
  -20.6750  -26.9370   22.5440 C   0  0  0  0  0  2  0  0  0  0  0  0
  -19.5740  -26.6370   21.5220 C   0  0  0  0  0  2  0  0  0  0  0  0
  -18.1920  -26.7900   22.1610 C   0  0  0  0  0  2  0  0  0  0  0  0
  -19.1510  -28.8810   23.2930 C   0  0  0  0  0  0  0  0  0  0  0  0
  -18.9440  -30.1430   23.8930 C   0  0  0  0  0  3  0  0  0  0  0  0
  -17.6440  -30.6560   24.0560 C   0  0  0  0  0  3  0  0  0  0  0  0
  -16.5330  -29.9050   23.6320 C   0  0  0  0  0  3  0  0  0  0  0  0
  -16.7260  -28.6460   23.0360 C   0  0  0  0  0  3  0  0  0  0  0  0
  -25.9020  -32.4840   23.8410 C   0  0  0  0  0  3  0  0  0  0  0  0
  -26.4450  -31.6620   25.0740 C   0  0  1  0  0  0  0  0  0  0  0  0
  -25.3750  -31.3770   26.1530 C   0  0  0  0  0  1  0  0  0  0  0  0
  -27.0200  -30.3030   24.6130 C   0  0  0  0  0  1  0  0  0  0  0  0
  -27.6090  -32.4310   25.7440 C   0  0  0  0  0  1  0  0  0  0  0  0
  -25.5910  -33.8640   24.2350 N   0  0  0  0  0  0  0  0  0  0  0  0
  -25.9040  -34.9490   23.5130 C   0  0  0  0  0  0  0  0  0  0  0  0
  -26.5570  -34.8930   22.4670 O   0  0  0  0  0  0  0  0  0  0  0  0
  -25.0130  -33.9800   25.0550 H   0  0  0  0  0  0  0  0  0  0  0  0
  -24.1490  -36.7310   23.2640 C   0  0  0  0  0  1  0  0  0  0  0  0
  -25.4110  -36.3130   24.0340 C   0  0  0  0  0  3  0  0  0  0  0  0
  -27.5590  -37.1790   24.8460 C   0  0  0  0  0  1  0  0  0  0  0  0
  -26.4310  -37.3810   23.9410 N   0  0  0  0  0  0  0  0  0  0  0  0
  -26.0200  -38.2900   24.1420 H   0  0  0  0  0  0  0  0  0  0  0  0
  1 47  1  0
  1  4  1  0
  2  1  1  0
  3  1  1  0
  5  4  1  0
  5  6  1  0
  7  6  1  0
  7  8  1  0
  9 17  1  0
 10 15  1  0
 11 12  1  0
 11 10  1  0
 13 12  1  0
 13 22  1  0
 13 14  1  0
 15  9  1  0
 15 14  1  0
 16  9  2  0
 17 18  1  0
 17  8  1  0
 19 20  2  0
 20 39  1  0
 21 20  1  0
 21 24  1  0
 22 19  1  0
 22 23  1  0
 23 21  2  0
 24 25  1  0
 25 26  2  0
 27 30  1  0
 27 26  1  0
 28 27  2  0
 29 28  1  0
 29 24  2  0
 30 31  1  0
 31 32  1  0
 32 33  2  0
 34 33  1  0
 34 38  1  0
 35 34  2  0
 36 31  2  0
 36 35  1  0
 37 36  1  0
 39 40  1  0
 40 43  1  0
 40 42  1  0
 41 39  2  0
 44 45  1  0
 44 19  1  0
 46 44  1  0
 48 49  1  0
 48 47  1  0
 50 51  1  0
 50 48  1  0
 52 63  2  0
 53 51  1  0
 53 58  1  0
 54 62  1  0
 54 64  1  0
 55 61  1  0
 55 57  1  0
 56 62  1  0
 57 56  1  0
 58 57  2  0
 59 60  1  0
 59 53  2  0
 60 55  2  0
 61 54  1  0
 62 52  1  0
 64 66  2  0
 65 64  1  0
 67 65  1  0
 68 77  2  0
 68 73  1  0
 69 65  1  0
 69 73  1  0
 70 69  1  0
 71 72  1  0
 71 70  1  0
 72 68  1  0
 73 74  2  0
 74 75  1  0
 76 75  2  0
 77 76  1  0
 78 52  1  0
 78 83  1  0
 78 79  1  0
 79 82  1  1
 79 80  1  0
 81 79  1  0
 83 86  1  0
 84 88  1  0
 84 83  1  0
 85 84  2  0
 88 87  1  0
 90 88  1  0
 90 91  1  0
 90 89  1  0
M  ISO  4   9 100  17 100  50 101  51 101
M  END
>  <TORSDO>  (40) 
F 24

>  <SCORE>  (40) 
-11.733

>  <name>  (40) 
39

>  <ligand_id>  (40) 
39

>  <original_smiles>  (40) 
[H]c1c([H])c([H])c2c(c1[H])C([H])([H])C([H])([H])C([H])([H])C2([H])N([H])C(=O)C1([H])N(C(=O)C([H])(N([H])C(=O)C([H])(N([H])C([H])([H])[H])C([H])([H])[H])C(C([H])([H])[H])(C([H])([H])[H])C([H])([H])[H])C([H])([H])c2c([H])c(OC([H])([H])C([H])(F)C([H])([H])[N+]([H])([H])C([H])([H])C([H])([H])C([H])([H])C([H])([H])C([H])([H])N([H])C(=O)N3C([H])([H])C([H])([H])C([H])([H])C([H])(n4nc(-c5c([H])c([H])c(Oc6c([H])c([H])c(F)c([H])c6F)c([H])c5[H])c(C(=O)N([H])[H])c4N([H])[H])C3([H])[H])c([H])c([H])c2C1([H])[H]

>  <smiles>  (40) 
[H]c1c([H])c([H])c2c(c1[H])C([H])([H])C([H])([H])C([H])([H])C2([H])N([H])C(=O)C1([H])N(C(=O)C([H])(N([H])C(=O)C([H])(N([H])C([H])([H])[H])C([H])([H])[H])C(C([H])([H])[H])(C([H])([H])[H])C([H])([H])[H])C([H])([H])c2c([H])c(OC([H])([H])C([H])(F)C([H])([H])[N+]([H])([H])C([H])([H])C([H])([H])C([H])([H])C([H])([H])C([H])([H])N([H])C(=O)N3C([H])([H])C([H])([H])C([H])([H])C([H])(n4nc(-c5c([H])c([H])c(Oc6c([H])c([H])c(F)c([H])c6F)c([H])c5[H])c(C(=O)N([H])[H])c4N([H])[H])C3([H])[H])c([H])c([H])c2C1([H])[H]

$$$$
40:0:0
     RDKit          3D

 93101  0  0  1  0  0  0  0  0999 V2000
  -29.1430  -18.9650   20.3400 C   0  0  0  0  0  2  0  0  0  0  0  0
  -31.0820  -20.6930   20.5700 C   0  0  0  0  0  2  0  0  0  0  0  0
  -31.5940  -18.1200   20.5550 C   0  0  0  0  0  2  0  0  0  0  0  0
  -29.5360  -20.5460   20.7250 C   0  0  0  0  0  3  0  0  0  0  0  0
  -30.1170  -17.6980   20.8090 C   0  0  0  0  0  3  0  0  0  0  0  0
  -31.8190  -19.5060   19.8740 C   0  0  0  0  0  3  0  0  0  0  0  0
  -30.5610  -14.9640   20.3840 C   0  0  0  0  0  0  0  0  0  0  0  0
  -30.4080  -12.6350   19.3900 C   0  0  0  0  0  2  0  0  0  0  0  0
  -29.4760  -12.6140   18.1590 C   0  0  0  0  0  2  0  0  0  0  0  0
  -28.0120  -12.4060   18.5960 C   0  0  0  0  0  2  0  0  0  0  0  0
  -27.6070  -13.3190   19.7820 C   0  0  0  0  0  3  0  0  0  0  0  0
  -28.6650  -13.3200   20.9040 C   0  0  0  0  0  2  0  0  0  0  0  0
  -29.9380  -13.7240   20.2950 N   0  0  0  0  0  0  0  0  0  0  0  0
  -31.7700  -14.9970   20.1360 O   0  0  0  0  0  0  0  0  0  0  0  0
  -29.8040  -16.1570   20.5540 N   0  0  0  0  0  0  0  0  0  0  0  0
  -28.8190  -15.9470   20.6210 H   0  0  0  0  0  0  0  0  0  0  0  0
  -25.2270  -13.8750   20.5420 C   0  0  0  0  0  0  0  0  0  0  0  0
  -24.1690  -13.0920   20.9120 C   0  0  0  0  0  0  0  0  0  0  0  0
  -24.6420  -11.7460   20.8690 C   0  0  0  0  0  0  0  0  0  0  0  0
  -26.2740  -13.0090   20.2880 N   0  0  0  0  0  0  0  0  0  0  0  0
  -25.9310  -11.7190   20.5500 N   0  0  0  0  0  0  0  0  0  0  0  0
  -23.9240  -10.4770   21.0520 C   0  0  0  0  0  0  0  0  0  0  0  0
  -24.3570   -9.5100   21.9840 C   0  0  0  0  0  3  0  0  0  0  0  0
  -23.6360   -8.3080   22.1550 C   0  0  0  0  0  3  0  0  0  0  0  0
  -22.4690   -8.0630   21.3930 C   0  0  0  0  0  0  0  0  0  0  0  0
  -22.0570   -9.0180   20.4480 C   0  0  0  0  0  3  0  0  0  0  0  0
  -22.7780  -10.2130   20.2750 C   0  0  0  0  0  3  0  0  0  0  0  0
  -21.7210   -6.9130   21.4700 O   0  0  0  0  0  0  0  0  0  0  0  0
  -21.6570   -6.1770   22.6270 C   0  0  0  0  0  0  0  0  0  0  0  0
  -21.1720   -6.7260   23.8350 C   0  0  0  0  0  3  0  0  0  0  0  0
  -21.0550   -5.9140   24.9800 C   0  0  0  0  0  3  0  0  0  0  0  0
  -21.4120   -4.5540   24.9210 C   0  0  0  0  0  0  0  0  0  0  0  0
  -21.8880   -4.0050   23.7180 C   0  0  0  0  0  3  0  0  0  0  0  0
  -22.0090   -4.8130   22.5750 C   0  0  0  0  0  0  0  0  0  0  0  0
  -22.4480   -4.2740   21.4120 F   0  0  0  0  0  0  0  0  0  0  0  0
  -21.2930   -3.7720   26.0190 F   0  0  0  0  0  0  0  0  0  0  0  0
  -22.7710  -13.5610   21.1860 C   0  0  0  0  0  0  0  0  0  0  0  0
  -22.0400  -12.8540   22.0400 N   0  0  0  0  0  0  0  0  0  0  0  0
  -22.3340  -14.5940   20.6790 O   0  0  0  0  0  0  0  0  0  0  0  0
  -22.4060  -12.0230   22.4820 H   0  0  0  0  0  0  0  0  0  0  0  0
  -21.0990  -13.1510   22.2550 H   0  0  0  0  0  0  0  0  0  0  0  0
  -25.3740  -15.2480   20.3770 N   0  0  0  0  0  0  0  0  0  0  0  0
  -24.5850  -15.8770   20.4800 H   0  0  0  0  0  0  0  0  0  0  0  0
  -26.1900  -15.7040   19.9840 H   0  0  0  0  0  0  0  0  0  0  0  0
  -33.2680  -19.7830   19.7570 N   0  0  0  0  0  4  0  0  0  0  0  0
  -33.6980  -19.8730   20.6610 H   0  0  0  0  0  0  0  0  0  0  0  0
  -33.4400  -20.6290   19.2420 H   0  0  0  0  0  0  0  0  0  0  0  0
  -33.7310  -19.0330   19.2740 H   0  0  0  0  0  0  0  0  0  0  0  0
  -28.6860  -21.9050   20.1780 C   0  0  0  0  0  2  0  0  0  0  0  0
  -28.9100  -23.4850   20.6160 C   0  0  0  0  0  0  0  0  0  0  0  0
  -29.8440  -23.7440   21.3830 O   0  0  0  0  0  0  0  0  0  0  0  0
  -27.9500  -24.7280   20.1070 C   0  0  0  0  0  2  0  0  0  0  0  0
  -28.2400  -26.2280   20.4020 O   0  0  0  0  0  0  0  0  0  0  0  0
  -24.6130  -31.9450   23.2670 C   0  0  0  0  0  0  0  0  0  0  0  0
  -27.1960  -27.2120   20.2930 C   0  0  0  0  0  0  0  0  0  0  0  0
  -23.4180  -30.5420   21.6290 C   0  0  0  0  0  3  0  0  0  0  0  0
  -24.8700  -28.9520   20.2290 C   0  0  0  0  0  0  0  0  0  0  0  0
  -25.9710  -30.8020   21.4760 C   0  0  0  0  0  2  0  0  0  0  0  0
  -26.0440  -29.4050   20.8400 C   0  0  0  0  0  0  0  0  0  0  0  0
  -27.2080  -28.5490   20.8590 C   0  0  0  0  0  3  0  0  0  0  0  0
  -26.0010  -26.8660   19.6240 C   0  0  0  0  0  3  0  0  0  0  0  0
  -24.8590  -27.6950   19.6060 C   0  0  0  0  0  3  0  0  0  0  0  0
  -23.6440  -29.8520   20.2590 C   0  0  0  0  0  2  0  0  0  0  0  0
  -24.6870  -31.1180   22.1810 N   0  0  0  0  0  0  0  0  0  0  0  0
  -23.5260  -32.2340   23.7900 O   0  0  0  0  0  0  0  0  0  0  0  0
  -22.7280  -29.5430   22.5950 C   0  0  0  0  0  0  0  0  0  0  0  0
  -21.4000  -29.3710   22.4580 N   0  0  0  0  0  0  0  0  0  0  0  0
  -23.3940  -28.9250   23.4310 O   0  0  0  0  0  0  0  0  0  0  0  0
  -20.9150  -29.9260   21.7630 H   0  0  0  0  0  0  0  0  0  0  0  0
  -18.0170  -28.1940   22.9630 C   0  0  0  0  0  0  0  0  0  0  0  0
  -20.5750  -28.4450   23.2360 C   0  0  0  0  0  3  0  0  0  0  0  0
  -20.6710  -27.0070   22.6750 C   0  0  0  0  0  2  0  0  0  0  0  0
  -19.5710  -26.6830   21.6580 C   0  0  0  0  0  2  0  0  0  0  0  0
  -18.1880  -26.8410   22.2970 C   0  0  0  0  0  2  0  0  0  0  0  0
  -19.1370  -28.9540   23.3930 C   0  0  0  0  0  0  0  0  0  0  0  0
  -18.9200  -30.2200   23.9770 C   0  0  0  0  0  3  0  0  0  0  0  0
  -17.6150  -30.7280   24.1330 C   0  0  0  0  0  3  0  0  0  0  0  0
  -16.5100  -29.9630   23.7190 C   0  0  0  0  0  3  0  0  0  0  0  0
  -16.7120  -28.6970   23.1410 C   0  0  0  0  0  3  0  0  0  0  0  0
  -25.8900  -32.5800   23.8950 C   0  0  0  0  0  3  0  0  0  0  0  0
  -26.3970  -31.8160   25.1810 C   0  0  1  0  0  0  0  0  0  0  0  0
  -25.2980  -31.5810   26.2440 C   0  0  0  0  0  1  0  0  0  0  0  0
  -26.9790  -30.4340   24.8030 C   0  0  0  0  0  1  0  0  0  0  0  0
  -27.5440  -32.6110   25.8480 C   0  0  0  0  0  1  0  0  0  0  0  0
  -25.5820  -33.9800   24.2220 N   0  0  0  0  0  0  0  0  0  0  0  0
  -25.9000  -35.0300   23.4530 C   0  0  0  0  0  0  0  0  0  0  0  0
  -26.5470  -34.9200   22.4090 O   0  0  0  0  0  0  0  0  0  0  0  0
  -25.0080  -34.1410   25.0350 H   0  0  0  0  0  0  0  0  0  0  0  0
  -24.1620  -36.8210   23.1240 C   0  0  0  0  0  1  0  0  0  0  0  0
  -25.4210  -36.4230   23.9110 C   0  0  0  0  0  3  0  0  0  0  0  0
  -27.5700  -37.3230   24.6950 C   0  0  0  0  0  1  0  0  0  0  0  0
  -26.4520  -37.4760   23.7680 N   0  0  0  0  0  0  0  0  0  0  0  0
  -26.0460  -38.3980   23.9110 H   0  0  0  0  0  0  0  0  0  0  0  0
  1  4  1  0
  1  5  1  0
  2  4  1  0
  3  5  1  0
  4 49  1  0
  5 15  1  0
  6 45  1  0
  6  3  1  0
  6  2  1  0
  7 15  1  0
  8 13  1  0
  9 10  1  0
  9  8  1  0
 11 10  1  0
 11 20  1  0
 11 12  1  0
 13  7  1  0
 13 12  1  0
 14  7  2  0
 15 16  1  0
 17 18  2  0
 18 37  1  0
 19 18  1  0
 19 22  1  0
 20 17  1  0
 20 21  1  0
 21 19  2  0
 22 23  1  0
 23 24  2  0
 25 28  1  0
 25 24  1  0
 26 25  2  0
 27 26  1  0
 27 22  2  0
 28 29  1  0
 29 30  1  0
 30 31  2  0
 32 31  1  0
 32 36  1  0
 33 32  2  0
 34 29  2  0
 34 33  1  0
 35 34  1  0
 37 38  1  0
 38 41  1  0
 38 40  1  0
 39 37  2  0
 42 43  1  0
 42 17  1  0
 44 42  1  0
 45 46  1  0
 47 45  1  0
 48 45  1  0
 49 50  1  0
 50 51  2  0
 52 53  1  0
 52 50  1  0
 54 65  2  0
 55 53  1  0
 55 60  1  0
 56 64  1  0
 56 66  1  0
 57 63  1  0
 57 59  1  0
 58 64  1  0
 59 60  2  0
 59 58  1  0
 61 55  2  0
 62 61  1  0
 62 57  2  0
 63 56  1  0
 64 54  1  0
 66 68  2  0
 67 66  1  0
 69 67  1  0
 70 79  2  0
 70 75  1  0
 71 67  1  0
 71 75  1  0
 72 71  1  0
 73 74  1  0
 73 72  1  0
 74 70  1  0
 75 76  2  0
 76 77  1  0
 78 77  2  0
 79 78  1  0
 80 54  1  0
 80 85  1  0
 80 81  1  0
 81 84  1  1
 81 82  1  0
 83 81  1  0
 85 88  1  0
 86 90  1  0
 86 85  1  0
 87 86  2  0
 90 89  1  0
 92 93  1  0
 92 90  1  0
 92 91  1  0
M  ISO  4   7 100  15 100  52 101  53 101
M  END
>  <TORSDO>  (41) 
F 20

>  <SCORE>  (41) 
-14.141

>  <name>  (41) 
40

>  <ligand_id>  (41) 
40

>  <original_smiles>  (41) 
[H]c1c([H])c([H])c2c(c1[H])C([H])([H])C([H])([H])C([H])([H])C2([H])N([H])C(=O)C1([H])N(C(=O)C([H])(N([H])C(=O)C([H])(N([H])C([H])([H])[H])C([H])([H])[H])C(C([H])([H])[H])(C([H])([H])[H])C([H])([H])[H])C([H])([H])c2c([H])c(OC([H])([H])C(=O)C([H])([H])C3([H])C([H])([H])C([H])(N([H])C(=O)N4C([H])([H])C([H])([H])C([H])([H])C([H])(n5nc(-c6c([H])c([H])c(Oc7c([H])c([H])c(F)c([H])c7F)c([H])c6[H])c(C(=O)N([H])[H])c5N([H])[H])C4([H])[H])C([H])([H])C([H])([N+]([H])([H])[H])C3([H])[H])c([H])c([H])c2C1([H])[H]

>  <smiles>  (41) 
[H]c1c([H])c([H])c2c(c1[H])C([H])([H])C([H])([H])C([H])([H])C2([H])N([H])C(=O)C1([H])N(C(=O)C([H])(N([H])C(=O)C([H])(N([H])C([H])([H])[H])C([H])([H])[H])C(C([H])([H])[H])(C([H])([H])[H])C([H])([H])[H])C([H])([H])c2c([H])c(OC([H])([H])C(=O)C([H])([H])C3([H])C([H])([H])C([H])(N([H])C(=O)N4C([H])([H])C([H])([H])C([H])([H])C([H])(n5nc(-c6c([H])c([H])c(Oc7c([H])c([H])c(F)c([H])c7F)c([H])c6[H])c(C(=O)N([H])[H])c5N([H])[H])C4([H])[H])C([H])([H])C([H])([N+]([H])([H])[H])C3([H])[H])c([H])c([H])c2C1([H])[H]

$$$$
41:0:0
     RDKit          3D

 95103  0  0  1  0  0  0  0  0999 V2000
  -31.1980  -20.6240   23.5710 C   0  0  0  0  0  2  0  0  0  0  0  0
  -32.6660  -20.6370   23.0990 C   0  0  0  0  0  2  0  0  0  0  0  0
  -30.9900  -18.3130   22.4470 C   0  0  0  0  0  3  0  0  0  0  0  0
  -30.6550  -19.1900   23.7020 C   0  0  0  0  0  3  0  0  0  0  0  0
  -32.5140  -18.4340   22.0390 C   0  0  0  0  0  3  0  0  0  0  0  0
  -29.1420  -19.2540   24.0110 C   0  0  0  0  0  1  0  0  0  0  0  0
  -32.8220  -19.9040   21.8080 N   0  0  1  0  0  4  0  0  0  0  0  0
  -33.8110  -19.9450   21.6150 H   0  0  0  0  0  0  0  0  0  0  0  0
  -30.4710  -16.8890   22.6940 C   0  0  0  0  0  3  0  0  0  0  0  0
  -30.3490  -16.0880   21.7740 O   0  0  0  0  0  0  0  0  0  0  0  0
  -33.1560  -17.4860   20.9310 C   0  0  0  0  0  2  0  0  0  0  0  0
  -32.9970  -15.0890   19.9860 C   0  0  0  0  0  0  0  0  0  0  0  0
  -32.2670  -13.2550   18.4770 C   0  0  0  0  0  2  0  0  0  0  0  0
  -31.3070  -13.8090   17.4000 C   0  0  0  0  0  2  0  0  0  0  0  0
  -29.8530  -13.8060   17.9140 C   0  0  0  0  0  2  0  0  0  0  0  0
  -29.7040  -14.3850   19.3480 C   0  0  0  0  0  3  0  0  0  0  0  0
  -30.7980  -13.8420   20.3000 C   0  0  0  0  0  2  0  0  0  0  0  0
  -32.1120  -14.0880   19.6840 N   0  0  0  0  0  0  0  0  0  0  0  0
  -34.1270  -15.1250   19.5020 O   0  0  0  0  0  0  0  0  0  0  0  0
  -32.5240  -16.1490   20.6900 N   0  0  0  0  0  0  0  0  0  0  0  0
  -31.5340  -16.1190   20.9200 H   0  0  0  0  0  0  0  0  0  0  0  0
  -27.3490  -15.0870   20.1180 C   0  0  0  0  0  0  0  0  0  0  0  0
  -26.2640  -14.3680   20.5220 C   0  0  0  0  0  0  0  0  0  0  0  0
  -26.6560  -12.9960   20.4690 C   0  0  0  0  0  0  0  0  0  0  0  0
  -28.3570  -14.1660   19.8740 N   0  0  0  0  0  0  0  0  0  0  0  0
  -27.9400  -12.9020   20.1400 N   0  0  0  0  0  0  0  0  0  0  0  0
  -25.8580  -11.7810   20.6580 C   0  0  0  0  0  0  0  0  0  0  0  0
  -26.1310  -10.8750   21.7090 C   0  0  0  0  0  3  0  0  0  0  0  0
  -25.3250   -9.7280   21.8870 C   0  0  0  0  0  3  0  0  0  0  0  0
  -24.2370   -9.4790   21.0190 C   0  0  0  0  0  0  0  0  0  0  0  0
  -23.9820  -10.3680   19.9640 C   0  0  0  0  0  3  0  0  0  0  0  0
  -24.7870  -11.5060   19.7800 C   0  0  0  0  0  3  0  0  0  0  0  0
  -23.4190   -8.3770   21.1050 O   0  0  0  0  0  0  0  0  0  0  0  0
  -22.9760   -7.8990   22.3090 C   0  0  0  0  0  0  0  0  0  0  0  0
  -22.2770   -8.7220   23.2200 C   0  0  0  0  0  3  0  0  0  0  0  0
  -21.7770   -8.1740   24.4190 C   0  0  0  0  0  3  0  0  0  0  0  0
  -21.9630   -6.8100   24.7030 C   0  0  0  0  0  0  0  0  0  0  0  0
  -22.6510   -5.9860   23.7950 C   0  0  0  0  0  3  0  0  0  0  0  0
  -23.1580   -6.5290   22.6020 C   0  0  0  0  0  0  0  0  0  0  0  0
  -23.8080   -5.7280   21.7210 F   0  0  0  0  0  0  0  0  0  0  0  0
  -21.4690   -6.2900   25.8520 F   0  0  0  0  0  0  0  0  0  0  0  0
  -24.9040  -14.9090   20.8480 C   0  0  0  0  0  0  0  0  0  0  0  0
  -24.1950  -14.2770   21.7760 N   0  0  0  0  0  0  0  0  0  0  0  0
  -24.4820  -15.9350   20.3150 O   0  0  0  0  0  0  0  0  0  0  0  0
  -24.5540  -13.4620   22.2570 H   0  0  0  0  0  0  0  0  0  0  0  0
  -23.2680  -14.6040   22.0020 H   0  0  0  0  0  0  0  0  0  0  0  0
  -27.5390  -16.4450   19.9210 N   0  0  0  0  0  0  0  0  0  0  0  0
  -26.8270  -17.0240   20.3510 H   0  0  0  0  0  0  0  0  0  0  0  0
  -28.4750  -16.7810   20.1450 H   0  0  0  0  0  0  0  0  0  0  0  0
  -32.1450  -20.5710   20.6170 C   0  0  0  0  0  3  0  0  0  0  0  0
  -32.1650  -22.1480   20.5580 C   0  0  0  0  0  3  0  0  0  0  0  0
  -31.1900  -22.8400   19.5500 C   0  0  0  0  0  2  0  0  0  0  0  0
  -31.0990  -24.4010   19.6880 C   0  0  0  0  0  2  0  0  0  0  0  0
  -29.8050  -25.0700   19.1340 C   0  0  0  0  0  2  0  0  0  0  0  0
  -29.7130  -26.4970   19.4000 O   0  0  0  0  0  0  0  0  0  0  0  0
  -25.1440  -30.6130   23.0910 C   0  0  0  0  0  0  0  0  0  0  0  0
  -28.4460  -27.0710   19.4560 C   0  0  0  0  0  0  0  0  0  0  0  0
  -24.1750  -29.2960   21.2380 C   0  0  0  0  0  3  0  0  0  0  0  0
  -25.8500  -28.2180   19.6440 C   0  0  0  0  0  0  0  0  0  0  0  0
  -26.6280  -30.0350   21.1680 C   0  0  0  0  0  2  0  0  0  0  0  0
  -26.9190  -28.8020   20.3310 C   0  0  0  0  0  0  0  0  0  0  0  0
  -28.2190  -28.2370   20.2330 C   0  0  0  0  0  3  0  0  0  0  0  0
  -27.3460  -26.5160   18.7600 C   0  0  0  0  0  3  0  0  0  0  0  0
  -26.0600  -27.0790   18.8530 C   0  0  0  0  0  3  0  0  0  0  0  0
  -24.4920  -28.8730   19.7810 C   0  0  0  0  0  2  0  0  0  0  0  0
  -25.3310  -29.9920   21.8920 N   0  0  0  0  0  0  0  0  0  0  0  0
  -24.0300  -30.6440   23.6340 O   0  0  0  0  0  0  0  0  0  0  0  0
  -23.6830  -28.0590   22.0250 C   0  0  0  0  0  0  0  0  0  0  0  0
  -22.4340  -27.6380   21.7610 N   0  0  0  0  0  0  0  0  0  0  0  0
  -24.4250  -27.4860   22.8290 O   0  0  0  0  0  0  0  0  0  0  0  0
  -21.8890  -28.1700   21.0920 H   0  0  0  0  0  0  0  0  0  0  0  0
  -19.3770  -25.7080   21.7810 C   0  0  0  0  0  0  0  0  0  0  0  0
  -21.7770  -26.4740   22.3570 C   0  0  0  0  0  3  0  0  0  0  0  0
  -22.2450  -25.1630   21.6830 C   0  0  0  0  0  2  0  0  0  0  0  0
  -21.3400  -24.7200   20.5280 C   0  0  0  0  0  2  0  0  0  0  0  0
  -19.9080  -24.5050   21.0220 C   0  0  0  0  0  2  0  0  0  0  0  0
  -20.2540  -26.6390   22.3960 C   0  0  0  0  0  0  0  0  0  0  0  0
  -19.7080  -27.7600   23.0600 C   0  0  0  0  0  3  0  0  0  0  0  0
  -18.3150  -27.9530   23.1180 C   0  0  0  0  0  3  0  0  0  0  0  0
  -17.4510  -27.0190   22.5200 C   0  0  0  0  0  3  0  0  0  0  0  0
  -17.9820  -25.8990   21.8580 C   0  0  0  0  0  3  0  0  0  0  0  0
  -26.3160  -31.3360   23.8250 C   0  0  0  0  0  3  0  0  0  0  0  0
  -25.8280  -32.6570   24.2440 N   0  0  0  0  0  0  0  0  0  0  0  0
  -26.1050  -33.8060   23.6150 C   0  0  0  0  0  0  0  0  0  0  0  0
  -26.8710  -33.8730   22.6490 O   0  0  0  0  0  0  0  0  0  0  0  0
  -25.1520  -32.6710   24.9950 H   0  0  0  0  0  0  0  0  0  0  0  0
  -24.2400  -35.4490   23.2270 C   0  0  0  0  0  1  0  0  0  0  0  0
  -25.4250  -35.0850   24.1390 C   0  0  0  0  0  3  0  0  0  0  0  0
  -27.3500  -36.0780   25.2940 C   0  0  0  0  0  1  0  0  0  0  0  0
  -26.3470  -36.2380   24.2440 N   0  0  0  0  0  0  0  0  0  0  0  0
  -25.8310  -37.0940   24.4290 H   0  0  0  0  0  0  0  0  0  0  0  0
  -26.8660  -30.5290   25.0650 C   0  0  1  0  0  0  0  0  0  0  0  0
  -25.7570  -30.0620   26.0360 C   0  0  0  0  0  1  0  0  0  0  0  0
  -27.6480  -29.2760   24.6040 C   0  0  0  0  0  1  0  0  0  0  0  0
  -27.8660  -31.4050   25.8570 C   0  0  0  0  0  1  0  0  0  0  0  0
  1  4  1  0
  2  1  1  0
  3  9  1  0
  3  4  1  0
  4  6  1  0
  5 11  1  0
  5  3  1  0
  7  5  1  0
  7  2  1  0
  7  8  1  6
 10  9  2  0
 12 20  1  0
 13 18  1  0
 14 15  1  0
 14 13  1  0
 16 15  1  0
 16 25  1  0
 16 17  1  0
 18 12  1  0
 18 17  1  0
 19 12  2  0
 20 21  1  0
 20 11  1  0
 22 23  2  0
 23 42  1  0
 24 23  1  0
 24 27  1  0
 25 22  1  0
 25 26  1  0
 26 24  2  0
 27 28  1  0
 28 29  2  0
 30 33  1  0
 30 29  1  0
 31 30  2  0
 32 31  1  0
 32 27  2  0
 33 34  1  0
 34 39  2  0
 34 35  1  0
 35 36  2  0
 36 37  1  0
 37 41  1  0
 38 37  2  0
 39 38  1  0
 40 39  1  0
 42 43  1  0
 43 46  1  0
 43 45  1  0
 44 42  2  0
 47 22  1  0
 47 49  1  0
 47 48  1  0
 50  7  1  0
 51 50  2  0
 52 53  1  0
 52 51  1  0
 54 55  1  0
 54 53  1  0
 55 57  1  0
 56 67  2  0
 57 62  1  0
 58 66  1  0
 58 68  1  0
 59 65  1  0
 59 61  1  0
 60 66  1  0
 61 60  1  0
 62 61  2  0
 63 64  1  0
 63 57  2  0
 64 59  2  0
 65 58  1  0
 66 56  1  0
 68 70  2  0
 69 68  1  0
 71 69  1  0
 72 81  2  0
 72 77  1  0
 73 69  1  0
 73 77  1  0
 74 73  1  0
 75 76  1  0
 75 74  1  0
 76 72  1  0
 77 78  2  0
 78 79  1  0
 80 79  2  0
 81 80  1  0
 82 56  1  0
 82 83  1  0
 82 92  1  0
 83 86  1  0
 84 88  1  0
 84 83  1  0
 85 84  2  0
 88 87  1  0
 88 90  1  0
 90 91  1  0
 90 89  1  0
 92 95  1  1
 92 93  1  0
 94 92  1  0
M  ISO  4  12 100  20 100  54 101  55 101
M  END
>  <TORSDO>  (42) 
F 23

>  <SCORE>  (42) 
-0.851

>  <name>  (42) 
41

>  <ligand_id>  (42) 
41

>  <original_smiles>  (42) 
[H]C(=O)C1([H])C([H])(C([H])([H])[H])C([H])([H])C([H])([H])[N+]([H])(C([H])([H])C([H])([H])C([H])([H])C([H])([H])C([H])([H])Oc2c([H])c([H])c3c(c2[H])C([H])([H])N(C(=O)C([H])(N([H])C(=O)C([H])(N([H])C([H])([H])[H])C([H])([H])[H])C(C([H])([H])[H])(C([H])([H])[H])C([H])([H])[H])C([H])(C(=O)N([H])C2([H])c4c([H])c([H])c([H])c([H])c4C([H])([H])C([H])([H])C2([H])[H])C3([H])[H])C1([H])C([H])([H])N([H])C(=O)N1C([H])([H])C([H])([H])C([H])([H])C([H])(n2nc(-c3c([H])c([H])c(Oc4c([H])c([H])c(F)c([H])c4F)c([H])c3[H])c(C(=O)N([H])[H])c2N([H])[H])C1([H])[H]

>  <smiles>  (42) 
[H]C(=O)C1([H])C([H])(C([H])([H])[H])C([H])([H])C([H])([H])[N+]([H])(C([H])([H])C([H])([H])C([H])([H])C([H])([H])C([H])([H])Oc2c([H])c([H])c3c(c2[H])C([H])([H])N(C(=O)C([H])(N([H])C(=O)C([H])(N([H])C([H])([H])[H])C([H])([H])[H])C(C([H])([H])[H])(C([H])([H])[H])C([H])([H])[H])C([H])(C(=O)N([H])C2([H])c4c([H])c([H])c([H])c([H])c4C([H])([H])C([H])([H])C2([H])[H])C3([H])[H])C1([H])C([H])([H])N([H])C(=O)N1C([H])([H])C([H])([H])C([H])([H])C([H])(n2nc(-c3c([H])c([H])c(Oc4c([H])c([H])c(F)c([H])c4F)c([H])c3[H])c(C(=O)N([H])[H])c2N([H])[H])C1([H])[H]

$$$$
42:0:0
     RDKit          3D

 92100  0  0  1  0  0  0  0  0999 V2000
  -28.7960  -18.2660   19.9030 C   0  0  0  0  0  2  0  0  0  0  0  0
  -30.3450  -19.4670   21.4240 C   0  0  0  0  0  2  0  0  0  0  0  0
  -27.8920  -19.5360   19.8820 C   0  0  0  0  0  2  0  0  0  0  0  0
  -29.4370  -20.7130   21.3850 C   0  0  0  0  0  2  0  0  0  0  0  0
  -29.5890  -18.1270   21.2240 C   0  0  0  0  0  3  0  0  0  0  0  0
  -28.6360  -20.8070   20.1370 N   0  0  2  0  0  4  0  0  0  0  0  0
  -29.2940  -20.9210   19.3810 H   0  0  0  0  0  0  0  0  0  0  0  0
  -31.3080  -16.8190   22.6280 C   0  0  0  0  0  1  0  0  0  0  0  0
  -30.5740  -16.9070   21.2730 C   0  0  0  0  0  3  0  0  0  0  0  0
  -30.6180  -14.5640   20.3920 C   0  0  0  0  0  0  0  0  0  0  0  0
  -30.2940  -12.4440   19.1820 C   0  0  0  0  0  2  0  0  0  0  0  0
  -29.3400  -12.6860   17.9940 C   0  0  0  0  0  2  0  0  0  0  0  0
  -27.8750  -12.5210   18.4390 C   0  0  0  0  0  2  0  0  0  0  0  0
  -27.5500  -13.3170   19.7310 C   0  0  0  0  0  3  0  0  0  0  0  0
  -28.6200  -13.0800   20.8210 C   0  0  0  0  0  2  0  0  0  0  0  0
  -29.9300  -13.4010   20.2370 N   0  0  0  0  0  0  0  0  0  0  0  0
  -31.7410  -14.7340   19.9130 O   0  0  0  0  0  0  0  0  0  0  0  0
  -29.9670  -15.5850   20.9950 N   0  0  0  0  0  0  0  0  0  0  0  0
  -29.0280  -15.4070   21.3200 H   0  0  0  0  0  0  0  0  0  0  0  0
  -25.1480  -13.8840   20.4500 C   0  0  0  0  0  0  0  0  0  0  0  0
  -24.0940  -13.0940   20.8230 C   0  0  0  0  0  0  0  0  0  0  0  0
  -24.5790  -11.7500   20.7930 C   0  0  0  0  0  0  0  0  0  0  0  0
  -26.2050  -13.0210   20.2170 N   0  0  0  0  0  0  0  0  0  0  0  0
  -25.8680  -11.7320   20.4820 N   0  0  0  0  0  0  0  0  0  0  0  0
  -23.8790  -10.4750   20.9880 C   0  0  0  0  0  0  0  0  0  0  0  0
  -24.3220   -9.5250   21.9330 C   0  0  0  0  0  3  0  0  0  0  0  0
  -23.6180   -8.3150   22.1140 C   0  0  0  0  0  3  0  0  0  0  0  0
  -22.4580   -8.0470   21.3500 C   0  0  0  0  0  0  0  0  0  0  0  0
  -22.0360   -8.9860   20.3930 C   0  0  0  0  0  3  0  0  0  0  0  0
  -22.7400  -10.1870   20.2100 C   0  0  0  0  0  3  0  0  0  0  0  0
  -21.7270   -6.8870   21.4400 O   0  0  0  0  0  0  0  0  0  0  0  0
  -21.6720   -6.1570   22.5990 C   0  0  0  0  0  0  0  0  0  0  0  0
  -21.1960   -6.7140   23.8060 C   0  0  0  0  0  3  0  0  0  0  0  0
  -21.0930   -5.9100   24.9590 C   0  0  0  0  0  3  0  0  0  0  0  0
  -21.4540   -4.5500   24.9050 C   0  0  0  0  0  0  0  0  0  0  0  0
  -21.9210   -3.9920   23.7010 C   0  0  0  0  0  3  0  0  0  0  0  0
  -22.0270   -4.7930   22.5510 C   0  0  0  0  0  0  0  0  0  0  0  0
  -22.4580   -4.2470   21.3880 F   0  0  0  0  0  0  0  0  0  0  0  0
  -21.3470   -3.7750   26.0090 F   0  0  0  0  0  0  0  0  0  0  0  0
  -22.6900  -13.5450   21.1000 C   0  0  0  0  0  0  0  0  0  0  0  0
  -21.9790  -12.8310   21.9670 N   0  0  0  0  0  0  0  0  0  0  0  0
  -22.2320  -14.5620   20.5840 O   0  0  0  0  0  0  0  0  0  0  0  0
  -22.3670  -12.0060   22.4010 H   0  0  0  0  0  0  0  0  0  0  0  0
  -21.0370  -13.1120   22.2000 H   0  0  0  0  0  0  0  0  0  0  0  0
  -25.2940  -15.2590   20.2710 N   0  0  0  0  0  0  0  0  0  0  0  0
  -24.5250  -15.9060   20.4020 H   0  0  0  0  0  0  0  0  0  0  0  0
  -26.1420  -15.7060   19.9520 H   0  0  0  0  0  0  0  0  0  0  0  0
  -27.7600  -22.0240   20.1210 C   0  0  0  0  0  2  0  0  0  0  0  0
  -28.1130  -23.0610   19.0180 C   0  0  0  0  0  2  0  0  0  0  0  0
  -28.8880  -24.3470   19.4380 C   0  0  0  0  0  2  0  0  0  0  0  0
  -28.1790  -25.2800   20.4530 C   0  0  0  0  0  2  0  0  0  0  0  0
  -28.3520  -26.6860   20.1540 O   0  0  0  0  0  0  0  0  0  0  0  0
  -24.5570  -31.9040   23.2040 C   0  0  0  0  0  0  0  0  0  0  0  0
  -27.2010  -27.4490   20.1240 C   0  0  0  0  0  0  0  0  0  0  0  0
  -23.3760  -30.4910   21.5800 C   0  0  0  0  0  3  0  0  0  0  0  0
  -24.8130  -28.9630   20.1350 C   0  0  0  0  0  0  0  0  0  0  0  0
  -25.8880  -30.8600   21.3640 C   0  0  0  0  0  2  0  0  0  0  0  0
  -25.9730  -29.4880   20.7200 C   0  0  0  0  0  0  0  0  0  0  0  0
  -27.1720  -28.7370   20.7110 C   0  0  0  0  0  3  0  0  0  0  0  0
  -26.0290  -26.9570   19.5070 C   0  0  0  0  0  3  0  0  0  0  0  0
  -24.8360  -27.6990   19.5230 C   0  0  0  0  0  3  0  0  0  0  0  0
  -23.5670  -29.8140   20.1960 C   0  0  0  0  0  2  0  0  0  0  0  0
  -24.6290  -31.1000   22.1070 N   0  0  0  0  0  0  0  0  0  0  0  0
  -23.4720  -32.1670   23.7410 O   0  0  0  0  0  0  0  0  0  0  0  0
  -22.7350  -29.4770   22.5490 C   0  0  0  0  0  0  0  0  0  0  0  0
  -21.4130  -29.4180   22.4380 N   0  0  0  0  0  0  0  0  0  0  0  0
  -23.4010  -28.7720   23.3080 O   0  0  0  0  0  0  0  0  0  0  0  0
  -21.0150  -30.1280   21.8400 H   0  0  0  0  0  0  0  0  0  0  0  0
  -17.9780  -28.0390   22.9450 C   0  0  0  0  0  0  0  0  0  0  0  0
  -20.4560  -28.4180   22.8360 C   0  0  0  0  0  3  0  0  0  0  0  0
  -20.6900  -26.9210   22.6020 C   0  0  0  0  0  2  0  0  0  0  0  0
  -19.5560  -26.3890   21.7000 C   0  0  0  0  0  2  0  0  0  0  0  0
  -18.1580  -26.6630   22.2990 C   0  0  0  0  0  2  0  0  0  0  0  0
  -19.0880  -28.8390   23.3090 C   0  0  0  0  0  0  0  0  0  0  0  0
  -18.8900  -30.0940   23.9210 C   0  0  0  0  0  3  0  0  0  0  0  0
  -17.5850  -30.5770   24.1260 C   0  0  0  0  0  3  0  0  0  0  0  0
  -16.4790  -29.8010   23.7360 C   0  0  0  0  0  3  0  0  0  0  0  0
  -16.6760  -28.5290   23.1630 C   0  0  0  0  0  3  0  0  0  0  0  0
  -25.8340  -32.5470   23.8190 C   0  0  0  0  0  3  0  0  0  0  0  0
  -25.5070  -33.9380   24.1540 N   0  0  0  0  0  0  0  0  0  0  0  0
  -25.8150  -34.9960   23.3940 C   0  0  0  0  0  0  0  0  0  0  0  0
  -26.4790  -34.9060   22.3580 O   0  0  0  0  0  0  0  0  0  0  0  0
  -24.9190  -34.0820   24.9630 H   0  0  0  0  0  0  0  0  0  0  0  0
  -24.0700  -36.7730   23.0440 C   0  0  0  0  0  1  0  0  0  0  0  0
  -25.3120  -36.3760   23.8590 C   0  0  0  0  0  3  0  0  0  0  0  0
  -27.4340  -37.2770   24.7050 C   0  0  0  0  0  1  0  0  0  0  0  0
  -26.3360  -37.4390   23.7550 N   0  0  0  0  0  0  0  0  0  0  0  0
  -25.9200  -38.3550   23.9040 H   0  0  0  0  0  0  0  0  0  0  0  0
  -26.3630  -31.7710   25.0860 C   0  0  1  0  0  0  0  0  0  0  0  0
  -25.2770  -31.5120   26.1560 C   0  0  0  0  0  1  0  0  0  0  0  0
  -26.9620  -30.4050   24.6790 C   0  0  0  0  0  1  0  0  0  0  0  0
  -27.5050  -32.5760   25.7500 C   0  0  0  0  0  1  0  0  0  0  0  0
  1  5  1  0
  3  1  1  0
  3  6  1  0
  4  2  1  0
  5  9  1  0
  5  2  1  0
  6  4  1  0
  6  7  1  6
  9  8  1  0
 10 18  1  0
 11 16  1  0
 12 13  1  0
 12 11  1  0
 14 13  1  0
 14 23  1  0
 14 15  1  0
 16 10  1  0
 16 15  1  0
 17 10  2  0
 18  9  1  0
 18 19  1  0
 20 21  2  0
 21 40  1  0
 22 21  1  0
 22 25  1  0
 23 20  1  0
 23 24  1  0
 24 22  2  0
 25 26  1  0
 26 27  2  0
 28 31  1  0
 28 27  1  0
 29 28  2  0
 30 29  1  0
 30 25  2  0
 31 32  1  0
 32 33  1  0
 33 34  2  0
 35 34  1  0
 35 39  1  0
 36 35  2  0
 37 32  2  0
 37 36  1  0
 38 37  1  0
 40 41  1  0
 41 44  1  0
 41 43  1  0
 42 40  2  0
 45 46  1  0
 45 20  1  0
 47 45  1  0
 48  6  1  0
 49 50  1  0
 49 48  1  0
 50 51  1  0
 52 51  1  0
 53 64  2  0
 54 52  1  0
 54 59  1  0
 55 63  1  0
 55 65  1  0
 56 62  1  0
 56 58  1  0
 57 63  1  0
 58 57  1  0
 59 58  2  0
 60 61  1  0
 60 54  2  0
 61 56  2  0
 62 55  1  0
 63 53  1  0
 65 67  2  0
 66 65  1  0
 68 66  1  0
 69 78  2  0
 69 74  1  0
 70 66  1  0
 70 74  1  0
 71 70  1  0
 72 73  1  0
 72 71  1  0
 73 69  1  0
 74 75  2  0
 75 76  1  0
 77 76  2  0
 78 77  1  0
 79 53  1  0
 79 80  1  0
 79 89  1  0
 80 83  1  0
 81 85  1  0
 81 80  1  0
 82 81  2  0
 85 84  1  0
 87 85  1  0
 87 88  1  0
 87 86  1  0
 89 92  1  1
 89 90  1  0
 91 89  1  0
M  ISO  4  10 100  18 100  51 101  52 101
M  END
>  <TORSDO>  (43) 
F 21

>  <SCORE>  (43) 
-13.035

>  <name>  (43) 
42

>  <ligand_id>  (43) 
42

>  <original_smiles>  (43) 
[H]c1c([H])c([H])c2c(c1[H])C([H])([H])C([H])([H])C([H])([H])C2([H])N([H])C(=O)C1([H])N(C(=O)C([H])(N([H])C(=O)C([H])(N([H])C([H])([H])[H])C([H])([H])[H])C(C([H])([H])[H])(C([H])([H])[H])C([H])([H])[H])C([H])([H])c2c([H])c(OC([H])([H])C([H])([H])C([H])([H])C([H])([H])[N+]3([H])C([H])([H])C([H])([H])C([H])(C([H])(N([H])C(=O)N4C([H])([H])C([H])([H])C([H])([H])C([H])(n5nc(-c6c([H])c([H])c(Oc7c([H])c([H])c(F)c([H])c7F)c([H])c6[H])c(C(=O)N([H])[H])c5N([H])[H])C4([H])[H])C([H])([H])[H])C([H])([H])C3([H])[H])c([H])c([H])c2C1([H])[H]

>  <smiles>  (43) 
[H]c1c([H])c([H])c2c(c1[H])C([H])([H])C([H])([H])C([H])([H])C2([H])N([H])C(=O)C1([H])N(C(=O)C([H])(N([H])C(=O)C([H])(N([H])C([H])([H])[H])C([H])([H])[H])C(C([H])([H])[H])(C([H])([H])[H])C([H])([H])[H])C([H])([H])c2c([H])c(OC([H])([H])C([H])([H])C([H])([H])C([H])([H])[N+]3([H])C([H])([H])C([H])([H])C([H])(C([H])(N([H])C(=O)N4C([H])([H])C([H])([H])C([H])([H])C([H])(n5nc(-c6c([H])c([H])c(Oc7c([H])c([H])c(F)c([H])c7F)c([H])c6[H])c(C(=O)N([H])[H])c5N([H])[H])C4([H])[H])C([H])([H])[H])C([H])([H])C3([H])[H])c([H])c([H])c2C1([H])[H]

$$$$
43:0:0
     RDKit          3D

 90 98  0  0  1  0  0  0  0  0999 V2000
  -29.9950  -21.8880   20.8810 C   0  0  0  0  0  2  0  0  0  0  0  0
  -29.1250  -22.9440   20.1610 C   0  0  0  0  0  2  0  0  0  0  0  0
  -29.3800  -24.4290   20.5120 C   0  0  0  0  0  2  0  0  0  0  0  0
  -28.2540  -25.3060   19.9270 C   0  0  0  0  0  2  0  0  0  0  0  0
  -28.3720  -26.7070   20.2090 O   0  0  0  0  0  0  0  0  0  0  0  0
  -24.5720  -31.8890   23.2660 C   0  0  0  0  0  0  0  0  0  0  0  0
  -27.2010  -27.4460   20.1680 C   0  0  0  0  0  0  0  0  0  0  0  0
  -23.3600  -30.4940   21.6240 C   0  0  0  0  0  3  0  0  0  0  0  0
  -24.8070  -28.9650   20.1890 C   0  0  0  0  0  0  0  0  0  0  0  0
  -25.8880  -30.8470   21.4240 C   0  0  0  0  0  2  0  0  0  0  0  0
  -25.9680  -29.4800   20.7780 C   0  0  0  0  0  0  0  0  0  0  0  0
  -27.1660  -28.7270   20.7670 C   0  0  0  0  0  3  0  0  0  0  0  0
  -26.0180  -26.9600   19.5560 C   0  0  0  0  0  3  0  0  0  0  0  0
  -24.8270  -27.7030   19.5760 C   0  0  0  0  0  3  0  0  0  0  0  0
  -23.5640  -29.8230   20.2410 C   0  0  0  0  0  2  0  0  0  0  0  0
  -24.6250  -31.0910   22.1620 N   0  0  0  0  0  0  0  0  0  0  0  0
  -23.4920  -32.1620   23.8090 O   0  0  0  0  0  0  0  0  0  0  0  0
  -22.7100  -29.4690   22.5820 C   0  0  0  0  0  0  0  0  0  0  0  0
  -21.3870  -29.2830   22.4510 N   0  0  0  0  0  0  0  0  0  0  0  0
  -23.3940  -28.8450   23.3970 O   0  0  0  0  0  0  0  0  0  0  0  0
  -20.8960  -29.8410   21.7660 H   0  0  0  0  0  0  0  0  0  0  0  0
  -18.0140  -28.0790   22.9370 C   0  0  0  0  0  0  0  0  0  0  0  0
  -20.5690  -28.3450   23.2190 C   0  0  0  0  0  3  0  0  0  0  0  0
  -20.6790  -26.9130   22.6470 C   0  0  0  0  0  2  0  0  0  0  0  0
  -19.5820  -26.5860   21.6280 C   0  0  0  0  0  2  0  0  0  0  0  0
  -18.1980  -26.7290   22.2660 C   0  0  0  0  0  2  0  0  0  0  0  0
  -19.1280  -28.8460   23.3700 C   0  0  0  0  0  0  0  0  0  0  0  0
  -18.9040  -30.1100   23.9550 C   0  0  0  0  0  3  0  0  0  0  0  0
  -17.5980  -30.6090   24.1130 C   0  0  0  0  0  3  0  0  0  0  0  0
  -16.4980  -29.8400   23.6960 C   0  0  0  0  0  3  0  0  0  0  0  0
  -16.7060  -28.5780   23.1130 C   0  0  0  0  0  3  0  0  0  0  0  0
  -25.8610  -32.5150   23.8850 C   0  0  0  0  0  3  0  0  0  0  0  0
  -25.5590  -33.9160   24.2060 N   0  0  0  0  0  0  0  0  0  0  0  0
  -25.8950  -34.9620   23.4400 C   0  0  0  0  0  0  0  0  0  0  0  0
  -26.5630  -34.8490   22.4080 O   0  0  0  0  0  0  0  0  0  0  0  0
  -24.9660  -34.0790   25.0070 H   0  0  0  0  0  0  0  0  0  0  0  0
  -24.1750  -36.7590   23.0730 C   0  0  0  0  0  1  0  0  0  0  0  0
  -25.4130  -36.3550   23.8870 C   0  0  0  0  0  3  0  0  0  0  0  0
  -27.5520  -37.2350   24.7120 C   0  0  0  0  0  1  0  0  0  0  0  0
  -26.4500  -37.4040   23.7680 N   0  0  0  0  0  0  0  0  0  0  0  0
  -26.0480  -38.3250   23.9110 H   0  0  0  0  0  0  0  0  0  0  0  0
  -26.3760  -31.7460   25.1620 C   0  0  1  0  0  0  0  0  0  0  0  0
  -25.2840  -31.5190   26.2340 C   0  0  0  0  0  1  0  0  0  0  0  0
  -26.9500  -30.3640   24.7720 C   0  0  0  0  0  1  0  0  0  0  0  0
  -27.5320  -32.5370   25.8190 C   0  0  0  0  0  1  0  0  0  0  0  0
  -29.5710  -20.4690   20.4340 C   0  0  0  0  0  2  0  0  0  0  0  0
  -30.2300  -19.3410   21.1450 N   0  0  0  0  0  4  0  0  0  0  0  0
  -31.2230  -19.3700   20.9780 H   0  0  0  0  0  0  0  0  0  0  0  0
  -30.0820  -19.4570   22.1350 H   0  0  0  0  0  0  0  0  0  0  0  0
  -30.6660  -14.5040   20.5100 C   0  0  0  0  0  0  0  0  0  0  0  0
  -30.3740  -12.3160   19.4390 C   0  0  0  0  0  2  0  0  0  0  0  0
  -29.4600  -12.4880   18.2080 C   0  0  0  0  0  2  0  0  0  0  0  0
  -27.9770  -12.3560   18.6120 C   0  0  0  0  0  2  0  0  0  0  0  0
  -27.6050  -13.2170   19.8480 C   0  0  0  0  0  3  0  0  0  0  0  0
  -28.6460  -13.0700   20.9820 C   0  0  0  0  0  2  0  0  0  0  0  0
  -29.9770  -13.3360   20.4170 N   0  0  0  0  0  0  0  0  0  0  0  0
  -31.8660  -14.6060   20.2440 O   0  0  0  0  0  0  0  0  0  0  0  0
  -29.8570  -17.6770   19.2740 C   0  0  0  0  0  2  0  0  0  0  0  0
  -29.5020  -16.1960   19.2620 C   0  0  0  0  0  2  0  0  0  0  0  0
  -30.2790  -16.7690   21.4250 C   0  0  0  0  0  2  0  0  0  0  0  0
  -29.6830  -18.0170   20.7430 C   0  0  0  0  0  3  0  0  0  0  0  0
  -29.9040  -15.6230   20.5650 N   0  0  0  0  0  0  0  0  0  0  0  0
  -25.1960  -13.8460   20.4920 C   0  0  0  0  0  0  0  0  0  0  0  0
  -24.1180  -13.0790   20.8440 C   0  0  0  0  0  0  0  0  0  0  0  0
  -24.5820  -11.7280   20.8500 C   0  0  0  0  0  0  0  0  0  0  0  0
  -26.2460  -12.9570   20.3050 N   0  0  0  0  0  0  0  0  0  0  0  0
  -25.8790  -11.6820   20.5800 N   0  0  0  0  0  0  0  0  0  0  0  0
  -23.8550  -10.4680   21.0400 C   0  0  0  0  0  0  0  0  0  0  0  0
  -24.2770   -9.5090   21.9870 C   0  0  0  0  0  3  0  0  0  0  0  0
  -23.5510   -8.3110   22.1630 C   0  0  0  0  0  3  0  0  0  0  0  0
  -22.3900   -8.0660   21.3930 C   0  0  0  0  0  0  0  0  0  0  0  0
  -21.9890   -9.0120   20.4340 C   0  0  0  0  0  3  0  0  0  0  0  0
  -22.7160  -10.2010   20.2540 C   0  0  0  0  0  3  0  0  0  0  0  0
  -21.6370   -6.9200   21.4790 O   0  0  0  0  0  0  0  0  0  0  0  0
  -21.5790   -6.1830   22.6340 C   0  0  0  0  0  0  0  0  0  0  0  0
  -21.1470   -6.7440   23.8560 C   0  0  0  0  0  3  0  0  0  0  0  0
  -21.0360   -5.9330   25.0030 C   0  0  0  0  0  3  0  0  0  0  0  0
  -21.3470   -4.5620   24.9290 C   0  0  0  0  0  0  0  0  0  0  0  0
  -21.7740   -4.0010   23.7120 C   0  0  0  0  0  3  0  0  0  0  0  0
  -21.8860   -4.8090   22.5680 C   0  0  0  0  0  0  0  0  0  0  0  0
  -22.2770   -4.2590   21.3920 F   0  0  0  0  0  0  0  0  0  0  0  0
  -21.2330   -3.7800   26.0280 F   0  0  0  0  0  0  0  0  0  0  0  0
  -22.7130  -13.5580   21.0680 C   0  0  0  0  0  0  0  0  0  0  0  0
  -21.9620  -12.8740   21.9230 N   0  0  0  0  0  0  0  0  0  0  0  0
  -22.2880  -14.5740   20.5180 O   0  0  0  0  0  0  0  0  0  0  0  0
  -22.3190  -12.0520   22.3890 H   0  0  0  0  0  0  0  0  0  0  0  0
  -21.0170  -13.1740   22.1160 H   0  0  0  0  0  0  0  0  0  0  0  0
  -25.3660  -15.2130   20.2950 N   0  0  0  0  0  0  0  0  0  0  0  0
  -24.6000  -15.8730   20.3800 H   0  0  0  0  0  0  0  0  0  0  0  0
  -26.2350  -15.6470   20.0150 H   0  0  0  0  0  0  0  0  0  0  0  0
  2  3  1  0
  2  1  1  0
  4  5  1  0
  4  3  1  0
  6 17  2  0
  7  5  1  0
  7 12  1  0
  8 16  1  0
  8 18  1  0
  9 15  1  0
  9 11  1  0
 10 16  1  0
 11 10  1  0
 12 11  2  0
 13 14  1  0
 13  7  2  0
 14  9  2  0
 15  8  1  0
 16  6  1  0
 18 20  2  0
 19 18  1  0
 21 19  1  0
 22 31  2  0
 22 27  1  0
 23 19  1  0
 23 27  1  0
 24 23  1  0
 25 26  1  0
 25 24  1  0
 26 22  1  0
 27 28  2  0
 28 29  1  0
 30 29  2  0
 31 30  1  0
 32  6  1  0
 32 33  1  0
 32 42  1  0
 33 36  1  0
 34 38  1  0
 34 33  1  0
 35 34  2  0
 38 37  1  0
 40 38  1  0
 40 41  1  0
 40 39  1  0
 42 45  1  1
 42 43  1  0
 44 42  1  0
 46  1  1  0
 46 47  1  0
 47 49  1  0
 48 47  1  0
 50 62  1  0
 51 56  1  0
 52 53  1  0
 52 51  1  0
 54 53  1  0
 54 66  1  0
 54 55  1  0
 56 50  1  0
 56 55  1  0
 57 50  2  0
 58 61  1  0
 59 58  1  0
 59 62  1  0
 61 47  1  0
 61 60  1  0
 62 60  1  0
 63 64  2  0
 64 65  1  0
 64 83  1  0
 65 68  1  0
 66 63  1  0
 66 67  1  0
 67 65  2  0
 68 69  1  0
 69 70  2  0
 71 74  1  0
 71 70  1  0
 72 71  2  0
 73 72  1  0
 73 68  2  0
 74 75  1  0
 75 76  1  0
 76 77  2  0
 78 77  1  0
 78 82  1  0
 79 78  2  0
 80 75  2  0
 80 79  1  0
 81 80  1  0
 83 84  1  0
 84 87  1  0
 84 86  1  0
 85 83  2  0
 88 89  1  0
 88 63  1  0
 90 88  1  0
M  ISO  4   4 101   5 101  50 100  62 100
M  END
>  <TORSDO>  (44) 
F 21

>  <SCORE>  (44) 
-13.483

>  <name>  (44) 
43

>  <ligand_id>  (44) 
43

>  <original_smiles>  (44) 
[H]c1c([H])c([H])c2c(c1[H])C([H])([H])C([H])([H])C([H])([H])C2([H])N([H])C(=O)C1([H])N(C(=O)C([H])(N([H])C(=O)C([H])(N([H])C([H])([H])[H])C([H])([H])[H])C(C([H])([H])[H])(C([H])([H])[H])C([H])([H])[H])C([H])([H])c2c([H])c(OC([H])([H])C([H])([H])C([H])([H])C([H])([H])C([H])([H])[N+]([H])([H])C3([H])C([H])([H])N(C(=O)N4C([H])([H])C([H])([H])C([H])([H])C([H])(n5nc(-c6c([H])c([H])c(Oc7c([H])c([H])c(F)c([H])c7F)c([H])c6[H])c(C(=O)N([H])[H])c5N([H])[H])C4([H])[H])C([H])([H])C3([H])[H])c([H])c([H])c2C1([H])[H]

>  <smiles>  (44) 
[H]c1c([H])c([H])c2c(c1[H])C([H])([H])C([H])([H])C([H])([H])C2([H])N([H])C(=O)C1([H])N(C(=O)C([H])(N([H])C(=O)C([H])(N([H])C([H])([H])[H])C([H])([H])[H])C(C([H])([H])[H])(C([H])([H])[H])C([H])([H])[H])C([H])([H])c2c([H])c(OC([H])([H])C([H])([H])C([H])([H])C([H])([H])C([H])([H])[N+]([H])([H])C3([H])C([H])([H])N(C(=O)N4C([H])([H])C([H])([H])C([H])([H])C([H])(n5nc(-c6c([H])c([H])c(Oc7c([H])c([H])c(F)c([H])c7F)c([H])c6[H])c(C(=O)N([H])[H])c5N([H])[H])C4([H])[H])C([H])([H])C3([H])[H])c([H])c([H])c2C1([H])[H]

$$$$
44:0:0
     RDKit          3D

 95103  0  0  1  0  0  0  0  0999 V2000
  -31.4560  -22.3900   21.1200 C   0  0  0  0  0  2  0  0  0  0  0  0
  -29.6850  -23.8850   22.2340 C   0  0  0  0  0  0  0  0  0  0  0  0
  -30.6510  -22.9480   22.2170 N   0  0  0  0  0  0  0  0  0  0  0  0
  -29.1560  -24.1500   23.3130 O   0  0  0  0  0  0  0  0  0  0  0  0
  -30.8810  -22.5930   23.1360 H   0  0  0  0  0  0  0  0  0  0  0  0
  -29.2020  -24.6330   20.9710 C   0  0  0  0  0  2  0  0  0  0  0  0
  -29.0330  -26.1600   21.2090 C   0  0  0  0  0  2  0  0  0  0  0  0
  -28.5930  -26.8180   20.0170 O   0  0  0  0  0  0  0  0  0  0  0  0
  -24.6120  -31.8530   23.2050 C   0  0  0  0  0  0  0  0  0  0  0  0
  -27.4170  -27.5250   20.0990 C   0  0  0  0  0  0  0  0  0  0  0  0
  -23.4690  -30.4580   21.5090 C   0  0  0  0  0  3  0  0  0  0  0  0
  -24.9850  -28.9610   20.1000 C   0  0  0  0  0  0  0  0  0  0  0  0
  -25.9890  -30.8630   21.3770 C   0  0  0  0  0  2  0  0  0  0  0  0
  -26.1170  -29.4990   20.7280 C   0  0  0  0  0  0  0  0  0  0  0  0
  -27.3360  -28.7850   20.7360 C   0  0  0  0  0  3  0  0  0  0  0  0
  -26.2770  -26.9970   19.4670 C   0  0  0  0  0  3  0  0  0  0  0  0
  -25.0590  -27.7030   19.4710 C   0  0  0  0  0  3  0  0  0  0  0  0
  -23.7260  -29.7990   20.1270 C   0  0  0  0  0  2  0  0  0  0  0  0
  -24.7060  -31.0720   22.0900 N   0  0  0  0  0  0  0  0  0  0  0  0
  -23.5150  -32.0990   23.7240 O   0  0  0  0  0  0  0  0  0  0  0  0
  -22.8100  -29.4140   22.4400 C   0  0  0  0  0  0  0  0  0  0  0  0
  -21.4920  -29.2130   22.2830 N   0  0  0  0  0  0  0  0  0  0  0  0
  -23.4850  -28.7880   23.2630 O   0  0  0  0  0  0  0  0  0  0  0  0
  -21.0060  -29.7770   21.5980 H   0  0  0  0  0  0  0  0  0  0  0  0
  -18.1260  -27.9580   22.6970 C   0  0  0  0  0  0  0  0  0  0  0  0
  -20.6750  -28.2480   23.0170 C   0  0  0  0  0  3  0  0  0  0  0  0
  -20.8080  -26.8290   22.4140 C   0  0  0  0  0  2  0  0  0  0  0  0
  -19.7290  -26.5140   21.3740 C   0  0  0  0  0  2  0  0  0  0  0  0
  -18.3340  -26.6260   21.9970 C   0  0  0  0  0  2  0  0  0  0  0  0
  -19.2260  -28.7270   23.1620 C   0  0  0  0  0  0  0  0  0  0  0  0
  -18.9790  -29.9760   23.7740 C   0  0  0  0  0  3  0  0  0  0  0  0
  -17.6640  -30.4540   23.9270 C   0  0  0  0  0  3  0  0  0  0  0  0
  -16.5800  -29.6830   23.4770 C   0  0  0  0  0  3  0  0  0  0  0  0
  -16.8110  -28.4370   22.8680 C   0  0  0  0  0  3  0  0  0  0  0  0
  -25.8730  -32.4960   23.8630 C   0  0  0  0  0  3  0  0  0  0  0  0
  -25.5460  -33.8920   24.1870 N   0  0  0  0  0  0  0  0  0  0  0  0
  -25.8920  -34.9470   23.4350 C   0  0  0  0  0  0  0  0  0  0  0  0
  -26.5880  -34.8470   22.4200 O   0  0  0  0  0  0  0  0  0  0  0  0
  -24.9360  -34.0460   24.9760 H   0  0  0  0  0  0  0  0  0  0  0  0
  -24.1680  -36.7330   23.0200 C   0  0  0  0  0  1  0  0  0  0  0  0
  -25.3810  -36.3330   23.8770 C   0  0  0  0  0  3  0  0  0  0  0  0
  -27.4760  -37.2310   24.7940 C   0  0  0  0  0  1  0  0  0  0  0  0
  -26.4140  -37.3910   23.8040 N   0  0  0  0  0  0  0  0  0  0  0  0
  -25.9960  -38.3100   23.9300 H   0  0  0  0  0  0  0  0  0  0  0  0
  -26.3660  -31.7270   25.1500 C   0  0  1  0  0  0  0  0  0  0  0  0
  -25.2530  -31.4670   26.1920 C   0  0  0  0  0  1  0  0  0  0  0  0
  -26.9750  -30.3590   24.7650 C   0  0  0  0  0  1  0  0  0  0  0  0
  -27.4890  -32.5310   25.8450 C   0  0  0  0  0  1  0  0  0  0  0  0
  -31.1300  -20.9100   20.8340 C   0  0  0  0  0  2  0  0  0  0  0  0
  -31.5550  -19.8660   21.9070 C   0  0  0  0  0  2  0  0  0  0  0  0
  -31.0860  -14.5230   20.0710 C   0  0  0  0  0  0  0  0  0  0  0  0
  -30.6500  -12.3720   18.9430 C   0  0  0  0  0  2  0  0  0  0  0  0
  -29.6620  -12.5760   17.7760 C   0  0  0  0  0  2  0  0  0  0  0  0
  -28.2120  -12.4540   18.2780 C   0  0  0  0  0  2  0  0  0  0  0  0
  -27.9360  -13.3200   19.5370 C   0  0  0  0  0  3  0  0  0  0  0  0
  -29.0390  -13.1270   20.6010 C   0  0  0  0  0  2  0  0  0  0  0  0
  -30.3400  -13.3860   19.9680 N   0  0  0  0  0  0  0  0  0  0  0  0
  -32.1990  -14.6320   19.5580 O   0  0  0  0  0  0  0  0  0  0  0  0
  -29.0020  -17.7230   20.3540 C   0  0  0  0  0  2  0  0  0  0  0  0
  -30.8400  -15.9960   21.9940 C   0  0  0  0  0  2  0  0  0  0  0  0
  -29.5190  -18.4870   21.5860 C   0  0  0  0  0  2  0  0  0  0  0  0
  -31.6220  -17.3410   22.1920 C   0  0  0  0  0  2  0  0  0  0  0  0
  -29.9520  -16.6710   19.6970 C   0  0  0  0  0  3  0  0  0  0  0  0
  -31.0500  -17.3200   18.8060 C   0  0  0  0  0  1  0  0  0  0  0  0
  -30.4800  -15.6180   20.6080 N   0  0  0  0  0  0  0  0  0  0  0  0
  -30.9930  -18.5320   21.5560 N   0  0  2  0  0  4  0  0  0  0  0  0
  -31.2220  -18.4220   20.5790 H   0  0  0  0  0  0  0  0  0  0  0  0
  -25.5960  -13.9730   20.3900 C   0  0  0  0  0  0  0  0  0  0  0  0
  -24.5270  -13.2210   20.7930 C   0  0  0  0  0  0  0  0  0  0  0  0
  -24.9470  -11.8570   20.7070 C   0  0  0  0  0  0  0  0  0  0  0  0
  -26.6020  -13.0700   20.0810 N   0  0  0  0  0  0  0  0  0  0  0  0
  -26.2190  -11.7910   20.3290 N   0  0  0  0  0  0  0  0  0  0  0  0
  -24.1970  -10.6100   20.9020 C   0  0  0  0  0  0  0  0  0  0  0  0
  -24.5950   -9.6500   21.8580 C   0  0  0  0  0  3  0  0  0  0  0  0
  -23.8470   -8.4660   22.0400 C   0  0  0  0  0  3  0  0  0  0  0  0
  -22.6860   -8.2350   21.2630 C   0  0  0  0  0  0  0  0  0  0  0  0
  -22.3080   -9.1830   20.2980 C   0  0  0  0  0  3  0  0  0  0  0  0
  -23.0560  -10.3580   20.1140 C   0  0  0  0  0  3  0  0  0  0  0  0
  -21.9150   -7.1020   21.3510 O   0  0  0  0  0  0  0  0  0  0  0  0
  -21.7620   -6.4250   22.5360 C   0  0  0  0  0  0  0  0  0  0  0  0
  -21.2260   -7.0460   23.6860 C   0  0  0  0  0  3  0  0  0  0  0  0
  -21.0220   -6.2960   24.8610 C   0  0  0  0  0  3  0  0  0  0  0  0
  -21.3430   -4.9250   24.8860 C   0  0  0  0  0  0  0  0  0  0  0  0
  -21.8710   -4.3040   23.7410 C   0  0  0  0  0  3  0  0  0  0  0  0
  -22.0780   -5.0520   22.5690 C   0  0  0  0  0  0  0  0  0  0  0  0
  -22.5670   -4.4430   21.4620 F   0  0  0  0  0  0  0  0  0  0  0  0
  -21.1400   -4.2020   26.0130 F   0  0  0  0  0  0  0  0  0  0  0  0
  -23.1580  -13.7300   21.1480 C   0  0  0  0  0  0  0  0  0  0  0  0
  -22.4580  -13.0390   22.0410 N   0  0  0  0  0  0  0  0  0  0  0  0
  -22.7180  -14.7730   20.6670 O   0  0  0  0  0  0  0  0  0  0  0  0
  -22.8230  -12.1940   22.4540 H   0  0  0  0  0  0  0  0  0  0  0  0
  -21.5410  -13.3590   22.3200 H   0  0  0  0  0  0  0  0  0  0  0  0
  -25.7920  -15.3430   20.2400 N   0  0  0  0  0  0  0  0  0  0  0  0
  -25.0490  -16.0140   20.4030 H   0  0  0  0  0  0  0  0  0  0  0  0
  -26.6290  -15.7610   19.8520 H   0  0  0  0  0  0  0  0  0  0  0  0
  1  3  1  0
  2  4  2  0
  3  2  1  0
  3  5  1  0
  6  7  1  0
  6  2  1  0
  8 10  1  0
  8  7  1  0
  9 20  2  0
 10 15  1  0
 11 19  1  0
 11 21  1  0
 12 18  1  0
 12 14  1  0
 13 19  1  0
 14 15  2  0
 14 13  1  0
 16 17  1  0
 16 10  2  0
 17 12  2  0
 18 11  1  0
 19  9  1  0
 21 23  2  0
 22 21  1  0
 24 22  1  0
 25 34  2  0
 25 30  1  0
 26 22  1  0
 26 30  1  0
 27 26  1  0
 28 29  1  0
 28 27  1  0
 29 25  1  0
 30 31  2  0
 31 32  1  0
 33 32  2  0
 34 33  1  0
 35  9  1  0
 35 36  1  0
 35 45  1  0
 36 39  1  0
 37 41  1  0
 37 36  1  0
 38 37  2  0
 41 40  1  0
 43 41  1  0
 43 44  1  0
 43 42  1  0
 45 48  1  1
 45 46  1  0
 47 45  1  0
 49  1  1  0
 49 50  1  0
 51 65  1  0
 52 57  1  0
 53 54  1  0
 53 52  1  0
 55 54  1  0
 55 71  1  0
 55 56  1  0
 57 51  1  0
 57 56  1  0
 58 51  2  0
 59 61  1  0
 60 62  1  0
 63 64  1  0
 63 59  1  0
 63 65  1  0
 65 60  1  0
 66 61  1  0
 66 50  1  0
 66 62  1  0
 66 67  1  6
 68 69  2  0
 69 88  1  0
 70 69  1  0
 70 73  1  0
 71 72  1  0
 71 68  1  0
 72 70  2  0
 73 74  1  0
 74 75  2  0
 76 79  1  0
 76 75  1  0
 77 76  2  0
 78 77  1  0
 78 73  2  0
 79 80  1  0
 80 85  2  0
 80 81  1  0
 81 82  2  0
 82 83  1  0
 83 87  1  0
 84 83  2  0
 85 84  1  0
 86 85  1  0
 88 89  1  0
 89 92  1  0
 89 91  1  0
 90 88  2  0
 93 68  1  0
 93 94  1  0
 95 93  1  0
M  ISO  4   7 101   8 101  51 100  65 100
M  END
>  <TORSDO>  (45) 
F 21

>  <SCORE>  (45) 
-12.690

>  <name>  (45) 
44

>  <ligand_id>  (45) 
44

>  <original_smiles>  (45) 
[H]c1c([H])c([H])c2c(c1[H])C([H])([H])C([H])([H])C([H])([H])C2([H])N([H])C(=O)C1([H])N(C(=O)C([H])(N([H])C(=O)C([H])(N([H])C([H])([H])[H])C([H])([H])[H])C(C([H])([H])[H])(C([H])([H])[H])C([H])([H])[H])C([H])([H])c2c([H])c(OC([H])([H])C([H])([H])C(=O)N([H])C([H])([H])C([H])([H])C([H])([H])[N+]3([H])C([H])([H])C([H])([H])N(C(=O)N4C([H])([H])C([H])([H])C([H])([H])C([H])(n5nc(-c6c([H])c([H])c(Oc7c([H])c([H])c(F)c([H])c7F)c([H])c6[H])c(C(=O)N([H])[H])c5N([H])[H])C4([H])[H])C([H])(C([H])([H])[H])C([H])([H])C3([H])[H])c([H])c([H])c2C1([H])[H]

>  <smiles>  (45) 
[H]c1c([H])c([H])c2c(c1[H])C([H])([H])C([H])([H])C([H])([H])C2([H])N([H])C(=O)C1([H])N(C(=O)C([H])(N([H])C(=O)C([H])(N([H])C([H])([H])[H])C([H])([H])[H])C(C([H])([H])[H])(C([H])([H])[H])C([H])([H])[H])C([H])([H])c2c([H])c(OC([H])([H])C([H])([H])C(=O)N([H])C([H])([H])C([H])([H])C([H])([H])[N+]3([H])C([H])([H])C([H])([H])N(C(=O)N4C([H])([H])C([H])([H])C([H])([H])C([H])(n5nc(-c6c([H])c([H])c(Oc7c([H])c([H])c(F)c([H])c7F)c([H])c6[H])c(C(=O)N([H])[H])c5N([H])[H])C4([H])[H])C([H])(C([H])([H])[H])C([H])([H])C3([H])[H])c([H])c([H])c2C1([H])[H]

$$$$
45:0:0
     RDKit          3D

 91 99  0  0  1  0  0  0  0  0999 V2000
  -28.7420  -21.1110   20.3850 N   0  0  0  0  0  4  0  0  0  0  0  0
  -28.3600  -21.0290   19.4560 H   0  0  0  0  0  0  0  0  0  0  0  0
  -27.9880  -20.9340   21.0270 H   0  0  0  0  0  0  0  0  0  0  0  0
  -29.1730  -22.5710   20.5880 C   0  0  0  0  0  2  0  0  0  0  0  0
  -28.2240  -23.7850   20.1130 C   0  0  0  0  0  2  0  0  0  0  0  0
  -28.4050  -25.2020   20.8510 C   0  0  0  0  0  2  0  0  0  0  0  0
  -28.3910  -26.5170   20.1670 O   0  0  0  0  0  0  0  0  0  0  0  0
  -24.6130  -31.8900   23.2370 C   0  0  0  0  0  0  0  0  0  0  0  0
  -27.2520  -27.3270   20.2160 C   0  0  0  0  0  0  0  0  0  0  0  0
  -23.4190  -30.4780   21.5980 C   0  0  0  0  0  3  0  0  0  0  0  0
  -24.8790  -28.9150   20.1930 C   0  0  0  0  0  0  0  0  0  0  0  0
  -25.9570  -30.8040   21.4210 C   0  0  0  0  0  2  0  0  0  0  0  0
  -26.0440  -29.4210   20.7860 C   0  0  0  0  0  0  0  0  0  0  0  0
  -27.2370  -28.6400   20.7810 C   0  0  0  0  0  3  0  0  0  0  0  0
  -26.0660  -26.8600   19.6190 C   0  0  0  0  0  3  0  0  0  0  0  0
  -24.8910  -27.6390   19.6030 C   0  0  0  0  0  3  0  0  0  0  0  0
  -23.6400  -29.7880   20.2240 C   0  0  0  0  0  2  0  0  0  0  0  0
  -24.6820  -31.0770   22.1410 N   0  0  0  0  0  0  0  0  0  0  0  0
  -23.5280  -32.1650   23.7670 O   0  0  0  0  0  0  0  0  0  0  0  0
  -22.7580  -29.4670   22.5640 C   0  0  0  0  0  0  0  0  0  0  0  0
  -21.4320  -29.2910   22.4380 N   0  0  0  0  0  0  0  0  0  0  0  0
  -23.4370  -28.8400   23.3810 O   0  0  0  0  0  0  0  0  0  0  0  0
  -20.9430  -29.8470   21.7510 H   0  0  0  0  0  0  0  0  0  0  0  0
  -18.0520  -28.1090   22.9530 C   0  0  0  0  0  0  0  0  0  0  0  0
  -20.6130  -28.3550   23.2110 C   0  0  0  0  0  3  0  0  0  0  0  0
  -20.7050  -26.9250   22.6310 C   0  0  0  0  0  2  0  0  0  0  0  0
  -19.5970  -26.6090   21.6210 C   0  0  0  0  0  2  0  0  0  0  0  0
  -18.2190  -26.7610   22.2710 C   0  0  0  0  0  2  0  0  0  0  0  0
  -19.1760  -28.8650   23.3780 C   0  0  0  0  0  0  0  0  0  0  0  0
  -18.9670  -30.1280   23.9750 C   0  0  0  0  0  3  0  0  0  0  0  0
  -17.6650  -30.6340   24.1490 C   0  0  0  0  0  3  0  0  0  0  0  0
  -16.5550  -29.8750   23.7380 C   0  0  0  0  0  3  0  0  0  0  0  0
  -16.7500  -28.6150   23.1480 C   0  0  0  0  0  3  0  0  0  0  0  0
  -25.8920  -32.5280   23.8620 C   0  0  0  0  0  3  0  0  0  0  0  0
  -25.5780  -33.9260   24.1860 N   0  0  0  0  0  0  0  0  0  0  0  0
  -25.9100  -34.9790   23.4270 C   0  0  0  0  0  0  0  0  0  0  0  0
  -26.5830  -34.8740   22.3970 O   0  0  0  0  0  0  0  0  0  0  0  0
  -24.9800  -34.0820   24.9840 H   0  0  0  0  0  0  0  0  0  0  0  0
  -24.1810  -36.7690   23.0620 C   0  0  0  0  0  1  0  0  0  0  0  0
  -25.4180  -36.3670   23.8800 C   0  0  0  0  0  3  0  0  0  0  0  0
  -27.5460  -37.2580   24.7220 C   0  0  0  0  0  1  0  0  0  0  0  0
  -26.4480  -37.4220   23.7720 N   0  0  0  0  0  0  0  0  0  0  0  0
  -26.0400  -38.3410   23.9130 H   0  0  0  0  0  0  0  0  0  0  0  0
  -26.4060  -31.7640   25.1440 C   0  0  1  0  0  0  0  0  0  0  0  0
  -25.3110  -31.5290   26.2100 C   0  0  0  0  0  1  0  0  0  0  0  0
  -26.9960  -30.3860   24.7620 C   0  0  0  0  0  1  0  0  0  0  0  0
  -27.5520  -32.5640   25.8080 C   0  0  0  0  0  1  0  0  0  0  0  0
  -29.7780  -19.9850   20.5490 C   0  0  0  0  0  3  0  0  0  0  0  0
  -32.0790  -19.7280   21.8560 C   0  0  0  0  0  2  0  0  0  0  0  0
  -31.7920  -21.2020   21.8010 C   0  0  0  0  0  2  0  0  0  0  0  0
  -30.6420  -20.2150   21.7910 C   0  0  0  0  0  3  0  0  0  0  0  0
  -29.2300  -18.4590   20.5390 C   0  0  0  0  0  3  0  0  0  0  0  0
  -30.2920  -17.2460   20.5550 C   0  0  0  0  0  3  0  0  0  0  0  0
  -30.5890  -14.6840   20.3140 C   0  0  0  0  0  0  0  0  0  0  0  0
  -30.3490  -12.4450   19.2520 C   0  0  0  0  0  2  0  0  0  0  0  0
  -29.3990  -12.5700   18.0440 C   0  0  0  0  0  2  0  0  0  0  0  0
  -27.9310  -12.4140   18.4850 C   0  0  0  0  0  2  0  0  0  0  0  0
  -27.5860  -13.2680   19.7350 C   0  0  0  0  0  3  0  0  0  0  0  0
  -28.6570  -13.1290   20.8380 C   0  0  0  0  0  2  0  0  0  0  0  0
  -29.9510  -13.4710   20.2370 N   0  0  0  0  0  0  0  0  0  0  0  0
  -31.7620  -14.8020   19.9530 O   0  0  0  0  0  0  0  0  0  0  0  0
  -29.8320  -15.8010   20.5920 N   0  0  0  0  0  0  0  0  0  0  0  0
  -28.8690  -15.6310   20.8410 H   0  0  0  0  0  0  0  0  0  0  0  0
  -25.2050  -13.8590   20.4830 C   0  0  0  0  0  0  0  0  0  0  0  0
  -24.1460  -13.0820   20.8690 C   0  0  0  0  0  0  0  0  0  0  0  0
  -24.6110  -11.7320   20.8300 C   0  0  0  0  0  0  0  0  0  0  0  0
  -26.2480  -12.9810   20.2360 N   0  0  0  0  0  0  0  0  0  0  0  0
  -25.8980  -11.6970   20.5070 N   0  0  0  0  0  0  0  0  0  0  0  0
  -23.8900  -10.4680   21.0230 C   0  0  0  0  0  0  0  0  0  0  0  0
  -24.3310   -9.5040   21.9540 C   0  0  0  0  0  3  0  0  0  0  0  0
  -23.6100   -8.3050   22.1390 C   0  0  0  0  0  3  0  0  0  0  0  0
  -22.4330   -8.0620   21.3930 C   0  0  0  0  0  0  0  0  0  0  0  0
  -22.0100   -9.0160   20.4510 C   0  0  0  0  0  3  0  0  0  0  0  0
  -22.7310  -10.2070   20.2630 C   0  0  0  0  0  3  0  0  0  0  0  0
  -21.6820   -6.9140   21.4860 O   0  0  0  0  0  0  0  0  0  0  0  0
  -21.6370   -6.1760   22.6400 C   0  0  0  0  0  0  0  0  0  0  0  0
  -21.1990   -6.7290   23.8650 C   0  0  0  0  0  3  0  0  0  0  0  0
  -21.1040   -5.9140   25.0100 C   0  0  0  0  0  3  0  0  0  0  0  0
  -21.4370   -4.5480   24.9340 C   0  0  0  0  0  0  0  0  0  0  0  0
  -21.8660   -3.9950   23.7140 C   0  0  0  0  0  3  0  0  0  0  0  0
  -21.9630   -4.8070   22.5710 C   0  0  0  0  0  0  0  0  0  0  0  0
  -22.3580   -4.2650   21.3930 F   0  0  0  0  0  0  0  0  0  0  0  0
  -21.3390   -3.7630   26.0310 F   0  0  0  0  0  0  0  0  0  0  0  0
  -22.7520  -13.5550   21.1560 C   0  0  0  0  0  0  0  0  0  0  0  0
  -22.0350  -12.8550   22.0280 N   0  0  0  0  0  0  0  0  0  0  0  0
  -22.3070  -14.5800   20.6430 O   0  0  0  0  0  0  0  0  0  0  0  0
  -22.4090  -12.0240   22.4630 H   0  0  0  0  0  0  0  0  0  0  0  0
  -21.0990  -13.1500   22.2610 H   0  0  0  0  0  0  0  0  0  0  0  0
  -25.3620  -15.2310   20.3020 N   0  0  0  0  0  0  0  0  0  0  0  0
  -24.5850  -15.8730   20.4110 H   0  0  0  0  0  0  0  0  0  0  0  0
  -26.1930  -15.6720   19.9300 H   0  0  0  0  0  0  0  0  0  0  0  0
  1 48  1  0
  1  4  1  0
  1  3  1  0
  2  1  1  0
  5  4  1  0
  5  6  1  0
  7  9  1  0
  7  6  1  0
  8 19  2  0
  9 14  1  0
 10 18  1  0
 10 20  1  0
 11 17  1  0
 11 13  1  0
 12 18  1  0
 13 12  1  0
 14 13  2  0
 15  9  2  0
 16 15  1  0
 16 11  2  0
 17 10  1  0
 18  8  1  0
 20 22  2  0
 21 20  1  0
 23 21  1  0
 24 33  2  0
 24 29  1  0
 25 21  1  0
 25 29  1  0
 26 25  1  0
 27 28  1  0
 27 26  1  0
 28 24  1  0
 29 30  2  0
 30 31  1  0
 32 31  2  0
 33 32  1  0
 34  8  1  0
 34 35  1  0
 34 44  1  0
 35 38  1  0
 36 40  1  0
 36 35  1  0
 37 36  2  0
 40 39  1  0
 42 40  1  0
 42 43  1  0
 42 41  1  0
 44 47  1  1
 44 45  1  0
 46 44  1  0
 48 52  1  0
 48 51  1  0
 50 49  1  0
 51 50  1  0
 51 49  1  0
 52 53  2  0
 53 62  1  0
 54 62  1  0
 55 60  1  0
 56 57  1  0
 56 55  1  0
 58 57  1  0
 58 67  1  0
 58 59  1  0
 60 54  1  0
 60 59  1  0
 61 54  2  0
 62 63  1  0
 64 65  2  0
 65 84  1  0
 66 65  1  0
 66 69  1  0
 67 64  1  0
 67 68  1  0
 68 66  2  0
 69 70  1  0
 70 71  2  0
 72 75  1  0
 72 71  1  0
 73 72  2  0
 74 73  1  0
 74 69  2  0
 75 76  1  0
 76 77  1  0
 77 78  2  0
 79 78  1  0
 79 83  1  0
 80 79  2  0
 81 76  2  0
 81 80  1  0
 82 81  1  0
 84 85  1  0
 85 88  1  0
 85 87  1  0
 86 84  2  0
 89 90  1  0
 89 64  1  0
 91 89  1  0
M  ISO  4   6 101   7 101  54 100  62 100
M  END
>  <TORSDO>  (46) 
F 23

>  <SCORE>  (46) 
-12.881

>  <name>  (46) 
45

>  <ligand_id>  (46) 
45

>  <original_smiles>  (46) 
[H]c1c([H])c([H])c2c(c1[H])C([H])([H])C([H])([H])C([H])([H])C2([H])N([H])C(=O)C1([H])N(C(=O)C([H])(N([H])C(=O)C([H])(N([H])C([H])([H])[H])C([H])([H])[H])C(C([H])([H])[H])(C([H])([H])[H])C([H])([H])[H])C([H])([H])c2c([H])c(OC([H])([H])C([H])([H])C([H])([H])[N+]([H])([H])C([H])(C([H])([H])C([H])([H])N([H])C(=O)N3C([H])([H])C([H])([H])C([H])([H])C([H])(n4nc(-c5c([H])c([H])c(Oc6c([H])c([H])c(F)c([H])c6F)c([H])c5[H])c(C(=O)N([H])[H])c4N([H])[H])C3([H])[H])C3([H])C([H])([H])C3([H])[H])c([H])c([H])c2C1([H])[H]

>  <smiles>  (46) 
[H]c1c([H])c([H])c2c(c1[H])C([H])([H])C([H])([H])C([H])([H])C2([H])N([H])C(=O)C1([H])N(C(=O)C([H])(N([H])C(=O)C([H])(N([H])C([H])([H])[H])C([H])([H])[H])C(C([H])([H])[H])(C([H])([H])[H])C([H])([H])[H])C([H])([H])c2c([H])c(OC([H])([H])C([H])([H])C([H])([H])[N+]([H])([H])C([H])(C([H])([H])C([H])([H])N([H])C(=O)N3C([H])([H])C([H])([H])C([H])([H])C([H])(n4nc(-c5c([H])c([H])c(Oc6c([H])c([H])c(F)c([H])c6F)c([H])c5[H])c(C(=O)N([H])[H])c4N([H])[H])C3([H])[H])C3([H])C([H])([H])C3([H])[H])c([H])c([H])c2C1([H])[H]

$$$$
46:0:0
     RDKit          3D

 96104  0  0  1  0  0  0  0  0999 V2000
  -28.3280  -19.0870   21.4300 C   0  0  0  0  0  2  0  0  0  0  0  0
  -28.7810  -20.0420   20.3120 C   0  0  0  0  0  2  0  0  0  0  0  0
  -29.2070  -17.8220   21.5100 C   0  0  0  0  0  2  0  0  0  0  0  0
  -29.0040  -19.2880   18.9750 C   0  0  0  0  0  3  0  0  0  0  0  0
  -30.4010  -17.8590   20.5260 C   0  0  0  0  0  3  0  0  0  0  0  0
  -29.9150  -18.1180   19.1410 N   0  0  0  0  0  4  0  0  0  0  0  0
  -30.7120  -18.2670   18.5420 H   0  0  0  0  0  0  0  0  0  0  0  0
  -29.4390  -17.3000   18.7970 H   0  0  0  0  0  0  0  0  0  0  0  0
  -32.0170  -16.4790   21.9810 C   0  0  0  0  0  1  0  0  0  0  0  0
  -31.3320  -16.6170   20.6040 C   0  0  0  0  0  3  0  0  0  0  0  0
  -31.1080  -14.3900   19.4700 C   0  0  0  0  0  0  0  0  0  0  0  0
  -30.6510  -12.1680   18.5010 C   0  0  0  0  0  2  0  0  0  0  0  0
  -29.6120  -12.2730   17.3670 C   0  0  0  0  0  2  0  0  0  0  0  0
  -28.1790  -12.2080   17.9300 C   0  0  0  0  0  2  0  0  0  0  0  0
  -27.9620  -13.1650   19.1290 C   0  0  0  0  0  3  0  0  0  0  0  0
  -29.1010  -13.0260   20.1640 C   0  0  0  0  0  2  0  0  0  0  0  0
  -30.3800  -13.2430   19.4670 N   0  0  0  0  0  0  0  0  0  0  0  0
  -32.1130  -14.5560   18.7770 O   0  0  0  0  0  0  0  0  0  0  0  0
  -30.6410  -15.3650   20.2680 N   0  0  0  0  0  0  0  0  0  0  0  0
  -29.7940  -15.1490   20.7720 H   0  0  0  0  0  0  0  0  0  0  0  0
  -25.6810  -13.9120   20.0590 C   0  0  0  0  0  0  0  0  0  0  0  0
  -24.6150  -13.2020   20.5420 C   0  0  0  0  0  0  0  0  0  0  0  0
  -24.9950  -11.8260   20.4750 C   0  0  0  0  0  0  0  0  0  0  0  0
  -26.6470  -12.9720   19.7390 N   0  0  0  0  0  0  0  0  0  0  0  0
  -26.2410  -11.7130   20.0410 N   0  0  0  0  0  0  0  0  0  0  0  0
  -24.2220  -10.6080   20.7490 C   0  0  0  0  0  0  0  0  0  0  0  0
  -24.6280   -9.6860   21.7390 C   0  0  0  0  0  3  0  0  0  0  0  0
  -23.8610   -8.5290   22.0000 C   0  0  0  0  0  3  0  0  0  0  0  0
  -22.6740   -8.2880   21.2700 C   0  0  0  0  0  0  0  0  0  0  0  0
  -22.2850   -9.1970   20.2700 C   0  0  0  0  0  3  0  0  0  0  0  0
  -23.0520  -10.3440   20.0090 C   0  0  0  0  0  3  0  0  0  0  0  0
  -21.8820   -7.1760   21.4320 O   0  0  0  0  0  0  0  0  0  0  0  0
  -21.7240   -6.5770   22.6550 C   0  0  0  0  0  0  0  0  0  0  0  0
  -21.2010   -7.2750   23.7650 C   0  0  0  0  0  3  0  0  0  0  0  0
  -20.9910   -6.6030   24.9850 C   0  0  0  0  0  3  0  0  0  0  0  0
  -21.2910   -5.2330   25.0960 C   0  0  0  0  0  0  0  0  0  0  0  0
  -21.8040   -4.5320   23.9910 C   0  0  0  0  0  3  0  0  0  0  0  0
  -22.0170   -5.2030   22.7730 C   0  0  0  0  0  0  0  0  0  0  0  0
  -22.4930   -4.5190   21.7040 F   0  0  0  0  0  0  0  0  0  0  0  0
  -21.0840   -4.5830   26.2660 F   0  0  0  0  0  0  0  0  0  0  0  0
  -23.2800  -13.7580   20.9470 C   0  0  0  0  0  0  0  0  0  0  0  0
  -22.6110  -13.1120   21.8970 N   0  0  0  0  0  0  0  0  0  0  0  0
  -22.8430  -14.7970   20.4550 O   0  0  0  0  0  0  0  0  0  0  0  0
  -22.9790  -12.2680   22.3120 H   0  0  0  0  0  0  0  0  0  0  0  0
  -21.7160  -13.4610   22.2090 H   0  0  0  0  0  0  0  0  0  0  0  0
  -25.9050  -15.2680   19.8490 N   0  0  0  0  0  0  0  0  0  0  0  0
  -25.1800  -15.9590   20.0100 H   0  0  0  0  0  0  0  0  0  0  0  0
  -26.7300  -15.6530   19.4080 H   0  0  0  0  0  0  0  0  0  0  0  0
  -29.5260  -20.2140   17.8440 C   0  0  0  0  0  2  0  0  0  0  0  0
  -28.4850  -20.7970   16.9940 N   0  0  0  0  0  0  0  0  0  0  0  0
  -28.8980  -21.0780   16.1060 H   0  0  0  0  0  0  0  0  0  0  0  0
  -27.7770  -21.9470   17.5570 C   0  0  0  0  0  2  0  0  0  0  0  0
  -28.6860  -23.1830   17.7550 C   0  0  0  0  0  2  0  0  0  0  0  0
  -27.9260  -24.3590   18.4060 C   0  0  0  0  0  2  0  0  0  0  0  0
  -28.6330  -25.7290   18.2800 C   0  0  0  0  0  2  0  0  0  0  0  0
  -28.5080  -26.5880   19.4240 O   0  0  0  0  0  0  0  0  0  0  0  0
  -25.2350  -31.3730   23.5600 C   0  0  0  0  0  0  0  0  0  0  0  0
  -27.3700  -27.3500   19.6060 C   0  0  0  0  0  0  0  0  0  0  0  0
  -23.8360  -30.3270   21.8110 C   0  0  0  0  0  3  0  0  0  0  0  0
  -25.0850  -28.9600   20.0600 C   0  0  0  0  0  0  0  0  0  0  0  0
  -26.3610  -30.5610   21.4910 C   0  0  0  0  0  2  0  0  0  0  0  0
  -26.3090  -29.3060   20.6430 C   0  0  0  0  0  0  0  0  0  0  0  0
  -27.4480  -28.4950   20.4310 C   0  0  0  0  0  3  0  0  0  0  0  0
  -26.1240  -27.0220   19.0240 C   0  0  0  0  0  3  0  0  0  0  0  0
  -24.9850  -27.8150   19.2580 C   0  0  0  0  0  3  0  0  0  0  0  0
  -23.9060  -29.8620   20.3320 C   0  0  0  0  0  2  0  0  0  0  0  0
  -25.1670  -30.7580   22.3450 N   0  0  0  0  0  0  0  0  0  0  0  0
  -24.2100  -31.6210   24.2130 O   0  0  0  0  0  0  0  0  0  0  0  0
  -23.1770  -29.2050   22.6450 C   0  0  0  0  0  0  0  0  0  0  0  0
  -21.8610  -29.0150   22.4550 N   0  0  0  0  0  0  0  0  0  0  0  0
  -23.8470  -28.5110   23.4150 O   0  0  0  0  0  0  0  0  0  0  0  0
  -21.3830  -29.6290   21.8100 H   0  0  0  0  0  0  0  0  0  0  0  0
  -18.5370  -27.6070   22.5750 C   0  0  0  0  0  0  0  0  0  0  0  0
  -21.0390  -27.9920   23.0970 C   0  0  0  0  0  3  0  0  0  0  0  0
  -21.2800  -26.6030   22.4630 C   0  0  0  0  0  2  0  0  0  0  0  0
  -20.2960  -26.2760   21.3350 C   0  0  0  0  0  2  0  0  0  0  0  0
  -18.8560  -26.3080   21.8540 C   0  0  0  0  0  2  0  0  0  0  0  0
  -19.5640  -28.4060   23.1440 C   0  0  0  0  0  0  0  0  0  0  0  0
  -19.2180  -29.6230   23.7700 C   0  0  0  0  0  3  0  0  0  0  0  0
  -17.8750  -30.0420   23.8380 C   0  0  0  0  0  3  0  0  0  0  0  0
  -16.8610  -29.2400   23.2850 C   0  0  0  0  0  3  0  0  0  0  0  0
  -17.1930  -28.0230   22.6600 C   0  0  0  0  0  3  0  0  0  0  0  0
  -26.5990  -31.8170   24.1770 C   0  0  0  0  0  3  0  0  0  0  0  0
  -26.4390  -33.1930   24.6620 N   0  0  0  0  0  0  0  0  0  0  0  0
  -26.8450  -34.2840   24.0000 C   0  0  0  0  0  0  0  0  0  0  0  0
  -27.4670  -34.2300   22.9350 O   0  0  0  0  0  0  0  0  0  0  0  0
  -25.8860  -33.3170   25.4990 H   0  0  0  0  0  0  0  0  0  0  0  0
  -25.2790  -36.2500   23.9090 C   0  0  0  0  0  1  0  0  0  0  0  0
  -26.5080  -35.6550   24.6160 C   0  0  0  0  0  3  0  0  0  0  0  0
  -28.7410  -36.2550   25.4380 C   0  0  0  0  0  1  0  0  0  0  0  0
  -27.6300  -36.6170   24.5630 N   0  0  0  0  0  0  0  0  0  0  0  0
  -27.3160  -37.5490   24.8200 H   0  0  0  0  0  0  0  0  0  0  0  0
  -27.0930  -30.8690   25.3360 C   0  0  1  0  0  0  0  0  0  0  0  0
  -26.0230  -30.6030   26.4210 C   0  0  0  0  0  1  0  0  0  0  0  0
  -27.5390  -29.5020   24.7670 C   0  0  0  0  0  1  0  0  0  0  0  0
  -28.3330  -31.4880   26.0260 C   0  0  0  0  0  1  0  0  0  0  0  0
  1  3  1  0
  2  1  1  0
  4 49  1  0
  4  6  1  0
  4  2  1  0
  5 10  1  0
  5  3  1  0
  6  5  1  0
  7  6  1  0
  8  6  1  0
 10  9  1  0
 11 19  1  0
 12 17  1  0
 13 14  1  0
 13 12  1  0
 15 14  1  0
 15 24  1  0
 15 16  1  0
 17 11  1  0
 17 16  1  0
 18 11  2  0
 19 10  1  0
 19 20  1  0
 21 22  2  0
 22 41  1  0
 23 22  1  0
 23 26  1  0
 24 25  1  0
 24 21  1  0
 25 23  2  0
 26 27  1  0
 27 28  2  0
 29 32  1  0
 29 28  1  0
 30 29  2  0
 31 30  1  0
 31 26  2  0
 32 33  1  0
 33 38  2  0
 33 34  1  0
 34 35  2  0
 35 36  1  0
 36 40  1  0
 37 36  2  0
 38 37  1  0
 39 38  1  0
 41 42  1  0
 42 45  1  0
 42 44  1  0
 43 41  2  0
 46 47  1  0
 46 21  1  0
 48 46  1  0
 50 52  1  0
 50 49  1  0
 51 50  1  0
 52 53  1  0
 53 54  1  0
 55 54  1  0
 55 56  1  0
 56 58  1  0
 57 68  2  0
 58 63  1  0
 59 67  1  0
 59 69  1  0
 60 66  1  0
 60 62  1  0
 61 67  1  0
 62 61  1  0
 63 62  2  0
 64 65  1  0
 64 58  2  0
 65 60  2  0
 66 59  1  0
 67 57  1  0
 69 71  2  0
 70 69  1  0
 72 70  1  0
 73 82  2  0
 73 78  1  0
 74 70  1  0
 74 78  1  0
 75 74  1  0
 76 77  1  0
 76 75  1  0
 77 73  1  0
 78 79  2  0
 79 80  1  0
 81 80  2  0
 82 81  1  0
 83 57  1  0
 83 84  1  0
 83 93  1  0
 84 87  1  0
 85 89  1  0
 85 84  1  0
 86 85  2  0
 89 88  1  0
 91 89  1  0
 91 92  1  0
 91 90  1  0
 93 96  1  1
 93 94  1  0
 95 93  1  0
M  ISO  4  11 100  19 100  55 101  56 101
M  END
>  <TORSDO>  (47) 
F 23

>  <SCORE>  (47) 
-7.816

>  <name>  (47) 
46

>  <ligand_id>  (47) 
46

>  <original_smiles>  (47) 
[H]c1c([H])c([H])c2c(c1[H])C([H])([H])C([H])([H])C([H])([H])C2([H])N([H])C(=O)C1([H])N(C(=O)C([H])(N([H])C(=O)C([H])(N([H])C([H])([H])[H])C([H])([H])[H])C(C([H])([H])[H])(C([H])([H])[H])C([H])([H])[H])C([H])([H])c2c([H])c(OC([H])([H])C([H])([H])C([H])([H])C([H])([H])N([H])C([H])([H])C3([H])C([H])([H])C([H])([H])C([H])([H])C([H])(C([H])(N([H])C(=O)N4C([H])([H])C([H])([H])C([H])([H])C([H])(n5nc(-c6c([H])c([H])c(Oc7c([H])c([H])c(F)c([H])c7F)c([H])c6[H])c(C(=O)N([H])[H])c5N([H])[H])C4([H])[H])C([H])([H])[H])[N+]3([H])[H])c([H])c([H])c2C1([H])[H]

>  <smiles>  (47) 
[H]c1c([H])c([H])c2c(c1[H])C([H])([H])C([H])([H])C([H])([H])C2([H])N([H])C(=O)C1([H])N(C(=O)C([H])(N([H])C(=O)C([H])(N([H])C([H])([H])[H])C([H])([H])[H])C(C([H])([H])[H])(C([H])([H])[H])C([H])([H])[H])C([H])([H])c2c([H])c(OC([H])([H])C([H])([H])C([H])([H])C([H])([H])N([H])C([H])([H])C3([H])C([H])([H])C([H])([H])C([H])([H])C([H])(C([H])(N([H])C(=O)N4C([H])([H])C([H])([H])C([H])([H])C([H])(n5nc(-c6c([H])c([H])c(Oc7c([H])c([H])c(F)c([H])c7F)c([H])c6[H])c(C(=O)N([H])[H])c5N([H])[H])C4([H])[H])C([H])([H])[H])[N+]3([H])[H])c([H])c([H])c2C1([H])[H]

$$$$
47:0:0
     RDKit          3D

 96104  0  0  1  0  0  0  0  0999 V2000
  -29.4880  -17.9650   21.3790 C   0  0  0  0  0  2  0  0  0  0  0  0
  -28.8250  -19.2640   20.8340 C   0  0  0  0  0  2  0  0  0  0  0  0
  -30.3320  -17.8750   18.9750 C   0  0  0  0  0  2  0  0  0  0  0  0
  -30.5680  -19.4360   18.9950 C   0  0  0  0  0  3  0  0  0  0  0  0
  -30.3500  -17.1610   20.3610 C   0  0  0  0  0  3  0  0  0  0  0  0
  -29.8200  -20.2270   20.1340 C   0  0  0  0  0  3  0  0  0  0  0  0
  -30.7310  -14.6390   20.0380 C   0  0  0  0  0  0  0  0  0  0  0  0
  -30.4110  -12.4660   18.9150 C   0  0  0  0  0  2  0  0  0  0  0  0
  -29.4030  -12.6800   17.7660 C   0  0  0  0  0  2  0  0  0  0  0  0
  -27.9530  -12.5290   18.2730 C   0  0  0  0  0  2  0  0  0  0  0  0
  -27.6810  -13.3320   19.5730 C   0  0  0  0  0  3  0  0  0  0  0  0
  -28.8020  -13.1220   20.6140 C   0  0  0  0  0  2  0  0  0  0  0  0
  -30.0790  -13.4450   19.9620 N   0  0  0  0  0  0  0  0  0  0  0  0
  -31.8990  -14.7800   19.6640 O   0  0  0  0  0  0  0  0  0  0  0  0
  -29.9570  -15.7210   20.3170 N   0  0  0  0  0  0  0  0  0  0  0  0
  -28.9870  -15.5150   20.5010 H   0  0  0  0  0  0  0  0  0  0  0  0
  -25.3270  -13.9140   20.4250 C   0  0  0  0  0  0  0  0  0  0  0  0
  -24.2850  -13.1320   20.8360 C   0  0  0  0  0  0  0  0  0  0  0  0
  -24.7490  -11.7830   20.7600 C   0  0  0  0  0  0  0  0  0  0  0  0
  -26.3610  -13.0410   20.1240 N   0  0  0  0  0  0  0  0  0  0  0  0
  -26.0210  -11.7540   20.3870 N   0  0  0  0  0  0  0  0  0  0  0  0
  -24.0380  -10.5150   20.9640 C   0  0  0  0  0  0  0  0  0  0  0  0
  -24.4930   -9.5520   21.8900 C   0  0  0  0  0  3  0  0  0  0  0  0
  -23.7820   -8.3480   22.0810 C   0  0  0  0  0  3  0  0  0  0  0  0
  -22.5990   -8.0990   21.3440 C   0  0  0  0  0  0  0  0  0  0  0  0
  -22.1630   -9.0510   20.4060 C   0  0  0  0  0  3  0  0  0  0  0  0
  -22.8760  -10.2460   20.2130 C   0  0  0  0  0  3  0  0  0  0  0  0
  -21.8560   -6.9470   21.4440 O   0  0  0  0  0  0  0  0  0  0  0  0
  -21.8020   -6.2260   22.6100 C   0  0  0  0  0  0  0  0  0  0  0  0
  -21.2890   -6.7770   23.8050 C   0  0  0  0  0  3  0  0  0  0  0  0
  -21.1870   -5.9780   24.9610 C   0  0  0  0  0  3  0  0  0  0  0  0
  -21.5870   -4.6280   24.9230 C   0  0  0  0  0  0  0  0  0  0  0  0
  -22.0940   -4.0780   23.7320 C   0  0  0  0  0  3  0  0  0  0  0  0
  -22.1990   -4.8740   22.5790 C   0  0  0  0  0  0  0  0  0  0  0  0
  -22.6670   -4.3320   21.4290 F   0  0  0  0  0  0  0  0  0  0  0  0
  -21.4820   -3.8580   26.0320 F   0  0  0  0  0  0  0  0  0  0  0  0
  -22.9000  -13.5980   21.1850 C   0  0  0  0  0  0  0  0  0  0  0  0
  -22.2140  -12.8780   22.0650 N   0  0  0  0  0  0  0  0  0  0  0  0
  -22.4390  -14.6360   20.7140 O   0  0  0  0  0  0  0  0  0  0  0  0
  -22.6030  -12.0370   22.4670 H   0  0  0  0  0  0  0  0  0  0  0  0
  -21.2880  -13.1700   22.3420 H   0  0  0  0  0  0  0  0  0  0  0  0
  -25.4760  -15.2880   20.2560 N   0  0  0  0  0  0  0  0  0  0  0  0
  -24.6990  -15.9260   20.3910 H   0  0  0  0  0  0  0  0  0  0  0  0
  -26.2840  -15.7330   19.8390 H   0  0  0  0  0  0  0  0  0  0  0  0
  -29.1240  -21.4920   19.6780 N   0  0  0  0  0  4  0  0  0  0  0  0
  -28.2150  -21.4780   20.1120 H   0  0  0  0  0  0  0  0  0  0  0  0
  -28.9610  -21.4480   18.6840 H   0  0  0  0  0  0  0  0  0  0  0  0
  -29.7400  -22.8290   20.0230 C   0  0  0  0  0  2  0  0  0  0  0  0
  -28.8000  -24.1060   19.8120 C   0  0  0  0  0  2  0  0  0  0  0  0
  -28.4910  -25.3390   20.7730 C   0  0  0  0  0  2  0  0  0  0  0  0
  -28.5580  -26.6850   20.2140 O   0  0  0  0  0  0  0  0  0  0  0  0
  -24.6300  -31.8880   23.2540 C   0  0  0  0  0  0  0  0  0  0  0  0
  -27.3910  -27.4380   20.2250 C   0  0  0  0  0  0  0  0  0  0  0  0
  -23.4810  -30.4780   21.5800 C   0  0  0  0  0  3  0  0  0  0  0  0
  -24.9840  -28.9490   20.1920 C   0  0  0  0  0  0  0  0  0  0  0  0
  -26.0090  -30.8520   21.4460 C   0  0  0  0  0  2  0  0  0  0  0  0
  -26.1270  -29.4780   20.8030 C   0  0  0  0  0  0  0  0  0  0  0  0
  -27.3370  -28.7340   20.8070 C   0  0  0  0  0  3  0  0  0  0  0  0
  -26.2260  -26.9290   19.6150 C   0  0  0  0  0  3  0  0  0  0  0  0
  -25.0300  -27.6740   19.5950 C   0  0  0  0  0  3  0  0  0  0  0  0
  -23.7310  -29.7980   20.2080 C   0  0  0  0  0  2  0  0  0  0  0  0
  -24.7250  -31.0870   22.1530 N   0  0  0  0  0  0  0  0  0  0  0  0
  -23.5320  -32.1500   23.7650 O   0  0  0  0  0  0  0  0  0  0  0  0
  -22.8080  -29.4520   22.5240 C   0  0  0  0  0  0  0  0  0  0  0  0
  -21.4820  -29.2820   22.3820 N   0  0  0  0  0  0  0  0  0  0  0  0
  -23.4780  -28.8110   23.3390 O   0  0  0  0  0  0  0  0  0  0  0  0
  -21.0040  -29.8550   21.6990 H   0  0  0  0  0  0  0  0  0  0  0  0
  -18.0880  -28.1360   22.8690 C   0  0  0  0  0  0  0  0  0  0  0  0
  -20.6510  -28.3390   23.1310 C   0  0  0  0  0  3  0  0  0  0  0  0
  -20.7220  -26.9220   22.5180 C   0  0  0  0  0  2  0  0  0  0  0  0
  -19.6100  -26.6480   21.5010 C   0  0  0  0  0  2  0  0  0  0  0  0
  -18.2350  -26.8010   22.1560 C   0  0  0  0  0  2  0  0  0  0  0  0
  -19.2240  -28.8650   23.3120 C   0  0  0  0  0  0  0  0  0  0  0  0
  -19.0340  -30.1170   23.9370 C   0  0  0  0  0  3  0  0  0  0  0  0
  -17.7400  -30.6390   24.1230 C   0  0  0  0  0  3  0  0  0  0  0  0
  -16.6180  -29.9040   23.6970 C   0  0  0  0  0  3  0  0  0  0  0  0
  -16.7940  -28.6560   23.0750 C   0  0  0  0  0  3  0  0  0  0  0  0
  -25.8930  -32.5300   23.9070 C   0  0  0  0  0  3  0  0  0  0  0  0
  -25.5690  -33.9290   24.2180 N   0  0  0  0  0  0  0  0  0  0  0  0
  -25.9120  -34.9760   23.4560 C   0  0  0  0  0  0  0  0  0  0  0  0
  -26.6040  -34.8660   22.4390 O   0  0  0  0  0  0  0  0  0  0  0  0
  -24.9520  -34.0870   25.0010 H   0  0  0  0  0  0  0  0  0  0  0  0
  -24.1910  -36.7610   23.0410 C   0  0  0  0  0  1  0  0  0  0  0  0
  -25.4090  -36.3650   23.8890 C   0  0  0  0  0  3  0  0  0  0  0  0
  -27.5090  -37.2700   24.7870 C   0  0  0  0  0  1  0  0  0  0  0  0
  -26.4430  -37.4190   23.7990 N   0  0  0  0  0  0  0  0  0  0  0  0
  -26.0300  -38.3390   23.9200 H   0  0  0  0  0  0  0  0  0  0  0  0
  -26.3780  -31.7690   25.2030 C   0  0  1  0  0  0  0  0  0  0  0  0
  -25.2550  -31.5240   26.2380 C   0  0  0  0  0  1  0  0  0  0  0  0
  -26.9840  -30.3950   24.8330 C   0  0  0  0  0  1  0  0  0  0  0  0
  -27.5020  -32.5770   25.8950 C   0  0  0  0  0  1  0  0  0  0  0  0
  -32.0690  -19.8150   18.8440 C   0  0  0  0  0  2  0  0  0  0  0  0
  -32.9300  -19.4240   19.9810 N   0  0  0  0  0  4  0  0  0  0  0  0
  -32.6490  -19.8550   20.8420 H   0  0  0  0  0  0  0  0  0  0  0  0
  -33.8720  -19.7240   19.7950 H   0  0  0  0  0  0  0  0  0  0  0  0
  -32.9600  -18.4270   20.0970 H   0  0  0  0  0  0  0  0  0  0  0  0
  2  1  1  0
  3  4  1  0
  3  5  1  0
  4 92  1  0
  4  6  1  0
  5 15  1  0
  5  1  1  0
  6 45  1  0
  6  2  1  0
  7 15  1  0
  8 13  1  0
  9 10  1  0
  9  8  1  0
 11 10  1  0
 11 20  1  0
 11 12  1  0
 13  7  1  0
 13 12  1  0
 14  7  2  0
 15 16  1  0
 17 18  2  0
 18 37  1  0
 19 18  1  0
 19 22  1  0
 20 21  1  0
 20 17  1  0
 21 19  2  0
 22 23  1  0
 23 24  2  0
 25 28  1  0
 25 24  1  0
 26 25  2  0
 27 26  1  0
 27 22  2  0
 28 29  1  0
 29 30  1  0
 30 31  2  0
 32 31  1  0
 32 36  1  0
 33 32  2  0
 34 29  2  0
 34 33  1  0
 35 34  1  0
 37 38  1  0
 38 41  1  0
 38 40  1  0
 39 37  2  0
 42 43  1  0
 42 17  1  0
 44 42  1  0
 45 48  1  0
 45 46  1  0
 47 45  1  0
 49 48  1  0
 49 50  1  0
 51 53  1  0
 51 50  1  0
 52 63  2  0
 53 58  1  0
 54 62  1  0
 54 64  1  0
 55 61  1  0
 55 57  1  0
 56 62  1  0
 57 58  2  0
 57 56  1  0
 59 53  2  0
 60 59  1  0
 60 55  2  0
 61 54  1  0
 62 52  1  0
 64 66  2  0
 65 64  1  0
 67 65  1  0
 68 77  2  0
 68 73  1  0
 69 65  1  0
 69 73  1  0
 70 69  1  0
 71 72  1  0
 71 70  1  0
 72 68  1  0
 73 74  2  0
 74 75  1  0
 76 75  2  0
 77 76  1  0
 78 52  1  0
 78 79  1  0
 78 88  1  0
 79 82  1  0
 80 84  1  0
 80 79  1  0
 81 80  2  0
 84 83  1  0
 86 84  1  0
 86 87  1  0
 86 85  1  0
 88 91  1  1
 88 89  1  0
 90 88  1  0
 92 93  1  0
 93 96  1  0
 93 94  1  0
 95 93  1  0
M  ISO  4   7 100  15 100  50 101  51 101
M  END
>  <TORSDO>  (48) 
F 22

>  <SCORE>  (48) 
-12.844

>  <name>  (48) 
47

>  <ligand_id>  (48) 
47

>  <original_smiles>  (48) 
[H]c1c([H])c([H])c2c(c1[H])C([H])([H])C([H])([H])C([H])([H])C2([H])N([H])C(=O)C1([H])N(C(=O)C([H])(N([H])C(=O)C([H])(N([H])C([H])([H])[H])C([H])([H])[H])C(C([H])([H])[H])(C([H])([H])[H])C([H])([H])[H])C([H])([H])c2c([H])c(OC([H])([H])C([H])([H])C([H])([H])[N+]([H])([H])C3([H])C([H])([H])C([H])([H])C([H])(N([H])C(=O)N4C([H])([H])C([H])([H])C([H])([H])C([H])(n5nc(-c6c([H])c([H])c(Oc7c([H])c([H])c(F)c([H])c7F)c([H])c6[H])c(C(=O)N([H])[H])c5N([H])[H])C4([H])[H])C([H])([H])C3([H])C([H])([H])[N+]([H])([H])[H])c([H])c([H])c2C1([H])[H]

>  <smiles>  (48) 
[H]c1c([H])c([H])c2c(c1[H])C([H])([H])C([H])([H])C([H])([H])C2([H])N([H])C(=O)C1([H])N(C(=O)C([H])(N([H])C(=O)C([H])(N([H])C([H])([H])[H])C([H])([H])[H])C(C([H])([H])[H])(C([H])([H])[H])C([H])([H])[H])C([H])([H])c2c([H])c(OC([H])([H])C([H])([H])C([H])([H])[N+]([H])([H])C3([H])C([H])([H])C([H])([H])C([H])(N([H])C(=O)N4C([H])([H])C([H])([H])C([H])([H])C([H])(n5nc(-c6c([H])c([H])c(Oc7c([H])c([H])c(F)c([H])c7F)c([H])c6[H])c(C(=O)N([H])[H])c5N([H])[H])C4([H])[H])C([H])([H])C3([H])C([H])([H])[N+]([H])([H])[H])c([H])c([H])c2C1([H])[H]

$$$$
48:0:0
     RDKit          3D

 94102  0  0  1  0  0  0  0  0999 V2000
  -29.1140  -20.5940   21.2950 C   0  0  0  0  0  0  0  0  0  0  0  0
  -28.5960  -21.7360   20.7820 N   0  0  0  0  0  0  0  0  0  0  0  0
  -29.8850  -20.6270   22.2570 O   0  0  0  0  0  0  0  0  0  0  0  0
  -27.9000  -21.6620   20.0530 H   0  0  0  0  0  0  0  0  0  0  0  0
  -29.6370  -16.9990   18.8280 C   0  0  0  0  0  2  0  0  0  0  0  0
  -29.5790  -18.0100   21.1740 C   0  0  0  0  0  2  0  0  0  0  0  0
  -29.7880  -18.5020   18.4920 C   0  0  0  0  0  2  0  0  0  0  0  0
  -28.7450  -19.2310   20.6430 C   0  0  0  0  0  3  0  0  0  0  0  0
  -29.3930  -16.7040   20.3400 C   0  0  0  0  0  3  0  0  0  0  0  0
  -28.7770  -19.3460   19.1670 N   0  0  0  0  0  4  0  0  0  0  0  0
  -27.8600  -19.1430   18.8030 H   0  0  0  0  0  0  0  0  0  0  0  0
  -28.9790  -20.3110   18.9500 H   0  0  0  0  0  0  0  0  0  0  0  0
  -30.7410  -14.5470   20.2380 C   0  0  0  0  0  0  0  0  0  0  0  0
  -30.3690  -12.4260   19.0340 C   0  0  0  0  0  2  0  0  0  0  0  0
  -29.3910  -12.6450   17.8630 C   0  0  0  0  0  2  0  0  0  0  0  0
  -27.9350  -12.4920   18.3390 C   0  0  0  0  0  2  0  0  0  0  0  0
  -27.6350  -13.3230   19.6150 C   0  0  0  0  0  3  0  0  0  0  0  0
  -28.7200  -13.1030   20.6910 C   0  0  0  0  0  2  0  0  0  0  0  0
  -30.0260  -13.3990   20.0840 N   0  0  0  0  0  0  0  0  0  0  0  0
  -31.8530  -14.7140   19.7340 O   0  0  0  0  0  0  0  0  0  0  0  0
  -30.1550  -15.5580   20.9140 N   0  0  0  0  0  0  0  0  0  0  0  0
  -30.7820  -15.8860   21.6360 H   0  0  0  0  0  0  0  0  0  0  0  0
  -25.2600  -13.9340   20.3900 C   0  0  0  0  0  0  0  0  0  0  0  0
  -24.2000  -13.1610   20.7880 C   0  0  0  0  0  0  0  0  0  0  0  0
  -24.6600  -11.8100   20.7460 C   0  0  0  0  0  0  0  0  0  0  0  0
  -26.2960  -13.0500   20.1300 N   0  0  0  0  0  0  0  0  0  0  0  0
  -25.9410  -11.7680   20.4020 N   0  0  0  0  0  0  0  0  0  0  0  0
  -23.9370  -10.5480   20.9540 C   0  0  0  0  0  0  0  0  0  0  0  0
  -24.3900   -9.5810   21.8800 C   0  0  0  0  0  3  0  0  0  0  0  0
  -23.6680   -8.3840   22.0760 C   0  0  0  0  0  3  0  0  0  0  0  0
  -22.4800   -8.1450   21.3470 C   0  0  0  0  0  0  0  0  0  0  0  0
  -22.0460   -9.0990   20.4090 C   0  0  0  0  0  3  0  0  0  0  0  0
  -22.7670  -10.2870   20.2110 C   0  0  0  0  0  3  0  0  0  0  0  0
  -21.7280   -7.0000   21.4520 O   0  0  0  0  0  0  0  0  0  0  0  0
  -21.6950   -6.2630   22.6090 C   0  0  0  0  0  0  0  0  0  0  0  0
  -21.2880   -6.8240   23.8390 C   0  0  0  0  0  3  0  0  0  0  0  0
  -21.2050   -6.0140   24.9900 C   0  0  0  0  0  3  0  0  0  0  0  0
  -21.5190   -4.6430   24.9110 C   0  0  0  0  0  0  0  0  0  0  0  0
  -21.9210   -4.0830   23.6860 C   0  0  0  0  0  3  0  0  0  0  0  0
  -22.0070   -4.8900   22.5380 C   0  0  0  0  0  0  0  0  0  0  0  0
  -22.3730   -4.3400   21.3550 F   0  0  0  0  0  0  0  0  0  0  0  0
  -21.4320   -3.8630   26.0120 F   0  0  0  0  0  0  0  0  0  0  0  0
  -22.8120  -13.6400   21.1000 C   0  0  0  0  0  0  0  0  0  0  0  0
  -22.1080  -12.9430   21.9860 N   0  0  0  0  0  0  0  0  0  0  0  0
  -22.3610  -14.6670   20.5940 O   0  0  0  0  0  0  0  0  0  0  0  0
  -22.4860  -12.1110   22.4150 H   0  0  0  0  0  0  0  0  0  0  0  0
  -21.1780  -13.2470   22.2400 H   0  0  0  0  0  0  0  0  0  0  0  0
  -25.4220  -15.3020   20.2060 N   0  0  0  0  0  0  0  0  0  0  0  0
  -24.6600  -15.9610   20.3260 H   0  0  0  0  0  0  0  0  0  0  0  0
  -26.2630  -15.7270   19.8420 H   0  0  0  0  0  0  0  0  0  0  0  0
  -28.8130  -23.0830   21.3510 C   0  0  0  0  0  2  0  0  0  0  0  0
  -28.5040  -24.2620   20.3870 C   0  0  0  0  0  2  0  0  0  0  0  0
  -28.5050  -25.6460   21.0930 C   0  0  0  0  0  2  0  0  0  0  0  0
  -28.4700  -26.7670   20.1930 O   0  0  0  0  0  0  0  0  0  0  0  0
  -24.6070  -31.9210   23.2670 C   0  0  0  0  0  0  0  0  0  0  0  0
  -27.3050  -27.5000   20.2110 C   0  0  0  0  0  0  0  0  0  0  0  0
  -23.4220  -30.5110   21.6150 C   0  0  0  0  0  3  0  0  0  0  0  0
  -24.8990  -28.9830   20.1970 C   0  0  0  0  0  0  0  0  0  0  0  0
  -25.9450  -30.8940   21.4270 C   0  0  0  0  0  2  0  0  0  0  0  0
  -26.0480  -29.5210   20.7920 C   0  0  0  0  0  0  0  0  0  0  0  0
  -27.2580  -28.7870   20.7930 C   0  0  0  0  0  3  0  0  0  0  0  0
  -26.1430  -26.9740   19.6110 C   0  0  0  0  0  3  0  0  0  0  0  0
  -24.9420  -27.7100   19.6010 C   0  0  0  0  0  3  0  0  0  0  0  0
  -23.6410  -29.8250   20.2400 C   0  0  0  0  0  2  0  0  0  0  0  0
  -24.6770  -31.1230   22.1630 N   0  0  0  0  0  0  0  0  0  0  0  0
  -23.5200  -32.1840   23.8020 O   0  0  0  0  0  0  0  0  0  0  0  0
  -22.7720  -29.4890   22.5750 C   0  0  0  0  0  0  0  0  0  0  0  0
  -21.4480  -29.3030   22.4440 N   0  0  0  0  0  0  0  0  0  0  0  0
  -23.4570  -28.8650   23.3910 O   0  0  0  0  0  0  0  0  0  0  0  0
  -20.9510  -29.8710   21.7730 H   0  0  0  0  0  0  0  0  0  0  0  0
  -18.0860  -28.0700   22.9120 C   0  0  0  0  0  0  0  0  0  0  0  0
  -20.6380  -28.3500   23.1990 C   0  0  0  0  0  3  0  0  0  0  0  0
  -20.7630  -26.9250   22.6130 C   0  0  0  0  0  2  0  0  0  0  0  0
  -19.6650  -26.5910   21.6010 C   0  0  0  0  0  2  0  0  0  0  0  0
  -18.2780  -26.7280   22.2300 C   0  0  0  0  0  2  0  0  0  0  0  0
  -19.1940  -28.8410   23.3520 C   0  0  0  0  0  0  0  0  0  0  0  0
  -18.9620  -30.1040   23.9400 C   0  0  0  0  0  3  0  0  0  0  0  0
  -17.6530  -30.5940   24.1010 C   0  0  0  0  0  3  0  0  0  0  0  0
  -16.5580  -29.8150   23.6820 C   0  0  0  0  0  3  0  0  0  0  0  0
  -16.7750  -28.5580   23.0910 C   0  0  0  0  0  3  0  0  0  0  0  0
  -25.8840  -32.5630   23.8940 C   0  0  0  0  0  3  0  0  0  0  0  0
  -26.3940  -31.8030   25.1800 C   0  0  1  0  0  0  0  0  0  0  0  0
  -25.2940  -31.5650   26.2410 C   0  0  0  0  0  1  0  0  0  0  0  0
  -26.9860  -30.4260   24.7970 C   0  0  0  0  0  1  0  0  0  0  0  0
  -27.5330  -32.6090   25.8480 C   0  0  0  0  0  1  0  0  0  0  0  0
  -25.5650  -33.9620   24.2110 N   0  0  0  0  0  0  0  0  0  0  0  0
  -25.9010  -35.0100   23.4470 C   0  0  0  0  0  0  0  0  0  0  0  0
  -26.5840  -34.9020   22.4250 O   0  0  0  0  0  0  0  0  0  0  0  0
  -24.9540  -34.1190   24.9990 H   0  0  0  0  0  0  0  0  0  0  0  0
  -24.1670  -36.7920   23.0590 C   0  0  0  0  0  1  0  0  0  0  0  0
  -25.4010  -36.3980   23.8870 C   0  0  0  0  0  3  0  0  0  0  0  0
  -27.5210  -37.3010   24.7370 C   0  0  0  0  0  1  0  0  0  0  0  0
  -26.4300  -37.4550   23.7790 N   0  0  0  0  0  0  0  0  0  0  0  0
  -26.0180  -38.3740   23.9120 H   0  0  0  0  0  0  0  0  0  0  0  0
  1  3  2  0
  2  1  1  0
  2 51  1  0
  4  2  1  0
  5  9  1  0
  7  5  1  0
  7 10  1  0
  8  6  1  0
  8  1  1  0
  9 21  1  0
  9  6  1  0
 10  8  1  0
 11 10  1  0
 12 10  1  0
 13 21  1  0
 14 19  1  0
 15 16  1  0
 15 14  1  0
 17 16  1  0
 17 26  1  0
 17 18  1  0
 19 13  1  0
 19 18  1  0
 20 13  2  0
 21 22  1  0
 23 24  2  0
 24 43  1  0
 25 24  1  0
 25 28  1  0
 26 23  1  0
 26 27  1  0
 27 25  2  0
 28 29  1  0
 29 30  2  0
 31 34  1  0
 31 30  1  0
 32 31  2  0
 33 32  1  0
 33 28  2  0
 34 35  1  0
 35 36  1  0
 36 37  2  0
 38 37  1  0
 38 42  1  0
 39 38  2  0
 40 35  2  0
 40 39  1  0
 41 40  1  0
 43 44  1  0
 44 47  1  0
 44 46  1  0
 45 43  2  0
 48 49  1  0
 48 23  1  0
 50 48  1  0
 52 53  1  0
 52 51  1  0
 54 56  1  0
 54 53  1  0
 55 66  2  0
 56 61  1  0
 57 65  1  0
 57 67  1  0
 58 64  1  0
 58 60  1  0
 59 65  1  0
 60 61  2  0
 60 59  1  0
 62 56  2  0
 63 62  1  0
 63 58  2  0
 64 57  1  0
 65 55  1  0
 67 69  2  0
 68 67  1  0
 70 68  1  0
 71 80  2  0
 71 76  1  0
 72 68  1  0
 72 76  1  0
 73 72  1  0
 74 75  1  0
 74 73  1  0
 75 71  1  0
 76 77  2  0
 77 78  1  0
 79 78  2  0
 80 79  1  0
 81 55  1  0
 81 86  1  0
 81 82  1  0
 82 85  1  1
 82 83  1  0
 84 82  1  0
 86 89  1  0
 87 91  1  0
 87 86  1  0
 88 87  2  0
 91 90  1  0
 93 91  1  0
 93 94  1  0
 93 92  1  0
M  ISO  4  13 100  21 100  53 101  54 101
M  END
>  <TORSDO>  (49) 
F 20

>  <SCORE>  (49) 
-13.634

>  <name>  (49) 
48

>  <ligand_id>  (49) 
48

>  <original_smiles>  (49) 
[H]c1c([H])c([H])c2c(c1[H])C([H])([H])C([H])([H])C([H])([H])C2([H])N([H])C(=O)C1([H])N(C(=O)C([H])(N([H])C(=O)C([H])(N([H])C([H])([H])[H])C([H])([H])[H])C(C([H])([H])[H])(C([H])([H])[H])C([H])([H])[H])C([H])([H])c2c([H])c(OC([H])([H])C([H])([H])C([H])([H])N([H])C(=O)C3([H])C([H])([H])C([H])(N([H])C(=O)N4C([H])([H])C([H])([H])C([H])([H])C([H])(n5nc(-c6c([H])c([H])c(Oc7c([H])c([H])c(F)c([H])c7F)c([H])c6[H])c(C(=O)N([H])[H])c5N([H])[H])C4([H])[H])C([H])([H])C([H])([H])[N+]3([H])[H])c([H])c([H])c2C1([H])[H]

>  <smiles>  (49) 
[H]c1c([H])c([H])c2c(c1[H])C([H])([H])C([H])([H])C([H])([H])C2([H])N([H])C(=O)C1([H])N(C(=O)C([H])(N([H])C(=O)C([H])(N([H])C([H])([H])[H])C([H])([H])[H])C(C([H])([H])[H])(C([H])([H])[H])C([H])([H])[H])C([H])([H])c2c([H])c(OC([H])([H])C([H])([H])C([H])([H])N([H])C(=O)C3([H])C([H])([H])C([H])(N([H])C(=O)N4C([H])([H])C([H])([H])C([H])([H])C([H])(n5nc(-c6c([H])c([H])c(Oc7c([H])c([H])c(F)c([H])c7F)c([H])c6[H])c(C(=O)N([H])[H])c5N([H])[H])C4([H])[H])C([H])([H])C([H])([H])[N+]3([H])[H])c([H])c([H])c2C1([H])[H]

$$$$
49:0:0
     RDKit          3D

 93101  0  0  1  0  0  0  0  0999 V2000
  -29.6730  -21.7660   20.8190 C   0  0  0  0  0  2  0  0  0  0  0  0
  -31.8150  -18.7040   21.6870 C   0  0  0  0  0  2  0  0  0  0  0  0
  -29.4700  -17.9390   21.1820 C   0  0  0  0  0  2  0  0  0  0  0  0
  -31.4670  -20.0770   21.0840 C   0  0  0  0  0  2  0  0  0  0  0  0
  -29.1820  -19.3400   20.6020 C   0  0  0  0  0  2  0  0  0  0  0  0
  -30.9640  -17.5640   21.0970 C   0  0  0  0  0  3  0  0  0  0  0  0
  -30.0230  -20.3840   21.2430 N   0  0  2  0  0  4  0  0  0  0  0  0
  -29.8440  -20.3430   22.2340 H   0  0  0  0  0  0  0  0  0  0  0  0
  -31.2890  -16.2270   21.8070 C   0  0  0  0  0  2  0  0  0  0  0  0
  -30.8030  -14.3720   20.2310 C   0  0  0  0  0  0  0  0  0  0  0  0
  -30.3040  -12.3530   18.9110 C   0  0  0  0  0  2  0  0  0  0  0  0
  -29.3110  -12.6550   17.7760 C   0  0  0  0  0  2  0  0  0  0  0  0
  -27.8630  -12.5130   18.2780 C   0  0  0  0  0  2  0  0  0  0  0  0
  -27.6130  -13.3040   19.5870 C   0  0  0  0  0  3  0  0  0  0  0  0
  -28.7120  -13.0110   20.6330 C   0  0  0  0  0  2  0  0  0  0  0  0
  -30.0300  -13.2750   20.0220 N   0  0  0  0  0  0  0  0  0  0  0  0
  -31.7670  -14.6670   19.5190 O   0  0  0  0  0  0  0  0  0  0  0  0
  -30.5020  -15.0990   21.3130 N   0  0  0  0  0  0  0  0  0  0  0  0
  -29.7320  -14.7750   21.8830 H   0  0  0  0  0  0  0  0  0  0  0  0
  -25.2500  -13.9280   20.4020 C   0  0  0  0  0  0  0  0  0  0  0  0
  -24.1890  -13.1620   20.8090 C   0  0  0  0  0  0  0  0  0  0  0  0
  -24.6350  -11.8050   20.7460 C   0  0  0  0  0  0  0  0  0  0  0  0
  -26.2760  -13.0390   20.1200 N   0  0  0  0  0  0  0  0  0  0  0  0
  -25.9110  -11.7570   20.3820 N   0  0  0  0  0  0  0  0  0  0  0  0
  -23.9060  -10.5480   20.9550 C   0  0  0  0  0  0  0  0  0  0  0  0
  -24.3570   -9.5780   21.8780 C   0  0  0  0  0  3  0  0  0  0  0  0
  -23.6280   -8.3860   22.0760 C   0  0  0  0  0  3  0  0  0  0  0  0
  -22.4350   -8.1540   21.3510 C   0  0  0  0  0  0  0  0  0  0  0  0
  -22.0030   -9.1120   20.4170 C   0  0  0  0  0  3  0  0  0  0  0  0
  -22.7320  -10.2960   20.2170 C   0  0  0  0  0  3  0  0  0  0  0  0
  -21.6760   -7.0130   21.4570 O   0  0  0  0  0  0  0  0  0  0  0  0
  -21.6380   -6.2810   22.6160 C   0  0  0  0  0  0  0  0  0  0  0  0
  -21.2390   -6.8490   23.8450 C   0  0  0  0  0  3  0  0  0  0  0  0
  -21.1470   -6.0440   24.9970 C   0  0  0  0  0  3  0  0  0  0  0  0
  -21.4450   -4.6690   24.9210 C   0  0  0  0  0  0  0  0  0  0  0  0
  -21.8370   -4.1000   23.6960 C   0  0  0  0  0  3  0  0  0  0  0  0
  -21.9300   -4.9040   22.5470 C   0  0  0  0  0  0  0  0  0  0  0  0
  -22.2890   -4.3460   21.3650 F   0  0  0  0  0  0  0  0  0  0  0  0
  -21.3490   -3.8920   26.0250 F   0  0  0  0  0  0  0  0  0  0  0  0
  -22.8100  -13.6490   21.1490 C   0  0  0  0  0  0  0  0  0  0  0  0
  -22.1150  -12.9480   22.0370 N   0  0  0  0  0  0  0  0  0  0  0  0
  -22.3600  -14.6860   20.6620 O   0  0  0  0  0  0  0  0  0  0  0  0
  -22.4910  -12.1090   22.4500 H   0  0  0  0  0  0  0  0  0  0  0  0
  -21.1900  -13.2540   22.3050 H   0  0  0  0  0  0  0  0  0  0  0  0
  -25.4190  -15.2970   20.2300 N   0  0  0  0  0  0  0  0  0  0  0  0
  -24.6660  -15.9610   20.3780 H   0  0  0  0  0  0  0  0  0  0  0  0
  -26.2660  -15.7300   19.8810 H   0  0  0  0  0  0  0  0  0  0  0  0
  -28.5270  -22.3660   21.6620 C   0  0  0  0  0  2  0  0  0  0  0  0
  -28.1520  -23.8170   21.2950 C   0  0  0  0  0  3  0  0  0  0  0  0
  -27.6750  -23.8400   20.0500 F   0  0  0  0  0  0  0  0  0  0  0  0
  -29.3060  -24.8320   21.4370 C   0  0  0  0  0  2  0  0  0  0  0  0
  -28.8510  -26.3020   21.4520 C   0  0  0  0  0  2  0  0  0  0  0  0
  -28.3660  -26.6760   20.1680 O   0  0  0  0  0  0  0  0  0  0  0  0
  -24.5460  -31.8590   23.2280 C   0  0  0  0  0  0  0  0  0  0  0  0
  -27.2200  -27.4280   20.1920 C   0  0  0  0  0  0  0  0  0  0  0  0
  -23.3560  -30.4490   21.5790 C   0  0  0  0  0  3  0  0  0  0  0  0
  -24.8240  -28.9090   20.1760 C   0  0  0  0  0  0  0  0  0  0  0  0
  -25.8780  -30.8160   21.4030 C   0  0  0  0  0  2  0  0  0  0  0  0
  -25.9710  -29.4400   20.7800 C   0  0  0  0  0  0  0  0  0  0  0  0
  -27.1740  -28.7030   20.7960 C   0  0  0  0  0  3  0  0  0  0  0  0
  -26.0680  -26.9070   19.5770 C   0  0  0  0  0  3  0  0  0  0  0  0
  -24.8640  -27.6380   19.5750 C   0  0  0  0  0  3  0  0  0  0  0  0
  -23.5800  -29.7660   20.2040 C   0  0  0  0  0  2  0  0  0  0  0  0
  -24.6110  -31.0560   22.1290 N   0  0  0  0  0  0  0  0  0  0  0  0
  -23.4600  -32.1310   23.7580 O   0  0  0  0  0  0  0  0  0  0  0  0
  -22.6950  -29.4300   22.5360 C   0  0  0  0  0  0  0  0  0  0  0  0
  -21.3730  -29.2480   22.3980 N   0  0  0  0  0  0  0  0  0  0  0  0
  -23.3700  -28.8050   23.3580 O   0  0  0  0  0  0  0  0  0  0  0  0
  -20.8890  -29.8000   21.7030 H   0  0  0  0  0  0  0  0  0  0  0  0
  -17.9880  -28.0820   22.8770 C   0  0  0  0  0  0  0  0  0  0  0  0
  -20.5460  -28.3160   23.1650 C   0  0  0  0  0  3  0  0  0  0  0  0
  -20.6420  -26.8860   22.5890 C   0  0  0  0  0  2  0  0  0  0  0  0
  -19.5440  -26.5750   21.5690 C   0  0  0  0  0  2  0  0  0  0  0  0
  -18.1580  -26.7330   22.2010 C   0  0  0  0  0  2  0  0  0  0  0  0
  -19.1110  -28.8320   23.3160 C   0  0  0  0  0  0  0  0  0  0  0  0
  -18.8980  -30.0980   23.9070 C   0  0  0  0  0  3  0  0  0  0  0  0
  -17.5970  -30.6100   24.0650 C   0  0  0  0  0  3  0  0  0  0  0  0
  -16.4880  -29.8530   23.6470 C   0  0  0  0  0  3  0  0  0  0  0  0
  -16.6860  -28.5920   23.0560 C   0  0  0  0  0  3  0  0  0  0  0  0
  -25.8270  -32.4910   23.8580 C   0  0  0  0  0  3  0  0  0  0  0  0
  -25.5190  -33.8900   24.1820 N   0  0  0  0  0  0  0  0  0  0  0  0
  -25.8580  -34.9400   23.4200 C   0  0  0  0  0  0  0  0  0  0  0  0
  -26.5390  -34.8320   22.3980 O   0  0  0  0  0  0  0  0  0  0  0  0
  -24.9190  -34.0490   24.9780 H   0  0  0  0  0  0  0  0  0  0  0  0
  -24.1350  -36.7310   23.0310 C   0  0  0  0  0  1  0  0  0  0  0  0
  -25.3630  -36.3290   23.8650 C   0  0  0  0  0  3  0  0  0  0  0  0
  -27.4880  -37.2080   24.7280 C   0  0  0  0  0  1  0  0  0  0  0  0
  -26.3970  -37.3830   23.7700 N   0  0  0  0  0  0  0  0  0  0  0  0
  -25.9900  -38.3020   23.9210 H   0  0  0  0  0  0  0  0  0  0  0  0
  -26.3360  -31.7180   25.1360 C   0  0  1  0  0  0  0  0  0  0  0  0
  -25.2330  -31.4770   26.1930 C   0  0  0  0  0  1  0  0  0  0  0  0
  -26.9170  -30.3390   24.7440 C   0  0  0  0  0  1  0  0  0  0  0  0
  -27.4850  -32.5090   25.8040 C   0  0  0  0  0  1  0  0  0  0  0  0
  1  7  1  0
  1 48  1  0
  4  7  1  0
  4  2  1  0
  5  3  1  0
  5  7  1  0
  6  3  1  0
  6  2  1  0
  6  9  1  0
  7  8  1  1
 10 18  1  0
 11 16  1  0
 12 13  1  0
 12 11  1  0
 14 13  1  0
 14 23  1  0
 14 15  1  0
 16 10  1  0
 16 15  1  0
 17 10  2  0
 18  9  1  0
 18 19  1  0
 20 21  2  0
 21 40  1  0
 22 21  1  0
 22 25  1  0
 23 24  1  0
 23 20  1  0
 24 22  2  0
 25 26  1  0
 26 27  2  0
 28 31  1  0
 28 27  1  0
 29 28  2  0
 30 29  1  0
 30 25  2  0
 31 32  1  0
 32 33  1  0
 33 34  2  0
 35 34  1  0
 35 39  1  0
 36 35  2  0
 37 32  2  0
 37 36  1  0
 38 37  1  0
 40 41  1  0
 41 44  1  0
 41 43  1  0
 42 40  2  0
 45 46  1  0
 45 20  1  0
 47 45  1  0
 49 50  1  0
 49 51  1  0
 49 48  1  0
 51 52  1  0
 53 55  1  0
 53 52  1  0
 54 65  2  0
 55 60  1  0
 56 64  1  0
 56 66  1  0
 57 63  1  0
 57 59  1  0
 58 64  1  0
 59 60  2  0
 59 58  1  0
 61 55  2  0
 62 61  1  0
 62 57  2  0
 63 56  1  0
 64 54  1  0
 66 68  2  0
 67 66  1  0
 69 67  1  0
 70 79  2  0
 70 75  1  0
 71 67  1  0
 71 75  1  0
 72 71  1  0
 73 74  1  0
 73 72  1  0
 74 70  1  0
 75 76  2  0
 76 77  1  0
 78 77  2  0
 79 78  1  0
 80 54  1  0
 80 81  1  0
 80 90  1  0
 81 84  1  0
 82 86  1  0
 82 81  1  0
 83 82  2  0
 86 85  1  0
 88 86  1  0
 88 89  1  0
 88 87  1  0
 90 93  1  1
 90 91  1  0
 92 90  1  0
M  ISO  4  10 100  18 100  52 101  53 101
M  END
>  <TORSDO>  (50) 
F 22

>  <SCORE>  (50) 
-13.242

>  <name>  (50) 
49

>  <ligand_id>  (50) 
49

>  <original_smiles>  (50) 
[H]c1c([H])c([H])c2c(c1[H])C([H])([H])C([H])([H])C([H])([H])C2([H])N([H])C(=O)C1([H])N(C(=O)C([H])(N([H])C(=O)C([H])(N([H])C([H])([H])[H])C([H])([H])[H])C(C([H])([H])[H])(C([H])([H])[H])C([H])([H])[H])C([H])([H])c2c([H])c(OC([H])([H])C([H])([H])C([H])(F)C([H])([H])C([H])([H])[N+]3([H])C([H])([H])C([H])([H])C([H])(C([H])([H])N([H])C(=O)N4C([H])([H])C([H])([H])C([H])([H])C([H])(n5nc(-c6c([H])c([H])c(Oc7c([H])c([H])c(F)c([H])c7F)c([H])c6[H])c(C(=O)N([H])[H])c5N([H])[H])C4([H])[H])C([H])([H])C3([H])[H])c([H])c([H])c2C1([H])[H]

>  <smiles>  (50) 
[H]c1c([H])c([H])c2c(c1[H])C([H])([H])C([H])([H])C([H])([H])C2([H])N([H])C(=O)C1([H])N(C(=O)C([H])(N([H])C(=O)C([H])(N([H])C([H])([H])[H])C([H])([H])[H])C(C([H])([H])[H])(C([H])([H])[H])C([H])([H])[H])C([H])([H])c2c([H])c(OC([H])([H])C([H])([H])C([H])(F)C([H])([H])C([H])([H])[N+]3([H])C([H])([H])C([H])([H])C([H])(C([H])([H])N([H])C(=O)N4C([H])([H])C([H])([H])C([H])([H])C([H])(n5nc(-c6c([H])c([H])c(Oc7c([H])c([H])c(F)c([H])c7F)c([H])c6[H])c(C(=O)N([H])[H])c5N([H])[H])C4([H])[H])C([H])([H])C3([H])[H])c([H])c([H])c2C1([H])[H]

$$$$
50:0:0
     RDKit          3D

 94102  0  0  1  0  0  0  0  0999 V2000
  -29.0460  -20.4040   19.7310 C   0  0  0  0  0  2  0  0  0  0  0  0
  -27.3760  -21.8230   18.4470 C   0  0  0  0  0  1  0  0  0  0  0  0
  -28.0420  -21.5960   19.8220 C   0  0  0  0  0  3  0  0  0  0  0  0
  -28.6710  -22.9040   20.3710 C   0  0  0  0  0  0  0  0  0  0  0  0
  -29.7060  -22.8620   21.0430 O   0  0  0  0  0  0  0  0  0  0  0  0
  -27.9700  -24.2460   20.0580 C   0  0  0  0  0  2  0  0  0  0  0  0
  -28.4130  -25.4720   20.8970 C   0  0  0  0  0  2  0  0  0  0  0  0
  -28.3980  -26.7130   20.1720 O   0  0  0  0  0  0  0  0  0  0  0  0
  -24.5790  -31.8860   23.2390 C   0  0  0  0  0  0  0  0  0  0  0  0
  -27.2230  -27.4300   20.1930 C   0  0  0  0  0  0  0  0  0  0  0  0
  -23.3760  -30.4830   21.5920 C   0  0  0  0  0  3  0  0  0  0  0  0
  -24.8340  -28.9370   20.1800 C   0  0  0  0  0  0  0  0  0  0  0  0
  -25.9030  -30.8390   21.4020 C   0  0  0  0  0  2  0  0  0  0  0  0
  -25.9890  -29.4650   20.7730 C   0  0  0  0  0  0  0  0  0  0  0  0
  -27.1880  -28.7170   20.7730 C   0  0  0  0  0  3  0  0  0  0  0  0
  -26.0550  -26.9130   19.5940 C   0  0  0  0  0  3  0  0  0  0  0  0
  -24.8630  -27.6620   19.5880 C   0  0  0  0  0  3  0  0  0  0  0  0
  -23.5910  -29.7990   20.2150 C   0  0  0  0  0  2  0  0  0  0  0  0
  -24.6380  -31.0860   22.1360 N   0  0  0  0  0  0  0  0  0  0  0  0
  -23.4970  -32.1600   23.7740 O   0  0  0  0  0  0  0  0  0  0  0  0
  -22.7210  -29.4660   22.5520 C   0  0  0  0  0  0  0  0  0  0  0  0
  -21.3970  -29.2790   22.4130 N   0  0  0  0  0  0  0  0  0  0  0  0
  -23.3980  -28.8450   23.3760 O   0  0  0  0  0  0  0  0  0  0  0  0
  -20.9160  -29.8290   21.7160 H   0  0  0  0  0  0  0  0  0  0  0  0
  -18.0240  -28.0670   22.8610 C   0  0  0  0  0  0  0  0  0  0  0  0
  -20.5740  -28.3430   23.1790 C   0  0  0  0  0  3  0  0  0  0  0  0
  -20.6990  -26.9090   22.6180 C   0  0  0  0  0  2  0  0  0  0  0  0
  -19.6160  -26.5680   21.5880 C   0  0  0  0  0  2  0  0  0  0  0  0
  -18.2220  -26.7110   22.2050 C   0  0  0  0  0  2  0  0  0  0  0  0
  -19.1300  -28.8400   23.3040 C   0  0  0  0  0  0  0  0  0  0  0  0
  -18.8930  -30.1080   23.8770 C   0  0  0  0  0  3  0  0  0  0  0  0
  -17.5820  -30.6030   24.0130 C   0  0  0  0  0  3  0  0  0  0  0  0
  -16.4910  -29.8260   23.5900 C   0  0  0  0  0  3  0  0  0  0  0  0
  -16.7120  -28.5600   23.0180 C   0  0  0  0  0  3  0  0  0  0  0  0
  -25.8650  -32.5130   23.8630 C   0  0  0  0  0  3  0  0  0  0  0  0
  -25.5580  -33.9110   24.1930 N   0  0  0  0  0  0  0  0  0  0  0  0
  -25.8920  -34.9620   23.4330 C   0  0  0  0  0  0  0  0  0  0  0  0
  -26.5650  -34.8590   22.4040 O   0  0  0  0  0  0  0  0  0  0  0  0
  -24.9610  -34.0660   24.9920 H   0  0  0  0  0  0  0  0  0  0  0  0
  -24.1630  -36.7550   23.0760 C   0  0  0  0  0  1  0  0  0  0  0  0
  -25.4050  -36.3500   23.8890 C   0  0  0  0  0  3  0  0  0  0  0  0
  -27.5370  -37.2360   24.7210 C   0  0  0  0  0  1  0  0  0  0  0  0
  -26.4360  -37.4050   23.7770 N   0  0  0  0  0  0  0  0  0  0  0  0
  -26.0290  -38.3240   23.9270 H   0  0  0  0  0  0  0  0  0  0  0  0
  -26.3790  -31.7380   25.1370 C   0  0  1  0  0  0  0  0  0  0  0  0
  -25.2840  -31.4980   26.2030 C   0  0  0  0  0  1  0  0  0  0  0  0
  -26.9590  -30.3600   24.7370 C   0  0  0  0  0  1  0  0  0  0  0  0
  -27.5320  -32.5260   25.8010 C   0  0  0  0  0  1  0  0  0  0  0  0
  -29.2890  -19.6180   21.0480 C   0  0  0  0  0  2  0  0  0  0  0  0
  -32.2970  -19.1910   22.3470 C   0  0  0  0  0  2  0  0  0  0  0  0
  -31.2420  -18.4360   23.1620 C   0  0  0  0  0  2  0  0  0  0  0  0
  -31.7320  -19.2480   20.9160 C   0  0  0  0  0  2  0  0  0  0  0  0
  -30.4360  -17.6610   22.1080 C   0  0  0  0  0  3  0  0  0  0  0  0
  -30.3920  -18.6060   20.9560 N   0  0  1  0  0  4  0  0  0  0  0  0
  -30.2450  -18.0720   20.1120 H   0  0  0  0  0  0  0  0  0  0  0  0
  -31.1740  -16.3240   21.7830 C   0  0  0  0  0  2  0  0  0  0  0  0
  -30.8420  -14.4210   20.2080 C   0  0  0  0  0  0  0  0  0  0  0  0
  -30.4020  -12.3480   18.9380 C   0  0  0  0  0  2  0  0  0  0  0  0
  -29.4050  -12.6040   17.7900 C   0  0  0  0  0  2  0  0  0  0  0  0
  -27.9520  -12.4840   18.2890 C   0  0  0  0  0  2  0  0  0  0  0  0
  -27.6980  -13.2980   19.5850 C   0  0  0  0  0  3  0  0  0  0  0  0
  -28.7930  -13.0090   20.6340 C   0  0  0  0  0  2  0  0  0  0  0  0
  -30.1000  -13.2970   20.0200 N   0  0  0  0  0  0  0  0  0  0  0  0
  -31.8870  -14.6490   19.5920 O   0  0  0  0  0  0  0  0  0  0  0  0
  -30.3710  -15.2840   21.1240 N   0  0  0  0  0  0  0  0  0  0  0  0
  -29.4960  -15.0270   21.5600 H   0  0  0  0  0  0  0  0  0  0  0  0
  -25.3420  -13.9490   20.3930 C   0  0  0  0  0  0  0  0  0  0  0  0
  -24.2770  -13.1950   20.8070 C   0  0  0  0  0  0  0  0  0  0  0  0
  -24.7110  -11.8350   20.7550 C   0  0  0  0  0  0  0  0  0  0  0  0
  -26.3600  -13.0490   20.1180 N   0  0  0  0  0  0  0  0  0  0  0  0
  -25.9860  -11.7720   20.3920 N   0  0  0  0  0  0  0  0  0  0  0  0
  -23.9710  -10.5870   20.9750 C   0  0  0  0  0  0  0  0  0  0  0  0
  -24.4280   -9.6080   21.8860 C   0  0  0  0  0  3  0  0  0  0  0  0
  -23.6890   -8.4230   22.0920 C   0  0  0  0  0  3  0  0  0  0  0  0
  -22.4810   -8.2080   21.3890 C   0  0  0  0  0  0  0  0  0  0  0  0
  -22.0420   -9.1750   20.4680 C   0  0  0  0  0  3  0  0  0  0  0  0
  -22.7800  -10.3520   20.2580 C   0  0  0  0  0  3  0  0  0  0  0  0
  -21.7110   -7.0770   21.5070 O   0  0  0  0  0  0  0  0  0  0  0  0
  -21.6960   -6.3310   22.6590 C   0  0  0  0  0  0  0  0  0  0  0  0
  -21.3410   -6.8940   23.9050 C   0  0  0  0  0  3  0  0  0  0  0  0
  -21.2730   -6.0780   25.0510 C   0  0  0  0  0  3  0  0  0  0  0  0
  -21.5480   -4.7000   24.9540 C   0  0  0  0  0  0  0  0  0  0  0  0
  -21.8960   -4.1380   23.7130 C   0  0  0  0  0  3  0  0  0  0  0  0
  -21.9660   -4.9520   22.5690 C   0  0  0  0  0  0  0  0  0  0  0  0
  -22.2820   -4.4000   21.3710 F   0  0  0  0  0  0  0  0  0  0  0  0
  -21.4740   -3.9140   26.0520 F   0  0  0  0  0  0  0  0  0  0  0  0
  -22.9020  -13.6980   21.1420 C   0  0  0  0  0  0  0  0  0  0  0  0
  -22.2020  -13.0150   22.0410 N   0  0  0  0  0  0  0  0  0  0  0  0
  -22.4600  -14.7310   20.6410 O   0  0  0  0  0  0  0  0  0  0  0  0
  -22.5730  -12.1800   22.4680 H   0  0  0  0  0  0  0  0  0  0  0  0
  -21.2800  -13.3340   22.3080 H   0  0  0  0  0  0  0  0  0  0  0  0
  -25.5250  -15.3160   20.2110 N   0  0  0  0  0  0  0  0  0  0  0  0
  -24.7730  -15.9850   20.3460 H   0  0  0  0  0  0  0  0  0  0  0  0
  -26.3650  -15.7370   19.8340 H   0  0  0  0  0  0  0  0  0  0  0  0
  1  3  1  0
  1 49  1  0
  3  2  1  0
  3  4  1  0
  4  5  2  0
  6  4  1  0
  6  7  1  0
  8 10  1  0
  8  7  1  0
  9 20  2  0
 10 15  1  0
 11 19  1  0
 11 21  1  0
 12 18  1  0
 12 14  1  0
 13 19  1  0
 14 15  2  0
 14 13  1  0
 16 10  2  0
 17 16  1  0
 17 12  2  0
 18 11  1  0
 19  9  1  0
 21 23  2  0
 22 21  1  0
 24 22  1  0
 25 34  2  0
 25 30  1  0
 26 22  1  0
 26 30  1  0
 27 26  1  0
 28 29  1  0
 28 27  1  0
 29 25  1  0
 30 31  2  0
 31 32  1  0
 33 32  2  0
 34 33  1  0
 35  9  1  0
 35 36  1  0
 35 45  1  0
 36 39  1  0
 37 41  1  0
 37 36  1  0
 38 37  2  0
 41 40  1  0
 43 41  1  0
 43 44  1  0
 43 42  1  0
 45 48  1  1
 45 46  1  0
 47 45  1  0
 50 51  1  0
 52 54  1  0
 52 50  1  0
 53 56  1  0
 53 51  1  0
 54 49  1  0
 54 53  1  0
 54 55  1  6
 57 65  1  0
 58 63  1  0
 59 60  1  0
 59 58  1  0
 61 60  1  0
 61 70  1  0
 61 62  1  0
 63 57  1  0
 63 62  1  0
 64 57  2  0
 65 66  1  0
 65 56  1  0
 67 68  2  0
 68 87  1  0
 69 68  1  0
 69 72  1  0
 70 71  1  0
 70 67  1  0
 71 69  2  0
 72 73  1  0
 73 74  2  0
 75 78  1  0
 75 74  1  0
 76 75  2  0
 77 76  1  0
 77 72  2  0
 78 79  1  0
 79 80  1  0
 80 81  2  0
 82 81  1  0
 82 86  1  0
 83 82  2  0
 84 79  2  0
 84 83  1  0
 85 84  1  0
 87 88  1  0
 88 91  1  0
 88 90  1  0
 89 87  2  0
 92 93  1  0
 92 67  1  0
 94 92  1  0
M  ISO  4   7 101   8 101  57 100  65 100
M  END
>  <TORSDO>  (51) 
F 23

>  <SCORE>  (51) 
-12.316

>  <name>  (51) 
50

>  <ligand_id>  (51) 
50

>  <original_smiles>  (51) 
[H]c1c([H])c([H])c2c(c1[H])C([H])([H])C([H])([H])C([H])([H])C2([H])N([H])C(=O)C1([H])N(C(=O)C([H])(N([H])C(=O)C([H])(N([H])C([H])([H])[H])C([H])([H])[H])C(C([H])([H])[H])(C([H])([H])[H])C([H])([H])[H])C([H])([H])c2c([H])c(OC([H])([H])C([H])([H])C(=O)C([H])(C([H])([H])[H])C([H])([H])C([H])([H])[N+]3([H])C([H])([H])C([H])([H])C([H])([H])C3([H])C([H])([H])N([H])C(=O)N3C([H])([H])C([H])([H])C([H])([H])C([H])(n4nc(-c5c([H])c([H])c(Oc6c([H])c([H])c(F)c([H])c6F)c([H])c5[H])c(C(=O)N([H])[H])c4N([H])[H])C3([H])[H])c([H])c([H])c2C1([H])[H]

>  <smiles>  (51) 
[H]c1c([H])c([H])c2c(c1[H])C([H])([H])C([H])([H])C([H])([H])C2([H])N([H])C(=O)C1([H])N(C(=O)C([H])(N([H])C(=O)C([H])(N([H])C([H])([H])[H])C([H])([H])[H])C(C([H])([H])[H])(C([H])([H])[H])C([H])([H])[H])C([H])([H])c2c([H])c(OC([H])([H])C([H])([H])C(=O)C([H])(C([H])([H])[H])C([H])([H])C([H])([H])[N+]3([H])C([H])([H])C([H])([H])C([H])([H])C3([H])C([H])([H])N([H])C(=O)N3C([H])([H])C([H])([H])C([H])([H])C([H])(n4nc(-c5c([H])c([H])c(Oc6c([H])c([H])c(F)c([H])c6F)c([H])c5[H])c(C(=O)N([H])[H])c4N([H])[H])C3([H])[H])c([H])c([H])c2C1([H])[H]

$$$$
51:0:0
     RDKit          3D

 94102  0  0  1  0  0  0  0  0999 V2000
  -30.3270  -19.1770   18.5610 C   0  0  0  0  0  2  0  0  0  0  0  0
  -31.0000  -17.9680   19.2300 C   0  0  0  0  0  2  0  0  0  0  0  0
  -29.1160  -18.0300   20.9430 C   0  0  0  0  0  2  0  0  0  0  0  0
  -30.2330  -20.4390   19.4390 C   0  0  0  0  0  2  0  0  0  0  0  0
  -28.8410  -19.5070   21.3230 C   0  0  0  0  0  2  0  0  0  0  0  0
  -30.6180  -17.7490   20.7070 C   0  0  0  0  0  3  0  0  0  0  0  0
  -28.9690  -20.5260   20.2330 N   0  0  1  0  0  4  0  0  0  0  0  0
  -28.2150  -20.3510   19.5840 H   0  0  0  0  0  0  0  0  0  0  0  0
  -28.7210  -21.8900   20.8000 C   0  0  0  0  0  2  0  0  0  0  0  0
  -28.7020  -23.0630   19.7870 C   0  0  0  0  0  2  0  0  0  0  0  0
  -28.3680  -24.4180   20.4410 C   0  0  0  0  0  2  0  0  0  0  0  0
  -28.7220  -25.6160   19.5380 C   0  0  0  0  0  2  0  0  0  0  0  0
  -28.5230  -26.8510   20.2190 O   0  0  0  0  0  0  0  0  0  0  0  0
  -24.4800  -31.8660   23.1840 C   0  0  0  0  0  0  0  0  0  0  0  0
  -27.2950  -27.4730   20.1940 C   0  0  0  0  0  0  0  0  0  0  0  0
  -23.3390  -30.4180   21.5350 C   0  0  0  0  0  3  0  0  0  0  0  0
  -24.8540  -28.9000   20.1590 C   0  0  0  0  0  0  0  0  0  0  0  0
  -25.8550  -30.8420   21.3750 C   0  0  0  0  0  2  0  0  0  0  0  0
  -25.9850  -29.4650   20.7600 C   0  0  0  0  0  0  0  0  0  0  0  0
  -27.2050  -28.7570   20.7760 C   0  0  0  0  0  3  0  0  0  0  0  0
  -26.1380  -26.9100   19.6050 C   0  0  0  0  0  3  0  0  0  0  0  0
  -24.9240  -27.6220   19.5830 C   0  0  0  0  0  3  0  0  0  0  0  0
  -23.5900  -29.7290   20.1670 C   0  0  0  0  0  2  0  0  0  0  0  0
  -24.5760  -31.0570   22.0920 N   0  0  0  0  0  0  0  0  0  0  0  0
  -23.3830  -32.1170   23.7020 O   0  0  0  0  0  0  0  0  0  0  0  0
  -22.6950  -29.3920   22.4920 C   0  0  0  0  0  0  0  0  0  0  0  0
  -21.3770  -29.1810   22.3450 N   0  0  0  0  0  0  0  0  0  0  0  0
  -23.3780  -28.7850   23.3230 O   0  0  0  0  0  0  0  0  0  0  0  0
  -20.8880  -29.7260   21.6490 H   0  0  0  0  0  0  0  0  0  0  0  0
  -18.0190  -27.9330   22.8040 C   0  0  0  0  0  0  0  0  0  0  0  0
  -20.5670  -28.2330   23.1090 C   0  0  0  0  0  3  0  0  0  0  0  0
  -20.7020  -26.8010   22.5420 C   0  0  0  0  0  2  0  0  0  0  0  0
  -19.6190  -26.4560   21.5130 C   0  0  0  0  0  2  0  0  0  0  0  0
  -18.2260  -26.5830   22.1370 C   0  0  0  0  0  2  0  0  0  0  0  0
  -19.1190  -28.7130   23.2460 C   0  0  0  0  0  0  0  0  0  0  0  0
  -18.8740  -29.9750   23.8300 C   0  0  0  0  0  3  0  0  0  0  0  0
  -17.5590  -30.4590   23.9720 C   0  0  0  0  0  3  0  0  0  0  0  0
  -16.4730  -29.6750   23.5460 C   0  0  0  0  0  3  0  0  0  0  0  0
  -16.7030  -28.4130   22.9700 C   0  0  0  0  0  3  0  0  0  0  0  0
  -25.7390  -32.5350   23.8220 C   0  0  0  0  0  3  0  0  0  0  0  0
  -25.3980  -33.9350   24.1090 N   0  0  0  0  0  0  0  0  0  0  0  0
  -25.7200  -34.9710   23.3230 C   0  0  0  0  0  0  0  0  0  0  0  0
  -26.4070  -34.8520   22.3050 O   0  0  0  0  0  0  0  0  0  0  0  0
  -24.7920  -34.1010   24.8980 H   0  0  0  0  0  0  0  0  0  0  0  0
  -23.9520  -36.7080   22.8990 C   0  0  0  0  0  1  0  0  0  0  0  0
  -25.1960  -36.3610   23.7310 C   0  0  0  0  0  3  0  0  0  0  0  0
  -27.3010  -37.3240   24.5520 C   0  0  0  0  0  1  0  0  0  0  0  0
  -26.2060  -37.4340   23.5930 N   0  0  0  0  0  0  0  0  0  0  0  0
  -25.7760  -38.3490   23.7050 H   0  0  0  0  0  0  0  0  0  0  0  0
  -26.2370  -31.8040   25.1270 C   0  0  1  0  0  0  0  0  0  0  0  0
  -25.1180  -31.5670   26.1690 C   0  0  0  0  0  1  0  0  0  0  0  0
  -26.8590  -30.4310   24.7770 C   0  0  0  0  0  1  0  0  0  0  0  0
  -27.3510  -32.6390   25.8030 C   0  0  0  0  0  1  0  0  0  0  0  0
  -31.1400  -16.3910   21.2570 C   0  0  0  0  0  3  0  0  0  0  0  0
  -30.7220  -14.4010   19.8040 C   0  0  0  0  0  0  0  0  0  0  0  0
  -30.1470  -12.3950   18.4940 C   0  0  0  0  0  2  0  0  0  0  0  0
  -29.0960  -12.7240   17.4190 C   0  0  0  0  0  2  0  0  0  0  0  0
  -27.6740  -12.5950   17.9970 C   0  0  0  0  0  2  0  0  0  0  0  0
  -27.5080  -13.3550   19.3400 C   0  0  0  0  0  3  0  0  0  0  0  0
  -28.6620  -13.0230   20.3130 C   0  0  0  0  0  2  0  0  0  0  0  0
  -29.9380  -13.3060   19.6300 N   0  0  0  0  0  0  0  0  0  0  0  0
  -31.7090  -14.6340   19.1020 O   0  0  0  0  0  0  0  0  0  0  0  0
  -30.3620  -15.2340   20.7940 N   0  0  0  0  0  0  0  0  0  0  0  0
  -29.5370  -14.9890   21.3180 H   0  0  0  0  0  0  0  0  0  0  0  0
  -25.2050  -13.9850   20.3040 C   0  0  0  0  0  0  0  0  0  0  0  0
  -24.1600  -13.2220   20.7500 C   0  0  0  0  0  0  0  0  0  0  0  0
  -24.5810  -11.8630   20.6240 C   0  0  0  0  0  0  0  0  0  0  0  0
  -26.2010  -13.0910   19.9390 N   0  0  0  0  0  0  0  0  0  0  0  0
  -25.8330  -11.8080   20.1860 N   0  0  0  0  0  0  0  0  0  0  0  0
  -23.8460  -10.6100   20.8400 C   0  0  0  0  0  0  0  0  0  0  0  0
  -24.3410   -9.6030   21.7000 C   0  0  0  0  0  3  0  0  0  0  0  0
  -23.6070   -8.4160   21.9070 C   0  0  0  0  0  3  0  0  0  0  0  0
  -22.3660   -8.2250   21.2550 C   0  0  0  0  0  0  0  0  0  0  0  0
  -21.8890   -9.2200   20.3820 C   0  0  0  0  0  3  0  0  0  0  0  0
  -22.6230  -10.4000   20.1740 C   0  0  0  0  0  3  0  0  0  0  0  0
  -21.5970   -7.0930   21.3740 O   0  0  0  0  0  0  0  0  0  0  0  0
  -21.6260   -6.3220   22.5080 C   0  0  0  0  0  0  0  0  0  0  0  0
  -21.3070   -6.8510   23.7790 C   0  0  0  0  0  3  0  0  0  0  0  0
  -21.2790   -6.0060   24.9050 C   0  0  0  0  0  3  0  0  0  0  0  0
  -21.5610   -4.6340   24.7670 C   0  0  0  0  0  0  0  0  0  0  0  0
  -21.8730   -4.1050   23.5010 C   0  0  0  0  0  3  0  0  0  0  0  0
  -21.9030   -4.9460   22.3760 C   0  0  0  0  0  0  0  0  0  0  0  0
  -22.1830   -4.4260   21.1570 F   0  0  0  0  0  0  0  0  0  0  0  0
  -21.5280   -3.8210   25.8480 F   0  0  0  0  0  0  0  0  0  0  0  0
  -22.8090  -13.7180   21.1810 C   0  0  0  0  0  0  0  0  0  0  0  0
  -22.1610  -13.0110   22.1010 N   0  0  0  0  0  0  0  0  0  0  0  0
  -22.3400  -14.7650   20.7360 O   0  0  0  0  0  0  0  0  0  0  0  0
  -22.5550  -12.1630   22.4800 H   0  0  0  0  0  0  0  0  0  0  0  0
  -21.2580  -13.3230   22.4300 H   0  0  0  0  0  0  0  0  0  0  0  0
  -25.3870  -15.3580   20.1600 N   0  0  0  0  0  0  0  0  0  0  0  0
  -24.6540  -16.0270   20.3640 H   0  0  0  0  0  0  0  0  0  0  0  0
  -26.2180  -15.7840   19.7680 H   0  0  0  0  0  0  0  0  0  0  0  0
  -31.9710  -15.1320   23.3400 C   0  0  0  0  0  1  0  0  0  0  0  0
  -31.2570  -16.3780   22.7960 C   0  0  0  0  0  2  0  0  0  0  0  0
  1  2  1  0
  1  4  1  0
  2  6  1  0
  3  5  1  0
  4  7  1  0
  6  3  1  0
  6 54  1  0
  7  9  1  0
  7  5  1  0
  7  8  1  6
 10 11  1  0
 10  9  1  0
 12 13  1  0
 12 11  1  0
 14 25  2  0
 15 13  1  0
 15 20  1  0
 16 24  1  0
 16 26  1  0
 17 23  1  0
 17 19  1  0
 18 24  1  0
 19 20  2  0
 19 18  1  0
 21 15  2  0
 22 21  1  0
 22 17  2  0
 23 16  1  0
 24 14  1  0
 26 28  2  0
 27 26  1  0
 29 27  1  0
 30 39  2  0
 30 35  1  0
 31 27  1  0
 31 35  1  0
 32 31  1  0
 33 34  1  0
 33 32  1  0
 34 30  1  0
 35 36  2  0
 36 37  1  0
 38 37  2  0
 39 38  1  0
 40 14  1  0
 40 41  1  0
 40 50  1  0
 41 44  1  0
 42 46  1  0
 42 41  1  0
 43 42  2  0
 46 45  1  0
 48 49  1  0
 48 46  1  0
 48 47  1  0
 50 53  1  1
 50 51  1  0
 52 50  1  0
 54 94  1  0
 55 63  1  0
 56 61  1  0
 57 58  1  0
 57 56  1  0
 59 58  1  0
 59 68  1  0
 59 60  1  0
 61 55  1  0
 61 60  1  0
 62 55  2  0
 63 54  1  0
 63 64  1  0
 65 66  2  0
 66 85  1  0
 67 66  1  0
 67 70  1  0
 68 69  1  0
 68 65  1  0
 69 67  2  0
 70 71  1  0
 71 72  2  0
 73 76  1  0
 73 72  1  0
 74 73  2  0
 75 74  1  0
 75 70  2  0
 76 77  1  0
 77 78  1  0
 78 79  2  0
 80 79  1  0
 80 84  1  0
 81 80  2  0
 82 77  2  0
 82 81  1  0
 83 82  1  0
 85 86  1  0
 86 89  1  0
 86 88  1  0
 87 85  2  0
 90 65  1  0
 90 91  1  0
 92 90  1  0
 94 93  1  0
M  ISO  4  12 101  13 101  55 100  63 100
M  END
>  <TORSDO>  (52) 
F 22

>  <SCORE>  (52) 
-8.297

>  <name>  (52) 
51

>  <ligand_id>  (52) 
51

>  <original_smiles>  (52) 
[H]c1c([H])c([H])c2c(c1[H])C([H])([H])C([H])([H])C([H])([H])C2([H])N([H])C(=O)C1([H])N(C(=O)C([H])(N([H])C(=O)C([H])(N([H])C([H])([H])[H])C([H])([H])[H])C(C([H])([H])[H])(C([H])([H])[H])C([H])([H])[H])C([H])([H])c2c([H])c(OC([H])([H])C([H])([H])C([H])([H])C([H])([H])[N+]3([H])C([H])([H])C([H])([H])C([H])([H])C([H])(C([H])(N([H])C(=O)N4C([H])([H])C([H])([H])C([H])([H])C([H])(n5nc(-c6c([H])c([H])c(Oc7c([H])c([H])c(F)c([H])c7F)c([H])c6[H])c(C(=O)N([H])[H])c5N([H])[H])C4([H])[H])C([H])([H])C([H])([H])[H])C([H])([H])C3([H])[H])c([H])c([H])c2C1([H])[H]

>  <smiles>  (52) 
[H]c1c([H])c([H])c2c(c1[H])C([H])([H])C([H])([H])C([H])([H])C2([H])N([H])C(=O)C1([H])N(C(=O)C([H])(N([H])C(=O)C([H])(N([H])C([H])([H])[H])C([H])([H])[H])C(C([H])([H])[H])(C([H])([H])[H])C([H])([H])[H])C([H])([H])c2c([H])c(OC([H])([H])C([H])([H])C([H])([H])C([H])([H])[N+]3([H])C([H])([H])C([H])([H])C([H])([H])C([H])(C([H])(N([H])C(=O)N4C([H])([H])C([H])([H])C([H])([H])C([H])(n5nc(-c6c([H])c([H])c(Oc7c([H])c([H])c(F)c([H])c7F)c([H])c6[H])c(C(=O)N([H])[H])c5N([H])[H])C4([H])[H])C([H])([H])C([H])([H])[H])C([H])([H])C3([H])[H])c([H])c([H])c2C1([H])[H]

$$$$
52:0:0
     RDKit          3D

 92100  0  0  1  0  0  0  0  0999 V2000
  -28.6500  -20.7080   21.5120 C   0  0  0  0  0  2  0  0  0  0  0  0
  -29.2390  -19.6970   22.5200 C   0  0  0  0  0  2  0  0  0  0  0  0
  -30.6260  -19.1820   22.1280 C   0  0  0  0  0  0  0  0  0  0  0  0
  -30.6670  -18.0270   21.4560 N   0  0  0  0  0  0  0  0  0  0  0  0
  -31.6370  -19.8160   22.4330 O   0  0  0  0  0  0  0  0  0  0  0  0
  -29.7850  -17.5700   21.2630 H   0  0  0  0  0  0  0  0  0  0  0  0
  -31.9290  -14.6450   19.0560 C   0  0  0  0  0  0  0  0  0  0  0  0
  -31.2770  -12.4670   18.1060 C   0  0  0  0  0  2  0  0  0  0  0  0
  -30.0540  -12.6290   17.1840 C   0  0  0  0  0  2  0  0  0  0  0  0
  -28.7440  -12.5420   17.9900 C   0  0  0  0  0  2  0  0  0  0  0  0
  -28.7550  -13.4500   19.2490 C   0  0  0  0  0  3  0  0  0  0  0  0
  -30.0600  -13.2590   20.0520 C   0  0  0  0  0  2  0  0  0  0  0  0
  -31.1980  -13.5020   19.1470 N   0  0  0  0  0  0  0  0  0  0  0  0
  -32.8070  -14.8150   18.2040 O   0  0  0  0  0  0  0  0  0  0  0  0
  -31.9490  -15.9060   21.1930 C   0  0  0  0  0  2  0  0  0  0  0  0
  -31.7140  -17.0800   19.4360 C   0  0  0  0  0  2  0  0  0  0  0  0
  -31.8660  -17.4000   20.9110 C   0  0  0  0  0  3  0  0  0  0  0  0
  -31.5040  -15.6740   19.8110 N   0  0  0  0  0  0  0  0  0  0  0  0
  -26.9480  -14.0750   20.9740 C   0  0  0  0  0  0  0  0  0  0  0  0
  -25.8450  -13.4030   21.4290 C   0  0  0  0  0  0  0  0  0  0  0  0
  -25.8480  -12.1410   20.7620 C   0  0  0  0  0  0  0  0  0  0  0  0
  -27.5710  -13.2210   20.0770 N   0  0  0  0  0  0  0  0  0  0  0  0
  -26.9250  -12.0310   19.9940 N   0  0  0  0  0  0  0  0  0  0  0  0
  -24.8600  -11.0560   20.7650 C   0  0  0  0  0  0  0  0  0  0  0  0
  -25.1390   -9.8080   21.3640 C   0  0  0  0  0  3  0  0  0  0  0  0
  -24.1660   -8.7840   21.3700 C   0  0  0  0  0  3  0  0  0  0  0  0
  -22.9010   -9.0030   20.7780 C   0  0  0  0  0  0  0  0  0  0  0  0
  -22.6370  -10.2400   20.1630 C   0  0  0  0  0  3  0  0  0  0  0  0
  -23.6060  -11.2560   20.1530 C   0  0  0  0  0  3  0  0  0  0  0  0
  -21.9030   -8.0600   20.7150 O   0  0  0  0  0  0  0  0  0  0  0  0
  -21.6230   -7.2370   21.7770 C   0  0  0  0  0  0  0  0  0  0  0  0
  -21.2610   -7.7520   23.0430 C   0  0  0  0  0  3  0  0  0  0  0  0
  -20.9120   -6.8710   24.0860 C   0  0  0  0  0  3  0  0  0  0  0  0
  -20.9160   -5.4800   23.8660 C   0  0  0  0  0  0  0  0  0  0  0  0
  -21.2700   -4.9670   22.6070 C   0  0  0  0  0  3  0  0  0  0  0  0
  -21.6190   -5.8440   21.5650 C   0  0  0  0  0  0  0  0  0  0  0  0
  -21.9400   -5.3450   20.3450 F   0  0  0  0  0  0  0  0  0  0  0  0
  -20.5730   -4.6340   24.8660 F   0  0  0  0  0  0  0  0  0  0  0  0
  -24.7930  -13.9370   22.3590 C   0  0  0  0  0  0  0  0  0  0  0  0
  -24.1950  -13.0720   23.1720 N   0  0  0  0  0  0  0  0  0  0  0  0
  -24.5290  -15.1370   22.4030 O   0  0  0  0  0  0  0  0  0  0  0  0
  -24.4250  -12.0910   23.1560 H   0  0  0  0  0  0  0  0  0  0  0  0
  -23.4950  -13.4020   23.8230 H   0  0  0  0  0  0  0  0  0  0  0  0
  -27.4610  -15.3440   21.2310 N   0  0  0  0  0  0  0  0  0  0  0  0
  -26.9880  -16.0070   21.8360 H   0  0  0  0  0  0  0  0  0  0  0  0
  -28.2710  -15.7370   20.7670 H   0  0  0  0  0  0  0  0  0  0  0  0
  -29.4540  -22.0140   21.3820 C   0  0  0  0  0  2  0  0  0  0  0  0
  -28.8030  -23.0380   20.4370 C   0  0  0  0  0  2  0  0  0  0  0  0
  -29.5780  -24.3650   20.4210 C   0  0  0  0  0  2  0  0  0  0  0  0
  -28.8320  -25.5440   19.7700 C   0  0  0  0  0  2  0  0  0  0  0  0
  -28.8230  -25.5330   18.2260 C   0  0  0  0  0  2  0  0  0  0  0  0
  -28.4840  -26.8180   17.7020 O   0  0  0  0  0  0  0  0  0  0  0  0
  -24.7160  -30.3640   22.5500 C   0  0  0  0  0  0  0  0  0  0  0  0
  -27.2490  -27.3130   18.0480 C   0  0  0  0  0  0  0  0  0  0  0  0
  -23.3990  -29.2450   20.7800 C   0  0  0  0  0  3  0  0  0  0  0  0
  -24.7370  -28.3540   18.8010 C   0  0  0  0  0  0  0  0  0  0  0  0
  -25.7880  -30.0360   20.3280 C   0  0  0  0  0  2  0  0  0  0  0  0
  -25.9110  -28.9010   19.3360 C   0  0  0  0  0  0  0  0  0  0  0  0
  -27.1700  -28.3910   18.9530 C   0  0  0  0  0  3  0  0  0  0  0  0
  -26.0600  -26.7710   17.5130 C   0  0  0  0  0  3  0  0  0  0  0  0
  -24.8050  -27.2870   17.8880 C   0  0  0  0  0  3  0  0  0  0  0  0
  -23.4320  -28.9660   19.2530 C   0  0  0  0  0  2  0  0  0  0  0  0
  -24.6610  -29.8840   21.2750 N   0  0  0  0  0  0  0  0  0  0  0  0
  -23.7240  -30.3230   23.2930 O   0  0  0  0  0  0  0  0  0  0  0  0
  -23.0520  -27.9300   21.5130 C   0  0  0  0  0  0  0  0  0  0  0  0
  -21.7900  -27.4900   21.3810 N   0  0  0  0  0  0  0  0  0  0  0  0
  -23.9100  -27.3150   22.1510 O   0  0  0  0  0  0  0  0  0  0  0  0
  -21.1470  -28.0550   20.8440 H   0  0  0  0  0  0  0  0  0  0  0  0
  -18.8400  -25.4110   21.5240 C   0  0  0  0  0  0  0  0  0  0  0  0
  -21.2460  -26.2570   21.9480 C   0  0  0  0  0  3  0  0  0  0  0  0
  -21.7120  -25.0210   21.1440 C   0  0  0  0  0  2  0  0  0  0  0  0
  -20.7290  -24.6120   20.0430 C   0  0  0  0  0  2  0  0  0  0  0  0
  -19.3570  -24.2880   20.6420 C   0  0  0  0  0  2  0  0  0  0  0  0
  -19.7250  -26.3450   22.1240 C   0  0  0  0  0  0  0  0  0  0  0  0
  -19.1890  -27.3920   22.9060 C   0  0  0  0  0  3  0  0  0  0  0  0
  -17.8000  -27.5100   23.0960 C   0  0  0  0  0  3  0  0  0  0  0  0
  -16.9290  -26.5720   22.5130 C   0  0  0  0  0  3  0  0  0  0  0  0
  -17.4490  -25.5250   21.7320 C   0  0  0  0  0  3  0  0  0  0  0  0
  -26.0140  -31.0100   23.1270 C   0  0  0  0  0  3  0  0  0  0  0  0
  -25.6280  -32.2580   23.7990 N   0  0  0  0  0  0  0  0  0  0  0  0
  -25.8640  -33.4850   23.3170 C   0  0  0  0  0  0  0  0  0  0  0  0
  -26.5070  -33.6860   22.2810 O   0  0  0  0  0  0  0  0  0  0  0  0
  -25.0470  -32.1670   24.6190 H   0  0  0  0  0  0  0  0  0  0  0  0
  -24.0660  -35.2400   23.3890 C   0  0  0  0  0  1  0  0  0  0  0  0
  -25.3020  -34.6800   24.1100 C   0  0  0  0  0  3  0  0  0  0  0  0
  -27.3700  -35.3900   25.2290 C   0  0  0  0  0  1  0  0  0  0  0  0
  -26.2870  -35.7620   24.3200 N   0  0  0  0  0  0  0  0  0  0  0  0
  -25.8370  -36.5960   24.6870 H   0  0  0  0  0  0  0  0  0  0  0  0
  -26.7960  -30.0610   24.1170 C   0  0  1  0  0  0  0  0  0  0  0  0
  -25.9090  -29.4690   25.2380 C   0  0  0  0  0  1  0  0  0  0  0  0
  -27.4380  -28.8800   23.3510 C   0  0  0  0  0  1  0  0  0  0  0  0
  -27.9570  -30.8370   24.7810 C   0  0  0  0  0  1  0  0  0  0  0  0
  1  2  1  0
  3  5  2  0
  3  2  1  0
  4  3  1  0
  6  4  1  0
  7 13  1  0
  7 18  1  0
  8 13  1  0
  9 10  1  0
  9  8  1  0
 11 10  1  0
 11 12  1  0
 11 22  1  0
 13 12  1  0
 14  7  2  0
 16 18  1  0
 16 17  1  0
 17 15  1  0
 17  4  1  0
 18 15  1  0
 19 44  1  0
 19 20  2  0
 20 39  1  0
 21 24  1  0
 21 20  1  0
 22 19  1  0
 23 22  1  0
 23 21  2  0
 24 25  1  0
 25 26  2  0
 27 26  1  0
 28 27  2  0
 29 28  1  0
 29 24  2  0
 30 27  1  0
 30 31  1  0
 31 32  1  0
 32 33  2  0
 34 33  1  0
 34 38  1  0
 35 34  2  0
 36 31  2  0
 36 35  1  0
 37 36  1  0
 39 41  2  0
 39 40  1  0
 40 43  1  0
 42 40  1  0
 44 45  1  0
 46 44  1  0
 47  1  1  0
 48 47  1  0
 49 48  1  0
 50 49  1  0
 51 50  1  0
 52 54  1  0
 52 51  1  0
 53 64  2  0
 54 59  1  0
 55 63  1  0
 55 65  1  0
 56 62  1  0
 56 58  1  0
 57 63  1  0
 58 57  1  0
 59 58  2  0
 60 61  1  0
 60 54  2  0
 61 56  2  0
 62 55  1  0
 63 53  1  0
 65 67  2  0
 66 65  1  0
 68 66  1  0
 69 78  2  0
 69 74  1  0
 70 66  1  0
 70 74  1  0
 71 70  1  0
 72 73  1  0
 72 71  1  0
 73 69  1  0
 74 75  2  0
 75 76  1  0
 77 76  2  0
 78 77  1  0
 79 53  1  0
 79 80  1  0
 79 89  1  0
 80 83  1  0
 81 80  1  0
 81 85  1  0
 82 81  2  0
 85 84  1  0
 85 87  1  0
 87 88  1  0
 87 86  1  0
 89 92  1  1
 89 90  1  0
 91 89  1  0
M  ISO  4   7 100  18 100  51 101  52 101
M  END
>  <TORSDO>  (53) 
F 23

>  <SCORE>  (53) 
-2.469

>  <name>  (53) 
52

>  <ligand_id>  (53) 
52

>  <original_smiles>  (53) 
[H]c1c([H])c([H])c2c(c1[H])C([H])([H])C([H])([H])C([H])([H])C2([H])N([H])C(=O)C1([H])N(C(=O)C([H])(N([H])C(=O)C([H])(N([H])C([H])([H])[H])C([H])([H])[H])C(C([H])([H])[H])(C([H])([H])[H])C([H])([H])[H])C([H])([H])c2c([H])c(OC([H])([H])C([H])([H])C([H])([H])C([H])([H])C([H])([H])C([H])([H])C([H])([H])C(=O)N([H])C3([H])C([H])([H])N(C(=O)N4C([H])([H])C([H])([H])C([H])([H])C([H])(n5nc(-c6c([H])c([H])c(Oc7c([H])c([H])c(F)c([H])c7F)c([H])c6[H])c(C(=O)N([H])[H])c5N([H])[H])C4([H])[H])C3([H])[H])c([H])c([H])c2C1([H])[H]

>  <smiles>  (53) 
[H]c1c([H])c([H])c2c(c1[H])C([H])([H])C([H])([H])C([H])([H])C2([H])N([H])C(=O)C1([H])N(C(=O)C([H])(N([H])C(=O)C([H])(N([H])C([H])([H])[H])C([H])([H])[H])C(C([H])([H])[H])(C([H])([H])[H])C([H])([H])[H])C([H])([H])c2c([H])c(OC([H])([H])C([H])([H])C([H])([H])C([H])([H])C([H])([H])C([H])([H])C([H])([H])C(=O)N([H])C3([H])C([H])([H])N(C(=O)N4C([H])([H])C([H])([H])C([H])([H])C([H])(n5nc(-c6c([H])c([H])c(Oc7c([H])c([H])c(F)c([H])c7F)c([H])c6[H])c(C(=O)N([H])[H])c5N([H])[H])C4([H])[H])C3([H])[H])c([H])c([H])c2C1([H])[H]

$$$$
53:0:0
     RDKit          3D

101109  0  0  1  0  0  0  0  0999 V2000
  -30.1310  -17.8420   21.9470 C   0  0  0  0  0  2  0  0  0  0  0  0
  -30.4500  -19.3580   22.0110 C   0  0  0  0  0  2  0  0  0  0  0  0
  -29.2700  -20.2340   22.4860 C   0  0  0  0  0  2  0  0  0  0  0  0
  -29.6060  -21.7380   22.6330 C   0  0  0  0  0  2  0  0  0  0  0  0
  -29.4750  -22.5310   21.3820 N   0  0  0  0  0  4  0  0  0  0  0  0
  -28.5460  -22.3910   21.0120 H   0  0  0  0  0  0  0  0  0  0  0  0
  -30.1370  -22.1930   20.7010 H   0  0  0  0  0  0  0  0  0  0  0  0
  -29.7080  -23.9840   21.5850 C   0  0  0  0  0  2  0  0  0  0  0  0
  -29.2210  -24.8740   20.4160 C   0  0  0  0  0  2  0  0  0  0  0  0
  -29.3360  -26.3820   20.7370 C   0  0  0  0  0  2  0  0  0  0  0  0
  -28.9970  -27.1780   19.6010 O   0  0  0  0  0  0  0  0  0  0  0  0
  -24.6210  -31.6120   23.0540 C   0  0  0  0  0  0  0  0  0  0  0  0
  -27.7620  -27.7730   19.6690 C   0  0  0  0  0  0  0  0  0  0  0  0
  -23.5880  -30.2240   21.2870 C   0  0  0  0  0  3  0  0  0  0  0  0
  -25.2140  -28.9740   19.7660 C   0  0  0  0  0  0  0  0  0  0  0  0
  -26.0540  -30.8750   21.1580 C   0  0  0  0  0  2  0  0  0  0  0  0
  -26.2970  -29.5790   20.4160 C   0  0  0  0  0  0  0  0  0  0  0  0
  -27.5730  -28.9790   20.3750 C   0  0  0  0  0  3  0  0  0  0  0  0
  -26.6720  -27.1750   19.0090 C   0  0  0  0  0  3  0  0  0  0  0  0
  -25.3950  -27.7670   19.0610 C   0  0  0  0  0  3  0  0  0  0  0  0
  -23.8820  -29.6810   19.8620 C   0  0  0  0  0  2  0  0  0  0  0  0
  -24.7720  -30.9130   21.8950 N   0  0  0  0  0  0  0  0  0  0  0  0
  -23.5160  -31.7160   23.6010 O   0  0  0  0  0  0  0  0  0  0  0  0
  -23.0480  -29.0590   22.1500 C   0  0  0  0  0  0  0  0  0  0  0  0
  -21.7490  -28.7610   22.0030 N   0  0  0  0  0  0  0  0  0  0  0  0
  -23.7950  -28.4330   22.9090 O   0  0  0  0  0  0  0  0  0  0  0  0
  -21.1970  -29.3350   21.3790 H   0  0  0  0  0  0  0  0  0  0  0  0
  -18.5150  -27.1970   22.3660 C   0  0  0  0  0  0  0  0  0  0  0  0
  -21.0330  -27.6820   22.6780 C   0  0  0  0  0  3  0  0  0  0  0  0
  -21.2790  -26.3250   21.9770 C   0  0  0  0  0  2  0  0  0  0  0  0
  -20.2140  -25.9880   20.9280 C   0  0  0  0  0  2  0  0  0  0  0  0
  -18.8230  -25.9370   21.5720 C   0  0  0  0  0  2  0  0  0  0  0  0
  -19.5520  -28.0240   22.8700 C   0  0  0  0  0  0  0  0  0  0  0  0
  -19.2100  -29.2030   23.5680 C   0  0  0  0  0  3  0  0  0  0  0  0
  -17.8640  -29.5590   23.7670 C   0  0  0  0  0  3  0  0  0  0  0  0
  -16.8390  -28.7280   23.2790 C   0  0  0  0  0  3  0  0  0  0  0  0
  -17.1660  -27.5470   22.5880 C   0  0  0  0  0  3  0  0  0  0  0  0
  -25.8290  -32.3270   23.7400 C   0  0  0  0  0  3  0  0  0  0  0  0
  -25.3910  -33.6750   24.1160 N   0  0  0  0  0  0  0  0  0  0  0  0
  -25.6630  -34.7860   23.4160 C   0  0  0  0  0  0  0  0  0  0  0  0
  -26.3800  -34.7840   22.4110 O   0  0  0  0  0  0  0  0  0  0  0  0
  -24.7640  -33.7430   24.9040 H   0  0  0  0  0  0  0  0  0  0  0  0
  -23.7970  -36.4300   23.0620 C   0  0  0  0  0  1  0  0  0  0  0  0
  -25.0410  -36.1090   23.9070 C   0  0  0  0  0  3  0  0  0  0  0  0
  -27.0590  -37.1380   24.8510 C   0  0  0  0  0  1  0  0  0  0  0  0
  -25.9790  -37.2510   23.8740 N   0  0  0  0  0  0  0  0  0  0  0  0
  -25.4910  -38.1260   24.0420 H   0  0  0  0  0  0  0  0  0  0  0  0
  -26.3770  -31.5490   24.9990 C   0  0  1  0  0  0  0  0  0  0  0  0
  -25.2800  -31.1810   26.0250 C   0  0  0  0  0  1  0  0  0  0  0  0
  -27.0790  -30.2420   24.5650 C   0  0  0  0  0  1  0  0  0  0  0  0
  -27.4440  -32.4050   25.7220 C   0  0  0  0  0  1  0  0  0  0  0  0
  -31.2640  -16.9710   21.3310 C   0  0  0  0  0  3  0  0  0  0  0  0
  -31.6430  -14.5040   20.9900 C   0  0  0  0  0  0  0  0  0  0  0  0
  -31.3530  -12.3000   19.9220 C   0  0  0  0  0  2  0  0  0  0  0  0
  -30.5460  -12.4800   18.6200 C   0  0  0  0  0  2  0  0  0  0  0  0
  -29.0260  -12.4790   18.8890 C   0  0  0  0  0  2  0  0  0  0  0  0
  -28.6270  -13.4070   20.0660 C   0  0  0  0  0  3  0  0  0  0  0  0
  -29.5370  -13.1600   21.2900 C   0  0  0  0  0  2  0  0  0  0  0  0
  -30.9330  -13.3550   20.8570 N   0  0  0  0  0  0  0  0  0  0  0  0
  -32.8120  -14.6300   20.6120 O   0  0  0  0  0  0  0  0  0  0  0  0
  -30.9140  -15.5490   21.4180 N   0  0  0  0  0  0  0  0  0  0  0  0
  -29.9750  -15.3260   21.7140 H   0  0  0  0  0  0  0  0  0  0  0  0
  -26.2430  -14.2500   20.5440 C   0  0  0  0  0  0  0  0  0  0  0  0
  -25.0750  -13.5860   20.8030 C   0  0  0  0  0  0  0  0  0  0  0  0
  -25.4030  -12.1960   20.8060 C   0  0  0  0  0  0  0  0  0  0  0  0
  -27.2140  -13.2690   20.4060 N   0  0  0  0  0  0  0  0  0  0  0  0
  -26.7050  -12.0280   20.6150 N   0  0  0  0  0  0  0  0  0  0  0  0
  -24.5460  -11.0100   20.9180 C   0  0  0  0  0  0  0  0  0  0  0  0
  -24.8440   -9.9710   21.8260 C   0  0  0  0  0  3  0  0  0  0  0  0
  -24.0010   -8.8450   21.9220 C   0  0  0  0  0  3  0  0  0  0  0  0
  -22.8440   -8.7520   21.1110 C   0  0  0  0  0  0  0  0  0  0  0  0
  -22.5650   -9.7790   20.1940 C   0  0  0  0  0  3  0  0  0  0  0  0
  -23.4080  -10.8970   20.0950 C   0  0  0  0  0  3  0  0  0  0  0  0
  -21.9770   -7.6850   21.1250 O   0  0  0  0  0  0  0  0  0  0  0  0
  -21.8730   -6.8570   22.2140 C   0  0  0  0  0  0  0  0  0  0  0  0
  -21.5350   -7.3480   23.4950 C   0  0  0  0  0  3  0  0  0  0  0  0
  -21.3630   -6.4530   24.5690 C   0  0  0  0  0  3  0  0  0  0  0  0
  -21.5200   -5.0700   24.3680 C   0  0  0  0  0  0  0  0  0  0  0  0
  -21.8510   -4.5780   23.0930 C   0  0  0  0  0  3  0  0  0  0  0  0
  -22.0230   -5.4690   22.0200 C   0  0  0  0  0  0  0  0  0  0  0  0
  -22.3190   -4.9860   20.7900 F   0  0  0  0  0  0  0  0  0  0  0  0
  -21.3480   -4.2110   25.4000 F   0  0  0  0  0  0  0  0  0  0  0  0
  -23.7070  -14.1960   20.9460 C   0  0  0  0  0  0  0  0  0  0  0  0
  -22.8490  -13.5970   21.7650 N   0  0  0  0  0  0  0  0  0  0  0  0
  -23.4140  -15.2420   20.3700 O   0  0  0  0  0  0  0  0  0  0  0  0
  -23.0920  -12.7510   22.2590 H   0  0  0  0  0  0  0  0  0  0  0  0
  -21.9290  -13.9910   21.9050 H   0  0  0  0  0  0  0  0  0  0  0  0
  -26.5580  -15.5990   20.3970 N   0  0  0  0  0  0  0  0  0  0  0  0
  -25.8490  -16.3200   20.4520 H   0  0  0  0  0  0  0  0  0  0  0  0
  -27.4760  -15.9550   20.1680 H   0  0  0  0  0  0  0  0  0  0  0  0
  -31.6020  -17.3590   19.8630 C   0  0  0  0  0  2  0  0  0  0  0  0
  -30.3640  -17.7290   19.0200 C   0  0  0  0  0  2  0  0  0  0  0  0
  -31.3920  -19.9760   16.3190 C   0  0  0  0  0  2  0  0  0  0  0  0
  -31.5930  -19.3710   17.7040 C   0  0  0  0  0  2  0  0  0  0  0  0
  -29.4550  -18.7280   17.0510 C   0  0  0  0  0  2  0  0  0  0  0  0
  -29.8810  -19.8790   16.1180 C   0  0  0  0  0  3  0  0  0  0  0  0
  -30.6830  -18.2270   17.6800 N   0  0  0  0  0  0  0  0  0  0  0  0
  -29.5280  -19.6590   14.7070 N   0  0  0  0  0  4  0  0  0  0  0  0
  -29.9520  -18.8190   14.3560 H   0  0  0  0  0  0  0  0  0  0  0  0
  -29.8420  -20.4370   14.1550 H   0  0  0  0  0  0  0  0  0  0  0  0
  -28.5310  -19.5880   14.6010 H   0  0  0  0  0  0  0  0  0  0  0  0
  1  2  1  0
  2  3  1  0
  3  4  1  0
  5  8  1  0
  5  4  1  0
  6  5  1  0
  7  5  1  0
  9 10  1  0
  9  8  1  0
 11 13  1  0
 11 10  1  0
 12 23  2  0
 13 18  1  0
 14 22  1  0
 14 24  1  0
 15 21  1  0
 15 17  1  0
 16 22  1  0
 17 16  1  0
 18 17  2  0
 19 20  1  0
 19 13  2  0
 20 15  2  0
 21 14  1  0
 22 12  1  0
 24 26  2  0
 25 24  1  0
 27 25  1  0
 28 37  2  0
 28 33  1  0
 29 25  1  0
 29 33  1  0
 30 29  1  0
 31 32  1  0
 31 30  1  0
 32 28  1  0
 33 34  2  0
 34 35  1  0
 36 35  2  0
 37 36  1  0
 38 12  1  0
 38 39  1  0
 38 48  1  0
 39 42  1  0
 40 44  1  0
 40 39  1  0
 41 40  2  0
 44 43  1  0
 46 44  1  0
 46 47  1  0
 46 45  1  0
 48 51  1  1
 48 49  1  0
 50 48  1  0
 52 91  1  0
 52 61  1  0
 52  1  1  0
 53 61  1  0
 54 59  1  0
 55 56  1  0
 55 54  1  0
 57 56  1  0
 57 66  1  0
 57 58  1  0
 59 53  1  0
 59 58  1  0
 60 53  2  0
 61 62  1  0
 63 64  2  0
 64 65  1  0
 64 83  1  0
 65 68  1  0
 66 63  1  0
 66 67  1  0
 67 65  2  0
 68 69  1  0
 69 70  2  0
 71 74  1  0
 71 70  1  0
 72 71  2  0
 73 72  1  0
 73 68  2  0
 74 75  1  0
 75 76  1  0
 76 77  2  0
 78 77  1  0
 78 82  1  0
 79 78  2  0
 80 75  2  0
 80 79  1  0
 81 80  1  0
 83 84  1  0
 84 87  1  0
 84 86  1  0
 85 83  2  0
 88 89  1  0
 88 63  1  0
 90 88  1  0
 92 91  1  0
 93 94  1  0
 95 97  1  0
 96 98  1  0
 96 93  1  0
 96 95  1  0
 97 94  1  0
 97 92  1  0
 99 98  1  0
100 98  1  0
101 98  1  0
M  ISO  4  10 101  11 101  53 100  61 100
M  END
>  <TORSDO>  (54) 
F 28

>  <SCORE>  (54) 
-8.540

>  <name>  (54) 
53

>  <ligand_id>  (54) 
53

>  <original_smiles>  (54) 
[H]c1c([H])c([H])c2c(c1[H])C([H])([H])C([H])([H])C([H])([H])C2([H])N([H])C(=O)C1([H])N(C(=O)C([H])(N([H])C(=O)C([H])(N([H])C([H])([H])[H])C([H])([H])[H])C(C([H])([H])[H])(C([H])([H])[H])C([H])([H])[H])C([H])([H])c2c([H])c(OC([H])([H])C([H])([H])C([H])([H])[N+]([H])([H])C([H])([H])C([H])([H])C([H])([H])C([H])([H])C([H])(N([H])C(=O)N3C([H])([H])C([H])([H])C([H])([H])C([H])(n4nc(-c5c([H])c([H])c(Oc6c([H])c([H])c(F)c([H])c6F)c([H])c5[H])c(C(=O)N([H])[H])c4N([H])[H])C3([H])[H])C([H])([H])C([H])([H])N3C([H])([H])C([H])([H])C([H])([N+]([H])([H])[H])C3([H])[H])c([H])c([H])c2C1([H])[H]

>  <smiles>  (54) 
[H]c1c([H])c([H])c2c(c1[H])C([H])([H])C([H])([H])C([H])([H])C2([H])N([H])C(=O)C1([H])N(C(=O)C([H])(N([H])C(=O)C([H])(N([H])C([H])([H])[H])C([H])([H])[H])C(C([H])([H])[H])(C([H])([H])[H])C([H])([H])[H])C([H])([H])c2c([H])c(OC([H])([H])C([H])([H])C([H])([H])[N+]([H])([H])C([H])([H])C([H])([H])C([H])([H])C([H])([H])C([H])(N([H])C(=O)N3C([H])([H])C([H])([H])C([H])([H])C([H])(n4nc(-c5c([H])c([H])c(Oc6c([H])c([H])c(F)c([H])c6F)c([H])c5[H])c(C(=O)N([H])[H])c4N([H])[H])C3([H])[H])C([H])([H])C([H])([H])N3C([H])([H])C([H])([H])C([H])([N+]([H])([H])[H])C3([H])[H])c([H])c([H])c2C1([H])[H]

$$$$
54:0:0
     RDKit          3D

 95103  0  0  1  0  0  0  0  0999 V2000
  -29.6390  -18.3590   20.7320 C   0  0  0  0  0  2  0  0  0  0  0  0
  -30.1840  -19.6220   22.7500 C   0  0  0  0  0  2  0  0  0  0  0  0
  -29.2820  -19.6670   21.4950 C   0  0  0  0  0  3  0  0  0  0  0  0
  -30.2590  -17.4420   21.8120 C   0  0  0  0  0  3  0  0  0  0  0  0
  -31.0080  -18.4100   22.6330 N   0  0  0  0  0  4  0  0  0  0  0  0
  -31.2250  -18.0430   23.5470 H   0  0  0  0  0  0  0  0  0  0  0  0
  -31.8670  -18.6490   22.1660 H   0  0  0  0  0  0  0  0  0  0  0  0
  -29.4830  -20.9000   20.7090 N   0  0  0  0  0  0  0  0  0  0  0  0
  -30.4720  -21.1310   20.6650 H   0  0  0  0  0  0  0  0  0  0  0  0
  -28.7400  -22.0170   21.3150 C   0  0  0  0  0  2  0  0  0  0  0  0
  -29.1230  -23.4100   20.7550 C   0  0  0  0  0  2  0  0  0  0  0  0
  -28.3860  -24.5530   21.5030 C   0  0  0  0  0  2  0  0  0  0  0  0
  -28.9410  -25.9890   21.3030 C   0  0  0  0  0  2  0  0  0  0  0  0
  -28.5360  -26.5980   20.0750 O   0  0  0  0  0  0  0  0  0  0  0  0
  -24.6180  -31.7500   23.1440 C   0  0  0  0  0  0  0  0  0  0  0  0
  -27.3760  -27.3360   20.1240 C   0  0  0  0  0  0  0  0  0  0  0  0
  -23.4650  -30.3410   21.4700 C   0  0  0  0  0  3  0  0  0  0  0  0
  -24.9660  -28.8130   20.0840 C   0  0  0  0  0  0  0  0  0  0  0  0
  -25.9900  -30.7200   21.3340 C   0  0  0  0  0  2  0  0  0  0  0  0
  -26.1030  -29.3460   20.7060 C   0  0  0  0  0  0  0  0  0  0  0  0
  -27.3120  -28.6130   20.7310 C   0  0  0  0  0  3  0  0  0  0  0  0
  -26.2290  -26.8180   19.4930 C   0  0  0  0  0  3  0  0  0  0  0  0
  -25.0220  -27.5450   19.4790 C   0  0  0  0  0  3  0  0  0  0  0  0
  -23.7140  -29.6610   20.0960 C   0  0  0  0  0  2  0  0  0  0  0  0
  -24.7080  -30.9540   22.0410 N   0  0  0  0  0  0  0  0  0  0  0  0
  -23.5230  -32.0100   23.6600 O   0  0  0  0  0  0  0  0  0  0  0  0
  -22.7990  -29.3140   22.4150 C   0  0  0  0  0  0  0  0  0  0  0  0
  -21.4700  -29.1610   22.2920 N   0  0  0  0  0  0  0  0  0  0  0  0
  -23.4750  -28.6580   23.2120 O   0  0  0  0  0  0  0  0  0  0  0  0
  -20.9860  -29.7420   21.6230 H   0  0  0  0  0  0  0  0  0  0  0  0
  -18.0680  -28.0680   22.8350 C   0  0  0  0  0  0  0  0  0  0  0  0
  -20.6410  -28.2230   23.0480 C   0  0  0  0  0  3  0  0  0  0  0  0
  -20.6750  -26.8120   22.4150 C   0  0  0  0  0  2  0  0  0  0  0  0
  -19.5370  -26.5700   21.4190 C   0  0  0  0  0  2  0  0  0  0  0  0
  -18.1780  -26.7410   22.1030 C   0  0  0  0  0  2  0  0  0  0  0  0
  -19.2250  -28.7720   23.2630 C   0  0  0  0  0  0  0  0  0  0  0  0
  -19.0680  -30.0190   23.9060 C   0  0  0  0  0  3  0  0  0  0  0  0
  -17.7880  -30.5610   24.1250 C   0  0  0  0  0  3  0  0  0  0  0  0
  -16.6470  -29.8540   23.7100 C   0  0  0  0  0  3  0  0  0  0  0  0
  -16.7870  -28.6090   23.0720 C   0  0  0  0  0  3  0  0  0  0  0  0
  -25.8850  -32.3910   23.7960 C   0  0  0  0  0  3  0  0  0  0  0  0
  -25.5520  -33.7800   24.1380 N   0  0  0  0  0  0  0  0  0  0  0  0
  -25.8800  -34.8460   23.3950 C   0  0  0  0  0  0  0  0  0  0  0  0
  -26.5650  -34.7650   22.3720 O   0  0  0  0  0  0  0  0  0  0  0  0
  -24.9490  -33.9170   24.9360 H   0  0  0  0  0  0  0  0  0  0  0  0
  -24.1280  -36.6140   23.0360 C   0  0  0  0  0  1  0  0  0  0  0  0
  -25.3650  -36.2220   23.8600 C   0  0  0  0  0  3  0  0  0  0  0  0
  -27.4740  -37.1300   24.7310 C   0  0  0  0  0  1  0  0  0  0  0  0
  -26.3820  -37.2910   23.7730 N   0  0  0  0  0  0  0  0  0  0  0  0
  -25.9590  -38.2040   23.9250 H   0  0  0  0  0  0  0  0  0  0  0  0
  -26.3940  -31.6100   25.0680 C   0  0  1  0  0  0  0  0  0  0  0  0
  -25.2890  -31.3380   26.1160 C   0  0  0  0  0  1  0  0  0  0  0  0
  -27.0050  -30.2490   24.6610 C   0  0  0  0  0  1  0  0  0  0  0  0
  -27.5180  -32.4130   25.7610 C   0  0  0  0  0  1  0  0  0  0  0  0
  -31.1290  -16.2290   21.3330 C   0  0  0  0  0  3  0  0  0  0  0  0
  -30.6240  -14.4670   19.5890 C   0  0  0  0  0  0  0  0  0  0  0  0
  -29.9990  -12.5400   18.1640 C   0  0  0  0  0  2  0  0  0  0  0  0
  -28.8960  -12.9210   17.1580 C   0  0  0  0  0  2  0  0  0  0  0  0
  -27.5010  -12.7690   17.7960 C   0  0  0  0  0  2  0  0  0  0  0  0
  -27.4030  -13.4540   19.1850 C   0  0  0  0  0  3  0  0  0  0  0  0
  -28.5930  -13.0460   20.0800 C   0  0  0  0  0  2  0  0  0  0  0  0
  -29.8390  -13.3780   19.3630 N   0  0  0  0  0  0  0  0  0  0  0  0
  -31.5850  -14.7620   18.8700 O   0  0  0  0  0  0  0  0  0  0  0  0
  -30.3080  -15.1940   20.6750 N   0  0  0  0  0  0  0  0  0  0  0  0
  -29.4910  -14.8790   21.1780 H   0  0  0  0  0  0  0  0  0  0  0  0
  -25.1100  -14.0510   20.1910 C   0  0  0  0  0  0  0  0  0  0  0  0
  -24.1010  -13.2740   20.6930 C   0  0  0  0  0  0  0  0  0  0  0  0
  -24.5590  -11.9240   20.6000 C   0  0  0  0  0  0  0  0  0  0  0  0
  -26.1210  -13.1740   19.8280 N   0  0  0  0  0  0  0  0  0  0  0  0
  -25.8000  -11.8910   20.1280 N   0  0  0  0  0  0  0  0  0  0  0  0
  -23.8690  -10.6580   20.8770 C   0  0  0  0  0  0  0  0  0  0  0  0
  -24.3740   -9.7330   21.8170 C   0  0  0  0  0  3  0  0  0  0  0  0
  -23.6840   -8.5310   22.0810 C   0  0  0  0  0  3  0  0  0  0  0  0
  -22.4730   -8.2450   21.4050 C   0  0  0  0  0  0  0  0  0  0  0  0
  -21.9860   -9.1580   20.4530 C   0  0  0  0  0  3  0  0  0  0  0  0
  -22.6780  -10.3520   20.1890 C   0  0  0  0  0  3  0  0  0  0  0  0
  -21.7480   -7.0900   21.5780 O   0  0  0  0  0  0  0  0  0  0  0  0
  -21.7250   -6.4270   22.7780 C   0  0  0  0  0  0  0  0  0  0  0  0
  -21.2990   -7.0550   23.9690 C   0  0  0  0  0  3  0  0  0  0  0  0
  -21.2250   -6.3160   25.1660 C   0  0  0  0  0  3  0  0  0  0  0  0
  -21.5690   -4.9500   25.1750 C   0  0  0  0  0  0  0  0  0  0  0  0
  -21.9880   -4.3220   23.9890 C   0  0  0  0  0  3  0  0  0  0  0  0
  -22.0630   -5.0580   22.7930 C   0  0  0  0  0  0  0  0  0  0  0  0
  -22.4480   -4.4440   21.6490 F   0  0  0  0  0  0  0  0  0  0  0  0
  -21.4910   -4.2390   26.3230 F   0  0  0  0  0  0  0  0  0  0  0  0
  -22.7470  -13.7430   21.1440 C   0  0  0  0  0  0  0  0  0  0  0  0
  -22.1520  -13.0570   22.1130 N   0  0  0  0  0  0  0  0  0  0  0  0
  -22.2300  -14.7550   20.6690 O   0  0  0  0  0  0  0  0  0  0  0  0
  -22.5840  -12.2390   22.5150 H   0  0  0  0  0  0  0  0  0  0  0  0
  -21.2510  -13.3550   22.4580 H   0  0  0  0  0  0  0  0  0  0  0  0
  -25.2470  -15.4230   19.9990 N   0  0  0  0  0  0  0  0  0  0  0  0
  -24.4980  -16.0760   20.2030 H   0  0  0  0  0  0  0  0  0  0  0  0
  -26.0450  -15.8600   19.5560 H   0  0  0  0  0  0  0  0  0  0  0  0
  -32.5530  -14.2170   22.2190 C   0  0  0  0  0  1  0  0  0  0  0  0
  -31.9040  -15.5780   22.5150 C   0  0  0  0  0  2  0  0  0  0  0  0
  1  3  1  0
  1  4  1  0
  3  8  1  0
  3  2  1  0
  4 55  1  0
  4  5  1  0
  5  2  1  0
  5  6  1  0
  7  5  1  0
  8 10  1  0
  9  8  1  0
 11 10  1  0
 11 12  1  0
 13 12  1  0
 14 16  1  0
 14 13  1  0
 15 26  2  0
 16 21  1  0
 17 25  1  0
 17 27  1  0
 18 24  1  0
 18 20  1  0
 19 25  1  0
 20 21  2  0
 20 19  1  0
 22 16  2  0
 23 22  1  0
 23 18  2  0
 24 17  1  0
 25 15  1  0
 27 29  2  0
 28 27  1  0
 30 28  1  0
 31 40  2  0
 31 36  1  0
 32 28  1  0
 32 36  1  0
 33 32  1  0
 34 35  1  0
 34 33  1  0
 35 31  1  0
 36 37  2  0
 37 38  1  0
 39 38  2  0
 40 39  1  0
 41 15  1  0
 41 42  1  0
 41 51  1  0
 42 45  1  0
 43 47  1  0
 43 42  1  0
 44 43  2  0
 47 46  1  0
 49 47  1  0
 49 50  1  0
 49 48  1  0
 51 54  1  1
 51 52  1  0
 53 51  1  0
 55 95  1  0
 56 64  1  0
 57 62  1  0
 58 59  1  0
 58 57  1  0
 60 59  1  0
 60 69  1  0
 60 61  1  0
 62 56  1  0
 62 61  1  0
 63 56  2  0
 64 65  1  0
 64 55  1  0
 66 67  2  0
 67 86  1  0
 68 67  1  0
 68 71  1  0
 69 70  1  0
 69 66  1  0
 70 68  2  0
 71 72  1  0
 72 73  2  0
 74 77  1  0
 74 73  1  0
 75 74  2  0
 76 75  1  0
 76 71  2  0
 77 78  1  0
 78 83  2  0
 78 79  1  0
 79 80  2  0
 80 81  1  0
 81 85  1  0
 82 81  2  0
 83 82  1  0
 84 83  1  0
 86 87  1  0
 87 90  1  0
 87 89  1  0
 88 86  2  0
 91 66  1  0
 91 92  1  0
 93 91  1  0
 94 95  1  0
M  ISO  4  13 101  14 101  56 100  64 100
M  END
>  <TORSDO>  (55) 
F 23

>  <SCORE>  (55) 
-7.087

>  <name>  (55) 
54

>  <ligand_id>  (55) 
54

>  <original_smiles>  (55) 
[H]c1c([H])c([H])c2c(c1[H])C([H])([H])C([H])([H])C([H])([H])C2([H])N([H])C(=O)C1([H])N(C(=O)C([H])(N([H])C(=O)C([H])(N([H])C([H])([H])[H])C([H])([H])[H])C(C([H])([H])[H])(C([H])([H])[H])C([H])([H])[H])C([H])([H])c2c([H])c(OC([H])([H])C([H])([H])C([H])([H])C([H])([H])N([H])C3([H])C([H])([H])C([H])(C([H])(N([H])C(=O)N4C([H])([H])C([H])([H])C([H])([H])C([H])(n5nc(-c6c([H])c([H])c(Oc7c([H])c([H])c(F)c([H])c7F)c([H])c6[H])c(C(=O)N([H])[H])c5N([H])[H])C4([H])[H])C([H])([H])C([H])([H])[H])[N+]([H])([H])C3([H])[H])c([H])c([H])c2C1([H])[H]

>  <smiles>  (55) 
[H]c1c([H])c([H])c2c(c1[H])C([H])([H])C([H])([H])C([H])([H])C2([H])N([H])C(=O)C1([H])N(C(=O)C([H])(N([H])C(=O)C([H])(N([H])C([H])([H])[H])C([H])([H])[H])C(C([H])([H])[H])(C([H])([H])[H])C([H])([H])[H])C([H])([H])c2c([H])c(OC([H])([H])C([H])([H])C([H])([H])C([H])([H])N([H])C3([H])C([H])([H])C([H])(C([H])(N([H])C(=O)N4C([H])([H])C([H])([H])C([H])([H])C([H])(n5nc(-c6c([H])c([H])c(Oc7c([H])c([H])c(F)c([H])c7F)c([H])c6[H])c(C(=O)N([H])[H])c5N([H])[H])C4([H])[H])C([H])([H])C([H])([H])[H])[N+]([H])([H])C3([H])[H])c([H])c([H])c2C1([H])[H]

$$$$
55:0:0
     RDKit          3D

 94102  0  0  1  0  0  0  0  0999 V2000
  -28.5620  -20.3450   20.5770 C   0  0  0  0  0  2  0  0  0  0  0  0
  -30.8820  -14.7450   20.4800 C   0  0  0  0  0  0  0  0  0  0  0  0
  -30.6590  -12.5330   19.4460 C   0  0  0  0  0  2  0  0  0  0  0  0
  -29.7560  -12.7030   18.2050 C   0  0  0  0  0  2  0  0  0  0  0  0
  -28.2690  -12.5640   18.5940 C   0  0  0  0  0  2  0  0  0  0  0  0
  -27.8830  -13.4210   19.8300 C   0  0  0  0  0  3  0  0  0  0  0  0
  -28.9110  -13.2550   20.9720 C   0  0  0  0  0  2  0  0  0  0  0  0
  -30.2370  -13.5500   20.4180 N   0  0  0  0  0  0  0  0  0  0  0  0
  -32.0960  -14.8460   20.2750 O   0  0  0  0  0  0  0  0  0  0  0  0
  -28.8510  -17.9830   20.4740 C   0  0  0  0  0  0  0  0  0  0  0  0
  -29.3470  -16.6390   21.0500 C   0  0  0  0  0  2  0  0  0  0  0  0
  -29.0630  -16.8610   18.1530 C   0  0  0  0  0  2  0  0  0  0  0  0
  -30.3840  -16.4020   18.7860 C   0  0  0  0  0  2  0  0  0  0  0  0
  -28.3240  -17.9050   19.0240 C   0  0  0  0  0  3  0  0  0  0  0  0
  -28.9140  -19.0570   21.1740 N   0  0  0  0  0  0  0  0  0  0  0  0
  -30.0950  -15.7830   20.0930 N   0  0  0  0  0  0  0  0  0  0  0  0
  -25.4670  -14.0330   20.4400 C   0  0  0  0  0  0  0  0  0  0  0  0
  -24.3860  -13.2600   20.7670 C   0  0  0  0  0  0  0  0  0  0  0  0
  -24.8560  -11.9110   20.7840 C   0  0  0  0  0  0  0  0  0  0  0  0
  -26.5220  -13.1510   20.2690 N   0  0  0  0  0  0  0  0  0  0  0  0
  -26.1590  -11.8730   20.5370 N   0  0  0  0  0  0  0  0  0  0  0  0
  -24.1330  -10.6480   20.9700 C   0  0  0  0  0  0  0  0  0  0  0  0
  -24.5160   -9.7200   21.9630 C   0  0  0  0  0  3  0  0  0  0  0  0
  -23.7940   -8.5200   22.1360 C   0  0  0  0  0  3  0  0  0  0  0  0
  -22.6760   -8.2410   21.3140 C   0  0  0  0  0  0  0  0  0  0  0  0
  -22.3130   -9.1590   20.3130 C   0  0  0  0  0  3  0  0  0  0  0  0
  -23.0360  -10.3500   20.1380 C   0  0  0  0  0  3  0  0  0  0  0  0
  -21.9330   -7.0870   21.3890 O   0  0  0  0  0  0  0  0  0  0  0  0
  -21.7810   -6.4060   22.5700 C   0  0  0  0  0  0  0  0  0  0  0  0
  -21.1870   -7.0030   23.7030 C   0  0  0  0  0  3  0  0  0  0  0  0
  -20.9830   -6.2430   24.8740 C   0  0  0  0  0  3  0  0  0  0  0  0
  -21.3690   -4.8890   24.9110 C   0  0  0  0  0  0  0  0  0  0  0  0
  -21.9600   -4.2930   23.7820 C   0  0  0  0  0  3  0  0  0  0  0  0
  -22.1610   -5.0490   22.6140 C   0  0  0  0  0  0  0  0  0  0  0  0
  -22.7090   -4.4660   21.5220 F   0  0  0  0  0  0  0  0  0  0  0  0
  -21.1700   -4.1580   26.0320 F   0  0  0  0  0  0  0  0  0  0  0  0
  -22.9780  -13.7350   20.9790 C   0  0  0  0  0  0  0  0  0  0  0  0
  -22.2220  -13.0560   21.8330 N   0  0  0  0  0  0  0  0  0  0  0  0
  -22.5620  -14.7530   20.4250 O   0  0  0  0  0  0  0  0  0  0  0  0
  -22.5700  -12.2300   22.2970 H   0  0  0  0  0  0  0  0  0  0  0  0
  -21.2800  -13.3650   22.0240 H   0  0  0  0  0  0  0  0  0  0  0  0
  -25.6460  -15.4080   20.2820 N   0  0  0  0  0  0  0  0  0  0  0  0
  -24.7030  -15.7850   20.3300 H   0  0  0  0  0  0  0  0  0  0  0  0
  -26.0920  -15.6780   21.1530 H   0  0  0  0  0  0  0  0  0  0  0  0
  -26.8610  -17.7110   19.0250 N   0  0  0  0  0  4  0  0  0  0  0  0
  -26.4980  -17.7590   18.0900 H   0  0  0  0  0  0  0  0  0  0  0  0
  -26.4260  -18.4330   19.5710 H   0  0  0  0  0  0  0  0  0  0  0  0
  -26.5840  -16.8210   19.4280 H   0  0  0  0  0  0  0  0  0  0  0  0
  -28.5830  -21.5030   21.5990 C   0  0  0  0  0  2  0  0  0  0  0  0
  -29.5510  -22.6600   21.2400 C   0  0  0  0  0  2  0  0  0  0  0  0
  -29.0420  -24.0530   21.6740 C   0  0  0  0  0  2  0  0  0  0  0  0
  -27.9930  -24.6590   20.7110 C   0  0  0  0  0  2  0  0  0  0  0  0
  -28.5740  -25.6580   19.6800 C   0  0  0  0  0  2  0  0  0  0  0  0
  -28.5240  -27.0170   20.1340 O   0  0  0  0  0  0  0  0  0  0  0  0
  -24.5850  -31.9780   23.3640 C   0  0  0  0  0  0  0  0  0  0  0  0
  -27.3140  -27.6890   20.1380 C   0  0  0  0  0  0  0  0  0  0  0  0
  -23.4040  -30.6040   21.6830 C   0  0  0  0  0  3  0  0  0  0  0  0
  -24.8820  -29.1430   20.2090 C   0  0  0  0  0  0  0  0  0  0  0  0
  -25.9210  -31.0210   21.4910 C   0  0  0  0  0  2  0  0  0  0  0  0
  -26.0320  -29.6740   20.8060 C   0  0  0  0  0  0  0  0  0  0  0  0
  -27.2490  -28.9550   20.7650 C   0  0  0  0  0  3  0  0  0  0  0  0
  -26.1360  -27.1690   19.5480 C   0  0  0  0  0  3  0  0  0  0  0  0
  -24.9300  -27.8900   19.5800 C   0  0  0  0  0  3  0  0  0  0  0  0
  -23.6230  -29.9750   20.2820 C   0  0  0  0  0  2  0  0  0  0  0  0
  -24.6560  -31.2130   22.2380 N   0  0  0  0  0  0  0  0  0  0  0  0
  -23.5010  -32.2090   23.9150 O   0  0  0  0  0  0  0  0  0  0  0  0
  -22.7780  -29.5380   22.6100 C   0  0  0  0  0  0  0  0  0  0  0  0
  -21.4620  -29.3120   22.4610 N   0  0  0  0  0  0  0  0  0  0  0  0
  -23.4730  -28.9180   23.4200 O   0  0  0  0  0  0  0  0  0  0  0  0
  -20.9600  -29.8600   21.7760 H   0  0  0  0  0  0  0  0  0  0  0  0
  -18.1300  -27.9820   22.8810 C   0  0  0  0  0  0  0  0  0  0  0  0
  -20.6720  -28.3280   23.2010 C   0  0  0  0  0  3  0  0  0  0  0  0
  -20.8380  -26.9140   22.5990 C   0  0  0  0  0  2  0  0  0  0  0  0
  -19.7630  -26.5690   21.5620 C   0  0  0  0  0  2  0  0  0  0  0  0
  -18.3660  -26.6520   22.1850 C   0  0  0  0  0  2  0  0  0  0  0  0
  -19.2140  -28.7760   23.3440 C   0  0  0  0  0  0  0  0  0  0  0  0
  -18.9390  -30.0190   23.9530 C   0  0  0  0  0  3  0  0  0  0  0  0
  -17.6130  -30.4710   24.1020 C   0  0  0  0  0  3  0  0  0  0  0  0
  -16.5450  -29.6740   23.6570 C   0  0  0  0  0  3  0  0  0  0  0  0
  -16.8050  -28.4290   23.0540 C   0  0  0  0  0  3  0  0  0  0  0  0
  -25.8600  -32.6170   23.9990 C   0  0  0  0  0  3  0  0  0  0  0  0
  -26.3580  -31.8580   25.2910 C   0  0  1  0  0  0  0  0  0  0  0  0
  -25.2480  -31.6250   26.3420 C   0  0  0  0  0  1  0  0  0  0  0  0
  -26.9530  -30.4810   24.9190 C   0  0  0  0  0  1  0  0  0  0  0  0
  -27.4920  -32.6640   25.9650 C   0  0  0  0  0  1  0  0  0  0  0  0
  -25.5450  -34.0180   24.3060 N   0  0  0  0  0  0  0  0  0  0  0  0
  -25.8930  -35.0610   23.5390 C   0  0  0  0  0  0  0  0  0  0  0  0
  -26.5860  -34.9440   22.5240 O   0  0  0  0  0  0  0  0  0  0  0  0
  -24.9330  -34.1820   25.0910 H   0  0  0  0  0  0  0  0  0  0  0  0
  -24.1860  -36.8560   23.1090 C   0  0  0  0  0  1  0  0  0  0  0  0
  -25.3950  -36.4540   23.9680 C   0  0  0  0  0  3  0  0  0  0  0  0
  -27.4970  -37.3430   24.8750 C   0  0  0  0  0  1  0  0  0  0  0  0
  -26.4360  -37.5020   23.8840 N   0  0  0  0  0  0  0  0  0  0  0  0
  -26.0270  -38.4250   24.0020 H   0  0  0  0  0  0  0  0  0  0  0  0
  1 15  1  0
  1 49  1  0
  3  8  1  0
  4  5  1  0
  4  3  1  0
  6  5  1  0
  6 20  1  0
  6  7  1  0
  8  2  1  0
  8  7  1  0
  9  2  2  0
 10 11  1  0
 10 15  2  0
 12 13  1  0
 12 14  1  0
 13 16  1  0
 14 45  1  0
 14 10  1  0
 16  2  1  0
 16 11  1  0
 17 18  2  0
 18 19  1  0
 18 37  1  0
 19 22  1  0
 20 17  1  0
 20 21  1  0
 21 19  2  0
 22 23  1  0
 23 24  2  0
 25 28  1  0
 25 24  1  0
 26 25  2  0
 27 26  1  0
 27 22  2  0
 28 29  1  0
 29 34  2  0
 29 30  1  0
 30 31  2  0
 31 32  1  0
 32 36  1  0
 33 32  2  0
 34 33  1  0
 35 34  1  0
 37 38  1  0
 38 41  1  0
 38 40  1  0
 39 37  2  0
 42 43  1  0
 42 17  1  0
 42 44  1  0
 45 48  1  0
 45 47  1  0
 46 45  1  0
 50 49  1  0
 50 51  1  0
 52 51  1  0
 53 54  1  0
 53 52  1  0
 54 56  1  0
 55 66  2  0
 56 61  1  0
 57 65  1  0
 57 67  1  0
 58 64  1  0
 58 60  1  0
 59 65  1  0
 60 59  1  0
 61 60  2  0
 62 63  1  0
 62 56  2  0
 63 58  2  0
 64 57  1  0
 65 55  1  0
 67 69  2  0
 68 67  1  0
 70 68  1  0
 71 80  2  0
 71 76  1  0
 72 68  1  0
 72 76  1  0
 73 72  1  0
 74 75  1  0
 74 73  1  0
 75 71  1  0
 76 77  2  0
 77 78  1  0
 79 78  2  0
 80 79  1  0
 81 55  1  0
 81 86  1  0
 81 82  1  0
 82 85  1  1
 82 83  1  0
 84 82  1  0
 86 89  1  0
 87 91  1  0
 87 86  1  0
 88 87  2  0
 91 90  1  0
 93 91  1  0
 93 94  1  0
 93 92  1  0
M  ISO  4   2 100  16 100  53 101  54 101
M  END
>  <TORSDO>  (56) 
F 22

>  <SCORE>  (56) 
-12.365

>  <name>  (56) 
55

>  <ligand_id>  (56) 
55

>  <original_smiles>  (56) 
[H]c1c([H])c([H])c2c(c1[H])C([H])([H])C([H])([H])C([H])([H])C2([H])N([H])C(=O)C1([H])N(C(=O)C([H])(N([H])C(=O)C([H])(N([H])C([H])([H])[H])C([H])([H])[H])C(C([H])([H])[H])(C([H])([H])[H])C([H])([H])[H])C([H])([H])c2c([H])c(OC([H])([H])C([H])([H])C([H])([H])C([H])([H])C([H])([H])C([H])([H])N=C3C([H])([H])N(C(=O)N4C([H])([H])C([H])([H])C([H])([H])C([H])(n5nc(-c6c([H])c([H])c(Oc7c([H])c([H])c(F)c([H])c7F)c([H])c6[H])c(C(=O)N([H])[H])c5N([H])[H])C4([H])[H])C([H])([H])C([H])([H])C3([H])[N+]([H])([H])[H])c([H])c([H])c2C1([H])[H]

>  <smiles>  (56) 
[H]c1c([H])c([H])c2c(c1[H])C([H])([H])C([H])([H])C([H])([H])C2([H])N([H])C(=O)C1([H])N(C(=O)C([H])(N([H])C(=O)C([H])(N([H])C([H])([H])[H])C([H])([H])[H])C(C([H])([H])[H])(C([H])([H])[H])C([H])([H])[H])C([H])([H])c2c([H])c(OC([H])([H])C([H])([H])C([H])([H])C([H])([H])C([H])([H])C([H])([H])N=C3C([H])([H])N(C(=O)N4C([H])([H])C([H])([H])C([H])([H])C([H])(n5nc(-c6c([H])c([H])c(Oc7c([H])c([H])c(F)c([H])c7F)c([H])c6[H])c(C(=O)N([H])[H])c5N([H])[H])C4([H])[H])C([H])([H])C([H])([H])C3([H])[N+]([H])([H])[H])c([H])c([H])c2C1([H])[H]

$$$$
56:0:0
     RDKit          3D

 94102  0  0  1  0  0  0  0  0999 V2000
  -29.4760  -20.4260   20.5480 C   0  0  0  0  0  0  0  0  0  0  0  0
  -28.8290  -21.5560   20.1630 N   0  0  0  0  0  0  0  0  0  0  0  0
  -30.1600  -20.4050   21.5730 O   0  0  0  0  0  0  0  0  0  0  0  0
  -28.2420  -21.5060   19.3400 H   0  0  0  0  0  0  0  0  0  0  0  0
  -29.3840  -19.3730   18.1760 C   0  0  0  0  0  2  0  0  0  0  0  0
  -30.6600  -17.4140   18.5460 C   0  0  0  0  0  2  0  0  0  0  0  0
  -29.3240  -19.1160   19.7080 C   0  0  0  0  0  3  0  0  0  0  0  0
  -30.4260  -18.0130   19.9380 C   0  0  0  0  0  3  0  0  0  0  0  0
  -30.4660  -18.5370   17.6240 N   0  0  0  0  0  4  0  0  0  0  0  0
  -31.3140  -19.0800   17.5930 H   0  0  0  0  0  0  0  0  0  0  0  0
  -30.2630  -18.2260   16.6860 H   0  0  0  0  0  0  0  0  0  0  0  0
  -30.2760  -16.9880   21.1250 C   0  0  0  0  0  2  0  0  0  0  0  0
  -30.6280  -14.5400   20.4710 C   0  0  0  0  0  0  0  0  0  0  0  0
  -30.3610  -12.3590   19.3460 C   0  0  0  0  0  2  0  0  0  0  0  0
  -29.4230  -12.5430   18.1350 C   0  0  0  0  0  2  0  0  0  0  0  0
  -27.9450  -12.4130   18.5570 C   0  0  0  0  0  2  0  0  0  0  0  0
  -27.6000  -13.2600   19.8110 C   0  0  0  0  0  3  0  0  0  0  0  0
  -28.6490  -13.0520   20.9270 C   0  0  0  0  0  2  0  0  0  0  0  0
  -29.9700  -13.3560   20.3550 N   0  0  0  0  0  0  0  0  0  0  0  0
  -31.7920  -14.7000   20.0990 O   0  0  0  0  0  0  0  0  0  0  0  0
  -29.8580  -15.5940   20.8340 N   0  0  0  0  0  0  0  0  0  0  0  0
  -28.9000  -15.3650   21.0540 H   0  0  0  0  0  0  0  0  0  0  0  0
  -25.2050  -13.8900   20.5050 C   0  0  0  0  0  0  0  0  0  0  0  0
  -24.1280  -13.1300   20.8730 C   0  0  0  0  0  0  0  0  0  0  0  0
  -24.5790  -11.7740   20.8550 C   0  0  0  0  0  0  0  0  0  0  0  0
  -26.2430  -12.9980   20.2860 N   0  0  0  0  0  0  0  0  0  0  0  0
  -25.8710  -11.7220   20.5570 N   0  0  0  0  0  0  0  0  0  0  0  0
  -23.8410  -10.5180   21.0500 C   0  0  0  0  0  0  0  0  0  0  0  0
  -24.2720   -9.5470   21.9790 C   0  0  0  0  0  3  0  0  0  0  0  0
  -23.5370   -8.3550   22.1610 C   0  0  0  0  0  3  0  0  0  0  0  0
  -22.3580   -8.1280   21.4120 C   0  0  0  0  0  0  0  0  0  0  0  0
  -21.9470   -9.0890   20.4710 C   0  0  0  0  0  3  0  0  0  0  0  0
  -22.6820  -10.2710   20.2880 C   0  0  0  0  0  3  0  0  0  0  0  0
  -21.5950   -6.9890   21.5030 O   0  0  0  0  0  0  0  0  0  0  0  0
  -21.5570   -6.2370   22.6500 C   0  0  0  0  0  0  0  0  0  0  0  0
  -21.1690   -6.7890   23.8900 C   0  0  0  0  0  3  0  0  0  0  0  0
  -21.0780   -5.9660   25.0290 C   0  0  0  0  0  3  0  0  0  0  0  0
  -21.3620   -4.5900   24.9290 C   0  0  0  0  0  0  0  0  0  0  0  0
  -21.7430   -4.0380   23.6930 C   0  0  0  0  0  3  0  0  0  0  0  0
  -21.8370   -4.8590   22.5560 C   0  0  0  0  0  0  0  0  0  0  0  0
  -22.1830   -4.3170   21.3640 F   0  0  0  0  0  0  0  0  0  0  0  0
  -21.2660   -3.7970   26.0210 F   0  0  0  0  0  0  0  0  0  0  0  0
  -22.7340  -13.6200   21.1310 C   0  0  0  0  0  0  0  0  0  0  0  0
  -21.9940  -12.9370   21.9980 N   0  0  0  0  0  0  0  0  0  0  0  0
  -22.3080  -14.6450   20.6000 O   0  0  0  0  0  0  0  0  0  0  0  0
  -22.3500  -12.1100   22.4530 H   0  0  0  0  0  0  0  0  0  0  0  0
  -21.0560  -13.2480   22.2100 H   0  0  0  0  0  0  0  0  0  0  0  0
  -25.3840  -15.2570   20.3150 N   0  0  0  0  0  0  0  0  0  0  0  0
  -24.6200  -15.9180   20.4120 H   0  0  0  0  0  0  0  0  0  0  0  0
  -26.2360  -15.6830   19.9760 H   0  0  0  0  0  0  0  0  0  0  0  0
  -28.7910  -22.8330   20.9140 C   0  0  0  0  0  2  0  0  0  0  0  0
  -28.5440  -24.1180   20.0540 C   0  0  0  0  0  2  0  0  0  0  0  0
  -28.3550  -25.4140   20.9060 C   0  0  0  0  0  2  0  0  0  0  0  0
  -28.3970  -26.6670   20.1820 O   0  0  0  0  0  0  0  0  0  0  0  0
  -24.5870  -31.8930   23.2400 C   0  0  0  0  0  0  0  0  0  0  0  0
  -27.2390  -27.4210   20.1940 C   0  0  0  0  0  0  0  0  0  0  0  0
  -23.3870  -30.4840   21.5990 C   0  0  0  0  0  3  0  0  0  0  0  0
  -24.8460  -28.9380   20.1850 C   0  0  0  0  0  0  0  0  0  0  0  0
  -25.9150  -30.8400   21.4070 C   0  0  0  0  0  2  0  0  0  0  0  0
  -26.0040  -29.4650   20.7720 C   0  0  0  0  0  0  0  0  0  0  0  0
  -27.2070  -28.7170   20.7660 C   0  0  0  0  0  3  0  0  0  0  0  0
  -26.0650  -26.9090   19.6060 C   0  0  0  0  0  3  0  0  0  0  0  0
  -24.8730  -27.6600   19.5970 C   0  0  0  0  0  3  0  0  0  0  0  0
  -23.6020  -29.7990   20.2230 C   0  0  0  0  0  2  0  0  0  0  0  0
  -24.6470  -31.0890   22.1400 N   0  0  0  0  0  0  0  0  0  0  0  0
  -23.5040  -32.1650   23.7770 O   0  0  0  0  0  0  0  0  0  0  0  0
  -22.7330  -29.4660   22.5630 C   0  0  0  0  0  0  0  0  0  0  0  0
  -21.4100  -29.2800   22.4310 N   0  0  0  0  0  0  0  0  0  0  0  0
  -23.4140  -28.8460   23.3830 O   0  0  0  0  0  0  0  0  0  0  0  0
  -20.9200  -29.8340   21.7420 H   0  0  0  0  0  0  0  0  0  0  0  0
  -18.0380  -28.0680   22.9090 C   0  0  0  0  0  0  0  0  0  0  0  0
  -20.5920  -28.3430   23.2020 C   0  0  0  0  0  3  0  0  0  0  0  0
  -20.7080  -26.9080   22.6370 C   0  0  0  0  0  2  0  0  0  0  0  0
  -19.6170  -26.5720   21.6160 C   0  0  0  0  0  2  0  0  0  0  0  0
  -18.2290  -26.7150   22.2470 C   0  0  0  0  0  2  0  0  0  0  0  0
  -19.1490  -28.8400   23.3440 C   0  0  0  0  0  0  0  0  0  0  0  0
  -18.9170  -30.1070   23.9220 C   0  0  0  0  0  3  0  0  0  0  0  0
  -17.6090  -30.6030   24.0710 C   0  0  0  0  0  3  0  0  0  0  0  0
  -16.5130  -29.8280   23.6530 C   0  0  0  0  0  3  0  0  0  0  0  0
  -16.7290  -28.5630   23.0780 C   0  0  0  0  0  3  0  0  0  0  0  0
  -25.8700  -32.5270   23.8610 C   0  0  0  0  0  3  0  0  0  0  0  0
  -25.5580  -33.9250   24.1890 N   0  0  0  0  0  0  0  0  0  0  0  0
  -25.8880  -34.9770   23.4270 C   0  0  0  0  0  0  0  0  0  0  0  0
  -26.5590  -34.8730   22.3970 O   0  0  0  0  0  0  0  0  0  0  0  0
  -24.9610  -34.0790   24.9880 H   0  0  0  0  0  0  0  0  0  0  0  0
  -24.1530  -36.7630   23.0710 C   0  0  0  0  0  1  0  0  0  0  0  0
  -25.3970  -36.3640   23.8830 C   0  0  0  0  0  3  0  0  0  0  0  0
  -27.5320  -37.2550   24.7050 C   0  0  0  0  0  1  0  0  0  0  0  0
  -26.4250  -37.4200   23.7660 N   0  0  0  0  0  0  0  0  0  0  0  0
  -26.0170  -38.3400   23.9160 H   0  0  0  0  0  0  0  0  0  0  0  0
  -26.3900  -31.7580   25.1370 C   0  0  1  0  0  0  0  0  0  0  0  0
  -25.3000  -31.5210   26.2080 C   0  0  0  0  0  1  0  0  0  0  0  0
  -26.9740  -30.3810   24.7460 C   0  0  0  0  0  1  0  0  0  0  0  0
  -27.5390  -32.5550   25.7980 C   0  0  0  0  0  1  0  0  0  0  0  0
  1  3  2  0
  2  1  1  0
  2 51  1  0
  4  2  1  0
  5  7  1  0
  6  8  1  0
  7  8  1  0
  7  1  1  0
  8 12  1  0
  9  5  1  0
  9  6  1  0
 10  9  1  0
 11  9  1  0
 13 21  1  0
 14 19  1  0
 15 16  1  0
 15 14  1  0
 17 16  1  0
 17 26  1  0
 17 18  1  0
 19 13  1  0
 19 18  1  0
 20 13  2  0
 21 22  1  0
 21 12  1  0
 23 24  2  0
 24 43  1  0
 25 24  1  0
 25 28  1  0
 26 23  1  0
 26 27  1  0
 27 25  2  0
 28 29  1  0
 29 30  2  0
 31 34  1  0
 31 30  1  0
 32 31  2  0
 33 32  1  0
 33 28  2  0
 34 35  1  0
 35 36  1  0
 36 37  2  0
 38 37  1  0
 38 42  1  0
 39 38  2  0
 40 35  2  0
 40 39  1  0
 41 40  1  0
 43 44  1  0
 44 47  1  0
 44 46  1  0
 45 43  2  0
 48 49  1  0
 48 23  1  0
 50 48  1  0
 52 53  1  0
 52 51  1  0
 54 56  1  0
 54 53  1  0
 55 66  2  0
 56 61  1  0
 57 65  1  0
 57 67  1  0
 58 64  1  0
 58 60  1  0
 59 65  1  0
 60 59  1  0
 61 60  2  0
 62 56  2  0
 63 62  1  0
 63 58  2  0
 64 57  1  0
 65 55  1  0
 67 69  2  0
 68 67  1  0
 70 68  1  0
 71 80  2  0
 71 76  1  0
 72 68  1  0
 72 76  1  0
 73 72  1  0
 74 75  1  0
 74 73  1  0
 75 71  1  0
 76 77  2  0
 77 78  1  0
 79 78  2  0
 80 79  1  0
 81 55  1  0
 81 82  1  0
 81 91  1  0
 82 85  1  0
 83 87  1  0
 83 82  1  0
 84 83  2  0
 87 86  1  0
 89 87  1  0
 89 90  1  0
 89 88  1  0
 91 94  1  1
 91 92  1  0
 93 91  1  0
M  ISO  4  13 100  21 100  53 101  54 101
M  END
>  <TORSDO>  (57) 
F 21

>  <SCORE>  (57) 
-13.629

>  <name>  (57) 
56

>  <ligand_id>  (57) 
56

>  <original_smiles>  (57) 
[H]c1c([H])c([H])c2c(c1[H])C([H])([H])C([H])([H])C([H])([H])C2([H])N([H])C(=O)C1([H])N(C(=O)C([H])(N([H])C(=O)C([H])(N([H])C([H])([H])[H])C([H])([H])[H])C(C([H])([H])[H])(C([H])([H])[H])C([H])([H])[H])C([H])([H])c2c([H])c(OC([H])([H])C([H])([H])C([H])([H])N([H])C(=O)C3([H])C([H])(C([H])([H])N([H])C(=O)N4C([H])([H])C([H])([H])C([H])([H])C([H])(n5nc(-c6c([H])c([H])c(Oc7c([H])c([H])c(F)c([H])c7F)c([H])c6[H])c(C(=O)N([H])[H])c5N([H])[H])C4([H])[H])C([H])([H])[N+]([H])([H])C3([H])[H])c([H])c([H])c2C1([H])[H]

>  <smiles>  (57) 
[H]c1c([H])c([H])c2c(c1[H])C([H])([H])C([H])([H])C([H])([H])C2([H])N([H])C(=O)C1([H])N(C(=O)C([H])(N([H])C(=O)C([H])(N([H])C([H])([H])[H])C([H])([H])[H])C(C([H])([H])[H])(C([H])([H])[H])C([H])([H])[H])C([H])([H])c2c([H])c(OC([H])([H])C([H])([H])C([H])([H])N([H])C(=O)C3([H])C([H])(C([H])([H])N([H])C(=O)N4C([H])([H])C([H])([H])C([H])([H])C([H])(n5nc(-c6c([H])c([H])c(Oc7c([H])c([H])c(F)c([H])c7F)c([H])c6[H])c(C(=O)N([H])[H])c5N([H])[H])C4([H])[H])C([H])([H])[N+]([H])([H])C3([H])[H])c([H])c([H])c2C1([H])[H]

$$$$
57:0:0
     RDKit          3D

 98106  0  0  1  0  0  0  0  0999 V2000
  -29.8550  -17.9570   21.7820 C   0  0  0  0  0  2  0  0  0  0  0  0
  -30.7190  -14.5610   20.3720 C   0  0  0  0  0  0  0  0  0  0  0  0
  -30.4130  -12.3840   19.2640 C   0  0  0  0  0  2  0  0  0  0  0  0
  -29.4670  -12.5470   18.0550 C   0  0  0  0  0  2  0  0  0  0  0  0
  -27.9940  -12.4130   18.4900 C   0  0  0  0  0  2  0  0  0  0  0  0
  -27.6470  -13.2650   19.7410 C   0  0  0  0  0  3  0  0  0  0  0  0
  -28.7130  -13.1050   20.8510 C   0  0  0  0  0  2  0  0  0  0  0  0
  -30.0310  -13.3900   20.2660 N   0  0  0  0  0  0  0  0  0  0  0  0
  -31.8910  -14.6800   20.0080 O   0  0  0  0  0  0  0  0  0  0  0  0
  -29.2550  -16.2240   19.3680 C   0  0  0  0  0  2  0  0  0  0  0  0
  -30.2800  -17.3420   19.2730 C   0  0  0  0  0  3  0  0  0  0  0  0
  -30.5780  -17.0570   20.7470 C   0  0  0  0  0  3  0  0  0  0  0  0
  -29.9770  -15.6960   20.5450 N   0  0  0  0  0  0  0  0  0  0  0  0
  -25.2620  -13.8940   20.4590 C   0  0  0  0  0  0  0  0  0  0  0  0
  -24.1900  -13.1290   20.8300 C   0  0  0  0  0  0  0  0  0  0  0  0
  -24.6490  -11.7750   20.8100 C   0  0  0  0  0  0  0  0  0  0  0  0
  -26.3010  -13.0030   20.2320 N   0  0  0  0  0  0  0  0  0  0  0  0
  -25.9360  -11.7270   20.5030 N   0  0  0  0  0  0  0  0  0  0  0  0
  -23.9220  -10.5180   21.0100 C   0  0  0  0  0  0  0  0  0  0  0  0
  -24.3620   -9.5570   21.9480 C   0  0  0  0  0  3  0  0  0  0  0  0
  -23.6400   -8.3590   22.1340 C   0  0  0  0  0  3  0  0  0  0  0  0
  -22.4660   -8.1150   21.3830 C   0  0  0  0  0  0  0  0  0  0  0  0
  -22.0450   -9.0640   20.4360 C   0  0  0  0  0  3  0  0  0  0  0  0
  -22.7670  -10.2540   20.2470 C   0  0  0  0  0  3  0  0  0  0  0  0
  -21.7130   -6.9700   21.4810 O   0  0  0  0  0  0  0  0  0  0  0  0
  -21.6730   -6.2290   22.6340 C   0  0  0  0  0  0  0  0  0  0  0  0
  -21.2630   -6.7890   23.8650 C   0  0  0  0  0  3  0  0  0  0  0  0
  -21.1730   -5.9740   25.0100 C   0  0  0  0  0  3  0  0  0  0  0  0
  -21.4820   -4.6020   24.9270 C   0  0  0  0  0  0  0  0  0  0  0  0
  -21.8850   -4.0450   23.7010 C   0  0  0  0  0  3  0  0  0  0  0  0
  -21.9790   -4.8560   22.5570 C   0  0  0  0  0  0  0  0  0  0  0  0
  -22.3480   -4.3090   21.3740 F   0  0  0  0  0  0  0  0  0  0  0  0
  -21.3860   -3.8190   26.0260 F   0  0  0  0  0  0  0  0  0  0  0  0
  -22.7950  -13.6130   21.0950 C   0  0  0  0  0  0  0  0  0  0  0  0
  -22.0620  -12.9270   21.9640 N   0  0  0  0  0  0  0  0  0  0  0  0
  -22.3620  -14.6350   20.5650 O   0  0  0  0  0  0  0  0  0  0  0  0
  -22.4250  -12.1020   22.4160 H   0  0  0  0  0  0  0  0  0  0  0  0
  -21.1230  -13.2340   22.1780 H   0  0  0  0  0  0  0  0  0  0  0  0
  -25.4310  -15.2640   20.2730 N   0  0  0  0  0  0  0  0  0  0  0  0
  -24.6640  -15.9200   20.3780 H   0  0  0  0  0  0  0  0  0  0  0  0
  -26.2910  -15.7000   19.9740 H   0  0  0  0  0  0  0  0  0  0  0  0
  -31.4010  -17.0680   18.3380 N   0  0  0  0  0  4  0  0  0  0  0  0
  -31.0390  -16.5260   17.5710 H   0  0  0  0  0  0  0  0  0  0  0  0
  -32.0950  -16.4960   18.8060 H   0  0  0  0  0  0  0  0  0  0  0  0
  -32.0090  -18.2830   17.7570 C   0  0  0  0  0  2  0  0  0  0  0  0
  -33.0760  -17.9470   16.6990 C   0  0  0  0  0  2  0  0  0  0  0  0
  -34.5600  -18.8180   14.8140 C   0  0  0  0  0  1  0  0  0  0  0  0
  -33.5420  -19.1760   15.9030 C   0  0  0  0  0  3  0  0  0  0  0  0
  -34.1020  -20.0560   16.7320 F   0  0  0  0  0  0  0  0  0  0  0  0
  -30.4090  -19.4210   21.7530 C   0  0  0  0  0  2  0  0  0  0  0  0
  -29.3900  -20.5100   21.8140 N   0  0  0  0  0  4  0  0  0  0  0  0
  -29.1940  -20.7050   22.7830 H   0  0  0  0  0  0  0  0  0  0  0  0
  -28.5320  -20.1870   21.3960 H   0  0  0  0  0  0  0  0  0  0  0  0
  -29.8030  -21.7690   21.1240 C   0  0  0  0  0  2  0  0  0  0  0  0
  -28.9370  -23.0100   21.4800 C   0  0  0  0  0  2  0  0  0  0  0  0
  -29.2920  -24.3220   20.7140 C   0  0  0  0  0  2  0  0  0  0  0  0
  -28.3370  -25.4960   21.0590 C   0  0  0  0  0  2  0  0  0  0  0  0
  -28.5090  -26.6930   20.2700 O   0  0  0  0  0  0  0  0  0  0  0  0
  -24.6240  -31.8990   23.2110 C   0  0  0  0  0  0  0  0  0  0  0  0
  -27.3670  -27.4700   20.2030 C   0  0  0  0  0  0  0  0  0  0  0  0
  -23.4630  -30.4840   21.5460 C   0  0  0  0  0  3  0  0  0  0  0  0
  -24.9630  -28.9620   20.1450 C   0  0  0  0  0  0  0  0  0  0  0  0
  -25.9880  -30.8690   21.3950 C   0  0  0  0  0  2  0  0  0  0  0  0
  -26.1030  -29.4980   20.7580 C   0  0  0  0  0  0  0  0  0  0  0  0
  -27.3110  -28.7590   20.7830 C   0  0  0  0  0  3  0  0  0  0  0  0
  -26.2170  -26.9600   19.5640 C   0  0  0  0  0  3  0  0  0  0  0  0
  -25.0150  -27.6950   19.5400 C   0  0  0  0  0  3  0  0  0  0  0  0
  -23.7060  -29.8040   20.1710 C   0  0  0  0  0  2  0  0  0  0  0  0
  -24.7080  -31.0990   22.1090 N   0  0  0  0  0  0  0  0  0  0  0  0
  -23.5300  -32.1600   23.7330 O   0  0  0  0  0  0  0  0  0  0  0  0
  -22.8020  -29.4580   22.4950 C   0  0  0  0  0  0  0  0  0  0  0  0
  -21.4780  -29.2760   22.3550 N   0  0  0  0  0  0  0  0  0  0  0  0
  -23.4780  -28.8270   23.3120 O   0  0  0  0  0  0  0  0  0  0  0  0
  -20.9930  -29.8400   21.6720 H   0  0  0  0  0  0  0  0  0  0  0  0
  -18.0960  -28.0850   22.8160 C   0  0  0  0  0  0  0  0  0  0  0  0
  -20.6520  -28.3330   23.1100 C   0  0  0  0  0  3  0  0  0  0  0  0
  -20.7550  -26.9070   22.5210 C   0  0  0  0  0  2  0  0  0  0  0  0
  -19.6610  -26.5950   21.4960 C   0  0  0  0  0  2  0  0  0  0  0  0
  -18.2740  -26.7400   22.1300 C   0  0  0  0  0  2  0  0  0  0  0  0
  -19.2150  -28.8400   23.2590 C   0  0  0  0  0  0  0  0  0  0  0  0
  -18.9960  -30.0990   23.8560 C   0  0  0  0  0  3  0  0  0  0  0  0
  -17.6920  -30.6070   24.0140 C   0  0  0  0  0  3  0  0  0  0  0  0
  -16.5880  -29.8470   23.5910 C   0  0  0  0  0  3  0  0  0  0  0  0
  -16.7910  -28.5890   22.9960 C   0  0  0  0  0  3  0  0  0  0  0  0
  -25.8930  -32.5420   23.8540 C   0  0  0  0  0  3  0  0  0  0  0  0
  -26.4000  -31.7730   25.1340 C   0  0  1  0  0  0  0  0  0  0  0  0
  -25.2940  -31.5170   26.1860 C   0  0  0  0  0  1  0  0  0  0  0  0
  -27.0030  -30.4040   24.7430 C   0  0  0  0  0  1  0  0  0  0  0  0
  -27.5300  -32.5780   25.8170 C   0  0  0  0  0  1  0  0  0  0  0  0
  -25.5660  -33.9370   24.1820 N   0  0  0  0  0  0  0  0  0  0  0  0
  -25.8970  -34.9930   23.4270 C   0  0  0  0  0  0  0  0  0  0  0  0
  -26.5850  -34.8980   22.4060 O   0  0  0  0  0  0  0  0  0  0  0  0
  -24.9640  -34.0840   24.9790 H   0  0  0  0  0  0  0  0  0  0  0  0
  -24.1600  -36.7670   23.0410 C   0  0  0  0  0  1  0  0  0  0  0  0
  -25.3880  -36.3760   23.8760 C   0  0  0  0  0  3  0  0  0  0  0  0
  -27.4980  -37.2790   24.7480 C   0  0  0  0  0  1  0  0  0  0  0  0
  -26.4130  -37.4400   23.7830 N   0  0  0  0  0  0  0  0  0  0  0  0
  -25.9950  -38.3530   23.9270 H   0  0  0  0  0  0  0  0  0  0  0  0
  2 13  1  0
  3  8  1  0
  4  5  1  0
  4  3  1  0
  6  5  1  0
  6 17  1  0
  6  7  1  0
  8  2  1  0
  8  7  1  0
  9  2  2  0
 10 13  1  0
 11 42  1  0
 11 10  1  0
 11 12  1  0
 12  1  1  0
 13 12  1  0
 14 15  2  0
 15 34  1  0
 16 15  1  0
 16 19  1  0
 17 14  1  0
 17 18  1  0
 18 16  2  0
 19 20  1  0
 20 21  2  0
 22 25  1  0
 22 21  1  0
 23 22  2  0
 24 23  1  0
 24 19  2  0
 25 26  1  0
 26 27  1  0
 27 28  2  0
 29 28  1  0
 29 33  1  0
 30 29  2  0
 31 26  2  0
 31 30  1  0
 32 31  1  0
 34 35  1  0
 35 38  1  0
 35 37  1  0
 36 34  2  0
 39 40  1  0
 39 14  1  0
 41 39  1  0
 42 44  1  0
 43 42  1  0
 45 42  1  0
 46 45  1  0
 48 47  1  0
 48 46  1  0
 48 49  1  0
 50  1  1  0
 50 51  1  0
 51 52  1  0
 53 51  1  0
 54 55  1  0
 54 51  1  0
 56 57  1  0
 56 55  1  0
 58 57  1  0
 59 70  2  0
 60 58  1  0
 60 65  1  0
 61 69  1  0
 61 71  1  0
 62 68  1  0
 62 64  1  0
 63 69  1  0
 64 65  2  0
 64 63  1  0
 66 60  2  0
 67 66  1  0
 67 62  2  0
 68 61  1  0
 69 59  1  0
 71 73  2  0
 72 71  1  0
 74 72  1  0
 75 84  2  0
 75 80  1  0
 76 72  1  0
 76 80  1  0
 77 76  1  0
 78 79  1  0
 78 77  1  0
 79 75  1  0
 80 81  2  0
 81 82  1  0
 83 82  2  0
 84 83  1  0
 85 59  1  0
 85 90  1  0
 85 86  1  0
 86 89  1  1
 86 87  1  0
 88 86  1  0
 90 93  1  0
 91 95  1  0
 91 90  1  0
 92 91  2  0
 95 94  1  0
 97 95  1  0
 97 98  1  0
 97 96  1  0
M  ISO  4   2 100  13 100  57 101  58 101
M  END
>  <TORSDO>  (58) 
F 26

>  <SCORE>  (58) 
-11.777

>  <name>  (58) 
57

>  <ligand_id>  (58) 
57

>  <original_smiles>  (58) 
[H]c1c([H])c([H])c2c(c1[H])C([H])([H])C([H])([H])C([H])([H])C2([H])N([H])C(=O)C1([H])N(C(=O)C([H])(N([H])C(=O)C([H])(N([H])C([H])([H])[H])C([H])([H])[H])C(C([H])([H])[H])(C([H])([H])[H])C([H])([H])[H])C([H])([H])c2c([H])c(OC([H])([H])C([H])([H])C([H])([H])C([H])([H])[N+]([H])([H])C([H])([H])C([H])([H])C3([H])N(C(=O)N4C([H])([H])C([H])([H])C([H])([H])C([H])(n5nc(-c6c([H])c([H])c(Oc7c([H])c([H])c(F)c([H])c7F)c([H])c6[H])c(C(=O)N([H])[H])c5N([H])[H])C4([H])[H])C([H])([H])C3([H])[N+]([H])([H])C([H])([H])C([H])([H])C([H])(F)C([H])([H])[H])c([H])c([H])c2C1([H])[H]

>  <smiles>  (58) 
[H]c1c([H])c([H])c2c(c1[H])C([H])([H])C([H])([H])C([H])([H])C2([H])N([H])C(=O)C1([H])N(C(=O)C([H])(N([H])C(=O)C([H])(N([H])C([H])([H])[H])C([H])([H])[H])C(C([H])([H])[H])(C([H])([H])[H])C([H])([H])[H])C([H])([H])c2c([H])c(OC([H])([H])C([H])([H])C([H])([H])C([H])([H])[N+]([H])([H])C([H])([H])C([H])([H])C3([H])N(C(=O)N4C([H])([H])C([H])([H])C([H])([H])C([H])(n5nc(-c6c([H])c([H])c(Oc7c([H])c([H])c(F)c([H])c7F)c([H])c6[H])c(C(=O)N([H])[H])c5N([H])[H])C4([H])[H])C([H])([H])C3([H])[N+]([H])([H])C([H])([H])C([H])([H])C([H])(F)C([H])([H])[H])c([H])c([H])c2C1([H])[H]

$$$$
58:0:0
     RDKit          3D

 93100  0  0  1  0  0  0  0  0999 V2000
  -28.8600  -22.0920   20.1790 C   0  0  0  0  0  0  0  0  0  0  0  0
  -28.9730  -23.2440   20.8750 N   0  0  0  0  0  0  0  0  0  0  0  0
  -28.1190  -22.0360   19.1940 O   0  0  0  0  0  0  0  0  0  0  0  0
  -29.6140  -23.2040   21.6550 H   0  0  0  0  0  0  0  0  0  0  0  0
  -29.6340  -20.9370   20.7320 C   0  0  0  0  0  0  0  0  0  0  0  0
  -29.3360  -19.6400   20.3790 C   0  0  0  0  0  0  0  0  0  0  0  0
  -28.3800  -19.3240   19.4880 O   0  0  0  0  0  0  0  0  0  0  0  0
  -27.9980  -20.1430   19.1810 H   0  0  0  0  0  0  0  0  0  0  0  0
  -30.2820  -21.4110   23.1640 C   0  0  0  0  0  1  0  0  0  0  0  0
  -30.7740  -21.2260   21.7200 C   0  0  0  0  0  2  0  0  0  0  0  0
  -29.9820  -18.3330   20.9340 C   0  0  0  0  0  2  0  0  0  0  0  0
  -30.1640  -17.1170   19.9590 C   0  0  0  0  0  2  0  0  0  0  0  0
  -30.8730  -14.7180   20.3010 C   0  0  0  0  0  0  0  0  0  0  0  0
  -30.6380  -12.4770   19.3050 C   0  0  0  0  0  2  0  0  0  0  0  0
  -29.7010  -12.6170   18.0860 C   0  0  0  0  0  2  0  0  0  0  0  0
  -28.2250  -12.4870   18.5110 C   0  0  0  0  0  2  0  0  0  0  0  0
  -27.8720  -13.3700   19.7390 C   0  0  0  0  0  3  0  0  0  0  0  0
  -28.9270  -13.2150   20.8600 C   0  0  0  0  0  2  0  0  0  0  0  0
  -30.2490  -13.5080   20.2830 N   0  0  0  0  0  0  0  0  0  0  0  0
  -32.0140  -14.8830   19.8580 O   0  0  0  0  0  0  0  0  0  0  0  0
  -30.0760  -15.7730   20.5890 N   0  0  0  0  0  0  0  0  0  0  0  0
  -29.1780  -15.5270   20.9780 H   0  0  0  0  0  0  0  0  0  0  0  0
  -25.4830  -13.9910   20.4660 C   0  0  0  0  0  0  0  0  0  0  0  0
  -24.4120  -13.2260   20.8390 C   0  0  0  0  0  0  0  0  0  0  0  0
  -24.8640  -11.8710   20.8010 C   0  0  0  0  0  0  0  0  0  0  0  0
  -26.5210  -13.1030   20.2240 N   0  0  0  0  0  0  0  0  0  0  0  0
  -26.1510  -11.8230   20.4850 N   0  0  0  0  0  0  0  0  0  0  0  0
  -24.1300  -10.6140   20.9910 C   0  0  0  0  0  0  0  0  0  0  0  0
  -24.5440   -9.6530   21.9410 C   0  0  0  0  0  3  0  0  0  0  0  0
  -23.8110   -8.4600   22.1180 C   0  0  0  0  0  3  0  0  0  0  0  0
  -22.6500   -8.2190   21.3460 C   0  0  0  0  0  0  0  0  0  0  0  0
  -22.2560   -9.1670   20.3850 C   0  0  0  0  0  3  0  0  0  0  0  0
  -22.9900  -10.3520   20.2060 C   0  0  0  0  0  3  0  0  0  0  0  0
  -21.8910   -7.0780   21.4310 O   0  0  0  0  0  0  0  0  0  0  0  0
  -21.7960   -6.3610   22.5980 C   0  0  0  0  0  0  0  0  0  0  0  0
  -21.3170   -6.9420   23.7930 C   0  0  0  0  0  3  0  0  0  0  0  0
  -21.1710   -6.1500   24.9500 C   0  0  0  0  0  3  0  0  0  0  0  0
  -21.4950   -4.7810   24.9130 C   0  0  0  0  0  0  0  0  0  0  0  0
  -21.9690   -4.2000   23.7240 C   0  0  0  0  0  3  0  0  0  0  0  0
  -22.1160   -4.9890   22.5680 C   0  0  0  0  0  0  0  0  0  0  0  0
  -22.5510   -4.4200   21.4190 F   0  0  0  0  0  0  0  0  0  0  0  0
  -21.3480   -4.0200   26.0230 F   0  0  0  0  0  0  0  0  0  0  0  0
  -23.0210  -13.7130   21.1230 C   0  0  0  0  0  0  0  0  0  0  0  0
  -22.2960  -13.0220   21.9980 N   0  0  0  0  0  0  0  0  0  0  0  0
  -22.5840  -14.7410   20.6070 O   0  0  0  0  0  0  0  0  0  0  0  0
  -22.6630  -12.1900   22.4360 H   0  0  0  0  0  0  0  0  0  0  0  0
  -21.3640  -13.3290   22.2320 H   0  0  0  0  0  0  0  0  0  0  0  0
  -25.6560  -15.3610   20.2930 N   0  0  0  0  0  0  0  0  0  0  0  0
  -24.8910  -16.0170   20.4130 H   0  0  0  0  0  0  0  0  0  0  0  0
  -26.5010  -15.7980   19.9460 H   0  0  0  0  0  0  0  0  0  0  0  0
  -28.1370  -24.4670   20.8080 C   0  0  0  0  0  2  0  0  0  0  0  0
  -28.4300  -25.4550   19.6420 C   0  0  0  0  0  2  0  0  0  0  0  0
  -28.3630  -26.8580   19.9980 O   0  0  0  0  0  0  0  0  0  0  0  0
  -24.5610  -31.9520   23.2210 C   0  0  0  0  0  0  0  0  0  0  0  0
  -27.1680  -27.5620   20.0010 C   0  0  0  0  0  0  0  0  0  0  0  0
  -23.3300  -30.5770   21.5750 C   0  0  0  0  0  3  0  0  0  0  0  0
  -24.7630  -29.0720   20.0880 C   0  0  0  0  0  0  0  0  0  0  0  0
  -25.8500  -30.9480   21.3340 C   0  0  0  0  0  2  0  0  0  0  0  0
  -25.9300  -29.5870   20.6640 C   0  0  0  0  0  0  0  0  0  0  0  0
  -27.1310  -28.8410   20.6140 C   0  0  0  0  0  3  0  0  0  0  0  0
  -25.9800  -27.0670   19.4190 C   0  0  0  0  0  3  0  0  0  0  0  0
  -24.7840  -27.8140   19.4620 C   0  0  0  0  0  3  0  0  0  0  0  0
  -23.5160  -29.9250   20.1770 C   0  0  0  0  0  2  0  0  0  0  0  0
  -24.5990  -31.1740   22.1020 N   0  0  0  0  0  0  0  0  0  0  0  0
  -23.4890  -32.2050   23.7900 O   0  0  0  0  0  0  0  0  0  0  0  0
  -22.7030  -29.5320   22.5270 C   0  0  0  0  0  0  0  0  0  0  0  0
  -21.3890  -29.3020   22.3820 N   0  0  0  0  0  0  0  0  0  0  0  0
  -23.3970  -28.9330   23.3520 O   0  0  0  0  0  0  0  0  0  0  0  0
  -20.8880  -29.8400   21.6890 H   0  0  0  0  0  0  0  0  0  0  0  0
  -18.0720  -27.9170   22.7670 C   0  0  0  0  0  0  0  0  0  0  0  0
  -20.5970  -28.3340   23.1410 C   0  0  0  0  0  3  0  0  0  0  0  0
  -20.8090  -26.8990   22.6020 C   0  0  0  0  0  2  0  0  0  0  0  0
  -19.7730  -26.4900   21.5510 C   0  0  0  0  0  2  0  0  0  0  0  0
  -18.3570  -26.5670   22.1320 C   0  0  0  0  0  2  0  0  0  0  0  0
  -19.1250  -28.7530   23.2260 C   0  0  0  0  0  0  0  0  0  0  0  0
  -18.8070  -30.0150   23.7770 C   0  0  0  0  0  3  0  0  0  0  0  0
  -17.4690  -30.4410   23.8740 C   0  0  0  0  0  3  0  0  0  0  0  0
  -16.4300  -29.6020   23.4340 C   0  0  0  0  0  3  0  0  0  0  0  0
  -16.7330  -28.3430   22.8860 C   0  0  0  0  0  3  0  0  0  0  0  0
  -25.8550  -32.5760   23.8300 C   0  0  0  0  0  3  0  0  0  0  0  0
  -25.5550  -33.9760   24.1660 N   0  0  0  0  0  0  0  0  0  0  0  0
  -25.8990  -35.0290   23.4130 C   0  0  0  0  0  0  0  0  0  0  0  0
  -26.5740  -34.9260   22.3850 O   0  0  0  0  0  0  0  0  0  0  0  0
  -24.9590  -34.1310   24.9650 H   0  0  0  0  0  0  0  0  0  0  0  0
  -24.1860  -36.8360   23.0580 C   0  0  0  0  0  1  0  0  0  0  0  0
  -25.4190  -36.4190   23.8750 C   0  0  0  0  0  3  0  0  0  0  0  0
  -27.5550  -37.2830   24.7250 C   0  0  0  0  0  1  0  0  0  0  0  0
  -26.4610  -37.4640   23.7730 N   0  0  0  0  0  0  0  0  0  0  0  0
  -26.0610  -38.3870   23.9230 H   0  0  0  0  0  0  0  0  0  0  0  0
  -26.3850  -31.8000   25.0980 C   0  0  1  0  0  0  0  0  0  0  0  0
  -25.3050  -31.5620   26.1780 C   0  0  0  0  0  1  0  0  0  0  0  0
  -26.9590  -30.4230   24.6910 C   0  0  0  0  0  1  0  0  0  0  0  0
  -27.5470  -32.5890   25.7480 C   0  0  0  0  0  1  0  0  0  0  0  0
  1  5  1  0
  1  2  1  0
  2  4  1  0
  3  1  2  0
  5 10  1  0
  6  5  2  0
  6 11  1  0
  7  6  1  0
  8  7  1  0
 10  9  1  0
 12 21  1  0
 12 11  1  0
 13 21  1  0
 14 19  1  0
 15 16  1  0
 15 14  1  0
 17 16  1  0
 17 26  1  0
 17 18  1  0
 19 13  1  0
 19 18  1  0
 20 13  2  0
 21 22  1  0
 23 24  2  0
 24 43  1  0
 25 24  1  0
 25 28  1  0
 26 23  1  0
 26 27  1  0
 27 25  2  0
 28 29  1  0
 29 30  2  0
 31 34  1  0
 31 30  1  0
 32 31  2  0
 33 32  1  0
 33 28  2  0
 34 35  1  0
 35 36  1  0
 36 37  2  0
 38 37  1  0
 38 42  1  0
 39 38  2  0
 40 35  2  0
 40 39  1  0
 41 40  1  0
 43 44  1  0
 44 47  1  0
 44 46  1  0
 45 43  2  0
 48 49  1  0
 48 23  1  0
 50 48  1  0
 51  2  1  0
 52 53  1  0
 52 51  1  0
 53 55  1  0
 54 65  2  0
 55 60  1  0
 56 64  1  0
 56 66  1  0
 57 63  1  0
 57 59  1  0
 58 64  1  0
 59 58  1  0
 60 59  2  0
 61 62  1  0
 61 55  2  0
 62 57  2  0
 63 56  1  0
 64 54  1  0
 66 68  2  0
 67 66  1  0
 69 67  1  0
 70 79  2  0
 70 75  1  0
 71 67  1  0
 71 75  1  0
 72 71  1  0
 73 74  1  0
 73 72  1  0
 74 70  1  0
 75 76  2  0
 76 77  1  0
 78 77  2  0
 79 78  1  0
 80 54  1  0
 80 81  1  0
 80 90  1  0
 81 84  1  0
 82 86  1  0
 82 81  1  0
 83 82  2  0
 86 85  1  0
 88 86  1  0
 88 89  1  0
 88 87  1  0
 90 93  1  1
 90 91  1  0
 92 90  1  0
M  ISO  4  13 100  21 100  52 101  53 101
M  END
>  <TORSDO>  (59) 
F 23

>  <SCORE>  (59) 
-12.980

>  <name>  (59) 
58

>  <ligand_id>  (59) 
58

>  <original_smiles>  (59) 
[H]OC(=C(C(=O)N([H])C([H])([H])C([H])([H])Oc1c([H])c([H])c2c(c1[H])C([H])([H])N(C(=O)C([H])(N([H])C(=O)C([H])(N([H])C([H])([H])[H])C([H])([H])[H])C(C([H])([H])[H])(C([H])([H])[H])C([H])([H])[H])C([H])(C(=O)N([H])C1([H])c3c([H])c([H])c([H])c([H])c3C([H])([H])C([H])([H])C1([H])[H])C2([H])[H])C([H])([H])C([H])([H])[H])C([H])([H])C([H])([H])N([H])C(=O)N1C([H])([H])C([H])([H])C([H])([H])C([H])(n2nc(-c3c([H])c([H])c(Oc4c([H])c([H])c(F)c([H])c4F)c([H])c3[H])c(C(=O)N([H])[H])c2N([H])[H])C1([H])[H]

>  <smiles>  (59) 
[H]OC(=C(C(=O)N([H])C([H])([H])C([H])([H])Oc1c([H])c([H])c2c(c1[H])C([H])([H])N(C(=O)C([H])(N([H])C(=O)C([H])(N([H])C([H])([H])[H])C([H])([H])[H])C(C([H])([H])[H])(C([H])([H])[H])C([H])([H])[H])C([H])(C(=O)N([H])C1([H])c3c([H])c([H])c([H])c([H])c3C([H])([H])C([H])([H])C1([H])[H])C2([H])[H])C([H])([H])C([H])([H])[H])C([H])([H])C([H])([H])N([H])C(=O)N1C([H])([H])C([H])([H])C([H])([H])C([H])(n2nc(-c3c([H])c([H])c(Oc4c([H])c([H])c(F)c([H])c4F)c([H])c3[H])c(C(=O)N([H])[H])c2N([H])[H])C1([H])[H]

$$$$
59:0:0
     RDKit          3D

 96104  0  0  1  0  0  0  0  0999 V2000
  -29.9990  -18.6260   21.8120 C   0  0  0  0  0  2  0  0  0  0  0  0
  -29.9750  -19.6100   22.9940 C   0  0  0  0  0  2  0  0  0  0  0  0
  -32.5500  -18.6480   21.9690 C   0  0  0  0  0  2  0  0  0  0  0  0
  -31.2790  -17.7660   21.8300 C   0  0  0  0  0  3  0  0  0  0  0  0
  -31.2630  -20.4610   23.0740 C   0  0  0  0  0  3  0  0  0  0  0  0
  -32.4520  -19.5810   23.1140 N   0  0  0  0  0  4  0  0  0  0  0  0
  -33.2840  -20.1460   23.1580 H   0  0  0  0  0  0  0  0  0  0  0  0
  -32.4210  -19.0410   23.9640 H   0  0  0  0  0  0  0  0  0  0  0  0
  -31.0070  -15.5450   20.5850 C   0  0  0  0  0  3  0  0  0  0  0  0
  -31.3300  -16.8590   20.6040 C   0  0  0  0  0  0  0  0  0  0  0  0
  -31.1170  -14.7310   19.3750 C   0  0  0  0  0  0  0  0  0  0  0  0
  -30.4850  -12.6530   18.2050 C   0  0  0  0  0  2  0  0  0  0  0  0
  -29.3570  -12.8820   17.1850 C   0  0  0  0  0  2  0  0  0  0  0  0
  -27.9870  -12.7370   17.8660 C   0  0  0  0  0  2  0  0  0  0  0  0
  -27.8800  -13.5800   19.1630 C   0  0  0  0  0  3  0  0  0  0  0  0
  -29.1040  -13.3550   20.0800 C   0  0  0  0  0  2  0  0  0  0  0  0
  -30.3310  -13.6220   19.3060 N   0  0  0  0  0  0  0  0  0  0  0  0
  -31.9330  -15.0080   18.4880 O   0  0  0  0  0  0  0  0  0  0  0  0
  -25.6970  -14.2050   20.3830 C   0  0  0  0  0  0  0  0  0  0  0  0
  -24.6760  -13.4410   20.8790 C   0  0  0  0  0  0  0  0  0  0  0  0
  -25.0390  -12.0830   20.6220 C   0  0  0  0  0  0  0  0  0  0  0  0
  -26.6260  -13.3140   19.8670 N   0  0  0  0  0  0  0  0  0  0  0  0
  -26.2400  -12.0260   20.0620 N   0  0  0  0  0  0  0  0  0  0  0  0
  -24.2860  -10.8370   20.8240 C   0  0  0  0  0  0  0  0  0  0  0  0
  -24.7660   -9.8140   21.6710 C   0  0  0  0  0  3  0  0  0  0  0  0
  -24.0140   -8.6350   21.8640 C   0  0  0  0  0  3  0  0  0  0  0  0
  -22.7710   -8.4700   21.2070 C   0  0  0  0  0  0  0  0  0  0  0  0
  -22.3090   -9.4830   20.3490 C   0  0  0  0  0  3  0  0  0  0  0  0
  -23.0590  -10.6530   20.1550 C   0  0  0  0  0  3  0  0  0  0  0  0
  -21.9850   -7.3480   21.3140 O   0  0  0  0  0  0  0  0  0  0  0  0
  -21.9350   -6.6110   22.4700 C   0  0  0  0  0  0  0  0  0  0  0  0
  -21.4620   -7.1600   23.6820 C   0  0  0  0  0  3  0  0  0  0  0  0
  -21.3610   -6.3500   24.8310 C   0  0  0  0  0  3  0  0  0  0  0  0
  -21.7210   -4.9900   24.7680 C   0  0  0  0  0  0  0  0  0  0  0  0
  -22.1850   -4.4400   23.5600 C   0  0  0  0  0  3  0  0  0  0  0  0
  -22.2900   -5.2480   22.4140 C   0  0  0  0  0  0  0  0  0  0  0  0
  -22.7180   -4.7070   21.2490 F   0  0  0  0  0  0  0  0  0  0  0  0
  -21.6160   -4.2090   25.8680 F   0  0  0  0  0  0  0  0  0  0  0  0
  -23.3900  -13.9410   21.4750 C   0  0  0  0  0  0  0  0  0  0  0  0
  -22.8090  -13.1870   22.4020 N   0  0  0  0  0  0  0  0  0  0  0  0
  -22.9170  -15.0300   21.1530 O   0  0  0  0  0  0  0  0  0  0  0  0
  -23.2100  -12.3030   22.6780 H   0  0  0  0  0  0  0  0  0  0  0  0
  -21.9540  -13.4970   22.8390 H   0  0  0  0  0  0  0  0  0  0  0  0
  -25.9060  -15.5800   20.3070 N   0  0  0  0  0  0  0  0  0  0  0  0
  -25.1990  -16.2480   20.5910 H   0  0  0  0  0  0  0  0  0  0  0  0
  -26.6900  -16.0100   19.8340 H   0  0  0  0  0  0  0  0  0  0  0  0
  -31.7570  -17.5530   19.5330 O   0  0  0  0  0  0  0  0  0  0  0  0
  -31.8490  -16.9340   18.8150 H   0  0  0  0  0  0  0  0  0  0  0  0
  -31.3610  -21.5120   21.9370 C   0  0  0  0  0  2  0  0  0  0  0  0
  -30.3980  -22.5890   22.1380 N   0  0  0  0  0  0  0  0  0  0  0  0
  -30.6610  -23.1360   22.9550 H   0  0  0  0  0  0  0  0  0  0  0  0
  -30.3330  -23.4440   20.9600 C   0  0  0  0  0  2  0  0  0  0  0  0
  -29.3910  -24.6200   21.2470 C   0  0  0  0  0  2  0  0  0  0  0  0
  -29.0510  -25.4290   19.9850 C   0  0  0  0  0  2  0  0  0  0  0  0
  -28.2780  -26.7160   20.3040 C   0  0  0  0  0  2  0  0  0  0  0  0
  -27.5540  -27.1190   19.1480 O   0  0  0  0  0  0  0  0  0  0  0  0
  -24.4530  -31.9570   23.3470 C   0  0  0  0  0  0  0  0  0  0  0  0
  -26.4500  -27.8820   19.4270 C   0  0  0  0  0  0  0  0  0  0  0  0
  -22.9610  -30.7790   21.7610 C   0  0  0  0  0  3  0  0  0  0  0  0
  -24.1310  -29.3880   19.9680 C   0  0  0  0  0  0  0  0  0  0  0  0
  -25.4360  -31.1160   21.2220 C   0  0  0  0  0  2  0  0  0  0  0  0
  -25.3770  -29.8260   20.4360 C   0  0  0  0  0  0  0  0  0  0  0  0
  -26.5390  -29.0750   20.1740 C   0  0  0  0  0  3  0  0  0  0  0  0
  -25.1950  -27.4510   18.9510 C   0  0  0  0  0  3  0  0  0  0  0  0
  -24.0320  -28.1960   19.2280 C   0  0  0  0  0  3  0  0  0  0  0  0
  -22.9370  -30.2550   20.2990 C   0  0  0  0  0  2  0  0  0  0  0  0
  -24.3100  -31.2920   22.1660 N   0  0  0  0  0  0  0  0  0  0  0  0
  -23.4780  -32.1880   24.0730 O   0  0  0  0  0  0  0  0  0  0  0  0
  -22.4240  -29.6680   22.6900 C   0  0  0  0  0  0  0  0  0  0  0  0
  -21.1330  -29.3330   22.5330 N   0  0  0  0  0  0  0  0  0  0  0  0
  -23.1650  -29.1110   23.5050 O   0  0  0  0  0  0  0  0  0  0  0  0
  -20.5920  -29.8430   21.8490 H   0  0  0  0  0  0  0  0  0  0  0  0
  -18.0130  -27.5240   22.7230 C   0  0  0  0  0  0  0  0  0  0  0  0
  -20.4200  -28.2910   23.2690 C   0  0  0  0  0  3  0  0  0  0  0  0
  -20.8630  -26.8830   22.8080 C   0  0  0  0  0  2  0  0  0  0  0  0
  -19.9790  -26.3040   21.6990 C   0  0  0  0  0  2  0  0  0  0  0  0
  -18.5250  -26.2050   22.1680 C   0  0  0  0  0  2  0  0  0  0  0  0
  -18.9030  -28.5100   23.2250 C   0  0  0  0  0  0  0  0  0  0  0  0
  -18.3770  -29.7330   23.6940 C   0  0  0  0  0  3  0  0  0  0  0  0
  -16.9920  -29.9770   23.6720 C   0  0  0  0  0  3  0  0  0  0  0  0
  -16.1130  -28.9920   23.1890 C   0  0  0  0  0  3  0  0  0  0  0  0
  -16.6240  -27.7690   22.7200 C   0  0  0  0  0  3  0  0  0  0  0  0
  -25.8430  -32.4810   23.8300 C   0  0  0  0  0  3  0  0  0  0  0  0
  -25.6710  -33.8830   24.2310 N   0  0  0  0  0  0  0  0  0  0  0  0
  -26.0160  -34.9370   23.4780 C   0  0  0  0  0  0  0  0  0  0  0  0
  -26.5860  -34.8240   22.3890 O   0  0  0  0  0  0  0  0  0  0  0  0
  -25.1600  -34.0500   25.0860 H   0  0  0  0  0  0  0  0  0  0  0  0
  -24.4080  -36.8620   23.3230 C   0  0  0  0  0  1  0  0  0  0  0  0
  -25.6730  -36.3370   24.0200 C   0  0  0  0  0  3  0  0  0  0  0  0
  -27.9190  -37.0370   24.7230 C   0  0  0  0  0  1  0  0  0  0  0  0
  -26.7720  -37.3150   23.8620 N   0  0  0  0  0  0  0  0  0  0  0  0
  -26.4460  -38.2560   24.0620 H   0  0  0  0  0  0  0  0  0  0  0  0
  -26.4540  -31.6300   25.0110 C   0  0  1  0  0  0  0  0  0  0  0  0
  -25.4740  -31.4040   26.1850 C   0  0  0  0  0  1  0  0  0  0  0  0
  -26.9090  -30.2430   24.5020 C   0  0  0  0  0  1  0  0  0  0  0  0
  -27.7150  -32.3330   25.5650 C   0  0  0  0  0  1  0  0  0  0  0  0
  1  4  1  0
  1  2  1  0
  2  5  1  0
  3  6  1  0
  4 10  1  0
  4  3  1  0
  5 49  1  0
  5  6  1  0
  6  7  1  0
  6  8  1  0
  9 10  2  0
 11  9  1  0
 12 17  1  0
 13 14  1  0
 13 12  1  0
 15 14  1  0
 15 22  1  0
 15 16  1  0
 17 11  1  0
 17 16  1  0
 18 11  2  0
 19 20  2  0
 20 39  1  0
 21 24  1  0
 21 20  1  0
 22 23  1  0
 22 19  1  0
 23 21  2  0
 24 25  1  0
 25 26  2  0
 27 30  1  0
 27 26  1  0
 28 27  2  0
 29 28  1  0
 29 24  2  0
 30 31  1  0
 31 32  1  0
 32 33  2  0
 34 33  1  0
 34 38  1  0
 35 34  2  0
 36 31  2  0
 36 35  1  0
 37 36  1  0
 39 40  1  0
 40 42  1  0
 40 43  1  0
 41 39  2  0
 44 19  1  0
 44 45  1  0
 46 44  1  0
 47 10  1  0
 48 47  1  0
 49 50  1  0
 50 51  1  0
 52 53  1  0
 52 50  1  0
 54 55  1  0
 54 53  1  0
 56 58  1  0
 56 55  1  0
 57 68  2  0
 58 63  1  0
 59 67  1  0
 59 69  1  0
 60 66  1  0
 60 62  1  0
 61 67  1  0
 62 61  1  0
 63 62  2  0
 64 65  1  0
 64 58  2  0
 65 60  2  0
 66 59  1  0
 67 57  1  0
 69 71  2  0
 70 69  1  0
 72 70  1  0
 73 78  1  0
 74 70  1  0
 75 74  1  0
 76 77  1  0
 76 75  1  0
 77 73  1  0
 78 74  1  0
 78 79  2  0
 80 79  1  0
 81 80  2  0
 82 73  2  0
 82 81  1  0
 83 57  1  0
 83 84  1  0
 83 93  1  0
 84 87  1  0
 85 89  1  0
 85 84  1  0
 86 85  2  0
 89 88  1  0
 91 89  1  0
 91 92  1  0
 91 90  1  0
 93 96  1  1
 93 94  1  0
 95 93  1  0
M  ISO  4   9 100  11 100  55 101  56 101
M  END
>  <TORSDO>  (60) 
F 24

>  <SCORE>  (60) 
-8.281

>  <name>  (60) 
59

>  <ligand_id>  (60) 
59

>  <original_smiles>  (60) 
[H]OC(=C([H])C(=O)N1C([H])([H])C([H])([H])C([H])([H])C([H])(n2nc(-c3c([H])c([H])c(Oc4c([H])c([H])c(F)c([H])c4F)c([H])c3[H])c(C(=O)N([H])[H])c2N([H])[H])C1([H])[H])C1([H])C([H])([H])C([H])([H])C([H])(C([H])([H])N([H])C([H])([H])C([H])([H])C([H])([H])C([H])([H])Oc2c([H])c([H])c3c(c2[H])C([H])([H])N(C(=O)C([H])(N([H])C(=O)C([H])(N([H])C([H])([H])[H])C([H])([H])[H])C(C([H])([H])[H])(C([H])([H])[H])C([H])([H])[H])C([H])(C(=O)N([H])C2([H])c4c([H])c([H])c([H])c([H])c4C([H])([H])C([H])([H])C2([H])[H])C3([H])[H])[N+]([H])([H])C1([H])[H]

>  <smiles>  (60) 
[H]OC(=C([H])C(=O)N1C([H])([H])C([H])([H])C([H])([H])C([H])(n2nc(-c3c([H])c([H])c(Oc4c([H])c([H])c(F)c([H])c4F)c([H])c3[H])c(C(=O)N([H])[H])c2N([H])[H])C1([H])[H])C1([H])C([H])([H])C([H])([H])C([H])(C([H])([H])N([H])C([H])([H])C([H])([H])C([H])([H])C([H])([H])Oc2c([H])c([H])c3c(c2[H])C([H])([H])N(C(=O)C([H])(N([H])C(=O)C([H])(N([H])C([H])([H])[H])C([H])([H])[H])C(C([H])([H])[H])(C([H])([H])[H])C([H])([H])[H])C([H])(C(=O)N([H])C2([H])c4c([H])c([H])c([H])c([H])c4C([H])([H])C([H])([H])C2([H])[H])C3([H])[H])[N+]([H])([H])C1([H])[H]

$$$$
60:0:0
     RDKit          3D

 94102  0  0  1  0  0  0  0  0999 V2000
  -29.7270  -20.2100   19.8170 C   0  0  0  0  0  2  0  0  0  0  0  0
  -27.9080  -17.3270   18.1570 C   0  0  0  0  0  2  0  0  0  0  0  0
  -28.8030  -18.5820   18.0730 C   0  0  0  0  0  2  0  0  0  0  0  0
  -27.5490  -17.1850   19.6520 C   0  0  0  0  0  3  0  0  0  0  0  0
  -28.7030  -17.9300   20.3680 C   0  0  0  0  0  3  0  0  0  0  0  0
  -28.8320  -19.0900   19.4580 N   0  0  1  0  0  4  0  0  0  0  0  0
  -27.9300  -19.5380   19.5130 H   0  0  0  0  0  0  0  0  0  0  0  0
  -24.9320  -17.1070   19.6550 C   0  0  0  0  0  1  0  0  0  0  0  0
  -26.2040  -17.8910   19.9970 C   0  0  0  0  0  2  0  0  0  0  0  0
  -30.0340  -17.1080   20.5210 C   0  0  0  0  0  2  0  0  0  0  0  0
  -30.7420  -14.7790   21.0240 C   0  0  0  0  0  0  0  0  0  0  0  0
  -30.6140  -12.6890   19.7850 C   0  0  0  0  0  2  0  0  0  0  0  0
  -29.6720  -12.9670   18.5890 C   0  0  0  0  0  2  0  0  0  0  0  0
  -28.1880  -12.7650   18.9870 C   0  0  0  0  0  2  0  0  0  0  0  0
  -27.7910  -13.4540   20.3220 C   0  0  0  0  0  3  0  0  0  0  0  0
  -28.8520  -13.1810   21.4190 C   0  0  0  0  0  2  0  0  0  0  0  0
  -30.1730  -13.5560   20.8860 N   0  0  0  0  0  0  0  0  0  0  0  0
  -31.9160  -15.0330   20.7490 O   0  0  0  0  0  0  0  0  0  0  0  0
  -29.8370  -15.7660   21.0930 N   0  0  0  0  0  0  0  0  0  0  0  0
  -28.8990  -15.4750   21.3130 H   0  0  0  0  0  0  0  0  0  0  0  0
  -25.3320  -13.9040   20.9460 C   0  0  0  0  0  0  0  0  0  0  0  0
  -24.2920  -13.0600   21.2300 C   0  0  0  0  0  0  0  0  0  0  0  0
  -24.8310  -11.7460   21.1290 C   0  0  0  0  0  0  0  0  0  0  0  0
  -26.4370  -13.0910   20.7180 N   0  0  0  0  0  0  0  0  0  0  0  0
  -26.1360  -11.7840   20.8940 N   0  0  0  0  0  0  0  0  0  0  0  0
  -24.1640  -10.4450   21.2210 C   0  0  0  0  0  0  0  0  0  0  0  0
  -24.5690   -9.4850   22.1710 C   0  0  0  0  0  3  0  0  0  0  0  0
  -23.8970   -8.2480   22.2620 C   0  0  0  0  0  3  0  0  0  0  0  0
  -22.8080   -7.9700   21.4060 C   0  0  0  0  0  0  0  0  0  0  0  0
  -22.4110   -8.9300   20.4600 C   0  0  0  0  0  3  0  0  0  0  0  0
  -23.0870  -10.1550   20.3630 C   0  0  0  0  0  3  0  0  0  0  0  0
  -22.1130   -6.7840   21.4000 O   0  0  0  0  0  0  0  0  0  0  0  0
  -21.9490   -6.0460   22.5410 C   0  0  0  0  0  0  0  0  0  0  0  0
  -21.3300   -6.5800   23.6920 C   0  0  0  0  0  3  0  0  0  0  0  0
  -21.1160   -5.7610   24.8200 C   0  0  0  0  0  3  0  0  0  0  0  0
  -21.5180   -4.4110   24.7970 C   0  0  0  0  0  0  0  0  0  0  0  0
  -22.1390   -3.8800   23.6510 C   0  0  0  0  0  3  0  0  0  0  0  0
  -22.3440   -4.6940   22.5220 C   0  0  0  0  0  0  0  0  0  0  0  0
  -22.9160   -4.1680   21.4140 F   0  0  0  0  0  0  0  0  0  0  0  0
  -21.3040   -3.6250   25.8740 F   0  0  0  0  0  0  0  0  0  0  0  0
  -22.8610  -13.4610   21.4570 C   0  0  0  0  0  0  0  0  0  0  0  0
  -22.1300  -12.7070   22.2690 N   0  0  0  0  0  0  0  0  0  0  0  0
  -22.4030  -14.4840   20.9490 O   0  0  0  0  0  0  0  0  0  0  0  0
  -22.5180  -11.8930   22.7230 H   0  0  0  0  0  0  0  0  0  0  0  0
  -21.1830  -12.9810   22.4870 H   0  0  0  0  0  0  0  0  0  0  0  0
  -25.3980  -15.2820   20.8710 N   0  0  0  0  0  0  0  0  0  0  0  0
  -24.4930  -15.7470   20.9090 H   0  0  0  0  0  0  0  0  0  0  0  0
  -26.0470  -15.7200   20.2360 H   0  0  0  0  0  0  0  0  0  0  0  0
  -28.9880  -21.1320   20.8190 C   0  0  0  0  0  2  0  0  0  0  0  0
  -29.6770  -22.4650   21.1470 C   0  0  0  0  0  2  0  0  0  0  0  0
  -29.5940  -23.5060   20.0090 C   0  0  0  0  0  2  0  0  0  0  0  0
  -29.4690  -24.9370   20.5590 C   0  0  0  0  0  2  0  0  0  0  0  0
  -29.4450  -26.0350   19.4910 C   0  0  0  0  0  2  0  0  0  0  0  0
  -29.1890  -27.2770   20.1470 O   0  0  0  0  0  0  0  0  0  0  0  0
  -24.9280  -31.9790   23.3750 C   0  0  0  0  0  0  0  0  0  0  0  0
  -27.9140  -27.8070   20.2010 C   0  0  0  0  0  0  0  0  0  0  0  0
  -23.8440  -30.5230   21.7190 C   0  0  0  0  0  3  0  0  0  0  0  0
  -25.3910  -29.0980   20.2810 C   0  0  0  0  0  0  0  0  0  0  0  0
  -26.3320  -31.0560   21.5360 C   0  0  0  0  0  2  0  0  0  0  0  0
  -26.5090  -29.7110   20.8620 C   0  0  0  0  0  0  0  0  0  0  0  0
  -27.7650  -29.0680   20.8210 C   0  0  0  0  0  3  0  0  0  0  0  0
  -26.7620  -27.1780   19.6620 C   0  0  0  0  0  3  0  0  0  0  0  0
  -25.5090  -27.8240   19.6980 C   0  0  0  0  0  3  0  0  0  0  0  0
  -24.0930  -29.8610   20.3340 C   0  0  0  0  0  2  0  0  0  0  0  0
  -25.0540  -31.1980   22.2680 N   0  0  0  0  0  0  0  0  0  0  0  0
  -23.8240  -32.1630   23.9070 O   0  0  0  0  0  0  0  0  0  0  0  0
  -23.2600  -29.4530   22.6650 C   0  0  0  0  0  0  0  0  0  0  0  0
  -21.9610  -29.2540   22.4760 N   0  0  0  0  0  0  0  0  0  0  0  0
  -23.9520  -28.8250   23.4670 O   0  0  0  0  0  0  0  0  0  0  0  0
  -21.5220  -29.9050   21.8400 H   0  0  0  0  0  0  0  0  0  0  0  0
  -18.6750  -27.4910   22.7430 C   0  0  0  0  0  0  0  0  0  0  0  0
  -21.0990  -28.1510   22.8160 C   0  0  0  0  0  3  0  0  0  0  0  0
  -21.5250  -26.6900   22.6360 C   0  0  0  0  0  2  0  0  0  0  0  0
  -20.5200  -25.9990   21.6850 C   0  0  0  0  0  2  0  0  0  0  0  0
  -19.0590  -26.1320   22.1660 C   0  0  0  0  0  2  0  0  0  0  0  0
  -19.6560  -28.4210   23.1600 C   0  0  0  0  0  0  0  0  0  0  0  0
  -19.2720  -29.6520   23.7200 C   0  0  0  0  0  3  0  0  0  0  0  0
  -17.9120  -29.9930   23.8100 C   0  0  0  0  0  3  0  0  0  0  0  0
  -16.9330  -29.0900   23.3590 C   0  0  0  0  0  3  0  0  0  0  0  0
  -17.3150  -27.8360   22.8500 C   0  0  0  0  0  3  0  0  0  0  0  0
  -26.1600  -32.6860   24.0140 C   0  0  0  0  0  3  0  0  0  0  0  0
  -25.7710  -34.0730   24.3050 N   0  0  0  0  0  0  0  0  0  0  0  0
  -26.0710  -35.1210   23.5310 C   0  0  0  0  0  0  0  0  0  0  0  0
  -26.7800  -35.0290   22.5230 O   0  0  0  0  0  0  0  0  0  0  0  0
  -25.1370  -34.2110   25.0800 H   0  0  0  0  0  0  0  0  0  0  0  0
  -24.2680  -36.8090   23.0810 C   0  0  0  0  0  1  0  0  0  0  0  0
  -25.5010  -36.4920   23.9420 C   0  0  0  0  0  3  0  0  0  0  0  0
  -27.5610  -37.4950   24.8170 C   0  0  0  0  0  1  0  0  0  0  0  0
  -26.4840  -37.5920   23.8350 N   0  0  0  0  0  0  0  0  0  0  0  0
  -26.0310  -38.4960   23.9500 H   0  0  0  0  0  0  0  0  0  0  0  0
  -26.6750  -31.9620   25.3170 C   0  0  1  0  0  0  0  0  0  0  0  0
  -25.5590  -31.6890   26.3520 C   0  0  0  0  0  1  0  0  0  0  0  0
  -27.3430  -30.6080   24.9770 C   0  0  0  0  0  1  0  0  0  0  0  0
  -27.7660  -32.8250   25.9890 C   0  0  0  0  0  1  0  0  0  0  0  0
  1 49  1  0
  2  4  1  0
  3  2  1  0
  3  6  1  0
  4  9  1  0
  4  5  1  0
  5 10  1  0
  6  7  1  6
  6  1  1  0
  6  5  1  0
  8  9  1  0
 10 19  1  0
 11 19  1  0
 12 17  1  0
 13 14  1  0
 13 12  1  0
 15 14  1  0
 15 24  1  0
 15 16  1  0
 17 11  1  0
 17 16  1  0
 18 11  2  0
 19 20  1  0
 21 22  2  0
 22 41  1  0
 23 26  1  0
 23 22  1  0
 24 25  1  0
 24 21  1  0
 25 23  2  0
 26 27  1  0
 27 28  2  0
 29 28  1  0
 30 29  2  0
 31 30  1  0
 31 26  2  0
 32 29  1  0
 32 33  1  0
 33 34  1  0
 34 35  2  0
 36 35  1  0
 36 40  1  0
 37 36  2  0
 38 33  2  0
 38 37  1  0
 39 38  1  0
 41 42  1  0
 42 45  1  0
 42 44  1  0
 43 41  2  0
 46 47  1  0
 46 21  1  0
 48 46  1  0
 49 50  1  0
 51 52  1  0
 51 50  1  0
 53 54  1  0
 53 52  1  0
 54 56  1  0
 55 66  2  0
 56 61  1  0
 57 65  1  0
 57 67  1  0
 58 64  1  0
 58 60  1  0
 59 65  1  0
 60 59  1  0
 61 60  2  0
 62 63  1  0
 62 56  2  0
 63 58  2  0
 64 57  1  0
 65 55  1  0
 67 69  2  0
 68 67  1  0
 70 68  1  0
 71 80  2  0
 71 76  1  0
 72 68  1  0
 72 76  1  0
 73 72  1  0
 74 75  1  0
 74 73  1  0
 75 71  1  0
 76 77  2  0
 77 78  1  0
 79 78  2  0
 80 79  1  0
 81 55  1  0
 81 82  1  0
 81 91  1  0
 82 85  1  0
 83 87  1  0
 83 82  1  0
 84 83  2  0
 87 86  1  0
 89 87  1  0
 89 90  1  0
 89 88  1  0
 91 94  1  1
 91 92  1  0
 93 91  1  0
M  ISO  4  11 100  19 100  53 101  54 101
M  END
>  <TORSDO>  (61) 
F 24

>  <SCORE>  (61) 
-11.149

>  <name>  (61) 
60

>  <ligand_id>  (61) 
60

>  <original_smiles>  (61) 
[H]c1c([H])c([H])c2c(c1[H])C([H])([H])C([H])([H])C([H])([H])C2([H])N([H])C(=O)C1([H])N(C(=O)C([H])(N([H])C(=O)C([H])(N([H])C([H])([H])[H])C([H])([H])[H])C(C([H])([H])[H])(C([H])([H])[H])C([H])([H])[H])C([H])([H])c2c([H])c(OC([H])([H])C([H])([H])C([H])([H])C([H])([H])C([H])([H])C([H])([H])[N+]3([H])C([H])([H])C([H])([H])C([H])(C([H])([H])C([H])([H])[H])C3([H])C([H])([H])N([H])C(=O)N3C([H])([H])C([H])([H])C([H])([H])C([H])(n4nc(-c5c([H])c([H])c(Oc6c([H])c([H])c(F)c([H])c6F)c([H])c5[H])c(C(=O)N([H])[H])c4N([H])[H])C3([H])[H])c([H])c([H])c2C1([H])[H]

>  <smiles>  (61) 
[H]c1c([H])c([H])c2c(c1[H])C([H])([H])C([H])([H])C([H])([H])C2([H])N([H])C(=O)C1([H])N(C(=O)C([H])(N([H])C(=O)C([H])(N([H])C([H])([H])[H])C([H])([H])[H])C(C([H])([H])[H])(C([H])([H])[H])C([H])([H])[H])C([H])([H])c2c([H])c(OC([H])([H])C([H])([H])C([H])([H])C([H])([H])C([H])([H])C([H])([H])[N+]3([H])C([H])([H])C([H])([H])C([H])(C([H])([H])C([H])([H])[H])C3([H])C([H])([H])N([H])C(=O)N3C([H])([H])C([H])([H])C([H])([H])C([H])(n4nc(-c5c([H])c([H])c(Oc6c([H])c([H])c(F)c([H])c6F)c([H])c5[H])c(C(=O)N([H])[H])c4N([H])[H])C3([H])[H])c([H])c([H])c2C1([H])[H]

$$$$
61:0:0
     RDKit          3D

 94102  0  0  1  0  0  0  0  0999 V2000
  -30.5130  -19.9220   20.3360 N   0  0  0  0  0  4  0  0  0  0  0  0
  -30.8270  -20.0580   19.3870 H   0  0  0  0  0  0  0  0  0  0  0  0
  -31.2580  -20.3080   20.8910 H   0  0  0  0  0  0  0  0  0  0  0  0
  -30.7440  -14.7840   19.6980 C   0  0  0  0  0  0  0  0  0  0  0  0
  -30.2880  -12.6460   18.4710 C   0  0  0  0  0  2  0  0  0  0  0  0
  -29.2010  -12.8940   17.4050 C   0  0  0  0  0  2  0  0  0  0  0  0
  -27.7970  -12.7080   18.0130 C   0  0  0  0  0  2  0  0  0  0  0  0
  -27.6310  -13.4330   19.3770 C   0  0  0  0  0  3  0  0  0  0  0  0
  -28.8380  -13.1940   20.3100 C   0  0  0  0  0  2  0  0  0  0  0  0
  -30.0500  -13.5980   19.5840 N   0  0  0  0  0  0  0  0  0  0  0  0
  -31.8120  -14.9240   19.0930 O   0  0  0  0  0  0  0  0  0  0  0  0
  -30.5350  -16.1980   21.7180 C   0  0  0  0  0  2  0  0  0  0  0  0
  -29.9020  -17.2490   19.6950 C   0  0  0  0  0  2  0  0  0  0  0  0
  -30.7660  -17.7360   21.9650 C   0  0  0  0  0  3  0  0  0  0  0  0
  -30.5800  -18.3800   20.5690 C   0  0  0  0  0  3  0  0  0  0  0  0
  -30.1580  -15.8890   20.3190 N   0  0  0  0  0  0  0  0  0  0  0  0
  -25.3620  -13.9580   20.4520 C   0  0  0  0  0  0  0  0  0  0  0  0
  -24.3540  -13.1570   20.9120 C   0  0  0  0  0  0  0  0  0  0  0  0
  -24.8010  -11.8110   20.7300 C   0  0  0  0  0  0  0  0  0  0  0  0
  -26.3620  -13.1010   20.0200 N   0  0  0  0  0  0  0  0  0  0  0  0
  -26.0390  -11.8010   20.2440 N   0  0  0  0  0  0  0  0  0  0  0  0
  -24.1010  -10.5370   20.9310 C   0  0  0  0  0  0  0  0  0  0  0  0
  -24.5860   -9.5610   21.8300 C   0  0  0  0  0  3  0  0  0  0  0  0
  -23.8830   -8.3530   22.0230 C   0  0  0  0  0  3  0  0  0  0  0  0
  -22.6800   -8.1100   21.3200 C   0  0  0  0  0  0  0  0  0  0  0  0
  -22.2130   -9.0730   20.4080 C   0  0  0  0  0  3  0  0  0  0  0  0
  -22.9160  -10.2730   20.2120 C   0  0  0  0  0  3  0  0  0  0  0  0
  -21.9460   -6.9530   21.4230 O   0  0  0  0  0  0  0  0  0  0  0  0
  -21.8640   -6.2520   22.6000 C   0  0  0  0  0  0  0  0  0  0  0  0
  -21.3780   -6.8420   23.7860 C   0  0  0  0  0  3  0  0  0  0  0  0
  -21.2490   -6.0670   24.9560 C   0  0  0  0  0  3  0  0  0  0  0  0
  -21.5940   -4.7030   24.9390 C   0  0  0  0  0  0  0  0  0  0  0  0
  -22.0720   -4.1110   23.7570 C   0  0  0  0  0  3  0  0  0  0  0  0
  -22.2040   -4.8830   22.5890 C   0  0  0  0  0  0  0  0  0  0  0  0
  -22.6450   -4.3040   21.4470 F   0  0  0  0  0  0  0  0  0  0  0  0
  -21.4620   -3.9560   26.0610 F   0  0  0  0  0  0  0  0  0  0  0  0
  -23.0080  -13.6070   21.3990 C   0  0  0  0  0  0  0  0  0  0  0  0
  -22.4170  -12.8720   22.3330 N   0  0  0  0  0  0  0  0  0  0  0  0
  -22.4930  -14.6450   20.9820 O   0  0  0  0  0  0  0  0  0  0  0  0
  -22.8470  -12.0320   22.6920 H   0  0  0  0  0  0  0  0  0  0  0  0
  -21.5150  -13.1490   22.6920 H   0  0  0  0  0  0  0  0  0  0  0  0
  -25.5090  -15.3380   20.3460 N   0  0  0  0  0  0  0  0  0  0  0  0
  -24.7700  -15.9830   20.6030 H   0  0  0  0  0  0  0  0  0  0  0  0
  -26.3160  -15.8020   19.9500 H   0  0  0  0  0  0  0  0  0  0  0  0
  -29.9320  -18.2760   23.1620 C   0  0  0  0  0  2  0  0  0  0  0  0
  -30.6940  -19.1710   24.0620 N   0  0  0  0  0  4  0  0  0  0  0  0
  -30.1330  -19.4240   24.8580 H   0  0  0  0  0  0  0  0  0  0  0  0
  -30.9850  -20.0230   23.6170 H   0  0  0  0  0  0  0  0  0  0  0  0
  -31.5070  -18.7060   24.4210 H   0  0  0  0  0  0  0  0  0  0  0  0
  -29.3200  -20.8870   20.4790 C   0  0  0  0  0  2  0  0  0  0  0  0
  -29.6480  -22.4670   20.7600 C   0  0  0  0  0  2  0  0  0  0  0  0
  -28.7920  -23.7180   20.1630 C   0  0  0  0  0  2  0  0  0  0  0  0
  -28.7160  -25.1260   20.9680 C   0  0  0  0  0  2  0  0  0  0  0  0
  -28.6880  -26.4730   20.3160 O   0  0  0  0  0  0  0  0  0  0  0  0
  -24.7380  -31.8480   23.2280 C   0  0  0  0  0  0  0  0  0  0  0  0
  -27.5290  -27.2760   20.3310 C   0  0  0  0  0  0  0  0  0  0  0  0
  -23.6050  -30.3940   21.5850 C   0  0  0  0  0  3  0  0  0  0  0  0
  -25.1230  -28.8370   20.2280 C   0  0  0  0  0  0  0  0  0  0  0  0
  -26.1390  -30.7650   21.4470 C   0  0  0  0  0  2  0  0  0  0  0  0
  -26.2670  -29.3690   20.8390 C   0  0  0  0  0  0  0  0  0  0  0  0
  -27.4740  -28.6040   20.8720 C   0  0  0  0  0  3  0  0  0  0  0  0
  -26.3630  -26.7950   19.7040 C   0  0  0  0  0  3  0  0  0  0  0  0
  -25.1750  -27.5570   19.6490 C   0  0  0  0  0  3  0  0  0  0  0  0
  -23.8660  -29.6890   20.2260 C   0  0  0  0  0  2  0  0  0  0  0  0
  -24.8460  -31.0230   22.1450 N   0  0  0  0  0  0  0  0  0  0  0  0
  -23.6380  -32.1100   23.7320 O   0  0  0  0  0  0  0  0  0  0  0  0
  -22.9430  -29.3820   22.5520 C   0  0  0  0  0  0  0  0  0  0  0  0
  -21.6200  -29.1900   22.4170 N   0  0  0  0  0  0  0  0  0  0  0  0
  -23.6210  -28.7730   23.3830 O   0  0  0  0  0  0  0  0  0  0  0  0
  -21.1320  -29.7380   21.7200 H   0  0  0  0  0  0  0  0  0  0  0  0
  -18.2470  -27.9790   22.9140 C   0  0  0  0  0  0  0  0  0  0  0  0
  -20.8040  -28.2500   23.1880 C   0  0  0  0  0  3  0  0  0  0  0  0
  -20.9140  -26.8180   22.6160 C   0  0  0  0  0  2  0  0  0  0  0  0
  -19.8140  -26.4870   21.6020 C   0  0  0  0  0  2  0  0  0  0  0  0
  -18.4300  -26.6290   22.2430 C   0  0  0  0  0  2  0  0  0  0  0  0
  -19.3610  -28.7460   23.3450 C   0  0  0  0  0  0  0  0  0  0  0  0
  -19.1360  -30.0090   23.9360 C   0  0  0  0  0  3  0  0  0  0  0  0
  -17.8290  -30.5040   24.1010 C   0  0  0  0  0  3  0  0  0  0  0  0
  -16.7300  -29.7350   23.6860 C   0  0  0  0  0  3  0  0  0  0  0  0
  -16.9390  -28.4750   23.0990 C   0  0  0  0  0  3  0  0  0  0  0  0
  -25.9930  -32.5210   23.8700 C   0  0  0  0  0  3  0  0  0  0  0  0
  -25.6330  -33.9090   24.1950 N   0  0  0  0  0  0  0  0  0  0  0  0
  -25.9330  -34.9730   23.4360 C   0  0  0  0  0  0  0  0  0  0  0  0
  -26.6090  -34.8890   22.4060 O   0  0  0  0  0  0  0  0  0  0  0  0
  -25.0370  -34.0460   24.9970 H   0  0  0  0  0  0  0  0  0  0  0  0
  -24.1450  -36.7050   23.0800 C   0  0  0  0  0  1  0  0  0  0  0  0
  -25.4000  -36.3460   23.8910 C   0  0  0  0  0  3  0  0  0  0  0  0
  -27.5040  -37.3040   24.7150 C   0  0  0  0  0  1  0  0  0  0  0  0
  -26.3960  -37.4330   23.7720 N   0  0  0  0  0  0  0  0  0  0  0  0
  -25.9610  -38.3410   23.9170 H   0  0  0  0  0  0  0  0  0  0  0  0
  -26.5100  -31.7710   25.1580 C   0  0  1  0  0  0  0  0  0  0  0  0
  -25.4050  -31.5000   26.2060 C   0  0  0  0  0  1  0  0  0  0  0  0
  -27.1450  -30.4140   24.7780 C   0  0  0  0  0  1  0  0  0  0  0  0
  -27.6250  -32.5990   25.8380 C   0  0  0  0  0  1  0  0  0  0  0  0
  1 50  1  0
  1  3  1  0
  2  1  1  0
  4 16  1  0
  5 10  1  0
  6  7  1  0
  6  5  1  0
  8  7  1  0
  8 20  1  0
  8  9  1  0
 10  4  1  0
 10  9  1  0
 11  4  2  0
 12 14  1  0
 13 16  1  0
 13 15  1  0
 14 45  1  0
 15  1  1  0
 15 14  1  0
 16 12  1  0
 17 18  2  0
 18 37  1  0
 19 18  1  0
 19 22  1  0
 20 21  1  0
 20 17  1  0
 21 19  2  0
 22 23  1  0
 23 24  2  0
 25 28  1  0
 25 24  1  0
 26 25  2  0
 27 26  1  0
 27 22  2  0
 28 29  1  0
 29 30  1  0
 30 31  2  0
 32 31  1  0
 32 36  1  0
 33 32  2  0
 34 29  2  0
 34 33  1  0
 35 34  1  0
 37 38  1  0
 38 40  1  0
 38 41  1  0
 39 37  2  0
 42 17  1  0
 42 43  1  0
 44 42  1  0
 45 46  1  0
 46 49  1  0
 46 47  1  0
 48 46  1  0
 50 51  1  0
 52 51  1  0
 52 53  1  0
 54 56  1  0
 54 53  1  0
 55 66  2  0
 56 61  1  0
 57 65  1  0
 57 67  1  0
 58 60  1  0
 59 65  1  0
 60 61  2  0
 60 59  1  0
 62 56  2  0
 63 62  1  0
 63 58  2  0
 64 58  1  0
 64 57  1  0
 65 55  1  0
 67 69  2  0
 68 67  1  0
 70 68  1  0
 71 80  2  0
 71 76  1  0
 72 68  1  0
 72 76  1  0
 73 72  1  0
 74 75  1  0
 74 73  1  0
 75 71  1  0
 76 77  2  0
 77 78  1  0
 79 78  2  0
 80 79  1  0
 81 55  1  0
 81 82  1  0
 81 91  1  0
 82 85  1  0
 83 87  1  0
 83 82  1  0
 84 83  2  0
 87 86  1  0
 89 87  1  0
 89 90  1  0
 89 88  1  0
 91 94  1  1
 91 92  1  0
 93 91  1  0
M  ISO  4   4 100  16 100  53 101  54 101
M  END
>  <TORSDO>  (62) 
F 22

>  <SCORE>  (62) 
-11.070

>  <name>  (62) 
61

>  <ligand_id>  (62) 
61

>  <original_smiles>  (62) 
[H]c1c([H])c([H])c2c(c1[H])C([H])([H])C([H])([H])C([H])([H])C2([H])N([H])C(=O)C1([H])N(C(=O)C([H])(N([H])C(=O)C([H])(N([H])C([H])([H])[H])C([H])([H])[H])C(C([H])([H])[H])(C([H])([H])[H])C([H])([H])[H])C([H])([H])c2c([H])c(OC([H])([H])C([H])([H])C([H])([H])C([H])([H])[N+]([H])([H])C3([H])C([H])([H])N(C(=O)N4C([H])([H])C([H])([H])C([H])([H])C([H])(n5nc(-c6c([H])c([H])c(Oc7c([H])c([H])c(F)c([H])c7F)c([H])c6[H])c(C(=O)N([H])[H])c5N([H])[H])C4([H])[H])C([H])([H])C3([H])C([H])([H])[N+]([H])([H])[H])c([H])c([H])c2C1([H])[H]

>  <smiles>  (62) 
[H]c1c([H])c([H])c2c(c1[H])C([H])([H])C([H])([H])C([H])([H])C2([H])N([H])C(=O)C1([H])N(C(=O)C([H])(N([H])C(=O)C([H])(N([H])C([H])([H])[H])C([H])([H])[H])C(C([H])([H])[H])(C([H])([H])[H])C([H])([H])[H])C([H])([H])c2c([H])c(OC([H])([H])C([H])([H])C([H])([H])C([H])([H])[N+]([H])([H])C3([H])C([H])([H])N(C(=O)N4C([H])([H])C([H])([H])C([H])([H])C([H])(n5nc(-c6c([H])c([H])c(Oc7c([H])c([H])c(F)c([H])c7F)c([H])c6[H])c(C(=O)N([H])[H])c5N([H])[H])C4([H])[H])C([H])([H])C3([H])C([H])([H])[N+]([H])([H])[H])c([H])c([H])c2C1([H])[H]

$$$$
62:0:0
     RDKit          3D

 92100  0  0  1  0  0  0  0  0999 V2000
  -29.1500  -21.1010   19.8420 C   0  0  0  0  0  2  0  0  0  0  0  0
  -29.9690  -19.9440   20.4250 N   0  0  0  0  0  4  0  0  0  0  0  0
  -30.9200  -20.0880   20.1270 H   0  0  0  0  0  0  0  0  0  0  0  0
  -29.9740  -20.0820   21.4210 H   0  0  0  0  0  0  0  0  0  0  0  0
  -30.9040  -14.8070   20.0470 C   0  0  0  0  0  0  0  0  0  0  0  0
  -30.6310  -12.5650   18.9760 C   0  0  0  0  0  2  0  0  0  0  0  0
  -29.6540  -12.6400   17.7840 C   0  0  0  0  0  2  0  0  0  0  0  0
  -28.1980  -12.4590   18.2580 C   0  0  0  0  0  2  0  0  0  0  0  0
  -27.8670  -13.3360   19.4950 C   0  0  0  0  0  3  0  0  0  0  0  0
  -28.9600  -13.1970   20.5770 C   0  0  0  0  0  2  0  0  0  0  0  0
  -30.2270  -13.6060   19.9550 N   0  0  0  0  0  0  0  0  0  0  0  0
  -32.0690  -14.8530   19.6440 O   0  0  0  0  0  0  0  0  0  0  0  0
  -28.9710  -17.7960   21.4150 C   0  0  0  0  0  2  0  0  0  0  0  0
  -29.1280  -16.2640   21.2200 C   0  0  0  0  0  2  0  0  0  0  0  0
  -30.7150  -17.3960   19.8550 C   0  0  0  0  0  3  0  0  0  0  0  0
  -29.5850  -18.4710   20.1900 C   0  0  0  0  0  3  0  0  0  0  0  0
  -30.2400  -16.0180   20.2860 N   0  0  0  0  0  0  0  0  0  0  0  0
  -25.5030  -13.9380   20.2930 C   0  0  0  0  0  0  0  0  0  0  0  0
  -24.4470  -13.1670   20.6950 C   0  0  0  0  0  0  0  0  0  0  0  0
  -24.9020  -11.8140   20.6410 C   0  0  0  0  0  0  0  0  0  0  0  0
  -26.5360  -13.0560   20.0210 N   0  0  0  0  0  0  0  0  0  0  0  0
  -26.1820  -11.7730   20.2920 N   0  0  0  0  0  0  0  0  0  0  0  0
  -24.1760  -10.5540   20.8380 C   0  0  0  0  0  0  0  0  0  0  0  0
  -24.5640   -9.6270   21.8300 C   0  0  0  0  0  3  0  0  0  0  0  0
  -23.8400   -8.4310   22.0150 C   0  0  0  0  0  3  0  0  0  0  0  0
  -22.7120   -8.1520   21.2060 C   0  0  0  0  0  0  0  0  0  0  0  0
  -22.3430   -9.0680   20.2030 C   0  0  0  0  0  3  0  0  0  0  0  0
  -23.0700  -10.2550   20.0170 C   0  0  0  0  0  3  0  0  0  0  0  0
  -21.9630   -7.0040   21.2960 O   0  0  0  0  0  0  0  0  0  0  0  0
  -21.7520   -6.3750   22.4970 C   0  0  0  0  0  0  0  0  0  0  0  0
  -21.1230   -7.0260   23.5810 C   0  0  0  0  0  3  0  0  0  0  0  0
  -20.8650   -6.3210   24.7720 C   0  0  0  0  0  3  0  0  0  0  0  0
  -21.2250   -4.9640   24.8810 C   0  0  0  0  0  0  0  0  0  0  0  0
  -21.8470   -4.3120   23.8010 C   0  0  0  0  0  3  0  0  0  0  0  0
  -22.1060   -5.0160   22.6120 C   0  0  0  0  0  0  0  0  0  0  0  0
  -22.6870   -4.3760   21.5670 F   0  0  0  0  0  0  0  0  0  0  0  0
  -20.9700   -4.2840   26.0220 F   0  0  0  0  0  0  0  0  0  0  0  0
  -23.0600  -13.6490   21.0110 C   0  0  0  0  0  0  0  0  0  0  0  0
  -22.3520  -12.9520   21.8940 N   0  0  0  0  0  0  0  0  0  0  0  0
  -22.6120  -14.6790   20.5090 O   0  0  0  0  0  0  0  0  0  0  0  0
  -22.7260  -12.1180   22.3220 H   0  0  0  0  0  0  0  0  0  0  0  0
  -21.4230  -13.2580   22.1450 H   0  0  0  0  0  0  0  0  0  0  0  0
  -25.6590  -15.3100   20.1120 N   0  0  0  0  0  0  0  0  0  0  0  0
  -24.8850  -15.9540   20.2300 H   0  0  0  0  0  0  0  0  0  0  0  0
  -26.4660  -15.7360   19.6770 H   0  0  0  0  0  0  0  0  0  0  0  0
  -31.0360  -17.4370   18.3470 C   0  0  0  0  0  3  0  0  0  0  0  0
  -30.2810  -17.0100   17.4700 O   0  0  0  0  0  0  0  0  0  0  0  0
  -29.1000  -22.3940   22.0150 C   0  0  0  0  0  2  0  0  0  0  0  0
  -29.0710  -22.4530   20.6710 C   0  0  0  0  0  0  0  0  0  0  0  0
  -28.9140  -23.8570   19.9350 C   0  0  0  0  0  3  0  0  0  0  0  0
  -28.4680  -25.1630   20.7710 C   0  0  0  0  0  3  0  0  0  0  0  0
  -28.6030  -26.5450   20.2300 O   0  0  0  0  0  0  0  0  0  0  0  0
  -24.7220  -31.8830   23.2200 C   0  0  0  0  0  0  0  0  0  0  0  0
  -27.4700  -27.3730   20.2160 C   0  0  0  0  0  0  0  0  0  0  0  0
  -23.5700  -30.4620   21.5620 C   0  0  0  0  0  3  0  0  0  0  0  0
  -25.0750  -28.9330   20.1640 C   0  0  0  0  0  0  0  0  0  0  0  0
  -26.1040  -30.8290   21.4170 C   0  0  0  0  0  2  0  0  0  0  0  0
  -26.2240  -29.4510   20.7750 C   0  0  0  0  0  0  0  0  0  0  0  0
  -27.4290  -28.6840   20.7860 C   0  0  0  0  0  3  0  0  0  0  0  0
  -26.3000  -26.9040   19.5860 C   0  0  0  0  0  3  0  0  0  0  0  0
  -25.1140  -27.6660   19.5590 C   0  0  0  0  0  3  0  0  0  0  0  0
  -23.8200  -29.7850   20.1880 C   0  0  0  0  0  2  0  0  0  0  0  0
  -24.8170  -31.0770   22.1240 N   0  0  0  0  0  0  0  0  0  0  0  0
  -23.6250  -32.1410   23.7390 O   0  0  0  0  0  0  0  0  0  0  0  0
  -22.9110  -29.4350   22.5130 C   0  0  0  0  0  0  0  0  0  0  0  0
  -21.5880  -29.2460   22.3780 N   0  0  0  0  0  0  0  0  0  0  0  0
  -23.5900  -28.8080   23.3320 O   0  0  0  0  0  0  0  0  0  0  0  0
  -21.0990  -29.8070   21.6940 H   0  0  0  0  0  0  0  0  0  0  0  0
  -18.2150  -28.0340   22.8700 C   0  0  0  0  0  0  0  0  0  0  0  0
  -20.7730  -28.2960   23.1370 C   0  0  0  0  0  3  0  0  0  0  0  0
  -20.8780  -26.8720   22.5450 C   0  0  0  0  0  2  0  0  0  0  0  0
  -19.7760  -26.5580   21.5290 C   0  0  0  0  0  2  0  0  0  0  0  0
  -18.3940  -26.6940   22.1760 C   0  0  0  0  0  2  0  0  0  0  0  0
  -19.3330  -28.7930   23.3070 C   0  0  0  0  0  0  0  0  0  0  0  0
  -19.1120  -30.0470   23.9160 C   0  0  0  0  0  3  0  0  0  0  0  0
  -17.8070  -30.5430   24.0930 C   0  0  0  0  0  3  0  0  0  0  0  0
  -16.7040  -29.7800   23.6710 C   0  0  0  0  0  3  0  0  0  0  0  0
  -16.9090  -28.5270   23.0660 C   0  0  0  0  0  3  0  0  0  0  0  0
  -25.9810  -32.5400   23.8650 C   0  0  0  0  0  3  0  0  0  0  0  0
  -25.6400  -33.9320   24.1890 N   0  0  0  0  0  0  0  0  0  0  0  0
  -25.9560  -34.9910   23.4330 C   0  0  0  0  0  0  0  0  0  0  0  0
  -26.6360  -34.9020   22.4070 O   0  0  0  0  0  0  0  0  0  0  0  0
  -25.0380  -34.0740   24.9860 H   0  0  0  0  0  0  0  0  0  0  0  0
  -24.1960  -36.7500   23.0640 C   0  0  0  0  0  1  0  0  0  0  0  0
  -25.4380  -36.3700   23.8850 C   0  0  0  0  0  3  0  0  0  0  0  0
  -27.5430  -37.3040   24.7380 C   0  0  0  0  0  1  0  0  0  0  0  0
  -26.4500  -37.4440   23.7800 N   0  0  0  0  0  0  0  0  0  0  0  0
  -26.0240  -38.3560   23.9170 H   0  0  0  0  0  0  0  0  0  0  0  0
  -26.4900  -31.7790   25.1490 C   0  0  1  0  0  0  0  0  0  0  0  0
  -25.3830  -31.5190   26.1960 C   0  0  0  0  0  1  0  0  0  0  0  0
  -27.1110  -30.4160   24.7690 C   0  0  0  0  0  1  0  0  0  0  0  0
  -27.6110  -32.5980   25.8330 C   0  0  0  0  0  1  0  0  0  0  0  0
  1  2  1  0
  1 49  1  0
  2  4  1  0
  3  2  1  0
  5 17  1  0
  6 11  1  0
  7  8  1  0
  7  6  1  0
  9  8  1  0
  9 21  1  0
  9 10  1  0
 11  5  1  0
 11 10  1  0
 12  5  2  0
 14 13  1  0
 15 46  1  0
 15 16  1  0
 15 17  1  0
 16  2  1  0
 16 13  1  0
 17 14  1  0
 18 19  2  0
 19 38  1  0
 20 19  1  0
 20 23  1  0
 21 22  1  0
 21 18  1  0
 22 20  2  0
 23 24  1  0
 24 25  2  0
 26 29  1  0
 26 25  1  0
 27 26  2  0
 28 27  1  0
 28 23  2  0
 29 30  1  0
 30 35  2  0
 30 31  1  0
 31 32  2  0
 32 33  1  0
 33 37  1  0
 34 33  2  0
 35 34  1  0
 36 35  1  0
 38 39  1  0
 39 42  1  0
 39 41  1  0
 40 38  2  0
 43 44  1  0
 43 18  1  0
 45 43  1  0
 47 46  2  0
 49 48  2  0
 50 49  1  0
 50 51  2  0
 52 51  1  0
 53 64  2  0
 54 52  1  0
 54 59  1  0
 55 63  1  0
 55 65  1  0
 56 62  1  0
 56 58  1  0
 57 63  1  0
 58 59  2  0
 58 57  1  0
 60 54  2  0
 61 60  1  0
 61 56  2  0
 62 55  1  0
 63 53  1  0
 65 67  2  0
 66 65  1  0
 68 66  1  0
 69 78  2  0
 69 74  1  0
 70 66  1  0
 70 74  1  0
 71 70  1  0
 72 73  1  0
 72 71  1  0
 73 69  1  0
 74 75  2  0
 75 76  1  0
 77 76  2  0
 78 77  1  0
 79 53  1  0
 79 80  1  0
 79 89  1  0
 80 83  1  0
 81 85  1  0
 81 80  1  0
 82 81  2  0
 85 84  1  0
 87 85  1  0
 87 88  1  0
 87 86  1  0
 89 92  1  1
 89 90  1  0
 91 89  1  0
M  ISO  4   5 100  17 100  51 101  52 101
M  END
>  <TORSDO>  (63) 
F 21

>  <SCORE>  (63) 
-12.185

>  <name>  (63) 
62

>  <ligand_id>  (63) 
62

>  <original_smiles>  (63) 
[H]C(=O)C1([H])N(C(=O)N2C([H])([H])C([H])([H])C([H])([H])C([H])(n3nc(-c4c([H])c([H])c(Oc5c([H])c([H])c(F)c([H])c5F)c([H])c4[H])c(C(=O)N([H])[H])c3N([H])[H])C2([H])[H])C([H])([H])C([H])([H])C1([H])[N+]([H])([H])C([H])([H])C(=C([H])[H])C([H])([H])C([H])([H])Oc1c([H])c([H])c2c(c1[H])C([H])([H])N(C(=O)C([H])(N([H])C(=O)C([H])(N([H])C([H])([H])[H])C([H])([H])[H])C(C([H])([H])[H])(C([H])([H])[H])C([H])([H])[H])C([H])(C(=O)N([H])C1([H])c3c([H])c([H])c([H])c([H])c3C([H])([H])C([H])([H])C1([H])[H])C2([H])[H]

>  <smiles>  (63) 
[H]C(=O)C1([H])N(C(=O)N2C([H])([H])C([H])([H])C([H])([H])C([H])(n3nc(-c4c([H])c([H])c(Oc5c([H])c([H])c(F)c([H])c5F)c([H])c4[H])c(C(=O)N([H])[H])c3N([H])[H])C2([H])[H])C([H])([H])C([H])([H])C1([H])[N+]([H])([H])C([H])([H])C(=C([H])[H])C([H])([H])C([H])([H])Oc1c([H])c([H])c2c(c1[H])C([H])([H])N(C(=O)C([H])(N([H])C(=O)C([H])(N([H])C([H])([H])[H])C([H])([H])[H])C(C([H])([H])[H])(C([H])([H])[H])C([H])([H])[H])C([H])(C(=O)N([H])C1([H])c3c([H])c([H])c([H])c([H])c3C([H])([H])C([H])([H])C1([H])[H])C2([H])[H]

$$$$
63:0:0
     RDKit          3D

 95103  0  0  1  0  0  0  0  0999 V2000
  -27.9050  -21.0930   18.4840 C   0  0  0  0  0  3  0  0  0  0  0  0
  -27.3200  -19.9170   18.7820 C   0  0  0  0  0  3  0  0  0  0  0  0
  -30.1900  -20.5960   18.0410 C   0  0  0  0  0  3  0  0  0  0  0  0
  -30.2880  -19.2770   18.2700 C   0  0  0  0  0  3  0  0  0  0  0  0
  -29.1770  -21.4590   18.2240 C   0  0  0  0  0  0  0  0  0  0  0  0
  -29.4490  -18.3670   18.8040 C   0  0  0  0  0  0  0  0  0  0  0  0
  -27.9990  -18.6330   19.0340 C   0  0  0  0  0  0  0  0  0  0  0  0
  -27.2850  -17.7250   19.4700 O   0  0  0  0  0  0  0  0  0  0  0  0
  -29.9400  -16.9770   19.1790 C   0  0  0  0  0  2  0  0  0  0  0  0
  -30.1750  -16.8010   20.7000 C   0  0  0  0  0  2  0  0  0  0  0  0
  -30.7230  -14.3990   20.6180 C   0  0  0  0  0  0  0  0  0  0  0  0
  -30.4170  -12.2710   19.4390 C   0  0  0  0  0  2  0  0  0  0  0  0
  -29.5130  -12.5320   18.2160 C   0  0  0  0  0  2  0  0  0  0  0  0
  -28.0250  -12.4180   18.6000 C   0  0  0  0  0  2  0  0  0  0  0  0
  -27.6700  -13.2460   19.8640 C   0  0  0  0  0  3  0  0  0  0  0  0
  -28.6870  -12.9740   20.9990 C   0  0  0  0  0  2  0  0  0  0  0  0
  -30.0410  -13.2360   20.4790 N   0  0  0  0  0  0  0  0  0  0  0  0
  -31.8510  -14.5990   20.1550 O   0  0  0  0  0  0  0  0  0  0  0  0
  -29.9820  -15.4080   21.0830 N   0  0  0  0  0  0  0  0  0  0  0  0
  -29.0810  -15.1590   21.4640 H   0  0  0  0  0  0  0  0  0  0  0  0
  -25.2500  -13.8890   20.4740 C   0  0  0  0  0  0  0  0  0  0  0  0
  -24.1640  -13.1290   20.8210 C   0  0  0  0  0  0  0  0  0  0  0  0
  -24.6170  -11.7760   20.8320 C   0  0  0  0  0  0  0  0  0  0  0  0
  -26.2970  -12.9960   20.2980 N   0  0  0  0  0  0  0  0  0  0  0  0
  -25.9160  -11.7210   20.5670 N   0  0  0  0  0  0  0  0  0  0  0  0
  -23.8780  -10.5210   21.0250 C   0  0  0  0  0  0  0  0  0  0  0  0
  -24.2880   -9.5620   21.9780 C   0  0  0  0  0  3  0  0  0  0  0  0
  -23.5510   -8.3710   22.1580 C   0  0  0  0  0  3  0  0  0  0  0  0
  -22.3910   -8.1320   21.3840 C   0  0  0  0  0  0  0  0  0  0  0  0
  -22.0010   -9.0780   20.4200 C   0  0  0  0  0  3  0  0  0  0  0  0
  -22.7390  -10.2610   20.2390 C   0  0  0  0  0  3  0  0  0  0  0  0
  -21.6270   -6.9930   21.4710 O   0  0  0  0  0  0  0  0  0  0  0  0
  -21.5620   -6.2570   22.6260 C   0  0  0  0  0  0  0  0  0  0  0  0
  -21.1410   -6.8250   23.8490 C   0  0  0  0  0  3  0  0  0  0  0  0
  -21.0230   -6.0160   24.9960 C   0  0  0  0  0  3  0  0  0  0  0  0
  -21.3140   -4.6400   24.9230 C   0  0  0  0  0  0  0  0  0  0  0  0
  -21.7270   -4.0720   23.7050 C   0  0  0  0  0  3  0  0  0  0  0  0
  -21.8480   -4.8780   22.5590 C   0  0  0  0  0  0  0  0  0  0  0  0
  -22.2260   -4.3210   21.3840 F   0  0  0  0  0  0  0  0  0  0  0  0
  -21.1930   -3.8610   26.0230 F   0  0  0  0  0  0  0  0  0  0  0  0
  -22.7610  -13.6190   21.0400 C   0  0  0  0  0  0  0  0  0  0  0  0
  -22.0030  -12.9440   21.8970 N   0  0  0  0  0  0  0  0  0  0  0  0
  -22.3450  -14.6370   20.4860 O   0  0  0  0  0  0  0  0  0  0  0  0
  -22.3500  -12.1210   22.3650 H   0  0  0  0  0  0  0  0  0  0  0  0
  -21.0610  -13.2560   22.0870 H   0  0  0  0  0  0  0  0  0  0  0  0
  -25.4250  -15.2550   20.2780 N   0  0  0  0  0  0  0  0  0  0  0  0
  -24.6510  -15.9050   20.3580 H   0  0  0  0  0  0  0  0  0  0  0  0
  -26.2830  -15.7120   19.9880 H   0  0  0  0  0  0  0  0  0  0  0  0
  -29.4890  -22.9470   18.1390 C   0  0  0  0  0  2  0  0  0  0  0  0
  -29.8590  -23.4390   19.4850 N   0  0  0  0  0  4  0  0  0  0  0  0
  -30.7830  -23.0970   19.6940 H   0  0  0  0  0  0  0  0  0  0  0  0
  -29.2390  -23.0210   20.1610 H   0  0  0  0  0  0  0  0  0  0  0  0
  -29.8430  -24.9090   19.6640 C   0  0  0  0  0  2  0  0  0  0  0  0
  -28.4240  -25.4900   19.5730 C   0  0  0  0  0  2  0  0  0  0  0  0
  -28.3980  -26.7990   20.1260 O   0  0  0  0  0  0  0  0  0  0  0  0
  -24.5720  -31.8910   23.2490 C   0  0  0  0  0  0  0  0  0  0  0  0
  -27.1930  -27.4680   20.1380 C   0  0  0  0  0  0  0  0  0  0  0  0
  -23.3490  -30.4950   21.6140 C   0  0  0  0  0  3  0  0  0  0  0  0
  -24.7880  -28.9580   20.1800 C   0  0  0  0  0  0  0  0  0  0  0  0
  -25.8710  -30.8550   21.3940 C   0  0  0  0  0  2  0  0  0  0  0  0
  -25.9490  -29.4840   20.7570 C   0  0  0  0  0  0  0  0  0  0  0  0
  -27.1510  -28.7460   20.7340 C   0  0  0  0  0  3  0  0  0  0  0  0
  -26.0050  -26.9450   19.5690 C   0  0  0  0  0  3  0  0  0  0  0  0
  -24.8090  -27.6860   19.5850 C   0  0  0  0  0  3  0  0  0  0  0  0
  -23.5450  -29.8150   20.2330 C   0  0  0  0  0  2  0  0  0  0  0  0
  -24.6170  -31.0930   22.1450 N   0  0  0  0  0  0  0  0  0  0  0  0
  -23.4940  -32.1640   23.7970 O   0  0  0  0  0  0  0  0  0  0  0  0
  -22.7040  -29.4730   22.5770 C   0  0  0  0  0  0  0  0  0  0  0  0
  -21.3780  -29.2930   22.4550 N   0  0  0  0  0  0  0  0  0  0  0  0
  -23.3910  -28.8430   23.3850 O   0  0  0  0  0  0  0  0  0  0  0  0
  -20.8850  -29.8540   21.7750 H   0  0  0  0  0  0  0  0  0  0  0  0
  -18.0030  -28.1110   22.9620 C   0  0  0  0  0  0  0  0  0  0  0  0
  -20.5620  -28.3570   23.2270 C   0  0  0  0  0  3  0  0  0  0  0  0
  -20.6590  -26.9270   22.6500 C   0  0  0  0  0  2  0  0  0  0  0  0
  -19.5530  -26.6070   21.6400 C   0  0  0  0  0  2  0  0  0  0  0  0
  -18.1730  -26.7600   22.2870 C   0  0  0  0  0  2  0  0  0  0  0  0
  -19.1260  -28.8690   23.3880 C   0  0  0  0  0  0  0  0  0  0  0  0
  -18.9160  -30.1350   23.9780 C   0  0  0  0  0  3  0  0  0  0  0  0
  -17.6130  -30.6420   24.1470 C   0  0  0  0  0  3  0  0  0  0  0  0
  -16.5050  -29.8810   23.7370 C   0  0  0  0  0  3  0  0  0  0  0  0
  -16.7000  -28.6180   23.1510 C   0  0  0  0  0  3  0  0  0  0  0  0
  -25.8640  -32.5190   23.8600 C   0  0  0  0  0  3  0  0  0  0  0  0
  -25.5620  -33.9190   24.1910 N   0  0  0  0  0  0  0  0  0  0  0  0
  -25.8960  -34.9690   23.4290 C   0  0  0  0  0  0  0  0  0  0  0  0
  -26.5650  -34.8640   22.3970 O   0  0  0  0  0  0  0  0  0  0  0  0
  -24.9750  -34.0730   24.9960 H   0  0  0  0  0  0  0  0  0  0  0  0
  -24.1780  -36.7690   23.0670 C   0  0  0  0  0  1  0  0  0  0  0  0
  -25.4120  -36.3590   23.8850 C   0  0  0  0  0  3  0  0  0  0  0  0
  -27.5470  -37.2280   24.7290 C   0  0  0  0  0  1  0  0  0  0  0  0
  -26.4500  -37.4070   23.7820 N   0  0  0  0  0  0  0  0  0  0  0  0
  -26.0490  -38.3300   23.9340 H   0  0  0  0  0  0  0  0  0  0  0  0
  -26.3880  -31.7460   25.1300 C   0  0  1  0  0  0  0  0  0  0  0  0
  -25.3020  -31.5080   26.2070 C   0  0  0  0  0  1  0  0  0  0  0  0
  -26.9640  -30.3700   24.7280 C   0  0  0  0  0  1  0  0  0  0  0  0
  -27.5460  -32.5350   25.7860 C   0  0  0  0  0  1  0  0  0  0  0  0
  1  2  2  0
  2  7  1  0
  3  5  2  0
  3  4  1  0
  4  6  2  0
  5  1  1  0
  6  7  1  0
  6  9  1  0
  7  8  2  0
  9 10  1  0
 10 19  1  0
 11 19  1  0
 12 17  1  0
 13 14  1  0
 13 12  1  0
 15 14  1  0
 15 24  1  0
 15 16  1  0
 17 11  1  0
 17 16  1  0
 18 11  2  0
 19 20  1  0
 21 22  2  0
 22 23  1  0
 22 41  1  0
 23 26  1  0
 24 21  1  0
 24 25  1  0
 25 23  2  0
 26 27  1  0
 27 28  2  0
 29 32  1  0
 29 28  1  0
 30 29  2  0
 31 30  1  0
 31 26  2  0
 32 33  1  0
 33 34  1  0
 34 35  2  0
 36 35  1  0
 36 40  1  0
 37 36  2  0
 38 33  2  0
 38 37  1  0
 39 38  1  0
 41 42  1  0
 42 45  1  0
 42 44  1  0
 43 41  2  0
 46 47  1  0
 46 21  1  0
 48 46  1  0
 49  5  1  0
 49 50  1  0
 50 53  1  0
 50 51  1  0
 50 52  1  0
 54 53  1  0
 54 55  1  0
 55 57  1  0
 56 67  2  0
 57 62  1  0
 58 66  1  0
 58 68  1  0
 59 65  1  0
 59 61  1  0
 60 66  1  0
 61 60  1  0
 62 61  2  0
 63 64  1  0
 63 57  2  0
 64 59  2  0
 65 58  1  0
 66 56  1  0
 68 70  2  0
 69 68  1  0
 71 69  1  0
 72 81  2  0
 72 77  1  0
 73 69  1  0
 73 77  1  0
 74 73  1  0
 75 76  1  0
 75 74  1  0
 76 72  1  0
 77 78  2  0
 78 79  1  0
 80 79  2  0
 81 80  1  0
 82 56  1  0
 82 83  1  0
 82 92  1  0
 83 86  1  0
 84 88  1  0
 84 83  1  0
 85 84  2  0
 88 87  1  0
 90 88  1  0
 90 91  1  0
 90 89  1  0
 92 95  1  1
 92 93  1  0
 94 92  1  0
M  ISO  4  11 100  19 100  54 101  55 101
M  END
>  <TORSDO>  (64) 
F 22

>  <SCORE>  (64) 
-13.273

>  <name>  (64) 
63

>  <ligand_id>  (64) 
63

>  <original_smiles>  (64) 
[H]c1c([H])c([H])c2c(c1[H])C([H])([H])C([H])([H])C([H])([H])C2([H])N([H])C(=O)C1([H])N(C(=O)C([H])(N([H])C(=O)C([H])(N([H])C([H])([H])[H])C([H])([H])[H])C(C([H])([H])[H])(C([H])([H])[H])C([H])([H])[H])C([H])([H])c2c([H])c(OC([H])([H])C([H])([H])[N+]([H])([H])C([H])([H])c3c([H])c([H])c(C([H])([H])C([H])([H])N([H])C(=O)N4C([H])([H])C([H])([H])C([H])([H])C([H])(n5nc(-c6c([H])c([H])c(Oc7c([H])c([H])c(F)c([H])c7F)c([H])c6[H])c(C(=O)N([H])[H])c5N([H])[H])C4([H])[H])c(=O)c([H])c3[H])c([H])c([H])c2C1([H])[H]

>  <smiles>  (64) 
[H]c1c([H])c([H])c2c(c1[H])C([H])([H])C([H])([H])C([H])([H])C2([H])N([H])C(=O)C1([H])N(C(=O)C([H])(N([H])C(=O)C([H])(N([H])C([H])([H])[H])C([H])([H])[H])C(C([H])([H])[H])(C([H])([H])[H])C([H])([H])[H])C([H])([H])c2c([H])c(OC([H])([H])C([H])([H])[N+]([H])([H])C([H])([H])c3c([H])c([H])c(C([H])([H])C([H])([H])N([H])C(=O)N4C([H])([H])C([H])([H])C([H])([H])C([H])(n5nc(-c6c([H])c([H])c(Oc7c([H])c([H])c(F)c([H])c7F)c([H])c6[H])c(C(=O)N([H])[H])c5N([H])[H])C4([H])[H])c(=O)c([H])c3[H])c([H])c([H])c2C1([H])[H]

$$$$
64:0:0
     RDKit          3D

 91 99  0  0  1  0  0  0  0  0999 V2000
  -30.4570  -21.1500   21.9820 C   0  0  0  0  0  2  0  0  0  0  0  0
  -30.2090  -17.8480   19.9550 C   0  0  0  0  0  2  0  0  0  0  0  0
  -30.2710  -17.3280   22.3920 C   0  0  0  0  0  2  0  0  0  0  0  0
  -30.5640  -19.3220   20.2770 C   0  0  0  0  0  2  0  0  0  0  0  0
  -30.6270  -18.8020   22.6780 C   0  0  0  0  0  2  0  0  0  0  0  0
  -30.7710  -16.8690   21.0110 C   0  0  0  0  0  3  0  0  0  0  0  0
  -30.1130  -19.7370   21.6360 N   0  0  1  0  0  4  0  0  0  0  0  0
  -29.1060  -19.6710   21.6580 H   0  0  0  0  0  0  0  0  0  0  0  0
  -31.0010  -14.5280   20.0800 C   0  0  0  0  0  0  0  0  0  0  0  0
  -30.6540  -12.3750   18.9240 C   0  0  0  0  0  2  0  0  0  0  0  0
  -29.6430  -12.5660   17.7750 C   0  0  0  0  0  2  0  0  0  0  0  0
  -28.1940  -12.4310   18.2840 C   0  0  0  0  0  2  0  0  0  0  0  0
  -27.9250  -13.2790   19.5560 C   0  0  0  0  0  3  0  0  0  0  0  0
  -29.0330  -13.0430   20.6060 C   0  0  0  0  0  2  0  0  0  0  0  0
  -30.3290  -13.3510   19.9720 N   0  0  0  0  0  0  0  0  0  0  0  0
  -32.0720  -14.7530   19.5090 O   0  0  0  0  0  0  0  0  0  0  0  0
  -30.3560  -15.4800   20.7760 N   0  0  0  0  0  0  0  0  0  0  0  0
  -29.4810  -15.1900   21.1840 H   0  0  0  0  0  0  0  0  0  0  0  0
  -25.5830  -13.9120   20.4190 C   0  0  0  0  0  0  0  0  0  0  0  0
  -24.5230  -13.1480   20.8290 C   0  0  0  0  0  0  0  0  0  0  0  0
  -24.9540  -11.7900   20.7300 C   0  0  0  0  0  0  0  0  0  0  0  0
  -26.5950  -13.0190   20.1020 N   0  0  0  0  0  0  0  0  0  0  0  0
  -26.2210  -11.7360   20.3430 N   0  0  0  0  0  0  0  0  0  0  0  0
  -24.2160  -10.5350   20.9260 C   0  0  0  0  0  0  0  0  0  0  0  0
  -24.6160   -9.5870   21.8920 C   0  0  0  0  0  3  0  0  0  0  0  0
  -23.8800   -8.3960   22.0740 C   0  0  0  0  0  3  0  0  0  0  0  0
  -22.7300   -8.1460   21.2880 C   0  0  0  0  0  0  0  0  0  0  0  0
  -22.3500   -9.0820   20.3100 C   0  0  0  0  0  3  0  0  0  0  0  0
  -23.0870  -10.2640   20.1270 C   0  0  0  0  0  3  0  0  0  0  0  0
  -21.9680   -7.0060   21.3770 O   0  0  0  0  0  0  0  0  0  0  0  0
  -21.7730   -6.3630   22.5730 C   0  0  0  0  0  0  0  0  0  0  0  0
  -21.1650   -7.0050   23.6750 C   0  0  0  0  0  3  0  0  0  0  0  0
  -20.9200   -6.2870   24.8620 C   0  0  0  0  0  3  0  0  0  0  0  0
  -21.2720   -4.9260   24.9470 C   0  0  0  0  0  0  0  0  0  0  0  0
  -21.8710   -4.2830   23.8490 C   0  0  0  0  0  3  0  0  0  0  0  0
  -22.1180   -4.9990   22.6650 C   0  0  0  0  0  0  0  0  0  0  0  0
  -22.6770   -4.3690   21.6040 F   0  0  0  0  0  0  0  0  0  0  0  0
  -21.0290   -4.2330   26.0840 F   0  0  0  0  0  0  0  0  0  0  0  0
  -23.1540  -13.6410   21.2000 C   0  0  0  0  0  0  0  0  0  0  0  0
  -22.4730  -12.9390   22.1000 N   0  0  0  0  0  0  0  0  0  0  0  0
  -22.7000  -14.6830   20.7290 O   0  0  0  0  0  0  0  0  0  0  0  0
  -22.8530  -12.0950   22.5010 H   0  0  0  0  0  0  0  0  0  0  0  0
  -21.5570  -13.2520   22.3920 H   0  0  0  0  0  0  0  0  0  0  0  0
  -25.7650  -15.2840   20.2720 N   0  0  0  0  0  0  0  0  0  0  0  0
  -25.0170  -15.9490   20.4360 H   0  0  0  0  0  0  0  0  0  0  0  0
  -26.5990  -15.7130   19.8920 H   0  0  0  0  0  0  0  0  0  0  0  0
  -29.9310  -22.2480   21.0140 C   0  0  0  0  0  2  0  0  0  0  0  0
  -30.2680  -23.6600   21.5510 C   0  0  0  0  0  2  0  0  0  0  0  0
  -30.0620  -24.8590   20.5930 C   0  0  0  0  0  2  0  0  0  0  0  0
  -28.6190  -25.3910   20.4600 C   0  0  0  0  0  2  0  0  0  0  0  0
  -28.6640  -26.7670   20.0610 O   0  0  0  0  0  0  0  0  0  0  0  0
  -24.7140  -31.7470   23.2630 C   0  0  0  0  0  0  0  0  0  0  0  0
  -27.4690  -27.4530   20.0810 C   0  0  0  0  0  0  0  0  0  0  0  0
  -23.5470  -30.3760   21.5660 C   0  0  0  0  0  3  0  0  0  0  0  0
  -25.0410  -28.9040   20.1130 C   0  0  0  0  0  0  0  0  0  0  0  0
  -26.0670  -30.7870   21.4010 C   0  0  0  0  0  2  0  0  0  0  0  0
  -26.1840  -29.4390   20.7220 C   0  0  0  0  0  0  0  0  0  0  0  0
  -27.4020  -28.7230   20.6960 C   0  0  0  0  0  3  0  0  0  0  0  0
  -26.3080  -26.9260   19.4740 C   0  0  0  0  0  3  0  0  0  0  0  0
  -25.0980  -27.6470   19.4860 C   0  0  0  0  0  3  0  0  0  0  0  0
  -23.7810  -29.7380   20.1700 C   0  0  0  0  0  2  0  0  0  0  0  0
  -24.7940  -30.9830   22.1360 N   0  0  0  0  0  0  0  0  0  0  0  0
  -23.6240  -31.9830   23.8010 O   0  0  0  0  0  0  0  0  0  0  0  0
  -22.9050  -29.3150   22.4890 C   0  0  0  0  0  0  0  0  0  0  0  0
  -21.5910  -29.0940   22.3220 N   0  0  0  0  0  0  0  0  0  0  0  0
  -23.5870  -28.6940   23.3100 O   0  0  0  0  0  0  0  0  0  0  0  0
  -21.1020  -29.6510   21.6350 H   0  0  0  0  0  0  0  0  0  0  0  0
  -18.2470  -27.7770   22.6910 C   0  0  0  0  0  0  0  0  0  0  0  0
  -20.7840  -28.1150   23.0500 C   0  0  0  0  0  3  0  0  0  0  0  0
  -20.9530  -26.6990   22.4530 C   0  0  0  0  0  2  0  0  0  0  0  0
  -19.8950  -26.3570   21.3990 C   0  0  0  0  0  2  0  0  0  0  0  0
  -18.4900  -26.4450   22.0000 C   0  0  0  0  0  2  0  0  0  0  0  0
  -19.3250  -28.5680   23.1700 C   0  0  0  0  0  0  0  0  0  0  0  0
  -19.0450  -29.8130   23.7730 C   0  0  0  0  0  3  0  0  0  0  0  0
  -17.7190  -30.2680   23.9050 C   0  0  0  0  0  3  0  0  0  0  0  0
  -16.6550  -29.4740   23.4440 C   0  0  0  0  0  3  0  0  0  0  0  0
  -16.9200  -28.2310   22.8430 C   0  0  0  0  0  3  0  0  0  0  0  0
  -25.9840  -32.3790   23.9160 C   0  0  0  0  0  3  0  0  0  0  0  0
  -25.6510  -33.7610   24.2820 N   0  0  0  0  0  0  0  0  0  0  0  0
  -25.9910  -34.8410   23.5660 C   0  0  0  0  0  0  0  0  0  0  0  0
  -26.6890  -34.7790   22.5510 O   0  0  0  0  0  0  0  0  0  0  0  0
  -25.0330  -33.8840   25.0720 H   0  0  0  0  0  0  0  0  0  0  0  0
  -24.2640  -36.6340   23.2060 C   0  0  0  0  0  1  0  0  0  0  0  0
  -25.4740  -36.2090   24.0540 C   0  0  0  0  0  3  0  0  0  0  0  0
  -27.5620  -37.0790   25.0070 C   0  0  0  0  0  1  0  0  0  0  0  0
  -26.5020  -37.2720   24.0220 N   0  0  0  0  0  0  0  0  0  0  0  0
  -26.0820  -38.1840   24.1820 H   0  0  0  0  0  0  0  0  0  0  0  0
  -26.5030  -31.5770   25.1710 C   0  0  1  0  0  0  0  0  0  0  0  0
  -25.4020  -31.2690   26.2120 C   0  0  0  0  0  1  0  0  0  0  0  0
  -27.1310  -30.2320   24.7380 C   0  0  0  0  0  1  0  0  0  0  0  0
  -27.6220  -32.3780   25.8800 C   0  0  0  0  0  1  0  0  0  0  0  0
  2  4  1  0
  2  6  1  0
  3  5  1  0
  4  7  1  0
  6 17  1  0
  6  3  1  0
  7  8  1  6
  7  1  1  0
  7  5  1  0
  9 17  1  0
 10 15  1  0
 11 12  1  0
 11 10  1  0
 13 12  1  0
 13 22  1  0
 13 14  1  0
 15  9  1  0
 15 14  1  0
 16  9  2  0
 17 18  1  0
 19 20  2  0
 20 39  1  0
 21 20  1  0
 21 24  1  0
 22 23  1  0
 22 19  1  0
 23 21  2  0
 24 25  1  0
 25 26  2  0
 27 30  1  0
 27 26  1  0
 28 27  2  0
 29 28  1  0
 29 24  2  0
 30 31  1  0
 31 36  2  0
 31 32  1  0
 32 33  2  0
 33 34  1  0
 34 38  1  0
 35 34  2  0
 36 35  1  0
 37 36  1  0
 39 40  1  0
 40 43  1  0
 40 42  1  0
 41 39  2  0
 44 19  1  0
 44 45  1  0
 46 44  1  0
 47 48  1  0
 47  1  1  0
 49 48  1  0
 50 49  1  0
 51 53  1  0
 51 50  1  0
 52 63  2  0
 53 58  1  0
 54 62  1  0
 54 64  1  0
 55 61  1  0
 55 57  1  0
 56 62  1  0
 57 56  1  0
 58 57  2  0
 59 60  1  0
 59 53  2  0
 60 55  2  0
 61 54  1  0
 62 52  1  0
 64 66  2  0
 65 64  1  0
 67 65  1  0
 68 77  2  0
 68 73  1  0
 69 65  1  0
 69 73  1  0
 70 69  1  0
 71 72  1  0
 71 70  1  0
 72 68  1  0
 73 74  2  0
 74 75  1  0
 76 75  2  0
 77 76  1  0
 78 52  1  0
 78 79  1  0
 78 88  1  0
 79 82  1  0
 80 84  1  0
 80 79  1  0
 81 80  2  0
 84 83  1  0
 86 84  1  0
 86 87  1  0
 86 85  1  0
 88 91  1  1
 88 89  1  0
 90 88  1  0
M  ISO  4   9 100  17 100  50 101  51 101
M  END
>  <TORSDO>  (65) 
F 21

>  <SCORE>  (65) 
-12.629

>  <name>  (65) 
64

>  <ligand_id>  (65) 
64

>  <original_smiles>  (65) 
[H]c1c([H])c([H])c2c(c1[H])C([H])([H])C([H])([H])C([H])([H])C2([H])N([H])C(=O)C1([H])N(C(=O)C([H])(N([H])C(=O)C([H])(N([H])C([H])([H])[H])C([H])([H])[H])C(C([H])([H])[H])(C([H])([H])[H])C([H])([H])[H])C([H])([H])c2c([H])c(OC([H])([H])C([H])([H])C([H])([H])C([H])([H])C([H])([H])[N+]3([H])C([H])([H])C([H])([H])C([H])(N([H])C(=O)N4C([H])([H])C([H])([H])C([H])([H])C([H])(n5nc(-c6c([H])c([H])c(Oc7c([H])c([H])c(F)c([H])c7F)c([H])c6[H])c(C(=O)N([H])[H])c5N([H])[H])C4([H])[H])C([H])([H])C3([H])[H])c([H])c([H])c2C1([H])[H]

>  <smiles>  (65) 
[H]c1c([H])c([H])c2c(c1[H])C([H])([H])C([H])([H])C([H])([H])C2([H])N([H])C(=O)C1([H])N(C(=O)C([H])(N([H])C(=O)C([H])(N([H])C([H])([H])[H])C([H])([H])[H])C(C([H])([H])[H])(C([H])([H])[H])C([H])([H])[H])C([H])([H])c2c([H])c(OC([H])([H])C([H])([H])C([H])([H])C([H])([H])C([H])([H])[N+]3([H])C([H])([H])C([H])([H])C([H])(N([H])C(=O)N4C([H])([H])C([H])([H])C([H])([H])C([H])(n5nc(-c6c([H])c([H])c(Oc7c([H])c([H])c(F)c([H])c7F)c([H])c6[H])c(C(=O)N([H])[H])c5N([H])[H])C4([H])[H])C([H])([H])C3([H])[H])c([H])c([H])c2C1([H])[H]

$$$$
65:0:0
     RDKit          3D

 94 99  0  0  1  0  0  0  0  0999 V2000
  -26.4140  -24.2750   20.5590 C   0  0  0  0  0  3  0  0  0  0  0  0
  -30.6630  -22.4430   21.2900 C   0  0  0  0  0  2  0  0  0  0  0  0
  -30.1550  -23.8560   20.7490 C   0  0  0  0  0  2  0  0  0  0  0  0
  -30.6700  -20.8850   20.6050 C   0  0  0  0  0  2  0  0  0  0  0  0
  -28.1790  -20.5470   20.8990 C   0  0  0  0  0  2  0  0  0  0  0  0
  -28.7680  -24.3990   21.1480 C   0  0  0  0  0  2  0  0  0  0  0  0
  -27.9360  -22.2350   21.3950 C   0  0  0  0  0  1  0  0  0  0  0  0
  -29.6470  -19.6160   20.8820 C   0  0  0  0  0  2  0  0  0  0  0  0
  -27.7210  -23.5040   20.4360 N   0  0  0  0  0  1  0  0  0  0  0  0
  -28.1070  -24.5420   20.4400 H   0  0  0  0  0  0  0  0  0  0  0  0
  -30.3510  -16.2920   20.2330 C   0  0  0  0  0  0  0  0  0  0  0  0
  -30.5340  -13.7310   19.2700 C   0  0  0  0  0  2  0  0  0  0  0  0
  -29.7010  -13.0410   18.1510 C   0  0  0  0  0  2  0  0  0  0  0  0
  -28.3770  -12.4910   18.6800 C   0  0  0  0  0  2  0  0  0  0  0  0
  -27.7400  -13.5140   19.6350 C   0  0  0  0  0  3  0  0  0  0  0  0
  -28.7110  -14.1050   20.7050 C   0  0  0  0  0  2  0  0  0  0  0  0
  -29.8230  -14.9110   20.0270 N   0  0  0  0  0  0  0  0  0  0  0  0
  -31.5720  -16.1460   20.0650 O   0  0  0  0  0  0  0  0  0  0  0  0
  -29.6430  -17.7320   20.4640 N   0  0  0  0  0  2  0  0  0  0  0  0
  -28.6670  -17.5820   20.4210 H   0  0  0  0  0  0  0  0  0  0  0  0
  -25.3920  -13.9380   20.4650 C   0  0  0  0  0  0  0  0  0  0  0  0
  -24.3640  -13.1330   20.8580 C   0  0  0  0  0  0  0  0  0  0  0  0
  -24.8560  -11.7930   20.7710 C   0  0  0  0  0  0  0  0  0  0  0  0
  -26.4550  -13.1010   20.1940 N   0  0  0  0  0  0  0  0  0  0  0  0
  -26.1400  -11.7990   20.4160 N   0  0  0  0  0  0  0  0  0  0  0  0
  -24.1290  -10.5170   20.9640 C   0  0  0  0  0  0  0  0  0  0  0  0
  -24.5600   -9.5550   21.9000 C   0  0  0  0  0  3  0  0  0  0  0  0
  -23.8340   -8.3610   22.0890 C   0  0  0  0  0  3  0  0  0  0  0  0
  -22.6580   -8.1160   21.3410 C   0  0  0  0  0  0  0  0  0  0  0  0
  -22.2440   -9.0690   20.3940 C   0  0  0  0  0  3  0  0  0  0  0  0
  -22.9710  -10.2550   20.2030 C   0  0  0  0  0  3  0  0  0  0  0  0
  -21.9040   -6.9700   21.4370 O   0  0  0  0  0  0  0  0  0  0  0  0
  -21.8270   -6.2500   22.6020 C   0  0  0  0  0  0  0  0  0  0  0  0
  -21.3630   -6.8270   23.8050 C   0  0  0  0  0  3  0  0  0  0  0  0
  -21.2350   -6.0350   24.9630 C   0  0  0  0  0  3  0  0  0  0  0  0
  -21.5600   -4.6660   24.9210 C   0  0  0  0  0  0  0  0  0  0  0  0
  -22.0160   -4.0870   23.7240 C   0  0  0  0  0  3  0  0  0  0  0  0
  -22.1470   -4.8760   22.5680 C   0  0  0  0  0  0  0  0  0  0  0  0
  -22.5650   -4.3100   21.4100 F   0  0  0  0  0  0  0  0  0  0  0  0
  -21.4300   -3.9030   26.0310 F   0  0  0  0  0  0  0  0  0  0  0  0
  -22.9710  -13.5920   21.1750 C   0  0  0  0  0  0  0  0  0  0  0  0
  -22.2780  -12.8800   22.0530 N   0  0  0  0  0  0  0  0  0  0  0  0
  -22.5100  -14.6230   20.6820 O   0  0  0  0  0  0  0  0  0  0  0  0
  -22.6640  -12.0480   22.4740 H   0  0  0  0  0  0  0  0  0  0  0  0
  -21.3460  -13.1700   22.3130 H   0  0  0  0  0  0  0  0  0  0  0  0
  -25.5280  -15.3180   20.3150 N   0  0  0  0  0  0  0  0  0  0  0  0
  -24.7420  -15.9520   20.4440 H   0  0  0  0  0  0  0  0  0  0  0  0
  -26.3560  -15.7790   19.9700 H   0  0  0  0  0  0  0  0  0  0  0  0
  -25.3740  -24.7060   19.4750 C   0  0  0  0  0  3  0  0  0  0  0  0
  -25.6100  -24.5940   17.9330 C   0  0  0  0  0  2  0  0  0  0  0  0
  -26.7350  -23.6310   17.6650 C   0  0  0  0  0  2  0  0  0  0  0  0
  -28.0410  -24.5370   17.5100 C   0  0  0  0  0  2  0  0  0  0  0  0
  -28.2070  -26.1430   17.7080 C   0  0  0  0  0  2  0  0  0  0  0  0
  -28.2380  -26.9960   18.9160 O   0  0  0  0  0  0  0  0  0  0  0  0
  -24.6940  -31.9950   23.1710 C   0  0  0  0  0  0  0  0  0  0  0  0
  -27.1810  -27.9190   19.2060 C   0  0  0  0  0  3  0  0  0  0  0  0
  -23.4240  -30.6940   21.4870 C   0  0  0  0  0  3  0  0  0  0  0  0
  -24.8250  -29.2560   19.8510 C   0  0  0  0  0  3  0  0  0  0  0  0
  -25.9820  -30.6650   21.5760 C   0  0  0  0  0  2  0  0  0  0  0  0
  -26.0290  -29.5350   20.6130 C   0  0  0  0  0  3  0  0  0  0  0  0
  -27.2060  -28.6960   20.4670 C   0  0  0  0  0  2  0  0  0  0  0  0
  -26.2180  -28.0920   18.2410 C   0  0  0  0  0  3  0  0  0  0  0  0
  -24.9880  -28.7410   18.6150 C   0  0  0  0  0  3  0  0  0  0  0  0
  -23.6310  -30.1860   20.0820 C   0  0  0  0  0  2  0  0  0  0  0  0
  -24.7090  -31.2150   22.0390 N   0  0  0  0  0  0  0  0  0  0  0  0
  -23.6440  -32.2360   23.7200 O   0  0  0  0  0  0  0  0  0  0  0  0
  -22.8470  -29.5910   22.4100 C   0  0  0  0  0  0  0  0  0  0  0  0
  -21.5120  -29.3440   22.3110 N   0  0  0  0  0  0  0  0  0  0  0  0
  -23.5990  -28.9650   23.1770 O   0  0  0  0  0  0  0  0  0  0  0  0
  -21.0120  -29.8900   21.6210 H   0  0  0  0  0  0  0  0  0  0  0  0
  -18.2030  -27.9650   22.8330 C   0  0  0  0  0  0  0  0  0  0  0  0
  -20.7460  -28.3820   23.0830 C   0  0  0  0  0  3  0  0  0  0  0  0
  -20.9240  -26.9450   22.5380 C   0  0  0  0  0  2  0  0  0  0  0  0
  -19.8500  -26.5470   21.5210 C   0  0  0  0  0  2  0  0  0  0  0  0
  -18.4520  -26.6260   22.1500 C   0  0  0  0  0  2  0  0  0  0  0  0
  -19.2790  -28.7950   23.2500 C   0  0  0  0  0  0  0  0  0  0  0  0
  -18.9780  -30.0320   23.8570 C   0  0  0  0  0  3  0  0  0  0  0  0
  -17.6490  -30.4510   24.0400 C   0  0  0  0  0  3  0  0  0  0  0  0
  -16.5870  -29.6190   23.6330 C   0  0  0  0  0  3  0  0  0  0  0  0
  -16.8680  -28.3770   23.0300 C   0  0  0  0  0  3  0  0  0  0  0  0
  -26.0130  -32.6010   23.7670 C   0  0  0  0  0  3  0  0  0  0  0  0
  -25.6740  -33.9790   24.1050 N   0  0  0  0  0  0  0  0  0  0  0  0
  -25.9890  -35.0580   23.3810 C   0  0  0  0  0  0  0  0  0  0  0  0
  -26.6140  -35.0040   22.3190 O   0  0  0  0  0  0  0  0  0  0  0  0
  -25.1180  -34.1050   24.9340 H   0  0  0  0  0  0  0  0  0  0  0  0
  -24.2200  -36.8340   23.1950 C   0  0  0  0  0  1  0  0  0  0  0  0
  -25.5130  -36.4160   23.9140 C   0  0  0  0  0  3  0  0  0  0  0  0
  -27.6640  -37.3170   24.6750 C   0  0  0  0  0  1  0  0  0  0  0  0
  -26.5140  -37.4930   23.7870 N   0  0  0  0  0  0  0  0  0  0  0  0
  -26.1010  -38.4020   23.9830 H   0  0  0  0  0  0  0  0  0  0  0  0
  -26.6170  -31.8230   25.0090 C   0  0  1  0  0  0  0  0  0  0  0  0
  -25.5610  -31.5560   26.1050 C   0  0  0  0  0  1  0  0  0  0  0  0
  -27.3160  -30.4670   24.6950 C   0  0  0  0  0  1  0  0  0  0  0  0
  -27.7350  -32.7030   25.6280 C   0  0  0  0  0  1  0  0  0  0  0  0
  3  6  1  0
  3  2  1  0
  4  8  1  0
  4  2  1  0
  5  7  1  0
  8  5  1  0
  9  1  1  0
 10  6  1  0
 11 19  1  0
 12 17  1  0
 13 14  1  0
 13 12  1  0
 15 14  1  0
 15 24  1  0
 15 16  1  0
 17 11  1  0
 17 16  1  0
 18 11  2  0
 20 19  1  0
 21 22  2  0
 22 41  1  0
 23 22  1  0
 23 26  1  0
 24 25  1  0
 24 21  1  0
 25 23  2  0
 26 27  1  0
 27 28  2  0
 29 32  1  0
 29 28  1  0
 30 29  2  0
 31 30  1  0
 31 26  2  0
 32 33  1  0
 33 34  1  0
 34 35  2  0
 36 35  1  0
 36 40  1  0
 37 36  2  0
 38 33  2  0
 38 37  1  0
 39 38  1  0
 41 42  1  0
 42 45  1  0
 42 44  1  0
 43 41  2  0
 46 47  1  0
 46 21  1  0
 48 46  1  0
 49  1  2  0
 50 49  1  0
 51 50  1  0
 52 51  1  0
 52 53  1  0
 53 54  1  0
 55 66  2  0
 56 54  1  0
 56 61  1  0
 57 65  1  0
 57 67  1  0
 58 63  1  0
 58 64  1  0
 58 60  1  0
 59 65  1  0
 60 61  1  0
 60 59  1  0
 62 63  2  0
 62 56  1  0
 64 57  1  0
 65 55  1  0
 67 69  2  0
 68 67  1  0
 70 68  1  0
 71 80  2  0
 71 76  1  0
 72 68  1  0
 72 76  1  0
 73 72  1  0
 74 75  1  0
 74 73  1  0
 75 71  1  0
 76 77  2  0
 77 78  1  0
 79 78  2  0
 80 79  1  0
 81 55  1  0
 81 82  1  0
 81 91  1  0
 82 85  1  0
 83 87  1  0
 83 82  1  0
 84 83  2  0
 87 86  1  0
 89 87  1  0
 89 90  1  0
 89 88  1  0
 91 94  1  1
 91 92  1  0
 93 91  1  0
M  ISO  4  11 100  19 100  53 101  54 101
M  END
>  <TORSDO>  (66) 
F 22

>  <SCORE>  (66) 
-13.367

>  <name>  (66) 
65

>  <ligand_id>  (66) 
65

>  <original_smiles>  (66) 
[H]c1c([H])c([H])c2c(c1[H])C([H])([H])C([H])([H])C([H])([H])C2([H])N([H])C(=O)C1([H])N(C(=O)C([H])(N([H])C(=O)C([H])(N([H])C([H])([H])[H])C([H])([H])[H])C(C([H])([H])[H])(C([H])([H])[H])C([H])([H])[H])C([H])([H])c2c([H])c(OC([H])([H])C([H])([H])C([H])([H])C([H])([H])C([H])([H])C([H])([H])[N+]3([H])C([H])([H])C([H])([H])C([H])([H])C([H])([H])C([H])(N([H])C(=O)N4C([H])([H])C([H])([H])C([H])([H])C([H])(n5nc(-c6c([H])c([H])c(Oc7c([H])c([H])c(F)c([H])c7F)c([H])c6[H])c(C(=O)N([H])[H])c5N([H])[H])C4([H])[H])C([H])([H])C3([H])[H])c([H])c([H])c2C1([H])[H]

>  <smiles>  (66) 
[H]c1c([H])c([H])c2c(c1[H])C([H])([H])C([H])([H])C([H])([H])C2([H])N([H])C(=O)C1([H])N(C(=O)C([H])(N([H])C(=O)C([H])(N([H])C([H])([H])[H])C([H])([H])[H])C(C([H])([H])[H])(C([H])([H])[H])C([H])([H])[H])C([H])([H])c2c([H])c(OC([H])([H])C([H])([H])C([H])([H])C([H])([H])C([H])([H])C([H])([H])[N+]3([H])C([H])([H])C([H])([H])C([H])([H])C([H])([H])C([H])(N([H])C(=O)N4C([H])([H])C([H])([H])C([H])([H])C([H])(n5nc(-c6c([H])c([H])c(Oc7c([H])c([H])c(F)c([H])c7F)c([H])c6[H])c(C(=O)N([H])[H])c5N([H])[H])C4([H])[H])C([H])([H])C3([H])[H])c([H])c([H])c2C1([H])[H]

$$$$
66:0:0
     RDKit          3D

 95103  0  0  1  0  0  0  0  0999 V2000
  -29.5320  -20.7340   21.0450 C   0  0  0  0  0  0  0  0  0  0  0  0
  -29.1900  -21.8910   20.4260 N   0  0  0  0  0  0  0  0  0  0  0  0
  -29.8340  -20.6990   22.2390 O   0  0  0  0  0  0  0  0  0  0  0  0
  -28.9360  -21.8240   19.4500 H   0  0  0  0  0  0  0  0  0  0  0  0
  -30.3600  -18.2110   20.8010 C   0  0  0  0  0  2  0  0  0  0  0  0
  -28.2740  -18.8120   19.8500 C   0  0  0  0  0  2  0  0  0  0  0  0
  -29.6260  -19.4400   20.1880 C   0  0  0  0  0  3  0  0  0  0  0  0
  -29.9770  -16.9960   19.9050 C   0  0  0  0  0  3  0  0  0  0  0  0
  -28.6250  -17.4250   19.2580 C   0  0  0  0  0  3  0  0  0  0  0  0
  -30.6410  -14.6110   20.3640 C   0  0  0  0  0  0  0  0  0  0  0  0
  -30.3650  -12.4150   19.2820 C   0  0  0  0  0  2  0  0  0  0  0  0
  -29.4160  -12.6010   18.0770 C   0  0  0  0  0  2  0  0  0  0  0  0
  -27.9450  -12.4630   18.5120 C   0  0  0  0  0  2  0  0  0  0  0  0
  -27.6070  -13.2920   19.7800 C   0  0  0  0  0  3  0  0  0  0  0  0
  -28.6770  -13.1070   20.8840 C   0  0  0  0  0  2  0  0  0  0  0  0
  -29.9930  -13.4140   20.3000 N   0  0  0  0  0  0  0  0  0  0  0  0
  -31.7910  -14.7620   19.9500 O   0  0  0  0  0  0  0  0  0  0  0  0
  -29.8540  -15.6880   20.6070 N   0  0  0  0  0  0  0  0  0  0  0  0
  -28.9570  -15.4770   21.0120 H   0  0  0  0  0  0  0  0  0  0  0  0
  -25.2090  -13.8810   20.5010 C   0  0  0  0  0  0  0  0  0  0  0  0
  -24.1440  -13.0980   20.8630 C   0  0  0  0  0  0  0  0  0  0  0  0
  -24.6180  -11.7520   20.8330 C   0  0  0  0  0  0  0  0  0  0  0  0
  -26.2610  -13.0060   20.2660 N   0  0  0  0  0  0  0  0  0  0  0  0
  -25.9080  -11.7220   20.5260 N   0  0  0  0  0  0  0  0  0  0  0  0
  -23.9020  -10.4850   21.0290 C   0  0  0  0  0  0  0  0  0  0  0  0
  -24.3480   -9.5240   21.9620 C   0  0  0  0  0  3  0  0  0  0  0  0
  -23.6330   -8.3210   22.1420 C   0  0  0  0  0  3  0  0  0  0  0  0
  -22.4610   -8.0730   21.3910 C   0  0  0  0  0  0  0  0  0  0  0  0
  -22.0340   -9.0230   20.4480 C   0  0  0  0  0  3  0  0  0  0  0  0
  -22.7490  -10.2180   20.2640 C   0  0  0  0  0  3  0  0  0  0  0  0
  -21.7150   -6.9230   21.4800 O   0  0  0  0  0  0  0  0  0  0  0  0
  -21.6750   -6.1780   22.6330 C   0  0  0  0  0  0  0  0  0  0  0  0
  -21.2510   -6.7290   23.8620 C   0  0  0  0  0  3  0  0  0  0  0  0
  -21.1640   -5.9110   25.0060 C   0  0  0  0  0  3  0  0  0  0  0  0
  -21.4890   -4.5430   24.9200 C   0  0  0  0  0  0  0  0  0  0  0  0
  -21.9050   -3.9930   23.6950 C   0  0  0  0  0  3  0  0  0  0  0  0
  -21.9950   -4.8080   22.5530 C   0  0  0  0  0  0  0  0  0  0  0  0
  -22.3780   -4.2700   21.3700 F   0  0  0  0  0  0  0  0  0  0  0  0
  -21.3960   -3.7550   26.0160 F   0  0  0  0  0  0  0  0  0  0  0  0
  -22.7450  -13.5680   21.1370 C   0  0  0  0  0  0  0  0  0  0  0  0
  -22.0180  -12.8680   22.0000 N   0  0  0  0  0  0  0  0  0  0  0  0
  -22.3040  -14.5930   20.6200 O   0  0  0  0  0  0  0  0  0  0  0  0
  -22.3910  -12.0470   22.4520 H   0  0  0  0  0  0  0  0  0  0  0  0
  -21.0780  -13.1640   22.2190 H   0  0  0  0  0  0  0  0  0  0  0  0
  -25.3660  -15.2520   20.3390 N   0  0  0  0  0  0  0  0  0  0  0  0
  -24.6050  -15.8970   20.5250 H   0  0  0  0  0  0  0  0  0  0  0  0
  -26.2470  -15.7140   20.1720 H   0  0  0  0  0  0  0  0  0  0  0  0
  -28.7290  -17.4990   17.7880 N   0  0  0  0  0  4  0  0  0  0  0  0
  -29.4430  -18.1410   17.4950 H   0  0  0  0  0  0  0  0  0  0  0  0
  -27.8540  -17.7930   17.3880 H   0  0  0  0  0  0  0  0  0  0  0  0
  -28.9470  -16.5950   17.4080 H   0  0  0  0  0  0  0  0  0  0  0  0
  -29.3130  -23.2600   20.9880 C   0  0  0  0  0  2  0  0  0  0  0  0
  -28.1800  -24.2670   20.5920 C   0  0  0  0  0  2  0  0  0  0  0  0
  -28.5840  -25.4650   19.6720 C   0  0  0  0  0  2  0  0  0  0  0  0
  -28.4440  -26.7800   20.2560 O   0  0  0  0  0  0  0  0  0  0  0  0
  -24.5580  -31.9540   23.2560 C   0  0  0  0  0  0  0  0  0  0  0  0
  -27.2470  -27.4800   20.2170 C   0  0  0  0  0  0  0  0  0  0  0  0
  -23.3720  -30.5430   21.6050 C   0  0  0  0  0  3  0  0  0  0  0  0
  -24.8460  -28.9990   20.2010 C   0  0  0  0  0  0  0  0  0  0  0  0
  -25.9010  -30.8990   21.4350 C   0  0  0  0  0  2  0  0  0  0  0  0
  -25.9960  -29.5240   20.8010 C   0  0  0  0  0  0  0  0  0  0  0  0
  -27.1940  -28.7700   20.8060 C   0  0  0  0  0  3  0  0  0  0  0  0
  -26.0680  -26.9740   19.6200 C   0  0  0  0  0  3  0  0  0  0  0  0
  -24.8770  -27.7250   19.6110 C   0  0  0  0  0  3  0  0  0  0  0  0
  -23.5990  -29.8570   20.2310 C   0  0  0  0  0  2  0  0  0  0  0  0
  -24.6270  -31.1490   22.1560 N   0  0  0  0  0  0  0  0  0  0  0  0
  -23.4700  -32.2240   23.7820 O   0  0  0  0  0  0  0  0  0  0  0  0
  -22.7140  -29.5240   22.5620 C   0  0  0  0  0  0  0  0  0  0  0  0
  -21.3920  -29.3370   22.4220 N   0  0  0  0  0  0  0  0  0  0  0  0
  -23.3890  -28.9060   23.3880 O   0  0  0  0  0  0  0  0  0  0  0  0
  -20.9070  -29.8900   21.7270 H   0  0  0  0  0  0  0  0  0  0  0  0
  -18.0160  -28.1340   22.8820 C   0  0  0  0  0  0  0  0  0  0  0  0
  -20.5690  -28.3980   23.1830 C   0  0  0  0  0  3  0  0  0  0  0  0
  -20.6820  -26.9660   22.6090 C   0  0  0  0  0  2  0  0  0  0  0  0
  -19.5920  -26.6410   21.5840 C   0  0  0  0  0  2  0  0  0  0  0  0
  -18.2030  -26.7830   22.2130 C   0  0  0  0  0  2  0  0  0  0  0  0
  -19.1280  -28.8990   23.3240 C   0  0  0  0  0  0  0  0  0  0  0  0
  -18.8990  -30.1630   23.9100 C   0  0  0  0  0  3  0  0  0  0  0  0
  -17.5910  -30.6610   24.0600 C   0  0  0  0  0  3  0  0  0  0  0  0
  -16.4930  -29.8910   23.6370 C   0  0  0  0  0  3  0  0  0  0  0  0
  -16.7080  -28.6300   23.0530 C   0  0  0  0  0  3  0  0  0  0  0  0
  -25.8350  -32.5900   23.8890 C   0  0  0  0  0  3  0  0  0  0  0  0
  -25.5230  -33.9910   24.2040 N   0  0  0  0  0  0  0  0  0  0  0  0
  -25.8700  -35.0370   23.4420 C   0  0  0  0  0  0  0  0  0  0  0  0
  -26.5530  -34.9240   22.4210 O   0  0  0  0  0  0  0  0  0  0  0  0
  -24.9200  -34.1540   24.9960 H   0  0  0  0  0  0  0  0  0  0  0  0
  -24.1500  -36.8270   23.0440 C   0  0  0  0  0  1  0  0  0  0  0  0
  -25.3760  -36.4280   23.8800 C   0  0  0  0  0  3  0  0  0  0  0  0
  -27.4980  -37.3170   24.7400 C   0  0  0  0  0  1  0  0  0  0  0  0
  -26.4130  -37.4790   23.7760 N   0  0  0  0  0  0  0  0  0  0  0  0
  -26.0070  -38.4010   23.9070 H   0  0  0  0  0  0  0  0  0  0  0  0
  -26.3390  -31.8270   25.1750 C   0  0  1  0  0  0  0  0  0  0  0  0
  -25.2340  -31.5950   26.2320 C   0  0  0  0  0  1  0  0  0  0  0  0
  -26.9270  -30.4490   24.7960 C   0  0  0  0  0  1  0  0  0  0  0  0
  -27.4820  -32.6260   25.8440 C   0  0  0  0  0  1  0  0  0  0  0  0
  1  3  2  0
  2 52  1  0
  2  1  1  0
  4  2  1  0
  6  7  1  0
  7  5  1  0
  7  1  1  0
  8 18  1  0
  8  5  1  0
  9 48  1  0
  9  6  1  0
  9  8  1  0
 10 18  1  0
 11 16  1  0
 12 13  1  0
 12 11  1  0
 14 13  1  0
 14 23  1  0
 14 15  1  0
 16 10  1  0
 16 15  1  0
 17 10  2  0
 18 19  1  0
 20 21  2  0
 21 40  1  0
 22 21  1  0
 22 25  1  0
 23 20  1  0
 23 24  1  0
 24 22  2  0
 25 26  1  0
 26 27  2  0
 28 31  1  0
 28 27  1  0
 29 28  2  0
 30 29  1  0
 30 25  2  0
 31 32  1  0
 32 33  1  0
 33 34  2  0
 35 34  1  0
 35 39  1  0
 36 35  2  0
 37 32  2  0
 37 36  1  0
 38 37  1  0
 40 41  1  0
 41 44  1  0
 41 43  1  0
 42 40  2  0
 45 20  1  0
 45 46  1  0
 47 45  1  0
 49 48  1  0
 50 48  1  0
 51 48  1  0
 53 52  1  0
 54 55  1  0
 54 53  1  0
 56 67  2  0
 57 55  1  0
 57 62  1  0
 58 66  1  0
 58 68  1  0
 59 65  1  0
 59 61  1  0
 60 66  1  0
 61 62  2  0
 61 60  1  0
 63 57  2  0
 64 63  1  0
 64 59  2  0
 65 58  1  0
 66 56  1  0
 68 70  2  0
 69 68  1  0
 71 69  1  0
 72 81  2  0
 72 77  1  0
 73 69  1  0
 73 77  1  0
 74 73  1  0
 75 76  1  0
 75 74  1  0
 76 72  1  0
 77 78  2  0
 78 79  1  0
 80 79  2  0
 81 80  1  0
 82 56  1  0
 82 83  1  0
 82 92  1  0
 83 86  1  0
 84 88  1  0
 84 83  1  0
 85 84  2  0
 88 87  1  0
 90 88  1  0
 90 91  1  0
 90 89  1  0
 92 95  1  1
 92 93  1  0
 94 92  1  0
M  ISO  4  10 100  18 100  54 101  55 101
M  END
>  <TORSDO>  (67) 
F 21

>  <SCORE>  (67) 
-13.917

>  <name>  (67) 
66

>  <ligand_id>  (67) 
66

>  <original_smiles>  (67) 
[H]c1c([H])c([H])c2c(c1[H])C([H])([H])C([H])([H])C([H])([H])C2([H])N([H])C(=O)C1([H])N(C(=O)C([H])(N([H])C(=O)C([H])(N([H])C([H])([H])[H])C([H])([H])[H])C(C([H])([H])[H])(C([H])([H])[H])C([H])([H])[H])C([H])([H])c2c([H])c(OC([H])([H])C([H])([H])C([H])([H])N([H])C(=O)C3([H])C([H])([H])C([H])(N([H])C(=O)N4C([H])([H])C([H])([H])C([H])([H])C([H])(n5nc(-c6c([H])c([H])c(Oc7c([H])c([H])c(F)c([H])c7F)c([H])c6[H])c(C(=O)N([H])[H])c5N([H])[H])C4([H])[H])C([H])([N+]([H])([H])[H])C3([H])[H])c([H])c([H])c2C1([H])[H]

>  <smiles>  (67) 
[H]c1c([H])c([H])c2c(c1[H])C([H])([H])C([H])([H])C([H])([H])C2([H])N([H])C(=O)C1([H])N(C(=O)C([H])(N([H])C(=O)C([H])(N([H])C([H])([H])[H])C([H])([H])[H])C(C([H])([H])[H])(C([H])([H])[H])C([H])([H])[H])C([H])([H])c2c([H])c(OC([H])([H])C([H])([H])C([H])([H])N([H])C(=O)C3([H])C([H])([H])C([H])(N([H])C(=O)N4C([H])([H])C([H])([H])C([H])([H])C([H])(n5nc(-c6c([H])c([H])c(Oc7c([H])c([H])c(F)c([H])c7F)c([H])c6[H])c(C(=O)N([H])[H])c5N([H])[H])C4([H])[H])C([H])([N+]([H])([H])[H])C3([H])[H])c([H])c([H])c2C1([H])[H]

$$$$
67:0:0
     RDKit          3D

 96104  0  0  1  0  0  0  0  0999 V2000
  -29.6410  -21.8060   24.1740 C   0  0  0  0  0  2  0  0  0  0  0  0
  -30.4730  -20.6230   23.6480 C   0  0  0  0  0  2  0  0  0  0  0  0
  -30.1760  -19.2540   24.3200 C   0  0  0  0  0  2  0  0  0  0  0  0
  -30.9450  -18.1260   23.7250 N   0  0  0  0  0  4  0  0  0  0  0  0
  -31.8800  -18.4490   23.5270 H   0  0  0  0  0  0  0  0  0  0  0  0
  -31.0330  -17.4270   24.4490 H   0  0  0  0  0  0  0  0  0  0  0  0
  -31.4790  -14.4750   20.4440 C   0  0  0  0  0  0  0  0  0  0  0  0
  -31.0300  -12.3270   19.3320 C   0  0  0  0  0  2  0  0  0  0  0  0
  -30.1210  -12.5600   18.1080 C   0  0  0  0  0  2  0  0  0  0  0  0
  -28.6340  -12.5490   18.5150 C   0  0  0  0  0  2  0  0  0  0  0  0
  -28.3410  -13.4430   19.7510 C   0  0  0  0  0  3  0  0  0  0  0  0
  -29.3610  -13.1830   20.8820 C   0  0  0  0  0  2  0  0  0  0  0  0
  -30.7110  -13.3620   20.3240 N   0  0  0  0  0  0  0  0  0  0  0  0
  -32.6300  -14.5520   20.0000 O   0  0  0  0  0  0  0  0  0  0  0  0
  -29.5880  -17.6280   20.1300 C   0  0  0  0  0  2  0  0  0  0  0  0
  -30.0960  -18.3790   21.3540 C   0  0  0  0  0  2  0  0  0  0  0  0
  -30.5880  -16.5410   19.7370 C   0  0  0  0  0  2  0  0  0  0  0  0
  -31.3050  -16.2720   22.0660 C   0  0  0  0  0  2  0  0  0  0  0  0
  -30.3740  -17.4280   22.5360 C   0  0  0  0  0  3  0  0  0  0  0  0
  -30.8300  -15.5950   20.8400 N   0  0  0  0  0  0  0  0  0  0  0  0
  -26.0030  -14.2430   20.4680 C   0  0  0  0  0  0  0  0  0  0  0  0
  -24.8680  -13.5580   20.8130 C   0  0  0  0  0  0  0  0  0  0  0  0
  -25.2080  -12.1720   20.7460 C   0  0  0  0  0  0  0  0  0  0  0  0
  -26.9660  -13.2780   20.2150 N   0  0  0  0  0  0  0  0  0  0  0  0
  -26.4900  -12.0260   20.4380 N   0  0  0  0  0  0  0  0  0  0  0  0
  -24.3720  -10.9760   20.8950 C   0  0  0  0  0  0  0  0  0  0  0  0
  -24.7230   -9.9350   21.7830 C   0  0  0  0  0  3  0  0  0  0  0  0
  -23.8910   -8.8030   21.9240 C   0  0  0  0  0  3  0  0  0  0  0  0
  -22.6940   -8.7040   21.1750 C   0  0  0  0  0  0  0  0  0  0  0  0
  -22.3610   -9.7330   20.2760 C   0  0  0  0  0  3  0  0  0  0  0  0
  -23.1930  -10.8560   20.1330 C   0  0  0  0  0  3  0  0  0  0  0  0
  -21.8370   -7.6320   21.2300 O   0  0  0  0  0  0  0  0  0  0  0  0
  -21.7230   -6.8570   22.3570 C   0  0  0  0  0  0  0  0  0  0  0  0
  -21.3780   -7.4110   23.6090 C   0  0  0  0  0  3  0  0  0  0  0  0
  -21.2050   -6.5690   24.7260 C   0  0  0  0  0  3  0  0  0  0  0  0
  -21.3660   -5.1770   24.5920 C   0  0  0  0  0  0  0  0  0  0  0  0
  -21.7030   -4.6240   23.3440 C   0  0  0  0  0  3  0  0  0  0  0  0
  -21.8790   -5.4620   22.2290 C   0  0  0  0  0  0  0  0  0  0  0  0
  -22.1840   -4.9230   21.0240 F   0  0  0  0  0  0  0  0  0  0  0  0
  -21.1910   -4.3670   25.6620 F   0  0  0  0  0  0  0  0  0  0  0  0
  -23.5190  -14.1510   21.0960 C   0  0  0  0  0  0  0  0  0  0  0  0
  -22.7330  -13.5080   21.9520 N   0  0  0  0  0  0  0  0  0  0  0  0
  -23.1720  -15.2190   20.5930 O   0  0  0  0  0  0  0  0  0  0  0  0
  -23.0260  -12.6440   22.3830 H   0  0  0  0  0  0  0  0  0  0  0  0
  -21.8230  -13.8850   22.1790 H   0  0  0  0  0  0  0  0  0  0  0  0
  -26.2890  -15.5960   20.3260 N   0  0  0  0  0  0  0  0  0  0  0  0
  -25.5820  -16.3140   20.4470 H   0  0  0  0  0  0  0  0  0  0  0  0
  -27.1730  -15.9590   19.9940 H   0  0  0  0  0  0  0  0  0  0  0  0
  -30.0800  -23.1450   23.5340 C   0  0  0  0  0  2  0  0  0  0  0  0
  -29.1690  -24.2650   23.8560 N   0  0  0  0  0  4  0  0  0  0  0  0
  -29.0560  -24.2950   24.8570 H   0  0  0  0  0  0  0  0  0  0  0  0
  -28.2620  -24.0890   23.4570 H   0  0  0  0  0  0  0  0  0  0  0  0
  -29.6640  -25.5950   23.4260 C   0  0  0  0  0  2  0  0  0  0  0  0
  -28.7180  -26.3570   22.4670 C   0  0  0  0  0  2  0  0  0  0  0  0
  -28.5150  -25.6980   21.0840 C   0  0  0  0  0  2  0  0  0  0  0  0
  -28.3080  -26.6690   20.0540 O   0  0  0  0  0  0  0  0  0  0  0  0
  -24.5570  -31.8330   23.1780 C   0  0  0  0  0  0  0  0  0  0  0  0
  -27.1340  -27.3760   20.1120 C   0  0  0  0  0  0  0  0  0  0  0  0
  -23.3160  -30.4260   21.5610 C   0  0  0  0  0  3  0  0  0  0  0  0
  -24.7410  -28.8720   20.1290 C   0  0  0  0  0  0  0  0  0  0  0  0
  -25.8320  -30.7860   21.3130 C   0  0  0  0  0  2  0  0  0  0  0  0
  -25.9060  -29.4070   20.6930 C   0  0  0  0  0  0  0  0  0  0  0  0
  -27.1060  -28.6650   20.6820 C   0  0  0  0  0  3  0  0  0  0  0  0
  -25.9590  -26.8430   19.5440 C   0  0  0  0  0  3  0  0  0  0  0  0
  -24.7590  -27.5850   19.5530 C   0  0  0  0  0  3  0  0  0  0  0  0
  -23.5020  -29.7350   20.1830 C   0  0  0  0  0  2  0  0  0  0  0  0
  -24.5870  -31.0290   22.0780 N   0  0  0  0  0  0  0  0  0  0  0  0
  -23.4870  -32.1130   23.7350 O   0  0  0  0  0  0  0  0  0  0  0  0
  -22.6770  -29.4140   22.5370 C   0  0  0  0  0  0  0  0  0  0  0  0
  -21.3530  -29.2250   22.4170 N   0  0  0  0  0  0  0  0  0  0  0  0
  -23.3690  -28.8010   23.3550 O   0  0  0  0  0  0  0  0  0  0  0  0
  -20.8570  -29.7700   21.7270 H   0  0  0  0  0  0  0  0  0  0  0  0
  -17.9880  -28.0130   22.9250 C   0  0  0  0  0  0  0  0  0  0  0  0
  -20.5420  -28.2920   23.2000 C   0  0  0  0  0  3  0  0  0  0  0  0
  -20.6570  -26.8540   22.6440 C   0  0  0  0  0  2  0  0  0  0  0  0
  -19.5610  -26.5100   21.6300 C   0  0  0  0  0  2  0  0  0  0  0  0
  -18.1760  -26.6550   22.2680 C   0  0  0  0  0  2  0  0  0  0  0  0
  -19.1000  -28.7890   23.3470 C   0  0  0  0  0  0  0  0  0  0  0  0
  -18.8730  -30.0610   23.9150 C   0  0  0  0  0  3  0  0  0  0  0  0
  -17.5650  -30.5590   24.0640 C   0  0  0  0  0  3  0  0  0  0  0  0
  -16.4660  -29.7790   23.6600 C   0  0  0  0  0  3  0  0  0  0  0  0
  -16.6790  -28.5090   23.0970 C   0  0  0  0  0  3  0  0  0  0  0  0
  -25.8580  -32.4550   23.7770 C   0  0  0  0  0  3  0  0  0  0  0  0
  -25.5590  -33.8470   24.1330 N   0  0  0  0  0  0  0  0  0  0  0  0
  -25.8870  -34.9090   23.3850 C   0  0  0  0  0  0  0  0  0  0  0  0
  -26.5480  -34.8200   22.3460 O   0  0  0  0  0  0  0  0  0  0  0  0
  -24.9810  -33.9930   24.9470 H   0  0  0  0  0  0  0  0  0  0  0  0
  -24.1600  -36.7080   23.0720 C   0  0  0  0  0  1  0  0  0  0  0  0
  -25.4080  -36.2910   23.8660 C   0  0  0  0  0  3  0  0  0  0  0  0
  -27.5570  -37.1600   24.6810 C   0  0  0  0  0  1  0  0  0  0  0  0
  -26.4410  -37.3440   23.7570 N   0  0  0  0  0  0  0  0  0  0  0  0
  -26.0390  -38.2620   23.9260 H   0  0  0  0  0  0  0  0  0  0  0  0
  -26.4110  -31.6630   25.0250 C   0  0  1  0  0  0  0  0  0  0  0  0
  -25.3440  -31.3920   26.1110 C   0  0  0  0  0  1  0  0  0  0  0  0
  -26.9990  -30.3010   24.5840 C   0  0  0  0  0  1  0  0  0  0  0  0
  -27.5650  -32.4540   25.6840 C   0  0  0  0  0  1  0  0  0  0  0  0
  2  1  1  0
  2  3  1  0
  4  3  1  0
  4  6  1  0
  5  4  1  0
  7 20  1  0
  8 13  1  0
  9 10  1  0
  9  8  1  0
 11 10  1  0
 11 24  1  0
 11 12  1  0
 13  7  1  0
 13 12  1  0
 14  7  2  0
 15 16  1  0
 16 19  1  0
 17 15  1  0
 17 20  1  0
 18 19  1  0
 19  4  1  0
 20 18  1  0
 21 22  2  0
 22 41  1  0
 23 22  1  0
 23 26  1  0
 24 25  1  0
 24 21  1  0
 25 23  2  0
 26 27  1  0
 27 28  2  0
 29 32  1  0
 29 28  1  0
 30 29  2  0
 31 30  1  0
 31 26  2  0
 32 33  1  0
 33 34  1  0
 34 35  2  0
 36 35  1  0
 36 40  1  0
 37 36  2  0
 38 33  2  0
 38 37  1  0
 39 38  1  0
 41 42  1  0
 42 45  1  0
 42 44  1  0
 43 41  2  0
 46 47  1  0
 46 21  1  0
 48 46  1  0
 49 50  1  0
 49  1  1  0
 50 51  1  0
 52 50  1  0
 53 50  1  0
 54 53  1  0
 55 54  1  0
 56 58  1  0
 56 55  1  0
 57 68  2  0
 58 63  1  0
 59 67  1  0
 59 69  1  0
 60 66  1  0
 60 62  1  0
 61 67  1  0
 62 61  1  0
 63 62  2  0
 64 65  1  0
 64 58  2  0
 65 60  2  0
 66 59  1  0
 67 57  1  0
 69 71  2  0
 70 69  1  0
 72 70  1  0
 73 82  2  0
 73 78  1  0
 74 70  1  0
 74 78  1  0
 75 74  1  0
 76 77  1  0
 76 75  1  0
 77 73  1  0
 78 79  2  0
 79 80  1  0
 81 80  2  0
 82 81  1  0
 83 57  1  0
 83 84  1  0
 83 93  1  0
 84 87  1  0
 85 89  1  0
 85 84  1  0
 86 85  2  0
 89 88  1  0
 91 89  1  0
 91 92  1  0
 91 90  1  0
 93 96  1  1
 93 94  1  0
 95 93  1  0
M  ISO  4   7 100  20 100  55 101  56 101
M  END
>  <TORSDO>  (68) 
F 24

>  <SCORE>  (68) 
-10.535

>  <name>  (68) 
67

>  <ligand_id>  (68) 
67

>  <original_smiles>  (68) 
[H]c1c([H])c([H])c2c(c1[H])C([H])([H])C([H])([H])C([H])([H])C2([H])N([H])C(=O)C1([H])N(C(=O)C([H])(N([H])C(=O)C([H])(N([H])C([H])([H])[H])C([H])([H])[H])C(C([H])([H])[H])(C([H])([H])[H])C([H])([H])[H])C([H])([H])c2c([H])c(OC([H])([H])C([H])([H])C([H])([H])[N+]([H])([H])C([H])([H])C([H])([H])C([H])([H])C([H])([H])[N+]([H])([H])C3([H])C([H])([H])N(C(=O)N4C([H])([H])C([H])([H])C([H])([H])C([H])(n5nc(-c6c([H])c([H])c(Oc7c([H])c([H])c(F)c([H])c7F)c([H])c6[H])c(C(=O)N([H])[H])c5N([H])[H])C4([H])[H])C([H])([H])C([H])([H])C3([H])[H])c([H])c([H])c2C1([H])[H]

>  <smiles>  (68) 
[H]c1c([H])c([H])c2c(c1[H])C([H])([H])C([H])([H])C([H])([H])C2([H])N([H])C(=O)C1([H])N(C(=O)C([H])(N([H])C(=O)C([H])(N([H])C([H])([H])[H])C([H])([H])[H])C(C([H])([H])[H])(C([H])([H])[H])C([H])([H])[H])C([H])([H])c2c([H])c(OC([H])([H])C([H])([H])C([H])([H])[N+]([H])([H])C([H])([H])C([H])([H])C([H])([H])C([H])([H])[N+]([H])([H])C3([H])C([H])([H])N(C(=O)N4C([H])([H])C([H])([H])C([H])([H])C([H])(n5nc(-c6c([H])c([H])c(Oc7c([H])c([H])c(F)c([H])c7F)c([H])c6[H])c(C(=O)N([H])[H])c5N([H])[H])C4([H])[H])C([H])([H])C([H])([H])C3([H])[H])c([H])c([H])c2C1([H])[H]

$$$$
68:0:0
     RDKit          3D

 92100  0  0  1  0  0  0  0  0999 V2000
  -28.3240  -22.1850   20.2520 C   0  0  0  0  0  0  0  0  0  0  0  0
  -29.1600  -23.1440   19.8350 N   0  0  0  0  0  0  0  0  0  0  0  0
  -27.1180  -22.3830   20.4140 O   0  0  0  0  0  0  0  0  0  0  0  0
  -30.1380  -22.8930   19.7520 H   0  0  0  0  0  0  0  0  0  0  0  0
  -28.9460  -20.7990   20.4930 C   0  0  0  0  0  2  0  0  0  0  0  0
  -27.9450  -19.6250   20.4340 C   0  0  0  0  0  2  0  0  0  0  0  0
  -29.3440  -16.3690   18.9730 C   0  0  0  0  0  3  0  0  0  0  0  0
  -28.6760  -17.6020   19.0990 C   0  0  0  0  0  3  0  0  0  0  0  0
  -29.2620  -17.6700   21.4590 C   0  0  0  0  0  3  0  0  0  0  0  0
  -29.9800  -15.7710   20.0850 C   0  0  0  0  0  0  0  0  0  0  0  0
  -28.6390  -18.2680   20.3390 C   0  0  0  0  0  0  0  0  0  0  0  0
  -29.9320  -16.4290   21.3360 C   0  0  0  0  0  0  0  0  0  0  0  0
  -30.5440  -15.8940   22.4210 F   0  0  0  0  0  0  0  0  0  0  0  0
  -30.7680  -14.5060   19.8580 C   0  0  0  0  0  0  0  0  0  0  0  0
  -30.3760  -12.3190   18.8200 C   0  0  0  0  0  2  0  0  0  0  0  0
  -29.3640  -12.5330   17.6730 C   0  0  0  0  0  2  0  0  0  0  0  0
  -27.9190  -12.4210   18.1990 C   0  0  0  0  0  2  0  0  0  0  0  0
  -27.6750  -13.2830   19.4670 C   0  0  0  0  0  3  0  0  0  0  0  0
  -28.8010  -13.0910   20.5060 C   0  0  0  0  0  2  0  0  0  0  0  0
  -30.0910  -13.3300   19.8470 N   0  0  0  0  0  0  0  0  0  0  0  0
  -31.9010  -14.6330   19.3870 O   0  0  0  0  0  0  0  0  0  0  0  0
  -25.3730  -13.9350   20.4080 C   0  0  0  0  0  0  0  0  0  0  0  0
  -24.3110  -13.1790   20.8300 C   0  0  0  0  0  0  0  0  0  0  0  0
  -24.7200  -11.8160   20.7020 C   0  0  0  0  0  0  0  0  0  0  0  0
  -26.3600  -13.0300   20.0480 N   0  0  0  0  0  0  0  0  0  0  0  0
  -25.9770  -11.7500   20.2840 N   0  0  0  0  0  0  0  0  0  0  0  0
  -23.9690  -10.5700   20.9000 C   0  0  0  0  0  0  0  0  0  0  0  0
  -24.3800   -9.6020   21.8440 C   0  0  0  0  0  3  0  0  0  0  0  0
  -23.6320   -8.4190   22.0270 C   0  0  0  0  0  3  0  0  0  0  0  0
  -22.4600   -8.1960   21.2680 C   0  0  0  0  0  0  0  0  0  0  0  0
  -22.0680   -9.1510   20.3130 C   0  0  0  0  0  3  0  0  0  0  0  0
  -22.8150  -10.3260   20.1280 C   0  0  0  0  0  3  0  0  0  0  0  0
  -21.6840   -7.0650   21.3590 O   0  0  0  0  0  0  0  0  0  0  0  0
  -21.5300   -6.3910   22.5440 C   0  0  0  0  0  0  0  0  0  0  0  0
  -21.0120   -7.0210   23.6970 C   0  0  0  0  0  3  0  0  0  0  0  0
  -20.8060   -6.2730   24.8750 C   0  0  0  0  0  3  0  0  0  0  0  0
  -21.1100   -4.8990   24.8980 C   0  0  0  0  0  0  0  0  0  0  0  0
  -21.6190   -4.2690   23.7490 C   0  0  0  0  0  3  0  0  0  0  0  0
  -21.8270   -5.0140   22.5740 C   0  0  0  0  0  0  0  0  0  0  0  0
  -22.2990   -4.3990   21.4630 F   0  0  0  0  0  0  0  0  0  0  0  0
  -20.9030   -4.1780   26.0250 F   0  0  0  0  0  0  0  0  0  0  0  0
  -22.9580  -13.6860   21.2400 C   0  0  0  0  0  0  0  0  0  0  0  0
  -22.2990  -12.9950   22.1650 N   0  0  0  0  0  0  0  0  0  0  0  0
  -22.4980  -14.7280   20.7760 O   0  0  0  0  0  0  0  0  0  0  0  0
  -22.6850  -12.1500   22.5590 H   0  0  0  0  0  0  0  0  0  0  0  0
  -21.3960  -13.3170   22.4830 H   0  0  0  0  0  0  0  0  0  0  0  0
  -25.5740  -15.3060   20.2790 N   0  0  0  0  0  0  0  0  0  0  0  0
  -24.8550  -15.9850   20.5010 H   0  0  0  0  0  0  0  0  0  0  0  0
  -26.4280  -15.7330   19.9410 H   0  0  0  0  0  0  0  0  0  0  0  0
  -28.8040  -24.5000   19.4080 C   0  0  0  0  0  2  0  0  0  0  0  0
  -28.4960  -25.4390   20.5890 C   0  0  0  0  0  2  0  0  0  0  0  0
  -28.5560  -26.8110   20.1810 O   0  0  0  0  0  0  0  0  0  0  0  0
  -24.5040  -31.7900   23.2060 C   0  0  0  0  0  0  0  0  0  0  0  0
  -27.3580  -27.4840   20.1510 C   0  0  0  0  0  0  0  0  0  0  0  0
  -23.3790  -30.3630   21.5270 C   0  0  0  0  0  3  0  0  0  0  0  0
  -24.9130  -28.8920   20.1180 C   0  0  0  0  0  0  0  0  0  0  0  0
  -25.8900  -30.8200   21.3750 C   0  0  0  0  0  2  0  0  0  0  0  0
  -26.0360  -29.4580   20.7300 C   0  0  0  0  0  0  0  0  0  0  0  0
  -27.2660  -28.7640   20.7390 C   0  0  0  0  0  3  0  0  0  0  0  0
  -26.2210  -26.9270   19.5300 C   0  0  0  0  0  3  0  0  0  0  0  0
  -24.9990  -27.6250   19.5110 C   0  0  0  0  0  3  0  0  0  0  0  0
  -23.6380  -29.7040   20.1450 C   0  0  0  0  0  2  0  0  0  0  0  0
  -24.6080  -31.0060   22.0950 N   0  0  0  0  0  0  0  0  0  0  0  0
  -23.4050  -32.0150   23.7310 O   0  0  0  0  0  0  0  0  0  0  0  0
  -22.7470  -29.3110   22.4650 C   0  0  0  0  0  0  0  0  0  0  0  0
  -21.4330  -29.0850   22.3120 N   0  0  0  0  0  0  0  0  0  0  0  0
  -23.4380  -28.7000   23.2870 O   0  0  0  0  0  0  0  0  0  0  0  0
  -20.9340  -29.6330   21.6260 H   0  0  0  0  0  0  0  0  0  0  0  0
  -18.0930  -27.7780   22.7370 C   0  0  0  0  0  0  0  0  0  0  0  0
  -20.6350  -28.1120   23.0570 C   0  0  0  0  0  3  0  0  0  0  0  0
  -20.7930  -26.6910   22.4670 C   0  0  0  0  0  2  0  0  0  0  0  0
  -19.7200  -26.3460   21.4300 C   0  0  0  0  0  2  0  0  0  0  0  0
  -18.3230  -26.4420   22.0500 C   0  0  0  0  0  2  0  0  0  0  0  0
  -19.1780  -28.5690   23.1960 C   0  0  0  0  0  0  0  0  0  0  0  0
  -18.9110  -29.8190   23.7950 C   0  0  0  0  0  3  0  0  0  0  0  0
  -17.5890  -30.2780   23.9440 C   0  0  0  0  0  3  0  0  0  0  0  0
  -16.5170  -29.4840   23.5010 C   0  0  0  0  0  3  0  0  0  0  0  0
  -16.7690  -28.2360   22.9030 C   0  0  0  0  0  3  0  0  0  0  0  0
  -25.7580  -32.4590   23.8560 C   0  0  0  0  0  3  0  0  0  0  0  0
  -25.4010  -33.8500   24.1720 N   0  0  0  0  0  0  0  0  0  0  0  0
  -25.7240  -34.9070   23.4140 C   0  0  0  0  0  0  0  0  0  0  0  0
  -26.4230  -34.8160   22.4010 O   0  0  0  0  0  0  0  0  0  0  0  0
  -24.7880  -33.9920   24.9600 H   0  0  0  0  0  0  0  0  0  0  0  0
  -23.9650  -36.6530   22.9890 C   0  0  0  0  0  1  0  0  0  0  0  0
  -25.1850  -36.2840   23.8480 C   0  0  0  0  0  3  0  0  0  0  0  0
  -27.2630  -37.2230   24.7590 C   0  0  0  0  0  1  0  0  0  0  0  0
  -26.1940  -37.3630   23.7720 N   0  0  0  0  0  0  0  0  0  0  0  0
  -25.7590  -38.2720   23.9030 H   0  0  0  0  0  0  0  0  0  0  0  0
  -26.2660  -31.7070   25.1470 C   0  0  1  0  0  0  0  0  0  0  0  0
  -25.1560  -31.4370   26.1890 C   0  0  0  0  0  1  0  0  0  0  0  0
  -26.9010  -30.3490   24.7690 C   0  0  0  0  0  1  0  0  0  0  0  0
  -27.3730  -32.5370   25.8380 C   0  0  0  0  0  1  0  0  0  0  0  0
  1  3  2  0
  1  5  1  0
  2  1  1  0
  4  2  1  0
  6  5  1  0
  7  8  2  0
  7 10  1  0
  8 11  1  0
 10 12  2  0
 11  6  1  0
 11  9  2  0
 12  9  1  0
 12 13  1  0
 14 10  1  0
 15 20  1  0
 16 17  1  0
 16 15  1  0
 18 17  1  0
 18 25  1  0
 18 19  1  0
 20 14  1  0
 20 19  1  0
 21 14  2  0
 22 23  2  0
 23 42  1  0
 24 23  1  0
 24 27  1  0
 25 26  1  0
 25 22  1  0
 26 24  2  0
 27 28  1  0
 28 29  2  0
 30 33  1  0
 30 29  1  0
 31 30  2  0
 32 31  1  0
 32 27  2  0
 33 34  1  0
 34 39  2  0
 34 35  1  0
 35 36  2  0
 36 37  1  0
 37 41  1  0
 38 37  2  0
 39 38  1  0
 40 39  1  0
 42 43  1  0
 43 46  1  0
 43 45  1  0
 44 42  2  0
 47 22  1  0
 47 48  1  0
 49 47  1  0
 50  2  1  0
 50 51  1  0
 52 51  1  0
 53 64  2  0
 54 52  1  0
 54 59  1  0
 55 63  1  0
 55 65  1  0
 56 62  1  0
 56 58  1  0
 57 63  1  0
 58 59  2  0
 58 57  1  0
 60 54  2  0
 61 60  1  0
 61 56  2  0
 62 55  1  0
 63 53  1  0
 65 67  2  0
 66 65  1  0
 68 66  1  0
 69 78  2  0
 69 74  1  0
 70 66  1  0
 70 74  1  0
 71 70  1  0
 72 73  1  0
 72 71  1  0
 73 69  1  0
 74 75  2  0
 75 76  1  0
 77 76  2  0
 78 77  1  0
 79 53  1  0
 79 80  1  0
 79 89  1  0
 80 83  1  0
 81 85  1  0
 81 80  1  0
 82 81  2  0
 85 84  1  0
 87 85  1  0
 87 88  1  0
 87 86  1  0
 89 92  1  1
 89 90  1  0
 91 89  1  0
M  ISO  4  10 100  14 100  51 101  52 101
M  END
>  <TORSDO>  (69) 
F 21

>  <SCORE>  (69) 
-12.743

>  <name>  (69) 
68

>  <ligand_id>  (69) 
68

>  <original_smiles>  (69) 
[H]c1c([H])c([H])c2c(c1[H])C([H])([H])C([H])([H])C([H])([H])C2([H])N([H])C(=O)C1([H])N(C(=O)C([H])(N([H])C(=O)C([H])(N([H])C([H])([H])[H])C([H])([H])[H])C(C([H])([H])[H])(C([H])([H])[H])C([H])([H])[H])C([H])([H])c2c([H])c(OC([H])([H])C([H])([H])N([H])C(=O)C([H])([H])C([H])([H])c3c([H])c([H])c(C(=O)N4C([H])([H])C([H])([H])C([H])([H])C([H])(n5nc(-c6c([H])c([H])c(Oc7c([H])c([H])c(F)c([H])c7F)c([H])c6[H])c(C(=O)N([H])[H])c5N([H])[H])C4([H])[H])c(F)c3[H])c([H])c([H])c2C1([H])[H]

>  <smiles>  (69) 
[H]c1c([H])c([H])c2c(c1[H])C([H])([H])C([H])([H])C([H])([H])C2([H])N([H])C(=O)C1([H])N(C(=O)C([H])(N([H])C(=O)C([H])(N([H])C([H])([H])[H])C([H])([H])[H])C(C([H])([H])[H])(C([H])([H])[H])C([H])([H])[H])C([H])([H])c2c([H])c(OC([H])([H])C([H])([H])N([H])C(=O)C([H])([H])C([H])([H])c3c([H])c([H])c(C(=O)N4C([H])([H])C([H])([H])C([H])([H])C([H])(n5nc(-c6c([H])c([H])c(Oc7c([H])c([H])c(F)c([H])c7F)c([H])c6[H])c(C(=O)N([H])[H])c5N([H])[H])C4([H])[H])c(F)c3[H])c([H])c([H])c2C1([H])[H]

$$$$
69:0:0
     RDKit          3D

 95103  0  0  1  0  0  0  0  0999 V2000
  -25.6090  -22.0680   17.6000 C   0  0  0  0  0  2  0  0  0  0  0  0
  -25.9780  -23.5610   17.7710 C   0  0  0  0  0  0  0  0  0  0  0  0
  -27.2050  -23.9570   18.1920 N   0  0  0  0  0  0  0  0  0  0  0  0
  -25.1280  -24.3850   17.4210 O   0  0  0  0  0  0  0  0  0  0  0  0
  -27.8860  -23.2790   18.4960 H   0  0  0  0  0  0  0  0  0  0  0  0
  -27.7600  -25.2780   17.8040 C   0  0  0  0  0  2  0  0  0  0  0  0
  -28.7130  -26.0900   18.7690 C   0  0  0  0  0  2  0  0  0  0  0  0
  -28.3150  -26.6780   20.0470 O   0  0  0  0  0  0  0  0  0  0  0  0
  -24.5710  -31.9290   23.3020 C   0  0  0  0  0  0  0  0  0  0  0  0
  -27.1880  -27.4740   20.1250 C   0  0  0  0  0  0  0  0  0  0  0  0
  -23.3640  -30.5440   21.6430 C   0  0  0  0  0  3  0  0  0  0  0  0
  -24.8130  -29.0160   20.2430 C   0  0  0  0  0  0  0  0  0  0  0  0
  -25.8980  -30.8830   21.4740 C   0  0  0  0  0  2  0  0  0  0  0  0
  -25.9890  -29.5130   20.8230 C   0  0  0  0  0  0  0  0  0  0  0  0
  -27.1870  -28.7490   20.7640 C   0  0  0  0  0  3  0  0  0  0  0  0
  -25.9700  -26.9860   19.6260 C   0  0  0  0  0  3  0  0  0  0  0  0
  -24.8100  -27.7520   19.6460 C   0  0  0  0  0  3  0  0  0  0  0  0
  -23.5740  -29.8630   20.2700 C   0  0  0  0  0  2  0  0  0  0  0  0
  -24.6270  -31.1270   22.1980 N   0  0  0  0  0  0  0  0  0  0  0  0
  -23.4810  -32.2070   23.8290 O   0  0  0  0  0  0  0  0  0  0  0  0
  -22.7000  -29.5180   22.6010 C   0  0  0  0  0  0  0  0  0  0  0  0
  -21.3810  -29.3010   22.4660 N   0  0  0  0  0  0  0  0  0  0  0  0
  -23.3710  -28.9100   23.4210 O   0  0  0  0  0  0  0  0  0  0  0  0
  -20.8610  -29.8420   21.7880 H   0  0  0  0  0  0  0  0  0  0  0  0
  -18.0070  -28.1030   23.0200 C   0  0  0  0  0  0  0  0  0  0  0  0
  -20.5720  -28.3490   23.2340 C   0  0  0  0  0  3  0  0  0  0  0  0
  -20.6600  -26.9350   22.6250 C   0  0  0  0  0  2  0  0  0  0  0  0
  -19.5010  -26.6320   21.6630 C   0  0  0  0  0  2  0  0  0  0  0  0
  -18.1730  -26.7450   22.4020 C   0  0  0  0  0  2  0  0  0  0  0  0
  -19.1390  -28.8640   23.4000 C   0  0  0  0  0  0  0  0  0  0  0  0
  -18.9420  -30.1340   23.9720 C   0  0  0  0  0  3  0  0  0  0  0  0
  -17.6490  -30.6480   24.1500 C   0  0  0  0  0  3  0  0  0  0  0  0
  -16.5230  -29.9080   23.7470 C   0  0  0  0  0  3  0  0  0  0  0  0
  -16.7050  -28.6320   23.1820 C   0  0  0  0  0  3  0  0  0  0  0  0
  -25.8460  -32.5690   23.9300 C   0  0  0  0  0  3  0  0  0  0  0  0
  -25.5390  -33.9800   24.2340 N   0  0  0  0  0  0  0  0  0  0  0  0
  -25.8830  -35.0110   23.4580 C   0  0  0  0  0  0  0  0  0  0  0  0
  -26.5600  -34.8800   22.4350 O   0  0  0  0  0  0  0  0  0  0  0  0
  -24.9410  -34.1670   25.0280 H   0  0  0  0  0  0  0  0  0  0  0  0
  -24.1800  -36.8020   23.0430 C   0  0  0  0  0  1  0  0  0  0  0  0
  -25.4010  -36.4030   23.8830 C   0  0  0  0  0  3  0  0  0  0  0  0
  -27.5210  -37.2850   24.7480 C   0  0  0  0  0  1  0  0  0  0  0  0
  -26.4410  -37.4470   23.7790 N   0  0  0  0  0  0  0  0  0  0  0  0
  -26.0420  -38.3780   23.9020 H   0  0  0  0  0  0  0  0  0  0  0  0
  -26.3650  -31.8130   25.2140 C   0  0  1  0  0  0  0  0  0  0  0  0
  -25.2730  -31.5780   26.2750 C   0  0  0  0  0  1  0  0  0  0  0  0
  -26.9440  -30.4310   24.8420 C   0  0  0  0  0  1  0  0  0  0  0  0
  -27.5110  -32.6100   25.8690 C   0  0  0  0  0  1  0  0  0  0  0  0
  -25.8430  -21.1720   18.8410 C   0  0  0  0  0  2  0  0  0  0  0  0
  -28.3700  -18.3280   17.9190 C   0  0  0  0  0  2  0  0  0  0  0  0
  -28.7260  -19.0400   20.2580 C   0  0  0  0  0  2  0  0  0  0  0  0
  -27.1020  -19.2120   17.8580 C   0  0  0  0  0  2  0  0  0  0  0  0
  -27.4470  -19.9190   20.1870 C   0  0  0  0  0  2  0  0  0  0  0  0
  -28.6830  -17.7960   19.3500 C   0  0  0  0  0  3  0  0  0  0  0  0
  -27.1140  -20.3580   18.8050 N   0  0  2  0  0  4  0  0  0  0  0  0
  -27.8800  -20.9600   18.5400 H   0  0  0  0  0  0  0  0  0  0  0  0
  -30.0250  -16.9610   19.4250 C   0  0  0  0  0  2  0  0  0  0  0  0
  -30.7940  -14.6110   20.0420 C   0  0  0  0  0  0  0  0  0  0  0  0
  -30.5470  -12.4090   18.9780 C   0  0  0  0  0  2  0  0  0  0  0  0
  -29.5590  -12.6500   17.8240 C   0  0  0  0  0  2  0  0  0  0  0  0
  -28.1030  -12.5050   18.3140 C   0  0  0  0  0  2  0  0  0  0  0  0
  -27.8160  -13.3020   19.6150 C   0  0  0  0  0  3  0  0  0  0  0  0
  -28.9210  -13.0640   20.6720 C   0  0  0  0  0  2  0  0  0  0  0  0
  -30.2100  -13.3800   20.0380 N   0  0  0  0  0  0  0  0  0  0  0  0
  -31.9580  -14.7950   19.6850 O   0  0  0  0  0  0  0  0  0  0  0  0
  -29.9110  -15.6430   20.1070 N   0  0  0  0  0  0  0  0  0  0  0  0
  -28.9780  -15.3660   20.3640 H   0  0  0  0  0  0  0  0  0  0  0  0
  -25.4600  -13.9070   20.4500 C   0  0  0  0  0  0  0  0  0  0  0  0
  -24.4100  -13.1300   20.8550 C   0  0  0  0  0  0  0  0  0  0  0  0
  -24.8670  -11.7800   20.7720 C   0  0  0  0  0  0  0  0  0  0  0  0
  -26.4890  -13.0240   20.1480 N   0  0  0  0  0  0  0  0  0  0  0  0
  -26.1410  -11.7420   20.4060 N   0  0  0  0  0  0  0  0  0  0  0  0
  -24.1440  -10.5200   20.9670 C   0  0  0  0  0  0  0  0  0  0  0  0
  -24.5780   -9.5550   21.9030 C   0  0  0  0  0  3  0  0  0  0  0  0
  -23.8580   -8.3540   22.0820 C   0  0  0  0  0  3  0  0  0  0  0  0
  -22.6850   -8.1110   21.3280 C   0  0  0  0  0  0  0  0  0  0  0  0
  -22.2680   -9.0640   20.3820 C   0  0  0  0  0  3  0  0  0  0  0  0
  -22.9900  -10.2560   20.2020 C   0  0  0  0  0  3  0  0  0  0  0  0
  -21.9350   -6.9630   21.4160 O   0  0  0  0  0  0  0  0  0  0  0  0
  -21.8410   -6.2530   22.5850 C   0  0  0  0  0  0  0  0  0  0  0  0
  -21.3240   -6.8300   23.7660 C   0  0  0  0  0  3  0  0  0  0  0  0
  -21.1830   -6.0440   24.9280 C   0  0  0  0  0  3  0  0  0  0  0  0
  -21.5450   -4.6840   24.9090 C   0  0  0  0  0  0  0  0  0  0  0  0
  -22.0580   -4.1080   23.7330 C   0  0  0  0  0  3  0  0  0  0  0  0
  -22.2020   -4.8910   22.5740 C   0  0  0  0  0  0  0  0  0  0  0  0
  -22.6740   -4.3260   21.4350 F   0  0  0  0  0  0  0  0  0  0  0  0
  -21.4030   -3.9280   26.0220 F   0  0  0  0  0  0  0  0  0  0  0  0
  -23.0280  -13.6110   21.1930 C   0  0  0  0  0  0  0  0  0  0  0  0
  -22.3360  -12.9000   22.0740 N   0  0  0  0  0  0  0  0  0  0  0  0
  -22.5750  -14.6500   20.7150 O   0  0  0  0  0  0  0  0  0  0  0  0
  -22.7200  -12.0580   22.4810 H   0  0  0  0  0  0  0  0  0  0  0  0
  -21.4110  -13.2020   22.3470 H   0  0  0  0  0  0  0  0  0  0  0  0
  -25.6160  -15.2820   20.2800 N   0  0  0  0  0  0  0  0  0  0  0  0
  -24.8210  -15.8990   20.3920 H   0  0  0  0  0  0  0  0  0  0  0  0
  -26.4000  -15.7240   19.8200 H   0  0  0  0  0  0  0  0  0  0  0  0
  1  2  1  0
  1 49  1  0
  2  3  1  0
  3  5  1  0
  4  2  2  0
  6  3  1  0
  6  7  1  0
  7  8  1  0
  8 10  1  0
  9 20  2  0
 10 15  1  0
 11 19  1  0
 11 21  1  0
 12 18  1  0
 12 14  1  0
 13 19  1  0
 14 13  1  0
 15 14  2  0
 16 17  1  0
 16 10  2  0
 17 12  2  0
 18 11  1  0
 19  9  1  0
 21 23  2  0
 22 21  1  0
 24 22  1  0
 25 34  2  0
 25 30  1  0
 26 22  1  0
 26 30  1  0
 27 26  1  0
 28 29  1  0
 28 27  1  0
 29 25  1  0
 30 31  2  0
 31 32  1  0
 33 32  2  0
 34 33  1  0
 35  9  1  0
 35 36  1  0
 35 45  1  0
 36 39  1  0
 37 41  1  0
 37 36  1  0
 38 37  2  0
 41 40  1  0
 43 41  1  0
 43 44  1  0
 43 42  1  0
 45 48  1  1
 45 46  1  0
 47 45  1  0
 50 54  1  0
 52 50  1  0
 52 55  1  0
 53 51  1  0
 54 57  1  0
 54 51  1  0
 55 49  1  0
 55 53  1  0
 55 56  1  6
 57 66  1  0
 58 66  1  0
 59 64  1  0
 60 61  1  0
 60 59  1  0
 62 61  1  0
 62 71  1  0
 62 63  1  0
 64 58  1  0
 64 63  1  0
 65 58  2  0
 66 67  1  0
 68 69  2  0
 69 88  1  0
 70 69  1  0
 70 73  1  0
 71 72  1  0
 71 68  1  0
 72 70  2  0
 73 74  1  0
 74 75  2  0
 76 79  1  0
 76 75  1  0
 77 76  2  0
 78 77  1  0
 78 73  2  0
 79 80  1  0
 80 81  1  0
 81 82  2  0
 83 82  1  0
 83 87  1  0
 84 83  2  0
 85 80  2  0
 85 84  1  0
 86 85  1  0
 88 89  1  0
 89 92  1  0
 89 91  1  0
 90 88  2  0
 93 94  1  0
 93 68  1  0
 95 93  1  0
M  ISO  4   7 101   8 101  58 100  66 100
M  END
>  <TORSDO>  (70) 
F 22

>  <SCORE>  (70) 
-12.516

>  <name>  (70) 
69

>  <ligand_id>  (70) 
69

>  <original_smiles>  (70) 
[H]c1c([H])c([H])c2c(c1[H])C([H])([H])C([H])([H])C([H])([H])C2([H])N([H])C(=O)C1([H])N(C(=O)C([H])(N([H])C(=O)C([H])(N([H])C([H])([H])[H])C([H])([H])[H])C(C([H])([H])[H])(C([H])([H])[H])C([H])([H])[H])C([H])([H])c2c([H])c(OC([H])([H])C([H])([H])N([H])C(=O)C([H])([H])C([H])([H])[N+]3([H])C([H])([H])C([H])([H])C([H])(C([H])([H])N([H])C(=O)N4C([H])([H])C([H])([H])C([H])([H])C([H])(n5nc(-c6c([H])c([H])c(Oc7c([H])c([H])c(F)c([H])c7F)c([H])c6[H])c(C(=O)N([H])[H])c5N([H])[H])C4([H])[H])C([H])([H])C3([H])[H])c([H])c([H])c2C1([H])[H]

>  <smiles>  (70) 
[H]c1c([H])c([H])c2c(c1[H])C([H])([H])C([H])([H])C([H])([H])C2([H])N([H])C(=O)C1([H])N(C(=O)C([H])(N([H])C(=O)C([H])(N([H])C([H])([H])[H])C([H])([H])[H])C(C([H])([H])[H])(C([H])([H])[H])C([H])([H])[H])C([H])([H])c2c([H])c(OC([H])([H])C([H])([H])N([H])C(=O)C([H])([H])C([H])([H])[N+]3([H])C([H])([H])C([H])([H])C([H])(C([H])([H])N([H])C(=O)N4C([H])([H])C([H])([H])C([H])([H])C([H])(n5nc(-c6c([H])c([H])c(Oc7c([H])c([H])c(F)c([H])c7F)c([H])c6[H])c(C(=O)N([H])[H])c5N([H])[H])C4([H])[H])C([H])([H])C3([H])[H])c([H])c([H])c2C1([H])[H]

$$$$
70:0:0
     RDKit          3D

 96104  0  0  1  0  0  0  0  0999 V2000
  -28.8930  -17.2780   18.2450 C   0  0  0  0  0  2  0  0  0  0  0  0
  -28.6120  -18.9200   20.0510 C   0  0  0  0  0  2  0  0  0  0  0  0
  -28.7490  -17.4030   19.7770 C   0  0  0  0  0  3  0  0  0  0  0  0
  -29.4790  -18.6190   17.8080 C   0  0  0  0  0  3  0  0  0  0  0  0
  -28.6940  -19.5990   18.6740 C   0  0  0  0  0  3  0  0  0  0  0  0
  -30.6390  -14.4470   20.5670 C   0  0  0  0  0  0  0  0  0  0  0  0
  -30.3770  -12.2820   19.4520 C   0  0  0  0  0  2  0  0  0  0  0  0
  -29.4610  -12.5140   18.2300 C   0  0  0  0  0  2  0  0  0  0  0  0
  -27.9760  -12.3840   18.6240 C   0  0  0  0  0  2  0  0  0  0  0  0
  -27.6120  -13.2200   19.8800 C   0  0  0  0  0  3  0  0  0  0  0  0
  -28.6430  -12.9810   21.0110 C   0  0  0  0  0  2  0  0  0  0  0  0
  -29.9900  -13.2580   20.4760 N   0  0  0  0  0  0  0  0  0  0  0  0
  -31.8170  -14.6020   20.2270 O   0  0  0  0  0  0  0  0  0  0  0  0
  -29.9710  -16.7460   20.4370 C   0  0  0  0  0  0  0  0  0  0  0  0
  -29.7860  -15.4600   20.7630 N   0  0  0  0  0  0  0  0  0  0  0  0
  -31.0370  -17.3620   20.5400 O   0  0  0  0  0  0  0  0  0  0  0  0
  -28.8300  -15.1570   20.8440 H   0  0  0  0  0  0  0  0  0  0  0  0
  -25.1960  -13.8460   20.5190 C   0  0  0  0  0  0  0  0  0  0  0  0
  -24.1190  -13.0810   20.8760 C   0  0  0  0  0  0  0  0  0  0  0  0
  -24.5790  -11.7290   20.8720 C   0  0  0  0  0  0  0  0  0  0  0  0
  -26.2470  -12.9600   20.3260 N   0  0  0  0  0  0  0  0  0  0  0  0
  -25.8760  -11.6830   20.5950 N   0  0  0  0  0  0  0  0  0  0  0  0
  -23.8480  -10.4700   21.0610 C   0  0  0  0  0  0  0  0  0  0  0  0
  -24.2720   -9.5040   22.0000 C   0  0  0  0  0  3  0  0  0  0  0  0
  -23.5430   -8.3080   22.1750 C   0  0  0  0  0  3  0  0  0  0  0  0
  -22.3770   -8.0700   21.4090 C   0  0  0  0  0  0  0  0  0  0  0  0
  -21.9730   -9.0250   20.4590 C   0  0  0  0  0  3  0  0  0  0  0  0
  -22.7020  -10.2130   20.2830 C   0  0  0  0  0  3  0  0  0  0  0  0
  -21.6190   -6.9270   21.4930 O   0  0  0  0  0  0  0  0  0  0  0  0
  -21.5700   -6.1790   22.6420 C   0  0  0  0  0  0  0  0  0  0  0  0
  -21.1600   -6.7330   23.8740 C   0  0  0  0  0  3  0  0  0  0  0  0
  -21.0580   -5.9120   25.0160 C   0  0  0  0  0  3  0  0  0  0  0  0
  -21.3570   -4.5390   24.9250 C   0  0  0  0  0  0  0  0  0  0  0  0
  -21.7610   -3.9850   23.6970 C   0  0  0  0  0  3  0  0  0  0  0  0
  -21.8650   -4.8030   22.5580 C   0  0  0  0  0  0  0  0  0  0  0  0
  -22.2340   -4.2610   21.3730 F   0  0  0  0  0  0  0  0  0  0  0  0
  -21.2510   -3.7480   26.0180 F   0  0  0  0  0  0  0  0  0  0  0  0
  -22.7170  -13.5630   21.1070 C   0  0  0  0  0  0  0  0  0  0  0  0
  -21.9670  -12.8790   21.9640 N   0  0  0  0  0  0  0  0  0  0  0  0
  -22.2920  -14.5820   20.5640 O   0  0  0  0  0  0  0  0  0  0  0  0
  -22.3220  -12.0540   22.4260 H   0  0  0  0  0  0  0  0  0  0  0  0
  -21.0250  -13.1840   22.1630 H   0  0  0  0  0  0  0  0  0  0  0  0
  -25.3620  -15.2140   20.3220 N   0  0  0  0  0  0  0  0  0  0  0  0
  -24.5730  -15.8490   20.3780 H   0  0  0  0  0  0  0  0  0  0  0  0
  -26.1790  -15.6370   19.9050 H   0  0  0  0  0  0  0  0  0  0  0  0
  -29.2660  -18.8840   16.3960 N   0  0  0  0  0  0  0  0  0  0  0  0
  -28.2910  -18.7330   16.1530 H   0  0  0  0  0  0  0  0  0  0  0  0
  -29.7650  -18.1910   15.8460 H   0  0  0  0  0  0  0  0  0  0  0  0
  -29.3300  -20.9250   18.6980 N   0  0  0  0  0  4  0  0  0  0  0  0
  -29.7400  -21.0460   17.7840 H   0  0  0  0  0  0  0  0  0  0  0  0
  -30.0740  -20.9360   19.3740 H   0  0  0  0  0  0  0  0  0  0  0  0
  -28.3810  -22.0330   18.9210 C   0  0  0  0  0  2  0  0  0  0  0  0
  -29.0180  -23.2120   19.6660 C   0  0  0  0  0  2  0  0  0  0  0  0
  -28.0940  -24.4380   19.6550 C   0  0  0  0  0  2  0  0  0  0  0  0
  -28.4980  -25.5210   20.6670 C   0  0  0  0  0  2  0  0  0  0  0  0
  -28.4350  -26.8280   20.1110 O   0  0  0  0  0  0  0  0  0  0  0  0
  -24.5850  -31.8910   23.2620 C   0  0  0  0  0  0  0  0  0  0  0  0
  -27.2280  -27.4810   20.1700 C   0  0  0  0  0  0  0  0  0  0  0  0
  -23.3720  -30.4900   21.6210 C   0  0  0  0  0  3  0  0  0  0  0  0
  -24.8210  -28.9520   20.1990 C   0  0  0  0  0  0  0  0  0  0  0  0
  -25.8920  -30.8600   21.4120 C   0  0  0  0  0  2  0  0  0  0  0  0
  -25.9760  -29.4890   20.7770 C   0  0  0  0  0  0  0  0  0  0  0  0
  -27.1840  -28.7610   20.7580 C   0  0  0  0  0  3  0  0  0  0  0  0
  -26.0550  -26.9450   19.5970 C   0  0  0  0  0  3  0  0  0  0  0  0
  -24.8520  -27.6760   19.6080 C   0  0  0  0  0  3  0  0  0  0  0  0
  -23.5740  -29.8060   20.2430 C   0  0  0  0  0  2  0  0  0  0  0  0
  -24.6340  -31.0950   22.1570 N   0  0  0  0  0  0  0  0  0  0  0  0
  -23.5050  -32.1620   23.8070 O   0  0  0  0  0  0  0  0  0  0  0  0
  -22.7250  -29.4690   22.5840 C   0  0  0  0  0  0  0  0  0  0  0  0
  -21.4010  -29.2880   22.4600 N   0  0  0  0  0  0  0  0  0  0  0  0
  -23.4120  -28.8420   23.3960 O   0  0  0  0  0  0  0  0  0  0  0  0
  -20.9100  -29.8450   21.7740 H   0  0  0  0  0  0  0  0  0  0  0  0
  -18.0270  -28.0970   22.9530 C   0  0  0  0  0  0  0  0  0  0  0  0
  -20.5840  -28.3500   23.2290 C   0  0  0  0  0  3  0  0  0  0  0  0
  -20.6860  -26.9200   22.6520 C   0  0  0  0  0  2  0  0  0  0  0  0
  -19.5850  -26.5980   21.6380 C   0  0  0  0  0  2  0  0  0  0  0  0
  -18.2030  -26.7470   22.2800 C   0  0  0  0  0  2  0  0  0  0  0  0
  -19.1460  -28.8570   23.3860 C   0  0  0  0  0  0  0  0  0  0  0  0
  -18.9290  -30.1220   23.9730 C   0  0  0  0  0  3  0  0  0  0  0  0
  -17.6260  -30.6270   24.1360 C   0  0  0  0  0  3  0  0  0  0  0  0
  -16.5210  -29.8620   23.7220 C   0  0  0  0  0  3  0  0  0  0  0  0
  -16.7220  -28.6000   23.1370 C   0  0  0  0  0  3  0  0  0  0  0  0
  -25.8750  -32.5180   23.8780 C   0  0  0  0  0  3  0  0  0  0  0  0
  -25.5730  -33.9180   24.2060 N   0  0  0  0  0  0  0  0  0  0  0  0
  -25.9060  -34.9660   23.4410 C   0  0  0  0  0  0  0  0  0  0  0  0
  -26.5720  -34.8560   22.4070 O   0  0  0  0  0  0  0  0  0  0  0  0
  -24.9810  -34.0770   25.0070 H   0  0  0  0  0  0  0  0  0  0  0  0
  -24.1780  -36.7580   23.0860 C   0  0  0  0  0  1  0  0  0  0  0  0
  -25.4220  -36.3560   23.8940 C   0  0  0  0  0  3  0  0  0  0  0  0
  -27.5630  -37.2380   24.7080 C   0  0  0  0  0  1  0  0  0  0  0  0
  -26.4560  -37.4070   23.7720 N   0  0  0  0  0  0  0  0  0  0  0  0
  -26.0530  -38.3290   23.9190 H   0  0  0  0  0  0  0  0  0  0  0  0
  -26.3950  -31.7460   25.1520 C   0  0  1  0  0  0  0  0  0  0  0  0
  -25.3060  -31.5120   26.2240 C   0  0  0  0  0  1  0  0  0  0  0  0
  -26.9720  -30.3680   24.7540 C   0  0  0  0  0  1  0  0  0  0  0  0
  -27.5520  -32.5360   25.8080 C   0  0  0  0  0  1  0  0  0  0  0  0
  1  3  1  0
  3  2  1  0
  3 14  1  0
  4 46  1  0
  4  1  1  0
  4  5  1  0
  5 49  1  0
  5  2  1  0
  6 15  1  0
  7 12  1  0
  8  9  1  0
  8  7  1  0
 10  9  1  0
 10 21  1  0
 10 11  1  0
 12  6  1  0
 12 11  1  0
 13  6  2  0
 14 16  2  0
 14 15  1  0
 15 17  1  0
 18 19  2  0
 19 38  1  0
 20 19  1  0
 20 23  1  0
 21 18  1  0
 21 22  1  0
 22 20  2  0
 23 24  1  0
 24 25  2  0
 26 29  1  0
 26 25  1  0
 27 26  2  0
 28 27  1  0
 28 23  2  0
 29 30  1  0
 30 31  1  0
 31 32  2  0
 33 32  1  0
 33 37  1  0
 34 33  2  0
 35 30  2  0
 35 34  1  0
 36 35  1  0
 38 39  1  0
 39 42  1  0
 39 41  1  0
 40 38  2  0
 43 44  1  0
 43 18  1  0
 45 43  1  0
 47 46  1  0
 48 46  1  0
 49 52  1  0
 49 51  1  0
 50 49  1  0
 52 53  1  0
 54 53  1  0
 54 55  1  0
 56 58  1  0
 56 55  1  0
 57 68  2  0
 58 63  1  0
 59 67  1  0
 59 69  1  0
 60 66  1  0
 60 62  1  0
 61 67  1  0
 62 61  1  0
 63 62  2  0
 64 65  1  0
 64 58  2  0
 65 60  2  0
 66 59  1  0
 67 57  1  0
 69 71  2  0
 70 69  1  0
 72 70  1  0
 73 82  2  0
 73 78  1  0
 74 70  1  0
 74 78  1  0
 75 74  1  0
 76 77  1  0
 76 75  1  0
 77 73  1  0
 78 79  2  0
 79 80  1  0
 81 80  2  0
 82 81  1  0
 83 57  1  0
 83 84  1  0
 83 93  1  0
 84 87  1  0
 85 89  1  0
 85 84  1  0
 86 85  2  0
 89 88  1  0
 91 89  1  0
 91 92  1  0
 91 90  1  0
 93 96  1  1
 93 94  1  0
 95 93  1  0
M  ISO  4   6 100  15 100  55 101  56 101
M  END
>  <TORSDO>  (71) 
F 22

>  <SCORE>  (71) 
-13.311

>  <name>  (71) 
70

>  <ligand_id>  (71) 
70

>  <original_smiles>  (71) 
[H]c1c([H])c([H])c2c(c1[H])C([H])([H])C([H])([H])C([H])([H])C2([H])N([H])C(=O)C1([H])N(C(=O)C([H])(N([H])C(=O)C([H])(N([H])C([H])([H])[H])C([H])([H])[H])C(C([H])([H])[H])(C([H])([H])[H])C([H])([H])[H])C([H])([H])c2c([H])c(OC([H])([H])C([H])([H])C([H])([H])C([H])([H])[N+]([H])([H])C3([H])C([H])([H])C([H])(C(=O)N([H])C(=O)N4C([H])([H])C([H])([H])C([H])([H])C([H])(n5nc(-c6c([H])c([H])c(Oc7c([H])c([H])c(F)c([H])c7F)c([H])c6[H])c(C(=O)N([H])[H])c5N([H])[H])C4([H])[H])C([H])([H])C3([H])N([H])[H])c([H])c([H])c2C1([H])[H]

>  <smiles>  (71) 
[H]c1c([H])c([H])c2c(c1[H])C([H])([H])C([H])([H])C([H])([H])C2([H])N([H])C(=O)C1([H])N(C(=O)C([H])(N([H])C(=O)C([H])(N([H])C([H])([H])[H])C([H])([H])[H])C(C([H])([H])[H])(C([H])([H])[H])C([H])([H])[H])C([H])([H])c2c([H])c(OC([H])([H])C([H])([H])C([H])([H])C([H])([H])[N+]([H])([H])C3([H])C([H])([H])C([H])(C(=O)N([H])C(=O)N4C([H])([H])C([H])([H])C([H])([H])C([H])(n5nc(-c6c([H])c([H])c(Oc7c([H])c([H])c(F)c([H])c7F)c([H])c6[H])c(C(=O)N([H])[H])c5N([H])[H])C4([H])[H])C([H])([H])C3([H])N([H])[H])c([H])c([H])c2C1([H])[H]

$$$$
71:0:0
     RDKit          3D

 92100  0  0  1  0  0  0  0  0999 V2000
  -28.8260  -22.2250   22.2390 C   0  0  0  0  0  3  0  0  0  0  0  0
  -28.7300  -21.6250   21.0390 C   0  0  0  0  0  0  0  0  0  0  0  0
  -29.0230  -23.7190   22.4530 C   0  0  0  0  0  2  0  0  0  0  0  0
  -28.8270  -22.4410   19.7590 C   0  0  0  0  0  2  0  0  0  0  0  0
  -28.3930  -23.9050   19.9830 C   0  0  0  0  0  2  0  0  0  0  0  0
  -29.1360  -24.5710   21.1580 C   0  0  0  0  0  3  0  0  0  0  0  0
  -28.4490  -20.1290   20.9040 C   0  0  0  0  0  2  0  0  0  0  0  0
  -29.6750  -19.3030   20.8100 N   0  0  0  0  0  4  0  0  0  0  0  0
  -30.2400  -19.4920   21.6220 H   0  0  0  0  0  0  0  0  0  0  0  0
  -30.2020  -19.5760   19.9970 H   0  0  0  0  0  0  0  0  0  0  0  0
  -29.3830  -17.8490   20.7510 C   0  0  0  0  0  2  0  0  0  0  0  0
  -30.6320  -16.9520   20.8930 C   0  0  0  0  0  2  0  0  0  0  0  0
  -30.8770  -14.5420   20.2690 C   0  0  0  0  0  0  0  0  0  0  0  0
  -30.5070  -12.3850   19.1400 C   0  0  0  0  0  2  0  0  0  0  0  0
  -29.5360  -12.5980   17.9610 C   0  0  0  0  0  2  0  0  0  0  0  0
  -28.0730  -12.4790   18.4300 C   0  0  0  0  0  2  0  0  0  0  0  0
  -27.7780  -13.3300   19.6930 C   0  0  0  0  0  3  0  0  0  0  0  0
  -28.8620  -13.1080   20.7750 C   0  0  0  0  0  2  0  0  0  0  0  0
  -30.1800  -13.3790   20.1720 N   0  0  0  0  0  0  0  0  0  0  0  0
  -31.9510  -14.7380   19.6950 O   0  0  0  0  0  0  0  0  0  0  0  0
  -30.2570  -15.5320   20.9250 N   0  0  0  0  0  0  0  0  0  0  0  0
  -29.3990  -15.2830   21.3980 H   0  0  0  0  0  0  0  0  0  0  0  0
  -25.4170  -13.9690   20.5030 C   0  0  0  0  0  0  0  0  0  0  0  0
  -24.3470  -13.2080   20.8940 C   0  0  0  0  0  0  0  0  0  0  0  0
  -24.7780  -11.8490   20.8100 C   0  0  0  0  0  0  0  0  0  0  0  0
  -26.4350  -13.0730   20.2120 N   0  0  0  0  0  0  0  0  0  0  0  0
  -26.0540  -11.7920   20.4510 N   0  0  0  0  0  0  0  0  0  0  0  0
  -24.0310  -10.5970   20.9920 C   0  0  0  0  0  0  0  0  0  0  0  0
  -24.4670   -9.6040   21.8970 C   0  0  0  0  0  3  0  0  0  0  0  0
  -23.7250   -8.4160   22.0690 C   0  0  0  0  0  3  0  0  0  0  0  0
  -22.5300   -8.2140   21.3380 C   0  0  0  0  0  0  0  0  0  0  0  0
  -22.1120   -9.1960   20.4220 C   0  0  0  0  0  3  0  0  0  0  0  0
  -22.8560  -10.3750   20.2480 C   0  0  0  0  0  3  0  0  0  0  0  0
  -21.7540   -7.0830   21.4230 O   0  0  0  0  0  0  0  0  0  0  0  0
  -21.7060   -6.3280   22.5670 C   0  0  0  0  0  0  0  0  0  0  0  0
  -21.2930   -6.8720   23.8020 C   0  0  0  0  0  3  0  0  0  0  0  0
  -21.1910   -6.0440   24.9370 C   0  0  0  0  0  3  0  0  0  0  0  0
  -21.4930   -4.6730   24.8390 C   0  0  0  0  0  0  0  0  0  0  0  0
  -21.8990   -4.1280   23.6070 C   0  0  0  0  0  3  0  0  0  0  0  0
  -22.0020   -4.9530   22.4740 C   0  0  0  0  0  0  0  0  0  0  0  0
  -22.3740   -4.4200   21.2860 F   0  0  0  0  0  0  0  0  0  0  0  0
  -21.3870   -3.8740   25.9260 F   0  0  0  0  0  0  0  0  0  0  0  0
  -22.9700  -13.7060   21.2330 C   0  0  0  0  0  0  0  0  0  0  0  0
  -22.2600  -13.0020   22.1080 N   0  0  0  0  0  0  0  0  0  0  0  0
  -22.5340  -14.7530   20.7560 O   0  0  0  0  0  0  0  0  0  0  0  0
  -22.6220  -12.1530   22.5140 H   0  0  0  0  0  0  0  0  0  0  0  0
  -21.3360  -13.3160   22.3710 H   0  0  0  0  0  0  0  0  0  0  0  0
  -25.6050  -15.3400   20.3520 N   0  0  0  0  0  0  0  0  0  0  0  0
  -24.8530  -16.0060   20.4910 H   0  0  0  0  0  0  0  0  0  0  0  0
  -26.4410  -15.7610   19.9650 H   0  0  0  0  0  0  0  0  0  0  0  0
  -28.6310  -26.0100   21.4360 C   0  0  0  0  0  2  0  0  0  0  0  0
  -28.5920  -26.8460   20.2740 O   0  0  0  0  0  0  0  0  0  0  0  0
  -24.6790  -31.9560   23.2870 C   0  0  0  0  0  0  0  0  0  0  0  0
  -27.4430  -27.5950   20.2240 C   0  0  0  0  0  0  0  0  0  0  0  0
  -23.5160  -30.5340   21.6280 C   0  0  0  0  0  3  0  0  0  0  0  0
  -25.0170  -29.0330   20.2100 C   0  0  0  0  0  0  0  0  0  0  0  0
  -26.0330  -30.9510   21.4560 C   0  0  0  0  0  2  0  0  0  0  0  0
  -26.1550  -29.5860   20.8130 C   0  0  0  0  0  0  0  0  0  0  0  0
  -27.3720  -28.8710   20.8240 C   0  0  0  0  0  3  0  0  0  0  0  0
  -26.2970  -27.0530   19.6110 C   0  0  0  0  0  3  0  0  0  0  0  0
  -25.0810  -27.7640   19.6060 C   0  0  0  0  0  3  0  0  0  0  0  0
  -23.7520  -29.8610   20.2490 C   0  0  0  0  0  2  0  0  0  0  0  0
  -24.7600  -31.1610   22.1830 N   0  0  0  0  0  0  0  0  0  0  0  0
  -23.5880  -32.2050   23.8190 O   0  0  0  0  0  0  0  0  0  0  0  0
  -22.8780  -29.4980   22.5820 C   0  0  0  0  0  0  0  0  0  0  0  0
  -21.5570  -29.2970   22.4490 N   0  0  0  0  0  0  0  0  0  0  0  0
  -23.5690  -28.8760   23.3950 O   0  0  0  0  0  0  0  0  0  0  0  0
  -21.0610  -29.8500   21.7640 H   0  0  0  0  0  0  0  0  0  0  0  0
  -18.1950  -28.0670   22.9380 C   0  0  0  0  0  0  0  0  0  0  0  0
  -20.7500  -28.3450   23.2120 C   0  0  0  0  0  3  0  0  0  0  0  0
  -20.8670  -26.9200   22.6210 C   0  0  0  0  0  2  0  0  0  0  0  0
  -19.7670  -26.5980   21.6030 C   0  0  0  0  0  2  0  0  0  0  0  0
  -18.3840  -26.7260   22.2490 C   0  0  0  0  0  2  0  0  0  0  0  0
  -19.3070  -28.8350   23.3750 C   0  0  0  0  0  0  0  0  0  0  0  0
  -19.0780  -30.0910   23.9750 C   0  0  0  0  0  3  0  0  0  0  0  0
  -17.7700  -30.5810   24.1460 C   0  0  0  0  0  3  0  0  0  0  0  0
  -16.6720  -29.8100   23.7260 C   0  0  0  0  0  3  0  0  0  0  0  0
  -16.8850  -28.5560   23.1270 C   0  0  0  0  0  3  0  0  0  0  0  0
  -25.9490  -32.6100   23.9190 C   0  0  0  0  0  3  0  0  0  0  0  0
  -25.6180  -34.0070   24.2310 N   0  0  0  0  0  0  0  0  0  0  0  0
  -25.9460  -35.0550   23.4630 C   0  0  0  0  0  0  0  0  0  0  0  0
  -26.6300  -34.9500   22.4420 O   0  0  0  0  0  0  0  0  0  0  0  0
  -25.0140  -34.1630   25.0250 H   0  0  0  0  0  0  0  0  0  0  0  0
  -24.1960  -36.8170   23.0640 C   0  0  0  0  0  1  0  0  0  0  0  0
  -25.4320  -36.4410   23.8970 C   0  0  0  0  0  3  0  0  0  0  0  0
  -27.5410  -37.3670   24.7490 C   0  0  0  0  0  1  0  0  0  0  0  0
  -26.4510  -37.5080   23.7860 N   0  0  0  0  0  0  0  0  0  0  0  0
  -26.0290  -38.4240   23.9170 H   0  0  0  0  0  0  0  0  0  0  0  0
  -26.4610  -31.8560   25.2070 C   0  0  1  0  0  0  0  0  0  0  0  0
  -25.3580  -31.6040   26.2610 C   0  0  0  0  0  1  0  0  0  0  0  0
  -27.0760  -30.4880   24.8300 C   0  0  0  0  0  1  0  0  0  0  0  0
  -27.5870  -32.6760   25.8800 C   0  0  0  0  0  1  0  0  0  0  0  0
  1  3  1  0
  2  1  2  0
  4  5  1  0
  4  2  1  0
  5  6  1  0
  6 51  1  0
  6  3  1  0
  7  2  1  0
  8  7  1  0
  8  9  1  0
 10  8  1  0
 11  8  1  0
 11 12  1  0
 12 21  1  0
 13 21  1  0
 14 19  1  0
 15 16  1  0
 15 14  1  0
 17 16  1  0
 17 26  1  0
 17 18  1  0
 19 13  1  0
 19 18  1  0
 20 13  2  0
 21 22  1  0
 23 24  2  0
 24 43  1  0
 25 24  1  0
 25 28  1  0
 26 27  1  0
 26 23  1  0
 27 25  2  0
 28 29  1  0
 29 30  2  0
 31 34  1  0
 31 30  1  0
 32 31  2  0
 33 32  1  0
 33 28  2  0
 34 35  1  0
 35 36  1  0
 36 37  2  0
 38 37  1  0
 38 42  1  0
 39 38  2  0
 40 35  2  0
 40 39  1  0
 41 40  1  0
 43 44  1  0
 44 47  1  0
 44 46  1  0
 45 43  2  0
 48 49  1  0
 48 23  1  0
 50 48  1  0
 52 51  1  0
 53 64  2  0
 54 52  1  0
 54 59  1  0
 55 63  1  0
 55 65  1  0
 56 62  1  0
 56 58  1  0
 57 63  1  0
 58 59  2  0
 58 57  1  0
 60 54  2  0
 61 60  1  0
 61 56  2  0
 62 55  1  0
 63 53  1  0
 65 67  2  0
 66 65  1  0
 68 66  1  0
 69 78  2  0
 69 74  1  0
 70 66  1  0
 70 74  1  0
 71 70  1  0
 72 73  1  0
 72 71  1  0
 73 69  1  0
 74 75  2  0
 75 76  1  0
 77 76  2  0
 78 77  1  0
 79 53  1  0
 79 80  1  0
 79 89  1  0
 80 83  1  0
 81 85  1  0
 81 80  1  0
 82 81  2  0
 85 84  1  0
 87 85  1  0
 87 88  1  0
 87 86  1  0
 89 92  1  1
 89 90  1  0
 91 89  1  0
M  ISO  4  13 100  21 100  51 101  52 101
M  END
>  <TORSDO>  (72) 
F 21

>  <SCORE>  (72) 
-13.362

>  <name>  (72) 
71

>  <ligand_id>  (72) 
71

>  <original_smiles>  (72) 
[H]C1=C(C([H])([H])[N+]([H])([H])C([H])([H])C([H])([H])N([H])C(=O)N2C([H])([H])C([H])([H])C([H])([H])C([H])(n3nc(-c4c([H])c([H])c(Oc5c([H])c([H])c(F)c([H])c5F)c([H])c4[H])c(C(=O)N([H])[H])c3N([H])[H])C2([H])[H])C([H])([H])C([H])([H])C([H])(C([H])([H])Oc2c([H])c([H])c3c(c2[H])C([H])([H])N(C(=O)C([H])(N([H])C(=O)C([H])(N([H])C([H])([H])[H])C([H])([H])[H])C(C([H])([H])[H])(C([H])([H])[H])C([H])([H])[H])C([H])(C(=O)N([H])C2([H])c4c([H])c([H])c([H])c([H])c4C([H])([H])C([H])([H])C2([H])[H])C3([H])[H])C1([H])[H]

>  <smiles>  (72) 
[H]C1=C(C([H])([H])[N+]([H])([H])C([H])([H])C([H])([H])N([H])C(=O)N2C([H])([H])C([H])([H])C([H])([H])C([H])(n3nc(-c4c([H])c([H])c(Oc5c([H])c([H])c(F)c([H])c5F)c([H])c4[H])c(C(=O)N([H])[H])c3N([H])[H])C2([H])[H])C([H])([H])C([H])([H])C([H])(C([H])([H])Oc2c([H])c([H])c3c(c2[H])C([H])([H])N(C(=O)C([H])(N([H])C(=O)C([H])(N([H])C([H])([H])[H])C([H])([H])[H])C(C([H])([H])[H])(C([H])([H])[H])C([H])([H])[H])C([H])(C(=O)N([H])C2([H])c4c([H])c([H])c([H])c([H])c4C([H])([H])C([H])([H])C2([H])[H])C3([H])[H])C1([H])[H]

$$$$
72:0:0
     RDKit          3D

107115  0  0  1  0  0  0  0  0999 V2000
  -32.6510  -21.7510   21.6680 C   0  0  0  0  0  2  0  0  0  0  0  0
  -33.0820  -22.7720   20.6700 N   0  0  0  0  0  4  0  0  0  0  0  0
  -33.6220  -22.3260   19.9440 H   0  0  0  0  0  0  0  0  0  0  0  0
  -33.7270  -23.3790   21.1520 H   0  0  0  0  0  0  0  0  0  0  0  0
  -32.0080  -23.6320   20.0980 C   0  0  0  0  0  2  0  0  0  0  0  0
  -32.4630  -24.5490   18.9370 C   0  0  0  0  0  2  0  0  0  0  0  0
  -33.0400  -25.9290   19.3210 C   0  0  0  0  0  2  0  0  0  0  0  0
  -31.9930  -26.9270   19.6530 N   0  0  0  0  0  4  0  0  0  0  0  0
  -31.1450  -26.7050   19.1580 H   0  0  0  0  0  0  0  0  0  0  0  0
  -32.3050  -27.8180   19.2970 H   0  0  0  0  0  0  0  0  0  0  0  0
  -31.7310  -27.1110   21.0970 C   0  0  0  0  0  2  0  0  0  0  0  0
  -30.3450  -27.7260   21.3840 C   0  0  0  0  0  2  0  0  0  0  0  0
  -29.1770  -26.7100   21.3910 C   0  0  0  0  0  2  0  0  0  0  0  0
  -28.4320  -26.6900   20.1700 O   0  0  0  0  0  0  0  0  0  0  0  0
  -24.6190  -31.8710   23.2060 C   0  0  0  0  0  0  0  0  0  0  0  0
  -27.2720  -27.4380   20.1740 C   0  0  0  0  0  0  0  0  0  0  0  0
  -23.4020  -30.4440   21.5870 C   0  0  0  0  0  3  0  0  0  0  0  0
  -24.8490  -28.8930   20.1750 C   0  0  0  0  0  0  0  0  0  0  0  0
  -25.9140  -30.8250   21.3630 C   0  0  0  0  0  2  0  0  0  0  0  0
  -26.0000  -29.4450   20.7480 C   0  0  0  0  0  0  0  0  0  0  0  0
  -27.2060  -28.7210   20.7580 C   0  0  0  0  0  3  0  0  0  0  0  0
  -26.1120  -26.8940   19.5830 C   0  0  0  0  0  3  0  0  0  0  0  0
  -24.8960  -27.6110   19.5930 C   0  0  0  0  0  3  0  0  0  0  0  0
  -23.6010  -29.7390   20.2170 C   0  0  0  0  0  2  0  0  0  0  0  0
  -24.6630  -31.0610   22.1130 N   0  0  0  0  0  0  0  0  0  0  0  0
  -23.5420  -32.1490   23.7530 O   0  0  0  0  0  0  0  0  0  0  0  0
  -22.7620  -29.4370   22.5680 C   0  0  0  0  0  0  0  0  0  0  0  0
  -21.4360  -29.2560   22.4520 N   0  0  0  0  0  0  0  0  0  0  0  0
  -23.4520  -28.8210   23.3830 O   0  0  0  0  0  0  0  0  0  0  0  0
  -20.9440  -29.8070   21.7640 H   0  0  0  0  0  0  0  0  0  0  0  0
  -18.0660  -28.0780   22.9810 C   0  0  0  0  0  0  0  0  0  0  0  0
  -20.6240  -28.3290   23.2380 C   0  0  0  0  0  3  0  0  0  0  0  0
  -20.7200  -26.8930   22.6750 C   0  0  0  0  0  2  0  0  0  0  0  0
  -19.6110  -26.5620   21.6710 C   0  0  0  0  0  2  0  0  0  0  0  0
  -18.2330  -26.7200   22.3200 C   0  0  0  0  0  2  0  0  0  0  0  0
  -19.1890  -28.8410   23.3970 C   0  0  0  0  0  0  0  0  0  0  0  0
  -18.9790  -30.1130   23.9750 C   0  0  0  0  0  3  0  0  0  0  0  0
  -17.6770  -30.6220   24.1390 C   0  0  0  0  0  3  0  0  0  0  0  0
  -16.5670  -29.8570   23.7390 C   0  0  0  0  0  3  0  0  0  0  0  0
  -16.7620  -28.5860   23.1680 C   0  0  0  0  0  3  0  0  0  0  0  0
  -25.9120  -32.5100   23.8100 C   0  0  0  0  0  3  0  0  0  0  0  0
  -25.5940  -33.8980   24.1660 N   0  0  0  0  0  0  0  0  0  0  0  0
  -25.8990  -34.9650   23.4140 C   0  0  0  0  0  0  0  0  0  0  0  0
  -26.5490  -34.8830   22.3680 O   0  0  0  0  0  0  0  0  0  0  0  0
  -25.0200  -34.0350   24.9840 H   0  0  0  0  0  0  0  0  0  0  0  0
  -24.1410  -36.7340   23.1180 C   0  0  0  0  0  1  0  0  0  0  0  0
  -25.4050  -36.3390   23.8990 C   0  0  0  0  0  3  0  0  0  0  0  0
  -27.5450  -37.2390   24.6950 C   0  0  0  0  0  1  0  0  0  0  0  0
  -26.4200  -37.4070   23.7770 N   0  0  0  0  0  0  0  0  0  0  0  0
  -26.0070  -38.3190   23.9480 H   0  0  0  0  0  0  0  0  0  0  0  0
  -26.4720  -31.7220   25.0590 C   0  0  1  0  0  0  0  0  0  0  0  0
  -25.4070  -31.4530   26.1470 C   0  0  0  0  0  1  0  0  0  0  0  0
  -27.0600  -30.3600   24.6230 C   0  0  0  0  0  1  0  0  0  0  0  0
  -27.6270  -32.5210   25.7080 C   0  0  0  0  0  1  0  0  0  0  0  0
  -32.3890  -20.3220   21.1020 C   0  0  0  0  0  2  0  0  0  0  0  0
  -29.1140  -18.8440   18.7040 C   0  0  0  0  0  2  0  0  0  0  0  0
  -30.8330  -18.3860   20.4740 C   0  0  0  0  0  2  0  0  0  0  0  0
  -29.1080  -20.3140   19.1030 C   0  0  0  0  0  2  0  0  0  0  0  0
  -29.4640  -17.9360   19.9150 C   0  0  0  0  0  3  0  0  0  0  0  0
  -30.9310  -19.9180   20.7500 C   0  0  0  0  0  3  0  0  0  0  0  0
  -30.4440  -20.6890   19.5800 N   0  0  0  0  0  4  0  0  0  0  0  0
  -30.3750  -21.6590   19.8270 H   0  0  0  0  0  0  0  0  0  0  0  0
  -31.0820  -20.5950   18.8060 H   0  0  0  0  0  0  0  0  0  0  0  0
  -29.4490  -16.4220   19.5440 C   0  0  0  0  0  3  0  0  0  0  0  0
  -30.4180  -14.5650   20.9370 C   0  0  0  0  0  0  0  0  0  0  0  0
  -30.3850  -12.2830   20.0900 C   0  0  0  0  0  2  0  0  0  0  0  0
  -29.5300  -12.3500   18.8050 C   0  0  0  0  0  2  0  0  0  0  0  0
  -28.0270  -12.2140   19.1280 C   0  0  0  0  0  2  0  0  0  0  0  0
  -27.5590  -13.0670   20.3460 C   0  0  0  0  0  3  0  0  0  0  0  0
  -28.5550  -12.9850   21.5220 C   0  0  0  0  0  2  0  0  0  0  0  0
  -29.8910  -13.3160   21.0070 N   0  0  0  0  0  0  0  0  0  0  0  0
  -31.6070  -14.7870   20.6950 O   0  0  0  0  0  0  0  0  0  0  0  0
  -29.4680  -15.5080   20.7180 N   0  0  0  0  0  0  0  0  0  0  0  0
  -28.5650  -15.2660   21.1020 H   0  0  0  0  0  0  0  0  0  0  0  0
  -25.1190  -13.6340   20.9090 C   0  0  0  0  0  0  0  0  0  0  0  0
  -24.0500  -12.8380   21.2070 C   0  0  0  0  0  0  0  0  0  0  0  0
  -24.5420  -11.4970   21.1880 C   0  0  0  0  0  0  0  0  0  0  0  0
  -26.1940  -12.7700   20.7440 N   0  0  0  0  0  0  0  0  0  0  0  0
  -25.8440  -11.4840   20.9580 N   0  0  0  0  0  0  0  0  0  0  0  0
  -23.8450  -10.2170   21.3260 C   0  0  0  0  0  0  0  0  0  0  0  0
  -24.2820   -9.2340   22.2440 C   0  0  0  0  0  3  0  0  0  0  0  0
  -23.5840   -8.0130   22.3670 C   0  0  0  0  0  3  0  0  0  0  0  0
  -22.4380   -7.7690   21.5700 C   0  0  0  0  0  0  0  0  0  0  0  0
  -22.0230   -8.7410   20.6420 C   0  0  0  0  0  3  0  0  0  0  0  0
  -22.7210   -9.9530   20.5190 C   0  0  0  0  0  3  0  0  0  0  0  0
  -21.7100   -6.6050   21.6070 O   0  0  0  0  0  0  0  0  0  0  0  0
  -21.6760   -5.8140   22.7260 C   0  0  0  0  0  0  0  0  0  0  0  0
  -21.2360   -6.3070   23.9730 C   0  0  0  0  0  3  0  0  0  0  0  0
  -21.1440   -5.4370   25.0790 C   0  0  0  0  0  3  0  0  0  0  0  0
  -21.4840   -4.0790   24.9380 C   0  0  0  0  0  0  0  0  0  0  0  0
  -21.9240   -3.5910   23.6970 C   0  0  0  0  0  3  0  0  0  0  0  0
  -22.0150   -4.4540   22.5920 C   0  0  0  0  0  0  0  0  0  0  0  0
  -22.4150   -3.9740   21.3920 F   0  0  0  0  0  0  0  0  0  0  0  0
  -21.3890   -3.2400   25.9970 F   0  0  0  0  0  0  0  0  0  0  0  0
  -22.6330  -13.2820   21.4110 C   0  0  0  0  0  0  0  0  0  0  0  0
  -21.8840  -12.5540   22.2310 N   0  0  0  0  0  0  0  0  0  0  0  0
  -22.2050  -14.3050   20.8810 O   0  0  0  0  0  0  0  0  0  0  0  0
  -22.2550  -11.7280   22.6790 H   0  0  0  0  0  0  0  0  0  0  0  0
  -20.9300  -12.8260   22.4070 H   0  0  0  0  0  0  0  0  0  0  0  0
  -25.2780  -15.0110   20.7560 N   0  0  0  0  0  0  0  0  0  0  0  0
  -24.3410  -15.3970   20.6620 H   0  0  0  0  0  0  0  0  0  0  0  0
  -25.6080  -15.3760   21.6460 H   0  0  0  0  0  0  0  0  0  0  0  0
  -28.2870  -16.0810   18.5550 C   0  0  0  0  0  2  0  0  0  0  0  0
  -26.9540  -16.5190   19.0260 N   0  0  0  0  0  4  0  0  0  0  0  0
  -26.5120  -15.8740   19.6730 H   0  0  0  0  0  0  0  0  0  0  0  0
  -26.3290  -16.6130   18.2460 H   0  0  0  0  0  0  0  0  0  0  0  0
  -27.0000  -17.4050   19.4930 H   0  0  0  0  0  0  0  0  0  0  0  0
  2  4  1  0
  2  1  1  0
  3  2  1  0
  5  2  1  0
  6  7  1  0
  6  5  1  0
  7  8  1  0
  8 11  1  0
  9  8  1  0
 10  8  1  0
 11 12  1  0
 12 13  1  0
 14 16  1  0
 14 13  1  0
 15 26  2  0
 16 21  1  0
 17 25  1  0
 17 27  1  0
 18 24  1  0
 18 20  1  0
 19 25  1  0
 20 21  2  0
 20 19  1  0
 22 23  1  0
 22 16  2  0
 23 18  2  0
 24 17  1  0
 25 15  1  0
 27 29  2  0
 28 27  1  0
 30 28  1  0
 31 40  2  0
 31 36  1  0
 32 28  1  0
 32 36  1  0
 33 32  1  0
 34 35  1  0
 34 33  1  0
 35 31  1  0
 36 37  2  0
 37 38  1  0
 39 38  2  0
 40 39  1  0
 41 15  1  0
 41 42  1  0
 41 51  1  0
 42 45  1  0
 43 47  1  0
 43 42  1  0
 44 43  2  0
 47 46  1  0
 49 47  1  0
 49 50  1  0
 49 48  1  0
 51 54  1  1
 51 52  1  0
 53 51  1  0
 55  1  1  0
 56 58  1  0
 56 59  1  0
 57 60  1  0
 58 61  1  0
 59 64  1  0
 59 57  1  0
 60 55  1  0
 61 62  1  0
 61 60  1  0
 63 61  1  0
 64103  1  0
 64 73  1  0
 65 71  1  0
 66 71  1  0
 67 68  1  0
 67 66  1  0
 69 68  1  0
 69 78  1  0
 69 70  1  0
 71 70  1  0
 72 65  2  0
 73 65  1  0
 73 74  1  0
 75 76  2  0
 76 95  1  0
 77 76  1  0
 77 80  1  0
 78 75  1  0
 78 79  1  0
 79 77  2  0
 80 81  1  0
 81 82  2  0
 83 86  1  0
 83 82  1  0
 84 83  2  0
 85 84  1  0
 85 80  2  0
 86 87  1  0
 87 88  1  0
 88 89  2  0
 90 89  1  0
 90 94  1  0
 91 90  2  0
 92 87  2  0
 92 91  1  0
 93 92  1  0
 95 96  1  0
 96 99  1  0
 96 98  1  0
 97 95  2  0
100 75  1  0
100102  1  0
101100  1  0
103104  1  0
104107  1  0
104105  1  0
106104  1  0
M  ISO  4  13 101  14 101  65 100  73 100
M  END
>  <TORSDO>  (73) 
F 29

>  <SCORE>  (73) 
-10.342

>  <name>  (73) 
72

>  <ligand_id>  (73) 
72

>  <original_smiles>  (73) 
[H]c1c([H])c([H])c2c(c1[H])C([H])([H])C([H])([H])C([H])([H])C2([H])N([H])C(=O)C1([H])N(C(=O)C([H])(N([H])C(=O)C([H])(N([H])C([H])([H])[H])C([H])([H])[H])C(C([H])([H])[H])(C([H])([H])[H])C([H])([H])[H])C([H])([H])c2c([H])c(OC([H])([H])C([H])([H])C([H])([H])[N+]([H])([H])C([H])([H])C([H])([H])C([H])([H])[N+]([H])([H])C([H])([H])C([H])([H])C3([H])C([H])([H])C([H])(C([H])(N([H])C(=O)N4C([H])([H])C([H])([H])C([H])([H])C([H])(n5nc(-c6c([H])c([H])c(Oc7c([H])c([H])c(F)c([H])c7F)c([H])c6[H])c(C(=O)N([H])[H])c5N([H])[H])C4([H])[H])C([H])([H])[N+]([H])([H])[H])C([H])([H])C([H])([H])[N+]3([H])[H])c([H])c([H])c2C1([H])[H]

>  <smiles>  (73) 
[H]c1c([H])c([H])c2c(c1[H])C([H])([H])C([H])([H])C([H])([H])C2([H])N([H])C(=O)C1([H])N(C(=O)C([H])(N([H])C(=O)C([H])(N([H])C([H])([H])[H])C([H])([H])[H])C(C([H])([H])[H])(C([H])([H])[H])C([H])([H])[H])C([H])([H])c2c([H])c(OC([H])([H])C([H])([H])C([H])([H])[N+]([H])([H])C([H])([H])C([H])([H])C([H])([H])[N+]([H])([H])C([H])([H])C([H])([H])C3([H])C([H])([H])C([H])(C([H])(N([H])C(=O)N4C([H])([H])C([H])([H])C([H])([H])C([H])(n5nc(-c6c([H])c([H])c(Oc7c([H])c([H])c(F)c([H])c7F)c([H])c6[H])c(C(=O)N([H])[H])c5N([H])[H])C4([H])[H])C([H])([H])[N+]([H])([H])[H])C([H])([H])C([H])([H])[N+]3([H])[H])c([H])c([H])c2C1([H])[H]

$$$$
73:0:0
     RDKit          3D

 99106  0  0  1  0  0  0  0  0999 V2000
  -27.7320  -20.5580   20.8280 C   0  0  0  0  0  2  0  0  0  0  0  0
  -29.2060  -20.6540   20.3710 C   0  0  0  0  0  2  0  0  0  0  0  0
  -29.7990  -19.3890   19.7010 C   0  0  0  0  0  3  0  0  0  0  0  0
  -30.0060  -18.2970   20.6820 N   0  0  0  0  0  4  0  0  0  0  0  0
  -29.8610  -18.6670   21.6060 H   0  0  0  0  0  0  0  0  0  0  0  0
  -29.3180  -17.5780   20.5280 H   0  0  0  0  0  0  0  0  0  0  0  0
  -31.3560  -17.6960   20.6590 C   0  0  0  0  0  2  0  0  0  0  0  0
  -31.4630  -16.4600   21.5780 C   0  0  0  0  0  2  0  0  0  0  0  0
  -30.9990  -14.5210   20.1070 C   0  0  0  0  0  0  0  0  0  0  0  0
  -30.5610  -12.4000   18.9340 C   0  0  0  0  0  2  0  0  0  0  0  0
  -29.5560  -12.5820   17.7840 C   0  0  0  0  0  2  0  0  0  0  0  0
  -28.1120  -12.4460   18.3020 C   0  0  0  0  0  2  0  0  0  0  0  0
  -27.8450  -13.3250   19.5520 C   0  0  0  0  0  3  0  0  0  0  0  0
  -28.9530  -13.1320   20.6100 C   0  0  0  0  0  2  0  0  0  0  0  0
  -30.2590  -13.3930   19.9760 N   0  0  0  0  0  0  0  0  0  0  0  0
  -31.9640  -14.7910   19.3880 O   0  0  0  0  0  0  0  0  0  0  0  0
  -30.6550  -15.3250   21.1220 N   0  0  0  0  0  0  0  0  0  0  0  0
  -29.8890  -15.0200   21.7050 H   0  0  0  0  0  0  0  0  0  0  0  0
  -25.5150  -13.9620   20.4440 C   0  0  0  0  0  0  0  0  0  0  0  0
  -24.4530  -13.2020   20.8530 C   0  0  0  0  0  0  0  0  0  0  0  0
  -24.8720  -11.8410   20.7330 C   0  0  0  0  0  0  0  0  0  0  0  0
  -26.5180  -13.0660   20.1070 N   0  0  0  0  0  0  0  0  0  0  0  0
  -26.1370  -11.7830   20.3360 N   0  0  0  0  0  0  0  0  0  0  0  0
  -24.1260  -10.5900   20.9190 C   0  0  0  0  0  0  0  0  0  0  0  0
  -24.5580   -9.6000   21.8270 C   0  0  0  0  0  3  0  0  0  0  0  0
  -23.8140   -8.4130   22.0020 C   0  0  0  0  0  3  0  0  0  0  0  0
  -22.6220   -8.2090   21.2660 C   0  0  0  0  0  0  0  0  0  0  0  0
  -22.2080   -9.1880   20.3450 C   0  0  0  0  0  3  0  0  0  0  0  0
  -22.9530  -10.3660   20.1690 C   0  0  0  0  0  3  0  0  0  0  0  0
  -21.8490   -7.0770   21.3500 O   0  0  0  0  0  0  0  0  0  0  0  0
  -21.7720   -6.3420   22.5050 C   0  0  0  0  0  0  0  0  0  0  0  0
  -21.3050   -6.9010   23.7140 C   0  0  0  0  0  3  0  0  0  0  0  0
  -21.1780   -6.0910   24.8610 C   0  0  0  0  0  3  0  0  0  0  0  0
  -21.5060   -4.7240   24.7990 C   0  0  0  0  0  0  0  0  0  0  0  0
  -21.9670   -4.1650   23.5940 C   0  0  0  0  0  3  0  0  0  0  0  0
  -22.0960   -4.9710   22.4490 C   0  0  0  0  0  0  0  0  0  0  0  0
  -22.5200   -4.4220   21.2850 F   0  0  0  0  0  0  0  0  0  0  0  0
  -21.3770   -3.9440   25.8980 F   0  0  0  0  0  0  0  0  0  0  0  0
  -23.0910  -13.7010   21.2420 C   0  0  0  0  0  0  0  0  0  0  0  0
  -22.4040  -12.9850   22.1260 N   0  0  0  0  0  0  0  0  0  0  0  0
  -22.6470  -14.7610   20.8000 O   0  0  0  0  0  0  0  0  0  0  0  0
  -22.7760  -12.1270   22.5030 H   0  0  0  0  0  0  0  0  0  0  0  0
  -21.4940  -13.2990   22.4280 H   0  0  0  0  0  0  0  0  0  0  0  0
  -25.7060  -15.3350   20.3120 N   0  0  0  0  0  0  0  0  0  0  0  0
  -24.9580  -15.9990   20.4810 H   0  0  0  0  0  0  0  0  0  0  0  0
  -26.5270  -15.7580   19.9010 H   0  0  0  0  0  0  0  0  0  0  0  0
  -28.9970  -18.8850   18.4760 C   0  0  0  0  0  2  0  0  0  0  0  0
  -28.4250  -19.2540   16.1890 C   0  0  0  0  0  1  0  0  0  0  0  0
  -29.1840  -19.7620   17.3240 N   0  0  0  0  0  0  0  0  0  0  0  0
  -28.8530  -20.6980   17.5490 H   0  0  0  0  0  0  0  0  0  0  0  0
  -27.2230  -21.8040   21.5840 C   0  0  0  0  0  2  0  0  0  0  0  0
  -27.2780  -23.0340   20.7630 N   0  0  0  0  0  4  0  0  0  0  0  0
  -27.5330  -22.8260   19.8100 H   0  0  0  0  0  0  0  0  0  0  0  0
  -26.3580  -23.4450   20.7320 H   0  0  0  0  0  0  0  0  0  0  0  0
  -28.2230  -24.0730   21.2250 C   0  0  0  0  0  2  0  0  0  0  0  0
  -28.5060  -24.9910   20.0350 C   0  0  0  0  0  0  0  0  0  0  0  0
  -28.3510  -24.5840   18.8750 O   0  0  0  0  0  0  0  0  0  0  0  0
  -29.0250  -26.4060   20.3390 C   0  0  0  0  0  2  0  0  0  0  0  0
  -28.7240  -27.3170   19.2760 O   0  0  0  0  0  0  0  0  0  0  0  0
  -24.5640  -31.7020   23.0290 C   0  0  0  0  0  0  0  0  0  0  0  0
  -27.5020  -27.9280   19.4050 C   0  0  0  0  0  0  0  0  0  0  0  0
  -23.4380  -30.3880   21.2610 C   0  0  0  0  0  3  0  0  0  0  0  0
  -24.9810  -29.1670   19.6400 C   0  0  0  0  0  0  0  0  0  0  0  0
  -25.9100  -31.0080   21.0530 C   0  0  0  0  0  2  0  0  0  0  0  0
  -26.1010  -29.7310   20.2640 C   0  0  0  0  0  0  0  0  0  0  0  0
  -27.3660  -29.1150   20.1520 C   0  0  0  0  0  3  0  0  0  0  0  0
  -26.3720  -27.3740   18.7690 C   0  0  0  0  0  3  0  0  0  0  0  0
  -25.1090  -27.9840   18.8910 C   0  0  0  0  0  3  0  0  0  0  0  0
  -23.6640  -29.8890   19.8080 C   0  0  0  0  0  2  0  0  0  0  0  0
  -24.6560  -31.0420   21.8410 N   0  0  0  0  0  0  0  0  0  0  0  0
  -23.4810  -31.8070   23.6200 O   0  0  0  0  0  0  0  0  0  0  0  0
  -22.9140  -29.2080   22.1100 C   0  0  0  0  0  0  0  0  0  0  0  0
  -21.6120  -28.9080   21.9760 N   0  0  0  0  0  0  0  0  0  0  0  0
  -23.6740  -28.5680   22.8420 O   0  0  0  0  0  0  0  0  0  0  0  0
  -21.0580  -29.4840   21.3600 H   0  0  0  0  0  0  0  0  0  0  0  0
  -18.3900  -27.3150   22.3350 C   0  0  0  0  0  0  0  0  0  0  0  0
  -20.9060  -27.8160   22.6450 C   0  0  0  0  0  3  0  0  0  0  0  0
  -21.1590  -26.4690   21.9310 C   0  0  0  0  0  2  0  0  0  0  0  0
  -20.0920  -26.1310   20.8840 C   0  0  0  0  0  2  0  0  0  0  0  0
  -18.7060  -26.0650   21.5320 C   0  0  0  0  0  2  0  0  0  0  0  0
  -19.4220  -28.1460   22.8450 C   0  0  0  0  0  0  0  0  0  0  0  0
  -19.0740  -29.3160   23.5550 C   0  0  0  0  0  3  0  0  0  0  0  0
  -17.7240  -29.6560   23.7610 C   0  0  0  0  0  3  0  0  0  0  0  0
  -16.7050  -28.8210   23.2690 C   0  0  0  0  0  3  0  0  0  0  0  0
  -17.0390  -27.6530   22.5620 C   0  0  0  0  0  3  0  0  0  0  0  0
  -25.8080  -32.3730   23.6900 C   0  0  0  0  0  3  0  0  0  0  0  0
  -25.4110  -33.7240   24.1080 N   0  0  0  0  0  0  0  0  0  0  0  0
  -25.6750  -34.8410   23.4170 C   0  0  0  0  0  0  0  0  0  0  0  0
  -26.3500  -34.8460   22.3840 O   0  0  0  0  0  0  0  0  0  0  0  0
  -24.8080  -33.7880   24.9150 H   0  0  0  0  0  0  0  0  0  0  0  0
  -23.8290  -36.5310   23.1690 C   0  0  0  0  0  1  0  0  0  0  0  0
  -25.0970  -36.1620   23.9580 C   0  0  0  0  0  3  0  0  0  0  0  0
  -27.1660  -37.1370   24.8490 C   0  0  0  0  0  1  0  0  0  0  0  0
  -26.0550  -37.2860   23.9110 N   0  0  0  0  0  0  0  0  0  0  0  0
  -25.5890  -38.1670   24.1100 H   0  0  0  0  0  0  0  0  0  0  0  0
  -26.3810  -31.5540   24.9130 C   0  0  1  0  0  0  0  0  0  0  0  0
  -25.3120  -31.1830   25.9680 C   0  0  0  0  0  1  0  0  0  0  0  0
  -27.0430  -30.2440   24.4280 C   0  0  0  0  0  1  0  0  0  0  0  0
  -27.4870  -32.3730   25.6190 C   0  0  0  0  0  1  0  0  0  0  0  0
  1 51  1  0
  2  1  1  0
  3 47  1  0
  3  2  1  0
  3  4  1  0
  4  5  1  0
  6  4  1  0
  7  4  1  0
  7  8  1  0
  9 17  1  0
 10 15  1  0
 11 12  1  0
 11 10  1  0
 13 12  1  0
 13 22  1  0
 13 14  1  0
 15  9  1  0
 15 14  1  0
 16  9  2  0
 17  8  1  0
 17 18  1  0
 19 20  2  0
 20 39  1  0
 21 20  1  0
 21 24  1  0
 22 23  1  0
 22 19  1  0
 23 21  2  0
 24 25  1  0
 25 26  2  0
 27 30  1  0
 27 26  1  0
 28 27  2  0
 29 28  1  0
 29 24  2  0
 30 31  1  0
 31 32  1  0
 32 33  2  0
 34 33  1  0
 34 38  1  0
 35 34  2  0
 36 31  2  0
 36 35  1  0
 37 36  1  0
 39 40  1  0
 40 43  1  0
 40 42  1  0
 41 39  2  0
 44 19  1  0
 44 45  1  0
 46 44  1  0
 48 49  1  0
 49 50  1  0
 49 47  1  0
 52 55  1  0
 52 51  1  0
 53 52  1  0
 54 52  1  0
 56 58  1  0
 56 55  1  0
 57 56  2  0
 59 61  1  0
 59 58  1  0
 60 71  2  0
 61 66  1  0
 62 70  1  0
 62 72  1  0
 63 69  1  0
 63 65  1  0
 64 70  1  0
 65 64  1  0
 66 65  2  0
 67 68  1  0
 67 61  2  0
 68 63  2  0
 69 62  1  0
 70 60  1  0
 72 74  2  0
 73 72  1  0
 75 73  1  0
 76 85  2  0
 76 81  1  0
 77 73  1  0
 77 81  1  0
 78 77  1  0
 79 80  1  0
 79 78  1  0
 80 76  1  0
 81 82  2  0
 82 83  1  0
 84 83  2  0
 85 84  1  0
 86 60  1  0
 86 87  1  0
 86 96  1  0
 87 90  1  0
 88 92  1  0
 88 87  1  0
 89 88  2  0
 92 91  1  0
 94 92  1  0
 94 95  1  0
 94 93  1  0
 96 99  1  1
 96 97  1  0
 98 96  1  0
M  ISO  4   9 100  17 100  58 101  59 101
M  END
>  <TORSDO>  (74) 
F 28

>  <SCORE>  (74) 
-9.382

>  <name>  (74) 
73

>  <ligand_id>  (74) 
73

>  <original_smiles>  (74) 
[H]c1c([H])c([H])c2c(c1[H])C([H])([H])C([H])([H])C([H])([H])C2([H])N([H])C(=O)C1([H])N(C(=O)C([H])(N([H])C(=O)C([H])(N([H])C([H])([H])[H])C([H])([H])[H])C(C([H])([H])[H])(C([H])([H])[H])C([H])([H])[H])C([H])([H])c2c([H])c(OC([H])([H])C(=O)C([H])([H])[N+]([H])([H])C([H])([H])C([H])([H])C([H])([H])C([H])(C([H])([H])N([H])C([H])([H])[H])[N+]([H])([H])C([H])([H])C([H])([H])N([H])C(=O)N3C([H])([H])C([H])([H])C([H])([H])C([H])(n4nc(-c5c([H])c([H])c(Oc6c([H])c([H])c(F)c([H])c6F)c([H])c5[H])c(C(=O)N([H])[H])c4N([H])[H])C3([H])[H])c([H])c([H])c2C1([H])[H]

>  <smiles>  (74) 
[H]c1c([H])c([H])c2c(c1[H])C([H])([H])C([H])([H])C([H])([H])C2([H])N([H])C(=O)C1([H])N(C(=O)C([H])(N([H])C(=O)C([H])(N([H])C([H])([H])[H])C([H])([H])[H])C(C([H])([H])[H])(C([H])([H])[H])C([H])([H])[H])C([H])([H])c2c([H])c(OC([H])([H])C(=O)C([H])([H])[N+]([H])([H])C([H])([H])C([H])([H])C([H])([H])C([H])(C([H])([H])N([H])C([H])([H])[H])[N+]([H])([H])C([H])([H])C([H])([H])N([H])C(=O)N3C([H])([H])C([H])([H])C([H])([H])C([H])(n4nc(-c5c([H])c([H])c(Oc6c([H])c([H])c(F)c([H])c6F)c([H])c5[H])c(C(=O)N([H])[H])c4N([H])[H])C3([H])[H])c([H])c([H])c2C1([H])[H]

$$$$
74:0:0
     RDKit          3D

101102  0  0  1  0  0  0  0  0999 V2000
  -27.4100  -10.4640   20.1980 C   0  0  0  0  0 15  0  0  0  0  0  0
  -26.0850  -11.1650   22.1250 C   0  0  0  0  0  1  0  0  0  0  0  0
  -26.0070  -14.8890   21.9580 C   0  0  0  0  0 15  0  0  0  0  0  0
  -27.2730  -15.6940   20.2810 C   0  0  0  0  0  1  0  0  0  0  0  0
  -28.4410  -14.3480   19.0170 C   0  0  0  0  0  1  0  0  0  0  0  0
  -28.9920  -12.2590   19.3390 C   0  0  0  0  0  1  0  0  0  0  0  0
  -25.6300  -13.0420   22.5610 N   0  0  0  0  0  2  0  0  0  0  0  0
  -25.8640  -13.0900   23.5400 H   0  0  0  0  0  0  0  0  0  0  0  0
  -24.6280  -13.0300   22.5790 H   0  0  0  0  0  0  0  0  0  0  0  0
  -31.5050  -12.3040   21.4140 C   0  0  0  0  0  0  0  0  0  0  0  0
  -32.0480  -10.0310   21.5280 C   0  0  0  0  0  2  0  0  0  0  0  0
  -31.5370   -9.9360   20.1130 C   0  0  0  0  0  2  0  0  0  0  0  0
  -30.0370  -10.0320   20.3010 C   0  0  0  0  0  2  0  0  0  0  0  0
  -29.1880  -10.9530   21.5740 C   0  0  0  0  0  2  0  0  0  0  0  0
  -30.0490  -10.8000   22.7440 C   0  0  0  0  0  2  0  0  0  0  0  0
  -31.3360  -11.1500   22.1280 N   0  0  0  0  0  0  0  0  0  0  0  0
  -32.5880  -12.7900   21.8070 O   0  0  0  0  0  0  0  0  0  0  0  0
  -30.5690  -12.6200   20.1960 N   0  0  0  0  0  0  0  0  0  0  0  0
  -31.0390  -13.3750   19.7260 H   0  0  0  0  0  0  0  0  0  0  0  0
  -27.2740  -12.8640   20.9190 C   0  0  0  0  0  3  0  0  0  0  0  0
  -25.7350  -12.7390   20.3790 C   0  0  0  0  0  3  0  0  0  0  0  0
  -25.4240  -11.4380   20.4330 C   0  0  0  0  0  3  0  0  0  0  0  0
  -27.9330  -11.9680   21.4370 N   0  0  0  0  0  1  0  0  0  0  0  0
  -26.6200  -12.0930   20.6670 N   0  0  1  0  0  4  0  0  0  0  0  0
  -24.4170  -10.2640   20.7750 C   0  0  0  0  0  0  0  0  0  0  0  0
  -24.5000   -9.0940   21.6310 C   0  0  0  0  0  3  0  0  0  0  0  0
  -23.4300   -8.2330   21.9440 C   0  0  0  0  0  3  0  0  0  0  0  0
  -22.2580   -8.3390   21.1880 C   0  0  0  0  0  0  0  0  0  0  0  0
  -22.2060   -9.3250   20.1900 C   0  0  0  0  0  3  0  0  0  0  0  0
  -23.2390  -10.2700   20.0150 C   0  0  0  0  0  3  0  0  0  0  0  0
  -21.2160   -7.4470   21.2680 O   0  0  0  0  0  0  0  0  0  0  0  0
  -21.0200   -6.6400   22.3630 C   0  0  0  0  0  0  0  0  0  0  0  0
  -20.4470   -7.1240   23.5580 C   0  0  0  0  0  3  0  0  0  0  0  0
  -20.1650   -6.2360   24.6150 C   0  0  0  0  0  3  0  0  0  0  0  0
  -20.4470   -4.8630   24.4800 C   0  0  0  0  0  0  0  0  0  0  0  0
  -21.0170   -4.3780   23.2910 C   0  0  0  0  0  3  0  0  0  0  0  0
  -21.3000   -5.2620   22.2340 C   0  0  0  0  0  0  0  0  0  0  0  0
  -21.8220   -4.7800   21.0810 F   0  0  0  0  0  0  0  0  0  0  0  0
  -20.1610   -4.0100   25.4920 F   0  0  0  0  0  0  0  0  0  0  0  0
  -24.4470  -13.5770   20.1610 C   0  0  0  0  0  0  0  0  0  0  0  0
  -23.4090  -13.3310   20.9780 N   0  0  0  0  0  0  0  0  0  0  0  0
  -24.3530  -14.4200   19.2870 O   0  0  0  0  0  0  0  0  0  0  0  0
  -23.4210  -12.5910   21.6610 H   0  0  0  0  0  0  0  0  0  0  0  0
  -22.5480  -13.8370   20.8330 H   0  0  0  0  0  0  0  0  0  0  0  0
  -28.4390  -13.6690   21.3610 N   0  0  0  0  0  0  0  0  0  0  0  0
  -28.5060  -14.6670   21.2490 H   0  0  0  0  0  0  0  0  0  0  0  0
  -29.3220  -13.2560   21.6130 H   0  0  0  0  0  0  0  0  0  0  0  0
  -27.6010  -17.3840   20.0420 C   0  0  0  0  0  2  0  0  0  0  0  0
  -29.0930  -18.1620   19.7930 C   0  0  0  0  0  0  0  0  0  0  0  0
  -29.4970  -19.1020   18.7840 N   0  0  0  0  0  0  0  0  0  0  0  0
  -29.9410  -17.9190   20.6540 O   0  0  0  0  0  0  0  0  0  0  0  0
  -28.8020  -19.2510   18.0640 H   0  0  0  0  0  0  0  0  0  0  0  0
  -30.7620  -20.0990   18.6990 C   0  0  0  0  0  2  0  0  0  0  0  0
  -31.4760  -20.8640   17.3300 C   0  0  0  0  0  3  0  0  0  0  0  0
  -33.0490  -21.5470   17.2930 C   0  0  0  0  0  3  0  0  0  0  0  0
  -33.8440  -22.5140   16.3190 O   0  0  0  0  0  0  0  0  0  0  0  0
  -35.7120  -28.0640   20.7240 C   0  0  0  0  0  0  0  0  0  0  0  0
  -33.9040  -23.9010   16.6120 C   0  0  0  0  0  0  0  0  0  0  0  0
  -33.6070  -28.1460   19.4600 C   0  0  0  0  0  3  0  0  0  0  0  0
  -33.4060  -26.5750   17.4620 C   0  0  0  0  0  0  0  0  0  0  0  0
  -35.6570  -26.9430   18.4570 C   0  0  0  0  0  2  0  0  0  0  0  0
  -34.6850  -26.0380   17.6760 C   0  0  0  0  0  0  0  0  0  0  0  0
  -34.9590  -24.6960   17.2200 C   0  0  0  0  0  3  0  0  0  0  0  0
  -32.7010  -24.5480   16.3310 C   0  0  0  0  0  3  0  0  0  0  0  0
  -32.4360  -25.8480   16.7670 C   0  0  0  0  0  3  0  0  0  0  0  0
  -33.0920  -27.9460   18.0150 C   0  0  0  0  0  2  0  0  0  0  0  0
  -35.0340  -27.7030   19.5940 N   0  0  0  0  0  0  0  0  0  0  0  0
  -35.1750  -28.7410   21.6150 O   0  0  0  0  0  0  0  0  0  0  0  0
  -32.6530  -27.4450   20.4630 C   0  0  0  0  0  0  0  0  0  0  0  0
  -31.4350  -27.9880   20.6300 N   0  0  0  0  0  0  0  0  0  0  0  0
  -33.0120  -26.4300   21.0640 O   0  0  0  0  0  0  0  0  0  0  0  0
  -31.2180  -28.8270   20.1110 H   0  0  0  0  0  0  0  0  0  0  0  0
  -28.0680  -28.6010   21.8300 C   0  0  0  0  0  0  0  0  0  0  0  0
  -30.3730  -27.4730   21.5000 C   0  0  0  0  0  3  0  0  0  0  0  0
  -29.5970  -26.3230   20.8180 C   0  0  0  0  0  2  0  0  0  0  0  0
  -28.3460  -26.8000   20.0720 C   0  0  0  0  0  2  0  0  0  0  0  0
  -27.3830  -27.5020   21.0340 C   0  0  0  0  0  2  0  0  0  0  0  0
  -29.4730  -28.5950   22.0350 C   0  0  0  0  0  0  0  0  0  0  0  0
  -30.0600  -29.6590   22.7550 C   0  0  0  0  0  3  0  0  0  0  0  0
  -29.2720  -30.7070   23.2640 C   0  0  0  0  0  3  0  0  0  0  0  0
  -27.8800  -30.7000   23.0660 C   0  0  0  0  0  3  0  0  0  0  0  0
  -27.2800  -29.6470   22.3540 C   0  0  0  0  0  3  0  0  0  0  0  0
  -37.1990  -27.6580   20.9450 C   0  0  0  0  0  3  0  0  0  0  0  0
  -37.3760  -26.4620   21.9580 C   0  0  1  0  0  0  0  0  0  0  0  0
  -36.6960  -26.7040   23.3260 C   0  0  0  0  0  1  0  0  0  0  0  0
  -36.7990  -25.1550   21.3680 C   0  0  0  0  0  1  0  0  0  0  0  0
  -38.8810  -26.1980   22.2040 C   0  0  0  0  0  1  0  0  0  0  0  0
  -37.9200  -28.8460   21.4290 N   0  0  0  0  0  0  0  0  0  0  0  0
  -38.6890  -29.6340   20.6670 C   0  0  0  0  0  0  0  0  0  0  0  0
  -38.9270  -29.3900   19.4800 O   0  0  0  0  0  0  0  0  0  0  0  0
  -37.7390  -29.1340   22.3800 H   0  0  0  0  0  0  0  0  0  0  0  0
  -38.5210  -32.1380   20.8630 C   0  0  0  0  0  1  0  0  0  0  0  0
  -39.2970  -30.8930   21.3240 C   0  0  0  0  0  3  0  0  0  0  0  0
  -41.5760  -30.0680   21.7000 C   0  0  0  0  0  1  0  0  0  0  0  0
  -40.7370  -31.0670   21.0430 N   0  0  0  0  0  0  0  0  0  0  0  0
  -41.0540  -31.9860   21.3370 H   0  0  0  0  0  0  0  0  0  0  0  0
  -29.7060  -15.1530   18.6460 C   0  0  0  0  0  2  0  0  0  0  0  0
  -30.7330  -14.3530   17.9580 N   0  0  0  0  0  4  0  0  0  0  0  0
  -31.0340  -13.5750   18.5160 H   0  0  0  0  0  0  0  0  0  0  0  0
  -31.5340  -14.9290   17.7570 H   0  0  0  0  0  0  0  0  0  0  0  0
  -30.3730  -14.0060   17.0870 H   0  0  0  0  0  0  0  0  0  0  0  0
  6 18  1  0
  7  9  1  0
  7  8  1  0
 10 17  2  0
 10 16  1  0
 11 16  1  0
 12 13  1  0
 12 11  1  0
 13 14  1  0
 14 15  1  0
 16 15  1  0
 18 10  1  0
 19 18  1  0
 20 45  1  0
 20 23  1  0
 21 40  1  0
 21 22  1  0
 21 24  1  0
 22 24  1  0
 22 25  1  0
 24 20  1  0
 24  2  1  6
 25 26  1  0
 26 27  2  0
 28 31  1  0
 28 27  1  0
 29 28  2  0
 30 29  1  0
 30 25  2  0
 31 32  1  0
 32 33  1  0
 33 34  2  0
 35 34  1  0
 35 39  1  0
 36 35  2  0
 37 32  2  0
 37 36  1  0
 38 37  1  0
 40 41  1  0
 41 43  1  0
 42 40  2  0
 44 41  1  0
 45 47  1  0
 46 45  1  0
 48  4  1  0
 49 48  1  0
 49 51  2  0
 50 49  1  0
 52 50  1  0
 53 50  1  0
 54 53  1  0
 55 54  2  0
 56 58  1  0
 56 55  1  0
 57 68  2  0
 58 63  1  0
 59 67  1  0
 59 69  1  0
 60 62  1  0
 60 66  1  0
 61 67  1  0
 62 61  1  0
 63 62  2  0
 64 58  2  0
 64 65  1  0
 65 60  2  0
 66 59  1  0
 67 57  1  0
 69 70  1  0
 69 71  2  0
 72 70  1  0
 73 78  2  0
 73 82  1  0
 74 70  1  0
 74 78  1  0
 75 74  1  0
 76 75  1  0
 76 77  1  0
 77 73  1  0
 78 79  1  0
 79 80  2  0
 81 80  1  0
 82 81  2  0
 83 57  1  0
 83 88  1  0
 83 84  1  0
 84 87  1  1
 84 85  1  0
 86 84  1  0
 88 91  1  0
 89 93  1  0
 89 88  1  0
 90 89  2  0
 93 92  1  0
 95 93  1  0
 95 96  1  0
 95 94  1  0
 97  5  1  0
 98 99  1  0
 98 97  1  0
100 98  1  0
101 98  1  0
M  ISO  4  10 100  18 100  55 101  56 101
M  END
>  <TORSDO>  (75) 
F 23

>  <SCORE>  (75) 
-5.603

>  <name>  (75) 
74

>  <ligand_id>  (75) 
74

>  <original_smiles>  (75) 
[H]c1c([H])c([H])c2c(c1[H])C([H])([H])C([H])([H])C([H])([H])C2([H])N([H])C(=O)C1([H])N(C(=O)C([H])(N([H])C(=O)C([H])(N([H])C([H])([H])[H])C([H])([H])[H])C(C([H])([H])[H])(C([H])([H])[H])C([H])([H])[H])C([H])([H])c2c([H])c(OC([H])([H])C([H])([H])C([H])([H])N([H])C(=O)C([H])([H])C3([H])C([H])(C([H])([H])[N+]([H])([H])[H])C([H])(N([H])C(=O)N4C([H])([H])C([H])([H])C([H])([H])C([H])(n5nc(-c6c([H])c([H])c(Oc7c([H])c([H])c(F)c([H])c7F)c([H])c6[H])c(C(=O)N([H])[H])c5N([H])[H])C4([H])[H])C([H])([H])C([H])([H])[N+]([H])([H])C3([H])[H])c([H])c([H])c2C1([H])[H]

>  <smiles>  (75) 
[H]c1c([H])c([H])c2c(c1[H])C([H])([H])C([H])([H])C([H])([H])C2([H])N([H])C(=O)C1([H])N(C(=O)C([H])(N([H])C(=O)C([H])(N([H])C([H])([H])[H])C([H])([H])[H])C(C([H])([H])[H])(C([H])([H])[H])C([H])([H])[H])C([H])([H])c2c([H])c(OC([H])([H])C([H])([H])C([H])([H])N([H])C(=O)C([H])([H])C3([H])C([H])(C([H])([H])[N+]([H])([H])[H])C([H])(N([H])C(=O)N4C([H])([H])C([H])([H])C([H])([H])C([H])(n5nc(-c6c([H])c([H])c(Oc7c([H])c([H])c(F)c([H])c7F)c([H])c6[H])c(C(=O)N([H])[H])c5N([H])[H])C4([H])[H])C([H])([H])C([H])([H])[N+]([H])([H])C3([H])[H])c([H])c([H])c2C1([H])[H]

$$$$
76:0:0
     RDKit          3D

 91 99  0  0  1  0  0  0  0  0999 V2000
  -29.6780  -20.6500   20.9790 C   0  0  0  0  0  2  0  0  0  0  0  0
  -30.4120  -18.2520   18.1540 C   0  0  0  0  0  3  0  0  0  0  0  0
  -30.4690  -17.0730   18.7880 C   0  0  0  0  0  3  0  0  0  0  0  0
  -30.3230  -19.5050   18.8860 C   0  0  0  0  0  0  0  0  0  0  0  0
  -29.5360  -18.1310   20.8350 C   0  0  0  0  0  2  0  0  0  0  0  0
  -30.3980  -16.9520   20.2990 C   0  0  0  0  0  3  0  0  0  0  0  0
  -29.8190  -19.4250   20.1540 N   0  0  0  0  0  0  0  0  0  0  0  0
  -30.7010  -20.5660   18.3840 O   0  0  0  0  0  0  0  0  0  0  0  0
  -30.6920  -14.4860   20.4740 C   0  0  0  0  0  0  0  0  0  0  0  0
  -30.3700  -12.3140   19.3800 C   0  0  0  0  0  2  0  0  0  0  0  0
  -29.4520  -12.5370   18.1600 C   0  0  0  0  0  2  0  0  0  0  0  0
  -27.9720  -12.4180   18.5730 C   0  0  0  0  0  2  0  0  0  0  0  0
  -27.6270  -13.2520   19.8370 C   0  0  0  0  0  3  0  0  0  0  0  0
  -28.6750  -13.0480   20.9580 C   0  0  0  0  0  2  0  0  0  0  0  0
  -30.0020  -13.3180   20.3890 N   0  0  0  0  0  0  0  0  0  0  0  0
  -31.8630  -14.5920   20.0990 O   0  0  0  0  0  0  0  0  0  0  0  0
  -29.9590  -15.5990   20.7040 N   0  0  0  0  0  0  0  0  0  0  0  0
  -29.0030  -15.4770   21.0040 H   0  0  0  0  0  0  0  0  0  0  0  0
  -25.2220  -13.8590   20.5220 C   0  0  0  0  0  0  0  0  0  0  0  0
  -24.1530  -13.0890   20.8870 C   0  0  0  0  0  0  0  0  0  0  0  0
  -24.6150  -11.7380   20.8700 C   0  0  0  0  0  0  0  0  0  0  0  0
  -26.2700  -12.9780   20.3060 N   0  0  0  0  0  0  0  0  0  0  0  0
  -25.9070  -11.6960   20.5720 N   0  0  0  0  0  0  0  0  0  0  0  0
  -23.8870  -10.4760   21.0620 C   0  0  0  0  0  0  0  0  0  0  0  0
  -24.3220   -9.5050   21.9900 C   0  0  0  0  0  3  0  0  0  0  0  0
  -23.5930   -8.3100   22.1700 C   0  0  0  0  0  3  0  0  0  0  0  0
  -22.4140   -8.0770   21.4220 C   0  0  0  0  0  0  0  0  0  0  0  0
  -22.0000   -9.0360   20.4800 C   0  0  0  0  0  3  0  0  0  0  0  0
  -22.7300  -10.2220   20.2980 C   0  0  0  0  0  3  0  0  0  0  0  0
  -21.6580   -6.9330   21.5090 O   0  0  0  0  0  0  0  0  0  0  0  0
  -21.6260   -6.1790   22.6550 C   0  0  0  0  0  0  0  0  0  0  0  0
  -21.2380   -6.7250   23.8980 C   0  0  0  0  0  3  0  0  0  0  0  0
  -21.1520   -5.8970   25.0340 C   0  0  0  0  0  3  0  0  0  0  0  0
  -21.4460   -4.5240   24.9320 C   0  0  0  0  0  0  0  0  0  0  0  0
  -21.8270   -3.9780   23.6930 C   0  0  0  0  0  3  0  0  0  0  0  0
  -21.9150   -4.8020   22.5580 C   0  0  0  0  0  0  0  0  0  0  0  0
  -22.2620   -4.2660   21.3630 F   0  0  0  0  0  0  0  0  0  0  0  0
  -21.3570   -3.7270   26.0210 F   0  0  0  0  0  0  0  0  0  0  0  0
  -22.7520  -13.5670   21.1450 C   0  0  0  0  0  0  0  0  0  0  0  0
  -22.0170  -12.8730   22.0070 N   0  0  0  0  0  0  0  0  0  0  0  0
  -22.3170  -14.5890   20.6150 O   0  0  0  0  0  0  0  0  0  0  0  0
  -22.3780  -12.0430   22.4530 H   0  0  0  0  0  0  0  0  0  0  0  0
  -21.0780  -13.1740   22.2250 H   0  0  0  0  0  0  0  0  0  0  0  0
  -25.3870  -15.2290   20.3360 N   0  0  0  0  0  0  0  0  0  0  0  0
  -24.6160  -15.8820   20.4420 H   0  0  0  0  0  0  0  0  0  0  0  0
  -26.2340  -15.6700   20.0020 H   0  0  0  0  0  0  0  0  0  0  0  0
  -28.6920  -21.7260   20.4280 C   0  0  0  0  0  2  0  0  0  0  0  0
  -28.8400  -23.1000   21.1240 C   0  0  0  0  0  2  0  0  0  0  0  0
  -28.2730  -24.2930   20.3150 C   0  0  0  0  0  2  0  0  0  0  0  0
  -28.5280  -25.6540   21.0000 C   0  0  0  0  0  2  0  0  0  0  0  0
  -28.4020  -26.7610   20.1040 O   0  0  0  0  0  0  0  0  0  0  0  0
  -24.5760  -31.8920   23.2250 C   0  0  0  0  0  0  0  0  0  0  0  0
  -27.2200  -27.4600   20.1600 C   0  0  0  0  0  0  0  0  0  0  0  0
  -23.3650  -30.4900   21.5850 C   0  0  0  0  0  3  0  0  0  0  0  0
  -24.8190  -28.9470   20.1660 C   0  0  0  0  0  0  0  0  0  0  0  0
  -25.8870  -30.8570   21.3770 C   0  0  0  0  0  2  0  0  0  0  0  0
  -25.9760  -29.4810   20.7500 C   0  0  0  0  0  0  0  0  0  0  0  0
  -27.1810  -28.7460   20.7420 C   0  0  0  0  0  3  0  0  0  0  0  0
  -26.0510  -26.9290   19.5810 C   0  0  0  0  0  3  0  0  0  0  0  0
  -24.8500  -27.6680   19.5810 C   0  0  0  0  0  3  0  0  0  0  0  0
  -23.5720  -29.8010   20.2090 C   0  0  0  0  0  2  0  0  0  0  0  0
  -24.6270  -31.0940   22.1220 N   0  0  0  0  0  0  0  0  0  0  0  0
  -23.4960  -32.1640   23.7710 O   0  0  0  0  0  0  0  0  0  0  0  0
  -22.7180  -29.4730   22.5490 C   0  0  0  0  0  0  0  0  0  0  0  0
  -21.3940  -29.2940   22.4280 N   0  0  0  0  0  0  0  0  0  0  0  0
  -23.4040  -28.8440   23.3590 O   0  0  0  0  0  0  0  0  0  0  0  0
  -20.9020  -29.8500   21.7410 H   0  0  0  0  0  0  0  0  0  0  0  0
  -18.0170  -28.1140   22.9370 C   0  0  0  0  0  0  0  0  0  0  0  0
  -20.5770  -28.3600   23.2010 C   0  0  0  0  0  3  0  0  0  0  0  0
  -20.6710  -26.9300   22.6220 C   0  0  0  0  0  2  0  0  0  0  0  0
  -19.5640  -26.6130   21.6120 C   0  0  0  0  0  2  0  0  0  0  0  0
  -18.1840  -26.7640   22.2590 C   0  0  0  0  0  2  0  0  0  0  0  0
  -19.1410  -28.8700   23.3650 C   0  0  0  0  0  0  0  0  0  0  0  0
  -18.9310  -30.1340   23.9580 C   0  0  0  0  0  3  0  0  0  0  0  0
  -17.6300  -30.6440   24.1260 C   0  0  0  0  0  3  0  0  0  0  0  0
  -16.5200  -29.8850   23.7150 C   0  0  0  0  0  3  0  0  0  0  0  0
  -16.7150  -28.6230   23.1270 C   0  0  0  0  0  3  0  0  0  0  0  0
  -25.8650  -32.5220   23.8400 C   0  0  0  0  0  3  0  0  0  0  0  0
  -25.5590  -33.9180   24.1770 N   0  0  0  0  0  0  0  0  0  0  0  0
  -25.8920  -34.9720   23.4200 C   0  0  0  0  0  0  0  0  0  0  0  0
  -26.5630  -34.8720   22.3880 O   0  0  0  0  0  0  0  0  0  0  0  0
  -24.9640  -34.0700   24.9770 H   0  0  0  0  0  0  0  0  0  0  0  0
  -24.1650  -36.7650   23.0670 C   0  0  0  0  0  1  0  0  0  0  0  0
  -25.4050  -36.3580   23.8790 C   0  0  0  0  0  3  0  0  0  0  0  0
  -27.5390  -37.2380   24.7150 C   0  0  0  0  0  1  0  0  0  0  0  0
  -26.4380  -37.4110   23.7710 N   0  0  0  0  0  0  0  0  0  0  0  0
  -26.0320  -38.3310   23.9240 H   0  0  0  0  0  0  0  0  0  0  0  0
  -26.3940  -31.7450   25.1080 C   0  0  1  0  0  0  0  0  0  0  0  0
  -25.3080  -31.4990   26.1810 C   0  0  0  0  0  1  0  0  0  0  0  0
  -26.9770  -30.3710   24.6980 C   0  0  0  0  0  1  0  0  0  0  0  0
  -27.5510  -32.5370   25.7660 C   0  0  0  0  0  1  0  0  0  0  0  0
  2  3  2  0
  2  4  1  0
  3  6  1  0
  4  7  1  0
  6 17  1  0
  6  5  1  0
  7  5  1  0
  7  1  1  0
  8  4  2  0
  9 17  1  0
 10 15  1  0
 11 12  1  0
 11 10  1  0
 13 12  1  0
 13 22  1  0
 13 14  1  0
 15  9  1  0
 15 14  1  0
 16  9  2  0
 17 18  1  0
 19 20  2  0
 20 39  1  0
 21 20  1  0
 21 24  1  0
 22 19  1  0
 22 23  1  0
 23 21  2  0
 24 25  1  0
 25 26  2  0
 27 30  1  0
 27 26  1  0
 28 27  2  0
 29 28  1  0
 29 24  2  0
 30 31  1  0
 31 32  1  0
 32 33  2  0
 34 33  1  0
 34 38  1  0
 35 34  2  0
 36 31  2  0
 36 35  1  0
 37 36  1  0
 39 40  1  0
 40 43  1  0
 40 42  1  0
 41 39  2  0
 44 45  1  0
 44 19  1  0
 46 44  1  0
 47  1  1  0
 47 48  1  0
 49 50  1  0
 49 48  1  0
 51 53  1  0
 51 50  1  0
 52 63  2  0
 53 58  1  0
 54 62  1  0
 54 64  1  0
 55 61  1  0
 55 57  1  0
 56 62  1  0
 57 56  1  0
 58 57  2  0
 59 53  2  0
 60 59  1  0
 60 55  2  0
 61 54  1  0
 62 52  1  0
 64 66  2  0
 65 64  1  0
 67 65  1  0
 68 77  2  0
 68 73  1  0
 69 65  1  0
 69 73  1  0
 70 69  1  0
 71 72  1  0
 71 70  1  0
 72 68  1  0
 73 74  2  0
 74 75  1  0
 76 75  2  0
 77 76  1  0
 78 52  1  0
 78 79  1  0
 78 88  1  0
 79 82  1  0
 80 84  1  0
 80 79  1  0
 81 80  2  0
 84 83  1  0
 86 84  1  0
 86 87  1  0
 86 85  1  0
 88 91  1  1
 88 89  1  0
 90 88  1  0
M  ISO  4   9 100  17 100  50 101  51 101
M  END
>  <TORSDO>  (76) 
F 21

>  <SCORE>  (76) 
-13.558

>  <name>  (76) 
76

>  <ligand_id>  (76) 
76

>  <original_smiles>  (76) 
[H]C1=C([H])C([H])(N([H])C(=O)N2C([H])([H])C([H])([H])C([H])([H])C([H])(n3nc(-c4c([H])c([H])c(Oc5c([H])c([H])c(F)c([H])c5F)c([H])c4[H])c(C(=O)N([H])[H])c3N([H])[H])C2([H])[H])C([H])([H])N(C([H])([H])C([H])([H])C([H])([H])C([H])([H])C([H])([H])Oc2c([H])c([H])c3c(c2[H])C([H])([H])N(C(=O)C([H])(N([H])C(=O)C([H])(N([H])C([H])([H])[H])C([H])([H])[H])C(C([H])([H])[H])(C([H])([H])[H])C([H])([H])[H])C([H])(C(=O)N([H])C2([H])c4c([H])c([H])c([H])c([H])c4C([H])([H])C([H])([H])C2([H])[H])C3([H])[H])C1=O

>  <smiles>  (76) 
[H]C1=C([H])C([H])(N([H])C(=O)N2C([H])([H])C([H])([H])C([H])([H])C([H])(n3nc(-c4c([H])c([H])c(Oc5c([H])c([H])c(F)c([H])c5F)c([H])c4[H])c(C(=O)N([H])[H])c3N([H])[H])C2([H])[H])C([H])([H])N(C([H])([H])C([H])([H])C([H])([H])C([H])([H])C([H])([H])Oc2c([H])c([H])c3c(c2[H])C([H])([H])N(C(=O)C([H])(N([H])C(=O)C([H])(N([H])C([H])([H])[H])C([H])([H])[H])C(C([H])([H])[H])(C([H])([H])[H])C([H])([H])[H])C([H])(C(=O)N([H])C2([H])c4c([H])c([H])c([H])c([H])c4C([H])([H])C([H])([H])C2([H])[H])C3([H])[H])C1=O

$$$$
77:0:0
     RDKit          3D

 94 99  0  0  1  0  0  0  0  0999 V2000
  -26.3410  -17.6510   18.8900 C   0  0  0  0  0  2  0  0  0  0  0  0
  -28.5840  -17.5750   17.8650 C   0  0  0  0  0  2  0  0  0  0  0  0
  -27.0590  -18.7790   19.7780 C   0  0  0  0  0  2  0  0  0  0  0  0
  -28.5250  -19.1690   17.8670 C   0  0  0  0  0  2  0  0  0  0  0  0
  -27.2070  -16.8310   17.8510 C   0  0  0  0  0  3  0  0  0  0  0  0
  -27.7360  -19.8510   18.9660 N   0  0  2  0  0  4  0  0  0  0  0  0
  -26.9850  -20.3110   18.4720 H   0  0  0  0  0  0  0  0  0  0  0  0
  -27.2880  -15.1940   17.7040 C   0  0  0  0  0  2  0  0  0  0  0  0
  -27.2490  -14.1420   18.5180 N   0  0  0  0  0  2  0  0  0  0  0  0
  -27.8760  -12.7380   18.1360 C   0  0  0  0  0  2  0  0  0  0  0  0
  -28.7750  -11.5910   19.0980 C   0  0  0  0  0  2  0  0  0  0  0  0
  -30.8960  -12.5880   21.2110 C   0  0  2  0  0  0  0  0  0  0  0  0
  -32.0210  -11.7980   20.3740 C   0  0  0  0  0  1  0  0  0  0  0  0
  -31.3480  -12.8540   18.9280 C   0  0  0  0  0  1  0  0  0  0  0  0
  -29.9440  -13.9410   19.3710 C   0  0  0  0  0  2  0  0  0  0  0  0
  -28.8780  -13.8040   20.9610 C   0  0  0  0  0  2  0  0  0  0  0  0
  -29.7430  -12.8450   22.3110 C   0  0  0  0  0  1  0  0  0  0  0  0
  -31.1470  -11.8970   21.9030 N   0  0  0  0  0  1  0  0  0  0  0  0
  -31.6150  -13.7770   21.3310 O   0  0  0  0  0  1  0  0  0  0  0  0
  -29.7750  -11.6220   20.3900 N   0  0  0  0  0  2  0  0  0  0  0  0
  -29.6980  -10.7520   20.8940 H   0  0  0  0  0  0  0  0  0  0  0  0
  -26.3240  -14.1600   21.1540 C   0  0  0  0  0  0  0  0  0  0  0  0
  -25.1730  -13.4360   21.2340 C   0  0  0  0  0  0  0  0  0  0  0  0
  -25.5480  -12.0650   21.1630 C   0  0  0  0  0  0  0  0  0  0  0  0
  -27.4000  -13.3180   21.0190 N   0  0  0  0  0  0  0  0  0  0  0  0
  -26.8980  -12.0100   21.1290 N   0  0  0  0  0  0  0  0  0  0  0  0
  -24.6600  -10.8600   21.1410 C   0  0  0  0  0  0  0  0  0  0  0  0
  -24.8030   -9.7870   22.0540 C   0  0  0  0  0  3  0  0  0  0  0  0
  -23.8990   -8.6960   22.0520 C   0  0  0  0  0  3  0  0  0  0  0  0
  -22.8200   -8.6540   21.1350 C   0  0  0  0  0  0  0  0  0  0  0  0
  -22.6840   -9.7120   20.2150 C   0  0  0  0  0  3  0  0  0  0  0  0
  -23.5900  -10.7930   20.2160 C   0  0  0  0  0  3  0  0  0  0  0  0
  -21.9170   -7.6170   21.0380 O   0  0  0  0  0  0  0  0  0  0  0  0
  -21.5900   -6.8290   22.1140 C   0  0  0  0  0  0  0  0  0  0  0  0
  -21.0350   -7.3720   23.2940 C   0  0  0  0  0  3  0  0  0  0  0  0
  -20.6490   -6.5240   24.3520 C   0  0  0  0  0  3  0  0  0  0  0  0
  -20.8080   -5.1310   24.2340 C   0  0  0  0  0  0  0  0  0  0  0  0
  -21.3530   -4.5840   23.0590 C   0  0  0  0  0  3  0  0  0  0  0  0
  -21.7380   -5.4290   22.0020 C   0  0  0  0  0  0  0  0  0  0  0  0
  -22.2410   -4.8900   20.8650 F   0  0  0  0  0  0  0  0  0  0  0  0
  -20.4350   -4.3150   25.2490 F   0  0  0  0  0  0  0  0  0  0  0  0
  -23.7970  -14.0230   21.3340 C   0  0  0  0  0  0  0  0  0  0  0  0
  -22.9000  -13.3760   22.0660 N   0  0  0  0  0  0  0  0  0  0  0  0
  -23.5370  -15.1100   20.8180 O   0  0  0  0  0  0  0  0  0  0  0  0
  -23.1220  -12.4940   22.5040 H   0  0  0  0  0  0  0  0  0  0  0  0
  -21.9760  -13.7650   22.1870 H   0  0  0  0  0  0  0  0  0  0  0  0
  -26.5600  -15.5090   21.2310 N   0  0  0  0  0  0  0  0  0  0  0  0
  -25.7570  -16.1000   21.0530 H   0  0  0  0  0  0  0  0  0  0  0  0
  -27.3880  -15.8150   20.7410 H   0  0  0  0  0  0  0  0  0  0  0  0
  -28.4920  -21.0240   19.6590 C   0  0  0  0  0  2  0  0  0  0  0  0
  -27.7580  -22.2910   20.3760 C   0  0  0  0  0  2  0  0  0  0  0  0
  -28.5070  -23.7480   20.4640 C   0  0  0  0  0  3  0  0  0  0  0  0
  -28.1580  -24.8270   21.6340 C   0  0  0  0  0  3  0  0  0  0  0  0
  -28.5960  -26.2830   21.6670 O   0  0  0  0  0  0  0  0  0  0  0  0
  -24.9830  -32.2900   23.8470 C   0  0  0  0  0  0  0  0  0  0  0  0
  -27.6010  -27.2670   21.5040 C   0  0  0  0  0  0  0  0  0  0  0  0
  -23.8720  -30.7480   22.2850 C   0  0  0  0  0  3  0  0  0  0  0  0
  -25.3630  -29.0060   21.1630 C   0  0  0  0  0  0  0  0  0  0  0  0
  -26.4390  -30.9390   22.3050 C   0  0  0  0  0  2  0  0  0  0  0  0
  -26.5070  -29.4920   21.8100 C   0  0  0  0  0  0  0  0  0  0  0  0
  -27.6440  -28.6280   21.9750 C   0  0  0  0  0  3  0  0  0  0  0  0
  -26.4450  -26.8640   20.8180 C   0  0  0  0  0  3  0  0  0  0  0  0
  -25.3340  -27.7010   20.6640 C   0  0  0  0  0  3  0  0  0  0  0  0
  -24.1730  -29.9270   21.0090 C   0  0  0  0  0  2  0  0  0  0  0  0
  -25.1150  -31.3510   22.8660 N   0  0  0  0  0  0  0  0  0  0  0  0
  -23.8660  -32.6600   24.2420 O   0  0  0  0  0  0  0  0  0  0  0  0
  -23.0960  -29.8590   23.2880 C   0  0  0  0  0  0  0  0  0  0  0  0
  -21.8210  -29.5670   22.9800 N   0  0  0  0  0  0  0  0  0  0  0  0
  -23.6470  -29.4320   24.3060 O   0  0  0  0  0  0  0  0  0  0  0  0
  -21.4360  -29.9650   22.1340 H   0  0  0  0  0  0  0  0  0  0  0  0
  -18.5050  -28.1180   23.0550 C   0  0  0  0  0  0  0  0  0  0  0  0
  -20.9190  -28.7230   23.7640 C   0  0  0  0  0  3  0  0  0  0  0  0
  -21.2420  -27.2240   23.5620 C   0  0  0  0  0  2  0  0  0  0  0  0
  -20.4140  -26.5720   22.4490 C   0  0  0  0  0  2  0  0  0  0  0  0
  -18.9180  -26.6880   22.7540 C   0  0  0  0  0  2  0  0  0  0  0  0
  -19.4470  -29.0780   23.5140 C   0  0  0  0  0  0  0  0  0  0  0  0
  -19.0170  -30.4020   23.7460 C   0  0  0  0  0  3  0  0  0  0  0  0
  -17.6750  -30.7720   23.5310 C   0  0  0  0  0  3  0  0  0  0  0  0
  -16.7450  -29.8150   23.0890 C   0  0  0  0  0  3  0  0  0  0  0  0
  -17.1590  -28.4910   22.8570 C   0  0  0  0  0  3  0  0  0  0  0  0
  -26.2260  -32.9630   24.5020 C   0  0  0  0  0  3  0  0  0  0  0  0
  -25.9730  -34.4120   24.5490 N   0  0  0  0  0  0  0  0  0  0  0  0
  -26.4670  -35.3020   23.6770 C   0  0  0  0  0  0  0  0  0  0  0  0
  -27.2510  -34.9900   22.7770 O   0  0  0  0  0  0  0  0  0  0  0  0
  -25.2940  -34.7280   25.2250 H   0  0  0  0  0  0  0  0  0  0  0  0
  -24.9290  -37.0890   22.7990 C   0  0  0  0  0  1  0  0  0  0  0  0
  -26.0230  -36.7700   23.8290 C   0  0  0  0  0  3  0  0  0  0  0  0
  -28.0910  -37.6810   24.7900 C   0  0  0  0  0  1  0  0  0  0  0  0
  -27.1350  -37.7380   23.6900 N   0  0  0  0  0  0  0  0  0  0  0  0
  -26.7770  -38.6870   23.6260 H   0  0  0  0  0  0  0  0  0  0  0  0
  -26.5390  -32.4100   25.9460 C   0  0  1  0  0  0  0  0  0  0  0  0
  -25.3090  -32.3860   26.8840 C   0  0  0  0  0  1  0  0  0  0  0  0
  -27.1040  -30.9740   25.8730 C   0  0  0  0  0  1  0  0  0  0  0  0
  -27.6320  -33.2780   26.6130 C   0  0  0  0  0  1  0  0  0  0  0  0
  1  3  1  0
  2  4  1  0
  4  6  1  0
  5  8  1  0
  5  2  1  0
  5  1  1  0
  6 50  1  0
  6  3  1  0
  6  7  1  6
  8  9  1  0
 10  9  1  0
 10 11  1  0
 11 20  1  0
 12 19  1  0
 12 18  1  0
 12 17  1  6
 13 12  1  0
 14 15  1  0
 15 16  1  0
 16 25  1  0
 20 21  1  0
 22 47  1  0
 22 23  2  0
 23 42  1  0
 24 23  1  0
 25 26  1  0
 25 22  1  0
 26 24  2  0
 27 24  1  0
 27 28  1  0
 29 28  2  0
 30 29  1  0
 31 32  1  0
 31 30  2  0
 32 27  2  0
 33 30  1  0
 33 34  1  0
 34 35  1  0
 35 36  2  0
 37 36  1  0
 37 41  1  0
 38 37  2  0
 39 34  2  0
 39 38  1  0
 40 39  1  0
 42 43  1  0
 43 46  1  0
 43 45  1  0
 44 42  2  0
 48 47  1  0
 49 47  1  0
 50 51  1  0
 51 52  1  0
 52 53  2  0
 53 54  1  0
 55 66  2  0
 56 54  1  0
 56 61  1  0
 57 65  1  0
 57 67  1  0
 58 60  1  0
 59 65  1  0
 60 61  2  0
 60 59  1  0
 62 56  2  0
 63 62  1  0
 63 58  2  0
 64 58  1  0
 64 57  1  0
 65 55  1  0
 67 69  2  0
 68 67  1  0
 70 68  1  0
 71 76  1  0
 72 68  1  0
 73 72  1  0
 74 75  1  0
 74 73  1  0
 75 71  1  0
 76 77  2  0
 76 72  1  0
 78 77  1  0
 79 78  2  0
 80 71  2  0
 80 79  1  0
 81 55  1  0
 81 82  1  0
 81 91  1  0
 82 85  1  0
 83 87  1  0
 83 82  1  0
 84 83  2  0
 87 86  1  0
 89 87  1  0
 89 88  1  0
 90 89  1  0
 91 94  1  1
 91 92  1  0
 93 91  1  0
M  ISO  4  12 100  20 100  53 101  54 101
M  END
>  <TORSDO>  (77) 
F 23

>  <SCORE>  (77) 
-1.672

>  <name>  (77) 
77

>  <ligand_id>  (77) 
77

>  <original_smiles>  (77) 
[H]C(=NC([H])([H])C([H])([H])N([H])C(=O)N1C([H])([H])C([H])([H])C([H])([H])C([H])(n2nc(-c3c([H])c([H])c(Oc4c([H])c([H])c(F)c([H])c4F)c([H])c3[H])c(C(=O)N([H])[H])c2N([H])[H])C1([H])[H])C1([H])C([H])([H])C([H])([H])[N+]([H])(C([H])([H])C([H])([H])C([H])([H])C([H])([H])Oc2c([H])c([H])c3c(c2[H])C([H])([H])N(C(=O)C([H])(N([H])C(=O)C([H])(N([H])C([H])([H])[H])C([H])([H])[H])C(C([H])([H])[H])(C([H])([H])[H])C([H])([H])[H])C([H])(C(=O)N([H])C2([H])c4c([H])c([H])c([H])c([H])c4C([H])([H])C([H])([H])C2([H])[H])C3([H])[H])C([H])([H])C1([H])[H]

>  <smiles>  (77) 
[H]C(=NC([H])([H])C([H])([H])N([H])C(=O)N1C([H])([H])C([H])([H])C([H])([H])C([H])(n2nc(-c3c([H])c([H])c(Oc4c([H])c([H])c(F)c([H])c4F)c([H])c3[H])c(C(=O)N([H])[H])c2N([H])[H])C1([H])[H])C1([H])C([H])([H])C([H])([H])[N+]([H])(C([H])([H])C([H])([H])C([H])([H])C([H])([H])Oc2c([H])c([H])c3c(c2[H])C([H])([H])N(C(=O)C([H])(N([H])C(=O)C([H])(N([H])C([H])([H])[H])C([H])([H])[H])C(C([H])([H])[H])(C([H])([H])[H])C([H])([H])[H])C([H])(C(=O)N([H])C2([H])c4c([H])c([H])c([H])c([H])c4C([H])([H])C([H])([H])C2([H])[H])C3([H])[H])C([H])([H])C1([H])[H]

$$$$
78:0:0
     RDKit          3D

 93101  0  0  1  0  0  0  0  0999 V2000
  -29.1260  -20.2500   18.9300 C   0  0  0  0  0  2  0  0  0  0  0  0
  -27.4210  -20.0390   20.6110 C   0  0  0  0  0  2  0  0  0  0  0  0
  -27.7210  -20.7330   19.2680 C   0  0  0  0  0  3  0  0  0  0  0  0
  -29.1450  -18.8040   19.4600 C   0  0  0  0  0  3  0  0  0  0  0  0
  -28.1830  -18.7730   20.5850 N   0  0  0  0  0  4  0  0  0  0  0  0
  -27.5530  -17.9930   20.4940 H   0  0  0  0  0  0  0  0  0  0  0  0
  -28.6640  -18.6750   21.4650 H   0  0  0  0  0  0  0  0  0  0  0  0
  -31.7430  -18.9490   19.2190 C   0  0  0  0  0  1  0  0  0  0  0  0
  -30.5320  -18.2400   19.8830 C   0  0  0  0  0  3  0  0  0  0  0  0
  -30.4330  -15.6850   20.4120 C   0  0  0  0  0  2  0  0  0  0  0  0
  -30.6810  -16.7520   19.6080 C   0  0  0  0  0  2  0  0  0  0  0  0
  -30.9930  -14.4260   19.9440 C   0  0  0  0  0  0  0  0  0  0  0  0
  -30.4720  -12.2710   18.9190 C   0  0  0  0  0  2  0  0  0  0  0  0
  -29.4960  -12.5210   17.7540 C   0  0  0  0  0  2  0  0  0  0  0  0
  -28.0430  -12.4440   18.2590 C   0  0  0  0  0  2  0  0  0  0  0  0
  -27.8040  -13.3020   19.5340 C   0  0  0  0  0  3  0  0  0  0  0  0
  -28.9190  -13.0970   20.5850 C   0  0  0  0  0  2  0  0  0  0  0  0
  -30.2180  -13.3050   19.9330 N   0  0  0  0  0  0  0  0  0  0  0  0
  -32.1170  -14.4370   19.4390 O   0  0  0  0  0  0  0  0  0  0  0  0
  -25.4840  -13.9520   20.4250 C   0  0  0  0  0  0  0  0  0  0  0  0
  -24.4210  -13.2000   20.8420 C   0  0  0  0  0  0  0  0  0  0  0  0
  -24.8340  -11.8360   20.7450 C   0  0  0  0  0  0  0  0  0  0  0  0
  -26.4800  -13.0480   20.0980 N   0  0  0  0  0  0  0  0  0  0  0  0
  -26.0990  -11.7680   20.3470 N   0  0  0  0  0  0  0  0  0  0  0  0
  -24.0820  -10.5910   20.9490 C   0  0  0  0  0  0  0  0  0  0  0  0
  -24.5130   -9.6090   21.8680 C   0  0  0  0  0  3  0  0  0  0  0  0
  -23.7630   -8.4280   22.0580 C   0  0  0  0  0  3  0  0  0  0  0  0
  -22.5680   -8.2220   21.3280 C   0  0  0  0  0  0  0  0  0  0  0  0
  -22.1550   -9.1920   20.3980 C   0  0  0  0  0  3  0  0  0  0  0  0
  -22.9060  -10.3630   20.2070 C   0  0  0  0  0  3  0  0  0  0  0  0
  -21.7860   -7.0960   21.4310 O   0  0  0  0  0  0  0  0  0  0  0  0
  -21.7150   -6.3720   22.5930 C   0  0  0  0  0  0  0  0  0  0  0  0
  -21.2430   -6.9410   23.7960 C   0  0  0  0  0  3  0  0  0  0  0  0
  -21.1270   -6.1460   24.9540 C   0  0  0  0  0  3  0  0  0  0  0  0
  -21.4690   -4.7810   24.9070 C   0  0  0  0  0  0  0  0  0  0  0  0
  -21.9330   -4.2110   23.7090 C   0  0  0  0  0  3  0  0  0  0  0  0
  -22.0540   -5.0050   22.5540 C   0  0  0  0  0  0  0  0  0  0  0  0
  -22.4810   -4.4480   21.3950 F   0  0  0  0  0  0  0  0  0  0  0  0
  -21.3480   -4.0120   26.0140 F   0  0  0  0  0  0  0  0  0  0  0  0
  -23.0590  -13.7120   21.2170 C   0  0  0  0  0  0  0  0  0  0  0  0
  -22.3660  -13.0120   22.1090 N   0  0  0  0  0  0  0  0  0  0  0  0
  -22.6190  -14.7620   20.7500 O   0  0  0  0  0  0  0  0  0  0  0  0
  -22.7320  -12.1590   22.5050 H   0  0  0  0  0  0  0  0  0  0  0  0
  -21.4530  -13.3310   22.3990 H   0  0  0  0  0  0  0  0  0  0  0  0
  -25.6860  -15.3200   20.2740 N   0  0  0  0  0  0  0  0  0  0  0  0
  -24.9450  -15.9980   20.4250 H   0  0  0  0  0  0  0  0  0  0  0  0
  -26.5120  -15.7080   19.8400 H   0  0  0  0  0  0  0  0  0  0  0  0
  -27.6330  -22.1950   19.2140 N   0  0  0  0  0  0  0  0  0  0  0  0
  -26.6570  -22.4680   19.1150 H   0  0  0  0  0  0  0  0  0  0  0  0
  -28.2320  -22.9620   20.3100 C   0  0  0  0  0  2  0  0  0  0  0  0
  -28.5470  -24.3650   19.7610 C   0  0  0  0  0  2  0  0  0  0  0  0
  -28.6270  -25.4810   20.8220 C   0  0  0  0  0  2  0  0  0  0  0  0
  -28.6750  -26.7840   20.2270 O   0  0  0  0  0  0  0  0  0  0  0  0
  -24.5750  -31.7450   23.2420 C   0  0  0  0  0  0  0  0  0  0  0  0
  -27.4810  -27.4710   20.1890 C   0  0  0  0  0  0  0  0  0  0  0  0
  -23.4890  -30.3610   21.5050 C   0  0  0  0  0  3  0  0  0  0  0  0
  -25.0490  -28.9050   20.1110 C   0  0  0  0  0  0  0  0  0  0  0  0
  -26.0100  -30.7930   21.4400 C   0  0  0  0  0  2  0  0  0  0  0  0
  -26.1620  -29.4440   20.7740 C   0  0  0  0  0  0  0  0  0  0  0  0
  -27.3800  -28.7300   20.8130 C   0  0  0  0  0  3  0  0  0  0  0  0
  -26.3490  -26.9440   19.5190 C   0  0  0  0  0  3  0  0  0  0  0  0
  -25.1380  -27.6540   19.4820 C   0  0  0  0  0  3  0  0  0  0  0  0
  -23.7840  -29.7300   20.1180 C   0  0  0  0  0  2  0  0  0  0  0  0
  -24.7070  -30.9820   22.1220 N   0  0  0  0  0  0  0  0  0  0  0  0
  -23.4610  -31.9690   23.7380 O   0  0  0  0  0  0  0  0  0  0  0  0
  -22.8230  -29.2940   22.4060 C   0  0  0  0  0  0  0  0  0  0  0  0
  -21.5030  -29.1060   22.2410 N   0  0  0  0  0  0  0  0  0  0  0  0
  -23.4940  -28.6380   23.2090 O   0  0  0  0  0  0  0  0  0  0  0  0
  -21.0140  -29.6940   21.5790 H   0  0  0  0  0  0  0  0  0  0  0  0
  -18.1250  -27.8960   22.6460 C   0  0  0  0  0  0  0  0  0  0  0  0
  -20.6830  -28.1170   22.9390 C   0  0  0  0  0  3  0  0  0  0  0  0
  -20.7780  -26.7350   22.2530 C   0  0  0  0  0  2  0  0  0  0  0  0
  -19.6750  -26.5020   21.2200 C   0  0  0  0  0  2  0  0  0  0  0  0
  -18.2970  -26.5900   21.8880 C   0  0  0  0  0  2  0  0  0  0  0  0
  -19.2460  -28.6210   23.1300 C   0  0  0  0  0  0  0  0  0  0  0  0
  -19.0350  -29.8510   23.7930 C   0  0  0  0  0  3  0  0  0  0  0  0
  -17.7350  -30.3530   23.9750 C   0  0  0  0  0  3  0  0  0  0  0  0
  -16.6250  -29.6240   23.5080 C   0  0  0  0  0  3  0  0  0  0  0  0
  -16.8220  -28.3990   22.8490 C   0  0  0  0  0  3  0  0  0  0  0  0
  -25.8130  -32.3950   23.9360 C   0  0  0  0  0  3  0  0  0  0  0  0
  -25.4750  -33.7970   24.2110 N   0  0  0  0  0  0  0  0  0  0  0  0
  -25.8550  -34.8340   23.4550 C   0  0  0  0  0  0  0  0  0  0  0  0
  -26.5970  -34.7100   22.4740 O   0  0  0  0  0  0  0  0  0  0  0  0
  -24.8210  -33.9670   24.9640 H   0  0  0  0  0  0  0  0  0  0  0  0
  -24.1530  -36.6150   22.9410 C   0  0  0  0  0  1  0  0  0  0  0  0
  -25.3340  -36.2300   23.8460 C   0  0  0  0  0  3  0  0  0  0  0  0
  -27.3940  -37.1500   24.8160 C   0  0  0  0  0  1  0  0  0  0  0  0
  -26.3700  -37.2840   23.7820 N   0  0  0  0  0  0  0  0  0  0  0  0
  -25.9500  -38.2040   23.8720 H   0  0  0  0  0  0  0  0  0  0  0  0
  -26.2440  -31.6480   25.2560 C   0  0  1  0  0  0  0  0  0  0  0  0
  -25.0840  -31.4170   26.2520 C   0  0  0  0  0  1  0  0  0  0  0  0
  -26.8620  -30.2690   24.9240 C   0  0  0  0  0  1  0  0  0  0  0  0
  -27.3370  -32.4650   25.9830 C   0  0  0  0  0  1  0  0  0  0  0  0
  1  3  1  0
  1  4  1  0
  3 48  1  0
  3  2  1  0
  4  9  1  0
  4  5  1  0
  5  2  1  0
  5  7  1  0
  6  5  1  0
  9  8  1  0
 11  9  1  0
 11 10  1  0
 12 10  1  0
 13 18  1  0
 14 15  1  0
 14 13  1  0
 16 15  1  0
 16 23  1  0
 16 17  1  0
 18 12  1  0
 18 17  1  0
 19 12  2  0
 20 21  2  0
 21 40  1  0
 22 21  1  0
 22 25  1  0
 23 24  1  0
 23 20  1  0
 24 22  2  0
 25 26  1  0
 26 27  2  0
 28 31  1  0
 28 27  1  0
 29 28  2  0
 30 29  1  0
 30 25  2  0
 31 32  1  0
 32 33  1  0
 33 34  2  0
 35 34  1  0
 35 39  1  0
 36 35  2  0
 37 32  2  0
 37 36  1  0
 38 37  1  0
 40 41  1  0
 41 44  1  0
 41 43  1  0
 42 40  2  0
 45 20  1  0
 45 46  1  0
 47 45  1  0
 48 50  1  0
 49 48  1  0
 51 50  1  0
 51 52  1  0
 53 52  1  0
 54 65  2  0
 55 53  1  0
 55 60  1  0
 56 64  1  0
 56 66  1  0
 57 63  1  0
 57 59  1  0
 58 64  1  0
 59 60  2  0
 59 58  1  0
 61 55  2  0
 62 61  1  0
 62 57  2  0
 63 56  1  0
 64 54  1  0
 66 68  2  0
 67 66  1  0
 69 67  1  0
 70 79  2  0
 70 75  1  0
 71 67  1  0
 71 75  1  0
 72 71  1  0
 73 74  1  0
 73 72  1  0
 74 70  1  0
 75 76  2  0
 76 77  1  0
 78 77  2  0
 79 78  1  0
 80 54  1  0
 80 81  1  0
 80 90  1  0
 81 84  1  0
 82 86  1  0
 82 81  1  0
 83 82  2  0
 86 85  1  0
 88 86  1  0
 88 89  1  0
 88 87  1  0
 90 93  1  1
 90 91  1  0
 92 90  1  0
M  ISO  4  10 100  12 100  52 101  53 101
M  END
>  <TORSDO>  (78) 
F 22

>  <SCORE>  (78) 
-12.445

>  <name>  (78) 
78

>  <ligand_id>  (78) 
78

>  <original_smiles>  (78) 
[H]C(C(=O)N1C([H])([H])C([H])([H])C([H])([H])C([H])(n2nc(-c3c([H])c([H])c(Oc4c([H])c([H])c(F)c([H])c4F)c([H])c3[H])c(C(=O)N([H])[H])c2N([H])[H])C1([H])[H])=C([H])C([H])(C([H])([H])[H])C1([H])C([H])([H])C([H])(N([H])C([H])([H])C([H])([H])C([H])([H])Oc2c([H])c([H])c3c(c2[H])C([H])([H])N(C(=O)C([H])(N([H])C(=O)C([H])(N([H])C([H])([H])[H])C([H])([H])[H])C(C([H])([H])[H])(C([H])([H])[H])C([H])([H])[H])C([H])(C(=O)N([H])C2([H])c4c([H])c([H])c([H])c([H])c4C([H])([H])C([H])([H])C2([H])[H])C3([H])[H])C([H])([H])[N+]1([H])[H]

>  <smiles>  (78) 
[H]C(C(=O)N1C([H])([H])C([H])([H])C([H])([H])C([H])(n2nc(-c3c([H])c([H])c(Oc4c([H])c([H])c(F)c([H])c4F)c([H])c3[H])c(C(=O)N([H])[H])c2N([H])[H])C1([H])[H])=C([H])C([H])(C([H])([H])[H])C1([H])C([H])([H])C([H])(N([H])C([H])([H])C([H])([H])C([H])([H])Oc2c([H])c([H])c3c(c2[H])C([H])([H])N(C(=O)C([H])(N([H])C(=O)C([H])(N([H])C([H])([H])[H])C([H])([H])[H])C(C([H])([H])[H])(C([H])([H])[H])C([H])([H])[H])C([H])(C(=O)N([H])C2([H])c4c([H])c([H])c([H])c([H])c4C([H])([H])C([H])([H])C2([H])[H])C3([H])[H])C([H])([H])[N+]1([H])[H]

$$$$
79:0:0
     RDKit          3D

100108  0  0  1  0  0  0  0  0999 V2000
  -29.6990  -19.5610   23.5860 C   0  0  0  0  0  2  0  0  0  0  0  0
  -29.1960  -20.5770   22.5320 C   0  0  0  0  0  2  0  0  0  0  0  0
  -30.5060  -18.0710   21.6440 C   0  0  0  0  0  3  0  0  0  0  0  0
  -30.8330  -18.6570   23.0680 C   0  0  0  0  0  3  0  0  0  0  0  0
  -29.0390  -18.4890   21.1620 C   0  0  0  0  0  3  0  0  0  0  0  0
  -29.0950  -20.0580   21.1220 N   0  0  1  0  0  4  0  0  0  0  0  0
  -30.0110  -20.2120   20.7270 H   0  0  0  0  0  0  0  0  0  0  0  0
  -32.1400  -19.3630   23.1440 N   0  0  0  0  0  4  0  0  0  0  0  0
  -32.2040  -20.1580   22.5320 H   0  0  0  0  0  0  0  0  0  0  0  0
  -32.9240  -18.7690   22.9460 H   0  0  0  0  0  0  0  0  0  0  0  0
  -32.2880  -19.6990   24.0810 H   0  0  0  0  0  0  0  0  0  0  0  0
  -30.8520  -16.5510   21.5380 C   0  0  0  0  0  2  0  0  0  0  0  0
  -32.2130  -16.1290   21.9400 N   0  0  0  0  0  4  0  0  0  0  0  0
  -32.3490  -16.1250   22.9360 H   0  0  0  0  0  0  0  0  0  0  0  0
  -32.9420  -16.6530   21.4870 H   0  0  0  0  0  0  0  0  0  0  0  0
  -32.3430  -15.1750   21.6450 H   0  0  0  0  0  0  0  0  0  0  0  0
  -28.4800  -17.5290   19.9860 C   0  0  0  0  0  2  0  0  0  0  0  0
  -29.3640  -15.0070   19.7720 C   0  0  0  0  0  0  0  0  0  0  0  0
  -29.3720  -12.7080   18.8060 C   0  0  0  0  0  2  0  0  0  0  0  0
  -28.2720  -12.6190   17.7240 C   0  0  0  0  0  2  0  0  0  0  0  0
  -26.9200  -12.2360   18.3560 C   0  0  0  0  0  2  0  0  0  0  0  0
  -26.5890  -13.0790   19.6170 C   0  0  0  0  0  3  0  0  0  0  0  0
  -27.7970  -13.1710   20.5770 C   0  0  0  0  0  2  0  0  0  0  0  0
  -28.9320  -13.7030   19.8110 N   0  0  0  0  0  0  0  0  0  0  0  0
  -30.4180  -15.2930   19.1980 O   0  0  0  0  0  0  0  0  0  0  0  0
  -28.5210  -16.0030   20.2350 N   0  0  0  0  0  0  0  0  0  0  0  0
  -27.6950  -15.6330   20.6810 H   0  0  0  0  0  0  0  0  0  0  0  0
  -24.3050  -13.3190   20.7610 C   0  0  0  0  0  0  0  0  0  0  0  0
  -23.4120  -12.3930   21.2290 C   0  0  0  0  0  0  0  0  0  0  0  0
  -24.0130  -11.1170   21.0130 C   0  0  0  0  0  0  0  0  0  0  0  0
  -25.3870  -12.5940   20.2890 N   0  0  0  0  0  0  0  0  0  0  0  0
  -25.2290  -11.2610   20.5010 N   0  0  0  0  0  0  0  0  0  0  0  0
  -23.4760   -9.7630   21.2130 C   0  0  0  0  0  0  0  0  0  0  0  0
  -24.0640   -8.8650   22.1330 C   0  0  0  0  0  3  0  0  0  0  0  0
  -23.5180   -7.5760   22.3230 C   0  0  0  0  0  3  0  0  0  0  0  0
  -22.3750   -7.1750   21.5910 C   0  0  0  0  0  0  0  0  0  0  0  0
  -21.8080   -8.0660   20.6640 C   0  0  0  0  0  3  0  0  0  0  0  0
  -22.3530   -9.3460   20.4720 C   0  0  0  0  0  3  0  0  0  0  0  0
  -21.7920   -5.9350   21.6880 O   0  0  0  0  0  0  0  0  0  0  0  0
  -21.7580   -5.2460   22.8760 C   0  0  0  0  0  0  0  0  0  0  0  0
  -21.1280   -5.7730   24.0250 C   0  0  0  0  0  3  0  0  0  0  0  0
  -21.0540   -5.0030   25.2030 C   0  0  0  0  0  3  0  0  0  0  0  0
  -21.6010   -3.7060   25.2330 C   0  0  0  0  0  0  0  0  0  0  0  0
  -22.2250   -3.1780   24.0900 C   0  0  0  0  0  3  0  0  0  0  0  0
  -22.3010   -3.9460   22.9130 C   0  0  0  0  0  0  0  0  0  0  0  0
  -22.8830   -3.4230   21.8080 F   0  0  0  0  0  0  0  0  0  0  0  0
  -21.5240   -2.9650   26.3630 F   0  0  0  0  0  0  0  0  0  0  0  0
  -22.0330  -12.6730   21.7570 C   0  0  0  0  0  0  0  0  0  0  0  0
  -21.5510  -11.8460   22.6780 N   0  0  0  0  0  0  0  0  0  0  0  0
  -21.3960  -13.6580   21.3900 O   0  0  0  0  0  0  0  0  0  0  0  0
  -22.0840  -11.0500   22.9960 H   0  0  0  0  0  0  0  0  0  0  0  0
  -20.6330  -12.0100   23.0710 H   0  0  0  0  0  0  0  0  0  0  0  0
  -24.2760  -14.7070   20.6690 N   0  0  0  0  0  0  0  0  0  0  0  0
  -23.4590  -15.2450   20.9440 H   0  0  0  0  0  0  0  0  0  0  0  0
  -24.9770  -15.2640   20.2010 H   0  0  0  0  0  0  0  0  0  0  0  0
  -28.3040  -21.0600   20.2430 C   0  0  0  0  0  3  0  0  0  0  0  0
  -28.5200  -22.6620   20.5870 C   0  0  0  0  0  3  0  0  0  0  0  0
  -28.1910  -23.9340   19.6280 C   0  0  0  0  0  3  0  0  0  0  0  0
  -27.9320  -25.3930   20.3060 C   0  0  0  0  0  3  0  0  0  0  0  0
  -27.9610  -26.7080   19.5680 O   0  0  0  0  0  0  0  0  0  0  0  0
  -24.6730  -32.0040   23.3110 C   0  0  0  0  0  0  0  0  0  0  0  0
  -26.8800  -27.6020   19.7260 C   0  0  0  0  0  0  0  0  0  0  0  0
  -23.2840  -30.7080   21.7360 C   0  0  0  0  0  3  0  0  0  0  0  0
  -24.5530  -29.2460   20.0600 C   0  0  0  0  0  0  0  0  0  0  0  0
  -25.7910  -31.0300   21.2880 C   0  0  0  0  0  2  0  0  0  0  0  0
  -25.7860  -29.6900   20.5510 C   0  0  0  0  0  0  0  0  0  0  0  0
  -26.9560  -28.8840   20.3680 C   0  0  0  0  0  3  0  0  0  0  0  0
  -25.6250  -27.2240   19.2090 C   0  0  0  0  0  3  0  0  0  0  0  0
  -24.4740  -28.0220   19.3740 C   0  0  0  0  0  3  0  0  0  0  0  0
  -23.3360  -30.1200   20.3020 C   0  0  0  0  0  2  0  0  0  0  0  0
  -24.6090  -31.2630   22.1650 N   0  0  0  0  0  0  0  0  0  0  0  0
  -23.6590  -32.2470   23.9820 O   0  0  0  0  0  0  0  0  0  0  0  0
  -22.7230  -29.6360   22.7020 C   0  0  0  0  0  0  0  0  0  0  0  0
  -21.4330  -29.2940   22.5470 N   0  0  0  0  0  0  0  0  0  0  0  0
  -23.4520  -29.1150   23.5510 O   0  0  0  0  0  0  0  0  0  0  0  0
  -20.8980  -29.7710   21.8360 H   0  0  0  0  0  0  0  0  0  0  0  0
  -18.2830  -27.5380   22.8480 C   0  0  0  0  0  0  0  0  0  0  0  0
  -20.7180  -28.2750   23.3170 C   0  0  0  0  0  3  0  0  0  0  0  0
  -21.1250  -26.8500   22.8730 C   0  0  0  0  0  2  0  0  0  0  0  0
  -20.2030  -26.2680   21.7970 C   0  0  0  0  0  2  0  0  0  0  0  0
  -18.7600  -26.2020   22.3040 C   0  0  0  0  0  2  0  0  0  0  0  0
  -19.2030  -28.5170   23.3100 C   0  0  0  0  0  0  0  0  0  0  0  0
  -18.7080  -29.7530   23.7770 C   0  0  0  0  0  3  0  0  0  0  0  0
  -17.3250  -30.0180   23.7890 C   0  0  0  0  0  3  0  0  0  0  0  0
  -16.4190  -29.0400   23.3450 C   0  0  0  0  0  3  0  0  0  0  0  0
  -16.8980  -27.8020   22.8820 C   0  0  0  0  0  3  0  0  0  0  0  0
  -26.0230  -32.5970   23.8230 C   0  0  0  0  0  3  0  0  0  0  0  0
  -26.6270  -31.8000   25.0440 C   0  0  1  0  0  0  0  0  0  0  0  0
  -25.6110  -31.5360   26.1810 C   0  0  0  0  0  1  0  0  0  0  0  0
  -27.1830  -30.4310   24.5860 C   0  0  0  0  0  1  0  0  0  0  0  0
  -27.8210  -32.5830   25.6400 C   0  0  0  0  0  1  0  0  0  0  0  0
  -25.7810  -34.0000   24.1910 N   0  0  0  0  0  0  0  0  0  0  0  0
  -26.0690  -35.0520   23.4120 C   0  0  0  0  0  0  0  0  0  0  0  0
  -26.6350  -34.9400   22.3210 O   0  0  0  0  0  0  0  0  0  0  0  0
  -25.2690  -34.1600   25.0460 H   0  0  0  0  0  0  0  0  0  0  0  0
  -24.3620  -36.8920   23.2400 C   0  0  0  0  0  1  0  0  0  0  0  0
  -25.6660  -36.4480   23.9240 C   0  0  0  0  0  3  0  0  0  0  0  0
  -27.8960  -37.2690   24.5450 C   0  0  0  0  0  1  0  0  0  0  0  0
  -26.7100  -37.4760   23.7180 N   0  0  0  0  0  0  0  0  0  0  0  0
  -26.3450  -38.4040   23.9100 H   0  0  0  0  0  0  0  0  0  0  0  0
  2  1  1  0
  3 12  1  0
  3  4  1  0
  4  8  1  0
  4  1  1  0
  5 17  1  0
  5  3  1  0
  6  5  1  0
  6  2  1  0
  6  7  1  6
  8 11  1  0
  9  8  1  0
 10  8  1  0
 12 13  1  0
 13 14  1  0
 15 13  1  0
 16 13  1  0
 17 26  1  0
 18 24  1  0
 18 26  1  0
 19 24  1  0
 20 21  1  0
 20 19  1  0
 22 21  1  0
 22 31  1  0
 22 23  1  0
 24 23  1  0
 25 18  2  0
 26 27  1  0
 28 29  2  0
 29 48  1  0
 30 33  1  0
 30 29  1  0
 31 32  1  0
 31 28  1  0
 32 30  2  0
 33 34  1  0
 34 35  2  0
 36 39  1  0
 36 35  1  0
 37 36  2  0
 38 37  1  0
 38 33  2  0
 39 40  1  0
 40 45  2  0
 40 41  1  0
 41 42  2  0
 42 43  1  0
 43 47  1  0
 44 43  2  0
 45 44  1  0
 46 45  1  0
 48 49  1  0
 49 51  1  0
 49 52  1  0
 50 48  2  0
 53 28  1  0
 53 54  1  0
 55 53  1  0
 56 57  2  0
 56  6  1  0
 58 59  2  0
 58 57  1  0
 60 62  1  0
 60 59  1  0
 61 72  2  0
 62 67  1  0
 63 71  1  0
 63 73  1  0
 64 70  1  0
 64 66  1  0
 65 71  1  0
 66 65  1  0
 67 66  2  0
 68 69  1  0
 68 62  2  0
 69 64  2  0
 70 63  1  0
 71 61  1  0
 73 75  2  0
 74 73  1  0
 76 74  1  0
 77 86  2  0
 77 82  1  0
 78 74  1  0
 79 78  1  0
 80 81  1  0
 80 79  1  0
 81 77  1  0
 82 78  1  0
 82 83  2  0
 83 84  1  0
 85 84  2  0
 86 85  1  0
 87 61  1  0
 87 92  1  0
 87 88  1  0
 88 91  1  1
 88 89  1  0
 90 88  1  0
 92 95  1  0
 93 97  1  0
 93 92  1  0
 94 93  2  0
 97 96  1  0
 99100  1  0
 99 97  1  0
 99 98  1  0
M  ISO  4  18 100  26 100  59 101  60 101
M  END
>  <TORSDO>  (79) 
F 24

>  <SCORE>  (79) 
-6.328

>  <name>  (79) 
79

>  <ligand_id>  (79) 
79

>  <original_smiles>  (79) 
[H]c1c([H])c([H])c2c(c1[H])C([H])([H])C([H])([H])C([H])([H])C2([H])N([H])C(=O)C1([H])N(C(=O)C([H])(N([H])C(=O)C([H])(N([H])C([H])([H])[H])C([H])([H])[H])C(C([H])([H])[H])(C([H])([H])[H])C([H])([H])[H])C([H])([H])c2c([H])c(OC([H])([H])C([H])([H])C([H])([H])C([H])([H])[N+]3([H])C([H])([H])C([H])([H])C([H])([N+]([H])([H])[H])C([H])(C([H])([H])[N+]([H])([H])[H])C3([H])C([H])([H])N([H])C(=O)N3C([H])([H])C([H])([H])C([H])([H])C([H])(n4nc(-c5c([H])c([H])c(Oc6c([H])c([H])c(F)c([H])c6F)c([H])c5[H])c(C(=O)N([H])[H])c4N([H])[H])C3([H])[H])c([H])c([H])c2C1([H])[H]

>  <smiles>  (79) 
[H]c1c([H])c([H])c2c(c1[H])C([H])([H])C([H])([H])C([H])([H])C2([H])N([H])C(=O)C1([H])N(C(=O)C([H])(N([H])C(=O)C([H])(N([H])C([H])([H])[H])C([H])([H])[H])C(C([H])([H])[H])(C([H])([H])[H])C([H])([H])[H])C([H])([H])c2c([H])c(OC([H])([H])C([H])([H])C([H])([H])C([H])([H])[N+]3([H])C([H])([H])C([H])([H])C([H])([N+]([H])([H])[H])C([H])(C([H])([H])[N+]([H])([H])[H])C3([H])C([H])([H])N([H])C(=O)N3C([H])([H])C([H])([H])C([H])([H])C([H])(n4nc(-c5c([H])c([H])c(Oc6c([H])c([H])c(F)c([H])c6F)c([H])c5[H])c(C(=O)N([H])[H])c4N([H])[H])C3([H])[H])c([H])c([H])c2C1([H])[H]

$$$$
80:0:0
     RDKit          3D

 93101  0  0  1  0  0  0  0  0999 V2000
  -28.8910  -20.2960   20.1620 C   0  0  0  0  0  2  0  0  0  0  0  0
  -31.9180  -19.2760   21.5000 C   0  0  0  0  0  2  0  0  0  0  0  0
  -30.4570  -19.3810   21.9410 C   0  0  0  0  0  2  0  0  0  0  0  0
  -31.8790  -18.1350   20.4830 C   0  0  0  0  0  3  0  0  0  0  0  0
  -30.5150  -18.3290   19.7850 C   0  0  0  0  0  3  0  0  0  0  0  0
  -33.0790  -18.1160   19.5220 C   0  0  0  0  0  1  0  0  0  0  0  0
  -29.6520  -19.1160   20.7270 N   0  0  2  0  0  4  0  0  0  0  0  0
  -28.9330  -18.4730   21.0270 H   0  0  0  0  0  0  0  0  0  0  0  0
  -29.8550  -17.0130   19.2340 C   0  0  0  0  0  2  0  0  0  0  0  0
  -30.6400  -14.7360   19.9650 C   0  0  0  0  0  0  0  0  0  0  0  0
  -30.4410  -12.4260   19.1450 C   0  0  0  0  0  2  0  0  0  0  0  0
  -29.4670  -12.4490   17.9470 C   0  0  0  0  0  2  0  0  0  0  0  0
  -28.0100  -12.2960   18.4300 C   0  0  0  0  0  2  0  0  0  0  0  0
  -27.6600  -13.2510   19.6020 C   0  0  0  0  0  3  0  0  0  0  0  0
  -28.7540  -13.2260   20.6960 C   0  0  0  0  0  2  0  0  0  0  0  0
  -30.0460  -13.5130   20.0560 N   0  0  0  0  0  0  0  0  0  0  0  0
  -31.7790  -14.8880   19.5180 O   0  0  0  0  0  0  0  0  0  0  0  0
  -29.8040  -15.7940   20.0920 N   0  0  0  0  0  0  0  0  0  0  0  0
  -28.9070  -15.5750   20.5010 H   0  0  0  0  0  0  0  0  0  0  0  0
  -25.3130  -13.8510   20.4630 C   0  0  0  0  0  0  0  0  0  0  0  0
  -24.2610  -13.0750   20.8700 C   0  0  0  0  0  0  0  0  0  0  0  0
  -24.7080  -11.7220   20.7730 C   0  0  0  0  0  0  0  0  0  0  0  0
  -26.3350  -12.9700   20.1480 N   0  0  0  0  0  0  0  0  0  0  0  0
  -25.9780  -11.6830   20.3930 N   0  0  0  0  0  0  0  0  0  0  0  0
  -23.9810  -10.4610   20.9640 C   0  0  0  0  0  0  0  0  0  0  0  0
  -24.4110   -9.4980   21.9040 C   0  0  0  0  0  3  0  0  0  0  0  0
  -23.6870   -8.2990   22.0830 C   0  0  0  0  0  3  0  0  0  0  0  0
  -22.5180   -8.0560   21.3210 C   0  0  0  0  0  0  0  0  0  0  0  0
  -22.1090   -9.0070   20.3700 C   0  0  0  0  0  3  0  0  0  0  0  0
  -22.8330  -10.1960   20.1900 C   0  0  0  0  0  3  0  0  0  0  0  0
  -21.7660   -6.9100   21.4100 O   0  0  0  0  0  0  0  0  0  0  0  0
  -21.6620   -6.2040   22.5820 C   0  0  0  0  0  0  0  0  0  0  0  0
  -21.1420   -6.7870   23.7580 C   0  0  0  0  0  3  0  0  0  0  0  0
  -20.9890   -6.0070   24.9210 C   0  0  0  0  0  3  0  0  0  0  0  0
  -21.3460   -4.6440   24.9090 C   0  0  0  0  0  0  0  0  0  0  0  0
  -21.8590   -4.0620   23.7370 C   0  0  0  0  0  3  0  0  0  0  0  0
  -22.0140   -4.8390   22.5760 C   0  0  0  0  0  0  0  0  0  0  0  0
  -22.4890   -4.2680   21.4430 F   0  0  0  0  0  0  0  0  0  0  0  0
  -21.1920   -3.8930   26.0240 F   0  0  0  0  0  0  0  0  0  0  0  0
  -22.8850  -13.5540   21.2330 C   0  0  0  0  0  0  0  0  0  0  0  0
  -22.1970  -12.8330   22.1120 N   0  0  0  0  0  0  0  0  0  0  0  0
  -22.4300  -14.6010   20.7730 O   0  0  0  0  0  0  0  0  0  0  0  0
  -22.5800  -11.9870   22.5070 H   0  0  0  0  0  0  0  0  0  0  0  0
  -21.2760  -13.1340   22.3960 H   0  0  0  0  0  0  0  0  0  0  0  0
  -25.4780  -15.2250   20.3140 N   0  0  0  0  0  0  0  0  0  0  0  0
  -24.7110  -15.8720   20.4620 H   0  0  0  0  0  0  0  0  0  0  0  0
  -26.2840  -15.6600   19.8870 H   0  0  0  0  0  0  0  0  0  0  0  0
  -29.4520  -21.7450   20.4110 C   0  0  0  0  0  2  0  0  0  0  0  0
  -28.6710  -22.8700   19.6770 C   0  0  0  0  0  0  0  0  0  0  0  0
  -28.1610  -22.6500   18.5760 O   0  0  0  0  0  0  0  0  0  0  0  0
  -28.5370  -24.2670   20.3430 C   0  0  0  0  0  2  0  0  0  0  0  0
  -28.4000  -25.4710   19.3560 C   0  0  0  0  0  2  0  0  0  0  0  0
  -28.2650  -26.7680   19.9910 O   0  0  0  0  0  0  0  0  0  0  0  0
  -24.5290  -31.9350   23.2000 C   0  0  0  0  0  0  0  0  0  0  0  0
  -27.0690  -27.4770   20.0060 C   0  0  0  0  0  0  0  0  0  0  0  0
  -23.2720  -30.5530   21.5790 C   0  0  0  0  0  3  0  0  0  0  0  0
  -24.6780  -29.0160   20.1020 C   0  0  0  0  0  0  0  0  0  0  0  0
  -25.7970  -30.8920   21.3170 C   0  0  0  0  0  2  0  0  0  0  0  0
  -25.8550  -29.5230   20.6630 C   0  0  0  0  0  0  0  0  0  0  0  0
  -27.0470  -28.7600   20.6110 C   0  0  0  0  0  3  0  0  0  0  0  0
  -25.8620  -26.9860   19.4520 C   0  0  0  0  0  3  0  0  0  0  0  0
  -24.6780  -27.7480   19.4960 C   0  0  0  0  0  3  0  0  0  0  0  0
  -23.4400  -29.8830   20.1890 C   0  0  0  0  0  2  0  0  0  0  0  0
  -24.5520  -31.1420   22.0890 N   0  0  0  0  0  0  0  0  0  0  0  0
  -23.4640  -32.2070   23.7700 O   0  0  0  0  0  0  0  0  0  0  0  0
  -22.6420  -29.5270   22.5490 C   0  0  0  0  0  0  0  0  0  0  0  0
  -21.3240  -29.3080   22.4140 N   0  0  0  0  0  0  0  0  0  0  0  0
  -23.3360  -28.9310   23.3770 O   0  0  0  0  0  0  0  0  0  0  0  0
  -20.8250  -29.8400   21.7150 H   0  0  0  0  0  0  0  0  0  0  0  0
  -17.9900  -27.9860   22.8570 C   0  0  0  0  0  0  0  0  0  0  0  0
  -20.5270  -28.3560   23.1890 C   0  0  0  0  0  3  0  0  0  0  0  0
  -20.7040  -26.9170   22.6540 C   0  0  0  0  0  2  0  0  0  0  0  0
  -19.6440  -26.5230   21.6200 C   0  0  0  0  0  2  0  0  0  0  0  0
  -18.2400  -26.6270   22.2250 C   0  0  0  0  0  2  0  0  0  0  0  0
  -19.0650  -28.8040   23.2960 C   0  0  0  0  0  0  0  0  0  0  0  0
  -18.7780  -30.0730   23.8450 C   0  0  0  0  0  3  0  0  0  0  0  0
  -17.4500  -30.5240   23.9620 C   0  0  0  0  0  3  0  0  0  0  0  0
  -16.3900  -29.7020   23.5430 C   0  0  0  0  0  3  0  0  0  0  0  0
  -16.6610  -28.4360   22.9950 C   0  0  0  0  0  3  0  0  0  0  0  0
  -25.8330  -32.5530   23.7900 C   0  0  0  0  0  3  0  0  0  0  0  0
  -25.5430  -33.9500   24.1390 N   0  0  0  0  0  0  0  0  0  0  0  0
  -25.8820  -35.0080   23.3900 C   0  0  0  0  0  0  0  0  0  0  0  0
  -26.5450  -34.9080   22.3530 O   0  0  0  0  0  0  0  0  0  0  0  0
  -24.9520  -34.1020   24.9430 H   0  0  0  0  0  0  0  0  0  0  0  0
  -24.1830  -36.8300   23.0530 C   0  0  0  0  0  1  0  0  0  0  0  0
  -25.4130  -36.3960   23.8650 C   0  0  0  0  0  3  0  0  0  0  0  0
  -27.5520  -37.2380   24.7250 C   0  0  0  0  0  1  0  0  0  0  0  0
  -26.4620  -37.4350   23.7750 N   0  0  0  0  0  0  0  0  0  0  0  0
  -26.0680  -38.3600   23.9290 H   0  0  0  0  0  0  0  0  0  0  0  0
  -26.3800  -31.7690   25.0460 C   0  0  1  0  0  0  0  0  0  0  0  0
  -25.3130  -31.5230   26.1380 C   0  0  0  0  0  1  0  0  0  0  0  0
  -26.9500  -30.3940   24.6250 C   0  0  0  0  0  1  0  0  0  0  0  0
  -27.5490  -32.5540   25.6870 C   0  0  0  0  0  1  0  0  0  0  0  0
  1 48  1  0
  1  7  1  0
  2  3  1  0
  4  6  1  0
  4  2  1  0
  5  9  1  0
  5  4  1  0
  5  7  1  0
  7  8  1  1
  7  3  1  0
  9 18  1  0
 10 16  1  0
 10 18  1  0
 11 16  1  0
 12 13  1  0
 12 11  1  0
 14 13  1  0
 14 23  1  0
 14 15  1  0
 16 15  1  0
 17 10  2  0
 18 19  1  0
 20 21  2  0
 21 40  1  0
 22 21  1  0
 22 25  1  0
 23 24  1  0
 23 20  1  0
 24 22  2  0
 25 26  1  0
 26 27  2  0
 28 31  1  0
 28 27  1  0
 29 28  2  0
 30 29  1  0
 30 25  2  0
 31 32  1  0
 32 33  1  0
 33 34  2  0
 35 34  1  0
 35 39  1  0
 36 35  2  0
 37 32  2  0
 37 36  1  0
 38 37  1  0
 40 41  1  0
 41 44  1  0
 41 43  1  0
 42 40  2  0
 45 46  1  0
 45 20  1  0
 47 45  1  0
 49 51  1  0
 49 48  1  0
 50 49  2  0
 52 53  1  0
 52 51  1  0
 53 55  1  0
 54 65  2  0
 55 60  1  0
 56 64  1  0
 56 66  1  0
 57 63  1  0
 57 59  1  0
 58 64  1  0
 59 58  1  0
 60 59  2  0
 61 62  1  0
 61 55  2  0
 62 57  2  0
 63 56  1  0
 64 54  1  0
 66 68  2  0
 67 66  1  0
 69 67  1  0
 70 79  2  0
 70 75  1  0
 71 67  1  0
 71 75  1  0
 72 71  1  0
 73 74  1  0
 73 72  1  0
 74 70  1  0
 75 76  2  0
 76 77  1  0
 78 77  2  0
 79 78  1  0
 80 54  1  0
 80 81  1  0
 80 90  1  0
 81 84  1  0
 82 86  1  0
 82 81  1  0
 83 82  2  0
 86 85  1  0
 88 86  1  0
 88 89  1  0
 88 87  1  0
 90 93  1  1
 90 91  1  0
 92 90  1  0
M  ISO  4  10 100  18 100  52 101  53 101
M  END
>  <TORSDO>  (80) 
F 22

>  <SCORE>  (80) 
-13.160

>  <name>  (80) 
80

>  <ligand_id>  (80) 
80

>  <original_smiles>  (80) 
[H]c1c([H])c([H])c2c(c1[H])C([H])([H])C([H])([H])C([H])([H])C2([H])N([H])C(=O)C1([H])N(C(=O)C([H])(N([H])C(=O)C([H])(N([H])C([H])([H])[H])C([H])([H])[H])C(C([H])([H])[H])(C([H])([H])[H])C([H])([H])[H])C([H])([H])c2c([H])c(OC([H])([H])C([H])([H])C(=O)C([H])([H])C([H])([H])[N+]3([H])C([H])([H])C([H])([H])C([H])(C([H])([H])[H])C3([H])C([H])([H])N([H])C(=O)N3C([H])([H])C([H])([H])C([H])([H])C([H])(n4nc(-c5c([H])c([H])c(Oc6c([H])c([H])c(F)c([H])c6F)c([H])c5[H])c(C(=O)N([H])[H])c4N([H])[H])C3([H])[H])c([H])c([H])c2C1([H])[H]

>  <smiles>  (80) 
[H]c1c([H])c([H])c2c(c1[H])C([H])([H])C([H])([H])C([H])([H])C2([H])N([H])C(=O)C1([H])N(C(=O)C([H])(N([H])C(=O)C([H])(N([H])C([H])([H])[H])C([H])([H])[H])C(C([H])([H])[H])(C([H])([H])[H])C([H])([H])[H])C([H])([H])c2c([H])c(OC([H])([H])C([H])([H])C(=O)C([H])([H])C([H])([H])[N+]3([H])C([H])([H])C([H])([H])C([H])(C([H])([H])[H])C3([H])C([H])([H])N([H])C(=O)N3C([H])([H])C([H])([H])C([H])([H])C([H])(n4nc(-c5c([H])c([H])c(Oc6c([H])c([H])c(F)c([H])c6F)c([H])c5[H])c(C(=O)N([H])[H])c4N([H])[H])C3([H])[H])c([H])c([H])c2C1([H])[H]

$$$$
81:0:0
     RDKit          3D

 99106  0  0  1  0  0  0  0  0999 V2000
  -26.6140  -17.1860   20.1280 C   0  0  0  0  0  3  0  0  0  0  0  0
  -26.5980  -16.2470   21.4220 C   0  0  0  0  0  2  0  0  0  0  0  0
  -27.3030  -14.8340   21.4160 C   0  0  0  0  0  2  0  0  0  0  0  0
  -26.4750  -13.5730   21.7170 N   0  0  0  0  0  4  0  0  0  0  0  0
  -25.6200  -13.8490   22.1790 H   0  0  0  0  0  0  0  0  0  0  0  0
  -26.2300  -13.1860   20.8180 H   0  0  0  0  0  0  0  0  0  0  0  0
  -31.2240  -11.3110   22.0060 C   0  0  0  0  0  0  0  0  0  0  0  0
  -31.9700   -9.1920   20.7410 C   0  0  0  0  0  2  0  0  0  0  0  0
  -31.4920   -9.0090   19.2510 C   0  0  0  0  0  2  0  0  0  0  0  0
  -29.9930   -9.3120   18.9110 C   0  0  0  0  0  2  0  0  0  0  0  0
  -29.4810  -10.4380   19.8030 C   0  0  0  0  0  3  0  0  0  0  0  0
  -29.7580   -9.7710   21.1410 C   0  0  0  0  0  2  0  0  0  0  0  0
  -31.0850  -10.0880   21.5000 N   0  0  0  0  0  0  0  0  0  0  0  0
  -32.3370  -11.8540   21.6720 O   0  0  0  0  0  0  0  0  0  0  0  0
  -27.4600  -10.4730   23.8460 C   0  0  0  0  0  3  0  0  0  0  0  0
  -29.1210  -10.9200   23.8390 C   0  0  0  0  0  3  0  0  0  0  0  0
  -28.8020  -12.5640   22.2430 C   0  0  0  0  0  2  0  0  0  0  0  0
  -26.2870  -10.9250   22.7830 C   0  0  0  0  0  2  0  0  0  0  0  0
  -27.1150  -12.4420   22.5240 C   0  0  0  0  0  3  0  0  0  0  0  0
  -29.9390  -11.6810   22.7340 N   0  0  0  0  0  0  0  0  0  0  0  0
  -27.3150  -11.8660   19.5160 C   0  0  0  0  0  0  0  0  0  0  0  0
  -26.0130  -11.4860   19.6690 C   0  0  0  0  0  0  0  0  0  0  0  0
  -26.1590  -10.0720   19.8220 C   0  0  0  0  0  0  0  0  0  0  0  0
  -28.0800  -10.7200   19.7090 N   0  0  0  0  0  0  0  0  0  0  0  0
  -27.3510   -9.6410   19.8370 N   0  0  0  0  0  0  0  0  0  0  0  0
  -25.3390   -9.0620   20.2200 C   0  0  0  0  0  0  0  0  0  0  0  0
  -25.7380   -7.7660   21.3210 C   0  0  0  0  0  3  0  0  0  0  0  0
  -24.4470   -7.1180   22.2290 C   0  0  0  0  0  3  0  0  0  0  0  0
  -22.9190   -7.6800   21.9640 C   0  0  0  0  0  0  0  0  0  0  0  0
  -22.6440   -8.8940   20.9580 C   0  0  0  0  0  3  0  0  0  0  0  0
  -23.7920   -9.5520   20.0740 C   0  0  0  0  0  0  0  0  0  0  0  0
  -21.8990   -6.7470   21.7760 O   0  0  0  0  0  0  0  0  0  0  0  0
  -21.3440   -6.1380   22.8480 C   0  0  0  0  0  0  0  0  0  0  0  0
  -20.8760   -6.9650   23.8770 C   0  0  0  0  0  3  0  0  0  0  0  0
  -20.3910   -6.3940   25.0560 C   0  0  0  0  0  3  0  0  0  0  0  0
  -20.3510   -4.9980   25.1880 C   0  0  0  0  0  0  0  0  0  0  0  0
  -20.7540   -4.1620   24.1300 C   0  0  0  0  0  3  0  0  0  0  0  0
  -21.2450   -4.7300   22.9400 C   0  0  0  0  0  0  0  0  0  0  0  0
  -21.6230   -3.9190   21.9200 F   0  0  0  0  0  0  0  0  0  0  0  0
  -19.9170   -4.4650   26.3510 F   0  0  0  0  0  0  0  0  0  0  0  0
  -24.7790  -12.3670   19.5580 C   0  0  0  0  0  0  0  0  0  0  0  0
  -23.7710  -12.2350   20.4190 N   0  0  0  0  0  0  0  0  0  0  0  0
  -24.7490  -13.2730   18.7390 O   0  0  0  0  0  0  0  0  0  0  0  0
  -23.7230  -11.4540   21.0560 H   0  0  0  0  0  0  0  0  0  0  0  0
  -22.9690  -12.8420   20.3370 H   0  0  0  0  0  0  0  0  0  0  0  0
  -27.9030  -13.0890   19.2820 N   0  0  0  0  0  0  0  0  0  0  0  0
  -27.3710  -13.8390   18.8560 H   0  0  0  0  0  0  0  0  0  0  0  0
  -28.8810  -13.1400   19.0200 H   0  0  0  0  0  0  0  0  0  0  0  0
  -23.6540   -8.6090   19.6480 C   0  0  0  0  0  1  0  0  0  0  0  0
  -24.4790  -10.0960   22.4940 C   0  0  0  0  0 15  0  0  0  0  0  0
  -27.9320  -17.6890   19.3990 C   0  0  0  0  0  3  0  0  0  0  0  0
  -27.7000  -18.7960   18.2710 C   0  0  0  0  0  2  0  0  0  0  0  0
  -28.8650  -19.6790   17.8700 N   0  0  0  0  0  4  0  0  0  0  0  0
  -29.1360  -19.4200   16.9350 H   0  0  0  0  0  0  0  0  0  0  0  0
  -29.6450  -19.4740   18.4750 H   0  0  0  0  0  0  0  0  0  0  0  0
  -28.6440  -21.1800   17.9230 C   0  0  0  0  0  2  0  0  0  0  0  0
  -29.8380  -22.1530   17.5040 C   0  0  0  0  0  2  0  0  0  0  0  0
  -30.1590  -23.3800   18.4550 C   0  0  0  0  0  2  0  0  0  0  0  0
  -30.4990  -24.7030   17.8930 O   0  0  0  0  0  0  0  0  0  0  0  0
  -25.2310  -27.5930   21.6970 C   0  0  0  0  0  0  0  0  0  0  0  0
  -29.4020  -25.5440   17.8700 C   0  0  0  0  0  0  0  0  0  0  0  0
  -24.8250  -27.2770   19.2820 C   0  0  0  0  0  3  0  0  0  0  0  0
  -26.8900  -26.8340   17.8480 C   0  0  0  0  0  0  0  0  0  0  0  0
  -27.1890  -27.7450   20.1540 C   0  0  0  0  0  2  0  0  0  0  0  0
  -27.7220  -26.9580   18.9680 C   0  0  0  0  0  0  0  0  0  0  0  0
  -28.9930  -26.3240   18.9840 C   0  0  0  0  0  3  0  0  0  0  0  0
  -28.5780  -25.4900   16.7330 C   0  0  0  0  0  3  0  0  0  0  0  0
  -27.3220  -26.1180   16.7190 C   0  0  0  0  0  3  0  0  0  0  0  0
  -25.5270  -27.4860   17.9140 C   0  0  0  0  0  2  0  0  0  0  0  0
  -25.7480  -27.5220   20.4360 N   0  0  0  0  0  0  0  0  0  0  0  0
  -24.0140  -27.4920   21.9000 O   0  0  0  0  0  0  0  0  0  0  0  0
  -24.1730  -25.8750   19.3070 C   0  0  0  0  0  0  0  0  0  0  0  0
  -23.0100  -25.7390   18.6480 N   0  0  0  0  0  0  0  0  0  0  0  0
  -24.7220  -24.9340   19.8880 O   0  0  0  0  0  0  0  0  0  0  0  0
  -22.6200  -26.5590   18.2050 H   0  0  0  0  0  0  0  0  0  0  0  0
  -19.9820  -24.3360   17.2570 C   0  0  0  0  0  0  0  0  0  0  0  0
  -22.2370  -24.5040   18.5110 C   0  0  0  0  0  3  0  0  0  0  0  0
  -22.8110  -23.6090   17.3870 C   0  0  0  0  0  2  0  0  0  0  0  0
  -22.1390  -23.8400   16.0310 C   0  0  0  0  0  2  0  0  0  0  0  0
  -20.6360  -23.5660   16.1210 C   0  0  0  0  0  2  0  0  0  0  0  0
  -20.7370  -24.7890   18.3710 C   0  0  0  0  0  0  0  0  0  0  0  0
  -20.0870  -25.5290   19.3830 C   0  0  0  0  0  3  0  0  0  0  0  0
  -18.7110  -25.8140   19.2950 C   0  0  0  0  0  3  0  0  0  0  0  0
  -17.9660  -25.3500   18.1970 C   0  0  0  0  0  3  0  0  0  0  0  0
  -18.6000  -24.6100   17.1840 C   0  0  0  0  0  3  0  0  0  0  0  0
  -26.1440  -27.8280   22.9400 C   0  0  0  0  0  3  0  0  0  0  0  0
  -26.4490  -26.5050   23.7460 C   0  0  1  0  0  0  0  0  0  0  0  0
  -25.1830  -25.7030   24.1250 C   0  0  0  0  0  1  0  0  0  0  0  0
  -27.3740  -25.5690   22.9360 C   0  0  0  0  0  1  0  0  0  0  0  0
  -27.2030  -26.8520   25.0520 C   0  0  0  0  0  1  0  0  0  0  0  0
  -25.4770  -28.8160   23.7970 N   0  0  0  0  0  0  0  0  0  0  0  0
  -25.7920  -30.1170   23.8490 C   0  0  0  0  0  0  0  0  0  0  0  0
  -26.7360  -30.6020   23.2190 O   0  0  0  0  0  0  0  0  0  0  0  0
  -24.6580  -28.5010   24.2960 H   0  0  0  0  0  0  0  0  0  0  0  0
  -23.9240  -31.8030   23.8650 C   0  0  0  0  0  1  0  0  0  0  0  0
  -24.9220  -31.0240   24.7380 C   0  0  0  0  0  3  0  0  0  0  0  0
  -26.4680  -31.3220   26.6230 C   0  0  0  0  0  1  0  0  0  0  0  0
  -25.7070  -31.9710   25.5590 N   0  0  0  0  0  0  0  0  0  0  0  0
  -25.1010  -32.6690   25.9830 H   0  0  0  0  0  0  0  0  0  0  0  0
  1  2  1  0
  3  2  1  0
  3  4  1  0
  4  5  1  0
  6  4  1  0
  7 20  1  0
  8 13  1  0
  9  8  1  0
 10  9  1  0
 11 10  1  0
 11 12  1  0
 12 13  1  0
 13  7  1  0
 14  7  2  0
 16 15  2  0
 17 19  1  0
 17 20  1  0
 18 15  1  0
 19  4  1  0
 19 18  1  0
 20 16  1  0
 21 22  2  0
 21 24  1  0
 22 23  1  0
 23 25  2  0
 23 26  1  0
 24 11  1  0
 24 25  1  0
 26 27  1  0
 27 28  2  0
 29 28  1  0
 30 29  2  0
 31 26  2  3
 31 30  1  0
 32 29  1  0
 32 33  1  0
 33 38  2  0
 33 34  1  0
 34 35  2  0
 35 36  1  0
 36 40  1  0
 37 36  2  0
 38 37  1  0
 39 38  1  0
 41 22  1  0
 41 42  1  0
 42 44  1  0
 43 41  2  0
 45 42  1  0
 46 21  1  0
 47 46  1  0
 48 46  1  0
 49 31  1  0
 51  1  2  0
 52 51  1  0
 53 56  1  0
 53 52  1  0
 53 55  1  0
 54 53  1  0
 57 56  1  0
 57 58  1  0
 59 58  1  0
 60 71  2  0
 61 59  1  0
 61 66  1  0
 62 72  1  0
 62 70  1  0
 63 69  1  0
 63 65  1  0
 64 70  1  0
 65 66  2  0
 65 64  1  0
 67 61  2  0
 68 67  1  0
 68 63  2  0
 69 62  1  0
 70 60  1  0
 72 74  2  0
 73 72  1  0
 75 73  1  0
 76 81  1  0
 77 73  1  0
 78 77  1  0
 79 80  1  0
 79 78  1  0
 80 76  1  0
 81 77  1  0
 81 82  2  0
 83 82  1  0
 84 83  2  0
 85 76  2  0
 85 84  1  0
 86 60  1  0
 86 87  1  0
 86 91  1  0
 87 88  1  1
 87 90  1  0
 89 87  1  0
 91 92  1  0
 91 94  1  0
 92 96  1  0
 93 92  2  0
 96 95  1  0
 96 98  1  0
 98 99  1  0
 98 97  1  0
M  ISO  4   7 100  20 100  58 101  59 101
M  END
>  <TORSDO>  (81) 
F 26

>  <SCORE>  (81) 
4.597

>  <name>  (81) 
81

>  <ligand_id>  (81) 
81

>  <original_smiles>  (81) 
[H]c1c([H])c([H])c2c(c1[H])C([H])([H])C([H])([H])C([H])([H])C2([H])N([H])C(=O)C1([H])N(C(=O)C([H])(N([H])C(=O)C([H])(N([H])C([H])([H])[H])C([H])([H])[H])C(C([H])([H])[H])(C([H])([H])[H])C([H])([H])[H])C([H])([H])c2c([H])c(OC([H])([H])C([H])([H])C([H])([H])[N+]([H])([H])C([H])([H])C([H])([H])C([H])([H])C([H])([H])C([H])([H])[N+]([H])([H])C3([H])C([H])([H])N(C(=O)N4C([H])([H])C([H])([H])C([H])([H])C([H])(n5nc(-c6c([H])c([H])c(Oc7c([H])c([H])c(F)c([H])c7F)c([H])c6[H])c(C(=O)N([H])[H])c5N([H])[H])C4([H])[H])C([H])([H])C([H])([H])C3([H])C([H])([H])C([H])([H])[H])c([H])c([H])c2C1([H])[H]

>  <smiles>  (81) 
[H]c1c([H])c([H])c2c(c1[H])C([H])([H])C([H])([H])C([H])([H])C2([H])N([H])C(=O)C1([H])N(C(=O)C([H])(N([H])C(=O)C([H])(N([H])C([H])([H])[H])C([H])([H])[H])C(C([H])([H])[H])(C([H])([H])[H])C([H])([H])[H])C([H])([H])c2c([H])c(OC([H])([H])C([H])([H])C([H])([H])[N+]([H])([H])C([H])([H])C([H])([H])C([H])([H])C([H])([H])C([H])([H])[N+]([H])([H])C3([H])C([H])([H])N(C(=O)N4C([H])([H])C([H])([H])C([H])([H])C([H])(n5nc(-c6c([H])c([H])c(Oc7c([H])c([H])c(F)c([H])c7F)c([H])c6[H])c(C(=O)N([H])[H])c5N([H])[H])C4([H])[H])C([H])([H])C([H])([H])C3([H])C([H])([H])C([H])([H])[H])c([H])c([H])c2C1([H])[H]

$$$$
82:0:0
     RDKit          3D

 90 98  0  0  1  0  0  0  0  0999 V2000
  -29.3280  -20.6190   20.4220 C   0  0  0  0  0  0  0  0  0  0  0  0
  -29.9300  -20.7940   19.3580 O   0  0  0  0  0  0  0  0  0  0  0  0
  -30.6510  -19.0100   21.9190 C   0  0  0  0  0  2  0  0  0  0  0  0
  -30.8940  -17.4950   21.9220 C   0  0  0  0  0  2  0  0  0  0  0  0
  -29.2270  -17.9790   20.2180 C   0  0  0  0  0  2  0  0  0  0  0  0
  -29.3470  -19.2370   21.1350 C   0  0  0  0  0  3  0  0  0  0  0  0
  -30.3840  -16.9980   20.5640 C   0  0  0  0  0  3  0  0  0  0  0  0
  -30.6950  -14.5240   20.1180 C   0  0  0  0  0  0  0  0  0  0  0  0
  -30.3510  -12.3690   18.9640 C   0  0  0  0  0  2  0  0  0  0  0  0
  -29.3580  -12.5840   17.8040 C   0  0  0  0  0  2  0  0  0  0  0  0
  -27.9050  -12.4410   18.2980 C   0  0  0  0  0  2  0  0  0  0  0  0
  -27.6220  -13.2630   19.5850 C   0  0  0  0  0  3  0  0  0  0  0  0
  -28.7260  -13.0350   20.6420 C   0  0  0  0  0  2  0  0  0  0  0  0
  -30.0200  -13.3430   20.0160 N   0  0  0  0  0  0  0  0  0  0  0  0
  -31.8190  -14.6860   19.6370 O   0  0  0  0  0  0  0  0  0  0  0  0
  -29.9890  -15.5700   20.6050 N   0  0  0  0  0  0  0  0  0  0  0  0
  -29.0680  -15.3560   20.9570 H   0  0  0  0  0  0  0  0  0  0  0  0
  -25.2570  -13.8650   20.3970 C   0  0  0  0  0  0  0  0  0  0  0  0
  -24.2060  -13.0910   20.8080 C   0  0  0  0  0  0  0  0  0  0  0  0
  -24.6650  -11.7390   20.7510 C   0  0  0  0  0  0  0  0  0  0  0  0
  -26.2920  -12.9850   20.1180 N   0  0  0  0  0  0  0  0  0  0  0  0
  -25.9420  -11.7020   20.3890 N   0  0  0  0  0  0  0  0  0  0  0  0
  -23.9470  -10.4770   20.9650 C   0  0  0  0  0  0  0  0  0  0  0  0
  -24.4000   -9.5190   21.9000 C   0  0  0  0  0  3  0  0  0  0  0  0
  -23.6820   -8.3200   22.1010 C   0  0  0  0  0  3  0  0  0  0  0  0
  -22.4980   -8.0710   21.3670 C   0  0  0  0  0  0  0  0  0  0  0  0
  -22.0650   -9.0170   20.4220 C   0  0  0  0  0  3  0  0  0  0  0  0
  -22.7820  -10.2070   20.2190 C   0  0  0  0  0  3  0  0  0  0  0  0
  -21.7510   -6.9220   21.4780 O   0  0  0  0  0  0  0  0  0  0  0  0
  -21.7080   -6.2010   22.6440 C   0  0  0  0  0  0  0  0  0  0  0  0
  -21.2680   -6.7730   23.8580 C   0  0  0  0  0  3  0  0  0  0  0  0
  -21.1740   -5.9760   25.0160 C   0  0  0  0  0  3  0  0  0  0  0  0
  -21.5080   -4.6100   24.9620 C   0  0  0  0  0  0  0  0  0  0  0  0
  -21.9400   -4.0390   23.7520 C   0  0  0  0  0  3  0  0  0  0  0  0
  -22.0360   -4.8310   22.5960 C   0  0  0  0  0  0  0  0  0  0  0  0
  -22.4340   -4.2710   21.4290 F   0  0  0  0  0  0  0  0  0  0  0  0
  -21.4090   -3.8430   26.0720 F   0  0  0  0  0  0  0  0  0  0  0  0
  -22.8220  -13.5680   21.1400 C   0  0  0  0  0  0  0  0  0  0  0  0
  -22.1280  -12.8650   22.0270 N   0  0  0  0  0  0  0  0  0  0  0  0
  -22.3640  -14.5970   20.6450 O   0  0  0  0  0  0  0  0  0  0  0  0
  -22.5110  -12.0310   22.4490 H   0  0  0  0  0  0  0  0  0  0  0  0
  -21.2000  -13.1650   22.2910 H   0  0  0  0  0  0  0  0  0  0  0  0
  -25.4140  -15.2370   20.2170 N   0  0  0  0  0  0  0  0  0  0  0  0
  -24.6480  -15.8870   20.3510 H   0  0  0  0  0  0  0  0  0  0  0  0
  -26.2400  -15.6730   19.8260 H   0  0  0  0  0  0  0  0  0  0  0  0
  -28.5510  -21.7780   21.0970 C   0  0  0  0  0  2  0  0  0  0  0  0
  -28.9610  -23.2340   20.6960 C   0  0  0  0  0  2  0  0  0  0  0  0
  -28.0570  -24.3410   21.3230 C   0  0  0  0  0  2  0  0  0  0  0  0
  -28.6390  -25.7870   21.4050 C   0  0  0  0  0  2  0  0  0  0  0  0
  -28.4480  -26.6300   20.2540 O   0  0  0  0  0  0  0  0  0  0  0  0
  -24.5930  -31.8700   23.2460 C   0  0  0  0  0  0  0  0  0  0  0  0
  -27.3010  -27.3950   20.2640 C   0  0  0  0  0  0  0  0  0  0  0  0
  -23.4230  -30.4510   21.5920 C   0  0  0  0  0  3  0  0  0  0  0  0
  -24.9070  -28.9030   20.2100 C   0  0  0  0  0  0  0  0  0  0  0  0
  -25.9500  -30.8140   21.4390 C   0  0  0  0  0  2  0  0  0  0  0  0
  -26.0540  -29.4340   20.8180 C   0  0  0  0  0  0  0  0  0  0  0  0
  -27.2560  -28.6870   20.8450 C   0  0  0  0  0  3  0  0  0  0  0  0
  -26.1460  -26.8850   19.6420 C   0  0  0  0  0  3  0  0  0  0  0  0
  -24.9490  -27.6270   19.6200 C   0  0  0  0  0  3  0  0  0  0  0  0
  -23.6610  -29.7590   20.2230 C   0  0  0  0  0  2  0  0  0  0  0  0
  -24.6720  -31.0610   22.1510 N   0  0  0  0  0  0  0  0  0  0  0  0
  -23.5000  -32.1420   23.7650 O   0  0  0  0  0  0  0  0  0  0  0  0
  -22.7570  -29.4350   22.5510 C   0  0  0  0  0  0  0  0  0  0  0  0
  -21.4330  -29.2550   22.4110 N   0  0  0  0  0  0  0  0  0  0  0  0
  -23.4300  -28.8110   23.3750 O   0  0  0  0  0  0  0  0  0  0  0  0
  -20.9510  -29.8120   21.7190 H   0  0  0  0  0  0  0  0  0  0  0  0
  -18.0490  -28.0880   22.8930 C   0  0  0  0  0  0  0  0  0  0  0  0
  -20.6080  -28.3220   23.1770 C   0  0  0  0  0  3  0  0  0  0  0  0
  -20.7000  -26.8910   22.5970 C   0  0  0  0  0  2  0  0  0  0  0  0
  -19.6010  -26.5820   21.5770 C   0  0  0  0  0  2  0  0  0  0  0  0
  -18.2170  -26.7380   22.2140 C   0  0  0  0  0  2  0  0  0  0  0  0
  -19.1720  -28.8370   23.3310 C   0  0  0  0  0  0  0  0  0  0  0  0
  -18.9620  -30.1020   23.9230 C   0  0  0  0  0  3  0  0  0  0  0  0
  -17.6610  -30.6150   24.0840 C   0  0  0  0  0  3  0  0  0  0  0  0
  -16.5520  -29.8610   23.6620 C   0  0  0  0  0  3  0  0  0  0  0  0
  -16.7470  -28.6000   23.0720 C   0  0  0  0  0  3  0  0  0  0  0  0
  -25.8630  -32.5110   23.8850 C   0  0  0  0  0  3  0  0  0  0  0  0
  -25.5430  -33.9090   24.2050 N   0  0  0  0  0  0  0  0  0  0  0  0
  -25.8810  -34.9590   23.4470 C   0  0  0  0  0  0  0  0  0  0  0  0
  -26.5640  -34.8560   22.4250 O   0  0  0  0  0  0  0  0  0  0  0  0
  -24.9390  -34.0640   25.0000 H   0  0  0  0  0  0  0  0  0  0  0  0
  -24.1470  -36.7380   23.0550 C   0  0  0  0  0  1  0  0  0  0  0  0
  -25.3780  -36.3470   23.8900 C   0  0  0  0  0  3  0  0  0  0  0  0
  -27.4940  -37.2470   24.7490 C   0  0  0  0  0  1  0  0  0  0  0  0
  -26.4050  -37.4060   23.7880 N   0  0  0  0  0  0  0  0  0  0  0  0
  -25.9920  -38.3250   23.9250 H   0  0  0  0  0  0  0  0  0  0  0  0
  -26.3680  -31.7460   25.1690 C   0  0  1  0  0  0  0  0  0  0  0  0
  -25.2610  -31.5060   26.2220 C   0  0  0  0  0  1  0  0  0  0  0  0
  -26.9640  -30.3730   24.7840 C   0  0  0  0  0  1  0  0  0  0  0  0
  -27.5040  -32.5490   25.8460 C   0  0  0  0  0  1  0  0  0  0  0  0
  1 46  1  0
  2  1  2  0
  3  4  1  0
  5  7  1  0
  5  6  1  0
  6  1  1  0
  6  3  1  0
  7 16  1  0
  7  4  1  0
  8 16  1  0
  9 14  1  0
 10 11  1  0
 10  9  1  0
 12 11  1  0
 12 21  1  0
 12 13  1  0
 14  8  1  0
 14 13  1  0
 15  8  2  0
 16 17  1  0
 18 19  2  0
 19 38  1  0
 20 19  1  0
 20 23  1  0
 21 22  1  0
 21 18  1  0
 22 20  2  0
 23 24  1  0
 24 25  2  0
 26 29  1  0
 26 25  1  0
 27 26  2  0
 28 27  1  0
 28 23  2  0
 29 30  1  0
 30 31  1  0
 31 32  2  0
 33 32  1  0
 33 37  1  0
 34 33  2  0
 35 30  2  0
 35 34  1  0
 36 35  1  0
 38 39  1  0
 39 42  1  0
 39 41  1  0
 40 38  2  0
 43 44  1  0
 43 18  1  0
 45 43  1  0
 47 46  1  0
 47 48  1  0
 48 49  1  0
 50 52  1  0
 50 49  1  0
 51 62  2  0
 52 57  1  0
 53 61  1  0
 53 63  1  0
 54 60  1  0
 54 56  1  0
 55 61  1  0
 56 57  2  0
 56 55  1  0
 58 52  2  0
 59 58  1  0
 59 54  2  0
 60 53  1  0
 61 51  1  0
 63 65  2  0
 64 63  1  0
 66 64  1  0
 67 76  2  0
 67 72  1  0
 68 64  1  0
 68 72  1  0
 69 68  1  0
 70 71  1  0
 70 69  1  0
 71 67  1  0
 72 73  2  0
 73 74  1  0
 75 74  2  0
 76 75  1  0
 77 51  1  0
 77 78  1  0
 77 87  1  0
 78 81  1  0
 79 83  1  0
 79 78  1  0
 80 79  2  0
 83 82  1  0
 85 83  1  0
 85 86  1  0
 85 84  1  0
 87 90  1  1
 87 88  1  0
 89 87  1  0
M  ISO  4   8 100  16 100  49 101  50 101
M  END
>  <TORSDO>  (82) 
F 21

>  <SCORE>  (82) 
-13.280

>  <name>  (82) 
82

>  <ligand_id>  (82) 
82

>  <original_smiles>  (82) 
[H]c1c([H])c([H])c2c(c1[H])C([H])([H])C([H])([H])C([H])([H])C2([H])N([H])C(=O)C1([H])N(C(=O)C([H])(N([H])C(=O)C([H])(N([H])C([H])([H])[H])C([H])([H])[H])C(C([H])([H])[H])(C([H])([H])[H])C([H])([H])[H])C([H])([H])c2c([H])c(OC([H])([H])C([H])([H])C([H])([H])C([H])([H])C(=O)C3([H])C([H])([H])C([H])([H])C([H])(N([H])C(=O)N4C([H])([H])C([H])([H])C([H])([H])C([H])(n5nc(-c6c([H])c([H])c(Oc7c([H])c([H])c(F)c([H])c7F)c([H])c6[H])c(C(=O)N([H])[H])c5N([H])[H])C4([H])[H])C3([H])[H])c([H])c([H])c2C1([H])[H]

>  <smiles>  (82) 
[H]c1c([H])c([H])c2c(c1[H])C([H])([H])C([H])([H])C([H])([H])C2([H])N([H])C(=O)C1([H])N(C(=O)C([H])(N([H])C(=O)C([H])(N([H])C([H])([H])[H])C([H])([H])[H])C(C([H])([H])[H])(C([H])([H])[H])C([H])([H])[H])C([H])([H])c2c([H])c(OC([H])([H])C([H])([H])C([H])([H])C([H])([H])C(=O)C3([H])C([H])([H])C([H])([H])C([H])(N([H])C(=O)N4C([H])([H])C([H])([H])C([H])([H])C([H])(n5nc(-c6c([H])c([H])c(Oc7c([H])c([H])c(F)c([H])c7F)c([H])c6[H])c(C(=O)N([H])[H])c5N([H])[H])C4([H])[H])C3([H])[H])c([H])c([H])c2C1([H])[H]

$$$$
83:0:0
     RDKit          3D

 95103  0  0  1  0  0  0  0  0999 V2000
  -26.6380  -22.8970   21.1310 C   0  0  0  0  0  0  0  0  0  0  0  0
  -26.0500  -23.9720   20.5910 N   0  0  0  0  0  0  0  0  0  0  0  0
  -25.9990  -21.8560   21.2720 O   0  0  0  0  0  0  0  0  0  0  0  0
  -25.0810  -23.8560   20.3270 H   0  0  0  0  0  0  0  0  0  0  0  0
  -28.1010  -22.9480   21.6030 C   0  0  0  0  0  2  0  0  0  0  0  0
  -29.1490  -22.8350   20.4720 C   0  0  0  0  0  2  0  0  0  0  0  0
  -30.6060  -21.3680   18.9920 C   0  0  0  0  0  2  0  0  0  0  0  0
  -29.4270  -20.3280   20.9590 C   0  0  0  0  0  2  0  0  0  0  0  0
  -30.7690  -19.9790   18.3620 C   0  0  0  0  0  2  0  0  0  0  0  0
  -29.6160  -18.9280   20.3490 C   0  0  0  0  0  2  0  0  0  0  0  0
  -29.3480  -21.4230   19.8750 C   0  0  0  0  0  3  0  0  0  0  0  0
  -30.8550  -18.8710   19.4290 C   0  0  0  0  0  3  0  0  0  0  0  0
  -31.0350  -17.5120   18.7330 C   0  0  0  0  0  2  0  0  0  0  0  0
  -31.7000  -15.3170   19.6370 C   0  0  0  0  0  0  0  0  0  0  0  0
  -31.5650  -12.8950   19.3030 C   0  0  0  0  0  2  0  0  0  0  0  0
  -30.6690  -12.6590   18.0700 C   0  0  0  0  0  2  0  0  0  0  0  0
  -29.1850  -12.5860   18.4840 C   0  0  0  0  0  2  0  0  0  0  0  0
  -28.7570  -13.7660   19.3990 C   0  0  0  0  0  3  0  0  0  0  0  0
  -29.7760  -13.9730   20.5430 C   0  0  0  0  0  2  0  0  0  0  0  0
  -31.1100  -14.1360   19.9410 N   0  0  0  0  0  0  0  0  0  0  0  0
  -32.8420  -15.4050   19.1750 O   0  0  0  0  0  0  0  0  0  0  0  0
  -30.8640  -16.3640   19.6240 N   0  0  0  0  0  0  0  0  0  0  0  0
  -29.9430  -16.2090   20.0080 H   0  0  0  0  0  0  0  0  0  0  0  0
  -26.4320  -14.5330   20.1960 C   0  0  0  0  0  0  0  0  0  0  0  0
  -25.3230  -13.8320   20.5890 C   0  0  0  0  0  0  0  0  0  0  0  0
  -25.6830  -12.4520   20.5160 C   0  0  0  0  0  0  0  0  0  0  0  0
  -27.4030  -13.5830   19.9140 N   0  0  0  0  0  0  0  0  0  0  0  0
  -26.9550  -12.3260   20.1630 N   0  0  0  0  0  0  0  0  0  0  0  0
  -24.8750  -11.2410   20.7110 C   0  0  0  0  0  0  0  0  0  0  0  0
  -25.1700  -10.3150   21.7360 C   0  0  0  0  0  3  0  0  0  0  0  0
  -24.3690   -9.1660   21.9140 C   0  0  0  0  0  3  0  0  0  0  0  0
  -23.2590   -8.9380   21.0660 C   0  0  0  0  0  0  0  0  0  0  0  0
  -22.9840   -9.8520   20.0350 C   0  0  0  0  0  3  0  0  0  0  0  0
  -23.7850  -10.9920   19.8550 C   0  0  0  0  0  3  0  0  0  0  0  0
  -22.4390   -7.8380   21.1480 O   0  0  0  0  0  0  0  0  0  0  0  0
  -22.0950   -7.2860   22.3560 C   0  0  0  0  0  0  0  0  0  0  0  0
  -21.4290   -8.0310   23.3540 C   0  0  0  0  0  3  0  0  0  0  0  0
  -21.0300   -7.4060   24.5520 C   0  0  0  0  0  3  0  0  0  0  0  0
  -21.2890   -6.0360   24.7510 C   0  0  0  0  0  0  0  0  0  0  0  0
  -21.9470   -5.2910   23.7570 C   0  0  0  0  0  3  0  0  0  0  0  0
  -22.3450   -5.9150   22.5620 C   0  0  0  0  0  0  0  0  0  0  0  0
  -22.9610   -5.1870   21.5970 F   0  0  0  0  0  0  0  0  0  0  0  0
  -20.9000   -5.4330   25.8980 F   0  0  0  0  0  0  0  0  0  0  0  0
  -23.9740  -14.4030   20.9170 C   0  0  0  0  0  0  0  0  0  0  0  0
  -23.2450  -13.7670   21.8280 N   0  0  0  0  0  0  0  0  0  0  0  0
  -23.5770  -15.4460   20.3990 O   0  0  0  0  0  0  0  0  0  0  0  0
  -23.5790  -12.9230   22.2700 H   0  0  0  0  0  0  0  0  0  0  0  0
  -22.3390  -14.1320   22.0890 H   0  0  0  0  0  0  0  0  0  0  0  0
  -26.6880  -15.8910   20.0370 N   0  0  0  0  0  0  0  0  0  0  0  0
  -25.9700  -16.5920   20.1890 H   0  0  0  0  0  0  0  0  0  0  0  0
  -27.5500  -16.2820   19.6790 H   0  0  0  0  0  0  0  0  0  0  0  0
  -26.6280  -25.2810   20.2940 C   0  0  0  0  0  2  0  0  0  0  0  0
  -27.1340  -25.3460   18.8410 C   0  0  0  0  0  2  0  0  0  0  0  0
  -28.0190  -26.5730   18.5540 C   0  0  0  0  0  2  0  0  0  0  0  0
  -27.3530  -27.5480   17.7630 O   0  0  0  0  0  0  0  0  0  0  0  0
  -24.9790  -31.1900   23.4140 C   0  0  0  0  0  0  0  0  0  0  0  0
  -26.3280  -28.2270   18.3700 C   0  0  0  0  0  0  0  0  0  0  0  0
  -23.3020  -30.6730   21.6710 C   0  0  0  0  0  3  0  0  0  0  0  0
  -24.2300  -29.7380   19.4880 C   0  0  0  0  0  0  0  0  0  0  0  0
  -25.7790  -30.8930   21.0770 C   0  0  0  0  0  2  0  0  0  0  0  0
  -25.5390  -29.8970   19.9640 C   0  0  0  0  0  0  0  0  0  0  0  0
  -26.5930  -29.1420   19.4090 C   0  0  0  0  0  3  0  0  0  0  0  0
  -25.0120  -28.0810   17.8900 C   0  0  0  0  0  3  0  0  0  0  0  0
  -23.9570  -28.8240   18.4560 C   0  0  0  0  0  3  0  0  0  0  0  0
  -23.1610  -30.5920   20.1280 C   0  0  0  0  0  2  0  0  0  0  0  0
  -24.7160  -30.9070   22.1080 N   0  0  0  0  0  0  0  0  0  0  0  0
  -24.0640  -31.3020   24.2410 O   0  0  0  0  0  0  0  0  0  0  0  0
  -22.6740  -29.4020   22.2870 C   0  0  0  0  0  0  0  0  0  0  0  0
  -21.3370  -29.3060   22.2230 N   0  0  0  0  0  0  0  0  0  0  0  0
  -23.3850  -28.5230   22.7820 O   0  0  0  0  0  0  0  0  0  0  0  0
  -20.8250  -30.0820   21.8270 H   0  0  0  0  0  0  0  0  0  0  0  0
  -17.9800  -27.9690   22.3460 C   0  0  0  0  0  0  0  0  0  0  0  0
  -20.5320  -28.1790   22.6930 C   0  0  0  0  0  3  0  0  0  0  0  0
  -20.6610  -26.9700   21.7390 C   0  0  0  0  0  2  0  0  0  0  0  0
  -19.5610  -26.9190   20.6750 C   0  0  0  0  0  2  0  0  0  0  0  0
  -18.1800  -26.8550   21.3330 C   0  0  0  0  0  2  0  0  0  0  0  0
  -19.0870  -28.6030   22.9730 C   0  0  0  0  0  0  0  0  0  0  0  0
  -18.8480  -29.6570   23.8810 C   0  0  0  0  0  3  0  0  0  0  0  0
  -17.5340  -30.0780   24.1650 C   0  0  0  0  0  3  0  0  0  0  0  0
  -16.4440  -29.4360   23.5530 C   0  0  0  0  0  3  0  0  0  0  0  0
  -16.6670  -28.3830   22.6510 C   0  0  0  0  0  3  0  0  0  0  0  0
  -26.4370  -31.4120   23.9260 C   0  0  0  0  0  3  0  0  0  0  0  0
  -26.4360  -32.6300   24.7460 N   0  0  0  0  0  0  0  0  0  0  0  0
  -26.9250  -33.8130   24.3500 C   0  0  0  0  0  0  0  0  0  0  0  0
  -27.4970  -33.9740   23.2680 O   0  0  0  0  0  0  0  0  0  0  0  0
  -25.9320  -32.5860   25.6190 H   0  0  0  0  0  0  0  0  0  0  0  0
  -25.6140  -35.9100   24.8020 C   0  0  0  0  0  1  0  0  0  0  0  0
  -26.7510  -35.0070   25.3070 C   0  0  0  0  0  3  0  0  0  0  0  0
  -29.0370  -35.0930   26.2000 C   0  0  0  0  0  1  0  0  0  0  0  0
  -27.9830  -35.8070   25.4820 N   0  0  0  0  0  0  0  0  0  0  0  0
  -27.7850  -36.6690   25.9810 H   0  0  0  0  0  0  0  0  0  0  0  0
  -27.0040  -30.1870   24.7430 C   0  0  1  0  0  0  0  0  0  0  0  0
  -26.0690  -29.7140   25.8800 C   0  0  0  0  0  1  0  0  0  0  0  0
  -27.2580  -28.9810   23.8080 C   0  0  0  0  0  1  0  0  0  0  0  0
  -28.3690  -30.5610   25.3660 C   0  0  0  0  0  1  0  0  0  0  0  0
  1  3  2  0
  1  5  1  0
  2  1  1  0
  4  2  1  0
  6  5  1  0
  7 11  1  0
  9  7  1  0
  9 12  1  0
 10  8  1  0
 11  6  1  0
 11  8  1  0
 12 13  1  0
 12 10  1  0
 13 22  1  0
 14 20  1  0
 15 20  1  0
 16 17  1  0
 16 15  1  0
 18 17  1  0
 18 27  1  0
 18 19  1  0
 20 19  1  0
 21 14  2  0
 22 14  1  0
 22 23  1  0
 24 25  2  0
 25 44  1  0
 26 25  1  0
 26 29  1  0
 27 28  1  0
 27 24  1  0
 28 26  2  0
 29 30  1  0
 30 31  2  0
 32 35  1  0
 32 31  1  0
 33 32  2  0
 34 33  1  0
 34 29  2  0
 35 36  1  0
 36 41  2  0
 36 37  1  0
 37 38  2  0
 38 39  1  0
 39 43  1  0
 40 39  2  0
 41 40  1  0
 42 41  1  0
 44 45  1  0
 45 48  1  0
 45 47  1  0
 46 44  2  0
 49 50  1  0
 49 24  1  0
 51 49  1  0
 52  2  1  0
 53 52  1  0
 54 53  1  0
 55 57  1  0
 55 54  1  0
 56 67  2  0
 57 62  1  0
 58 66  1  0
 58 68  1  0
 59 61  1  0
 59 65  1  0
 60 66  1  0
 61 60  1  0
 62 61  2  0
 63 57  2  0
 63 64  1  0
 64 59  2  0
 65 58  1  0
 66 56  1  0
 68 70  2  0
 69 68  1  0
 71 69  1  0
 72 81  2  0
 72 77  1  0
 73 69  1  0
 73 77  1  0
 74 73  1  0
 75 76  1  0
 75 74  1  0
 76 72  1  0
 77 78  2  0
 78 79  1  0
 80 79  2  0
 81 80  1  0
 82 56  1  0
 82 92  1  0
 82 83  1  0
 83 86  1  0
 84 83  1  0
 84 88  1  0
 85 84  2  0
 88 87  1  0
 88 90  1  0
 90 91  1  0
 90 89  1  0
 92 95  1  1
 92 93  1  0
 94 92  1  0
M  ISO  4  14 100  22 100  54 101  55 101
M  END
>  <TORSDO>  (83) 
F 23

>  <SCORE>  (83) 
-7.880

>  <name>  (83) 
83

>  <ligand_id>  (83) 
83

>  <original_smiles>  (83) 
[H]c1c([H])c([H])c2c(c1[H])C([H])([H])C([H])([H])C([H])([H])C2([H])N([H])C(=O)C1([H])N(C(=O)C([H])(N([H])C(=O)C([H])(N([H])C([H])([H])[H])C([H])([H])[H])C(C([H])([H])[H])(C([H])([H])[H])C([H])([H])[H])C([H])([H])c2c([H])c(OC([H])([H])C([H])([H])C([H])([H])N([H])C(=O)C([H])([H])C([H])([H])C3([H])C([H])([H])C([H])([H])C([H])(C([H])([H])N([H])C(=O)N4C([H])([H])C([H])([H])C([H])([H])C([H])(n5nc(-c6c([H])c([H])c(Oc7c([H])c([H])c(F)c([H])c7F)c([H])c6[H])c(C(=O)N([H])[H])c5N([H])[H])C4([H])[H])C([H])([H])C3([H])[H])c([H])c([H])c2C1([H])[H]

>  <smiles>  (83) 
[H]c1c([H])c([H])c2c(c1[H])C([H])([H])C([H])([H])C([H])([H])C2([H])N([H])C(=O)C1([H])N(C(=O)C([H])(N([H])C(=O)C([H])(N([H])C([H])([H])[H])C([H])([H])[H])C(C([H])([H])[H])(C([H])([H])[H])C([H])([H])[H])C([H])([H])c2c([H])c(OC([H])([H])C([H])([H])C([H])([H])N([H])C(=O)C([H])([H])C([H])([H])C3([H])C([H])([H])C([H])([H])C([H])(C([H])([H])N([H])C(=O)N4C([H])([H])C([H])([H])C([H])([H])C([H])(n5nc(-c6c([H])c([H])c(Oc7c([H])c([H])c(F)c([H])c7F)c([H])c6[H])c(C(=O)N([H])[H])c5N([H])[H])C4([H])[H])C([H])([H])C3([H])[H])c([H])c([H])c2C1([H])[H]

$$$$
84:0:0
     RDKit          3D

 94102  0  0  1  0  0  0  0  0999 V2000
  -31.4060  -22.1070   20.3670 C   0  0  0  0  0  2  0  0  0  0  0  0
  -31.3480  -18.2670   20.0220 C   0  0  0  0  0  2  0  0  0  0  0  0
  -31.6920  -19.7510   19.7660 C   0  0  0  0  0  2  0  0  0  0  0  0
  -31.0350  -20.3710   22.1090 C   0  0  0  0  0  2  0  0  0  0  0  0
  -31.0230  -17.9050   21.4870 C   0  0  0  0  0  3  0  0  0  0  0  0
  -31.5790  -18.9650   22.4600 C   0  0  0  0  0  3  0  0  0  0  0  0
  -33.1140  -18.9380   22.6430 C   0  0  0  0  0  1  0  0  0  0  0  0
  -30.9790  -20.7080   20.6530 N   0  0  1  0  0  4  0  0  0  0  0  0
  -30.0050  -20.6430   20.3900 H   0  0  0  0  0  0  0  0  0  0  0  0
  -31.4360  -16.4650   21.8790 C   0  0  0  0  0  2  0  0  0  0  0  0
  -30.9080  -14.7410   20.1550 C   0  0  0  0  0  0  0  0  0  0  0  0
  -30.5220  -12.6600   18.8940 C   0  0  0  0  0  2  0  0  0  0  0  0
  -29.4890  -12.8370   17.7680 C   0  0  0  0  0  2  0  0  0  0  0  0
  -28.0640  -12.6130   18.3050 C   0  0  0  0  0  2  0  0  0  0  0  0
  -27.7780  -13.4390   19.5860 C   0  0  0  0  0  3  0  0  0  0  0  0
  -28.9120  -13.2670   20.6200 C   0  0  0  0  0  2  0  0  0  0  0  0
  -30.1950  -13.6020   19.9740 N   0  0  0  0  0  0  0  0  0  0  0  0
  -31.8370  -15.0810   19.4190 O   0  0  0  0  0  0  0  0  0  0  0  0
  -30.6120  -15.4230   21.2690 N   0  0  0  0  0  0  0  0  0  0  0  0
  -29.8470  -15.0590   21.8200 H   0  0  0  0  0  0  0  0  0  0  0  0
  -25.4280  -13.9370   20.5110 C   0  0  0  0  0  0  0  0  0  0  0  0
  -24.4150  -13.1160   20.9240 C   0  0  0  0  0  0  0  0  0  0  0  0
  -24.9090  -11.7820   20.7890 C   0  0  0  0  0  0  0  0  0  0  0  0
  -26.4760  -13.1020   20.1560 N   0  0  0  0  0  0  0  0  0  0  0  0
  -26.1700  -11.7980   20.3770 N   0  0  0  0  0  0  0  0  0  0  0  0
  -24.2360  -10.4900   20.9730 C   0  0  0  0  0  0  0  0  0  0  0  0
  -24.6450   -9.5790   21.9730 C   0  0  0  0  0  3  0  0  0  0  0  0
  -23.9710   -8.3510   22.1420 C   0  0  0  0  0  3  0  0  0  0  0  0
  -22.8750   -8.0220   21.3090 C   0  0  0  0  0  0  0  0  0  0  0  0
  -22.4860   -8.9220   20.3010 C   0  0  0  0  0  3  0  0  0  0  0  0
  -23.1620  -10.1420   20.1310 C   0  0  0  0  0  3  0  0  0  0  0  0
  -22.1770   -6.8420   21.3840 O   0  0  0  0  0  0  0  0  0  0  0  0
  -21.9550   -6.2100   22.5810 C   0  0  0  0  0  0  0  0  0  0  0  0
  -21.2180   -6.8200   23.6200 C   0  0  0  0  0  3  0  0  0  0  0  0
  -20.9540   -6.1090   24.8080 C   0  0  0  0  0  3  0  0  0  0  0  0
  -21.4170   -4.7880   24.9550 C   0  0  0  0  0  0  0  0  0  0  0  0
  -22.1470   -4.1770   23.9200 C   0  0  0  0  0  3  0  0  0  0  0  0
  -22.4120   -4.8860   22.7350 C   0  0  0  0  0  0  0  0  0  0  0  0
  -23.0970   -4.2850   21.7320 F   0  0  0  0  0  0  0  0  0  0  0  0
  -21.1580   -4.1010   26.0930 F   0  0  0  0  0  0  0  0  0  0  0  0
  -23.0320  -13.5340   21.3320 C   0  0  0  0  0  0  0  0  0  0  0  0
  -22.3890  -12.7620   22.2020 N   0  0  0  0  0  0  0  0  0  0  0  0
  -22.5320  -14.5790   20.9160 O   0  0  0  0  0  0  0  0  0  0  0  0
  -22.8060  -11.9160   22.5590 H   0  0  0  0  0  0  0  0  0  0  0  0
  -21.4650  -13.0230   22.5170 H   0  0  0  0  0  0  0  0  0  0  0  0
  -25.5410  -15.3200   20.3930 N   0  0  0  0  0  0  0  0  0  0  0  0
  -24.7700  -15.9460   20.5980 H   0  0  0  0  0  0  0  0  0  0  0  0
  -26.3600  -15.8010   20.0390 H   0  0  0  0  0  0  0  0  0  0  0  0
  -30.6100  -23.2040   21.1130 C   0  0  0  0  0  2  0  0  0  0  0  0
  -29.4380  -23.7650   20.3120 C   0  0  0  0  0  0  0  0  0  0  0  0
  -28.5940  -23.0150   19.8160 O   0  0  0  0  0  0  0  0  0  0  0  0
  -29.3860  -25.2870   20.1550 C   0  0  0  0  0  2  0  0  0  0  0  0
  -28.0580  -25.8320   19.6080 C   0  0  0  0  0  2  0  0  0  0  0  0
  -28.1240  -27.2550   19.6490 O   0  0  0  0  0  0  0  0  0  0  0  0
  -24.5180  -32.0370   23.4360 C   0  0  0  0  0  0  0  0  0  0  0  0
  -26.9380  -27.9420   19.7740 C   0  0  0  0  0  0  0  0  0  0  0  0
  -23.2040  -30.8240   21.7230 C   0  0  0  0  0  3  0  0  0  0  0  0
  -24.5580  -29.4310   20.0730 C   0  0  0  0  0  0  0  0  0  0  0  0
  -25.7170  -31.1910   21.4220 C   0  0  0  0  0  2  0  0  0  0  0  0
  -25.7510  -29.8940   20.6420 C   0  0  0  0  0  0  0  0  0  0  0  0
  -26.9430  -29.1590   20.4870 C   0  0  0  0  0  3  0  0  0  0  0  0
  -25.7270  -27.4830   19.2060 C   0  0  0  0  0  3  0  0  0  0  0  0
  -24.5390  -28.2240   19.3540 C   0  0  0  0  0  3  0  0  0  0  0  0
  -23.3290  -30.2850   20.2730 C   0  0  0  0  0  2  0  0  0  0  0  0
  -24.5010  -31.3590   22.2520 N   0  0  0  0  0  0  0  0  0  0  0  0
  -23.4720  -32.2620   24.0610 O   0  0  0  0  0  0  0  0  0  0  0  0
  -22.5960  -29.7120   22.6070 C   0  0  0  0  0  0  0  0  0  0  0  0
  -21.2820  -29.4800   22.4490 N   0  0  0  0  0  0  0  0  0  0  0  0
  -23.3000  -29.0640   23.3850 O   0  0  0  0  0  0  0  0  0  0  0  0
  -20.7730  -30.0610   21.7980 H   0  0  0  0  0  0  0  0  0  0  0  0
  -17.9710  -28.0740   22.7770 C   0  0  0  0  0  0  0  0  0  0  0  0
  -20.5010  -28.4580   23.1430 C   0  0  0  0  0  3  0  0  0  0  0  0
  -20.7020  -27.0670   22.4980 C   0  0  0  0  0  2  0  0  0  0  0  0
  -19.6510  -26.7390   21.4320 C   0  0  0  0  0  2  0  0  0  0  0  0
  -18.2450  -26.7730   22.0390 C   0  0  0  0  0  2  0  0  0  0  0  0
  -19.0320  -28.8730   23.2810 C   0  0  0  0  0  0  0  0  0  0  0  0
  -18.7250  -30.0910   23.9280 C   0  0  0  0  0  3  0  0  0  0  0  0
  -17.3900  -30.5120   24.0750 C   0  0  0  0  0  3  0  0  0  0  0  0
  -16.3440  -29.7080   23.5880 C   0  0  0  0  0  3  0  0  0  0  0  0
  -16.6340  -28.4920   22.9440 C   0  0  0  0  0  3  0  0  0  0  0  0
  -25.8470  -32.5850   24.0480 C   0  0  0  0  0  3  0  0  0  0  0  0
  -25.5920  -33.9580   24.5010 N   0  0  0  0  0  0  0  0  0  0  0  0
  -25.9740  -35.0580   23.8400 C   0  0  0  0  0  0  0  0  0  0  0  0
  -26.6490  -35.0200   22.8070 O   0  0  0  0  0  0  0  0  0  0  0  0
  -24.9970  -34.0680   25.3090 H   0  0  0  0  0  0  0  0  0  0  0  0
  -24.3650  -36.9730   23.5900 C   0  0  0  0  0  1  0  0  0  0  0  0
  -25.5350  -36.4150   24.4170 C   0  0  0  0  0  3  0  0  0  0  0  0
  -27.6530  -37.0920   25.4570 C   0  0  0  0  0  1  0  0  0  0  0  0
  -26.6250  -37.4110   24.4690 N   0  0  0  0  0  0  0  0  0  0  0  0
  -26.2580  -38.3340   24.6850 H   0  0  0  0  0  0  0  0  0  0  0  0
  -26.4020  -31.7000   25.2300 C   0  0  1  0  0  0  0  0  0  0  0  0
  -25.3460  -31.3800   26.3120 C   0  0  0  0  0  1  0  0  0  0  0  0
  -26.9510  -30.3580   24.6920 C   0  0  0  0  0  1  0  0  0  0  0  0
  -27.5880  -32.4200   25.9150 C   0  0  0  0  0  1  0  0  0  0  0  0
  1  8  1  0
  1 49  1  0
  2  5  1  0
  3  2  1  0
  3  8  1  0
  4  6  1  0
  5 10  1  0
  5  6  1  0
  6  7  1  0
  8  4  1  0
  8  9  1  6
 11 19  1  0
 12 17  1  0
 13 14  1  0
 13 12  1  0
 15 14  1  0
 15 24  1  0
 15 16  1  0
 17 11  1  0
 17 16  1  0
 18 11  2  0
 19 20  1  0
 19 10  1  0
 21 22  2  0
 22 41  1  0
 23 22  1  0
 23 26  1  0
 24 25  1  0
 24 21  1  0
 25 23  2  0
 26 27  1  0
 27 28  2  0
 29 32  1  0
 29 28  1  0
 30 29  2  0
 31 30  1  0
 31 26  2  0
 32 33  1  0
 33 38  2  0
 33 34  1  0
 34 35  2  0
 35 36  1  0
 36 40  1  0
 37 36  2  0
 38 37  1  0
 39 38  1  0
 41 42  1  0
 42 45  1  0
 42 44  1  0
 43 41  2  0
 46 21  1  0
 46 47  1  0
 48 46  1  0
 50 49  1  0
 51 50  2  0
 52 50  1  0
 53 54  1  0
 53 52  1  0
 54 56  1  0
 55 66  2  0
 56 61  1  0
 57 65  1  0
 57 67  1  0
 58 64  1  0
 58 60  1  0
 59 65  1  0
 60 59  1  0
 61 60  2  0
 62 63  1  0
 62 56  2  0
 63 58  2  0
 64 57  1  0
 65 55  1  0
 67 69  2  0
 68 67  1  0
 70 68  1  0
 71 80  2  0
 71 76  1  0
 72 68  1  0
 72 76  1  0
 73 72  1  0
 74 75  1  0
 74 73  1  0
 75 71  1  0
 76 77  2  0
 77 78  1  0
 79 78  2  0
 80 79  1  0
 81 55  1  0
 81 82  1  0
 81 91  1  0
 82 85  1  0
 83 87  1  0
 83 82  1  0
 84 83  2  0
 87 86  1  0
 87 89  1  0
 89 90  1  0
 89 88  1  0
 91 94  1  1
 91 92  1  0
 93 91  1  0
M  ISO  4  11 100  19 100  53 101  54 101
M  END
>  <TORSDO>  (84) 
F 22

>  <SCORE>  (84) 
-11.056

>  <name>  (84) 
84

>  <ligand_id>  (84) 
84

>  <original_smiles>  (84) 
[H]c1c([H])c([H])c2c(c1[H])C([H])([H])C([H])([H])C([H])([H])C2([H])N([H])C(=O)C1([H])N(C(=O)C([H])(N([H])C(=O)C([H])(N([H])C([H])([H])[H])C([H])([H])[H])C(C([H])([H])[H])(C([H])([H])[H])C([H])([H])[H])C([H])([H])c2c([H])c(OC([H])([H])C([H])([H])C(=O)C([H])([H])C([H])([H])[N+]3([H])C([H])([H])C([H])([H])C([H])(C([H])([H])N([H])C(=O)N4C([H])([H])C([H])([H])C([H])([H])C([H])(n5nc(-c6c([H])c([H])c(Oc7c([H])c([H])c(F)c([H])c7F)c([H])c6[H])c(C(=O)N([H])[H])c5N([H])[H])C4([H])[H])C([H])(C([H])([H])[H])C3([H])[H])c([H])c([H])c2C1([H])[H]

>  <smiles>  (84) 
[H]c1c([H])c([H])c2c(c1[H])C([H])([H])C([H])([H])C([H])([H])C2([H])N([H])C(=O)C1([H])N(C(=O)C([H])(N([H])C(=O)C([H])(N([H])C([H])([H])[H])C([H])([H])[H])C(C([H])([H])[H])(C([H])([H])[H])C([H])([H])[H])C([H])([H])c2c([H])c(OC([H])([H])C([H])([H])C(=O)C([H])([H])C([H])([H])[N+]3([H])C([H])([H])C([H])([H])C([H])(C([H])([H])N([H])C(=O)N4C([H])([H])C([H])([H])C([H])([H])C([H])(n5nc(-c6c([H])c([H])c(Oc7c([H])c([H])c(F)c([H])c7F)c([H])c6[H])c(C(=O)N([H])[H])c5N([H])[H])C4([H])[H])C([H])(C([H])([H])[H])C3([H])[H])c([H])c([H])c2C1([H])[H]

$$$$
85:0:0
     RDKit          3D

 96104  0  0  1  0  0  0  0  0999 V2000
  -26.4390  -22.1120   20.8580 C   0  0  0  0  0  2  0  0  0  0  0  0
  -28.3790  -23.5840   20.3040 C   0  0  0  0  0  2  0  0  0  0  0  0
  -26.9040  -21.1060   19.7710 C   0  0  0  0  0  2  0  0  0  0  0  0
  -28.8030  -22.5860   19.2090 C   0  0  0  0  0  2  0  0  0  0  0  0
  -26.8600  -23.5710   20.5700 C   0  0  0  0  0  3  0  0  0  0  0  0
  -28.3660  -21.1930   19.4840 N   0  0  2  0  0  4  0  0  0  0  0  0
  -28.8640  -20.8980   20.3130 H   0  0  0  0  0  0  0  0  0  0  0  0
  -26.0130  -24.2050   19.5160 N   0  0  0  0  0  4  0  0  0  0  0  0
  -25.0970  -24.3210   19.9260 H   0  0  0  0  0  0  0  0  0  0  0  0
  -25.8760  -23.5920   18.7310 H   0  0  0  0  0  0  0  0  0  0  0  0
  -26.3970  -25.5470   19.0000 C   0  0  0  0  0  2  0  0  0  0  0  0
  -27.2600  -25.4420   17.7160 C   0  0  0  0  0  2  0  0  0  0  0  0
  -27.8250  -26.7500   17.1360 C   0  0  0  0  0  2  0  0  0  0  0  0
  -26.8110  -27.5120   16.4800 O   0  0  0  0  0  0  0  0  0  0  0  0
  -25.4430  -29.5040   23.1600 C   0  0  0  0  0  0  0  0  0  0  0  0
  -26.0150  -28.2320   17.3280 C   0  0  0  0  0  0  0  0  0  0  0  0
  -23.6350  -29.8890   21.5130 C   0  0  0  0  0  3  0  0  0  0  0  0
  -24.2890  -29.6160   19.0660 C   0  0  0  0  0  0  0  0  0  0  0  0
  -26.0870  -29.8630   20.7920 C   0  0  0  0  0  2  0  0  0  0  0  0
  -25.6150  -29.3690   19.4440 C   0  0  0  0  0  0  0  0  0  0  0  0
  -26.4830  -28.6660   18.5840 C   0  0  0  0  0  3  0  0  0  0  0  0
  -24.6940  -28.5180   16.9360 C   0  0  0  0  0  3  0  0  0  0  0  0
  -23.8180  -29.1880   17.8100 C   0  0  0  0  0  3  0  0  0  0  0  0
  -23.4240  -30.3660   20.0520 C   0  0  0  0  0  2  0  0  0  0  0  0
  -25.0820  -29.7190   21.8640 N   0  0  0  0  0  0  0  0  0  0  0  0
  -24.5990  -29.4770   24.0650 O   0  0  0  0  0  0  0  0  0  0  0  0
  -22.8020  -28.6080   21.7430 C   0  0  0  0  0  0  0  0  0  0  0  0
  -21.4680  -28.7560   21.7550 N   0  0  0  0  0  0  0  0  0  0  0  0
  -23.3510  -27.5120   21.8750 O   0  0  0  0  0  0  0  0  0  0  0  0
  -21.0920  -29.6860   21.6370 H   0  0  0  0  0  0  0  0  0  0  0  0
  -17.9340  -28.0080   21.6910 C   0  0  0  0  0  0  0  0  0  0  0  0
  -20.4860  -27.6870   21.9280 C   0  0  0  0  0  3  0  0  0  0  0  0
  -20.3920  -26.8070   20.6600 C   0  0  0  0  0  2  0  0  0  0  0  0
  -19.2910  -27.2490   19.6920 C   0  0  0  0  0  2  0  0  0  0  0  0
  -17.9250  -27.2360   20.3830 C   0  0  0  0  0  2  0  0  0  0  0  0
  -19.1360  -28.2320   22.4100 C   0  0  0  0  0  0  0  0  0  0  0  0
  -19.0930  -28.9820   23.6060 C   0  0  0  0  0  3  0  0  0  0  0  0
  -17.8710  -29.4960   24.0860 C   0  0  0  0  0  3  0  0  0  0  0  0
  -16.6810  -29.2570   23.3810 C   0  0  0  0  0  3  0  0  0  0  0  0
  -16.7140  -28.5120   22.1880 C   0  0  0  0  0  3  0  0  0  0  0  0
  -26.9380  -29.3060   23.5650 C   0  0  0  0  0  3  0  0  0  0  0  0
  -27.1640  -30.0640   24.8020 N   0  0  0  0  0  0  0  0  0  0  0  0
  -27.8550  -31.2090   24.8790 C   0  0  0  0  0  0  0  0  0  0  0  0
  -28.4420  -31.7050   23.9120 O   0  0  0  0  0  0  0  0  0  0  0  0
  -26.6710  -29.7380   25.6210 H   0  0  0  0  0  0  0  0  0  0  0  0
  -26.9830  -33.1430   26.2300 C   0  0  0  0  0  1  0  0  0  0  0  0
  -27.9060  -31.9140   26.2470 C   0  0  0  0  0  3  0  0  0  0  0  0
  -30.1460  -31.1950   26.9510 C   0  0  0  0  0  1  0  0  0  0  0  0
  -29.2700  -32.3230   26.6500 N   0  0  0  0  0  0  0  0  0  0  0  0
  -29.2360  -32.9230   27.4720 H   0  0  0  0  0  0  0  0  0  0  0  0
  -27.3320  -27.7900   23.7630 C   0  0  1  0  0  0  0  0  0  0  0  0
  -26.3820  -27.0200   24.7090 C   0  0  0  0  0  1  0  0  0  0  0  0
  -27.3520  -27.0430   22.4080 C   0  0  0  0  0  1  0  0  0  0  0  0
  -28.7610  -27.6900   24.3450 C   0  0  0  0  0  1  0  0  0  0  0  0
  -28.8000  -20.2920   18.3780 C   0  0  0  0  0  2  0  0  0  0  0  0
  -29.0880  -18.8440   18.8190 C   0  0  0  0  0  2  0  0  0  0  0  0
  -30.3500  -18.2760   18.1260 C   0  0  0  0  0  2  0  0  0  0  0  0
  -31.2950  -17.4930   19.0580 C   0  0  0  0  0  2  0  0  0  0  0  0
  -31.4220  -15.0210   18.8660 C   0  0  0  0  0  0  0  0  0  0  0  0
  -31.3670  -12.5550   18.8200 C   0  0  0  0  0  2  0  0  0  0  0  0
  -30.3600  -12.0310   17.7800 C   0  0  0  0  0  2  0  0  0  0  0  0
  -28.9420  -11.9550   18.3790 C   0  0  0  0  0  2  0  0  0  0  0  0
  -28.5280  -13.2610   19.1070 C   0  0  0  0  0  3  0  0  0  0  0  0
  -29.6380  -13.7120   20.0790 C   0  0  0  0  0  2  0  0  0  0  0  0
  -30.8910  -13.8550   19.3160 N   0  0  0  0  0  0  0  0  0  0  0  0
  -32.3810  -15.0720   18.0920 O   0  0  0  0  0  0  0  0  0  0  0  0
  -30.8380  -16.1330   19.3290 N   0  0  0  0  0  0  0  0  0  0  0  0
  -30.0730  -16.0120   19.9770 H   0  0  0  0  0  0  0  0  0  0  0  0
  -26.3820  -14.0730   20.2800 C   0  0  0  0  0  0  0  0  0  0  0  0
  -25.2900  -13.4000   20.7590 C   0  0  0  0  0  0  0  0  0  0  0  0
  -25.5450  -12.0160   20.5180 C   0  0  0  0  0  0  0  0  0  0  0  0
  -27.2430  -13.1050   19.7870 N   0  0  0  0  0  0  0  0  0  0  0  0
  -26.7490  -11.8540   19.9830 N   0  0  0  0  0  0  0  0  0  0  0  0
  -24.6920  -10.8380   20.7110 C   0  0  0  0  0  0  0  0  0  0  0  0
  -25.0430   -9.8140   21.6190 C   0  0  0  0  0  3  0  0  0  0  0  0
  -24.1990   -8.6980   21.8020 C   0  0  0  0  0  3  0  0  0  0  0  0
  -22.9860   -8.5980   21.0770 C   0  0  0  0  0  0  0  0  0  0  0  0
  -22.6520   -9.6090   20.1580 C   0  0  0  0  0  3  0  0  0  0  0  0
  -23.4980  -10.7160   19.9740 C   0  0  0  0  0  3  0  0  0  0  0  0
  -22.1170   -7.5400   21.1710 O   0  0  0  0  0  0  0  0  0  0  0  0
  -21.8810   -6.9040   22.3640 C   0  0  0  0  0  0  0  0  0  0  0  0
  -21.3520   -7.5870   23.4800 C   0  0  0  0  0  3  0  0  0  0  0  0
  -21.0600   -6.8810   24.6650 C   0  0  0  0  0  3  0  0  0  0  0  0
  -21.2870   -5.4930   24.7310 C   0  0  0  0  0  0  0  0  0  0  0  0
  -21.8090   -4.8100   23.6190 C   0  0  0  0  0  3  0  0  0  0  0  0
  -22.1030   -5.5140   22.4380 C   0  0  0  0  0  0  0  0  0  0  0  0
  -22.5860   -4.8460   21.3620 F   0  0  0  0  0  0  0  0  0  0  0  0
  -21.0000   -4.8130   25.8650 F   0  0  0  0  0  0  0  0  0  0  0  0
  -24.0380  -14.0070   21.3190 C   0  0  0  0  0  0  0  0  0  0  0  0
  -23.3780  -13.3170   22.2420 N   0  0  0  0  0  0  0  0  0  0  0  0
  -23.6600  -15.1260   20.9740 O   0  0  0  0  0  0  0  0  0  0  0  0
  -23.6990  -12.4090   22.5450 H   0  0  0  0  0  0  0  0  0  0  0  0
  -22.5390  -13.7030   22.6540 H   0  0  0  0  0  0  0  0  0  0  0  0
  -26.7090  -15.4260   20.2040 N   0  0  0  0  0  0  0  0  0  0  0  0
  -26.0650  -16.1540   20.4880 H   0  0  0  0  0  0  0  0  0  0  0  0
  -27.5420  -15.7820   19.7550 H   0  0  0  0  0  0  0  0  0  0  0  0
  2  5  1  0
  3  1  1  0
  4  6  1  0
  4  2  1  0
  5  8  1  0
  5  1  1  0
  6  3  1  0
  6  7  1  1
  8  9  1  0
 10  8  1  0
 11  8  1  0
 12 11  1  0
 13 12  1  0
 14 13  1  0
 14 16  1  0
 15 26  2  0
 16 21  1  0
 17 27  1  0
 17 25  1  0
 18 20  1  0
 18 24  1  0
 19 25  1  0
 20 19  1  0
 21 20  2  0
 22 16  2  0
 22 23  1  0
 23 18  2  0
 24 17  1  0
 25 15  1  0
 27 28  1  0
 27 29  2  0
 30 28  1  0
 31 40  2  0
 31 36  1  0
 32 28  1  0
 32 36  1  0
 33 32  1  0
 34 35  1  0
 34 33  1  0
 35 31  1  0
 36 37  2  0
 37 38  1  0
 39 38  2  0
 40 39  1  0
 41 15  1  0
 41 51  1  0
 41 42  1  0
 42 43  1  0
 42 45  1  0
 43 47  1  0
 44 43  2  0
 47 46  1  0
 47 49  1  0
 49 48  1  0
 49 50  1  0
 51 54  1  1
 51 52  1  0
 53 51  1  0
 55 56  1  0
 55  6  1  0
 57 56  1  0
 57 58  1  0
 58 67  1  0
 59 65  1  0
 59 67  1  0
 60 65  1  0
 61 62  1  0
 61 60  1  0
 63 62  1  0
 63 72  1  0
 63 64  1  0
 65 64  1  0
 66 59  2  0
 67 68  1  0
 69 70  2  0
 70 89  1  0
 71 74  1  0
 71 70  1  0
 72 73  1  0
 72 69  1  0
 73 71  2  0
 74 75  1  0
 75 76  2  0
 77 80  1  0
 77 76  1  0
 78 77  2  0
 79 78  1  0
 79 74  2  0
 80 81  1  0
 81 86  2  0
 81 82  1  0
 82 83  2  0
 83 84  1  0
 84 88  1  0
 85 84  2  0
 86 85  1  0
 87 86  1  0
 89 90  1  0
 90 92  1  0
 90 93  1  0
 91 89  2  0
 94 69  1  0
 94 95  1  0
 96 94  1  0
M  ISO  4  13 101  14 101  59 100  67 100
M  END
>  <TORSDO>  (85) 
F 24

>  <SCORE>  (85) 
-7.932

>  <name>  (85) 
85

>  <ligand_id>  (85) 
85

>  <original_smiles>  (85) 
[H]c1c([H])c([H])c2c(c1[H])C([H])([H])C([H])([H])C([H])([H])C2([H])N([H])C(=O)C1([H])N(C(=O)C([H])(N([H])C(=O)C([H])(N([H])C([H])([H])[H])C([H])([H])[H])C(C([H])([H])[H])(C([H])([H])[H])C([H])([H])[H])C([H])([H])c2c([H])c(OC([H])([H])C([H])([H])C([H])([H])[N+]([H])([H])C3([H])C([H])([H])C([H])([H])[N+]([H])(C([H])([H])C([H])([H])C([H])([H])C([H])([H])N([H])C(=O)N4C([H])([H])C([H])([H])C([H])([H])C([H])(n5nc(-c6c([H])c([H])c(Oc7c([H])c([H])c(F)c([H])c7F)c([H])c6[H])c(C(=O)N([H])[H])c5N([H])[H])C4([H])[H])C([H])([H])C3([H])[H])c([H])c([H])c2C1([H])[H]

>  <smiles>  (85) 
[H]c1c([H])c([H])c2c(c1[H])C([H])([H])C([H])([H])C([H])([H])C2([H])N([H])C(=O)C1([H])N(C(=O)C([H])(N([H])C(=O)C([H])(N([H])C([H])([H])[H])C([H])([H])[H])C(C([H])([H])[H])(C([H])([H])[H])C([H])([H])[H])C([H])([H])c2c([H])c(OC([H])([H])C([H])([H])C([H])([H])[N+]([H])([H])C3([H])C([H])([H])C([H])([H])[N+]([H])(C([H])([H])C([H])([H])C([H])([H])C([H])([H])N([H])C(=O)N4C([H])([H])C([H])([H])C([H])([H])C([H])(n5nc(-c6c([H])c([H])c(Oc7c([H])c([H])c(F)c([H])c7F)c([H])c6[H])c(C(=O)N([H])[H])c5N([H])[H])C4([H])[H])C([H])([H])C3([H])[H])c([H])c([H])c2C1([H])[H]

$$$$
86:0:0
     RDKit          3D

 91 99  0  0  1  0  0  0  0  0999 V2000
  -29.5010  -19.7940   22.0840 C   0  0  0  0  0  3  0  0  0  0  0  0
  -29.7980  -19.8930   19.6640 C   0  0  0  0  0  3  0  0  0  0  0  0
  -29.2730  -21.1830   22.1100 C   0  0  0  0  0  3  0  0  0  0  0  0
  -29.5700  -21.2840   19.6920 C   0  0  0  0  0  3  0  0  0  0  0  0
  -29.6980  -19.1350   20.8530 C   0  0  0  0  0  0  0  0  0  0  0  0
  -29.2370  -21.9180   20.9080 C   0  0  0  0  0  0  0  0  0  0  0  0
  -29.6480  -17.6190   20.7870 C   0  0  0  0  0  2  0  0  0  0  0  0
  -30.9820  -16.9040   21.0220 C   0  0  0  0  0  2  0  0  0  0  0  0
  -31.2020  -14.5960   20.1050 C   0  0  0  0  0  0  0  0  0  0  0  0
  -30.7980  -12.4550   18.9530 C   0  0  0  0  0  2  0  0  0  0  0  0
  -29.8140  -12.6480   17.7810 C   0  0  0  0  0  2  0  0  0  0  0  0
  -28.3570  -12.5390   18.2610 C   0  0  0  0  0  2  0  0  0  0  0  0
  -28.0760  -13.4180   19.5060 C   0  0  0  0  0  3  0  0  0  0  0  0
  -29.1570  -13.1960   20.5900 C   0  0  0  0  0  2  0  0  0  0  0  0
  -30.4840  -13.4480   19.9910 N   0  0  0  0  0  0  0  0  0  0  0  0
  -32.1910  -14.8530   19.4130 O   0  0  0  0  0  0  0  0  0  0  0  0
  -30.7370  -15.4620   21.0110 N   0  0  0  0  0  0  0  0  0  0  0  0
  -29.9890  -15.1270   21.5970 H   0  0  0  0  0  0  0  0  0  0  0  0
  -25.7210  -14.0950   20.3080 C   0  0  0  0  0  0  0  0  0  0  0  0
  -24.6410  -13.3520   20.7070 C   0  0  0  0  0  0  0  0  0  0  0  0
  -25.0570  -11.9870   20.6360 C   0  0  0  0  0  0  0  0  0  0  0  0
  -26.7290  -13.1850   20.0280 N   0  0  0  0  0  0  0  0  0  0  0  0
  -26.3310  -11.9110   20.2760 N   0  0  0  0  0  0  0  0  0  0  0  0
  -24.2970  -10.7450   20.8330 C   0  0  0  0  0  0  0  0  0  0  0  0
  -24.6710   -9.7990   21.8120 C   0  0  0  0  0  3  0  0  0  0  0  0
  -23.9150   -8.6200   21.9950 C   0  0  0  0  0  3  0  0  0  0  0  0
  -22.7720   -8.3800   21.1960 C   0  0  0  0  0  0  0  0  0  0  0  0
  -22.4180   -9.3150   20.2070 C   0  0  0  0  0  3  0  0  0  0  0  0
  -23.1740  -10.4850   20.0220 C   0  0  0  0  0  3  0  0  0  0  0  0
  -21.9940   -7.2510   21.2820 O   0  0  0  0  0  0  0  0  0  0  0  0
  -21.7920   -6.6080   22.4770 C   0  0  0  0  0  0  0  0  0  0  0  0
  -21.1870   -7.2530   23.5790 C   0  0  0  0  0  3  0  0  0  0  0  0
  -20.9350   -6.5350   24.7640 C   0  0  0  0  0  3  0  0  0  0  0  0
  -21.2740   -5.1710   24.8490 C   0  0  0  0  0  0  0  0  0  0  0  0
  -21.8740   -4.5250   23.7530 C   0  0  0  0  0  3  0  0  0  0  0  0
  -22.1290   -5.2420   22.5700 C   0  0  0  0  0  0  0  0  0  0  0  0
  -22.6840   -4.6090   21.5090 F   0  0  0  0  0  0  0  0  0  0  0  0
  -21.0280   -4.4790   25.9850 F   0  0  0  0  0  0  0  0  0  0  0  0
  -23.2730  -13.8710   21.0460 C   0  0  0  0  0  0  0  0  0  0  0  0
  -22.5630  -13.1890   21.9370 N   0  0  0  0  0  0  0  0  0  0  0  0
  -22.8430  -14.9130   20.5540 O   0  0  0  0  0  0  0  0  0  0  0  0
  -22.9230  -12.3440   22.3570 H   0  0  0  0  0  0  0  0  0  0  0  0
  -21.6440  -13.5170   22.2050 H   0  0  0  0  0  0  0  0  0  0  0  0
  -25.9250  -15.4620   20.1450 N   0  0  0  0  0  0  0  0  0  0  0  0
  -25.1830  -16.1390   20.2810 H   0  0  0  0  0  0  0  0  0  0  0  0
  -26.7740  -15.8760   19.7810 H   0  0  0  0  0  0  0  0  0  0  0  0
  -28.5810  -23.2870   20.8990 C   0  0  0  0  0  2  0  0  0  0  0  0
  -30.0160  -25.1630   21.8380 C   0  0  0  0  0  1  0  0  0  0  0  0
  -29.4190  -24.5510   20.5630 C   0  0  0  0  0  3  0  0  0  0  0  0
  -28.4420  -25.5180   19.8570 C   0  0  0  0  0  2  0  0  0  0  0  0
  -28.6530  -26.9380   19.9620 O   0  0  0  0  0  0  0  0  0  0  0  0
  -24.5800  -31.8090   23.1860 C   0  0  0  0  0  0  0  0  0  0  0  0
  -27.4740  -27.6660   19.9150 C   0  0  0  0  0  0  0  0  0  0  0  0
  -23.4620  -30.4270   21.4690 C   0  0  0  0  0  3  0  0  0  0  0  0
  -25.0060  -29.0540   19.9790 C   0  0  0  0  0  0  0  0  0  0  0  0
  -25.9700  -30.9240   21.3180 C   0  0  0  0  0  2  0  0  0  0  0  0
  -26.1330  -29.5970   20.6090 C   0  0  0  0  0  0  0  0  0  0  0  0
  -27.3710  -28.9100   20.5780 C   0  0  0  0  0  3  0  0  0  0  0  0
  -26.3270  -27.1650   19.2460 C   0  0  0  0  0  3  0  0  0  0  0  0
  -25.0970  -27.8340   19.2950 C   0  0  0  0  0  3  0  0  0  0  0  0
  -23.7170  -29.8370   20.0590 C   0  0  0  0  0  2  0  0  0  0  0  0
  -24.6880  -31.0660   22.0490 N   0  0  0  0  0  0  0  0  0  0  0  0
  -23.4810  -31.9990   23.7260 O   0  0  0  0  0  0  0  0  0  0  0  0
  -22.8610  -29.3220   22.3690 C   0  0  0  0  0  0  0  0  0  0  0  0
  -21.5500  -29.0730   22.2160 N   0  0  0  0  0  0  0  0  0  0  0  0
  -23.5700  -28.6970   23.1610 O   0  0  0  0  0  0  0  0  0  0  0  0
  -21.0380  -29.6350   21.5510 H   0  0  0  0  0  0  0  0  0  0  0  0
  -18.2350  -27.6970   22.6340 C   0  0  0  0  0  0  0  0  0  0  0  0
  -20.7770  -28.0590   22.9320 C   0  0  0  0  0  3  0  0  0  0  0  0
  -20.9480  -26.6660   22.2820 C   0  0  0  0  0  2  0  0  0  0  0  0
  -19.8660  -26.3470   21.2470 C   0  0  0  0  0  2  0  0  0  0  0  0
  -18.4770  -26.3940   21.8910 C   0  0  0  0  0  2  0  0  0  0  0  0
  -19.3160  -28.4860   23.1090 C   0  0  0  0  0  0  0  0  0  0  0  0
  -19.0380  -29.7050   23.7640 C   0  0  0  0  0  3  0  0  0  0  0  0
  -17.7110  -30.1380   23.9470 C   0  0  0  0  0  3  0  0  0  0  0  0
  -16.6440  -29.3460   23.4890 C   0  0  0  0  0  3  0  0  0  0  0  0
  -16.9070  -28.1260   22.8390 C   0  0  0  0  0  3  0  0  0  0  0  0
  -25.8250  -32.4770   23.8460 C   0  0  0  0  0  3  0  0  0  0  0  0
  -25.4620  -33.8610   24.1760 N   0  0  0  0  0  0  0  0  0  0  0  0
  -25.7660  -34.9270   23.4240 C   0  0  0  0  0  0  0  0  0  0  0  0
  -26.4570  -34.8510   22.4020 O   0  0  0  0  0  0  0  0  0  0  0  0
  -24.8510  -33.9900   24.9690 H   0  0  0  0  0  0  0  0  0  0  0  0
  -23.9770  -36.6500   23.0440 C   0  0  0  0  0  1  0  0  0  0  0  0
  -25.2200  -36.2930   23.8750 C   0  0  0  0  0  3  0  0  0  0  0  0
  -27.2990  -37.2620   24.7490 C   0  0  0  0  0  1  0  0  0  0  0  0
  -26.2130  -37.3850   23.7800 N   0  0  0  0  0  0  0  0  0  0  0  0
  -25.7690  -38.2890   23.9160 H   0  0  0  0  0  0  0  0  0  0  0  0
  -26.3350  -31.7110   25.1280 C   0  0  1  0  0  0  0  0  0  0  0  0
  -25.2200  -31.4090   26.1560 C   0  0  0  0  0  1  0  0  0  0  0  0
  -26.9920  -30.3670   24.7350 C   0  0  0  0  0  1  0  0  0  0  0  0
  -27.4260  -32.5460   25.8380 C   0  0  0  0  0  1  0  0  0  0  0  0
  1  3  1  0
  2  4  2  0
  2  5  1  0
  4  6  1  0
  5  1  2  0
  6  3  2  0
  7  5  1  0
  7  8  1  0
  9 17  1  0
 10 15  1  0
 11 12  1  0
 11 10  1  0
 13 12  1  0
 13 22  1  0
 13 14  1  0
 15  9  1  0
 15 14  1  0
 16  9  2  0
 17  8  1  0
 17 18  1  0
 19 20  2  0
 20 39  1  0
 21 20  1  0
 21 24  1  0
 22 23  1  0
 22 19  1  0
 23 21  2  0
 24 25  1  0
 25 26  2  0
 27 30  1  0
 27 26  1  0
 28 27  2  0
 29 28  1  0
 29 24  2  0
 30 31  1  0
 31 36  2  0
 31 32  1  0
 32 33  2  0
 33 34  1  0
 34 38  1  0
 35 34  2  0
 36 35  1  0
 37 36  1  0
 39 40  1  0
 40 43  1  0
 40 42  1  0
 41 39  2  0
 44 45  1  0
 44 19  1  0
 46 44  1  0
 47  6  1  0
 49 47  1  0
 49 48  1  0
 50 51  1  0
 50 49  1  0
 52 63  2  0
 53 51  1  0
 53 58  1  0
 54 62  1  0
 54 64  1  0
 55 61  1  0
 55 57  1  0
 56 62  1  0
 57 56  1  0
 58 57  2  0
 59 60  1  0
 59 53  2  0
 60 55  2  0
 61 54  1  0
 62 52  1  0
 64 66  2  0
 65 64  1  0
 67 65  1  0
 68 77  2  0
 68 73  1  0
 69 65  1  0
 69 73  1  0
 70 69  1  0
 71 72  1  0
 71 70  1  0
 72 68  1  0
 73 74  2  0
 74 75  1  0
 76 75  2  0
 77 76  1  0
 78 52  1  0
 78 79  1  0
 78 88  1  0
 79 82  1  0
 80 84  1  0
 80 79  1  0
 81 80  2  0
 84 83  1  0
 86 84  1  0
 86 87  1  0
 86 85  1  0
 88 91  1  1
 88 89  1  0
 90 88  1  0
M  ISO  4   9 100  17 100  50 101  51 101
M  END
>  <TORSDO>  (86) 
F 21

>  <SCORE>  (86) 
-11.970

>  <name>  (86) 
86

>  <ligand_id>  (86) 
86

>  <original_smiles>  (86) 
[H]c1c([H])c([H])c2c(c1[H])C([H])([H])C([H])([H])C([H])([H])C2([H])N([H])C(=O)C1([H])N(C(=O)C([H])(N([H])C(=O)C([H])(N([H])C([H])([H])[H])C([H])([H])[H])C(C([H])([H])[H])(C([H])([H])[H])C([H])([H])[H])C([H])([H])c2c([H])c(OC([H])([H])C([H])(C([H])([H])[H])C([H])([H])c3c([H])c([H])c(C([H])([H])C([H])([H])N([H])C(=O)N4C([H])([H])C([H])([H])C([H])([H])C([H])(n5nc(-c6c([H])c([H])c(Oc7c([H])c([H])c(F)c([H])c7F)c([H])c6[H])c(C(=O)N([H])[H])c5N([H])[H])C4([H])[H])c([H])c3[H])c([H])c([H])c2C1([H])[H]

>  <smiles>  (86) 
[H]c1c([H])c([H])c2c(c1[H])C([H])([H])C([H])([H])C([H])([H])C2([H])N([H])C(=O)C1([H])N(C(=O)C([H])(N([H])C(=O)C([H])(N([H])C([H])([H])[H])C([H])([H])[H])C(C([H])([H])[H])(C([H])([H])[H])C([H])([H])[H])C([H])([H])c2c([H])c(OC([H])([H])C([H])(C([H])([H])[H])C([H])([H])c3c([H])c([H])c(C([H])([H])C([H])([H])N([H])C(=O)N4C([H])([H])C([H])([H])C([H])([H])C([H])(n5nc(-c6c([H])c([H])c(Oc7c([H])c([H])c(F)c([H])c7F)c([H])c6[H])c(C(=O)N([H])[H])c5N([H])[H])C4([H])[H])c([H])c3[H])c([H])c([H])c2C1([H])[H]

$$$$
87:0:0
     RDKit          3D

 94102  0  0  1  0  0  0  0  0999 V2000
  -27.8590  -19.2690   20.6370 C   0  0  0  0  0  2  0  0  0  0  0  0
  -28.4830  -19.7780   19.3300 C   0  0  0  0  0  2  0  0  0  0  0  0
  -30.7770  -18.8770   19.6330 C   0  0  0  0  0  2  0  0  0  0  0  0
  -27.9120  -17.7410   20.7920 C   0  0  0  0  0  2  0  0  0  0  0  0
  -30.3910  -17.9140   20.7700 C   0  0  0  0  0  2  0  0  0  0  0  0
  -29.9120  -20.0610   19.5180 N   0  0  0  0  0  0  0  0  0  0  0  0
  -29.2000  -17.1390   20.3550 N   0  0  1  0  0  4  0  0  0  0  0  0
  -29.1990  -17.2130   19.3480 H   0  0  0  0  0  0  0  0  0  0  0  0
  -30.3690  -20.8560   18.3790 C   0  0  0  0  0  2  0  0  0  0  0  0
  -31.3650  -21.9300   18.8340 C   0  0  0  0  0  2  0  0  0  0  0  0
  -31.4110  -23.1130   17.8570 C   0  0  0  0  0  3  0  0  0  0  0  0
  -30.2580  -23.1640   17.1930 F   0  0  0  0  0  0  0  0  0  0  0  0
  -31.6200  -24.4520   18.5740 C   0  0  0  0  0  2  0  0  0  0  0  0
  -31.2070  -25.5070   17.7140 O   0  0  0  0  0  0  0  0  0  0  0  0
  -26.8050  -28.3310   22.5080 C   0  0  0  0  0  0  0  0  0  0  0  0
  -29.9510  -25.9860   17.9780 C   0  0  0  0  0  0  0  0  0  0  0  0
  -25.7700  -27.6770   20.3580 C   0  0  0  0  0  3  0  0  0  0  0  0
  -27.3970  -27.0570   18.4970 C   0  0  0  0  0  0  0  0  0  0  0  0
  -28.2400  -28.3280   20.4780 C   0  0  0  0  0  2  0  0  0  0  0  0
  -28.4800  -27.3850   19.3240 C   0  0  0  0  0  0  0  0  0  0  0  0
  -29.7580  -26.8490   19.0720 C   0  0  0  0  0  3  0  0  0  0  0  0
  -28.8590  -25.6690   17.1420 C   0  0  0  0  0  3  0  0  0  0  0  0
  -27.5790  -26.1910   17.4050 C   0  0  0  0  0  3  0  0  0  0  0  0
  -26.0650  -27.6860   18.8340 C   0  0  0  0  0  2  0  0  0  0  0  0
  -26.9550  -28.0990   21.1740 N   0  0  0  0  0  0  0  0  0  0  0  0
  -25.6960  -28.2410   23.0520 O   0  0  0  0  0  0  0  0  0  0  0  0
  -25.2260  -26.2840   20.7450 C   0  0  0  0  0  0  0  0  0  0  0  0
  -24.0190  -25.9590   20.2560 N   0  0  0  0  0  0  0  0  0  0  0  0
  -25.8930  -25.5160   21.4440 O   0  0  0  0  0  0  0  0  0  0  0  0
  -23.5350  -26.6490   19.6980 H   0  0  0  0  0  0  0  0  0  0  0  0
  -21.0930  -24.0670   19.3040 C   0  0  0  0  0  0  0  0  0  0  0  0
  -23.3200  -24.6910   20.4570 C   0  0  0  0  0  3  0  0  0  0  0  0
  -23.9580  -23.5650   19.6090 C   0  0  0  0  0  2  0  0  0  0  0  0
  -23.2880  -23.3860   18.2440 C   0  0  0  0  0  2  0  0  0  0  0  0
  -21.8020  -23.0600   18.4140 C   0  0  0  0  0  2  0  0  0  0  0  0
  -21.8100  -24.8440   20.2540 C   0  0  0  0  0  0  0  0  0  0  0  0
  -21.1090  -25.7890   21.0330 C   0  0  0  0  0  3  0  0  0  0  0  0
  -19.7200  -25.9640   20.8790 C   0  0  0  0  0  3  0  0  0  0  0  0
  -19.0140  -25.1820   19.9490 C   0  0  0  0  0  3  0  0  0  0  0  0
  -19.6980  -24.2330   19.1680 C   0  0  0  0  0  3  0  0  0  0  0  0
  -28.0140  -28.7430   23.4060 C   0  0  0  0  0  3  0  0  0  0  0  0
  -27.5910  -29.8920   24.2140 N   0  0  0  0  0  0  0  0  0  0  0  0
  -27.9100  -31.1660   23.9490 C   0  0  0  0  0  0  0  0  0  0  0  0
  -28.6620  -31.4900   23.0240 O   0  0  0  0  0  0  0  0  0  0  0  0
  -26.9270  -29.7070   24.9520 H   0  0  0  0  0  0  0  0  0  0  0  0
  -26.1080  -32.9110   24.1300 C   0  0  0  0  0  1  0  0  0  0  0  0
  -27.2960  -32.2530   24.8500 C   0  0  0  0  0  3  0  0  0  0  0  0
  -29.2820  -32.8000   26.1860 C   0  0  0  0  0  1  0  0  0  0  0  0
  -28.2640  -33.2930   25.2610 N   0  0  0  0  0  0  0  0  0  0  0  0
  -27.7880  -34.0760   25.7000 H   0  0  0  0  0  0  0  0  0  0  0  0
  -28.5330  -27.5700   24.3270 C   0  0  1  0  0  0  0  0  0  0  0  0
  -27.4180  -26.8920   25.1550 C   0  0  0  0  0  1  0  0  0  0  0  0
  -29.2250  -26.4780   23.4790 C   0  0  0  0  0  1  0  0  0  0  0  0
  -29.5990  -28.1090   25.3100 C   0  0  0  0  0  1  0  0  0  0  0  0
  -29.2430  -15.6870   20.6390 C   0  0  0  0  0  2  0  0  0  0  0  0
  -30.5670  -14.9940   20.2420 C   0  0  0  0  0  2  0  0  0  0  0  0
  -31.2780  -12.6900   20.7450 C   0  0  0  0  0  0  0  0  0  0  0  0
  -31.0270  -10.2460   20.9160 C   0  0  0  0  0  2  0  0  0  0  0  0
  -30.2870   -9.6840   19.6850 C   0  0  0  0  0  2  0  0  0  0  0  0
  -28.7590   -9.7560   19.8740 C   0  0  0  0  0  2  0  0  0  0  0  0
  -28.2880  -11.1600   20.3340 C   0  0  0  0  0  3  0  0  0  0  0  0
  -29.1320  -11.6430   21.5340 C   0  0  0  0  0  2  0  0  0  0  0  0
  -30.5640  -11.6150   21.1580 N   0  0  0  0  0  0  0  0  0  0  0  0
  -32.3300  -12.6310   20.1020 O   0  0  0  0  0  0  0  0  0  0  0  0
  -30.7380  -13.8480   21.1200 N   0  0  0  0  0  0  0  0  0  0  0  0
  -30.0350  -13.7450   21.8370 H   0  0  0  0  0  0  0  0  0  0  0  0
  -25.9600  -12.2220   20.6670 C   0  0  0  0  0  0  0  0  0  0  0  0
  -24.7390  -11.6710   20.9540 C   0  0  0  0  0  0  0  0  0  0  0  0
  -24.9600  -10.2660   21.0830 C   0  0  0  0  0  0  0  0  0  0  0  0
  -26.8580  -11.1630   20.6440 N   0  0  0  0  0  0  0  0  0  0  0  0
  -26.2500   -9.9890   20.9470 N   0  0  0  0  0  0  0  0  0  0  0  0
  -24.0100   -9.1600   21.2730 C   0  0  0  0  0  0  0  0  0  0  0  0
  -23.9680   -8.4240   22.4780 C   0  0  0  0  0  3  0  0  0  0  0  0
  -23.0340   -7.3800   22.6450 C   0  0  0  0  0  3  0  0  0  0  0  0
  -22.1310   -7.0600   21.6030 C   0  0  0  0  0  0  0  0  0  0  0  0
  -22.1940   -7.7810   20.3970 C   0  0  0  0  0  3  0  0  0  0  0  0
  -23.1240   -8.8200   20.2320 C   0  0  0  0  0  3  0  0  0  0  0  0
  -21.2090   -6.0430   21.6660 O   0  0  0  0  0  0  0  0  0  0  0  0
  -20.4980   -5.7860   22.8120 C   0  0  0  0  0  0  0  0  0  0  0  0
  -19.6520   -6.7520   23.3950 C   0  0  0  0  0  3  0  0  0  0  0  0
  -18.8880   -6.4250   24.5340 C   0  0  0  0  0  3  0  0  0  0  0  0
  -18.9600   -5.1290   25.0810 C   0  0  0  0  0  0  0  0  0  0  0  0
  -19.7970   -4.1630   24.4960 C   0  0  0  0  0  3  0  0  0  0  0  0
  -20.5630   -4.4900   23.3630 C   0  0  0  0  0  0  0  0  0  0  0  0
  -21.3500   -3.5490   22.7910 F   0  0  0  0  0  0  0  0  0  0  0  0
  -18.2200   -4.8100   26.1690 F   0  0  0  0  0  0  0  0  0  0  0  0
  -23.4230  -12.3910   21.0080 C   0  0  0  0  0  0  0  0  0  0  0  0
  -22.5110  -11.9310   21.8590 N   0  0  0  0  0  0  0  0  0  0  0  0
  -23.2130  -13.3980   20.3340 O   0  0  0  0  0  0  0  0  0  0  0  0
  -22.6950  -11.1240   22.4370 H   0  0  0  0  0  0  0  0  0  0  0  0
  -21.6200  -12.4010   21.9370 H   0  0  0  0  0  0  0  0  0  0  0  0
  -26.3790  -13.5230   20.4020 N   0  0  0  0  0  0  0  0  0  0  0  0
  -25.6930  -14.2620   20.2860 H   0  0  0  0  0  0  0  0  0  0  0  0
  -27.2570  -13.7220   19.9420 H   0  0  0  0  0  0  0  0  0  0  0  0
  1  4  1  0
  2  6  1  0
  2  1  1  0
  3  5  1  0
  6  3  1  0
  7 55  1  0
  7  5  1  0
  7  4  1  0
  7  8  1  6
  9 10  1  0
  9  6  1  0
 11 12  1  0
 11 13  1  0
 11 10  1  0
 14 16  1  0
 14 13  1  0
 15 26  2  0
 16 21  1  0
 17 27  1  0
 17 25  1  0
 18 24  1  0
 18 20  1  0
 19 25  1  0
 20 19  1  0
 21 20  2  0
 22 23  1  0
 22 16  2  0
 23 18  2  0
 24 17  1  0
 25 15  1  0
 27 29  2  0
 28 27  1  0
 30 28  1  0
 31 36  1  0
 32 28  1  0
 33 32  1  0
 34 35  1  0
 34 33  1  0
 35 31  1  0
 36 32  1  0
 36 37  2  0
 38 37  1  0
 39 38  2  0
 40 31  2  0
 40 39  1  0
 41 15  1  0
 41 42  1  0
 41 51  1  0
 42 45  1  0
 43 42  1  0
 43 47  1  0
 44 43  2  0
 47 46  1  0
 47 49  1  0
 49 50  1  0
 49 48  1  0
 51 52  1  1
 51 54  1  0
 53 51  1  0
 56 55  1  0
 56 65  1  0
 57 65  1  0
 57 63  1  0
 58 63  1  0
 59 60  1  0
 59 58  1  0
 61 60  1  0
 61 70  1  0
 61 62  1  0
 63 62  1  0
 64 57  2  0
 65 66  1  0
 67 68  2  0
 68 87  1  0
 68 69  1  0
 69 72  1  0
 70 67  1  0
 70 71  1  0
 71 69  2  0
 72 73  1  0
 73 74  2  0
 75 78  1  0
 75 74  1  0
 76 75  2  0
 77 76  1  0
 77 72  2  0
 78 79  1  0
 79 84  2  0
 79 80  1  0
 80 81  2  0
 81 82  1  0
 82 86  1  0
 83 82  2  0
 84 83  1  0
 85 84  1  0
 87 88  1  0
 88 91  1  0
 88 90  1  0
 89 87  2  0
 92 67  1  0
 93 92  1  0
 94 92  1  0
M  ISO  4  13 101  14 101  57 100  65 100
M  END
>  <TORSDO>  (87) 
F 22

>  <SCORE>  (87) 
-6.430

>  <name>  (87) 
87

>  <ligand_id>  (87) 
87

>  <original_smiles>  (87) 
[H]c1c([H])c([H])c2c(c1[H])C([H])([H])C([H])([H])C([H])([H])C2([H])N([H])C(=O)C1([H])N(C(=O)C([H])(N([H])C(=O)C([H])(N([H])C([H])([H])[H])C([H])([H])[H])C(C([H])([H])[H])(C([H])([H])[H])C([H])([H])[H])C([H])([H])c2c([H])c(OC([H])([H])C([H])(F)C([H])([H])C([H])([H])N3C([H])([H])C([H])([H])C([H])([H])[N+]([H])(C([H])([H])C([H])([H])N([H])C(=O)N4C([H])([H])C([H])([H])C([H])([H])C([H])(n5nc(-c6c([H])c([H])c(Oc7c([H])c([H])c(F)c([H])c7F)c([H])c6[H])c(C(=O)N([H])[H])c5N([H])[H])C4([H])[H])C([H])([H])C3([H])[H])c([H])c([H])c2C1([H])[H]

>  <smiles>  (87) 
[H]c1c([H])c([H])c2c(c1[H])C([H])([H])C([H])([H])C([H])([H])C2([H])N([H])C(=O)C1([H])N(C(=O)C([H])(N([H])C(=O)C([H])(N([H])C([H])([H])[H])C([H])([H])[H])C(C([H])([H])[H])(C([H])([H])[H])C([H])([H])[H])C([H])([H])c2c([H])c(OC([H])([H])C([H])(F)C([H])([H])C([H])([H])N3C([H])([H])C([H])([H])C([H])([H])[N+]([H])(C([H])([H])C([H])([H])N([H])C(=O)N4C([H])([H])C([H])([H])C([H])([H])C([H])(n5nc(-c6c([H])c([H])c(Oc7c([H])c([H])c(F)c([H])c7F)c([H])c6[H])c(C(=O)N([H])[H])c5N([H])[H])C4([H])[H])C([H])([H])C3([H])[H])c([H])c([H])c2C1([H])[H]

$$$$
88:0:0
     RDKit          3D

 94102  0  0  1  0  0  0  0  0999 V2000
  -29.7180  -21.8830   23.1050 C   0  0  0  0  0  2  0  0  0  0  0  0
  -29.9990  -23.2830   22.5320 C   0  0  0  0  0  2  0  0  0  0  0  0
  -29.7520  -23.3900   21.0150 C   0  0  0  0  0  2  0  0  0  0  0  0
  -29.7940  -24.8330   20.5110 C   0  0  0  0  0  0  0  0  0  0  0  0
  -30.8220  -25.5110   20.6120 O   0  0  0  0  0  0  0  0  0  0  0  0
  -28.5100  -25.3830   19.8820 C   0  0  0  0  0  2  0  0  0  0  0  0
  -28.5780  -26.8040   19.7860 O   0  0  0  0  0  0  0  0  0  0  0  0
  -24.6870  -31.7130   23.0980 C   0  0  0  0  0  0  0  0  0  0  0  0
  -27.3710  -27.4630   19.8220 C   0  0  0  0  0  0  0  0  0  0  0  0
  -23.4750  -30.3340   21.4400 C   0  0  0  0  0  3  0  0  0  0  0  0
  -24.9310  -28.8790   19.9350 C   0  0  0  0  0  0  0  0  0  0  0  0
  -25.9820  -30.7740   21.1880 C   0  0  0  0  0  2  0  0  0  0  0  0
  -26.0870  -29.4270   20.5070 C   0  0  0  0  0  0  0  0  0  0  0  0
  -27.3100  -28.7270   20.4430 C   0  0  0  0  0  3  0  0  0  0  0  0
  -26.1980  -26.9190   19.2520 C   0  0  0  0  0  3  0  0  0  0  0  0
  -24.9800  -27.6230   19.3070 C   0  0  0  0  0  3  0  0  0  0  0  0
  -23.6660  -29.6990   20.0360 C   0  0  0  0  0  2  0  0  0  0  0  0
  -24.7340  -30.9540   21.9690 N   0  0  0  0  0  0  0  0  0  0  0  0
  -23.6130  -31.9400   23.6720 O   0  0  0  0  0  0  0  0  0  0  0  0
  -22.8770  -29.2650   22.3840 C   0  0  0  0  0  0  0  0  0  0  0  0
  -21.5530  -29.0600   22.2870 N   0  0  0  0  0  0  0  0  0  0  0  0
  -23.5980  -28.6250   23.1540 O   0  0  0  0  0  0  0  0  0  0  0  0
  -21.0320  -29.6270   21.6320 H   0  0  0  0  0  0  0  0  0  0  0  0
  -18.2170  -27.7850   22.8310 C   0  0  0  0  0  0  0  0  0  0  0  0
  -20.7760  -28.0790   23.0460 C   0  0  0  0  0  3  0  0  0  0  0  0
  -20.8890  -26.6720   22.4160 C   0  0  0  0  0  2  0  0  0  0  0  0
  -19.7670  -26.3650   21.4200 C   0  0  0  0  0  2  0  0  0  0  0  0
  -18.3990  -26.4620   22.1040 C   0  0  0  0  0  2  0  0  0  0  0  0
  -19.3340  -28.5510   23.2590 C   0  0  0  0  0  0  0  0  0  0  0  0
  -19.1100  -29.7900   23.8970 C   0  0  0  0  0  3  0  0  0  0  0  0
  -17.8020  -30.2640   24.1120 C   0  0  0  0  0  3  0  0  0  0  0  0
  -16.7010  -29.4930   23.7030 C   0  0  0  0  0  3  0  0  0  0  0  0
  -16.9090  -28.2550   23.0680 C   0  0  0  0  0  3  0  0  0  0  0  0
  -25.9740  -32.3550   23.7080 C   0  0  0  0  0  3  0  0  0  0  0  0
  -26.5260  -31.5710   24.9600 C   0  0  1  0  0  0  0  0  0  0  0  0
  -25.4490  -31.2680   26.0270 C   0  0  0  0  0  1  0  0  0  0  0  0
  -27.1550  -30.2270   24.5270 C   0  0  0  0  0  1  0  0  0  0  0  0
  -27.6520  -32.3900   25.6370 C   0  0  0  0  0  1  0  0  0  0  0  0
  -25.6490  -33.7420   24.0630 N   0  0  0  0  0  0  0  0  0  0  0  0
  -25.9480  -34.8100   23.3110 C   0  0  0  0  0  0  0  0  0  0  0  0
  -26.6010  -34.7330   22.2660 O   0  0  0  0  0  0  0  0  0  0  0  0
  -25.0640  -33.8760   24.8750 H   0  0  0  0  0  0  0  0  0  0  0  0
  -24.1800  -36.5700   23.0110 C   0  0  0  0  0  1  0  0  0  0  0  0
  -25.4450  -36.1820   23.7950 C   0  0  0  0  0  3  0  0  0  0  0  0
  -27.5790  -37.0950   24.5920 C   0  0  0  0  0  1  0  0  0  0  0  0
  -26.4530  -37.2570   23.6750 N   0  0  0  0  0  0  0  0  0  0  0  0
  -26.0330  -38.1670   23.8450 H   0  0  0  0  0  0  0  0  0  0  0  0
  -30.3730  -20.7310   22.3190 C   0  0  0  0  0  2  0  0  0  0  0  0
  -30.2310  -19.3770   23.0500 C   0  0  0  0  0  2  0  0  0  0  0  0
  -30.5450  -14.6320   19.3240 C   0  0  0  0  0  0  0  0  0  0  0  0
  -29.8740  -12.6530   18.0170 C   0  0  0  0  0  2  0  0  0  0  0  0
  -28.7390  -13.0060   17.0360 C   0  0  0  0  0  2  0  0  0  0  0  0
  -27.3740  -12.7930   17.7090 C   0  0  0  0  0  2  0  0  0  0  0  0
  -27.2880  -13.5060   19.0780 C   0  0  0  0  0  3  0  0  0  0  0  0
  -28.5220  -13.2110   19.9560 C   0  0  0  0  0  2  0  0  0  0  0  0
  -29.7630  -13.5170   19.2110 N   0  0  0  0  0  0  0  0  0  0  0  0
  -31.3170  -14.9560   18.4110 O   0  0  0  0  0  0  0  0  0  0  0  0
  -30.8000  -14.9540   21.6750 C   0  0  0  0  0  0  0  0  0  0  0  0
  -31.6530  -15.8360   22.5980 C   0  0  0  0  0  2  0  0  0  0  0  0
  -30.6800  -16.8780   20.1380 C   0  0  0  0  0  2  0  0  0  0  0  0
  -30.9230  -17.0370   23.2220 C   0  0  0  0  0  2  0  0  0  0  0  0
  -29.9620  -17.8550   21.0980 C   0  0  0  0  0  2  0  0  0  0  0  0
  -30.5110  -15.4270   20.4320 N   0  0  0  0  0  0  0  0  0  0  0  0
  -30.7610  -18.1990   22.3050 N   0  0  1  0  0  4  0  0  0  0  0  0
  -30.5170  -13.8250   22.0870 O   0  0  0  0  0  0  0  0  0  0  0  0
  -31.6870  -18.4720   22.0000 H   0  0  0  0  0  0  0  0  0  0  0  0
  -25.0730  -14.0020   20.2980 C   0  0  0  0  0  0  0  0  0  0  0  0
  -24.0960  -13.1800   20.7910 C   0  0  0  0  0  0  0  0  0  0  0  0
  -24.5400  -11.8470   20.5420 C   0  0  0  0  0  0  0  0  0  0  0  0
  -26.0510  -13.1660   19.7810 N   0  0  0  0  0  0  0  0  0  0  0  0
  -25.7450  -11.8590   19.9850 N   0  0  0  0  0  0  0  0  0  0  0  0
  -23.8630  -10.5590   20.7520 C   0  0  0  0  0  0  0  0  0  0  0  0
  -24.3830   -9.5850   21.6310 C   0  0  0  0  0  3  0  0  0  0  0  0
  -23.7050   -8.3620   21.8280 C   0  0  0  0  0  3  0  0  0  0  0  0
  -22.4940   -8.1060   21.1430 C   0  0  0  0  0  0  0  0  0  0  0  0
  -21.9920   -9.0710   20.2510 C   0  0  0  0  0  3  0  0  0  0  0  0
  -22.6710  -10.2840   20.0540 C   0  0  0  0  0  3  0  0  0  0  0  0
  -21.7820   -6.9370   21.2530 O   0  0  0  0  0  0  0  0  0  0  0  0
  -21.7330   -6.2280   22.4270 C   0  0  0  0  0  0  0  0  0  0  0  0
  -21.2890   -6.8130   23.6320 C   0  0  0  0  0  3  0  0  0  0  0  0
  -21.1900   -6.0300   24.7990 C   0  0  0  0  0  3  0  0  0  0  0  0
  -21.5240   -4.6650   24.7640 C   0  0  0  0  0  0  0  0  0  0  0  0
  -21.9630   -4.0790   23.5620 C   0  0  0  0  0  3  0  0  0  0  0  0
  -22.0650   -4.8580   22.3970 C   0  0  0  0  0  0  0  0  0  0  0  0
  -22.4680   -4.2850   21.2380 F   0  0  0  0  0  0  0  0  0  0  0  0
  -21.4230   -3.9110   25.8830 F   0  0  0  0  0  0  0  0  0  0  0  0
  -22.7780  -13.6080   21.3720 C   0  0  0  0  0  0  0  0  0  0  0  0
  -22.2670  -12.8610   22.3440 N   0  0  0  0  0  0  0  0  0  0  0  0
  -22.2180  -14.6390   21.0020 O   0  0  0  0  0  0  0  0  0  0  0  0
  -22.7350  -12.0220   22.6580 H   0  0  0  0  0  0  0  0  0  0  0  0
  -21.3960  -13.1280   22.7810 H   0  0  0  0  0  0  0  0  0  0  0  0
  -25.2060  -15.3870   20.2270 N   0  0  0  0  0  0  0  0  0  0  0  0
  -24.4780  -16.0140   20.5530 H   0  0  0  0  0  0  0  0  0  0  0  0
  -25.9820  -15.8710   19.7910 H   0  0  0  0  0  0  0  0  0  0  0  0
  2  1  1  0
  3  2  1  0
  4  5  2  0
  4  3  1  0
  6  4  1  0
  7  9  1  0
  7  6  1  0
  8 19  2  0
  9 14  1  0
 10 18  1  0
 10 20  1  0
 11 17  1  0
 11 13  1  0
 12 18  1  0
 13 12  1  0
 14 13  2  0
 15 16  1  0
 15  9  2  0
 16 11  2  0
 17 10  1  0
 18  8  1  0
 20 22  2  0
 21 20  1  0
 23 21  1  0
 24 33  2  0
 24 29  1  0
 25 21  1  0
 25 29  1  0
 26 25  1  0
 27 28  1  0
 27 26  1  0
 28 24  1  0
 29 30  2  0
 30 31  1  0
 32 31  2  0
 33 32  1  0
 34  8  1  0
 34 39  1  0
 34 35  1  0
 35 38  1  1
 35 36  1  0
 37 35  1  0
 39 42  1  0
 40 44  1  0
 40 39  1  0
 41 40  2  0
 44 43  1  0
 46 44  1  0
 46 47  1  0
 46 45  1  0
 48 49  1  0
 48  1  1  0
 50 63  1  0
 51 56  1  0
 52 53  1  0
 52 51  1  0
 54 53  1  0
 54 70  1  0
 54 55  1  0
 56 50  1  0
 56 55  1  0
 57 50  2  0
 58 65  2  0
 58 59  1  0
 59 61  1  0
 60 63  1  0
 60 62  1  0
 62 64  1  0
 63 58  1  0
 64 49  1  0
 64 61  1  0
 64 66  1  6
 67 68  2  0
 68 87  1  0
 69 72  1  0
 69 68  1  0
 70 71  1  0
 70 67  1  0
 71 69  2  0
 72 73  1  0
 73 74  2  0
 75 78  1  0
 75 74  1  0
 76 75  2  0
 77 76  1  0
 77 72  2  0
 78 79  1  0
 79 80  1  0
 80 81  2  0
 82 81  1  0
 82 86  1  0
 83 82  2  0
 84 79  2  0
 84 83  1  0
 85 84  1  0
 87 88  1  0
 88 90  1  0
 88 91  1  0
 89 87  2  0
 92 67  1  0
 92 93  1  0
 94 92  1  0
M  ISO  4   6 101   7 101  50 100  63 100
M  END
>  <TORSDO>  (88) 
F 22

>  <SCORE>  (88) 
-7.837

>  <name>  (88) 
88

>  <ligand_id>  (88) 
88

>  <original_smiles>  (88) 
[H]c1c([H])c([H])c2c(c1[H])C([H])([H])C([H])([H])C([H])([H])C2([H])N([H])C(=O)C1([H])N(C(=O)C([H])(N([H])C(=O)C([H])(N([H])C([H])([H])[H])C([H])([H])[H])C(C([H])([H])[H])(C([H])([H])[H])C([H])([H])[H])C([H])([H])c2c([H])c(OC([H])([H])C(=O)C([H])([H])C([H])([H])C([H])([H])C([H])([H])C([H])([H])[N+]3([H])C([H])([H])C([H])([H])C(=O)N(C(=O)N4C([H])([H])C([H])([H])C([H])([H])C([H])(n5nc(-c6c([H])c([H])c(Oc7c([H])c([H])c(F)c([H])c7F)c([H])c6[H])c(C(=O)N([H])[H])c5N([H])[H])C4([H])[H])C([H])([H])C3([H])[H])c([H])c([H])c2C1([H])[H]

>  <smiles>  (88) 
[H]c1c([H])c([H])c2c(c1[H])C([H])([H])C([H])([H])C([H])([H])C2([H])N([H])C(=O)C1([H])N(C(=O)C([H])(N([H])C(=O)C([H])(N([H])C([H])([H])[H])C([H])([H])[H])C(C([H])([H])[H])(C([H])([H])[H])C([H])([H])[H])C([H])([H])c2c([H])c(OC([H])([H])C(=O)C([H])([H])C([H])([H])C([H])([H])C([H])([H])C([H])([H])[N+]3([H])C([H])([H])C([H])([H])C(=O)N(C(=O)N4C([H])([H])C([H])([H])C([H])([H])C([H])(n5nc(-c6c([H])c([H])c(Oc7c([H])c([H])c(F)c([H])c7F)c([H])c6[H])c(C(=O)N([H])[H])c5N([H])[H])C4([H])[H])C([H])([H])C3([H])[H])c([H])c([H])c2C1([H])[H]

$$$$
89:0:0
     RDKit          3D

 92100  0  0  1  0  0  0  0  0999 V2000
  -30.2720  -20.0200   20.0840 C   0  0  0  0  0  0  0  0  0  0  0  0
  -31.0750  -21.0230   20.4730 N   0  0  0  0  0  0  0  0  0  0  0  0
  -29.1690  -20.2400   19.5840 O   0  0  0  0  0  0  0  0  0  0  0  0
  -31.9670  -20.7560   20.8710 H   0  0  0  0  0  0  0  0  0  0  0  0
  -30.7090  -14.5500   20.3670 C   0  0  0  0  0  0  0  0  0  0  0  0
  -30.3690  -12.3450   19.3500 C   0  0  0  0  0  2  0  0  0  0  0  0
  -29.4380  -12.5120   18.1350 C   0  0  0  0  0  2  0  0  0  0  0  0
  -27.9630  -12.3750   18.5620 C   0  0  0  0  0  2  0  0  0  0  0  0
  -27.6130  -13.2350   19.8090 C   0  0  0  0  0  3  0  0  0  0  0  0
  -28.6830  -13.1160   20.9170 C   0  0  0  0  0  2  0  0  0  0  0  0
  -29.9860  -13.3970   20.3030 N   0  0  0  0  0  0  0  0  0  0  0  0
  -31.9360  -14.5230   20.2770 O   0  0  0  0  0  0  0  0  0  0  0  0
  -30.9020  -17.8890   18.8140 C   0  0  0  0  0  3  0  0  0  0  0  0
  -30.0090  -17.7180   21.2480 C   0  0  0  0  0  2  0  0  0  0  0  0
  -30.6860  -16.3520   18.6970 C   0  0  0  0  0  3  0  0  0  0  0  0
  -30.8050  -18.5620   20.2150 C   0  0  0  0  0  3  0  0  0  0  0  0
  -29.1990  -16.5440   20.6510 C   0  0  0  0  0  3  0  0  0  0  0  0
  -27.9820  -17.0540   19.8410 C   0  0  0  0  0  1  0  0  0  0  0  0
  -30.0810  -15.6610   19.8640 N   0  0  0  0  0  0  0  0  0  0  0  0
  -25.2180  -13.8440   20.5300 C   0  0  0  0  0  0  0  0  0  0  0  0
  -24.1480  -13.0740   20.8930 C   0  0  0  0  0  0  0  0  0  0  0  0
  -24.6120  -11.7240   20.8710 C   0  0  0  0  0  0  0  0  0  0  0  0
  -26.2660  -12.9650   20.3020 N   0  0  0  0  0  0  0  0  0  0  0  0
  -25.9040  -11.6840   20.5690 N   0  0  0  0  0  0  0  0  0  0  0  0
  -23.8870  -10.4640   21.0620 C   0  0  0  0  0  0  0  0  0  0  0  0
  -24.3260   -9.4920   21.9880 C   0  0  0  0  0  3  0  0  0  0  0  0
  -23.6010   -8.2950   22.1660 C   0  0  0  0  0  3  0  0  0  0  0  0
  -22.4220   -8.0630   21.4170 C   0  0  0  0  0  0  0  0  0  0  0  0
  -22.0030   -9.0240   20.4790 C   0  0  0  0  0  3  0  0  0  0  0  0
  -22.7290  -10.2120   20.2980 C   0  0  0  0  0  3  0  0  0  0  0  0
  -21.6630   -6.9210   21.5080 O   0  0  0  0  0  0  0  0  0  0  0  0
  -21.6330   -6.1670   22.6540 C   0  0  0  0  0  0  0  0  0  0  0  0
  -21.2380   -6.7110   23.8950 C   0  0  0  0  0  3  0  0  0  0  0  0
  -21.1530   -5.8840   25.0320 C   0  0  0  0  0  3  0  0  0  0  0  0
  -21.4550   -4.5130   24.9300 C   0  0  0  0  0  0  0  0  0  0  0  0
  -21.8460   -3.9670   23.6930 C   0  0  0  0  0  3  0  0  0  0  0  0
  -21.9300   -4.7930   22.5580 C   0  0  0  0  0  0  0  0  0  0  0  0
  -22.2850   -4.2590   21.3650 F   0  0  0  0  0  0  0  0  0  0  0  0
  -21.3660   -3.7170   26.0190 F   0  0  0  0  0  0  0  0  0  0  0  0
  -22.7480  -13.5550   21.1510 C   0  0  0  0  0  0  0  0  0  0  0  0
  -22.0120  -12.8690   22.0170 N   0  0  0  0  0  0  0  0  0  0  0  0
  -22.3160  -14.5770   20.6180 O   0  0  0  0  0  0  0  0  0  0  0  0
  -22.3760  -12.0490   22.4820 H   0  0  0  0  0  0  0  0  0  0  0  0
  -21.0690  -13.1670   22.2210 H   0  0  0  0  0  0  0  0  0  0  0  0
  -25.3720  -15.2130   20.3590 N   0  0  0  0  0  0  0  0  0  0  0  0
  -24.6110  -15.8680   20.5050 H   0  0  0  0  0  0  0  0  0  0  0  0
  -26.2440  -15.6670   20.1190 H   0  0  0  0  0  0  0  0  0  0  0  0
  -30.9270  -22.4470   20.1340 C   0  0  0  0  0  2  0  0  0  0  0  0
  -29.7900  -23.2060   20.8640 C   0  0  0  0  0  2  0  0  0  0  0  0
  -29.7940  -24.7200   20.5230 C   0  0  0  0  0  2  0  0  0  0  0  0
  -28.4530  -25.4430   20.7820 C   0  0  0  0  0  2  0  0  0  0  0  0
  -28.4820  -26.7620   20.2210 O   0  0  0  0  0  0  0  0  0  0  0  0
  -24.5930  -31.8790   23.2560 C   0  0  0  0  0  0  0  0  0  0  0  0
  -27.2900  -27.4540   20.2200 C   0  0  0  0  0  0  0  0  0  0  0  0
  -23.4010  -30.4670   21.6070 C   0  0  0  0  0  3  0  0  0  0  0  0
  -24.8760  -28.9300   20.1980 C   0  0  0  0  0  0  0  0  0  0  0  0
  -25.9240  -30.8430   21.4260 C   0  0  0  0  0  2  0  0  0  0  0  0
  -26.0240  -29.4710   20.7940 C   0  0  0  0  0  0  0  0  0  0  0  0
  -27.2330  -28.7390   20.7980 C   0  0  0  0  0  3  0  0  0  0  0  0
  -26.1300  -26.9270   19.6060 C   0  0  0  0  0  3  0  0  0  0  0  0
  -24.9260  -27.6570   19.6000 C   0  0  0  0  0  3  0  0  0  0  0  0
  -23.6230  -29.7730   20.2340 C   0  0  0  0  0  2  0  0  0  0  0  0
  -24.6560  -31.0780   22.1550 N   0  0  0  0  0  0  0  0  0  0  0  0
  -23.5100  -32.1480   23.7920 O   0  0  0  0  0  0  0  0  0  0  0  0
  -22.7460  -29.4510   22.5700 C   0  0  0  0  0  0  0  0  0  0  0  0
  -21.4210  -29.2710   22.4430 N   0  0  0  0  0  0  0  0  0  0  0  0
  -23.4280  -28.8260   23.3880 O   0  0  0  0  0  0  0  0  0  0  0  0
  -20.9300  -29.8250   21.7550 H   0  0  0  0  0  0  0  0  0  0  0  0
  -18.0460  -28.0890   22.9470 C   0  0  0  0  0  0  0  0  0  0  0  0
  -20.6050  -28.3350   23.2140 C   0  0  0  0  0  3  0  0  0  0  0  0
  -20.7000  -26.9050   22.6350 C   0  0  0  0  0  2  0  0  0  0  0  0
  -19.5950  -26.5900   21.6210 C   0  0  0  0  0  2  0  0  0  0  0  0
  -18.2150  -26.7410   22.2680 C   0  0  0  0  0  2  0  0  0  0  0  0
  -19.1680  -28.8450   23.3780 C   0  0  0  0  0  0  0  0  0  0  0  0
  -18.9570  -30.1080   23.9700 C   0  0  0  0  0  3  0  0  0  0  0  0
  -17.6550  -30.6180   24.1370 C   0  0  0  0  0  3  0  0  0  0  0  0
  -16.5460  -29.8560   23.7260 C   0  0  0  0  0  3  0  0  0  0  0  0
  -16.7430  -28.5960   23.1360 C   0  0  0  0  0  3  0  0  0  0  0  0
  -25.8770  -32.5140   23.8800 C   0  0  0  0  0  3  0  0  0  0  0  0
  -26.3960  -31.7450   25.1580 C   0  0  1  0  0  0  0  0  0  0  0  0
  -25.3050  -31.5070   26.2260 C   0  0  0  0  0  1  0  0  0  0  0  0
  -26.9800  -30.3690   24.7650 C   0  0  0  0  0  1  0  0  0  0  0  0
  -27.5480  -32.5420   25.8150 C   0  0  0  0  0  1  0  0  0  0  0  0
  -25.5700  -33.9150   24.2040 N   0  0  0  0  0  0  0  0  0  0  0  0
  -25.9090  -34.9610   23.4410 C   0  0  0  0  0  0  0  0  0  0  0  0
  -26.5810  -34.8510   22.4100 O   0  0  0  0  0  0  0  0  0  0  0  0
  -24.9780  -34.0740   25.0050 H   0  0  0  0  0  0  0  0  0  0  0  0
  -24.1820  -36.7480   23.0720 C   0  0  0  0  0  1  0  0  0  0  0  0
  -25.4230  -36.3530   23.8880 C   0  0  0  0  0  3  0  0  0  0  0  0
  -27.5570  -37.2390   24.7150 C   0  0  0  0  0  1  0  0  0  0  0  0
  -26.4570  -37.4040   23.7700 N   0  0  0  0  0  0  0  0  0  0  0  0
  -26.0510  -38.3260   23.9120 H   0  0  0  0  0  0  0  0  0  0  0  0
  1  2  1  0
  2  4  1  0
  3  1  2  0
  6 11  1  0
  7  8  1  0
  7  6  1  0
  9  8  1  0
  9 23  1  0
  9 10  1  0
 11  5  1  0
 11 10  1  0
 12  5  2  0
 13 16  1  0
 15 13  2  0
 15 19  1  0
 16  1  1  0
 16 14  1  0
 17 18  1  0
 17 14  1  0
 19  5  1  0
 19 17  1  0
 20 21  2  0
 21 40  1  0
 22 21  1  0
 22 25  1  0
 23 20  1  0
 23 24  1  0
 24 22  2  0
 25 26  1  0
 26 27  2  0
 28 31  1  0
 28 27  1  0
 29 28  2  0
 30 29  1  0
 30 25  2  0
 31 32  1  0
 32 33  1  0
 33 34  2  0
 35 34  1  0
 35 39  1  0
 36 35  2  0
 37 32  2  0
 37 36  1  0
 38 37  1  0
 40 41  1  0
 41 44  1  0
 41 43  1  0
 42 40  2  0
 45 46  1  0
 45 20  1  0
 47 45  1  0
 48  2  1  0
 48 49  1  0
 50 51  1  0
 50 49  1  0
 52 51  1  0
 53 64  2  0
 54 52  1  0
 54 59  1  0
 55 63  1  0
 55 65  1  0
 56 62  1  0
 56 58  1  0
 57 63  1  0
 58 59  2  0
 58 57  1  0
 60 54  2  0
 61 60  1  0
 61 56  2  0
 62 55  1  0
 63 53  1  0
 65 67  2  0
 66 65  1  0
 68 66  1  0
 69 78  2  0
 69 74  1  0
 70 66  1  0
 70 74  1  0
 71 70  1  0
 72 73  1  0
 72 71  1  0
 73 69  1  0
 74 75  2  0
 75 76  1  0
 77 76  2  0
 78 77  1  0
 79 53  1  0
 79 84  1  0
 79 80  1  0
 80 83  1  1
 80 81  1  0
 82 80  1  0
 84 87  1  0
 85 89  1  0
 85 84  1  0
 86 85  2  0
 89 88  1  0
 91 89  1  0
 91 92  1  0
 91 90  1  0
M  ISO  4   5 100  19 100  51 101  52 101
M  END
>  <TORSDO>  (89) 
F 20

>  <SCORE>  (89) 
-14.046

>  <name>  (89) 
89

>  <ligand_id>  (89) 
89

>  <original_smiles>  (89) 
[H]c1c([H])c([H])c2c(c1[H])C([H])([H])C([H])([H])C([H])([H])C2([H])N([H])C(=O)C1([H])N(C(=O)C([H])(N([H])C(=O)C([H])(N([H])C([H])([H])[H])C([H])([H])[H])C(C([H])([H])[H])(C([H])([H])[H])C([H])([H])[H])C([H])([H])c2c([H])c(OC([H])([H])C([H])([H])C([H])([H])C([H])([H])N([H])C(=O)C3([H])C([H])([H])C([H])([H])N(C(=O)N4C([H])([H])C([H])([H])C([H])([H])C([H])(n5nc(-c6c([H])c([H])c(Oc7c([H])c([H])c(F)c([H])c7F)c([H])c6[H])c(C(=O)N([H])[H])c5N([H])[H])C4([H])[H])C([H])(C([H])([H])[H])C3([H])[H])c([H])c([H])c2C1([H])[H]

>  <smiles>  (89) 
[H]c1c([H])c([H])c2c(c1[H])C([H])([H])C([H])([H])C([H])([H])C2([H])N([H])C(=O)C1([H])N(C(=O)C([H])(N([H])C(=O)C([H])(N([H])C([H])([H])[H])C([H])([H])[H])C(C([H])([H])[H])(C([H])([H])[H])C([H])([H])[H])C([H])([H])c2c([H])c(OC([H])([H])C([H])([H])C([H])([H])C([H])([H])N([H])C(=O)C3([H])C([H])([H])C([H])([H])N(C(=O)N4C([H])([H])C([H])([H])C([H])([H])C([H])(n5nc(-c6c([H])c([H])c(Oc7c([H])c([H])c(F)c([H])c7F)c([H])c6[H])c(C(=O)N([H])[H])c5N([H])[H])C4([H])[H])C([H])(C([H])([H])[H])C3([H])[H])c([H])c([H])c2C1([H])[H]

$$$$
90:0:0
     RDKit          3D

 96104  0  0  1  0  0  0  0  0999 V2000
  -28.3120  -19.9480   20.5240 C   0  0  0  0  0  2  0  0  0  0  0  0
  -30.5130  -18.9240   18.8580 C   0  0  0  0  0  2  0  0  0  0  0  0
  -29.6260  -17.8690   19.6140 C   0  0  0  0  0  3  0  0  0  0  0  0
  -28.2270  -18.4920   19.9880 C   0  0  0  0  0  3  0  0  0  0  0  0
  -29.0560  -20.8120   19.4920 C   0  0  0  0  0  3  0  0  0  0  0  0
  -30.4440  -20.3160   19.3850 N   0  0  0  0  0  4  0  0  0  0  0  0
  -30.9630  -20.9180   18.7630 H   0  0  0  0  0  0  0  0  0  0  0  0
  -30.8980  -20.3650   20.2850 H   0  0  0  0  0  0  0  0  0  0  0  0
  -27.3720  -17.6410   20.8450 N   0  0  0  0  0  4  0  0  0  0  0  0
  -27.7490  -17.5330   21.7700 H   0  0  0  0  0  0  0  0  0  0  0  0
  -27.2090  -16.7340   20.4360 H   0  0  0  0  0  0  0  0  0  0  0  0
  -26.4690  -18.0750   20.9390 H   0  0  0  0  0  0  0  0  0  0  0  0
  -30.4030  -17.0510   20.7170 C   0  0  0  0  0  2  0  0  0  0  0  0
  -30.8770  -14.5880   20.1760 C   0  0  0  0  0  0  0  0  0  0  0  0
  -30.5570  -12.4550   18.9710 C   0  0  0  0  0  2  0  0  0  0  0  0
  -29.5850  -12.7100   17.7960 C   0  0  0  0  0  2  0  0  0  0  0  0
  -28.1180  -12.5810   18.2590 C   0  0  0  0  0  2  0  0  0  0  0  0
  -27.8290  -13.3910   19.5510 C   0  0  0  0  0  3  0  0  0  0  0  0
  -28.9010  -13.0950   20.6250 C   0  0  0  0  0  2  0  0  0  0  0  0
  -30.2140  -13.4050   20.0410 N   0  0  0  0  0  0  0  0  0  0  0  0
  -31.9980  -14.7870   19.7070 O   0  0  0  0  0  0  0  0  0  0  0  0
  -30.1270  -15.5910   20.6940 N   0  0  0  0  0  0  0  0  0  0  0  0
  -29.2360  -15.2830   21.0500 H   0  0  0  0  0  0  0  0  0  0  0  0
  -25.4550  -14.0460   20.2970 C   0  0  0  0  0  0  0  0  0  0  0  0
  -24.3840  -13.2920   20.7000 C   0  0  0  0  0  0  0  0  0  0  0  0
  -24.8270  -11.9330   20.6790 C   0  0  0  0  0  0  0  0  0  0  0  0
  -26.4810  -13.1450   20.0550 N   0  0  0  0  0  0  0  0  0  0  0  0
  -26.1090  -11.8730   20.3440 N   0  0  0  0  0  0  0  0  0  0  0  0
  -24.0930  -10.6800   20.9020 C   0  0  0  0  0  0  0  0  0  0  0  0
  -24.5040   -9.7490   21.8810 C   0  0  0  0  0  3  0  0  0  0  0  0
  -23.7740   -8.5590   22.0910 C   0  0  0  0  0  3  0  0  0  0  0  0
  -22.6190   -8.2920   21.3170 C   0  0  0  0  0  0  0  0  0  0  0  0
  -22.2270   -9.2100   20.3270 C   0  0  0  0  0  3  0  0  0  0  0  0
  -22.9580  -10.3920   20.1170 C   0  0  0  0  0  3  0  0  0  0  0  0
  -21.8620   -7.1510   21.4310 O   0  0  0  0  0  0  0  0  0  0  0  0
  -21.7560   -6.4730   22.6180 C   0  0  0  0  0  0  0  0  0  0  0  0
  -21.2520   -7.0890   23.7850 C   0  0  0  0  0  3  0  0  0  0  0  0
  -21.0940   -6.3380   24.9660 C   0  0  0  0  0  3  0  0  0  0  0  0
  -21.4310   -4.9700   24.9820 C   0  0  0  0  0  0  0  0  0  0  0  0
  -21.9270   -4.3540   23.8190 C   0  0  0  0  0  3  0  0  0  0  0  0
  -22.0850   -5.1020   22.6400 C   0  0  0  0  0  0  0  0  0  0  0  0
  -22.5440   -4.4990   21.5170 F   0  0  0  0  0  0  0  0  0  0  0  0
  -21.2730   -4.2470   26.1140 F   0  0  0  0  0  0  0  0  0  0  0  0
  -22.9940  -13.7840   20.9820 C   0  0  0  0  0  0  0  0  0  0  0  0
  -22.2780  -13.1260   21.8880 N   0  0  0  0  0  0  0  0  0  0  0  0
  -22.5520  -14.7920   20.4320 O   0  0  0  0  0  0  0  0  0  0  0  0
  -22.6450  -12.3070   22.3520 H   0  0  0  0  0  0  0  0  0  0  0  0
  -21.3490  -13.4450   22.1230 H   0  0  0  0  0  0  0  0  0  0  0  0
  -25.6430  -15.4130   20.0770 N   0  0  0  0  0  0  0  0  0  0  0  0
  -24.7610  -15.9110   20.0140 H   0  0  0  0  0  0  0  0  0  0  0  0
  -26.1990  -15.5780   19.2460 H   0  0  0  0  0  0  0  0  0  0  0  0
  -28.9070  -22.3590   19.5990 C   0  0  0  0  0  2  0  0  0  0  0  0
  -29.7010  -23.1540   20.6610 C   0  0  0  0  0  2  0  0  0  0  0  0
  -29.7210  -24.6840   20.3760 C   0  0  0  0  0  2  0  0  0  0  0  0
  -28.3640  -25.3980   20.5390 C   0  0  0  0  0  2  0  0  0  0  0  0
  -28.4640  -26.7930   20.2100 O   0  0  0  0  0  0  0  0  0  0  0  0
  -24.4990  -31.8920   23.2020 C   0  0  0  0  0  0  0  0  0  0  0  0
  -27.2800  -27.5070   20.1790 C   0  0  0  0  0  0  0  0  0  0  0  0
  -23.3550  -30.5040   21.5070 C   0  0  0  0  0  3  0  0  0  0  0  0
  -24.8670  -28.9920   20.1220 C   0  0  0  0  0  0  0  0  0  0  0  0
  -25.8800  -30.8910   21.3890 C   0  0  0  0  0  2  0  0  0  0  0  0
  -26.0040  -29.5270   20.7370 C   0  0  0  0  0  0  0  0  0  0  0  0
  -27.2150  -28.7990   20.7560 C   0  0  0  0  0  3  0  0  0  0  0  0
  -26.1250  -26.9930   19.5480 C   0  0  0  0  0  3  0  0  0  0  0  0
  -24.9200  -27.7210   19.5270 C   0  0  0  0  0  3  0  0  0  0  0  0
  -23.6140  -29.8400   20.1280 C   0  0  0  0  0  2  0  0  0  0  0  0
  -24.5940  -31.1050   22.0940 N   0  0  0  0  0  0  0  0  0  0  0  0
  -23.3990  -32.1500   23.7110 O   0  0  0  0  0  0  0  0  0  0  0  0
  -22.6740  -29.4690   22.4310 C   0  0  0  0  0  0  0  0  0  0  0  0
  -21.3540  -29.2920   22.2600 N   0  0  0  0  0  0  0  0  0  0  0  0
  -23.3320  -28.8280   23.2540 O   0  0  0  0  0  0  0  0  0  0  0  0
  -20.8850  -29.8670   21.5740 H   0  0  0  0  0  0  0  0  0  0  0  0
  -17.9690  -28.1110   22.6580 C   0  0  0  0  0  0  0  0  0  0  0  0
  -20.5220  -28.3380   22.9920 C   0  0  0  0  0  3  0  0  0  0  0  0
  -20.6280  -26.9250   22.3740 C   0  0  0  0  0  2  0  0  0  0  0  0
  -19.5500  -26.6520   21.3210 C   0  0  0  0  0  2  0  0  0  0  0  0
  -18.1530  -26.7830   21.9380 C   0  0  0  0  0  2  0  0  0  0  0  0
  -19.0830  -28.8490   23.1380 C   0  0  0  0  0  0  0  0  0  0  0  0
  -18.8660  -30.0960   23.7580 C   0  0  0  0  0  3  0  0  0  0  0  0
  -17.5650  -30.6140   23.8970 C   0  0  0  0  0  3  0  0  0  0  0  0
  -16.4630  -29.8740   23.4370 C   0  0  0  0  0  3  0  0  0  0  0  0
  -16.6640  -28.6220   22.8280 C   0  0  0  0  0  3  0  0  0  0  0  0
  -25.7630  -32.5210   23.8680 C   0  0  0  0  0  3  0  0  0  0  0  0
  -25.4400  -33.9150   24.2000 N   0  0  0  0  0  0  0  0  0  0  0  0
  -25.8060  -34.9720   23.4620 C   0  0  0  0  0  0  0  0  0  0  0  0
  -26.5190  -34.8750   22.4590 O   0  0  0  0  0  0  0  0  0  0  0  0
  -24.8090  -34.0610   24.9730 H   0  0  0  0  0  0  0  0  0  0  0  0
  -24.1040  -36.7710   23.0280 C   0  0  0  0  0  1  0  0  0  0  0  0
  -25.2980  -36.3590   23.9040 C   0  0  0  0  0  3  0  0  0  0  0  0
  -27.3850  -37.2320   24.8550 C   0  0  0  0  0  1  0  0  0  0  0  0
  -26.3380  -37.4100   23.8520 N   0  0  0  0  0  0  0  0  0  0  0  0
  -25.9280  -38.3330   23.9810 H   0  0  0  0  0  0  0  0  0  0  0  0
  -26.2410  -31.7390   25.1530 C   0  0  1  0  0  0  0  0  0  0  0  0
  -25.1050  -31.4660   26.1660 C   0  0  0  0  0  1  0  0  0  0  0  0
  -26.8700  -30.3800   24.7690 C   0  0  0  0  0  1  0  0  0  0  0  0
  -27.3520  -32.5410   25.8700 C   0  0  0  0  0  1  0  0  0  0  0  0
  2  6  1  0
  2  3  1  0
  3  4  1  0
  3 13  1  0
  4  1  1  0
  4  9  1  0
  5 52  1  0
  5  1  1  0
  6  5  1  0
  6  8  1  0
  7  6  1  0
  9 12  1  0
  9 10  1  0
 11  9  1  0
 14 22  1  0
 15 20  1  0
 16 17  1  0
 16 15  1  0
 18 17  1  0
 18 27  1  0
 18 19  1  0
 20 14  1  0
 20 19  1  0
 21 14  2  0
 22 13  1  0
 22 23  1  0
 24 25  2  0
 25 44  1  0
 26 25  1  0
 26 29  1  0
 27 24  1  0
 27 28  1  0
 28 26  2  0
 29 30  1  0
 30 31  2  0
 32 35  1  0
 32 31  1  0
 33 32  2  0
 34 33  1  0
 34 29  2  0
 35 36  1  0
 36 41  2  0
 36 37  1  0
 37 38  2  0
 38 39  1  0
 39 43  1  0
 40 39  2  0
 41 40  1  0
 42 41  1  0
 44 45  1  0
 45 48  1  0
 45 47  1  0
 46 44  2  0
 49 24  1  0
 50 49  1  0
 51 49  1  0
 52 53  1  0
 54 55  1  0
 54 53  1  0
 56 55  1  0
 57 68  2  0
 58 56  1  0
 58 63  1  0
 59 67  1  0
 59 69  1  0
 60 66  1  0
 60 62  1  0
 61 67  1  0
 62 63  2  0
 62 61  1  0
 64 58  2  0
 65 64  1  0
 65 60  2  0
 66 59  1  0
 67 57  1  0
 69 71  2  0
 70 69  1  0
 72 70  1  0
 73 82  2  0
 73 78  1  0
 74 70  1  0
 74 78  1  0
 75 74  1  0
 76 77  1  0
 76 75  1  0
 77 73  1  0
 78 79  2  0
 79 80  1  0
 81 80  2  0
 82 81  1  0
 83 57  1  0
 83 84  1  0
 83 93  1  0
 84 87  1  0
 85 89  1  0
 85 84  1  0
 86 85  2  0
 89 88  1  0
 91 89  1  0
 91 92  1  0
 91 90  1  0
 93 96  1  1
 93 94  1  0
 95 93  1  0
M  ISO  4  14 100  22 100  55 101  56 101
M  END
>  <TORSDO>  (90) 
F 22

>  <SCORE>  (90) 
-12.752

>  <name>  (90) 
90

>  <ligand_id>  (90) 
90

>  <original_smiles>  (90) 
[H]c1c([H])c([H])c2c(c1[H])C([H])([H])C([H])([H])C([H])([H])C2([H])N([H])C(=O)C1([H])N(C(=O)C([H])(N([H])C(=O)C([H])(N([H])C([H])([H])[H])C([H])([H])[H])C(C([H])([H])[H])(C([H])([H])[H])C([H])([H])[H])C([H])([H])c2c([H])c(OC([H])([H])C([H])([H])C([H])([H])C([H])([H])C3([H])C([H])([H])C([H])([N+]([H])([H])[H])C([H])(C([H])([H])N([H])C(=O)N4C([H])([H])C([H])([H])C([H])([H])C([H])(n5nc(-c6c([H])c([H])c(Oc7c([H])c([H])c(F)c([H])c7F)c([H])c6[H])c(C(=O)N([H])[H])c5N([H])[H])C4([H])[H])C([H])([H])[N+]3([H])[H])c([H])c([H])c2C1([H])[H]

>  <smiles>  (90) 
[H]c1c([H])c([H])c2c(c1[H])C([H])([H])C([H])([H])C([H])([H])C2([H])N([H])C(=O)C1([H])N(C(=O)C([H])(N([H])C(=O)C([H])(N([H])C([H])([H])[H])C([H])([H])[H])C(C([H])([H])[H])(C([H])([H])[H])C([H])([H])[H])C([H])([H])c2c([H])c(OC([H])([H])C([H])([H])C([H])([H])C([H])([H])C3([H])C([H])([H])C([H])([N+]([H])([H])[H])C([H])(C([H])([H])N([H])C(=O)N4C([H])([H])C([H])([H])C([H])([H])C([H])(n5nc(-c6c([H])c([H])c(Oc7c([H])c([H])c(F)c([H])c7F)c([H])c6[H])c(C(=O)N([H])[H])c5N([H])[H])C4([H])[H])C([H])([H])[N+]3([H])[H])c([H])c([H])c2C1([H])[H]

$$$$
