0:0:0
     RDKit          3D

 90 98  0  0  1  0  0  0  0  0999 V2000
  -29.9950  -21.8880   20.8810 C   0  0  0  0  0  2  0  0  0  0  0  0
  -29.1250  -22.9440   20.1610 C   0  0  0  0  0  2  0  0  0  0  0  0
  -29.3800  -24.4290   20.5120 C   0  0  0  0  0  2  0  0  0  0  0  0
  -28.2540  -25.3060   19.9270 C   0  0  0  0  0  2  0  0  0  0  0  0
  -28.3720  -26.7070   20.2090 O   0  0  0  0  0  0  0  0  0  0  0  0
  -24.5720  -31.8890   23.2660 C   0  0  0  0  0  0  0  0  0  0  0  0
  -27.2010  -27.4460   20.1680 C   0  0  0  0  0  0  0  0  0  0  0  0
  -23.3600  -30.4940   21.6240 C   0  0  0  0  0  3  0  0  0  0  0  0
  -24.8070  -28.9650   20.1890 C   0  0  0  0  0  0  0  0  0  0  0  0
  -25.8880  -30.8470   21.4240 C   0  0  0  0  0  2  0  0  0  0  0  0
  -25.9680  -29.4800   20.7780 C   0  0  0  0  0  0  0  0  0  0  0  0
  -27.1660  -28.7270   20.7670 C   0  0  0  0  0  3  0  0  0  0  0  0
  -26.0180  -26.9600   19.5560 C   0  0  0  0  0  3  0  0  0  0  0  0
  -24.8270  -27.7030   19.5760 C   0  0  0  0  0  3  0  0  0  0  0  0
  -23.5640  -29.8230   20.2410 C   0  0  0  0  0  2  0  0  0  0  0  0
  -24.6250  -31.0910   22.1620 N   0  0  0  0  0  0  0  0  0  0  0  0
  -23.4920  -32.1620   23.8090 O   0  0  0  0  0  0  0  0  0  0  0  0
  -22.7100  -29.4690   22.5820 C   0  0  0  0  0  0  0  0  0  0  0  0
  -21.3870  -29.2830   22.4510 N   0  0  0  0  0  0  0  0  0  0  0  0
  -23.3940  -28.8450   23.3970 O   0  0  0  0  0  0  0  0  0  0  0  0
  -20.8960  -29.8410   21.7660 H   0  0  0  0  0  0  0  0  0  0  0  0
  -18.0140  -28.0790   22.9370 C   0  0  0  0  0  0  0  0  0  0  0  0
  -20.5690  -28.3450   23.2190 C   0  0  0  0  0  3  0  0  0  0  0  0
  -20.6790  -26.9130   22.6470 C   0  0  0  0  0  2  0  0  0  0  0  0
  -19.5820  -26.5860   21.6280 C   0  0  0  0  0  2  0  0  0  0  0  0
  -18.1980  -26.7290   22.2660 C   0  0  0  0  0  2  0  0  0  0  0  0
  -19.1280  -28.8460   23.3700 C   0  0  0  0  0  0  0  0  0  0  0  0
  -18.9040  -30.1100   23.9550 C   0  0  0  0  0  3  0  0  0  0  0  0
  -17.5980  -30.6090   24.1130 C   0  0  0  0  0  3  0  0  0  0  0  0
  -16.4980  -29.8400   23.6960 C   0  0  0  0  0  3  0  0  0  0  0  0
  -16.7060  -28.5780   23.1130 C   0  0  0  0  0  3  0  0  0  0  0  0
  -25.8610  -32.5150   23.8850 C   0  0  0  0  0  3  0  0  0  0  0  0
  -25.5590  -33.9160   24.2060 N   0  0  0  0  0  0  0  0  0  0  0  0
  -25.8950  -34.9620   23.4400 C   0  0  0  0  0  0  0  0  0  0  0  0
  -26.5630  -34.8490   22.4080 O   0  0  0  0  0  0  0  0  0  0  0  0
  -24.9660  -34.0790   25.0070 H   0  0  0  0  0  0  0  0  0  0  0  0
  -24.1750  -36.7590   23.0730 C   0  0  0  0  0  1  0  0  0  0  0  0
  -25.4130  -36.3550   23.8870 C   0  0  0  0  0  3  0  0  0  0  0  0
  -27.5520  -37.2350   24.7120 C   0  0  0  0  0  1  0  0  0  0  0  0
  -26.4500  -37.4040   23.7680 N   0  0  0  0  0  0  0  0  0  0  0  0
  -26.0480  -38.3250   23.9110 H   0  0  0  0  0  0  0  0  0  0  0  0
  -26.3760  -31.7460   25.1620 C   0  0  1  0  0  0  0  0  0  0  0  0
  -25.2840  -31.5190   26.2340 C   0  0  0  0  0  1  0  0  0  0  0  0
  -26.9500  -30.3640   24.7720 C   0  0  0  0  0  1  0  0  0  0  0  0
  -27.5320  -32.5370   25.8190 C   0  0  0  0  0  1  0  0  0  0  0  0
  -29.5710  -20.4690   20.4340 C   0  0  0  0  0  2  0  0  0  0  0  0
  -30.2300  -19.3410   21.1450 N   0  0  0  0  0  4  0  0  0  0  0  0
  -31.2230  -19.3700   20.9780 H   0  0  0  0  0  0  0  0  0  0  0  0
  -30.0820  -19.4570   22.1350 H   0  0  0  0  0  0  0  0  0  0  0  0
  -30.6660  -14.5040   20.5100 C   0  0  0  0  0  0  0  0  0  0  0  0
  -30.3740  -12.3160   19.4390 C   0  0  0  0  0  2  0  0  0  0  0  0
  -29.4600  -12.4880   18.2080 C   0  0  0  0  0  2  0  0  0  0  0  0
  -27.9770  -12.3560   18.6120 C   0  0  0  0  0  2  0  0  0  0  0  0
  -27.6050  -13.2170   19.8480 C   0  0  0  0  0  3  0  0  0  0  0  0
  -28.6460  -13.0700   20.9820 C   0  0  0  0  0  2  0  0  0  0  0  0
  -29.9770  -13.3360   20.4170 N   0  0  0  0  0  0  0  0  0  0  0  0
  -31.8660  -14.6060   20.2440 O   0  0  0  0  0  0  0  0  0  0  0  0
  -29.8570  -17.6770   19.2740 C   0  0  0  0  0  2  0  0  0  0  0  0
  -29.5020  -16.1960   19.2620 C   0  0  0  0  0  2  0  0  0  0  0  0
  -30.2790  -16.7690   21.4250 C   0  0  0  0  0  2  0  0  0  0  0  0
  -29.6830  -18.0170   20.7430 C   0  0  0  0  0  3  0  0  0  0  0  0
  -29.9040  -15.6230   20.5650 N   0  0  0  0  0  0  0  0  0  0  0  0
  -25.1960  -13.8460   20.4920 C   0  0  0  0  0  0  0  0  0  0  0  0
  -24.1180  -13.0790   20.8440 C   0  0  0  0  0  0  0  0  0  0  0  0
  -24.5820  -11.7280   20.8500 C   0  0  0  0  0  0  0  0  0  0  0  0
  -26.2460  -12.9570   20.3050 N   0  0  0  0  0  0  0  0  0  0  0  0
  -25.8790  -11.6820   20.5800 N   0  0  0  0  0  0  0  0  0  0  0  0
  -23.8550  -10.4680   21.0400 C   0  0  0  0  0  0  0  0  0  0  0  0
  -24.2770   -9.5090   21.9870 C   0  0  0  0  0  3  0  0  0  0  0  0
  -23.5510   -8.3110   22.1630 C   0  0  0  0  0  3  0  0  0  0  0  0
  -22.3900   -8.0660   21.3930 C   0  0  0  0  0  0  0  0  0  0  0  0
  -21.9890   -9.0120   20.4340 C   0  0  0  0  0  3  0  0  0  0  0  0
  -22.7160  -10.2010   20.2540 C   0  0  0  0  0  3  0  0  0  0  0  0
  -21.6370   -6.9200   21.4790 O   0  0  0  0  0  0  0  0  0  0  0  0
  -21.5790   -6.1830   22.6340 C   0  0  0  0  0  0  0  0  0  0  0  0
  -21.1470   -6.7440   23.8560 C   0  0  0  0  0  3  0  0  0  0  0  0
  -21.0360   -5.9330   25.0030 C   0  0  0  0  0  3  0  0  0  0  0  0
  -21.3470   -4.5620   24.9290 C   0  0  0  0  0  0  0  0  0  0  0  0
  -21.7740   -4.0010   23.7120 C   0  0  0  0  0  3  0  0  0  0  0  0
  -21.8860   -4.8090   22.5680 C   0  0  0  0  0  0  0  0  0  0  0  0
  -22.2770   -4.2590   21.3920 F   0  0  0  0  0  0  0  0  0  0  0  0
  -21.2330   -3.7800   26.0280 F   0  0  0  0  0  0  0  0  0  0  0  0
  -22.7130  -13.5580   21.0680 C   0  0  0  0  0  0  0  0  0  0  0  0
  -21.9620  -12.8740   21.9230 N   0  0  0  0  0  0  0  0  0  0  0  0
  -22.2880  -14.5740   20.5180 O   0  0  0  0  0  0  0  0  0  0  0  0
  -22.3190  -12.0520   22.3890 H   0  0  0  0  0  0  0  0  0  0  0  0
  -21.0170  -13.1740   22.1160 H   0  0  0  0  0  0  0  0  0  0  0  0
  -25.3660  -15.2130   20.2950 N   0  0  0  0  0  0  0  0  0  0  0  0
  -24.6000  -15.8730   20.3800 H   0  0  0  0  0  0  0  0  0  0  0  0
  -26.2350  -15.6470   20.0150 H   0  0  0  0  0  0  0  0  0  0  0  0
  2  3  1  0
  2  1  1  0
  4  5  1  0
  4  3  1  0
  6 17  2  0
  7  5  1  0
  7 12  1  0
  8 16  1  0
  8 18  1  0
  9 15  1  0
  9 11  1  0
 10 16  1  0
 11 10  1  0
 12 11  2  0
 13 14  1  0
 13  7  2  0
 14  9  2  0
 15  8  1  0
 16  6  1  0
 18 20  2  0
 19 18  1  0
 21 19  1  0
 22 31  2  0
 22 27  1  0
 23 19  1  0
 23 27  1  0
 24 23  1  0
 25 26  1  0
 25 24  1  0
 26 22  1  0
 27 28  2  0
 28 29  1  0
 30 29  2  0
 31 30  1  0
 32  6  1  0
 32 33  1  0
 32 42  1  0
 33 36  1  0
 34 38  1  0
 34 33  1  0
 35 34  2  0
 38 37  1  0
 40 38  1  0
 40 41  1  0
 40 39  1  0
 42 45  1  1
 42 43  1  0
 44 42  1  0
 46  1  1  0
 46 47  1  0
 47 49  1  0
 48 47  1  0
 50 62  1  0
 51 56  1  0
 52 53  1  0
 52 51  1  0
 54 53  1  0
 54 66  1  0
 54 55  1  0
 56 50  1  0
 56 55  1  0
 57 50  2  0
 58 61  1  0
 59 58  1  0
 59 62  1  0
 61 47  1  0
 61 60  1  0
 62 60  1  0
 63 64  2  0
 64 65  1  0
 64 83  1  0
 65 68  1  0
 66 63  1  0
 66 67  1  0
 67 65  2  0
 68 69  1  0
 69 70  2  0
 71 74  1  0
 71 70  1  0
 72 71  2  0
 73 72  1  0
 73 68  2  0
 74 75  1  0
 75 76  1  0
 76 77  2  0
 78 77  1  0
 78 82  1  0
 79 78  2  0
 80 75  2  0
 80 79  1  0
 81 80  1  0
 83 84  1  0
 84 87  1  0
 84 86  1  0
 85 83  2  0
 88 89  1  0
 88 63  1  0
 90 88  1  0
M  ISO  4   4 101   5 101  50 100  62 100
M  END
>  <TORSDO>  (1) 
F 21

>  <SCORE>  (1) 
-13.483

>  <name>  (1) 
0

>  <ligand_id>  (1) 
0

>  <original_smiles>  (1) 
[H]c1c([H])c([H])c2c(c1[H])C([H])([H])C([H])([H])C([H])([H])C2([H])N([H])C(=O)C1([H])N(C(=O)C([H])(N([H])C(=O)C([H])(N([H])C([H])([H])[H])C([H])([H])[H])C(C([H])([H])[H])(C([H])([H])[H])C([H])([H])[H])C([H])([H])c2c([H])c(OC([H])([H])C([H])([H])C([H])([H])C([H])([H])C([H])([H])[N+]([H])([H])C3([H])C([H])([H])N(C(=O)N4C([H])([H])C([H])([H])C([H])([H])C([H])(n5nc(-c6c([H])c([H])c(Oc7c([H])c([H])c(F)c([H])c7F)c([H])c6[H])c(C(=O)N([H])[H])c5N([H])[H])C4([H])[H])C([H])([H])C3([H])[H])c([H])c([H])c2C1([H])[H]

>  <smiles>  (1) 
[H]c1c([H])c([H])c2c(c1[H])C([H])([H])C([H])([H])C([H])([H])C2([H])N([H])C(=O)C1([H])N(C(=O)C([H])(N([H])C(=O)C([H])(N([H])C([H])([H])[H])C([H])([H])[H])C(C([H])([H])[H])(C([H])([H])[H])C([H])([H])[H])C([H])([H])c2c([H])c(OC([H])([H])C([H])([H])C([H])([H])C([H])([H])C([H])([H])[N+]([H])([H])C3([H])C([H])([H])N(C(=O)N4C([H])([H])C([H])([H])C([H])([H])C([H])(n5nc(-c6c([H])c([H])c(Oc7c([H])c([H])c(F)c([H])c7F)c([H])c6[H])c(C(=O)N([H])[H])c5N([H])[H])C4([H])[H])C([H])([H])C3([H])[H])c([H])c([H])c2C1([H])[H]

$$$$
1:0:0
     RDKit          3D

 98106  0  0  1  0  0  0  0  0999 V2000
  -31.0040  -21.4400   18.0890 C   0  0  0  0  0  2  0  0  0  0  0  0
  -29.9090  -20.8820   20.2850 C   0  0  0  0  0  2  0  0  0  0  0  0
  -29.6400  -21.9170   17.5710 C   0  0  0  0  0  2  0  0  0  0  0  0
  -28.5890  -21.4930   19.7510 C   0  0  0  0  0  2  0  0  0  0  0  0
  -30.8140  -20.3390   19.1490 C   0  0  0  0  0  3  0  0  0  0  0  0
  -28.8540  -22.5030   18.6870 N   0  0  2  0  0  4  0  0  0  0  0  0
  -29.4440  -23.1910   19.1270 H   0  0  0  0  0  0  0  0  0  0  0  0
  -32.1770  -19.8060   19.6420 C   0  0  0  0  0  2  0  0  0  0  0  0
  -32.1190  -18.4170   20.1610 N   0  0  0  0  0  4  0  0  0  0  0  0
  -31.3180  -18.2450   20.7470 H   0  0  0  0  0  0  0  0  0  0  0  0
  -32.9370  -18.3080   20.7480 H   0  0  0  0  0  0  0  0  0  0  0  0
  -32.2360  -17.3600   19.1310 C   0  0  0  0  0  2  0  0  0  0  0  0
  -30.9320  -16.5470   18.8880 C   0  0  0  0  0  3  0  0  0  0  0  0
  -31.0340  -14.7840   20.5360 C   0  0  0  0  0  0  0  0  0  0  0  0
  -30.6310  -12.6870   19.4010 C   0  0  0  0  0  2  0  0  0  0  0  0
  -29.7740  -12.9780   18.1530 C   0  0  0  0  0  2  0  0  0  0  0  0
  -28.2710  -12.9250   18.5030 C   0  0  0  0  0  2  0  0  0  0  0  0
  -27.9030  -13.6960   19.8060 C   0  0  0  0  0  3  0  0  0  0  0  0
  -28.9190  -13.4730   20.9530 C   0  0  0  0  0  2  0  0  0  0  0  0
  -30.2700  -13.6740   20.4170 N   0  0  0  0  0  0  0  0  0  0  0  0
  -32.2550  -14.7860   20.4560 O   0  0  0  0  0  0  0  0  0  0  0  0
  -30.4040  -15.8900   20.1040 N   0  0  0  0  0  0  0  0  0  0  0  0
  -29.4130  -15.9350   20.2660 H   0  0  0  0  0  0  0  0  0  0  0  0
  -25.4670  -14.2780   20.4000 C   0  0  0  0  0  0  0  0  0  0  0  0
  -24.3940  -13.5020   20.7360 C   0  0  0  0  0  0  0  0  0  0  0  0
  -24.8720  -12.1530   20.7590 C   0  0  0  0  0  0  0  0  0  0  0  0
  -26.5330  -13.4080   20.2300 N   0  0  0  0  0  0  0  0  0  0  0  0
  -26.1780  -12.1270   20.5160 N   0  0  0  0  0  0  0  0  0  0  0  0
  -24.1530  -10.8830   20.9320 C   0  0  0  0  0  0  0  0  0  0  0  0
  -24.5490   -9.9320   21.8990 C   0  0  0  0  0  3  0  0  0  0  0  0
  -23.8310   -8.7280   22.0550 C   0  0  0  0  0  3  0  0  0  0  0  0
  -22.7000   -8.4630   21.2480 C   0  0  0  0  0  0  0  0  0  0  0  0
  -22.3210   -9.4050   20.2740 C   0  0  0  0  0  3  0  0  0  0  0  0
  -23.0410  -10.6000   20.1140 C   0  0  0  0  0  3  0  0  0  0  0  0
  -21.9540   -7.3130   21.3210 O   0  0  0  0  0  0  0  0  0  0  0  0
  -21.8590   -6.5880   22.4820 C   0  0  0  0  0  0  0  0  0  0  0  0
  -21.3970   -7.1670   23.6850 C   0  0  0  0  0  3  0  0  0  0  0  0
  -21.2500   -6.3700   24.8380 C   0  0  0  0  0  3  0  0  0  0  0  0
  -21.5480   -4.9940   24.7890 C   0  0  0  0  0  0  0  0  0  0  0  0
  -21.9990   -4.4160   23.5890 C   0  0  0  0  0  3  0  0  0  0  0  0
  -22.1510   -5.2100   22.4410 C   0  0  0  0  0  0  0  0  0  0  0  0
  -22.5650   -4.6430   21.2830 F   0  0  0  0  0  0  0  0  0  0  0  0
  -21.3990   -4.2230   25.8940 F   0  0  0  0  0  0  0  0  0  0  0  0
  -22.9800  -13.9660   20.9380 C   0  0  0  0  0  0  0  0  0  0  0  0
  -22.2240  -13.2780   21.7830 N   0  0  0  0  0  0  0  0  0  0  0  0
  -22.5510  -14.9760   20.3790 O   0  0  0  0  0  0  0  0  0  0  0  0
  -22.5720  -12.4500   22.2450 H   0  0  0  0  0  0  0  0  0  0  0  0
  -21.2790  -13.5760   21.9690 H   0  0  0  0  0  0  0  0  0  0  0  0
  -25.6340  -15.6460   20.2000 N   0  0  0  0  0  0  0  0  0  0  0  0
  -24.8590  -16.2980   20.2150 H   0  0  0  0  0  0  0  0  0  0  0  0
  -26.5080  -16.0720   19.9170 H   0  0  0  0  0  0  0  0  0  0  0  0
  -29.8030  -17.2750   18.1150 C   0  0  0  0  0  2  0  0  0  0  0  0
  -29.1560  -18.8450   16.1890 C   0  0  0  0  0  1  0  0  0  0  0  0
  -30.2510  -17.9560   16.7990 C   0  0  0  0  0  2  0  0  0  0  0  0
  -27.6580  -23.2690   18.2380 C   0  0  0  0  0  2  0  0  0  0  0  0
  -27.9020  -24.8090   18.2470 C   0  0  0  0  0  2  0  0  0  0  0  0
  -28.2910  -25.3710   19.6520 C   0  0  0  0  0  2  0  0  0  0  0  0
  -28.3480  -26.8050   19.8370 O   0  0  0  0  0  0  0  0  0  0  0  0
  -24.6340  -31.9760   23.1880 C   0  0  0  0  0  0  0  0  0  0  0  0
  -27.1660  -27.5100   19.9920 C   0  0  0  0  0  0  0  0  0  0  0  0
  -23.3800  -30.5750   21.5850 C   0  0  0  0  0  3  0  0  0  0  0  0
  -24.7810  -29.0260   20.1490 C   0  0  0  0  0  0  0  0  0  0  0  0
  -25.9060  -30.9270   21.3090 C   0  0  0  0  0  2  0  0  0  0  0  0
  -25.9720  -29.5570   20.6590 C   0  0  0  0  0  0  0  0  0  0  0  0
  -27.1750  -28.8120   20.5640 C   0  0  0  0  0  3  0  0  0  0  0  0
  -25.9270  -26.9720   19.5880 C   0  0  0  0  0  3  0  0  0  0  0  0
  -24.7490  -27.7230   19.6400 C   0  0  0  0  0  3  0  0  0  0  0  0
  -23.5500  -29.8920   20.2100 C   0  0  0  0  0  2  0  0  0  0  0  0
  -24.6600  -31.1760   22.0830 N   0  0  0  0  0  0  0  0  0  0  0  0
  -23.5670  -32.2470   23.7560 O   0  0  0  0  0  0  0  0  0  0  0  0
  -22.7570  -29.5550   22.5680 C   0  0  0  0  0  0  0  0  0  0  0  0
  -21.4350  -29.3510   22.4630 N   0  0  0  0  0  0  0  0  0  0  0  0
  -23.4620  -28.9440   23.3770 O   0  0  0  0  0  0  0  0  0  0  0  0
  -20.9220  -29.8990   21.7860 H   0  0  0  0  0  0  0  0  0  0  0  0
  -18.0920  -28.0770   23.0010 C   0  0  0  0  0  0  0  0  0  0  0  0
  -20.6450  -28.4030   23.2520 C   0  0  0  0  0  3  0  0  0  0  0  0
  -20.7790  -26.9650   22.6990 C   0  0  0  0  0  2  0  0  0  0  0  0
  -19.6790  -26.5980   21.6970 C   0  0  0  0  0  2  0  0  0  0  0  0
  -18.2970  -26.7220   22.3430 C   0  0  0  0  0  2  0  0  0  0  0  0
  -19.1940  -28.8730   23.4090 C   0  0  0  0  0  0  0  0  0  0  0  0
  -18.9480  -30.1410   23.9770 C   0  0  0  0  0  3  0  0  0  0  0  0
  -17.6320  -30.6130   24.1430 C   0  0  0  0  0  3  0  0  0  0  0  0
  -16.5450  -29.8130   23.7510 C   0  0  0  0  0  3  0  0  0  0  0  0
  -16.7760  -28.5480   23.1860 C   0  0  0  0  0  3  0  0  0  0  0  0
  -25.9350  -32.6100   23.7690 C   0  0  0  0  0  3  0  0  0  0  0  0
  -26.5080  -31.8260   25.0120 C   0  0  1  0  0  0  0  0  0  0  0  0
  -25.4590  -31.5560   26.1140 C   0  0  0  0  0  1  0  0  0  0  0  0
  -27.0980  -30.4630   24.5770 C   0  0  0  0  0  1  0  0  0  0  0  0
  -27.6660  -32.6280   25.6500 C   0  0  0  0  0  1  0  0  0  0  0  0
  -25.6260  -34.0010   24.1350 N   0  0  0  0  0  0  0  0  0  0  0  0
  -25.9220  -35.0690   23.3850 C   0  0  0  0  0  0  0  0  0  0  0  0
  -26.5640  -34.9920   22.3340 O   0  0  0  0  0  0  0  0  0  0  0  0
  -25.0680  -34.1360   24.9650 H   0  0  0  0  0  0  0  0  0  0  0  0
  -24.1710  -36.8510   23.1080 C   0  0  0  0  0  1  0  0  0  0  0  0
  -25.4320  -36.4420   23.8830 C   0  0  0  0  0  3  0  0  0  0  0  0
  -27.5790  -37.3290   24.6810 C   0  0  0  0  0  1  0  0  0  0  0  0
  -26.4510  -37.5090   23.7700 N   0  0  0  0  0  0  0  0  0  0  0  0
  -26.0380  -38.4190   23.9540 H   0  0  0  0  0  0  0  0  0  0  0  0
  1  5  1  0
  3  1  1  0
  3  6  1  0
  4  2  1  0
  5  8  1  0
  5  2  1  0
  6  7  1  1
  6  4  1  0
  8  9  1  0
  9 10  1  0
  9 11  1  0
 12  9  1  0
 13 52  1  0
 13 12  1  0
 13 22  1  0
 15 20  1  0
 16 17  1  0
 16 15  1  0
 18 17  1  0
 18 27  1  0
 18 19  1  0
 20 14  1  0
 20 19  1  0
 21 14  2  0
 22 23  1  0
 22 14  1  0
 24 25  2  0
 25 26  1  0
 25 44  1  0
 26 29  1  0
 27 24  1  0
 27 28  1  0
 28 26  2  0
 29 30  1  0
 30 31  2  0
 32 35  1  0
 32 31  1  0
 33 32  2  0
 34 33  1  0
 34 29  2  0
 35 36  1  0
 36 37  1  0
 37 38  2  0
 39 38  1  0
 39 43  1  0
 40 39  2  0
 41 36  2  0
 41 40  1  0
 42 41  1  0
 44 45  1  0
 45 48  1  0
 45 47  1  0
 46 44  2  0
 49 50  1  0
 49 24  1  0
 51 49  1  0
 53 54  1  0
 54 52  1  0
 55 56  1  0
 55  6  1  0
 56 57  1  0
 57 58  1  0
 58 60  1  0
 59 70  2  0
 60 65  1  0
 61 69  1  0
 61 71  1  0
 62 68  1  0
 62 64  1  0
 63 69  1  0
 64 63  1  0
 65 64  2  0
 66 67  1  0
 66 60  2  0
 67 62  2  0
 68 61  1  0
 69 59  1  0
 71 73  2  0
 72 71  1  0
 74 72  1  0
 75 84  2  0
 75 80  1  0
 76 72  1  0
 76 80  1  0
 77 76  1  0
 78 79  1  0
 78 77  1  0
 79 75  1  0
 80 81  2  0
 81 82  1  0
 83 82  2  0
 84 83  1  0
 85 59  1  0
 85 90  1  0
 85 86  1  0
 86 89  1  1
 86 87  1  0
 88 86  1  0
 90 93  1  0
 91 95  1  0
 91 90  1  0
 92 91  2  0
 95 94  1  0
 97 95  1  0
 97 98  1  0
 97 96  1  0
M  ISO  4  14 100  22 100  57 101  58 101
M  END
>  <TORSDO>  (2) 
F 25

>  <SCORE>  (2) 
-11.595

>  <name>  (2) 
1

>  <ligand_id>  (2) 
1

>  <original_smiles>  (2) 
[H]c1c([H])c([H])c2c(c1[H])C([H])([H])C([H])([H])C([H])([H])C2([H])N([H])C(=O)C1([H])N(C(=O)C([H])(N([H])C(=O)C([H])(N([H])C([H])([H])[H])C([H])([H])[H])C(C([H])([H])[H])(C([H])([H])[H])C([H])([H])[H])C([H])([H])c2c([H])c(OC([H])([H])C([H])([H])C([H])([H])[N+]3([H])C([H])([H])C([H])([H])C([H])(C([H])([H])[N+]([H])([H])C([H])([H])C([H])(N([H])C(=O)N4C([H])([H])C([H])([H])C([H])([H])C([H])(n5nc(-c6c([H])c([H])c(Oc7c([H])c([H])c(F)c([H])c7F)c([H])c6[H])c(C(=O)N([H])[H])c5N([H])[H])C4([H])[H])C([H])([H])C([H])([H])C([H])([H])[H])C([H])([H])C3([H])[H])c([H])c([H])c2C1([H])[H]

>  <smiles>  (2) 
[H]c1c([H])c([H])c2c(c1[H])C([H])([H])C([H])([H])C([H])([H])C2([H])N([H])C(=O)C1([H])N(C(=O)C([H])(N([H])C(=O)C([H])(N([H])C([H])([H])[H])C([H])([H])[H])C(C([H])([H])[H])(C([H])([H])[H])C([H])([H])[H])C([H])([H])c2c([H])c(OC([H])([H])C([H])([H])C([H])([H])[N+]3([H])C([H])([H])C([H])([H])C([H])(C([H])([H])[N+]([H])([H])C([H])([H])C([H])(N([H])C(=O)N4C([H])([H])C([H])([H])C([H])([H])C([H])(n5nc(-c6c([H])c([H])c(Oc7c([H])c([H])c(F)c([H])c7F)c([H])c6[H])c(C(=O)N([H])[H])c5N([H])[H])C4([H])[H])C([H])([H])C([H])([H])C([H])([H])[H])C([H])([H])C3([H])[H])c([H])c([H])c2C1([H])[H]

$$$$
2:0:0
     RDKit          3D

 91 98  0  0  1  0  0  0  0  0999 V2000
  -29.0100  -21.9140   19.2210 C   0  0  0  0  0  0  0  0  0  0  0  0
  -28.6340  -21.6570   20.3680 O   0  0  0  0  0  0  0  0  0  0  0  0
  -29.0950  -23.3500   18.6940 C   0  0  0  0  0  2  0  0  0  0  0  0
  -28.6540  -24.4300   19.7010 C   0  0  0  0  0  2  0  0  0  0  0  0
  -28.7340  -25.8420   19.1040 C   0  0  0  0  0  2  0  0  0  0  0  0
  -28.4590  -26.8210   20.1030 O   0  0  0  0  0  0  0  0  0  0  0  0
  -24.5960  -31.8790   23.2350 C   0  0  0  0  0  0  0  0  0  0  0  0
  -27.2410  -27.4660   20.1210 C   0  0  0  0  0  0  0  0  0  0  0  0
  -23.3770  -30.4730   21.6040 C   0  0  0  0  0  3  0  0  0  0  0  0
  -24.8230  -28.9330   20.1720 C   0  0  0  0  0  0  0  0  0  0  0  0
  -25.8970  -30.8400   21.3850 C   0  0  0  0  0  2  0  0  0  0  0  0
  -25.9800  -29.4690   20.7520 C   0  0  0  0  0  0  0  0  0  0  0  0
  -27.1840  -28.7350   20.7350 C   0  0  0  0  0  3  0  0  0  0  0  0
  -26.0590  -26.9260   19.5600 C   0  0  0  0  0  3  0  0  0  0  0  0
  -24.8560  -27.6580   19.5820 C   0  0  0  0  0  3  0  0  0  0  0  0
  -23.5770  -29.7860   20.2250 C   0  0  0  0  0  2  0  0  0  0  0  0
  -24.6410  -31.0800   22.1330 N   0  0  0  0  0  0  0  0  0  0  0  0
  -23.5200  -32.1520   23.7850 O   0  0  0  0  0  0  0  0  0  0  0  0
  -22.7370  -29.4520   22.5700 C   0  0  0  0  0  0  0  0  0  0  0  0
  -21.4120  -29.2670   22.4530 N   0  0  0  0  0  0  0  0  0  0  0  0
  -23.4280  -28.8290   23.3800 O   0  0  0  0  0  0  0  0  0  0  0  0
  -20.9170  -29.8200   21.7670 H   0  0  0  0  0  0  0  0  0  0  0  0
  -18.0450  -28.0670   22.9650 C   0  0  0  0  0  0  0  0  0  0  0  0
  -20.6020  -28.3290   23.2290 C   0  0  0  0  0  3  0  0  0  0  0  0
  -20.7080  -26.8970   22.6580 C   0  0  0  0  0  2  0  0  0  0  0  0
  -19.6030  -26.5690   21.6480 C   0  0  0  0  0  2  0  0  0  0  0  0
  -18.2230  -26.7150   22.2940 C   0  0  0  0  0  2  0  0  0  0  0  0
  -19.1620  -28.8320   23.3890 C   0  0  0  0  0  0  0  0  0  0  0  0
  -18.9440  -30.0990   23.9730 C   0  0  0  0  0  3  0  0  0  0  0  0
  -17.6400  -30.5990   24.1390 C   0  0  0  0  0  3  0  0  0  0  0  0
  -16.5360  -29.8300   23.7330 C   0  0  0  0  0  3  0  0  0  0  0  0
  -16.7390  -28.5650   23.1510 C   0  0  0  0  0  3  0  0  0  0  0  0
  -25.8890  -32.5100   23.8430 C   0  0  0  0  0  3  0  0  0  0  0  0
  -26.4300  -31.7310   25.1050 C   0  0  1  0  0  0  0  0  0  0  0  0
  -25.3540  -31.4830   26.1870 C   0  0  0  0  0  1  0  0  0  0  0  0
  -27.0090  -30.3580   24.6890 C   0  0  0  0  0  1  0  0  0  0  0  0
  -27.5880  -32.5230   25.7550 C   0  0  0  0  0  1  0  0  0  0  0  0
  -25.5830  -33.9060   24.1840 N   0  0  0  0  0  0  0  0  0  0  0  0
  -25.9040  -34.9620   23.4230 C   0  0  0  0  0  0  0  0  0  0  0  0
  -26.5620  -34.8650   22.3850 O   0  0  0  0  0  0  0  0  0  0  0  0
  -25.0070  -34.0570   24.9990 H   0  0  0  0  0  0  0  0  0  0  0  0
  -24.1660  -36.7460   23.0920 C   0  0  0  0  0  1  0  0  0  0  0  0
  -25.4170  -36.3470   23.8910 C   0  0  0  0  0  3  0  0  0  0  0  0
  -27.5580  -37.2330   24.7000 C   0  0  0  0  0  1  0  0  0  0  0  0
  -26.4450  -37.4020   23.7700 N   0  0  0  0  0  0  0  0  0  0  0  0
  -26.0380  -38.3200   23.9300 H   0  0  0  0  0  0  0  0  0  0  0  0
  -29.4450  -20.8080   18.2570 C   0  0  0  0  0  2  0  0  0  0  0  0
  -29.0220  -19.3750   18.6580 C   0  0  0  0  0  2  0  0  0  0  0  0
  -29.7710  -18.8050   19.8060 N   0  0  0  0  0  4  0  0  0  0  0  0
  -29.5110  -19.3030   20.6440 H   0  0  0  0  0  0  0  0  0  0  0  0
  -30.7580  -18.9390   19.6550 H   0  0  0  0  0  0  0  0  0  0  0  0
  -29.5270  -17.3570   19.9910 C   0  0  0  0  0  2  0  0  0  0  0  0
  -30.2680  -16.7500   21.2050 C   0  0  0  0  0  2  0  0  0  0  0  0
  -30.6690  -14.3890   20.5310 C   0  0  0  0  0  0  0  0  0  0  0  0
  -30.3370  -12.2910   19.2840 C   0  0  0  0  0  2  0  0  0  0  0  0
  -29.3710  -12.5420   18.1060 C   0  0  0  0  0  2  0  0  0  0  0  0
  -27.9010  -12.4120   18.5570 C   0  0  0  0  0  2  0  0  0  0  0  0
  -27.5970  -13.2160   19.8480 C   0  0  0  0  0  3  0  0  0  0  0  0
  -28.6630  -12.9200   20.9300 C   0  0  0  0  0  2  0  0  0  0  0  0
  -29.9890  -13.2250   20.3640 N   0  0  0  0  0  0  0  0  0  0  0  0
  -31.7240  -14.6560   19.9480 O   0  0  0  0  0  0  0  0  0  0  0  0
  -30.0320  -15.3070   21.2730 N   0  0  0  0  0  0  0  0  0  0  0  0
  -29.2090  -14.9960   21.7660 H   0  0  0  0  0  0  0  0  0  0  0  0
  -25.2070  -13.8440   20.5790 C   0  0  0  0  0  0  0  0  0  0  0  0
  -24.1370  -13.0810   20.9600 C   0  0  0  0  0  0  0  0  0  0  0  0
  -24.5860  -11.7250   20.9170 C   0  0  0  0  0  0  0  0  0  0  0  0
  -26.2440  -12.9550   20.3360 N   0  0  0  0  0  0  0  0  0  0  0  0
  -25.8710  -11.6760   20.5930 N   0  0  0  0  0  0  0  0  0  0  0  0
  -23.8540  -10.4670   21.1130 C   0  0  0  0  0  0  0  0  0  0  0  0
  -24.3140   -9.4790   22.0120 C   0  0  0  0  0  3  0  0  0  0  0  0
  -23.5840   -8.2840   22.1940 C   0  0  0  0  0  3  0  0  0  0  0  0
  -22.3810   -8.0700   21.4810 C   0  0  0  0  0  0  0  0  0  0  0  0
  -21.9410   -9.0480   20.5710 C   0  0  0  0  0  3  0  0  0  0  0  0
  -22.6710  -10.2340   20.3850 C   0  0  0  0  0  3  0  0  0  0  0  0
  -21.6210   -6.9310   21.5760 O   0  0  0  0  0  0  0  0  0  0  0  0
  -21.6300   -6.1500   22.7050 C   0  0  0  0  0  0  0  0  0  0  0  0
  -21.3020   -6.6730   23.9750 C   0  0  0  0  0  3  0  0  0  0  0  0
  -21.2570   -5.8220   25.0960 C   0  0  0  0  0  3  0  0  0  0  0  0
  -21.5290   -4.4490   24.9490 C   0  0  0  0  0  0  0  0  0  0  0  0
  -21.8510   -3.9250   23.6850 C   0  0  0  0  0  3  0  0  0  0  0  0
  -21.8990   -4.7740   22.5650 C   0  0  0  0  0  0  0  0  0  0  0  0
  -22.1880   -4.2600   21.3450 F   0  0  0  0  0  0  0  0  0  0  0  0
  -21.4780   -3.6280   26.0250 F   0  0  0  0  0  0  0  0  0  0  0  0
  -22.7460  -13.5670   21.2510 C   0  0  0  0  0  0  0  0  0  0  0  0
  -22.0230  -12.8770   22.1280 N   0  0  0  0  0  0  0  0  0  0  0  0
  -22.3080  -14.5950   20.7370 O   0  0  0  0  0  0  0  0  0  0  0  0
  -22.3870  -12.0470   22.5710 H   0  0  0  0  0  0  0  0  0  0  0  0
  -21.0890  -13.1850   22.3580 H   0  0  0  0  0  0  0  0  0  0  0  0
  -25.3850  -15.2140   20.3980 N   0  0  0  0  0  0  0  0  0  0  0  0
  -24.6260  -15.8790   20.5020 H   0  0  0  0  0  0  0  0  0  0  0  0
  -26.2290  -15.6260   20.0270 H   0  0  0  0  0  0  0  0  0  0  0  0
  1  2  2  0
  3  1  1  0
  3  4  1  0
  5  4  1  0
  5  6  1  0
  6  8  1  0
  7 18  2  0
  8 13  1  0
  9 17  1  0
  9 19  1  0
 10 16  1  0
 10 12  1  0
 11 17  1  0
 12 11  1  0
 13 12  2  0
 14 15  1  0
 14  8  2  0
 15 10  2  0
 16  9  1  0
 17  7  1  0
 19 21  2  0
 20 19  1  0
 22 20  1  0
 23 32  2  0
 23 28  1  0
 24 20  1  0
 24 28  1  0
 25 24  1  0
 26 27  1  0
 26 25  1  0
 27 23  1  0
 28 29  2  0
 29 30  1  0
 31 30  2  0
 32 31  1  0
 33  7  1  0
 33 38  1  0
 33 34  1  0
 34 37  1  1
 34 35  1  0
 36 34  1  0
 38 41  1  0
 39 43  1  0
 39 38  1  0
 40 39  2  0
 43 42  1  0
 45 43  1  0
 45 46  1  0
 45 44  1  0
 47 48  1  0
 47  1  1  0
 48 49  1  0
 49 52  1  0
 49 50  1  0
 51 49  1  0
 52 53  1  0
 53 62  1  0
 54 62  1  0
 55 60  1  0
 56 57  1  0
 56 55  1  0
 58 57  1  0
 58 67  1  0
 58 59  1  0
 60 54  1  0
 60 59  1  0
 61 54  2  0
 62 63  1  0
 64 65  2  0
 65 84  1  0
 66 65  1  0
 66 69  1  0
 67 64  1  0
 67 68  1  0
 68 66  2  0
 69 70  1  0
 70 71  2  0
 72 75  1  0
 72 71  1  0
 73 72  2  0
 74 73  1  0
 74 69  2  0
 75 76  1  0
 76 77  1  0
 77 78  2  0
 79 78  1  0
 79 83  1  0
 80 79  2  0
 81 76  2  0
 81 80  1  0
 82 81  1  0
 84 85  1  0
 85 88  1  0
 85 87  1  0
 86 84  2  0
 89 90  1  0
 89 64  1  0
 91 89  1  0
M  ISO  4   5 101   6 101  54 100  62 100
M  END
>  <TORSDO>  (3) 
F 24

>  <SCORE>  (3) 
-12.306

>  <name>  (3) 
2

>  <ligand_id>  (3) 
2

>  <original_smiles>  (3) 
[H]c1c([H])c([H])c2c(c1[H])C([H])([H])C([H])([H])C([H])([H])C2([H])N([H])C(=O)C1([H])N(C(=O)C([H])(N([H])C(=O)C([H])(N([H])C([H])([H])[H])C([H])([H])[H])C(C([H])([H])[H])(C([H])([H])[H])C([H])([H])[H])C([H])([H])c2c([H])c(OC([H])([H])C([H])([H])C([H])([H])C(=O)C([H])([H])C([H])([H])[N+]([H])([H])C([H])([H])C([H])([H])N([H])C(=O)N3C([H])([H])C([H])([H])C([H])([H])C([H])(n4nc(-c5c([H])c([H])c(Oc6c([H])c([H])c(F)c([H])c6F)c([H])c5[H])c(C(=O)N([H])[H])c4N([H])[H])C3([H])[H])c([H])c([H])c2C1([H])[H]

>  <smiles>  (3) 
[H]c1c([H])c([H])c2c(c1[H])C([H])([H])C([H])([H])C([H])([H])C2([H])N([H])C(=O)C1([H])N(C(=O)C([H])(N([H])C(=O)C([H])(N([H])C([H])([H])[H])C([H])([H])[H])C(C([H])([H])[H])(C([H])([H])[H])C([H])([H])[H])C([H])([H])c2c([H])c(OC([H])([H])C([H])([H])C([H])([H])C(=O)C([H])([H])C([H])([H])[N+]([H])([H])C([H])([H])C([H])([H])N([H])C(=O)N3C([H])([H])C([H])([H])C([H])([H])C([H])(n4nc(-c5c([H])c([H])c(Oc6c([H])c([H])c(F)c([H])c6F)c([H])c5[H])c(C(=O)N([H])[H])c4N([H])[H])C3([H])[H])c([H])c([H])c2C1([H])[H]

$$$$
3:0:0
     RDKit          3D

 94102  0  0  1  0  0  0  0  0999 V2000
  -29.3540  -18.4920   20.3530 C   0  0  0  0  0  2  0  0  0  0  0  0
  -30.8060  -20.2570   20.7580 C   0  0  0  0  0  2  0  0  0  0  0  0
  -30.7100  -17.8250   20.6850 C   0  0  0  0  0  3  0  0  0  0  0  0
  -31.5850  -19.0010   21.1680 C   0  0  0  0  0  3  0  0  0  0  0  0
  -29.4110  -19.8560   20.8960 N   0  0  0  0  0  0  0  0  0  0  0  0
  -32.9450  -18.9700   20.5990 N   0  0  0  0  0  4  0  0  0  0  0  0
  -32.9240  -19.0270   19.5970 H   0  0  0  0  0  0  0  0  0  0  0  0
  -33.4210  -18.1250   20.8600 H   0  0  0  0  0  0  0  0  0  0  0  0
  -33.4830  -19.7440   20.9490 H   0  0  0  0  0  0  0  0  0  0  0  0
  -30.6550  -16.6650   21.7220 C   0  0  0  0  0  2  0  0  0  0  0  0
  -30.6950  -14.4670   20.5030 C   0  0  0  0  0  0  0  0  0  0  0  0
  -30.3660  -12.3640   19.2510 C   0  0  0  0  0  2  0  0  0  0  0  0
  -29.4090  -12.6000   18.0660 C   0  0  0  0  0  2  0  0  0  0  0  0
  -27.9390  -12.4560   18.5100 C   0  0  0  0  0  2  0  0  0  0  0  0
  -27.6200  -13.2610   19.7970 C   0  0  0  0  0  3  0  0  0  0  0  0
  -28.6820  -12.9940   20.8850 C   0  0  0  0  0  2  0  0  0  0  0  0
  -30.0030  -13.3130   20.3140 N   0  0  0  0  0  0  0  0  0  0  0  0
  -31.7930  -14.6910   19.9850 O   0  0  0  0  0  0  0  0  0  0  0  0
  -30.0730  -15.4010   21.2430 N   0  0  0  0  0  0  0  0  0  0  0  0
  -29.1630  -15.1490   21.6010 H   0  0  0  0  0  0  0  0  0  0  0  0
  -25.2210  -13.8650   20.5120 C   0  0  0  0  0  0  0  0  0  0  0  0
  -24.1570  -13.0900   20.8870 C   0  0  0  0  0  0  0  0  0  0  0  0
  -24.6210  -11.7390   20.8560 C   0  0  0  0  0  0  0  0  0  0  0  0
  -26.2680  -12.9860   20.2800 N   0  0  0  0  0  0  0  0  0  0  0  0
  -25.9090  -11.7020   20.5430 N   0  0  0  0  0  0  0  0  0  0  0  0
  -23.8990  -10.4750   21.0500 C   0  0  0  0  0  0  0  0  0  0  0  0
  -24.3440   -9.5060   21.9750 C   0  0  0  0  0  3  0  0  0  0  0  0
  -23.6220   -8.3060   22.1560 C   0  0  0  0  0  3  0  0  0  0  0  0
  -22.4430   -8.0680   21.4130 C   0  0  0  0  0  0  0  0  0  0  0  0
  -22.0170   -9.0260   20.4770 C   0  0  0  0  0  3  0  0  0  0  0  0
  -22.7390  -10.2170   20.2930 C   0  0  0  0  0  3  0  0  0  0  0  0
  -21.6930   -6.9200   21.5040 O   0  0  0  0  0  0  0  0  0  0  0  0
  -21.6630   -6.1680   22.6520 C   0  0  0  0  0  0  0  0  0  0  0  0
  -21.2620   -6.7150   23.8900 C   0  0  0  0  0  3  0  0  0  0  0  0
  -21.1800   -5.8900   25.0290 C   0  0  0  0  0  3  0  0  0  0  0  0
  -21.4890   -4.5210   24.9320 C   0  0  0  0  0  0  0  0  0  0  0  0
  -21.8840   -3.9730   23.6980 C   0  0  0  0  0  3  0  0  0  0  0  0
  -21.9670   -4.7950   22.5600 C   0  0  0  0  0  0  0  0  0  0  0  0
  -22.3280   -4.2600   21.3690 F   0  0  0  0  0  0  0  0  0  0  0  0
  -21.4030   -3.7250   26.0240 F   0  0  0  0  0  0  0  0  0  0  0  0
  -22.7590  -13.5640   21.1650 C   0  0  0  0  0  0  0  0  0  0  0  0
  -22.0360  -12.8660   22.0340 N   0  0  0  0  0  0  0  0  0  0  0  0
  -22.3160  -14.5890   20.6480 O   0  0  0  0  0  0  0  0  0  0  0  0
  -22.4060  -12.0370   22.4750 H   0  0  0  0  0  0  0  0  0  0  0  0
  -21.0990  -13.1650   22.2620 H   0  0  0  0  0  0  0  0  0  0  0  0
  -25.3830  -15.2350   20.3310 N   0  0  0  0  0  0  0  0  0  0  0  0
  -24.6160  -15.8890   20.4380 H   0  0  0  0  0  0  0  0  0  0  0  0
  -26.2310  -15.6720   19.9920 H   0  0  0  0  0  0  0  0  0  0  0  0
  -28.4810  -20.7940   20.2450 C   0  0  0  0  0  2  0  0  0  0  0  0
  -27.8800  -21.8100   21.2470 C   0  0  0  0  0  2  0  0  0  0  0  0
  -28.6270  -23.1500   21.4580 C   0  0  0  0  0  2  0  0  0  0  0  0
  -28.2120  -24.3170   20.5260 C   0  0  0  0  0  2  0  0  0  0  0  0
  -28.6450  -25.6990   21.0770 C   0  0  0  0  0  2  0  0  0  0  0  0
  -28.5110  -26.7760   20.1440 O   0  0  0  0  0  0  0  0  0  0  0  0
  -24.6240  -31.9010   23.2420 C   0  0  0  0  0  0  0  0  0  0  0  0
  -27.3310  -27.4790   20.1960 C   0  0  0  0  0  0  0  0  0  0  0  0
  -23.4440  -30.4900   21.5880 C   0  0  0  0  0  3  0  0  0  0  0  0
  -24.9240  -28.9560   20.1860 C   0  0  0  0  0  0  0  0  0  0  0  0
  -25.9670  -30.8680   21.4140 C   0  0  0  0  0  2  0  0  0  0  0  0
  -26.0710  -29.4950   20.7840 C   0  0  0  0  0  0  0  0  0  0  0  0
  -27.2790  -28.7630   20.7870 C   0  0  0  0  0  3  0  0  0  0  0  0
  -26.1710  -26.9510   19.5960 C   0  0  0  0  0  3  0  0  0  0  0  0
  -24.9660  -27.6800   19.5930 C   0  0  0  0  0  3  0  0  0  0  0  0
  -23.6730  -29.8070   20.2130 C   0  0  0  0  0  2  0  0  0  0  0  0
  -24.6960  -31.1010   22.1400 N   0  0  0  0  0  0  0  0  0  0  0  0
  -23.5360  -32.1650   23.7710 O   0  0  0  0  0  0  0  0  0  0  0  0
  -22.7910  -29.4640   22.5430 C   0  0  0  0  0  0  0  0  0  0  0  0
  -21.4680  -29.2760   22.4040 N   0  0  0  0  0  0  0  0  0  0  0  0
  -23.4710  -28.8420   23.3630 O   0  0  0  0  0  0  0  0  0  0  0  0
  -20.9810  -29.8300   21.7130 H   0  0  0  0  0  0  0  0  0  0  0  0
  -18.0950  -28.0700   22.8710 C   0  0  0  0  0  0  0  0  0  0  0  0
  -20.6490  -28.3340   23.1670 C   0  0  0  0  0  3  0  0  0  0  0  0
  -20.7620  -26.9050   22.5870 C   0  0  0  0  0  2  0  0  0  0  0  0
  -19.6690  -26.5820   21.5630 C   0  0  0  0  0  2  0  0  0  0  0  0
  -18.2820  -26.7220   22.1960 C   0  0  0  0  0  2  0  0  0  0  0  0
  -19.2080  -28.8340   23.3130 C   0  0  0  0  0  0  0  0  0  0  0  0
  -18.9810  -30.0970   23.9020 C   0  0  0  0  0  3  0  0  0  0  0  0
  -17.6730  -30.5940   24.0580 C   0  0  0  0  0  3  0  0  0  0  0  0
  -16.5750  -29.8270   23.6340 C   0  0  0  0  0  3  0  0  0  0  0  0
  -16.7870  -28.5670   23.0460 C   0  0  0  0  0  3  0  0  0  0  0  0
  -25.9000  -32.5400   23.8740 C   0  0  0  0  0  3  0  0  0  0  0  0
  -26.4090  -31.7750   25.1570 C   0  0  1  0  0  0  0  0  0  0  0  0
  -25.3080  -31.5360   26.2160 C   0  0  0  0  0  1  0  0  0  0  0  0
  -27.0010  -30.4000   24.7720 C   0  0  0  0  0  1  0  0  0  0  0  0
  -27.5500  -32.5770   25.8280 C   0  0  0  0  0  1  0  0  0  0  0  0
  -25.5820  -33.9380   24.1940 N   0  0  0  0  0  0  0  0  0  0  0  0
  -25.9170  -34.9870   23.4310 C   0  0  0  0  0  0  0  0  0  0  0  0
  -26.5960  -34.8800   22.4060 O   0  0  0  0  0  0  0  0  0  0  0  0
  -24.9810  -34.0940   24.9900 H   0  0  0  0  0  0  0  0  0  0  0  0
  -24.1810  -36.7660   23.0500 C   0  0  0  0  0  1  0  0  0  0  0  0
  -25.4170  -36.3750   23.8750 C   0  0  0  0  0  3  0  0  0  0  0  0
  -27.5410  -37.2760   24.7150 C   0  0  0  0  0  1  0  0  0  0  0  0
  -26.4450  -37.4330   23.7630 N   0  0  0  0  0  0  0  0  0  0  0  0
  -26.0320  -38.3510   23.9050 H   0  0  0  0  0  0  0  0  0  0  0  0
  1  3  1  0
  1  5  1  0
  2  5  1  0
  2  4  1  0
  3  4  1  0
  3 10  1  0
  4  6  1  0
  6  8  1  0
  6  9  1  0
  7  6  1  0
 11 19  1  0
 12 17  1  0
 13 14  1  0
 13 12  1  0
 15 14  1  0
 15 24  1  0
 15 16  1  0
 17 11  1  0
 17 16  1  0
 18 11  2  0
 19 20  1  0
 19 10  1  0
 21 22  2  0
 22 41  1  0
 23 22  1  0
 23 26  1  0
 24 21  1  0
 24 25  1  0
 25 23  2  0
 26 27  1  0
 27 28  2  0
 29 32  1  0
 29 28  1  0
 30 29  2  0
 31 30  1  0
 31 26  2  0
 32 33  1  0
 33 34  1  0
 34 35  2  0
 36 35  1  0
 36 40  1  0
 37 36  2  0
 38 33  2  0
 38 37  1  0
 39 38  1  0
 41 42  1  0
 42 45  1  0
 42 44  1  0
 43 41  2  0
 46 47  1  0
 46 21  1  0
 48 46  1  0
 49  5  1  0
 49 50  1  0
 50 51  1  0
 52 53  1  0
 52 51  1  0
 54 56  1  0
 54 53  1  0
 55 66  2  0
 56 61  1  0
 57 65  1  0
 57 67  1  0
 58 64  1  0
 58 60  1  0
 59 65  1  0
 60 61  2  0
 60 59  1  0
 62 56  2  0
 63 62  1  0
 63 58  2  0
 64 57  1  0
 65 55  1  0
 67 69  2  0
 68 67  1  0
 70 68  1  0
 71 80  2  0
 71 76  1  0
 72 68  1  0
 72 76  1  0
 73 72  1  0
 74 75  1  0
 74 73  1  0
 75 71  1  0
 76 77  2  0
 77 78  1  0
 79 78  2  0
 80 79  1  0
 81 55  1  0
 81 86  1  0
 81 82  1  0
 82 85  1  1
 82 83  1  0
 84 82  1  0
 86 89  1  0
 87 91  1  0
 87 86  1  0
 88 87  2  0
 91 90  1  0
 93 91  1  0
 93 94  1  0
 93 92  1  0
M  ISO  4  11 100  19 100  53 101  54 101
M  END
>  <TORSDO>  (4) 
F 23

>  <SCORE>  (4) 
-13.337

>  <name>  (4) 
3

>  <ligand_id>  (4) 
3

>  <original_smiles>  (4) 
[H]c1c([H])c([H])c2c(c1[H])C([H])([H])C([H])([H])C([H])([H])C2([H])N([H])C(=O)C1([H])N(C(=O)C([H])(N([H])C(=O)C([H])(N([H])C([H])([H])[H])C([H])([H])[H])C(C([H])([H])[H])(C([H])([H])[H])C([H])([H])[H])C([H])([H])c2c([H])c(OC([H])([H])C([H])([H])C([H])([H])C([H])([H])C([H])([H])N3C([H])([H])C([H])(C([H])([H])N([H])C(=O)N4C([H])([H])C([H])([H])C([H])([H])C([H])(n5nc(-c6c([H])c([H])c(Oc7c([H])c([H])c(F)c([H])c7F)c([H])c6[H])c(C(=O)N([H])[H])c5N([H])[H])C4([H])[H])C([H])([N+]([H])([H])[H])C3([H])[H])c([H])c([H])c2C1([H])[H]

>  <smiles>  (4) 
[H]c1c([H])c([H])c2c(c1[H])C([H])([H])C([H])([H])C([H])([H])C2([H])N([H])C(=O)C1([H])N(C(=O)C([H])(N([H])C(=O)C([H])(N([H])C([H])([H])[H])C([H])([H])[H])C(C([H])([H])[H])(C([H])([H])[H])C([H])([H])[H])C([H])([H])c2c([H])c(OC([H])([H])C([H])([H])C([H])([H])C([H])([H])C([H])([H])N3C([H])([H])C([H])(C([H])([H])N([H])C(=O)N4C([H])([H])C([H])([H])C([H])([H])C([H])(n5nc(-c6c([H])c([H])c(Oc7c([H])c([H])c(F)c([H])c7F)c([H])c6[H])c(C(=O)N([H])[H])c5N([H])[H])C4([H])[H])C([H])([N+]([H])([H])[H])C3([H])[H])c([H])c([H])c2C1([H])[H]

$$$$
4:0:0
     RDKit          3D

 90 98  0  0  1  0  0  0  0  0999 V2000
  -30.1460  -19.9480   20.4500 C   0  0  0  0  0  0  0  0  0  0  0  0
  -29.3090  -21.0330   20.2600 N   0  0  0  0  0  0  0  0  0  0  0  0
  -31.3430  -20.1440   20.6630 O   0  0  0  0  0  0  0  0  0  0  0  0
  -28.3440  -20.7940   20.0620 H   0  0  0  0  0  0  0  0  0  0  0  0
  -30.8810  -14.7600   19.4370 C   0  0  0  0  0  0  0  0  0  0  0  0
  -30.4170  -12.6390   18.1850 C   0  0  0  0  0  2  0  0  0  0  0  0
  -29.2930  -12.8450   17.1420 C   0  0  0  0  0  2  0  0  0  0  0  0
  -27.9080  -12.6360   17.7800 C   0  0  0  0  0  2  0  0  0  0  0  0
  -27.7590  -13.4000   19.1200 C   0  0  0  0  0  3  0  0  0  0  0  0
  -28.9720  -13.1640   20.0400 C   0  0  0  0  0  2  0  0  0  0  0  0
  -30.1830  -13.5760   19.3130 N   0  0  0  0  0  0  0  0  0  0  0  0
  -31.8950  -14.9350   18.7490 O   0  0  0  0  0  0  0  0  0  0  0  0
  -29.2130  -16.5340   22.2400 C   0  0  0  0  0  2  0  0  0  0  0  0
  -29.4060  -18.0450   21.9950 C   0  0  0  0  0  2  0  0  0  0  0  0
  -30.3750  -15.7270   21.6350 C   0  0  0  0  0  2  0  0  0  0  0  0
  -30.5540  -17.2930   19.8060 C   0  0  0  0  0  2  0  0  0  0  0  0
  -29.6230  -18.4270   20.5030 C   0  0  0  0  0  3  0  0  0  0  0  0
  -30.3430  -15.8220   20.1680 N   0  0  0  0  0  0  0  0  0  0  0  0
  -25.5250  -13.9470   20.2610 C   0  0  0  0  0  0  0  0  0  0  0  0
  -24.5230  -13.1530   20.7470 C   0  0  0  0  0  0  0  0  0  0  0  0
  -24.9600  -11.8060   20.5600 C   0  0  0  0  0  0  0  0  0  0  0  0
  -26.5050  -13.0840   19.7990 N   0  0  0  0  0  0  0  0  0  0  0  0
  -26.1820  -11.7870   20.0400 N   0  0  0  0  0  0  0  0  0  0  0  0
  -24.2630  -10.5350   20.7960 C   0  0  0  0  0  0  0  0  0  0  0  0
  -24.7370   -9.5930   21.7360 C   0  0  0  0  0  3  0  0  0  0  0  0
  -24.0370   -8.3870   21.9550 C   0  0  0  0  0  3  0  0  0  0  0  0
  -22.8500   -8.1130   21.2320 C   0  0  0  0  0  0  0  0  0  0  0  0
  -22.3970   -9.0450   20.2820 C   0  0  0  0  0  3  0  0  0  0  0  0
  -23.0990  -10.2410   20.0610 C   0  0  0  0  0  3  0  0  0  0  0  0
  -22.1190   -6.9560   21.3600 O   0  0  0  0  0  0  0  0  0  0  0  0
  -21.9730   -6.3280   22.5700 C   0  0  0  0  0  0  0  0  0  0  0  0
  -21.4330   -6.9880   23.6970 C   0  0  0  0  0  3  0  0  0  0  0  0
  -21.2360   -6.2820   24.9010 C   0  0  0  0  0  3  0  0  0  0  0  0
  -21.5700   -4.9160   24.9800 C   0  0  0  0  0  0  0  0  0  0  0  0
  -22.1050   -4.2550   23.8590 C   0  0  0  0  0  3  0  0  0  0  0  0
  -22.3000   -4.9590   22.6570 C   0  0  0  0  0  0  0  0  0  0  0  0
  -22.7950   -4.3130   21.5740 F   0  0  0  0  0  0  0  0  0  0  0  0
  -21.3740   -4.2350   26.1340 F   0  0  0  0  0  0  0  0  0  0  0  0
  -23.1950  -13.6150   21.2740 C   0  0  0  0  0  0  0  0  0  0  0  0
  -22.6330  -12.8980   22.2400 N   0  0  0  0  0  0  0  0  0  0  0  0
  -22.6720  -14.6480   20.8580 O   0  0  0  0  0  0  0  0  0  0  0  0
  -23.0740  -12.0650   22.6000 H   0  0  0  0  0  0  0  0  0  0  0  0
  -21.7450  -13.1880   22.6270 H   0  0  0  0  0  0  0  0  0  0  0  0
  -25.6760  -15.3270   20.1560 N   0  0  0  0  0  0  0  0  0  0  0  0
  -24.9550  -15.9770   20.4500 H   0  0  0  0  0  0  0  0  0  0  0  0
  -26.4810  -15.7870   19.7480 H   0  0  0  0  0  0  0  0  0  0  0  0
  -29.5340  -22.4800   20.7040 C   0  0  0  0  0  2  0  0  0  0  0  0
  -29.1550  -23.7550   19.7820 C   0  0  0  0  0  3  0  0  0  0  0  0
  -28.7220  -25.1210   20.5290 C   0  0  0  0  0  3  0  0  0  0  0  0
  -28.7560  -26.4720   19.8930 O   0  0  0  0  0  0  0  0  0  0  0  0
  -24.7060  -31.6510   22.9620 C   0  0  0  0  0  0  0  0  0  0  0  0
  -27.5950  -27.2610   19.9010 C   0  0  0  0  0  0  0  0  0  0  0  0
  -23.5950  -30.2010   21.2970 C   0  0  0  0  0  3  0  0  0  0  0  0
  -25.1460  -28.7430   19.8750 C   0  0  0  0  0  0  0  0  0  0  0  0
  -26.1140  -30.6650   21.1390 C   0  0  0  0  0  2  0  0  0  0  0  0
  -26.2790  -29.2960   20.4850 C   0  0  0  0  0  0  0  0  0  0  0  0
  -27.5100  -28.5680   20.4820 C   0  0  0  0  0  3  0  0  0  0  0  0
  -26.4380  -26.7580   19.2730 C   0  0  0  0  0  3  0  0  0  0  0  0
  -25.2280  -27.4830   19.2570 C   0  0  0  0  0  3  0  0  0  0  0  0
  -23.8610  -29.5480   19.9160 C   0  0  0  0  0  2  0  0  0  0  0  0
  -24.8210  -30.8580   21.8560 N   0  0  0  0  0  0  0  0  0  0  0  0
  -23.6050  -31.8650   23.4880 O   0  0  0  0  0  0  0  0  0  0  0  0
  -22.9780  -29.1480   22.2440 C   0  0  0  0  0  0  0  0  0  0  0  0
  -21.6550  -28.9420   22.1400 N   0  0  0  0  0  0  0  0  0  0  0  0
  -23.6880  -28.5150   23.0300 O   0  0  0  0  0  0  0  0  0  0  0  0
  -21.1370  -29.5160   21.4890 H   0  0  0  0  0  0  0  0  0  0  0  0
  -18.3110  -27.6830   22.7310 C   0  0  0  0  0  0  0  0  0  0  0  0
  -20.8750  -27.9570   22.8900 C   0  0  0  0  0  3  0  0  0  0  0  0
  -20.9650  -26.5610   22.2310 C   0  0  0  0  0  2  0  0  0  0  0  0
  -19.8090  -26.2640   21.2680 C   0  0  0  0  0  2  0  0  0  0  0  0
  -18.4690  -26.3610   21.9990 C   0  0  0  0  0  2  0  0  0  0  0  0
  -19.4420  -28.4360   23.1400 C   0  0  0  0  0  0  0  0  0  0  0  0
  -19.2400  -29.6660   23.8020 C   0  0  0  0  0  3  0  0  0  0  0  0
  -17.9420  -30.1480   24.0530 C   0  0  0  0  0  3  0  0  0  0  0  0
  -16.8260  -29.3910   23.6540 C   0  0  0  0  0  3  0  0  0  0  0  0
  -17.0110  -28.1600   22.9970 C   0  0  0  0  0  3  0  0  0  0  0  0
  -25.9450  -32.3440   23.6060 C   0  0  0  0  0  3  0  0  0  0  0  0
  -26.5330  -31.5520   24.8390 C   0  0  1  0  0  0  0  0  0  0  0  0
  -25.4690  -31.1660   25.8920 C   0  0  0  0  0  1  0  0  0  0  0  0
  -27.2290  -30.2530   24.3720 C   0  0  0  0  0  1  0  0  0  0  0  0
  -27.6170  -32.4060   25.5420 C   0  0  0  0  0  1  0  0  0  0  0  0
  -25.5390  -33.6970   24.0110 N   0  0  0  0  0  0  0  0  0  0  0  0
  -25.7750  -34.8100   23.3010 C   0  0  0  0  0  0  0  0  0  0  0  0
  -26.4290  -34.8070   22.2560 O   0  0  0  0  0  0  0  0  0  0  0  0
  -24.9510  -33.7690   24.8290 H   0  0  0  0  0  0  0  0  0  0  0  0
  -23.9230  -36.4920   23.0520 C   0  0  0  0  0  1  0  0  0  0  0  0
  -25.1950  -36.1320   23.8340 C   0  0  0  0  0  3  0  0  0  0  0  0
  -27.2660  -37.1250   24.7070 C   0  0  0  0  0  1  0  0  0  0  0  0
  -26.1500  -37.2600   23.7750 N   0  0  0  0  0  0  0  0  0  0  0  0
  -25.6780  -38.1400   23.9720 H   0  0  0  0  0  0  0  0  0  0  0  0
  1  3  2  0
  2  1  1  0
  2 47  1  0
  4  2  1  0
  5 18  1  0
  6 11  1  0
  7  8  1  0
  7  6  1  0
  9  8  1  0
  9 22  1  0
  9 10  1  0
 11  5  1  0
 11 10  1  0
 12  5  2  0
 14 13  1  0
 15 13  1  0
 16 18  1  0
 16 17  1  0
 17  1  1  0
 17 14  1  0
 18 15  1  0
 19 20  2  0
 20 39  1  0
 21 20  1  0
 21 24  1  0
 22 23  1  0
 22 19  1  0
 23 21  2  0
 24 25  1  0
 25 26  2  0
 27 30  1  0
 27 26  1  0
 28 27  2  0
 29 28  1  0
 29 24  2  0
 30 31  1  0
 31 36  2  0
 31 32  1  0
 32 33  2  0
 33 34  1  0
 34 38  1  0
 35 34  2  0
 36 35  1  0
 37 36  1  0
 39 40  1  0
 40 42  1  0
 40 43  1  0
 41 39  2  0
 44 19  1  0
 44 45  1  0
 46 44  1  0
 48 49  2  0
 48 47  1  0
 50 52  1  0
 50 49  1  0
 51 62  2  0
 52 57  1  0
 53 61  1  0
 53 63  1  0
 54 60  1  0
 54 56  1  0
 55 61  1  0
 56 55  1  0
 57 56  2  0
 58 52  2  0
 59 58  1  0
 59 54  2  0
 60 53  1  0
 61 51  1  0
 63 65  2  0
 64 63  1  0
 66 64  1  0
 67 76  2  0
 67 72  1  0
 68 64  1  0
 68 72  1  0
 69 68  1  0
 70 71  1  0
 70 69  1  0
 71 67  1  0
 72 73  2  0
 73 74  1  0
 75 74  2  0
 76 75  1  0
 77 51  1  0
 77 82  1  0
 77 78  1  0
 78 81  1  1
 78 79  1  0
 80 78  1  0
 82 85  1  0
 83 87  1  0
 83 82  1  0
 84 83  2  0
 87 86  1  0
 89 87  1  0
 89 90  1  0
 89 88  1  0
M  ISO  4   5 100  18 100  49 101  50 101
M  END
>  <TORSDO>  (5) 
F 19

>  <SCORE>  (5) 
-9.471

>  <name>  (5) 
4

>  <ligand_id>  (5) 
4

>  <original_smiles>  (5) 
[H]c1c([H])c([H])c2c(c1[H])C([H])([H])C([H])([H])C([H])([H])C2([H])N([H])C(=O)C1([H])N(C(=O)C([H])(N([H])C(=O)C([H])(N([H])C([H])([H])[H])C([H])([H])[H])C(C([H])([H])[H])(C([H])([H])[H])C([H])([H])[H])C([H])([H])c2c([H])c(OC([H])([H])C([H])([H])C([H])([H])N([H])C(=O)C3([H])C([H])([H])N(C(=O)N4C([H])([H])C([H])([H])C([H])([H])C([H])(n5nc(-c6c([H])c([H])c(Oc7c([H])c([H])c(F)c([H])c7F)c([H])c6[H])c(C(=O)N([H])[H])c5N([H])[H])C4([H])[H])C([H])([H])C([H])([H])C3([H])[H])c([H])c([H])c2C1([H])[H]

>  <smiles>  (5) 
[H]c1c([H])c([H])c2c(c1[H])C([H])([H])C([H])([H])C([H])([H])C2([H])N([H])C(=O)C1([H])N(C(=O)C([H])(N([H])C(=O)C([H])(N([H])C([H])([H])[H])C([H])([H])[H])C(C([H])([H])[H])(C([H])([H])[H])C([H])([H])[H])C([H])([H])c2c([H])c(OC([H])([H])C([H])([H])C([H])([H])N([H])C(=O)C3([H])C([H])([H])N(C(=O)N4C([H])([H])C([H])([H])C([H])([H])C([H])(n5nc(-c6c([H])c([H])c(Oc7c([H])c([H])c(F)c([H])c7F)c([H])c6[H])c(C(=O)N([H])[H])c5N([H])[H])C4([H])[H])C([H])([H])C([H])([H])C3([H])[H])c([H])c([H])c2C1([H])[H]

$$$$
5:0:0
     RDKit          3D

 90 91  0  0  1  0  0  0  0  0999 V2000
  -21.6620  -24.6450   22.3660 C   0  0  0  0  0  1  0  0  0  0  0  0
  -23.1560  -23.8910   21.6960 N   0  0  0  0  0  4  0  0  0  0  0  0
  -23.1740  -24.2120   20.7410 H   0  0  0  0  0  0  0  0  0  0  0  0
  -23.8820  -24.4120   22.1610 H   0  0  0  0  0  0  0  0  0  0  0  0
  -23.9080  -22.2660   21.5770 C   0  0  0  0  0  1  0  0  0  0  0  0
  -25.4220  -21.3730   20.6650 C   0  0  0  0  0 15  0  0  0  0  0  0
  -26.3260  -19.6240   20.4340 C   0  0  0  0  0 15  0  0  0  0  0  0
  -27.9400  -18.7740   19.6710 C   0  0  0  0  0  1  0  0  0  0  0  0
  -30.1290  -16.3800   19.2340 C   0  0  0  0  0  0  0  0  0  0  0  0
  -31.0140  -13.9240   18.5400 C   0  0  0  0  0  2  0  0  0  0  0  0
  -30.0990  -13.2360   17.4720 C   0  0  0  0  0  2  0  0  0  0  0  0
  -28.7670  -12.7740   18.0920 C   0  0  0  0  0  2  0  0  0  0  0  0
  -28.2570  -13.8390   19.0850 C   0  0  0  0  0  3  0  0  0  0  0  0
  -29.3030  -14.2010   20.1370 C   0  0  0  0  0  2  0  0  0  0  0  0
  -30.2320  -14.9580   19.3610 N   0  0  0  0  0  0  0  0  0  0  0  0
  -31.1880  -16.7450   18.6490 O   0  0  0  0  0  0  0  0  0  0  0  0
  -28.8540  -17.2180   19.6710 N   0  0  0  0  0  0  0  0  0  0  0  0
  -28.2720  -16.5580   20.1720 H   0  0  0  0  0  0  0  0  0  0  0  0
  -26.1990  -14.3730   20.4200 C   0  0  0  0  0  0  0  0  0  0  0  0
  -25.2080  -13.5810   20.9100 C   0  0  0  0  0  0  0  0  0  0  0  0
  -25.5520  -12.2410   20.5420 C   0  0  0  0  0  0  0  0  0  0  0  0
  -27.0500  -13.5080   19.7640 N   0  0  0  0  0  0  0  0  0  0  0  0
  -26.7110  -12.2120   19.9100 N   0  0  0  0  0  0  0  0  0  0  0  0
  -24.8150  -10.9870   20.6850 C   0  0  0  0  0  0  0  0  0  0  0  0
  -25.2580   -9.9680   21.5560 C   0  0  0  0  0  3  0  0  0  0  0  0
  -24.5200   -8.7740   21.6880 C   0  0  0  0  0  3  0  0  0  0  0  0
  -23.3290   -8.5930   20.9450 C   0  0  0  0  0  0  0  0  0  0  0  0
  -22.9100   -9.6010   20.0590 C   0  0  0  0  0  3  0  0  0  0  0  0
  -23.6470  -10.7870   19.9250 C   0  0  0  0  0  3  0  0  0  0  0  0
  -22.5550   -7.4610   20.9910 O   0  0  0  0  0  0  0  0  0  0  0  0
  -22.2670   -6.8330   22.1750 C   0  0  0  0  0  0  0  0  0  0  0  0
  -21.6430   -7.5100   23.2450 C   0  0  0  0  0  3  0  0  0  0  0  0
  -21.3050   -6.8090   24.4190 C   0  0  0  0  0  3  0  0  0  0  0  0
  -21.5790   -5.4320   24.5210 C   0  0  0  0  0  0  0  0  0  0  0  0
  -22.1930   -4.7550   23.4540 C   0  0  0  0  0  3  0  0  0  0  0  0
  -22.5360   -5.4530   22.2840 C   0  0  0  0  0  0  0  0  0  0  0  0
  -23.1110   -4.7930   21.2490 F   0  0  0  0  0  0  0  0  0  0  0  0
  -21.2450   -4.7560   25.6450 F   0  0  0  0  0  0  0  0  0  0  0  0
  -23.9540  -14.0470   21.5810 C   0  0  0  0  0  0  0  0  0  0  0  0
  -23.4150  -13.2380   22.4820 N   0  0  0  0  0  0  0  0  0  0  0  0
  -23.4710  -15.1530   21.3360 O   0  0  0  0  0  0  0  0  0  0  0  0
  -23.8200  -12.3360   22.6920 H   0  0  0  0  0  0  0  0  0  0  0  0
  -22.5690  -13.5170   22.9570 H   0  0  0  0  0  0  0  0  0  0  0  0
  -26.4520  -15.7440   20.4460 N   0  0  0  0  0  0  0  0  0  0  0  0
  -25.9050  -16.4020   20.9860 H   0  0  0  0  0  0  0  0  0  0  0  0
  -27.0920  -16.2000   19.8060 H   0  0  0  0  0  0  0  0  0  0  0  0
  -20.5040  -26.3340   22.0910 C   0  0  0  0  0  1  0  0  0  0  0  0
  -21.1480  -27.8990   19.7410 C   0  0  0  0  0  2  0  0  0  0  0  0
  -23.1090  -27.9210   19.1340 C   0  0  0  0  0  1  0  0  0  0  0  0
  -24.8660  -27.8690   19.6680 O   0  0  0  0  0  0  0  0  0  0  0  0
  -24.6970  -32.0800   23.1770 C   0  0  0  0  0  0  0  0  0  0  0  0
  -26.1720  -28.2900   19.1790 C   0  0  0  0  0  3  0  0  0  0  0  0
  -23.4820  -31.1980   21.2570 C   0  0  0  0  0  3  0  0  0  0  0  0
  -24.8750  -30.4910   19.1800 C   0  0  0  0  0  3  0  0  0  0  0  0
  -26.0110  -31.4960   21.1450 C   0  0  0  0  0  2  0  0  0  0  0  0
  -25.9460  -30.4400   20.0720 C   0  0  0  0  0  3  0  0  0  0  0  0
  -26.7860  -29.3190   19.9630 C   0  0  0  0  0  2  0  0  0  0  0  0
  -25.8980  -28.6780   17.9000 C   0  0  0  0  0  2  0  0  0  0  0  0
  -24.9910  -29.7500   17.9650 C   0  0  0  0  0  2  0  0  0  0  0  0
  -23.6220  -31.1810   19.6860 C   0  0  0  0  0  2  0  0  0  0  0  0
  -24.7430  -31.6480   21.8920 N   0  0  0  0  0  0  0  0  0  0  0  0
  -23.6190  -32.1960   23.7830 O   0  0  0  0  0  0  0  0  0  0  0  0
  -23.1100  -29.8610   21.9600 C   0  0  0  0  0  0  0  0  0  0  0  0
  -21.9220  -29.6790   22.4710 N   0  0  0  0  0  0  0  0  0  0  0  0
  -23.9230  -28.9680   22.1510 O   0  0  0  0  0  0  0  0  0  0  0  0
  -21.2520  -30.4350   22.4330 H   0  0  0  0  0  0  0  0  0  0  0  0
  -18.4810  -28.6130   22.2150 C   0  0  0  0  0  0  0  0  0  0  0  0
  -21.3630  -28.3130   22.6690 C   0  0  0  0  0  2  0  0  0  0  0  0
  -21.8670  -26.9110   21.2060 C   0  0  0  0  0  2  0  0  0  0  0  0
  -19.9400  -26.6140   19.8670 C   0  0  0  0  0  1  0  0  0  0  0  0
  -18.4060  -27.6400   20.7230 C   0  0  0  0  0  1  0  0  0  0  0  0
  -19.7430  -28.9180   22.9850 C   0  0  0  0  0  0  0  0  0  0  0  0
  -19.6160  -29.9290   24.0400 C   0  0  0  0  0  3  0  0  0  0  0  0
  -18.4150  -30.5390   24.4940 C   0  0  0  0  0  3  0  0  0  0  0  0
  -17.2140  -30.1170   23.9170 C   0  0  0  0  0  3  0  0  0  0  0  0
  -17.2650  -29.1920   22.8210 C   0  0  0  0  0  3  0  0  0  0  0  0
  -25.9960  -32.4650   23.9270 C   0  0  0  0  0  3  0  0  0  0  0  0
  -26.4520  -31.3830   24.9780 C   0  0  1  0  0  0  0  0  0  0  0  0
  -25.3290  -30.9280   25.9380 C   0  0  0  0  0  1  0  0  0  0  0  0
  -27.0040  -30.1200   24.2780 C   0  0  0  0  0  1  0  0  0  0  0  0
  -27.6090  -31.9560   25.8270 C   0  0  0  0  0  1  0  0  0  0  0  0
  -25.7260  -33.7490   24.5770 N   0  0  0  0  0  0  0  0  0  0  0  0
  -26.0920  -34.9370   24.0800 C   0  0  0  0  0  0  0  0  0  0  0  0
  -26.7820  -35.0530   23.0630 O   0  0  0  0  0  0  0  0  0  0  0  0
  -25.1200  -33.7320   25.3840 H   0  0  0  0  0  0  0  0  0  0  0  0
  -24.4320  -36.8260   24.1090 C   0  0  0  0  0  1  0  0  0  0  0  0
  -25.6270  -36.1920   24.8400 C   0  0  0  0  0  3  0  0  0  0  0  0
  -27.7580  -36.7540   25.9190 C   0  0  0  0  0  1  0  0  0  0  0  0
  -26.6950  -37.1960   25.0190 N   0  0  0  0  0  0  0  0  0  0  0  0
  -26.3130  -38.0640   25.3840 H   0  0  0  0  0  0  0  0  0  0  0  0
  2  4  1  0
  2  1  1  0
  3  2  1  0
  5  2  1  0
  8 17  1  0
  9 15  1  0
  9 17  1  0
 10 15  1  0
 11 12  1  0
 11 10  1  0
 13 12  1  0
 13 22  1  0
 13 14  1  0
 15 14  1  0
 16  9  2  0
 17 18  1  0
 19 44  1  0
 19 20  2  0
 20 39  1  0
 21 24  1  0
 21 20  1  0
 22 23  1  0
 22 19  1  0
 23 21  2  0
 24 25  1  0
 25 26  2  0
 27 30  1  0
 27 26  1  0
 28 27  2  0
 29 28  1  0
 29 24  2  0
 30 31  1  0
 31 36  2  0
 31 32  1  0
 32 33  2  0
 33 34  1  0
 34 38  1  0
 35 34  2  0
 36 35  1  0
 37 36  1  0
 39 40  1  0
 40 42  1  0
 40 43  1  0
 41 39  2  0
 44 45  1  0
 46 44  1  0
 48 70  1  0
 48 69  1  0
 49 50  1  0
 51 62  2  0
 52 50  1  0
 52 57  1  0
 53 61  1  0
 53 63  1  0
 54 59  1  0
 54 60  1  0
 54 56  1  0
 55 61  1  0
 56 57  1  0
 56 55  1  0
 58 59  1  0
 58 52  1  0
 60 53  1  0
 61 51  1  0
 63 65  2  0
 63 64  1  0
 64 68  1  0
 66 64  1  0
 67 76  2  0
 67 72  1  0
 68 72  1  0
 69 47  1  0
 71 67  1  0
 72 73  2  0
 73 74  1  0
 75 74  2  0
 76 75  1  0
 77 51  1  0
 77 82  1  0
 77 78  1  0
 78 81  1  1
 78 79  1  0
 80 78  1  0
 82 85  1  0
 83 82  1  0
 83 87  1  0
 84 83  2  0
 87 86  1  0
 87 89  1  0
 89 90  1  0
 89 88  1  0
M  ISO  4   9 100  17 100  49 101  50 101
M  END
>  <TORSDO>  (6) 
F 24

>  <SCORE>  (6) 
1.555

>  <name>  (6) 
5

>  <ligand_id>  (6) 
5

>  <original_smiles>  (6) 
[H]c1c([H])c([H])c2c(c1[H])C([H])([H])C([H])([H])C([H])([H])C2([H])N([H])C(=O)C1([H])N(C(=O)C([H])(N([H])C(=O)C([H])(N([H])C([H])([H])[H])C([H])([H])[H])C(C([H])([H])[H])(C([H])([H])[H])C([H])([H])[H])C([H])([H])c2c([H])c(OC([H])([H])C([H])([H])C([H])([H])C([H])([H])[N+]([H])([H])C([H])([H])C([H])([H])C([H])([H])C([H])([H])N([H])C(=O)N3C([H])([H])C([H])([H])C([H])([H])C([H])(n4nc(-c5c([H])c([H])c(Oc6c([H])c([H])c(F)c([H])c6F)c([H])c5[H])c(C(=O)N([H])[H])c4N([H])[H])C3([H])[H])c([H])c([H])c2C1([H])[H]

>  <smiles>  (6) 
[H]c1c([H])c([H])c2c(c1[H])C([H])([H])C([H])([H])C([H])([H])C2([H])N([H])C(=O)C1([H])N(C(=O)C([H])(N([H])C(=O)C([H])(N([H])C([H])([H])[H])C([H])([H])[H])C(C([H])([H])[H])(C([H])([H])[H])C([H])([H])[H])C([H])([H])c2c([H])c(OC([H])([H])C([H])([H])C([H])([H])C([H])([H])[N+]([H])([H])C([H])([H])C([H])([H])C([H])([H])C([H])([H])N([H])C(=O)N3C([H])([H])C([H])([H])C([H])([H])C([H])(n4nc(-c5c([H])c([H])c(Oc6c([H])c([H])c(F)c([H])c6F)c([H])c5[H])c(C(=O)N([H])[H])c4N([H])[H])C3([H])[H])c([H])c([H])c2C1([H])[H]

$$$$
6:0:0
     RDKit          3D

 96104  0  0  1  0  0  0  0  0999 V2000
  -29.6960  -22.3580   21.7370 C   0  0  0  0  0  2  0  0  0  0  0  0
  -31.0180  -22.2830   19.5890 C   0  0  0  0  0  2  0  0  0  0  0  0
  -29.8850  -23.0150   20.3540 C   0  0  0  0  0  3  0  0  0  0  0  0
  -29.4810  -20.8360   21.6140 C   0  0  0  0  0  3  0  0  0  0  0  0
  -30.6540  -20.1670   20.8430 C   0  0  0  0  0  3  0  0  0  0  0  0
  -30.7910  -20.8190   19.5180 N   0  0  0  0  0  4  0  0  0  0  0  0
  -31.5700  -20.4100   19.0290 H   0  0  0  0  0  0  0  0  0  0  0  0
  -29.9620  -20.6450   18.9730 H   0  0  0  0  0  0  0  0  0  0  0  0
  -29.3450  -20.3010   22.9580 N   0  0  0  0  0  0  0  0  0  0  0  0
  -30.2490  -20.2950   23.4200 H   0  0  0  0  0  0  0  0  0  0  0  0
  -29.0900  -19.3200   22.9030 H   0  0  0  0  0  0  0  0  0  0  0  0
  -30.1550  -24.5360   20.4900 C   0  0  0  0  0  2  0  0  0  0  0  0
  -30.0890  -25.3230   19.1600 C   0  0  0  0  0  2  0  0  0  0  0  0
  -28.7450  -26.0420   18.9400 C   0  0  0  0  0  2  0  0  0  0  0  0
  -28.7050  -27.2590   19.6900 O   0  0  0  0  0  0  0  0  0  0  0  0
  -24.8700  -31.7660   23.6300 C   0  0  0  0  0  0  0  0  0  0  0  0
  -27.5040  -27.9310   19.8060 C   0  0  0  0  0  0  0  0  0  0  0  0
  -23.6440  -30.6220   21.8140 C   0  0  0  0  0  3  0  0  0  0  0  0
  -25.0810  -29.3640   20.1270 C   0  0  0  0  0  0  0  0  0  0  0  0
  -26.1560  -31.0560   21.6160 C   0  0  0  0  0  2  0  0  0  0  0  0
  -26.2450  -29.8070   20.7640 C   0  0  0  0  0  0  0  0  0  0  0  0
  -27.4550  -29.0950   20.6070 C   0  0  0  0  0  3  0  0  0  0  0  0
  -26.3150  -27.5050   19.1620 C   0  0  0  0  0  3  0  0  0  0  0  0
  -25.1090  -28.2110   19.3260 C   0  0  0  0  0  3  0  0  0  0  0  0
  -23.8250  -30.1770   20.3390 C   0  0  0  0  0  2  0  0  0  0  0  0
  -24.9100  -31.1540   22.4130 N   0  0  0  0  0  0  0  0  0  0  0  0
  -23.8000  -31.9270   24.2310 O   0  0  0  0  0  0  0  0  0  0  0  0
  -23.0350  -29.4470   22.6120 C   0  0  0  0  0  0  0  0  0  0  0  0
  -21.7360  -29.1850   22.3950 N   0  0  0  0  0  0  0  0  0  0  0  0
  -23.7310  -28.7790   23.3820 O   0  0  0  0  0  0  0  0  0  0  0  0
  -21.2330  -29.7850   21.7560 H   0  0  0  0  0  0  0  0  0  0  0  0
  -18.4740  -27.6340   22.4890 C   0  0  0  0  0  0  0  0  0  0  0  0
  -20.9620  -28.1050   23.0060 C   0  0  0  0  0  3  0  0  0  0  0  0
  -21.2560  -26.7520   22.3180 C   0  0  0  0  0  2  0  0  0  0  0  0
  -20.2770  -26.4260   21.1860 C   0  0  0  0  0  2  0  0  0  0  0  0
  -18.8400  -26.3780   21.7170 C   0  0  0  0  0  2  0  0  0  0  0  0
  -19.4720  -28.4540   23.0810 C   0  0  0  0  0  0  0  0  0  0  0  0
  -19.0800  -29.6300   23.7570 C   0  0  0  0  0  3  0  0  0  0  0  0
  -17.7220  -29.9900   23.8490 C   0  0  0  0  0  3  0  0  0  0  0  0
  -16.7380  -29.1670   23.2750 C   0  0  0  0  0  3  0  0  0  0  0  0
  -17.1140  -27.9900   22.6020 C   0  0  0  0  0  3  0  0  0  0  0  0
  -26.1630  -32.3150   24.3120 C   0  0  0  0  0  3  0  0  0  0  0  0
  -25.9110  -33.7170   24.6710 N   0  0  0  0  0  0  0  0  0  0  0  0
  -26.3400  -34.7720   23.9660 C   0  0  0  0  0  0  0  0  0  0  0  0
  -27.0600  -34.6640   22.9700 O   0  0  0  0  0  0  0  0  0  0  0  0
  -25.2790  -33.8780   25.4420 H   0  0  0  0  0  0  0  0  0  0  0  0
  -24.7300  -36.6660   23.5770 C   0  0  0  0  0  1  0  0  0  0  0  0
  -25.9000  -36.1700   24.4420 C   0  0  0  0  0  3  0  0  0  0  0  0
  -28.0190  -36.9200   25.4290 C   0  0  0  0  0  1  0  0  0  0  0  0
  -26.9910  -37.1690   24.4220 N   0  0  0  0  0  0  0  0  0  0  0  0
  -26.6250  -38.1050   24.5680 H   0  0  0  0  0  0  0  0  0  0  0  0
  -26.6000  -31.4810   25.5780 C   0  0  1  0  0  0  0  0  0  0  0  0
  -25.4480  -31.2160   26.5770 C   0  0  0  0  0  1  0  0  0  0  0  0
  -27.1820  -30.1130   25.1560 C   0  0  0  0  0  1  0  0  0  0  0  0
  -27.7270  -32.2250   26.3330 C   0  0  0  0  0  1  0  0  0  0  0  0
  -30.4970  -18.6260   20.7100 C   0  0  0  0  0  2  0  0  0  0  0  0
  -31.7690  -17.9060   20.2090 C   0  0  0  0  0  2  0  0  0  0  0  0
  -32.0560  -16.5530   20.8940 C   0  0  0  0  0  2  0  0  0  0  0  0
  -31.4920  -14.5380   19.5480 C   0  0  0  0  0  0  0  0  0  0  0  0
  -31.1090  -12.2270   18.7710 C   0  0  0  0  0  2  0  0  0  0  0  0
  -30.0850  -12.1520   17.6250 C   0  0  0  0  0  2  0  0  0  0  0  0
  -28.6530  -12.0670   18.1810 C   0  0  0  0  0  2  0  0  0  0  0  0
  -28.3650  -13.1550   19.2470 C   0  0  0  0  0  3  0  0  0  0  0  0
  -29.4870  -13.2010   20.3060 C   0  0  0  0  0  2  0  0  0  0  0  0
  -30.7780  -13.3850   19.6150 N   0  0  0  0  0  0  0  0  0  0  0  0
  -32.4340  -14.7090   18.7700 O   0  0  0  0  0  0  0  0  0  0  0  0
  -31.1850  -15.4550   20.4770 N   0  0  0  0  0  0  0  0  0  0  0  0
  -30.4030  -15.2340   21.0770 H   0  0  0  0  0  0  0  0  0  0  0  0
  -26.1070  -13.9090   20.2290 C   0  0  0  0  0  0  0  0  0  0  0  0
  -25.0290  -13.2030   20.6890 C   0  0  0  0  0  0  0  0  0  0  0  0
  -25.3790  -11.8230   20.5690 C   0  0  0  0  0  0  0  0  0  0  0  0
  -27.0520  -12.9630   19.8600 N   0  0  0  0  0  0  0  0  0  0  0  0
  -26.6220  -11.7010   20.1200 N   0  0  0  0  0  0  0  0  0  0  0  0
  -24.5850  -10.6100   20.8000 C   0  0  0  0  0  0  0  0  0  0  0  0
  -24.9260   -9.6840   21.8100 C   0  0  0  0  0  3  0  0  0  0  0  0
  -24.1350   -8.5350   22.0260 C   0  0  0  0  0  3  0  0  0  0  0  0
  -22.9880   -8.3030   21.2290 C   0  0  0  0  0  0  0  0  0  0  0  0
  -22.6660   -9.2160   20.2090 C   0  0  0  0  0  3  0  0  0  0  0  0
  -23.4580  -10.3560   19.9930 C   0  0  0  0  0  3  0  0  0  0  0  0
  -22.1750   -7.2020   21.3490 O   0  0  0  0  0  0  0  0  0  0  0  0
  -21.9010   -6.6400   22.5700 C   0  0  0  0  0  0  0  0  0  0  0  0
  -21.2490   -7.3620   23.5930 C   0  0  0  0  0  3  0  0  0  0  0  0
  -20.9240   -6.7250   24.8080 C   0  0  0  0  0  3  0  0  0  0  0  0
  -21.2400   -5.3660   24.9970 C   0  0  0  0  0  0  0  0  0  0  0  0
  -21.8830   -4.6440   23.9770 C   0  0  0  0  0  3  0  0  0  0  0  0
  -22.2100   -5.2790   22.7650 C   0  0  0  0  0  0  0  0  0  0  0  0
  -22.8110   -4.5720   21.7780 F   0  0  0  0  0  0  0  0  0  0  0  0
  -20.9200   -4.7510   26.1600 F   0  0  0  0  0  0  0  0  0  0  0  0
  -23.7090  -13.7680   21.1290 C   0  0  0  0  0  0  0  0  0  0  0  0
  -23.0490  -13.1180   22.0810 N   0  0  0  0  0  0  0  0  0  0  0  0
  -23.2770  -14.8200   20.6600 O   0  0  0  0  0  0  0  0  0  0  0  0
  -23.4130  -12.2640   22.4790 H   0  0  0  0  0  0  0  0  0  0  0  0
  -22.1680  -13.4780   22.4180 H   0  0  0  0  0  0  0  0  0  0  0  0
  -26.3570  -15.2680   20.0730 N   0  0  0  0  0  0  0  0  0  0  0  0
  -25.6610  -15.9760   20.2850 H   0  0  0  0  0  0  0  0  0  0  0  0
  -27.2070  -15.6530   19.6820 H   0  0  0  0  0  0  0  0  0  0  0  0
  2  3  1  0
  3 12  1  0
  3  1  1  0
  4  1  1  0
  4  9  1  0
  5 56  1  0
  5  4  1  0
  6  2  1  0
  6  5  1  0
  7  6  1  0
  8  6  1  0
  9 10  1  0
 11  9  1  0
 13 12  1  0
 14 13  1  0
 14 15  1  0
 15 17  1  0
 16 27  2  0
 17 22  1  0
 18 26  1  0
 18 28  1  0
 19 25  1  0
 19 21  1  0
 20 26  1  0
 21 20  1  0
 22 21  2  0
 23 24  1  0
 23 17  2  0
 24 19  2  0
 25 18  1  0
 26 16  1  0
 28 30  2  0
 29 28  1  0
 31 29  1  0
 32 41  2  0
 32 37  1  0
 33 29  1  0
 33 37  1  0
 34 33  1  0
 35 36  1  0
 35 34  1  0
 36 32  1  0
 37 38  2  0
 38 39  1  0
 40 39  2  0
 41 40  1  0
 42 16  1  0
 42 43  1  0
 42 52  1  0
 43 46  1  0
 44 48  1  0
 44 43  1  0
 45 44  2  0
 48 47  1  0
 50 48  1  0
 50 51  1  0
 50 49  1  0
 52 55  1  1
 52 53  1  0
 54 52  1  0
 57 56  1  0
 57 58  1  0
 59 65  1  0
 59 67  1  0
 60 65  1  0
 61 62  1  0
 61 60  1  0
 63 62  1  0
 63 72  1  0
 63 64  1  0
 65 64  1  0
 66 59  2  0
 67 58  1  0
 67 68  1  0
 69 70  2  0
 70 89  1  0
 71 70  1  0
 71 74  1  0
 72 73  1  0
 72 69  1  0
 73 71  2  0
 74 75  1  0
 75 76  2  0
 77 80  1  0
 77 76  1  0
 78 77  2  0
 79 78  1  0
 79 74  2  0
 80 81  1  0
 81 86  2  0
 81 82  1  0
 82 83  2  0
 83 84  1  0
 84 88  1  0
 85 84  2  0
 86 85  1  0
 87 86  1  0
 89 90  1  0
 90 93  1  0
 90 92  1  0
 91 89  2  0
 94 69  1  0
 94 95  1  0
 96 94  1  0
M  ISO  4  14 101  15 101  59 100  67 100
M  END
>  <TORSDO>  (7) 
F 23

>  <SCORE>  (7) 
-9.767

>  <name>  (7) 
6

>  <ligand_id>  (7) 
6

>  <original_smiles>  (7) 
[H]c1c([H])c([H])c2c(c1[H])C([H])([H])C([H])([H])C([H])([H])C2([H])N([H])C(=O)C1([H])N(C(=O)C([H])(N([H])C(=O)C([H])(N([H])C([H])([H])[H])C([H])([H])[H])C(C([H])([H])[H])(C([H])([H])[H])C([H])([H])[H])C([H])([H])c2c([H])c(OC([H])([H])C([H])([H])C([H])([H])C3([H])C([H])([H])C([H])(N([H])[H])C([H])(C([H])([H])C([H])([H])C([H])([H])N([H])C(=O)N4C([H])([H])C([H])([H])C([H])([H])C([H])(n5nc(-c6c([H])c([H])c(Oc7c([H])c([H])c(F)c([H])c7F)c([H])c6[H])c(C(=O)N([H])[H])c5N([H])[H])C4([H])[H])[N+]([H])([H])C3([H])[H])c([H])c([H])c2C1([H])[H]

>  <smiles>  (7) 
[H]c1c([H])c([H])c2c(c1[H])C([H])([H])C([H])([H])C([H])([H])C2([H])N([H])C(=O)C1([H])N(C(=O)C([H])(N([H])C(=O)C([H])(N([H])C([H])([H])[H])C([H])([H])[H])C(C([H])([H])[H])(C([H])([H])[H])C([H])([H])[H])C([H])([H])c2c([H])c(OC([H])([H])C([H])([H])C([H])([H])C3([H])C([H])([H])C([H])(N([H])[H])C([H])(C([H])([H])C([H])([H])C([H])([H])N([H])C(=O)N4C([H])([H])C([H])([H])C([H])([H])C([H])(n5nc(-c6c([H])c([H])c(Oc7c([H])c([H])c(F)c([H])c7F)c([H])c6[H])c(C(=O)N([H])[H])c5N([H])[H])C4([H])[H])[N+]([H])([H])C3([H])[H])c([H])c([H])c2C1([H])[H]

$$$$
7:0:0
     RDKit          3D

 92100  0  0  1  0  0  0  0  0999 V2000
  -29.6220  -19.6680   18.8850 C   0  0  0  0  0  3  0  0  0  0  0  0
  -29.4680  -19.8360   21.3060 C   0  0  0  0  0  3  0  0  0  0  0  0
  -29.6750  -21.0740   18.7920 C   0  0  0  0  0  3  0  0  0  0  0  0
  -29.5380  -21.2420   21.2140 C   0  0  0  0  0  3  0  0  0  0  0  0
  -29.5070  -19.0370   20.1420 C   0  0  0  0  0  0  0  0  0  0  0  0
  -29.6280  -21.8760   19.9520 C   0  0  0  0  0  0  0  0  0  0  0  0
  -29.6430  -23.2710   19.7980 N   0  0  0  0  0  0  0  0  0  0  0  0
  -29.6840  -23.6370   18.8490 H   0  0  0  0  0  0  0  0  0  0  0  0
  -30.1650  -24.1420   20.8480 C   0  0  0  0  0  2  0  0  0  0  0  0
  -29.0580  -24.8900   21.6250 C   0  0  0  0  0  2  0  0  0  0  0  0
  -29.0430  -26.4180   21.4060 C   0  0  0  0  0  2  0  0  0  0  0  0
  -28.4550  -26.7200   20.1400 O   0  0  0  0  0  0  0  0  0  0  0  0
  -24.6040  -31.8680   23.2290 C   0  0  0  0  0  0  0  0  0  0  0  0
  -27.2960  -27.4570   20.1790 C   0  0  0  0  0  0  0  0  0  0  0  0
  -23.4150  -30.4600   21.5770 C   0  0  0  0  0  3  0  0  0  0  0  0
  -24.8870  -28.9280   20.1660 C   0  0  0  0  0  0  0  0  0  0  0  0
  -25.9350  -30.8390   21.3960 C   0  0  0  0  0  2  0  0  0  0  0  0
  -26.0330  -29.4660   20.7680 C   0  0  0  0  0  0  0  0  0  0  0  0
  -27.2400  -28.7340   20.7800 C   0  0  0  0  0  3  0  0  0  0  0  0
  -26.1420  -26.9310   19.5680 C   0  0  0  0  0  3  0  0  0  0  0  0
  -24.9340  -27.6560   19.5660 C   0  0  0  0  0  3  0  0  0  0  0  0
  -23.6370  -29.7780   20.2000 C   0  0  0  0  0  2  0  0  0  0  0  0
  -24.6690  -31.0700   22.1270 N   0  0  0  0  0  0  0  0  0  0  0  0
  -23.5200  -32.1370   23.7620 O   0  0  0  0  0  0  0  0  0  0  0  0
  -22.7630  -29.4370   22.5350 C   0  0  0  0  0  0  0  0  0  0  0  0
  -21.4370  -29.2630   22.4060 N   0  0  0  0  0  0  0  0  0  0  0  0
  -23.4430  -28.8040   23.3470 O   0  0  0  0  0  0  0  0  0  0  0  0
  -20.9500  -29.8230   21.7210 H   0  0  0  0  0  0  0  0  0  0  0  0
  -18.0530  -28.1010   22.9040 C   0  0  0  0  0  0  0  0  0  0  0  0
  -20.6140  -28.3260   23.1700 C   0  0  0  0  0  3  0  0  0  0  0  0
  -20.7000  -26.9000   22.5770 C   0  0  0  0  0  2  0  0  0  0  0  0
  -19.5900  -26.6010   21.5640 C   0  0  0  0  0  2  0  0  0  0  0  0
  -18.2130  -26.7550   22.2150 C   0  0  0  0  0  2  0  0  0  0  0  0
  -19.1820  -28.8440   23.3370 C   0  0  0  0  0  0  0  0  0  0  0  0
  -18.9800  -30.1050   23.9390 C   0  0  0  0  0  3  0  0  0  0  0  0
  -17.6830  -30.6220   24.1120 C   0  0  0  0  0  3  0  0  0  0  0  0
  -16.5680  -29.8730   23.6960 C   0  0  0  0  0  3  0  0  0  0  0  0
  -16.7540  -28.6140   23.0970 C   0  0  0  0  0  3  0  0  0  0  0  0
  -25.8870  -32.5010   23.8580 C   0  0  0  0  0  3  0  0  0  0  0  0
  -25.5740  -33.8960   24.1870 N   0  0  0  0  0  0  0  0  0  0  0  0
  -25.9070  -34.9500   23.4290 C   0  0  0  0  0  0  0  0  0  0  0  0
  -26.5820  -34.8480   22.4000 O   0  0  0  0  0  0  0  0  0  0  0  0
  -24.9770  -34.0500   24.9860 H   0  0  0  0  0  0  0  0  0  0  0  0
  -24.1760  -36.7350   23.0640 C   0  0  0  0  0  1  0  0  0  0  0  0
  -25.4130  -36.3350   23.8830 C   0  0  0  0  0  3  0  0  0  0  0  0
  -27.5390  -37.2260   24.7290 C   0  0  0  0  0  1  0  0  0  0  0  0
  -26.4430  -37.3910   23.7760 N   0  0  0  0  0  0  0  0  0  0  0  0
  -26.0340  -38.3100   23.9210 H   0  0  0  0  0  0  0  0  0  0  0  0
  -26.4010  -31.7260   25.1330 C   0  0  1  0  0  0  0  0  0  0  0  0
  -25.3050  -31.4840   26.1940 C   0  0  0  0  0  1  0  0  0  0  0  0
  -26.9900  -30.3530   24.7320 C   0  0  0  0  0  1  0  0  0  0  0  0
  -27.5480  -32.5220   25.8010 C   0  0  0  0  0  1  0  0  0  0  0  0
  -29.3470  -17.5220   20.2230 C   0  0  0  0  0  2  0  0  0  0  0  0
  -30.3590  -16.7930   21.1350 C   0  0  0  0  0  2  0  0  0  0  0  0
  -30.6910  -14.4210   20.4210 C   0  0  0  0  0  0  0  0  0  0  0  0
  -30.3360  -12.3240   19.1810 C   0  0  0  0  0  2  0  0  0  0  0  0
  -29.3720  -12.6000   18.0070 C   0  0  0  0  0  2  0  0  0  0  0  0
  -27.9040  -12.4590   18.4580 C   0  0  0  0  0  2  0  0  0  0  0  0
  -27.6050  -13.2470   19.7630 C   0  0  0  0  0  3  0  0  0  0  0  0
  -28.6770  -12.9580   20.8390 C   0  0  0  0  0  2  0  0  0  0  0  0
  -30.0010  -13.2610   20.2640 N   0  0  0  0  0  0  0  0  0  0  0  0
  -31.7560  -14.6620   19.8470 O   0  0  0  0  0  0  0  0  0  0  0  0
  -30.0670  -15.3550   21.1520 N   0  0  0  0  0  0  0  0  0  0  0  0
  -29.2270  -15.0600   21.6270 H   0  0  0  0  0  0  0  0  0  0  0  0
  -25.2130  -13.8540   20.5020 C   0  0  0  0  0  0  0  0  0  0  0  0
  -24.1500  -13.0810   20.8840 C   0  0  0  0  0  0  0  0  0  0  0  0
  -24.6100  -11.7290   20.8390 C   0  0  0  0  0  0  0  0  0  0  0  0
  -26.2550  -12.9730   20.2540 N   0  0  0  0  0  0  0  0  0  0  0  0
  -25.8950  -11.6900   20.5110 N   0  0  0  0  0  0  0  0  0  0  0  0
  -23.8870  -10.4660   21.0350 C   0  0  0  0  0  0  0  0  0  0  0  0
  -24.3400   -9.4940   21.9540 C   0  0  0  0  0  3  0  0  0  0  0  0
  -23.6210   -8.2930   22.1380 C   0  0  0  0  0  3  0  0  0  0  0  0
  -22.4320   -8.0580   21.4050 C   0  0  0  0  0  0  0  0  0  0  0  0
  -21.9990   -9.0190   20.4750 C   0  0  0  0  0  3  0  0  0  0  0  0
  -22.7180  -10.2120   20.2900 C   0  0  0  0  0  3  0  0  0  0  0  0
  -21.6830   -6.9110   21.4970 O   0  0  0  0  0  0  0  0  0  0  0  0
  -21.6600   -6.1570   22.6440 C   0  0  0  0  0  0  0  0  0  0  0  0
  -21.2570   -6.6970   23.8840 C   0  0  0  0  0  3  0  0  0  0  0  0
  -21.1850   -5.8700   25.0220 C   0  0  0  0  0  3  0  0  0  0  0  0
  -21.5020   -4.5020   24.9200 C   0  0  0  0  0  0  0  0  0  0  0  0
  -21.8960   -3.9610   23.6820 C   0  0  0  0  0  3  0  0  0  0  0  0
  -21.9720   -4.7860   22.5470 C   0  0  0  0  0  0  0  0  0  0  0  0
  -22.3350   -4.2560   21.3530 F   0  0  0  0  0  0  0  0  0  0  0  0
  -21.4240   -3.7030   26.0090 F   0  0  0  0  0  0  0  0  0  0  0  0
  -22.7560  -13.5570   21.1810 C   0  0  0  0  0  0  0  0  0  0  0  0
  -22.0440  -12.8560   22.0550 N   0  0  0  0  0  0  0  0  0  0  0  0
  -22.3090  -14.5850   20.6750 O   0  0  0  0  0  0  0  0  0  0  0  0
  -22.4210  -12.0260   22.4880 H   0  0  0  0  0  0  0  0  0  0  0  0
  -21.1080  -13.1540   22.2910 H   0  0  0  0  0  0  0  0  0  0  0  0
  -25.3750  -15.2250   20.3240 N   0  0  0  0  0  0  0  0  0  0  0  0
  -24.6120  -15.8830   20.4410 H   0  0  0  0  0  0  0  0  0  0  0  0
  -26.2260  -15.6620   19.9940 H   0  0  0  0  0  0  0  0  0  0  0  0
  1  5  1  0
  3  1  2  0
  3  6  1  0
  4  2  1  0
  5 53  1  0
  5  2  2  0
  6  4  2  0
  7  6  1  0
  7  9  1  0
  8  7  1  0
  9 10  1  0
 11 10  1  0
 12 14  1  0
 12 11  1  0
 13 24  2  0
 14 19  1  0
 15 23  1  0
 15 25  1  0
 16 22  1  0
 16 18  1  0
 17 23  1  0
 18 19  2  0
 18 17  1  0
 20 14  2  0
 21 20  1  0
 21 16  2  0
 22 15  1  0
 23 13  1  0
 25 27  2  0
 26 25  1  0
 28 26  1  0
 29 38  2  0
 29 34  1  0
 30 26  1  0
 30 34  1  0
 31 30  1  0
 32 33  1  0
 32 31  1  0
 33 29  1  0
 34 35  2  0
 35 36  1  0
 37 36  2  0
 38 37  1  0
 39 13  1  0
 39 40  1  0
 39 49  1  0
 40 43  1  0
 41 45  1  0
 41 40  1  0
 42 41  2  0
 45 44  1  0
 47 45  1  0
 47 48  1  0
 47 46  1  0
 49 52  1  1
 49 50  1  0
 51 49  1  0
 53 54  1  0
 54 63  1  0
 55 63  1  0
 56 61  1  0
 57 58  1  0
 57 56  1  0
 59 58  1  0
 59 68  1  0
 59 60  1  0
 61 55  1  0
 61 60  1  0
 62 55  2  0
 63 64  1  0
 65 66  2  0
 66 85  1  0
 67 66  1  0
 67 70  1  0
 68 65  1  0
 68 69  1  0
 69 67  2  0
 70 71  1  0
 71 72  2  0
 73 76  1  0
 73 72  1  0
 74 73  2  0
 75 74  1  0
 75 70  2  0
 76 77  1  0
 77 78  1  0
 78 79  2  0
 80 79  1  0
 80 84  1  0
 81 80  2  0
 82 77  2  0
 82 81  1  0
 83 82  1  0
 85 86  1  0
 86 89  1  0
 86 88  1  0
 87 85  2  0
 90 91  1  0
 90 65  1  0
 92 90  1  0
M  ISO  4  11 101  12 101  55 100  63 100
M  END
>  <TORSDO>  (8) 
F 22

>  <SCORE>  (8) 
-13.128

>  <name>  (8) 
7

>  <ligand_id>  (8) 
7

>  <original_smiles>  (8) 
[H]c1c([H])c([H])c2c(c1[H])C([H])([H])C([H])([H])C([H])([H])C2([H])N([H])C(=O)C1([H])N(C(=O)C([H])(N([H])C(=O)C([H])(N([H])C([H])([H])[H])C([H])([H])[H])C(C([H])([H])[H])(C([H])([H])[H])C([H])([H])[H])C([H])([H])c2c([H])c(OC([H])([H])C([H])([H])C([H])([H])N([H])c3c([H])c([H])c(C([H])([H])C([H])([H])N([H])C(=O)N4C([H])([H])C([H])([H])C([H])([H])C([H])(n5nc(-c6c([H])c([H])c(Oc7c([H])c([H])c(F)c([H])c7F)c([H])c6[H])c(C(=O)N([H])[H])c5N([H])[H])C4([H])[H])c([H])c3[H])c([H])c([H])c2C1([H])[H]

>  <smiles>  (8) 
[H]c1c([H])c([H])c2c(c1[H])C([H])([H])C([H])([H])C([H])([H])C2([H])N([H])C(=O)C1([H])N(C(=O)C([H])(N([H])C(=O)C([H])(N([H])C([H])([H])[H])C([H])([H])[H])C(C([H])([H])[H])(C([H])([H])[H])C([H])([H])[H])C([H])([H])c2c([H])c(OC([H])([H])C([H])([H])C([H])([H])N([H])c3c([H])c([H])c(C([H])([H])C([H])([H])N([H])C(=O)N4C([H])([H])C([H])([H])C([H])([H])C([H])(n5nc(-c6c([H])c([H])c(Oc7c([H])c([H])c(F)c([H])c7F)c([H])c6[H])c(C(=O)N([H])[H])c5N([H])[H])C4([H])[H])c([H])c3[H])c([H])c([H])c2C1([H])[H]

$$$$
8:0:0
     RDKit          3D

 92100  0  0  1  0  0  0  0  0999 V2000
  -29.6450  -20.6820   19.8360 C   0  0  0  0  0  2  0  0  0  0  0  0
  -30.1780  -19.4170   19.2420 N   0  0  0  0  0  4  0  0  0  0  0  0
  -29.5250  -19.1360   18.5280 H   0  0  0  0  0  0  0  0  0  0  0  0
  -31.0500  -19.6230   18.7770 H   0  0  0  0  0  0  0  0  0  0  0  0
  -30.9760  -14.4940   19.6260 C   0  0  0  0  0  0  0  0  0  0  0  0
  -30.4650  -12.4280   18.3460 C   0  0  0  0  0  2  0  0  0  0  0  0
  -29.3550  -12.6980   17.3050 C   0  0  0  0  0  2  0  0  0  0  0  0
  -27.9520  -12.5490   17.9340 C   0  0  0  0  0  2  0  0  0  0  0  0
  -27.8220  -13.3060   19.2780 C   0  0  0  0  0  3  0  0  0  0  0  0
  -29.0070  -12.9260   20.1840 C   0  0  0  0  0  2  0  0  0  0  0  0
  -30.2420  -13.3380   19.4910 N   0  0  0  0  0  0  0  0  0  0  0  0
  -32.0360  -14.6310   19.0050 O   0  0  0  0  0  0  0  0  0  0  0  0
  -29.3900  -18.1750   21.2930 C   0  0  0  0  0  2  0  0  0  0  0  0
  -29.5770  -15.6460   21.3750 C   0  0  0  0  0  2  0  0  0  0  0  0
  -30.3670  -16.8890   19.3320 C   0  0  0  0  0  2  0  0  0  0  0  0
  -29.6220  -16.9520   22.1820 C   0  0  0  0  0  3  0  0  0  0  0  0
  -30.3990  -18.2330   20.1380 C   0  0  0  0  0  3  0  0  0  0  0  0
  -30.8890  -17.0670   23.0480 C   0  0  0  0  0  1  0  0  0  0  0  0
  -30.3490  -15.6150   20.1140 N   0  0  0  0  0  0  0  0  0  0  0  0
  -25.5770  -13.9460   20.3550 C   0  0  0  0  0  0  0  0  0  0  0  0
  -24.5440  -13.1820   20.8300 C   0  0  0  0  0  0  0  0  0  0  0  0
  -24.9410  -11.8230   20.6500 C   0  0  0  0  0  0  0  0  0  0  0  0
  -26.5410  -13.0480   19.9250 N   0  0  0  0  0  0  0  0  0  0  0  0
  -26.1690  -11.7650   20.1530 N   0  0  0  0  0  0  0  0  0  0  0  0
  -24.2010  -10.5730   20.8600 C   0  0  0  0  0  0  0  0  0  0  0  0
  -24.6680   -9.5800   21.7480 C   0  0  0  0  0  3  0  0  0  0  0  0
  -23.9320   -8.3910   21.9450 C   0  0  0  0  0  3  0  0  0  0  0  0
  -22.7140   -8.1890   21.2550 C   0  0  0  0  0  0  0  0  0  0  0  0
  -22.2650   -9.1710   20.3550 C   0  0  0  0  0  3  0  0  0  0  0  0
  -23.0020  -10.3500   20.1560 C   0  0  0  0  0  3  0  0  0  0  0  0
  -21.9400   -7.0600   21.3700 O   0  0  0  0  0  0  0  0  0  0  0  0
  -21.8730   -6.3510   22.5400 C   0  0  0  0  0  0  0  0  0  0  0  0
  -21.4520   -6.9470   23.7490 C   0  0  0  0  0  3  0  0  0  0  0  0
  -21.3290   -6.1660   24.9120 C   0  0  0  0  0  3  0  0  0  0  0  0
  -21.6100   -4.7870   24.8730 C   0  0  0  0  0  0  0  0  0  0  0  0
  -22.0200   -4.1900   23.6670 C   0  0  0  0  0  3  0  0  0  0  0  0
  -22.1460   -4.9680   22.5050 C   0  0  0  0  0  0  0  0  0  0  0  0
  -22.5220   -4.3830   21.3410 F   0  0  0  0  0  0  0  0  0  0  0  0
  -21.4870   -4.0350   25.9900 F   0  0  0  0  0  0  0  0  0  0  0  0
  -23.2180  -13.6780   21.3360 C   0  0  0  0  0  0  0  0  0  0  0  0
  -22.6080  -12.9600   22.2700 N   0  0  0  0  0  0  0  0  0  0  0  0
  -22.7370  -14.7360   20.9300 O   0  0  0  0  0  0  0  0  0  0  0  0
  -23.0110  -12.0960   22.6040 H   0  0  0  0  0  0  0  0  0  0  0  0
  -21.7220  -13.2680   22.6460 H   0  0  0  0  0  0  0  0  0  0  0  0
  -25.7700  -15.3210   20.2390 N   0  0  0  0  0  0  0  0  0  0  0  0
  -25.0460  -15.9910   20.4700 H   0  0  0  0  0  0  0  0  0  0  0  0
  -26.5820  -15.7500   19.8170 H   0  0  0  0  0  0  0  0  0  0  0  0
  -29.5210  -21.8120   18.7770 C   0  0  0  0  0  2  0  0  0  0  0  0
  -28.5110  -22.9650   19.0640 C   0  0  0  0  0  2  0  0  0  0  0  0
  -28.9960  -24.2170   19.8570 C   0  0  0  0  0  2  0  0  0  0  0  0
  -28.8370  -25.5720   19.0970 C   0  0  0  0  0  2  0  0  0  0  0  0
  -28.6610  -26.7140   19.9650 O   0  0  0  0  0  0  0  0  0  0  0  0
  -24.8520  -31.8540   23.1630 C   0  0  0  0  0  0  0  0  0  0  0  0
  -27.4570  -27.4030   20.0070 C   0  0  0  0  0  0  0  0  0  0  0  0
  -23.6160  -30.4310   21.5640 C   0  0  0  0  0  3  0  0  0  0  0  0
  -25.0430  -28.8980   20.1090 C   0  0  0  0  0  0  0  0  0  0  0  0
  -26.1370  -30.8020   21.3010 C   0  0  0  0  0  2  0  0  0  0  0  0
  -26.2160  -29.4300   20.6570 C   0  0  0  0  0  0  0  0  0  0  0  0
  -27.4220  -28.6910   20.6020 C   0  0  0  0  0  3  0  0  0  0  0  0
  -26.2470  -26.8760   19.4930 C   0  0  0  0  0  3  0  0  0  0  0  0
  -25.0540  -27.6190   19.5290 C   0  0  0  0  0  3  0  0  0  0  0  0
  -23.7950  -29.7490   20.1840 C   0  0  0  0  0  2  0  0  0  0  0  0
  -24.8880  -31.0450   22.0650 N   0  0  0  0  0  0  0  0  0  0  0  0
  -23.7850  -32.1240   23.7310 O   0  0  0  0  0  0  0  0  0  0  0  0
  -23.0000  -29.4100   22.5460 C   0  0  0  0  0  0  0  0  0  0  0  0
  -21.6820  -29.1810   22.4230 N   0  0  0  0  0  0  0  0  0  0  0  0
  -23.7030  -28.8260   23.3730 O   0  0  0  0  0  0  0  0  0  0  0  0
  -21.1730  -29.6980   21.7200 H   0  0  0  0  0  0  0  0  0  0  0  0
  -18.3500  -27.8680   22.9340 C   0  0  0  0  0  0  0  0  0  0  0  0
  -20.8950  -28.2290   23.2060 C   0  0  0  0  0  3  0  0  0  0  0  0
  -21.0600  -26.7960   22.6520 C   0  0  0  0  0  2  0  0  0  0  0  0
  -19.9680  -26.4080   21.6550 C   0  0  0  0  0  2  0  0  0  0  0  0
  -18.5850  -26.5060   22.3060 C   0  0  0  0  0  2  0  0  0  0  0  0
  -19.4370  -28.6830   23.3480 C   0  0  0  0  0  0  0  0  0  0  0  0
  -19.1680  -29.9490   23.9100 C   0  0  0  0  0  3  0  0  0  0  0  0
  -17.8440  -30.4020   24.0600 C   0  0  0  0  0  3  0  0  0  0  0  0
  -16.7730  -29.5880   23.6540 C   0  0  0  0  0  3  0  0  0  0  0  0
  -17.0240  -28.3230   23.0950 C   0  0  0  0  0  3  0  0  0  0  0  0
  -26.1490  -32.4990   23.7460 C   0  0  0  0  0  3  0  0  0  0  0  0
  -25.8180  -33.8760   24.1400 N   0  0  0  0  0  0  0  0  0  0  0  0
  -26.0910  -34.9630   23.4090 C   0  0  0  0  0  0  0  0  0  0  0  0
  -26.7200  -34.9150   22.3470 O   0  0  0  0  0  0  0  0  0  0  0  0
  -25.2600  -33.9860   24.9740 H   0  0  0  0  0  0  0  0  0  0  0  0
  -24.3090  -36.7210   23.1860 C   0  0  0  0  0  1  0  0  0  0  0  0
  -25.5870  -36.3190   23.9380 C   0  0  0  0  0  3  0  0  0  0  0  0
  -27.7280  -37.2250   24.7310 C   0  0  0  0  0  1  0  0  0  0  0  0
  -26.5890  -37.4010   23.8330 N   0  0  0  0  0  0  0  0  0  0  0  0
  -26.1670  -38.3060   24.0270 H   0  0  0  0  0  0  0  0  0  0  0  0
  -26.7490  -31.7000   24.9670 C   0  0  1  0  0  0  0  0  0  0  0  0
  -25.7060  -31.3600   26.0570 C   0  0  0  0  0  1  0  0  0  0  0  0
  -27.3870  -30.3730   24.4940 C   0  0  0  0  0  1  0  0  0  0  0  0
  -27.8850  -32.5210   25.6260 C   0  0  0  0  0  1  0  0  0  0  0  0
  2  1  1  0
  3  2  1  0
  4  2  1  0
  5 19  1  0
  6 11  1  0
  7  8  1  0
  7  6  1  0
  9  8  1  0
  9 23  1  0
  9 10  1  0
 11  5  1  0
 11 10  1  0
 12  5  2  0
 13 16  1  0
 14 16  1  0
 15 19  1  0
 15 17  1  0
 16 18  1  0
 17  2  1  0
 17 13  1  0
 19 14  1  0
 20 21  2  0
 21 40  1  0
 22 21  1  0
 22 25  1  0
 23 24  1  0
 23 20  1  0
 24 22  2  0
 25 26  1  0
 26 27  2  0
 28 31  1  0
 28 27  1  0
 29 28  2  0
 30 29  1  0
 30 25  2  0
 31 32  1  0
 32 33  1  0
 33 34  2  0
 35 34  1  0
 35 39  1  0
 36 35  2  0
 37 32  2  0
 37 36  1  0
 38 37  1  0
 40 41  1  0
 41 43  1  0
 41 44  1  0
 42 40  2  0
 45 20  1  0
 45 46  1  0
 47 45  1  0
 48 49  1  0
 48  1  1  0
 49 50  1  0
 51 50  1  0
 51 52  1  0
 52 54  1  0
 53 64  2  0
 54 59  1  0
 55 63  1  0
 55 65  1  0
 56 62  1  0
 56 58  1  0
 57 63  1  0
 58 57  1  0
 59 58  2  0
 60 61  1  0
 60 54  2  0
 61 56  2  0
 62 55  1  0
 63 53  1  0
 65 67  2  0
 66 65  1  0
 68 66  1  0
 69 78  2  0
 69 74  1  0
 70 66  1  0
 70 74  1  0
 71 70  1  0
 72 73  1  0
 72 71  1  0
 73 69  1  0
 74 75  2  0
 75 76  1  0
 77 76  2  0
 78 77  1  0
 79 53  1  0
 79 80  1  0
 79 89  1  0
 80 83  1  0
 81 85  1  0
 81 80  1  0
 82 81  2  0
 85 84  1  0
 87 85  1  0
 87 88  1  0
 87 86  1  0
 89 92  1  1
 89 90  1  0
 91 89  1  0
M  ISO  4   5 100  19 100  51 101  52 101
M  END
>  <TORSDO>  (9) 
F 21

>  <SCORE>  (9) 
-10.846

>  <name>  (9) 
8

>  <ligand_id>  (9) 
8

>  <original_smiles>  (9) 
[H]c1c([H])c([H])c2c(c1[H])C([H])([H])C([H])([H])C([H])([H])C2([H])N([H])C(=O)C1([H])N(C(=O)C([H])(N([H])C(=O)C([H])(N([H])C([H])([H])[H])C([H])([H])[H])C(C([H])([H])[H])(C([H])([H])[H])C([H])([H])[H])C([H])([H])c2c([H])c(OC([H])([H])C([H])([H])C([H])([H])C([H])([H])C([H])([H])[N+]([H])([H])C3([H])C([H])([H])N(C(=O)N4C([H])([H])C([H])([H])C([H])([H])C([H])(n5nc(-c6c([H])c([H])c(Oc7c([H])c([H])c(F)c([H])c7F)c([H])c6[H])c(C(=O)N([H])[H])c5N([H])[H])C4([H])[H])C([H])([H])C([H])(C([H])([H])[H])C3([H])[H])c([H])c([H])c2C1([H])[H]

>  <smiles>  (9) 
[H]c1c([H])c([H])c2c(c1[H])C([H])([H])C([H])([H])C([H])([H])C2([H])N([H])C(=O)C1([H])N(C(=O)C([H])(N([H])C(=O)C([H])(N([H])C([H])([H])[H])C([H])([H])[H])C(C([H])([H])[H])(C([H])([H])[H])C([H])([H])[H])C([H])([H])c2c([H])c(OC([H])([H])C([H])([H])C([H])([H])C([H])([H])C([H])([H])[N+]([H])([H])C3([H])C([H])([H])N(C(=O)N4C([H])([H])C([H])([H])C([H])([H])C([H])(n5nc(-c6c([H])c([H])c(Oc7c([H])c([H])c(F)c([H])c7F)c([H])c6[H])c(C(=O)N([H])[H])c5N([H])[H])C4([H])[H])C([H])([H])C([H])(C([H])([H])[H])C3([H])[H])c([H])c([H])c2C1([H])[H]

$$$$
9:0:0
     RDKit          3D

 93101  0  0  1  0  0  0  0  0999 V2000
  -28.8450  -20.4040   20.4280 N   0  0  0  0  0  4  0  0  0  0  0  0
  -28.3640  -20.4220   21.3140 H   0  0  0  0  0  0  0  0  0  0  0  0
  -28.1240  -20.1680   19.7620 H   0  0  0  0  0  0  0  0  0  0  0  0
  -30.5490  -15.0370   20.1340 C   0  0  0  0  0  0  0  0  0  0  0  0
  -30.3450  -12.7070   19.1420 C   0  0  0  0  0  2  0  0  0  0  0  0
  -29.3790  -12.6950   17.9370 C   0  0  0  0  0  2  0  0  0  0  0  0
  -27.9340  -12.4740   18.4150 C   0  0  0  0  0  2  0  0  0  0  0  0
  -27.5710  -13.3730   19.6260 C   0  0  0  0  0  3  0  0  0  0  0  0
  -28.6620  -13.3740   20.7190 C   0  0  0  0  0  2  0  0  0  0  0  0
  -29.9170  -13.7910   20.0800 N   0  0  0  0  0  0  0  0  0  0  0  0
  -31.6940  -15.0860   19.6660 O   0  0  0  0  0  0  0  0  0  0  0  0
  -31.5200  -17.7680   21.8780 C   0  0  0  0  0  2  0  0  0  0  0  0
  -30.5610  -16.5710   22.0160 C   0  0  0  0  0  2  0  0  0  0  0  0
  -29.2710  -17.5410   20.1940 C   0  0  0  0  0  2  0  0  0  0  0  0
  -30.7780  -19.1180   21.7100 C   0  0  0  0  0  3  0  0  0  0  0  0
  -29.8370  -19.1310   20.4530 C   0  0  0  0  0  3  0  0  0  0  0  0
  -29.9760  -16.2140   20.7200 N   0  0  0  0  0  0  0  0  0  0  0  0
  -25.2110  -13.9250   20.4440 C   0  0  0  0  0  0  0  0  0  0  0  0
  -24.1640  -13.1370   20.8360 C   0  0  0  0  0  0  0  0  0  0  0  0
  -24.6380  -11.7900   20.7790 C   0  0  0  0  0  0  0  0  0  0  0  0
  -26.2510  -13.0570   20.1620 N   0  0  0  0  0  0  0  0  0  0  0  0
  -25.9210  -11.7680   20.4310 N   0  0  0  0  0  0  0  0  0  0  0  0
  -23.9250  -10.5190   20.9770 C   0  0  0  0  0  0  0  0  0  0  0  0
  -24.3790   -9.5550   21.9020 C   0  0  0  0  0  3  0  0  0  0  0  0
  -23.6650   -8.3500   22.0930 C   0  0  0  0  0  3  0  0  0  0  0  0
  -22.4820   -8.1050   21.3570 C   0  0  0  0  0  0  0  0  0  0  0  0
  -22.0490   -9.0570   20.4160 C   0  0  0  0  0  3  0  0  0  0  0  0
  -22.7630  -10.2520   20.2250 C   0  0  0  0  0  3  0  0  0  0  0  0
  -21.7390   -6.9550   21.4550 O   0  0  0  0  0  0  0  0  0  0  0  0
  -21.6950   -6.2220   22.6130 C   0  0  0  0  0  0  0  0  0  0  0  0
  -21.2570   -6.7820   23.8330 C   0  0  0  0  0  3  0  0  0  0  0  0
  -21.1630   -5.9760   24.9840 C   0  0  0  0  0  3  0  0  0  0  0  0
  -21.4980   -4.6090   24.9160 C   0  0  0  0  0  0  0  0  0  0  0  0
  -21.9290   -4.0500   23.7010 C   0  0  0  0  0  3  0  0  0  0  0  0
  -22.0240   -4.8540   22.5530 C   0  0  0  0  0  0  0  0  0  0  0  0
  -22.4200   -4.3040   21.3800 F   0  0  0  0  0  0  0  0  0  0  0  0
  -21.4000   -3.8310   26.0200 F   0  0  0  0  0  0  0  0  0  0  0  0
  -22.7710  -13.6000   21.1510 C   0  0  0  0  0  0  0  0  0  0  0  0
  -22.0720  -12.8900   22.0280 N   0  0  0  0  0  0  0  0  0  0  0  0
  -22.3140  -14.6270   20.6500 O   0  0  0  0  0  0  0  0  0  0  0  0
  -22.4560  -12.0590   22.4530 H   0  0  0  0  0  0  0  0  0  0  0  0
  -21.1370  -13.1820   22.2810 H   0  0  0  0  0  0  0  0  0  0  0  0
  -25.3640  -15.2990   20.2840 N   0  0  0  0  0  0  0  0  0  0  0  0
  -24.6130  -15.9550   20.4640 H   0  0  0  0  0  0  0  0  0  0  0  0
  -26.2210  -15.7470   19.9910 H   0  0  0  0  0  0  0  0  0  0  0  0
  -31.8230  -20.2320   21.7350 C   0  0  0  0  0  0  0  0  0  0  0  0
  -32.3720  -20.6360   22.8000 N   0  0  0  0  0  0  0  0  0  0  0  0
  -32.2140  -20.7940   20.5800 F   0  0  0  0  0  0  0  0  0  0  0  0
  -32.0370  -20.1200   23.6050 H   0  0  0  0  0  0  0  0  0  0  0  0
  -29.2150  -21.9210   20.0750 C   0  0  0  0  0  2  0  0  0  0  0  0
  -28.3190  -23.2960   20.5210 C   0  0  0  0  0  2  0  0  0  0  0  0
  -28.3770  -24.8200   19.7800 C   0  0  0  0  0  2  0  0  0  0  0  0
  -28.2580  -26.2610   20.3670 O   0  0  0  0  0  0  0  0  0  0  0  0
  -24.5980  -31.9220   23.2720 C   0  0  0  0  0  0  0  0  0  0  0  0
  -27.1760  -27.2060   20.2420 C   0  0  0  0  0  0  0  0  0  0  0  0
  -23.3990  -30.5230   21.6330 C   0  0  0  0  0  3  0  0  0  0  0  0
  -24.8420  -28.9470   20.2030 C   0  0  0  0  0  0  0  0  0  0  0  0
  -25.9480  -30.7900   21.4610 C   0  0  0  0  0  2  0  0  0  0  0  0
  -26.0180  -29.3970   20.8170 C   0  0  0  0  0  0  0  0  0  0  0  0
  -27.1760  -28.5370   20.8270 C   0  0  0  0  0  3  0  0  0  0  0  0
  -25.9770  -26.8570   19.5830 C   0  0  0  0  0  3  0  0  0  0  0  0
  -24.8370  -27.6920   19.5720 C   0  0  0  0  0  3  0  0  0  0  0  0
  -23.6150  -29.8420   20.2540 C   0  0  0  0  0  2  0  0  0  0  0  0
  -24.6690  -31.1020   22.1780 N   0  0  0  0  0  0  0  0  0  0  0  0
  -23.5120  -32.2080   23.7980 O   0  0  0  0  0  0  0  0  0  0  0  0
  -22.7210  -29.5200   22.6000 C   0  0  0  0  0  0  0  0  0  0  0  0
  -21.3930  -29.3510   22.4710 N   0  0  0  0  0  0  0  0  0  0  0  0
  -23.3900  -28.8980   23.4270 O   0  0  0  0  0  0  0  0  0  0  0  0
  -20.9120  -29.9020   21.7740 H   0  0  0  0  0  0  0  0  0  0  0  0
  -18.0120  -28.1500   22.9630 C   0  0  0  0  0  0  0  0  0  0  0  0
  -20.5690  -28.4150   23.2420 C   0  0  0  0  0  3  0  0  0  0  0  0
  -20.6750  -26.9810   22.6690 C   0  0  0  0  0  2  0  0  0  0  0  0
  -19.5780  -26.6560   21.6520 C   0  0  0  0  0  2  0  0  0  0  0  0
  -18.1930  -26.8020   22.2880 C   0  0  0  0  0  2  0  0  0  0  0  0
  -19.1270  -28.9140   23.3960 C   0  0  0  0  0  0  0  0  0  0  0  0
  -18.9040  -30.1780   23.9870 C   0  0  0  0  0  3  0  0  0  0  0  0
  -17.5960  -30.6740   24.1490 C   0  0  0  0  0  3  0  0  0  0  0  0
  -16.4960  -29.9070   23.7310 C   0  0  0  0  0  3  0  0  0  0  0  0
  -16.7040  -28.6450   23.1450 C   0  0  0  0  0  3  0  0  0  0  0  0
  -25.8770  -32.5580   23.9010 C   0  0  0  0  0  3  0  0  0  0  0  0
  -26.3760  -31.8000   25.1930 C   0  0  1  0  0  0  0  0  0  0  0  0
  -25.2710  -31.5820   26.2550 C   0  0  0  0  0  1  0  0  0  0  0  0
  -26.9530  -30.4150   24.8240 C   0  0  0  0  0  1  0  0  0  0  0  0
  -27.5310  -32.5910   25.8510 C   0  0  0  0  0  1  0  0  0  0  0  0
  -25.5740  -33.9630   24.2200 N   0  0  0  0  0  0  0  0  0  0  0  0
  -25.9090  -35.0100   23.4530 C   0  0  0  0  0  0  0  0  0  0  0  0
  -26.5770  -34.8950   22.4250 O   0  0  0  0  0  0  0  0  0  0  0  0
  -24.9750  -34.1270   25.0150 H   0  0  0  0  0  0  0  0  0  0  0  0
  -24.1860  -36.8140   23.0960 C   0  0  0  0  0  1  0  0  0  0  0  0
  -25.4310  -36.4070   23.9020 C   0  0  0  0  0  3  0  0  0  0  0  0
  -27.5720  -37.2910   24.7140 C   0  0  0  0  0  1  0  0  0  0  0  0
  -26.4680  -37.4540   23.7720 N   0  0  0  0  0  0  0  0  0  0  0  0
  -26.0670  -38.3780   23.9130 H   0  0  0  0  0  0  0  0  0  0  0  0
  1  2  1  0
  3  1  1  0
  4 17  1  0
  5 10  1  0
  6  7  1  0
  6  5  1  0
  8  7  1  0
  8 21  1  0
  8  9  1  0
 10  4  1  0
 10  9  1  0
 11  4  2  0
 12 13  1  0
 14 16  1  0
 14 17  1  0
 15 46  1  0
 15 12  1  0
 16  1  1  0
 16 15  1  0
 17 13  1  0
 18 19  2  0
 19 38  1  0
 20 19  1  0
 20 23  1  0
 21 22  1  0
 21 18  1  0
 22 20  2  0
 23 24  1  0
 24 25  2  0
 26 29  1  0
 26 25  1  0
 27 26  2  0
 28 27  1  0
 28 23  2  0
 29 30  1  0
 30 31  1  0
 31 32  2  0
 33 32  1  0
 33 37  1  0
 34 33  2  0
 35 30  2  0
 35 34  1  0
 36 35  1  0
 38 39  1  0
 39 42  1  0
 39 41  1  0
 40 38  2  0
 43 18  1  0
 43 44  1  0
 45 43  1  0
 46 47  2  0
 47 49  1  0
 48 46  1  0
 50  1  1  0
 50 51  1  0
 52 53  1  0
 52 51  1  0
 54 65  2  0
 55 53  1  0
 55 60  1  0
 56 64  1  0
 56 66  1  0
 57 63  1  0
 57 59  1  0
 58 64  1  0
 59 60  2  0
 59 58  1  0
 61 55  2  0
 62 61  1  0
 62 57  2  0
 63 56  1  0
 64 54  1  0
 66 68  2  0
 67 66  1  0
 69 67  1  0
 70 79  2  0
 70 75  1  0
 71 67  1  0
 71 75  1  0
 72 71  1  0
 73 74  1  0
 73 72  1  0
 74 70  1  0
 75 76  2  0
 76 77  1  0
 78 77  2  0
 79 78  1  0
 80 54  1  0
 80 85  1  0
 80 81  1  0
 81 84  1  1
 81 82  1  0
 83 81  1  0
 85 88  1  0
 86 90  1  0
 86 85  1  0
 87 86  2  0
 90 89  1  0
 92 90  1  0
 92 93  1  0
 92 91  1  0
M  ISO  4   4 100  17 100  52 101  53 101
M  END
>  <TORSDO>  (10) 
F 20

>  <SCORE>  (10) 
-15.384

>  <name>  (10) 
9

>  <ligand_id>  (10) 
9

>  <original_smiles>  (10) 
[H]N=C(F)C1([H])C([H])([H])C([H])([H])N(C(=O)N2C([H])([H])C([H])([H])C([H])([H])C([H])(n3nc(-c4c([H])c([H])c(Oc5c([H])c([H])c(F)c([H])c5F)c([H])c4[H])c(C(=O)N([H])[H])c3N([H])[H])C2([H])[H])C([H])([H])C1([H])[N+]([H])([H])C([H])([H])C([H])([H])C([H])([H])Oc1c([H])c([H])c2c(c1[H])C([H])([H])N(C(=O)C([H])(N([H])C(=O)C([H])(N([H])C([H])([H])[H])C([H])([H])[H])C(C([H])([H])[H])(C([H])([H])[H])C([H])([H])[H])C([H])(C(=O)N([H])C1([H])c3c([H])c([H])c([H])c([H])c3C([H])([H])C([H])([H])C1([H])[H])C2([H])[H]

>  <smiles>  (10) 
[H]N=C(F)C1([H])C([H])([H])C([H])([H])N(C(=O)N2C([H])([H])C([H])([H])C([H])([H])C([H])(n3nc(-c4c([H])c([H])c(Oc5c([H])c([H])c(F)c([H])c5F)c([H])c4[H])c(C(=O)N([H])[H])c3N([H])[H])C2([H])[H])C([H])([H])C1([H])[N+]([H])([H])C([H])([H])C([H])([H])C([H])([H])Oc1c([H])c([H])c2c(c1[H])C([H])([H])N(C(=O)C([H])(N([H])C(=O)C([H])(N([H])C([H])([H])[H])C([H])([H])[H])C(C([H])([H])[H])(C([H])([H])[H])C([H])([H])[H])C([H])(C(=O)N([H])C1([H])c3c([H])c([H])c([H])c([H])c3C([H])([H])C([H])([H])C1([H])[H])C2([H])[H]

$$$$
10:0:0
     RDKit          3D

 97105  0  0  1  0  0  0  0  0999 V2000
  -29.1620  -20.6540   17.4950 C   0  0  0  0  0  2  0  0  0  0  0  0
  -29.2210  -20.1020   18.9390 C   0  0  0  0  0  2  0  0  0  0  0  0
  -32.3120  -19.2580   21.5370 C   0  0  0  0  0  2  0  0  0  0  0  0
  -31.3530  -18.1990   22.0940 C   0  0  0  0  0  2  0  0  0  0  0  0
  -32.6790  -19.0340   20.0650 C   0  0  0  0  0  2  0  0  0  0  0  0
  -29.9440  -18.2570   21.4890 C   0  0  0  0  0  2  0  0  0  0  0  0
  -31.6410  -19.5310   19.0320 C   0  0  0  0  0  2  0  0  0  0  0  0
  -29.8330  -17.9080   19.9860 C   0  0  0  0  0  3  0  0  0  0  0  0
  -30.2300  -19.0120   19.0560 N   0  0  1  0  0  4  0  0  0  0  0  0
  -30.1510  -18.5480   18.1640 H   0  0  0  0  0  0  0  0  0  0  0  0
  -30.4430  -16.5680   19.5310 C   0  0  0  0  0  2  0  0  0  0  0  0
  -30.7810  -14.2600   20.1600 C   0  0  0  0  0  0  0  0  0  0  0  0
  -30.3190  -12.1580   19.0180 C   0  0  0  0  0  2  0  0  0  0  0  0
  -29.3620  -12.4830   17.8540 C   0  0  0  0  0  2  0  0  0  0  0  0
  -27.8950  -12.4120   18.3250 C   0  0  0  0  0  2  0  0  0  0  0  0
  -27.6400  -13.1900   19.6450 C   0  0  0  0  0  3  0  0  0  0  0  0
  -28.7300  -12.9000   20.7030 C   0  0  0  0  0  2  0  0  0  0  0  0
  -30.0440  -13.1280   20.0860 N   0  0  0  0  0  0  0  0  0  0  0  0
  -31.9440  -14.3340   19.7580 O   0  0  0  0  0  0  0  0  0  0  0  0
  -30.0690  -15.3850   20.3150 N   0  0  0  0  0  0  0  0  0  0  0  0
  -29.1170  -15.2950   20.6330 H   0  0  0  0  0  0  0  0  0  0  0  0
  -25.2740  -13.8260   20.4170 C   0  0  0  0  0  0  0  0  0  0  0  0
  -24.2060  -13.0690   20.8160 C   0  0  0  0  0  0  0  0  0  0  0  0
  -24.6440  -11.7110   20.7690 C   0  0  0  0  0  0  0  0  0  0  0  0
  -26.2990  -12.9300   20.1610 N   0  0  0  0  0  0  0  0  0  0  0  0
  -25.9260  -11.6520   20.4310 N   0  0  0  0  0  0  0  0  0  0  0  0
  -23.9030  -10.4600   20.9780 C   0  0  0  0  0  0  0  0  0  0  0  0
  -24.3490   -9.4830   21.8970 C   0  0  0  0  0  3  0  0  0  0  0  0
  -23.6120   -8.2950   22.0940 C   0  0  0  0  0  3  0  0  0  0  0  0
  -22.4140   -8.0800   21.3740 C   0  0  0  0  0  0  0  0  0  0  0  0
  -21.9870   -9.0430   20.4430 C   0  0  0  0  0  3  0  0  0  0  0  0
  -22.7250  -10.2220   20.2450 C   0  0  0  0  0  3  0  0  0  0  0  0
  -21.6430   -6.9470   21.4850 O   0  0  0  0  0  0  0  0  0  0  0  0
  -21.6210   -6.2010   22.6350 C   0  0  0  0  0  0  0  0  0  0  0  0
  -21.2490   -6.7580   23.8790 C   0  0  0  0  0  3  0  0  0  0  0  0
  -21.1700   -5.9390   25.0230 C   0  0  0  0  0  3  0  0  0  0  0  0
  -21.4550   -4.5630   24.9250 C   0  0  0  0  0  0  0  0  0  0  0  0
  -21.8220   -4.0060   23.6870 C   0  0  0  0  0  3  0  0  0  0  0  0
  -21.8990   -4.8220   22.5450 C   0  0  0  0  0  0  0  0  0  0  0  0
  -22.2310   -4.2760   21.3510 F   0  0  0  0  0  0  0  0  0  0  0  0
  -21.3720   -3.7730   26.0200 F   0  0  0  0  0  0  0  0  0  0  0  0
  -22.8250  -13.5690   21.1320 C   0  0  0  0  0  0  0  0  0  0  0  0
  -22.1150  -12.8840   22.0210 N   0  0  0  0  0  0  0  0  0  0  0  0
  -22.3910  -14.6030   20.6270 O   0  0  0  0  0  0  0  0  0  0  0  0
  -22.4790  -12.0480   22.4530 H   0  0  0  0  0  0  0  0  0  0  0  0
  -21.1910  -13.1990   22.2770 H   0  0  0  0  0  0  0  0  0  0  0  0
  -25.4530  -15.1930   20.2330 N   0  0  0  0  0  0  0  0  0  0  0  0
  -24.6990  -15.8570   20.3730 H   0  0  0  0  0  0  0  0  0  0  0  0
  -26.2960  -15.6190   19.8710 H   0  0  0  0  0  0  0  0  0  0  0  0
  -28.1960  -21.8380   17.3030 C   0  0  0  0  0  2  0  0  0  0  0  0
  -28.8270  -23.1450   17.5960 N   0  0  0  0  0  4  0  0  0  0  0  0
  -29.6450  -23.2660   17.0180 H   0  0  0  0  0  0  0  0  0  0  0  0
  -29.1260  -23.1590   18.5570 H   0  0  0  0  0  0  0  0  0  0  0  0
  -27.9240  -24.2960   17.3770 C   0  0  0  0  0  2  0  0  0  0  0  0
  -28.4550  -25.5860   18.0310 C   0  0  0  0  0  2  0  0  0  0  0  0
  -28.5240  -25.4900   19.5760 C   0  0  0  0  0  2  0  0  0  0  0  0
  -28.4650  -26.7620   20.2190 O   0  0  0  0  0  0  0  0  0  0  0  0
  -24.6050  -31.9140   23.2490 C   0  0  0  0  0  0  0  0  0  0  0  0
  -27.2580  -27.4300   20.2510 C   0  0  0  0  0  0  0  0  0  0  0  0
  -23.4050  -30.4880   21.6270 C   0  0  0  0  0  3  0  0  0  0  0  0
  -24.8570  -28.9180   20.2550 C   0  0  0  0  0  0  0  0  0  0  0  0
  -25.9310  -30.8450   21.4270 C   0  0  0  0  0  2  0  0  0  0  0  0
  -26.0160  -29.4600   20.8240 C   0  0  0  0  0  0  0  0  0  0  0  0
  -27.2180  -28.7210   20.8220 C   0  0  0  0  0  3  0  0  0  0  0  0
  -26.0600  -26.8850   19.7250 C   0  0  0  0  0  3  0  0  0  0  0  0
  -24.8680  -27.6260   19.7150 C   0  0  0  0  0  3  0  0  0  0  0  0
  -23.6190  -29.7810   20.2640 C   0  0  0  0  0  2  0  0  0  0  0  0
  -24.6660  -31.0990   22.1600 N   0  0  0  0  0  0  0  0  0  0  0  0
  -23.5200  -32.1940   23.7780 O   0  0  0  0  0  0  0  0  0  0  0  0
  -22.7470  -29.4810   22.5990 C   0  0  0  0  0  0  0  0  0  0  0  0
  -21.4260  -29.2890   22.4550 N   0  0  0  0  0  0  0  0  0  0  0  0
  -23.4230  -28.8750   23.4340 O   0  0  0  0  0  0  0  0  0  0  0  0
  -20.9450  -29.8310   21.7500 H   0  0  0  0  0  0  0  0  0  0  0  0
  -18.0520  -28.0800   22.9100 C   0  0  0  0  0  0  0  0  0  0  0  0
  -20.6010  -28.3630   23.2300 C   0  0  0  0  0  3  0  0  0  0  0  0
  -20.7270  -26.9190   22.6920 C   0  0  0  0  0  2  0  0  0  0  0  0
  -19.6490  -26.5620   21.6630 C   0  0  0  0  0  2  0  0  0  0  0  0
  -18.2520  -26.7150   22.2720 C   0  0  0  0  0  2  0  0  0  0  0  0
  -19.1560  -28.8610   23.3450 C   0  0  0  0  0  0  0  0  0  0  0  0
  -18.9160  -30.1370   23.8980 C   0  0  0  0  0  3  0  0  0  0  0  0
  -17.6050  -30.6320   24.0240 C   0  0  0  0  0  3  0  0  0  0  0  0
  -16.5150  -29.8490   23.6060 C   0  0  0  0  0  3  0  0  0  0  0  0
  -16.7390  -28.5750   23.0540 C   0  0  0  0  0  3  0  0  0  0  0  0
  -25.8860  -32.5520   23.8690 C   0  0  0  0  0  3  0  0  0  0  0  0
  -25.5730  -33.9510   24.1900 N   0  0  0  0  0  0  0  0  0  0  0  0
  -25.8990  -34.9990   23.4230 C   0  0  0  0  0  0  0  0  0  0  0  0
  -26.5710  -34.8920   22.3930 O   0  0  0  0  0  0  0  0  0  0  0  0
  -24.9860  -34.1100   24.9950 H   0  0  0  0  0  0  0  0  0  0  0  0
  -24.1630  -36.7790   23.0510 C   0  0  0  0  0  1  0  0  0  0  0  0
  -25.4030  -36.3870   23.8700 C   0  0  0  0  0  3  0  0  0  0  0  0
  -27.5320  -37.2850   24.7010 C   0  0  0  0  0  1  0  0  0  0  0  0
  -26.4310  -37.4440   23.7560 N   0  0  0  0  0  0  0  0  0  0  0  0
  -26.0210  -38.3630   23.8960 H   0  0  0  0  0  0  0  0  0  0  0  0
  -26.4060  -31.7870   25.1470 C   0  0  1  0  0  0  0  0  0  0  0  0
  -25.3160  -31.5490   26.2170 C   0  0  0  0  0  1  0  0  0  0  0  0
  -26.9920  -30.4100   24.7540 C   0  0  0  0  0  1  0  0  0  0  0  0
  -27.5530  -32.5890   25.8060 C   0  0  0  0  0  1  0  0  0  0  0  0
  1  2  1  0
  2  9  1  0
  3  4  1  0
  5  3  1  0
  6  4  1  0
  7  9  1  0
  7  5  1  0
  8 11  1  0
  8  6  1  0
  9  8  1  0
  9 10  1  6
 11 20  1  0
 12 20  1  0
 13 18  1  0
 14 15  1  0
 14 13  1  0
 16 15  1  0
 16 25  1  0
 16 17  1  0
 18 12  1  0
 18 17  1  0
 19 12  2  0
 20 21  1  0
 22 23  2  0
 23 42  1  0
 24 23  1  0
 24 27  1  0
 25 22  1  0
 25 26  1  0
 26 24  2  0
 27 28  1  0
 28 29  2  0
 30 33  1  0
 30 29  1  0
 31 30  2  0
 32 31  1  0
 32 27  2  0
 33 34  1  0
 34 35  1  0
 35 36  2  0
 37 36  1  0
 37 41  1  0
 38 37  2  0
 39 34  2  0
 39 38  1  0
 40 39  1  0
 42 43  1  0
 43 46  1  0
 43 45  1  0
 44 42  2  0
 47 48  1  0
 47 22  1  0
 49 47  1  0
 50  1  1  0
 50 51  1  0
 51 53  1  0
 52 51  1  0
 54 51  1  0
 54 55  1  0
 55 56  1  0
 56 57  1  0
 57 59  1  0
 58 69  2  0
 59 64  1  0
 60 68  1  0
 60 70  1  0
 61 67  1  0
 61 63  1  0
 62 68  1  0
 63 62  1  0
 64 63  2  0
 65 59  2  0
 66 65  1  0
 66 61  2  0
 67 60  1  0
 68 58  1  0
 70 72  2  0
 71 70  1  0
 73 71  1  0
 74 83  2  0
 74 79  1  0
 75 71  1  0
 75 79  1  0
 76 75  1  0
 77 78  1  0
 77 76  1  0
 78 74  1  0
 79 80  2  0
 80 81  1  0
 82 81  2  0
 83 82  1  0
 84 58  1  0
 84 85  1  0
 84 94  1  0
 85 88  1  0
 86 90  1  0
 86 85  1  0
 87 86  2  0
 90 89  1  0
 92 90  1  0
 92 93  1  0
 92 91  1  0
 94 97  1  1
 94 95  1  0
 96 94  1  0
M  ISO  4  12 100  20 100  56 101  57 101
M  END
>  <TORSDO>  (11) 
F 24

>  <SCORE>  (11) 
-12.236

>  <name>  (11) 
10

>  <ligand_id>  (11) 
10

>  <original_smiles>  (11) 
[H]c1c([H])c([H])c2c(c1[H])C([H])([H])C([H])([H])C([H])([H])C2([H])N([H])C(=O)C1([H])N(C(=O)C([H])(N([H])C(=O)C([H])(N([H])C([H])([H])[H])C([H])([H])[H])C(C([H])([H])[H])(C([H])([H])[H])C([H])([H])[H])C([H])([H])c2c([H])c(OC([H])([H])C([H])([H])C([H])([H])[N+]([H])([H])C([H])([H])C([H])([H])C([H])([H])[N+]3([H])C([H])([H])C([H])([H])C([H])([H])C([H])([H])C([H])([H])C3([H])C([H])([H])N([H])C(=O)N3C([H])([H])C([H])([H])C([H])([H])C([H])(n4nc(-c5c([H])c([H])c(Oc6c([H])c([H])c(F)c([H])c6F)c([H])c5[H])c(C(=O)N([H])[H])c4N([H])[H])C3([H])[H])c([H])c([H])c2C1([H])[H]

>  <smiles>  (11) 
[H]c1c([H])c([H])c2c(c1[H])C([H])([H])C([H])([H])C([H])([H])C2([H])N([H])C(=O)C1([H])N(C(=O)C([H])(N([H])C(=O)C([H])(N([H])C([H])([H])[H])C([H])([H])[H])C(C([H])([H])[H])(C([H])([H])[H])C([H])([H])[H])C([H])([H])c2c([H])c(OC([H])([H])C([H])([H])C([H])([H])[N+]([H])([H])C([H])([H])C([H])([H])C([H])([H])[N+]3([H])C([H])([H])C([H])([H])C([H])([H])C([H])([H])C([H])([H])C3([H])C([H])([H])N([H])C(=O)N3C([H])([H])C([H])([H])C([H])([H])C([H])(n4nc(-c5c([H])c([H])c(Oc6c([H])c([H])c(F)c([H])c6F)c([H])c5[H])c(C(=O)N([H])[H])c4N([H])[H])C3([H])[H])c([H])c([H])c2C1([H])[H]

$$$$
11:0:0
     RDKit          3D

 91 98  0  0  1  0  0  0  0  0999 V2000
  -28.3750  -22.6060   19.7720 C   0  0  0  0  0  0  0  0  0  0  0  0
  -28.7830  -23.8850   19.7210 N   0  0  0  0  0  0  0  0  0  0  0  0
  -27.8860  -22.0790   18.7750 O   0  0  0  0  0  0  0  0  0  0  0  0
  -28.6420  -24.3630   18.8410 H   0  0  0  0  0  0  0  0  0  0  0  0
  -28.5390  -21.8150   21.0840 C   0  0  0  0  0  2  0  0  0  0  0  0
  -27.8500  -20.4290   21.1420 C   0  0  0  0  0  2  0  0  0  0  0  0
  -28.5450  -19.3020   20.3560 C   0  0  0  0  0  2  0  0  0  0  0  0
  -29.8350  -18.7800   21.0140 C   0  0  0  0  0  2  0  0  0  0  0  0
  -30.4810  -17.6510   20.1920 C   0  0  0  0  0  2  0  0  0  0  0  0
  -31.3820  -16.7100   21.0220 C   0  0  0  0  0  2  0  0  0  0  0  0
  -31.3710  -14.3950   20.0820 C   0  0  0  0  0  0  0  0  0  0  0  0
  -30.8950  -12.2330   18.9910 C   0  0  0  0  0  2  0  0  0  0  0  0
  -29.9360  -12.4260   17.7970 C   0  0  0  0  0  2  0  0  0  0  0  0
  -28.4700  -12.3880   18.2650 C   0  0  0  0  0  2  0  0  0  0  0  0
  -28.2040  -13.3140   19.4810 C   0  0  0  0  0  3  0  0  0  0  0  0
  -29.2670  -13.0920   20.5800 C   0  0  0  0  0  2  0  0  0  0  0  0
  -30.6070  -13.2760   19.9880 N   0  0  0  0  0  0  0  0  0  0  0  0
  -32.4040  -14.5730   19.4270 O   0  0  0  0  0  0  0  0  0  0  0  0
  -30.9070  -15.3300   20.9150 N   0  0  0  0  0  0  0  0  0  0  0  0
  -30.0710  -15.0890   21.4280 H   0  0  0  0  0  0  0  0  0  0  0  0
  -25.8700  -14.0870   20.2560 C   0  0  0  0  0  0  0  0  0  0  0  0
  -24.7620  -13.3920   20.6610 C   0  0  0  0  0  0  0  0  0  0  0  0
  -25.1290  -12.0120   20.6210 C   0  0  0  0  0  0  0  0  0  0  0  0
  -26.8460  -13.1350   19.9960 N   0  0  0  0  0  0  0  0  0  0  0  0
  -26.4040  -11.8810   20.2730 N   0  0  0  0  0  0  0  0  0  0  0  0
  -24.3240  -10.8000   20.8460 C   0  0  0  0  0  0  0  0  0  0  0  0
  -24.7040   -9.8230   21.7920 C   0  0  0  0  0  3  0  0  0  0  0  0
  -23.9050   -8.6770   21.9980 C   0  0  0  0  0  3  0  0  0  0  0  0
  -22.7140   -8.4970   21.2560 C   0  0  0  0  0  0  0  0  0  0  0  0
  -22.3550   -9.4600   20.2960 C   0  0  0  0  0  3  0  0  0  0  0  0
  -23.1540  -10.5980   20.0870 C   0  0  0  0  0  3  0  0  0  0  0  0
  -21.8970   -7.4000   21.3650 O   0  0  0  0  0  0  0  0  0  0  0  0
  -21.7810   -6.7030   22.5430 C   0  0  0  0  0  0  0  0  0  0  0  0
  -21.3800   -7.3290   23.7420 C   0  0  0  0  0  3  0  0  0  0  0  0
  -21.2030   -6.5640   24.9110 C   0  0  0  0  0  3  0  0  0  0  0  0
  -21.4280   -5.1730   24.8850 C   0  0  0  0  0  0  0  0  0  0  0  0
  -21.8230   -4.5480   23.6890 C   0  0  0  0  0  3  0  0  0  0  0  0
  -21.9980   -5.3110   22.5230 C   0  0  0  0  0  0  0  0  0  0  0  0
  -22.3600   -4.7010   21.3690 F   0  0  0  0  0  0  0  0  0  0  0  0
  -21.2540   -4.4360   26.0060 F   0  0  0  0  0  0  0  0  0  0  0  0
  -23.4090  -13.9630   20.9730 C   0  0  0  0  0  0  0  0  0  0  0  0
  -22.6610  -13.3250   21.8670 N   0  0  0  0  0  0  0  0  0  0  0  0
  -23.0260  -15.0110   20.4590 O   0  0  0  0  0  0  0  0  0  0  0  0
  -22.9850  -12.4790   22.3110 H   0  0  0  0  0  0  0  0  0  0  0  0
  -21.7560  -13.6960   22.1150 H   0  0  0  0  0  0  0  0  0  0  0  0
  -26.1320  -15.4410   20.0760 N   0  0  0  0  0  0  0  0  0  0  0  0
  -25.4350  -16.1600   20.2270 H   0  0  0  0  0  0  0  0  0  0  0  0
  -27.0120  -15.8080   19.7370 H   0  0  0  0  0  0  0  0  0  0  0  0
  -29.4310  -24.6730   20.7740 C   0  0  0  0  0  2  0  0  0  0  0  0
  -28.5510  -25.8580   21.2220 C   0  0  0  0  0  2  0  0  0  0  0  0
  -28.4590  -26.8020   20.1570 O   0  0  0  0  0  0  0  0  0  0  0  0
  -24.6630  -31.9210   23.3210 C   0  0  0  0  0  0  0  0  0  0  0  0
  -27.3030  -27.5330   20.1880 C   0  0  0  0  0  0  0  0  0  0  0  0
  -23.4500  -30.5310   21.6700 C   0  0  0  0  0  3  0  0  0  0  0  0
  -24.9040  -29.0040   20.2280 C   0  0  0  0  0  0  0  0  0  0  0  0
  -25.9710  -30.8990   21.4650 C   0  0  0  0  0  2  0  0  0  0  0  0
  -26.0580  -29.5320   20.8180 C   0  0  0  0  0  0  0  0  0  0  0  0
  -27.2640  -28.8030   20.8020 C   0  0  0  0  0  3  0  0  0  0  0  0
  -26.1410  -27.0100   19.5870 C   0  0  0  0  0  3  0  0  0  0  0  0
  -24.9360  -27.7400   19.6100 C   0  0  0  0  0  3  0  0  0  0  0  0
  -23.6570  -29.8570   20.2840 C   0  0  0  0  0  2  0  0  0  0  0  0
  -24.7120  -31.1320   22.2120 N   0  0  0  0  0  0  0  0  0  0  0  0
  -23.5840  -32.1930   23.8660 O   0  0  0  0  0  0  0  0  0  0  0  0
  -22.8030  -29.5030   22.6260 C   0  0  0  0  0  0  0  0  0  0  0  0
  -21.4810  -29.3120   22.4900 N   0  0  0  0  0  0  0  0  0  0  0  0
  -23.4890  -28.8810   23.4410 O   0  0  0  0  0  0  0  0  0  0  0  0
  -20.9920  -29.8800   21.8140 H   0  0  0  0  0  0  0  0  0  0  0  0
  -18.1210  -28.0500   22.9170 C   0  0  0  0  0  0  0  0  0  0  0  0
  -20.6640  -28.3610   23.2460 C   0  0  0  0  0  3  0  0  0  0  0  0
  -20.8100  -26.9280   22.6840 C   0  0  0  0  0  2  0  0  0  0  0  0
  -19.7380  -26.5810   21.6470 C   0  0  0  0  0  2  0  0  0  0  0  0
  -18.3400  -26.7000   22.2590 C   0  0  0  0  0  2  0  0  0  0  0  0
  -19.2140  -28.8370   23.3660 C   0  0  0  0  0  0  0  0  0  0  0  0
  -18.9610  -30.1030   23.9370 C   0  0  0  0  0  3  0  0  0  0  0  0
  -17.6430  -30.5810   24.0680 C   0  0  0  0  0  3  0  0  0  0  0  0
  -16.5620  -29.7920   23.6380 C   0  0  0  0  0  3  0  0  0  0  0  0
  -16.8030  -28.5280   23.0710 C   0  0  0  0  0  3  0  0  0  0  0  0
  -25.9550  -32.5380   23.9440 C   0  0  0  0  0  3  0  0  0  0  0  0
  -25.6570  -33.9370   24.2740 N   0  0  0  0  0  0  0  0  0  0  0  0
  -25.9930  -34.9840   23.5090 C   0  0  0  0  0  0  0  0  0  0  0  0
  -26.6640  -34.8750   22.4800 O   0  0  0  0  0  0  0  0  0  0  0  0
  -25.0640  -34.0950   25.0760 H   0  0  0  0  0  0  0  0  0  0  0  0
  -24.2730  -36.7820   23.1460 C   0  0  0  0  0  1  0  0  0  0  0  0
  -25.5110  -36.3760   23.9610 C   0  0  0  0  0  3  0  0  0  0  0  0
  -27.6490  -37.2530   24.7870 C   0  0  0  0  0  1  0  0  0  0  0  0
  -26.5470  -37.4230   23.8440 N   0  0  0  0  0  0  0  0  0  0  0  0
  -26.1460  -38.3470   23.9900 H   0  0  0  0  0  0  0  0  0  0  0  0
  -26.4650  -31.7610   25.2190 C   0  0  1  0  0  0  0  0  0  0  0  0
  -25.3670  -31.5330   26.2850 C   0  0  0  0  0  1  0  0  0  0  0  0
  -27.0390  -30.3810   24.8230 C   0  0  0  0  0  1  0  0  0  0  0  0
  -27.6220  -32.5470   25.8800 C   0  0  0  0  0  1  0  0  0  0  0  0
  1  5  1  0
  2  1  1  0
  2 49  1  0
  3  1  2  0
  4  2  1  0
  5  6  1  0
  7  8  1  0
  7  6  1  0
  9  8  1  0
  9 10  1  0
 11 19  1  0
 12 17  1  0
 13 14  1  0
 13 12  1  0
 15 14  1  0
 15 24  1  0
 15 16  1  0
 17 11  1  0
 17 16  1  0
 18 11  2  0
 19 10  1  0
 19 20  1  0
 21 22  2  0
 22 41  1  0
 23 22  1  0
 23 26  1  0
 24 21  1  0
 24 25  1  0
 25 23  2  0
 26 27  1  0
 27 28  2  0
 29 32  1  0
 29 28  1  0
 30 29  2  0
 31 30  1  0
 31 26  2  0
 32 33  1  0
 33 34  1  0
 34 35  2  0
 36 35  1  0
 36 40  1  0
 37 36  2  0
 38 33  2  0
 38 37  1  0
 39 38  1  0
 41 42  1  0
 42 45  1  0
 42 44  1  0
 43 41  2  0
 46 47  1  0
 46 21  1  0
 48 46  1  0
 49 50  1  0
 51 53  1  0
 51 50  1  0
 52 63  2  0
 53 58  1  0
 54 62  1  0
 54 64  1  0
 55 61  1  0
 55 57  1  0
 56 62  1  0
 57 56  1  0
 58 57  2  0
 59 60  1  0
 59 53  2  0
 60 55  2  0
 61 54  1  0
 62 52  1  0
 64 66  2  0
 65 64  1  0
 67 65  1  0
 68 77  2  0
 68 73  1  0
 69 65  1  0
 69 73  1  0
 70 69  1  0
 71 72  1  0
 71 70  1  0
 72 68  1  0
 73 74  2  0
 74 75  1  0
 76 75  2  0
 77 76  1  0
 78 52  1  0
 78 79  1  0
 78 88  1  0
 79 82  1  0
 80 84  1  0
 80 79  1  0
 81 80  2  0
 84 83  1  0
 86 84  1  0
 86 87  1  0
 86 85  1  0
 88 91  1  1
 88 89  1  0
 90 88  1  0
M  ISO  4  11 100  19 100  50 101  51 101
M  END
>  <TORSDO>  (12) 
F 24

>  <SCORE>  (12) 
-11.535

>  <name>  (12) 
11

>  <ligand_id>  (12) 
11

>  <original_smiles>  (12) 
[H]c1c([H])c([H])c2c(c1[H])C([H])([H])C([H])([H])C([H])([H])C2([H])N([H])C(=O)C1([H])N(C(=O)C([H])(N([H])C(=O)C([H])(N([H])C([H])([H])[H])C([H])([H])[H])C(C([H])([H])[H])(C([H])([H])[H])C([H])([H])[H])C([H])([H])c2c([H])c(OC([H])([H])C([H])([H])N([H])C(=O)C([H])([H])C([H])([H])C([H])([H])C([H])([H])C([H])([H])C([H])([H])N([H])C(=O)N3C([H])([H])C([H])([H])C([H])([H])C([H])(n4nc(-c5c([H])c([H])c(Oc6c([H])c([H])c(F)c([H])c6F)c([H])c5[H])c(C(=O)N([H])[H])c4N([H])[H])C3([H])[H])c([H])c([H])c2C1([H])[H]

>  <smiles>  (12) 
[H]c1c([H])c([H])c2c(c1[H])C([H])([H])C([H])([H])C([H])([H])C2([H])N([H])C(=O)C1([H])N(C(=O)C([H])(N([H])C(=O)C([H])(N([H])C([H])([H])[H])C([H])([H])[H])C(C([H])([H])[H])(C([H])([H])[H])C([H])([H])[H])C([H])([H])c2c([H])c(OC([H])([H])C([H])([H])N([H])C(=O)C([H])([H])C([H])([H])C([H])([H])C([H])([H])C([H])([H])C([H])([H])N([H])C(=O)N3C([H])([H])C([H])([H])C([H])([H])C([H])(n4nc(-c5c([H])c([H])c(Oc6c([H])c([H])c(F)c([H])c6F)c([H])c5[H])c(C(=O)N([H])[H])c4N([H])[H])C3([H])[H])c([H])c([H])c2C1([H])[H]

$$$$
12:0:0
     RDKit          3D

 97105  0  0  1  0  0  0  0  0999 V2000
  -28.0960  -21.9820   19.4770 C   0  0  0  0  0  3  0  0  0  0  0  0
  -26.8060  -21.4260   19.0260 N   0  0  0  0  0  4  0  0  0  0  0  0
  -26.0630  -21.7920   19.5920 H   0  0  0  0  0  0  0  0  0  0  0  0
  -26.8090  -20.4230   19.0890 H   0  0  0  0  0  0  0  0  0  0  0  0
  -26.6340  -21.7180   18.0800 H   0  0  0  0  0  0  0  0  0  0  0  0
  -28.0610  -23.4910   19.1440 C   0  0  0  0  0  0  0  0  0  0  0  0
  -27.2860  -23.9600   18.3040 O   0  0  0  0  0  0  0  0  0  0  0  0
  -29.0500  -24.4170   19.8610 C   0  0  0  0  0  2  0  0  0  0  0  0
  -28.3780  -25.4890   20.7510 C   0  0  0  0  0  2  0  0  0  0  0  0
  -28.3940  -26.7900   20.1470 O   0  0  0  0  0  0  0  0  0  0  0  0
  -24.5590  -31.9180   23.2740 C   0  0  0  0  0  0  0  0  0  0  0  0
  -27.2140  -27.4940   20.1900 C   0  0  0  0  0  0  0  0  0  0  0  0
  -23.3540  -30.5120   21.6340 C   0  0  0  0  0  3  0  0  0  0  0  0
  -24.8090  -28.9760   20.2150 C   0  0  0  0  0  0  0  0  0  0  0  0
  -25.8770  -30.8820   21.4320 C   0  0  0  0  0  2  0  0  0  0  0  0
  -25.9660  -29.5110   20.7940 C   0  0  0  0  0  0  0  0  0  0  0  0
  -27.1750  -28.7800   20.7740 C   0  0  0  0  0  3  0  0  0  0  0  0
  -26.0390  -26.9670   19.6150 C   0  0  0  0  0  3  0  0  0  0  0  0
  -24.8370  -27.6990   19.6260 C   0  0  0  0  0  3  0  0  0  0  0  0
  -23.5630  -29.8290   20.2570 C   0  0  0  0  0  2  0  0  0  0  0  0
  -24.6150  -31.1190   22.1720 N   0  0  0  0  0  0  0  0  0  0  0  0
  -23.4780  -32.1880   23.8150 O   0  0  0  0  0  0  0  0  0  0  0  0
  -22.7070  -29.4920   22.5960 C   0  0  0  0  0  0  0  0  0  0  0  0
  -21.3840  -29.3010   22.4650 N   0  0  0  0  0  0  0  0  0  0  0  0
  -23.3920  -28.8720   23.4150 O   0  0  0  0  0  0  0  0  0  0  0  0
  -20.8930  -29.8540   21.7760 H   0  0  0  0  0  0  0  0  0  0  0  0
  -18.0160  -28.0880   22.9500 C   0  0  0  0  0  0  0  0  0  0  0  0
  -20.5700  -28.3610   23.2340 C   0  0  0  0  0  3  0  0  0  0  0  0
  -20.6840  -26.9290   22.6620 C   0  0  0  0  0  2  0  0  0  0  0  0
  -19.5890  -26.5970   21.6420 C   0  0  0  0  0  2  0  0  0  0  0  0
  -18.2040  -26.7360   22.2790 C   0  0  0  0  0  2  0  0  0  0  0  0
  -19.1280  -28.8570   23.3830 C   0  0  0  0  0  0  0  0  0  0  0  0
  -18.8990  -30.1220   23.9680 C   0  0  0  0  0  3  0  0  0  0  0  0
  -17.5920  -30.6170   24.1250 C   0  0  0  0  0  3  0  0  0  0  0  0
  -16.4930  -29.8430   23.7080 C   0  0  0  0  0  3  0  0  0  0  0  0
  -16.7070  -28.5810   23.1260 C   0  0  0  0  0  3  0  0  0  0  0  0
  -25.8450  -32.5510   23.8940 C   0  0  0  0  0  3  0  0  0  0  0  0
  -26.3570  -31.7890   25.1770 C   0  0  1  0  0  0  0  0  0  0  0  0
  -25.2610  -31.5630   26.2440 C   0  0  0  0  0  1  0  0  0  0  0  0
  -26.9360  -30.4060   24.7980 C   0  0  0  0  0  1  0  0  0  0  0  0
  -27.5090  -32.5860   25.8350 C   0  0  0  0  0  1  0  0  0  0  0  0
  -25.5410  -33.9540   24.2080 N   0  0  0  0  0  0  0  0  0  0  0  0
  -25.8870  -34.9950   23.4390 C   0  0  0  0  0  0  0  0  0  0  0  0
  -26.5650  -34.8780   22.4160 O   0  0  0  0  0  0  0  0  0  0  0  0
  -24.9450  -34.1220   25.0050 H   0  0  0  0  0  0  0  0  0  0  0  0
  -24.1760  -36.7950   23.0370 C   0  0  0  0  0  1  0  0  0  0  0  0
  -25.4000  -36.3920   23.8750 C   0  0  0  0  0  3  0  0  0  0  0  0
  -27.5250  -37.2670   24.7380 C   0  0  0  0  0  1  0  0  0  0  0  0
  -26.4430  -37.4360   23.7720 N   0  0  0  0  0  0  0  0  0  0  0  0
  -26.0400  -38.3610   23.9020 H   0  0  0  0  0  0  0  0  0  0  0  0
  -29.2870  -21.2770   18.7780 C   0  0  0  0  0  2  0  0  0  0  0  0
  -29.2110  -16.9210   18.9790 C   0  0  0  0  0  3  0  0  0  0  0  0
  -28.8310  -17.5680   17.7910 C   0  0  0  0  0  3  0  0  0  0  0  0
  -29.6390  -19.0820   20.0110 C   0  0  0  0  0  3  0  0  0  0  0  0
  -29.6380  -17.6730   20.0980 C   0  0  0  0  0  0  0  0  0  0  0  0
  -28.8710  -18.9740   17.6930 C   0  0  0  0  0  0  0  0  0  0  0  0
  -29.2550  -19.7460   18.8210 C   0  0  0  0  0  0  0  0  0  0  0  0
  -28.5320  -19.6100   16.3540 C   0  0  0  0  0  1  0  0  0  0  0  0
  -30.1330  -17.0070   21.3850 C   0  0  0  0  0  2  0  0  0  0  0  0
  -30.6630  -14.5800   21.0660 C   0  0  0  0  0  0  0  0  0  0  0  0
  -30.5100  -12.3870   19.9610 C   0  0  0  0  0  2  0  0  0  0  0  0
  -29.6650  -12.5500   18.6810 C   0  0  0  0  0  2  0  0  0  0  0  0
  -28.1600  -12.4060   18.9860 C   0  0  0  0  0  2  0  0  0  0  0  0
  -27.7090  -13.2630   20.1980 C   0  0  0  0  0  3  0  0  0  0  0  0
  -28.6720  -13.0740   21.3940 C   0  0  0  0  0  2  0  0  0  0  0  0
  -30.0360  -13.3840   20.9300 N   0  0  0  0  0  0  0  0  0  0  0  0
  -31.8110  -14.7980   20.6720 O   0  0  0  0  0  0  0  0  0  0  0  0
  -29.8640  -15.5710   21.4880 N   0  0  0  0  0  0  0  0  0  0  0  0
  -28.9380  -15.3070   21.7840 H   0  0  0  0  0  0  0  0  0  0  0  0
  -25.2570  -13.8670   20.6990 C   0  0  0  0  0  0  0  0  0  0  0  0
  -24.1690  -13.0910   20.9980 C   0  0  0  0  0  0  0  0  0  0  0  0
  -24.6420  -11.7440   21.0280 C   0  0  0  0  0  0  0  0  0  0  0  0
  -26.3230  -12.9880   20.5690 N   0  0  0  0  0  0  0  0  0  0  0  0
  -25.9520  -11.7090   20.8220 N   0  0  0  0  0  0  0  0  0  0  0  0
  -23.9140  -10.4790   21.1820 C   0  0  0  0  0  0  0  0  0  0  0  0
  -24.3020   -9.5190   22.1420 C   0  0  0  0  0  3  0  0  0  0  0  0
  -23.5770   -8.3160   22.2850 C   0  0  0  0  0  3  0  0  0  0  0  0
  -22.4500   -8.0660   21.4660 C   0  0  0  0  0  0  0  0  0  0  0  0
  -22.0840   -9.0150   20.4960 C   0  0  0  0  0  3  0  0  0  0  0  0
  -22.8090  -10.2090   20.3510 C   0  0  0  0  0  3  0  0  0  0  0  0
  -21.6990   -6.9160   21.5180 O   0  0  0  0  0  0  0  0  0  0  0  0
  -21.6070   -6.1670   22.6640 C   0  0  0  0  0  0  0  0  0  0  0  0
  -21.1220   -6.7120   23.8740 C   0  0  0  0  0  3  0  0  0  0  0  0
  -20.9780   -5.8880   25.0080 C   0  0  0  0  0  3  0  0  0  0  0  0
  -21.3090   -4.5210   24.9330 C   0  0  0  0  0  0  0  0  0  0  0  0
  -21.7870   -3.9770   23.7290 C   0  0  0  0  0  3  0  0  0  0  0  0
  -21.9330   -4.7980   22.5970 C   0  0  0  0  0  0  0  0  0  0  0  0
  -22.3730   -4.2630   21.4320 F   0  0  0  0  0  0  0  0  0  0  0  0
  -21.1650   -3.7280   26.0210 F   0  0  0  0  0  0  0  0  0  0  0  0
  -22.7520  -13.5590   21.1530 C   0  0  0  0  0  0  0  0  0  0  0  0
  -21.9660  -12.8700   21.9730 N   0  0  0  0  0  0  0  0  0  0  0  0
  -22.3440  -14.5680   20.5790 O   0  0  0  0  0  0  0  0  0  0  0  0
  -22.3100  -12.0570   22.4630 H   0  0  0  0  0  0  0  0  0  0  0  0
  -21.0080  -13.1560   22.1090 H   0  0  0  0  0  0  0  0  0  0  0  0
  -25.4310  -15.2350   20.5080 N   0  0  0  0  0  0  0  0  0  0  0  0
  -24.6570  -15.8890   20.5250 H   0  0  0  0  0  0  0  0  0  0  0  0
  -26.3030  -15.6660   20.2290 H   0  0  0  0  0  0  0  0  0  0  0  0
  1 51  1  0
  2  4  1  0
  2  1  1  0
  2  3  1  0
  5  2  1  0
  6  1  1  0
  6  8  1  0
  7  6  2  0
  8  9  1  0
 10 12  1  0
 10  9  1  0
 11 22  2  0
 12 17  1  0
 13 21  1  0
 13 23  1  0
 14 20  1  0
 14 16  1  0
 15 21  1  0
 16 15  1  0
 17 16  2  0
 18 19  1  0
 18 12  2  0
 19 14  2  0
 20 13  1  0
 21 11  1  0
 23 25  2  0
 24 23  1  0
 26 24  1  0
 27 36  2  0
 27 32  1  0
 28 24  1  0
 28 32  1  0
 29 28  1  0
 30 31  1  0
 30 29  1  0
 31 27  1  0
 32 33  2  0
 33 34  1  0
 35 34  2  0
 36 35  1  0
 37 11  1  0
 37 42  1  0
 37 38  1  0
 38 41  1  1
 38 39  1  0
 40 38  1  0
 42 45  1  0
 43 47  1  0
 43 42  1  0
 44 43  2  0
 47 46  1  0
 49 47  1  0
 49 50  1  0
 49 48  1  0
 51 57  1  0
 52 55  1  0
 53 52  2  0
 54 55  2  0
 55 59  1  0
 56 53  1  0
 56 57  2  0
 57 54  1  0
 58 56  1  0
 59 68  1  0
 60 68  1  0
 61 66  1  0
 62 63  1  0
 62 61  1  0
 64 63  1  0
 64 73  1  0
 64 65  1  0
 66 60  1  0
 66 65  1  0
 67 60  2  0
 68 69  1  0
 70 71  2  0
 71 72  1  0
 71 90  1  0
 72 75  1  0
 73 70  1  0
 73 74  1  0
 74 72  2  0
 75 76  1  0
 76 77  2  0
 78 81  1  0
 78 77  1  0
 79 78  2  0
 80 79  1  0
 80 75  2  0
 81 82  1  0
 82 83  1  0
 83 84  2  0
 85 84  1  0
 85 89  1  0
 86 85  2  0
 87 82  2  0
 87 86  1  0
 88 87  1  0
 90 91  1  0
 91 94  1  0
 91 93  1  0
 92 90  2  0
 95 96  1  0
 95 70  1  0
 97 95  1  0
M  ISO  4   9 101  10 101  60 100  68 100
M  END
>  <TORSDO>  (13) 
F 23

>  <SCORE>  (13) 
-12.922

>  <name>  (13) 
12

>  <ligand_id>  (13) 
12

>  <original_smiles>  (13) 
[H]c1c([H])c([H])c2c(c1[H])C([H])([H])C([H])([H])C([H])([H])C2([H])N([H])C(=O)C1([H])N(C(=O)C([H])(N([H])C(=O)C([H])(N([H])C([H])([H])[H])C([H])([H])[H])C(C([H])([H])[H])(C([H])([H])[H])C([H])([H])[H])C([H])([H])c2c([H])c(OC([H])([H])C([H])([H])C(=O)C([H])(C([H])([H])c3c([H])c(C([H])([H])N([H])C(=O)N4C([H])([H])C([H])([H])C([H])([H])C([H])(n5nc(-c6c([H])c([H])c(Oc7c([H])c([H])c(F)c([H])c7F)c([H])c6[H])c(C(=O)N([H])[H])c5N([H])[H])C4([H])[H])c([H])c([H])c3C([H])([H])[H])[N+]([H])([H])[H])c([H])c([H])c2C1([H])[H]

>  <smiles>  (13) 
[H]c1c([H])c([H])c2c(c1[H])C([H])([H])C([H])([H])C([H])([H])C2([H])N([H])C(=O)C1([H])N(C(=O)C([H])(N([H])C(=O)C([H])(N([H])C([H])([H])[H])C([H])([H])[H])C(C([H])([H])[H])(C([H])([H])[H])C([H])([H])[H])C([H])([H])c2c([H])c(OC([H])([H])C([H])([H])C(=O)C([H])(C([H])([H])c3c([H])c(C([H])([H])N([H])C(=O)N4C([H])([H])C([H])([H])C([H])([H])C([H])(n5nc(-c6c([H])c([H])c(Oc7c([H])c([H])c(F)c([H])c7F)c([H])c6[H])c(C(=O)N([H])[H])c5N([H])[H])C4([H])[H])c([H])c([H])c3C([H])([H])[H])[N+]([H])([H])[H])c([H])c([H])c2C1([H])[H]

$$$$
13:0:0
     RDKit          3D

 92100  0  0  1  0  0  0  0  0999 V2000
  -28.1560  -21.2830   20.5330 C   0  0  0  0  0  3  0  0  0  0  0  0
  -29.5350  -17.8560   21.8120 C   0  0  0  0  0  2  0  0  0  0  0  0
  -29.5930  -19.4150   21.6110 C   0  0  0  0  0  2  0  0  0  0  0  0
  -29.0980  -19.2230   19.1970 C   0  0  0  0  0  2  0  0  0  0  0  0
  -29.9210  -17.8580   19.2990 C   0  0  0  0  0  3  0  0  0  0  0  0
  -29.5460  -16.9490   20.5300 C   0  0  0  0  0  3  0  0  0  0  0  0
  -31.4370  -18.1070   19.1610 C   0  0  0  0  0  1  0  0  0  0  0  0
  -28.7190  -19.8590   20.4980 N   0  0  2  0  0  4  0  0  0  0  0  0
  -27.8740  -19.3550   20.7280 H   0  0  0  0  0  0  0  0  0  0  0  0
  -30.7880  -14.6610   20.0010 C   0  0  0  0  0  0  0  0  0  0  0  0
  -30.4220  -12.4730   18.8800 C   0  0  0  0  0  2  0  0  0  0  0  0
  -29.4050  -12.6270   17.7310 C   0  0  0  0  0  2  0  0  0  0  0  0
  -27.9760  -12.4280   18.2660 C   0  0  0  0  0  2  0  0  0  0  0  0
  -27.6980  -13.2730   19.5380 C   0  0  0  0  0  3  0  0  0  0  0  0
  -28.8310  -13.1420   20.5810 C   0  0  0  0  0  2  0  0  0  0  0  0
  -30.0950  -13.4800   19.9140 N   0  0  0  0  0  0  0  0  0  0  0  0
  -31.8670  -14.7930   19.4230 O   0  0  0  0  0  0  0  0  0  0  0  0
  -30.3300  -15.6750   20.7970 N   0  0  0  0  0  0  0  0  0  0  0  0
  -31.0870  -15.9100   21.4220 H   0  0  0  0  0  0  0  0  0  0  0  0
  -25.3650  -13.8280   20.4550 C   0  0  0  0  0  0  0  0  0  0  0  0
  -24.3330  -13.0350   20.8810 C   0  0  0  0  0  0  0  0  0  0  0  0
  -24.7980  -11.6900   20.7740 C   0  0  0  0  0  0  0  0  0  0  0  0
  -26.3930  -12.9640   20.1150 N   0  0  0  0  0  0  0  0  0  0  0  0
  -26.0620  -11.6710   20.3680 N   0  0  0  0  0  0  0  0  0  0  0  0
  -24.0930  -10.4170   20.9800 C   0  0  0  0  0  0  0  0  0  0  0  0
  -24.5520   -9.4610   21.9130 C   0  0  0  0  0  3  0  0  0  0  0  0
  -23.8450   -8.2550   22.1070 C   0  0  0  0  0  3  0  0  0  0  0  0
  -22.6670   -7.9960   21.3680 C   0  0  0  0  0  0  0  0  0  0  0  0
  -22.2260   -8.9400   20.4250 C   0  0  0  0  0  3  0  0  0  0  0  0
  -22.9340  -10.1390   20.2300 C   0  0  0  0  0  3  0  0  0  0  0  0
  -21.9330   -6.8370   21.4670 O   0  0  0  0  0  0  0  0  0  0  0  0
  -21.8480   -6.1410   22.6450 C   0  0  0  0  0  0  0  0  0  0  0  0
  -21.3630   -6.7350   23.8290 C   0  0  0  0  0  3  0  0  0  0  0  0
  -21.2290   -5.9640   25.0020 C   0  0  0  0  0  3  0  0  0  0  0  0
  -21.5680   -4.5970   24.9860 C   0  0  0  0  0  0  0  0  0  0  0  0
  -22.0440   -4.0010   23.8050 C   0  0  0  0  0  3  0  0  0  0  0  0
  -22.1810   -4.7710   22.6370 C   0  0  0  0  0  0  0  0  0  0  0  0
  -22.6220   -4.1880   21.4960 F   0  0  0  0  0  0  0  0  0  0  0  0
  -21.4290   -3.8520   26.1080 F   0  0  0  0  0  0  0  0  0  0  0  0
  -22.9580  -13.4960   21.2680 C   0  0  0  0  0  0  0  0  0  0  0  0
  -22.3040  -12.7770   22.1740 N   0  0  0  0  0  0  0  0  0  0  0  0
  -22.4750  -14.5270   20.8010 O   0  0  0  0  0  0  0  0  0  0  0  0
  -22.7110  -11.9440   22.5760 H   0  0  0  0  0  0  0  0  0  0  0  0
  -21.3860  -13.0720   22.4770 H   0  0  0  0  0  0  0  0  0  0  0  0
  -25.5050  -15.2020   20.3040 N   0  0  0  0  0  0  0  0  0  0  0  0
  -24.7380  -15.8460   20.4650 H   0  0  0  0  0  0  0  0  0  0  0  0
  -26.3050  -15.6390   19.8670 H   0  0  0  0  0  0  0  0  0  0  0  0
  -28.9940  -22.5630   20.0970 C   0  0  0  0  0  3  0  0  0  0  0  0
  -28.3720  -23.9710   20.4790 C   0  0  0  0  0  0  0  0  0  0  0  0
  -27.7420  -24.0890   21.5340 O   0  0  0  0  0  0  0  0  0  0  0  0
  -28.5500  -25.2240   19.5350 C   0  0  0  0  0  2  0  0  0  0  0  0
  -28.4290  -26.5590   20.1650 O   0  0  0  0  0  0  0  0  0  0  0  0
  -24.6340  -31.8660   23.1930 C   0  0  0  0  0  0  0  0  0  0  0  0
  -27.2690  -27.3430   20.1060 C   0  0  0  0  0  0  0  0  0  0  0  0
  -23.4310  -30.4650   21.5510 C   0  0  0  0  0  3  0  0  0  0  0  0
  -24.8850  -28.9220   20.1170 C   0  0  0  0  0  0  0  0  0  0  0  0
  -25.9650  -30.8000   21.3610 C   0  0  0  0  0  2  0  0  0  0  0  0
  -26.0500  -29.4220   20.7100 C   0  0  0  0  0  0  0  0  0  0  0  0
  -27.2410  -28.6430   20.6980 C   0  0  0  0  0  3  0  0  0  0  0  0
  -26.0800  -26.8820   19.5010 C   0  0  0  0  0  3  0  0  0  0  0  0
  -24.9020  -27.6560   19.5060 C   0  0  0  0  0  3  0  0  0  0  0  0
  -23.6430  -29.7890   20.1690 C   0  0  0  0  0  2  0  0  0  0  0  0
  -24.6950  -31.0630   22.0900 N   0  0  0  0  0  0  0  0  0  0  0  0
  -23.5520  -32.1380   23.7330 O   0  0  0  0  0  0  0  0  0  0  0  0
  -22.7780  -29.4440   22.5120 C   0  0  0  0  0  0  0  0  0  0  0  0
  -21.4520  -29.2630   22.3900 N   0  0  0  0  0  0  0  0  0  0  0  0
  -23.4620  -28.8170   23.3250 O   0  0  0  0  0  0  0  0  0  0  0  0
  -20.9610  -29.8200   21.7040 H   0  0  0  0  0  0  0  0  0  0  0  0
  -18.0820  -28.0510   22.8880 C   0  0  0  0  0  0  0  0  0  0  0  0
  -20.6390  -28.3180   23.1570 C   0  0  0  0  0  3  0  0  0  0  0  0
  -20.7470  -26.8890   22.5770 C   0  0  0  0  0  2  0  0  0  0  0  0
  -19.6450  -26.5660   21.5640 C   0  0  0  0  0  2  0  0  0  0  0  0
  -18.2620  -26.7040   22.2080 C   0  0  0  0  0  2  0  0  0  0  0  0
  -19.1990  -28.8150   23.3200 C   0  0  0  0  0  0  0  0  0  0  0  0
  -18.9770  -30.0740   23.9170 C   0  0  0  0  0  3  0  0  0  0  0  0
  -17.6720  -30.5700   24.0870 C   0  0  0  0  0  3  0  0  0  0  0  0
  -16.5690  -29.8040   23.6730 C   0  0  0  0  0  3  0  0  0  0  0  0
  -16.7750  -28.5460   23.0800 C   0  0  0  0  0  3  0  0  0  0  0  0
  -25.9170  -32.5000   23.8120 C   0  0  0  0  0  3  0  0  0  0  0  0
  -26.4430  -31.7200   25.0810 C   0  0  1  0  0  0  0  0  0  0  0  0
  -25.3560  -31.4660   26.1530 C   0  0  0  0  0  1  0  0  0  0  0  0
  -27.0340  -30.3500   24.6750 C   0  0  0  0  0  1  0  0  0  0  0  0
  -27.5920  -32.5160   25.7440 C   0  0  0  0  0  1  0  0  0  0  0  0
  -25.5990  -33.8910   24.1600 N   0  0  0  0  0  0  0  0  0  0  0  0
  -25.9170  -34.9560   23.4100 C   0  0  0  0  0  0  0  0  0  0  0  0
  -26.5810  -34.8680   22.3750 O   0  0  0  0  0  0  0  0  0  0  0  0
  -25.0080  -34.0300   24.9680 H   0  0  0  0  0  0  0  0  0  0  0  0
  -24.1740  -36.7400   23.0830 C   0  0  0  0  0  1  0  0  0  0  0  0
  -25.4220  -36.3360   23.8860 C   0  0  0  0  0  3  0  0  0  0  0  0
  -27.5560  -37.2290   24.7110 C   0  0  0  0  0  1  0  0  0  0  0  0
  -26.4470  -37.3980   23.7760 N   0  0  0  0  0  0  0  0  0  0  0  0
  -26.0370  -38.3150   23.9320 H   0  0  0  0  0  0  0  0  0  0  0  0
  3  2  1  0
  4  5  1  0
  4  8  1  0
  5  7  1  0
  5  6  1  0
  6 18  1  0
  6  2  1  0
  8  1  1  0
  8  9  1  1
  8  3  1  0
 10 18  1  0
 11 16  1  0
 12 13  1  0
 12 11  1  0
 14 13  1  0
 14 23  1  0
 14 15  1  0
 16 10  1  0
 16 15  1  0
 17 10  2  0
 18 19  1  0
 20 21  2  0
 21 40  1  0
 22 21  1  0
 22 25  1  0
 23 24  1  0
 23 20  1  0
 24 22  2  0
 25 26  1  0
 26 27  2  0
 28 31  1  0
 28 27  1  0
 29 28  2  0
 30 29  1  0
 30 25  2  0
 31 32  1  0
 32 33  1  0
 33 34  2  0
 35 34  1  0
 35 39  1  0
 36 35  2  0
 37 32  2  0
 37 36  1  0
 38 37  1  0
 40 41  1  0
 41 44  1  0
 41 43  1  0
 42 40  2  0
 45 20  1  0
 45 46  1  0
 47 45  1  0
 48 49  1  0
 48  1  2  0
 49 50  2  0
 51 52  1  0
 51 49  1  0
 53 64  2  0
 54 52  1  0
 54 59  1  0
 55 63  1  0
 55 65  1  0
 56 62  1  0
 56 58  1  0
 57 63  1  0
 58 57  1  0
 59 58  2  0
 60 61  1  0
 60 54  2  0
 61 56  2  0
 62 55  1  0
 63 53  1  0
 65 67  2  0
 66 65  1  0
 68 66  1  0
 69 78  2  0
 69 74  1  0
 70 66  1  0
 70 74  1  0
 71 70  1  0
 72 73  1  0
 72 71  1  0
 73 69  1  0
 74 75  2  0
 75 76  1  0
 77 76  2  0
 78 77  1  0
 79 53  1  0
 79 84  1  0
 79 80  1  0
 80 83  1  1
 80 81  1  0
 82 80  1  0
 84 87  1  0
 85 89  1  0
 85 84  1  0
 86 85  2  0
 89 88  1  0
 91 89  1  0
 91 92  1  0
 91 90  1  0
M  ISO  4  10 100  18 100  51 101  52 101
M  END
>  <TORSDO>  (14) 
F 20

>  <SCORE>  (14) 
-12.797

>  <name>  (14) 
13

>  <ligand_id>  (14) 
13

>  <original_smiles>  (14) 
[H]c1c([H])c([H])c2c(c1[H])C([H])([H])C([H])([H])C([H])([H])C2([H])N([H])C(=O)C1([H])N(C(=O)C([H])(N([H])C(=O)C([H])(N([H])C([H])([H])[H])C([H])([H])[H])C(C([H])([H])[H])(C([H])([H])[H])C([H])([H])[H])C([H])([H])c2c([H])c(OC([H])([H])C(=O)C([H])([H])C([H])([H])[N+]3([H])C([H])([H])C([H])([H])C([H])(N([H])C(=O)N4C([H])([H])C([H])([H])C([H])([H])C([H])(n5nc(-c6c([H])c([H])c(Oc7c([H])c([H])c(F)c([H])c7F)c([H])c6[H])c(C(=O)N([H])[H])c5N([H])[H])C4([H])[H])C([H])(C([H])([H])[H])C3([H])[H])c([H])c([H])c2C1([H])[H]

>  <smiles>  (14) 
[H]c1c([H])c([H])c2c(c1[H])C([H])([H])C([H])([H])C([H])([H])C2([H])N([H])C(=O)C1([H])N(C(=O)C([H])(N([H])C(=O)C([H])(N([H])C([H])([H])[H])C([H])([H])[H])C(C([H])([H])[H])(C([H])([H])[H])C([H])([H])[H])C([H])([H])c2c([H])c(OC([H])([H])C(=O)C([H])([H])C([H])([H])[N+]3([H])C([H])([H])C([H])([H])C([H])(N([H])C(=O)N4C([H])([H])C([H])([H])C([H])([H])C([H])(n5nc(-c6c([H])c([H])c(Oc7c([H])c([H])c(F)c([H])c7F)c([H])c6[H])c(C(=O)N([H])[H])c5N([H])[H])C4([H])[H])C([H])(C([H])([H])[H])C3([H])[H])c([H])c([H])c2C1([H])[H]

$$$$
14:0:0
     RDKit          3D

 93101  0  0  1  0  0  0  0  0999 V2000
  -29.9550  -20.0380   18.2260 C   0  0  0  0  0  2  0  0  0  0  0  0
  -29.8160  -21.4530   17.6740 C   0  0  0  0  0  2  0  0  0  0  0  0
  -28.9870  -22.3280   18.6080 C   0  0  0  0  0  2  0  0  0  0  0  0
  -29.0650  -23.7940   18.1970 C   0  0  0  0  0  2  0  0  0  0  0  0
  -28.5560  -24.7090   19.3050 C   0  0  0  0  0  2  0  0  0  0  0  0
  -28.7870  -26.1730   18.9500 C   0  0  0  0  0  2  0  0  0  0  0  0
  -28.4960  -26.9660   20.0860 O   0  0  0  0  0  0  0  0  0  0  0  0
  -24.6480  -31.8900   23.3820 C   0  0  0  0  0  0  0  0  0  0  0  0
  -27.2850  -27.6070   20.1220 C   0  0  0  0  0  0  0  0  0  0  0  0
  -23.4340  -30.5610   21.6820 C   0  0  0  0  0  3  0  0  0  0  0  0
  -24.8790  -29.0740   20.2030 C   0  0  0  0  0  0  0  0  0  0  0  0
  -25.9540  -30.9230   21.4990 C   0  0  0  0  0  2  0  0  0  0  0  0
  -26.0320  -29.5780   20.8170 C   0  0  0  0  0  0  0  0  0  0  0  0
  -27.2300  -28.8420   20.7910 C   0  0  0  0  0  3  0  0  0  0  0  0
  -26.1130  -27.0950   19.5160 C   0  0  0  0  0  3  0  0  0  0  0  0
  -24.9100  -27.8240   19.5590 C   0  0  0  0  0  3  0  0  0  0  0  0
  -23.6390  -29.9320   20.2760 C   0  0  0  0  0  2  0  0  0  0  0  0
  -24.6960  -31.1370   22.2470 N   0  0  0  0  0  0  0  0  0  0  0  0
  -23.5690  -32.1460   23.9320 O   0  0  0  0  0  0  0  0  0  0  0  0
  -22.7800  -29.5040   22.6000 C   0  0  0  0  0  0  0  0  0  0  0  0
  -21.4560  -29.3270   22.4540 N   0  0  0  0  0  0  0  0  0  0  0  0
  -23.4580  -28.8500   23.3960 O   0  0  0  0  0  0  0  0  0  0  0  0
  -20.9720  -29.9080   21.7850 H   0  0  0  0  0  0  0  0  0  0  0  0
  -18.0780  -28.1230   22.8740 C   0  0  0  0  0  0  0  0  0  0  0  0
  -20.6320  -28.3640   23.1820 C   0  0  0  0  0  3  0  0  0  0  0  0
  -20.7380  -26.9540   22.5540 C   0  0  0  0  0  2  0  0  0  0  0  0
  -19.6460  -26.6720   21.5180 C   0  0  0  0  0  2  0  0  0  0  0  0
  -18.2580  -26.7980   22.1530 C   0  0  0  0  0  2  0  0  0  0  0  0
  -19.1940  -28.8670   23.3430 C   0  0  0  0  0  0  0  0  0  0  0  0
  -18.9730  -30.1100   23.9730 C   0  0  0  0  0  3  0  0  0  0  0  0
  -17.6690  -30.6100   24.1420 C   0  0  0  0  0  3  0  0  0  0  0  0
  -16.5670  -29.8640   23.6910 C   0  0  0  0  0  3  0  0  0  0  0  0
  -16.7720  -28.6230   23.0630 C   0  0  0  0  0  3  0  0  0  0  0  0
  -25.9390  -32.4850   24.0260 C   0  0  0  0  0  3  0  0  0  0  0  0
  -26.4300  -31.6810   25.2920 C   0  0  1  0  0  0  0  0  0  0  0  0
  -25.3220  -31.4430   26.3440 C   0  0  0  0  0  1  0  0  0  0  0  0
  -26.9940  -30.3020   24.8780 C   0  0  0  0  0  1  0  0  0  0  0  0
  -27.5880  -32.4430   25.9800 C   0  0  0  0  0  1  0  0  0  0  0  0
  -25.6550  -33.8830   24.3730 N   0  0  0  0  0  0  0  0  0  0  0  0
  -26.0290  -34.9380   23.6390 C   0  0  0  0  0  0  0  0  0  0  0  0
  -26.7230  -34.8360   22.6230 O   0  0  0  0  0  0  0  0  0  0  0  0
  -25.0450  -34.0380   25.1620 H   0  0  0  0  0  0  0  0  0  0  0  0
  -24.3620  -36.7810   23.2530 C   0  0  0  0  0  1  0  0  0  0  0  0
  -25.5590  -36.3290   24.1050 C   0  0  0  0  0  3  0  0  0  0  0  0
  -27.6790  -37.1400   25.0400 C   0  0  0  0  0  1  0  0  0  0  0  0
  -26.6220  -37.3570   24.0560 N   0  0  0  0  0  0  0  0  0  0  0  0
  -26.2340  -38.2840   24.2060 H   0  0  0  0  0  0  0  0  0  0  0  0
  -30.9920  -19.2350   17.4370 C   0  0  0  0  0  2  0  0  0  0  0  0
  -30.8680  -14.7030   20.7050 C   0  0  0  0  0  0  0  0  0  0  0  0
  -30.5630  -12.4030   20.0060 C   0  0  0  0  0  2  0  0  0  0  0  0
  -29.7390  -12.4310   18.7020 C   0  0  0  0  0  2  0  0  0  0  0  0
  -28.2330  -12.4150   19.0210 C   0  0  0  0  0  2  0  0  0  0  0  0
  -27.7860  -13.3620   20.1740 C   0  0  0  0  0  3  0  0  0  0  0  0
  -28.7900  -13.3800   21.3530 C   0  0  0  0  0  2  0  0  0  0  0  0
  -30.1440  -13.5560   20.7990 N   0  0  0  0  0  0  0  0  0  0  0  0
  -31.9380  -14.8560   21.2720 O   0  0  0  0  0  0  0  0  0  0  0  0
  -29.7370  -16.0010   18.8880 C   0  0  0  0  0  2  0  0  0  0  0  0
  -32.0430  -15.0390   18.5800 C   0  0  0  0  0  2  0  0  0  0  0  0
  -30.0930  -16.9700   17.7400 C   0  0  0  0  0  2  0  0  0  0  0  0
  -32.5470  -17.3620   17.6750 C   0  0  0  0  0  2  0  0  0  0  0  0
  -33.0160  -16.2310   18.6030 C   0  0  0  0  0  3  0  0  0  0  0  0
  -34.4290  -15.7780   18.1980 C   0  0  0  0  0  1  0  0  0  0  0  0
  -30.8520  -15.2210   19.4430 N   0  0  0  0  0  0  0  0  0  0  0  0
  -31.2140  -17.9020   18.0430 N   0  0  1  0  0  4  0  0  0  0  0  0
  -31.2320  -18.0550   19.0390 H   0  0  0  0  0  0  0  0  0  0  0  0
  -25.3340  -13.9410   20.6930 C   0  0  0  0  0  0  0  0  0  0  0  0
  -24.2500  -13.1540   20.9730 C   0  0  0  0  0  0  0  0  0  0  0  0
  -24.7360  -11.8110   21.0090 C   0  0  0  0  0  0  0  0  0  0  0  0
  -26.4120  -13.0750   20.5790 N   0  0  0  0  0  0  0  0  0  0  0  0
  -26.0500  -11.7920   20.8320 N   0  0  0  0  0  0  0  0  0  0  0  0
  -24.0180  -10.5370   21.1470 C   0  0  0  0  0  0  0  0  0  0  0  0
  -24.3750   -9.5950   22.1350 C   0  0  0  0  0  3  0  0  0  0  0  0
  -23.6580   -8.3860   22.2630 C   0  0  0  0  0  3  0  0  0  0  0  0
  -22.5700   -8.1120   21.4010 C   0  0  0  0  0  0  0  0  0  0  0  0
  -22.2340   -9.0430   20.4030 C   0  0  0  0  0  3  0  0  0  0  0  0
  -22.9530  -10.2440   20.2730 C   0  0  0  0  0  3  0  0  0  0  0  0
  -21.8320   -6.9540   21.4380 O   0  0  0  0  0  0  0  0  0  0  0  0
  -21.6680   -6.2410   22.5990 C   0  0  0  0  0  0  0  0  0  0  0  0
  -21.0630   -6.8090   23.7420 C   0  0  0  0  0  3  0  0  0  0  0  0
  -20.8510   -6.0200   24.8900 C   0  0  0  0  0  3  0  0  0  0  0  0
  -21.2330   -4.6650   24.8960 C   0  0  0  0  0  0  0  0  0  0  0  0
  -21.8320   -4.0980   23.7570 C   0  0  0  0  0  3  0  0  0  0  0  0
  -22.0450   -4.8840   22.6100 C   0  0  0  0  0  0  0  0  0  0  0  0
  -22.6020   -4.3270   21.5080 F   0  0  0  0  0  0  0  0  0  0  0  0
  -21.0240   -3.9050   25.9960 F   0  0  0  0  0  0  0  0  0  0  0  0
  -22.8250  -13.6090   21.1060 C   0  0  0  0  0  0  0  0  0  0  0  0
  -22.0340  -12.9130   21.9170 N   0  0  0  0  0  0  0  0  0  0  0  0
  -22.4180  -14.6160   20.5290 O   0  0  0  0  0  0  0  0  0  0  0  0
  -22.3740  -12.1000   22.4060 H   0  0  0  0  0  0  0  0  0  0  0  0
  -21.0750  -13.2000   22.0490 H   0  0  0  0  0  0  0  0  0  0  0  0
  -25.4880  -15.3110   20.5040 N   0  0  0  0  0  0  0  0  0  0  0  0
  -24.7030  -15.9520   20.5350 H   0  0  0  0  0  0  0  0  0  0  0  0
  -26.3630  -15.7700   20.2840 H   0  0  0  0  0  0  0  0  0  0  0  0
  2  1  1  0
  2  3  1  0
  4  3  1  0
  4  5  1  0
  6  5  1  0
  6  7  1  0
  7  9  1  0
  8 19  2  0
  9 14  1  0
 10 18  1  0
 10 20  1  0
 11 17  1  0
 11 13  1  0
 12 18  1  0
 13 12  1  0
 14 13  2  0
 15 16  1  0
 15  9  2  0
 16 11  2  0
 17 10  1  0
 18  8  1  0
 20 22  2  0
 21 20  1  0
 23 21  1  0
 24 33  2  0
 24 29  1  0
 25 21  1  0
 25 29  1  0
 26 25  1  0
 27 28  1  0
 27 26  1  0
 28 24  1  0
 29 30  2  0
 30 31  1  0
 32 31  2  0
 33 32  1  0
 34  8  1  0
 34 39  1  0
 34 35  1  0
 35 38  1  1
 35 36  1  0
 37 35  1  0
 39 42  1  0
 40 44  1  0
 40 39  1  0
 41 40  2  0
 44 43  1  0
 46 44  1  0
 46 47  1  0
 46 45  1  0
 48 64  1  0
 48  1  1  0
 49 55  1  0
 49 56  2  0
 50 55  1  0
 51 52  1  0
 51 50  1  0
 53 52  1  0
 53 69  1  0
 53 54  1  0
 55 54  1  0
 57 63  1  0
 58 61  1  0
 58 63  1  0
 59 64  1  0
 59 57  1  0
 60 64  1  0
 60 61  1  0
 61 62  1  0
 63 49  1  0
 64 65  1  1
 66 67  2  0
 67 68  1  0
 67 86  1  0
 68 71  1  0
 69 66  1  0
 69 70  1  0
 70 68  2  0
 71 72  1  0
 72 73  2  0
 74 77  1  0
 74 73  1  0
 75 74  2  0
 76 75  1  0
 76 71  2  0
 77 78  1  0
 78 83  2  0
 78 79  1  0
 79 80  2  0
 80 81  1  0
 81 85  1  0
 82 81  2  0
 83 82  1  0
 84 83  1  0
 86 87  1  0
 87 90  1  0
 87 89  1  0
 88 86  2  0
 91 92  1  0
 91 66  1  0
 93 91  1  0
M  ISO  4   6 101   7 101  49 100  63 100
M  END
>  <TORSDO>  (15) 
F 22

>  <SCORE>  (15) 
-12.021

>  <name>  (15) 
14

>  <ligand_id>  (15) 
14

>  <original_smiles>  (15) 
[H]c1c([H])c([H])c2c(c1[H])C([H])([H])C([H])([H])C([H])([H])C2([H])N([H])C(=O)C1([H])N(C(=O)C([H])(N([H])C(=O)C([H])(N([H])C([H])([H])[H])C([H])([H])[H])C(C([H])([H])[H])(C([H])([H])[H])C([H])([H])[H])C([H])([H])c2c([H])c(OC([H])([H])C([H])([H])C([H])([H])C([H])([H])C([H])([H])C([H])([H])C([H])([H])[N+]3([H])C([H])([H])C([H])([H])N(C(=O)N4C([H])([H])C([H])([H])C([H])([H])C([H])(n5nc(-c6c([H])c([H])c(Oc7c([H])c([H])c(F)c([H])c7F)c([H])c6[H])c(C(=O)N([H])[H])c5N([H])[H])C4([H])[H])C([H])([H])C([H])(C([H])([H])[H])C3([H])[H])c([H])c([H])c2C1([H])[H]

>  <smiles>  (15) 
[H]c1c([H])c([H])c2c(c1[H])C([H])([H])C([H])([H])C([H])([H])C2([H])N([H])C(=O)C1([H])N(C(=O)C([H])(N([H])C(=O)C([H])(N([H])C([H])([H])[H])C([H])([H])[H])C(C([H])([H])[H])(C([H])([H])[H])C([H])([H])[H])C([H])([H])c2c([H])c(OC([H])([H])C([H])([H])C([H])([H])C([H])([H])C([H])([H])C([H])([H])C([H])([H])[N+]3([H])C([H])([H])C([H])([H])N(C(=O)N4C([H])([H])C([H])([H])C([H])([H])C([H])(n5nc(-c6c([H])c([H])c(Oc7c([H])c([H])c(F)c([H])c7F)c([H])c6[H])c(C(=O)N([H])[H])c5N([H])[H])C4([H])[H])C([H])([H])C([H])(C([H])([H])[H])C3([H])[H])c([H])c([H])c2C1([H])[H]

$$$$
15:0:0
     RDKit          3D

 94102  0  0  1  0  0  0  0  0999 V2000
  -31.1130  -21.8000   21.3910 N   0  0  0  0  0  4  0  0  0  0  0  0
  -30.3060  -21.9810   21.9730 H   0  0  0  0  0  0  0  0  0  0  0  0
  -31.8990  -21.6000   21.9860 H   0  0  0  0  0  0  0  0  0  0  0  0
  -31.3920  -23.0820   20.7020 C   0  0  0  0  0  2  0  0  0  0  0  0
  -30.0960  -23.8930   20.6260 C   0  0  0  0  0  0  0  0  0  0  0  0
  -29.1420  -23.6290   21.3680 O   0  0  0  0  0  0  0  0  0  0  0  0
  -30.0530  -25.0370   19.6020 C   0  0  0  0  0  2  0  0  0  0  0  0
  -28.6780  -25.7120   19.4290 C   0  0  0  0  0  2  0  0  0  0  0  0
  -28.6130  -26.9240   20.1790 O   0  0  0  0  0  0  0  0  0  0  0  0
  -24.9090  -32.0460   23.4120 C   0  0  0  0  0  0  0  0  0  0  0  0
  -27.4310  -27.6360   20.1840 C   0  0  0  0  0  0  0  0  0  0  0  0
  -23.6570  -30.7200   21.7410 C   0  0  0  0  0  3  0  0  0  0  0  0
  -25.0630  -29.1850   20.2680 C   0  0  0  0  0  0  0  0  0  0  0  0
  -26.1890  -31.0190   21.5390 C   0  0  0  0  0  2  0  0  0  0  0  0
  -26.2350  -29.6650   20.8640 C   0  0  0  0  0  0  0  0  0  0  0  0
  -27.4160  -28.8940   20.8270 C   0  0  0  0  0  3  0  0  0  0  0  0
  -26.2360  -27.1710   19.5810 C   0  0  0  0  0  3  0  0  0  0  0  0
  -25.0570  -27.9350   19.6260 C   0  0  0  0  0  3  0  0  0  0  0  0
  -23.8400  -30.0670   20.3430 C   0  0  0  0  0  2  0  0  0  0  0  0
  -24.9370  -31.2750   22.2880 N   0  0  0  0  0  0  0  0  0  0  0  0
  -23.8380  -32.3320   23.9650 O   0  0  0  0  0  0  0  0  0  0  0  0
  -22.9870  -29.6890   22.6780 C   0  0  0  0  0  0  0  0  0  0  0  0
  -21.6620  -29.5250   22.5350 N   0  0  0  0  0  0  0  0  0  0  0  0
  -23.6560  -29.0420   23.4870 O   0  0  0  0  0  0  0  0  0  0  0  0
  -21.1840  -30.1020   21.8570 H   0  0  0  0  0  0  0  0  0  0  0  0
  -18.2750  -28.3420   22.9590 C   0  0  0  0  0  0  0  0  0  0  0  0
  -20.8280  -28.5840   23.2810 C   0  0  0  0  0  3  0  0  0  0  0  0
  -20.9330  -27.1580   22.6940 C   0  0  0  0  0  2  0  0  0  0  0  0
  -19.8500  -26.8490   21.6560 C   0  0  0  0  0  2  0  0  0  0  0  0
  -18.4560  -26.9970   22.2740 C   0  0  0  0  0  2  0  0  0  0  0  0
  -19.3890  -29.0950   23.4160 C   0  0  0  0  0  0  0  0  0  0  0  0
  -19.1660  -30.3540   24.0130 C   0  0  0  0  0  3  0  0  0  0  0  0
  -17.8610  -30.8620   24.1550 C   0  0  0  0  0  3  0  0  0  0  0  0
  -16.7610  -30.1070   23.7160 C   0  0  0  0  0  3  0  0  0  0  0  0
  -16.9670  -28.8480   23.1250 C   0  0  0  0  0  3  0  0  0  0  0  0
  -26.2150  -32.6250   24.0400 C   0  0  0  0  0  3  0  0  0  0  0  0
  -26.7300  -31.7980   25.2820 C   0  0  1  0  0  0  0  0  0  0  0  0
  -25.6430  -31.5380   26.3500 C   0  0  0  0  0  1  0  0  0  0  0  0
  -27.2860  -30.4260   24.8340 C   0  0  0  0  0  1  0  0  0  0  0  0
  -27.9030  -32.5460   25.9620 C   0  0  0  0  0  1  0  0  0  0  0  0
  -25.9430  -34.0190   24.4200 N   0  0  0  0  0  0  0  0  0  0  0  0
  -26.3110  -35.0880   23.7000 C   0  0  0  0  0  0  0  0  0  0  0  0
  -26.9860  -35.0020   22.6710 O   0  0  0  0  0  0  0  0  0  0  0  0
  -25.3460  -34.1610   25.2210 H   0  0  0  0  0  0  0  0  0  0  0  0
  -24.6400  -36.9420   23.3830 C   0  0  0  0  0  1  0  0  0  0  0  0
  -25.8540  -36.4720   24.2010 C   0  0  0  0  0  3  0  0  0  0  0  0
  -28.0020  -37.2550   25.0980 C   0  0  0  0  0  1  0  0  0  0  0  0
  -26.9200  -37.4960   24.1470 N   0  0  0  0  0  0  0  0  0  0  0  0
  -26.5400  -38.4220   24.3260 H   0  0  0  0  0  0  0  0  0  0  0  0
  -30.8510  -20.6410   20.5000 C   0  0  0  0  0  2  0  0  0  0  0  0
  -31.1910  -19.2860   21.1760 C   0  0  0  0  0  2  0  0  0  0  0  0
  -31.1390  -14.6350   19.7030 C   0  0  0  0  0  0  0  0  0  0  0  0
  -30.6900  -12.5190   18.5440 C   0  0  0  0  0  2  0  0  0  0  0  0
  -29.6290  -12.7980   17.4580 C   0  0  0  0  0  2  0  0  0  0  0  0
  -28.2050  -12.6570   18.0350 C   0  0  0  0  0  2  0  0  0  0  0  0
  -28.0150  -13.4300   19.3670 C   0  0  0  0  0  3  0  0  0  0  0  0
  -29.1850  -13.1730   20.3420 C   0  0  0  0  0  2  0  0  0  0  0  0
  -30.4390  -13.4720   19.6340 N   0  0  0  0  0  0  0  0  0  0  0  0
  -32.2810  -14.7650   19.2540 O   0  0  0  0  0  0  0  0  0  0  0  0
  -30.2550  -17.9660   19.1770 C   0  0  0  0  0  3  0  0  0  0  0  0
  -30.7230  -18.0380   20.4220 C   0  0  0  0  0  0  0  0  0  0  0  0
  -29.9910  -16.5420   18.7730 C   0  0  0  0  0  2  0  0  0  0  0  0
  -30.7870  -16.6510   21.0470 C   0  0  0  0  0  3  0  0  0  0  0  0
  -30.3960  -15.7380   19.9500 N   0  0  0  0  0  0  0  0  0  0  0  0
  -25.7120  -14.0250   20.3490 C   0  0  0  0  0  0  0  0  0  0  0  0
  -24.6770  -13.2460   20.7880 C   0  0  0  0  0  0  0  0  0  0  0  0
  -25.1140  -11.8950   20.6480 C   0  0  0  0  0  0  0  0  0  0  0  0
  -26.7170  -13.1470   19.9740 N   0  0  0  0  0  0  0  0  0  0  0  0
  -26.3670  -11.8570   20.2100 N   0  0  0  0  0  0  0  0  0  0  0  0
  -24.3940  -10.6320   20.8530 C   0  0  0  0  0  0  0  0  0  0  0  0
  -24.8430   -9.6690   21.7830 C   0  0  0  0  0  3  0  0  0  0  0  0
  -24.1250   -8.4690   21.9730 C   0  0  0  0  0  3  0  0  0  0  0  0
  -22.9420   -8.2240   21.2350 C   0  0  0  0  0  0  0  0  0  0  0  0
  -22.5110   -9.1770   20.2950 C   0  0  0  0  0  3  0  0  0  0  0  0
  -23.2310  -10.3670   20.1020 C   0  0  0  0  0  3  0  0  0  0  0  0
  -22.1920   -7.0770   21.3390 O   0  0  0  0  0  0  0  0  0  0  0  0
  -22.0730   -6.4010   22.5270 C   0  0  0  0  0  0  0  0  0  0  0  0
  -21.5750   -7.0240   23.6920 C   0  0  0  0  0  3  0  0  0  0  0  0
  -21.4010   -6.2730   24.8720 C   0  0  0  0  0  3  0  0  0  0  0  0
  -21.7180   -4.9020   24.8870 C   0  0  0  0  0  0  0  0  0  0  0  0
  -22.2100   -4.2800   23.7280 C   0  0  0  0  0  3  0  0  0  0  0  0
  -22.3840   -5.0270   22.5500 C   0  0  0  0  0  0  0  0  0  0  0  0
  -22.8380   -4.4170   21.4280 F   0  0  0  0  0  0  0  0  0  0  0  0
  -21.5440   -4.1790   26.0190 F   0  0  0  0  0  0  0  0  0  0  0  0
  -23.3210  -13.7240   21.2210 C   0  0  0  0  0  0  0  0  0  0  0  0
  -22.6880  -13.0120   22.1460 N   0  0  0  0  0  0  0  0  0  0  0  0
  -22.8370  -14.7630   20.7750 O   0  0  0  0  0  0  0  0  0  0  0  0
  -23.0930  -12.1700   22.5280 H   0  0  0  0  0  0  0  0  0  0  0  0
  -21.7850  -13.3160   22.4800 H   0  0  0  0  0  0  0  0  0  0  0  0
  -25.8740  -15.4000   20.2190 N   0  0  0  0  0  0  0  0  0  0  0  0
  -25.1200  -16.0470   20.4230 H   0  0  0  0  0  0  0  0  0  0  0  0
  -26.6790  -15.8470   19.8010 H   0  0  0  0  0  0  0  0  0  0  0  0
  -29.7530  -16.5520   22.1720 C   0  0  0  0  0  3  0  0  0  0  0  0
  -30.0400  -16.4520   23.3660 O   0  0  0  0  0  0  0  0  0  0  0  0
  1  2  1  0
  1  3  1  0
  4  1  1  0
  5  4  1  0
  5  6  2  0
  7  5  1  0
  8  7  1  0
  8  9  1  0
  9 11  1  0
 10 21  2  0
 11 16  1  0
 12 20  1  0
 12 22  1  0
 13 19  1  0
 13 15  1  0
 14 20  1  0
 15 14  1  0
 16 15  2  0
 17 18  1  0
 17 11  2  0
 18 13  2  0
 19 12  1  0
 20 10  1  0
 22 24  2  0
 23 22  1  0
 25 23  1  0
 26 35  2  0
 26 31  1  0
 27 23  1  0
 27 31  1  0
 28 27  1  0
 29 30  1  0
 29 28  1  0
 30 26  1  0
 31 32  2  0
 32 33  1  0
 34 33  2  0
 35 34  1  0
 36 10  1  0
 36 41  1  0
 36 37  1  0
 37 40  1  1
 37 38  1  0
 39 37  1  0
 41 44  1  0
 42 46  1  0
 42 41  1  0
 43 42  2  0
 46 45  1  0
 48 46  1  0
 48 49  1  0
 48 47  1  0
 50 51  1  0
 50  1  1  0
 52 64  1  0
 53 58  1  0
 54 55  1  0
 54 53  1  0
 56 55  1  0
 56 68  1  0
 56 57  1  0
 58 52  1  0
 58 57  1  0
 59 52  2  0
 60 61  2  0
 61 63  1  0
 61 51  1  0
 62 60  1  0
 62 64  1  0
 63 93  1  0
 64 63  1  0
 65 66  2  0
 66 85  1  0
 67 66  1  0
 67 70  1  0
 68 69  1  0
 68 65  1  0
 69 67  2  0
 70 71  1  0
 71 72  2  0
 73 76  1  0
 73 72  1  0
 74 73  2  0
 75 74  1  0
 75 70  2  0
 76 77  1  0
 77 82  2  0
 77 78  1  0
 78 79  2  0
 79 80  1  0
 80 84  1  0
 81 80  2  0
 82 81  1  0
 83 82  1  0
 85 86  1  0
 86 89  1  0
 86 88  1  0
 87 85  2  0
 90 65  1  0
 90 91  1  0
 92 90  1  0
 93 94  2  0
M  ISO  4   8 101   9 101  52 100  64 100
M  END
>  <TORSDO>  (16) 
F 23

>  <SCORE>  (16) 
-10.035

>  <name>  (16) 
15

>  <ligand_id>  (16) 
15

>  <original_smiles>  (16) 
[H]C(=O)C1([H])C(C([H])([H])C([H])([H])[N+]([H])([H])C([H])([H])C(=O)C([H])([H])C([H])([H])Oc2c([H])c([H])c3c(c2[H])C([H])([H])N(C(=O)C([H])(N([H])C(=O)C([H])(N([H])C([H])([H])[H])C([H])([H])[H])C(C([H])([H])[H])(C([H])([H])[H])C([H])([H])[H])C([H])(C(=O)N([H])C2([H])c4c([H])c([H])c([H])c([H])c4C([H])([H])C([H])([H])C2([H])[H])C3([H])[H])=C([H])C([H])([H])N1C(=O)N1C([H])([H])C([H])([H])C([H])([H])C([H])(n2nc(-c3c([H])c([H])c(Oc4c([H])c([H])c(F)c([H])c4F)c([H])c3[H])c(C(=O)N([H])[H])c2N([H])[H])C1([H])[H]

>  <smiles>  (16) 
[H]C(=O)C1([H])C(C([H])([H])C([H])([H])[N+]([H])([H])C([H])([H])C(=O)C([H])([H])C([H])([H])Oc2c([H])c([H])c3c(c2[H])C([H])([H])N(C(=O)C([H])(N([H])C(=O)C([H])(N([H])C([H])([H])[H])C([H])([H])[H])C(C([H])([H])[H])(C([H])([H])[H])C([H])([H])[H])C([H])(C(=O)N([H])C2([H])c4c([H])c([H])c([H])c([H])c4C([H])([H])C([H])([H])C2([H])[H])C3([H])[H])=C([H])C([H])([H])N1C(=O)N1C([H])([H])C([H])([H])C([H])([H])C([H])(n2nc(-c3c([H])c([H])c(Oc4c([H])c([H])c(F)c([H])c4F)c([H])c3[H])c(C(=O)N([H])[H])c2N([H])[H])C1([H])[H]

$$$$
16:0:0
     RDKit          3D

 96104  0  0  1  0  0  0  0  0999 V2000
  -31.0750  -20.7430   20.3370 C   0  0  0  0  0  2  0  0  0  0  0  0
  -32.0020  -19.5380   20.5750 C   0  0  0  0  0  2  0  0  0  0  0  0
  -29.1440  -19.1310   20.1000 C   0  0  0  0  0  2  0  0  0  0  0  0
  -30.1130  -17.8790   20.0940 C   0  0  0  0  0  3  0  0  0  0  0  0
  -29.6270  -20.4560   20.7980 C   0  0  0  0  0  3  0  0  0  0  0  0
  -31.5810  -18.2870   19.7770 C   0  0  0  0  0  3  0  0  0  0  0  0
  -31.8320  -18.4290   18.3300 N   0  0  0  0  0  4  0  0  0  0  0  0
  -32.7980  -18.6580   18.1720 H   0  0  0  0  0  0  0  0  0  0  0  0
  -31.2610  -19.1270   17.8910 H   0  0  0  0  0  0  0  0  0  0  0  0
  -31.6630  -17.5510   17.8690 H   0  0  0  0  0  0  0  0  0  0  0  0
  -28.6810  -21.6180   20.5620 N   0  0  0  0  0  4  0  0  0  0  0  0
  -27.8790  -21.4810   21.1620 H   0  0  0  0  0  0  0  0  0  0  0  0
  -28.3470  -21.5580   19.6150 H   0  0  0  0  0  0  0  0  0  0  0  0
  -29.1770  -23.0270   20.7620 C   0  0  0  0  0  2  0  0  0  0  0  0
  -28.1130  -24.1650   20.5040 C   0  0  0  0  0  2  0  0  0  0  0  0
  -28.6040  -25.4050   19.6750 C   0  0  0  0  0  2  0  0  0  0  0  0
  -28.4330  -26.7150   20.2580 O   0  0  0  0  0  0  0  0  0  0  0  0
  -24.6010  -31.9030   23.2420 C   0  0  0  0  0  0  0  0  0  0  0  0
  -27.2420  -27.4210   20.1880 C   0  0  0  0  0  0  0  0  0  0  0  0
  -23.3900  -30.4910   21.6100 C   0  0  0  0  0  3  0  0  0  0  0  0
  -24.8460  -28.9470   20.1830 C   0  0  0  0  0  0  0  0  0  0  0  0
  -25.9160  -30.8440   21.4030 C   0  0  0  0  0  2  0  0  0  0  0  0
  -26.0010  -29.4680   20.7730 C   0  0  0  0  0  0  0  0  0  0  0  0
  -27.1950  -28.7110   20.7740 C   0  0  0  0  0  3  0  0  0  0  0  0
  -26.0690  -26.9170   19.5840 C   0  0  0  0  0  3  0  0  0  0  0  0
  -24.8790  -27.6770   19.5780 C   0  0  0  0  0  3  0  0  0  0  0  0
  -23.6020  -29.8040   20.2320 C   0  0  0  0  0  2  0  0  0  0  0  0
  -24.6530  -31.0950   22.1440 N   0  0  0  0  0  0  0  0  0  0  0  0
  -23.5200  -32.1840   23.7800 O   0  0  0  0  0  0  0  0  0  0  0  0
  -22.7440  -29.4750   22.5810 C   0  0  0  0  0  0  0  0  0  0  0  0
  -21.4180  -29.2970   22.4650 N   0  0  0  0  0  0  0  0  0  0  0  0
  -23.4340  -28.8490   23.3900 O   0  0  0  0  0  0  0  0  0  0  0  0
  -20.9210  -29.8630   21.7920 H   0  0  0  0  0  0  0  0  0  0  0  0
  -18.0480  -28.1070   22.9570 C   0  0  0  0  0  0  0  0  0  0  0  0
  -20.6060  -28.3560   23.2370 C   0  0  0  0  0  3  0  0  0  0  0  0
  -20.7120  -26.9260   22.6590 C   0  0  0  0  0  2  0  0  0  0  0  0
  -19.6100  -26.6050   21.6430 C   0  0  0  0  0  2  0  0  0  0  0  0
  -18.2270  -26.7550   22.2860 C   0  0  0  0  0  2  0  0  0  0  0  0
  -19.1670  -28.8650   23.3920 C   0  0  0  0  0  0  0  0  0  0  0  0
  -18.9510  -30.1310   23.9780 C   0  0  0  0  0  3  0  0  0  0  0  0
  -17.6490  -30.6360   24.1430 C   0  0  0  0  0  3  0  0  0  0  0  0
  -16.5450  -29.8710   23.7320 C   0  0  0  0  0  3  0  0  0  0  0  0
  -16.7430  -28.6100   23.1430 C   0  0  0  0  0  3  0  0  0  0  0  0
  -25.8910  -32.5320   23.8520 C   0  0  0  0  0  3  0  0  0  0  0  0
  -25.5850  -33.9270   24.1900 N   0  0  0  0  0  0  0  0  0  0  0  0
  -25.9120  -34.9810   23.4320 C   0  0  0  0  0  0  0  0  0  0  0  0
  -26.5730  -34.8810   22.3940 O   0  0  0  0  0  0  0  0  0  0  0  0
  -24.9920  -34.0790   24.9920 H   0  0  0  0  0  0  0  0  0  0  0  0
  -24.1770  -36.7670   23.0980 C   0  0  0  0  0  1  0  0  0  0  0  0
  -25.4270  -36.3660   23.8960 C   0  0  0  0  0  3  0  0  0  0  0  0
  -27.5660  -37.2550   24.7060 C   0  0  0  0  0  1  0  0  0  0  0  0
  -26.4550  -37.4190   23.7720 N   0  0  0  0  0  0  0  0  0  0  0  0
  -26.0480  -38.3410   23.9130 H   0  0  0  0  0  0  0  0  0  0  0  0
  -26.4240  -31.7560   25.1170 C   0  0  1  0  0  0  0  0  0  0  0  0
  -25.3420  -31.5120   26.1910 C   0  0  0  0  0  1  0  0  0  0  0  0
  -27.0030  -30.3830   24.7060 C   0  0  0  0  0  1  0  0  0  0  0  0
  -27.5770  -32.5490   25.7770 C   0  0  0  0  0  1  0  0  0  0  0  0
  -30.0490  -16.9380   21.3490 C   0  0  0  0  0  2  0  0  0  0  0  0
  -30.5950  -14.5340   20.5440 C   0  0  0  0  0  0  0  0  0  0  0  0
  -30.3850  -12.3720   19.3530 C   0  0  0  0  0  2  0  0  0  0  0  0
  -29.4310  -12.5360   18.1490 C   0  0  0  0  0  2  0  0  0  0  0  0
  -27.9530  -12.3980   18.5670 C   0  0  0  0  0  2  0  0  0  0  0  0
  -27.6100  -13.2320   19.8310 C   0  0  0  0  0  3  0  0  0  0  0  0
  -28.6550  -12.9870   20.9400 C   0  0  0  0  0  2  0  0  0  0  0  0
  -29.9760  -13.3340   20.3890 N   0  0  0  0  0  0  0  0  0  0  0  0
  -31.7280  -14.7720   20.1100 O   0  0  0  0  0  0  0  0  0  0  0  0
  -29.8070  -15.4980   21.0730 N   0  0  0  0  0  0  0  0  0  0  0  0
  -28.9030  -15.1500   21.3580 H   0  0  0  0  0  0  0  0  0  0  0  0
  -25.2110  -13.8630   20.5160 C   0  0  0  0  0  0  0  0  0  0  0  0
  -24.1360  -13.0970   20.8830 C   0  0  0  0  0  0  0  0  0  0  0  0
  -24.5940  -11.7440   20.8700 C   0  0  0  0  0  0  0  0  0  0  0  0
  -26.2530  -12.9710   20.3020 N   0  0  0  0  0  0  0  0  0  0  0  0
  -25.8850  -11.6950   20.5730 N   0  0  0  0  0  0  0  0  0  0  0  0
  -23.8640  -10.4850   21.0640 C   0  0  0  0  0  0  0  0  0  0  0  0
  -24.3020   -9.5120   21.9910 C   0  0  0  0  0  3  0  0  0  0  0  0
  -23.5720   -8.3180   22.1730 C   0  0  0  0  0  3  0  0  0  0  0  0
  -22.3910   -8.0890   21.4270 C   0  0  0  0  0  0  0  0  0  0  0  0
  -21.9730   -9.0500   20.4900 C   0  0  0  0  0  3  0  0  0  0  0  0
  -22.7020  -10.2350   20.3060 C   0  0  0  0  0  3  0  0  0  0  0  0
  -21.6280   -6.9510   21.5200 O   0  0  0  0  0  0  0  0  0  0  0  0
  -21.6030   -6.1930   22.6630 C   0  0  0  0  0  0  0  0  0  0  0  0
  -21.2290   -6.7370   23.9110 C   0  0  0  0  0  3  0  0  0  0  0  0
  -21.1480   -5.9050   25.0460 C   0  0  0  0  0  3  0  0  0  0  0  0
  -21.4330   -4.5300   24.9330 C   0  0  0  0  0  0  0  0  0  0  0  0
  -21.8000   -3.9860   23.6910 C   0  0  0  0  0  3  0  0  0  0  0  0
  -21.8830   -4.8150   22.5580 C   0  0  0  0  0  0  0  0  0  0  0  0
  -22.2160   -4.2820   21.3580 F   0  0  0  0  0  0  0  0  0  0  0  0
  -21.3500   -3.7290   26.0220 F   0  0  0  0  0  0  0  0  0  0  0  0
  -22.7380  -13.5810   21.1390 C   0  0  0  0  0  0  0  0  0  0  0  0
  -21.9990  -12.8940   22.0040 N   0  0  0  0  0  0  0  0  0  0  0  0
  -22.3060  -14.6010   20.6040 O   0  0  0  0  0  0  0  0  0  0  0  0
  -22.3600  -12.0660   22.4560 H   0  0  0  0  0  0  0  0  0  0  0  0
  -21.0610  -13.1990   22.2170 H   0  0  0  0  0  0  0  0  0  0  0  0
  -25.3790  -15.2310   20.3290 N   0  0  0  0  0  0  0  0  0  0  0  0
  -24.6070  -15.8840   20.4190 H   0  0  0  0  0  0  0  0  0  0  0  0
  -26.2290  -15.6680   19.9950 H   0  0  0  0  0  0  0  0  0  0  0  0
  1  2  1  0
  1  5  1  0
  3  5  1  0
  4  3  1  0
  4 58  1  0
  5 11  1  0
  6  7  1  0
  6  4  1  0
  6  2  1  0
  8  7  1  0
  9  7  1  0
 10  7  1  0
 11 14  1  0
 11 12  1  0
 13 11  1  0
 15 14  1  0
 16 17  1  0
 16 15  1  0
 18 29  2  0
 19 17  1  0
 19 24  1  0
 20 28  1  0
 20 30  1  0
 21 27  1  0
 21 23  1  0
 22 28  1  0
 23 24  2  0
 23 22  1  0
 25 19  2  0
 26 25  1  0
 26 21  2  0
 27 20  1  0
 28 18  1  0
 30 32  2  0
 31 30  1  0
 33 31  1  0
 34 43  2  0
 34 39  1  0
 35 31  1  0
 35 39  1  0
 36 35  1  0
 37 38  1  0
 37 36  1  0
 38 34  1  0
 39 40  2  0
 40 41  1  0
 42 41  2  0
 43 42  1  0
 44 18  1  0
 44 45  1  0
 44 54  1  0
 45 48  1  0
 46 50  1  0
 46 45  1  0
 47 46  2  0
 50 49  1  0
 52 50  1  0
 52 53  1  0
 52 51  1  0
 54 57  1  1
 54 55  1  0
 56 54  1  0
 59 67  1  0
 60 65  1  0
 61 62  1  0
 61 60  1  0
 63 62  1  0
 63 72  1  0
 63 64  1  0
 65 59  1  0
 65 64  1  0
 66 59  2  0
 67 58  1  0
 67 68  1  0
 69 70  2  0
 70 89  1  0
 71 70  1  0
 71 74  1  0
 72 69  1  0
 72 73  1  0
 73 71  2  0
 74 75  1  0
 75 76  2  0
 77 80  1  0
 77 76  1  0
 78 77  2  0
 79 78  1  0
 79 74  2  0
 80 81  1  0
 81 82  1  0
 82 83  2  0
 84 83  1  0
 84 88  1  0
 85 84  2  0
 86 81  2  0
 86 85  1  0
 87 86  1  0
 89 90  1  0
 90 93  1  0
 90 92  1  0
 91 89  2  0
 94 95  1  0
 94 69  1  0
 96 94  1  0
M  ISO  4  16 101  17 101  59 100  67 100
M  END
>  <TORSDO>  (17) 
F 22

>  <SCORE>  (17) 
-13.505

>  <name>  (17) 
16

>  <ligand_id>  (17) 
16

>  <original_smiles>  (17) 
[H]c1c([H])c([H])c2c(c1[H])C([H])([H])C([H])([H])C([H])([H])C2([H])N([H])C(=O)C1([H])N(C(=O)C([H])(N([H])C(=O)C([H])(N([H])C([H])([H])[H])C([H])([H])[H])C(C([H])([H])[H])(C([H])([H])[H])C([H])([H])[H])C([H])([H])c2c([H])c(OC([H])([H])C([H])([H])C([H])([H])[N+]([H])([H])C3([H])C([H])([H])C([H])([H])C([H])([N+]([H])([H])[H])C([H])(C([H])([H])N([H])C(=O)N4C([H])([H])C([H])([H])C([H])([H])C([H])(n5nc(-c6c([H])c([H])c(Oc7c([H])c([H])c(F)c([H])c7F)c([H])c6[H])c(C(=O)N([H])[H])c5N([H])[H])C4([H])[H])C3([H])[H])c([H])c([H])c2C1([H])[H]

>  <smiles>  (17) 
[H]c1c([H])c([H])c2c(c1[H])C([H])([H])C([H])([H])C([H])([H])C2([H])N([H])C(=O)C1([H])N(C(=O)C([H])(N([H])C(=O)C([H])(N([H])C([H])([H])[H])C([H])([H])[H])C(C([H])([H])[H])(C([H])([H])[H])C([H])([H])[H])C([H])([H])c2c([H])c(OC([H])([H])C([H])([H])C([H])([H])[N+]([H])([H])C3([H])C([H])([H])C([H])([H])C([H])([N+]([H])([H])[H])C([H])(C([H])([H])N([H])C(=O)N4C([H])([H])C([H])([H])C([H])([H])C([H])(n5nc(-c6c([H])c([H])c(Oc7c([H])c([H])c(F)c([H])c7F)c([H])c6[H])c(C(=O)N([H])[H])c5N([H])[H])C4([H])[H])C3([H])[H])c([H])c([H])c2C1([H])[H]

$$$$
17:0:0
     RDKit          3D

 97105  0  0  1  0  0  0  0  0999 V2000
  -28.8820  -18.3160   19.4360 C   0  0  0  0  0  2  0  0  0  0  0  0
  -30.8190  -18.5830   17.3280 C   0  0  0  0  0  2  0  0  0  0  0  0
  -29.4300  -19.6980   19.8200 C   0  0  0  0  0  2  0  0  0  0  0  0
  -30.8990  -20.0500   17.8010 C   0  0  0  0  0  2  0  0  0  0  0  0
  -29.9470  -17.2080   19.3560 C   0  0  0  0  0  3  0  0  0  0  0  0
  -31.1610  -17.5640   18.4420 C   0  0  0  0  0  3  0  0  0  0  0  0
  -29.7740  -20.5520   18.6470 N   0  0  2  0  0  4  0  0  0  0  0  0
  -28.9500  -20.5750   18.0620 H   0  0  0  0  0  0  0  0  0  0  0  0
  -31.7710  -16.3460   17.8670 N   0  0  0  0  0  4  0  0  0  0  0  0
  -31.1900  -15.9250   17.1640 H   0  0  0  0  0  0  0  0  0  0  0  0
  -31.9340  -15.6610   18.6050 H   0  0  0  0  0  0  0  0  0  0  0  0
  -32.6630  -16.5560   17.4530 H   0  0  0  0  0  0  0  0  0  0  0  0
  -30.3700  -16.7710   20.7950 C   0  0  0  0  0  2  0  0  0  0  0  0
  -30.7380  -14.3540   20.5370 C   0  0  0  0  0  0  0  0  0  0  0  0
  -30.3930  -12.2390   19.3550 C   0  0  0  0  0  2  0  0  0  0  0  0
  -29.4750  -12.4990   18.1430 C   0  0  0  0  0  2  0  0  0  0  0  0
  -27.9920  -12.4040   18.5490 C   0  0  0  0  0  2  0  0  0  0  0  0
  -27.6600  -13.2330   19.8180 C   0  0  0  0  0  3  0  0  0  0  0  0
  -28.6900  -12.9530   20.9390 C   0  0  0  0  0  2  0  0  0  0  0  0
  -30.0380  -13.2060   20.4010 N   0  0  0  0  0  0  0  0  0  0  0  0
  -31.8390  -14.5580   20.0150 O   0  0  0  0  0  0  0  0  0  0  0  0
  -30.0420  -15.3720   21.0450 N   0  0  0  0  0  0  0  0  0  0  0  0
  -29.1370  -15.1620   21.4430 H   0  0  0  0  0  0  0  0  0  0  0  0
  -25.2520  -13.8880   20.4610 C   0  0  0  0  0  0  0  0  0  0  0  0
  -24.1680  -13.1350   20.8230 C   0  0  0  0  0  0  0  0  0  0  0  0
  -24.6140  -11.7780   20.8240 C   0  0  0  0  0  0  0  0  0  0  0  0
  -26.2920  -12.9910   20.2700 N   0  0  0  0  0  0  0  0  0  0  0  0
  -25.9070  -11.7180   20.5420 N   0  0  0  0  0  0  0  0  0  0  0  0
  -23.8690  -10.5280   21.0230 C   0  0  0  0  0  0  0  0  0  0  0  0
  -24.2870   -9.5630   21.9660 C   0  0  0  0  0  3  0  0  0  0  0  0
  -23.5470   -8.3760   22.1500 C   0  0  0  0  0  3  0  0  0  0  0  0
  -22.3740   -8.1460   21.3920 C   0  0  0  0  0  0  0  0  0  0  0  0
  -21.9760   -9.0990   20.4380 C   0  0  0  0  0  3  0  0  0  0  0  0
  -22.7170  -10.2770   20.2510 C   0  0  0  0  0  3  0  0  0  0  0  0
  -21.6040   -7.0110   21.4860 O   0  0  0  0  0  0  0  0  0  0  0  0
  -21.5570   -6.2680   22.6380 C   0  0  0  0  0  0  0  0  0  0  0  0
  -21.1640   -6.8310   23.8730 C   0  0  0  0  0  3  0  0  0  0  0  0
  -21.0620   -6.0150   25.0170 C   0  0  0  0  0  3  0  0  0  0  0  0
  -21.3400   -4.6380   24.9280 C   0  0  0  0  0  0  0  0  0  0  0  0
  -21.7260   -4.0750   23.6990 C   0  0  0  0  0  3  0  0  0  0  0  0
  -21.8310   -4.8880   22.5570 C   0  0  0  0  0  0  0  0  0  0  0  0
  -22.1820   -4.3370   21.3700 F   0  0  0  0  0  0  0  0  0  0  0  0
  -21.2350   -3.8530   26.0250 F   0  0  0  0  0  0  0  0  0  0  0  0
  -22.7720  -13.6340   21.0620 C   0  0  0  0  0  0  0  0  0  0  0  0
  -22.0200  -12.9600   21.9280 N   0  0  0  0  0  0  0  0  0  0  0  0
  -22.3540  -14.6530   20.5160 O   0  0  0  0  0  0  0  0  0  0  0  0
  -22.3710  -12.1340   22.3910 H   0  0  0  0  0  0  0  0  0  0  0  0
  -21.0830  -13.2750   22.1300 H   0  0  0  0  0  0  0  0  0  0  0  0
  -25.4380  -15.2540   20.2630 N   0  0  0  0  0  0  0  0  0  0  0  0
  -24.6750  -15.9180   20.3430 H   0  0  0  0  0  0  0  0  0  0  0  0
  -26.2970  -15.6760   19.9370 H   0  0  0  0  0  0  0  0  0  0  0  0
  -30.0490  -21.9730   19.0070 C   0  0  0  0  0  2  0  0  0  0  0  0
  -29.0760  -22.6120   20.0170 C   0  0  0  0  0  2  0  0  0  0  0  0
  -29.3490  -24.1050   20.1820 C   0  0  0  0  0  2  0  0  0  0  0  0
  -28.5390  -24.7300   21.3260 C   0  0  0  0  0  2  0  0  0  0  0  0
  -28.7850  -26.2360   21.4140 C   0  0  0  0  0  2  0  0  0  0  0  0
  -28.4150  -26.7900   20.1580 O   0  0  0  0  0  0  0  0  0  0  0  0
  -24.5780  -31.8840   23.2450 C   0  0  0  0  0  0  0  0  0  0  0  0
  -27.2420  -27.4880   20.1850 C   0  0  0  0  0  0  0  0  0  0  0  0
  -23.3770  -30.4790   21.5970 C   0  0  0  0  0  3  0  0  0  0  0  0
  -24.8380  -28.9390   20.1860 C   0  0  0  0  0  0  0  0  0  0  0  0
  -25.8940  -30.8550   21.4020 C   0  0  0  0  0  2  0  0  0  0  0  0
  -25.9840  -29.4830   20.7780 C   0  0  0  0  0  0  0  0  0  0  0  0
  -27.1910  -28.7610   20.7810 C   0  0  0  0  0  3  0  0  0  0  0  0
  -26.0900  -26.9390   19.5940 C   0  0  0  0  0  3  0  0  0  0  0  0
  -24.8800  -27.6620   19.5960 C   0  0  0  0  0  3  0  0  0  0  0  0
  -23.5880  -29.7880   20.2210 C   0  0  0  0  0  2  0  0  0  0  0  0
  -24.6350  -31.0870   22.1410 N   0  0  0  0  0  0  0  0  0  0  0  0
  -23.4980  -32.1560   23.7850 O   0  0  0  0  0  0  0  0  0  0  0  0
  -22.7250  -29.4610   22.5590 C   0  0  0  0  0  0  0  0  0  0  0  0
  -21.4000  -29.2870   22.4330 N   0  0  0  0  0  0  0  0  0  0  0  0
  -23.4080  -28.8300   23.3720 O   0  0  0  0  0  0  0  0  0  0  0  0
  -20.9150  -29.8450   21.7440 H   0  0  0  0  0  0  0  0  0  0  0  0
  -18.0170  -28.1290   22.9380 C   0  0  0  0  0  0  0  0  0  0  0  0
  -20.5780  -28.3550   23.2030 C   0  0  0  0  0  3  0  0  0  0  0  0
  -20.6640  -26.9260   22.6210 C   0  0  0  0  0  2  0  0  0  0  0  0
  -19.5530  -26.6200   21.6100 C   0  0  0  0  0  2  0  0  0  0  0  0
  -18.1760  -26.7800   22.2580 C   0  0  0  0  0  2  0  0  0  0  0  0
  -19.1460  -28.8760   23.3690 C   0  0  0  0  0  0  0  0  0  0  0  0
  -18.9440  -30.1410   23.9640 C   0  0  0  0  0  3  0  0  0  0  0  0
  -17.6460  -30.6560   24.1370 C   0  0  0  0  0  3  0  0  0  0  0  0
  -16.5310  -29.9060   23.7230 C   0  0  0  0  0  3  0  0  0  0  0  0
  -16.7190  -28.6450   23.1280 C   0  0  0  0  0  3  0  0  0  0  0  0
  -25.8650  -32.5140   23.8670 C   0  0  0  0  0  3  0  0  0  0  0  0
  -26.3830  -31.7420   25.1430 C   0  0  1  0  0  0  0  0  0  0  0  0
  -25.2930  -31.5000   26.2110 C   0  0  0  0  0  1  0  0  0  0  0  0
  -26.9660  -30.3660   24.7480 C   0  0  0  0  0  1  0  0  0  0  0  0
  -27.5340  -32.5370   25.8030 C   0  0  0  0  0  1  0  0  0  0  0  0
  -25.5580  -33.9140   24.1930 N   0  0  0  0  0  0  0  0  0  0  0  0
  -25.8980  -34.9620   23.4310 C   0  0  0  0  0  0  0  0  0  0  0  0
  -26.5740  -34.8530   22.4040 O   0  0  0  0  0  0  0  0  0  0  0  0
  -24.9580  -34.0710   24.9890 H   0  0  0  0  0  0  0  0  0  0  0  0
  -24.1750  -36.7580   23.0580 C   0  0  0  0  0  1  0  0  0  0  0  0
  -25.4090  -36.3520   23.8800 C   0  0  0  0  0  3  0  0  0  0  0  0
  -27.5400  -37.2330   24.7220 C   0  0  0  0  0  1  0  0  0  0  0  0
  -26.4440  -37.4030   23.7720 N   0  0  0  0  0  0  0  0  0  0  0  0
  -26.0400  -38.3240   23.9170 H   0  0  0  0  0  0  0  0  0  0  0  0
  1  3  1  0
  2  4  1  0
  2  6  1  0
  4  7  1  0
  5  1  1  0
  5 13  1  0
  6  9  1  0
  6  5  1  0
  7 52  1  0
  7  3  1  0
  7  8  1  6
  9 11  1  0
 10  9  1  0
 12  9  1  0
 13 22  1  0
 14 22  1  0
 15 20  1  0
 16 17  1  0
 16 15  1  0
 18 17  1  0
 18 27  1  0
 18 19  1  0
 20 14  1  0
 20 19  1  0
 21 14  2  0
 22 23  1  0
 24 25  2  0
 25 26  1  0
 25 44  1  0
 26 29  1  0
 27 24  1  0
 27 28  1  0
 28 26  2  0
 29 30  1  0
 30 31  2  0
 32 35  1  0
 32 31  1  0
 33 32  2  0
 34 33  1  0
 34 29  2  0
 35 36  1  0
 36 37  1  0
 37 38  2  0
 39 38  1  0
 39 43  1  0
 40 39  2  0
 41 36  2  0
 41 40  1  0
 42 41  1  0
 44 45  1  0
 45 48  1  0
 45 47  1  0
 46 44  2  0
 49 50  1  0
 49 24  1  0
 51 49  1  0
 52 53  1  0
 53 54  1  0
 54 55  1  0
 55 56  1  0
 57 59  1  0
 57 56  1  0
 58 69  2  0
 59 64  1  0
 60 68  1  0
 60 70  1  0
 61 67  1  0
 61 63  1  0
 62 68  1  0
 63 64  2  0
 63 62  1  0
 65 66  1  0
 65 59  2  0
 66 61  2  0
 67 60  1  0
 68 58  1  0
 70 72  2  0
 71 70  1  0
 73 71  1  0
 74 83  2  0
 74 79  1  0
 75 71  1  0
 75 79  1  0
 76 75  1  0
 77 78  1  0
 77 76  1  0
 78 74  1  0
 79 80  2  0
 80 81  1  0
 82 81  2  0
 83 82  1  0
 84 58  1  0
 84 89  1  0
 84 85  1  0
 85 88  1  1
 85 86  1  0
 87 85  1  0
 89 92  1  0
 90 94  1  0
 90 89  1  0
 91 90  2  0
 94 93  1  0
 96 94  1  0
 96 97  1  0
 96 95  1  0
M  ISO  4  14 100  22 100  56 101  57 101
M  END
>  <TORSDO>  (18) 
F 23

>  <SCORE>  (18) 
-13.144

>  <name>  (18) 
17

>  <ligand_id>  (18) 
17

>  <original_smiles>  (18) 
[H]c1c([H])c([H])c2c(c1[H])C([H])([H])C([H])([H])C([H])([H])C2([H])N([H])C(=O)C1([H])N(C(=O)C([H])(N([H])C(=O)C([H])(N([H])C([H])([H])[H])C([H])([H])[H])C(C([H])([H])[H])(C([H])([H])[H])C([H])([H])[H])C([H])([H])c2c([H])c(OC([H])([H])C([H])([H])C([H])([H])C([H])([H])C([H])([H])[N+]3([H])C([H])([H])C([H])([H])C([H])(C([H])([H])N([H])C(=O)N4C([H])([H])C([H])([H])C([H])([H])C([H])(n5nc(-c6c([H])c([H])c(Oc7c([H])c([H])c(F)c([H])c7F)c([H])c6[H])c(C(=O)N([H])[H])c5N([H])[H])C4([H])[H])C([H])([N+]([H])([H])[H])C([H])([H])C3([H])[H])c([H])c([H])c2C1([H])[H]

>  <smiles>  (18) 
[H]c1c([H])c([H])c2c(c1[H])C([H])([H])C([H])([H])C([H])([H])C2([H])N([H])C(=O)C1([H])N(C(=O)C([H])(N([H])C(=O)C([H])(N([H])C([H])([H])[H])C([H])([H])[H])C(C([H])([H])[H])(C([H])([H])[H])C([H])([H])[H])C([H])([H])c2c([H])c(OC([H])([H])C([H])([H])C([H])([H])C([H])([H])C([H])([H])[N+]3([H])C([H])([H])C([H])([H])C([H])(C([H])([H])N([H])C(=O)N4C([H])([H])C([H])([H])C([H])([H])C([H])(n5nc(-c6c([H])c([H])c(Oc7c([H])c([H])c(F)c([H])c7F)c([H])c6[H])c(C(=O)N([H])[H])c5N([H])[H])C4([H])[H])C([H])([N+]([H])([H])[H])C([H])([H])C3([H])[H])c([H])c([H])c2C1([H])[H]

$$$$
18:0:0
     RDKit          3D

 92100  0  0  1  0  0  0  0  0999 V2000
  -31.2610  -19.1350   19.3850 C   0  0  0  0  0  0  0  0  0  0  0  0
  -29.8630  -18.7670   19.8870 C   0  0  0  0  0  3  0  0  0  0  0  0
  -32.1440  -17.9770   18.9160 C   0  0  0  0  0  2  0  0  0  0  0  0
  -31.4610  -16.9950   17.9400 C   0  0  0  0  0  2  0  0  0  0  0  0
  -29.9580  -16.8110   18.1990 C   0  0  0  0  0  2  0  0  0  0  0  0
  -29.5480  -17.1830   19.6460 C   0  0  0  0  0  3  0  0  0  0  0  0
  -31.7100  -20.3180   19.3720 N   0  0  0  0  0  0  0  0  0  0  0  0
  -28.9700  -19.6730   20.2730 N   0  0  0  0  0  2  0  0  0  0  0  0
  -31.0060  -20.9550   19.7300 H   0  0  0  0  0  0  0  0  0  0  0  0
  -30.5740  -14.8900   20.5580 C   0  0  0  0  0  0  0  0  0  0  0  0
  -30.4650  -12.5860   19.6090 C   0  0  0  0  0  2  0  0  0  0  0  0
  -29.5800  -12.6160   18.3420 C   0  0  0  0  0  2  0  0  0  0  0  0
  -28.0910  -12.4580   18.7090 C   0  0  0  0  0  2  0  0  0  0  0  0
  -27.6660  -13.3480   19.9110 C   0  0  0  0  0  3  0  0  0  0  0  0
  -28.6760  -13.2790   21.0740 C   0  0  0  0  0  2  0  0  0  0  0  0
  -29.9870  -13.6430   20.5280 N   0  0  0  0  0  0  0  0  0  0  0  0
  -31.7750  -14.9950   20.3010 O   0  0  0  0  0  0  0  0  0  0  0  0
  -29.7380  -16.0010   20.6220 N   0  0  0  0  0  0  0  0  0  0  0  0
  -28.8580  -15.7730   21.0590 H   0  0  0  0  0  0  0  0  0  0  0  0
  -25.2490  -13.9150   20.5490 C   0  0  0  0  0  0  0  0  0  0  0  0
  -24.1820  -13.1320   20.8910 C   0  0  0  0  0  0  0  0  0  0  0  0
  -24.6630  -11.7860   20.8890 C   0  0  0  0  0  0  0  0  0  0  0  0
  -26.3110  -13.0490   20.3570 N   0  0  0  0  0  0  0  0  0  0  0  0
  -25.9630  -11.7630   20.6210 N   0  0  0  0  0  0  0  0  0  0  0  0
  -23.9480  -10.5160   21.0650 C   0  0  0  0  0  0  0  0  0  0  0  0
  -24.3540   -9.5660   22.0280 C   0  0  0  0  0  3  0  0  0  0  0  0
  -23.6410   -8.3580   22.1860 C   0  0  0  0  0  3  0  0  0  0  0  0
  -22.5080   -8.0940   21.3810 C   0  0  0  0  0  0  0  0  0  0  0  0
  -22.1230   -9.0330   20.4070 C   0  0  0  0  0  3  0  0  0  0  0  0
  -22.8350  -10.2330   20.2500 C   0  0  0  0  0  3  0  0  0  0  0  0
  -21.7630   -6.9430   21.4550 O   0  0  0  0  0  0  0  0  0  0  0  0
  -21.6580   -6.2220   22.6170 C   0  0  0  0  0  0  0  0  0  0  0  0
  -21.1200   -6.7800   23.7950 C   0  0  0  0  0  3  0  0  0  0  0  0
  -20.9730   -5.9860   24.9490 C   0  0  0  0  0  3  0  0  0  0  0  0
  -21.3490   -4.6280   24.9210 C   0  0  0  0  0  0  0  0  0  0  0  0
  -21.8730   -4.0670   23.7430 C   0  0  0  0  0  3  0  0  0  0  0  0
  -22.0250   -4.8610   22.5940 C   0  0  0  0  0  0  0  0  0  0  0  0
  -22.5190   -4.3120   21.4570 F   0  0  0  0  0  0  0  0  0  0  0  0
  -21.1940   -3.8580   26.0230 F   0  0  0  0  0  0  0  0  0  0  0  0
  -22.7700  -13.5940   21.1070 C   0  0  0  0  0  0  0  0  0  0  0  0
  -22.0180  -12.8910   21.9460 N   0  0  0  0  0  0  0  0  0  0  0  0
  -22.3420  -14.6140   20.5700 O   0  0  0  0  0  0  0  0  0  0  0  0
  -22.3680  -12.0640   22.4050 H   0  0  0  0  0  0  0  0  0  0  0  0
  -21.0660  -13.1790   22.1240 H   0  0  0  0  0  0  0  0  0  0  0  0
  -25.4060  -15.2860   20.3540 N   0  0  0  0  0  0  0  0  0  0  0  0
  -24.6190  -15.9200   20.3810 H   0  0  0  0  0  0  0  0  0  0  0  0
  -26.2450  -15.7190   19.9930 H   0  0  0  0  0  0  0  0  0  0  0  0
  -28.7730  -21.1060   19.7280 C   0  0  0  0  0  2  0  0  0  0  0  0
  -29.3330  -22.4190   20.4990 C   0  0  0  0  0  2  0  0  0  0  0  0
  -28.5250  -23.8370   20.7250 C   0  0  0  0  0  2  0  0  0  0  0  0
  -28.6260  -25.1660   19.7930 C   0  0  0  0  0  2  0  0  0  0  0  0
  -28.4850  -26.5700   20.3400 O   0  0  0  0  0  0  0  0  0  0  0  0
  -24.6060  -31.9680   23.2650 C   0  0  0  0  0  0  0  0  0  0  0  0
  -27.3350  -27.3960   20.2530 C   0  0  0  0  0  0  0  0  0  0  0  0
  -23.4500  -30.5550   21.6030 C   0  0  0  0  0  3  0  0  0  0  0  0
  -24.9480  -29.0070   20.2100 C   0  0  0  0  0  0  0  0  0  0  0  0
  -25.9930  -30.8890   21.4740 C   0  0  0  0  0  2  0  0  0  0  0  0
  -26.1000  -29.5060   20.8250 C   0  0  0  0  0  0  0  0  0  0  0  0
  -27.2910  -28.7120   20.8310 C   0  0  0  0  0  3  0  0  0  0  0  0
  -26.1520  -26.9570   19.6230 C   0  0  0  0  0  3  0  0  0  0  0  0
  -24.9760  -27.7380   19.6030 C   0  0  0  0  0  3  0  0  0  0  0  0
  -23.7030  -29.8720   20.2320 C   0  0  0  0  0  2  0  0  0  0  0  0
  -24.7010  -31.1570   22.1690 N   0  0  0  0  0  0  0  0  0  0  0  0
  -23.5110  -32.2340   23.7760 O   0  0  0  0  0  0  0  0  0  0  0  0
  -22.7730  -29.5390   22.5530 C   0  0  0  0  0  0  0  0  0  0  0  0
  -21.4500  -29.3520   22.4000 N   0  0  0  0  0  0  0  0  0  0  0  0
  -23.4410  -28.9210   23.3880 O   0  0  0  0  0  0  0  0  0  0  0  0
  -20.9680  -29.9050   21.7040 H   0  0  0  0  0  0  0  0  0  0  0  0
  -18.0720  -28.1400   22.8610 C   0  0  0  0  0  0  0  0  0  0  0  0
  -20.6270  -28.4070   23.1580 C   0  0  0  0  0  3  0  0  0  0  0  0
  -20.7390  -26.9790   22.5750 C   0  0  0  0  0  2  0  0  0  0  0  0
  -19.6490  -26.6600   21.5460 C   0  0  0  0  0  2  0  0  0  0  0  0
  -18.2600  -26.7960   22.1770 C   0  0  0  0  0  2  0  0  0  0  0  0
  -19.1830  -28.9020   23.3080 C   0  0  0  0  0  0  0  0  0  0  0  0
  -18.9540  -30.1610   23.9060 C   0  0  0  0  0  3  0  0  0  0  0  0
  -17.6450  -30.6550   24.0620 C   0  0  0  0  0  3  0  0  0  0  0  0
  -16.5480  -29.8890   23.6310 C   0  0  0  0  0  3  0  0  0  0  0  0
  -16.7610  -28.6330   23.0360 C   0  0  0  0  0  3  0  0  0  0  0  0
  -25.8680  -32.6160   23.9140 C   0  0  0  0  0  3  0  0  0  0  0  0
  -26.3560  -31.8600   25.2130 C   0  0  1  0  0  0  0  0  0  0  0  0
  -25.2350  -31.6130   26.2480 C   0  0  0  0  0  1  0  0  0  0  0  0
  -26.9710  -30.4880   24.8510 C   0  0  0  0  0  1  0  0  0  0  0  0
  -27.4760  -32.6750   25.9020 C   0  0  0  0  0  1  0  0  0  0  0  0
  -25.5410  -34.0160   24.2300 N   0  0  0  0  0  0  0  0  0  0  0  0
  -25.8880  -35.0680   23.4760 C   0  0  0  0  0  0  0  0  0  0  0  0
  -26.5830  -34.9620   22.4630 O   0  0  0  0  0  0  0  0  0  0  0  0
  -24.9270  -34.1690   25.0150 H   0  0  0  0  0  0  0  0  0  0  0  0
  -24.1720  -36.8600   23.0600 C   0  0  0  0  0  1  0  0  0  0  0  0
  -25.3830  -36.4560   23.9150 C   0  0  0  0  0  3  0  0  0  0  0  0
  -27.4810  -37.3470   24.8280 C   0  0  0  0  0  1  0  0  0  0  0  0
  -26.4180  -37.5100   23.8400 N   0  0  0  0  0  0  0  0  0  0  0  0
  -26.0050  -38.4300   23.9680 H   0  0  0  0  0  0  0  0  0  0  0  0
  1  2  1  0
  2  8  1  0
  3  1  1  0
  4  5  1  0
  4  3  1  0
  5  6  1  0
  6  2  1  0
  6 18  1  0
  7  1  2  0
  7  9  1  0
 10 18  1  0
 11 16  1  0
 12 13  1  0
 12 11  1  0
 14 13  1  0
 14 23  1  0
 14 15  1  0
 16 10  1  0
 16 15  1  0
 17 10  2  0
 18 19  1  0
 20 21  2  0
 21 40  1  0
 22 21  1  0
 22 25  1  0
 23 20  1  0
 23 24  1  0
 24 22  2  0
 25 26  1  0
 26 27  2  0
 28 31  1  0
 28 27  1  0
 29 28  2  0
 30 29  1  0
 30 25  2  0
 31 32  1  0
 32 33  1  0
 33 34  2  0
 35 34  1  0
 35 39  1  0
 36 35  2  0
 37 32  2  0
 37 36  1  0
 38 37  1  0
 40 41  1  0
 41 44  1  0
 41 43  1  0
 42 40  2  0
 45 46  1  0
 45 20  1  0
 47 45  1  0
 48  8  1  0
 48 49  1  0
 49 50  1  0
 51 52  1  0
 51 50  1  0
 53 64  2  0
 54 52  1  0
 54 59  1  0
 55 63  1  0
 55 65  1  0
 56 62  1  0
 56 58  1  0
 57 63  1  0
 58 59  2  0
 58 57  1  0
 60 54  2  0
 61 60  1  0
 61 56  2  0
 62 55  1  0
 63 53  1  0
 65 67  2  0
 66 65  1  0
 68 66  1  0
 69 78  2  0
 69 74  1  0
 70 66  1  0
 70 74  1  0
 71 70  1  0
 72 73  1  0
 72 71  1  0
 73 69  1  0
 74 75  2  0
 75 76  1  0
 77 76  2  0
 78 77  1  0
 79 53  1  0
 79 84  1  0
 79 80  1  0
 80 83  1  1
 80 81  1  0
 82 80  1  0
 84 87  1  0
 85 89  1  0
 85 84  1  0
 86 85  2  0
 89 88  1  0
 91 89  1  0
 91 92  1  0
 91 90  1  0
M  ISO  4  10 100  18 100  51 101  52 101
M  END
>  <TORSDO>  (19) 
F 20

>  <SCORE>  (19) 
-13.522

>  <name>  (19) 
18

>  <ligand_id>  (19) 
18

>  <original_smiles>  (19) 
[H]N=C1C(=NC([H])([H])C([H])([H])C([H])([H])C([H])([H])Oc2c([H])c([H])c3c(c2[H])C([H])([H])N(C(=O)C([H])(N([H])C(=O)C([H])(N([H])C([H])([H])[H])C([H])([H])[H])C(C([H])([H])[H])(C([H])([H])[H])C([H])([H])[H])C([H])(C(=O)N([H])C2([H])c4c([H])c([H])c([H])c([H])c4C([H])([H])C([H])([H])C2([H])[H])C3([H])[H])C([H])(N([H])C(=O)N2C([H])([H])C([H])([H])C([H])([H])C([H])(n3nc(-c4c([H])c([H])c(Oc5c([H])c([H])c(F)c([H])c5F)c([H])c4[H])c(C(=O)N([H])[H])c3N([H])[H])C2([H])[H])C([H])([H])C([H])([H])C1([H])[H]

>  <smiles>  (19) 
[H]N=C1C(=NC([H])([H])C([H])([H])C([H])([H])C([H])([H])Oc2c([H])c([H])c3c(c2[H])C([H])([H])N(C(=O)C([H])(N([H])C(=O)C([H])(N([H])C([H])([H])[H])C([H])([H])[H])C(C([H])([H])[H])(C([H])([H])[H])C([H])([H])[H])C([H])(C(=O)N([H])C2([H])c4c([H])c([H])c([H])c([H])c4C([H])([H])C([H])([H])C2([H])[H])C3([H])[H])C([H])(N([H])C(=O)N2C([H])([H])C([H])([H])C([H])([H])C([H])(n3nc(-c4c([H])c([H])c(Oc5c([H])c([H])c(F)c([H])c5F)c([H])c4[H])c(C(=O)N([H])[H])c3N([H])[H])C2([H])[H])C([H])([H])C([H])([H])C1([H])[H]

$$$$
19:0:0
     RDKit          3D

 92100  0  0  1  0  0  0  0  0999 V2000
  -29.6020  -20.3270   19.9620 C   0  0  0  0  0  0  0  0  0  0  0  0
  -28.8230  -21.4130   20.2350 N   0  0  0  0  0  0  0  0  0  0  0  0
  -30.5880  -20.4380   19.2280 O   0  0  0  0  0  0  0  0  0  0  0  0
  -28.0490  -21.2820   20.8720 H   0  0  0  0  0  0  0  0  0  0  0  0
  -30.7370  -14.6480   20.2960 C   0  0  0  0  0  0  0  0  0  0  0  0
  -30.3590  -12.4160   19.2790 C   0  0  0  0  0  2  0  0  0  0  0  0
  -29.4250  -12.5250   18.0600 C   0  0  0  0  0  2  0  0  0  0  0  0
  -27.9630  -12.3410   18.5120 C   0  0  0  0  0  2  0  0  0  0  0  0
  -27.5930  -13.2420   19.7160 C   0  0  0  0  0  3  0  0  0  0  0  0
  -28.6740  -13.2120   20.8260 C   0  0  0  0  0  2  0  0  0  0  0  0
  -29.9780  -13.5020   20.2110 N   0  0  0  0  0  0  0  0  0  0  0  0
  -31.9380  -14.6020   20.0190 O   0  0  0  0  0  0  0  0  0  0  0  0
  -28.8140  -17.8570   19.5330 C   0  0  0  0  0  0  0  0  0  0  0  0
  -28.9230  -16.3700   19.9490 C   0  0  0  0  0  2  0  0  0  0  0  0
  -30.4090  -18.3180   21.4410 C   0  0  0  0  0  2  0  0  0  0  0  0
  -31.1000  -17.0020   20.9470 C   0  0  0  0  0  2  0  0  0  0  0  0
  -29.2570  -18.9120   20.5720 C   0  0  0  0  0  3  0  0  0  0  0  0
  -28.3190  -18.1390   18.3990 N   0  0  0  0  0  0  0  0  0  0  0  0
  -30.1850  -15.8900   20.5690 N   0  0  0  0  0  0  0  0  0  0  0  0
  -28.2660  -19.1360   18.2250 H   0  0  0  0  0  0  0  0  0  0  0  0
  -25.2280  -13.8460   20.4980 C   0  0  0  0  0  0  0  0  0  0  0  0
  -24.1640  -13.0750   20.8780 C   0  0  0  0  0  0  0  0  0  0  0  0
  -24.6260  -11.7220   20.8370 C   0  0  0  0  0  0  0  0  0  0  0  0
  -26.2630  -12.9630   20.2380 N   0  0  0  0  0  0  0  0  0  0  0  0
  -25.9100  -11.6820   20.5130 N   0  0  0  0  0  0  0  0  0  0  0  0
  -23.9030  -10.4590   21.0270 C   0  0  0  0  0  0  0  0  0  0  0  0
  -24.3400   -9.4900   21.9580 C   0  0  0  0  0  3  0  0  0  0  0  0
  -23.6130   -8.2950   22.1400 C   0  0  0  0  0  3  0  0  0  0  0  0
  -22.4380   -8.0570   21.3890 C   0  0  0  0  0  0  0  0  0  0  0  0
  -22.0170   -9.0150   20.4500 C   0  0  0  0  0  3  0  0  0  0  0  0
  -22.7460  -10.2030   20.2650 C   0  0  0  0  0  3  0  0  0  0  0  0
  -21.6830   -6.9120   21.4790 O   0  0  0  0  0  0  0  0  0  0  0  0
  -21.6350   -6.1700   22.6320 C   0  0  0  0  0  0  0  0  0  0  0  0
  -21.2030   -6.7230   23.8580 C   0  0  0  0  0  3  0  0  0  0  0  0
  -21.1080   -5.9070   25.0020 C   0  0  0  0  0  3  0  0  0  0  0  0
  -21.4300   -4.5390   24.9200 C   0  0  0  0  0  0  0  0  0  0  0  0
  -21.8570   -3.9860   23.7010 C   0  0  0  0  0  3  0  0  0  0  0  0
  -21.9550   -4.8000   22.5580 C   0  0  0  0  0  0  0  0  0  0  0  0
  -22.3460   -4.2580   21.3780 F   0  0  0  0  0  0  0  0  0  0  0  0
  -21.3280   -3.7510   26.0170 F   0  0  0  0  0  0  0  0  0  0  0  0
  -22.7680  -13.5520   21.1600 C   0  0  0  0  0  0  0  0  0  0  0  0
  -22.0470  -12.8530   22.0310 N   0  0  0  0  0  0  0  0  0  0  0  0
  -22.3260  -14.5790   20.6450 O   0  0  0  0  0  0  0  0  0  0  0  0
  -22.4160  -12.0200   22.4660 H   0  0  0  0  0  0  0  0  0  0  0  0
  -21.1110  -13.1530   22.2700 H   0  0  0  0  0  0  0  0  0  0  0  0
  -25.3950  -15.2180   20.3170 N   0  0  0  0  0  0  0  0  0  0  0  0
  -24.6200  -15.8680   20.4030 H   0  0  0  0  0  0  0  0  0  0  0  0
  -26.2170  -15.6330   19.9000 H   0  0  0  0  0  0  0  0  0  0  0  0
  -28.9340  -22.7490   19.5790 C   0  0  0  0  0  2  0  0  0  0  0  0
  -28.4060  -24.0110   20.3660 C   0  0  0  0  0  2  0  0  0  0  0  0
  -28.5820  -25.3560   19.5620 C   0  0  0  0  0  2  0  0  0  0  0  0
  -28.4090  -26.6290   20.2500 O   0  0  0  0  0  0  0  0  0  0  0  0
  -24.5810  -31.8830   23.2210 C   0  0  0  0  0  0  0  0  0  0  0  0
  -27.2350  -27.3720   20.1810 C   0  0  0  0  0  0  0  0  0  0  0  0
  -23.3790  -30.4710   21.5830 C   0  0  0  0  0  3  0  0  0  0  0  0
  -24.8420  -28.9160   20.1670 C   0  0  0  0  0  0  0  0  0  0  0  0
  -25.9080  -30.8180   21.3920 C   0  0  0  0  0  2  0  0  0  0  0  0
  -25.9990  -29.4380   20.7600 C   0  0  0  0  0  0  0  0  0  0  0  0
  -27.1910  -28.6690   20.7690 C   0  0  0  0  0  3  0  0  0  0  0  0
  -26.0530  -26.8830   19.5760 C   0  0  0  0  0  3  0  0  0  0  0  0
  -24.8670  -27.6460   19.5680 C   0  0  0  0  0  3  0  0  0  0  0  0
  -23.5910  -29.7670   20.2130 C   0  0  0  0  0  2  0  0  0  0  0  0
  -24.6430  -31.0740   22.1230 N   0  0  0  0  0  0  0  0  0  0  0  0
  -23.4970  -32.1620   23.7530 O   0  0  0  0  0  0  0  0  0  0  0  0
  -22.7260  -29.4580   22.5510 C   0  0  0  0  0  0  0  0  0  0  0  0
  -21.3990  -29.2800   22.4210 N   0  0  0  0  0  0  0  0  0  0  0  0
  -23.4040  -28.8380   23.3700 O   0  0  0  0  0  0  0  0  0  0  0  0
  -20.9180  -29.8190   21.7150 H   0  0  0  0  0  0  0  0  0  0  0  0
  -18.0200  -28.1070   22.9150 C   0  0  0  0  0  0  0  0  0  0  0  0
  -20.5820  -28.3440   23.1870 C   0  0  0  0  0  3  0  0  0  0  0  0
  -20.6760  -26.9160   22.6010 C   0  0  0  0  0  2  0  0  0  0  0  0
  -19.5690  -26.6070   21.5870 C   0  0  0  0  0  2  0  0  0  0  0  0
  -18.1890  -26.7580   22.2330 C   0  0  0  0  0  2  0  0  0  0  0  0
  -19.1460  -28.8560   23.3470 C   0  0  0  0  0  0  0  0  0  0  0  0
  -18.9370  -30.1230   23.9410 C   0  0  0  0  0  3  0  0  0  0  0  0
  -17.6370  -30.6330   24.1090 C   0  0  0  0  0  3  0  0  0  0  0  0
  -16.5250  -29.8780   23.6980 C   0  0  0  0  0  3  0  0  0  0  0  0
  -16.7200  -28.6160   23.1020 C   0  0  0  0  0  3  0  0  0  0  0  0
  -25.8640  -32.5140   23.8450 C   0  0  0  0  0  3  0  0  0  0  0  0
  -26.3800  -31.7390   25.1180 C   0  0  1  0  0  0  0  0  0  0  0  0
  -25.2820  -31.4930   26.1780 C   0  0  0  0  0  1  0  0  0  0  0  0
  -26.9660  -30.3640   24.7190 C   0  0  0  0  0  1  0  0  0  0  0  0
  -27.5310  -32.5290   25.7820 C   0  0  0  0  0  1  0  0  0  0  0  0
  -25.5520  -33.9120   24.1740 N   0  0  0  0  0  0  0  0  0  0  0  0
  -25.8910  -34.9640   23.4180 C   0  0  0  0  0  0  0  0  0  0  0  0
  -26.5690  -34.8610   22.3910 O   0  0  0  0  0  0  0  0  0  0  0  0
  -24.9500  -34.0670   24.9700 H   0  0  0  0  0  0  0  0  0  0  0  0
  -24.1700  -36.7550   23.0490 C   0  0  0  0  0  1  0  0  0  0  0  0
  -25.4030  -36.3520   23.8720 C   0  0  0  0  0  3  0  0  0  0  0  0
  -27.5270  -37.2360   24.7260 C   0  0  0  0  0  1  0  0  0  0  0  0
  -26.4370  -37.4030   23.7680 N   0  0  0  0  0  0  0  0  0  0  0  0
  -26.0300  -38.3240   23.9100 H   0  0  0  0  0  0  0  0  0  0  0  0
  1  2  1  0
  2  4  1  0
  3  1  2  0
  5 19  1  0
  6 11  1  0
  7  8  1  0
  7  6  1  0
  9  8  1  0
  9 24  1  0
  9 10  1  0
 11  5  1  0
 11 10  1  0
 12  5  2  0
 13 14  1  0
 13 17  1  0
 14 19  1  0
 16 15  1  0
 17  1  1  0
 17 15  1  0
 18 13  2  0
 19 16  1  0
 20 18  1  0
 21 22  2  0
 22 41  1  0
 23 22  1  0
 23 26  1  0
 24 21  1  0
 24 25  1  0
 25 23  2  0
 26 27  1  0
 27 28  2  0
 29 32  1  0
 29 28  1  0
 30 29  2  0
 31 30  1  0
 31 26  2  0
 32 33  1  0
 33 34  1  0
 34 35  2  0
 36 35  1  0
 36 40  1  0
 37 36  2  0
 38 33  2  0
 38 37  1  0
 39 38  1  0
 41 42  1  0
 42 45  1  0
 42 44  1  0
 43 41  2  0
 46 47  1  0
 46 21  1  0
 48 46  1  0
 49  2  1  0
 49 50  1  0
 51 52  1  0
 51 50  1  0
 53 64  2  0
 54 52  1  0
 54 59  1  0
 55 63  1  0
 55 65  1  0
 56 62  1  0
 56 58  1  0
 57 63  1  0
 58 59  2  0
 58 57  1  0
 60 54  2  0
 61 60  1  0
 61 56  2  0
 62 55  1  0
 63 53  1  0
 65 67  2  0
 66 65  1  0
 68 66  1  0
 69 78  2  0
 69 74  1  0
 70 66  1  0
 70 74  1  0
 71 70  1  0
 72 73  1  0
 72 71  1  0
 73 69  1  0
 74 75  2  0
 75 76  1  0
 77 76  2  0
 78 77  1  0
 79 53  1  0
 79 84  1  0
 79 80  1  0
 80 83  1  1
 80 81  1  0
 82 80  1  0
 84 87  1  0
 85 89  1  0
 85 84  1  0
 86 85  2  0
 89 88  1  0
 91 89  1  0
 91 92  1  0
 91 90  1  0
M  ISO  4   5 100  19 100  51 101  52 101
M  END
>  <TORSDO>  (20) 
F 19

>  <SCORE>  (20) 
-14.384

>  <name>  (20) 
19

>  <ligand_id>  (20) 
19

>  <original_smiles>  (20) 
[H]N=C1C([H])([H])N(C(=O)N2C([H])([H])C([H])([H])C([H])([H])C([H])(n3nc(-c4c([H])c([H])c(Oc5c([H])c([H])c(F)c([H])c5F)c([H])c4[H])c(C(=O)N([H])[H])c3N([H])[H])C2([H])[H])C([H])([H])C([H])([H])C1([H])C(=O)N([H])C([H])([H])C([H])([H])C([H])([H])Oc1c([H])c([H])c2c(c1[H])C([H])([H])N(C(=O)C([H])(N([H])C(=O)C([H])(N([H])C([H])([H])[H])C([H])([H])[H])C(C([H])([H])[H])(C([H])([H])[H])C([H])([H])[H])C([H])(C(=O)N([H])C1([H])c3c([H])c([H])c([H])c([H])c3C([H])([H])C([H])([H])C1([H])[H])C2([H])[H]

>  <smiles>  (20) 
[H]N=C1C([H])([H])N(C(=O)N2C([H])([H])C([H])([H])C([H])([H])C([H])(n3nc(-c4c([H])c([H])c(Oc5c([H])c([H])c(F)c([H])c5F)c([H])c4[H])c(C(=O)N([H])[H])c3N([H])[H])C2([H])[H])C([H])([H])C([H])([H])C1([H])C(=O)N([H])C([H])([H])C([H])([H])C([H])([H])Oc1c([H])c([H])c2c(c1[H])C([H])([H])N(C(=O)C([H])(N([H])C(=O)C([H])(N([H])C([H])([H])[H])C([H])([H])[H])C(C([H])([H])[H])(C([H])([H])[H])C([H])([H])[H])C([H])(C(=O)N([H])C1([H])c3c([H])c([H])c([H])c([H])c3C([H])([H])C([H])([H])C1([H])[H])C2([H])[H]

$$$$
20:0:0
     RDKit          3D

 91 99  0  0  1  0  0  0  0  0999 V2000
  -29.2100  -20.1380   20.0370 C   0  0  0  0  0  0  0  0  0  0  0  0
  -29.0460  -21.3550   20.6180 N   0  0  0  0  0  0  0  0  0  0  0  0
  -29.0860  -19.9850   18.8210 O   0  0  0  0  0  0  0  0  0  0  0  0
  -29.1630  -21.3920   21.6230 H   0  0  0  0  0  0  0  0  0  0  0  0
  -30.7190  -14.6300   20.3660 C   0  0  0  0  0  0  0  0  0  0  0  0
  -30.3830  -12.4240   19.2770 C   0  0  0  0  0  2  0  0  0  0  0  0
  -29.4470  -12.5140   18.0550 C   0  0  0  0  0  2  0  0  0  0  0  0
  -27.9780  -12.3550   18.4920 C   0  0  0  0  0  2  0  0  0  0  0  0
  -27.6100  -13.2420   19.7070 C   0  0  0  0  0  3  0  0  0  0  0  0
  -28.6760  -13.1620   20.8310 C   0  0  0  0  0  2  0  0  0  0  0  0
  -29.9830  -13.4770   20.2380 N   0  0  0  0  0  0  0  0  0  0  0  0
  -31.9030  -14.6410   20.0160 O   0  0  0  0  0  0  0  0  0  0  0  0
  -30.8880  -18.2500   20.7350 C   0  0  0  0  0  2  0  0  0  0  0  0
  -28.4220  -17.7680   20.8100 C   0  0  0  0  0  2  0  0  0  0  0  0
  -30.9830  -16.8590   21.4280 C   0  0  0  0  0  2  0  0  0  0  0  0
  -29.4960  -18.8890   20.9360 C   0  0  0  0  0  3  0  0  0  0  0  0
  -28.8810  -16.3890   20.2240 C   0  0  0  0  0  3  0  0  0  0  0  0
  -28.9230  -16.4550   18.6770 C   0  0  0  0  0  1  0  0  0  0  0  0
  -30.1370  -15.8130   20.7910 N   0  0  0  0  0  0  0  0  0  0  0  0
  -25.2240  -13.8770   20.4230 C   0  0  0  0  0  0  0  0  0  0  0  0
  -24.1540  -13.1130   20.7990 C   0  0  0  0  0  0  0  0  0  0  0  0
  -24.6120  -11.7600   20.7860 C   0  0  0  0  0  0  0  0  0  0  0  0
  -26.2660  -12.9860   20.2030 N   0  0  0  0  0  0  0  0  0  0  0  0
  -25.9030  -11.7120   20.4870 N   0  0  0  0  0  0  0  0  0  0  0  0
  -23.8860  -10.5030   20.9830 C   0  0  0  0  0  0  0  0  0  0  0  0
  -24.3120   -9.5480   21.9290 C   0  0  0  0  0  3  0  0  0  0  0  0
  -23.5870   -8.3500   22.1120 C   0  0  0  0  0  3  0  0  0  0  0  0
  -22.4230   -8.1040   21.3480 C   0  0  0  0  0  0  0  0  0  0  0  0
  -22.0170   -9.0490   20.3900 C   0  0  0  0  0  3  0  0  0  0  0  0
  -22.7410  -10.2360   20.2050 C   0  0  0  0  0  3  0  0  0  0  0  0
  -21.6710   -6.9570   21.4420 O   0  0  0  0  0  0  0  0  0  0  0  0
  -21.6050   -6.2290   22.6030 C   0  0  0  0  0  0  0  0  0  0  0  0
  -21.1460   -6.7980   23.8110 C   0  0  0  0  0  3  0  0  0  0  0  0
  -21.0290   -5.9990   24.9660 C   0  0  0  0  0  3  0  0  0  0  0  0
  -21.3590   -4.6320   24.9110 C   0  0  0  0  0  0  0  0  0  0  0  0
  -21.8100   -4.0620   23.7080 C   0  0  0  0  0  3  0  0  0  0  0  0
  -21.9300   -4.8590   22.5560 C   0  0  0  0  0  0  0  0  0  0  0  0
  -22.3450   -4.3010   21.3930 F   0  0  0  0  0  0  0  0  0  0  0  0
  -21.2390   -3.8610   26.0170 F   0  0  0  0  0  0  0  0  0  0  0  0
  -22.7570  -13.5960   21.0550 C   0  0  0  0  0  0  0  0  0  0  0  0
  -22.0190  -12.9110   21.9190 N   0  0  0  0  0  0  0  0  0  0  0  0
  -22.3270  -14.6180   20.5210 O   0  0  0  0  0  0  0  0  0  0  0  0
  -22.3820  -12.0860   22.3760 H   0  0  0  0  0  0  0  0  0  0  0  0
  -21.0800  -13.2170   22.1270 H   0  0  0  0  0  0  0  0  0  0  0  0
  -25.3900  -15.2460   20.2230 N   0  0  0  0  0  0  0  0  0  0  0  0
  -24.6180  -15.8980   20.3190 H   0  0  0  0  0  0  0  0  0  0  0  0
  -26.2340  -15.6800   19.8760 H   0  0  0  0  0  0  0  0  0  0  0  0
  -28.4310  -22.5550   19.9830 C   0  0  0  0  0  2  0  0  0  0  0  0
  -28.9250  -23.9740   20.4650 C   0  0  0  0  0  2  0  0  0  0  0  0
  -28.0920  -25.1350   19.8230 C   0  0  0  0  0  2  0  0  0  0  0  0
  -28.3100  -26.5340   20.2110 O   0  0  0  0  0  0  0  0  0  0  0  0
  -24.6000  -31.9000   23.2480 C   0  0  0  0  0  0  0  0  0  0  0  0
  -27.1970  -27.3830   20.1450 C   0  0  0  0  0  0  0  0  0  0  0  0
  -23.3930  -30.5110   21.6070 C   0  0  0  0  0  3  0  0  0  0  0  0
  -24.8360  -28.9820   20.1640 C   0  0  0  0  0  0  0  0  0  0  0  0
  -25.9300  -30.8290   21.4240 C   0  0  0  0  0  2  0  0  0  0  0  0
  -26.0030  -29.4580   20.7730 C   0  0  0  0  0  0  0  0  0  0  0  0
  -27.1870  -28.6660   20.7650 C   0  0  0  0  0  3  0  0  0  0  0  0
  -26.0130  -26.9790   19.4770 C   0  0  0  0  0  3  0  0  0  0  0  0
  -24.8410  -27.7470   19.5100 C   0  0  0  0  0  3  0  0  0  0  0  0
  -23.6020  -29.8540   20.2180 C   0  0  0  0  0  2  0  0  0  0  0  0
  -24.6600  -31.0980   22.1480 N   0  0  0  0  0  0  0  0  0  0  0  0
  -23.5180  -32.1770   23.7840 O   0  0  0  0  0  0  0  0  0  0  0  0
  -22.7370  -29.4830   22.5580 C   0  0  0  0  0  0  0  0  0  0  0  0
  -21.4120  -29.3010   22.4260 N   0  0  0  0  0  0  0  0  0  0  0  0
  -23.4160  -28.8560   23.3750 O   0  0  0  0  0  0  0  0  0  0  0  0
  -20.9240  -29.8640   21.7440 H   0  0  0  0  0  0  0  0  0  0  0  0
  -18.0350  -28.1040   22.9240 C   0  0  0  0  0  0  0  0  0  0  0  0
  -20.5940  -28.3610   23.1920 C   0  0  0  0  0  3  0  0  0  0  0  0
  -20.6930  -26.9310   22.6140 C   0  0  0  0  0  2  0  0  0  0  0  0
  -19.5900  -26.6100   21.5990 C   0  0  0  0  0  2  0  0  0  0  0  0
  -18.2100  -26.7550   22.2450 C   0  0  0  0  0  2  0  0  0  0  0  0
  -19.1560  -28.8640   23.3550 C   0  0  0  0  0  0  0  0  0  0  0  0
  -18.9370  -30.1240   23.9500 C   0  0  0  0  0  3  0  0  0  0  0  0
  -17.6330  -30.6280   24.1160 C   0  0  0  0  0  3  0  0  0  0  0  0
  -16.5270  -29.8660   23.6980 C   0  0  0  0  0  3  0  0  0  0  0  0
  -16.7300  -28.6050   23.1090 C   0  0  0  0  0  3  0  0  0  0  0  0
  -25.8840  -32.5300   23.8670 C   0  0  0  0  0  3  0  0  0  0  0  0
  -26.3980  -31.7600   25.1460 C   0  0  1  0  0  0  0  0  0  0  0  0
  -25.3060  -31.5250   26.2150 C   0  0  0  0  0  1  0  0  0  0  0  0
  -26.9790  -30.3800   24.7580 C   0  0  0  0  0  1  0  0  0  0  0  0
  -27.5450  -32.5580   25.8110 C   0  0  0  0  0  1  0  0  0  0  0  0
  -25.5780  -33.9300   24.1940 N   0  0  0  0  0  0  0  0  0  0  0  0
  -25.9070  -34.9800   23.4300 C   0  0  0  0  0  0  0  0  0  0  0  0
  -26.5760  -34.8730   22.3990 O   0  0  0  0  0  0  0  0  0  0  0  0
  -24.9830  -34.0890   24.9940 H   0  0  0  0  0  0  0  0  0  0  0  0
  -24.1820  -36.7780   23.0660 C   0  0  0  0  0  1  0  0  0  0  0  0
  -25.4210  -36.3710   23.8820 C   0  0  0  0  0  3  0  0  0  0  0  0
  -27.5530  -37.2550   24.7210 C   0  0  0  0  0  1  0  0  0  0  0  0
  -26.4550  -37.4220   23.7720 N   0  0  0  0  0  0  0  0  0  0  0  0
  -26.0490  -38.3450   23.9160 H   0  0  0  0  0  0  0  0  0  0  0  0
  1  2  1  0
  2  4  1  0
  3  1  2  0
  5 19  1  0
  6 11  1  0
  7  8  1  0
  7  6  1  0
  9  8  1  0
  9 23  1  0
  9 10  1  0
 11  5  1  0
 11 10  1  0
 12  5  2  0
 13 16  1  0
 13 15  1  0
 14 16  1  0
 16  1  1  0
 17 18  1  0
 17 19  1  0
 17 14  1  0
 19 15  1  0
 20 21  2  0
 21 40  1  0
 22 21  1  0
 22 25  1  0
 23 20  1  0
 23 24  1  0
 24 22  2  0
 25 26  1  0
 26 27  2  0
 28 31  1  0
 28 27  1  0
 29 28  2  0
 30 29  1  0
 30 25  2  0
 31 32  1  0
 32 33  1  0
 33 34  2  0
 35 34  1  0
 35 39  1  0
 36 35  2  0
 37 32  2  0
 37 36  1  0
 38 37  1  0
 40 41  1  0
 41 44  1  0
 41 43  1  0
 42 40  2  0
 45 46  1  0
 45 20  1  0
 47 45  1  0
 48 49  1  0
 48  2  1  0
 50 51  1  0
 50 49  1  0
 52 63  2  0
 53 51  1  0
 53 58  1  0
 54 62  1  0
 54 64  1  0
 55 61  1  0
 55 57  1  0
 56 62  1  0
 57 56  1  0
 58 57  2  0
 59 60  1  0
 59 53  2  0
 60 55  2  0
 61 54  1  0
 62 52  1  0
 64 66  2  0
 65 64  1  0
 67 65  1  0
 68 77  2  0
 68 73  1  0
 69 65  1  0
 69 73  1  0
 70 69  1  0
 71 72  1  0
 71 70  1  0
 72 68  1  0
 73 74  2  0
 74 75  1  0
 76 75  2  0
 77 76  1  0
 78 52  1  0
 78 83  1  0
 78 79  1  0
 79 82  1  1
 79 80  1  0
 81 79  1  0
 83 86  1  0
 84 88  1  0
 84 83  1  0
 85 84  2  0
 88 87  1  0
 90 88  1  0
 90 91  1  0
 90 89  1  0
M  ISO  4   5 100  19 100  50 101  51 101
M  END
>  <TORSDO>  (21) 
F 19

>  <SCORE>  (21) 
-13.974

>  <name>  (21) 
20

>  <ligand_id>  (21) 
20

>  <original_smiles>  (21) 
[H]c1c([H])c([H])c2c(c1[H])C([H])([H])C([H])([H])C([H])([H])C2([H])N([H])C(=O)C1([H])N(C(=O)C([H])(N([H])C(=O)C([H])(N([H])C([H])([H])[H])C([H])([H])[H])C(C([H])([H])[H])(C([H])([H])[H])C([H])([H])[H])C([H])([H])c2c([H])c(OC([H])([H])C([H])([H])C([H])([H])N([H])C(=O)C3([H])C([H])([H])C([H])([H])N(C(=O)N4C([H])([H])C([H])([H])C([H])([H])C([H])(n5nc(-c6c([H])c([H])c(Oc7c([H])c([H])c(F)c([H])c7F)c([H])c6[H])c(C(=O)N([H])[H])c5N([H])[H])C4([H])[H])C([H])(C([H])([H])[H])C3([H])[H])c([H])c([H])c2C1([H])[H]

>  <smiles>  (21) 
[H]c1c([H])c([H])c2c(c1[H])C([H])([H])C([H])([H])C([H])([H])C2([H])N([H])C(=O)C1([H])N(C(=O)C([H])(N([H])C(=O)C([H])(N([H])C([H])([H])[H])C([H])([H])[H])C(C([H])([H])[H])(C([H])([H])[H])C([H])([H])[H])C([H])([H])c2c([H])c(OC([H])([H])C([H])([H])C([H])([H])N([H])C(=O)C3([H])C([H])([H])C([H])([H])N(C(=O)N4C([H])([H])C([H])([H])C([H])([H])C([H])(n5nc(-c6c([H])c([H])c(Oc7c([H])c([H])c(F)c([H])c7F)c([H])c6[H])c(C(=O)N([H])[H])c5N([H])[H])C4([H])[H])C([H])(C([H])([H])[H])C3([H])[H])c([H])c([H])c2C1([H])[H]

$$$$
21:0:0
     RDKit          3D

 97104  0  0  1  0  0  0  0  0999 V2000
  -31.8010  -29.9330   12.3960 C   0  0  0  0  0  2  0  0  0  0  0  0
  -31.6630  -31.1870   13.2880 C   0  0  0  0  0  2  0  0  0  0  0  0
  -31.6720  -30.9840   15.7870 C   0  0  0  0  0  1  0  0  0  0  0  0
  -33.1870  -32.6290   14.7070 C   0  0  0  0  0  1  0  0  0  0  0  0
  -32.5630  -31.2280   14.5500 C   0  0  2  0  0  0  0  0  0  0  0  0
  -33.7080  -30.1790   14.5020 C   0  0  0  0  0  2  0  0  0  0  0  0
  -35.0920  -30.7030   14.0600 C   0  0  0  0  0  2  0  0  0  0  0  0
  -36.2570  -30.1510   14.8990 C   0  0  0  0  0  2  0  0  0  0  0  0
  -36.9950  -31.2010   15.7120 C   0  0  0  0  0  3  0  0  0  0  0  0
  -37.9840  -30.9210   16.5790 C   0  0  0  0  0  3  0  0  0  0  0  0
  -38.7000  -31.9440   17.4400 C   0  0  0  0  0  2  0  0  0  0  0  0
  -37.0270  -33.2430   18.7850 C   0  0  0  0  0  0  0  0  0  0  0  0
  -35.8990  -34.6500   20.4710 C   0  0  0  0  0  2  0  0  0  0  0  0
  -36.8620  -35.7370   20.9900 C   0  0  0  0  0  2  0  0  0  0  0  0
  -37.7230  -35.2020   22.1510 C   0  0  0  0  0  2  0  0  0  0  0  0
  -38.3870  -33.8410   21.8180 C   0  0  0  0  0  3  0  0  0  0  0  0
  -37.3390  -32.8550   21.2560 C   0  0  0  0  0  2  0  0  0  0  0  0
  -36.6960  -33.4790   20.0810 N   0  0  0  0  0  0  0  0  0  0  0  0
  -36.6140  -33.9210   17.8390 O   0  0  0  0  0  0  0  0  0  0  0  0
  -37.8860  -32.2300   18.6160 N   0  0  0  0  0  0  0  0  0  0  0  0
  -38.1020  -31.7020   19.4480 H   0  0  0  0  0  0  0  0  0  0  0  0
  -40.4410  -33.1320   23.2010 C   0  0  0  0  0  0  0  0  0  0  0  0
  -40.5600  -32.6270   24.4690 C   0  0  0  0  0  0  0  0  0  0  0  0
  -39.2280  -32.5030   24.9690 C   0  0  0  0  0  0  0  0  0  0  0  0
  -39.0820  -33.2870   22.9790 N   0  0  0  0  0  0  0  0  0  0  0  0
  -38.3510  -32.8560   24.0380 N   0  0  0  0  0  0  0  0  0  0  0  0
  -38.7380  -32.1240   26.3000 C   0  0  0  0  0  0  0  0  0  0  0  0
  -38.8650  -30.8020   26.7830 C   0  0  0  0  0  3  0  0  0  0  0  0
  -38.4020  -30.4640   28.0730 C   0  0  0  0  0  3  0  0  0  0  0  0
  -37.8080  -31.4520   28.8940 C   0  0  0  0  0  0  0  0  0  0  0  0
  -37.6620  -32.7590   28.3990 C   0  0  0  0  0  3  0  0  0  0  0  0
  -38.1190  -33.0940   27.1130 C   0  0  0  0  0  3  0  0  0  0  0  0
  -37.3050  -31.2100   30.1500 O   0  0  0  0  0  0  0  0  0  0  0  0
  -37.9830  -31.5840   31.2820 C   0  0  0  0  0  0  0  0  0  0  0  0
  -37.6690  -32.7710   31.9810 C   0  0  0  0  0  3  0  0  0  0  0  0
  -38.3440  -33.0820   33.1780 C   0  0  0  0  0  3  0  0  0  0  0  0
  -39.3240  -32.2080   33.6820 C   0  0  0  0  0  0  0  0  0  0  0  0
  -39.6340  -31.0230   32.9910 C   0  0  0  0  0  3  0  0  0  0  0  0
  -38.9630  -30.7110   31.7950 C   0  0  0  0  0  0  0  0  0  0  0  0
  -39.2500  -29.5570   31.1450 F   0  0  0  0  0  0  0  0  0  0  0  0
  -39.9670  -32.5020   34.8360 F   0  0  0  0  0  0  0  0  0  0  0  0
  -41.8370  -32.3590   25.2110 C   0  0  0  0  0  0  0  0  0  0  0  0
  -42.2970  -31.1120   25.2090 N   0  0  0  0  0  0  0  0  0  0  0  0
  -42.4630  -33.2660   25.7590 O   0  0  0  0  0  0  0  0  0  0  0  0
  -41.7960  -30.3710   24.7450 H   0  0  0  0  0  0  0  0  0  0  0  0
  -43.1660  -30.8970   25.6800 H   0  0  0  0  0  0  0  0  0  0  0  0
  -41.3720  -33.4880   22.2300 N   0  0  0  0  0  0  0  0  0  0  0  0
  -42.3730  -33.4200   22.3830 H   0  0  0  0  0  0  0  0  0  0  0  0
  -41.1350  -33.8570   21.3190 H   0  0  0  0  0  0  0  0  0  0  0  0
  -30.7170  -28.8820   12.6830 C   0  0  0  0  0  2  0  0  0  0  0  0
  -29.3920  -29.4960   12.9210 N   0  0  0  0  0  4  0  0  0  0  0  0
  -29.5470  -30.3520   13.4290 H   0  0  0  0  0  0  0  0  0  0  0  0
  -28.8310  -28.9030   13.5110 H   0  0  0  0  0  0  0  0  0  0  0  0
  -28.6330  -29.8290   11.6940 C   0  0  0  0  0  2  0  0  0  0  0  0
  -27.1280  -29.4940   11.7840 C   0  0  0  0  0  2  0  0  0  0  0  0
  -26.7730  -28.0040   11.6030 C   0  0  0  0  0  2  0  0  0  0  0  0
  -26.6690  -27.3000   12.8350 O   0  0  0  0  0  0  0  0  0  0  0  0
  -31.1150  -25.1350   17.9730 C   0  0  0  0  0  0  0  0  0  0  0  0
  -27.7480  -26.5440   13.2150 C   0  0  0  0  0  0  0  0  0  0  0  0
  -31.6380  -24.3520   15.6830 C   0  0  0  0  0  3  0  0  0  0  0  0
  -29.8440  -24.7990   13.9280 C   0  0  0  0  0  0  0  0  0  0  0  0
  -29.2390  -24.9180   16.3550 C   0  0  0  0  0  2  0  0  0  0  0  0
  -28.9980  -25.3190   14.9160 C   0  0  0  0  0  0  0  0  0  0  0  0
  -27.9450  -26.1870   14.5640 C   0  0  0  0  0  3  0  0  0  0  0  0
  -28.6090  -26.0280   12.2270 C   0  0  0  0  0  3  0  0  0  0  0  0
  -29.6600  -25.1570   12.5790 C   0  0  0  0  0  3  0  0  0  0  0  0
  -30.9300  -23.8570   14.3920 C   0  0  0  0  0  2  0  0  0  0  0  0
  -30.6710  -24.8420   16.7190 N   0  0  0  0  0  0  0  0  0  0  0  0
  -32.3000  -24.9630   18.2880 O   0  0  0  0  0  0  0  0  0  0  0  0
  -32.6960  -25.4060   15.2870 C   0  0  0  0  0  0  0  0  0  0  0  0
  -33.8330  -25.4070   16.0010 N   0  0  0  0  0  0  0  0  0  0  0  0
  -32.5000  -26.1760   14.3420 O   0  0  0  0  0  0  0  0  0  0  0  0
  -33.9130  -24.7470   16.7620 H   0  0  0  0  0  0  0  0  0  0  0  0
  -36.3090  -27.4250   17.6830 C   0  0  0  0  0  0  0  0  0  0  0  0
  -34.9850  -26.2800   15.7830 C   0  0  0  0  0  3  0  0  0  0  0  0
  -36.2660  -25.4540   15.5230 C   0  0  0  0  0  2  0  0  0  0  0  0
  -37.0760  -25.1830   16.7940 C   0  0  0  0  0  2  0  0  0  0  0  0
  -37.4930  -26.4990   17.4580 C   0  0  0  0  0  2  0  0  0  0  0  0
  -35.1260  -27.3120   16.9060 C   0  0  0  0  0  0  0  0  0  0  0  0
  -34.0410  -28.1740   17.1810 C   0  0  0  0  0  3  0  0  0  0  0  0
  -34.1280  -29.1370   18.2040 C   0  0  0  0  0  3  0  0  0  0  0  0
  -35.3080  -29.2560   18.9580 C   0  0  0  0  0  3  0  0  0  0  0  0
  -36.3960  -28.4050   18.6950 C   0  0  0  0  0  3  0  0  0  0  0  0
  -30.1540  -25.6810   19.0760 C   0  0  0  0  0  3  0  0  0  0  0  0
  -30.4410  -24.9470   20.3150 N   0  0  0  0  0  0  0  0  0  0  0  0
  -29.7390  -23.8950   20.7570 C   0  0  0  0  0  0  0  0  0  0  0  0
  -28.7230  -23.4830   20.1890 O   0  0  0  0  0  0  0  0  0  0  0  0
  -31.2910  -25.1950   20.8000 H   0  0  0  0  0  0  0  0  0  0  0  0
  -30.3220  -21.6710   21.7760 C   0  0  0  0  0  1  0  0  0  0  0  0
  -30.2430  -23.1860   22.0280 C   0  0  0  0  0  3  0  0  0  0  0  0
  -29.0430  -24.8550   23.3690 C   0  0  0  0  0  1  0  0  0  0  0  0
  -29.4070  -23.4470   23.2190 N   0  0  0  0  0  0  0  0  0  0  0  0
  -29.8840  -23.1530   24.0660 H   0  0  0  0  0  0  0  0  0  0  0  0
  -30.2850  -27.2370   19.3010 C   0  0  1  0  0  0  0  0  0  0  0  0
  -31.4580  -27.6340   20.2270 C   0  0  0  0  0  1  0  0  0  0  0  0
  -30.4780  -27.9700   17.9520 C   0  0  0  0  0  1  0  0  0  0  0  0
  -28.9800  -27.7880   19.9210 C   0  0  0  0  0  1  0  0  0  0  0  0
  1 50  1  0
  1  2  1  0
  2  5  1  0
  5  4  1  1
  5  3  1  0
  6  5  1  0
  7  6  1  0
  7  8  1  0
  8  9  1  0
  9 10  2  0
 10 11  1  0
 11 20  1  0
 12 18  1  0
 13 14  1  0
 14 15  1  0
 16 17  1  0
 16 15  1  0
 16 25  1  0
 18 13  1  0
 18 17  1  0
 19 12  2  0
 20 12  1  0
 20 21  1  0
 22 23  2  0
 23 24  1  0
 23 42  1  0
 24 27  1  0
 25 22  1  0
 25 26  1  0
 26 24  2  0
 27 28  2  0
 27 32  1  0
 28 29  1  0
 29 30  2  0
 30 33  1  0
 31 30  1  0
 32 31  2  0
 33 34  1  0
 34 39  2  0
 34 35  1  0
 35 36  2  0
 36 37  1  0
 37 41  1  0
 38 37  2  0
 39 38  1  0
 40 39  1  0
 42 44  2  0
 43 42  1  0
 43 46  1  0
 45 43  1  0
 47 48  1  0
 47 22  1  0
 49 47  1  0
 50 51  1  0
 51 52  1  0
 51 53  1  0
 54 55  1  0
 54 51  1  0
 56 55  1  0
 56 57  1  0
 57 59  1  0
 58 69  2  0
 59 64  1  0
 60 70  1  0
 60 68  1  0
 61 67  1  0
 61 63  1  0
 62 68  1  0
 63 62  1  0
 64 63  2  0
 65 66  1  0
 65 59  2  0
 66 61  2  0
 67 60  1  0
 68 58  1  0
 70 71  1  0
 71 73  1  0
 72 70  2  0
 74 83  1  0
 75 71  1  0
 75 79  1  0
 76 75  1  0
 76 77  1  0
 77 78  1  0
 78 74  1  0
 79 80  1  0
 79 74  2  0
 80 81  2  0
 81 82  1  0
 83 82  2  0
 84 58  1  0
 84 94  1  0
 84 85  1  0
 85 86  1  0
 85 88  1  0
 86 90  1  0
 87 86  2  0
 90 89  1  0
 90 92  1  0
 92 91  1  0
 92 93  1  0
 94 97  1  1
 94 95  1  0
 96 94  1  0
M  ISO  4  12 100  20 100  56 101  57 101
M  END
>  <TORSDO>  (22) 
F 28

>  <SCORE>  (22) 
-3.279

>  <name>  (22) 
21

>  <ligand_id>  (22) 
21

>  <original_smiles>  (22) 
[H]C(=C([H])C([H])([H])C([H])([H])C([H])([H])C(C([H])([H])[H])(C([H])([H])[H])C([H])([H])C([H])([H])C([H])([H])[N+]([H])([H])C([H])([H])C([H])([H])C([H])([H])Oc1c([H])c([H])c2c(c1[H])C([H])([H])N(C(=O)C([H])(N([H])C(=O)C([H])(N([H])C([H])([H])[H])C([H])([H])[H])C(C([H])([H])[H])(C([H])([H])[H])C([H])([H])[H])C([H])(C(=O)N([H])C1([H])c3c([H])c([H])c([H])c([H])c3C([H])([H])C([H])([H])C1([H])[H])C2([H])[H])C([H])([H])N([H])C(=O)N1C([H])([H])C([H])([H])C([H])([H])C([H])(n2nc(-c3c([H])c([H])c(Oc4c([H])c([H])c(F)c([H])c4F)c([H])c3[H])c(C(=O)N([H])[H])c2N([H])[H])C1([H])[H]

>  <smiles>  (22) 
[H]C(=C([H])C([H])([H])C([H])([H])C([H])([H])C(C([H])([H])[H])(C([H])([H])[H])C([H])([H])C([H])([H])C([H])([H])[N+]([H])([H])C([H])([H])C([H])([H])C([H])([H])Oc1c([H])c([H])c2c(c1[H])C([H])([H])N(C(=O)C([H])(N([H])C(=O)C([H])(N([H])C([H])([H])[H])C([H])([H])[H])C(C([H])([H])[H])(C([H])([H])[H])C([H])([H])[H])C([H])(C(=O)N([H])C1([H])c3c([H])c([H])c([H])c([H])c3C([H])([H])C([H])([H])C1([H])[H])C2([H])[H])C([H])([H])N([H])C(=O)N1C([H])([H])C([H])([H])C([H])([H])C([H])(n2nc(-c3c([H])c([H])c(Oc4c([H])c([H])c(F)c([H])c4F)c([H])c3[H])c(C(=O)N([H])[H])c2N([H])[H])C1([H])[H]

$$$$
22:0:0
     RDKit          3D

 93101  0  0  1  0  0  0  0  0999 V2000
  -28.9650  -19.3850   20.6730 N   0  0  0  0  0  4  0  0  0  0  0  0
  -28.9360  -19.3150   21.6820 H   0  0  0  0  0  0  0  0  0  0  0  0
  -28.0090  -19.3820   20.3560 H   0  0  0  0  0  0  0  0  0  0  0  0
  -30.6400  -14.7880   20.0830 C   0  0  0  0  0  0  0  0  0  0  0  0
  -30.3330  -12.5510   19.0120 C   0  0  0  0  0  2  0  0  0  0  0  0
  -29.3390  -12.6280   17.8340 C   0  0  0  0  0  2  0  0  0  0  0  0
  -27.9000  -12.4260   18.3390 C   0  0  0  0  0  2  0  0  0  0  0  0
  -27.5760  -13.2890   19.5860 C   0  0  0  0  0  3  0  0  0  0  0  0
  -28.6920  -13.2300   20.6520 C   0  0  0  0  0  2  0  0  0  0  0  0
  -29.9470  -13.5980   19.9890 N   0  0  0  0  0  0  0  0  0  0  0  0
  -31.8200  -14.8170   19.7260 O   0  0  0  0  0  0  0  0  0  0  0  0
  -28.7860  -16.7200   20.2300 C   0  0  0  0  0  2  0  0  0  0  0  0
  -30.7140  -17.2730   20.8830 C   0  0  0  0  0  3  0  0  0  0  0  0
  -29.5910  -18.0660   20.1340 C   0  0  0  0  0  3  0  0  0  0  0  0
  -30.0510  -15.9780   20.5130 N   0  0  0  0  0  0  0  0  0  0  0  0
  -25.2210  -13.8390   20.4300 C   0  0  0  0  0  0  0  0  0  0  0  0
  -24.1820  -13.0470   20.8340 C   0  0  0  0  0  0  0  0  0  0  0  0
  -24.6600  -11.7020   20.7650 C   0  0  0  0  0  0  0  0  0  0  0  0
  -26.2620  -12.9760   20.1370 N   0  0  0  0  0  0  0  0  0  0  0  0
  -25.9380  -11.6850   20.4040 N   0  0  0  0  0  0  0  0  0  0  0  0
  -23.9570  -10.4280   20.9660 C   0  0  0  0  0  0  0  0  0  0  0  0
  -24.3970   -9.4840   21.9190 C   0  0  0  0  0  3  0  0  0  0  0  0
  -23.6920   -8.2770   22.1090 C   0  0  0  0  0  3  0  0  0  0  0  0
  -22.5330   -8.0040   21.3440 C   0  0  0  0  0  0  0  0  0  0  0  0
  -22.1110   -8.9370   20.3810 C   0  0  0  0  0  3  0  0  0  0  0  0
  -22.8170  -10.1360   20.1900 C   0  0  0  0  0  3  0  0  0  0  0  0
  -21.8000   -6.8450   21.4430 O   0  0  0  0  0  0  0  0  0  0  0  0
  -21.7140   -6.1450   22.6180 C   0  0  0  0  0  0  0  0  0  0  0  0
  -21.1900   -6.7250   23.7940 C   0  0  0  0  0  3  0  0  0  0  0  0
  -21.0550   -5.9480   24.9620 C   0  0  0  0  0  3  0  0  0  0  0  0
  -21.4360   -4.5930   24.9570 C   0  0  0  0  0  0  0  0  0  0  0  0
  -21.9530   -4.0120   23.7840 C   0  0  0  0  0  3  0  0  0  0  0  0
  -22.0890   -4.7860   22.6190 C   0  0  0  0  0  0  0  0  0  0  0  0
  -22.5670   -4.2160   21.4860 F   0  0  0  0  0  0  0  0  0  0  0  0
  -21.3000   -3.8450   26.0760 F   0  0  0  0  0  0  0  0  0  0  0  0
  -22.7910  -13.5030   21.1650 C   0  0  0  0  0  0  0  0  0  0  0  0
  -22.1050  -12.7820   22.0450 N   0  0  0  0  0  0  0  0  0  0  0  0
  -22.3230  -14.5340   20.6840 O   0  0  0  0  0  0  0  0  0  0  0  0
  -22.4970  -11.9470   22.4560 H   0  0  0  0  0  0  0  0  0  0  0  0
  -21.1760  -13.0680   22.3140 H   0  0  0  0  0  0  0  0  0  0  0  0
  -25.3590  -15.2150   20.2620 N   0  0  0  0  0  0  0  0  0  0  0  0
  -24.5860  -15.8560   20.4020 H   0  0  0  0  0  0  0  0  0  0  0  0
  -26.1850  -15.6630   19.8890 H   0  0  0  0  0  0  0  0  0  0  0  0
  -30.8350  -17.4430   22.4020 C   0  0  0  0  0  0  0  0  0  0  0  0
  -31.4140  -16.4580   23.0770 N   0  0  0  0  0  0  0  0  0  0  0  0
  -30.3890  -18.4400   22.9660 O   0  0  0  0  0  0  0  0  0  0  0  0
  -31.7860  -15.6560   22.5880 H   0  0  0  0  0  0  0  0  0  0  0  0
  -31.5300  -16.5190   24.0780 H   0  0  0  0  0  0  0  0  0  0  0  0
  -29.4950  -20.7910   20.3140 C   0  0  0  0  0  3  0  0  0  0  0  0
  -28.5300  -22.0890   20.5670 C   0  0  0  0  0  3  0  0  0  0  0  0
  -29.0410  -23.6380   20.4430 C   0  0  0  0  0  3  0  0  0  0  0  0
  -27.9550  -24.8480   20.4370 C   0  0  0  0  0  3  0  0  0  0  0  0
  -28.2840  -26.3260   20.3310 O   0  0  0  0  0  0  0  0  0  0  0  0
  -24.6160  -31.9240   23.2150 C   0  0  0  0  0  0  0  0  0  0  0  0
  -27.2120  -27.2540   20.2480 C   0  0  0  0  0  0  0  0  0  0  0  0
  -23.4210  -30.5080   21.5900 C   0  0  0  0  0  3  0  0  0  0  0  0
  -24.8760  -28.9380   20.1850 C   0  0  0  0  0  0  0  0  0  0  0  0
  -25.9710  -30.7960   21.4300 C   0  0  0  0  0  2  0  0  0  0  0  0
  -26.0480  -29.4070   20.7930 C   0  0  0  0  0  0  0  0  0  0  0  0
  -27.2200  -28.5790   20.8120 C   0  0  0  0  0  3  0  0  0  0  0  0
  -26.0180  -26.8740   19.5900 C   0  0  0  0  0  3  0  0  0  0  0  0
  -24.8690  -27.6820   19.5680 C   0  0  0  0  0  3  0  0  0  0  0  0
  -23.6460  -29.8240   20.2170 C   0  0  0  0  0  2  0  0  0  0  0  0
  -24.6870  -31.0940   22.1330 N   0  0  0  0  0  0  0  0  0  0  0  0
  -23.5290  -32.2160   23.7360 O   0  0  0  0  0  0  0  0  0  0  0  0
  -22.7480  -29.5050   22.5560 C   0  0  0  0  0  0  0  0  0  0  0  0
  -21.4200  -29.3310   22.4250 N   0  0  0  0  0  0  0  0  0  0  0  0
  -23.4170  -28.8870   23.3880 O   0  0  0  0  0  0  0  0  0  0  0  0
  -20.9380  -29.8800   21.7260 H   0  0  0  0  0  0  0  0  0  0  0  0
  -18.0280  -28.1730   22.9450 C   0  0  0  0  0  0  0  0  0  0  0  0
  -20.5920  -28.4080   23.2030 C   0  0  0  0  0  3  0  0  0  0  0  0
  -20.6750  -26.9710   22.6370 C   0  0  0  0  0  2  0  0  0  0  0  0
  -19.5670  -26.6540   21.6290 C   0  0  0  0  0  2  0  0  0  0  0  0
  -18.1880  -26.8190   22.2750 C   0  0  0  0  0  2  0  0  0  0  0  0
  -19.1570  -28.9260   23.3640 C   0  0  0  0  0  0  0  0  0  0  0  0
  -18.9520  -30.1950   23.9500 C   0  0  0  0  0  3  0  0  0  0  0  0
  -17.6530  -30.7100   24.1190 C   0  0  0  0  0  3  0  0  0  0  0  0
  -16.5400  -29.9550   23.7120 C   0  0  0  0  0  3  0  0  0  0  0  0
  -16.7270  -28.6870   23.1330 C   0  0  0  0  0  3  0  0  0  0  0  0
  -25.8950  -32.5630   23.8360 C   0  0  0  0  0  3  0  0  0  0  0  0
  -25.5810  -33.9600   24.1610 N   0  0  0  0  0  0  0  0  0  0  0  0
  -25.9180  -35.0140   23.4070 C   0  0  0  0  0  0  0  0  0  0  0  0
  -26.5960  -34.9120   22.3790 O   0  0  0  0  0  0  0  0  0  0  0  0
  -24.9780  -34.1150   24.9560 H   0  0  0  0  0  0  0  0  0  0  0  0
  -24.2010  -36.8140   23.0290 C   0  0  0  0  0  1  0  0  0  0  0  0
  -25.4270  -36.4030   23.8600 C   0  0  0  0  0  3  0  0  0  0  0  0
  -27.5470  -37.2770   24.7360 C   0  0  0  0  0  1  0  0  0  0  0  0
  -26.4640  -37.4530   23.7700 N   0  0  0  0  0  0  0  0  0  0  0  0
  -26.0590  -38.3730   23.9150 H   0  0  0  0  0  0  0  0  0  0  0  0
  -26.4100  -31.8000   25.1190 C   0  0  1  0  0  0  0  0  0  0  0  0
  -25.3120  -31.5570   26.1820 C   0  0  0  0  0  1  0  0  0  0  0  0
  -27.0040  -30.4260   24.7360 C   0  0  0  0  0  1  0  0  0  0  0  0
  -27.5550  -32.6030   25.7800 C   0  0  0  0  0  1  0  0  0  0  0  0
  1  2  1  0
  3  1  1  0
  4 15  1  0
  5 10  1  0
  6  7  1  0
  6  5  1  0
  8  7  1  0
  8 19  1  0
  8  9  1  0
 10  4  1  0
 10  9  1  0
 11  4  2  0
 12 15  1  0
 13 44  1  0
 14 12  1  0
 14  1  1  0
 14 13  1  0
 15 13  1  0
 16 17  2  0
 17 36  1  0
 18 17  1  0
 18 21  1  0
 19 20  1  0
 19 16  1  0
 20 18  2  0
 21 22  1  0
 22 23  2  0
 24 27  1  0
 24 23  1  0
 25 24  2  0
 26 25  1  0
 26 21  2  0
 27 28  1  0
 28 33  2  0
 28 29  1  0
 29 30  2  0
 31 30  1  0
 31 35  1  0
 32 31  2  0
 33 32  1  0
 34 33  1  0
 36 37  1  0
 37 40  1  0
 37 39  1  0
 38 36  2  0
 41 42  1  0
 41 16  1  0
 43 41  1  0
 44 46  2  0
 44 45  1  0
 45 48  1  0
 47 45  1  0
 49 50  2  0
 49  1  1  0
 51 50  1  0
 52 51  2  0
 53 52  1  0
 54 65  2  0
 55 53  1  0
 55 60  1  0
 56 64  1  0
 56 66  1  0
 57 63  1  0
 57 59  1  0
 58 64  1  0
 59 60  2  0
 59 58  1  0
 61 55  2  0
 62 61  1  0
 62 57  2  0
 63 56  1  0
 64 54  1  0
 66 68  2  0
 67 66  1  0
 69 67  1  0
 70 79  2  0
 70 75  1  0
 71 67  1  0
 71 75  1  0
 72 71  1  0
 73 74  1  0
 73 72  1  0
 74 70  1  0
 75 76  2  0
 76 77  1  0
 78 77  2  0
 79 78  1  0
 80 54  1  0
 80 81  1  0
 80 90  1  0
 81 84  1  0
 82 86  1  0
 82 81  1  0
 83 82  2  0
 86 85  1  0
 88 86  1  0
 88 89  1  0
 88 87  1  0
 90 93  1  1
 90 91  1  0
 92 90  1  0
M  ISO  4   4 100  15 100  52 101  53 101
M  END
>  <TORSDO>  (23) 
F 21

>  <SCORE>  (23) 
-12.595

>  <name>  (23) 
22

>  <ligand_id>  (23) 
22

>  <original_smiles>  (23) 
[H]c1c([H])c([H])c2c(c1[H])C([H])([H])C([H])([H])C([H])([H])C2([H])N([H])C(=O)C1([H])N(C(=O)C([H])(N([H])C(=O)C([H])(N([H])C([H])([H])[H])C([H])([H])[H])C(C([H])([H])[H])(C([H])([H])[H])C([H])([H])[H])C([H])([H])c2c([H])c(OC([H])([H])C([H])([H])C([H])([H])C([H])([H])[N+]([H])([H])C3([H])C([H])([H])N(C(=O)N4C([H])([H])C([H])([H])C([H])([H])C([H])(n5nc(-c6c([H])c([H])c(Oc7c([H])c([H])c(F)c([H])c7F)c([H])c6[H])c(C(=O)N([H])[H])c5N([H])[H])C4([H])[H])C3([H])C(=O)N([H])[H])c([H])c([H])c2C1([H])[H]

>  <smiles>  (23) 
[H]c1c([H])c([H])c2c(c1[H])C([H])([H])C([H])([H])C([H])([H])C2([H])N([H])C(=O)C1([H])N(C(=O)C([H])(N([H])C(=O)C([H])(N([H])C([H])([H])[H])C([H])([H])[H])C(C([H])([H])[H])(C([H])([H])[H])C([H])([H])[H])C([H])([H])c2c([H])c(OC([H])([H])C([H])([H])C([H])([H])C([H])([H])[N+]([H])([H])C3([H])C([H])([H])N(C(=O)N4C([H])([H])C([H])([H])C([H])([H])C([H])(n5nc(-c6c([H])c([H])c(Oc7c([H])c([H])c(F)c([H])c7F)c([H])c6[H])c(C(=O)N([H])[H])c5N([H])[H])C4([H])[H])C3([H])C(=O)N([H])[H])c([H])c([H])c2C1([H])[H]

$$$$
23:0:0
     RDKit          3D

 98106  0  0  1  0  0  0  0  0999 V2000
  -31.8890  -19.7260   21.6510 C   0  0  0  0  0  2  0  0  0  0  0  0
  -30.7880  -19.5070   20.6050 C   0  0  0  0  0  3  0  0  0  0  0  0
  -30.4590  -18.1570   21.3230 C   0  0  0  0  0  3  0  0  0  0  0  0
  -31.1480  -18.7490   22.5890 C   0  0  0  0  0  3  0  0  0  0  0  0
  -29.7000  -20.6030   20.5910 C   0  0  0  0  0  0  0  0  0  0  0  0
  -29.9390  -21.7110   19.8670 N   0  0  0  0  0  0  0  0  0  0  0  0
  -28.6700  -20.4390   21.2460 O   0  0  0  0  0  0  0  0  0  0  0  0
  -30.8300  -21.7690   19.3930 H   0  0  0  0  0  0  0  0  0  0  0  0
  -28.9620  -22.7720   19.5810 C   0  0  0  0  0  2  0  0  0  0  0  0
  -29.3890  -24.1990   20.0320 C   0  0  0  0  0  2  0  0  0  0  0  0
  -28.2610  -25.2050   19.7240 C   0  0  0  0  0  2  0  0  0  0  0  0
  -28.4280  -26.5700   20.1630 O   0  0  0  0  0  0  0  0  0  0  0  0
  -24.7090  -31.8640   23.2430 C   0  0  0  0  0  0  0  0  0  0  0  0
  -27.2780  -27.3550   20.1490 C   0  0  0  0  0  0  0  0  0  0  0  0
  -23.4830  -30.4700   21.6180 C   0  0  0  0  0  3  0  0  0  0  0  0
  -24.9090  -28.9210   20.1900 C   0  0  0  0  0  0  0  0  0  0  0  0
  -26.0190  -30.7860   21.4150 C   0  0  0  0  0  2  0  0  0  0  0  0
  -26.0830  -29.4120   20.7790 C   0  0  0  0  0  0  0  0  0  0  0  0
  -27.2680  -28.6340   20.7640 C   0  0  0  0  0  3  0  0  0  0  0  0
  -26.0770  -26.9060   19.5390 C   0  0  0  0  0  3  0  0  0  0  0  0
  -24.9020  -27.6660   19.5740 C   0  0  0  0  0  3  0  0  0  0  0  0
  -23.6790  -29.7950   20.2390 C   0  0  0  0  0  2  0  0  0  0  0  0
  -24.7550  -31.0550   22.1490 N   0  0  0  0  0  0  0  0  0  0  0  0
  -23.6300  -32.1490   23.7840 O   0  0  0  0  0  0  0  0  0  0  0  0
  -22.8280  -29.4500   22.5800 C   0  0  0  0  0  0  0  0  0  0  0  0
  -21.5040  -29.2690   22.4510 N   0  0  0  0  0  0  0  0  0  0  0  0
  -23.5110  -28.8280   23.4000 O   0  0  0  0  0  0  0  0  0  0  0  0
  -21.0160  -29.8260   21.7630 H   0  0  0  0  0  0  0  0  0  0  0  0
  -18.1290  -28.0810   22.9600 C   0  0  0  0  0  0  0  0  0  0  0  0
  -20.6850  -28.3400   23.2320 C   0  0  0  0  0  3  0  0  0  0  0  0
  -20.7890  -26.9020   22.6740 C   0  0  0  0  0  2  0  0  0  0  0  0
  -19.6890  -26.5680   21.6610 C   0  0  0  0  0  2  0  0  0  0  0  0
  -18.3050  -26.7250   22.2980 C   0  0  0  0  0  2  0  0  0  0  0  0
  -19.2480  -28.8470   23.3820 C   0  0  0  0  0  0  0  0  0  0  0  0
  -19.0300  -30.1160   23.9600 C   0  0  0  0  0  3  0  0  0  0  0  0
  -17.7260  -30.6250   24.1120 C   0  0  0  0  0  3  0  0  0  0  0  0
  -16.6220  -29.8580   23.7050 C   0  0  0  0  0  3  0  0  0  0  0  0
  -16.8240  -28.5870   23.1360 C   0  0  0  0  0  3  0  0  0  0  0  0
  -26.0020  -32.4900   23.8490 C   0  0  0  0  0  3  0  0  0  0  0  0
  -26.5450  -31.7020   25.1050 C   0  0  1  0  0  0  0  0  0  0  0  0
  -25.4680  -31.4440   26.1850 C   0  0  0  0  0  1  0  0  0  0  0  0
  -27.1290  -30.3320   24.6850 C   0  0  0  0  0  1  0  0  0  0  0  0
  -27.7020  -32.4930   25.7620 C   0  0  0  0  0  1  0  0  0  0  0  0
  -25.6950  -33.8830   24.2020 N   0  0  0  0  0  0  0  0  0  0  0  0
  -26.0150  -34.9450   23.4520 C   0  0  0  0  0  0  0  0  0  0  0  0
  -26.6720  -34.8550   22.4110 O   0  0  0  0  0  0  0  0  0  0  0  0
  -25.1100  -34.0260   25.0120 H   0  0  0  0  0  0  0  0  0  0  0  0
  -24.2820  -36.7390   23.1360 C   0  0  0  0  0  1  0  0  0  0  0  0
  -25.5300  -36.3250   23.9310 C   0  0  0  0  0  3  0  0  0  0  0  0
  -27.6640  -37.2060   24.7650 C   0  0  0  0  0  1  0  0  0  0  0  0
  -26.5580  -37.3810   23.8260 N   0  0  0  0  0  0  0  0  0  0  0  0
  -26.1500  -38.2980   23.9870 H   0  0  0  0  0  0  0  0  0  0  0  0
  -30.1900  -19.3880   23.5420 N   0  0  0  0  0  4  0  0  0  0  0  0
  -30.0350  -18.7480   24.3040 H   0  0  0  0  0  0  0  0  0  0  0  0
  -29.2970  -19.5180   23.0760 H   0  0  0  0  0  0  0  0  0  0  0  0
  -30.5940  -20.6900   24.1220 C   0  0  0  0  0  2  0  0  0  0  0  0
  -29.8390  -21.8640   23.4590 C   0  0  0  0  0  2  0  0  0  0  0  0
  -29.6040  -24.3790   23.1220 C   0  0  0  0  0  1  0  0  0  0  0  0
  -30.3580  -23.2540   23.8510 C   0  0  0  0  0  2  0  0  0  0  0  0
  -31.0540  -16.9110   20.6390 C   0  0  0  0  0  2  0  0  0  0  0  0
  -31.1410  -14.4690   20.6300 C   0  0  0  0  0  0  0  0  0  0  0  0
  -30.8010  -12.2840   19.5600 C   0  0  0  0  0  2  0  0  0  0  0  0
  -29.9370  -12.4710   18.2970 C   0  0  0  0  0  2  0  0  0  0  0  0
  -28.4460  -12.3660   18.6610 C   0  0  0  0  0  2  0  0  0  0  0  0
  -28.0570  -13.2610   19.8700 C   0  0  0  0  0  3  0  0  0  0  0  0
  -29.0530  -13.0970   21.0440 C   0  0  0  0  0  2  0  0  0  0  0  0
  -30.4100  -13.3270   20.5260 N   0  0  0  0  0  0  0  0  0  0  0  0
  -32.2970  -14.5480   20.2090 O   0  0  0  0  0  0  0  0  0  0  0  0
  -30.4950  -15.5920   21.0040 N   0  0  0  0  0  0  0  0  0  0  0  0
  -29.5330  -15.5210   21.2910 H   0  0  0  0  0  0  0  0  0  0  0  0
  -25.6360  -13.9130   20.4340 C   0  0  0  0  0  0  0  0  0  0  0  0
  -24.5390  -13.1650   20.7690 C   0  0  0  0  0  0  0  0  0  0  0  0
  -24.9850  -11.8090   20.8100 C   0  0  0  0  0  0  0  0  0  0  0  0
  -26.6790  -13.0150   20.2870 N   0  0  0  0  0  0  0  0  0  0  0  0
  -26.2890  -11.7460   20.5710 N   0  0  0  0  0  0  0  0  0  0  0  0
  -24.2320  -10.5630   21.0050 C   0  0  0  0  0  0  0  0  0  0  0  0
  -24.6130   -9.6140   21.9780 C   0  0  0  0  0  3  0  0  0  0  0  0
  -23.8640   -8.4320   22.1590 C   0  0  0  0  0  3  0  0  0  0  0  0
  -22.7180   -8.1900   21.3650 C   0  0  0  0  0  0  0  0  0  0  0  0
  -22.3560   -9.1260   20.3810 C   0  0  0  0  0  3  0  0  0  0  0  0
  -23.1070  -10.2990   20.1990 C   0  0  0  0  0  3  0  0  0  0  0  0
  -21.9440   -7.0580   21.4520 O   0  0  0  0  0  0  0  0  0  0  0  0
  -21.8540   -6.3360   22.6140 C   0  0  0  0  0  0  0  0  0  0  0  0
  -21.3890   -6.9140   23.8150 C   0  0  0  0  0  3  0  0  0  0  0  0
  -21.2470   -6.1190   24.9710 C   0  0  0  0  0  3  0  0  0  0  0  0
  -21.5560   -4.7460   24.9240 C   0  0  0  0  0  0  0  0  0  0  0  0
  -22.0130   -4.1670   23.7270 C   0  0  0  0  0  3  0  0  0  0  0  0
  -22.1580   -4.9600   22.5740 C   0  0  0  0  0  0  0  0  0  0  0  0
  -22.5800   -4.3940   21.4170 F   0  0  0  0  0  0  0  0  0  0  0  0
  -21.4110   -3.9800   26.0300 F   0  0  0  0  0  0  0  0  0  0  0  0
  -23.1370  -13.6690   20.9480 C   0  0  0  0  0  0  0  0  0  0  0  0
  -22.3580  -13.0180   21.8060 N   0  0  0  0  0  0  0  0  0  0  0  0
  -22.7370  -14.6730   20.3600 O   0  0  0  0  0  0  0  0  0  0  0  0
  -22.6930  -12.2080   22.3050 H   0  0  0  0  0  0  0  0  0  0  0  0
  -21.4140  -13.3380   21.9670 H   0  0  0  0  0  0  0  0  0  0  0  0
  -25.8250  -15.2750   20.2220 N   0  0  0  0  0  0  0  0  0  0  0  0
  -25.0540  -15.9330   20.2670 H   0  0  0  0  0  0  0  0  0  0  0  0
  -26.6950  -15.7040   19.9300 H   0  0  0  0  0  0  0  0  0  0  0  0
  1  4  1  0
  2  5  1  0
  2  3  1  0
  2  1  1  0
  3 60  1  0
  3  4  1  0
  4 53  1  0
  5  7  2  0
  6  5  1  0
  8  6  1  0
  9  6  1  0
  9 10  1  0
 11 10  1  0
 11 12  1  0
 13 24  2  0
 14 12  1  0
 14 19  1  0
 15 23  1  0
 15 25  1  0
 16 22  1  0
 16 18  1  0
 17 23  1  0
 18 17  1  0
 19 18  2  0
 20 21  1  0
 20 14  2  0
 21 16  2  0
 22 15  1  0
 23 13  1  0
 25 27  2  0
 26 25  1  0
 28 26  1  0
 29 38  2  0
 29 34  1  0
 30 26  1  0
 30 34  1  0
 31 30  1  0
 32 33  1  0
 32 31  1  0
 33 29  1  0
 34 35  2  0
 35 36  1  0
 37 36  2  0
 38 37  1  0
 39 13  1  0
 39 44  1  0
 39 40  1  0
 40 43  1  1
 40 41  1  0
 42 40  1  0
 44 47  1  0
 45 49  1  0
 45 44  1  0
 46 45  2  0
 49 48  1  0
 51 49  1  0
 51 52  1  0
 51 50  1  0
 53 56  1  0
 53 54  1  0
 55 53  1  0
 57 59  1  0
 57 56  1  0
 58 59  1  0
 60 69  1  0
 61 69  1  0
 62 67  1  0
 63 64  1  0
 63 62  1  0
 65 64  1  0
 65 74  1  0
 65 66  1  0
 67 61  1  0
 67 66  1  0
 68 61  2  0
 69 70  1  0
 71 72  2  0
 72 73  1  0
 72 91  1  0
 73 76  1  0
 74 71  1  0
 74 75  1  0
 75 73  2  0
 76 77  1  0
 77 78  2  0
 79 82  1  0
 79 78  1  0
 80 79  2  0
 81 80  1  0
 81 76  2  0
 82 83  1  0
 83 84  1  0
 84 85  2  0
 86 85  1  0
 86 90  1  0
 87 86  2  0
 88 83  2  0
 88 87  1  0
 89 88  1  0
 91 92  1  0
 92 95  1  0
 92 94  1  0
 93 91  2  0
 96 97  1  0
 96 71  1  0
 98 96  1  0
M  ISO  4  11 101  12 101  61 100  69 100
M  END
>  <TORSDO>  (24) 
F 25

>  <SCORE>  (24) 
-11.295

>  <name>  (24) 
23

>  <ligand_id>  (24) 
23

>  <original_smiles>  (24) 
[H]c1c([H])c([H])c2c(c1[H])C([H])([H])C([H])([H])C([H])([H])C2([H])N([H])C(=O)C1([H])N(C(=O)C([H])(N([H])C(=O)C([H])(N([H])C([H])([H])[H])C([H])([H])[H])C(C([H])([H])[H])(C([H])([H])[H])C([H])([H])[H])C([H])([H])c2c([H])c(OC([H])([H])C([H])([H])C([H])([H])N([H])C(=O)C3([H])C([H])([H])C([H])([N+]([H])([H])C([H])([H])C([H])([H])C([H])([H])C([H])([H])[H])C3([H])C([H])([H])N([H])C(=O)N3C([H])([H])C([H])([H])C([H])([H])C([H])(n4nc(-c5c([H])c([H])c(Oc6c([H])c([H])c(F)c([H])c6F)c([H])c5[H])c(C(=O)N([H])[H])c4N([H])[H])C3([H])[H])c([H])c([H])c2C1([H])[H]

>  <smiles>  (24) 
[H]c1c([H])c([H])c2c(c1[H])C([H])([H])C([H])([H])C([H])([H])C2([H])N([H])C(=O)C1([H])N(C(=O)C([H])(N([H])C(=O)C([H])(N([H])C([H])([H])[H])C([H])([H])[H])C(C([H])([H])[H])(C([H])([H])[H])C([H])([H])[H])C([H])([H])c2c([H])c(OC([H])([H])C([H])([H])C([H])([H])N([H])C(=O)C3([H])C([H])([H])C([H])([N+]([H])([H])C([H])([H])C([H])([H])C([H])([H])C([H])([H])[H])C3([H])C([H])([H])N([H])C(=O)N3C([H])([H])C([H])([H])C([H])([H])C([H])(n4nc(-c5c([H])c([H])c(Oc6c([H])c([H])c(F)c([H])c6F)c([H])c5[H])c(C(=O)N([H])[H])c4N([H])[H])C3([H])[H])c([H])c([H])c2C1([H])[H]

$$$$
24:0:0
     RDKit          3D

 95103  0  0  1  0  0  0  0  0999 V2000
  -32.1420  -19.3160   19.9010 C   0  0  0  0  0  2  0  0  0  0  0  0
  -30.0220  -19.8890   20.8910 C   0  0  0  0  0  3  0  0  0  0  0  0
  -29.9130  -18.4140   20.2400 C   0  0  0  0  0  3  0  0  0  0  0  0
  -31.0750  -18.4280   19.2340 C   0  0  0  0  0  3  0  0  0  0  0  0
  -31.4610  -20.2140   20.8630 N   0  0  0  0  0  4  0  0  0  0  0  0
  -31.5700  -21.1700   20.5690 H   0  0  0  0  0  0  0  0  0  0  0  0
  -31.8610  -20.1080   21.7810 H   0  0  0  0  0  0  0  0  0  0  0  0
  -30.6870  -18.9520   17.9310 N   0  0  0  0  0  0  0  0  0  0  0  0
  -29.9950  -19.6930   18.0320 H   0  0  0  0  0  0  0  0  0  0  0  0
  -30.1960  -18.2300   17.4110 H   0  0  0  0  0  0  0  0  0  0  0  0
  -29.3000  -21.1480   20.1830 C   0  0  0  0  0  0  0  0  0  0  0  0
  -28.8880  -21.0740   19.0210 O   0  0  0  0  0  0  0  0  0  0  0  0
  -29.1330  -22.5430   20.9280 C   0  0  0  0  0  2  0  0  0  0  0  0
  -28.8600  -23.8880   20.0860 C   0  0  0  0  0  3  0  0  0  0  0  0
  -28.3670  -25.1960   20.8730 C   0  0  0  0  0  3  0  0  0  0  0  0
  -28.4470  -26.5440   20.2550 O   0  0  0  0  0  0  0  0  0  0  0  0
  -24.6310  -31.9060   23.2560 C   0  0  0  0  0  0  0  0  0  0  0  0
  -27.3080  -27.3600   20.2540 C   0  0  0  0  0  0  0  0  0  0  0  0
  -23.4480  -30.4940   21.6070 C   0  0  0  0  0  3  0  0  0  0  0  0
  -24.9230  -28.9370   20.2090 C   0  0  0  0  0  0  0  0  0  0  0  0
  -25.9830  -30.8330   21.4400 C   0  0  0  0  0  2  0  0  0  0  0  0
  -26.0810  -29.4480   20.8080 C   0  0  0  0  0  0  0  0  0  0  0  0
  -27.2770  -28.6730   20.8170 C   0  0  0  0  0  3  0  0  0  0  0  0
  -26.1280  -26.8910   19.6370 C   0  0  0  0  0  3  0  0  0  0  0  0
  -24.9490  -27.6620   19.6140 C   0  0  0  0  0  3  0  0  0  0  0  0
  -23.6800  -29.8030   20.2340 C   0  0  0  0  0  2  0  0  0  0  0  0
  -24.7060  -31.0960   22.1590 N   0  0  0  0  0  0  0  0  0  0  0  0
  -23.5420  -32.1780   23.7810 O   0  0  0  0  0  0  0  0  0  0  0  0
  -22.7810  -29.4810   22.5690 C   0  0  0  0  0  0  0  0  0  0  0  0
  -21.4560  -29.3040   22.4390 N   0  0  0  0  0  0  0  0  0  0  0  0
  -23.4570  -28.8560   23.3910 O   0  0  0  0  0  0  0  0  0  0  0  0
  -20.9670  -29.8650   21.7560 H   0  0  0  0  0  0  0  0  0  0  0  0
  -18.0760  -28.1110   22.9360 C   0  0  0  0  0  0  0  0  0  0  0  0
  -20.6350  -28.3660   23.2070 C   0  0  0  0  0  3  0  0  0  0  0  0
  -20.7330  -26.9340   22.6300 C   0  0  0  0  0  2  0  0  0  0  0  0
  -19.6310  -26.6160   21.6130 C   0  0  0  0  0  2  0  0  0  0  0  0
  -18.2490  -26.7620   22.2570 C   0  0  0  0  0  2  0  0  0  0  0  0
  -19.1960  -28.8700   23.3680 C   0  0  0  0  0  0  0  0  0  0  0  0
  -18.9790  -30.1330   23.9600 C   0  0  0  0  0  3  0  0  0  0  0  0
  -17.6740  -30.6360   24.1280 C   0  0  0  0  0  3  0  0  0  0  0  0
  -16.5690  -29.8740   23.7110 C   0  0  0  0  0  3  0  0  0  0  0  0
  -16.7720  -28.6140   23.1190 C   0  0  0  0  0  3  0  0  0  0  0  0
  -25.9050  -32.5460   23.8870 C   0  0  0  0  0  3  0  0  0  0  0  0
  -25.5890  -33.9450   24.2090 N   0  0  0  0  0  0  0  0  0  0  0  0
  -25.9260  -34.9960   23.4490 C   0  0  0  0  0  0  0  0  0  0  0  0
  -26.6060  -34.8910   22.4240 O   0  0  0  0  0  0  0  0  0  0  0  0
  -24.9890  -34.1030   25.0060 H   0  0  0  0  0  0  0  0  0  0  0  0
  -24.2010  -36.7870   23.0690 C   0  0  0  0  0  1  0  0  0  0  0  0
  -25.4330  -36.3860   23.8960 C   0  0  0  0  0  3  0  0  0  0  0  0
  -27.5570  -37.2780   24.7450 C   0  0  0  0  0  1  0  0  0  0  0  0
  -26.4650  -37.4390   23.7890 N   0  0  0  0  0  0  0  0  0  0  0  0
  -26.0560  -38.3600   23.9280 H   0  0  0  0  0  0  0  0  0  0  0  0
  -26.4130  -31.7830   25.1730 C   0  0  1  0  0  0  0  0  0  0  0  0
  -25.3130  -31.5480   26.2330 C   0  0  0  0  0  1  0  0  0  0  0  0
  -27.0030  -30.4040   24.7920 C   0  0  0  0  0  1  0  0  0  0  0  0
  -27.5560  -32.5820   25.8390 C   0  0  0  0  0  1  0  0  0  0  0  0
  -30.1460  -17.1680   21.2310 C   0  0  0  0  0  2  0  0  0  0  0  0
  -30.5830  -14.6820   20.4550 C   0  0  0  0  0  0  0  0  0  0  0  0
  -30.3550  -12.4620   19.3440 C   0  0  0  0  0  2  0  0  0  0  0  0
  -29.4090  -12.5930   18.1300 C   0  0  0  0  0  2  0  0  0  0  0  0
  -27.9370  -12.4310   18.5630 C   0  0  0  0  0  2  0  0  0  0  0  0
  -27.5810  -13.2860   19.8060 C   0  0  0  0  0  3  0  0  0  0  0  0
  -28.6420  -13.1270   20.9180 C   0  0  0  0  0  2  0  0  0  0  0  0
  -29.9460  -13.4740   20.3360 N   0  0  0  0  0  0  0  0  0  0  0  0
  -31.7580  -14.8270   20.1130 O   0  0  0  0  0  0  0  0  0  0  0  0
  -29.8010  -15.7530   20.8120 N   0  0  0  0  0  0  0  0  0  0  0  0
  -28.8420  -15.4920   20.9850 H   0  0  0  0  0  0  0  0  0  0  0  0
  -25.1870  -13.8870   20.5190 C   0  0  0  0  0  0  0  0  0  0  0  0
  -24.1200  -13.1150   20.8870 C   0  0  0  0  0  0  0  0  0  0  0  0
  -24.5840  -11.7640   20.8660 C   0  0  0  0  0  0  0  0  0  0  0  0
  -26.2340  -13.0050   20.2910 N   0  0  0  0  0  0  0  0  0  0  0  0
  -25.8750  -11.7230   20.5590 N   0  0  0  0  0  0  0  0  0  0  0  0
  -23.8570  -10.5030   21.0610 C   0  0  0  0  0  0  0  0  0  0  0  0
  -24.2940   -9.5340   21.9910 C   0  0  0  0  0  3  0  0  0  0  0  0
  -23.5670   -8.3370   22.1720 C   0  0  0  0  0  3  0  0  0  0  0  0
  -22.3900   -8.1010   21.4220 C   0  0  0  0  0  0  0  0  0  0  0  0
  -21.9740   -9.0580   20.4780 C   0  0  0  0  0  3  0  0  0  0  0  0
  -22.7010  -10.2460   20.2970 C   0  0  0  0  0  3  0  0  0  0  0  0
  -21.6340   -6.9580   21.5130 O   0  0  0  0  0  0  0  0  0  0  0  0
  -21.5970   -6.2090   22.6610 C   0  0  0  0  0  0  0  0  0  0  0  0
  -21.1920   -6.7600   23.8960 C   0  0  0  0  0  3  0  0  0  0  0  0
  -21.1000   -5.9400   25.0380 C   0  0  0  0  0  3  0  0  0  0  0  0
  -21.4040   -4.5680   24.9450 C   0  0  0  0  0  0  0  0  0  0  0  0
  -21.8020   -4.0160   23.7150 C   0  0  0  0  0  3  0  0  0  0  0  0
  -21.8960   -4.8330   22.5760 C   0  0  0  0  0  0  0  0  0  0  0  0
  -22.2600   -4.2930   21.3890 F   0  0  0  0  0  0  0  0  0  0  0  0
  -21.3090   -3.7770   26.0390 F   0  0  0  0  0  0  0  0  0  0  0  0
  -22.7220  -13.5930   21.1500 C   0  0  0  0  0  0  0  0  0  0  0  0
  -21.9920  -12.8980   22.0140 N   0  0  0  0  0  0  0  0  0  0  0  0
  -22.2850  -14.6160   20.6240 O   0  0  0  0  0  0  0  0  0  0  0  0
  -22.3600  -12.0710   22.4590 H   0  0  0  0  0  0  0  0  0  0  0  0
  -21.0530  -13.1990   22.2360 H   0  0  0  0  0  0  0  0  0  0  0  0
  -25.3500  -15.2570   20.3370 N   0  0  0  0  0  0  0  0  0  0  0  0
  -24.5710  -15.9020   20.4280 H   0  0  0  0  0  0  0  0  0  0  0  0
  -26.1840  -15.6950   19.9700 H   0  0  0  0  0  0  0  0  0  0  0  0
  1  5  1  0
  2 11  1  0
  3  2  1  0
  3 57  1  0
  4  8  1  0
  4  1  1  0
  4  3  1  0
  5  2  1  0
  5  7  1  0
  6  5  1  0
  8  9  1  0
 10  8  1  0
 11 13  1  0
 12 11  2  0
 14 15  2  0
 14 13  1  0
 16 15  1  0
 17 28  2  0
 18 16  1  0
 18 23  1  0
 19 27  1  0
 19 29  1  0
 20 26  1  0
 20 22  1  0
 21 27  1  0
 22 23  2  0
 22 21  1  0
 24 18  2  0
 25 24  1  0
 25 20  2  0
 26 19  1  0
 27 17  1  0
 29 31  2  0
 30 29  1  0
 32 30  1  0
 33 42  2  0
 33 38  1  0
 34 30  1  0
 34 38  1  0
 35 34  1  0
 36 37  1  0
 36 35  1  0
 37 33  1  0
 38 39  2  0
 39 40  1  0
 41 40  2  0
 42 41  1  0
 43 17  1  0
 43 44  1  0
 43 53  1  0
 44 47  1  0
 45 49  1  0
 45 44  1  0
 46 45  2  0
 49 48  1  0
 51 49  1  0
 51 52  1  0
 51 50  1  0
 53 56  1  1
 53 54  1  0
 55 53  1  0
 58 66  1  0
 59 64  1  0
 60 61  1  0
 60 59  1  0
 62 61  1  0
 62 71  1  0
 62 63  1  0
 64 58  1  0
 64 63  1  0
 65 58  2  0
 66 67  1  0
 66 57  1  0
 68 69  2  0
 69 88  1  0
 70 69  1  0
 70 73  1  0
 71 68  1  0
 71 72  1  0
 72 70  2  0
 73 74  1  0
 74 75  2  0
 76 79  1  0
 76 75  1  0
 77 76  2  0
 78 77  1  0
 78 73  2  0
 79 80  1  0
 80 81  1  0
 81 82  2  0
 83 82  1  0
 83 87  1  0
 84 83  2  0
 85 80  2  0
 85 84  1  0
 86 85  1  0
 88 89  1  0
 89 92  1  0
 89 91  1  0
 90 88  2  0
 93 94  1  0
 93 68  1  0
 95 93  1  0
M  ISO  4  15 101  16 101  58 100  66 100
M  END
>  <TORSDO>  (25) 
F 22

>  <SCORE>  (25) 
-13.479

>  <name>  (25) 
24

>  <ligand_id>  (25) 
24

>  <original_smiles>  (25) 
[H]c1c([H])c([H])c2c(c1[H])C([H])([H])C([H])([H])C([H])([H])C2([H])N([H])C(=O)C1([H])N(C(=O)C([H])(N([H])C(=O)C([H])(N([H])C([H])([H])[H])C([H])([H])[H])C(C([H])([H])[H])(C([H])([H])[H])C([H])([H])[H])C([H])([H])c2c([H])c(OC([H])([H])C([H])([H])C([H])([H])C(=O)C3([H])C([H])(C([H])([H])N([H])C(=O)N4C([H])([H])C([H])([H])C([H])([H])C([H])(n5nc(-c6c([H])c([H])c(Oc7c([H])c([H])c(F)c([H])c7F)c([H])c6[H])c(C(=O)N([H])[H])c5N([H])[H])C4([H])[H])C([H])(N([H])[H])C([H])([H])[N+]3([H])[H])c([H])c([H])c2C1([H])[H]

>  <smiles>  (25) 
[H]c1c([H])c([H])c2c(c1[H])C([H])([H])C([H])([H])C([H])([H])C2([H])N([H])C(=O)C1([H])N(C(=O)C([H])(N([H])C(=O)C([H])(N([H])C([H])([H])[H])C([H])([H])[H])C(C([H])([H])[H])(C([H])([H])[H])C([H])([H])[H])C([H])([H])c2c([H])c(OC([H])([H])C([H])([H])C([H])([H])C(=O)C3([H])C([H])(C([H])([H])N([H])C(=O)N4C([H])([H])C([H])([H])C([H])([H])C([H])(n5nc(-c6c([H])c([H])c(Oc7c([H])c([H])c(F)c([H])c7F)c([H])c6[H])c(C(=O)N([H])[H])c5N([H])[H])C4([H])[H])C([H])(N([H])[H])C([H])([H])[N+]3([H])[H])c([H])c([H])c2C1([H])[H]

$$$$
25:0:0
     RDKit          3D

 90 98  0  0  1  0  0  0  0  0999 V2000
  -29.0600  -20.7200   20.4350 C   0  0  0  0  0  2  0  0  0  0  0  0
  -28.9940  -19.3440   19.7110 C   0  0  0  0  0  0  0  0  0  0  0  0
  -28.2670  -19.1940   18.7250 O   0  0  0  0  0  0  0  0  0  0  0  0
  -30.7220  -14.5790   19.6800 C   0  0  0  0  0  0  0  0  0  0  0  0
  -30.2740  -12.4680   18.4700 C   0  0  0  0  0  2  0  0  0  0  0  0
  -29.2000  -12.7260   17.3920 C   0  0  0  0  0  2  0  0  0  0  0  0
  -27.7820  -12.5770   17.9800 C   0  0  0  0  0  2  0  0  0  0  0  0
  -27.6060  -13.3500   19.3150 C   0  0  0  0  0  3  0  0  0  0  0  0
  -28.7790  -13.0530   20.2740 C   0  0  0  0  0  2  0  0  0  0  0  0
  -30.0210  -13.4090   19.5770 N   0  0  0  0  0  0  0  0  0  0  0  0
  -31.8020  -14.7260   19.0970 O   0  0  0  0  0  0  0  0  0  0  0  0
  -29.2530  -17.5070   21.4930 C   0  0  0  0  0  2  0  0  0  0  0  0
  -30.0100  -16.9340   19.3060 C   0  0  0  0  0  2  0  0  0  0  0  0
  -29.8500  -18.1590   20.2500 C   0  0  0  0  0  3  0  0  0  0  0  0
  -29.8110  -16.0690   21.5190 C   0  0  0  0  0  3  0  0  0  0  0  0
  -31.1000  -15.9860   22.3590 C   0  0  0  0  0  1  0  0  0  0  0  0
  -30.0330  -15.6840   20.1090 N   0  0  0  0  0  0  0  0  0  0  0  0
  -25.3130  -13.9440   20.3170 C   0  0  0  0  0  0  0  0  0  0  0  0
  -24.2840  -13.1640   20.7730 C   0  0  0  0  0  0  0  0  0  0  0  0
  -24.7240  -11.8120   20.6370 C   0  0  0  0  0  0  0  0  0  0  0  0
  -26.3140  -13.0650   19.9340 N   0  0  0  0  0  0  0  0  0  0  0  0
  -25.9700  -11.7750   20.1830 N   0  0  0  0  0  0  0  0  0  0  0  0
  -24.0090  -10.5480   20.8590 C   0  0  0  0  0  0  0  0  0  0  0  0
  -24.4870   -9.5800   21.7720 C   0  0  0  0  0  3  0  0  0  0  0  0
  -23.7720   -8.3810   21.9810 C   0  0  0  0  0  3  0  0  0  0  0  0
  -22.5680   -8.1400   21.2790 C   0  0  0  0  0  0  0  0  0  0  0  0
  -22.1100   -9.0950   20.3550 C   0  0  0  0  0  3  0  0  0  0  0  0
  -22.8240  -10.2860   20.1430 C   0  0  0  0  0  3  0  0  0  0  0  0
  -21.8210   -6.9920   21.4000 O   0  0  0  0  0  0  0  0  0  0  0  0
  -21.7670   -6.2900   22.5770 C   0  0  0  0  0  0  0  0  0  0  0  0
  -21.3250   -6.8850   23.7790 C   0  0  0  0  0  3  0  0  0  0  0  0
  -21.2170   -6.1100   24.9510 C   0  0  0  0  0  3  0  0  0  0  0  0
  -21.5390   -4.7390   24.9210 C   0  0  0  0  0  0  0  0  0  0  0  0
  -21.9730   -4.1440   23.7240 C   0  0  0  0  0  3  0  0  0  0  0  0
  -22.0830   -4.9170   22.5550 C   0  0  0  0  0  0  0  0  0  0  0  0
  -22.4820   -4.3330   21.3990 F   0  0  0  0  0  0  0  0  0  0  0  0
  -21.4280   -3.9930   26.0440 F   0  0  0  0  0  0  0  0  0  0  0  0
  -22.9320  -13.6390   21.2210 C   0  0  0  0  0  0  0  0  0  0  0  0
  -22.3140  -12.9280   22.1580 N   0  0  0  0  0  0  0  0  0  0  0  0
  -22.4360  -14.6740   20.7750 O   0  0  0  0  0  0  0  0  0  0  0  0
  -22.7290  -12.0900   22.5370 H   0  0  0  0  0  0  0  0  0  0  0  0
  -21.4130  -13.2290   22.5030 H   0  0  0  0  0  0  0  0  0  0  0  0
  -25.4760  -15.3190   20.1780 N   0  0  0  0  0  0  0  0  0  0  0  0
  -24.7440  -15.9820   20.4090 H   0  0  0  0  0  0  0  0  0  0  0  0
  -26.3020  -15.7600   19.7940 H   0  0  0  0  0  0  0  0  0  0  0  0
  -28.1970  -21.8460   19.7750 C   0  0  0  0  0  2  0  0  0  0  0  0
  -28.1440  -23.2480   20.4700 C   0  0  0  0  0  2  0  0  0  0  0  0
  -29.2580  -24.2660   20.0880 C   0  0  0  0  0  2  0  0  0  0  0  0
  -28.8060  -25.5840   19.3790 C   0  0  0  0  0  2  0  0  0  0  0  0
  -28.5430  -26.7080   20.2520 O   0  0  0  0  0  0  0  0  0  0  0  0
  -24.6430  -31.8930   23.2260 C   0  0  0  0  0  0  0  0  0  0  0  0
  -27.3530  -27.4200   20.1930 C   0  0  0  0  0  0  0  0  0  0  0  0
  -23.4630  -30.4600   21.5950 C   0  0  0  0  0  3  0  0  0  0  0  0
  -24.9390  -28.9260   20.1880 C   0  0  0  0  0  0  0  0  0  0  0  0
  -25.9890  -30.8390   21.4050 C   0  0  0  0  0  2  0  0  0  0  0  0
  -26.0910  -29.4600   20.7770 C   0  0  0  0  0  0  0  0  0  0  0  0
  -27.2960  -28.7120   20.7800 C   0  0  0  0  0  3  0  0  0  0  0  0
  -26.1690  -26.9040   19.6150 C   0  0  0  0  0  3  0  0  0  0  0  0
  -24.9750  -27.6480   19.6060 C   0  0  0  0  0  3  0  0  0  0  0  0
  -23.6860  -29.7720   20.2230 C   0  0  0  0  0  2  0  0  0  0  0  0
  -24.7170  -31.0800   22.1330 N   0  0  0  0  0  0  0  0  0  0  0  0
  -23.5550  -32.1570   23.7570 O   0  0  0  0  0  0  0  0  0  0  0  0
  -22.8200  -29.4400   22.5640 C   0  0  0  0  0  0  0  0  0  0  0  0
  -21.4990  -29.2330   22.4290 N   0  0  0  0  0  0  0  0  0  0  0  0
  -23.5070  -28.8370   23.3930 O   0  0  0  0  0  0  0  0  0  0  0  0
  -21.0060  -29.7720   21.7310 H   0  0  0  0  0  0  0  0  0  0  0  0
  -18.1420  -27.9900   22.9200 C   0  0  0  0  0  0  0  0  0  0  0  0
  -20.6940  -28.2900   23.2040 C   0  0  0  0  0  3  0  0  0  0  0  0
  -20.8210  -26.8540   22.6430 C   0  0  0  0  0  2  0  0  0  0  0  0
  -19.7300  -26.5040   21.6260 C   0  0  0  0  0  2  0  0  0  0  0  0
  -18.3420  -26.6350   22.2610 C   0  0  0  0  0  2  0  0  0  0  0  0
  -19.2450  -28.7730   23.3500 C   0  0  0  0  0  0  0  0  0  0  0  0
  -19.0050  -30.0390   23.9250 C   0  0  0  0  0  3  0  0  0  0  0  0
  -17.6920  -30.5240   24.0770 C   0  0  0  0  0  3  0  0  0  0  0  0
  -16.6010  -29.7380   23.6620 C   0  0  0  0  0  3  0  0  0  0  0  0
  -16.8270  -28.4720   23.0920 C   0  0  0  0  0  3  0  0  0  0  0  0
  -25.9180  -32.5480   23.8450 C   0  0  0  0  0  3  0  0  0  0  0  0
  -25.5850  -33.9420   24.1690 N   0  0  0  0  0  0  0  0  0  0  0  0
  -25.9130  -34.9970   23.4130 C   0  0  0  0  0  0  0  0  0  0  0  0
  -26.5970  -34.9010   22.3900 O   0  0  0  0  0  0  0  0  0  0  0  0
  -24.9760  -34.0890   24.9610 H   0  0  0  0  0  0  0  0  0  0  0  0
  -24.1770  -36.7730   23.0170 C   0  0  0  0  0  1  0  0  0  0  0  0
  -25.4010  -36.3790   23.8600 C   0  0  0  0  0  3  0  0  0  0  0  0
  -27.5050  -37.2810   24.7480 C   0  0  0  0  0  1  0  0  0  0  0  0
  -26.4260  -37.4420   23.7770 N   0  0  0  0  0  0  0  0  0  0  0  0
  -26.0080  -38.3580   23.9170 H   0  0  0  0  0  0  0  0  0  0  0  0
  -26.4480  -31.7890   25.1220 C   0  0  1  0  0  0  0  0  0  0  0  0
  -25.3580  -31.5320   26.1890 C   0  0  0  0  0  1  0  0  0  0  0  0
  -27.0580  -30.4220   24.7330 C   0  0  0  0  0  1  0  0  0  0  0  0
  -27.5820  -32.6070   25.7830 C   0  0  0  0  0  1  0  0  0  0  0  0
  2  1  1  0
  3  2  2  0
  4 17  1  0
  5 10  1  0
  6  7  1  0
  6  5  1  0
  8  7  1  0
  8 21  1  0
  8  9  1  0
 10  4  1  0
 10  9  1  0
 11  4  2  0
 12 15  1  0
 13 17  1  0
 13 14  1  0
 14  2  1  0
 14 12  1  0
 15 16  1  0
 17 15  1  0
 18 19  2  0
 19 38  1  0
 20 19  1  0
 20 23  1  0
 21 22  1  0
 21 18  1  0
 22 20  2  0
 23 24  1  0
 24 25  2  0
 26 29  1  0
 26 25  1  0
 27 26  2  0
 28 27  1  0
 28 23  2  0
 29 30  1  0
 30 31  1  0
 31 32  2  0
 33 32  1  0
 33 37  1  0
 34 33  2  0
 35 30  2  0
 35 34  1  0
 36 35  1  0
 38 39  1  0
 39 42  1  0
 39 41  1  0
 40 38  2  0
 43 18  1  0
 43 44  1  0
 45 43  1  0
 46  1  1  0
 46 47  1  0
 48 47  1  0
 49 48  1  0
 49 50  1  0
 51 62  2  0
 52 50  1  0
 52 57  1  0
 53 61  1  0
 53 63  1  0
 54 60  1  0
 54 56  1  0
 55 61  1  0
 56 57  2  0
 56 55  1  0
 58 52  2  0
 59 58  1  0
 59 54  2  0
 60 53  1  0
 61 51  1  0
 63 65  2  0
 64 63  1  0
 66 64  1  0
 67 76  2  0
 67 72  1  0
 68 64  1  0
 68 72  1  0
 69 68  1  0
 70 71  1  0
 70 69  1  0
 71 67  1  0
 72 73  2  0
 73 74  1  0
 75 74  2  0
 76 75  1  0
 77 51  1  0
 77 78  1  0
 77 87  1  0
 78 81  1  0
 79 83  1  0
 79 78  1  0
 80 79  2  0
 83 82  1  0
 85 83  1  0
 85 86  1  0
 85 84  1  0
 87 90  1  1
 87 88  1  0
 89 87  1  0
M  ISO  4   4 100  17 100  49 101  50 101
M  END
>  <TORSDO>  (26) 
F 21

>  <SCORE>  (26) 
-12.180

>  <name>  (26) 
25

>  <ligand_id>  (26) 
25

>  <original_smiles>  (26) 
[H]c1c([H])c([H])c2c(c1[H])C([H])([H])C([H])([H])C([H])([H])C2([H])N([H])C(=O)C1([H])N(C(=O)C([H])(N([H])C(=O)C([H])(N([H])C([H])([H])[H])C([H])([H])[H])C(C([H])([H])[H])(C([H])([H])[H])C([H])([H])[H])C([H])([H])c2c([H])c(OC([H])([H])C([H])([H])C([H])([H])C([H])([H])C([H])([H])C(=O)C3([H])C([H])([H])N(C(=O)N4C([H])([H])C([H])([H])C([H])([H])C([H])(n5nc(-c6c([H])c([H])c(Oc7c([H])c([H])c(F)c([H])c7F)c([H])c6[H])c(C(=O)N([H])[H])c5N([H])[H])C4([H])[H])C([H])(C([H])([H])[H])C3([H])[H])c([H])c([H])c2C1([H])[H]

>  <smiles>  (26) 
[H]c1c([H])c([H])c2c(c1[H])C([H])([H])C([H])([H])C([H])([H])C2([H])N([H])C(=O)C1([H])N(C(=O)C([H])(N([H])C(=O)C([H])(N([H])C([H])([H])[H])C([H])([H])[H])C(C([H])([H])[H])(C([H])([H])[H])C([H])([H])[H])C([H])([H])c2c([H])c(OC([H])([H])C([H])([H])C([H])([H])C([H])([H])C([H])([H])C(=O)C3([H])C([H])([H])N(C(=O)N4C([H])([H])C([H])([H])C([H])([H])C([H])(n5nc(-c6c([H])c([H])c(Oc7c([H])c([H])c(F)c([H])c7F)c([H])c6[H])c(C(=O)N([H])[H])c5N([H])[H])C4([H])[H])C([H])(C([H])([H])[H])C3([H])[H])c([H])c([H])c2C1([H])[H]

$$$$
26:0:0
     RDKit          3D

 94102  0  0  1  0  0  0  0  0999 V2000
  -29.8270  -21.3460   22.3850 C   0  0  0  0  0  2  0  0  0  0  0  0
  -30.3040  -19.2450   19.2060 C   0  0  0  0  0  2  0  0  0  0  0  0
  -30.3960  -20.4600   20.1440 C   0  0  0  0  0  2  0  0  0  0  0  0
  -30.4910  -18.9740   22.1100 C   0  0  0  0  0  2  0  0  0  0  0  0
  -30.9960  -18.0080   19.7980 C   0  0  0  0  0  3  0  0  0  0  0  0
  -30.3990  -17.7190   21.2020 C   0  0  0  0  0  3  0  0  0  0  0  0
  -32.5330  -18.1690   19.7630 C   0  0  0  0  0  1  0  0  0  0  0  0
  -29.8310  -20.1570   21.4900 N   0  0  1  0  0  4  0  0  0  0  0  0
  -28.8630  -19.9030   21.3620 H   0  0  0  0  0  0  0  0  0  0  0  0
  -30.9640  -16.4460   21.8870 C   0  0  0  0  0  2  0  0  0  0  0  0
  -30.8340  -14.4410   20.3580 C   0  0  0  0  0  0  0  0  0  0  0  0
  -30.4130  -12.3950   19.0420 C   0  0  0  0  0  2  0  0  0  0  0  0
  -29.4360  -12.6590   17.8810 C   0  0  0  0  0  2  0  0  0  0  0  0
  -27.9740  -12.5320   18.3500 C   0  0  0  0  0  2  0  0  0  0  0  0
  -27.6910  -13.3350   19.6470 C   0  0  0  0  0  3  0  0  0  0  0  0
  -28.7680  -13.0370   20.7130 C   0  0  0  0  0  2  0  0  0  0  0  0
  -30.0950  -13.3240   20.1340 N   0  0  0  0  0  0  0  0  0  0  0  0
  -31.8470  -14.7280   19.7150 O   0  0  0  0  0  0  0  0  0  0  0  0
  -30.3850  -15.2090   21.3590 N   0  0  0  0  0  0  0  0  0  0  0  0
  -29.5690  -14.8540   21.8360 H   0  0  0  0  0  0  0  0  0  0  0  0
  -25.3110  -13.9660   20.4130 C   0  0  0  0  0  0  0  0  0  0  0  0
  -24.2470  -13.2020   20.8090 C   0  0  0  0  0  0  0  0  0  0  0  0
  -24.6970  -11.8460   20.7660 C   0  0  0  0  0  0  0  0  0  0  0  0
  -26.3450  -13.0760   20.1560 N   0  0  0  0  0  0  0  0  0  0  0  0
  -25.9780  -11.7960   20.4230 N   0  0  0  0  0  0  0  0  0  0  0  0
  -23.9660  -10.5900   20.9760 C   0  0  0  0  0  0  0  0  0  0  0  0
  -24.4160   -9.6190   21.8970 C   0  0  0  0  0  3  0  0  0  0  0  0
  -23.6870   -8.4260   22.0930 C   0  0  0  0  0  3  0  0  0  0  0  0
  -22.4940   -8.1970   21.3680 C   0  0  0  0  0  0  0  0  0  0  0  0
  -22.0630   -9.1570   20.4350 C   0  0  0  0  0  3  0  0  0  0  0  0
  -22.7920  -10.3410   20.2380 C   0  0  0  0  0  3  0  0  0  0  0  0
  -21.7330   -7.0570   21.4750 O   0  0  0  0  0  0  0  0  0  0  0  0
  -21.7050   -6.3150   22.6280 C   0  0  0  0  0  0  0  0  0  0  0  0
  -21.3270   -6.8770   23.8670 C   0  0  0  0  0  3  0  0  0  0  0  0
  -21.2460   -6.0630   25.0140 C   0  0  0  0  0  3  0  0  0  0  0  0
  -21.5310   -4.6880   24.9230 C   0  0  0  0  0  0  0  0  0  0  0  0
  -21.9010   -4.1240   23.6890 C   0  0  0  0  0  3  0  0  0  0  0  0
  -21.9840   -4.9360   22.5450 C   0  0  0  0  0  0  0  0  0  0  0  0
  -22.3220   -4.3840   21.3540 F   0  0  0  0  0  0  0  0  0  0  0  0
  -21.4430   -3.9030   26.0220 F   0  0  0  0  0  0  0  0  0  0  0  0
  -22.8610  -13.6890   21.1180 C   0  0  0  0  0  0  0  0  0  0  0  0
  -22.1500  -13.0020   22.0040 N   0  0  0  0  0  0  0  0  0  0  0  0
  -22.4160  -14.7160   20.6060 O   0  0  0  0  0  0  0  0  0  0  0  0
  -22.5200  -12.1730   22.4440 H   0  0  0  0  0  0  0  0  0  0  0  0
  -21.2220  -13.3150   22.2510 H   0  0  0  0  0  0  0  0  0  0  0  0
  -25.4820  -15.3350   20.2330 N   0  0  0  0  0  0  0  0  0  0  0  0
  -24.7180  -15.9920   20.3600 H   0  0  0  0  0  0  0  0  0  0  0  0
  -26.3260  -15.7730   19.8860 H   0  0  0  0  0  0  0  0  0  0  0  0
  -28.7600  -22.3910   21.9800 C   0  0  0  0  0  2  0  0  0  0  0  0
  -29.1470  -24.2430   23.7070 C   0  0  0  0  0  1  0  0  0  0  0  0
  -29.1920  -23.8550   22.2200 C   0  0  0  0  0  3  0  0  0  0  0  0
  -28.3560  -24.8130   21.3430 C   0  0  0  0  0  2  0  0  0  0  0  0
  -28.9310  -26.2350   21.2310 C   0  0  0  0  0  2  0  0  0  0  0  0
  -28.4850  -26.8090   20.0080 O   0  0  0  0  0  0  0  0  0  0  0  0
  -24.6660  -31.8930   23.1960 C   0  0  0  0  0  0  0  0  0  0  0  0
  -27.3090  -27.5070   20.0850 C   0  0  0  0  0  0  0  0  0  0  0  0
  -23.4480  -30.4890   21.5590 C   0  0  0  0  0  3  0  0  0  0  0  0
  -24.8960  -28.9600   20.1220 C   0  0  0  0  0  0  0  0  0  0  0  0
  -25.9630  -30.8740   21.3290 C   0  0  0  0  0  2  0  0  0  0  0  0
  -26.0510  -29.5010   20.7040 C   0  0  0  0  0  0  0  0  0  0  0  0
  -27.2600  -28.7770   20.6930 C   0  0  0  0  0  3  0  0  0  0  0  0
  -26.1460  -26.9690   19.4960 C   0  0  0  0  0  3  0  0  0  0  0  0
  -24.9350  -27.6890   19.5190 C   0  0  0  0  0  3  0  0  0  0  0  0
  -23.6460  -29.8090   20.1770 C   0  0  0  0  0  2  0  0  0  0  0  0
  -24.7110  -31.1020   22.0870 N   0  0  0  0  0  0  0  0  0  0  0  0
  -23.5900  -32.1550   23.7500 O   0  0  0  0  0  0  0  0  0  0  0  0
  -22.8160  -29.4620   22.5240 C   0  0  0  0  0  0  0  0  0  0  0  0
  -21.4910  -29.2760   22.4140 N   0  0  0  0  0  0  0  0  0  0  0  0
  -23.5130  -28.8340   23.3250 O   0  0  0  0  0  0  0  0  0  0  0  0
  -20.9910  -29.8380   21.7390 H   0  0  0  0  0  0  0  0  0  0  0  0
  -18.1280  -28.0700   22.9400 C   0  0  0  0  0  0  0  0  0  0  0  0
  -20.6880  -28.3320   23.1880 C   0  0  0  0  0  3  0  0  0  0  0  0
  -20.7880  -26.9040   22.6050 C   0  0  0  0  0  2  0  0  0  0  0  0
  -19.6770  -26.5830   21.6000 C   0  0  0  0  0  2  0  0  0  0  0  0
  -18.3010  -26.7240   22.2570 C   0  0  0  0  0  2  0  0  0  0  0  0
  -19.2490  -28.8320   23.3620 C   0  0  0  0  0  0  0  0  0  0  0  0
  -19.0330  -30.0950   23.9560 C   0  0  0  0  0  3  0  0  0  0  0  0
  -17.7300  -30.5920   24.1370 C   0  0  0  0  0  3  0  0  0  0  0  0
  -16.6240  -29.8270   23.7290 C   0  0  0  0  0  3  0  0  0  0  0  0
  -16.8230  -28.5680   23.1360 C   0  0  0  0  0  3  0  0  0  0  0  0
  -25.9560  -32.5270   23.8050 C   0  0  0  0  0  3  0  0  0  0  0  0
  -25.6390  -33.9160   24.1600 N   0  0  0  0  0  0  0  0  0  0  0  0
  -25.9480  -34.9830   23.4100 C   0  0  0  0  0  0  0  0  0  0  0  0
  -26.6010  -34.9000   22.3650 O   0  0  0  0  0  0  0  0  0  0  0  0
  -25.0560  -34.0530   24.9740 H   0  0  0  0  0  0  0  0  0  0  0  0
  -24.1900  -36.7570   23.1120 C   0  0  0  0  0  1  0  0  0  0  0  0
  -25.4520  -36.3580   23.8930 C   0  0  0  0  0  3  0  0  0  0  0  0
  -27.5940  -37.2560   24.6880 C   0  0  0  0  0  1  0  0  0  0  0  0
  -26.4680  -37.4250   23.7730 N   0  0  0  0  0  0  0  0  0  0  0  0
  -26.0540  -38.3380   23.9440 H   0  0  0  0  0  0  0  0  0  0  0  0
  -26.5070  -31.7400   25.0550 C   0  0  1  0  0  0  0  0  0  0  0  0
  -25.4410  -31.4710   26.1430 C   0  0  0  0  0  1  0  0  0  0  0  0
  -27.0970  -30.3780   24.6210 C   0  0  0  0  0  1  0  0  0  0  0  0
  -27.6620  -32.5360   25.7080 C   0  0  0  0  0  1  0  0  0  0  0  0
  2  5  1  0
  2  3  1  0
  3  8  1  0
  5  7  1  0
  5  6  1  0
  6 10  1  0
  6  4  1  0
  8  4  1  0
  8  1  1  0
  8  9  1  6
 11 19  1  0
 12 17  1  0
 13 14  1  0
 13 12  1  0
 15 14  1  0
 15 24  1  0
 15 16  1  0
 17 11  1  0
 17 16  1  0
 18 11  2  0
 19 20  1  0
 19 10  1  0
 21 22  2  0
 22 41  1  0
 23 22  1  0
 23 26  1  0
 24 21  1  0
 24 25  1  0
 25 23  2  0
 26 27  1  0
 27 28  2  0
 29 32  1  0
 29 28  1  0
 30 29  2  0
 31 30  1  0
 31 26  2  0
 32 33  1  0
 33 34  1  0
 34 35  2  0
 36 35  1  0
 36 40  1  0
 37 36  2  0
 38 33  2  0
 38 37  1  0
 39 38  1  0
 41 42  1  0
 42 45  1  0
 42 44  1  0
 43 41  2  0
 46 47  1  0
 46 21  1  0
 48 46  1  0
 49 51  1  0
 49  1  1  0
 51 50  1  0
 52 51  1  0
 53 52  1  0
 54 56  1  0
 54 53  1  0
 55 66  2  0
 56 61  1  0
 57 65  1  0
 57 67  1  0
 58 64  1  0
 58 60  1  0
 59 65  1  0
 60 59  1  0
 61 60  2  0
 62 63  1  0
 62 56  2  0
 63 58  2  0
 64 57  1  0
 65 55  1  0
 67 69  2  0
 68 67  1  0
 70 68  1  0
 71 80  2  0
 71 76  1  0
 72 68  1  0
 72 76  1  0
 73 72  1  0
 74 75  1  0
 74 73  1  0
 75 71  1  0
 76 77  2  0
 77 78  1  0
 79 78  2  0
 80 79  1  0
 81 55  1  0
 81 82  1  0
 81 91  1  0
 82 85  1  0
 83 87  1  0
 83 82  1  0
 84 83  2  0
 87 86  1  0
 89 87  1  0
 89 90  1  0
 89 88  1  0
 91 94  1  1
 91 92  1  0
 93 91  1  0
M  ISO  4  11 100  19 100  53 101  54 101
M  END
>  <TORSDO>  (27) 
F 22

>  <SCORE>  (27) 
-13.076

>  <name>  (27) 
26

>  <ligand_id>  (27) 
26

>  <original_smiles>  (27) 
[H]c1c([H])c([H])c2c(c1[H])C([H])([H])C([H])([H])C([H])([H])C2([H])N([H])C(=O)C1([H])N(C(=O)C([H])(N([H])C(=O)C([H])(N([H])C([H])([H])[H])C([H])([H])[H])C(C([H])([H])[H])(C([H])([H])[H])C([H])([H])[H])C([H])([H])c2c([H])c(OC([H])([H])C([H])([H])C([H])(C([H])([H])[H])C([H])([H])C([H])([H])[N+]3([H])C([H])([H])C([H])([H])C([H])(C([H])([H])[H])C([H])(C([H])([H])N([H])C(=O)N4C([H])([H])C([H])([H])C([H])([H])C([H])(n5nc(-c6c([H])c([H])c(Oc7c([H])c([H])c(F)c([H])c7F)c([H])c6[H])c(C(=O)N([H])[H])c5N([H])[H])C4([H])[H])C3([H])[H])c([H])c([H])c2C1([H])[H]

>  <smiles>  (27) 
[H]c1c([H])c([H])c2c(c1[H])C([H])([H])C([H])([H])C([H])([H])C2([H])N([H])C(=O)C1([H])N(C(=O)C([H])(N([H])C(=O)C([H])(N([H])C([H])([H])[H])C([H])([H])[H])C(C([H])([H])[H])(C([H])([H])[H])C([H])([H])[H])C([H])([H])c2c([H])c(OC([H])([H])C([H])([H])C([H])(C([H])([H])[H])C([H])([H])C([H])([H])[N+]3([H])C([H])([H])C([H])([H])C([H])(C([H])([H])[H])C([H])(C([H])([H])N([H])C(=O)N4C([H])([H])C([H])([H])C([H])([H])C([H])(n5nc(-c6c([H])c([H])c(Oc7c([H])c([H])c(F)c([H])c7F)c([H])c6[H])c(C(=O)N([H])[H])c5N([H])[H])C4([H])[H])C3([H])[H])c([H])c([H])c2C1([H])[H]

$$$$
27:0:0
     RDKit          3D

 96104  0  0  1  0  0  0  0  0999 V2000
  -29.9750  -20.0810   18.9790 N   0  0  0  0  0  4  0  0  0  0  0  0
  -30.9500  -20.0920   19.2340 H   0  0  0  0  0  0  0  0  0  0  0  0
  -29.5490  -20.8850   19.4160 H   0  0  0  0  0  0  0  0  0  0  0  0
  -29.3150  -18.8920   19.5610 C   0  0  0  0  0  2  0  0  0  0  0  0
  -30.7400  -14.5030   20.7280 C   0  0  0  0  0  0  0  0  0  0  0  0
  -30.4550  -12.2760   19.7970 C   0  0  0  0  0  2  0  0  0  0  0  0
  -29.5810  -12.3870   18.5280 C   0  0  0  0  0  2  0  0  0  0  0  0
  -28.0920  -12.2950   18.8880 C   0  0  0  0  0  2  0  0  0  0  0  0
  -27.6810  -13.2390   20.0500 C   0  0  0  0  0  3  0  0  0  0  0  0
  -28.6770  -13.1590   21.2320 C   0  0  0  0  0  2  0  0  0  0  0  0
  -30.0350  -13.3470   20.7040 N   0  0  0  0  0  0  0  0  0  0  0  0
  -31.9650  -14.5540   20.6840 O   0  0  0  0  0  0  0  0  0  0  0  0
  -31.2430  -17.3010   19.0500 C   0  0  0  0  0  2  0  0  0  0  0  0
  -29.6930  -16.6750   20.8120 C   0  0  0  0  0  2  0  0  0  0  0  0
  -30.3450  -17.8990   20.1310 C   0  0  0  0  0  3  0  0  0  0  0  0
  -30.6100  -15.9520   18.7500 C   0  0  0  0  0  3  0  0  0  0  0  0
  -30.0990  -15.4810   20.0610 N   0  0  0  0  0  0  0  0  0  0  0  0
  -25.2460  -13.8610   20.6020 C   0  0  0  0  0  0  0  0  0  0  0  0
  -24.1600  -13.0900   20.9180 C   0  0  0  0  0  0  0  0  0  0  0  0
  -24.6250  -11.7370   20.9520 C   0  0  0  0  0  0  0  0  0  0  0  0
  -26.3070  -12.9780   20.4670 N   0  0  0  0  0  0  0  0  0  0  0  0
  -25.9330  -11.7000   20.7380 N   0  0  0  0  0  0  0  0  0  0  0  0
  -23.8930  -10.4760   21.1200 C   0  0  0  0  0  0  0  0  0  0  0  0
  -24.2870   -9.5160   22.0810 C   0  0  0  0  0  3  0  0  0  0  0  0
  -23.5590   -8.3150   22.2370 C   0  0  0  0  0  3  0  0  0  0  0  0
  -22.4210   -8.0660   21.4320 C   0  0  0  0  0  0  0  0  0  0  0  0
  -22.0470   -9.0130   20.4610 C   0  0  0  0  0  3  0  0  0  0  0  0
  -22.7750  -10.2060   20.3040 C   0  0  0  0  0  3  0  0  0  0  0  0
  -21.6630   -6.9200   21.5000 O   0  0  0  0  0  0  0  0  0  0  0  0
  -21.5870   -6.1770   22.6490 C   0  0  0  0  0  0  0  0  0  0  0  0
  -21.1450   -6.7360   23.8700 C   0  0  0  0  0  3  0  0  0  0  0  0
  -21.0150   -5.9180   25.0100 C   0  0  0  0  0  3  0  0  0  0  0  0
  -21.3170   -4.5440   24.9290 C   0  0  0  0  0  0  0  0  0  0  0  0
  -21.7540   -3.9870   23.7150 C   0  0  0  0  0  3  0  0  0  0  0  0
  -21.8860   -4.8010   22.5770 C   0  0  0  0  0  0  0  0  0  0  0  0
  -22.2910   -4.2570   21.4040 F   0  0  0  0  0  0  0  0  0  0  0  0
  -21.1820   -3.7570   26.0220 F   0  0  0  0  0  0  0  0  0  0  0  0
  -22.7470  -13.5600   21.0880 C   0  0  0  0  0  0  0  0  0  0  0  0
  -21.9730  -12.8740   21.9220 N   0  0  0  0  0  0  0  0  0  0  0  0
  -22.3350  -14.5670   20.5140 O   0  0  0  0  0  0  0  0  0  0  0  0
  -22.3190  -12.0500   22.3910 H   0  0  0  0  0  0  0  0  0  0  0  0
  -21.0240  -13.1690   22.0910 H   0  0  0  0  0  0  0  0  0  0  0  0
  -25.4270  -15.2270   20.3970 N   0  0  0  0  0  0  0  0  0  0  0  0
  -24.6680  -15.8980   20.4270 H   0  0  0  0  0  0  0  0  0  0  0  0
  -26.3190  -15.6410   20.1480 H   0  0  0  0  0  0  0  0  0  0  0  0
  -31.5120  -15.1530   17.8840 N   0  0  0  0  0  4  0  0  0  0  0  0
  -32.3760  -14.9320   18.3550 H   0  0  0  0  0  0  0  0  0  0  0  0
  -31.7410  -15.6710   17.0530 H   0  0  0  0  0  0  0  0  0  0  0  0
  -31.0840  -14.2970   17.5790 H   0  0  0  0  0  0  0  0  0  0  0  0
  -29.8270  -20.2580   17.5130 C   0  0  0  0  0  2  0  0  0  0  0  0
  -29.9820  -21.7270   17.1080 C   0  0  0  0  0  2  0  0  0  0  0  0
  -28.9390  -22.5970   17.8120 C   0  0  0  0  0  2  0  0  0  0  0  0
  -29.2450  -24.0830   17.6920 C   0  0  0  0  0  2  0  0  0  0  0  0
  -28.6300  -24.8080   18.8820 C   0  0  0  0  0  2  0  0  0  0  0  0
  -28.7270  -26.3170   18.7510 C   0  0  0  0  0  2  0  0  0  0  0  0
  -28.3930  -26.8530   20.0190 O   0  0  0  0  0  0  0  0  0  0  0  0
  -24.5530  -31.8670   23.2180 C   0  0  0  0  0  0  0  0  0  0  0  0
  -27.1810  -27.4840   20.0920 C   0  0  0  0  0  0  0  0  0  0  0  0
  -23.3320  -30.4690   21.5790 C   0  0  0  0  0  3  0  0  0  0  0  0
  -24.7730  -28.9390   20.1460 C   0  0  0  0  0  0  0  0  0  0  0  0
  -25.8510  -30.8370   21.3670 C   0  0  0  0  0  2  0  0  0  0  0  0
  -25.9290  -29.4710   20.7300 C   0  0  0  0  0  0  0  0  0  0  0  0
  -27.1320  -28.7410   20.7190 C   0  0  0  0  0  3  0  0  0  0  0  0
  -26.0040  -26.9410   19.5270 C   0  0  0  0  0  3  0  0  0  0  0  0
  -24.8000  -27.6650   19.5520 C   0  0  0  0  0  3  0  0  0  0  0  0
  -23.5280  -29.7920   20.1970 C   0  0  0  0  0  2  0  0  0  0  0  0
  -24.5970  -31.0730   22.1120 N   0  0  0  0  0  0  0  0  0  0  0  0
  -23.4750  -32.1380   23.7640 O   0  0  0  0  0  0  0  0  0  0  0  0
  -22.6930  -29.4410   22.5380 C   0  0  0  0  0  0  0  0  0  0  0  0
  -21.3650  -29.2670   22.4210 N   0  0  0  0  0  0  0  0  0  0  0  0
  -23.3830  -28.8040   23.3370 O   0  0  0  0  0  0  0  0  0  0  0  0
  -20.8700  -29.8400   21.7520 H   0  0  0  0  0  0  0  0  0  0  0  0
  -17.9880  -28.1050   22.9430 C   0  0  0  0  0  0  0  0  0  0  0  0
  -20.5500  -28.3290   23.1900 C   0  0  0  0  0  3  0  0  0  0  0  0
  -20.6300  -26.9020   22.5990 C   0  0  0  0  0  2  0  0  0  0  0  0
  -19.5140  -26.6020   21.5930 C   0  0  0  0  0  2  0  0  0  0  0  0
  -18.1420  -26.7600   22.2550 C   0  0  0  0  0  2  0  0  0  0  0  0
  -19.1200  -28.8500   23.3680 C   0  0  0  0  0  0  0  0  0  0  0  0
  -18.9240  -30.1120   23.9670 C   0  0  0  0  0  3  0  0  0  0  0  0
  -17.6270  -30.6300   24.1480 C   0  0  0  0  0  3  0  0  0  0  0  0
  -16.5090  -29.8800   23.7410 C   0  0  0  0  0  3  0  0  0  0  0  0
  -16.6900  -28.6190   23.1460 C   0  0  0  0  0  3  0  0  0  0  0  0
  -25.8480  -32.4890   23.8320 C   0  0  0  0  0  3  0  0  0  0  0  0
  -25.5440  -33.8820   24.1780 N   0  0  0  0  0  0  0  0  0  0  0  0
  -25.8670  -34.9390   23.4210 C   0  0  0  0  0  0  0  0  0  0  0  0
  -26.5250  -34.8460   22.3810 O   0  0  0  0  0  0  0  0  0  0  0  0
  -24.9630  -34.0320   24.9900 H   0  0  0  0  0  0  0  0  0  0  0  0
  -24.1300  -36.7280   23.0960 C   0  0  0  0  0  1  0  0  0  0  0  0
  -25.3800  -36.3210   23.8930 C   0  0  0  0  0  3  0  0  0  0  0  0
  -27.5210  -37.2030   24.7070 C   0  0  0  0  0  1  0  0  0  0  0  0
  -26.4080  -37.3790   23.7780 N   0  0  0  0  0  0  0  0  0  0  0  0
  -26.0020  -38.2960   23.9400 H   0  0  0  0  0  0  0  0  0  0  0  0
  -26.3810  -31.7030   25.0900 C   0  0  1  0  0  0  0  0  0  0  0  0
  -25.3030  -31.4480   26.1680 C   0  0  0  0  0  1  0  0  0  0  0  0
  -26.9620  -30.3330   24.6710 C   0  0  0  0  0  1  0  0  0  0  0  0
  -27.5390  -32.4890   25.7480 C   0  0  0  0  0  1  0  0  0  0  0  0
  1  2  1  0
  1  3  1  0
  1  4  1  0
  6 11  1  0
  7  8  1  0
  7  6  1  0
  9  8  1  0
  9 21  1  0
  9 10  1  0
 11  5  1  0
 11 10  1  0
 12  5  2  0
 13 15  1  0
 15  4  1  0
 15 14  1  0
 16 46  1  0
 16 13  1  0
 16 17  1  0
 17  5  1  0
 17 14  1  0
 18 19  2  0
 19 20  1  0
 19 38  1  0
 20 23  1  0
 21 18  1  0
 21 22  1  0
 22 20  2  0
 23 24  1  0
 24 25  2  0
 26 29  1  0
 26 25  1  0
 27 26  2  0
 28 27  1  0
 28 23  2  0
 29 30  1  0
 30 31  1  0
 31 32  2  0
 33 32  1  0
 33 37  1  0
 34 33  2  0
 35 30  2  0
 35 34  1  0
 36 35  1  0
 38 39  1  0
 39 42  1  0
 39 41  1  0
 40 38  2  0
 43 44  1  0
 43 18  1  0
 45 43  1  0
 46 47  1  0
 48 46  1  0
 49 46  1  0
 50  1  1  0
 51 50  1  0
 51 52  1  0
 53 52  1  0
 53 54  1  0
 55 54  1  0
 55 56  1  0
 56 58  1  0
 57 68  2  0
 58 63  1  0
 59 67  1  0
 59 69  1  0
 60 66  1  0
 60 62  1  0
 61 67  1  0
 62 61  1  0
 63 62  2  0
 64 65  1  0
 64 58  2  0
 65 60  2  0
 66 59  1  0
 67 57  1  0
 69 71  2  0
 70 69  1  0
 72 70  1  0
 73 82  2  0
 73 78  1  0
 74 70  1  0
 74 78  1  0
 75 74  1  0
 76 77  1  0
 76 75  1  0
 77 73  1  0
 78 79  2  0
 79 80  1  0
 81 80  2  0
 82 81  1  0
 83 57  1  0
 83 84  1  0
 83 93  1  0
 84 87  1  0
 85 89  1  0
 85 84  1  0
 86 85  2  0
 89 88  1  0
 91 89  1  0
 91 92  1  0
 91 90  1  0
 93 96  1  1
 93 94  1  0
 95 93  1  0
M  ISO  4   5 100  17 100  55 101  56 101
M  END
>  <TORSDO>  (28) 
F 24

>  <SCORE>  (28) 
-12.513

>  <name>  (28) 
27

>  <ligand_id>  (28) 
27

>  <original_smiles>  (28) 
[H]c1c([H])c([H])c2c(c1[H])C([H])([H])C([H])([H])C([H])([H])C2([H])N([H])C(=O)C1([H])N(C(=O)C([H])(N([H])C(=O)C([H])(N([H])C([H])([H])[H])C([H])([H])[H])C(C([H])([H])[H])(C([H])([H])[H])C([H])([H])[H])C([H])([H])c2c([H])c(OC([H])([H])C([H])([H])C([H])([H])C([H])([H])C([H])([H])C([H])([H])[N+]([H])([H])C([H])([H])C3([H])C([H])([H])N(C(=O)N4C([H])([H])C([H])([H])C([H])([H])C([H])(n5nc(-c6c([H])c([H])c(Oc7c([H])c([H])c(F)c([H])c7F)c([H])c6[H])c(C(=O)N([H])[H])c5N([H])[H])C4([H])[H])C([H])([N+]([H])([H])[H])C3([H])[H])c([H])c([H])c2C1([H])[H]

>  <smiles>  (28) 
[H]c1c([H])c([H])c2c(c1[H])C([H])([H])C([H])([H])C([H])([H])C2([H])N([H])C(=O)C1([H])N(C(=O)C([H])(N([H])C(=O)C([H])(N([H])C([H])([H])[H])C([H])([H])[H])C(C([H])([H])[H])(C([H])([H])[H])C([H])([H])[H])C([H])([H])c2c([H])c(OC([H])([H])C([H])([H])C([H])([H])C([H])([H])C([H])([H])C([H])([H])[N+]([H])([H])C([H])([H])C3([H])C([H])([H])N(C(=O)N4C([H])([H])C([H])([H])C([H])([H])C([H])(n5nc(-c6c([H])c([H])c(Oc7c([H])c([H])c(F)c([H])c7F)c([H])c6[H])c(C(=O)N([H])[H])c5N([H])[H])C4([H])[H])C([H])([N+]([H])([H])[H])C3([H])[H])c([H])c([H])c2C1([H])[H]

$$$$
28:0:0
     RDKit          3D

 94102  0  0  1  0  0  0  0  0999 V2000
  -30.0190  -19.9160   18.8730 C   0  0  0  0  0  2  0  0  0  0  0  0
  -28.9660  -18.4900   20.7120 C   0  0  0  0  0  2  0  0  0  0  0  0
  -29.5700  -21.4780   19.5750 C   0  0  0  0  0  3  0  0  0  0  0  0
  -30.1690  -18.3840   19.7390 C   0  0  0  0  0  3  0  0  0  0  0  0
  -28.7120  -19.8720   21.3940 C   0  0  0  0  0  3  0  0  0  0  0  0
  -28.3330  -21.0490   20.4160 C   0  0  0  0  0  3  0  0  0  0  0  0
  -30.9460  -15.5500   19.2470 C   0  0  0  0  0  0  0  0  0  0  0  0
  -30.8070  -13.1110   18.4030 C   0  0  0  0  0  2  0  0  0  0  0  0
  -29.7370  -12.9180   17.3020 C   0  0  0  0  0  2  0  0  0  0  0  0
  -28.3460  -12.6860   17.9200 C   0  0  0  0  0  2  0  0  0  0  0  0
  -28.0530  -13.6570   19.0910 C   0  0  0  0  0  3  0  0  0  0  0  0
  -29.2380  -13.7820   20.0700 C   0  0  0  0  0  2  0  0  0  0  0  0
  -30.3730  -14.2580   19.2650 N   0  0  0  0  0  0  0  0  0  0  0  0
  -32.1580  -15.5580   18.9940 O   0  0  0  0  0  0  0  0  0  0  0  0
  -30.1390  -16.7850   19.2810 N   0  0  0  0  0  0  0  0  0  0  0  0
  -29.1780  -16.4920   19.2020 H   0  0  0  0  0  0  0  0  0  0  0  0
  -25.8430  -14.2780   20.2110 C   0  0  0  0  0  0  0  0  0  0  0  0
  -24.7980  -13.5290   20.6710 C   0  0  0  0  0  0  0  0  0  0  0  0
  -25.1820  -12.1630   20.4890 C   0  0  0  0  0  0  0  0  0  0  0  0
  -26.7910  -13.3720   19.7640 N   0  0  0  0  0  0  0  0  0  0  0  0
  -26.4130  -12.0890   19.9970 N   0  0  0  0  0  0  0  0  0  0  0  0
  -24.4120  -10.9290   20.6950 C   0  0  0  0  0  0  0  0  0  0  0  0
  -24.8480   -9.9300   21.5950 C   0  0  0  0  0  3  0  0  0  0  0  0
  -24.0820   -8.7610   21.7920 C   0  0  0  0  0  3  0  0  0  0  0  0
  -22.8660   -8.5820   21.0870 C   0  0  0  0  0  0  0  0  0  0  0  0
  -22.4490   -9.5690   20.1760 C   0  0  0  0  0  3  0  0  0  0  0  0
  -23.2150  -10.7310   19.9780 C   0  0  0  0  0  3  0  0  0  0  0  0
  -22.0680   -7.4690   21.1950 O   0  0  0  0  0  0  0  0  0  0  0  0
  -21.9420   -6.7860   22.3800 C   0  0  0  0  0  0  0  0  0  0  0  0
  -21.4660   -7.4100   23.5530 C   0  0  0  0  0  3  0  0  0  0  0  0
  -21.2820   -6.6550   24.7280 C   0  0  0  0  0  3  0  0  0  0  0  0
  -21.5700   -5.2770   24.7320 C   0  0  0  0  0  0  0  0  0  0  0  0
  -22.0400   -4.6530   23.5630 C   0  0  0  0  0  3  0  0  0  0  0  0
  -22.2240   -5.4050   22.3900 C   0  0  0  0  0  0  0  0  0  0  0  0
  -22.6570   -4.7930   21.2610 F   0  0  0  0  0  0  0  0  0  0  0  0
  -21.3890   -4.5500   25.8580 F   0  0  0  0  0  0  0  0  0  0  0  0
  -23.4780  -14.0520   21.1600 C   0  0  0  0  0  0  0  0  0  0  0  0
  -22.8390  -13.3370   22.0760 N   0  0  0  0  0  0  0  0  0  0  0  0
  -23.0310  -15.1270   20.7630 O   0  0  0  0  0  0  0  0  0  0  0  0
  -23.2190  -12.4660   22.4130 H   0  0  0  0  0  0  0  0  0  0  0  0
  -21.9580  -13.6670   22.4470 H   0  0  0  0  0  0  0  0  0  0  0  0
  -26.0570  -15.6520   20.1120 N   0  0  0  0  0  0  0  0  0  0  0  0
  -25.3490  -16.3230   20.3890 H   0  0  0  0  0  0  0  0  0  0  0  0
  -26.8770  -16.0820   19.7100 H   0  0  0  0  0  0  0  0  0  0  0  0
  -27.7720  -22.1780   21.1790 N   0  0  0  0  0  4  0  0  0  0  0  0
  -28.4420  -22.5350   21.8360 H   0  0  0  0  0  0  0  0  0  0  0  0
  -26.9680  -21.8590   21.6890 H   0  0  0  0  0  0  0  0  0  0  0  0
  -27.4700  -22.9060   20.5610 H   0  0  0  0  0  0  0  0  0  0  0  0
  -27.6560  -19.6410   22.3770 N   0  0  0  0  0  0  0  0  0  0  0  0
  -26.7440  -19.5070   21.9540 H   0  0  0  0  0  0  0  0  0  0  0  0
  -27.5550  -20.3650   23.0830 H   0  0  0  0  0  0  0  0  0  0  0  0
  -29.4430  -23.1320   18.8680 C   0  0  0  0  0  3  0  0  0  0  0  0
  -28.7020  -24.6700   19.4140 C   0  0  0  0  0  3  0  0  0  0  0  0
  -28.6350  -26.2200   18.8970 O   0  0  0  0  0  0  0  0  0  0  0  0
  -24.7180  -31.5190   22.5950 C   0  0  0  0  0  0  0  0  0  0  0  0
  -27.5230  -27.1840   19.0550 C   0  0  0  0  0  0  0  0  0  0  0  0
  -23.5680  -30.1710   20.8820 C   0  0  0  0  0  3  0  0  0  0  0  0
  -25.0750  -28.8200   19.2800 C   0  0  0  0  0  0  0  0  0  0  0  0
  -26.0980  -30.6240   20.6550 C   0  0  0  0  0  2  0  0  0  0  0  0
  -26.2530  -29.2850   19.8780 C   0  0  0  0  0  0  0  0  0  0  0  0
  -27.4720  -28.4900   19.7420 C   0  0  0  0  0  3  0  0  0  0  0  0
  -26.3000  -26.8570   18.4330 C   0  0  0  0  0  3  0  0  0  0  0  0
  -25.1160  -27.6270   18.5430 C   0  0  0  0  0  3  0  0  0  0  0  0
  -23.7910  -29.6260   19.4450 C   0  0  0  0  0  2  0  0  0  0  0  0
  -24.8160  -30.7970   21.4310 N   0  0  0  0  0  0  0  0  0  0  0  0
  -23.6340  -31.6670   23.1790 O   0  0  0  0  0  0  0  0  0  0  0  0
  -23.0020  -29.0410   21.7790 C   0  0  0  0  0  0  0  0  0  0  0  0
  -21.6820  -28.7880   21.7030 N   0  0  0  0  0  0  0  0  0  0  0  0
  -23.7550  -28.3970   22.5130 O   0  0  0  0  0  0  0  0  0  0  0  0
  -21.1230  -29.3650   21.0930 H   0  0  0  0  0  0  0  0  0  0  0  0
  -18.4260  -27.3070   22.2730 C   0  0  0  0  0  0  0  0  0  0  0  0
  -20.9740  -27.7280   22.4270 C   0  0  0  0  0  3  0  0  0  0  0  0
  -21.1290  -26.3610   21.7190 C   0  0  0  0  0  2  0  0  0  0  0  0
  -20.0020  -26.0680   20.7250 C   0  0  0  0  0  2  0  0  0  0  0  0
  -18.6460  -26.0560   21.4360 C   0  0  0  0  0  2  0  0  0  0  0  0
  -19.5160  -28.1000   22.7220 C   0  0  0  0  0  0  0  0  0  0  0  0
  -19.2500  -29.2700   23.4640 C   0  0  0  0  0  3  0  0  0  0  0  0
  -17.9280  -29.6510   23.7610 C   0  0  0  0  0  3  0  0  0  0  0  0
  -16.8540  -28.8540   23.3260 C   0  0  0  0  0  3  0  0  0  0  0  0
  -17.1030  -27.6860   22.5880 C   0  0  0  0  0  3  0  0  0  0  0  0
  -25.9610  -32.2110   23.2370 C   0  0  0  0  0  3  0  0  0  0  0  0
  -26.6290  -31.3460   24.3750 C   0  0  1  0  0  0  0  0  0  0  0  0
  -25.6370  -30.8680   25.4620 C   0  0  0  0  0  1  0  0  0  0  0  0
  -27.3160  -30.0960   23.7850 C   0  0  0  0  0  1  0  0  0  0  0  0
  -27.7400  -32.1660   25.0730 C   0  0  0  0  0  1  0  0  0  0  0  0
  -25.5250  -33.5100   23.7770 N   0  0  0  0  0  0  0  0  0  0  0  0
  -25.6930  -34.6900   23.1650 C   0  0  0  0  0  0  0  0  0  0  0  0
  -26.2910  -34.8030   22.0920 O   0  0  0  0  0  0  0  0  0  0  0  0
  -24.9790  -33.4820   24.6260 H   0  0  0  0  0  0  0  0  0  0  0  0
  -23.7640  -36.3120   23.1960 C   0  0  0  0  0  1  0  0  0  0  0  0
  -25.1060  -35.9430   23.8500 C   0  0  0  0  0  3  0  0  0  0  0  0
  -27.1970  -36.9550   24.6540 C   0  0  0  0  0  1  0  0  0  0  0  0
  -26.0140  -37.1130   23.8110 N   0  0  0  0  0  0  0  0  0  0  0  0
  -25.5240  -37.9550   24.1030 H   0  0  0  0  0  0  0  0  0  0  0  0
  1  3  1  0
  1  4  1  0
  2  5  1  0
  3 52  1  0
  3  6  1  0
  4 15  1  0
  4  2  1  0
  5 49  1  0
  6 45  1  0
  6  5  1  0
  7 13  1  0
  7 15  1  0
  8 13  1  0
  9 10  1  0
  9  8  1  0
 11 10  1  0
 11 20  1  0
 11 12  1  0
 13 12  1  0
 14  7  2  0
 16 15  1  0
 17 18  2  0
 18 37  1  0
 19 18  1  0
 19 22  1  0
 20 21  1  0
 20 17  1  0
 21 19  2  0
 22 23  1  0
 23 24  2  0
 25 28  1  0
 25 24  1  0
 26 25  2  0
 27 26  1  0
 27 22  2  0
 28 29  1  0
 29 34  2  0
 29 30  1  0
 30 31  2  0
 31 32  1  0
 32 36  1  0
 33 32  2  0
 34 33  1  0
 35 34  1  0
 37 38  1  0
 38 40  1  0
 38 41  1  0
 39 37  2  0
 42 17  1  0
 42 43  1  0
 44 42  1  0
 45 47  1  0
 45 46  1  0
 48 45  1  0
 49 51  1  0
 50 49  1  0
 52 53  2  0
 54 56  1  0
 54 53  1  0
 55 66  2  0
 56 61  1  0
 57 65  1  0
 57 67  1  0
 58 64  1  0
 58 60  1  0
 59 65  1  0
 60 59  1  0
 61 60  2  0
 62 63  1  0
 62 56  2  0
 63 58  2  0
 64 57  1  0
 65 55  1  0
 67 69  2  0
 68 67  1  0
 70 68  1  0
 71 80  2  0
 71 76  1  0
 72 68  1  0
 72 76  1  0
 73 72  1  0
 74 75  1  0
 74 73  1  0
 75 71  1  0
 76 77  2  0
 77 78  1  0
 79 78  2  0
 80 79  1  0
 81 55  1  0
 81 86  1  0
 81 82  1  0
 82 85  1  1
 82 83  1  0
 84 82  1  0
 86 89  1  0
 87 86  1  0
 87 91  1  0
 88 87  2  0
 91 90  1  0
 93 91  1  0
 93 94  1  0
 93 92  1  0
M  ISO  4   7 100  15 100  53 101  54 101
M  END
>  <TORSDO>  (29) 
F 20

>  <SCORE>  (29) 
-6.900

>  <name>  (29) 
28

>  <ligand_id>  (29) 
28

>  <original_smiles>  (29) 
[H]c1c([H])c([H])c2c(c1[H])C([H])([H])C([H])([H])C([H])([H])C2([H])N([H])C(=O)C1([H])N(C(=O)C([H])(N([H])C(=O)C([H])(N([H])C([H])([H])[H])C([H])([H])[H])C(C([H])([H])[H])(C([H])([H])[H])C([H])([H])[H])C([H])([H])c2c([H])c(OC([H])([H])C([H])([H])C3([H])C([H])([H])C([H])(N([H])C(=O)N4C([H])([H])C([H])([H])C([H])([H])C([H])(n5nc(-c6c([H])c([H])c(Oc7c([H])c([H])c(F)c([H])c7F)c([H])c6[H])c(C(=O)N([H])[H])c5N([H])[H])C4([H])[H])C([H])([H])C([H])(N([H])[H])C3([H])[N+]([H])([H])[H])c([H])c([H])c2C1([H])[H]

>  <smiles>  (29) 
[H]c1c([H])c([H])c2c(c1[H])C([H])([H])C([H])([H])C([H])([H])C2([H])N([H])C(=O)C1([H])N(C(=O)C([H])(N([H])C(=O)C([H])(N([H])C([H])([H])[H])C([H])([H])[H])C(C([H])([H])[H])(C([H])([H])[H])C([H])([H])[H])C([H])([H])c2c([H])c(OC([H])([H])C([H])([H])C3([H])C([H])([H])C([H])(N([H])C(=O)N4C([H])([H])C([H])([H])C([H])([H])C([H])(n5nc(-c6c([H])c([H])c(Oc7c([H])c([H])c(F)c([H])c7F)c([H])c6[H])c(C(=O)N([H])[H])c5N([H])[H])C4([H])[H])C([H])([H])C([H])(N([H])[H])C3([H])[N+]([H])([H])[H])c([H])c([H])c2C1([H])[H]

$$$$
29:0:0
     RDKit          3D

 94102  0  0  1  0  0  0  0  0999 V2000
  -31.7910  -22.4920   20.8810 C   0  0  0  0  0  2  0  0  0  0  0  0
  -32.0900  -23.9000   20.3190 C   0  0  0  0  0  2  0  0  0  0  0  0
  -30.8620  -24.7480   19.9920 C   0  0  0  0  0  0  0  0  0  0  0  0
  -30.6130  -25.0490   18.8210 O   0  0  0  0  0  0  0  0  0  0  0  0
  -29.9910  -25.2160   21.1660 C   0  0  0  0  0  2  0  0  0  0  0  0
  -29.4100  -26.6390   21.0440 C   0  0  0  0  0  2  0  0  0  0  0  0
  -28.4640  -26.6610   19.9810 O   0  0  0  0  0  0  0  0  0  0  0  0
  -24.5930  -31.7420   23.2270 C   0  0  0  0  0  0  0  0  0  0  0  0
  -27.3310  -27.4330   20.0760 C   0  0  0  0  0  0  0  0  0  0  0  0
  -23.4210  -30.3710   21.5330 C   0  0  0  0  0  3  0  0  0  0  0  0
  -24.9120  -28.8850   20.0940 C   0  0  0  0  0  0  0  0  0  0  0  0
  -25.9410  -30.7680   21.3750 C   0  0  0  0  0  2  0  0  0  0  0  0
  -26.0520  -29.4140   20.7130 C   0  0  0  0  0  0  0  0  0  0  0  0
  -27.2670  -28.6940   20.7090 C   0  0  0  0  0  3  0  0  0  0  0  0
  -26.1790  -26.9180   19.4510 C   0  0  0  0  0  3  0  0  0  0  0  0
  -24.9660  -27.6320   19.4620 C   0  0  0  0  0  3  0  0  0  0  0  0
  -23.6560  -29.7260   20.1400 C   0  0  0  0  0  2  0  0  0  0  0  0
  -24.6690  -30.9730   22.1040 N   0  0  0  0  0  0  0  0  0  0  0  0
  -23.5040  -31.9880   23.7620 O   0  0  0  0  0  0  0  0  0  0  0  0
  -22.7710  -29.3180   22.4580 C   0  0  0  0  0  0  0  0  0  0  0  0
  -21.4570  -29.1020   22.2850 N   0  0  0  0  0  0  0  0  0  0  0  0
  -23.4450  -28.6990   23.2850 O   0  0  0  0  0  0  0  0  0  0  0  0
  -20.9740  -29.6550   21.5910 H   0  0  0  0  0  0  0  0  0  0  0  0
  -18.0950  -27.8390   22.6770 C   0  0  0  0  0  0  0  0  0  0  0  0
  -20.6410  -28.1330   23.0160 C   0  0  0  0  0  3  0  0  0  0  0  0
  -20.7830  -26.7180   22.4090 C   0  0  0  0  0  2  0  0  0  0  0  0
  -19.7100  -26.4000   21.3640 C   0  0  0  0  0  2  0  0  0  0  0  0
  -18.3120  -26.5080   21.9780 C   0  0  0  0  0  2  0  0  0  0  0  0
  -19.1900  -28.6100   23.1510 C   0  0  0  0  0  0  0  0  0  0  0  0
  -18.9380  -29.8570   23.7630 C   0  0  0  0  0  3  0  0  0  0  0  0
  -17.6210  -30.3330   23.9080 C   0  0  0  0  0  3  0  0  0  0  0  0
  -16.5400  -29.5590   23.4520 C   0  0  0  0  0  3  0  0  0  0  0  0
  -16.7780  -28.3140   22.8430 C   0  0  0  0  0  3  0  0  0  0  0  0
  -25.8680  -32.3660   23.8780 C   0  0  0  0  0  3  0  0  0  0  0  0
  -26.3490  -31.5970   25.1690 C   0  0  1  0  0  0  0  0  0  0  0  0
  -25.2200  -31.3330   26.1920 C   0  0  0  0  0  1  0  0  0  0  0  0
  -26.9720  -30.2330   24.7890 C   0  0  0  0  0  1  0  0  0  0  0  0
  -27.4580  -32.4070   25.8800 C   0  0  0  0  0  1  0  0  0  0  0  0
  -25.5600  -33.7680   24.1910 N   0  0  0  0  0  0  0  0  0  0  0  0
  -25.9380  -34.8140   23.4440 C   0  0  0  0  0  0  0  0  0  0  0  0
  -26.6530  -34.7010   22.4450 O   0  0  0  0  0  0  0  0  0  0  0  0
  -24.9310  -33.9300   24.9640 H   0  0  0  0  0  0  0  0  0  0  0  0
  -24.2410  -36.6180   23.0100 C   0  0  0  0  0  1  0  0  0  0  0  0
  -25.4440  -36.2080   23.8750 C   0  0  0  0  0  3  0  0  0  0  0  0
  -27.5440  -37.0840   24.7950 C   0  0  0  0  0  1  0  0  0  0  0  0
  -26.4900  -37.2520   23.8000 N   0  0  0  0  0  0  0  0  0  0  0  0
  -26.0840  -38.1760   23.9200 H   0  0  0  0  0  0  0  0  0  0  0  0
  -31.7480  -21.3560   19.8340 C   0  0  0  0  0  2  0  0  0  0  0  0
  -32.5370  -20.1180   20.3310 C   0  0  0  0  0  2  0  0  0  0  0  0
  -32.4870  -14.3080   19.1950 C   0  0  0  0  0  0  0  0  0  0  0  0
  -31.8570  -12.0900   18.3200 C   0  0  0  0  0  2  0  0  0  0  0  0
  -30.7840  -12.2460   17.2240 C   0  0  0  0  0  2  0  0  0  0  0  0
  -29.3700  -12.2920   17.8360 C   0  0  0  0  0  2  0  0  0  0  0  0
  -29.2640  -13.2860   19.0210 C   0  0  0  0  0  3  0  0  0  0  0  0
  -30.4240  -13.0790   20.0120 C   0  0  0  0  0  2  0  0  0  0  0  0
  -31.6940  -13.2030   19.2700 N   0  0  0  0  0  0  0  0  0  0  0  0
  -33.5060  -14.3550   18.4960 O   0  0  0  0  0  0  0  0  0  0  0  0
  -31.8120  -16.6310   18.8150 C   0  0  0  0  0  2  0  0  0  0  0  0
  -32.0720  -15.7280   21.1300 C   0  0  0  0  0  2  0  0  0  0  0  0
  -32.6170  -17.8770   19.2570 C   0  0  0  0  0  2  0  0  0  0  0  0
  -31.6140  -18.2170   21.5350 C   0  0  0  0  0  2  0  0  0  0  0  0
  -31.0390  -16.7780   21.5990 C   0  0  0  0  0  3  0  0  0  0  0  0
  -30.5840  -16.4550   23.0300 C   0  0  0  0  0  1  0  0  0  0  0  0
  -31.9560  -15.4510   19.6940 N   0  0  0  0  0  0  0  0  0  0  0  0
  -31.8710  -18.7870   20.1770 N   0  0  1  0  0  4  0  0  0  0  0  0
  -30.9680  -18.9640   19.7630 H   0  0  0  0  0  0  0  0  0  0  0  0
  -27.1310  -14.2040   20.1320 C   0  0  0  0  0  0  0  0  0  0  0  0
  -26.0170  -13.5800   20.6270 C   0  0  0  0  0  0  0  0  0  0  0  0
  -26.2370  -12.1810   20.4500 C   0  0  0  0  0  0  0  0  0  0  0  0
  -27.9670  -13.1910   19.6890 N   0  0  0  0  0  0  0  0  0  0  0  0
  -27.4410  -11.9650   19.9380 N   0  0  0  0  0  0  0  0  0  0  0  0
  -25.3490  -11.0350   20.6840 C   0  0  0  0  0  0  0  0  0  0  0  0
  -25.5690  -10.1380   21.7530 C   0  0  0  0  0  3  0  0  0  0  0  0
  -24.6930   -9.0540   21.9690 C   0  0  0  0  0  3  0  0  0  0  0  0
  -23.5790   -8.8610   21.1180 C   0  0  0  0  0  0  0  0  0  0  0  0
  -23.3770   -9.7420   20.0410 C   0  0  0  0  0  3  0  0  0  0  0  0
  -24.2550  -10.8180   19.8220 C   0  0  0  0  0  3  0  0  0  0  0  0
  -22.6860   -7.8210   21.2370 O   0  0  0  0  0  0  0  0  0  0  0  0
  -22.1610   -7.4590   22.4520 C   0  0  0  0  0  0  0  0  0  0  0  0
  -21.5230   -8.3930   23.2990 C   0  0  0  0  0  3  0  0  0  0  0  0
  -20.9360   -7.9630   24.5060 C   0  0  0  0  0  3  0  0  0  0  0  0
  -20.9750   -6.6020   24.8630 C   0  0  0  0  0  0  0  0  0  0  0  0
  -21.6060   -5.6710   24.0200 C   0  0  0  0  0  3  0  0  0  0  0  0
  -22.1940   -6.0980   22.8160 C   0  0  0  0  0  0  0  0  0  0  0  0
  -22.7810   -5.1920   21.9960 F   0  0  0  0  0  0  0  0  0  0  0  0
  -20.4060   -6.1870   26.0180 F   0  0  0  0  0  0  0  0  0  0  0  0
  -24.7730  -14.2440   21.1440 C   0  0  0  0  0  0  0  0  0  0  0  0
  -24.1300  -13.6510   22.1450 N   0  0  0  0  0  0  0  0  0  0  0  0
  -24.3900  -15.3210   20.6910 O   0  0  0  0  0  0  0  0  0  0  0  0
  -24.4570  -12.7780   22.5330 H   0  0  0  0  0  0  0  0  0  0  0  0
  -23.2970  -14.0760   22.5270 H   0  0  0  0  0  0  0  0  0  0  0  0
  -27.4960  -15.5430   20.0050 N   0  0  0  0  0  0  0  0  0  0  0  0
  -26.8740  -16.2990   20.2680 H   0  0  0  0  0  0  0  0  0  0  0  0
  -28.3380  -15.8620   19.5460 H   0  0  0  0  0  0  0  0  0  0  0  0
  2  1  1  0
  3  2  1  0
  3  5  1  0
  4  3  2  0
  6  5  1  0
  7  9  1  0
  7  6  1  0
  8 19  2  0
  9 14  1  0
 10 18  1  0
 10 20  1  0
 11 17  1  0
 11 13  1  0
 12 18  1  0
 13 12  1  0
 14 13  2  0
 15 16  1  0
 15  9  2  0
 16 11  2  0
 17 10  1  0
 18  8  1  0
 20 22  2  0
 21 20  1  0
 23 21  1  0
 24 33  2  0
 24 29  1  0
 25 21  1  0
 25 29  1  0
 26 25  1  0
 27 28  1  0
 27 26  1  0
 28 24  1  0
 29 30  2  0
 30 31  1  0
 32 31  2  0
 33 32  1  0
 34  8  1  0
 34 39  1  0
 34 35  1  0
 35 38  1  1
 35 36  1  0
 37 35  1  0
 39 42  1  0
 40 44  1  0
 40 39  1  0
 41 40  2  0
 44 43  1  0
 46 44  1  0
 46 47  1  0
 46 45  1  0
 48 49  1  0
 48  1  1  0
 50 56  1  0
 50 64  1  0
 51 56  1  0
 52 53  1  0
 52 51  1  0
 54 53  1  0
 54 70  1  0
 54 55  1  0
 56 55  1  0
 57 50  2  0
 58 60  1  0
 58 64  1  0
 59 62  1  0
 60 65  1  0
 61 62  1  0
 62 63  1  0
 64 59  1  0
 65 49  1  0
 65 61  1  0
 65 66  1  6
 67 68  2  0
 68 87  1  0
 69 68  1  0
 69 72  1  0
 70 71  1  0
 70 67  1  0
 71 69  2  0
 72 73  1  0
 73 74  2  0
 75 78  1  0
 75 74  1  0
 76 75  2  0
 77 76  1  0
 77 72  2  0
 78 79  1  0
 79 84  2  0
 79 80  1  0
 80 81  2  0
 81 82  1  0
 82 86  1  0
 83 82  2  0
 84 83  1  0
 85 84  1  0
 87 88  1  0
 88 91  1  0
 88 90  1  0
 89 87  2  0
 92 67  1  0
 92 93  1  0
 94 92  1  0
M  ISO  4   6 101   7 101  50 100  64 100
M  END
>  <TORSDO>  (30) 
F 22

>  <SCORE>  (30) 
-8.767

>  <name>  (30) 
29

>  <ligand_id>  (30) 
29

>  <original_smiles>  (30) 
[H]c1c([H])c([H])c2c(c1[H])C([H])([H])C([H])([H])C([H])([H])C2([H])N([H])C(=O)C1([H])N(C(=O)C([H])(N([H])C(=O)C([H])(N([H])C([H])([H])[H])C([H])([H])[H])C(C([H])([H])[H])(C([H])([H])[H])C([H])([H])[H])C([H])([H])c2c([H])c(OC([H])([H])C([H])([H])C(=O)C([H])([H])C([H])([H])C([H])([H])C([H])([H])[N+]3([H])C([H])([H])C([H])([H])N(C(=O)N4C([H])([H])C([H])([H])C([H])([H])C([H])(n5nc(-c6c([H])c([H])c(Oc7c([H])c([H])c(F)c([H])c7F)c([H])c6[H])c(C(=O)N([H])[H])c5N([H])[H])C4([H])[H])C([H])([H])C([H])(C([H])([H])[H])C3([H])[H])c([H])c([H])c2C1([H])[H]

>  <smiles>  (30) 
[H]c1c([H])c([H])c2c(c1[H])C([H])([H])C([H])([H])C([H])([H])C2([H])N([H])C(=O)C1([H])N(C(=O)C([H])(N([H])C(=O)C([H])(N([H])C([H])([H])[H])C([H])([H])[H])C(C([H])([H])[H])(C([H])([H])[H])C([H])([H])[H])C([H])([H])c2c([H])c(OC([H])([H])C([H])([H])C(=O)C([H])([H])C([H])([H])C([H])([H])C([H])([H])[N+]3([H])C([H])([H])C([H])([H])N(C(=O)N4C([H])([H])C([H])([H])C([H])([H])C([H])(n5nc(-c6c([H])c([H])c(Oc7c([H])c([H])c(F)c([H])c7F)c([H])c6[H])c(C(=O)N([H])[H])c5N([H])[H])C4([H])[H])C([H])([H])C([H])(C([H])([H])[H])C3([H])[H])c([H])c([H])c2C1([H])[H]

$$$$
30:0:0
     RDKit          3D

 92100  0  0  1  0  0  0  0  0999 V2000
  -29.5860  -23.3900   19.9690 C   0  0  0  0  0  0  0  0  0  0  0  0
  -28.6220  -23.6620   19.2480 O   0  0  0  0  0  0  0  0  0  0  0  0
  -29.9730  -21.9410   20.2950 C   0  0  0  0  0  2  0  0  0  0  0  0
  -29.1870  -20.8910   19.4850 C   0  0  0  0  0  2  0  0  0  0  0  0
  -30.6720  -18.8260   19.4450 C   0  0  0  0  0  3  0  0  0  0  0  0
  -28.5970  -18.7420   20.7090 C   0  0  0  0  0  3  0  0  0  0  0  0
  -30.9260  -17.4770   19.7700 C   0  0  0  0  0  3  0  0  0  0  0  0
  -28.8470  -17.3930   21.0330 C   0  0  0  0  0  3  0  0  0  0  0  0
  -29.4980  -19.4610   19.8980 C   0  0  0  0  0  0  0  0  0  0  0  0
  -30.0010  -16.7380   20.5510 C   0  0  0  0  0  0  0  0  0  0  0  0
  -30.7670  -14.4090   20.1400 C   0  0  0  0  0  0  0  0  0  0  0  0
  -30.3820  -12.2970   18.9360 C   0  0  0  0  0  2  0  0  0  0  0  0
  -29.3930  -12.5740   17.7830 C   0  0  0  0  0  2  0  0  0  0  0  0
  -27.9340  -12.4550   18.2700 C   0  0  0  0  0  2  0  0  0  0  0  0
  -27.6720  -13.2540   19.5760 C   0  0  0  0  0  3  0  0  0  0  0  0
  -28.7650  -12.9520   20.6260 C   0  0  0  0  0  2  0  0  0  0  0  0
  -30.0800  -13.2410   20.0210 N   0  0  0  0  0  0  0  0  0  0  0  0
  -31.8500  -14.6070   19.5820 O   0  0  0  0  0  0  0  0  0  0  0  0
  -30.1380  -15.3520   20.8600 N   0  0  0  0  0  0  0  0  0  0  0  0
  -29.3890  -14.9760   21.4210 H   0  0  0  0  0  0  0  0  0  0  0  0
  -25.3070  -13.8890   20.3760 C   0  0  0  0  0  0  0  0  0  0  0  0
  -24.2450  -13.1260   20.7820 C   0  0  0  0  0  0  0  0  0  0  0  0
  -24.6870  -11.7700   20.7240 C   0  0  0  0  0  0  0  0  0  0  0  0
  -26.3330  -12.9960   20.1010 N   0  0  0  0  0  0  0  0  0  0  0  0
  -25.9630  -11.7160   20.3640 N   0  0  0  0  0  0  0  0  0  0  0  0
  -23.9550  -10.5140   20.9360 C   0  0  0  0  0  0  0  0  0  0  0  0
  -24.3990   -9.5470   21.8630 C   0  0  0  0  0  3  0  0  0  0  0  0
  -23.6680   -8.3560   22.0620 C   0  0  0  0  0  3  0  0  0  0  0  0
  -22.4770   -8.1240   21.3330 C   0  0  0  0  0  0  0  0  0  0  0  0
  -22.0510   -9.0800   20.3940 C   0  0  0  0  0  3  0  0  0  0  0  0
  -22.7840  -10.2620   20.1940 C   0  0  0  0  0  3  0  0  0  0  0  0
  -21.7160   -6.9860   21.4410 O   0  0  0  0  0  0  0  0  0  0  0  0
  -21.6680   -6.2600   22.6040 C   0  0  0  0  0  0  0  0  0  0  0  0
  -21.2670   -6.8380   23.8270 C   0  0  0  0  0  3  0  0  0  0  0  0
  -21.1640   -6.0390   24.9840 C   0  0  0  0  0  3  0  0  0  0  0  0
  -21.4520   -4.6640   24.9180 C   0  0  0  0  0  0  0  0  0  0  0  0
  -21.8470   -4.0840   23.6990 C   0  0  0  0  0  3  0  0  0  0  0  0
  -21.9510   -4.8800   22.5440 C   0  0  0  0  0  0  0  0  0  0  0  0
  -22.3110   -4.3130   21.3680 F   0  0  0  0  0  0  0  0  0  0  0  0
  -21.3470   -3.8940   26.0260 F   0  0  0  0  0  0  0  0  0  0  0  0
  -22.8650  -13.6180   21.1150 C   0  0  0  0  0  0  0  0  0  0  0  0
  -22.1660  -12.9270   22.0090 N   0  0  0  0  0  0  0  0  0  0  0  0
  -22.4150  -14.6490   20.6160 O   0  0  0  0  0  0  0  0  0  0  0  0
  -22.5420  -12.0930   22.4340 H   0  0  0  0  0  0  0  0  0  0  0  0
  -21.2420  -13.2380   22.2740 H   0  0  0  0  0  0  0  0  0  0  0  0
  -25.4830  -15.2580   20.2000 N   0  0  0  0  0  0  0  0  0  0  0  0
  -24.7300  -15.9220   20.3410 H   0  0  0  0  0  0  0  0  0  0  0  0
  -26.3280  -15.6870   19.8420 H   0  0  0  0  0  0  0  0  0  0  0  0
  -30.4470  -24.4950   20.5840 C   0  0  0  0  0  2  0  0  0  0  0  0
  -29.7070  -25.3440   21.6410 C   0  0  0  0  0  2  0  0  0  0  0  0
  -29.2880  -26.7480   21.1700 C   0  0  0  0  0  2  0  0  0  0  0  0
  -28.3390  -26.6510   20.1110 O   0  0  0  0  0  0  0  0  0  0  0  0
  -24.5700  -31.8760   23.2170 C   0  0  0  0  0  0  0  0  0  0  0  0
  -27.2090  -27.4370   20.1610 C   0  0  0  0  0  0  0  0  0  0  0  0
  -23.3520  -30.4670   21.5840 C   0  0  0  0  0  3  0  0  0  0  0  0
  -24.8020  -28.9210   20.1650 C   0  0  0  0  0  0  0  0  0  0  0  0
  -25.8720  -30.8330   21.3700 C   0  0  0  0  0  2  0  0  0  0  0  0
  -25.9580  -29.4570   20.7450 C   0  0  0  0  0  0  0  0  0  0  0  0
  -27.1630  -28.7270   20.7430 C   0  0  0  0  0  3  0  0  0  0  0  0
  -26.0420  -26.9150   19.5690 C   0  0  0  0  0  3  0  0  0  0  0  0
  -24.8370  -27.6460   19.5720 C   0  0  0  0  0  3  0  0  0  0  0  0
  -23.5560  -29.7750   20.2080 C   0  0  0  0  0  2  0  0  0  0  0  0
  -24.6160  -31.0730   22.1150 N   0  0  0  0  0  0  0  0  0  0  0  0
  -23.4930  -32.1510   23.7610 O   0  0  0  0  0  0  0  0  0  0  0  0
  -22.7070  -29.4520   22.5540 C   0  0  0  0  0  0  0  0  0  0  0  0
  -21.3800  -29.2770   22.4370 N   0  0  0  0  0  0  0  0  0  0  0  0
  -23.3930  -28.8260   23.3650 O   0  0  0  0  0  0  0  0  0  0  0  0
  -20.8880  -29.8330   21.7520 H   0  0  0  0  0  0  0  0  0  0  0  0
  -18.0040  -28.1070   22.9560 C   0  0  0  0  0  0  0  0  0  0  0  0
  -20.5640  -28.3470   23.2160 C   0  0  0  0  0  3  0  0  0  0  0  0
  -20.6550  -26.9140   22.6430 C   0  0  0  0  0  2  0  0  0  0  0  0
  -19.5460  -26.5950   21.6360 C   0  0  0  0  0  2  0  0  0  0  0  0
  -18.1680  -26.7540   22.2850 C   0  0  0  0  0  2  0  0  0  0  0  0
  -19.1300  -28.8620   23.3790 C   0  0  0  0  0  0  0  0  0  0  0  0
  -18.9230  -30.1300   23.9650 C   0  0  0  0  0  3  0  0  0  0  0  0
  -17.6230  -30.6420   24.1340 C   0  0  0  0  0  3  0  0  0  0  0  0
  -16.5120  -29.8830   23.7280 C   0  0  0  0  0  3  0  0  0  0  0  0
  -16.7020  -28.6180   23.1440 C   0  0  0  0  0  3  0  0  0  0  0  0
  -25.8630  -32.5050   23.8270 C   0  0  0  0  0  3  0  0  0  0  0  0
  -25.5570  -33.9020   24.1600 N   0  0  0  0  0  0  0  0  0  0  0  0
  -25.8830  -34.9530   23.3980 C   0  0  0  0  0  0  0  0  0  0  0  0
  -26.5430  -34.8490   22.3600 O   0  0  0  0  0  0  0  0  0  0  0  0
  -24.9700  -34.0560   24.9670 H   0  0  0  0  0  0  0  0  0  0  0  0
  -24.1470  -36.7400   23.0620 C   0  0  0  0  0  1  0  0  0  0  0  0
  -25.3990  -36.3410   23.8580 C   0  0  0  0  0  3  0  0  0  0  0  0
  -27.5460  -37.2270   24.6570 C   0  0  0  0  0  1  0  0  0  0  0  0
  -26.4280  -37.3960   23.7320 N   0  0  0  0  0  0  0  0  0  0  0  0
  -26.0220  -38.3140   23.8920 H   0  0  0  0  0  0  0  0  0  0  0  0
  -26.3930  -31.7290   25.0940 C   0  0  1  0  0  0  0  0  0  0  0  0
  -25.3120  -31.4900   26.1730 C   0  0  0  0  0  1  0  0  0  0  0  0
  -26.9700  -30.3540   24.6870 C   0  0  0  0  0  1  0  0  0  0  0  0
  -27.5520  -32.5200   25.7450 C   0  0  0  0  0  1  0  0  0  0  0  0
  1  3  1  0
  1 49  1  0
  2  1  2  0
  4  9  1  0
  4  3  1  0
  5  7  2  0
  5  9  1  0
  6  8  1  0
  7 10  1  0
  9  6  2  0
 10 19  1  0
 10  8  2  0
 11 19  1  0
 12 17  1  0
 13 14  1  0
 13 12  1  0
 15 14  1  0
 15 24  1  0
 15 16  1  0
 17 11  1  0
 17 16  1  0
 18 11  2  0
 19 20  1  0
 21 22  2  0
 22 41  1  0
 23 22  1  0
 23 26  1  0
 24 25  1  0
 24 21  1  0
 25 23  2  0
 26 27  1  0
 27 28  2  0
 29 32  1  0
 29 28  1  0
 30 29  2  0
 31 30  1  0
 31 26  2  0
 32 33  1  0
 33 34  1  0
 34 35  2  0
 36 35  1  0
 36 40  1  0
 37 36  2  0
 38 33  2  0
 38 37  1  0
 39 38  1  0
 41 42  1  0
 42 45  1  0
 42 44  1  0
 43 41  2  0
 46 47  1  0
 46 21  1  0
 48 46  1  0
 49 50  1  0
 51 50  1  0
 52 54  1  0
 52 51  1  0
 53 64  2  0
 54 59  1  0
 55 63  1  0
 55 65  1  0
 56 62  1  0
 56 58  1  0
 57 63  1  0
 58 57  1  0
 59 58  2  0
 60 61  1  0
 60 54  2  0
 61 56  2  0
 62 55  1  0
 63 53  1  0
 65 67  2  0
 66 65  1  0
 68 66  1  0
 69 78  2  0
 69 74  1  0
 70 66  1  0
 70 74  1  0
 71 70  1  0
 72 73  1  0
 72 71  1  0
 73 69  1  0
 74 75  2  0
 75 76  1  0
 77 76  2  0
 78 77  1  0
 79 53  1  0
 79 80  1  0
 79 89  1  0
 80 83  1  0
 81 85  1  0
 81 80  1  0
 82 81  2  0
 85 84  1  0
 87 85  1  0
 87 88  1  0
 87 86  1  0
 89 92  1  1
 89 90  1  0
 91 89  1  0
M  ISO  4  11 100  19 100  51 101  52 101
M  END
>  <TORSDO>  (31) 
F 22

>  <SCORE>  (31) 
-12.941

>  <name>  (31) 
30

>  <ligand_id>  (31) 
30

>  <original_smiles>  (31) 
[H]c1c([H])c([H])c2c(c1[H])C([H])([H])C([H])([H])C([H])([H])C2([H])N([H])C(=O)C1([H])N(C(=O)C([H])(N([H])C(=O)C([H])(N([H])C([H])([H])[H])C([H])([H])[H])C(C([H])([H])[H])(C([H])([H])[H])C([H])([H])[H])C([H])([H])c2c([H])c(OC([H])([H])C([H])([H])C([H])([H])C(=O)C([H])([H])C([H])([H])c3c([H])c([H])c(N([H])C(=O)N4C([H])([H])C([H])([H])C([H])([H])C([H])(n5nc(-c6c([H])c([H])c(Oc7c([H])c([H])c(F)c([H])c7F)c([H])c6[H])c(C(=O)N([H])[H])c5N([H])[H])C4([H])[H])c([H])c3[H])c([H])c([H])c2C1([H])[H]

>  <smiles>  (31) 
[H]c1c([H])c([H])c2c(c1[H])C([H])([H])C([H])([H])C([H])([H])C2([H])N([H])C(=O)C1([H])N(C(=O)C([H])(N([H])C(=O)C([H])(N([H])C([H])([H])[H])C([H])([H])[H])C(C([H])([H])[H])(C([H])([H])[H])C([H])([H])[H])C([H])([H])c2c([H])c(OC([H])([H])C([H])([H])C([H])([H])C(=O)C([H])([H])C([H])([H])c3c([H])c([H])c(N([H])C(=O)N4C([H])([H])C([H])([H])C([H])([H])C([H])(n5nc(-c6c([H])c([H])c(Oc7c([H])c([H])c(F)c([H])c7F)c([H])c6[H])c(C(=O)N([H])[H])c5N([H])[H])C4([H])[H])c([H])c3[H])c([H])c([H])c2C1([H])[H]

$$$$
31:0:0
     RDKit          3D

 94102  0  0  1  0  0  0  0  0999 V2000
  -28.9770  -21.2440   20.0590 C   0  0  0  0  0  0  0  0  0  0  0  0
  -28.8110  -22.4940   20.6110 N   0  0  0  0  0  0  0  0  0  0  0  0
  -28.8320  -21.0900   18.8470 O   0  0  0  0  0  0  0  0  0  0  0  0
  -28.9190  -22.5630   21.6160 H   0  0  0  0  0  0  0  0  0  0  0  0
  -30.6720  -20.3430   21.7760 C   0  0  0  0  0  2  0  0  0  0  0  0
  -32.0100  -20.0750   21.0440 C   0  0  0  0  0  2  0  0  0  0  0  0
  -30.9240  -18.8140   19.1750 C   0  0  0  0  0  2  0  0  0  0  0  0
  -29.4240  -19.9760   20.9290 C   0  0  0  0  0  3  0  0  0  0  0  0
  -29.7390  -18.5760   20.1650 C   0  0  0  0  0  3  0  0  0  0  0  0
  -31.8440  -19.9130   19.5810 N   0  0  0  0  0  4  0  0  0  0  0  0
  -32.7490  -19.7550   19.1650 H   0  0  0  0  0  0  0  0  0  0  0  0
  -31.5090  -20.7830   19.1980 H   0  0  0  0  0  0  0  0  0  0  0  0
  -30.0150  -17.2610   21.0840 C   0  0  0  0  0  2  0  0  0  0  0  0
  -30.5770  -14.7450   20.3670 C   0  0  0  0  0  0  0  0  0  0  0  0
  -30.4140  -12.4790   19.3180 C   0  0  0  0  0  2  0  0  0  0  0  0
  -29.4640  -12.5450   18.0990 C   0  0  0  0  0  2  0  0  0  0  0  0
  -27.9950  -12.3640   18.5340 C   0  0  0  0  0  2  0  0  0  0  0  0
  -27.6190  -13.2510   19.7510 C   0  0  0  0  0  3  0  0  0  0  0  0
  -28.6790  -13.1470   20.8690 C   0  0  0  0  0  2  0  0  0  0  0  0
  -29.9730  -13.5140   20.2770 N   0  0  0  0  0  0  0  0  0  0  0  0
  -31.7630  -14.8910   20.0610 O   0  0  0  0  0  0  0  0  0  0  0  0
  -29.7550  -15.8270   20.6270 N   0  0  0  0  0  0  0  0  0  0  0  0
  -28.7990  -15.5360   20.7650 H   0  0  0  0  0  0  0  0  0  0  0  0
  -25.2310  -13.8480   20.4800 C   0  0  0  0  0  0  0  0  0  0  0  0
  -24.1670  -13.0760   20.8570 C   0  0  0  0  0  0  0  0  0  0  0  0
  -24.6330  -11.7240   20.8340 C   0  0  0  0  0  0  0  0  0  0  0  0
  -26.2760  -12.9680   20.2460 N   0  0  0  0  0  0  0  0  0  0  0  0
  -25.9230  -11.6870   20.5230 N   0  0  0  0  0  0  0  0  0  0  0  0
  -23.9100  -10.4610   21.0320 C   0  0  0  0  0  0  0  0  0  0  0  0
  -24.3500   -9.4950   21.9640 C   0  0  0  0  0  3  0  0  0  0  0  0
  -23.6260   -8.2980   22.1490 C   0  0  0  0  0  3  0  0  0  0  0  0
  -22.4490   -8.0590   21.4030 C   0  0  0  0  0  0  0  0  0  0  0  0
  -22.0260   -9.0150   20.4620 C   0  0  0  0  0  3  0  0  0  0  0  0
  -22.7500  -10.2020   20.2750 C   0  0  0  0  0  3  0  0  0  0  0  0
  -21.6950   -6.9150   21.4970 O   0  0  0  0  0  0  0  0  0  0  0  0
  -21.6630   -6.1650   22.6470 C   0  0  0  0  0  0  0  0  0  0  0  0
  -21.2630   -6.7170   23.8840 C   0  0  0  0  0  3  0  0  0  0  0  0
  -21.1790   -5.8960   25.0260 C   0  0  0  0  0  3  0  0  0  0  0  0
  -21.4820   -4.5240   24.9310 C   0  0  0  0  0  0  0  0  0  0  0  0
  -21.8760   -3.9730   23.7000 C   0  0  0  0  0  3  0  0  0  0  0  0
  -21.9620   -4.7920   22.5590 C   0  0  0  0  0  0  0  0  0  0  0  0
  -22.3210   -4.2500   21.3700 F   0  0  0  0  0  0  0  0  0  0  0  0
  -21.3940   -3.7340   26.0270 F   0  0  0  0  0  0  0  0  0  0  0  0
  -22.7680  -13.5500   21.1220 C   0  0  0  0  0  0  0  0  0  0  0  0
  -22.0410  -12.8570   21.9890 N   0  0  0  0  0  0  0  0  0  0  0  0
  -22.3280  -14.5710   20.5930 O   0  0  0  0  0  0  0  0  0  0  0  0
  -22.4110  -12.0340   22.4390 H   0  0  0  0  0  0  0  0  0  0  0  0
  -21.1010  -13.1530   22.2060 H   0  0  0  0  0  0  0  0  0  0  0  0
  -25.3910  -15.2180   20.2930 N   0  0  0  0  0  0  0  0  0  0  0  0
  -24.6120  -15.8580   20.3940 H   0  0  0  0  0  0  0  0  0  0  0  0
  -26.2160  -15.6600   19.9100 H   0  0  0  0  0  0  0  0  0  0  0  0
  -28.6350  -23.8140   19.8850 C   0  0  0  0  0  3  0  0  0  0  0  0
  -28.1230  -25.0760   20.7210 C   0  0  0  0  0  3  0  0  0  0  0  0
  -28.3190  -26.4560   20.2010 O   0  0  0  0  0  0  0  0  0  0  0  0
  -24.6260  -31.8770   23.2390 C   0  0  0  0  0  0  0  0  0  0  0  0
  -27.2110  -27.3120   20.1820 C   0  0  0  0  0  0  0  0  0  0  0  0
  -23.4150  -30.4790   21.6030 C   0  0  0  0  0  3  0  0  0  0  0  0
  -24.8540  -28.9270   20.1700 C   0  0  0  0  0  0  0  0  0  0  0  0
  -25.9530  -30.7960   21.4020 C   0  0  0  0  0  2  0  0  0  0  0  0
  -26.0260  -29.4150   20.7620 C   0  0  0  0  0  0  0  0  0  0  0  0
  -27.2120  -28.6210   20.7540 C   0  0  0  0  0  3  0  0  0  0  0  0
  -26.0220  -26.8740   19.5610 C   0  0  0  0  0  3  0  0  0  0  0  0
  -24.8560  -27.6630   19.5570 C   0  0  0  0  0  3  0  0  0  0  0  0
  -23.6210  -29.8060   20.2210 C   0  0  0  0  0  2  0  0  0  0  0  0
  -24.6860  -31.0680   22.1390 N   0  0  0  0  0  0  0  0  0  0  0  0
  -23.5450  -32.1530   23.7760 O   0  0  0  0  0  0  0  0  0  0  0  0
  -22.7600  -29.4590   22.5670 C   0  0  0  0  0  0  0  0  0  0  0  0
  -21.4350  -29.2790   22.4430 N   0  0  0  0  0  0  0  0  0  0  0  0
  -23.4440  -28.8350   23.3840 O   0  0  0  0  0  0  0  0  0  0  0  0
  -20.9420  -29.8320   21.7540 H   0  0  0  0  0  0  0  0  0  0  0  0
  -18.0640  -28.0820   22.9530 C   0  0  0  0  0  0  0  0  0  0  0  0
  -20.6220  -28.3430   23.2200 C   0  0  0  0  0  3  0  0  0  0  0  0
  -20.7270  -26.9110   22.6470 C   0  0  0  0  0  2  0  0  0  0  0  0
  -19.6240  -26.5850   21.6370 C   0  0  0  0  0  2  0  0  0  0  0  0
  -18.2420  -26.7320   22.2830 C   0  0  0  0  0  2  0  0  0  0  0  0
  -19.1820  -28.8450   23.3820 C   0  0  0  0  0  0  0  0  0  0  0  0
  -18.9650  -30.1100   23.9680 C   0  0  0  0  0  3  0  0  0  0  0  0
  -17.6600  -30.6070   24.1450 C   0  0  0  0  0  3  0  0  0  0  0  0
  -16.5560  -29.8400   23.7340 C   0  0  0  0  0  3  0  0  0  0  0  0
  -16.7580  -28.5830   23.1400 C   0  0  0  0  0  3  0  0  0  0  0  0
  -25.9130  -32.5100   23.8540 C   0  0  0  0  0  3  0  0  0  0  0  0
  -26.4360  -31.7380   25.1260 C   0  0  1  0  0  0  0  0  0  0  0  0
  -25.3490  -31.5000   26.2010 C   0  0  0  0  0  1  0  0  0  0  0  0
  -27.0160  -30.3620   24.7270 C   0  0  0  0  0  1  0  0  0  0  0  0
  -27.5870  -32.5300   25.7890 C   0  0  0  0  0  1  0  0  0  0  0  0
  -25.6010  -33.9080   24.1890 N   0  0  0  0  0  0  0  0  0  0  0  0
  -25.9240  -34.9640   23.4300 C   0  0  0  0  0  0  0  0  0  0  0  0
  -26.5890  -34.8670   22.3970 O   0  0  0  0  0  0  0  0  0  0  0  0
  -25.0130  -34.0600   24.9950 H   0  0  0  0  0  0  0  0  0  0  0  0
  -24.1910  -36.7590   23.0890 C   0  0  0  0  0  1  0  0  0  0  0  0
  -25.4340  -36.3510   23.8940 C   0  0  0  0  0  3  0  0  0  0  0  0
  -27.5690  -37.2400   24.7200 C   0  0  0  0  0  1  0  0  0  0  0  0
  -26.4620  -37.4050   23.7820 N   0  0  0  0  0  0  0  0  0  0  0  0
  -26.0530  -38.3220   23.9350 H   0  0  0  0  0  0  0  0  0  0  0  0
  1  2  1  0
  2  4  1  0
  3  1  2  0
  6  5  1  0
  7 10  1  0
  7  9  1  0
  8  1  1  0
  8  5  1  0
  9  8  1  0
  9 13  1  0
 10  6  1  0
 11 10  1  0
 12 10  1  0
 14 22  1  0
 15 20  1  0
 16 17  1  0
 16 15  1  0
 18 17  1  0
 18 27  1  0
 18 19  1  0
 20 14  1  0
 20 19  1  0
 21 14  2  0
 22 23  1  0
 22 13  1  0
 24 25  2  0
 25 44  1  0
 26 25  1  0
 26 29  1  0
 27 24  1  0
 27 28  1  0
 28 26  2  0
 29 30  1  0
 30 31  2  0
 32 35  1  0
 32 31  1  0
 33 32  2  0
 34 33  1  0
 34 29  2  0
 35 36  1  0
 36 37  1  0
 37 38  2  0
 39 38  1  0
 39 43  1  0
 40 39  2  0
 41 36  2  0
 41 40  1  0
 42 41  1  0
 44 45  1  0
 45 48  1  0
 45 47  1  0
 46 44  2  0
 49 50  1  0
 49 24  1  0
 51 49  1  0
 52  2  1  0
 52 53  2  0
 54 53  1  0
 55 66  2  0
 56 54  1  0
 56 61  1  0
 57 65  1  0
 57 67  1  0
 58 64  1  0
 58 60  1  0
 59 65  1  0
 60 59  1  0
 61 60  2  0
 62 56  2  0
 63 62  1  0
 63 58  2  0
 64 57  1  0
 65 55  1  0
 67 69  2  0
 68 67  1  0
 70 68  1  0
 71 80  2  0
 71 76  1  0
 72 68  1  0
 72 76  1  0
 73 72  1  0
 74 75  1  0
 74 73  1  0
 75 71  1  0
 76 77  2  0
 77 78  1  0
 79 78  2  0
 80 79  1  0
 81 55  1  0
 81 86  1  0
 81 82  1  0
 82 85  1  1
 82 83  1  0
 84 82  1  0
 86 89  1  0
 87 91  1  0
 87 86  1  0
 88 87  2  0
 91 90  1  0
 93 91  1  0
 93 94  1  0
 93 92  1  0
M  ISO  4  14 100  22 100  53 101  54 101
M  END
>  <TORSDO>  (32) 
F 20

>  <SCORE>  (32) 
-13.953

>  <name>  (32) 
31

>  <ligand_id>  (32) 
31

>  <original_smiles>  (32) 
[H]c1c([H])c([H])c2c(c1[H])C([H])([H])C([H])([H])C([H])([H])C2([H])N([H])C(=O)C1([H])N(C(=O)C([H])(N([H])C(=O)C([H])(N([H])C([H])([H])[H])C([H])([H])[H])C(C([H])([H])[H])(C([H])([H])[H])C([H])([H])[H])C([H])([H])c2c([H])c(OC([H])([H])C([H])([H])N([H])C(=O)C3([H])C([H])([H])C([H])([H])[N+]([H])([H])C([H])([H])C3([H])C([H])([H])N([H])C(=O)N3C([H])([H])C([H])([H])C([H])([H])C([H])(n4nc(-c5c([H])c([H])c(Oc6c([H])c([H])c(F)c([H])c6F)c([H])c5[H])c(C(=O)N([H])[H])c4N([H])[H])C3([H])[H])c([H])c([H])c2C1([H])[H]

>  <smiles>  (32) 
[H]c1c([H])c([H])c2c(c1[H])C([H])([H])C([H])([H])C([H])([H])C2([H])N([H])C(=O)C1([H])N(C(=O)C([H])(N([H])C(=O)C([H])(N([H])C([H])([H])[H])C([H])([H])[H])C(C([H])([H])[H])(C([H])([H])[H])C([H])([H])[H])C([H])([H])c2c([H])c(OC([H])([H])C([H])([H])N([H])C(=O)C3([H])C([H])([H])C([H])([H])[N+]([H])([H])C([H])([H])C3([H])C([H])([H])N([H])C(=O)N3C([H])([H])C([H])([H])C([H])([H])C([H])(n4nc(-c5c([H])c([H])c(Oc6c([H])c([H])c(F)c([H])c6F)c([H])c5[H])c(C(=O)N([H])[H])c4N([H])[H])C3([H])[H])c([H])c([H])c2C1([H])[H]

$$$$
32:0:0
     RDKit          3D

 94102  0  0  1  0  0  0  0  0999 V2000
  -31.2150  -20.4180   19.6810 C   0  0  0  0  0  2  0  0  0  0  0  0
  -31.1470  -18.9130   19.4080 C   0  0  0  0  0  3  0  0  0  0  0  0
  -29.7820  -20.7730   20.1030 C   0  0  0  0  0  3  0  0  0  0  0  0
  -30.2440  -18.3760   20.5440 C   0  0  0  0  0  3  0  0  0  0  0  0
  -32.5320  -18.2600   19.2900 C   0  0  0  0  0  1  0  0  0  0  0  0
  -29.3150  -19.5260   20.7940 N   0  0  0  0  0  4  0  0  0  0  0  0
  -28.3910  -19.2990   20.4620 H   0  0  0  0  0  0  0  0  0  0  0  0
  -29.2600  -19.6720   21.7890 H   0  0  0  0  0  0  0  0  0  0  0  0
  -29.5140  -17.0360   20.1550 C   0  0  0  0  0  2  0  0  0  0  0  0
  -30.5890  -14.8050   20.6550 C   0  0  0  0  0  0  0  0  0  0  0  0
  -30.4690  -12.5760   19.6150 C   0  0  0  0  0  2  0  0  0  0  0  0
  -29.5660  -12.7020   18.3660 C   0  0  0  0  0  2  0  0  0  0  0  0
  -28.0800  -12.5260   18.7370 C   0  0  0  0  0  2  0  0  0  0  0  0
  -27.6610  -13.3790   19.9650 C   0  0  0  0  0  3  0  0  0  0  0  0
  -28.6790  -13.2240   21.1210 C   0  0  0  0  0  2  0  0  0  0  0  0
  -30.0140  -13.5690   20.6020 N   0  0  0  0  0  0  0  0  0  0  0  0
  -31.7200  -15.0320   20.2190 O   0  0  0  0  0  0  0  0  0  0  0  0
  -29.7450  -15.8130   20.9730 N   0  0  0  0  0  0  0  0  0  0  0  0
  -28.9240  -15.4890   21.4640 H   0  0  0  0  0  0  0  0  0  0  0  0
  -25.2240  -13.9280   20.5790 C   0  0  0  0  0  0  0  0  0  0  0  0
  -24.1640  -13.1330   20.9150 C   0  0  0  0  0  0  0  0  0  0  0  0
  -24.6590  -11.7910   20.9080 C   0  0  0  0  0  0  0  0  0  0  0  0
  -26.2990  -13.0730   20.3910 N   0  0  0  0  0  0  0  0  0  0  0  0
  -25.9600  -11.7830   20.6460 N   0  0  0  0  0  0  0  0  0  0  0  0
  -23.9570  -10.5150   21.0770 C   0  0  0  0  0  0  0  0  0  0  0  0
  -24.3670   -9.5700   22.0430 C   0  0  0  0  0  3  0  0  0  0  0  0
  -23.6640   -8.3570   22.2010 C   0  0  0  0  0  3  0  0  0  0  0  0
  -22.5370   -8.0790   21.3930 C   0  0  0  0  0  0  0  0  0  0  0  0
  -22.1460   -9.0120   20.4170 C   0  0  0  0  0  3  0  0  0  0  0  0
  -22.8490  -10.2170   20.2580 C   0  0  0  0  0  3  0  0  0  0  0  0
  -21.8100   -6.9130   21.4570 O   0  0  0  0  0  0  0  0  0  0  0  0
  -21.7140   -6.1900   22.6180 C   0  0  0  0  0  0  0  0  0  0  0  0
  -21.1830   -6.7470   23.8020 C   0  0  0  0  0  3  0  0  0  0  0  0
  -21.0390   -5.9480   24.9540 C   0  0  0  0  0  3  0  0  0  0  0  0
  -21.4150   -4.5910   24.9220 C   0  0  0  0  0  0  0  0  0  0  0  0
  -21.9380   -4.0330   23.7420 C   0  0  0  0  0  3  0  0  0  0  0  0
  -22.0850   -4.8310   22.5920 C   0  0  0  0  0  0  0  0  0  0  0  0
  -22.5700   -4.2840   21.4520 F   0  0  0  0  0  0  0  0  0  0  0  0
  -21.2690   -3.8190   26.0240 F   0  0  0  0  0  0  0  0  0  0  0  0
  -22.7480  -13.5770   21.1380 C   0  0  0  0  0  0  0  0  0  0  0  0
  -22.0060  -12.8630   21.9770 N   0  0  0  0  0  0  0  0  0  0  0  0
  -22.3050  -14.5950   20.6040 O   0  0  0  0  0  0  0  0  0  0  0  0
  -22.3770  -12.0400   22.4300 H   0  0  0  0  0  0  0  0  0  0  0  0
  -21.0570  -13.1430   22.1720 H   0  0  0  0  0  0  0  0  0  0  0  0
  -25.3600  -15.3020   20.3980 N   0  0  0  0  0  0  0  0  0  0  0  0
  -24.5650  -15.9280   20.4720 H   0  0  0  0  0  0  0  0  0  0  0  0
  -26.1970  -15.7590   20.0600 H   0  0  0  0  0  0  0  0  0  0  0  0
  -29.6610  -22.1040   20.9500 C   0  0  0  0  0  3  0  0  0  0  0  0
  -28.2680  -23.3780   22.6970 C   0  0  0  0  0  1  0  0  0  0  0  0
  -28.2580  -22.3420   21.5580 C   0  0  0  0  0  2  0  0  0  0  0  0
  -30.2330  -23.4190   20.2850 C   0  0  0  0  0  2  0  0  0  0  0  0
  -29.3240  -24.4240   19.4840 C   0  0  0  0  0  2  0  0  0  0  0  0
  -28.6360  -25.5720   20.3070 C   0  0  0  0  0  2  0  0  0  0  0  0
  -28.5940  -26.8680   19.6570 O   0  0  0  0  0  0  0  0  0  0  0  0
  -24.6570  -31.7720   23.0960 C   0  0  0  0  0  0  0  0  0  0  0  0
  -27.4050  -27.5720   19.7510 C   0  0  0  0  0  0  0  0  0  0  0  0
  -23.4700  -30.4110   21.4030 C   0  0  0  0  0  3  0  0  0  0  0  0
  -24.9570  -28.9990   19.8810 C   0  0  0  0  0  0  0  0  0  0  0  0
  -25.9800  -30.8680   21.1870 C   0  0  0  0  0  2  0  0  0  0  0  0
  -26.1090  -29.5330   20.4750 C   0  0  0  0  0  0  0  0  0  0  0  0
  -27.3370  -28.8300   20.4030 C   0  0  0  0  0  3  0  0  0  0  0  0
  -26.2360  -27.0580   19.1540 C   0  0  0  0  0  3  0  0  0  0  0  0
  -25.0180  -27.7600   19.2170 C   0  0  0  0  0  3  0  0  0  0  0  0
  -23.6820  -29.8050   19.9900 C   0  0  0  0  0  2  0  0  0  0  0  0
  -24.7210  -31.0300   21.9540 N   0  0  0  0  0  0  0  0  0  0  0  0
  -23.5760  -31.9750   23.6680 O   0  0  0  0  0  0  0  0  0  0  0  0
  -22.8760  -29.3220   22.3240 C   0  0  0  0  0  0  0  0  0  0  0  0
  -21.5600  -29.0840   22.1970 N   0  0  0  0  0  0  0  0  0  0  0  0
  -23.5940  -28.6940   23.1070 O   0  0  0  0  0  0  0  0  0  0  0  0
  -21.0360  -29.6420   21.5380 H   0  0  0  0  0  0  0  0  0  0  0  0
  -18.2550  -27.7020   22.6620 C   0  0  0  0  0  0  0  0  0  0  0  0
  -20.7990  -28.0730   22.9300 C   0  0  0  0  0  3  0  0  0  0  0  0
  -20.9700  -26.6770   22.2900 C   0  0  0  0  0  2  0  0  0  0  0  0
  -19.8800  -26.3460   21.2660 C   0  0  0  0  0  2  0  0  0  0  0  0
  -18.4960  -26.3960   21.9220 C   0  0  0  0  0  2  0  0  0  0  0  0
  -19.3380  -28.4980   23.1200 C   0  0  0  0  0  0  0  0  0  0  0  0
  -19.0680  -29.7220   23.7700 C   0  0  0  0  0  3  0  0  0  0  0  0
  -17.7430  -30.1550   23.9630 C   0  0  0  0  0  3  0  0  0  0  0  0
  -16.6730  -29.3570   23.5240 C   0  0  0  0  0  3  0  0  0  0  0  0
  -16.9290  -28.1310   22.8830 C   0  0  0  0  0  3  0  0  0  0  0  0
  -25.9300  -32.4210   23.7220 C   0  0  0  0  0  3  0  0  0  0  0  0
  -25.5820  -33.7930   24.1120 N   0  0  0  0  0  0  0  0  0  0  0  0
  -25.8720  -34.8870   23.3950 C   0  0  0  0  0  0  0  0  0  0  0  0
  -26.5360  -34.8480   22.3540 O   0  0  0  0  0  0  0  0  0  0  0  0
  -24.9890  -33.8960   24.9230 H   0  0  0  0  0  0  0  0  0  0  0  0
  -24.0900  -36.6420   23.1220 C   0  0  0  0  0  1  0  0  0  0  0  0
  -25.3440  -36.2380   23.9130 C   0  0  0  0  0  3  0  0  0  0  0  0
  -27.4500  -37.1560   24.7800 C   0  0  0  0  0  1  0  0  0  0  0  0
  -26.3420  -37.3270   23.8450 N   0  0  0  0  0  0  0  0  0  0  0  0
  -25.9050  -38.2250   24.0330 H   0  0  0  0  0  0  0  0  0  0  0  0
  -26.4960  -31.6140   24.9540 C   0  0  1  0  0  0  0  0  0  0  0  0
  -25.4320  -31.2990   26.0280 C   0  0  0  0  0  1  0  0  0  0  0  0
  -27.1150  -30.2720   24.4940 C   0  0  0  0  0  1  0  0  0  0  0  0
  -27.6290  -32.4190   25.6350 C   0  0  0  0  0  1  0  0  0  0  0  0
  1  3  1  0
  2  5  1  0
  2  1  1  0
  2  4  1  0
  3  6  1  0
  3 48  1  0
  4  9  1  0
  4  6  1  0
  6  8  1  0
  7  6  1  0
  9 18  1  0
 10 18  1  0
 11 16  1  0
 12 13  1  0
 12 11  1  0
 14 13  1  0
 14 23  1  0
 14 15  1  0
 16 10  1  0
 16 15  1  0
 17 10  2  0
 18 19  1  0
 20 21  2  0
 21 40  1  0
 22 21  1  0
 22 25  1  0
 23 20  1  0
 23 24  1  0
 24 22  2  0
 25 26  1  0
 26 27  2  0
 28 31  1  0
 28 27  1  0
 29 28  2  0
 30 29  1  0
 30 25  2  0
 31 32  1  0
 32 33  1  0
 33 34  2  0
 35 34  1  0
 35 39  1  0
 36 35  2  0
 37 32  2  0
 37 36  1  0
 38 37  1  0
 40 41  1  0
 41 44  1  0
 41 43  1  0
 42 40  2  0
 45 46  1  0
 45 20  1  0
 47 45  1  0
 48 51  1  0
 48 50  1  0
 50 49  1  0
 52 51  1  0
 52 53  1  0
 54 56  1  0
 54 53  1  0
 55 66  2  0
 56 61  1  0
 57 65  1  0
 57 67  1  0
 58 64  1  0
 58 60  1  0
 59 65  1  0
 60 59  1  0
 61 60  2  0
 62 63  1  0
 62 56  2  0
 63 58  2  0
 64 57  1  0
 65 55  1  0
 67 69  2  0
 68 67  1  0
 70 68  1  0
 71 80  2  0
 71 76  1  0
 72 68  1  0
 72 76  1  0
 73 72  1  0
 74 75  1  0
 74 73  1  0
 75 71  1  0
 76 77  2  0
 77 78  1  0
 79 78  2  0
 80 79  1  0
 81 55  1  0
 81 82  1  0
 81 91  1  0
 82 85  1  0
 83 87  1  0
 83 82  1  0
 84 83  2  0
 87 86  1  0
 89 87  1  0
 89 90  1  0
 89 88  1  0
 91 94  1  1
 91 92  1  0
 93 91  1  0
M  ISO  4  10 100  18 100  53 101  54 101
M  END
>  <TORSDO>  (33) 
F 22

>  <SCORE>  (33) 
-12.591

>  <name>  (33) 
32

>  <ligand_id>  (33) 
32

>  <original_smiles>  (33) 
[H]c1c([H])c([H])c2c(c1[H])C([H])([H])C([H])([H])C([H])([H])C2([H])N([H])C(=O)C1([H])N(C(=O)C([H])(N([H])C(=O)C([H])(N([H])C([H])([H])[H])C([H])([H])[H])C(C([H])([H])[H])(C([H])([H])[H])C([H])([H])[H])C([H])([H])c2c([H])c(OC([H])([H])C([H])([H])C([H])([H])C([H])(C([H])([H])C([H])([H])[H])C3([H])C([H])([H])C([H])(C([H])([H])[H])C([H])(C([H])([H])N([H])C(=O)N4C([H])([H])C([H])([H])C([H])([H])C([H])(n5nc(-c6c([H])c([H])c(Oc7c([H])c([H])c(F)c([H])c7F)c([H])c6[H])c(C(=O)N([H])[H])c5N([H])[H])C4([H])[H])[N+]3([H])[H])c([H])c([H])c2C1([H])[H]

>  <smiles>  (33) 
[H]c1c([H])c([H])c2c(c1[H])C([H])([H])C([H])([H])C([H])([H])C2([H])N([H])C(=O)C1([H])N(C(=O)C([H])(N([H])C(=O)C([H])(N([H])C([H])([H])[H])C([H])([H])[H])C(C([H])([H])[H])(C([H])([H])[H])C([H])([H])[H])C([H])([H])c2c([H])c(OC([H])([H])C([H])([H])C([H])([H])C([H])(C([H])([H])C([H])([H])[H])C3([H])C([H])([H])C([H])(C([H])([H])[H])C([H])(C([H])([H])N([H])C(=O)N4C([H])([H])C([H])([H])C([H])([H])C([H])(n5nc(-c6c([H])c([H])c(Oc7c([H])c([H])c(F)c([H])c7F)c([H])c6[H])c(C(=O)N([H])[H])c5N([H])[H])C4([H])[H])[N+]3([H])[H])c([H])c([H])c2C1([H])[H]

$$$$
33:0:0
     RDKit          3D

 93101  0  0  1  0  0  0  0  0999 V2000
  -30.2520  -20.9550   21.1720 N   0  0  0  0  0  4  0  0  0  0  0  0
  -29.9150  -20.7520   20.2460 H   0  0  0  0  0  0  0  0  0  0  0  0
  -31.2420  -21.1300   21.1010 H   0  0  0  0  0  0  0  0  0  0  0  0
  -30.0450  -19.7300   21.9950 C   0  0  0  0  0  2  0  0  0  0  0  0
  -31.2740  -15.0770   20.7320 C   0  0  0  0  0  0  0  0  0  0  0  0
  -31.0240  -12.9180   19.5840 C   0  0  0  0  0  2  0  0  0  0  0  0
  -30.1880  -13.1610   18.3120 C   0  0  0  0  0  2  0  0  0  0  0  0
  -28.6740  -13.1100   18.6260 C   0  0  0  0  0  2  0  0  0  0  0  0
  -28.2600  -13.8880   19.9100 C   0  0  0  0  0  3  0  0  0  0  0  0
  -29.2400  -13.6350   21.0750 C   0  0  0  0  0  2  0  0  0  0  0  0
  -30.5940  -13.9090   20.5790 N   0  0  0  0  0  0  0  0  0  0  0  0
  -32.4980  -15.1480   20.5710 O   0  0  0  0  0  0  0  0  0  0  0  0
  -30.8140  -18.5240   19.8650 C   0  0  0  0  0  2  0  0  0  0  0  0
  -30.1870  -17.0930   21.7000 C   0  0  0  0  0  2  0  0  0  0  0  0
  -30.7740  -18.4920   21.3870 C   0  0  0  0  0  3  0  0  0  0  0  0
  -30.7220  -17.0700   19.3820 C   0  0  0  0  0  3  0  0  0  0  0  0
  -30.5130  -16.2020   20.5710 N   0  0  0  0  0  0  0  0  0  0  0  0
  -25.8210  -14.5160   20.4070 C   0  0  0  0  0  0  0  0  0  0  0  0
  -24.7250  -13.7530   20.6990 C   0  0  0  0  0  0  0  0  0  0  0  0
  -25.1840  -12.4010   20.7420 C   0  0  0  0  0  0  0  0  0  0  0  0
  -26.8770  -13.6260   20.2860 N   0  0  0  0  0  0  0  0  0  0  0  0
  -26.4950  -12.3510   20.5490 N   0  0  0  0  0  0  0  0  0  0  0  0
  -24.4420  -11.1440   20.9010 C   0  0  0  0  0  0  0  0  0  0  0  0
  -24.7680  -10.2170   21.9150 C   0  0  0  0  0  3  0  0  0  0  0  0
  -24.0280   -9.0230   22.0590 C   0  0  0  0  0  3  0  0  0  0  0  0
  -22.9510   -8.7470   21.1840 C   0  0  0  0  0  0  0  0  0  0  0  0
  -22.6470   -9.6620   20.1600 C   0  0  0  0  0  3  0  0  0  0  0  0
  -23.3860  -10.8460   20.0160 C   0  0  0  0  0  3  0  0  0  0  0  0
  -22.1950   -7.6000   21.2300 O   0  0  0  0  0  0  0  0  0  0  0  0
  -21.9780   -6.9310   22.4080 C   0  0  0  0  0  0  0  0  0  0  0  0
  -21.3880   -7.5600   23.5260 C   0  0  0  0  0  3  0  0  0  0  0  0
  -21.1210   -6.8150   24.6920 C   0  0  0  0  0  3  0  0  0  0  0  0
  -21.4310   -5.4430   24.7390 C   0  0  0  0  0  0  0  0  0  0  0  0
  -22.0120   -4.8130   23.6240 C   0  0  0  0  0  3  0  0  0  0  0  0
  -22.2820   -5.5550   22.4600 C   0  0  0  0  0  0  0  0  0  0  0  0
  -22.8240   -4.9390   21.3830 F   0  0  0  0  0  0  0  0  0  0  0  0
  -21.1660   -4.7260   25.8560 F   0  0  0  0  0  0  0  0  0  0  0  0
  -23.3110  -14.2360   20.8370 C   0  0  0  0  0  0  0  0  0  0  0  0
  -22.5170  -13.5810   21.6760 N   0  0  0  0  0  0  0  0  0  0  0  0
  -22.9150  -15.2330   20.2320 O   0  0  0  0  0  0  0  0  0  0  0  0
  -22.8450  -12.7720   22.1830 H   0  0  0  0  0  0  0  0  0  0  0  0
  -21.5660  -13.8940   21.8130 H   0  0  0  0  0  0  0  0  0  0  0  0
  -26.0050  -15.8830   20.2120 N   0  0  0  0  0  0  0  0  0  0  0  0
  -25.2340  -16.5410   20.2380 H   0  0  0  0  0  0  0  0  0  0  0  0
  -26.8840  -16.3120   19.9530 H   0  0  0  0  0  0  0  0  0  0  0  0
  -29.5790  -16.9350   18.3490 C   0  0  0  0  0  2  0  0  0  0  0  0
  -28.0070  -18.2610   16.8570 C   0  0  0  0  0  1  0  0  0  0  0  0
  -29.4380  -18.1350   17.3960 C   0  0  0  0  0  2  0  0  0  0  0  0
  -29.5900  -22.2080   21.6280 C   0  0  0  0  0  2  0  0  0  0  0  0
  -29.6340  -23.3230   20.5400 C   0  0  0  0  0  2  0  0  0  0  0  0
  -29.3200  -24.7750   21.0080 C   0  0  0  0  0  2  0  0  0  0  0  0
  -28.4200  -25.5670   20.0240 C   0  0  0  0  0  2  0  0  0  0  0  0
  -28.4180  -26.9910   20.2650 O   0  0  0  0  0  0  0  0  0  0  0  0
  -24.5570  -32.0720   23.4190 C   0  0  0  0  0  0  0  0  0  0  0  0
  -27.2290  -27.7050   20.2280 C   0  0  0  0  0  0  0  0  0  0  0  0
  -23.3540  -30.6910   21.7560 C   0  0  0  0  0  3  0  0  0  0  0  0
  -24.8150  -29.2030   20.2860 C   0  0  0  0  0  0  0  0  0  0  0  0
  -25.8740  -31.0800   21.5460 C   0  0  0  0  0  2  0  0  0  0  0  0
  -25.9700  -29.7210   20.8790 C   0  0  0  0  0  0  0  0  0  0  0  0
  -27.1760  -28.9770   20.8510 C   0  0  0  0  0  3  0  0  0  0  0  0
  -26.0540  -27.2240   19.6020 C   0  0  0  0  0  3  0  0  0  0  0  0
  -24.8520  -27.9550   19.6430 C   0  0  0  0  0  3  0  0  0  0  0  0
  -23.5600  -30.0400   20.3610 C   0  0  0  0  0  2  0  0  0  0  0  0
  -24.6140  -31.2960   22.2980 N   0  0  0  0  0  0  0  0  0  0  0  0
  -23.4770  -32.3190   23.9750 O   0  0  0  0  0  0  0  0  0  0  0  0
  -22.7220  -29.6430   22.7020 C   0  0  0  0  0  0  0  0  0  0  0  0
  -21.4210  -29.3720   22.5110 N   0  0  0  0  0  0  0  0  0  0  0  0
  -23.4030  -29.0770   23.5620 O   0  0  0  0  0  0  0  0  0  0  0  0
  -20.9310  -29.8830   21.7900 H   0  0  0  0  0  0  0  0  0  0  0  0
  -18.1360  -27.8960   22.7870 C   0  0  0  0  0  0  0  0  0  0  0  0
  -20.6290  -28.3880   23.2500 C   0  0  0  0  0  3  0  0  0  0  0  0
  -20.9030  -26.9560   22.7360 C   0  0  0  0  0  2  0  0  0  0  0  0
  -19.9190  -26.5100   21.6490 C   0  0  0  0  0  2  0  0  0  0  0  0
  -18.4850  -26.5470   22.1810 C   0  0  0  0  0  2  0  0  0  0  0  0
  -19.1450  -28.7670   23.2730 C   0  0  0  0  0  0  0  0  0  0  0  0
  -18.7730  -30.0270   23.7890 C   0  0  0  0  0  3  0  0  0  0  0  0
  -17.4200  -30.4170   23.8300 C   0  0  0  0  0  3  0  0  0  0  0  0
  -16.4230  -29.5410   23.3670 C   0  0  0  0  0  3  0  0  0  0  0  0
  -16.7810  -28.2820   22.8510 C   0  0  0  0  0  3  0  0  0  0  0  0
  -25.8410  -32.7030   24.0420 C   0  0  0  0  0  3  0  0  0  0  0  0
  -26.3560  -31.9330   25.3200 C   0  0  1  0  0  0  0  0  0  0  0  0
  -25.2520  -31.6650   26.3690 C   0  0  0  0  0  1  0  0  0  0  0  0
  -26.9750  -30.5730   24.9240 C   0  0  0  0  0  1  0  0  0  0  0  0
  -27.4780  -32.7470   26.0080 C   0  0  0  0  0  1  0  0  0  0  0  0
  -25.5320  -34.1020   24.3690 N   0  0  0  0  0  0  0  0  0  0  0  0
  -25.8890  -35.1550   23.6200 C   0  0  0  0  0  0  0  0  0  0  0  0
  -26.5840  -35.0500   22.6070 O   0  0  0  0  0  0  0  0  0  0  0  0
  -24.9170  -34.2560   25.1530 H   0  0  0  0  0  0  0  0  0  0  0  0
  -24.1840  -36.9600   23.2250 C   0  0  0  0  0  1  0  0  0  0  0  0
  -25.3970  -36.5420   24.0710 C   0  0  0  0  0  3  0  0  0  0  0  0
  -27.5090  -37.4090   24.9710 C   0  0  0  0  0  1  0  0  0  0  0  0
  -26.4380  -37.5900   23.9960 N   0  0  0  0  0  0  0  0  0  0  0  0
  -26.0330  -38.5100   24.1360 H   0  0  0  0  0  0  0  0  0  0  0  0
  1 49  1  0
  1  4  1  0
  2  1  1  0
  3  1  1  0
  6 11  1  0
  7  8  1  0
  7  6  1  0
  9  8  1  0
  9 21  1  0
  9 10  1  0
 11  5  1  0
 11 10  1  0
 12  5  2  0
 13 15  1  0
 15 14  1  0
 15  4  1  0
 16 46  1  0
 16 13  1  0
 16 17  1  0
 17  5  1  0
 17 14  1  0
 18 19  2  0
 19 20  1  0
 19 38  1  0
 20 23  1  0
 21 18  1  0
 21 22  1  0
 22 20  2  0
 23 24  1  0
 24 25  2  0
 26 29  1  0
 26 25  1  0
 27 26  2  0
 28 27  1  0
 28 23  2  0
 29 30  1  0
 30 35  2  0
 30 31  1  0
 31 32  2  0
 32 33  1  0
 33 37  1  0
 34 33  2  0
 35 34  1  0
 36 35  1  0
 38 39  1  0
 39 42  1  0
 39 41  1  0
 40 38  2  0
 43 44  1  0
 43 18  1  0
 45 43  1  0
 47 48  1  0
 48 46  1  0
 50 51  1  0
 50 49  1  0
 52 53  1  0
 52 51  1  0
 54 65  2  0
 55 53  1  0
 55 60  1  0
 56 64  1  0
 56 66  1  0
 57 63  1  0
 57 59  1  0
 58 64  1  0
 59 58  1  0
 60 59  2  0
 61 62  1  0
 61 55  2  0
 62 57  2  0
 63 56  1  0
 64 54  1  0
 66 68  2  0
 67 66  1  0
 69 67  1  0
 70 79  2  0
 70 75  1  0
 71 67  1  0
 71 75  1  0
 72 71  1  0
 73 74  1  0
 73 72  1  0
 74 70  1  0
 75 76  2  0
 76 77  1  0
 78 77  2  0
 79 78  1  0
 80 54  1  0
 80 85  1  0
 80 81  1  0
 81 84  1  1
 81 82  1  0
 83 81  1  0
 85 88  1  0
 86 90  1  0
 86 85  1  0
 87 86  2  0
 90 89  1  0
 92 90  1  0
 92 93  1  0
 92 91  1  0
M  ISO  4   5 100  17 100  52 101  53 101
M  END
>  <TORSDO>  (34) 
F 23

>  <SCORE>  (34) 
-10.943

>  <name>  (34) 
33

>  <ligand_id>  (34) 
33

>  <original_smiles>  (34) 
[H]c1c([H])c([H])c2c(c1[H])C([H])([H])C([H])([H])C([H])([H])C2([H])N([H])C(=O)C1([H])N(C(=O)C([H])(N([H])C(=O)C([H])(N([H])C([H])([H])[H])C([H])([H])[H])C(C([H])([H])[H])(C([H])([H])[H])C([H])([H])[H])C([H])([H])c2c([H])c(OC([H])([H])C([H])([H])C([H])([H])C([H])([H])[N+]([H])([H])C([H])([H])C3([H])C([H])([H])N(C(=O)N4C([H])([H])C([H])([H])C([H])([H])C([H])(n5nc(-c6c([H])c([H])c(Oc7c([H])c([H])c(F)c([H])c7F)c([H])c6[H])c(C(=O)N([H])[H])c5N([H])[H])C4([H])[H])C([H])(C([H])([H])C([H])([H])C([H])([H])[H])C3([H])[H])c([H])c([H])c2C1([H])[H]

>  <smiles>  (34) 
[H]c1c([H])c([H])c2c(c1[H])C([H])([H])C([H])([H])C([H])([H])C2([H])N([H])C(=O)C1([H])N(C(=O)C([H])(N([H])C(=O)C([H])(N([H])C([H])([H])[H])C([H])([H])[H])C(C([H])([H])[H])(C([H])([H])[H])C([H])([H])[H])C([H])([H])c2c([H])c(OC([H])([H])C([H])([H])C([H])([H])C([H])([H])[N+]([H])([H])C([H])([H])C3([H])C([H])([H])N(C(=O)N4C([H])([H])C([H])([H])C([H])([H])C([H])(n5nc(-c6c([H])c([H])c(Oc7c([H])c([H])c(F)c([H])c7F)c([H])c6[H])c(C(=O)N([H])[H])c5N([H])[H])C4([H])[H])C([H])(C([H])([H])C([H])([H])C([H])([H])[H])C3([H])[H])c([H])c([H])c2C1([H])[H]

$$$$
34:0:0
     RDKit          3D

 92100  0  0  1  0  0  0  0  0999 V2000
  -29.0290  -20.7930   21.4630 C   0  0  0  0  0  3  0  0  0  0  0  0
  -27.7830  -20.7600   20.9810 F   0  0  0  0  0  0  0  0  0  0  0  0
  -29.7370  -19.4670   21.1390 C   0  0  0  0  0  0  0  0  0  0  0  0
  -29.4040  -18.7880   20.1630 O   0  0  0  0  0  0  0  0  0  0  0  0
  -30.8470  -19.0320   22.1100 C   0  0  0  0  0  2  0  0  0  0  0  0
  -31.4950  -14.4890   19.4250 C   0  0  0  0  0  0  0  0  0  0  0  0
  -30.7640  -12.4110   18.3200 C   0  0  0  0  0  2  0  0  0  0  0  0
  -29.6490  -12.6320   17.2800 C   0  0  0  0  0  2  0  0  0  0  0  0
  -28.2770  -12.4880   17.9490 C   0  0  0  0  0  2  0  0  0  0  0  0
  -28.1620  -13.3820   19.2010 C   0  0  0  0  0  3  0  0  0  0  0  0
  -29.3790  -13.2500   20.1360 C   0  0  0  0  0  2  0  0  0  0  0  0
  -30.6570  -13.4060   19.4100 N   0  0  0  0  0  0  0  0  0  0  0  0
  -32.1220  -14.7940   18.4040 O   0  0  0  0  0  0  0  0  0  0  0  0
  -32.3870  -17.4680   20.7060 C   0  0  0  0  0  2  0  0  0  0  0  0
  -30.4900  -16.4240   22.0850 C   0  0  0  0  0  2  0  0  0  0  0  0
  -32.9880  -16.0510   20.6280 C   0  0  0  0  0  2  0  0  0  0  0  0
  -31.2530  -15.0850   21.9370 C   0  0  0  0  0  2  0  0  0  0  0  0
  -31.4760  -17.6190   21.9490 C   0  0  0  0  0  3  0  0  0  0  0  0
  -31.8910  -15.0560   20.6110 N   0  0  0  0  0  0  0  0  0  0  0  0
  -26.0610  -14.0420   20.5390 C   0  0  0  0  0  0  0  0  0  0  0  0
  -25.0140  -13.3030   21.0250 C   0  0  0  0  0  0  0  0  0  0  0  0
  -25.2970  -11.9460   20.6830 C   0  0  0  0  0  0  0  0  0  0  0  0
  -26.9170  -13.1350   19.9320 N   0  0  0  0  0  0  0  0  0  0  0  0
  -26.4760  -11.8590   20.0780 N   0  0  0  0  0  0  0  0  0  0  0  0
  -24.4860  -10.7320   20.8430 C   0  0  0  0  0  0  0  0  0  0  0  0
  -24.8950   -9.6740   21.6860 C   0  0  0  0  0  3  0  0  0  0  0  0
  -24.0890   -8.5240   21.8330 C   0  0  0  0  0  3  0  0  0  0  0  0
  -22.8590   -8.4240   21.1390 C   0  0  0  0  0  0  0  0  0  0  0  0
  -22.4680   -9.4700   20.2850 C   0  0  0  0  0  3  0  0  0  0  0  0
  -23.2740  -10.6110   20.1350 C   0  0  0  0  0  3  0  0  0  0  0  0
  -22.0250   -7.3340   21.2020 O   0  0  0  0  0  0  0  0  0  0  0  0
  -21.8720   -6.6090   22.3560 C   0  0  0  0  0  0  0  0  0  0  0  0
  -21.4380   -7.2060   23.5610 C   0  0  0  0  0  3  0  0  0  0  0  0
  -21.2280   -6.4110   24.7050 C   0  0  0  0  0  3  0  0  0  0  0  0
  -21.4420   -5.0210   24.6450 C   0  0  0  0  0  0  0  0  0  0  0  0
  -21.8690   -4.4240   23.4460 C   0  0  0  0  0  3  0  0  0  0  0  0
  -22.0800   -5.2160   22.3040 C   0  0  0  0  0  0  0  0  0  0  0  0
  -22.4700   -4.6330   21.1450 F   0  0  0  0  0  0  0  0  0  0  0  0
  -21.2330   -4.2550   25.7420 F   0  0  0  0  0  0  0  0  0  0  0  0
  -23.7730  -13.8350   21.6830 C   0  0  0  0  0  0  0  0  0  0  0  0
  -23.2000  -13.0790   22.6140 N   0  0  0  0  0  0  0  0  0  0  0  0
  -23.3290  -14.9490   21.4060 O   0  0  0  0  0  0  0  0  0  0  0  0
  -23.5740  -12.1730   22.8540 H   0  0  0  0  0  0  0  0  0  0  0  0
  -22.3750  -13.4120   23.0930 H   0  0  0  0  0  0  0  0  0  0  0  0
  -26.3480  -15.4030   20.5450 N   0  0  0  0  0  0  0  0  0  0  0  0
  -25.7130  -16.0930   20.9320 H   0  0  0  0  0  0  0  0  0  0  0  0
  -27.1680  -15.8170   20.1180 H   0  0  0  0  0  0  0  0  0  0  0  0
  -29.7430  -22.0490   20.9000 C   0  0  0  0  0  2  0  0  0  0  0  0
  -29.0010  -23.3450   21.2970 C   0  0  0  0  0  2  0  0  0  0  0  0
  -29.5190  -24.6720   20.6780 C   0  0  0  0  0  2  0  0  0  0  0  0
  -28.3990  -25.4060   19.9160 C   0  0  0  0  0  2  0  0  0  0  0  0
  -28.6190  -26.8070   19.6720 O   0  0  0  0  0  0  0  0  0  0  0  0
  -24.7010  -31.6420   23.1010 C   0  0  0  0  0  0  0  0  0  0  0  0
  -27.4490  -27.5430   19.6690 C   0  0  0  0  0  0  0  0  0  0  0  0
  -23.5180  -30.3110   21.3860 C   0  0  0  0  0  3  0  0  0  0  0  0
  -25.0000  -28.9510   19.8210 C   0  0  0  0  0  0  0  0  0  0  0  0
  -26.0240  -30.7880   21.1700 C   0  0  0  0  0  2  0  0  0  0  0  0
  -26.1500  -29.4750   20.4270 C   0  0  0  0  0  0  0  0  0  0  0  0
  -27.3800  -28.7810   20.3450 C   0  0  0  0  0  3  0  0  0  0  0  0
  -26.2820  -27.0480   19.0380 C   0  0  0  0  0  3  0  0  0  0  0  0
  -25.0610  -27.7360   19.1220 C   0  0  0  0  0  3  0  0  0  0  0  0
  -23.7230  -29.7470   19.9560 C   0  0  0  0  0  2  0  0  0  0  0  0
  -24.7670  -30.9250   21.9440 N   0  0  0  0  0  0  0  0  0  0  0  0
  -23.6210  -31.8320   23.6770 O   0  0  0  0  0  0  0  0  0  0  0  0
  -22.9280  -29.1970   22.2800 C   0  0  0  0  0  0  0  0  0  0  0  0
  -21.6160  -28.9490   22.1410 N   0  0  0  0  0  0  0  0  0  0  0  0
  -23.6480  -28.5610   23.0560 O   0  0  0  0  0  0  0  0  0  0  0  0
  -21.0940  -29.5220   21.4930 H   0  0  0  0  0  0  0  0  0  0  0  0
  -18.3170  -27.5290   22.5430 C   0  0  0  0  0  0  0  0  0  0  0  0
  -20.8530  -27.9240   22.8540 C   0  0  0  0  0  3  0  0  0  0  0  0
  -21.0460  -26.5340   22.2040 C   0  0  0  0  0  2  0  0  0  0  0  0
  -19.9720  -26.2010   21.1640 C   0  0  0  0  0  2  0  0  0  0  0  0
  -18.5800  -26.2290   21.8010 C   0  0  0  0  0  2  0  0  0  0  0  0
  -19.3850  -28.3320   23.0230 C   0  0  0  0  0  0  0  0  0  0  0  0
  -19.0880  -29.5470   23.6760 C   0  0  0  0  0  3  0  0  0  0  0  0
  -17.7550  -29.9620   23.8550 C   0  0  0  0  0  3  0  0  0  0  0  0
  -16.7010  -29.1560   23.3920 C   0  0  0  0  0  3  0  0  0  0  0  0
  -16.9830  -27.9410   22.7420 C   0  0  0  0  0  3  0  0  0  0  0  0
  -25.9750  -32.2800   23.7400 C   0  0  0  0  0  3  0  0  0  0  0  0
  -26.5080  -31.4800   24.9910 C   0  0  1  0  0  0  0  0  0  0  0  0
  -25.4120  -31.1470   26.0310 C   0  0  0  0  0  1  0  0  0  0  0  0
  -27.1620  -30.1500   24.5510 C   0  0  0  0  0  1  0  0  0  0  0  0
  -27.6090  -32.3000   25.7050 C   0  0  0  0  0  1  0  0  0  0  0  0
  -25.6380  -33.6610   24.1090 N   0  0  0  0  0  0  0  0  0  0  0  0
  -25.9590  -34.7410   23.3830 C   0  0  0  0  0  0  0  0  0  0  0  0
  -26.6430  -34.6790   22.3570 O   0  0  0  0  0  0  0  0  0  0  0  0
  -25.0330  -33.7800   24.9070 H   0  0  0  0  0  0  0  0  0  0  0  0
  -24.1950  -36.5040   23.0710 C   0  0  0  0  0  1  0  0  0  0  0  0
  -25.4420  -36.1050   23.8750 C   0  0  0  0  0  3  0  0  0  0  0  0
  -27.5590  -37.0080   24.7320 C   0  0  0  0  0  1  0  0  0  0  0  0
  -26.4530  -37.1810   23.7930 N   0  0  0  0  0  0  0  0  0  0  0  0
  -26.0280  -38.0870   23.9670 H   0  0  0  0  0  0  0  0  0  0  0  0
  1  2  1  0
  3  1  1  0
  3  5  1  0
  4  3  2  0
  6 19  1  0
  7 12  1  0
  8  9  1  0
  8  7  1  0
 10  9  1  0
 10 23  1  0
 10 11  1  0
 12  6  1  0
 12 11  1  0
 13  6  2  0
 14 18  1  0
 16 14  1  0
 17 15  1  0
 18 15  1  0
 18  5  1  0
 19 16  1  0
 19 17  1  0
 20 45  1  0
 20 21  2  0
 21 40  1  0
 22 25  1  0
 22 21  1  0
 23 24  1  0
 23 20  1  0
 24 22  2  0
 25 26  1  0
 26 27  2  0
 28 31  1  0
 28 27  1  0
 29 28  2  0
 30 29  1  0
 30 25  2  0
 31 32  1  0
 32 33  1  0
 33 34  2  0
 35 34  1  0
 35 39  1  0
 36 35  2  0
 37 32  2  0
 37 36  1  0
 38 37  1  0
 40 41  1  0
 41 43  1  0
 41 44  1  0
 42 40  2  0
 45 46  1  0
 47 45  1  0
 48 49  1  0
 48  1  1  0
 50 49  1  0
 51 50  1  0
 52 51  1  0
 53 64  2  0
 54 52  1  0
 54 59  1  0
 55 63  1  0
 55 65  1  0
 56 62  1  0
 56 58  1  0
 57 63  1  0
 58 57  1  0
 59 58  2  0
 60 61  1  0
 60 54  2  0
 61 56  2  0
 62 55  1  0
 63 53  1  0
 65 67  2  0
 66 65  1  0
 68 66  1  0
 69 78  2  0
 69 74  1  0
 70 66  1  0
 70 74  1  0
 71 70  1  0
 72 73  1  0
 72 71  1  0
 73 69  1  0
 74 75  2  0
 75 76  1  0
 77 76  2  0
 78 77  1  0
 79 53  1  0
 79 84  1  0
 79 80  1  0
 80 83  1  1
 80 81  1  0
 82 80  1  0
 84 87  1  0
 85 89  1  0
 85 84  1  0
 86 85  2  0
 89 88  1  0
 91 89  1  0
 91 92  1  0
 91 90  1  0
M  ISO  4   6 100  19 100  51 101  52 101
M  END
>  <TORSDO>  (35) 
F 22

>  <SCORE>  (35) 
-9.288

>  <name>  (35) 
34

>  <ligand_id>  (35) 
34

>  <original_smiles>  (35) 
[H]c1c([H])c([H])c2c(c1[H])C([H])([H])C([H])([H])C([H])([H])C2([H])N([H])C(=O)C1([H])N(C(=O)C([H])(N([H])C(=O)C([H])(N([H])C([H])([H])[H])C([H])([H])[H])C(C([H])([H])[H])(C([H])([H])[H])C([H])([H])[H])C([H])([H])c2c([H])c(OC([H])([H])C([H])([H])C([H])([H])C([H])([H])C([H])(F)C(=O)C([H])([H])C3([H])C([H])([H])C([H])([H])N(C(=O)N4C([H])([H])C([H])([H])C([H])([H])C([H])(n5nc(-c6c([H])c([H])c(Oc7c([H])c([H])c(F)c([H])c7F)c([H])c6[H])c(C(=O)N([H])[H])c5N([H])[H])C4([H])[H])C([H])([H])C3([H])[H])c([H])c([H])c2C1([H])[H]

>  <smiles>  (35) 
[H]c1c([H])c([H])c2c(c1[H])C([H])([H])C([H])([H])C([H])([H])C2([H])N([H])C(=O)C1([H])N(C(=O)C([H])(N([H])C(=O)C([H])(N([H])C([H])([H])[H])C([H])([H])[H])C(C([H])([H])[H])(C([H])([H])[H])C([H])([H])[H])C([H])([H])c2c([H])c(OC([H])([H])C([H])([H])C([H])([H])C([H])([H])C([H])(F)C(=O)C([H])([H])C3([H])C([H])([H])C([H])([H])N(C(=O)N4C([H])([H])C([H])([H])C([H])([H])C([H])(n5nc(-c6c([H])c([H])c(Oc7c([H])c([H])c(F)c([H])c7F)c([H])c6[H])c(C(=O)N([H])[H])c5N([H])[H])C4([H])[H])C([H])([H])C3([H])[H])c([H])c([H])c2C1([H])[H]

$$$$
35:0:0
     RDKit          3D

 96104  0  0  1  0  0  0  0  0999 V2000
  -30.0680  -21.5700   18.5390 C   0  0  0  0  0  0  0  0  0  0  0  0
  -30.6930  -22.7080   18.8560 N   0  0  0  0  0  0  0  0  0  0  0  0
  -29.0600  -21.5430   17.8310 O   0  0  0  0  0  0  0  0  0  0  0  0
  -31.5160  -22.6550   19.4430 H   0  0  0  0  0  0  0  0  0  0  0  0
  -31.0740  -19.3520   17.8700 C   0  0  0  0  0  2  0  0  0  0  0  0
  -29.6520  -19.5380   19.9940 C   0  0  0  0  0  2  0  0  0  0  0  0
  -29.9550  -18.3640   17.4880 C   0  0  0  0  0  2  0  0  0  0  0  0
  -30.6640  -20.2580   19.0610 C   0  0  0  0  0  3  0  0  0  0  0  0
  -29.8060  -18.0020   19.9810 C   0  0  0  0  0  3  0  0  0  0  0  0
  -29.6120  -17.4540   18.6080 N   0  0  0  0  0  4  0  0  0  0  0  0
  -30.1390  -16.6020   18.5200 H   0  0  0  0  0  0  0  0  0  0  0  0
  -28.6410  -17.2080   18.4920 H   0  0  0  0  0  0  0  0  0  0  0  0
  -31.1480  -17.5320   20.6020 C   0  0  0  0  0  2  0  0  0  0  0  0
  -31.0290  -16.5130   21.7650 C   0  0  0  0  0  2  0  0  0  0  0  0
  -30.7570  -14.3760   20.5440 C   0  0  0  0  0  0  0  0  0  0  0  0
  -30.3090  -12.3100   19.2960 C   0  0  0  0  0  2  0  0  0  0  0  0
  -29.3770  -12.6140   18.1110 C   0  0  0  0  0  2  0  0  0  0  0  0
  -27.9030  -12.5050   18.5430 C   0  0  0  0  0  2  0  0  0  0  0  0
  -27.5980  -13.2780   19.8560 C   0  0  0  0  0  3  0  0  0  0  0  0
  -28.6640  -13.0110   20.9450 C   0  0  0  0  0  2  0  0  0  0  0  0
  -29.9970  -13.2650   20.3680 N   0  0  0  0  0  0  0  0  0  0  0  0
  -31.7870  -14.5970   19.9030 O   0  0  0  0  0  0  0  0  0  0  0  0
  -30.3130  -15.2790   21.4240 N   0  0  0  0  0  0  0  0  0  0  0  0
  -29.4840  -15.0480   21.9530 H   0  0  0  0  0  0  0  0  0  0  0  0
  -25.1910  -13.8670   20.5650 C   0  0  0  0  0  0  0  0  0  0  0  0
  -24.1280  -13.0860   20.9380 C   0  0  0  0  0  0  0  0  0  0  0  0
  -24.5980  -11.7370   20.8980 C   0  0  0  0  0  0  0  0  0  0  0  0
  -26.2440  -12.9940   20.3350 N   0  0  0  0  0  0  0  0  0  0  0  0
  -25.8870  -11.7050   20.5830 N   0  0  0  0  0  0  0  0  0  0  0  0
  -23.8750  -10.4730   21.0880 C   0  0  0  0  0  0  0  0  0  0  0  0
  -24.3250   -9.4980   22.0040 C   0  0  0  0  0  3  0  0  0  0  0  0
  -23.6030   -8.2970   22.1840 C   0  0  0  0  0  3  0  0  0  0  0  0
  -22.4180   -8.0650   21.4450 C   0  0  0  0  0  0  0  0  0  0  0  0
  -21.9870   -9.0310   20.5180 C   0  0  0  0  0  3  0  0  0  0  0  0
  -22.7090  -10.2230   20.3370 C   0  0  0  0  0  3  0  0  0  0  0  0
  -21.6670   -6.9190   21.5340 O   0  0  0  0  0  0  0  0  0  0  0  0
  -21.6470   -6.1540   22.6740 C   0  0  0  0  0  0  0  0  0  0  0  0
  -21.2670   -6.6900   23.9230 C   0  0  0  0  0  3  0  0  0  0  0  0
  -21.1950   -5.8520   25.0550 C   0  0  0  0  0  3  0  0  0  0  0  0
  -21.4960   -4.4810   24.9370 C   0  0  0  0  0  0  0  0  0  0  0  0
  -21.8710   -3.9470   23.6940 C   0  0  0  0  0  3  0  0  0  0  0  0
  -21.9450   -4.7810   22.5630 C   0  0  0  0  0  0  0  0  0  0  0  0
  -22.2840   -4.2550   21.3620 F   0  0  0  0  0  0  0  0  0  0  0  0
  -21.4220   -3.6760   26.0220 F   0  0  0  0  0  0  0  0  0  0  0  0
  -22.7330  -13.5590   21.2240 C   0  0  0  0  0  0  0  0  0  0  0  0
  -22.0140  -12.8540   22.0930 N   0  0  0  0  0  0  0  0  0  0  0  0
  -22.2870  -14.5880   20.7200 O   0  0  0  0  0  0  0  0  0  0  0  0
  -22.3890  -12.0230   22.5220 H   0  0  0  0  0  0  0  0  0  0  0  0
  -21.0750  -13.1460   22.3260 H   0  0  0  0  0  0  0  0  0  0  0  0
  -25.3430  -15.2380   20.3890 N   0  0  0  0  0  0  0  0  0  0  0  0
  -24.5660  -15.8790   20.4980 H   0  0  0  0  0  0  0  0  0  0  0  0
  -26.1950  -15.6970   20.0950 H   0  0  0  0  0  0  0  0  0  0  0  0
  -30.2770  -24.0280   18.3910 C   0  0  0  0  0  2  0  0  0  0  0  0
  -29.6330  -24.8420   19.5230 C   0  0  0  0  0  2  0  0  0  0  0  0
  -28.7790  -26.0070   19.0010 C   0  0  0  0  0  2  0  0  0  0  0  0
  -28.4050  -26.7930   20.1260 O   0  0  0  0  0  0  0  0  0  0  0  0
  -24.5820  -31.8860   23.2330 C   0  0  0  0  0  0  0  0  0  0  0  0
  -27.2090  -27.4720   20.1060 C   0  0  0  0  0  0  0  0  0  0  0  0
  -23.3620  -30.4870   21.6000 C   0  0  0  0  0  3  0  0  0  0  0  0
  -24.8010  -28.9500   20.1610 C   0  0  0  0  0  0  0  0  0  0  0  0
  -25.8820  -30.8520   21.3690 C   0  0  0  0  0  2  0  0  0  0  0  0
  -25.9620  -29.4800   20.7350 C   0  0  0  0  0  0  0  0  0  0  0  0
  -27.1630  -28.7430   20.7150 C   0  0  0  0  0  3  0  0  0  0  0  0
  -26.0240  -26.9350   19.5490 C   0  0  0  0  0  3  0  0  0  0  0  0
  -24.8260  -27.6750   19.5690 C   0  0  0  0  0  3  0  0  0  0  0  0
  -23.5550  -29.8050   20.2180 C   0  0  0  0  0  2  0  0  0  0  0  0
  -24.6300  -31.0890   22.1270 N   0  0  0  0  0  0  0  0  0  0  0  0
  -23.5040  -32.1590   23.7800 O   0  0  0  0  0  0  0  0  0  0  0  0
  -22.7160  -29.4650   22.5640 C   0  0  0  0  0  0  0  0  0  0  0  0
  -21.3890  -29.2900   22.4440 N   0  0  0  0  0  0  0  0  0  0  0  0
  -23.4030  -28.8350   23.3720 O   0  0  0  0  0  0  0  0  0  0  0  0
  -20.8970  -29.8530   21.7650 H   0  0  0  0  0  0  0  0  0  0  0  0
  -18.0140  -28.1090   22.9480 C   0  0  0  0  0  0  0  0  0  0  0  0
  -20.5740  -28.3550   23.2160 C   0  0  0  0  0  3  0  0  0  0  0  0
  -20.6700  -26.9230   22.6370 C   0  0  0  0  0  2  0  0  0  0  0  0
  -19.5640  -26.6070   21.6260 C   0  0  0  0  0  2  0  0  0  0  0  0
  -18.1850  -26.7580   22.2750 C   0  0  0  0  0  2  0  0  0  0  0  0
  -19.1370  -28.8660   23.3780 C   0  0  0  0  0  0  0  0  0  0  0  0
  -18.9250  -30.1320   23.9660 C   0  0  0  0  0  3  0  0  0  0  0  0
  -17.6220  -30.6390   24.1330 C   0  0  0  0  0  3  0  0  0  0  0  0
  -16.5140  -29.8770   23.7260 C   0  0  0  0  0  3  0  0  0  0  0  0
  -16.7110  -28.6140   23.1370 C   0  0  0  0  0  3  0  0  0  0  0  0
  -25.8720  -32.5160   23.8440 C   0  0  0  0  0  3  0  0  0  0  0  0
  -25.5710  -33.9150   24.1820 N   0  0  0  0  0  0  0  0  0  0  0  0
  -25.9020  -34.9660   23.4210 C   0  0  0  0  0  0  0  0  0  0  0  0
  -26.5640  -34.8640   22.3850 O   0  0  0  0  0  0  0  0  0  0  0  0
  -24.9930  -34.0710   24.9940 H   0  0  0  0  0  0  0  0  0  0  0  0
  -24.1750  -36.7600   23.0790 C   0  0  0  0  0  1  0  0  0  0  0  0
  -25.4190  -36.3540   23.8860 C   0  0  0  0  0  3  0  0  0  0  0  0
  -27.5590  -37.2300   24.7100 C   0  0  0  0  0  1  0  0  0  0  0  0
  -26.4540  -37.4050   23.7720 N   0  0  0  0  0  0  0  0  0  0  0  0
  -26.0490  -38.3250   23.9240 H   0  0  0  0  0  0  0  0  0  0  0  0
  -26.4040  -31.7350   25.1080 C   0  0  1  0  0  0  0  0  0  0  0  0
  -25.3260  -31.4850   26.1880 C   0  0  0  0  0  1  0  0  0  0  0  0
  -26.9830  -30.3640   24.6900 C   0  0  0  0  0  1  0  0  0  0  0  0
  -27.5630  -32.5240   25.7620 C   0  0  0  0  0  1  0  0  0  0  0  0
  1  2  1  0
  2  4  1  0
  3  1  2  0
  5  8  1  0
  7  5  1  0
  7 10  1  0
  8  1  1  0
  8  6  1  0
  9  6  1  0
  9 13  1  0
 10  9  1  0
 11 10  1  0
 12 10  1  0
 13 14  1  0
 15 23  1  0
 16 21  1  0
 17 18  1  0
 17 16  1  0
 19 18  1  0
 19 28  1  0
 19 20  1  0
 21 15  1  0
 21 20  1  0
 22 15  2  0
 23 14  1  0
 23 24  1  0
 25 26  2  0
 26 45  1  0
 27 26  1  0
 27 30  1  0
 28 25  1  0
 28 29  1  0
 29 27  2  0
 30 31  1  0
 31 32  2  0
 33 36  1  0
 33 32  1  0
 34 33  2  0
 35 34  1  0
 35 30  2  0
 36 37  1  0
 37 38  1  0
 38 39  2  0
 40 39  1  0
 40 44  1  0
 41 40  2  0
 42 37  2  0
 42 41  1  0
 43 42  1  0
 45 46  1  0
 46 49  1  0
 46 48  1  0
 47 45  2  0
 50 51  1  0
 50 25  1  0
 52 50  1  0
 53  2  1  0
 53 54  1  0
 55 54  1  0
 55 56  1  0
 57 68  2  0
 58 56  1  0
 58 63  1  0
 59 67  1  0
 59 69  1  0
 60 66  1  0
 60 62  1  0
 61 67  1  0
 62 61  1  0
 63 62  2  0
 64 65  1  0
 64 58  2  0
 65 60  2  0
 66 59  1  0
 67 57  1  0
 69 71  2  0
 70 69  1  0
 72 70  1  0
 73 82  2  0
 73 78  1  0
 74 70  1  0
 74 78  1  0
 75 74  1  0
 76 77  1  0
 76 75  1  0
 77 73  1  0
 78 79  2  0
 79 80  1  0
 81 80  2  0
 82 81  1  0
 83 57  1  0
 83 84  1  0
 83 93  1  0
 84 87  1  0
 85 89  1  0
 85 84  1  0
 86 85  2  0
 89 88  1  0
 91 89  1  0
 91 92  1  0
 91 90  1  0
 93 96  1  1
 93 94  1  0
 95 93  1  0
M  ISO  4  15 100  23 100  55 101  56 101
M  END
>  <TORSDO>  (36) 
F 22

>  <SCORE>  (36) 
-13.316

>  <name>  (36) 
35

>  <ligand_id>  (36) 
35

>  <original_smiles>  (36) 
[H]c1c([H])c([H])c2c(c1[H])C([H])([H])C([H])([H])C([H])([H])C2([H])N([H])C(=O)C1([H])N(C(=O)C([H])(N([H])C(=O)C([H])(N([H])C([H])([H])[H])C([H])([H])[H])C(C([H])([H])[H])(C([H])([H])[H])C([H])([H])[H])C([H])([H])c2c([H])c(OC([H])([H])C([H])([H])C([H])([H])N([H])C(=O)C3([H])C([H])([H])C([H])([H])[N+]([H])([H])C([H])(C([H])([H])C([H])([H])N([H])C(=O)N4C([H])([H])C([H])([H])C([H])([H])C([H])(n5nc(-c6c([H])c([H])c(Oc7c([H])c([H])c(F)c([H])c7F)c([H])c6[H])c(C(=O)N([H])[H])c5N([H])[H])C4([H])[H])C3([H])[H])c([H])c([H])c2C1([H])[H]

>  <smiles>  (36) 
[H]c1c([H])c([H])c2c(c1[H])C([H])([H])C([H])([H])C([H])([H])C2([H])N([H])C(=O)C1([H])N(C(=O)C([H])(N([H])C(=O)C([H])(N([H])C([H])([H])[H])C([H])([H])[H])C(C([H])([H])[H])(C([H])([H])[H])C([H])([H])[H])C([H])([H])c2c([H])c(OC([H])([H])C([H])([H])C([H])([H])N([H])C(=O)C3([H])C([H])([H])C([H])([H])[N+]([H])([H])C([H])(C([H])([H])C([H])([H])N([H])C(=O)N4C([H])([H])C([H])([H])C([H])([H])C([H])(n5nc(-c6c([H])c([H])c(Oc7c([H])c([H])c(F)c([H])c7F)c([H])c6[H])c(C(=O)N([H])[H])c5N([H])[H])C4([H])[H])C3([H])[H])c([H])c([H])c2C1([H])[H]

$$$$
36:0:0
     RDKit          3D

 94102  0  0  1  0  0  0  0  0999 V2000
  -30.0340  -19.6110   21.0590 C   0  0  0  0  0  0  0  0  0  0  0  0
  -29.4650  -18.1770   20.9040 C   0  0  0  0  0  2  0  0  0  0  0  0
  -32.2420  -18.5390   21.8670 C   0  0  0  0  0  2  0  0  0  0  0  0
  -31.5710  -17.1590   21.8990 C   0  0  0  0  0  2  0  0  0  0  0  0
  -31.2420  -19.7120   22.0110 C   0  0  0  0  0  3  0  0  0  0  0  0
  -30.5400  -17.0590   20.7640 C   0  0  0  0  0  3  0  0  0  0  0  0
  -29.4580  -20.6110   20.4860 N   0  0  0  0  0  0  0  0  0  0  0  0
  -30.5960  -14.6530   20.0710 C   0  0  0  0  0  0  0  0  0  0  0  0
  -30.2010  -12.5070   18.9240 C   0  0  0  0  0  2  0  0  0  0  0  0
  -29.1930  -12.7250   17.7780 C   0  0  0  0  0  2  0  0  0  0  0  0
  -27.7480  -12.5850   18.2950 C   0  0  0  0  0  2  0  0  0  0  0  0
  -27.4890  -13.4060   19.5870 C   0  0  0  0  0  3  0  0  0  0  0  0
  -28.6120  -13.1860   20.6260 C   0  0  0  0  0  2  0  0  0  0  0  0
  -29.8970  -13.4890   19.9770 N   0  0  0  0  0  0  0  0  0  0  0  0
  -31.6810  -14.8190   19.5070 O   0  0  0  0  0  0  0  0  0  0  0  0
  -29.9910  -15.6840   20.6990 N   0  0  0  0  0  0  0  0  0  0  0  0
  -29.0930  -15.5020   21.1240 H   0  0  0  0  0  0  0  0  0  0  0  0
  -25.1450  -13.9990   20.4670 C   0  0  0  0  0  0  0  0  0  0  0  0
  -24.0980  -13.2200   20.8790 C   0  0  0  0  0  0  0  0  0  0  0  0
  -24.5470  -11.8680   20.7770 C   0  0  0  0  0  0  0  0  0  0  0  0
  -26.1680  -13.1210   20.1430 N   0  0  0  0  0  0  0  0  0  0  0  0
  -25.8140  -11.8330   20.3840 N   0  0  0  0  0  0  0  0  0  0  0  0
  -23.8260  -10.6040   20.9720 C   0  0  0  0  0  0  0  0  0  0  0  0
  -24.2760   -9.6320   21.8930 C   0  0  0  0  0  3  0  0  0  0  0  0
  -23.5550   -8.4320   22.0770 C   0  0  0  0  0  3  0  0  0  0  0  0
  -22.3690   -8.1960   21.3410 C   0  0  0  0  0  0  0  0  0  0  0  0
  -21.9390   -9.1570   20.4090 C   0  0  0  0  0  3  0  0  0  0  0  0
  -22.6600  -10.3480   20.2230 C   0  0  0  0  0  3  0  0  0  0  0  0
  -21.6170   -7.0500   21.4360 O   0  0  0  0  0  0  0  0  0  0  0  0
  -21.5510   -6.3270   22.6000 C   0  0  0  0  0  0  0  0  0  0  0  0
  -21.0350   -6.8800   23.7920 C   0  0  0  0  0  3  0  0  0  0  0  0
  -20.9210   -6.0800   24.9480 C   0  0  0  0  0  3  0  0  0  0  0  0
  -21.3120   -4.7290   24.9110 C   0  0  0  0  0  0  0  0  0  0  0  0
  -21.8210   -4.1750   23.7230 C   0  0  0  0  0  3  0  0  0  0  0  0
  -21.9390   -4.9720   22.5700 C   0  0  0  0  0  0  0  0  0  0  0  0
  -22.4090   -4.4280   21.4220 F   0  0  0  0  0  0  0  0  0  0  0  0
  -21.1950   -3.9580   26.0170 F   0  0  0  0  0  0  0  0  0  0  0  0
  -22.7240  -13.6950   21.2580 C   0  0  0  0  0  0  0  0  0  0  0  0
  -22.0440  -12.9650   22.1350 N   0  0  0  0  0  0  0  0  0  0  0  0
  -22.2670  -14.7470   20.8150 O   0  0  0  0  0  0  0  0  0  0  0  0
  -22.4290  -12.1120   22.5150 H   0  0  0  0  0  0  0  0  0  0  0  0
  -21.1250  -13.2620   22.4300 H   0  0  0  0  0  0  0  0  0  0  0  0
  -25.3070  -15.3740   20.3210 N   0  0  0  0  0  0  0  0  0  0  0  0
  -24.5480  -16.0270   20.4810 H   0  0  0  0  0  0  0  0  0  0  0  0
  -26.1340  -15.8160   19.9380 H   0  0  0  0  0  0  0  0  0  0  0  0
  -30.7520  -19.8530   23.3930 N   0  0  0  0  0  4  0  0  0  0  0  0
  -30.2650  -19.0290   23.6940 H   0  0  0  0  0  0  0  0  0  0  0  0
  -30.1140  -20.6260   23.4460 H   0  0  0  0  0  0  0  0  0  0  0  0
  -31.5140  -20.0270   24.0230 H   0  0  0  0  0  0  0  0  0  0  0  0
  -29.9090  -21.9950   20.6820 C   0  0  0  0  0  2  0  0  0  0  0  0
  -28.9540  -22.9940   19.9810 C   0  0  0  0  0  2  0  0  0  0  0  0
  -29.1980  -24.4980   20.3070 C   0  0  0  0  0  2  0  0  0  0  0  0
  -28.0900  -25.4140   19.7310 C   0  0  0  0  0  2  0  0  0  0  0  0
  -28.2310  -26.8200   20.0330 O   0  0  0  0  0  0  0  0  0  0  0  0
  -24.5120  -32.0100   23.2300 C   0  0  0  0  0  0  0  0  0  0  0  0
  -27.0700  -27.5820   20.0260 C   0  0  0  0  0  0  0  0  0  0  0  0
  -23.2620  -30.6180   21.6160 C   0  0  0  0  0  3  0  0  0  0  0  0
  -24.6770  -29.1050   20.1270 C   0  0  0  0  0  0  0  0  0  0  0  0
  -25.7830  -30.9810   21.3470 C   0  0  0  0  0  2  0  0  0  0  0  0
  -25.8540  -29.6180   20.6880 C   0  0  0  0  0  0  0  0  0  0  0  0
  -27.0520  -28.8630   20.6360 C   0  0  0  0  0  3  0  0  0  0  0  0
  -25.8700  -27.1090   19.4380 C   0  0  0  0  0  3  0  0  0  0  0  0
  -24.6810  -27.8520   19.5000 C   0  0  0  0  0  3  0  0  0  0  0  0
  -23.4320  -29.9570   20.2240 C   0  0  0  0  0  2  0  0  0  0  0  0
  -24.5390  -31.2170   22.1220 N   0  0  0  0  0  0  0  0  0  0  0  0
  -23.4460  -32.2740   23.8050 O   0  0  0  0  0  0  0  0  0  0  0  0
  -22.6440  -29.5830   22.5860 C   0  0  0  0  0  0  0  0  0  0  0  0
  -21.3250  -29.3590   22.4630 N   0  0  0  0  0  0  0  0  0  0  0  0
  -23.3480  -28.9870   23.4040 O   0  0  0  0  0  0  0  0  0  0  0  0
  -20.8160  -29.8950   21.7740 H   0  0  0  0  0  0  0  0  0  0  0  0
  -17.9910  -28.0610   22.9700 C   0  0  0  0  0  0  0  0  0  0  0  0
  -20.5380  -28.4030   23.2430 C   0  0  0  0  0  3  0  0  0  0  0  0
  -20.6890  -26.9700   22.6820 C   0  0  0  0  0  2  0  0  0  0  0  0
  -19.6000  -26.6020   21.6690 C   0  0  0  0  0  2  0  0  0  0  0  0
  -18.2120  -26.7100   22.3090 C   0  0  0  0  0  2  0  0  0  0  0  0
  -19.0840  -28.8630   23.3930 C   0  0  0  0  0  0  0  0  0  0  0  0
  -18.8250  -30.1240   23.9700 C   0  0  0  0  0  3  0  0  0  0  0  0
  -17.5040  -30.5870   24.1290 C   0  0  0  0  0  3  0  0  0  0  0  0
  -16.4260  -29.7820   23.7250 C   0  0  0  0  0  3  0  0  0  0  0  0
  -16.6700  -28.5210   23.1500 C   0  0  0  0  0  3  0  0  0  0  0  0
  -25.8140  -32.6420   23.8140 C   0  0  0  0  0  3  0  0  0  0  0  0
  -25.5190  -34.0460   24.1320 N   0  0  0  0  0  0  0  0  0  0  0  0
  -25.8280  -35.0850   23.3430 C   0  0  0  0  0  0  0  0  0  0  0  0
  -26.4610  -34.9620   22.2910 O   0  0  0  0  0  0  0  0  0  0  0  0
  -24.9550  -34.2170   24.9500 H   0  0  0  0  0  0  0  0  0  0  0  0
  -24.0890  -36.8730   23.0220 C   0  0  0  0  0  1  0  0  0  0  0  0
  -25.3580  -36.4810   23.7940 C   0  0  0  0  0  3  0  0  0  0  0  0
  -27.5140  -37.3870   24.5430 C   0  0  0  0  0  1  0  0  0  0  0  0
  -26.3870  -37.5310   23.6240 N   0  0  0  0  0  0  0  0  0  0  0  0
  -25.9840  -38.4540   23.7580 H   0  0  0  0  0  0  0  0  0  0  0  0
  -26.3550  -31.8840   25.0880 C   0  0  1  0  0  0  0  0  0  0  0  0
  -25.2760  -31.6350   26.1680 C   0  0  0  0  0  1  0  0  0  0  0  0
  -26.9520  -30.5140   24.6930 C   0  0  0  0  0  1  0  0  0  0  0  0
  -27.4990  -32.6990   25.7360 C   0  0  0  0  0  1  0  0  0  0  0  0
  1  5  1  0
  2  1  1  0
  3  4  1  0
  3  5  1  0
  5 46  1  0
  6 16  1  0
  6  2  1  0
  6  4  1  0
  7 50  1  0
  7  1  2  0
  8 16  1  0
  9 14  1  0
 10 11  1  0
 10  9  1  0
 12 11  1  0
 12 21  1  0
 12 13  1  0
 14  8  1  0
 14 13  1  0
 15  8  2  0
 16 17  1  0
 18 19  2  0
 19 38  1  0
 20 19  1  0
 20 23  1  0
 21 22  1  0
 21 18  1  0
 22 20  2  0
 23 24  1  0
 24 25  2  0
 26 29  1  0
 26 25  1  0
 27 26  2  0
 28 27  1  0
 28 23  2  0
 29 30  1  0
 30 31  1  0
 31 32  2  0
 33 32  1  0
 33 37  1  0
 34 33  2  0
 35 30  2  0
 35 34  1  0
 36 35  1  0
 38 39  1  0
 39 42  1  0
 39 41  1  0
 40 38  2  0
 43 18  1  0
 43 44  1  0
 45 43  1  0
 46 48  1  0
 46 47  1  0
 46 49  1  0
 51 52  1  0
 51 50  1  0
 53 54  1  0
 53 52  1  0
 55 66  2  0
 56 54  1  0
 56 61  1  0
 57 65  1  0
 57 67  1  0
 58 64  1  0
 58 60  1  0
 59 65  1  0
 60 59  1  0
 61 60  2  0
 62 63  1  0
 62 56  2  0
 63 58  2  0
 64 57  1  0
 65 55  1  0
 67 69  2  0
 68 67  1  0
 70 68  1  0
 71 80  2  0
 71 76  1  0
 72 68  1  0
 72 76  1  0
 73 72  1  0
 74 75  1  0
 74 73  1  0
 75 71  1  0
 76 77  2  0
 77 78  1  0
 79 78  2  0
 80 79  1  0
 81 55  1  0
 81 82  1  0
 81 91  1  0
 82 85  1  0
 83 87  1  0
 83 82  1  0
 84 83  2  0
 87 86  1  0
 89 90  1  0
 89 87  1  0
 89 88  1  0
 91 94  1  1
 91 92  1  0
 93 91  1  0
M  ISO  4   8 100  16 100  53 101  54 101
M  END
>  <TORSDO>  (37) 
F 21

>  <SCORE>  (37) 
-12.955

>  <name>  (37) 
36

>  <ligand_id>  (37) 
36

>  <original_smiles>  (37) 
[H]c1c([H])c([H])c2c(c1[H])C([H])([H])C([H])([H])C([H])([H])C2([H])N([H])C(=O)C1([H])N(C(=O)C([H])(N([H])C(=O)C([H])(N([H])C([H])([H])[H])C([H])([H])[H])C(C([H])([H])[H])(C([H])([H])[H])C([H])([H])[H])C([H])([H])c2c([H])c(OC([H])([H])C([H])([H])C([H])([H])C([H])([H])N=C3C([H])([H])C([H])(N([H])C(=O)N4C([H])([H])C([H])([H])C([H])([H])C([H])(n5nc(-c6c([H])c([H])c(Oc7c([H])c([H])c(F)c([H])c7F)c([H])c6[H])c(C(=O)N([H])[H])c5N([H])[H])C4([H])[H])C([H])([H])C([H])([H])C3([H])[N+]([H])([H])[H])c([H])c([H])c2C1([H])[H]

>  <smiles>  (37) 
[H]c1c([H])c([H])c2c(c1[H])C([H])([H])C([H])([H])C([H])([H])C2([H])N([H])C(=O)C1([H])N(C(=O)C([H])(N([H])C(=O)C([H])(N([H])C([H])([H])[H])C([H])([H])[H])C(C([H])([H])[H])(C([H])([H])[H])C([H])([H])[H])C([H])([H])c2c([H])c(OC([H])([H])C([H])([H])C([H])([H])C([H])([H])N=C3C([H])([H])C([H])(N([H])C(=O)N4C([H])([H])C([H])([H])C([H])([H])C([H])(n5nc(-c6c([H])c([H])c(Oc7c([H])c([H])c(F)c([H])c7F)c([H])c6[H])c(C(=O)N([H])[H])c5N([H])[H])C4([H])[H])C([H])([H])C([H])([H])C3([H])[N+]([H])([H])[H])c([H])c([H])c2C1([H])[H]

$$$$
37:0:0
     RDKit          3D

 88 96  0  0  1  0  0  0  0  0999 V2000
  -28.5500  -21.4700   20.7950 C   0  0  0  0  0  3  0  0  0  0  0  0
  -29.5360  -20.2460   20.6680 C   0  0  0  0  0  2  0  0  0  0  0  0
  -28.9040  -18.8690   20.3220 C   0  0  0  0  0  0  0  0  0  0  0  0
  -28.0660  -18.8440   19.4170 O   0  0  0  0  0  0  0  0  0  0  0  0
  -30.7130  -14.5740   20.2880 C   0  0  0  0  0  0  0  0  0  0  0  0
  -30.3840  -12.3970   19.1600 C   0  0  0  0  0  2  0  0  0  0  0  0
  -29.4220  -12.5690   17.9660 C   0  0  0  0  0  2  0  0  0  0  0  0
  -27.9600  -12.4060   18.4220 C   0  0  0  0  0  2  0  0  0  0  0  0
  -27.6340  -13.2480   19.6810 C   0  0  0  0  0  3  0  0  0  0  0  0
  -28.7150  -13.0730   20.7760 C   0  0  0  0  0  2  0  0  0  0  0  0
  -30.0170  -13.4000   20.1790 N   0  0  0  0  0  0  0  0  0  0  0  0
  -31.8540  -14.6770   19.8310 O   0  0  0  0  0  0  0  0  0  0  0  0
  -28.7970  -16.2650   20.6610 C   0  0  0  0  0  2  0  0  0  0  0  0
  -30.7400  -17.0230   20.8700 C   0  0  0  0  0  2  0  0  0  0  0  0
  -29.3510  -17.6290   21.1210 C   0  0  0  0  0  3  0  0  0  0  0  0
  -30.1300  -15.6720   20.8630 N   0  0  0  0  0  0  0  0  0  0  0  0
  -25.2520  -13.8560   20.4300 C   0  0  0  0  0  0  0  0  0  0  0  0
  -24.1920  -13.0850   20.8190 C   0  0  0  0  0  0  0  0  0  0  0  0
  -24.6560  -11.7340   20.7860 C   0  0  0  0  0  0  0  0  0  0  0  0
  -26.2940  -12.9750   20.1860 N   0  0  0  0  0  0  0  0  0  0  0  0
  -25.9410  -11.6940   20.4580 N   0  0  0  0  0  0  0  0  0  0  0  0
  -23.9360  -10.4720   20.9880 C   0  0  0  0  0  0  0  0  0  0  0  0
  -24.3800   -9.5100   21.9210 C   0  0  0  0  0  3  0  0  0  0  0  0
  -23.6610   -8.3100   22.1080 C   0  0  0  0  0  3  0  0  0  0  0  0
  -22.4820   -8.0660   21.3650 C   0  0  0  0  0  0  0  0  0  0  0  0
  -22.0570   -9.0180   20.4210 C   0  0  0  0  0  3  0  0  0  0  0  0
  -22.7770  -10.2080   20.2310 C   0  0  0  0  0  3  0  0  0  0  0  0
  -21.7320   -6.9210   21.4630 O   0  0  0  0  0  0  0  0  0  0  0  0
  -21.6920   -6.1850   22.6200 C   0  0  0  0  0  0  0  0  0  0  0  0
  -21.2770   -6.7470   23.8470 C   0  0  0  0  0  3  0  0  0  0  0  0
  -21.1860   -5.9380   24.9970 C   0  0  0  0  0  3  0  0  0  0  0  0
  -21.4990   -4.5670   24.9210 C   0  0  0  0  0  0  0  0  0  0  0  0
  -21.9090   -4.0040   23.6990 C   0  0  0  0  0  3  0  0  0  0  0  0
  -22.0030   -4.8110   22.5510 C   0  0  0  0  0  0  0  0  0  0  0  0
  -22.3790   -4.2620   21.3720 F   0  0  0  0  0  0  0  0  0  0  0  0
  -21.4030   -3.7860   26.0230 F   0  0  0  0  0  0  0  0  0  0  0  0
  -22.7990  -13.5610   21.1080 C   0  0  0  0  0  0  0  0  0  0  0  0
  -22.0850  -12.8670   21.9870 N   0  0  0  0  0  0  0  0  0  0  0  0
  -22.3530  -14.5840   20.5900 O   0  0  0  0  0  0  0  0  0  0  0  0
  -22.4580  -12.0380   22.4280 H   0  0  0  0  0  0  0  0  0  0  0  0
  -21.1500  -13.1690   22.2260 H   0  0  0  0  0  0  0  0  0  0  0  0
  -25.4050  -15.2270   20.2410 N   0  0  0  0  0  0  0  0  0  0  0  0
  -24.6240  -15.8660   20.3410 H   0  0  0  0  0  0  0  0  0  0  0  0
  -26.2210  -15.6620   19.8330 H   0  0  0  0  0  0  0  0  0  0  0  0
  -29.0420  -22.8180   20.1650 C   0  0  0  0  0  3  0  0  0  0  0  0
  -28.2590  -24.1240   20.5530 C   0  0  0  0  0  2  0  0  0  0  0  0
  -28.5610  -25.3650   19.6430 C   0  0  0  0  0  2  0  0  0  0  0  0
  -28.4020  -26.6810   20.2330 O   0  0  0  0  0  0  0  0  0  0  0  0
  -24.5740  -31.8930   23.2370 C   0  0  0  0  0  0  0  0  0  0  0  0
  -27.2150  -27.4000   20.1800 C   0  0  0  0  0  0  0  0  0  0  0  0
  -23.3670  -30.4880   21.5970 C   0  0  0  0  0  3  0  0  0  0  0  0
  -24.8210  -28.9380   20.1750 C   0  0  0  0  0  0  0  0  0  0  0  0
  -25.8960  -30.8340   21.4020 C   0  0  0  0  0  2  0  0  0  0  0  0
  -25.9780  -29.4570   20.7650 C   0  0  0  0  0  0  0  0  0  0  0  0
  -27.1730  -28.6930   20.7640 C   0  0  0  0  0  3  0  0  0  0  0  0
  -26.0330  -26.9030   19.5830 C   0  0  0  0  0  3  0  0  0  0  0  0
  -24.8450  -27.6630   19.5810 C   0  0  0  0  0  3  0  0  0  0  0  0
  -23.5780  -29.8030   20.2190 C   0  0  0  0  0  2  0  0  0  0  0  0
  -24.6300  -31.0890   22.1360 N   0  0  0  0  0  0  0  0  0  0  0  0
  -23.4930  -32.1690   23.7770 O   0  0  0  0  0  0  0  0  0  0  0  0
  -22.7120  -29.4720   22.5600 C   0  0  0  0  0  0  0  0  0  0  0  0
  -21.3870  -29.2930   22.4340 N   0  0  0  0  0  0  0  0  0  0  0  0
  -23.3940  -28.8470   23.3770 O   0  0  0  0  0  0  0  0  0  0  0  0
  -20.8990  -29.8510   21.7460 H   0  0  0  0  0  0  0  0  0  0  0  0
  -18.0100  -28.1030   22.9290 C   0  0  0  0  0  0  0  0  0  0  0  0
  -20.5680  -28.3570   23.2030 C   0  0  0  0  0  3  0  0  0  0  0  0
  -20.6680  -26.9250   22.6270 C   0  0  0  0  0  2  0  0  0  0  0  0
  -19.5680  -26.6050   21.6110 C   0  0  0  0  0  2  0  0  0  0  0  0
  -18.1850  -26.7530   22.2540 C   0  0  0  0  0  2  0  0  0  0  0  0
  -19.1300  -28.8630   23.3610 C   0  0  0  0  0  0  0  0  0  0  0  0
  -18.9140  -30.1270   23.9490 C   0  0  0  0  0  3  0  0  0  0  0  0
  -17.6100  -30.6330   24.1120 C   0  0  0  0  0  3  0  0  0  0  0  0
  -16.5040  -29.8700   23.6980 C   0  0  0  0  0  3  0  0  0  0  0  0
  -16.7050  -28.6060   23.1120 C   0  0  0  0  0  3  0  0  0  0  0  0
  -25.8600  -32.5230   23.8590 C   0  0  0  0  0  3  0  0  0  0  0  0
  -25.5550  -33.9230   24.1820 N   0  0  0  0  0  0  0  0  0  0  0  0
  -25.8990  -34.9710   23.4220 C   0  0  0  0  0  0  0  0  0  0  0  0
  -26.5760  -34.8620   22.3950 O   0  0  0  0  0  0  0  0  0  0  0  0
  -24.9570  -34.0840   24.9780 H   0  0  0  0  0  0  0  0  0  0  0  0
  -24.1830  -36.7700   23.0440 C   0  0  0  0  0  1  0  0  0  0  0  0
  -25.4140  -36.3630   23.8690 C   0  0  0  0  0  3  0  0  0  0  0  0
  -27.5450  -37.2370   24.7200 C   0  0  0  0  0  1  0  0  0  0  0  0
  -26.4530  -37.4100   23.7660 N   0  0  0  0  0  0  0  0  0  0  0  0
  -26.0510  -38.3330   23.9080 H   0  0  0  0  0  0  0  0  0  0  0  0
  -26.3740  -31.7560   25.1380 C   0  0  1  0  0  0  0  0  0  0  0  0
  -25.2790  -31.5270   26.2070 C   0  0  0  0  0  1  0  0  0  0  0  0
  -26.9520  -30.3750   24.7500 C   0  0  0  0  0  1  0  0  0  0  0  0
  -27.5260  -32.5490   25.7980 C   0  0  0  0  0  1  0  0  0  0  0  0
  2  1  1  0
  3  2  1  0
  4  3  2  0
  5 16  1  0
  6 11  1  0
  7  8  1  0
  7  6  1  0
  9  8  1  0
  9 20  1  0
  9 10  1  0
 11  5  1  0
 11 10  1  0
 12  5  2  0
 13 16  1  0
 13 15  1  0
 14 15  1  0
 15  3  1  0
 16 14  1  0
 17 18  2  0
 18 37  1  0
 19 18  1  0
 19 22  1  0
 20 17  1  0
 20 21  1  0
 21 19  2  0
 22 23  1  0
 23 24  2  0
 25 28  1  0
 25 24  1  0
 26 25  2  0
 27 26  1  0
 27 22  2  0
 28 29  1  0
 29 30  1  0
 30 31  2  0
 32 31  1  0
 32 36  1  0
 33 32  2  0
 34 29  2  0
 34 33  1  0
 35 34  1  0
 37 38  1  0
 38 41  1  0
 38 40  1  0
 39 37  2  0
 42 43  1  0
 42 17  1  0
 44 42  1  0
 45 46  1  0
 45  1  2  0
 47 48  1  0
 47 46  1  0
 49 60  2  0
 50 48  1  0
 50 55  1  0
 51 59  1  0
 51 61  1  0
 52 58  1  0
 52 54  1  0
 53 59  1  0
 54 53  1  0
 55 54  2  0
 56 50  2  0
 57 56  1  0
 57 52  2  0
 58 51  1  0
 59 49  1  0
 61 63  2  0
 62 61  1  0
 64 62  1  0
 65 74  2  0
 65 70  1  0
 66 62  1  0
 66 70  1  0
 67 66  1  0
 68 69  1  0
 68 67  1  0
 69 65  1  0
 70 71  2  0
 71 72  1  0
 73 72  2  0
 74 73  1  0
 75 49  1  0
 75 76  1  0
 75 85  1  0
 76 79  1  0
 77 81  1  0
 77 76  1  0
 78 77  2  0
 81 80  1  0
 83 81  1  0
 83 84  1  0
 83 82  1  0
 85 88  1  1
 85 86  1  0
 87 85  1  0
M  ISO  4   5 100  16 100  47 101  48 101
M  END
>  <TORSDO>  (38) 
F 21

>  <SCORE>  (38) 
-13.504

>  <name>  (38) 
37

>  <ligand_id>  (38) 
37

>  <original_smiles>  (38) 
[H]c1c([H])c([H])c2c(c1[H])C([H])([H])C([H])([H])C([H])([H])C2([H])N([H])C(=O)C1([H])N(C(=O)C([H])(N([H])C(=O)C([H])(N([H])C([H])([H])[H])C([H])([H])[H])C(C([H])([H])[H])(C([H])([H])[H])C([H])([H])[H])C([H])([H])c2c([H])c(OC([H])([H])C([H])([H])C([H])([H])C([H])([H])C([H])([H])C(=O)C3([H])C([H])([H])N(C(=O)N4C([H])([H])C([H])([H])C([H])([H])C([H])(n5nc(-c6c([H])c([H])c(Oc7c([H])c([H])c(F)c([H])c7F)c([H])c6[H])c(C(=O)N([H])[H])c5N([H])[H])C4([H])[H])C3([H])[H])c([H])c([H])c2C1([H])[H]

>  <smiles>  (38) 
[H]c1c([H])c([H])c2c(c1[H])C([H])([H])C([H])([H])C([H])([H])C2([H])N([H])C(=O)C1([H])N(C(=O)C([H])(N([H])C(=O)C([H])(N([H])C([H])([H])[H])C([H])([H])[H])C(C([H])([H])[H])(C([H])([H])[H])C([H])([H])[H])C([H])([H])c2c([H])c(OC([H])([H])C([H])([H])C([H])([H])C([H])([H])C([H])([H])C(=O)C3([H])C([H])([H])N(C(=O)N4C([H])([H])C([H])([H])C([H])([H])C([H])(n5nc(-c6c([H])c([H])c(Oc7c([H])c([H])c(F)c([H])c7F)c([H])c6[H])c(C(=O)N([H])[H])c5N([H])[H])C4([H])[H])C3([H])[H])c([H])c([H])c2C1([H])[H]

$$$$
38:0:0
     RDKit          3D

 96104  0  0  1  0  0  0  0  0999 V2000
  -29.5850  -17.7870   19.1200 C   0  0  0  0  0  2  0  0  0  0  0  0
  -29.8470  -19.1830   21.2440 C   0  0  0  0  0  2  0  0  0  0  0  0
  -31.4860  -19.4940   19.4440 C   0  0  0  0  0  2  0  0  0  0  0  0
  -29.5000  -17.7710   20.6730 C   0  0  0  0  0  3  0  0  0  0  0  0
  -30.9540  -18.3070   18.5930 C   0  0  0  0  0  3  0  0  0  0  0  0
  -30.4240  -20.1130   20.2480 N   0  0  0  0  0  0  0  0  0  0  0  0
  -30.7100  -14.3980   20.5080 C   0  0  0  0  0  0  0  0  0  0  0  0
  -30.3810  -12.3310   19.2370 C   0  0  0  0  0  2  0  0  0  0  0  0
  -29.4320  -12.6070   18.0570 C   0  0  0  0  0  2  0  0  0  0  0  0
  -27.9460  -12.5160   18.4680 C   0  0  0  0  0  2  0  0  0  0  0  0
  -27.6290  -13.2700   19.7830 C   0  0  0  0  0  3  0  0  0  0  0  0
  -28.6810  -12.9550   20.8690 C   0  0  0  0  0  2  0  0  0  0  0  0
  -30.0100  -13.2550   20.3150 N   0  0  0  0  0  0  0  0  0  0  0  0
  -31.8370  -14.5730   20.0340 O   0  0  0  0  0  0  0  0  0  0  0  0
  -30.4320  -16.6600   21.1900 C   0  0  0  0  0  0  0  0  0  0  0  0
  -29.9910  -15.4030   21.0340 N   0  0  0  0  0  0  0  0  0  0  0  0
  -31.5750  -16.9460   21.5570 O   0  0  0  0  0  0  0  0  0  0  0  0
  -29.0000  -15.2450   21.0790 H   0  0  0  0  0  0  0  0  0  0  0  0
  -25.2230  -13.8880   20.4600 C   0  0  0  0  0  0  0  0  0  0  0  0
  -24.1490  -13.1220   20.8270 C   0  0  0  0  0  0  0  0  0  0  0  0
  -24.6050  -11.7690   20.8050 C   0  0  0  0  0  0  0  0  0  0  0  0
  -26.2710  -13.0030   20.2480 N   0  0  0  0  0  0  0  0  0  0  0  0
  -25.8980  -11.7220   20.5030 N   0  0  0  0  0  0  0  0  0  0  0  0
  -23.8730  -10.5110   21.0040 C   0  0  0  0  0  0  0  0  0  0  0  0
  -24.2960   -9.5490   21.9480 C   0  0  0  0  0  3  0  0  0  0  0  0
  -23.5610   -8.3560   22.1340 C   0  0  0  0  0  3  0  0  0  0  0  0
  -22.3940   -8.1170   21.3700 C   0  0  0  0  0  0  0  0  0  0  0  0
  -21.9920   -9.0690   20.4180 C   0  0  0  0  0  3  0  0  0  0  0  0
  -22.7260  -10.2510   20.2300 C   0  0  0  0  0  3  0  0  0  0  0  0
  -21.6350   -6.9750   21.4580 O   0  0  0  0  0  0  0  0  0  0  0  0
  -21.5700   -6.2410   22.6150 C   0  0  0  0  0  0  0  0  0  0  0  0
  -21.1320   -6.8080   23.8330 C   0  0  0  0  0  3  0  0  0  0  0  0
  -21.0170   -6.0010   24.9830 C   0  0  0  0  0  3  0  0  0  0  0  0
  -21.3300   -4.6290   24.9170 C   0  0  0  0  0  0  0  0  0  0  0  0
  -21.7590   -4.0630   23.7030 C   0  0  0  0  0  3  0  0  0  0  0  0
  -21.8780   -4.8680   22.5550 C   0  0  0  0  0  0  0  0  0  0  0  0
  -22.2740   -4.3110   21.3850 F   0  0  0  0  0  0  0  0  0  0  0  0
  -21.2120   -3.8530   26.0190 F   0  0  0  0  0  0  0  0  0  0  0  0
  -22.7500  -13.6080   21.0880 C   0  0  0  0  0  0  0  0  0  0  0  0
  -22.0110  -12.9240   21.9530 N   0  0  0  0  0  0  0  0  0  0  0  0
  -22.3210  -14.6320   20.5580 O   0  0  0  0  0  0  0  0  0  0  0  0
  -22.3660  -12.0980   22.4090 H   0  0  0  0  0  0  0  0  0  0  0  0
  -21.0760  -13.2380   22.1680 H   0  0  0  0  0  0  0  0  0  0  0  0
  -25.3870  -15.2560   20.2740 N   0  0  0  0  0  0  0  0  0  0  0  0
  -24.5940  -15.8860   20.3430 H   0  0  0  0  0  0  0  0  0  0  0  0
  -26.2050  -15.6940   19.8750 H   0  0  0  0  0  0  0  0  0  0  0  0
  -31.9730  -17.2440   18.4550 N   0  0  0  0  0  4  0  0  0  0  0  0
  -32.2600  -16.8770   19.3500 H   0  0  0  0  0  0  0  0  0  0  0  0
  -32.7920  -17.6070   17.9970 H   0  0  0  0  0  0  0  0  0  0  0  0
  -31.6340  -16.4930   17.8800 H   0  0  0  0  0  0  0  0  0  0  0  0
  -30.9300  -21.3110   20.9140 C   0  0  0  0  0  2  0  0  0  0  0  0
  -29.7980  -22.3200   21.1520 C   0  0  0  0  0  2  0  0  0  0  0  0
  -29.6130  -23.3050   19.9880 C   0  0  0  0  0  2  0  0  0  0  0  0
  -28.7120  -24.4870   20.3840 C   0  0  0  0  0  2  0  0  0  0  0  0
  -28.7920  -25.6720   19.4100 C   0  0  0  0  0  2  0  0  0  0  0  0
  -28.5540  -26.8670   20.1440 O   0  0  0  0  0  0  0  0  0  0  0  0
  -24.6130  -31.8730   23.2420 C   0  0  0  0  0  0  0  0  0  0  0  0
  -27.3170  -27.4710   20.1630 C   0  0  0  0  0  0  0  0  0  0  0  0
  -23.4240  -30.4630   21.5910 C   0  0  0  0  0  3  0  0  0  0  0  0
  -24.8930  -28.9240   20.1880 C   0  0  0  0  0  0  0  0  0  0  0  0
  -25.9440  -30.8390   21.4110 C   0  0  0  0  0  2  0  0  0  0  0  0
  -26.0380  -29.4660   20.7800 C   0  0  0  0  0  0  0  0  0  0  0  0
  -27.2480  -28.7400   20.7720 C   0  0  0  0  0  3  0  0  0  0  0  0
  -26.1450  -26.9200   19.5960 C   0  0  0  0  0  3  0  0  0  0  0  0
  -24.9370  -27.6440   19.6050 C   0  0  0  0  0  3  0  0  0  0  0  0
  -23.6460  -29.7760   20.2170 C   0  0  0  0  0  2  0  0  0  0  0  0
  -24.6770  -31.0730   22.1410 N   0  0  0  0  0  0  0  0  0  0  0  0
  -23.5270  -32.1430   23.7740 O   0  0  0  0  0  0  0  0  0  0  0  0
  -22.7690  -29.4430   22.5480 C   0  0  0  0  0  0  0  0  0  0  0  0
  -21.4440  -29.2640   22.4140 N   0  0  0  0  0  0  0  0  0  0  0  0
  -23.4460  -28.8150   23.3660 O   0  0  0  0  0  0  0  0  0  0  0  0
  -20.9610  -29.8210   21.7230 H   0  0  0  0  0  0  0  0  0  0  0  0
  -18.0620  -28.0910   22.9010 C   0  0  0  0  0  0  0  0  0  0  0  0
  -20.6210  -28.3290   23.1780 C   0  0  0  0  0  3  0  0  0  0  0  0
  -20.7150  -26.9020   22.5930 C   0  0  0  0  0  2  0  0  0  0  0  0
  -19.6120  -26.5910   21.5770 C   0  0  0  0  0  2  0  0  0  0  0  0
  -18.2300  -26.7430   22.2200 C   0  0  0  0  0  2  0  0  0  0  0  0
  -19.1860  -28.8420   23.3380 C   0  0  0  0  0  0  0  0  0  0  0  0
  -18.9790  -30.1030   23.9370 C   0  0  0  0  0  3  0  0  0  0  0  0
  -17.6780  -30.6160   24.1040 C   0  0  0  0  0  3  0  0  0  0  0  0
  -16.5680  -29.8620   23.6860 C   0  0  0  0  0  3  0  0  0  0  0  0
  -16.7610  -28.6020   23.0920 C   0  0  0  0  0  3  0  0  0  0  0  0
  -25.8930  -32.5090   23.8710 C   0  0  0  0  0  3  0  0  0  0  0  0
  -25.5780  -33.9080   24.1920 N   0  0  0  0  0  0  0  0  0  0  0  0
  -25.9130  -34.9570   23.4290 C   0  0  0  0  0  0  0  0  0  0  0  0
  -26.5940  -34.8490   22.4040 O   0  0  0  0  0  0  0  0  0  0  0  0
  -24.9770  -34.0640   24.9860 H   0  0  0  0  0  0  0  0  0  0  0  0
  -24.1870  -36.7470   23.0400 C   0  0  0  0  0  1  0  0  0  0  0  0
  -25.4170  -36.3460   23.8720 C   0  0  0  0  0  3  0  0  0  0  0  0
  -27.5390  -37.2370   24.7300 C   0  0  0  0  0  1  0  0  0  0  0  0
  -26.4490  -37.4000   23.7720 N   0  0  0  0  0  0  0  0  0  0  0  0
  -26.0400  -38.3200   23.9110 H   0  0  0  0  0  0  0  0  0  0  0  0
  -26.4020  -31.7420   25.1530 C   0  0  1  0  0  0  0  0  0  0  0  0
  -25.3020  -31.5040   26.2130 C   0  0  0  0  0  1  0  0  0  0  0  0
  -26.9920  -30.3640   24.7700 C   0  0  0  0  0  1  0  0  0  0  0  0
  -27.5480  -32.5380   25.8220 C   0  0  0  0  0  1  0  0  0  0  0  0
  1  4  1  0
  3  6  1  0
  4 15  1  0
  4  2  1  0
  5 47  1  0
  5  1  1  0
  5  3  1  0
  6 51  1  0
  6  2  1  0
  7 16  1  0
  8 13  1  0
  9 10  1  0
  9  8  1  0
 11 10  1  0
 11 22  1  0
 11 12  1  0
 13  7  1  0
 13 12  1  0
 14  7  2  0
 15 17  2  0
 16 18  1  0
 16 15  1  0
 19 20  2  0
 20 39  1  0
 21 20  1  0
 21 24  1  0
 22 19  1  0
 22 23  1  0
 23 21  2  0
 24 25  1  0
 25 26  2  0
 27 30  1  0
 27 26  1  0
 28 27  2  0
 29 28  1  0
 29 24  2  0
 30 31  1  0
 31 32  1  0
 32 33  2  0
 34 33  1  0
 34 38  1  0
 35 34  2  0
 36 31  2  0
 36 35  1  0
 37 36  1  0
 39 40  1  0
 40 43  1  0
 40 42  1  0
 41 39  2  0
 44 45  1  0
 44 19  1  0
 46 44  1  0
 47 48  1  0
 49 47  1  0
 50 47  1  0
 51 52  1  0
 53 54  1  0
 53 52  1  0
 55 56  1  0
 55 54  1  0
 56 58  1  0
 57 68  2  0
 58 63  1  0
 59 67  1  0
 59 69  1  0
 60 66  1  0
 60 62  1  0
 61 67  1  0
 62 61  1  0
 63 62  2  0
 64 65  1  0
 64 58  2  0
 65 60  2  0
 66 59  1  0
 67 57  1  0
 69 71  2  0
 70 69  1  0
 72 70  1  0
 73 82  2  0
 73 78  1  0
 74 70  1  0
 74 78  1  0
 75 74  1  0
 76 77  1  0
 76 75  1  0
 77 73  1  0
 78 79  2  0
 79 80  1  0
 81 80  2  0
 82 81  1  0
 83 57  1  0
 83 84  1  0
 83 93  1  0
 84 87  1  0
 85 89  1  0
 85 84  1  0
 86 85  2  0
 89 88  1  0
 91 89  1  0
 91 92  1  0
 91 90  1  0
 93 96  1  1
 93 94  1  0
 95 93  1  0
M  ISO  4   7 100  16 100  55 101  56 101
M  END
>  <TORSDO>  (39) 
F 22

>  <SCORE>  (39) 
-13.425

>  <name>  (39) 
38

>  <ligand_id>  (39) 
38

>  <original_smiles>  (39) 
[H]c1c([H])c([H])c2c(c1[H])C([H])([H])C([H])([H])C([H])([H])C2([H])N([H])C(=O)C1([H])N(C(=O)C([H])(N([H])C(=O)C([H])(N([H])C([H])([H])[H])C([H])([H])[H])C(C([H])([H])[H])(C([H])([H])[H])C([H])([H])[H])C([H])([H])c2c([H])c(OC([H])([H])C([H])([H])C([H])([H])C([H])([H])C([H])([H])N3C([H])([H])C([H])(C(=O)N([H])C(=O)N4C([H])([H])C([H])([H])C([H])([H])C([H])(n5nc(-c6c([H])c([H])c(Oc7c([H])c([H])c(F)c([H])c7F)c([H])c6[H])c(C(=O)N([H])[H])c5N([H])[H])C4([H])[H])C([H])([H])C([H])([N+]([H])([H])[H])C3([H])[H])c([H])c([H])c2C1([H])[H]

>  <smiles>  (39) 
[H]c1c([H])c([H])c2c(c1[H])C([H])([H])C([H])([H])C([H])([H])C2([H])N([H])C(=O)C1([H])N(C(=O)C([H])(N([H])C(=O)C([H])(N([H])C([H])([H])[H])C([H])([H])[H])C(C([H])([H])[H])(C([H])([H])[H])C([H])([H])[H])C([H])([H])c2c([H])c(OC([H])([H])C([H])([H])C([H])([H])C([H])([H])C([H])([H])N3C([H])([H])C([H])(C(=O)N([H])C(=O)N4C([H])([H])C([H])([H])C([H])([H])C([H])(n5nc(-c6c([H])c([H])c(Oc7c([H])c([H])c(F)c([H])c7F)c([H])c6[H])c(C(=O)N([H])[H])c5N([H])[H])C4([H])[H])C([H])([H])C([H])([N+]([H])([H])[H])C3([H])[H])c([H])c([H])c2C1([H])[H]

$$$$
39:0:0
     RDKit          3D

 92100  0  0  1  0  0  0  0  0999 V2000
  -30.1540  -18.0280   20.3480 C   0  0  0  0  0  0  0  0  0  0  0  0
  -28.8200  -18.1070   20.3990 C   0  0  0  0  0  0  0  0  0  0  0  0
  -30.7510  -19.4120   20.1650 C   0  0  0  0  0  2  0  0  0  0  0  0
  -28.2940  -19.5260   20.3960 C   0  0  0  0  0  2  0  0  0  0  0  0
  -29.5910  -20.3730   20.5400 C   0  0  0  0  0  3  0  0  0  0  0  0
  -31.0120  -14.4640   20.4060 C   0  0  0  0  0  0  0  0  0  0  0  0
  -30.6360  -12.2250   19.4860 C   0  0  0  0  0  2  0  0  0  0  0  0
  -29.7510  -12.3100   18.2310 C   0  0  0  0  0  2  0  0  0  0  0  0
  -28.2610  -12.2590   18.6200 C   0  0  0  0  0  2  0  0  0  0  0  0
  -27.8910  -13.2180   19.7850 C   0  0  0  0  0  3  0  0  0  0  0  0
  -28.9120  -13.1310   20.9400 C   0  0  0  0  0  2  0  0  0  0  0  0
  -30.2500  -13.3360   20.3700 N   0  0  0  0  0  0  0  0  0  0  0  0
  -32.1890  -14.4240   20.0500 O   0  0  0  0  0  0  0  0  0  0  0  0
  -31.0040  -16.8580   20.5780 C   0  0  0  0  0  0  0  0  0  0  0  0
  -30.3860  -15.6460   20.6110 N   0  0  0  0  0  0  0  0  0  0  0  0
  -32.2250  -17.0060   20.7180 O   0  0  0  0  0  0  0  0  0  0  0  0
  -29.3810  -15.6440   20.6960 H   0  0  0  0  0  0  0  0  0  0  0  0
  -25.4910  -13.8730   20.4350 C   0  0  0  0  0  0  0  0  0  0  0  0
  -24.4010  -13.1300   20.7900 C   0  0  0  0  0  0  0  0  0  0  0  0
  -24.8340  -11.7680   20.7950 C   0  0  0  0  0  0  0  0  0  0  0  0
  -26.5250  -12.9720   20.2440 N   0  0  0  0  0  0  0  0  0  0  0  0
  -26.1320  -11.7000   20.5230 N   0  0  0  0  0  0  0  0  0  0  0  0
  -24.0760  -10.5260   20.9880 C   0  0  0  0  0  0  0  0  0  0  0  0
  -24.4720   -9.5620   21.9440 C   0  0  0  0  0  3  0  0  0  0  0  0
  -23.7170   -8.3840   22.1250 C   0  0  0  0  0  3  0  0  0  0  0  0
  -22.5540   -8.1600   21.3510 C   0  0  0  0  0  0  0  0  0  0  0  0
  -22.1730   -9.1140   20.3890 C   0  0  0  0  0  3  0  0  0  0  0  0
  -22.9310  -10.2840   20.2040 C   0  0  0  0  0  3  0  0  0  0  0  0
  -21.7720   -7.0340   21.4440 O   0  0  0  0  0  0  0  0  0  0  0  0
  -21.6890   -6.3060   22.6060 C   0  0  0  0  0  0  0  0  0  0  0  0
  -21.2420   -6.8840   23.8130 C   0  0  0  0  0  3  0  0  0  0  0  0
  -21.1050   -6.0880   24.9680 C   0  0  0  0  0  3  0  0  0  0  0  0
  -21.4040   -4.7130   24.9170 C   0  0  0  0  0  0  0  0  0  0  0  0
  -21.8410   -4.1320   23.7120 C   0  0  0  0  0  3  0  0  0  0  0  0
  -21.9810   -4.9280   22.5600 C   0  0  0  0  0  0  0  0  0  0  0  0
  -22.3840   -4.3590   21.3970 F   0  0  0  0  0  0  0  0  0  0  0  0
  -21.2610   -3.9440   26.0200 F   0  0  0  0  0  0  0  0  0  0  0  0
  -23.0060  -13.6360   21.0190 C   0  0  0  0  0  0  0  0  0  0  0  0
  -22.2520  -12.9830   21.8940 N   0  0  0  0  0  0  0  0  0  0  0  0
  -22.5920  -14.6480   20.4540 O   0  0  0  0  0  0  0  0  0  0  0  0
  -22.6070  -12.1790   22.3890 H   0  0  0  0  0  0  0  0  0  0  0  0
  -21.3080  -13.2940   22.0740 H   0  0  0  0  0  0  0  0  0  0  0  0
  -25.6870  -15.2380   20.2410 N   0  0  0  0  0  0  0  0  0  0  0  0
  -24.9370  -15.9120   20.3500 H   0  0  0  0  0  0  0  0  0  0  0  0
  -26.5670  -15.6590   19.9800 H   0  0  0  0  0  0  0  0  0  0  0  0
  -27.9130  -17.1450   20.6270 O   0  0  0  0  0  0  0  0  0  0  0  0
  -27.0690  -17.5590   20.7580 H   0  0  0  0  0  0  0  0  0  0  0  0
  -29.6130  -21.7340   19.7990 C   0  0  0  0  0  2  0  0  0  0  0  0
  -28.8490  -22.8570   20.5350 C   0  0  0  0  0  2  0  0  0  0  0  0
  -29.0550  -24.2740   19.9420 C   0  0  0  0  0  2  0  0  0  0  0  0
  -28.2850  -25.3620   20.7210 C   0  0  0  0  0  2  0  0  0  0  0  0
  -28.4830  -26.6880   20.1830 O   0  0  0  0  0  0  0  0  0  0  0  0
  -24.6650  -31.8330   23.3000 C   0  0  0  0  0  0  0  0  0  0  0  0
  -27.3440  -27.4650   20.1540 C   0  0  0  0  0  0  0  0  0  0  0  0
  -23.4820  -30.4700   21.6110 C   0  0  0  0  0  3  0  0  0  0  0  0
  -24.9570  -28.9750   20.1650 C   0  0  0  0  0  0  0  0  0  0  0  0
  -26.0080  -30.8480   21.4430 C   0  0  0  0  0  2  0  0  0  0  0  0
  -26.1100  -29.4880   20.7760 C   0  0  0  0  0  0  0  0  0  0  0  0
  -27.3130  -28.7410   20.7630 C   0  0  0  0  0  3  0  0  0  0  0  0
  -26.1810  -26.9770   19.5230 C   0  0  0  0  0  3  0  0  0  0  0  0
  -24.9860  -27.7200   19.5360 C   0  0  0  0  0  3  0  0  0  0  0  0
  -23.7100  -29.8280   20.2160 C   0  0  0  0  0  2  0  0  0  0  0  0
  -24.7370  -31.0620   22.1800 N   0  0  0  0  0  0  0  0  0  0  0  0
  -23.5770  -32.0940   23.8340 O   0  0  0  0  0  0  0  0  0  0  0  0
  -22.8150  -29.4250   22.5350 C   0  0  0  0  0  0  0  0  0  0  0  0
  -21.4910  -29.2590   22.3880 N   0  0  0  0  0  0  0  0  0  0  0  0
  -23.4860  -28.7650   23.3320 O   0  0  0  0  0  0  0  0  0  0  0  0
  -21.0160  -29.8400   21.7100 H   0  0  0  0  0  0  0  0  0  0  0  0
  -18.0950  -28.1130   22.8380 C   0  0  0  0  0  0  0  0  0  0  0  0
  -20.6570  -28.3030   23.1160 C   0  0  0  0  0  3  0  0  0  0  0  0
  -20.7290  -26.9000   22.4730 C   0  0  0  0  0  2  0  0  0  0  0  0
  -19.6210  -26.6470   21.4470 C   0  0  0  0  0  2  0  0  0  0  0  0
  -18.2430  -26.7900   22.1030 C   0  0  0  0  0  2  0  0  0  0  0  0
  -19.2290  -28.8310   23.3020 C   0  0  0  0  0  0  0  0  0  0  0  0
  -19.0420  -30.0690   23.9510 C   0  0  0  0  0  3  0  0  0  0  0  0
  -17.7510  -30.5950   24.1390 C   0  0  0  0  0  3  0  0  0  0  0  0
  -16.6290  -29.8720   23.6970 C   0  0  0  0  0  3  0  0  0  0  0  0
  -16.8000  -28.6320   23.0550 C   0  0  0  0  0  3  0  0  0  0  0  0
  -25.9420  -32.4420   23.9580 C   0  0  0  0  0  3  0  0  0  0  0  0
  -25.6570  -33.8480   24.2580 N   0  0  0  0  0  0  0  0  0  0  0  0
  -26.0390  -34.8780   23.4930 C   0  0  0  0  0  0  0  0  0  0  0  0
  -26.7450  -34.7430   22.4890 O   0  0  0  0  0  0  0  0  0  0  0  0
  -25.0400  -34.0280   25.0350 H   0  0  0  0  0  0  0  0  0  0  0  0
  -24.3620  -36.6940   23.0430 C   0  0  0  0  0  1  0  0  0  0  0  0
  -25.5650  -36.2830   23.9050 C   0  0  0  0  0  3  0  0  0  0  0  0
  -27.6860  -37.1460   24.7960 C   0  0  0  0  0  1  0  0  0  0  0  0
  -26.6250  -37.3120   23.8070 N   0  0  0  0  0  0  0  0  0  0  0  0
  -26.2320  -38.2410   23.9220 H   0  0  0  0  0  0  0  0  0  0  0  0
  -26.3960  -31.6720   25.2570 C   0  0  1  0  0  0  0  0  0  0  0  0
  -25.2530  -31.4740   26.2810 C   0  0  0  0  0  1  0  0  0  0  0  0
  -26.9580  -30.2760   24.8900 C   0  0  0  0  0  1  0  0  0  0  0  0
  -27.5420  -32.4430   25.9560 C   0  0  0  0  0  1  0  0  0  0  0  0
  1  2  2  0
  1 14  1  0
  2 46  1  0
  3  1  1  0
  3  5  1  0
  4  2  1  0
  4  5  1  0
  5 48  1  0
  6 15  1  0
  7 12  1  0
  8  9  1  0
  8  7  1  0
 10  9  1  0
 10 21  1  0
 10 11  1  0
 12  6  1  0
 12 11  1  0
 13  6  2  0
 14 15  1  0
 14 16  2  0
 15 17  1  0
 18 19  2  0
 19 20  1  0
 19 38  1  0
 20 23  1  0
 21 18  1  0
 21 22  1  0
 22 20  2  0
 23 24  1  0
 24 25  2  0
 26 29  1  0
 26 25  1  0
 27 26  2  0
 28 27  1  0
 28 23  2  0
 29 30  1  0
 30 31  1  0
 31 32  2  0
 33 32  1  0
 33 37  1  0
 34 33  2  0
 35 30  2  0
 35 34  1  0
 36 35  1  0
 38 39  1  0
 39 42  1  0
 39 41  1  0
 40 38  2  0
 43 44  1  0
 43 18  1  0
 45 43  1  0
 46 47  1  0
 48 49  1  0
 50 49  1  0
 50 51  1  0
 52 51  1  0
 53 64  2  0
 54 52  1  0
 54 59  1  0
 55 63  1  0
 55 65  1  0
 56 62  1  0
 56 58  1  0
 57 63  1  0
 58 57  1  0
 59 58  2  0
 60 61  1  0
 60 54  2  0
 61 56  2  0
 62 55  1  0
 63 53  1  0
 65 67  2  0
 66 65  1  0
 68 66  1  0
 69 78  2  0
 69 74  1  0
 70 66  1  0
 70 74  1  0
 71 70  1  0
 72 73  1  0
 72 71  1  0
 73 69  1  0
 74 75  2  0
 75 76  1  0
 77 76  2  0
 78 77  1  0
 79 53  1  0
 79 80  1  0
 79 89  1  0
 80 83  1  0
 81 85  1  0
 81 80  1  0
 82 81  2  0
 85 84  1  0
 87 85  1  0
 87 88  1  0
 87 86  1  0
 89 92  1  1
 89 90  1  0
 91 89  1  0
M  ISO  4   6 100  15 100  51 101  52 101
M  END
>  <TORSDO>  (40) 
F 21

>  <SCORE>  (40) 
-13.726

>  <name>  (40) 
39

>  <ligand_id>  (40) 
39

>  <original_smiles>  (40) 
[H]OC1=C(C(=O)N([H])C(=O)N2C([H])([H])C([H])([H])C([H])([H])C([H])(n3nc(-c4c([H])c([H])c(Oc5c([H])c([H])c(F)c([H])c5F)c([H])c4[H])c(C(=O)N([H])[H])c3N([H])[H])C2([H])[H])C([H])([H])C([H])(C([H])([H])C([H])([H])C([H])([H])C([H])([H])Oc2c([H])c([H])c3c(c2[H])C([H])([H])N(C(=O)C([H])(N([H])C(=O)C([H])(N([H])C([H])([H])[H])C([H])([H])[H])C(C([H])([H])[H])(C([H])([H])[H])C([H])([H])[H])C([H])(C(=O)N([H])C2([H])c4c([H])c([H])c([H])c([H])c4C([H])([H])C([H])([H])C2([H])[H])C3([H])[H])C1([H])[H]

>  <smiles>  (40) 
[H]OC1=C(C(=O)N([H])C(=O)N2C([H])([H])C([H])([H])C([H])([H])C([H])(n3nc(-c4c([H])c([H])c(Oc5c([H])c([H])c(F)c([H])c5F)c([H])c4[H])c(C(=O)N([H])[H])c3N([H])[H])C2([H])[H])C([H])([H])C([H])(C([H])([H])C([H])([H])C([H])([H])C([H])([H])Oc2c([H])c([H])c3c(c2[H])C([H])([H])N(C(=O)C([H])(N([H])C(=O)C([H])(N([H])C([H])([H])[H])C([H])([H])[H])C(C([H])([H])[H])(C([H])([H])[H])C([H])([H])[H])C([H])(C(=O)N([H])C2([H])c4c([H])c([H])c([H])c([H])c4C([H])([H])C([H])([H])C2([H])[H])C3([H])[H])C1([H])[H]

$$$$
40:0:0
     RDKit          3D

 91 99  0  0  1  0  0  0  0  0999 V2000
  -29.5360  -19.2240   20.2750 C   0  0  0  0  0  0  0  0  0  0  0  0
  -29.5290  -20.3900   20.9610 N   0  0  0  0  0  0  0  0  0  0  0  0
  -29.6890  -19.2190   19.0510 O   0  0  0  0  0  0  0  0  0  0  0  0
  -29.3980  -20.3170   21.9610 H   0  0  0  0  0  0  0  0  0  0  0  0
  -30.7530  -14.4750   19.9760 C   0  0  0  0  0  0  0  0  0  0  0  0
  -30.1720  -12.3990   18.7530 C   0  0  0  0  0  2  0  0  0  0  0  0
  -29.1300  -12.6170   17.6370 C   0  0  0  0  0  2  0  0  0  0  0  0
  -27.7100  -12.4750   18.1950 C   0  0  0  0  0  2  0  0  0  0  0  0
  -27.5000  -13.2870   19.4960 C   0  0  0  0  0  3  0  0  0  0  0  0
  -28.6570  -13.1150   20.5150 C   0  0  0  0  0  2  0  0  0  0  0  0
  -29.9350  -13.3840   19.8330 N   0  0  0  0  0  0  0  0  0  0  0  0
  -31.8190  -14.5400   19.3530 O   0  0  0  0  0  0  0  0  0  0  0  0
  -31.2940  -17.3790   22.3960 C   0  0  0  0  0  2  0  0  0  0  0  0
  -29.8250  -17.7910   22.4500 C   0  0  0  0  0  2  0  0  0  0  0  0
  -31.5360  -16.0530   21.6400 C   0  0  0  0  0  2  0  0  0  0  0  0
  -29.4470  -16.5240   20.2600 C   0  0  0  0  0  2  0  0  0  0  0  0
  -29.2290  -17.8850   21.0370 C   0  0  0  0  0  3  0  0  0  0  0  0
  -30.4190  -15.5190   20.8020 N   0  0  0  0  0  0  0  0  0  0  0  0
  -25.1820  -13.8790   20.4260 C   0  0  0  0  0  0  0  0  0  0  0  0
  -24.1430  -13.0970   20.8600 C   0  0  0  0  0  0  0  0  0  0  0  0
  -24.5940  -11.7470   20.7650 C   0  0  0  0  0  0  0  0  0  0  0  0
  -26.1970  -12.9980   20.0930 N   0  0  0  0  0  0  0  0  0  0  0  0
  -25.8580  -11.7140   20.3630 N   0  0  0  0  0  0  0  0  0  0  0  0
  -23.8760  -10.4820   20.9770 C   0  0  0  0  0  0  0  0  0  0  0  0
  -24.3500   -9.5130   21.8880 C   0  0  0  0  0  3  0  0  0  0  0  0
  -23.6310   -8.3160   22.0940 C   0  0  0  0  0  3  0  0  0  0  0  0
  -22.4280   -8.0800   21.3870 C   0  0  0  0  0  0  0  0  0  0  0  0
  -21.9750   -9.0370   20.4600 C   0  0  0  0  0  3  0  0  0  0  0  0
  -22.6930  -10.2270   20.2540 C   0  0  0  0  0  3  0  0  0  0  0  0
  -21.6780   -6.9340   21.5010 O   0  0  0  0  0  0  0  0  0  0  0  0
  -21.6440   -6.2060   22.6640 C   0  0  0  0  0  0  0  0  0  0  0  0
  -21.2390   -6.7780   23.8910 C   0  0  0  0  0  3  0  0  0  0  0  0
  -21.1660   -5.9790   25.0480 C   0  0  0  0  0  3  0  0  0  0  0  0
  -21.4790   -4.6090   24.9810 C   0  0  0  0  0  0  0  0  0  0  0  0
  -21.8760   -4.0360   23.7600 C   0  0  0  0  0  3  0  0  0  0  0  0
  -21.9570   -4.8310   22.6030 C   0  0  0  0  0  0  0  0  0  0  0  0
  -22.3220   -4.2720   21.4250 F   0  0  0  0  0  0  0  0  0  0  0  0
  -21.3960   -3.8400   26.0910 F   0  0  0  0  0  0  0  0  0  0  0  0
  -22.7740  -13.5720   21.2460 C   0  0  0  0  0  0  0  0  0  0  0  0
  -22.1130  -12.8500   22.1490 N   0  0  0  0  0  0  0  0  0  0  0  0
  -22.3020  -14.6120   20.7900 O   0  0  0  0  0  0  0  0  0  0  0  0
  -22.5090  -12.0100   22.5440 H   0  0  0  0  0  0  0  0  0  0  0  0
  -21.1960  -13.1480   22.4510 H   0  0  0  0  0  0  0  0  0  0  0  0
  -25.3450  -15.2510   20.2650 N   0  0  0  0  0  0  0  0  0  0  0  0
  -24.5880  -15.9070   20.4170 H   0  0  0  0  0  0  0  0  0  0  0  0
  -26.1760  -15.6870   19.8860 H   0  0  0  0  0  0  0  0  0  0  0  0
  -29.6490  -21.7530   20.3830 C   0  0  0  0  0  2  0  0  0  0  0  0
  -29.3520  -22.9030   21.3870 C   0  0  0  0  0  2  0  0  0  0  0  0
  -29.5230  -24.3610   20.8470 C   0  0  0  0  0  2  0  0  0  0  0  0
  -28.2130  -25.1800   20.6680 C   0  0  0  0  0  2  0  0  0  0  0  0
  -28.4230  -26.5680   20.3000 O   0  0  0  0  0  0  0  0  0  0  0  0
  -24.6040  -31.8730   23.2290 C   0  0  0  0  0  0  0  0  0  0  0  0
  -27.2790  -27.3480   20.2460 C   0  0  0  0  0  0  0  0  0  0  0  0
  -23.4260  -30.4510   21.5920 C   0  0  0  0  0  3  0  0  0  0  0  0
  -24.8990  -28.8900   20.2130 C   0  0  0  0  0  0  0  0  0  0  0  0
  -25.9610  -30.7870   21.4390 C   0  0  0  0  0  2  0  0  0  0  0  0
  -26.0550  -29.4120   20.8010 C   0  0  0  0  0  0  0  0  0  0  0  0
  -27.2540  -28.6530   20.8060 C   0  0  0  0  0  3  0  0  0  0  0  0
  -26.1000  -26.8520   19.6450 C   0  0  0  0  0  3  0  0  0  0  0  0
  -24.9150  -27.6100   19.6370 C   0  0  0  0  0  3  0  0  0  0  0  0
  -23.6630  -29.7590   20.2270 C   0  0  0  0  0  2  0  0  0  0  0  0
  -24.6820  -31.0490   22.1440 N   0  0  0  0  0  0  0  0  0  0  0  0
  -23.5130  -32.1590   23.7440 O   0  0  0  0  0  0  0  0  0  0  0  0
  -22.7490  -29.4440   22.5530 C   0  0  0  0  0  0  0  0  0  0  0  0
  -21.4250  -29.2650   22.4160 N   0  0  0  0  0  0  0  0  0  0  0  0
  -23.4170  -28.8240   23.3830 O   0  0  0  0  0  0  0  0  0  0  0  0
  -20.9420  -29.8280   21.7270 H   0  0  0  0  0  0  0  0  0  0  0  0
  -18.0470  -28.0960   22.8800 C   0  0  0  0  0  0  0  0  0  0  0  0
  -20.5990  -28.3400   23.1940 C   0  0  0  0  0  3  0  0  0  0  0  0
  -20.6990  -26.9000   22.6330 C   0  0  0  0  0  2  0  0  0  0  0  0
  -19.6110  -26.5860   21.6040 C   0  0  0  0  0  2  0  0  0  0  0  0
  -18.2230  -26.7380   22.2260 C   0  0  0  0  0  2  0  0  0  0  0  0
  -19.1620  -28.8570   23.3190 C   0  0  0  0  0  0  0  0  0  0  0  0
  -18.9440  -30.1340   23.8840 C   0  0  0  0  0  3  0  0  0  0  0  0
  -17.6380  -30.6440   24.0220 C   0  0  0  0  0  3  0  0  0  0  0  0
  -16.5350  -29.8750   23.6050 C   0  0  0  0  0  3  0  0  0  0  0  0
  -16.7400  -28.6060   23.0410 C   0  0  0  0  0  3  0  0  0  0  0  0
  -25.8750  -32.5160   23.8630 C   0  0  0  0  0  3  0  0  0  0  0  0
  -26.3870  -31.7570   25.1490 C   0  0  1  0  0  0  0  0  0  0  0  0
  -25.2950  -31.5080   26.2160 C   0  0  0  0  0  1  0  0  0  0  0  0
  -26.9780  -30.3840   24.7570 C   0  0  0  0  0  1  0  0  0  0  0  0
  -27.5230  -32.5640   25.8160 C   0  0  0  0  0  1  0  0  0  0  0  0
  -25.5590  -33.9170   24.1770 N   0  0  0  0  0  0  0  0  0  0  0  0
  -25.9060  -34.9630   23.4160 C   0  0  0  0  0  0  0  0  0  0  0  0
  -26.5880  -34.8530   22.3970 O   0  0  0  0  0  0  0  0  0  0  0  0
  -24.9470  -34.0780   24.9620 H   0  0  0  0  0  0  0  0  0  0  0  0
  -24.1840  -36.7540   23.0220 C   0  0  0  0  0  1  0  0  0  0  0  0
  -25.4090  -36.3530   23.8570 C   0  0  0  0  0  3  0  0  0  0  0  0
  -27.5270  -37.2450   24.7210 C   0  0  0  0  0  1  0  0  0  0  0  0
  -26.4410  -37.4050   23.7590 N   0  0  0  0  0  0  0  0  0  0  0  0
  -26.0340  -38.3250   23.8950 H   0  0  0  0  0  0  0  0  0  0  0  0
  1  2  1  0
  2  4  1  0
  3  1  2  0
  5 18  1  0
  6 11  1  0
  7  8  1  0
  7  6  1  0
  9  8  1  0
  9 22  1  0
  9 10  1  0
 11  5  1  0
 11 10  1  0
 12  5  2  0
 13 14  1  0
 15 13  1  0
 16 18  1  0
 16 17  1  0
 17  1  1  0
 17 14  1  0
 18 15  1  0
 19 20  2  0
 20 39  1  0
 21 20  1  0
 21 24  1  0
 22 23  1  0
 22 19  1  0
 23 21  2  0
 24 25  1  0
 25 26  2  0
 27 30  1  0
 27 26  1  0
 28 27  2  0
 29 28  1  0
 29 24  2  0
 30 31  1  0
 31 32  1  0
 32 33  2  0
 34 33  1  0
 34 38  1  0
 35 34  2  0
 36 31  2  0
 36 35  1  0
 37 36  1  0
 39 40  1  0
 40 43  1  0
 40 42  1  0
 41 39  2  0
 44 45  1  0
 44 19  1  0
 46 44  1  0
 47  2  1  0
 47 48  1  0
 49 48  1  0
 50 49  1  0
 51 50  1  0
 52 63  2  0
 53 51  1  0
 53 58  1  0
 54 62  1  0
 54 64  1  0
 55 61  1  0
 55 57  1  0
 56 62  1  0
 57 58  2  0
 57 56  1  0
 59 53  2  0
 60 59  1  0
 60 55  2  0
 61 54  1  0
 62 52  1  0
 64 66  2  0
 65 64  1  0
 67 65  1  0
 68 77  2  0
 68 73  1  0
 69 65  1  0
 69 73  1  0
 70 69  1  0
 71 72  1  0
 71 70  1  0
 72 68  1  0
 73 74  2  0
 74 75  1  0
 76 75  2  0
 77 76  1  0
 78 52  1  0
 78 83  1  0
 78 79  1  0
 79 82  1  1
 79 80  1  0
 81 79  1  0
 83 86  1  0
 84 88  1  0
 84 83  1  0
 85 84  2  0
 88 87  1  0
 90 88  1  0
 90 91  1  0
 90 89  1  0
M  ISO  4   5 100  18 100  50 101  51 101
M  END
>  <TORSDO>  (41) 
F 20

>  <SCORE>  (41) 
-12.476

>  <name>  (41) 
40

>  <ligand_id>  (41) 
40

>  <original_smiles>  (41) 
[H]c1c([H])c([H])c2c(c1[H])C([H])([H])C([H])([H])C([H])([H])C2([H])N([H])C(=O)C1([H])N(C(=O)C([H])(N([H])C(=O)C([H])(N([H])C([H])([H])[H])C([H])([H])[H])C(C([H])([H])[H])(C([H])([H])[H])C([H])([H])[H])C([H])([H])c2c([H])c(OC([H])([H])C([H])([H])C([H])([H])C([H])([H])N([H])C(=O)C3([H])C([H])([H])N(C(=O)N4C([H])([H])C([H])([H])C([H])([H])C([H])(n5nc(-c6c([H])c([H])c(Oc7c([H])c([H])c(F)c([H])c7F)c([H])c6[H])c(C(=O)N([H])[H])c5N([H])[H])C4([H])[H])C([H])([H])C([H])([H])C3([H])[H])c([H])c([H])c2C1([H])[H]

>  <smiles>  (41) 
[H]c1c([H])c([H])c2c(c1[H])C([H])([H])C([H])([H])C([H])([H])C2([H])N([H])C(=O)C1([H])N(C(=O)C([H])(N([H])C(=O)C([H])(N([H])C([H])([H])[H])C([H])([H])[H])C(C([H])([H])[H])(C([H])([H])[H])C([H])([H])[H])C([H])([H])c2c([H])c(OC([H])([H])C([H])([H])C([H])([H])C([H])([H])N([H])C(=O)C3([H])C([H])([H])N(C(=O)N4C([H])([H])C([H])([H])C([H])([H])C([H])(n5nc(-c6c([H])c([H])c(Oc7c([H])c([H])c(F)c([H])c7F)c([H])c6[H])c(C(=O)N([H])[H])c5N([H])[H])C4([H])[H])C([H])([H])C([H])([H])C3([H])[H])c([H])c([H])c2C1([H])[H]

$$$$
41:0:0
     RDKit          3D

 92100  0  0  1  0  0  0  0  0999 V2000
  -28.4490  -21.4260   20.6560 C   0  0  0  0  0  3  0  0  0  0  0  0
  -28.6310  -22.6530   19.6730 C   0  0  0  0  0  3  0  0  0  0  0  0
  -28.2230  -24.0720   20.2260 C   0  0  0  0  0  0  0  0  0  0  0  0
  -27.6870  -24.1670   21.3340 O   0  0  0  0  0  0  0  0  0  0  0  0
  -28.4890  -25.3640   19.3790 C   0  0  0  0  0  2  0  0  0  0  0  0
  -28.3820  -26.6310   20.1180 O   0  0  0  0  0  0  0  0  0  0  0  0
  -24.6580  -31.9230   23.2310 C   0  0  0  0  0  0  0  0  0  0  0  0
  -27.2100  -27.3840   20.1250 C   0  0  0  0  0  0  0  0  0  0  0  0
  -23.4340  -30.4930   21.6600 C   0  0  0  0  0  3  0  0  0  0  0  0
  -24.8270  -28.9410   20.1890 C   0  0  0  0  0  0  0  0  0  0  0  0
  -25.9430  -30.8380   21.3760 C   0  0  0  0  0  2  0  0  0  0  0  0
  -26.0030  -29.4550   20.7420 C   0  0  0  0  0  0  0  0  0  0  0  0
  -27.1940  -28.6820   20.7080 C   0  0  0  0  0  3  0  0  0  0  0  0
  -26.0030  -26.8960   19.5770 C   0  0  0  0  0  3  0  0  0  0  0  0
  -24.8260  -27.6680   19.5960 C   0  0  0  0  0  3  0  0  0  0  0  0
  -23.5850  -29.7980   20.2770 C   0  0  0  0  0  2  0  0  0  0  0  0
  -24.7020  -31.0990   22.1460 N   0  0  0  0  0  0  0  0  0  0  0  0
  -23.5850  -32.1990   23.7920 O   0  0  0  0  0  0  0  0  0  0  0  0
  -22.8140  -29.4930   22.6580 C   0  0  0  0  0  0  0  0  0  0  0  0
  -21.4980  -29.3750   22.5270 N   0  0  0  0  0  0  0  0  0  0  0  0
  -23.4890  -28.8450   23.4600 O   0  0  0  0  0  0  0  0  0  0  0  0
  -21.0810  -30.0290   21.8800 H   0  0  0  0  0  0  0  0  0  0  0  0
  -18.1130  -27.8690   23.0330 C   0  0  0  0  0  0  0  0  0  0  0  0
  -20.5760  -28.3560   22.9590 C   0  0  0  0  0  3  0  0  0  0  0  0
  -20.8850  -26.8630   22.7990 C   0  0  0  0  0  2  0  0  0  0  0  0
  -19.7960  -26.2320   21.9060 C   0  0  0  0  0  2  0  0  0  0  0  0
  -18.3750  -26.4710   22.4630 C   0  0  0  0  0  2  0  0  0  0  0  0
  -19.1770  -28.7350   23.3830 C   0  0  0  0  0  0  0  0  0  0  0  0
  -18.9060  -30.0080   23.9260 C   0  0  0  0  0  3  0  0  0  0  0  0
  -17.5760  -30.4400   24.0740 C   0  0  0  0  0  3  0  0  0  0  0  0
  -16.5170  -29.5960   23.6950 C   0  0  0  0  0  3  0  0  0  0  0  0
  -16.7850  -28.3100   23.1910 C   0  0  0  0  0  3  0  0  0  0  0  0
  -25.9510  -32.5750   23.8040 C   0  0  0  0  0  3  0  0  0  0  0  0
  -26.5190  -31.8090   25.0580 C   0  0  1  0  0  0  0  0  0  0  0  0
  -25.4610  -31.5340   26.1520 C   0  0  0  0  0  1  0  0  0  0  0  0
  -27.1300  -30.4490   24.6400 C   0  0  0  0  0  1  0  0  0  0  0  0
  -27.6650  -32.6300   25.6930 C   0  0  0  0  0  1  0  0  0  0  0  0
  -25.6260  -33.9660   24.1450 N   0  0  0  0  0  0  0  0  0  0  0  0
  -25.8960  -35.0210   23.3650 C   0  0  0  0  0  0  0  0  0  0  0  0
  -26.5140  -34.9270   22.3010 O   0  0  0  0  0  0  0  0  0  0  0  0
  -25.0690  -34.1130   24.9740 H   0  0  0  0  0  0  0  0  0  0  0  0
  -24.1110  -36.7720   23.0920 C   0  0  0  0  0  1  0  0  0  0  0  0
  -25.4020  -36.4010   23.8390 C   0  0  0  0  0  3  0  0  0  0  0  0
  -27.5570  -37.3350   24.5530 C   0  0  0  0  0  1  0  0  0  0  0  0
  -26.4050  -37.4750   23.6670 N   0  0  0  0  0  0  0  0  0  0  0  0
  -25.9870  -38.3870   23.8300 H   0  0  0  0  0  0  0  0  0  0  0  0
  -28.8540  -19.9620   20.1700 C   0  0  0  0  0  2  0  0  0  0  0  0
  -30.8190  -14.6590   19.6220 C   0  0  0  0  0  0  0  0  0  0  0  0
  -30.3040  -12.4670   18.5830 C   0  0  0  0  0  2  0  0  0  0  0  0
  -29.2290  -12.5740   17.4890 C   0  0  0  0  0  2  0  0  0  0  0  0
  -27.8360  -12.3800   18.1120 C   0  0  0  0  0  2  0  0  0  0  0  0
  -27.6250  -13.2680   19.3600 C   0  0  0  0  0  3  0  0  0  0  0  0
  -28.8230  -13.1960   20.3410 C   0  0  0  0  0  2  0  0  0  0  0  0
  -30.0270  -13.5360   19.5740 N   0  0  0  0  0  0  0  0  0  0  0  0
  -31.9740  -14.5570   19.2030 O   0  0  0  0  0  0  0  0  0  0  0  0
  -32.0100  -17.5160   20.9830 C   0  0  0  0  0  2  0  0  0  0  0  0
  -31.6760  -18.9620   21.3870 C   0  0  0  0  0  2  0  0  0  0  0  0
  -31.2950  -17.0750   19.6990 C   0  0  0  0  0  2  0  0  0  0  0  0
  -28.9940  -16.5400   19.9880 C   0  0  0  0  0  2  0  0  0  0  0  0
  -30.3290  -19.1490   22.1050 C   0  0  0  0  0  2  0  0  0  0  0  0
  -28.6390  -17.5050   21.1850 C   0  0  0  0  0  2  0  0  0  0  0  0
  -30.3600  -15.9450   19.9240 N   0  0  0  0  0  0  0  0  0  0  0  0
  -29.1040  -18.9520   21.2770 N   0  0  2  0  0  4  0  0  0  0  0  0
  -28.4080  -19.2660   21.9410 H   0  0  0  0  0  0  0  0  0  0  0  0
  -25.3860  -13.8760   20.4520 C   0  0  0  0  0  0  0  0  0  0  0  0
  -24.3640  -13.0990   20.9280 C   0  0  0  0  0  0  0  0  0  0  0  0
  -24.7860  -11.7440   20.7640 C   0  0  0  0  0  0  0  0  0  0  0  0
  -26.3620  -12.9890   20.0260 N   0  0  0  0  0  0  0  0  0  0  0  0
  -26.0190  -11.7030   20.2790 N   0  0  0  0  0  0  0  0  0  0  0  0
  -24.0660  -10.4850   20.9750 C   0  0  0  0  0  0  0  0  0  0  0  0
  -24.5640   -9.4880   21.8430 C   0  0  0  0  0  3  0  0  0  0  0  0
  -23.8430   -8.2930   22.0450 C   0  0  0  0  0  3  0  0  0  0  0  0
  -22.6110   -8.0850   21.3810 C   0  0  0  0  0  0  0  0  0  0  0  0
  -22.1340   -9.0690   20.4970 C   0  0  0  0  0  3  0  0  0  0  0  0
  -22.8550  -10.2560   20.2930 C   0  0  0  0  0  3  0  0  0  0  0  0
  -21.8550   -6.9450   21.4990 O   0  0  0  0  0  0  0  0  0  0  0  0
  -21.8490   -6.2010   22.6520 C   0  0  0  0  0  0  0  0  0  0  0  0
  -21.4800   -6.7590   23.8950 C   0  0  0  0  0  3  0  0  0  0  0  0
  -21.4230   -5.9420   25.0440 C   0  0  0  0  0  3  0  0  0  0  0  0
  -21.7230   -4.5700   24.9460 C   0  0  0  0  0  0  0  0  0  0  0  0
  -22.0850   -4.0130   23.7080 C   0  0  0  0  0  3  0  0  0  0  0  0
  -22.1440   -4.8270   22.5630 C   0  0  0  0  0  0  0  0  0  0  0  0
  -22.4730   -4.2830   21.3670 F   0  0  0  0  0  0  0  0  0  0  0  0
  -21.6580   -3.7830   26.0460 F   0  0  0  0  0  0  0  0  0  0  0  0
  -23.0270  -13.5810   21.4020 C   0  0  0  0  0  0  0  0  0  0  0  0
  -22.4110  -12.8640   22.3340 N   0  0  0  0  0  0  0  0  0  0  0  0
  -22.5390  -14.6310   20.9770 O   0  0  0  0  0  0  0  0  0  0  0  0
  -22.8210  -12.0150   22.6950 H   0  0  0  0  0  0  0  0  0  0  0  0
  -21.5150  -13.1660   22.6900 H   0  0  0  0  0  0  0  0  0  0  0  0
  -25.5460  -15.2510   20.3120 N   0  0  0  0  0  0  0  0  0  0  0  0
  -24.7600  -15.8690   20.4840 H   0  0  0  0  0  0  0  0  0  0  0  0
  -26.2350  -15.6550   19.6920 H   0  0  0  0  0  0  0  0  0  0  0  0
  2  3  1  0
  2  1  2  0
  3  4  2  0
  5  6  1  0
  5  3  1  0
  6  8  1  0
  7 18  2  0
  8 13  1  0
  9 17  1  0
  9 19  1  0
 10 16  1  0
 10 12  1  0
 11 17  1  0
 12 11  1  0
 13 12  2  0
 14 15  1  0
 14  8  2  0
 15 10  2  0
 16  9  1  0
 17  7  1  0
 19 21  2  0
 20 19  1  0
 22 20  1  0
 23 32  2  0
 23 28  1  0
 24 20  1  0
 24 28  1  0
 25 24  1  0
 26 27  1  0
 26 25  1  0
 27 23  1  0
 28 29  2  0
 29 30  1  0
 31 30  2  0
 32 31  1  0
 33  7  1  0
 33 38  1  0
 33 34  1  0
 34 37  1  1
 34 35  1  0
 36 34  1  0
 38 41  1  0
 39 43  1  0
 39 38  1  0
 40 39  2  0
 43 42  1  0
 45 46  1  0
 45 43  1  0
 45 44  1  0
 47  1  1  0
 47 63  1  0
 48 62  1  0
 49 54  1  0
 50 51  1  0
 50 49  1  0
 52 51  1  0
 52 68  1  0
 52 53  1  0
 54 48  1  0
 54 53  1  0
 55 48  2  0
 56 57  1  0
 57 60  1  0
 58 62  1  0
 58 56  1  0
 59 61  1  0
 61 63  1  0
 62 59  1  0
 63 64  1  1
 63 60  1  0
 65 66  2  0
 66 85  1  0
 67 66  1  0
 67 70  1  0
 68 69  1  0
 68 65  1  0
 69 67  2  0
 70 71  1  0
 71 72  2  0
 73 76  1  0
 73 72  1  0
 74 73  2  0
 75 74  1  0
 75 70  2  0
 76 77  1  0
 77 78  1  0
 78 79  2  0
 80 79  1  0
 80 84  1  0
 81 80  2  0
 82 77  2  0
 82 81  1  0
 83 82  1  0
 85 86  1  0
 86 89  1  0
 86 88  1  0
 87 85  2  0
 90 65  1  0
 90 91  1  0
 92 90  1  0
M  ISO  4   5 101   6 101  48 100  62 100
M  END
>  <TORSDO>  (42) 
F 20

>  <SCORE>  (42) 
-12.323

>  <name>  (42) 
41

>  <ligand_id>  (42) 
41

>  <original_smiles>  (42) 
[H]c1c([H])c([H])c2c(c1[H])C([H])([H])C([H])([H])C([H])([H])C2([H])N([H])C(=O)C1([H])N(C(=O)C([H])(N([H])C(=O)C([H])(N([H])C([H])([H])[H])C([H])([H])[H])C(C([H])([H])[H])(C([H])([H])[H])C([H])([H])[H])C([H])([H])c2c([H])c(OC([H])([H])C(=O)C([H])([H])C([H])([H])C([H])([H])[N+]3([H])C([H])([H])C([H])([H])N(C(=O)N4C([H])([H])C([H])([H])C([H])([H])C([H])(n5nc(-c6c([H])c([H])c(Oc7c([H])c([H])c(F)c([H])c7F)c([H])c6[H])c(C(=O)N([H])[H])c5N([H])[H])C4([H])[H])C([H])([H])C([H])([H])C([H])([H])C3([H])[H])c([H])c([H])c2C1([H])[H]

>  <smiles>  (42) 
[H]c1c([H])c([H])c2c(c1[H])C([H])([H])C([H])([H])C([H])([H])C2([H])N([H])C(=O)C1([H])N(C(=O)C([H])(N([H])C(=O)C([H])(N([H])C([H])([H])[H])C([H])([H])[H])C(C([H])([H])[H])(C([H])([H])[H])C([H])([H])[H])C([H])([H])c2c([H])c(OC([H])([H])C(=O)C([H])([H])C([H])([H])C([H])([H])[N+]3([H])C([H])([H])C([H])([H])N(C(=O)N4C([H])([H])C([H])([H])C([H])([H])C([H])(n5nc(-c6c([H])c([H])c(Oc7c([H])c([H])c(F)c([H])c7F)c([H])c6[H])c(C(=O)N([H])[H])c5N([H])[H])C4([H])[H])C([H])([H])C([H])([H])C([H])([H])C3([H])[H])c([H])c([H])c2C1([H])[H]

$$$$
42:0:0
     RDKit          3D

 92100  0  0  1  0  0  0  0  0999 V2000
  -30.2230  -21.5200   18.0670 C   0  0  0  0  0  2  0  0  0  0  0  0
  -30.1670  -22.3750   19.0880 C   0  0  0  0  0  2  0  0  0  0  0  0
  -29.4210  -20.3540   18.3990 C   0  0  0  0  0  0  0  0  0  0  0  0
  -29.2920  -21.9210   20.2400 C   0  0  0  0  0  3  0  0  0  0  0  0
  -28.9360  -20.4400   19.8560 C   0  0  0  0  0  3  0  0  0  0  0  0
  -29.1170  -19.4410   17.6270 O   0  0  0  0  0  0  0  0  0  0  0  0
  -28.0440  -22.8370   20.4050 C   0  0  0  0  0  2  0  0  0  0  0  0
  -28.3060  -24.3060   20.8140 C   0  0  0  0  0  0  0  0  0  0  0  0
  -28.3480  -24.6150   22.0090 O   0  0  0  0  0  0  0  0  0  0  0  0
  -28.5020  -25.3640   19.7030 C   0  0  0  0  0  2  0  0  0  0  0  0
  -28.4290  -26.7230   20.1940 O   0  0  0  0  0  0  0  0  0  0  0  0
  -24.5980  -31.8840   23.2640 C   0  0  0  0  0  0  0  0  0  0  0  0
  -27.2360  -27.4260   20.1730 C   0  0  0  0  0  0  0  0  0  0  0  0
  -23.3930  -30.4860   21.6200 C   0  0  0  0  0  3  0  0  0  0  0  0
  -24.8430  -28.9520   20.1900 C   0  0  0  0  0  0  0  0  0  0  0  0
  -25.9190  -30.8420   21.4190 C   0  0  0  0  0  2  0  0  0  0  0  0
  -26.0030  -29.4680   20.7780 C   0  0  0  0  0  0  0  0  0  0  0  0
  -27.1980  -28.7130   20.7630 C   0  0  0  0  0  3  0  0  0  0  0  0
  -26.0490  -26.9230   19.5900 C   0  0  0  0  0  3  0  0  0  0  0  0
  -24.8610  -27.6800   19.5940 C   0  0  0  0  0  3  0  0  0  0  0  0
  -23.6020  -29.8140   20.2360 C   0  0  0  0  0  2  0  0  0  0  0  0
  -24.6560  -31.0870   22.1580 N   0  0  0  0  0  0  0  0  0  0  0  0
  -23.5170  -32.1520   23.8070 O   0  0  0  0  0  0  0  0  0  0  0  0
  -22.7430  -29.4600   22.5780 C   0  0  0  0  0  0  0  0  0  0  0  0
  -21.4170  -29.2760   22.4530 N   0  0  0  0  0  0  0  0  0  0  0  0
  -23.4300  -28.8330   23.3880 O   0  0  0  0  0  0  0  0  0  0  0  0
  -20.9260  -29.8360   21.7720 H   0  0  0  0  0  0  0  0  0  0  0  0
  -18.0460  -28.0730   22.9550 C   0  0  0  0  0  0  0  0  0  0  0  0
  -20.6050  -28.3330   23.2220 C   0  0  0  0  0  3  0  0  0  0  0  0
  -20.7080  -26.9040   22.6410 C   0  0  0  0  0  2  0  0  0  0  0  0
  -19.6030  -26.5840   21.6280 C   0  0  0  0  0  2  0  0  0  0  0  0
  -18.2230  -26.7270   22.2760 C   0  0  0  0  0  2  0  0  0  0  0  0
  -19.1670  -28.8340   23.3860 C   0  0  0  0  0  0  0  0  0  0  0  0
  -18.9470  -30.0970   23.9800 C   0  0  0  0  0  3  0  0  0  0  0  0
  -17.6430  -30.5980   24.1490 C   0  0  0  0  0  3  0  0  0  0  0  0
  -16.5380  -29.8330   23.7360 C   0  0  0  0  0  3  0  0  0  0  0  0
  -16.7410  -28.5720   23.1460 C   0  0  0  0  0  3  0  0  0  0  0  0
  -25.8840  -32.5170   23.8830 C   0  0  0  0  0  3  0  0  0  0  0  0
  -25.5740  -33.9150   24.2120 N   0  0  0  0  0  0  0  0  0  0  0  0
  -25.9040  -34.9660   23.4510 C   0  0  0  0  0  0  0  0  0  0  0  0
  -26.5730  -34.8620   22.4180 O   0  0  0  0  0  0  0  0  0  0  0  0
  -24.9900  -34.0700   25.0190 H   0  0  0  0  0  0  0  0  0  0  0  0
  -24.1810  -36.7610   23.0870 C   0  0  0  0  0  1  0  0  0  0  0  0
  -25.4150  -36.3540   23.9070 C   0  0  0  0  0  3  0  0  0  0  0  0
  -27.5460  -37.2360   24.7530 C   0  0  0  0  0  1  0  0  0  0  0  0
  -26.4500  -37.4070   23.8030 N   0  0  0  0  0  0  0  0  0  0  0  0
  -26.0440  -38.3270   23.9500 H   0  0  0  0  0  0  0  0  0  0  0  0
  -26.4040  -31.7470   25.1580 C   0  0  1  0  0  0  0  0  0  0  0  0
  -25.3150  -31.5080   26.2300 C   0  0  0  0  0  1  0  0  0  0  0  0
  -26.9870  -30.3710   24.7620 C   0  0  0  0  0  1  0  0  0  0  0  0
  -27.5570  -32.5410   25.8170 C   0  0  0  0  0  1  0  0  0  0  0  0
  -29.5840  -19.3710   20.7990 C   0  0  0  0  0  2  0  0  0  0  0  0
  -29.4050  -17.8600   20.4440 C   0  0  0  0  0  2  0  0  0  0  0  0
  -30.2260  -16.9000   21.3540 C   0  0  0  0  0  2  0  0  0  0  0  0
  -30.6670  -14.5130   20.5620 C   0  0  0  0  0  0  0  0  0  0  0  0
  -30.4410  -12.3530   19.3790 C   0  0  0  0  0  2  0  0  0  0  0  0
  -29.5110  -12.5400   18.1620 C   0  0  0  0  0  2  0  0  0  0  0  0
  -28.0270  -12.4020   18.5640 C   0  0  0  0  0  2  0  0  0  0  0  0
  -27.6680  -13.2290   19.8270 C   0  0  0  0  0  3  0  0  0  0  0  0
  -28.7050  -12.9790   20.9460 C   0  0  0  0  0  2  0  0  0  0  0  0
  -30.0320  -13.3210   20.4060 N   0  0  0  0  0  0  0  0  0  0  0  0
  -31.7950  -14.7400   20.1060 O   0  0  0  0  0  0  0  0  0  0  0  0
  -29.9180  -15.4740   21.1400 N   0  0  0  0  0  0  0  0  0  0  0  0
  -29.0200  -15.1570   21.4750 H   0  0  0  0  0  0  0  0  0  0  0  0
  -25.2530  -13.8370   20.4760 C   0  0  0  0  0  0  0  0  0  0  0  0
  -24.1810  -13.0620   20.8360 C   0  0  0  0  0  0  0  0  0  0  0  0
  -24.6500  -11.7120   20.8330 C   0  0  0  0  0  0  0  0  0  0  0  0
  -26.3060  -12.9560   20.2810 N   0  0  0  0  0  0  0  0  0  0  0  0
  -25.9470  -11.6750   20.5510 N   0  0  0  0  0  0  0  0  0  0  0  0
  -23.9270  -10.4490   21.0230 C   0  0  0  0  0  0  0  0  0  0  0  0
  -24.3450   -9.4950   21.9780 C   0  0  0  0  0  3  0  0  0  0  0  0
  -23.6270   -8.2920   22.1510 C   0  0  0  0  0  3  0  0  0  0  0  0
  -22.4740   -8.0350   21.3700 C   0  0  0  0  0  0  0  0  0  0  0  0
  -22.0770   -8.9780   20.4050 C   0  0  0  0  0  3  0  0  0  0  0  0
  -22.7970  -10.1720   20.2280 C   0  0  0  0  0  3  0  0  0  0  0  0
  -21.7220   -6.8890   21.4560 O   0  0  0  0  0  0  0  0  0  0  0  0
  -21.6500   -6.1620   22.6180 C   0  0  0  0  0  0  0  0  0  0  0  0
  -21.1740   -6.7290   23.8220 C   0  0  0  0  0  3  0  0  0  0  0  0
  -21.0500   -5.9250   24.9740 C   0  0  0  0  0  3  0  0  0  0  0  0
  -21.3890   -4.5590   24.9250 C   0  0  0  0  0  0  0  0  0  0  0  0
  -21.8580   -3.9960   23.7260 C   0  0  0  0  0  3  0  0  0  0  0  0
  -21.9860   -4.7950   22.5760 C   0  0  0  0  0  0  0  0  0  0  0  0
  -22.4160   -4.2380   21.4170 F   0  0  0  0  0  0  0  0  0  0  0  0
  -21.2600   -3.7880   26.0290 F   0  0  0  0  0  0  0  0  0  0  0  0
  -22.7750  -13.5340   21.0770 C   0  0  0  0  0  0  0  0  0  0  0  0
  -22.0340  -12.8420   21.9340 N   0  0  0  0  0  0  0  0  0  0  0  0
  -22.3440  -14.5540   20.5390 O   0  0  0  0  0  0  0  0  0  0  0  0
  -22.3910  -12.0150   22.3910 H   0  0  0  0  0  0  0  0  0  0  0  0
  -21.0930  -13.1450   22.1420 H   0  0  0  0  0  0  0  0  0  0  0  0
  -25.4240  -15.2070   20.2820 N   0  0  0  0  0  0  0  0  0  0  0  0
  -24.6620  -15.8730   20.3590 H   0  0  0  0  0  0  0  0  0  0  0  0
  -26.2810  -15.6320   19.9490 H   0  0  0  0  0  0  0  0  0  0  0  0
  1  3  1  0
  1  2  1  0
  2  4  1  0
  3  5  1  0
  4  7  1  0
  5  4  1  0
  5 52  1  0
  6  3  2  0
  7  8  1  0
  8  9  2  0
 10 11  1  0
 10  8  1  0
 12 23  2  0
 13 11  1  0
 13 18  1  0
 14 22  1  0
 14 24  1  0
 15 21  1  0
 15 17  1  0
 16 22  1  0
 17 16  1  0
 18 17  2  0
 19 20  1  0
 19 13  2  0
 20 15  2  0
 21 14  1  0
 22 12  1  0
 24 26  2  0
 25 24  1  0
 27 25  1  0
 28 37  2  0
 28 33  1  0
 29 25  1  0
 29 33  1  0
 30 29  1  0
 31 32  1  0
 31 30  1  0
 32 28  1  0
 33 34  2  0
 34 35  1  0
 36 35  2  0
 37 36  1  0
 38 12  1  0
 38 39  1  0
 38 48  1  0
 39 42  1  0
 40 44  1  0
 40 39  1  0
 41 40  2  0
 44 43  1  0
 46 44  1  0
 46 47  1  0
 46 45  1  0
 48 51  1  1
 48 49  1  0
 50 48  1  0
 53 52  1  0
 53 54  1  0
 55 63  1  0
 56 61  1  0
 57 58  1  0
 57 56  1  0
 59 58  1  0
 59 68  1  0
 59 60  1  0
 61 55  1  0
 61 60  1  0
 62 55  2  0
 63 54  1  0
 63 64  1  0
 65 66  2  0
 66 85  1  0
 67 66  1  0
 67 70  1  0
 68 65  1  0
 68 69  1  0
 69 67  2  0
 70 71  1  0
 71 72  2  0
 73 76  1  0
 73 72  1  0
 74 73  2  0
 75 74  1  0
 75 70  2  0
 76 77  1  0
 77 78  1  0
 78 79  2  0
 80 79  1  0
 80 84  1  0
 81 80  2  0
 82 77  2  0
 82 81  1  0
 83 82  1  0
 85 86  1  0
 86 89  1  0
 86 88  1  0
 87 85  2  0
 90 91  1  0
 90 65  1  0
 92 90  1  0
M  ISO  4  10 101  11 101  55 100  63 100
M  END
>  <TORSDO>  (43) 
F 22

>  <SCORE>  (43) 
-13.200

>  <name>  (43) 
42

>  <ligand_id>  (43) 
42

>  <original_smiles>  (43) 
[H]C1=C([H])C([H])(C([H])([H])C(=O)C([H])([H])Oc2c([H])c([H])c3c(c2[H])C([H])([H])N(C(=O)C([H])(N([H])C(=O)C([H])(N([H])C([H])([H])[H])C([H])([H])[H])C(C([H])([H])[H])(C([H])([H])[H])C([H])([H])[H])C([H])(C(=O)N([H])C2([H])c4c([H])c([H])c([H])c([H])c4C([H])([H])C([H])([H])C2([H])[H])C3([H])[H])C([H])(C([H])([H])C([H])([H])C([H])([H])N([H])C(=O)N2C([H])([H])C([H])([H])C([H])([H])C([H])(n3nc(-c4c([H])c([H])c(Oc5c([H])c([H])c(F)c([H])c5F)c([H])c4[H])c(C(=O)N([H])[H])c3N([H])[H])C2([H])[H])C1=O

>  <smiles>  (43) 
[H]C1=C([H])C([H])(C([H])([H])C(=O)C([H])([H])Oc2c([H])c([H])c3c(c2[H])C([H])([H])N(C(=O)C([H])(N([H])C(=O)C([H])(N([H])C([H])([H])[H])C([H])([H])[H])C(C([H])([H])[H])(C([H])([H])[H])C([H])([H])[H])C([H])(C(=O)N([H])C2([H])c4c([H])c([H])c([H])c([H])c4C([H])([H])C([H])([H])C2([H])[H])C3([H])[H])C([H])(C([H])([H])C([H])([H])C([H])([H])N([H])C(=O)N2C([H])([H])C([H])([H])C([H])([H])C([H])(n3nc(-c4c([H])c([H])c(Oc5c([H])c([H])c(F)c([H])c5F)c([H])c4[H])c(C(=O)N([H])[H])c3N([H])[H])C2([H])[H])C1=O

$$$$
43:0:0
     RDKit          3D

 96104  0  0  1  0  0  0  0  0999 V2000
  -31.5260  -22.9240   21.1750 C   0  0  0  0  0  2  0  0  0  0  0  0
  -32.1820  -21.6070   20.6970 C   0  0  0  0  0  2  0  0  0  0  0  0
  -31.6000  -20.1390   22.7200 C   0  0  0  0  0  3  0  0  0  0  0  0
  -31.2220  -18.8910   23.2570 C   0  0  0  0  0  3  0  0  0  0  0  0
  -31.3940  -19.2120   20.4810 C   0  0  0  0  0  3  0  0  0  0  0  0
  -31.6850  -20.3070   21.3220 C   0  0  0  0  0  0  0  0  0  0  0  0
  -31.0380  -17.9510   21.0090 C   0  0  0  0  0  0  0  0  0  0  0  0
  -30.9370  -17.8000   22.4120 C   0  0  0  0  0  0  0  0  0  0  0  0
  -30.5680  -16.6180   22.9650 F   0  0  0  0  0  0  0  0  0  0  0  0
  -30.7530  -16.8320   20.0080 C   0  0  0  0  0  2  0  0  0  0  0  0
  -31.1650  -14.3940   20.1580 C   0  0  0  0  0  0  0  0  0  0  0  0
  -30.7010  -12.2920   18.9840 C   0  0  0  0  0  2  0  0  0  0  0  0
  -29.7540  -12.6310   17.8150 C   0  0  0  0  0  2  0  0  0  0  0  0
  -28.2860  -12.5540   18.2750 C   0  0  0  0  0  2  0  0  0  0  0  0
  -28.0280  -13.3520   19.5790 C   0  0  0  0  0  3  0  0  0  0  0  0
  -29.0990  -13.0420   20.6530 C   0  0  0  0  0  2  0  0  0  0  0  0
  -30.4280  -13.2600   20.0570 N   0  0  0  0  0  0  0  0  0  0  0  0
  -32.3080  -14.5000   19.7020 O   0  0  0  0  0  0  0  0  0  0  0  0
  -30.4740  -15.4830   20.5200 N   0  0  0  0  0  0  0  0  0  0  0  0
  -29.5530  -15.3280   20.9000 H   0  0  0  0  0  0  0  0  0  0  0  0
  -25.6610  -14.0390   20.3160 C   0  0  0  0  0  0  0  0  0  0  0  0
  -24.5760  -13.3040   20.7050 C   0  0  0  0  0  0  0  0  0  0  0  0
  -24.9950  -11.9370   20.6840 C   0  0  0  0  0  0  0  0  0  0  0  0
  -26.6760  -13.1260   20.0810 N   0  0  0  0  0  0  0  0  0  0  0  0
  -26.2790  -11.8560   20.3590 N   0  0  0  0  0  0  0  0  0  0  0  0
  -24.2320  -10.7010   20.8950 C   0  0  0  0  0  0  0  0  0  0  0  0
  -24.6350   -9.7370   21.8450 C   0  0  0  0  0  3  0  0  0  0  0  0
  -23.8720   -8.5650   22.0450 C   0  0  0  0  0  3  0  0  0  0  0  0
  -22.6920   -8.3480   21.2920 C   0  0  0  0  0  0  0  0  0  0  0  0
  -22.3090   -9.3000   20.3300 C   0  0  0  0  0  3  0  0  0  0  0  0
  -23.0720  -10.4620   20.1300 C   0  0  0  0  0  3  0  0  0  0  0  0
  -21.9030   -7.2280   21.3980 O   0  0  0  0  0  0  0  0  0  0  0  0
  -21.8070   -6.5260   22.5730 C   0  0  0  0  0  0  0  0  0  0  0  0
  -21.3880   -7.1390   23.7740 C   0  0  0  0  0  3  0  0  0  0  0  0
  -21.2330   -6.3660   24.9420 C   0  0  0  0  0  3  0  0  0  0  0  0
  -21.4880   -4.9820   24.9100 C   0  0  0  0  0  0  0  0  0  0  0  0
  -21.9030   -4.3690   23.7130 C   0  0  0  0  0  3  0  0  0  0  0  0
  -22.0580   -5.1400   22.5470 C   0  0  0  0  0  0  0  0  0  0  0  0
  -22.4350   -4.5410   21.3920 F   0  0  0  0  0  0  0  0  0  0  0  0
  -21.3330   -4.2360   26.0290 F   0  0  0  0  0  0  0  0  0  0  0  0
  -23.1970  -13.8270   20.9920 C   0  0  0  0  0  0  0  0  0  0  0  0
  -22.4720  -13.1780   21.8970 N   0  0  0  0  0  0  0  0  0  0  0  0
  -22.7750  -14.8490   20.4510 O   0  0  0  0  0  0  0  0  0  0  0  0
  -22.8250  -12.3520   22.3560 H   0  0  0  0  0  0  0  0  0  0  0  0
  -21.5510  -13.5160   22.1390 H   0  0  0  0  0  0  0  0  0  0  0  0
  -25.8620  -15.4030   20.1240 N   0  0  0  0  0  0  0  0  0  0  0  0
  -25.1030  -16.0690   20.2220 H   0  0  0  0  0  0  0  0  0  0  0  0
  -26.7150  -15.8260   19.7840 H   0  0  0  0  0  0  0  0  0  0  0  0
  -30.1480  -23.2840   20.5640 C   0  0  0  0  0  2  0  0  0  0  0  0
  -29.9310  -24.8240   20.4790 C   0  0  0  0  0  3  0  0  0  0  0  0
  -30.8440  -25.4320   19.4770 N   0  0  0  0  0  4  0  0  0  0  0  0
  -30.6900  -25.0720   18.5500 H   0  0  0  0  0  0  0  0  0  0  0  0
  -31.8070  -25.2780   19.7200 H   0  0  0  0  0  0  0  0  0  0  0  0
  -30.6940  -26.4270   19.4460 H   0  0  0  0  0  0  0  0  0  0  0  0
  -28.4740  -25.2720   20.1990 C   0  0  0  0  0  2  0  0  0  0  0  0
  -28.4850  -26.7080   20.1740 O   0  0  0  0  0  0  0  0  0  0  0  0
  -24.6860  -31.8780   23.2440 C   0  0  0  0  0  0  0  0  0  0  0  0
  -27.2880  -27.3960   20.1740 C   0  0  0  0  0  0  0  0  0  0  0  0
  -23.4610  -30.4720   21.6190 C   0  0  0  0  0  3  0  0  0  0  0  0
  -24.8930  -28.9100   20.1990 C   0  0  0  0  0  0  0  0  0  0  0  0
  -25.9850  -30.8140   21.3980 C   0  0  0  0  0  2  0  0  0  0  0  0
  -26.0580  -29.4350   20.7700 C   0  0  0  0  0  0  0  0  0  0  0  0
  -27.2570  -28.6870   20.7520 C   0  0  0  0  0  3  0  0  0  0  0  0
  -26.1020  -26.8760   19.6070 C   0  0  0  0  0  3  0  0  0  0  0  0
  -24.9100  -27.6300   19.6180 C   0  0  0  0  0  3  0  0  0  0  0  0
  -23.6580  -29.7830   20.2420 C   0  0  0  0  0  2  0  0  0  0  0  0
  -24.7300  -31.0690   22.1470 N   0  0  0  0  0  0  0  0  0  0  0  0
  -23.6100  -32.1610   23.7890 O   0  0  0  0  0  0  0  0  0  0  0  0
  -22.8100  -29.4590   22.5890 C   0  0  0  0  0  0  0  0  0  0  0  0
  -21.4850  -29.2840   22.4690 N   0  0  0  0  0  0  0  0  0  0  0  0
  -23.4930  -28.8340   23.4050 O   0  0  0  0  0  0  0  0  0  0  0  0
  -20.9960  -29.8410   21.7810 H   0  0  0  0  0  0  0  0  0  0  0  0
  -18.1110  -28.0970   22.9710 C   0  0  0  0  0  0  0  0  0  0  0  0
  -20.6670  -28.3550   23.2480 C   0  0  0  0  0  3  0  0  0  0  0  0
  -20.7710  -26.9180   22.6860 C   0  0  0  0  0  2  0  0  0  0  0  0
  -19.6720  -26.5850   21.6730 C   0  0  0  0  0  2  0  0  0  0  0  0
  -18.2870  -26.7400   22.3110 C   0  0  0  0  0  2  0  0  0  0  0  0
  -19.2290  -28.8610   23.3960 C   0  0  0  0  0  0  0  0  0  0  0  0
  -19.0130  -30.1330   23.9700 C   0  0  0  0  0  3  0  0  0  0  0  0
  -17.7090  -30.6400   24.1250 C   0  0  0  0  0  3  0  0  0  0  0  0
  -16.6040  -29.8720   23.7180 C   0  0  0  0  0  3  0  0  0  0  0  0
  -16.8050  -28.6030   23.1470 C   0  0  0  0  0  3  0  0  0  0  0  0
  -25.9800  -32.5040   23.8500 C   0  0  0  0  0  3  0  0  0  0  0  0
  -26.5260  -31.7140   25.1030 C   0  0  1  0  0  0  0  0  0  0  0  0
  -25.4550  -31.4530   26.1890 C   0  0  0  0  0  1  0  0  0  0  0  0
  -27.1100  -30.3490   24.6700 C   0  0  0  0  0  1  0  0  0  0  0  0
  -27.6810  -32.5070   25.7610 C   0  0  0  0  0  1  0  0  0  0  0  0
  -25.6730  -33.8950   24.2080 N   0  0  0  0  0  0  0  0  0  0  0  0
  -26.0090  -34.9620   23.4720 C   0  0  0  0  0  0  0  0  0  0  0  0
  -26.6820  -34.8810   22.4410 O   0  0  0  0  0  0  0  0  0  0  0  0
  -25.0740  -34.0340   25.0090 H   0  0  0  0  0  0  0  0  0  0  0  0
  -24.2780  -36.7620   23.1490 C   0  0  0  0  0  1  0  0  0  0  0  0
  -25.5180  -36.3410   23.9550 C   0  0  0  0  0  3  0  0  0  0  0  0
  -27.6500  -37.2100   24.8080 C   0  0  0  0  0  1  0  0  0  0  0  0
  -26.5490  -37.3970   23.8660 N   0  0  0  0  0  0  0  0  0  0  0  0
  -26.1420  -38.3120   24.0370 H   0  0  0  0  0  0  0  0  0  0  0  0
  2  1  1  0
  2  6  1  0
  3  4  1  0
  5  7  2  0
  5  6  1  0
  6  3  2  0
  7  8  1  0
  8  9  1  0
  8  4  2  0
 10 19  1  0
 10  7  1  0
 11 19  1  0
 12 17  1  0
 13 14  1  0
 13 12  1  0
 15 14  1  0
 15 24  1  0
 15 16  1  0
 17 11  1  0
 17 16  1  0
 18 11  2  0
 19 20  1  0
 21 22  2  0
 22 41  1  0
 23 22  1  0
 23 26  1  0
 24 21  1  0
 24 25  1  0
 25 23  2  0
 26 27  1  0
 27 28  2  0
 29 32  1  0
 29 28  1  0
 30 29  2  0
 31 30  1  0
 31 26  2  0
 32 33  1  0
 33 34  1  0
 34 35  2  0
 36 35  1  0
 36 40  1  0
 37 36  2  0
 38 33  2  0
 38 37  1  0
 39 38  1  0
 41 42  1  0
 42 45  1  0
 42 44  1  0
 43 41  2  0
 46 47  1  0
 46 21  1  0
 48 46  1  0
 49  1  1  0
 50 55  1  0
 50 49  1  0
 51 53  1  0
 51 50  1  0
 52 51  1  0
 54 51  1  0
 56 58  1  0
 56 55  1  0
 57 68  2  0
 58 63  1  0
 59 67  1  0
 59 69  1  0
 60 66  1  0
 60 62  1  0
 61 67  1  0
 62 61  1  0
 63 62  2  0
 64 65  1  0
 64 58  2  0
 65 60  2  0
 66 59  1  0
 67 57  1  0
 69 71  2  0
 70 69  1  0
 72 70  1  0
 73 82  2  0
 73 78  1  0
 74 70  1  0
 74 78  1  0
 75 74  1  0
 76 77  1  0
 76 75  1  0
 77 73  1  0
 78 79  2  0
 79 80  1  0
 81 80  2  0
 82 81  1  0
 83 57  1  0
 83 88  1  0
 83 84  1  0
 84 87  1  1
 84 85  1  0
 86 84  1  0
 88 91  1  0
 89 93  1  0
 89 88  1  0
 90 89  2  0
 93 92  1  0
 95 93  1  0
 95 96  1  0
 95 94  1  0
M  ISO  4  11 100  19 100  55 101  56 101
M  END
>  <TORSDO>  (44) 
F 23

>  <SCORE>  (44) 
-12.553

>  <name>  (44) 
43

>  <ligand_id>  (44) 
43

>  <original_smiles>  (44) 
[H]c1c([H])c([H])c2c(c1[H])C([H])([H])C([H])([H])C([H])([H])C2([H])N([H])C(=O)C1([H])N(C(=O)C([H])(N([H])C(=O)C([H])(N([H])C([H])([H])[H])C([H])([H])[H])C(C([H])([H])[H])(C([H])([H])[H])C([H])([H])[H])C([H])([H])c2c([H])c(OC([H])([H])C([H])(C([H])([H])C([H])([H])C([H])([H])c3c([H])c([H])c(F)c(C([H])([H])N([H])C(=O)N4C([H])([H])C([H])([H])C([H])([H])C([H])(n5nc(-c6c([H])c([H])c(Oc7c([H])c([H])c(F)c([H])c7F)c([H])c6[H])c(C(=O)N([H])[H])c5N([H])[H])C4([H])[H])c3[H])[N+]([H])([H])[H])c([H])c([H])c2C1([H])[H]

>  <smiles>  (44) 
[H]c1c([H])c([H])c2c(c1[H])C([H])([H])C([H])([H])C([H])([H])C2([H])N([H])C(=O)C1([H])N(C(=O)C([H])(N([H])C(=O)C([H])(N([H])C([H])([H])[H])C([H])([H])[H])C(C([H])([H])[H])(C([H])([H])[H])C([H])([H])[H])C([H])([H])c2c([H])c(OC([H])([H])C([H])(C([H])([H])C([H])([H])C([H])([H])c3c([H])c([H])c(F)c(C([H])([H])N([H])C(=O)N4C([H])([H])C([H])([H])C([H])([H])C([H])(n5nc(-c6c([H])c([H])c(Oc7c([H])c([H])c(F)c([H])c7F)c([H])c6[H])c(C(=O)N([H])[H])c5N([H])[H])C4([H])[H])c3[H])[N+]([H])([H])[H])c([H])c([H])c2C1([H])[H]

$$$$
44:0:0
     RDKit          3D

 94102  0  0  1  0  0  0  0  0999 V2000
  -27.3000  -21.2850   19.8910 C   0  0  0  0  0  2  0  0  0  0  0  0
  -28.5420  -21.1120   22.0760 C   0  0  0  0  0  2  0  0  0  0  0  0
  -28.2500  -20.2170   19.3170 C   0  0  0  0  0  2  0  0  0  0  0  0
  -29.4270  -19.9950   21.4650 C   0  0  0  0  0  2  0  0  0  0  0  0
  -27.9290  -22.1000   21.0460 C   0  0  0  0  0  3  0  0  0  0  0  0
  -28.7540  -19.2660   20.3550 N   0  0  2  0  0  4  0  0  0  0  0  0
  -27.9390  -18.8040   20.7370 H   0  0  0  0  0  0  0  0  0  0  0  0
  -28.8670  -23.1860   20.6190 N   0  0  0  0  0  4  0  0  0  0  0  0
  -29.6100  -22.8180   20.0450 H   0  0  0  0  0  0  0  0  0  0  0  0
  -29.3090  -23.5490   21.4500 H   0  0  0  0  0  0  0  0  0  0  0  0
  -28.2760  -24.3530   19.8980 C   0  0  0  0  0  2  0  0  0  0  0  0
  -28.5390  -25.7100   20.6060 C   0  0  0  0  0  2  0  0  0  0  0  0
  -29.0130  -26.8620   19.6800 C   0  0  0  0  0  2  0  0  0  0  0  0
  -28.1090  -27.1200   18.6090 O   0  0  0  0  0  0  0  0  0  0  0  0
  -24.5730  -31.6520   22.8670 C   0  0  0  0  0  0  0  0  0  0  0  0
  -26.9620  -27.8100   18.9160 C   0  0  0  0  0  0  0  0  0  0  0  0
  -23.2240  -30.4430   21.1870 C   0  0  0  0  0  3  0  0  0  0  0  0
  -24.5460  -29.1750   19.4100 C   0  0  0  0  0  0  0  0  0  0  0  0
  -25.6970  -30.9330   20.7640 C   0  0  0  0  0  2  0  0  0  0  0  0
  -25.7460  -29.6640   19.9420 C   0  0  0  0  0  0  0  0  0  0  0  0
  -26.9600  -28.9810   19.7050 C   0  0  0  0  0  3  0  0  0  0  0  0
  -25.7540  -27.3430   18.3700 C   0  0  0  0  0  3  0  0  0  0  0  0
  -24.5410  -28.0120   18.6260 C   0  0  0  0  0  3  0  0  0  0  0  0
  -23.2900  -29.9590   19.7140 C   0  0  0  0  0  2  0  0  0  0  0  0
  -24.5230  -31.0160   21.6650 N   0  0  0  0  0  0  0  0  0  0  0  0
  -23.5530  -31.8010   23.5560 O   0  0  0  0  0  0  0  0  0  0  0  0
  -22.7170  -29.2760   22.0630 C   0  0  0  0  0  0  0  0  0  0  0  0
  -21.3970  -29.0360   22.0390 N   0  0  0  0  0  0  0  0  0  0  0  0
  -23.5060  -28.5870   22.7140 O   0  0  0  0  0  0  0  0  0  0  0  0
  -20.8130  -29.6450   21.4850 H   0  0  0  0  0  0  0  0  0  0  0  0
  -18.1550  -27.5410   22.6020 C   0  0  0  0  0  0  0  0  0  0  0  0
  -20.7020  -27.9570   22.7360 C   0  0  0  0  0  3  0  0  0  0  0  0
  -20.8630  -26.6150   21.9830 C   0  0  0  0  0  2  0  0  0  0  0  0
  -19.7070  -26.3070   21.0250 C   0  0  0  0  0  2  0  0  0  0  0  0
  -18.3740  -26.2820   21.7820 C   0  0  0  0  0  2  0  0  0  0  0  0
  -19.2470  -28.3360   23.0420 C   0  0  0  0  0  0  0  0  0  0  0  0
  -18.9880  -29.5140   23.7720 C   0  0  0  0  0  3  0  0  0  0  0  0
  -17.6680  -29.9030   24.0690 C   0  0  0  0  0  3  0  0  0  0  0  0
  -16.5920  -29.1000   23.6530 C   0  0  0  0  0  3  0  0  0  0  0  0
  -16.8350  -27.9210   22.9250 C   0  0  0  0  0  3  0  0  0  0  0  0
  -25.9050  -32.2440   23.4260 C   0  0  0  0  0  3  0  0  0  0  0  0
  -25.5990  -33.5550   24.0100 N   0  0  0  0  0  0  0  0  0  0  0  0
  -25.8250  -34.7290   23.4060 C   0  0  0  0  0  0  0  0  0  0  0  0
  -26.3900  -34.8210   22.3110 O   0  0  0  0  0  0  0  0  0  0  0  0
  -25.0880  -33.5600   24.8820 H   0  0  0  0  0  0  0  0  0  0  0  0
  -24.0260  -36.4790   23.5130 C   0  0  0  0  0  1  0  0  0  0  0  0
  -25.3510  -36.0040   24.1280 C   0  0  0  0  0  3  0  0  0  0  0  0
  -27.5340  -36.8300   24.8890 C   0  0  0  0  0  1  0  0  0  0  0  0
  -26.3390  -37.1030   24.0960 N   0  0  0  0  0  0  0  0  0  0  0  0
  -25.9240  -37.9720   24.4260 H   0  0  0  0  0  0  0  0  0  0  0  0
  -26.6090  -31.3070   24.4820 C   0  0  1  0  0  0  0  0  0  0  0  0
  -25.6730  -30.8540   25.6250 C   0  0  0  0  0  1  0  0  0  0  0  0
  -27.1700  -30.0380   23.7970 C   0  0  0  0  0  1  0  0  0  0  0  0
  -27.8170  -32.0410   25.1130 C   0  0  0  0  0  1  0  0  0  0  0  0
  -29.5880  -18.1920   19.7260 C   0  0  0  0  0  2  0  0  0  0  0  0
  -29.8810  -16.9180   20.5790 C   0  0  0  0  0  2  0  0  0  0  0  0
  -31.3900  -14.9180   20.1430 C   0  0  0  0  0  0  0  0  0  0  0  0
  -31.0680  -12.6990   19.1480 C   0  0  0  0  0  2  0  0  0  0  0  0
  -30.1320  -12.8820   17.9380 C   0  0  0  0  0  2  0  0  0  0  0  0
  -28.6530  -12.7960   18.3720 C   0  0  0  0  0  2  0  0  0  0  0  0
  -28.3300  -13.6800   19.6080 C   0  0  0  0  0  3  0  0  0  0  0  0
  -29.3940  -13.5120   20.7180 C   0  0  0  0  0  2  0  0  0  0  0  0
  -30.7070  -13.7470   20.1130 N   0  0  0  0  0  0  0  0  0  0  0  0
  -32.5860  -15.0040   19.8720 O   0  0  0  0  0  0  0  0  0  0  0  0
  -30.6510  -15.9720   19.7630 N   0  0  0  0  0  0  0  0  0  0  0  0
  -31.1550  -16.4530   19.0330 H   0  0  0  0  0  0  0  0  0  0  0  0
  -25.9670  -14.3460   20.3700 C   0  0  0  0  0  0  0  0  0  0  0  0
  -24.8850  -13.5960   20.7490 C   0  0  0  0  0  0  0  0  0  0  0  0
  -25.3060  -12.2340   20.6910 C   0  0  0  0  0  0  0  0  0  0  0  0
  -26.9810  -13.4380   20.1080 N   0  0  0  0  0  0  0  0  0  0  0  0
  -26.5890  -12.1620   20.3590 N   0  0  0  0  0  0  0  0  0  0  0  0
  -24.5470  -10.9910   20.8700 C   0  0  0  0  0  0  0  0  0  0  0  0
  -24.9010  -10.0460   21.8580 C   0  0  0  0  0  3  0  0  0  0  0  0
  -24.1450   -8.8650   22.0200 C   0  0  0  0  0  3  0  0  0  0  0  0
  -23.0240   -8.6180   21.1940 C   0  0  0  0  0  0  0  0  0  0  0  0
  -22.6900   -9.5510   20.1970 C   0  0  0  0  0  3  0  0  0  0  0  0
  -23.4440  -10.7240   20.0330 C   0  0  0  0  0  3  0  0  0  0  0  0
  -22.2480   -7.4870   21.2650 O   0  0  0  0  0  0  0  0  0  0  0  0
  -22.0110   -6.8490   22.4570 C   0  0  0  0  0  0  0  0  0  0  0  0
  -21.4170   -7.5120   23.5520 C   0  0  0  0  0  3  0  0  0  0  0  0
  -21.1270   -6.8020   24.7340 C   0  0  0  0  0  3  0  0  0  0  0  0
  -21.4230   -5.4280   24.8210 C   0  0  0  0  0  0  0  0  0  0  0  0
  -22.0100   -4.7640   23.7290 C   0  0  0  0  0  3  0  0  0  0  0  0
  -22.3020   -5.4730   22.5500 C   0  0  0  0  0  0  0  0  0  0  0  0
  -22.8490   -4.8230   21.4950 F   0  0  0  0  0  0  0  0  0  0  0  0
  -21.1380   -4.7440   25.9540 F   0  0  0  0  0  0  0  0  0  0  0  0
  -23.5070  -14.1120   21.0430 C   0  0  0  0  0  0  0  0  0  0  0  0
  -22.7790  -13.4430   21.9290 N   0  0  0  0  0  0  0  0  0  0  0  0
  -23.0870  -15.1440   20.5230 O   0  0  0  0  0  0  0  0  0  0  0  0
  -23.1310  -12.6070   22.3700 H   0  0  0  0  0  0  0  0  0  0  0  0
  -21.8580  -13.7800   22.1730 H   0  0  0  0  0  0  0  0  0  0  0  0
  -26.1590  -15.7130   20.1940 N   0  0  0  0  0  0  0  0  0  0  0  0
  -25.3560  -16.3360   20.2220 H   0  0  0  0  0  0  0  0  0  0  0  0
  -26.9420  -16.0870   19.6740 H   0  0  0  0  0  0  0  0  0  0  0  0
  1  5  1  0
  3  1  1  0
  3  6  1  0
  4  2  1  0
  5  8  1  0
  5  2  1  0
  6  7  1  1
  6  4  1  0
  8 10  1  0
  9  8  1  0
 11 12  1  0
 11  8  1  0
 13 12  1  0
 14 16  1  0
 14 13  1  0
 15 26  2  0
 16 21  1  0
 17 25  1  0
 17 27  1  0
 18 24  1  0
 18 20  1  0
 19 25  1  0
 20 19  1  0
 21 20  2  0
 22 23  1  0
 22 16  2  0
 23 18  2  0
 24 17  1  0
 25 15  1  0
 27 29  2  0
 28 27  1  0
 30 28  1  0
 31 40  2  0
 31 36  1  0
 32 28  1  0
 32 36  1  0
 33 32  1  0
 34 35  1  0
 34 33  1  0
 35 31  1  0
 36 37  2  0
 37 38  1  0
 39 38  2  0
 40 39  1  0
 41 15  1  0
 41 42  1  0
 41 51  1  0
 42 45  1  0
 43 42  1  0
 43 47  1  0
 44 43  2  0
 47 46  1  0
 49 47  1  0
 49 50  1  0
 49 48  1  0
 51 54  1  1
 51 52  1  0
 53 51  1  0
 55  6  1  0
 55 56  1  0
 58 63  1  0
 59 60  1  0
 59 58  1  0
 61 60  1  0
 61 70  1  0
 61 62  1  0
 63 57  1  0
 63 62  1  0
 64 57  2  0
 65 57  1  0
 65 56  1  0
 66 65  1  0
 67 68  2  0
 68 87  1  0
 69 68  1  0
 69 72  1  0
 70 71  1  0
 70 67  1  0
 71 69  2  0
 72 73  1  0
 73 74  2  0
 75 78  1  0
 75 74  1  0
 76 75  2  0
 77 76  1  0
 77 72  2  0
 78 79  1  0
 79 84  2  0
 79 80  1  0
 80 81  2  0
 81 82  1  0
 82 86  1  0
 83 82  2  0
 84 83  1  0
 85 84  1  0
 87 88  1  0
 88 91  1  0
 88 90  1  0
 89 87  2  0
 92 93  1  0
 92 67  1  0
 94 92  1  0
M  ISO  4  13 101  14 101  57 100  65 100
M  END
>  <TORSDO>  (45) 
F 22

>  <SCORE>  (45) 
-9.986

>  <name>  (45) 
44

>  <ligand_id>  (45) 
44

>  <original_smiles>  (45) 
[H]c1c([H])c([H])c2c(c1[H])C([H])([H])C([H])([H])C([H])([H])C2([H])N([H])C(=O)C1([H])N(C(=O)C([H])(N([H])C(=O)C([H])(N([H])C([H])([H])[H])C([H])([H])[H])C(C([H])([H])[H])(C([H])([H])[H])C([H])([H])[H])C([H])([H])c2c([H])c(OC([H])([H])C([H])([H])C([H])([H])[N+]([H])([H])C3([H])C([H])([H])C([H])([H])[N+]([H])(C([H])([H])C([H])([H])N([H])C(=O)N4C([H])([H])C([H])([H])C([H])([H])C([H])(n5nc(-c6c([H])c([H])c(Oc7c([H])c([H])c(F)c([H])c7F)c([H])c6[H])c(C(=O)N([H])[H])c5N([H])[H])C4([H])[H])C([H])([H])C3([H])[H])c([H])c([H])c2C1([H])[H]

>  <smiles>  (45) 
[H]c1c([H])c([H])c2c(c1[H])C([H])([H])C([H])([H])C([H])([H])C2([H])N([H])C(=O)C1([H])N(C(=O)C([H])(N([H])C(=O)C([H])(N([H])C([H])([H])[H])C([H])([H])[H])C(C([H])([H])[H])(C([H])([H])[H])C([H])([H])[H])C([H])([H])c2c([H])c(OC([H])([H])C([H])([H])C([H])([H])[N+]([H])([H])C3([H])C([H])([H])C([H])([H])[N+]([H])(C([H])([H])C([H])([H])N([H])C(=O)N4C([H])([H])C([H])([H])C([H])([H])C([H])(n5nc(-c6c([H])c([H])c(Oc7c([H])c([H])c(F)c([H])c7F)c([H])c6[H])c(C(=O)N([H])[H])c5N([H])[H])C4([H])[H])C([H])([H])C3([H])[H])c([H])c([H])c2C1([H])[H]

$$$$
45:0:0
     RDKit          3D

 94102  0  0  1  0  0  0  0  0999 V2000
  -29.2070  -18.3360   20.7560 C   0  0  0  0  0  2  0  0  0  0  0  0
  -29.5510  -19.5710   18.4730 C   0  0  0  0  0  2  0  0  0  0  0  0
  -30.6510  -17.3460   18.8390 C   0  0  0  0  0  2  0  0  0  0  0  0
  -29.0330  -19.7000   19.9200 C   0  0  0  0  0  3  0  0  0  0  0  0
  -30.2680  -17.2160   20.3330 C   0  0  0  0  0  3  0  0  0  0  0  0
  -30.8800  -18.8020   18.3860 C   0  0  0  0  0  3  0  0  0  0  0  0
  -30.6200  -14.6410   20.4690 C   0  0  0  0  0  0  0  0  0  0  0  0
  -30.3650  -12.3970   19.4460 C   0  0  0  0  0  2  0  0  0  0  0  0
  -29.4470  -12.5240   18.2100 C   0  0  0  0  0  2  0  0  0  0  0  0
  -27.9680  -12.3800   18.6200 C   0  0  0  0  0  2  0  0  0  0  0  0
  -27.5950  -13.2610   19.8430 C   0  0  0  0  0  3  0  0  0  0  0  0
  -28.6390  -13.1410   20.9770 C   0  0  0  0  0  2  0  0  0  0  0  0
  -29.9560  -13.4450   20.4020 N   0  0  0  0  0  0  0  0  0  0  0  0
  -31.8090  -14.7230   20.1550 O   0  0  0  0  0  0  0  0  0  0  0  0
  -29.8690  -15.7810   20.6340 N   0  0  0  0  0  0  0  0  0  0  0  0
  -28.9010  -15.6260   20.8730 H   0  0  0  0  0  0  0  0  0  0  0  0
  -25.1970  -13.8710   20.5290 C   0  0  0  0  0  0  0  0  0  0  0  0
  -24.1230  -13.1050   20.8910 C   0  0  0  0  0  0  0  0  0  0  0  0
  -24.5810  -11.7520   20.8780 C   0  0  0  0  0  0  0  0  0  0  0  0
  -26.2420  -12.9870   20.3150 N   0  0  0  0  0  0  0  0  0  0  0  0
  -25.8750  -11.7060   20.5870 N   0  0  0  0  0  0  0  0  0  0  0  0
  -23.8460  -10.4940   21.0670 C   0  0  0  0  0  0  0  0  0  0  0  0
  -24.2760   -9.5200   21.9960 C   0  0  0  0  0  3  0  0  0  0  0  0
  -23.5420   -8.3280   22.1750 C   0  0  0  0  0  3  0  0  0  0  0  0
  -22.3640   -8.1010   21.4240 C   0  0  0  0  0  0  0  0  0  0  0  0
  -21.9520   -9.0630   20.4850 C   0  0  0  0  0  3  0  0  0  0  0  0
  -22.6870  -10.2470   20.3050 C   0  0  0  0  0  3  0  0  0  0  0  0
  -21.6010   -6.9600   21.5110 O   0  0  0  0  0  0  0  0  0  0  0  0
  -21.5640   -6.2050   22.6560 C   0  0  0  0  0  0  0  0  0  0  0  0
  -21.1780   -6.7520   23.8980 C   0  0  0  0  0  3  0  0  0  0  0  0
  -21.0870   -5.9230   25.0360 C   0  0  0  0  0  3  0  0  0  0  0  0
  -21.3740   -4.5500   24.9310 C   0  0  0  0  0  0  0  0  0  0  0  0
  -21.7560   -4.0020   23.6920 C   0  0  0  0  0  3  0  0  0  0  0  0
  -21.8470   -4.8280   22.5580 C   0  0  0  0  0  0  0  0  0  0  0  0
  -22.1940   -4.2910   21.3640 F   0  0  0  0  0  0  0  0  0  0  0  0
  -21.2810   -3.7520   26.0200 F   0  0  0  0  0  0  0  0  0  0  0  0
  -22.7240  -13.5900   21.1390 C   0  0  0  0  0  0  0  0  0  0  0  0
  -21.9820  -12.9080   22.0030 N   0  0  0  0  0  0  0  0  0  0  0  0
  -22.2960  -14.6100   20.5990 O   0  0  0  0  0  0  0  0  0  0  0  0
  -22.3390  -12.0830   22.4620 H   0  0  0  0  0  0  0  0  0  0  0  0
  -21.0420  -13.2160   22.2110 H   0  0  0  0  0  0  0  0  0  0  0  0
  -25.3670  -15.2390   20.3410 N   0  0  0  0  0  0  0  0  0  0  0  0
  -24.5950  -15.8920   20.4290 H   0  0  0  0  0  0  0  0  0  0  0  0
  -26.2110  -15.6730   19.9890 H   0  0  0  0  0  0  0  0  0  0  0  0
  -31.4340  -18.8520   17.0190 N   0  0  0  0  0  4  0  0  0  0  0  0
  -30.8130  -18.4320   16.3520 H   0  0  0  0  0  0  0  0  0  0  0  0
  -32.3140  -18.3650   16.9790 H   0  0  0  0  0  0  0  0  0  0  0  0
  -31.6040  -19.8010   16.7400 H   0  0  0  0  0  0  0  0  0  0  0  0
  -29.4160  -21.1050   20.5400 C   0  0  0  0  0  0  0  0  0  0  0  0
  -30.3340  -21.1990   21.3570 O   0  0  0  0  0  0  0  0  0  0  0  0
  -28.6040  -22.3820   20.0820 C   0  0  0  0  0  2  0  0  0  0  0  0
  -29.0720  -23.8640   20.4600 C   0  0  0  0  0  2  0  0  0  0  0  0
  -28.0670  -25.0130   20.0060 C   0  0  0  0  0  2  0  0  0  0  0  0
  -28.3170  -26.4550   20.2580 O   0  0  0  0  0  0  0  0  0  0  0  0
  -24.6290  -31.8980   23.2450 C   0  0  0  0  0  0  0  0  0  0  0  0
  -27.2120  -27.3250   20.1870 C   0  0  0  0  0  0  0  0  0  0  0  0
  -23.4170  -30.5050   21.6090 C   0  0  0  0  0  3  0  0  0  0  0  0
  -24.8570  -28.9540   20.1780 C   0  0  0  0  0  0  0  0  0  0  0  0
  -25.9580  -30.8110   21.4230 C   0  0  0  0  0  2  0  0  0  0  0  0
  -26.0300  -29.4340   20.7750 C   0  0  0  0  0  0  0  0  0  0  0  0
  -27.2100  -28.6300   20.7730 C   0  0  0  0  0  3  0  0  0  0  0  0
  -26.0160  -26.9110   19.5510 C   0  0  0  0  0  3  0  0  0  0  0  0
  -24.8520  -27.6980   19.5580 C   0  0  0  0  0  3  0  0  0  0  0  0
  -23.6250  -29.8330   20.2270 C   0  0  0  0  0  2  0  0  0  0  0  0
  -24.6870  -31.0880   22.1480 N   0  0  0  0  0  0  0  0  0  0  0  0
  -23.5480  -32.1810   23.7800 O   0  0  0  0  0  0  0  0  0  0  0  0
  -22.7510  -29.4910   22.5690 C   0  0  0  0  0  0  0  0  0  0  0  0
  -21.4230  -29.3210   22.4450 N   0  0  0  0  0  0  0  0  0  0  0  0
  -23.4280  -28.8600   23.3850 O   0  0  0  0  0  0  0  0  0  0  0  0
  -20.9370  -29.8820   21.7600 H   0  0  0  0  0  0  0  0  0  0  0  0
  -18.0390  -28.1450   22.9500 C   0  0  0  0  0  0  0  0  0  0  0  0
  -20.5990  -28.3900   23.2190 C   0  0  0  0  0  3  0  0  0  0  0  0
  -20.6930  -26.9570   22.6470 C   0  0  0  0  0  2  0  0  0  0  0  0
  -19.5880  -26.6380   21.6340 C   0  0  0  0  0  2  0  0  0  0  0  0
  -18.2070  -26.7930   22.2770 C   0  0  0  0  0  2  0  0  0  0  0  0
  -19.1630  -28.9020   23.3780 C   0  0  0  0  0  0  0  0  0  0  0  0
  -18.9510  -30.1670   23.9660 C   0  0  0  0  0  3  0  0  0  0  0  0
  -17.6490  -30.6780   24.1310 C   0  0  0  0  0  3  0  0  0  0  0  0
  -16.5400  -29.9170   23.7200 C   0  0  0  0  0  3  0  0  0  0  0  0
  -16.7370  -28.6540   23.1350 C   0  0  0  0  0  3  0  0  0  0  0  0
  -25.9170  -32.5240   23.8650 C   0  0  0  0  0  3  0  0  0  0  0  0
  -25.6120  -33.9220   24.2010 N   0  0  0  0  0  0  0  0  0  0  0  0
  -25.9360  -34.9760   23.4400 C   0  0  0  0  0  0  0  0  0  0  0  0
  -26.5920  -34.8750   22.4000 O   0  0  0  0  0  0  0  0  0  0  0  0
  -25.0280  -34.0760   25.0100 H   0  0  0  0  0  0  0  0  0  0  0  0
  -24.1990  -36.7680   23.1180 C   0  0  0  0  0  1  0  0  0  0  0  0
  -25.4550  -36.3650   23.9060 C   0  0  0  0  0  3  0  0  0  0  0  0
  -27.6060  -37.2500   24.6940 C   0  0  0  0  0  1  0  0  0  0  0  0
  -26.4850  -37.4190   23.7740 N   0  0  0  0  0  0  0  0  0  0  0  0
  -26.0810  -38.3380   23.9300 H   0  0  0  0  0  0  0  0  0  0  0  0
  -26.4350  -31.7470   25.1370 C   0  0  1  0  0  0  0  0  0  0  0  0
  -25.3450  -31.5120   26.2080 C   0  0  0  0  0  1  0  0  0  0  0  0
  -27.0090  -30.3680   24.7390 C   0  0  0  0  0  1  0  0  0  0  0  0
  -27.5920  -32.5350   25.7960 C   0  0  0  0  0  1  0  0  0  0  0  0
  2  4  1  0
  3  5  1  0
  4 49  1  0
  4  1  1  0
  5 15  1  0
  5  1  1  0
  6 45  1  0
  6  2  1  0
  6  3  1  0
  7 15  1  0
  8 13  1  0
  9 10  1  0
  9  8  1  0
 11 10  1  0
 11 20  1  0
 11 12  1  0
 13  7  1  0
 13 12  1  0
 14  7  2  0
 15 16  1  0
 17 18  2  0
 18 37  1  0
 19 18  1  0
 19 22  1  0
 20 17  1  0
 20 21  1  0
 21 19  2  0
 22 23  1  0
 23 24  2  0
 25 28  1  0
 25 24  1  0
 26 25  2  0
 27 26  1  0
 27 22  2  0
 28 29  1  0
 29 30  1  0
 30 31  2  0
 32 31  1  0
 32 36  1  0
 33 32  2  0
 34 29  2  0
 34 33  1  0
 35 34  1  0
 37 38  1  0
 38 41  1  0
 38 40  1  0
 39 37  2  0
 42 43  1  0
 42 17  1  0
 44 42  1  0
 46 45  1  0
 47 45  1  0
 48 45  1  0
 49 50  2  0
 51 52  1  0
 51 49  1  0
 53 54  1  0
 53 52  1  0
 55 66  2  0
 56 54  1  0
 56 61  1  0
 57 65  1  0
 57 67  1  0
 58 64  1  0
 58 60  1  0
 59 65  1  0
 60 59  1  0
 61 60  2  0
 62 63  1  0
 62 56  2  0
 63 58  2  0
 64 57  1  0
 65 55  1  0
 67 69  2  0
 68 67  1  0
 70 68  1  0
 71 80  2  0
 71 76  1  0
 72 68  1  0
 72 76  1  0
 73 72  1  0
 74 75  1  0
 74 73  1  0
 75 71  1  0
 76 77  2  0
 77 78  1  0
 79 78  2  0
 80 79  1  0
 81 55  1  0
 81 82  1  0
 81 91  1  0
 82 85  1  0
 83 87  1  0
 83 82  1  0
 84 83  2  0
 87 86  1  0
 89 87  1  0
 89 90  1  0
 89 88  1  0
 91 94  1  1
 91 92  1  0
 93 91  1  0
M  ISO  4   7 100  15 100  53 101  54 101
M  END
>  <TORSDO>  (46) 
F 21

>  <SCORE>  (46) 
-13.685

>  <name>  (46) 
45

>  <ligand_id>  (46) 
45

>  <original_smiles>  (46) 
[H]c1c([H])c([H])c2c(c1[H])C([H])([H])C([H])([H])C([H])([H])C2([H])N([H])C(=O)C1([H])N(C(=O)C([H])(N([H])C(=O)C([H])(N([H])C([H])([H])[H])C([H])([H])[H])C(C([H])([H])[H])(C([H])([H])[H])C([H])([H])[H])C([H])([H])c2c([H])c(OC([H])([H])C([H])([H])C([H])([H])C(=O)C3([H])C([H])([H])C([H])(N([H])C(=O)N4C([H])([H])C([H])([H])C([H])([H])C([H])(n5nc(-c6c([H])c([H])c(Oc7c([H])c([H])c(F)c([H])c7F)c([H])c6[H])c(C(=O)N([H])[H])c5N([H])[H])C4([H])[H])C([H])([H])C([H])([N+]([H])([H])[H])C3([H])[H])c([H])c([H])c2C1([H])[H]

>  <smiles>  (46) 
[H]c1c([H])c([H])c2c(c1[H])C([H])([H])C([H])([H])C([H])([H])C2([H])N([H])C(=O)C1([H])N(C(=O)C([H])(N([H])C(=O)C([H])(N([H])C([H])([H])[H])C([H])([H])[H])C(C([H])([H])[H])(C([H])([H])[H])C([H])([H])[H])C([H])([H])c2c([H])c(OC([H])([H])C([H])([H])C([H])([H])C(=O)C3([H])C([H])([H])C([H])(N([H])C(=O)N4C([H])([H])C([H])([H])C([H])([H])C([H])(n5nc(-c6c([H])c([H])c(Oc7c([H])c([H])c(F)c([H])c7F)c([H])c6[H])c(C(=O)N([H])[H])c5N([H])[H])C4([H])[H])C([H])([H])C([H])([N+]([H])([H])[H])C3([H])[H])c([H])c([H])c2C1([H])[H]

$$$$
46:0:0
     RDKit          3D

 90 98  0  0  1  0  0  0  0  0999 V2000
  -30.8370  -15.1970   20.0120 C   0  0  0  0  0  0  0  0  0  0  0  0
  -30.6860  -12.7310   19.2260 C   0  0  0  0  0  2  0  0  0  0  0  0
  -29.7610  -12.5420   17.9960 C   0  0  0  0  0  2  0  0  0  0  0  0
  -28.2950  -12.3630   18.4320 C   0  0  0  0  0  2  0  0  0  0  0  0
  -27.8950  -13.3790   19.5290 C   0  0  0  0  0  3  0  0  0  0  0  0
  -28.9440  -13.4710   20.6560 C   0  0  0  0  0  2  0  0  0  0  0  0
  -30.2050  -13.9180   20.0320 N   0  0  0  0  0  0  0  0  0  0  0  0
  -32.0160  -15.1400   19.6290 O   0  0  0  0  0  0  0  0  0  0  0  0
  -29.0560  -19.3120   21.3060 C   0  0  0  0  0  2  0  0  0  0  0  0
  -30.2670  -17.9850   19.4450 C   0  0  0  0  0  2  0  0  0  0  0  0
  -29.3160  -16.7000   21.3750 C   0  0  0  0  0  2  0  0  0  0  0  0
  -29.9760  -19.5980   20.1090 C   0  0  0  0  0  3  0  0  0  0  0  0
  -29.4660  -18.0570   22.1310 C   0  0  0  0  0  3  0  0  0  0  0  0
  -30.1740  -16.5170   20.1880 N   0  0  0  0  0  0  0  0  0  0  0  0
  -25.5770  -14.0920   20.3250 C   0  0  0  0  0  0  0  0  0  0  0  0
  -24.4670  -13.3840   20.6890 C   0  0  0  0  0  0  0  0  0  0  0  0
  -24.8340  -12.0040   20.6140 C   0  0  0  0  0  0  0  0  0  0  0  0
  -26.5500  -13.1500   20.0410 N   0  0  0  0  0  0  0  0  0  0  0  0
  -26.1160  -11.8860   20.2820 N   0  0  0  0  0  0  0  0  0  0  0  0
  -24.0200  -10.7940   20.7790 C   0  0  0  0  0  0  0  0  0  0  0  0
  -24.4150   -9.7480   21.6420 C   0  0  0  0  0  3  0  0  0  0  0  0
  -23.6030   -8.6030   21.8000 C   0  0  0  0  0  3  0  0  0  0  0  0
  -22.3800   -8.4980   21.0950 C   0  0  0  0  0  0  0  0  0  0  0  0
  -22.0020   -9.5310   20.2200 C   0  0  0  0  0  3  0  0  0  0  0  0
  -22.8150  -10.6670   20.0600 C   0  0  0  0  0  3  0  0  0  0  0  0
  -21.5400   -7.4130   21.1660 O   0  0  0  0  0  0  0  0  0  0  0  0
  -21.5320   -6.5790   22.2550 C   0  0  0  0  0  0  0  0  0  0  0  0
  -21.2740   -7.0570   23.5580 C   0  0  0  0  0  3  0  0  0  0  0  0
  -21.2070   -6.1550   24.6380 C   0  0  0  0  0  3  0  0  0  0  0  0
  -21.3870   -4.7770   24.4170 C   0  0  0  0  0  0  0  0  0  0  0  0
  -21.6390   -4.2980   23.1190 C   0  0  0  0  0  3  0  0  0  0  0  0
  -21.7080   -5.1960   22.0410 C   0  0  0  0  0  0  0  0  0  0  0  0
  -21.9300   -4.7280   20.7900 F   0  0  0  0  0  0  0  0  0  0  0  0
  -21.3150   -3.9080   25.4540 F   0  0  0  0  0  0  0  0  0  0  0  0
  -23.1110  -13.9540   20.9890 C   0  0  0  0  0  0  0  0  0  0  0  0
  -22.3460  -13.2910   21.8490 N   0  0  0  0  0  0  0  0  0  0  0  0
  -22.7450  -15.0200   20.4980 O   0  0  0  0  0  0  0  0  0  0  0  0
  -22.6560  -12.4280   22.2680 H   0  0  0  0  0  0  0  0  0  0  0  0
  -21.4350  -13.6550   22.0910 H   0  0  0  0  0  0  0  0  0  0  0  0
  -25.8350  -15.4520   20.1820 N   0  0  0  0  0  0  0  0  0  0  0  0
  -25.1110  -16.1500   20.3080 H   0  0  0  0  0  0  0  0  0  0  0  0
  -26.6930  -15.8350   19.8050 H   0  0  0  0  0  0  0  0  0  0  0  0
  -30.8100  -18.2090   22.7270 N   0  0  0  0  0  4  0  0  0  0  0  0
  -31.5290  -18.2220   22.0260 H   0  0  0  0  0  0  0  0  0  0  0  0
  -31.0020  -17.4560   23.3630 H   0  0  0  0  0  0  0  0  0  0  0  0
  -30.8630  -19.0640   23.2510 H   0  0  0  0  0  0  0  0  0  0  0  0
  -29.5130  -21.1500   19.3470 C   0  0  0  0  0  2  0  0  0  0  0  0
  -29.4810  -22.8480   19.9040 C   0  0  0  0  0  3  0  0  0  0  0  0
  -28.6340  -24.3140   19.3320 C   0  0  0  0  0  3  0  0  0  0  0  0
  -28.7200  -25.9080   19.6820 O   0  0  0  0  0  0  0  0  0  0  0  0
  -24.8200  -31.4660   22.8830 C   0  0  0  0  0  0  0  0  0  0  0  0
  -27.6390  -26.9220   19.6370 C   0  0  0  0  0  0  0  0  0  0  0  0
  -23.6970  -30.0780   21.1850 C   0  0  0  0  0  3  0  0  0  0  0  0
  -25.2280  -28.6350   19.6820 C   0  0  0  0  0  0  0  0  0  0  0  0
  -26.2420  -30.4560   21.0380 C   0  0  0  0  0  2  0  0  0  0  0  0
  -26.3900  -29.0890   20.3180 C   0  0  0  0  0  0  0  0  0  0  0  0
  -27.5880  -28.2510   20.2740 C   0  0  0  0  0  3  0  0  0  0  0  0
  -26.4420  -26.6130   18.9530 C   0  0  0  0  0  3  0  0  0  0  0  0
  -25.2760  -27.4190   18.9800 C   0  0  0  0  0  3  0  0  0  0  0  0
  -23.9560  -29.4740   19.7770 C   0  0  0  0  0  2  0  0  0  0  0  0
  -24.9400  -30.6920   21.7560 N   0  0  0  0  0  0  0  0  0  0  0  0
  -23.7190  -31.6680   23.4210 O   0  0  0  0  0  0  0  0  0  0  0  0
  -23.0730  -28.9990   22.1060 C   0  0  0  0  0  0  0  0  0  0  0  0
  -21.7440  -28.7990   22.0160 N   0  0  0  0  0  0  0  0  0  0  0  0
  -23.7860  -28.3450   22.8700 O   0  0  0  0  0  0  0  0  0  0  0  0
  -21.2200  -29.3820   21.3800 H   0  0  0  0  0  0  0  0  0  0  0  0
  -18.4160  -27.4710   22.5790 C   0  0  0  0  0  0  0  0  0  0  0  0
  -20.9780  -27.7880   22.7520 C   0  0  0  0  0  3  0  0  0  0  0  0
  -21.0890  -26.4030   22.0740 C   0  0  0  0  0  2  0  0  0  0  0  0
  -19.9500  -26.1230   21.0860 C   0  0  0  0  0  2  0  0  0  0  0  0
  -18.5960  -26.1810   21.7980 C   0  0  0  0  0  2  0  0  0  0  0  0
  -19.5340  -28.2330   23.0140 C   0  0  0  0  0  0  0  0  0  0  0  0
  -19.3090  -29.4400   23.7110 C   0  0  0  0  0  3  0  0  0  0  0  0
  -18.0000  -29.8880   23.9730 C   0  0  0  0  0  3  0  0  0  0  0  0
  -16.8980  -29.1220   23.5530 C   0  0  0  0  0  3  0  0  0  0  0  0
  -17.1070  -27.9150   22.8620 C   0  0  0  0  0  3  0  0  0  0  0  0
  -26.0580  -32.1510   23.5380 C   0  0  0  0  0  3  0  0  0  0  0  0
  -26.6210  -31.3550   24.7790 C   0  0  1  0  0  0  0  0  0  0  0  0
  -25.5490  -31.0160   25.8410 C   0  0  0  0  0  1  0  0  0  0  0  0
  -27.2740  -30.0260   24.3350 C   0  0  0  0  0  1  0  0  0  0  0  0
  -27.7320  -32.1800   25.4700 C   0  0  0  0  0  1  0  0  0  0  0  0
  -25.6590  -33.5100   23.9460 N   0  0  0  0  0  0  0  0  0  0  0  0
  -25.9370  -34.6300   23.2650 C   0  0  0  0  0  0  0  0  0  0  0  0
  -26.6170  -34.6290   22.2360 O   0  0  0  0  0  0  0  0  0  0  0  0
  -25.0500  -33.5780   24.7490 H   0  0  0  0  0  0  0  0  0  0  0  0
  -24.1050  -36.3420   23.0240 C   0  0  0  0  0  1  0  0  0  0  0  0
  -25.3710  -35.9580   23.8070 C   0  0  0  0  0  3  0  0  0  0  0  0
  -27.4530  -36.9180   24.6900 C   0  0  0  0  0  1  0  0  0  0  0  0
  -26.3400  -37.0760   23.7580 N   0  0  0  0  0  0  0  0  0  0  0  0
  -25.8810  -37.9590   23.9590 H   0  0  0  0  0  0  0  0  0  0  0  0
  1  7  1  0
  1 14  1  0
  2  7  1  0
  3  4  1  0
  3  2  1  0
  5  4  1  0
  5 18  1  0
  5  6  1  0
  7  6  1  0
  8  1  2  0
  9 13  1  0
 10 12  1  0
 10 14  1  0
 11 13  1  0
 12 47  1  0
 12  9  1  0
 13 43  1  0
 14 11  1  0
 15 16  2  0
 16 35  1  0
 17 16  1  0
 17 20  1  0
 18 19  1  0
 18 15  1  0
 19 17  2  0
 20 21  1  0
 21 22  2  0
 23 26  1  0
 23 22  1  0
 24 23  2  0
 25 24  1  0
 25 20  2  0
 26 27  1  0
 27 28  1  0
 28 29  2  0
 30 29  1  0
 30 34  1  0
 31 30  2  0
 32 27  2  0
 32 31  1  0
 33 32  1  0
 35 36  1  0
 36 39  1  0
 36 38  1  0
 37 35  2  0
 40 41  1  0
 40 15  1  0
 42 40  1  0
 43 46  1  0
 43 45  1  0
 44 43  1  0
 47 48  1  0
 49 50  1  0
 49 48  2  0
 51 62  2  0
 52 50  1  0
 52 57  1  0
 53 61  1  0
 53 63  1  0
 54 60  1  0
 54 56  1  0
 55 61  1  0
 56 55  1  0
 57 56  2  0
 58 59  1  0
 58 52  2  0
 59 54  2  0
 60 53  1  0
 61 51  1  0
 63 65  2  0
 64 63  1  0
 66 64  1  0
 67 76  2  0
 67 72  1  0
 68 64  1  0
 68 72  1  0
 69 68  1  0
 70 71  1  0
 70 69  1  0
 71 67  1  0
 72 73  2  0
 73 74  1  0
 75 74  2  0
 76 75  1  0
 77 51  1  0
 77 82  1  0
 77 78  1  0
 78 81  1  1
 78 79  1  0
 80 78  1  0
 82 85  1  0
 83 87  1  0
 83 82  1  0
 84 83  2  0
 87 86  1  0
 89 87  1  0
 89 90  1  0
 89 88  1  0
M  ISO  4   1 100  14 100  49 101  50 101
M  END
>  <TORSDO>  (47) 
F 19

>  <SCORE>  (47) 
-12.306

>  <name>  (47) 
46

>  <ligand_id>  (47) 
46

>  <original_smiles>  (47) 
[H]c1c([H])c([H])c2c(c1[H])C([H])([H])C([H])([H])C([H])([H])C2([H])N([H])C(=O)C1([H])N(C(=O)C([H])(N([H])C(=O)C([H])(N([H])C([H])([H])[H])C([H])([H])[H])C(C([H])([H])[H])(C([H])([H])[H])C([H])([H])[H])C([H])([H])c2c([H])c(OC([H])([H])C([H])([H])C([H])([H])C3([H])C([H])([H])N(C(=O)N4C([H])([H])C([H])([H])C([H])([H])C([H])(n5nc(-c6c([H])c([H])c(Oc7c([H])c([H])c(F)c([H])c7F)c([H])c6[H])c(C(=O)N([H])[H])c5N([H])[H])C4([H])[H])C([H])([H])C([H])([N+]([H])([H])[H])C3([H])[H])c([H])c([H])c2C1([H])[H]

>  <smiles>  (47) 
[H]c1c([H])c([H])c2c(c1[H])C([H])([H])C([H])([H])C([H])([H])C2([H])N([H])C(=O)C1([H])N(C(=O)C([H])(N([H])C(=O)C([H])(N([H])C([H])([H])[H])C([H])([H])[H])C(C([H])([H])[H])(C([H])([H])[H])C([H])([H])[H])C([H])([H])c2c([H])c(OC([H])([H])C([H])([H])C([H])([H])C3([H])C([H])([H])N(C(=O)N4C([H])([H])C([H])([H])C([H])([H])C([H])(n5nc(-c6c([H])c([H])c(Oc7c([H])c([H])c(F)c([H])c7F)c([H])c6[H])c(C(=O)N([H])[H])c5N([H])[H])C4([H])[H])C([H])([H])C([H])([N+]([H])([H])[H])C3([H])[H])c([H])c([H])c2C1([H])[H]

$$$$
47:0:0
     RDKit          3D

 96104  0  0  1  0  0  0  0  0999 V2000
  -31.1940  -18.9840   16.6670 C   0  0  0  0  0  2  0  0  0  0  0  0
  -30.7910  -17.0180   18.1610 C   0  0  0  0  0  2  0  0  0  0  0  0
  -31.2440  -19.8750   17.9210 C   0  0  0  0  0  2  0  0  0  0  0  0
  -31.6260  -17.5450   16.9760 C   0  0  0  0  0  3  0  0  0  0  0  0
  -30.9250  -17.9360   19.4130 C   0  0  0  0  0  3  0  0  0  0  0  0
  -30.4120  -19.3260   19.0390 N   0  0  1  0  0  4  0  0  0  0  0  0
  -29.5000  -19.1640   18.6380 H   0  0  0  0  0  0  0  0  0  0  0  0
  -31.5250  -16.6760   15.7840 N   0  0  0  0  0  4  0  0  0  0  0  0
  -30.5780  -16.5920   15.4540 H   0  0  0  0  0  0  0  0  0  0  0  0
  -31.8720  -15.7530   15.9800 H   0  0  0  0  0  0  0  0  0  0  0  0
  -32.0810  -17.0440   15.0330 H   0  0  0  0  0  0  0  0  0  0  0  0
  -30.3310  -17.2760   20.7120 C   0  0  0  0  0  2  0  0  0  0  0  0
  -31.0980  -14.7600   20.5340 C   0  0  0  0  0  0  0  0  0  0  0  0
  -30.8600  -12.6140   19.3310 C   0  0  0  0  0  2  0  0  0  0  0  0
  -29.9300  -12.8540   18.1190 C   0  0  0  0  0  2  0  0  0  0  0  0
  -28.4460  -12.7160   18.5190 C   0  0  0  0  0  2  0  0  0  0  0  0
  -28.0940  -13.5080   19.8070 C   0  0  0  0  0  3  0  0  0  0  0  0
  -29.1330  -13.2330   20.9200 C   0  0  0  0  0  2  0  0  0  0  0  0
  -30.4660  -13.5610   20.3860 N   0  0  0  0  0  0  0  0  0  0  0  0
  -32.2640  -14.9560   20.1870 O   0  0  0  0  0  0  0  0  0  0  0  0
  -30.2500  -15.7840   20.8060 N   0  0  0  0  0  0  0  0  0  0  0  0
  -29.3330  -15.4500   21.0620 H   0  0  0  0  0  0  0  0  0  0  0  0
  -25.6880  -14.1300   20.4710 C   0  0  0  0  0  0  0  0  0  0  0  0
  -24.6050  -13.3640   20.8080 C   0  0  0  0  0  0  0  0  0  0  0  0
  -25.0540  -12.0090   20.7710 C   0  0  0  0  0  0  0  0  0  0  0  0
  -26.7300  -13.2410   20.2530 N   0  0  0  0  0  0  0  0  0  0  0  0
  -26.3510  -11.9600   20.4910 N   0  0  0  0  0  0  0  0  0  0  0  0
  -24.3130  -10.7510   20.9280 C   0  0  0  0  0  0  0  0  0  0  0  0
  -24.6860   -9.7910   21.8930 C   0  0  0  0  0  3  0  0  0  0  0  0
  -23.9480   -8.5960   22.0380 C   0  0  0  0  0  3  0  0  0  0  0  0
  -22.8220   -8.3540   21.2150 C   0  0  0  0  0  0  0  0  0  0  0  0
  -22.4690   -9.3030   20.2400 C   0  0  0  0  0  3  0  0  0  0  0  0
  -23.2090  -10.4890   20.0930 C   0  0  0  0  0  3  0  0  0  0  0  0
  -22.0610   -7.2120   21.2670 O   0  0  0  0  0  0  0  0  0  0  0  0
  -21.8820   -6.5180   22.4380 C   0  0  0  0  0  0  0  0  0  0  0  0
  -21.2590   -7.1040   23.5620 C   0  0  0  0  0  3  0  0  0  0  0  0
  -21.0330   -6.3340   24.7200 C   0  0  0  0  0  3  0  0  0  0  0  0
  -21.4180   -4.9810   24.7550 C   0  0  0  0  0  0  0  0  0  0  0  0
  -22.0330   -4.3960   23.6340 C   0  0  0  0  0  3  0  0  0  0  0  0
  -22.2620   -5.1620   22.4770 C   0  0  0  0  0  0  0  0  0  0  0  0
  -22.8360   -4.5870   21.3930 F   0  0  0  0  0  0  0  0  0  0  0  0
  -21.1930   -4.2390   25.8640 F   0  0  0  0  0  0  0  0  0  0  0  0
  -23.2060  -13.8510   21.0530 C   0  0  0  0  0  0  0  0  0  0  0  0
  -22.4540  -13.1560   21.9000 N   0  0  0  0  0  0  0  0  0  0  0  0
  -22.7860  -14.8830   20.5290 O   0  0  0  0  0  0  0  0  0  0  0  0
  -22.8050  -12.3220   22.3470 H   0  0  0  0  0  0  0  0  0  0  0  0
  -21.5140  -13.4630   22.1060 H   0  0  0  0  0  0  0  0  0  0  0  0
  -25.8670  -15.5010   20.3120 N   0  0  0  0  0  0  0  0  0  0  0  0
  -25.0960  -16.1540   20.4060 H   0  0  0  0  0  0  0  0  0  0  0  0
  -26.7140  -15.9380   19.9730 H   0  0  0  0  0  0  0  0  0  0  0  0
  -30.1100  -20.3530   20.1130 C   0  0  0  0  0  2  0  0  0  0  0  0
  -29.7030  -21.7820   19.5510 C   0  0  0  0  0  2  0  0  0  0  0  0
  -29.0970  -22.8750   20.4970 C   0  0  0  0  0  2  0  0  0  0  0  0
  -28.9710  -24.3020   19.8400 C   0  0  0  0  0  3  0  0  0  0  0  0
  -28.2710  -25.4140   20.6910 C   0  0  0  0  0  3  0  0  0  0  0  0
  -28.3450  -26.7590   20.1360 O   0  0  0  0  0  0  0  0  0  0  0  0
  -24.5900  -31.9880   23.2930 C   0  0  0  0  0  0  0  0  0  0  0  0
  -27.1860  -27.5230   20.1650 C   0  0  0  0  0  0  0  0  0  0  0  0
  -23.3610  -30.5920   21.6630 C   0  0  0  0  0  3  0  0  0  0  0  0
  -24.7950  -29.0570   20.2090 C   0  0  0  0  0  0  0  0  0  0  0  0
  -25.8860  -30.9460   21.4290 C   0  0  0  0  0  2  0  0  0  0  0  0
  -25.9650  -29.5740   20.7810 C   0  0  0  0  0  0  0  0  0  0  0  0
  -27.1660  -28.8180   20.7470 C   0  0  0  0  0  3  0  0  0  0  0  0
  -25.9990  -27.0340   19.5810 C   0  0  0  0  0  3  0  0  0  0  0  0
  -24.8100  -27.7890   19.6030 C   0  0  0  0  0  3  0  0  0  0  0  0
  -23.5510  -29.9180   20.2770 C   0  0  0  0  0  2  0  0  0  0  0  0
  -24.6320  -31.1910   22.1860 N   0  0  0  0  0  0  0  0  0  0  0  0
  -23.5160  -32.2570   23.8500 O   0  0  0  0  0  0  0  0  0  0  0  0
  -22.7230  -29.5680   22.6300 C   0  0  0  0  0  0  0  0  0  0  0  0
  -21.4060  -29.3440   22.4840 N   0  0  0  0  0  0  0  0  0  0  0  0
  -23.4110  -28.9760   23.4660 O   0  0  0  0  0  0  0  0  0  0  0  0
  -20.9110  -29.8740   21.7800 H   0  0  0  0  0  0  0  0  0  0  0  0
  -18.0690  -28.0270   22.9230 C   0  0  0  0  0  0  0  0  0  0  0  0
  -20.6060  -28.3920   23.2550 C   0  0  0  0  0  3  0  0  0  0  0  0
  -20.7800  -26.9540   22.7160 C   0  0  0  0  0  2  0  0  0  0  0  0
  -19.7190  -26.5650   21.6810 C   0  0  0  0  0  2  0  0  0  0  0  0
  -18.3150  -26.6700   22.2860 C   0  0  0  0  0  2  0  0  0  0  0  0
  -19.1450  -28.8410   23.3640 C   0  0  0  0  0  0  0  0  0  0  0  0
  -18.8610  -30.1090   23.9180 C   0  0  0  0  0  3  0  0  0  0  0  0
  -17.5340  -30.5630   24.0370 C   0  0  0  0  0  3  0  0  0  0  0  0
  -16.4720  -29.7450   23.6130 C   0  0  0  0  0  3  0  0  0  0  0  0
  -16.7400  -28.4790   23.0620 C   0  0  0  0  0  3  0  0  0  0  0  0
  -25.8830  -32.6180   23.8960 C   0  0  0  0  0  3  0  0  0  0  0  0
  -26.4170  -31.8480   25.1650 C   0  0  1  0  0  0  0  0  0  0  0  0
  -25.3300  -31.5860   26.2350 C   0  0  0  0  0  1  0  0  0  0  0  0
  -27.0200  -30.4820   24.7620 C   0  0  0  0  0  1  0  0  0  0  0  0
  -27.5560  -32.6570   25.8290 C   0  0  0  0  0  1  0  0  0  0  0  0
  -25.5810  -34.0170   24.2260 N   0  0  0  0  0  0  0  0  0  0  0  0
  -25.8960  -35.0670   23.4550 C   0  0  0  0  0  0  0  0  0  0  0  0
  -26.5420  -34.9590   22.4090 O   0  0  0  0  0  0  0  0  0  0  0  0
  -25.0060  -34.1750   25.0410 H   0  0  0  0  0  0  0  0  0  0  0  0
  -24.1640  -36.8600   23.1270 C   0  0  0  0  0  1  0  0  0  0  0  0
  -25.4190  -36.4570   23.9170 C   0  0  0  0  0  3  0  0  0  0  0  0
  -27.5630  -37.3490   24.7130 C   0  0  0  0  0  1  0  0  0  0  0  0
  -26.4500  -37.5090   23.7810 N   0  0  0  0  0  0  0  0  0  0  0  0
  -26.0460  -38.4300   23.9240 H   0  0  0  0  0  0  0  0  0  0  0  0
  1  4  1  0
  1  3  1  0
  2  5  1  0
  3  6  1  0
  4  8  1  0
  4  2  1  0
  5 12  1  0
  6  5  1  0
  6 51  1  0
  6  7  1  6
  8 10  1  0
  9  8  1  0
 11  8  1  0
 12 21  1  0
 13 21  1  0
 14 19  1  0
 15 16  1  0
 15 14  1  0
 17 16  1  0
 17 26  1  0
 17 18  1  0
 19 13  1  0
 19 18  1  0
 20 13  2  0
 21 22  1  0
 23 24  2  0
 24 43  1  0
 25 24  1  0
 25 28  1  0
 26 23  1  0
 26 27  1  0
 27 25  2  0
 28 29  1  0
 29 30  2  0
 31 34  1  0
 31 30  1  0
 32 31  2  0
 33 32  1  0
 33 28  2  0
 34 35  1  0
 35 40  2  0
 35 36  1  0
 36 37  2  0
 37 38  1  0
 38 42  1  0
 39 38  2  0
 40 39  1  0
 41 40  1  0
 43 44  1  0
 44 47  1  0
 44 46  1  0
 45 43  2  0
 48 49  1  0
 48 23  1  0
 50 48  1  0
 52 51  1  0
 52 53  1  0
 54 53  1  0
 54 55  2  0
 56 58  1  0
 56 55  1  0
 57 68  2  0
 58 63  1  0
 59 67  1  0
 59 69  1  0
 60 66  1  0
 60 62  1  0
 61 67  1  0
 62 61  1  0
 63 62  2  0
 64 65  1  0
 64 58  2  0
 65 60  2  0
 66 59  1  0
 67 57  1  0
 69 71  2  0
 70 69  1  0
 72 70  1  0
 73 82  2  0
 73 78  1  0
 74 70  1  0
 74 78  1  0
 75 74  1  0
 76 77  1  0
 76 75  1  0
 77 73  1  0
 78 79  2  0
 79 80  1  0
 81 80  2  0
 82 81  1  0
 83 57  1  0
 83 88  1  0
 83 84  1  0
 84 87  1  1
 84 85  1  0
 86 84  1  0
 88 91  1  0
 89 93  1  0
 89 88  1  0
 90 89  2  0
 93 92  1  0
 95 93  1  0
 95 96  1  0
 95 94  1  0
M  ISO  4  13 100  21 100  55 101  56 101
M  END
>  <TORSDO>  (48) 
F 23

>  <SCORE>  (48) 
-12.542

>  <name>  (48) 
47

>  <ligand_id>  (48) 
47

>  <original_smiles>  (48) 
[H]c1c([H])c([H])c2c(c1[H])C([H])([H])C([H])([H])C([H])([H])C2([H])N([H])C(=O)C1([H])N(C(=O)C([H])(N([H])C(=O)C([H])(N([H])C([H])([H])[H])C([H])([H])[H])C(C([H])([H])[H])(C([H])([H])[H])C([H])([H])[H])C([H])([H])c2c([H])c(OC([H])([H])C([H])([H])C([H])([H])C([H])([H])C([H])([H])[N+]3([H])C([H])([H])C([H])([H])C([H])([N+]([H])([H])[H])C([H])([H])C3([H])C([H])([H])N([H])C(=O)N3C([H])([H])C([H])([H])C([H])([H])C([H])(n4nc(-c5c([H])c([H])c(Oc6c([H])c([H])c(F)c([H])c6F)c([H])c5[H])c(C(=O)N([H])[H])c4N([H])[H])C3([H])[H])c([H])c([H])c2C1([H])[H]

>  <smiles>  (48) 
[H]c1c([H])c([H])c2c(c1[H])C([H])([H])C([H])([H])C([H])([H])C2([H])N([H])C(=O)C1([H])N(C(=O)C([H])(N([H])C(=O)C([H])(N([H])C([H])([H])[H])C([H])([H])[H])C(C([H])([H])[H])(C([H])([H])[H])C([H])([H])[H])C([H])([H])c2c([H])c(OC([H])([H])C([H])([H])C([H])([H])C([H])([H])C([H])([H])[N+]3([H])C([H])([H])C([H])([H])C([H])([N+]([H])([H])[H])C([H])([H])C3([H])C([H])([H])N([H])C(=O)N3C([H])([H])C([H])([H])C([H])([H])C([H])(n4nc(-c5c([H])c([H])c(Oc6c([H])c([H])c(F)c([H])c6F)c([H])c5[H])c(C(=O)N([H])[H])c4N([H])[H])C3([H])[H])c([H])c([H])c2C1([H])[H]

$$$$
48:0:0
     RDKit          3D

 95103  0  0  1  0  0  0  0  0999 V2000
  -29.5290  -19.6350   20.7120 C   0  0  0  0  0  2  0  0  0  0  0  0
  -28.3070  -19.7020   18.6160 C   0  0  0  0  0  2  0  0  0  0  0  0
  -28.5370  -20.5300   19.9070 C   0  0  0  0  0  3  0  0  0  0  0  0
  -29.1800  -18.1590   20.3370 C   0  0  0  0  0  3  0  0  0  0  0  0
  -28.9750  -18.3210   18.8140 C   0  0  0  0  0  3  0  0  0  0  0  0
  -28.8900  -22.0400   19.6550 C   0  0  0  0  0  0  0  0  0  0  0  0
  -29.2850  -22.8390   20.6820 N   0  0  0  0  0  0  0  0  0  0  0  0
  -28.7110  -22.5120   18.5260 O   0  0  0  0  0  0  0  0  0  0  0  0
  -29.4770  -22.3840   21.5690 H   0  0  0  0  0  0  0  0  0  0  0  0
  -29.4860  -24.3230   20.6640 C   0  0  0  0  0  2  0  0  0  0  0  0
  -28.1730  -25.1660   20.3500 C   0  0  0  0  0  2  0  0  0  0  0  0
  -28.3480  -26.6210   20.2930 O   0  0  0  0  0  0  0  0  0  0  0  0
  -24.5920  -31.9600   23.2630 C   0  0  0  0  0  0  0  0  0  0  0  0
  -27.2050  -27.4180   20.2320 C   0  0  0  0  0  0  0  0  0  0  0  0
  -23.3830  -30.5580   21.6250 C   0  0  0  0  0  3  0  0  0  0  0  0
  -24.8340  -29.0100   20.1990 C   0  0  0  0  0  0  0  0  0  0  0  0
  -25.9200  -30.8780   21.4440 C   0  0  0  0  0  2  0  0  0  0  0  0
  -25.9940  -29.4990   20.8110 C   0  0  0  0  0  0  0  0  0  0  0  0
  -27.1790  -28.7140   20.8170 C   0  0  0  0  0  3  0  0  0  0  0  0
  -26.0230  -26.9700   19.5940 C   0  0  0  0  0  3  0  0  0  0  0  0
  -24.8550  -27.7520   19.5710 C   0  0  0  0  0  3  0  0  0  0  0  0
  -23.5980  -29.8860   20.2410 C   0  0  0  0  0  2  0  0  0  0  0  0
  -24.6490  -31.1500   22.1680 N   0  0  0  0  0  0  0  0  0  0  0  0
  -23.5120  -32.2450   23.7950 O   0  0  0  0  0  0  0  0  0  0  0  0
  -22.7180  -29.5440   22.5830 C   0  0  0  0  0  0  0  0  0  0  0  0
  -21.3900  -29.3840   22.4630 N   0  0  0  0  0  0  0  0  0  0  0  0
  -23.3900  -28.9160   23.4040 O   0  0  0  0  0  0  0  0  0  0  0  0
  -20.9080  -29.9520   21.7820 H   0  0  0  0  0  0  0  0  0  0  0  0
  -17.9950  -28.2340   22.9640 C   0  0  0  0  0  0  0  0  0  0  0  0
  -20.5600  -28.4550   23.2290 C   0  0  0  0  0  3  0  0  0  0  0  0
  -20.6390  -27.0200   22.6560 C   0  0  0  0  0  2  0  0  0  0  0  0
  -19.5240  -26.7060   21.6510 C   0  0  0  0  0  2  0  0  0  0  0  0
  -18.1470  -26.8790   22.2960 C   0  0  0  0  0  2  0  0  0  0  0  0
  -19.1250  -28.9790   23.3920 C   0  0  0  0  0  0  0  0  0  0  0  0
  -18.9230  -30.2490   23.9770 C   0  0  0  0  0  3  0  0  0  0  0  0
  -17.6250  -30.7660   24.1470 C   0  0  0  0  0  3  0  0  0  0  0  0
  -16.5100  -30.0150   23.7350 C   0  0  0  0  0  3  0  0  0  0  0  0
  -16.6970  -28.7520   23.1510 C   0  0  0  0  0  3  0  0  0  0  0  0
  -25.8810  -32.5840   23.8850 C   0  0  0  0  0  3  0  0  0  0  0  0
  -25.5790  -33.9840   24.2130 N   0  0  0  0  0  0  0  0  0  0  0  0
  -25.9040  -35.0330   23.4470 C   0  0  0  0  0  0  0  0  0  0  0  0
  -26.5610  -34.9240   22.4100 O   0  0  0  0  0  0  0  0  0  0  0  0
  -25.0010  -34.1400   25.0250 H   0  0  0  0  0  0  0  0  0  0  0  0
  -24.1710  -36.8290   23.1120 C   0  0  0  0  0  1  0  0  0  0  0  0
  -25.4230  -36.4220   23.9060 C   0  0  0  0  0  3  0  0  0  0  0  0
  -27.5710  -37.3120   24.6990 C   0  0  0  0  0  1  0  0  0  0  0  0
  -26.4530  -37.4740   23.7720 N   0  0  0  0  0  0  0  0  0  0  0  0
  -26.0500  -38.3960   23.9250 H   0  0  0  0  0  0  0  0  0  0  0  0
  -26.3890  -31.8080   25.1620 C   0  0  1  0  0  0  0  0  0  0  0  0
  -25.2930  -31.5790   26.2290 C   0  0  0  0  0  1  0  0  0  0  0  0
  -26.9600  -30.4260   24.7670 C   0  0  0  0  0  1  0  0  0  0  0  0
  -27.5420  -32.5940   25.8300 C   0  0  0  0  0  1  0  0  0  0  0  0
  -28.2210  -17.2250   18.1780 N   0  0  0  0  0  4  0  0  0  0  0  0
  -27.3060  -17.1140   18.5910 H   0  0  0  0  0  0  0  0  0  0  0  0
  -28.7280  -16.3610   18.2380 H   0  0  0  0  0  0  0  0  0  0  0  0
  -28.0910  -17.4300   17.1980 H   0  0  0  0  0  0  0  0  0  0  0  0
  -30.2420  -17.0850   20.7940 C   0  0  0  0  0  2  0  0  0  0  0  0
  -30.6040  -14.5890   20.4530 C   0  0  0  0  0  0  0  0  0  0  0  0
  -30.3680  -12.3820   19.3700 C   0  0  0  0  0  2  0  0  0  0  0  0
  -29.4270  -12.5480   18.1550 C   0  0  0  0  0  2  0  0  0  0  0  0
  -27.9440  -12.4260   18.5690 C   0  0  0  0  0  2  0  0  0  0  0  0
  -27.6010  -13.2590   19.8350 C   0  0  0  0  0  3  0  0  0  0  0  0
  -28.6590  -13.0530   20.9450 C   0  0  0  0  0  2  0  0  0  0  0  0
  -29.9720  -13.3850   20.3740 N   0  0  0  0  0  0  0  0  0  0  0  0
  -31.7640  -14.7510   20.0710 O   0  0  0  0  0  0  0  0  0  0  0  0
  -29.8200  -15.6570   20.7650 N   0  0  0  0  0  0  0  0  0  0  0  0
  -28.8890  -15.4340   21.0860 H   0  0  0  0  0  0  0  0  0  0  0  0
  -25.2060  -13.8730   20.5420 C   0  0  0  0  0  0  0  0  0  0  0  0
  -24.1260  -13.0990   20.8950 C   0  0  0  0  0  0  0  0  0  0  0  0
  -24.5900  -11.7500   20.8700 C   0  0  0  0  0  0  0  0  0  0  0  0
  -26.2490  -12.9890   20.3120 N   0  0  0  0  0  0  0  0  0  0  0  0
  -25.8820  -11.7090   20.5700 N   0  0  0  0  0  0  0  0  0  0  0  0
  -23.8640  -10.4860   21.0640 C   0  0  0  0  0  0  0  0  0  0  0  0
  -24.3040   -9.5140   21.9890 C   0  0  0  0  0  3  0  0  0  0  0  0
  -23.5840   -8.3130   22.1640 C   0  0  0  0  0  3  0  0  0  0  0  0
  -22.4060   -8.0790   21.4150 C   0  0  0  0  0  0  0  0  0  0  0  0
  -21.9830   -9.0380   20.4780 C   0  0  0  0  0  3  0  0  0  0  0  0
  -22.7050  -10.2330   20.3010 C   0  0  0  0  0  3  0  0  0  0  0  0
  -21.6490   -6.9350   21.5030 O   0  0  0  0  0  0  0  0  0  0  0  0
  -21.6160   -6.1820   22.6490 C   0  0  0  0  0  0  0  0  0  0  0  0
  -21.2020   -6.7260   23.8840 C   0  0  0  0  0  3  0  0  0  0  0  0
  -21.1160   -5.9000   25.0240 C   0  0  0  0  0  3  0  0  0  0  0  0
  -21.4320   -4.5300   24.9250 C   0  0  0  0  0  0  0  0  0  0  0  0
  -21.8330   -3.9860   23.6900 C   0  0  0  0  0  3  0  0  0  0  0  0
  -21.9220   -4.8090   22.5570 C   0  0  0  0  0  0  0  0  0  0  0  0
  -22.2950   -4.2770   21.3680 F   0  0  0  0  0  0  0  0  0  0  0  0
  -21.3350   -3.7350   26.0140 F   0  0  0  0  0  0  0  0  0  0  0  0
  -22.7280  -13.5810   21.1610 C   0  0  0  0  0  0  0  0  0  0  0  0
  -21.9930  -12.8860   22.0260 N   0  0  0  0  0  0  0  0  0  0  0  0
  -22.2970  -14.6080   20.6460 O   0  0  0  0  0  0  0  0  0  0  0  0
  -22.3490  -12.0550   22.4740 H   0  0  0  0  0  0  0  0  0  0  0  0
  -21.0570  -13.1970   22.2420 H   0  0  0  0  0  0  0  0  0  0  0  0
  -25.3860  -15.2450   20.3940 N   0  0  0  0  0  0  0  0  0  0  0  0
  -24.6230  -15.8420   20.6910 H   0  0  0  0  0  0  0  0  0  0  0  0
  -26.2800  -15.6300   20.6640 H   0  0  0  0  0  0  0  0  0  0  0  0
  2  5  1  0
  2  3  1  0
  3  6  1  0
  3  1  1  0
  4  1  1  0
  4 57  1  0
  5 53  1  0
  5  4  1  0
  6  7  1  0
  7  9  1  0
  8  6  2  0
 10  7  1  0
 11 10  1  0
 12 11  1  0
 13 24  2  0
 14 12  1  0
 14 19  1  0
 15 23  1  0
 15 25  1  0
 16 22  1  0
 16 18  1  0
 17 23  1  0
 18 19  2  0
 18 17  1  0
 20 14  2  0
 21 20  1  0
 21 16  2  0
 22 15  1  0
 23 13  1  0
 25 27  2  0
 26 25  1  0
 28 26  1  0
 29 38  2  0
 29 34  1  0
 30 26  1  0
 30 34  1  0
 31 30  1  0
 32 33  1  0
 32 31  1  0
 33 29  1  0
 34 35  2  0
 35 36  1  0
 37 36  2  0
 38 37  1  0
 39 13  1  0
 39 40  1  0
 39 49  1  0
 40 43  1  0
 41 45  1  0
 41 40  1  0
 42 41  2  0
 45 44  1  0
 47 45  1  0
 47 48  1  0
 47 46  1  0
 49 52  1  1
 49 50  1  0
 51 49  1  0
 53 55  1  0
 53 54  1  0
 56 53  1  0
 58 66  1  0
 59 64  1  0
 60 61  1  0
 60 59  1  0
 62 61  1  0
 62 71  1  0
 62 63  1  0
 64 58  1  0
 64 63  1  0
 65 58  2  0
 66 57  1  0
 66 67  1  0
 68 69  2  0
 69 88  1  0
 70 69  1  0
 70 73  1  0
 71 68  1  0
 71 72  1  0
 72 70  2  0
 73 74  1  0
 74 75  2  0
 76 79  1  0
 76 75  1  0
 77 76  2  0
 78 77  1  0
 78 73  2  0
 79 80  1  0
 80 81  1  0
 81 82  2  0
 83 82  1  0
 83 87  1  0
 84 83  2  0
 85 80  2  0
 85 84  1  0
 86 85  1  0
 88 89  1  0
 89 92  1  0
 89 91  1  0
 90 88  2  0
 93 68  1  0
 93 95  1  0
 93 94  1  0
M  ISO  4  11 101  12 101  58 100  66 100
M  END
>  <TORSDO>  (49) 
F 21

>  <SCORE>  (49) 
-13.953

>  <name>  (49) 
48

>  <ligand_id>  (49) 
48

>  <original_smiles>  (49) 
[H]c1c([H])c([H])c2c(c1[H])C([H])([H])C([H])([H])C([H])([H])C2([H])N([H])C(=O)C1([H])N(C(=O)C([H])(N([H])C(=O)C([H])(N([H])C([H])([H])[H])C([H])([H])[H])C(C([H])([H])[H])(C([H])([H])[H])C([H])([H])[H])C([H])([H])c2c([H])c(OC([H])([H])C([H])([H])N([H])C(=O)C3([H])C([H])([H])C([H])(C([H])([H])N([H])C(=O)N4C([H])([H])C([H])([H])C([H])([H])C([H])(n5nc(-c6c([H])c([H])c(Oc7c([H])c([H])c(F)c([H])c7F)c([H])c6[H])c(C(=O)N([H])[H])c5N([H])[H])C4([H])[H])C([H])([N+]([H])([H])[H])C3([H])[H])c([H])c([H])c2C1([H])[H]

>  <smiles>  (49) 
[H]c1c([H])c([H])c2c(c1[H])C([H])([H])C([H])([H])C([H])([H])C2([H])N([H])C(=O)C1([H])N(C(=O)C([H])(N([H])C(=O)C([H])(N([H])C([H])([H])[H])C([H])([H])[H])C(C([H])([H])[H])(C([H])([H])[H])C([H])([H])[H])C([H])([H])c2c([H])c(OC([H])([H])C([H])([H])N([H])C(=O)C3([H])C([H])([H])C([H])(C([H])([H])N([H])C(=O)N4C([H])([H])C([H])([H])C([H])([H])C([H])(n5nc(-c6c([H])c([H])c(Oc7c([H])c([H])c(F)c([H])c7F)c([H])c6[H])c(C(=O)N([H])[H])c5N([H])[H])C4([H])[H])C([H])([N+]([H])([H])[H])C3([H])[H])c([H])c([H])c2C1([H])[H]

$$$$
49:0:0
     RDKit          3D

 93101  0  0  1  0  0  0  0  0999 V2000
  -30.8410  -18.6110   20.6560 C   0  0  0  0  0  2  0  0  0  0  0  0
  -28.6780  -19.0270   19.4260 C   0  0  0  0  0  2  0  0  0  0  0  0
  -31.3450  -19.9990   20.1950 C   0  0  0  0  0  2  0  0  0  0  0  0
  -29.2790  -20.3490   18.9070 C   0  0  0  0  0  2  0  0  0  0  0  0
  -29.7840  -17.9910   19.7050 C   0  0  0  0  0  3  0  0  0  0  0  0
  -30.2130  -20.9170   19.9140 N   0  0  2  0  0  4  0  0  0  0  0  0
  -29.6870  -21.0240   20.7720 H   0  0  0  0  0  0  0  0  0  0  0  0
  -28.9830  -16.5340   21.7060 C   0  0  0  0  0  1  0  0  0  0  0  0
  -29.2300  -16.6100   20.1830 C   0  0  0  0  0  3  0  0  0  0  0  0
  -30.7570  -14.5040   20.0870 C   0  0  0  0  0  0  0  0  0  0  0  0
  -30.3980  -12.3770   18.9300 C   0  0  0  0  0  2  0  0  0  0  0  0
  -29.4060  -12.6060   17.7750 C   0  0  0  0  0  2  0  0  0  0  0  0
  -27.9550  -12.4390   18.2630 C   0  0  0  0  0  2  0  0  0  0  0  0
  -27.6640  -13.2610   19.5500 C   0  0  0  0  0  3  0  0  0  0  0  0
  -28.7690  -13.0440   20.6090 C   0  0  0  0  0  2  0  0  0  0  0  0
  -30.0550  -13.3470   19.9770 N   0  0  0  0  0  0  0  0  0  0  0  0
  -31.9610  -14.5640   19.8560 O   0  0  0  0  0  0  0  0  0  0  0  0
  -30.0970  -15.5720   19.6130 N   0  0  0  0  0  0  0  0  0  0  0  0
  -30.7160  -16.0190   18.9540 H   0  0  0  0  0  0  0  0  0  0  0  0
  -25.2940  -13.8700   20.3410 C   0  0  0  0  0  0  0  0  0  0  0  0
  -24.2370  -13.0910   20.7350 C   0  0  0  0  0  0  0  0  0  0  0  0
  -24.7040  -11.7420   20.6960 C   0  0  0  0  0  0  0  0  0  0  0  0
  -26.3320  -12.9890   20.0790 N   0  0  0  0  0  0  0  0  0  0  0  0
  -25.9830  -11.7060   20.3500 N   0  0  0  0  0  0  0  0  0  0  0  0
  -23.9900  -10.4750   20.9090 C   0  0  0  0  0  0  0  0  0  0  0  0
  -24.4400   -9.5230   21.8500 C   0  0  0  0  0  3  0  0  0  0  0  0
  -23.7260   -8.3220   22.0490 C   0  0  0  0  0  3  0  0  0  0  0  0
  -22.5490   -8.0670   21.3080 C   0  0  0  0  0  0  0  0  0  0  0  0
  -22.1190   -9.0060   20.3550 C   0  0  0  0  0  3  0  0  0  0  0  0
  -22.8320  -10.1990   20.1530 C   0  0  0  0  0  3  0  0  0  0  0  0
  -21.8050   -6.9180   21.4160 O   0  0  0  0  0  0  0  0  0  0  0  0
  -21.7490   -6.2030   22.5850 C   0  0  0  0  0  0  0  0  0  0  0  0
  -21.3110   -6.7840   23.7960 C   0  0  0  0  0  3  0  0  0  0  0  0
  -21.2070   -5.9920   24.9590 C   0  0  0  0  0  3  0  0  0  0  0  0
  -21.5280   -4.6230   24.9100 C   0  0  0  0  0  0  0  0  0  0  0  0
  -21.9600   -4.0420   23.7050 C   0  0  0  0  0  3  0  0  0  0  0  0
  -22.0660   -4.8300   22.5450 C   0  0  0  0  0  0  0  0  0  0  0  0
  -22.4620   -4.2610   21.3810 F   0  0  0  0  0  0  0  0  0  0  0  0
  -21.4170   -3.8610   26.0230 F   0  0  0  0  0  0  0  0  0  0  0  0
  -22.8450  -13.5650   21.0370 C   0  0  0  0  0  0  0  0  0  0  0  0
  -22.1410  -12.8710   21.9260 N   0  0  0  0  0  0  0  0  0  0  0  0
  -22.3900  -14.5830   20.5220 O   0  0  0  0  0  0  0  0  0  0  0  0
  -22.5190  -12.0450   22.3660 H   0  0  0  0  0  0  0  0  0  0  0  0
  -21.2080  -13.1730   22.1700 H   0  0  0  0  0  0  0  0  0  0  0  0
  -25.4550  -15.2420   20.1640 N   0  0  0  0  0  0  0  0  0  0  0  0
  -24.7080  -15.9110   20.3170 H   0  0  0  0  0  0  0  0  0  0  0  0
  -26.3220  -15.6760   19.8790 H   0  0  0  0  0  0  0  0  0  0  0  0
  -30.6220  -22.3180   19.6470 C   0  0  0  0  0  2  0  0  0  0  0  0
  -29.7130  -23.2260   20.4750 C   0  0  0  0  0  0  0  0  0  0  0  0
  -28.9350  -22.7530   21.3120 O   0  0  0  0  0  0  0  0  0  0  0  0
  -29.8270  -24.7400   20.2640 C   0  0  0  0  0  2  0  0  0  0  0  0
  -28.4660  -25.3790   19.9640 C   0  0  0  0  0  2  0  0  0  0  0  0
  -28.5110  -26.7870   20.1860 O   0  0  0  0  0  0  0  0  0  0  0  0
  -24.6300  -31.8860   23.2430 C   0  0  0  0  0  0  0  0  0  0  0  0
  -27.3090  -27.4640   20.1820 C   0  0  0  0  0  0  0  0  0  0  0  0
  -23.4270  -30.4700   21.6090 C   0  0  0  0  0  3  0  0  0  0  0  0
  -24.8890  -28.9250   20.2060 C   0  0  0  0  0  0  0  0  0  0  0  0
  -25.9460  -30.8490   21.3980 C   0  0  0  0  0  2  0  0  0  0  0  0
  -26.0450  -29.4720   20.7780 C   0  0  0  0  0  0  0  0  0  0  0  0
  -27.2540  -28.7460   20.7690 C   0  0  0  0  0  3  0  0  0  0  0  0
  -26.1300  -26.9240   19.6120 C   0  0  0  0  0  3  0  0  0  0  0  0
  -24.9240  -27.6460   19.6300 C   0  0  0  0  0  3  0  0  0  0  0  0
  -23.6400  -29.7730   20.2380 C   0  0  0  0  0  2  0  0  0  0  0  0
  -24.6860  -31.0830   22.1430 N   0  0  0  0  0  0  0  0  0  0  0  0
  -23.5470  -32.1560   23.7810 O   0  0  0  0  0  0  0  0  0  0  0  0
  -22.7820  -29.4530   22.5770 C   0  0  0  0  0  0  0  0  0  0  0  0
  -21.4590  -29.2670   22.4530 N   0  0  0  0  0  0  0  0  0  0  0  0
  -23.4690  -28.8320   23.3890 O   0  0  0  0  0  0  0  0  0  0  0  0
  -20.9630  -29.8240   21.7720 H   0  0  0  0  0  0  0  0  0  0  0  0
  -18.0880  -28.0750   22.9640 C   0  0  0  0  0  0  0  0  0  0  0  0
  -20.6460  -28.3310   23.2280 C   0  0  0  0  0  3  0  0  0  0  0  0
  -20.7440  -26.8980   22.6570 C   0  0  0  0  0  2  0  0  0  0  0  0
  -19.6390  -26.5740   21.6450 C   0  0  0  0  0  2  0  0  0  0  0  0
  -18.2600  -26.7240   22.2930 C   0  0  0  0  0  2  0  0  0  0  0  0
  -19.2090  -28.8360   23.3890 C   0  0  0  0  0  0  0  0  0  0  0  0
  -18.9960  -30.1020   23.9760 C   0  0  0  0  0  3  0  0  0  0  0  0
  -17.6940  -30.6090   24.1420 C   0  0  0  0  0  3  0  0  0  0  0  0
  -16.5860  -29.8450   23.7330 C   0  0  0  0  0  3  0  0  0  0  0  0
  -16.7840  -28.5800   23.1520 C   0  0  0  0  0  3  0  0  0  0  0  0
  -25.9160  -32.5230   23.8580 C   0  0  0  0  0  3  0  0  0  0  0  0
  -25.6020  -33.9180   24.1900 N   0  0  0  0  0  0  0  0  0  0  0  0
  -25.9250  -34.9710   23.4280 C   0  0  0  0  0  0  0  0  0  0  0  0
  -26.5940  -34.8700   22.3960 O   0  0  0  0  0  0  0  0  0  0  0  0
  -25.0080  -34.0690   24.9920 H   0  0  0  0  0  0  0  0  0  0  0  0
  -24.1880  -36.7530   23.0690 C   0  0  0  0  0  1  0  0  0  0  0  0
  -25.4290  -36.3570   23.8830 C   0  0  0  0  0  3  0  0  0  0  0  0
  -27.5610  -37.2550   24.7050 C   0  0  0  0  0  1  0  0  0  0  0  0
  -26.4560  -37.4150   23.7650 N   0  0  0  0  0  0  0  0  0  0  0  0
  -26.0470  -38.3350   23.9090 H   0  0  0  0  0  0  0  0  0  0  0  0
  -26.4430  -31.7510   25.1280 C   0  0  1  0  0  0  0  0  0  0  0  0
  -25.3620  -31.5060   26.2050 C   0  0  0  0  0  1  0  0  0  0  0  0
  -27.0350  -30.3780   24.7270 C   0  0  0  0  0  1  0  0  0  0  0  0
  -27.5910  -32.5500   25.7880 C   0  0  0  0  0  1  0  0  0  0  0  0
  2  5  1  0
  3  1  1  0
  4  2  1  0
  4  6  1  0
  5  9  1  0
  5  1  1  0
  6  3  1  0
  6  7  1  1
  9  8  1  0
 11 16  1  0
 12 13  1  0
 12 11  1  0
 14 13  1  0
 14 23  1  0
 14 15  1  0
 16 10  1  0
 16 15  1  0
 17 10  2  0
 18 10  1  0
 18  9  1  0
 19 18  1  0
 20 21  2  0
 21 40  1  0
 22 21  1  0
 22 25  1  0
 23 20  1  0
 23 24  1  0
 24 22  2  0
 25 26  1  0
 26 27  2  0
 28 31  1  0
 28 27  1  0
 29 28  2  0
 30 29  1  0
 30 25  2  0
 31 32  1  0
 32 33  1  0
 33 34  2  0
 35 34  1  0
 35 39  1  0
 36 35  2  0
 37 32  2  0
 37 36  1  0
 38 37  1  0
 40 41  1  0
 41 44  1  0
 41 43  1  0
 42 40  2  0
 45 46  1  0
 45 20  1  0
 47 45  1  0
 48  6  1  0
 48 49  1  0
 49 50  2  0
 51 49  1  0
 52 53  1  0
 52 51  1  0
 54 65  2  0
 55 53  1  0
 55 60  1  0
 56 64  1  0
 56 66  1  0
 57 63  1  0
 57 59  1  0
 58 64  1  0
 59 58  1  0
 60 59  2  0
 61 62  1  0
 61 55  2  0
 62 57  2  0
 63 56  1  0
 64 54  1  0
 66 68  2  0
 67 66  1  0
 69 67  1  0
 70 79  2  0
 70 75  1  0
 71 67  1  0
 71 75  1  0
 72 71  1  0
 73 74  1  0
 73 72  1  0
 74 70  1  0
 75 76  2  0
 76 77  1  0
 78 77  2  0
 79 78  1  0
 80 54  1  0
 80 81  1  0
 80 90  1  0
 81 84  1  0
 82 86  1  0
 82 81  1  0
 83 82  2  0
 86 85  1  0
 88 86  1  0
 88 89  1  0
 88 87  1  0
 90 93  1  1
 90 91  1  0
 92 90  1  0
M  ISO  4  10 100  18 100  52 101  53 101
M  END
>  <TORSDO>  (50) 
F 21

>  <SCORE>  (50) 
-12.769

>  <name>  (50) 
49

>  <ligand_id>  (50) 
49

>  <original_smiles>  (50) 
[H]c1c([H])c([H])c2c(c1[H])C([H])([H])C([H])([H])C([H])([H])C2([H])N([H])C(=O)C1([H])N(C(=O)C([H])(N([H])C(=O)C([H])(N([H])C([H])([H])[H])C([H])([H])[H])C(C([H])([H])[H])(C([H])([H])[H])C([H])([H])[H])C([H])([H])c2c([H])c(OC([H])([H])C([H])([H])C(=O)C([H])([H])[N+]3([H])C([H])([H])C([H])([H])C([H])(C([H])(N([H])C(=O)N4C([H])([H])C([H])([H])C([H])([H])C([H])(n5nc(-c6c([H])c([H])c(Oc7c([H])c([H])c(F)c([H])c7F)c([H])c6[H])c(C(=O)N([H])[H])c5N([H])[H])C4([H])[H])C([H])([H])[H])C([H])([H])C3([H])[H])c([H])c([H])c2C1([H])[H]

>  <smiles>  (50) 
[H]c1c([H])c([H])c2c(c1[H])C([H])([H])C([H])([H])C([H])([H])C2([H])N([H])C(=O)C1([H])N(C(=O)C([H])(N([H])C(=O)C([H])(N([H])C([H])([H])[H])C([H])([H])[H])C(C([H])([H])[H])(C([H])([H])[H])C([H])([H])[H])C([H])([H])c2c([H])c(OC([H])([H])C([H])([H])C(=O)C([H])([H])[N+]3([H])C([H])([H])C([H])([H])C([H])(C([H])(N([H])C(=O)N4C([H])([H])C([H])([H])C([H])([H])C([H])(n5nc(-c6c([H])c([H])c(Oc7c([H])c([H])c(F)c([H])c7F)c([H])c6[H])c(C(=O)N([H])[H])c5N([H])[H])C4([H])[H])C([H])([H])[H])C([H])([H])C3([H])[H])c([H])c([H])c2C1([H])[H]

$$$$
50:0:0
     RDKit          3D

 97105  0  0  1  0  0  0  0  0999 V2000
  -27.0780  -20.4550   21.1250 C   0  0  0  0  0  2  0  0  0  0  0  0
  -29.2570  -17.4490   20.4420 C   0  0  0  0  0  2  0  0  0  0  0  0
  -27.9650  -18.2880   20.3150 C   0  0  0  0  0  2  0  0  0  0  0  0
  -29.5540  -20.0880   20.9310 C   0  0  0  0  0  2  0  0  0  0  0  0
  -30.6340  -19.5450   19.9610 C   0  0  0  0  0  3  0  0  0  0  0  0
  -30.4530  -18.0140   19.6260 C   0  0  2  0  0  0  0  0  0  0  0  0
  -32.0340  -19.9770   20.4410 C   0  0  0  0  0  1  0  0  0  0  0  0
  -30.1280  -17.8690   18.1170 C   0  0  0  0  0  1  0  0  0  0  0  0
  -28.1950  -19.7530   20.4340 N   0  0  2  0  0  4  0  0  0  0  0  0
  -28.1570  -20.1130   19.4860 H   0  0  0  0  0  0  0  0  0  0  0  0
  -31.7350  -17.1720   19.9270 C   0  0  0  0  0  2  0  0  0  0  0  0
  -31.9520  -14.7110   19.4510 C   0  0  0  0  0  0  0  0  0  0  0  0
  -31.6480  -12.3030   18.9930 C   0  0  0  0  0  2  0  0  0  0  0  0
  -30.6670  -12.0830   17.8250 C   0  0  0  0  0  2  0  0  0  0  0  0
  -29.2060  -12.0830   18.3170 C   0  0  0  0  0  2  0  0  0  0  0  0
  -28.8870  -13.2990   19.2230 C   0  0  0  0  0  3  0  0  0  0  0  0
  -29.9600  -13.4390   20.3240 C   0  0  0  0  0  2  0  0  0  0  0  0
  -31.2820  -13.5510   19.6760 N   0  0  0  0  0  0  0  0  0  0  0  0
  -32.9370  -14.8060   18.7120 O   0  0  0  0  0  0  0  0  0  0  0  0
  -31.4390  -15.7560   20.1090 N   0  0  0  0  0  0  0  0  0  0  0  0
  -30.6900  -15.5370   20.7480 H   0  0  0  0  0  0  0  0  0  0  0  0
  -26.6450  -14.2140   20.1040 C   0  0  0  0  0  0  0  0  0  0  0  0
  -25.5130  -13.5850   20.5480 C   0  0  0  0  0  0  0  0  0  0  0  0
  -25.7790  -12.1850   20.4560 C   0  0  0  0  0  0  0  0  0  0  0  0
  -27.5430  -13.2060   19.7900 N   0  0  0  0  0  0  0  0  0  0  0  0
  -27.0260  -11.9790   20.0500 N   0  0  0  0  0  0  0  0  0  0  0  0
  -24.9030  -11.0280   20.6750 C   0  0  0  0  0  0  0  0  0  0  0  0
  -25.1570  -10.0930   21.7020 C   0  0  0  0  0  3  0  0  0  0  0  0
  -24.2910   -8.9980   21.9040 C   0  0  0  0  0  3  0  0  0  0  0  0
  -23.1540   -8.8300   21.0780 C   0  0  0  0  0  0  0  0  0  0  0  0
  -22.9170   -9.7510   20.0430 C   0  0  0  0  0  3  0  0  0  0  0  0
  -23.7840  -10.8380   19.8390 C   0  0  0  0  0  3  0  0  0  0  0  0
  -22.2720   -7.7830   21.1850 O   0  0  0  0  0  0  0  0  0  0  0  0
  -21.9050   -7.2740   22.4040 C   0  0  0  0  0  0  0  0  0  0  0  0
  -21.2810   -8.0710   23.3880 C   0  0  0  0  0  3  0  0  0  0  0  0
  -20.8550   -7.4910   24.5990 C   0  0  0  0  0  3  0  0  0  0  0  0
  -21.0420   -6.1140   24.8250 C   0  0  0  0  0  0  0  0  0  0  0  0
  -21.6590   -5.3170   23.8450 C   0  0  0  0  0  3  0  0  0  0  0  0
  -22.0860   -5.8950   22.6360 C   0  0  0  0  0  0  0  0  0  0  0  0
  -22.6590   -5.1180   21.6870 F   0  0  0  0  0  0  0  0  0  0  0  0
  -20.6280   -5.5550   25.9860 F   0  0  0  0  0  0  0  0  0  0  0  0
  -24.2180  -14.2390   20.9370 C   0  0  0  0  0  0  0  0  0  0  0  0
  -23.4860  -13.6440   21.8720 N   0  0  0  0  0  0  0  0  0  0  0  0
  -23.8730  -15.3140   20.4460 O   0  0  0  0  0  0  0  0  0  0  0  0
  -23.7790  -12.7720   22.2900 H   0  0  0  0  0  0  0  0  0  0  0  0
  -22.6200  -14.0660   22.1750 H   0  0  0  0  0  0  0  0  0  0  0  0
  -26.9730  -15.5520   19.9190 N   0  0  0  0  0  0  0  0  0  0  0  0
  -26.2340  -16.2450   19.9390 H   0  0  0  0  0  0  0  0  0  0  0  0
  -27.7390  -15.8150   19.3120 H   0  0  0  0  0  0  0  0  0  0  0  0
  -27.2030  -21.9990   21.1860 C   0  0  0  0  0  2  0  0  0  0  0  0
  -27.7810  -22.6660   19.9340 C   0  0  0  0  0  0  0  0  0  0  0  0
  -28.2570  -23.9040   20.0830 N   0  0  0  0  0  0  0  0  0  0  0  0
  -27.8230  -22.0580   18.8610 O   0  0  0  0  0  0  0  0  0  0  0  0
  -28.2020  -24.3280   21.0000 H   0  0  0  0  0  0  0  0  0  0  0  0
  -28.7910  -24.7310   19.0100 C   0  0  0  0  0  2  0  0  0  0  0  0
  -29.1470  -26.1310   19.5410 C   0  0  0  0  0  2  0  0  0  0  0  0
  -28.7470  -27.1480   18.6300 O   0  0  0  0  0  0  0  0  0  0  0  0
  -24.6010  -31.0840   22.8690 C   0  0  0  0  0  0  0  0  0  0  0  0
  -27.4970  -27.6590   18.8750 C   0  0  0  0  0  0  0  0  0  0  0  0
  -23.4360  -29.8260   21.0830 C   0  0  0  0  0  3  0  0  0  0  0  0
  -24.9420  -28.7620   19.3200 C   0  0  0  0  0  0  0  0  0  0  0  0
  -25.8680  -30.5610   20.7910 C   0  0  0  0  0  2  0  0  0  0  0  0
  -26.0690  -29.3400   19.9180 C   0  0  0  0  0  0  0  0  0  0  0  0
  -27.3500  -28.7950   19.6960 C   0  0  0  0  0  3  0  0  0  0  0  0
  -26.3580  -27.0790   18.2800 C   0  0  0  0  0  3  0  0  0  0  0  0
  -25.0790  -27.6260   18.5010 C   0  0  0  0  0  3  0  0  0  0  0  0
  -23.6070  -29.4200   19.5940 C   0  0  0  0  0  2  0  0  0  0  0  0
  -24.6570  -30.4960   21.6400 N   0  0  0  0  0  0  0  0  0  0  0  0
  -23.5460  -31.1140   23.5170 O   0  0  0  0  0  0  0  0  0  0  0  0
  -23.0020  -28.5790   21.8860 C   0  0  0  0  0  0  0  0  0  0  0  0
  -21.7270  -28.1870   21.7350 N   0  0  0  0  0  0  0  0  0  0  0  0
  -23.8060  -27.9750   22.5990 O   0  0  0  0  0  0  0  0  0  0  0  0
  -21.1290  -28.7440   21.1400 H   0  0  0  0  0  0  0  0  0  0  0  0
  -18.6560  -26.3000   21.9660 C   0  0  0  0  0  0  0  0  0  0  0  0
  -21.1060  -27.0220   22.3620 C   0  0  0  0  0  3  0  0  0  0  0  0
  -21.5000  -25.7180   21.6290 C   0  0  0  0  0  2  0  0  0  0  0  0
  -20.5010  -25.3130   20.5410 C   0  0  0  0  0  2  0  0  0  0  0  0
  -19.1080  -25.1060   21.1430 C   0  0  0  0  0  2  0  0  0  0  0  0
  -19.5930  -27.2090   22.5230 C   0  0  0  0  0  0  0  0  0  0  0  0
  -19.1190  -28.3260   23.2450 C   0  0  0  0  0  3  0  0  0  0  0  0
  -17.7390  -28.5380   23.4190 C   0  0  0  0  0  3  0  0  0  0  0  0
  -16.8150  -27.6240   22.8830 C   0  0  0  0  0  3  0  0  0  0  0  0
  -17.2730  -26.5060   22.1620 C   0  0  0  0  0  3  0  0  0  0  0  0
  -25.8520  -31.7670   23.5060 C   0  0  0  0  0  3  0  0  0  0  0  0
  -25.4290  -33.0810   24.0060 N   0  0  0  0  0  0  0  0  0  0  0  0
  -25.6450  -34.2410   23.3710 C   0  0  0  0  0  0  0  0  0  0  0  0
  -26.2910  -34.3210   22.3240 O   0  0  0  0  0  0  0  0  0  0  0  0
  -24.8470  -33.0860   24.8320 H   0  0  0  0  0  0  0  0  0  0  0  0
  -23.7590  -35.9010   23.2460 C   0  0  0  0  0  1  0  0  0  0  0  0
  -25.0440  -35.5150   23.9960 C   0  0  0  0  0  3  0  0  0  0  0  0
  -27.1090  -36.4770   24.9130 C   0  0  0  0  0  1  0  0  0  0  0  0
  -25.9790  -36.6610   24.0060 N   0  0  0  0  0  0  0  0  0  0  0  0
  -25.4980  -37.5170   24.2670 H   0  0  0  0  0  0  0  0  0  0  0  0
  -26.5080  -30.9130   24.6610 C   0  0  1  0  0  0  0  0  0  0  0  0
  -25.5000  -30.4480   25.7380 C   0  0  0  0  0  1  0  0  0  0  0  0
  -27.1970  -29.6540   24.0830 C   0  0  0  0  0  1  0  0  0  0  0  0
  -27.6100  -31.7390   25.3630 C   0  0  0  0  0  1  0  0  0  0  0  0
  1 50  1  0
  3  9  1  0
  3  2  1  0
  5  7  1  0
  5  4  1  0
  6  8  1  6
  6 11  1  0
  6  5  1  0
  6  2  1  0
  9  4  1  0
  9  1  1  0
  9 10  1  6
 11 20  1  0
 12 18  1  0
 12 20  1  0
 13 18  1  0
 14 15  1  0
 14 13  1  0
 16 15  1  0
 16 25  1  0
 16 17  1  0
 18 17  1  0
 19 12  2  0
 20 21  1  0
 22 23  2  0
 23 42  1  0
 24 23  1  0
 24 27  1  0
 25 26  1  0
 25 22  1  0
 26 24  2  0
 27 28  1  0
 28 29  2  0
 30 33  1  0
 30 29  1  0
 31 30  2  0
 32 31  1  0
 32 27  2  0
 33 34  1  0
 34 39  2  0
 34 35  1  0
 35 36  2  0
 36 37  1  0
 37 41  1  0
 38 37  2  0
 39 38  1  0
 40 39  1  0
 42 43  1  0
 43 46  1  0
 43 45  1  0
 44 42  2  0
 47 48  1  0
 47 22  1  0
 49 47  1  0
 51 52  1  0
 51 50  1  0
 52 54  1  0
 53 51  2  0
 55 56  1  0
 55 52  1  0
 57 59  1  0
 57 56  1  0
 58 69  2  0
 59 64  1  0
 60 68  1  0
 60 70  1  0
 61 67  1  0
 61 63  1  0
 62 68  1  0
 63 62  1  0
 64 63  2  0
 65 66  1  0
 65 59  2  0
 66 61  2  0
 67 60  1  0
 68 58  1  0
 70 72  2  0
 71 70  1  0
 73 71  1  0
 74 83  2  0
 74 79  1  0
 75 71  1  0
 75 79  1  0
 76 75  1  0
 77 78  1  0
 77 76  1  0
 78 74  1  0
 79 80  2  0
 80 81  1  0
 82 81  2  0
 83 82  1  0
 84 58  1  0
 84 85  1  0
 84 94  1  0
 85 88  1  0
 86 90  1  0
 86 85  1  0
 87 86  2  0
 90 89  1  0
 90 92  1  0
 92 93  1  0
 92 91  1  0
 94 97  1  1
 94 95  1  0
 96 94  1  0
M  ISO  4  12 100  20 100  56 101  57 101
M  END
>  <TORSDO>  (51) 
F 22

>  <SCORE>  (51) 
-7.315

>  <name>  (51) 
50

>  <ligand_id>  (51) 
50

>  <original_smiles>  (51) 
[H]c1c([H])c([H])c2c(c1[H])C([H])([H])C([H])([H])C([H])([H])C2([H])N([H])C(=O)C1([H])N(C(=O)C([H])(N([H])C(=O)C([H])(N([H])C([H])([H])[H])C([H])([H])[H])C(C([H])([H])[H])(C([H])([H])[H])C([H])([H])[H])C([H])([H])c2c([H])c(OC([H])([H])C([H])([H])N([H])C(=O)C([H])([H])C([H])([H])[N+]3([H])C([H])([H])C([H])([H])C(C([H])([H])[H])(C([H])([H])N([H])C(=O)N4C([H])([H])C([H])([H])C([H])([H])C([H])(n5nc(-c6c([H])c([H])c(Oc7c([H])c([H])c(F)c([H])c7F)c([H])c6[H])c(C(=O)N([H])[H])c5N([H])[H])C4([H])[H])C([H])(C([H])([H])[H])C3([H])[H])c([H])c([H])c2C1([H])[H]

>  <smiles>  (51) 
[H]c1c([H])c([H])c2c(c1[H])C([H])([H])C([H])([H])C([H])([H])C2([H])N([H])C(=O)C1([H])N(C(=O)C([H])(N([H])C(=O)C([H])(N([H])C([H])([H])[H])C([H])([H])[H])C(C([H])([H])[H])(C([H])([H])[H])C([H])([H])[H])C([H])([H])c2c([H])c(OC([H])([H])C([H])([H])N([H])C(=O)C([H])([H])C([H])([H])[N+]3([H])C([H])([H])C([H])([H])C(C([H])([H])[H])(C([H])([H])N([H])C(=O)N4C([H])([H])C([H])([H])C([H])([H])C([H])(n5nc(-c6c([H])c([H])c(Oc7c([H])c([H])c(F)c([H])c7F)c([H])c6[H])c(C(=O)N([H])[H])c5N([H])[H])C4([H])[H])C([H])(C([H])([H])[H])C3([H])[H])c([H])c([H])c2C1([H])[H]

$$$$
51:0:0
     RDKit          3D

 91 99  0  0  1  0  0  0  0  0999 V2000
  -29.3220  -20.5600   21.0100 C   0  0  0  0  0  2  0  0  0  0  0  0
  -29.0030  -19.6740   18.8780 C   0  0  0  0  0  2  0  0  0  0  0  0
  -29.0600  -19.0980   20.3300 C   0  0  0  0  0  3  0  0  0  0  0  0
  -28.5350  -21.7440   20.2250 C   0  0  0  0  0  3  0  0  0  0  0  0
  -28.6160  -21.1470   18.8610 N   0  0  0  0  0  4  0  0  0  0  0  0
  -27.7290  -21.2580   18.3940 H   0  0  0  0  0  0  0  0  0  0  0  0
  -29.3040  -21.6380   18.3140 H   0  0  0  0  0  0  0  0  0  0  0  0
  -28.8800  -23.4050   20.3790 C   0  0  0  0  0  3  0  0  0  0  0  0
  -27.8830  -24.7230   20.0270 C   0  0  0  0  0  3  0  0  0  0  0  0
  -28.1580  -26.2410   20.2730 O   0  0  0  0  0  0  0  0  0  0  0  0
  -24.6120  -31.9550   23.2980 C   0  0  0  0  0  0  0  0  0  0  0  0
  -27.1120  -27.2350   20.2150 C   0  0  0  0  0  0  0  0  0  0  0  0
  -23.3840  -30.5850   21.6580 C   0  0  0  0  0  3  0  0  0  0  0  0
  -24.8030  -29.0060   20.2100 C   0  0  0  0  0  0  0  0  0  0  0  0
  -25.9390  -30.8240   21.4750 C   0  0  0  0  0  2  0  0  0  0  0  0
  -25.9920  -29.4360   20.8120 C   0  0  0  0  0  0  0  0  0  0  0  0
  -27.1470  -28.5670   20.7970 C   0  0  0  0  0  3  0  0  0  0  0  0
  -25.8980  -26.9090   19.5720 C   0  0  0  0  0  3  0  0  0  0  0  0
  -24.7690  -27.7560   19.5740 C   0  0  0  0  0  3  0  0  0  0  0  0
  -23.5860  -29.9160   20.2730 C   0  0  0  0  0  2  0  0  0  0  0  0
  -24.6650  -31.1420   22.1980 N   0  0  0  0  0  0  0  0  0  0  0  0
  -23.5330  -32.2480   23.8360 O   0  0  0  0  0  0  0  0  0  0  0  0
  -22.7010  -29.5780   22.6180 C   0  0  0  0  0  0  0  0  0  0  0  0
  -21.3730  -29.4070   22.4850 N   0  0  0  0  0  0  0  0  0  0  0  0
  -23.3680  -28.9540   23.4470 O   0  0  0  0  0  0  0  0  0  0  0  0
  -20.8920  -29.9630   21.7920 H   0  0  0  0  0  0  0  0  0  0  0  0
  -17.9910  -28.1980   22.9620 C   0  0  0  0  0  0  0  0  0  0  0  0
  -20.5470  -28.4720   23.2530 C   0  0  0  0  0  3  0  0  0  0  0  0
  -20.6600  -27.0360   22.6900 C   0  0  0  0  0  2  0  0  0  0  0  0
  -19.5700  -26.7020   21.6660 C   0  0  0  0  0  2  0  0  0  0  0  0
  -18.1810  -26.8450   22.2950 C   0  0  0  0  0  2  0  0  0  0  0  0
  -19.1030  -28.9680   23.3980 C   0  0  0  0  0  0  0  0  0  0  0  0
  -18.8720  -30.2320   23.9820 C   0  0  0  0  0  3  0  0  0  0  0  0
  -17.5630  -30.7260   24.1350 C   0  0  0  0  0  3  0  0  0  0  0  0
  -16.4660  -29.9530   23.7140 C   0  0  0  0  0  3  0  0  0  0  0  0
  -16.6820  -28.6920   23.1330 C   0  0  0  0  0  3  0  0  0  0  0  0
  -25.9010  -32.5720   23.9200 C   0  0  0  0  0  3  0  0  0  0  0  0
  -26.4060  -31.7960   25.1990 C   0  0  1  0  0  0  0  0  0  0  0  0
  -25.3060  -31.5710   26.2640 C   0  0  0  0  0  1  0  0  0  0  0  0
  -26.9730  -30.4100   24.8120 C   0  0  0  0  0  1  0  0  0  0  0  0
  -27.5640  -32.5760   25.8620 C   0  0  0  0  0  1  0  0  0  0  0  0
  -25.6100  -33.9750   24.2550 N   0  0  0  0  0  0  0  0  0  0  0  0
  -25.9200  -35.0260   23.4840 C   0  0  0  0  0  0  0  0  0  0  0  0
  -26.5480  -34.9160   22.4280 O   0  0  0  0  0  0  0  0  0  0  0  0
  -25.0480  -34.1340   25.0780 H   0  0  0  0  0  0  0  0  0  0  0  0
  -24.1730  -36.8190   23.2240 C   0  0  0  0  0  1  0  0  0  0  0  0
  -25.4620  -36.4200   23.9590 C   0  0  0  0  0  3  0  0  0  0  0  0
  -27.6400  -37.3190   24.6530 C   0  0  0  0  0  1  0  0  0  0  0  0
  -26.4860  -37.4710   23.7710 N   0  0  0  0  0  0  0  0  0  0  0  0
  -26.0880  -38.3930   23.9270 H   0  0  0  0  0  0  0  0  0  0  0  0
  -30.0040  -17.7180   20.6570 C   0  0  0  0  0  3  0  0  0  0  0  0
  -30.3360  -15.0320   20.0760 C   0  0  0  0  0  0  0  0  0  0  0  0
  -30.1600  -12.7360   19.0150 C   0  0  0  0  0  2  0  0  0  0  0  0
  -29.1550  -12.7460   17.8410 C   0  0  0  0  0  2  0  0  0  0  0  0
  -27.7230  -12.4980   18.3520 C   0  0  0  0  0  2  0  0  0  0  0  0
  -27.3820  -13.3560   19.5980 C   0  0  0  0  0  3  0  0  0  0  0  0
  -28.5050  -13.3270   20.6570 C   0  0  0  0  0  2  0  0  0  0  0  0
  -29.7310  -13.7800   19.9880 N   0  0  0  0  0  0  0  0  0  0  0  0
  -31.5170  -15.1080   19.7210 O   0  0  0  0  0  0  0  0  0  0  0  0
  -29.5910  -16.2070   20.3890 N   0  0  0  0  0  0  0  0  0  0  0  0
  -28.6160  -16.0140   20.5670 H   0  0  0  0  0  0  0  0  0  0  0  0
  -25.0340  -13.8610   20.4800 C   0  0  0  0  0  0  0  0  0  0  0  0
  -24.0090  -13.0520   20.8860 C   0  0  0  0  0  0  0  0  0  0  0  0
  -24.5010  -11.7140   20.7940 C   0  0  0  0  0  0  0  0  0  0  0  0
  -26.0810  -13.0140   20.1610 N   0  0  0  0  0  0  0  0  0  0  0  0
  -25.7740  -11.7150   20.4150 N   0  0  0  0  0  0  0  0  0  0  0  0
  -23.8120  -10.4300   20.9860 C   0  0  0  0  0  0  0  0  0  0  0  0
  -24.2750   -9.4750   21.9180 C   0  0  0  0  0  3  0  0  0  0  0  0
  -23.5830   -8.2570   22.0990 C   0  0  0  0  0  3  0  0  0  0  0  0
  -22.4140   -7.9870   21.3490 C   0  0  0  0  0  0  0  0  0  0  0  0
  -21.9700   -8.9320   20.4070 C   0  0  0  0  0  3  0  0  0  0  0  0
  -22.6630  -10.1400   20.2240 C   0  0  0  0  0  3  0  0  0  0  0  0
  -21.6910   -6.8220   21.4400 O   0  0  0  0  0  0  0  0  0  0  0  0
  -21.6340   -6.0990   22.6050 C   0  0  0  0  0  0  0  0  0  0  0  0
  -21.1370   -6.6550   23.8030 C   0  0  0  0  0  3  0  0  0  0  0  0
  -21.0310   -5.8560   24.9590 C   0  0  0  0  0  3  0  0  0  0  0  0
  -21.4140   -4.5030   24.9170 C   0  0  0  0  0  0  0  0  0  0  0  0
  -21.9060   -3.9460   23.7240 C   0  0  0  0  0  3  0  0  0  0  0  0
  -22.0120   -4.7420   22.5700 C   0  0  0  0  0  0  0  0  0  0  0  0
  -22.4670   -4.1950   21.4160 F   0  0  0  0  0  0  0  0  0  0  0  0
  -21.3060   -3.7320   26.0260 F   0  0  0  0  0  0  0  0  0  0  0  0
  -22.6180  -13.4900   21.2400 C   0  0  0  0  0  0  0  0  0  0  0  0
  -21.9520  -12.7560   22.1250 N   0  0  0  0  0  0  0  0  0  0  0  0
  -22.1330  -14.5170   20.7700 O   0  0  0  0  0  0  0  0  0  0  0  0
  -22.3590  -11.9250   22.5260 H   0  0  0  0  0  0  0  0  0  0  0  0
  -21.0210  -13.0300   22.4060 H   0  0  0  0  0  0  0  0  0  0  0  0
  -25.1560  -15.2390   20.3310 N   0  0  0  0  0  0  0  0  0  0  0  0
  -24.3750  -15.8660   20.4940 H   0  0  0  0  0  0  0  0  0  0  0  0
  -25.9600  -15.7060   19.9320 H   0  0  0  0  0  0  0  0  0  0  0  0
  -31.2750  -16.7300   22.7450 C   0  0  0  0  0  1  0  0  0  0  0  0
  -30.3890  -17.8390   22.1560 C   0  0  0  0  0  2  0  0  0  0  0  0
  2  3  1  0
  3 51  1  0
  3  1  1  0
  4  8  1  0
  4  1  1  0
  5  2  1  0
  5  4  1  0
  6  5  1  0
  7  5  1  0
  9 10  1  0
  9  8  2  0
 11 22  2  0
 12 10  1  0
 12 17  1  0
 13 21  1  0
 13 23  1  0
 14 20  1  0
 14 16  1  0
 15 21  1  0
 16 15  1  0
 17 16  2  0
 18 19  1  0
 18 12  2  0
 19 14  2  0
 20 13  1  0
 21 11  1  0
 23 25  2  0
 24 23  1  0
 26 24  1  0
 27 36  2  0
 27 32  1  0
 28 24  1  0
 28 32  1  0
 29 28  1  0
 30 31  1  0
 30 29  1  0
 31 27  1  0
 32 33  2  0
 33 34  1  0
 35 34  2  0
 36 35  1  0
 37 11  1  0
 37 42  1  0
 37 38  1  0
 38 41  1  1
 38 39  1  0
 40 38  1  0
 42 45  1  0
 43 47  1  0
 43 42  1  0
 44 43  2  0
 47 46  1  0
 49 50  1  0
 49 47  1  0
 49 48  1  0
 51 91  1  0
 52 60  1  0
 53 58  1  0
 54 55  1  0
 54 53  1  0
 56 55  1  0
 56 65  1  0
 56 57  1  0
 58 52  1  0
 58 57  1  0
 59 52  2  0
 60 61  1  0
 60 51  1  0
 62 63  2  0
 63 82  1  0
 64 63  1  0
 64 67  1  0
 65 66  1  0
 65 62  1  0
 66 64  2  0
 67 68  1  0
 68 69  2  0
 70 73  1  0
 70 69  1  0
 71 70  2  0
 72 71  1  0
 72 67  2  0
 73 74  1  0
 74 75  1  0
 75 76  2  0
 77 76  1  0
 77 81  1  0
 78 77  2  0
 79 74  2  0
 79 78  1  0
 80 79  1  0
 82 83  1  0
 83 86  1  0
 83 85  1  0
 84 82  2  0
 87 62  1  0
 87 88  1  0
 89 87  1  0
 91 90  1  0
M  ISO  4   9 101  10 101  52 100  60 100
M  END
>  <TORSDO>  (52) 
F 20

>  <SCORE>  (52) 
-14.057

>  <name>  (52) 
51

>  <ligand_id>  (52) 
51

>  <original_smiles>  (52) 
[H]c1c([H])c([H])c2c(c1[H])C([H])([H])C([H])([H])C([H])([H])C2([H])N([H])C(=O)C1([H])N(C(=O)C([H])(N([H])C(=O)C([H])(N([H])C([H])([H])[H])C([H])([H])[H])C(C([H])([H])[H])(C([H])([H])[H])C([H])([H])[H])C([H])([H])c2c([H])c(OC([H])([H])C([H])([H])C3([H])C([H])([H])C([H])(C([H])(N([H])C(=O)N4C([H])([H])C([H])([H])C([H])([H])C([H])(n5nc(-c6c([H])c([H])c(Oc7c([H])c([H])c(F)c([H])c7F)c([H])c6[H])c(C(=O)N([H])[H])c5N([H])[H])C4([H])[H])C([H])([H])C([H])([H])[H])C([H])([H])[N+]3([H])[H])c([H])c([H])c2C1([H])[H]

>  <smiles>  (52) 
[H]c1c([H])c([H])c2c(c1[H])C([H])([H])C([H])([H])C([H])([H])C2([H])N([H])C(=O)C1([H])N(C(=O)C([H])(N([H])C(=O)C([H])(N([H])C([H])([H])[H])C([H])([H])[H])C(C([H])([H])[H])(C([H])([H])[H])C([H])([H])[H])C([H])([H])c2c([H])c(OC([H])([H])C([H])([H])C3([H])C([H])([H])C([H])(C([H])(N([H])C(=O)N4C([H])([H])C([H])([H])C([H])([H])C([H])(n5nc(-c6c([H])c([H])c(Oc7c([H])c([H])c(F)c([H])c7F)c([H])c6[H])c(C(=O)N([H])[H])c5N([H])[H])C4([H])[H])C([H])([H])C([H])([H])[H])C([H])([H])[N+]3([H])[H])c([H])c([H])c2C1([H])[H]

$$$$
52:0:0
     RDKit          3D

 95104  0  0  1  0  0  0  0  0999 V2000
  -29.3900  -20.6760   19.4730 N   0  0  0  0  0  4  0  0  0  0  0  0
  -29.3510  -20.6390   18.4690 H   0  0  0  0  0  0  0  0  0  0  0  0
  -30.3540  -20.8440   19.7120 H   0  0  0  0  0  0  0  0  0  0  0  0
  -30.5740  -15.7780   20.6350 C   0  0  0  0  0  0  0  0  0  0  0  0
  -30.6910  -13.3280   20.1650 C   0  0  0  0  0  2  0  0  0  0  0  0
  -29.9150  -12.9740   18.8790 C   0  0  0  0  0  2  0  0  0  0  0  0
  -28.4410  -12.6700   19.2090 C   0  0  0  0  0  2  0  0  0  0  0  0
  -27.8030  -13.7510   20.1140 C   0  0  0  0  0  3  0  0  0  0  0  0
  -28.7180  -14.1420   21.3020 C   0  0  0  0  0  2  0  0  0  0  0  0
  -30.0340  -14.5130   20.7600 N   0  0  0  0  0  0  0  0  0  0  0  0
  -31.7940  -15.9010   20.5100 O   0  0  0  0  0  0  0  0  0  0  0  0
  -28.4450  -18.3460   18.9710 C   0  0  0  0  0  2  0  0  0  0  0  0
  -28.6090  -16.9330   19.5700 C   0  0  0  0  0  2  0  0  0  0  0  0
  -30.1950  -18.3440   20.5730 C   0  0  0  0  0  3  0  0  0  0  0  0
  -29.0410  -19.2830   20.0070 C   0  0  0  0  0  3  0  0  0  0  0  0
  -29.7550  -16.8990   20.4890 N   0  0  0  0  0  0  0  0  0  0  0  0
  -31.3240  -19.4940   24.6150 C   0  0  0  0  0  3  0  0  0  0  0  0
  -31.7290  -20.2790   23.5180 C   0  0  0  0  0  3  0  0  0  0  0  0
  -30.5550  -18.3340   24.4030 C   0  0  0  0  0  3  0  0  0  0  0  0
  -31.3630  -19.9070   22.2090 C   0  0  0  0  0  3  0  0  0  0  0  0
  -30.1900  -17.9600   23.0960 C   0  0  0  0  0  3  0  0  0  0  0  0
  -30.5910  -18.7460   21.9890 C   0  0  0  0  0  0  0  0  0  0  0  0
  -25.3840  -14.2590   20.7940 C   0  0  0  0  0  0  0  0  0  0  0  0
  -24.3190  -13.4420   21.0560 C   0  0  0  0  0  0  0  0  0  0  0  0
  -24.8120  -12.1070   20.9440 C   0  0  0  0  0  0  0  0  0  0  0  0
  -26.4530  -13.4140   20.5360 N   0  0  0  0  0  0  0  0  0  0  0  0
  -26.1140  -12.1100   20.6930 N   0  0  0  0  0  0  0  0  0  0  0  0
  -24.1090  -10.8230   21.0010 C   0  0  0  0  0  0  0  0  0  0  0  0
  -24.5330   -9.7900   21.8650 C   0  0  0  0  0  3  0  0  0  0  0  0
  -23.8310   -8.5680   21.9140 C   0  0  0  0  0  3  0  0  0  0  0  0
  -22.6910   -8.3720   21.0990 C   0  0  0  0  0  0  0  0  0  0  0  0
  -22.2880   -9.3950   20.2220 C   0  0  0  0  0  3  0  0  0  0  0  0
  -22.9920  -10.6080   20.1700 C   0  0  0  0  0  3  0  0  0  0  0  0
  -21.9600   -7.2100   21.0630 O   0  0  0  0  0  0  0  0  0  0  0  0
  -21.8710   -6.3850   22.1550 C   0  0  0  0  0  0  0  0  0  0  0  0
  -21.3680   -6.8390   23.3930 C   0  0  0  0  0  3  0  0  0  0  0  0
  -21.2290   -5.9390   24.4690 C   0  0  0  0  0  3  0  0  0  0  0  0
  -21.5810   -4.5860   24.3050 C   0  0  0  0  0  0  0  0  0  0  0  0
  -22.0770   -4.1310   23.0700 C   0  0  0  0  0  3  0  0  0  0  0  0
  -22.2190   -5.0290   21.9970 C   0  0  0  0  0  0  0  0  0  0  0  0
  -22.6780   -4.5820   20.8040 F   0  0  0  0  0  0  0  0  0  0  0  0
  -21.4390   -3.7190   25.3350 F   0  0  0  0  0  0  0  0  0  0  0  0
  -22.9010  -13.8760   21.2920 C   0  0  0  0  0  0  0  0  0  0  0  0
  -22.1610  -13.1290   22.1040 N   0  0  0  0  0  0  0  0  0  0  0  0
  -22.4560  -14.9080   20.7940 O   0  0  0  0  0  0  0  0  0  0  0  0
  -22.5340  -12.2940   22.5290 H   0  0  0  0  0  0  0  0  0  0  0  0
  -21.2100  -13.4030   22.3070 H   0  0  0  0  0  0  0  0  0  0  0  0
  -25.5170  -15.6420   20.7220 N   0  0  0  0  0  0  0  0  0  0  0  0
  -24.7200  -16.2580   20.8430 H   0  0  0  0  0  0  0  0  0  0  0  0
  -26.3520  -16.1300   20.4300 H   0  0  0  0  0  0  0  0  0  0  0  0
  -28.6250  -21.9120   19.9510 C   0  0  0  0  0  2  0  0  0  0  0  0
  -28.5710  -23.2000   18.9860 C   0  0  0  0  0  2  0  0  0  0  0  0
  -28.5060  -24.6940   19.5880 C   0  0  0  0  0  3  0  0  0  0  0  0
  -27.7660  -25.8420   18.7520 C   0  0  0  0  0  3  0  0  0  0  0  0
  -27.8690  -27.2800   19.1430 O   0  0  0  0  0  0  0  0  0  0  0  0
  -24.3030  -31.9520   23.3350 C   0  0  0  0  0  0  0  0  0  0  0  0
  -26.7310  -28.1030   19.2910 C   0  0  0  0  0  0  0  0  0  0  0  0
  -22.9940  -30.8480   21.5570 C   0  0  0  0  0  3  0  0  0  0  0  0
  -24.3490  -29.6380   19.7570 C   0  0  0  0  0  0  0  0  0  0  0  0
  -25.5080  -31.2630   21.2490 C   0  0  0  0  0  2  0  0  0  0  0  0
  -25.5540  -30.0310   20.3520 C   0  0  0  0  0  0  0  0  0  0  0  0
  -26.7410  -29.2740   20.1180 C   0  0  0  0  0  3  0  0  0  0  0  0
  -25.5030  -27.7930   18.6580 C   0  0  0  0  0  3  0  0  0  0  0  0
  -24.3270  -28.5280   18.9000 C   0  0  0  0  0  3  0  0  0  0  0  0
  -23.1070  -30.4500   20.0620 C   0  0  0  0  0  2  0  0  0  0  0  0
  -24.2910  -31.3630   22.1030 N   0  0  0  0  0  0  0  0  0  0  0  0
  -23.2610  -32.0950   23.9910 O   0  0  0  0  0  0  0  0  0  0  0  0
  -22.4260  -29.6490   22.3560 C   0  0  0  0  0  0  0  0  0  0  0  0
  -21.1180  -29.3850   22.2010 N   0  0  0  0  0  0  0  0  0  0  0  0
  -23.1630  -28.9670   23.0740 O   0  0  0  0  0  0  0  0  0  0  0  0
  -20.5790  -29.9960   21.6040 H   0  0  0  0  0  0  0  0  0  0  0  0
  -17.8830  -27.7770   22.4030 C   0  0  0  0  0  0  0  0  0  0  0  0
  -20.3830  -28.2830   22.8260 C   0  0  0  0  0  3  0  0  0  0  0  0
  -20.6700  -26.9450   22.1060 C   0  0  0  0  0  2  0  0  0  0  0  0
  -19.6520  -26.6200   21.0090 C   0  0  0  0  0  2  0  0  0  0  0  0
  -18.2390  -26.5390   21.5960 C   0  0  0  0  0  2  0  0  0  0  0  0
  -18.8910  -28.6040   22.9680 C   0  0  0  0  0  0  0  0  0  0  0  0
  -18.5080  -29.7610   23.6790 C   0  0  0  0  0  3  0  0  0  0  0  0
  -17.1490  -30.0950   23.8330 C   0  0  0  0  0  3  0  0  0  0  0  0
  -16.1550  -29.2630   23.2860 C   0  0  0  0  0  3  0  0  0  0  0  0
  -16.5230  -28.1060   22.5770 C   0  0  0  0  0  3  0  0  0  0  0  0
  -25.6230  -32.4960   23.9650 C   0  0  0  0  0  3  0  0  0  0  0  0
  -25.3680  -33.8750   24.4070 N   0  0  0  0  0  0  0  0  0  0  0  0
  -25.7720  -34.9720   23.7520 C   0  0  0  0  0  0  0  0  0  0  0  0
  -26.4680  -34.9250   22.7350 O   0  0  0  0  0  0  0  0  0  0  0  0
  -24.7570  -33.9890   25.2030 H   0  0  0  0  0  0  0  0  0  0  0  0
  -24.1610  -36.8860   23.4910 C   0  0  0  0  0  1  0  0  0  0  0  0
  -25.3360  -36.3390   24.3160 C   0  0  0  0  0  3  0  0  0  0  0  0
  -27.4700  -37.0180   25.3240 C   0  0  0  0  0  1  0  0  0  0  0  0
  -26.4260  -37.3370   24.3520 N   0  0  0  0  0  0  0  0  0  0  0  0
  -26.0620  -38.2610   24.5730 H   0  0  0  0  0  0  0  0  0  0  0  0
  -26.1480  -31.6150   25.1650 C   0  0  1  0  0  0  0  0  0  0  0  0
  -25.0780  -31.3350   26.2480 C   0  0  0  0  0  1  0  0  0  0  0  0
  -26.6680  -30.2500   24.6570 C   0  0  0  0  0  1  0  0  0  0  0  0
  -27.3440  -32.3180   25.8460 C   0  0  0  0  0  1  0  0  0  0  0  0
  1  3  1  0
  1 51  1  0
  2  1  1  0
  4 10  1  0
  5 10  1  0
  6  7  1  0
  6  5  1  0
  8  7  1  0
  8 26  1  0
  8  9  1  0
 10  9  1  0
 11  4  2  0
 12 13  1  0
 12 15  1  0
 13 16  1  0
 14 22  1  0
 15  1  1  0
 15 14  1  0
 16 14  1  0
 16  4  1  0
 18 17  2  0
 19 17  1  0
 20 18  1  0
 21 19  2  0
 22 20  2  0
 22 21  1  0
 23 24  2  0
 24 43  1  0
 25 28  1  0
 25 24  1  0
 26 27  1  0
 26 23  1  0
 27 25  2  0
 28 29  1  0
 29 30  2  0
 31 30  1  0
 32 31  2  0
 33 32  1  0
 33 28  2  0
 34 31  1  0
 34 35  1  0
 35 36  1  0
 36 37  2  0
 38 37  1  0
 38 42  1  0
 39 38  2  0
 40 35  2  0
 40 39  1  0
 41 40  1  0
 43 44  1  0
 44 47  1  0
 44 46  1  0
 45 43  2  0
 48 23  1  0
 48 49  1  0
 50 48  1  0
 52 53  1  0
 52 51  1  0
 54 55  1  0
 54 53  2  0
 55 57  1  0
 56 67  2  0
 57 62  1  0
 58 66  1  0
 58 68  1  0
 59 65  1  0
 59 61  1  0
 60 66  1  0
 61 60  1  0
 62 61  2  0
 63 64  1  0
 63 57  2  0
 64 59  2  0
 65 58  1  0
 66 56  1  0
 68 70  2  0
 69 68  1  0
 71 69  1  0
 72 81  2  0
 72 77  1  0
 73 69  1  0
 73 77  1  0
 74 73  1  0
 75 76  1  0
 75 74  1  0
 76 72  1  0
 77 78  2  0
 78 79  1  0
 80 79  2  0
 81 80  1  0
 82 56  1  0
 82 83  1  0
 82 92  1  0
 83 86  1  0
 84 88  1  0
 84 83  1  0
 85 84  2  0
 88 87  1  0
 88 90  1  0
 90 91  1  0
 90 89  1  0
 92 95  1  1
 92 93  1  0
 94 92  1  0
M  ISO  4   4 100  16 100  54 101  55 101
M  END
>  <TORSDO>  (53) 
F 21

>  <SCORE>  (53) 
-9.299

>  <name>  (53) 
52

>  <ligand_id>  (53) 
52

>  <original_smiles>  (53) 
[H]c1c([H])c([H])c(C2([H])N(C(=O)N3C([H])([H])C([H])([H])C([H])([H])C([H])(n4nc(-c5c([H])c([H])c(Oc6c([H])c([H])c(F)c([H])c6F)c([H])c5[H])c(C(=O)N([H])[H])c4N([H])[H])C3([H])[H])C([H])([H])C([H])([H])C2([H])[N+]([H])([H])C([H])([H])C([H])([H])C([H])([H])C([H])([H])Oc2c([H])c([H])c3c(c2[H])C([H])([H])N(C(=O)C([H])(N([H])C(=O)C([H])(N([H])C([H])([H])[H])C([H])([H])[H])C(C([H])([H])[H])(C([H])([H])[H])C([H])([H])[H])C([H])(C(=O)N([H])C2([H])c4c([H])c([H])c([H])c([H])c4C([H])([H])C([H])([H])C2([H])[H])C3([H])[H])c([H])c1[H]

>  <smiles>  (53) 
[H]c1c([H])c([H])c(C2([H])N(C(=O)N3C([H])([H])C([H])([H])C([H])([H])C([H])(n4nc(-c5c([H])c([H])c(Oc6c([H])c([H])c(F)c([H])c6F)c([H])c5[H])c(C(=O)N([H])[H])c4N([H])[H])C3([H])[H])C([H])([H])C([H])([H])C2([H])[N+]([H])([H])C([H])([H])C([H])([H])C([H])([H])C([H])([H])Oc2c([H])c([H])c3c(c2[H])C([H])([H])N(C(=O)C([H])(N([H])C(=O)C([H])(N([H])C([H])([H])[H])C([H])([H])[H])C(C([H])([H])[H])(C([H])([H])[H])C([H])([H])[H])C([H])(C(=O)N([H])C2([H])c4c([H])c([H])c([H])c([H])c4C([H])([H])C([H])([H])C2([H])[H])C3([H])[H])c([H])c1[H]

$$$$
53:0:0
     RDKit          3D

 96104  0  0  1  0  0  0  0  0999 V2000
  -29.9360  -20.0050   21.4000 C   0  0  0  0  0  2  0  0  0  0  0  0
  -29.1150  -21.2430   21.4020 N   0  0  0  0  0  4  0  0  0  0  0  0
  -28.5900  -21.2700   22.2620 H   0  0  0  0  0  0  0  0  0  0  0  0
  -28.4590  -21.2040   20.6400 H   0  0  0  0  0  0  0  0  0  0  0  0
  -29.9020  -22.5010   21.2870 C   0  0  0  0  0  2  0  0  0  0  0  0
  -29.0300  -23.7850   21.3250 C   0  0  0  0  0  2  0  0  0  0  0  0
  -29.8410  -25.1030   21.4010 C   0  0  0  0  0  2  0  0  0  0  0  0
  -28.9890  -26.3930   21.3940 C   0  0  0  0  0  2  0  0  0  0  0  0
  -28.3840  -26.5960   20.1180 O   0  0  0  0  0  0  0  0  0  0  0  0
  -24.5050  -31.7910   23.1150 C   0  0  0  0  0  0  0  0  0  0  0  0
  -27.2370  -27.3590   20.1230 C   0  0  0  0  0  0  0  0  0  0  0  0
  -23.3250  -30.3410   21.4920 C   0  0  0  0  0  3  0  0  0  0  0  0
  -24.8120  -28.8070   20.0950 C   0  0  0  0  0  0  0  0  0  0  0  0
  -25.8390  -30.7470   21.2890 C   0  0  0  0  0  2  0  0  0  0  0  0
  -25.9530  -29.3650   20.6830 C   0  0  0  0  0  0  0  0  0  0  0  0
  -27.1690  -28.6450   20.7060 C   0  0  0  0  0  3  0  0  0  0  0  0
  -26.0880  -26.8190   19.5160 C   0  0  0  0  0  3  0  0  0  0  0  0
  -24.8710  -27.5300   19.5100 C   0  0  0  0  0  3  0  0  0  0  0  0
  -23.5490  -29.6380   20.1250 C   0  0  0  0  0  2  0  0  0  0  0  0
  -24.5740  -30.9760   22.0250 N   0  0  0  0  0  0  0  0  0  0  0  0
  -23.4200  -32.0550   23.6510 O   0  0  0  0  0  0  0  0  0  0  0  0
  -22.6930  -29.3250   22.4700 C   0  0  0  0  0  0  0  0  0  0  0  0
  -21.3740  -29.1090   22.3370 N   0  0  0  0  0  0  0  0  0  0  0  0
  -23.3840  -28.7330   23.3020 O   0  0  0  0  0  0  0  0  0  0  0  0
  -20.8770  -29.6370   21.6340 H   0  0  0  0  0  0  0  0  0  0  0  0
  -18.0240  -27.8560   22.8420 C   0  0  0  0  0  0  0  0  0  0  0  0
  -20.5740  -28.1680   23.1220 C   0  0  0  0  0  3  0  0  0  0  0  0
  -20.7090  -26.7300   22.5700 C   0  0  0  0  0  2  0  0  0  0  0  0
  -19.6190  -26.3680   21.5570 C   0  0  0  0  0  2  0  0  0  0  0  0
  -18.2320  -26.4990   22.1900 C   0  0  0  0  0  2  0  0  0  0  0  0
  -19.1250  -28.6460   23.2640 C   0  0  0  0  0  0  0  0  0  0  0  0
  -18.8790  -29.9170   23.8280 C   0  0  0  0  0  3  0  0  0  0  0  0
  -17.5640  -30.3980   23.9770 C   0  0  0  0  0  3  0  0  0  0  0  0
  -16.4770  -29.6030   23.5720 C   0  0  0  0  0  3  0  0  0  0  0  0
  -16.7080  -28.3360   23.0100 C   0  0  0  0  0  3  0  0  0  0  0  0
  -25.7820  -32.4510   23.7220 C   0  0  0  0  0  3  0  0  0  0  0  0
  -25.4540  -33.8490   24.0330 N   0  0  0  0  0  0  0  0  0  0  0  0
  -25.7830  -34.8950   23.2640 C   0  0  0  0  0  0  0  0  0  0  0  0
  -26.4680  -34.7890   22.2440 O   0  0  0  0  0  0  0  0  0  0  0  0
  -24.8480  -34.0040   24.8250 H   0  0  0  0  0  0  0  0  0  0  0  0
  -24.0470  -36.6640   22.8460 C   0  0  0  0  0  1  0  0  0  0  0  0
  -25.2690  -36.2830   23.6970 C   0  0  0  0  0  3  0  0  0  0  0  0
  -27.3760  -37.1920   24.5720 C   0  0  0  0  0  1  0  0  0  0  0  0
  -26.2930  -37.3450   23.6030 N   0  0  0  0  0  0  0  0  0  0  0  0
  -25.8740  -38.2620   23.7390 H   0  0  0  0  0  0  0  0  0  0  0  0
  -26.3200  -31.7060   25.0050 C   0  0  1  0  0  0  0  0  0  0  0  0
  -25.2310  -31.4510   26.0730 C   0  0  0  0  0  1  0  0  0  0  0  0
  -26.9400  -30.3400   24.6230 C   0  0  0  0  0  1  0  0  0  0  0  0
  -27.4470  -32.5370   25.6610 C   0  0  0  0  0  1  0  0  0  0  0  0
  -29.1210  -18.7120   21.1110 C   0  0  0  0  0  2  0  0  0  0  0  0
  -30.2600  -14.3670   19.3890 C   0  0  0  0  0  0  0  0  0  0  0  0
  -29.6330  -12.4270   17.9860 C   0  0  0  0  0  2  0  0  0  0  0  0
  -28.4800  -12.7490   17.0160 C   0  0  0  0  0  2  0  0  0  0  0  0
  -27.1140  -12.5650   17.7050 C   0  0  0  0  0  2  0  0  0  0  0  0
  -27.0400  -13.2960   19.0700 C   0  0  0  0  0  3  0  0  0  0  0  0
  -28.2650  -12.9320   19.9360 C   0  0  0  0  0  2  0  0  0  0  0  0
  -29.4860  -13.2710   19.1800 N   0  0  0  0  0  0  0  0  0  0  0  0
  -31.1550  -14.7330   18.6170 O   0  0  0  0  0  0  0  0  0  0  0  0
  -30.7760  -17.1640   22.3440 C   0  0  0  0  0  2  0  0  0  0  0  0
  -29.1690  -16.1540   20.7090 C   0  0  0  0  0  2  0  0  0  0  0  0
  -30.8720  -14.6780   21.7500 C   0  0  0  0  0  2  0  0  0  0  0  0
  -29.9880  -17.4240   21.0400 C   0  0  0  0  0  3  0  0  0  0  0  0
  -31.6700  -15.9050   22.2520 C   0  0  0  0  0  3  0  0  0  0  0  0
  -30.0550  -14.9860   20.5700 N   0  0  0  0  0  0  0  0  0  0  0  0
  -24.7940  -13.8830   20.1860 C   0  0  0  0  0  0  0  0  0  0  0  0
  -23.8100  -13.0980   20.7260 C   0  0  0  0  0  0  0  0  0  0  0  0
  -24.2660  -11.7520   20.6000 C   0  0  0  0  0  0  0  0  0  0  0  0
  -25.7870  -13.0120   19.7690 N   0  0  0  0  0  0  0  0  0  0  0  0
  -25.4830  -11.7240   20.0700 N   0  0  0  0  0  0  0  0  0  0  0  0
  -23.5950  -10.4810   20.9000 C   0  0  0  0  0  0  0  0  0  0  0  0
  -24.1420   -9.5540   21.8140 C   0  0  0  0  0  3  0  0  0  0  0  0
  -23.4710   -8.3450   22.0970 C   0  0  0  0  0  3  0  0  0  0  0  0
  -22.2370   -8.0560   21.4680 C   0  0  0  0  0  0  0  0  0  0  0  0
  -21.7080   -8.9720   20.5420 C   0  0  0  0  0  3  0  0  0  0  0  0
  -22.3810  -10.1710   20.2560 C   0  0  0  0  0  3  0  0  0  0  0  0
  -21.5250   -6.8970   21.6620 O   0  0  0  0  0  0  0  0  0  0  0  0
  -21.5710   -6.2160   22.8520 C   0  0  0  0  0  0  0  0  0  0  0  0
  -21.2230   -6.8300   24.0760 C   0  0  0  0  0  3  0  0  0  0  0  0
  -21.2160   -6.0720   25.2660 C   0  0  0  0  0  3  0  0  0  0  0  0
  -21.5460   -4.7050   25.2320 C   0  0  0  0  0  0  0  0  0  0  0  0
  -21.8860   -4.0910   24.0130 C   0  0  0  0  0  3  0  0  0  0  0  0
  -21.8960   -4.8450   22.8270 C   0  0  0  0  0  0  0  0  0  0  0  0
  -22.2050   -4.2430   21.6520 F   0  0  0  0  0  0  0  0  0  0  0  0
  -21.5310   -3.9760   26.3720 F   0  0  0  0  0  0  0  0  0  0  0  0
  -22.4780  -13.5620   21.2430 C   0  0  0  0  0  0  0  0  0  0  0  0
  -21.9410  -12.8800   22.2500 N   0  0  0  0  0  0  0  0  0  0  0  0
  -21.9280  -14.5630   20.7880 O   0  0  0  0  0  0  0  0  0  0  0  0
  -22.4030  -12.0730   22.6400 H   0  0  0  0  0  0  0  0  0  0  0  0
  -21.0560  -13.1750   22.6380 H   0  0  0  0  0  0  0  0  0  0  0  0
  -24.9170  -15.2550   19.9980 N   0  0  0  0  0  0  0  0  0  0  0  0
  -24.1750  -15.9030   20.2420 H   0  0  0  0  0  0  0  0  0  0  0  0
  -25.7000  -15.7060   19.5420 H   0  0  0  0  0  0  0  0  0  0  0  0
  -32.8710  -16.1590   21.4330 N   0  0  0  0  0  4  0  0  0  0  0  0
  -32.6400  -16.3380   20.4720 H   0  0  0  0  0  0  0  0  0  0  0  0
  -33.4900  -15.3680   21.4690 H   0  0  0  0  0  0  0  0  0  0  0  0
  -33.3770  -16.9470   21.7970 H   0  0  0  0  0  0  0  0  0  0  0  0
  1  2  1  0
  2  3  1  0
  4  2  1  0
  5  6  1  0
  5  2  1  0
  6  7  1  0
  8  7  1  0
  9 11  1  0
  9  8  1  0
 10 21  2  0
 11 16  1  0
 12 20  1  0
 12 22  1  0
 13 19  1  0
 13 15  1  0
 14 20  1  0
 15 16  2  0
 15 14  1  0
 17 11  2  0
 18 17  1  0
 18 13  2  0
 19 12  1  0
 20 10  1  0
 22 24  2  0
 23 22  1  0
 25 23  1  0
 26 35  2  0
 26 31  1  0
 27 23  1  0
 27 31  1  0
 28 27  1  0
 29 30  1  0
 29 28  1  0
 30 26  1  0
 31 32  2  0
 32 33  1  0
 34 33  2  0
 35 34  1  0
 36 10  1  0
 36 37  1  0
 36 46  1  0
 37 40  1  0
 38 42  1  0
 38 37  1  0
 39 38  2  0
 42 41  1  0
 44 42  1  0
 44 45  1  0
 44 43  1  0
 46 49  1  1
 46 47  1  0
 48 46  1  0
 50  1  1  0
 51 64  1  0
 52 57  1  0
 53 54  1  0
 53 52  1  0
 55 54  1  0
 55 68  1  0
 55 56  1  0
 57 51  1  0
 57 56  1  0
 58 51  2  0
 60 62  1  0
 61 63  1  0
 62 50  1  0
 62 59  1  0
 63 93  1  0
 63 59  1  0
 64 60  1  0
 64 61  1  0
 65 66  2  0
 66 85  1  0
 67 66  1  0
 67 70  1  0
 68 69  1  0
 68 65  1  0
 69 67  2  0
 70 71  1  0
 71 72  2  0
 73 76  1  0
 73 72  1  0
 74 73  2  0
 75 74  1  0
 75 70  2  0
 76 77  1  0
 77 78  1  0
 78 79  2  0
 80 79  1  0
 80 84  1  0
 81 80  2  0
 82 77  2  0
 82 81  1  0
 83 82  1  0
 85 86  1  0
 86 89  1  0
 86 88  1  0
 87 85  2  0
 90 65  1  0
 90 91  1  0
 92 90  1  0
 93 95  1  0
 93 96  1  0
 94 93  1  0
M  ISO  4   8 101   9 101  51 100  64 100
M  END
>  <TORSDO>  (54) 
F 23

>  <SCORE>  (54) 
-7.778

>  <name>  (54) 
53

>  <ligand_id>  (54) 
53

>  <original_smiles>  (54) 
[H]c1c([H])c([H])c2c(c1[H])C([H])([H])C([H])([H])C([H])([H])C2([H])N([H])C(=O)C1([H])N(C(=O)C([H])(N([H])C(=O)C([H])(N([H])C([H])([H])[H])C([H])([H])[H])C(C([H])([H])[H])(C([H])([H])[H])C([H])([H])[H])C([H])([H])c2c([H])c(OC([H])([H])C([H])([H])C([H])([H])C([H])([H])[N+]([H])([H])C([H])([H])C([H])([H])C3([H])C([H])([H])N(C(=O)N4C([H])([H])C([H])([H])C([H])([H])C([H])(n5nc(-c6c([H])c([H])c(Oc7c([H])c([H])c(F)c([H])c7F)c([H])c6[H])c(C(=O)N([H])[H])c5N([H])[H])C4([H])[H])C([H])([H])C([H])([N+]([H])([H])[H])C3([H])[H])c([H])c([H])c2C1([H])[H]

>  <smiles>  (54) 
[H]c1c([H])c([H])c2c(c1[H])C([H])([H])C([H])([H])C([H])([H])C2([H])N([H])C(=O)C1([H])N(C(=O)C([H])(N([H])C(=O)C([H])(N([H])C([H])([H])[H])C([H])([H])[H])C(C([H])([H])[H])(C([H])([H])[H])C([H])([H])[H])C([H])([H])c2c([H])c(OC([H])([H])C([H])([H])C([H])([H])C([H])([H])[N+]([H])([H])C([H])([H])C([H])([H])C3([H])C([H])([H])N(C(=O)N4C([H])([H])C([H])([H])C([H])([H])C([H])(n5nc(-c6c([H])c([H])c(Oc7c([H])c([H])c(F)c([H])c7F)c([H])c6[H])c(C(=O)N([H])[H])c5N([H])[H])C4([H])[H])C([H])([H])C([H])([N+]([H])([H])[H])C3([H])[H])c([H])c([H])c2C1([H])[H]

$$$$
54:0:0
     RDKit          3D

 92100  0  0  1  0  0  0  0  0999 V2000
  -30.4360  -19.2930   21.5760 C   0  0  0  0  0  0  0  0  0  0  0  0
  -29.4440  -19.8660   20.5650 C   0  0  0  0  0  0  0  0  0  0  0  0
  -30.5580  -17.7680   21.7650 C   0  0  0  0  0  2  0  0  0  0  0  0
  -28.6200  -18.8500   19.7510 C   0  0  0  0  0  2  0  0  0  0  0  0
  -28.5820  -17.4100   20.2830 C   0  0  0  0  0  2  0  0  0  0  0  0
  -29.9820  -16.9010   20.6290 C   0  0  0  0  0  3  0  0  0  0  0  0
  -31.1560  -20.0740   22.2680 N   0  0  0  0  0  2  0  0  0  0  0  0
  -29.3430  -21.1450   20.4220 N   0  0  0  0  0  2  0  0  0  0  0  0
  -30.9150  -21.0220   21.9890 H   0  0  0  0  0  0  0  0  0  0  0  0
  -30.6590  -14.4790   20.4850 C   0  0  0  0  0  0  0  0  0  0  0  0
  -30.3840  -12.3290   19.3180 C   0  0  0  0  0  2  0  0  0  0  0  0
  -29.4410  -12.5620   18.1180 C   0  0  0  0  0  2  0  0  0  0  0  0
  -27.9650  -12.4260   18.5410 C   0  0  0  0  0  2  0  0  0  0  0  0
  -27.6310  -13.2440   19.8170 C   0  0  0  0  0  3  0  0  0  0  0  0
  -28.6810  -12.9830   20.9230 C   0  0  0  0  0  2  0  0  0  0  0  0
  -30.0130  -13.2880   20.3690 N   0  0  0  0  0  0  0  0  0  0  0  0
  -31.7720  -14.6990   19.9970 O   0  0  0  0  0  0  0  0  0  0  0  0
  -29.8980  -15.4730   20.9780 N   0  0  0  0  0  0  0  0  0  0  0  0
  -29.0310  -15.1660   21.3950 H   0  0  0  0  0  0  0  0  0  0  0  0
  -25.2270  -13.8630   20.5050 C   0  0  0  0  0  0  0  0  0  0  0  0
  -24.1560  -13.0940   20.8740 C   0  0  0  0  0  0  0  0  0  0  0  0
  -24.6160  -11.7420   20.8530 C   0  0  0  0  0  0  0  0  0  0  0  0
  -26.2730  -12.9790   20.2870 N   0  0  0  0  0  0  0  0  0  0  0  0
  -25.9060  -11.6980   20.5510 N   0  0  0  0  0  0  0  0  0  0  0  0
  -23.8880  -10.4820   21.0490 C   0  0  0  0  0  0  0  0  0  0  0  0
  -24.3250   -9.5130   21.9780 C   0  0  0  0  0  3  0  0  0  0  0  0
  -23.6000   -8.3160   22.1600 C   0  0  0  0  0  3  0  0  0  0  0  0
  -22.4220   -8.0800   21.4130 C   0  0  0  0  0  0  0  0  0  0  0  0
  -22.0030   -9.0380   20.4720 C   0  0  0  0  0  3  0  0  0  0  0  0
  -22.7290  -10.2260   20.2880 C   0  0  0  0  0  3  0  0  0  0  0  0
  -21.6660   -6.9350   21.5050 O   0  0  0  0  0  0  0  0  0  0  0  0
  -21.6340   -6.1850   22.6530 C   0  0  0  0  0  0  0  0  0  0  0  0
  -21.2390   -6.7350   23.8920 C   0  0  0  0  0  3  0  0  0  0  0  0
  -21.1530   -5.9100   25.0310 C   0  0  0  0  0  3  0  0  0  0  0  0
  -21.4530   -4.5380   24.9340 C   0  0  0  0  0  0  0  0  0  0  0  0
  -21.8410   -3.9880   23.7000 C   0  0  0  0  0  3  0  0  0  0  0  0
  -21.9280   -4.8090   22.5610 C   0  0  0  0  0  0  0  0  0  0  0  0
  -22.2830   -4.2710   21.3700 F   0  0  0  0  0  0  0  0  0  0  0  0
  -21.3630   -3.7450   26.0270 F   0  0  0  0  0  0  0  0  0  0  0  0
  -22.7570  -13.5740   21.1380 C   0  0  0  0  0  0  0  0  0  0  0  0
  -22.0240  -12.8830   22.0040 N   0  0  0  0  0  0  0  0  0  0  0  0
  -22.3220  -14.5970   20.6100 O   0  0  0  0  0  0  0  0  0  0  0  0
  -22.3880  -12.0560   22.4540 H   0  0  0  0  0  0  0  0  0  0  0  0
  -21.0860  -13.1870   22.2220 H   0  0  0  0  0  0  0  0  0  0  0  0
  -25.3920  -15.2320   20.3190 N   0  0  0  0  0  0  0  0  0  0  0  0
  -24.6200  -15.8820   20.4110 H   0  0  0  0  0  0  0  0  0  0  0  0
  -26.2380  -15.6660   19.9750 H   0  0  0  0  0  0  0  0  0  0  0  0
  -28.4080  -21.7200   19.4570 C   0  0  0  0  0  2  0  0  0  0  0  0
  -28.8180  -23.1450   19.0200 C   0  0  0  0  0  2  0  0  0  0  0  0
  -28.3980  -24.3060   19.9520 C   0  0  0  0  0  2  0  0  0  0  0  0
  -28.6900  -25.6820   19.3070 C   0  0  0  0  0  2  0  0  0  0  0  0
  -28.4590  -26.7940   20.1780 O   0  0  0  0  0  0  0  0  0  0  0  0
  -24.5850  -31.9040   23.2380 C   0  0  0  0  0  0  0  0  0  0  0  0
  -27.2530  -27.4660   20.1590 C   0  0  0  0  0  0  0  0  0  0  0  0
  -23.3840  -30.4950   21.5970 C   0  0  0  0  0  3  0  0  0  0  0  0
  -24.8420  -28.9560   20.1780 C   0  0  0  0  0  0  0  0  0  0  0  0
  -25.9070  -30.8590   21.4020 C   0  0  0  0  0  2  0  0  0  0  0  0
  -25.9950  -29.4850   20.7680 C   0  0  0  0  0  0  0  0  0  0  0  0
  -27.1970  -28.7440   20.7630 C   0  0  0  0  0  3  0  0  0  0  0  0
  -26.0760  -26.9420   19.5760 C   0  0  0  0  0  3  0  0  0  0  0  0
  -24.8760  -27.6810   19.5850 C   0  0  0  0  0  3  0  0  0  0  0  0
  -23.5960  -29.8110   20.2200 C   0  0  0  0  0  2  0  0  0  0  0  0
  -24.6430  -31.1010   22.1370 N   0  0  0  0  0  0  0  0  0  0  0  0
  -23.5030  -32.1740   23.7770 O   0  0  0  0  0  0  0  0  0  0  0  0
  -22.7340  -29.4750   22.5590 C   0  0  0  0  0  0  0  0  0  0  0  0
  -21.4110  -29.2870   22.4280 N   0  0  0  0  0  0  0  0  0  0  0  0
  -23.4180  -28.8540   23.3770 O   0  0  0  0  0  0  0  0  0  0  0  0
  -20.9220  -29.8400   21.7380 H   0  0  0  0  0  0  0  0  0  0  0  0
  -18.0410  -28.0810   22.9100 C   0  0  0  0  0  0  0  0  0  0  0  0
  -20.5950  -28.3500   23.1970 C   0  0  0  0  0  3  0  0  0  0  0  0
  -20.7070  -26.9170   22.6270 C   0  0  0  0  0  2  0  0  0  0  0  0
  -19.6130  -26.5860   21.6070 C   0  0  0  0  0  2  0  0  0  0  0  0
  -18.2270  -26.7300   22.2410 C   0  0  0  0  0  2  0  0  0  0  0  0
  -19.1530  -28.8490   23.3450 C   0  0  0  0  0  0  0  0  0  0  0  0
  -18.9260  -30.1140   23.9280 C   0  0  0  0  0  3  0  0  0  0  0  0
  -17.6190  -30.6120   24.0820 C   0  0  0  0  0  3  0  0  0  0  0  0
  -16.5200  -29.8410   23.6640 C   0  0  0  0  0  3  0  0  0  0  0  0
  -16.7320  -28.5770   23.0840 C   0  0  0  0  0  3  0  0  0  0  0  0
  -25.8700  -32.5370   23.8590 C   0  0  0  0  0  3  0  0  0  0  0  0
  -26.3910  -31.7670   25.1340 C   0  0  1  0  0  0  0  0  0  0  0  0
  -25.3000  -31.5270   26.2030 C   0  0  0  0  0  1  0  0  0  0  0  0
  -26.9760  -30.3910   24.7380 C   0  0  0  0  0  1  0  0  0  0  0  0
  -27.5410  -32.5630   25.7950 C   0  0  0  0  0  1  0  0  0  0  0  0
  -25.5600  -33.9350   24.1870 N   0  0  0  0  0  0  0  0  0  0  0  0
  -25.8940  -34.9870   23.4280 C   0  0  0  0  0  0  0  0  0  0  0  0
  -26.5670  -34.8830   22.3980 O   0  0  0  0  0  0  0  0  0  0  0  0
  -24.9640  -34.0890   24.9870 H   0  0  0  0  0  0  0  0  0  0  0  0
  -24.1640  -36.7740   23.0630 C   0  0  0  0  0  1  0  0  0  0  0  0
  -25.4020  -36.3740   23.8820 C   0  0  0  0  0  3  0  0  0  0  0  0
  -27.5330  -37.2600   24.7210 C   0  0  0  0  0  1  0  0  0  0  0  0
  -26.4340  -37.4290   23.7740 N   0  0  0  0  0  0  0  0  0  0  0  0
  -26.0250  -38.3480   23.9230 H   0  0  0  0  0  0  0  0  0  0  0  0
  1  3  1  0
  1  7  1  0
  2  1  2  0
  4  5  1  0
  4  2  1  0
  5  6  1  0
  6 18  1  0
  6  3  1  0
  8  2  1  0
  9  7  1  0
 10 18  1  0
 11 16  1  0
 12 13  1  0
 12 11  1  0
 14 13  1  0
 14 23  1  0
 14 15  1  0
 16 10  1  0
 16 15  1  0
 17 10  2  0
 18 19  1  0
 20 21  2  0
 21 40  1  0
 22 21  1  0
 22 25  1  0
 23 20  1  0
 23 24  1  0
 24 22  2  0
 25 26  1  0
 26 27  2  0
 28 31  1  0
 28 27  1  0
 29 28  2  0
 30 29  1  0
 30 25  2  0
 31 32  1  0
 32 33  1  0
 33 34  2  0
 35 34  1  0
 35 39  1  0
 36 35  2  0
 37 32  2  0
 37 36  1  0
 38 37  1  0
 40 41  1  0
 41 44  1  0
 41 43  1  0
 42 40  2  0
 45 46  1  0
 45 20  1  0
 47 45  1  0
 48  8  1  0
 49 48  1  0
 49 50  1  0
 51 50  1  0
 51 52  1  0
 53 64  2  0
 54 52  1  0
 54 59  1  0
 55 63  1  0
 55 65  1  0
 56 62  1  0
 56 58  1  0
 57 63  1  0
 58 57  1  0
 59 58  2  0
 60 61  1  0
 60 54  2  0
 61 56  2  0
 62 55  1  0
 63 53  1  0
 65 67  2  0
 66 65  1  0
 68 66  1  0
 69 78  2  0
 69 74  1  0
 70 66  1  0
 70 74  1  0
 71 70  1  0
 72 73  1  0
 72 71  1  0
 73 69  1  0
 74 75  2  0
 75 76  1  0
 77 76  2  0
 78 77  1  0
 79 53  1  0
 79 84  1  0
 79 80  1  0
 80 83  1  1
 80 81  1  0
 82 80  1  0
 84 87  1  0
 85 89  1  0
 85 84  1  0
 86 85  2  0
 89 88  1  0
 91 89  1  0
 91 92  1  0
 91 90  1  0
M  ISO  4  10 100  18 100  51 101  52 101
M  END
>  <TORSDO>  (55) 
F 20

>  <SCORE>  (55) 
-14.081

>  <name>  (55) 
54

>  <ligand_id>  (55) 
54

>  <original_smiles>  (55) 
[H]N=C1C(=NC([H])([H])C([H])([H])C([H])([H])C([H])([H])Oc2c([H])c([H])c3c(c2[H])C([H])([H])N(C(=O)C([H])(N([H])C(=O)C([H])(N([H])C([H])([H])[H])C([H])([H])[H])C(C([H])([H])[H])(C([H])([H])[H])C([H])([H])[H])C([H])(C(=O)N([H])C2([H])c4c([H])c([H])c([H])c([H])c4C([H])([H])C([H])([H])C2([H])[H])C3([H])[H])C([H])([H])C([H])([H])C([H])(N([H])C(=O)N2C([H])([H])C([H])([H])C([H])([H])C([H])(n3nc(-c4c([H])c([H])c(Oc5c([H])c([H])c(F)c([H])c5F)c([H])c4[H])c(C(=O)N([H])[H])c3N([H])[H])C2([H])[H])C1([H])[H]

>  <smiles>  (55) 
[H]N=C1C(=NC([H])([H])C([H])([H])C([H])([H])C([H])([H])Oc2c([H])c([H])c3c(c2[H])C([H])([H])N(C(=O)C([H])(N([H])C(=O)C([H])(N([H])C([H])([H])[H])C([H])([H])[H])C(C([H])([H])[H])(C([H])([H])[H])C([H])([H])[H])C([H])(C(=O)N([H])C2([H])c4c([H])c([H])c([H])c([H])c4C([H])([H])C([H])([H])C2([H])[H])C3([H])[H])C([H])([H])C([H])([H])C([H])(N([H])C(=O)N2C([H])([H])C([H])([H])C([H])([H])C([H])(n3nc(-c4c([H])c([H])c(Oc5c([H])c([H])c(F)c([H])c5F)c([H])c4[H])c(C(=O)N([H])[H])c3N([H])[H])C2([H])[H])C1([H])[H]

$$$$
55:0:0
     RDKit          3D

 93101  0  0  1  0  0  0  0  0999 V2000
  -27.4180  -21.6560   20.8840 C   0  0  0  0  0  0  0  0  0  0  0  0
  -27.8260  -22.8880   21.1980 N   0  0  0  0  0  0  0  0  0  0  0  0
  -26.2470  -21.3970   20.5980 O   0  0  0  0  0  0  0  0  0  0  0  0
  -28.7910  -23.0220   21.4650 H   0  0  0  0  0  0  0  0  0  0  0  0
  -27.9980  -19.1540   20.5290 C   0  0  0  0  0  2  0  0  0  0  0  0
  -29.6630  -20.9320   19.9730 C   0  0  0  0  0  2  0  0  0  0  0  0
  -29.1320  -18.1050   20.6520 C   0  0  0  0  0  2  0  0  0  0  0  0
  -30.8240  -19.9590   20.1840 C   0  0  0  0  0  2  0  0  0  0  0  0
  -28.5020  -20.5650   20.9080 C   0  0  0  0  0  3  0  0  0  0  0  0
  -30.4250  -18.5000   19.8900 C   0  0  0  0  0  3  0  0  0  0  0  0
  -31.6250  -17.5740   20.2170 C   0  0  0  0  0  2  0  0  0  0  0  0
  -31.9190  -15.1250   19.8100 C   0  0  0  0  0  0  0  0  0  0  0  0
  -31.6120  -12.8120   19.0130 C   0  0  0  0  0  2  0  0  0  0  0  0
  -30.6740  -12.8250   17.7880 C   0  0  0  0  0  2  0  0  0  0  0  0
  -29.1920  -12.8000   18.2180 C   0  0  0  0  0  2  0  0  0  0  0  0
  -28.8760  -13.8500   19.3150 C   0  0  0  0  0  3  0  0  0  0  0  0
  -29.9100  -13.7580   20.4560 C   0  0  0  0  0  2  0  0  0  0  0  0
  -31.2450  -13.9480   19.8680 N   0  0  0  0  0  0  0  0  0  0  0  0
  -33.0070  -15.2530   19.2410 O   0  0  0  0  0  0  0  0  0  0  0  0
  -31.2510  -16.1680   20.3350 N   0  0  0  0  0  0  0  0  0  0  0  0
  -30.3740  -15.9630   20.7860 H   0  0  0  0  0  0  0  0  0  0  0  0
  -26.5700  -14.6860   20.0920 C   0  0  0  0  0  0  0  0  0  0  0  0
  -25.4400  -14.0140   20.4760 C   0  0  0  0  0  0  0  0  0  0  0  0
  -25.7640  -12.6230   20.4130 C   0  0  0  0  0  0  0  0  0  0  0  0
  -27.5130  -13.7080   19.8170 N   0  0  0  0  0  0  0  0  0  0  0  0
  -27.0320  -12.4620   20.0620 N   0  0  0  0  0  0  0  0  0  0  0  0
  -24.9250  -11.4330   20.6020 C   0  0  0  0  0  0  0  0  0  0  0  0
  -25.2270  -10.4670   21.5870 C   0  0  0  0  0  3  0  0  0  0  0  0
  -24.3960   -9.3410   21.7630 C   0  0  0  0  0  3  0  0  0  0  0  0
  -23.2490   -9.1740   20.9520 C   0  0  0  0  0  0  0  0  0  0  0  0
  -22.9620  -10.1280   19.9610 C   0  0  0  0  0  3  0  0  0  0  0  0
  -23.7940  -11.2460   19.7840 C   0  0  0  0  0  3  0  0  0  0  0  0
  -22.3950   -8.0990   21.0380 O   0  0  0  0  0  0  0  0  0  0  0  0
  -22.1450   -7.4700   22.2310 C   0  0  0  0  0  0  0  0  0  0  0  0
  -21.6240   -8.1620   23.3450 C   0  0  0  0  0  3  0  0  0  0  0  0
  -21.3200   -7.4620   24.5300 C   0  0  0  0  0  3  0  0  0  0  0  0
  -21.5240   -6.0700   24.5970 C   0  0  0  0  0  0  0  0  0  0  0  0
  -22.0400   -5.3790   23.4870 C   0  0  0  0  0  3  0  0  0  0  0  0
  -22.3460   -6.0760   22.3060 C   0  0  0  0  0  0  0  0  0  0  0  0
  -22.8240   -5.4010   21.2320 F   0  0  0  0  0  0  0  0  0  0  0  0
  -21.2230   -5.3980   25.7310 F   0  0  0  0  0  0  0  0  0  0  0  0
  -24.1060  -14.6210   20.8010 C   0  0  0  0  0  0  0  0  0  0  0  0
  -23.3510  -13.9940   21.6990 N   0  0  0  0  0  0  0  0  0  0  0  0
  -23.7420  -15.6780   20.2920 O   0  0  0  0  0  0  0  0  0  0  0  0
  -23.6610  -13.1360   22.1330 H   0  0  0  0  0  0  0  0  0  0  0  0
  -22.4530  -14.3800   21.9580 H   0  0  0  0  0  0  0  0  0  0  0  0
  -26.8670  -16.0340   19.9340 N   0  0  0  0  0  0  0  0  0  0  0  0
  -26.1840  -16.7640   20.0980 H   0  0  0  0  0  0  0  0  0  0  0  0
  -27.7530  -16.3870   19.6010 H   0  0  0  0  0  0  0  0  0  0  0  0
  -26.9650  -24.0600   21.2000 C   0  0  0  0  0  2  0  0  0  0  0  0
  -27.7770  -25.3530   21.3560 C   0  0  0  0  0  2  0  0  0  0  0  0
  -28.5880  -25.7710   20.0930 C   0  0  0  0  0  2  0  0  0  0  0  0
  -28.6910  -27.1920   19.9520 O   0  0  0  0  0  0  0  0  0  0  0  0
  -24.6840  -32.0130   23.2490 C   0  0  0  0  0  0  0  0  0  0  0  0
  -27.5020  -27.8820   19.9210 C   0  0  0  0  0  0  0  0  0  0  0  0
  -23.5220  -30.6590   21.5300 C   0  0  0  0  0  3  0  0  0  0  0  0
  -25.0450  -29.2740   20.0130 C   0  0  0  0  0  0  0  0  0  0  0  0
  -26.0310  -31.1340   21.3510 C   0  0  0  0  0  2  0  0  0  0  0  0
  -26.1760  -29.8080   20.6400 C   0  0  0  0  0  0  0  0  0  0  0  0
  -27.4060  -29.1170   20.6000 C   0  0  0  0  0  3  0  0  0  0  0  0
  -26.3580  -27.3720   19.2610 C   0  0  0  0  0  3  0  0  0  0  0  0
  -25.1280  -28.0560   19.3210 C   0  0  0  0  0  3  0  0  0  0  0  0
  -23.7560  -30.0600   20.1160 C   0  0  0  0  0  2  0  0  0  0  0  0
  -24.7640  -31.2780   22.1010 N   0  0  0  0  0  0  0  0  0  0  0  0
  -23.5950  -32.2100   23.8080 O   0  0  0  0  0  0  0  0  0  0  0  0
  -22.9210  -29.5590   22.4370 C   0  0  0  0  0  0  0  0  0  0  0  0
  -21.6110  -29.3100   22.2810 N   0  0  0  0  0  0  0  0  0  0  0  0
  -23.6310  -28.9330   23.2300 O   0  0  0  0  0  0  0  0  0  0  0  0
  -21.1000  -29.8360   21.5860 H   0  0  0  0  0  0  0  0  0  0  0  0
  -18.2970  -27.9770   22.6910 C   0  0  0  0  0  0  0  0  0  0  0  0
  -20.8370  -28.3110   23.0140 C   0  0  0  0  0  3  0  0  0  0  0  0
  -20.9950  -26.9080   22.3910 C   0  0  0  0  0  2  0  0  0  0  0  0
  -19.9340  -26.6170   21.3220 C   0  0  0  0  0  2  0  0  0  0  0  0
  -18.5270  -26.6890   21.9180 C   0  0  0  0  0  2  0  0  0  0  0  0
  -19.3820  -28.7490   23.1850 C   0  0  0  0  0  0  0  0  0  0  0  0
  -19.1140  -29.9630   23.8490 C   0  0  0  0  0  3  0  0  0  0  0  0
  -17.7910  -30.3990   24.0430 C   0  0  0  0  0  3  0  0  0  0  0  0
  -16.7190  -29.6290   23.5620 C   0  0  0  0  0  3  0  0  0  0  0  0
  -16.9710  -28.4200   22.8900 C   0  0  0  0  0  3  0  0  0  0  0  0
  -25.9510  -32.6600   23.8980 C   0  0  0  0  0  3  0  0  0  0  0  0
  -25.6150  -34.0500   24.2290 N   0  0  0  0  0  0  0  0  0  0  0  0
  -25.9640  -35.1140   23.4920 C   0  0  0  0  0  0  0  0  0  0  0  0
  -26.6740  -35.0260   22.4840 O   0  0  0  0  0  0  0  0  0  0  0  0
  -24.9890  -34.1920   25.0090 H   0  0  0  0  0  0  0  0  0  0  0  0
  -24.2290  -36.8900   23.0890 C   0  0  0  0  0  1  0  0  0  0  0  0
  -25.4430  -36.4900   23.9410 C   0  0  0  0  0  3  0  0  0  0  0  0
  -27.5310  -37.3920   24.8650 C   0  0  0  0  0  1  0  0  0  0  0  0
  -26.4650  -37.5570   23.8810 N   0  0  0  0  0  0  0  0  0  0  0  0
  -26.0400  -38.4690   24.0220 H   0  0  0  0  0  0  0  0  0  0  0  0
  -26.4580  -31.8850   25.1770 C   0  0  1  0  0  0  0  0  0  0  0  0
  -25.3450  -31.6080   26.2150 C   0  0  0  0  0  1  0  0  0  0  0  0
  -27.0850  -30.5290   24.7750 C   0  0  0  0  0  1  0  0  0  0  0  0
  -27.5690  -32.6980   25.8820 C   0  0  0  0  0  1  0  0  0  0  0  0
  1  2  1  0
  2 50  1  0
  2  4  1  0
  3  1  2  0
  5  7  1  0
  5  9  1  0
  6  8  1  0
  6  9  1  0
  9  1  1  0
 10  8  1  0
 10 11  1  0
 10  7  1  0
 11 20  1  0
 12 18  1  0
 12 20  1  0
 13 18  1  0
 14 15  1  0
 14 13  1  0
 16 15  1  0
 16 25  1  0
 16 17  1  0
 18 17  1  0
 19 12  2  0
 20 21  1  0
 22 23  2  0
 23 42  1  0
 24 23  1  0
 24 27  1  0
 25 26  1  0
 25 22  1  0
 26 24  2  0
 27 28  1  0
 28 29  2  0
 30 33  1  0
 30 29  1  0
 31 30  2  0
 32 31  1  0
 32 27  2  0
 33 34  1  0
 34 39  2  0
 34 35  1  0
 35 36  2  0
 36 37  1  0
 37 41  1  0
 38 37  2  0
 39 38  1  0
 40 39  1  0
 42 43  1  0
 43 46  1  0
 43 45  1  0
 44 42  2  0
 47 22  1  0
 47 48  1  0
 49 47  1  0
 50 51  1  0
 52 51  1  0
 53 52  1  0
 54 65  2  0
 55 53  1  0
 55 60  1  0
 56 64  1  0
 56 66  1  0
 57 63  1  0
 57 59  1  0
 58 64  1  0
 59 58  1  0
 60 59  2  0
 61 62  1  0
 61 55  2  0
 62 57  2  0
 63 56  1  0
 64 54  1  0
 66 68  2  0
 67 66  1  0
 69 67  1  0
 70 79  2  0
 70 75  1  0
 71 67  1  0
 71 75  1  0
 72 71  1  0
 73 74  1  0
 73 72  1  0
 74 70  1  0
 75 76  2  0
 76 77  1  0
 78 77  2  0
 79 78  1  0
 80 54  1  0
 80 81  1  0
 80 90  1  0
 81 84  1  0
 82 86  1  0
 82 81  1  0
 83 82  2  0
 86 85  1  0
 88 86  1  0
 88 89  1  0
 88 87  1  0
 90 93  1  1
 90 91  1  0
 92 90  1  0
M  ISO  4  12 100  20 100  52 101  53 101
M  END
>  <TORSDO>  (56) 
F 21

>  <SCORE>  (56) 
-9.856

>  <name>  (56) 
55

>  <ligand_id>  (56) 
55

>  <original_smiles>  (56) 
[H]c1c([H])c([H])c2c(c1[H])C([H])([H])C([H])([H])C([H])([H])C2([H])N([H])C(=O)C1([H])N(C(=O)C([H])(N([H])C(=O)C([H])(N([H])C([H])([H])[H])C([H])([H])[H])C(C([H])([H])[H])(C([H])([H])[H])C([H])([H])[H])C([H])([H])c2c([H])c(OC([H])([H])C([H])([H])C([H])([H])N([H])C(=O)C3([H])C([H])([H])C([H])([H])C([H])(C([H])([H])N([H])C(=O)N4C([H])([H])C([H])([H])C([H])([H])C([H])(n5nc(-c6c([H])c([H])c(Oc7c([H])c([H])c(F)c([H])c7F)c([H])c6[H])c(C(=O)N([H])[H])c5N([H])[H])C4([H])[H])C([H])([H])C3([H])[H])c([H])c([H])c2C1([H])[H]

>  <smiles>  (56) 
[H]c1c([H])c([H])c2c(c1[H])C([H])([H])C([H])([H])C([H])([H])C2([H])N([H])C(=O)C1([H])N(C(=O)C([H])(N([H])C(=O)C([H])(N([H])C([H])([H])[H])C([H])([H])[H])C(C([H])([H])[H])(C([H])([H])[H])C([H])([H])[H])C([H])([H])c2c([H])c(OC([H])([H])C([H])([H])C([H])([H])N([H])C(=O)C3([H])C([H])([H])C([H])([H])C([H])(C([H])([H])N([H])C(=O)N4C([H])([H])C([H])([H])C([H])([H])C([H])(n5nc(-c6c([H])c([H])c(Oc7c([H])c([H])c(F)c([H])c7F)c([H])c6[H])c(C(=O)N([H])[H])c5N([H])[H])C4([H])[H])C([H])([H])C3([H])[H])c([H])c([H])c2C1([H])[H]

$$$$
56:0:0
     RDKit          3D

 93101  0  0  1  0  0  0  0  0999 V2000
  -29.1810  -20.2530   20.1880 C   0  0  0  0  0  2  0  0  0  0  0  0
  -31.3970  -18.9920   20.0270 C   0  0  0  0  0  2  0  0  0  0  0  0
  -29.4500  -17.7980   20.6310 C   0  0  0  0  0  2  0  0  0  0  0  0
  -31.7430  -17.4740   20.0440 C   0  0  0  0  0  3  0  0  0  0  0  0
  -30.6130  -16.8250   20.8770 C   0  0  0  0  0  3  0  0  0  0  0  0
  -30.0680  -19.1460   20.6710 N   0  0  2  0  0  4  0  0  0  0  0  0
  -30.2540  -19.3180   21.6480 H   0  0  0  0  0  0  0  0  0  0  0  0
  -30.8210  -14.4180   19.9450 C   0  0  0  0  0  0  0  0  0  0  0  0
  -30.3770  -12.2700   18.8120 C   0  0  0  0  0  2  0  0  0  0  0  0
  -29.3930  -12.5000   17.6470 C   0  0  0  0  0  2  0  0  0  0  0  0
  -27.9320  -12.4260   18.1370 C   0  0  0  0  0  2  0  0  0  0  0  0
  -27.6790  -13.2860   19.4030 C   0  0  0  0  0  3  0  0  0  0  0  0
  -28.7710  -13.0270   20.4690 C   0  0  0  0  0  2  0  0  0  0  0  0
  -30.0880  -13.2750   19.8490 N   0  0  0  0  0  0  0  0  0  0  0  0
  -31.8910  -14.5670   19.3540 O   0  0  0  0  0  0  0  0  0  0  0  0
  -30.2420  -15.4070   20.6530 N   0  0  0  0  0  0  0  0  0  0  0  0
  -29.3790  -15.1220   21.0910 H   0  0  0  0  0  0  0  0  0  0  0  0
  -25.3370  -13.9910   20.2140 C   0  0  0  0  0  0  0  0  0  0  0  0
  -24.2570  -13.2610   20.6330 C   0  0  0  0  0  0  0  0  0  0  0  0
  -24.6630  -11.8900   20.5870 C   0  0  0  0  0  0  0  0  0  0  0  0
  -26.3360  -13.0690   19.9390 N   0  0  0  0  0  0  0  0  0  0  0  0
  -25.9370  -11.8020   20.2210 N   0  0  0  0  0  0  0  0  0  0  0  0
  -23.8990  -10.6570   20.8130 C   0  0  0  0  0  0  0  0  0  0  0  0
  -24.2980   -9.7090   21.7820 C   0  0  0  0  0  3  0  0  0  0  0  0
  -23.5330   -8.5420   21.9970 C   0  0  0  0  0  3  0  0  0  0  0  0
  -22.3570   -8.3140   21.2430 C   0  0  0  0  0  0  0  0  0  0  0  0
  -21.9770   -9.2510   20.2670 C   0  0  0  0  0  3  0  0  0  0  0  0
  -22.7410  -10.4100   20.0510 C   0  0  0  0  0  3  0  0  0  0  0  0
  -21.5710   -7.1930   21.3620 O   0  0  0  0  0  0  0  0  0  0  0  0
  -21.4530   -6.5210   22.5520 C   0  0  0  0  0  0  0  0  0  0  0  0
  -20.9930   -7.1570   23.7260 C   0  0  0  0  0  3  0  0  0  0  0  0
  -20.8200   -6.4120   24.9090 C   0  0  0  0  0  3  0  0  0  0  0  0
  -21.0970   -5.0320   24.9200 C   0  0  0  0  0  0  0  0  0  0  0  0
  -21.5520   -4.3970   23.7520 C   0  0  0  0  0  3  0  0  0  0  0  0
  -21.7260   -5.1390   22.5700 C   0  0  0  0  0  0  0  0  0  0  0  0
  -22.1420   -4.5160   21.4400 F   0  0  0  0  0  0  0  0  0  0  0  0
  -20.9240   -4.3130   26.0540 F   0  0  0  0  0  0  0  0  0  0  0  0
  -22.8930  -13.7930   20.9650 C   0  0  0  0  0  0  0  0  0  0  0  0
  -22.1880  -13.1450   21.8830 N   0  0  0  0  0  0  0  0  0  0  0  0
  -22.4630  -14.8200   20.4400 O   0  0  0  0  0  0  0  0  0  0  0  0
  -22.5490  -12.3170   22.3320 H   0  0  0  0  0  0  0  0  0  0  0  0
  -21.2730  -13.4860   22.1450 H   0  0  0  0  0  0  0  0  0  0  0  0
  -25.5480  -15.3530   20.0240 N   0  0  0  0  0  0  0  0  0  0  0  0
  -24.8070  -16.0340   20.1580 H   0  0  0  0  0  0  0  0  0  0  0  0
  -26.3810  -15.7540   19.6110 H   0  0  0  0  0  0  0  0  0  0  0  0
  -34.2930  -17.5380   19.6430 C   0  0  0  0  0  1  0  0  0  0  0  0
  -33.1500  -17.1370   20.5870 C   0  0  0  0  0  2  0  0  0  0  0  0
  -29.7000  -21.7100   20.4130 C   0  0  0  0  0  2  0  0  0  0  0  0
  -28.6040  -22.7960   20.1600 C   0  0  0  0  0  2  0  0  0  0  0  0
  -29.0600  -24.2770   20.1020 C   0  0  0  0  0  0  0  0  0  0  0  0
  -30.1650  -24.5870   19.6460 O   0  0  0  0  0  0  0  0  0  0  0  0
  -28.0640  -25.3400   20.6310 C   0  0  0  0  0  2  0  0  0  0  0  0
  -28.2340  -26.6630   20.0600 O   0  0  0  0  0  0  0  0  0  0  0  0
  -24.5130  -31.9060   23.1970 C   0  0  0  0  0  0  0  0  0  0  0  0
  -27.0840  -27.4350   20.0750 C   0  0  0  0  0  0  0  0  0  0  0  0
  -23.2660  -30.4940   21.5980 C   0  0  0  0  0  3  0  0  0  0  0  0
  -24.6850  -28.9540   20.1390 C   0  0  0  0  0  0  0  0  0  0  0  0
  -25.7870  -30.8550   21.3290 C   0  0  0  0  0  2  0  0  0  0  0  0
  -25.8600  -29.4790   20.6910 C   0  0  0  0  0  0  0  0  0  0  0  0
  -27.0650  -28.7300   20.6510 C   0  0  0  0  0  3  0  0  0  0  0  0
  -25.8920  -26.9400   19.5010 C   0  0  0  0  0  3  0  0  0  0  0  0
  -24.6990  -27.6840   19.5370 C   0  0  0  0  0  3  0  0  0  0  0  0
  -23.4410  -29.8090   20.2180 C   0  0  0  0  0  2  0  0  0  0  0  0
  -24.5420  -31.0990   22.0980 N   0  0  0  0  0  0  0  0  0  0  0  0
  -23.4470  -32.1800   23.7660 O   0  0  0  0  0  0  0  0  0  0  0  0
  -22.6470  -29.4760   22.5810 C   0  0  0  0  0  0  0  0  0  0  0  0
  -21.3250  -29.2620   22.4670 N   0  0  0  0  0  0  0  0  0  0  0  0
  -23.3520  -28.8800   23.4000 O   0  0  0  0  0  0  0  0  0  0  0  0
  -20.8150  -29.7980   21.7790 H   0  0  0  0  0  0  0  0  0  0  0  0
  -17.9890  -27.9700   22.9870 C   0  0  0  0  0  0  0  0  0  0  0  0
  -20.5340  -28.3210   23.2620 C   0  0  0  0  0  3  0  0  0  0  0  0
  -20.6880  -26.8780   22.7290 C   0  0  0  0  0  2  0  0  0  0  0  0
  -19.6020  -26.4880   21.7200 C   0  0  0  0  0  2  0  0  0  0  0  0
  -18.2130  -26.6070   22.3530 C   0  0  0  0  0  2  0  0  0  0  0  0
  -19.0790  -28.7800   23.3990 C   0  0  0  0  0  0  0  0  0  0  0  0
  -18.8160  -30.0530   23.9500 C   0  0  0  0  0  3  0  0  0  0  0  0
  -17.4940  -30.5170   24.0930 C   0  0  0  0  0  3  0  0  0  0  0  0
  -16.4180  -29.7040   23.6980 C   0  0  0  0  0  3  0  0  0  0  0  0
  -16.6660  -28.4340   23.1500 C   0  0  0  0  0  3  0  0  0  0  0  0
  -25.8150  -32.5440   23.7760 C   0  0  0  0  0  3  0  0  0  0  0  0
  -25.5050  -33.9350   24.1360 N   0  0  0  0  0  0  0  0  0  0  0  0
  -25.8100  -35.0000   23.3830 C   0  0  0  0  0  0  0  0  0  0  0  0
  -26.4550  -34.9160   22.3340 O   0  0  0  0  0  0  0  0  0  0  0  0
  -24.9310  -34.0730   24.9540 H   0  0  0  0  0  0  0  0  0  0  0  0
  -24.0660  -36.7860   23.0900 C   0  0  0  0  0  1  0  0  0  0  0  0
  -25.3230  -36.3770   23.8730 C   0  0  0  0  0  3  0  0  0  0  0  0
  -27.4700  -37.2570   24.6780 C   0  0  0  0  0  1  0  0  0  0  0  0
  -26.3490  -37.4370   23.7590 N   0  0  0  0  0  0  0  0  0  0  0  0
  -25.9400  -38.3520   23.9340 H   0  0  0  0  0  0  0  0  0  0  0  0
  -26.3900  -31.7620   25.0190 C   0  0  1  0  0  0  0  0  0  0  0  0
  -25.3390  -31.4880   26.1200 C   0  0  0  0  0  1  0  0  0  0  0  0
  -26.9850  -30.4020   24.5830 C   0  0  0  0  0  1  0  0  0  0  0  0
  -27.5480  -32.5680   25.6550 C   0  0  0  0  0  1  0  0  0  0  0  0
  1 48  1  0
  1  6  1  0
  2  4  1  0
  2  6  1  0
  3  6  1  0
  3  5  1  0
  4 47  1  0
  4  5  1  0
  5 16  1  0
  6  7  1  1
  8 16  1  0
  9 14  1  0
 10 11  1  0
 10  9  1  0
 12 11  1  0
 12 21  1  0
 12 13  1  0
 14  8  1  0
 14 13  1  0
 15  8  2  0
 16 17  1  0
 18 19  2  0
 19 38  1  0
 20 19  1  0
 20 23  1  0
 21 18  1  0
 21 22  1  0
 22 20  2  0
 23 24  1  0
 24 25  2  0
 26 29  1  0
 26 25  1  0
 27 26  2  0
 28 27  1  0
 28 23  2  0
 29 30  1  0
 30 35  2  0
 30 31  1  0
 31 32  2  0
 32 33  1  0
 33 37  1  0
 34 33  2  0
 35 34  1  0
 36 35  1  0
 38 39  1  0
 39 42  1  0
 39 41  1  0
 40 38  2  0
 43 44  1  0
 43 18  1  0
 45 43  1  0
 46 47  1  0
 49 48  1  0
 50 49  1  0
 50 52  1  0
 51 50  2  0
 53 55  1  0
 53 52  1  0
 54 65  2  0
 55 60  1  0
 56 64  1  0
 56 66  1  0
 57 63  1  0
 57 59  1  0
 58 64  1  0
 59 58  1  0
 60 59  2  0
 61 62  1  0
 61 55  2  0
 62 57  2  0
 63 56  1  0
 64 54  1  0
 66 68  2  0
 67 66  1  0
 69 67  1  0
 70 79  2  0
 70 75  1  0
 71 67  1  0
 71 75  1  0
 72 71  1  0
 73 74  1  0
 73 72  1  0
 74 70  1  0
 75 76  2  0
 76 77  1  0
 78 77  2  0
 79 78  1  0
 80 54  1  0
 80 81  1  0
 80 90  1  0
 81 84  1  0
 82 86  1  0
 82 81  1  0
 83 82  2  0
 86 85  1  0
 88 86  1  0
 88 89  1  0
 88 87  1  0
 90 93  1  1
 90 91  1  0
 92 90  1  0
M  ISO  4   8 100  16 100  52 101  53 101
M  END
>  <TORSDO>  (57) 
F 22

>  <SCORE>  (57) 
-11.938

>  <name>  (57) 
56

>  <ligand_id>  (57) 
56

>  <original_smiles>  (57) 
[H]c1c([H])c([H])c2c(c1[H])C([H])([H])C([H])([H])C([H])([H])C2([H])N([H])C(=O)C1([H])N(C(=O)C([H])(N([H])C(=O)C([H])(N([H])C([H])([H])[H])C([H])([H])[H])C(C([H])([H])[H])(C([H])([H])[H])C([H])([H])[H])C([H])([H])c2c([H])c(OC([H])([H])C(=O)C([H])([H])C([H])([H])C([H])([H])[N+]3([H])C([H])([H])C([H])(N([H])C(=O)N4C([H])([H])C([H])([H])C([H])([H])C([H])(n5nc(-c6c([H])c([H])c(Oc7c([H])c([H])c(F)c([H])c7F)c([H])c6[H])c(C(=O)N([H])[H])c5N([H])[H])C4([H])[H])C([H])(C([H])([H])C([H])([H])[H])C3([H])[H])c([H])c([H])c2C1([H])[H]

>  <smiles>  (57) 
[H]c1c([H])c([H])c2c(c1[H])C([H])([H])C([H])([H])C([H])([H])C2([H])N([H])C(=O)C1([H])N(C(=O)C([H])(N([H])C(=O)C([H])(N([H])C([H])([H])[H])C([H])([H])[H])C(C([H])([H])[H])(C([H])([H])[H])C([H])([H])[H])C([H])([H])c2c([H])c(OC([H])([H])C(=O)C([H])([H])C([H])([H])C([H])([H])[N+]3([H])C([H])([H])C([H])(N([H])C(=O)N4C([H])([H])C([H])([H])C([H])([H])C([H])(n5nc(-c6c([H])c([H])c(Oc7c([H])c([H])c(F)c([H])c7F)c([H])c6[H])c(C(=O)N([H])[H])c5N([H])[H])C4([H])[H])C([H])(C([H])([H])C([H])([H])[H])C3([H])[H])c([H])c([H])c2C1([H])[H]

$$$$
57:0:0
     RDKit          3D

 90 98  0  0  1  0  0  0  0  0999 V2000
  -29.6960  -21.2290   20.6690 C   0  0  0  0  0  2  0  0  0  0  0  0
  -28.7750  -22.4040   20.0920 C   0  0  0  0  0  2  0  0  0  0  0  0
  -29.0800  -23.9160   20.5150 C   0  0  0  0  0  3  0  0  0  0  0  0
  -28.0670  -25.0220   19.9890 C   0  0  0  0  0  3  0  0  0  0  0  0
  -28.2940  -26.4650   20.2490 O   0  0  0  0  0  0  0  0  0  0  0  0
  -24.6070  -31.8940   23.2510 C   0  0  0  0  0  0  0  0  0  0  0  0
  -27.1840  -27.3270   20.1810 C   0  0  0  0  0  0  0  0  0  0  0  0
  -23.3880  -30.4990   21.6180 C   0  0  0  0  0  3  0  0  0  0  0  0
  -24.8250  -28.9490   20.1820 C   0  0  0  0  0  0  0  0  0  0  0  0
  -25.9290  -30.8080   21.4230 C   0  0  0  0  0  2  0  0  0  0  0  0
  -26.0000  -29.4310   20.7760 C   0  0  0  0  0  0  0  0  0  0  0  0
  -27.1800  -28.6300   20.7690 C   0  0  0  0  0  3  0  0  0  0  0  0
  -25.9880  -26.9100   19.5470 C   0  0  0  0  0  3  0  0  0  0  0  0
  -24.8220  -27.6940   19.5590 C   0  0  0  0  0  3  0  0  0  0  0  0
  -23.5930  -29.8260   20.2360 C   0  0  0  0  0  2  0  0  0  0  0  0
  -24.6610  -31.0840   22.1540 N   0  0  0  0  0  0  0  0  0  0  0  0
  -23.5280  -32.1760   23.7910 O   0  0  0  0  0  0  0  0  0  0  0  0
  -22.7290  -29.4840   22.5810 C   0  0  0  0  0  0  0  0  0  0  0  0
  -21.4010  -29.3090   22.4590 N   0  0  0  0  0  0  0  0  0  0  0  0
  -23.4080  -28.8560   23.3970 O   0  0  0  0  0  0  0  0  0  0  0  0
  -20.9130  -29.8680   21.7730 H   0  0  0  0  0  0  0  0  0  0  0  0
  -18.0230  -28.1190   22.9630 C   0  0  0  0  0  0  0  0  0  0  0  0
  -20.5820  -28.3770   23.2340 C   0  0  0  0  0  3  0  0  0  0  0  0
  -20.6820  -26.9420   22.6660 C   0  0  0  0  0  2  0  0  0  0  0  0
  -19.5800  -26.6150   21.6530 C   0  0  0  0  0  2  0  0  0  0  0  0
  -18.1980  -26.7660   22.2960 C   0  0  0  0  0  2  0  0  0  0  0  0
  -19.1420  -28.8830   23.3900 C   0  0  0  0  0  0  0  0  0  0  0  0
  -18.9240  -30.1490   23.9740 C   0  0  0  0  0  3  0  0  0  0  0  0
  -17.6200  -30.6520   24.1370 C   0  0  0  0  0  3  0  0  0  0  0  0
  -16.5150  -29.8860   23.7270 C   0  0  0  0  0  3  0  0  0  0  0  0
  -16.7170  -28.6220   23.1460 C   0  0  0  0  0  3  0  0  0  0  0  0
  -25.8960  -32.5210   23.8650 C   0  0  0  0  0  3  0  0  0  0  0  0
  -25.5930  -33.9200   24.1990 N   0  0  0  0  0  0  0  0  0  0  0  0
  -25.9190  -34.9720   23.4370 C   0  0  0  0  0  0  0  0  0  0  0  0
  -26.5770  -34.8670   22.3980 O   0  0  0  0  0  0  0  0  0  0  0  0
  -25.0080  -34.0760   25.0070 H   0  0  0  0  0  0  0  0  0  0  0  0
  -24.1880  -36.7660   23.1060 C   0  0  0  0  0  1  0  0  0  0  0  0
  -25.4410  -36.3610   23.9000 C   0  0  0  0  0  3  0  0  0  0  0  0
  -27.5890  -37.2420   24.6980 C   0  0  0  0  0  1  0  0  0  0  0  0
  -26.4720  -37.4130   23.7720 N   0  0  0  0  0  0  0  0  0  0  0  0
  -26.0710  -38.3340   23.9260 H   0  0  0  0  0  0  0  0  0  0  0  0
  -26.4160  -31.7460   25.1380 C   0  0  1  0  0  0  0  0  0  0  0  0
  -25.3300  -31.5120   26.2130 C   0  0  0  0  0  1  0  0  0  0  0  0
  -26.9910  -30.3660   24.7420 C   0  0  0  0  0  1  0  0  0  0  0  0
  -27.5760  -32.5340   25.7930 C   0  0  0  0  0  1  0  0  0  0  0  0
  -29.9790  -19.8450   19.8910 C   0  0  0  0  0  3  0  0  0  0  0  0
  -30.2890  -19.9140   16.3300 C   0  0  0  0  0  2  0  0  0  0  0  0
  -30.1040  -18.8370   17.3990 C   0  0  0  0  0  2  0  0  0  0  0  0
  -30.4920  -20.9030   17.4800 C   0  0  0  0  0  2  0  0  0  0  0  0
  -29.6820  -19.9470   18.3810 C   0  0  0  0  0  3  0  0  0  0  0  0
  -29.4690  -18.4560   20.5170 C   0  0  0  0  0  3  0  0  0  0  0  0
  -30.4340  -17.1860   20.3760 C   0  0  0  0  0  3  0  0  0  0  0  0
  -30.6330  -14.6480   20.3720 C   0  0  0  0  0  0  0  0  0  0  0  0
  -30.3460  -12.4240   19.3130 C   0  0  0  0  0  2  0  0  0  0  0  0
  -29.4030  -12.5680   18.1000 C   0  0  0  0  0  2  0  0  0  0  0  0
  -27.9350  -12.4160   18.5380 C   0  0  0  0  0  2  0  0  0  0  0  0
  -27.5880  -13.2770   19.7830 C   0  0  0  0  0  3  0  0  0  0  0  0
  -28.6550  -13.1430   20.8930 C   0  0  0  0  0  2  0  0  0  0  0  0
  -29.9590  -13.4570   20.2960 N   0  0  0  0  0  0  0  0  0  0  0  0
  -31.8050  -14.7340   20.0020 O   0  0  0  0  0  0  0  0  0  0  0  0
  -29.9210  -15.7910   20.6360 N   0  0  0  0  0  0  0  0  0  0  0  0
  -28.9530  -15.6820   20.9010 H   0  0  0  0  0  0  0  0  0  0  0  0
  -25.2010  -13.8710   20.5180 C   0  0  0  0  0  0  0  0  0  0  0  0
  -24.1370  -13.0980   20.8950 C   0  0  0  0  0  0  0  0  0  0  0  0
  -24.6000  -11.7460   20.8640 C   0  0  0  0  0  0  0  0  0  0  0  0
  -26.2450  -12.9930   20.2790 N   0  0  0  0  0  0  0  0  0  0  0  0
  -25.8890  -11.7090   20.5480 N   0  0  0  0  0  0  0  0  0  0  0  0
  -23.8750  -10.4840   21.0580 C   0  0  0  0  0  0  0  0  0  0  0  0
  -24.3230   -9.5090   21.9780 C   0  0  0  0  0  3  0  0  0  0  0  0
  -23.5970   -8.3120   22.1600 C   0  0  0  0  0  3  0  0  0  0  0  0
  -22.4110   -8.0810   21.4250 C   0  0  0  0  0  0  0  0  0  0  0  0
  -21.9830   -9.0440   20.4940 C   0  0  0  0  0  3  0  0  0  0  0  0
  -22.7090  -10.2330   20.3090 C   0  0  0  0  0  3  0  0  0  0  0  0
  -21.6560   -6.9360   21.5180 O   0  0  0  0  0  0  0  0  0  0  0  0
  -21.6370   -6.1780   22.6610 C   0  0  0  0  0  0  0  0  0  0  0  0
  -21.2560   -6.7190   23.9080 C   0  0  0  0  0  3  0  0  0  0  0  0
  -21.1830   -5.8870   25.0430 C   0  0  0  0  0  3  0  0  0  0  0  0
  -21.4820   -4.5160   24.9320 C   0  0  0  0  0  0  0  0  0  0  0  0
  -21.8560   -3.9750   23.6900 C   0  0  0  0  0  3  0  0  0  0  0  0
  -21.9310   -4.8030   22.5570 C   0  0  0  0  0  0  0  0  0  0  0  0
  -22.2700   -4.2720   21.3580 F   0  0  0  0  0  0  0  0  0  0  0  0
  -21.4040   -3.7150   26.0220 F   0  0  0  0  0  0  0  0  0  0  0  0
  -22.7410  -13.5740   21.1740 C   0  0  0  0  0  0  0  0  0  0  0  0
  -22.0170  -12.8790   22.0440 N   0  0  0  0  0  0  0  0  0  0  0  0
  -22.2990  -14.5980   20.6530 O   0  0  0  0  0  0  0  0  0  0  0  0
  -22.3870  -12.0510   22.4870 H   0  0  0  0  0  0  0  0  0  0  0  0
  -21.0810  -13.1810   22.2710 H   0  0  0  0  0  0  0  0  0  0  0  0
  -25.3620  -15.2420   20.3370 N   0  0  0  0  0  0  0  0  0  0  0  0
  -24.5930  -15.8930   20.4440 H   0  0  0  0  0  0  0  0  0  0  0  0
  -26.2030  -15.6800   19.9820 H   0  0  0  0  0  0  0  0  0  0  0  0
  2  3  1  0
  2  1  1  0
  4  5  1  0
  4  3  2  0
  6 17  2  0
  7  5  1  0
  7 12  1  0
  8 16  1  0
  8 18  1  0
  9 15  1  0
  9 11  1  0
 10 16  1  0
 11 10  1  0
 12 11  2  0
 13 14  1  0
 13  7  2  0
 14  9  2  0
 15  8  1  0
 16  6  1  0
 18 20  2  0
 19 18  1  0
 21 19  1  0
 22 31  2  0
 22 27  1  0
 23 19  1  0
 23 27  1  0
 24 23  1  0
 25 26  1  0
 25 24  1  0
 26 22  1  0
 27 28  2  0
 28 29  1  0
 30 29  2  0
 31 30  1  0
 32  6  1  0
 32 33  1  0
 32 42  1  0
 33 36  1  0
 34 38  1  0
 34 33  1  0
 35 34  2  0
 38 37  1  0
 40 38  1  0
 40 41  1  0
 40 39  1  0
 42 45  1  1
 42 43  1  0
 44 42  1  0
 46 51  1  0
 46  1  1  0
 47 48  1  0
 47 49  1  0
 48 50  1  0
 49 50  1  0
 50 46  1  0
 52 51  2  0
 52 61  1  0
 53 61  1  0
 54 59  1  0
 55 56  1  0
 55 54  1  0
 57 56  1  0
 57 66  1  0
 57 58  1  0
 59 53  1  0
 59 58  1  0
 60 53  2  0
 61 62  1  0
 63 64  2  0
 64 83  1  0
 65 64  1  0
 65 68  1  0
 66 63  1  0
 66 67  1  0
 67 65  2  0
 68 69  1  0
 69 70  2  0
 71 74  1  0
 71 70  1  0
 72 71  2  0
 73 72  1  0
 73 68  2  0
 74 75  1  0
 75 76  1  0
 76 77  2  0
 78 77  1  0
 78 82  1  0
 79 78  2  0
 80 75  2  0
 80 79  1  0
 81 80  1  0
 83 84  1  0
 84 87  1  0
 84 86  1  0
 85 83  2  0
 88 89  1  0
 88 63  1  0
 90 88  1  0
M  ISO  4   4 101   5 101  53 100  61 100
M  END
>  <TORSDO>  (58) 
F 23

>  <SCORE>  (58) 
-12.746

>  <name>  (58) 
57

>  <ligand_id>  (58) 
57

>  <original_smiles>  (58) 
[H]c1c([H])c([H])c2c(c1[H])C([H])([H])C([H])([H])C([H])([H])C2([H])N([H])C(=O)C1([H])N(C(=O)C([H])(N([H])C(=O)C([H])(N([H])C([H])([H])[H])C([H])([H])[H])C(C([H])([H])[H])(C([H])([H])[H])C([H])([H])[H])C([H])([H])c2c([H])c(OC([H])([H])C([H])([H])C([H])([H])C([H])([H])C([H])(C([H])([H])C([H])([H])N([H])C(=O)N3C([H])([H])C([H])([H])C([H])([H])C([H])(n4nc(-c5c([H])c([H])c(Oc6c([H])c([H])c(F)c([H])c6F)c([H])c5[H])c(C(=O)N([H])[H])c4N([H])[H])C3([H])[H])C3([H])C([H])([H])C([H])([H])C3([H])[H])c([H])c([H])c2C1([H])[H]

>  <smiles>  (58) 
[H]c1c([H])c([H])c2c(c1[H])C([H])([H])C([H])([H])C([H])([H])C2([H])N([H])C(=O)C1([H])N(C(=O)C([H])(N([H])C(=O)C([H])(N([H])C([H])([H])[H])C([H])([H])[H])C(C([H])([H])[H])(C([H])([H])[H])C([H])([H])[H])C([H])([H])c2c([H])c(OC([H])([H])C([H])([H])C([H])([H])C([H])([H])C([H])(C([H])([H])C([H])([H])N([H])C(=O)N3C([H])([H])C([H])([H])C([H])([H])C([H])(n4nc(-c5c([H])c([H])c(Oc6c([H])c([H])c(F)c([H])c6F)c([H])c5[H])c(C(=O)N([H])[H])c4N([H])[H])C3([H])[H])C3([H])C([H])([H])C([H])([H])C3([H])[H])c([H])c([H])c2C1([H])[H]

$$$$
58:0:0
     RDKit          3D

 97105  0  0  1  0  0  0  0  0999 V2000
  -29.1180  -22.1200   20.8480 C   0  0  0  0  0  0  0  0  0  0  0  0
  -30.0350  -22.4230   20.0790 O   0  0  0  0  0  0  0  0  0  0  0  0
  -28.9690  -20.6550   21.3490 C   0  0  0  0  0  2  0  0  0  0  0  0
  -29.8540  -19.5480   20.6830 C   0  0  0  0  0  2  0  0  0  0  0  0
  -28.1330  -17.9540   19.7310 C   0  0  0  0  0  2  0  0  0  0  0  0
  -30.1310  -17.0110   18.8010 C   0  0  0  0  0  2  0  0  0  0  0  0
  -29.2640  -18.0930   20.7660 C   0  0  0  0  0  3  0  0  0  0  0  0
  -30.2450  -16.9540   20.3370 C   0  0  0  0  0  3  0  0  0  0  0  0
  -28.7360  -17.3780   18.5130 N   0  0  0  0  0  4  0  0  0  0  0  0
  -28.7200  -18.0460   17.7610 H   0  0  0  0  0  0  0  0  0  0  0  0
  -28.2150  -16.5700   18.2180 H   0  0  0  0  0  0  0  0  0  0  0  0
  -30.6650  -14.5000   20.4910 C   0  0  0  0  0  0  0  0  0  0  0  0
  -30.3860  -12.3500   19.3270 C   0  0  0  0  0  2  0  0  0  0  0  0
  -29.4450  -12.5580   18.1190 C   0  0  0  0  0  2  0  0  0  0  0  0
  -27.9700  -12.4160   18.5430 C   0  0  0  0  0  2  0  0  0  0  0  0
  -27.6270  -13.2510   19.8060 C   0  0  0  0  0  3  0  0  0  0  0  0
  -28.6720  -13.0070   20.9180 C   0  0  0  0  0  2  0  0  0  0  0  0
  -29.9970  -13.3220   20.3660 N   0  0  0  0  0  0  0  0  0  0  0  0
  -31.8140  -14.6580   20.0730 O   0  0  0  0  0  0  0  0  0  0  0  0
  -29.9040  -15.5790   20.7980 N   0  0  0  0  0  0  0  0  0  0  0  0
  -28.9800  -15.4030   21.1630 H   0  0  0  0  0  0  0  0  0  0  0  0
  -25.2240  -13.8760   20.4820 C   0  0  0  0  0  0  0  0  0  0  0  0
  -24.1500  -13.1110   20.8550 C   0  0  0  0  0  0  0  0  0  0  0  0
  -24.6060  -11.7590   20.8360 C   0  0  0  0  0  0  0  0  0  0  0  0
  -26.2680  -12.9890   20.2710 N   0  0  0  0  0  0  0  0  0  0  0  0
  -25.8980  -11.7110   20.5390 N   0  0  0  0  0  0  0  0  0  0  0  0
  -23.8740  -10.4990   21.0260 C   0  0  0  0  0  0  0  0  0  0  0  0
  -24.2950   -9.5400   21.9710 C   0  0  0  0  0  3  0  0  0  0  0  0
  -23.5650   -8.3440   22.1500 C   0  0  0  0  0  3  0  0  0  0  0  0
  -22.4030   -8.1020   21.3810 C   0  0  0  0  0  0  0  0  0  0  0  0
  -22.0030   -9.0490   20.4230 C   0  0  0  0  0  3  0  0  0  0  0  0
  -22.7320  -10.2350   20.2440 C   0  0  0  0  0  3  0  0  0  0  0  0
  -21.6460   -6.9590   21.4690 O   0  0  0  0  0  0  0  0  0  0  0  0
  -21.5790   -6.2290   22.6270 C   0  0  0  0  0  0  0  0  0  0  0  0
  -21.1220   -6.7910   23.8390 C   0  0  0  0  0  3  0  0  0  0  0  0
  -21.0080   -5.9820   24.9890 C   0  0  0  0  0  3  0  0  0  0  0  0
  -21.3360   -4.6160   24.9250 C   0  0  0  0  0  0  0  0  0  0  0  0
  -21.7880   -4.0550   23.7180 C   0  0  0  0  0  3  0  0  0  0  0  0
  -21.9060   -4.8590   22.5710 C   0  0  0  0  0  0  0  0  0  0  0  0
  -22.3220   -4.3100   21.4040 F   0  0  0  0  0  0  0  0  0  0  0  0
  -21.2190   -3.8380   26.0270 F   0  0  0  0  0  0  0  0  0  0  0  0
  -22.7520  -13.5980   21.1030 C   0  0  0  0  0  0  0  0  0  0  0  0
  -22.0070  -12.9090   21.9630 N   0  0  0  0  0  0  0  0  0  0  0  0
  -22.3290  -14.6220   20.5690 O   0  0  0  0  0  0  0  0  0  0  0  0
  -22.3590  -12.0780   22.4120 H   0  0  0  0  0  0  0  0  0  0  0  0
  -21.0660  -13.2180   22.1670 H   0  0  0  0  0  0  0  0  0  0  0  0
  -25.3930  -15.2400   20.2720 N   0  0  0  0  0  0  0  0  0  0  0  0
  -24.5920  -15.8610   20.2790 H   0  0  0  0  0  0  0  0  0  0  0  0
  -26.1440  -15.5700   19.6850 H   0  0  0  0  0  0  0  0  0  0  0  0
  -28.0520  -23.1410   21.3480 C   0  0  0  0  0  3  0  0  0  0  0  0
  -26.7560  -22.8600   20.6950 N   0  0  0  0  0  4  0  0  0  0  0  0
  -26.4330  -21.9360   20.9210 H   0  0  0  0  0  0  0  0  0  0  0  0
  -26.8150  -22.9400   19.6940 H   0  0  0  0  0  0  0  0  0  0  0  0
  -26.0590  -23.5020   21.0290 H   0  0  0  0  0  0  0  0  0  0  0  0
  -28.4330  -24.6570   21.2970 C   0  0  0  0  0  2  0  0  0  0  0  0
  -28.5580  -25.3840   19.9330 C   0  0  0  0  0  2  0  0  0  0  0  0
  -28.4900  -26.8110   20.1290 O   0  0  0  0  0  0  0  0  0  0  0  0
  -24.5740  -31.9000   23.2300 C   0  0  0  0  0  0  0  0  0  0  0  0
  -27.2750  -27.4760   20.1430 C   0  0  0  0  0  0  0  0  0  0  0  0
  -23.3840  -30.5000   21.5740 C   0  0  0  0  0  3  0  0  0  0  0  0
  -24.8580  -28.9660   20.1580 C   0  0  0  0  0  0  0  0  0  0  0  0
  -25.9120  -30.8660   21.3950 C   0  0  0  0  0  2  0  0  0  0  0  0
  -26.0090  -29.4960   20.7540 C   0  0  0  0  0  0  0  0  0  0  0  0
  -27.2150  -28.7560   20.7460 C   0  0  0  0  0  3  0  0  0  0  0  0
  -26.0980  -26.9640   19.5430 C   0  0  0  0  0  3  0  0  0  0  0  0
  -24.8990  -27.7010   19.5510 C   0  0  0  0  0  3  0  0  0  0  0  0
  -23.6040  -29.8110   20.1990 C   0  0  0  0  0  2  0  0  0  0  0  0
  -24.6400  -31.1040   22.1230 N   0  0  0  0  0  0  0  0  0  0  0  0
  -23.4870  -32.1640   23.7620 O   0  0  0  0  0  0  0  0  0  0  0  0
  -22.7320  -29.4790   22.5350 C   0  0  0  0  0  0  0  0  0  0  0  0
  -21.4050  -29.3130   22.4200 N   0  0  0  0  0  0  0  0  0  0  0  0
  -23.4210  -28.8310   23.3290 O   0  0  0  0  0  0  0  0  0  0  0  0
  -20.9060  -29.8980   21.7640 H   0  0  0  0  0  0  0  0  0  0  0  0
  -18.0370  -28.1000   22.9240 C   0  0  0  0  0  0  0  0  0  0  0  0
  -20.5990  -28.3470   23.1610 C   0  0  0  0  0  3  0  0  0  0  0  0
  -20.6990  -26.9430   22.5190 C   0  0  0  0  0  2  0  0  0  0  0  0
  -19.5620  -26.6430   21.5380 C   0  0  0  0  0  2  0  0  0  0  0  0
  -18.2020  -26.7620   22.2260 C   0  0  0  0  0  2  0  0  0  0  0  0
  -19.1640  -28.8480   23.3540 C   0  0  0  0  0  0  0  0  0  0  0  0
  -18.9640  -30.1040   23.9620 C   0  0  0  0  0  3  0  0  0  0  0  0
  -17.6650  -30.6190   24.1380 C   0  0  0  0  0  3  0  0  0  0  0  0
  -16.5510  -29.8670   23.7220 C   0  0  0  0  0  3  0  0  0  0  0  0
  -16.7370  -28.6090   23.1240 C   0  0  0  0  0  3  0  0  0  0  0  0
  -25.8520  -32.5360   23.8590 C   0  0  0  0  0  3  0  0  0  0  0  0
  -26.3670  -31.7670   25.1370 C   0  0  1  0  0  0  0  0  0  0  0  0
  -25.2720  -31.5170   26.2010 C   0  0  0  0  0  1  0  0  0  0  0  0
  -26.9640  -30.3950   24.7430 C   0  0  0  0  0  1  0  0  0  0  0  0
  -27.5070  -32.5690   25.8050 C   0  0  0  0  0  1  0  0  0  0  0  0
  -25.5320  -33.9340   24.1840 N   0  0  0  0  0  0  0  0  0  0  0  0
  -25.8680  -34.9850   23.4250 C   0  0  0  0  0  0  0  0  0  0  0  0
  -26.5470  -34.8830   22.3990 O   0  0  0  0  0  0  0  0  0  0  0  0
  -24.9320  -34.0860   24.9810 H   0  0  0  0  0  0  0  0  0  0  0  0
  -24.1390  -36.7730   23.0400 C   0  0  0  0  0  1  0  0  0  0  0  0
  -25.3680  -36.3730   23.8740 C   0  0  0  0  0  3  0  0  0  0  0  0
  -27.4840  -37.2640   24.7430 C   0  0  0  0  0  1  0  0  0  0  0  0
  -26.4000  -37.4290   23.7780 N   0  0  0  0  0  0  0  0  0  0  0  0
  -25.9900  -38.3490   23.9180 H   0  0  0  0  0  0  0  0  0  0  0  0
  1 50  1  0
  1  3  1  0
  2  1  2  0
  4  3  1  0
  5  7  1  0
  6  8  1  0
  7  4  1  0
  8  7  1  0
  8 20  1  0
  9  6  1  0
  9  5  1  0
 10  9  1  0
 11  9  1  0
 12 20  1  0
 13 18  1  0
 14 15  1  0
 14 13  1  0
 16 15  1  0
 16 25  1  0
 16 17  1  0
 18 12  1  0
 18 17  1  0
 19 12  2  0
 20 21  1  0
 22 23  2  0
 23 42  1  0
 24 23  1  0
 24 27  1  0
 25 22  1  0
 25 26  1  0
 26 24  2  0
 27 28  1  0
 28 29  2  0
 30 33  1  0
 30 29  1  0
 31 30  2  0
 32 31  1  0
 32 27  2  0
 33 34  1  0
 34 35  1  0
 35 36  2  0
 37 36  1  0
 37 41  1  0
 38 37  2  0
 39 34  2  0
 39 38  1  0
 40 39  1  0
 42 43  1  0
 43 46  1  0
 43 45  1  0
 44 42  2  0
 47 48  1  0
 47 22  1  0
 49 47  1  0
 50 55  1  0
 51 52  1  0
 51 54  1  0
 51 50  1  0
 53 51  1  0
 56 57  1  0
 56 55  1  0
 57 59  1  0
 58 69  2  0
 59 64  1  0
 60 68  1  0
 60 70  1  0
 61 67  1  0
 61 63  1  0
 62 68  1  0
 63 62  1  0
 64 63  2  0
 65 66  1  0
 65 59  2  0
 66 61  2  0
 67 60  1  0
 68 58  1  0
 70 72  2  0
 71 70  1  0
 73 71  1  0
 74 83  2  0
 74 79  1  0
 75 71  1  0
 75 79  1  0
 76 75  1  0
 77 78  1  0
 77 76  1  0
 78 74  1  0
 79 80  2  0
 80 81  1  0
 82 81  2  0
 83 82  1  0
 84 58  1  0
 84 89  1  0
 84 85  1  0
 85 88  1  1
 85 86  1  0
 87 85  1  0
 89 92  1  0
 90 94  1  0
 90 89  1  0
 91 90  2  0
 94 93  1  0
 96 94  1  0
 96 97  1  0
 96 95  1  0
M  ISO  4  12 100  20 100  56 101  57 101
M  END
>  <TORSDO>  (59) 
F 23

>  <SCORE>  (59) 
-13.277

>  <name>  (59) 
58

>  <ligand_id>  (59) 
58

>  <original_smiles>  (59) 
[H]c1c([H])c([H])c2c(c1[H])C([H])([H])C([H])([H])C([H])([H])C2([H])N([H])C(=O)C1([H])N(C(=O)C([H])(N([H])C(=O)C([H])(N([H])C([H])([H])[H])C([H])([H])[H])C(C([H])([H])[H])(C([H])([H])[H])C([H])([H])[H])C([H])([H])c2c([H])c(OC([H])([H])C([H])([H])C([H])(C(=O)C([H])([H])C([H])([H])C3([H])C([H])(N([H])C(=O)N4C([H])([H])C([H])([H])C([H])([H])C([H])(n5nc(-c6c([H])c([H])c(Oc7c([H])c([H])c(F)c([H])c7F)c([H])c6[H])c(C(=O)N([H])[H])c5N([H])[H])C4([H])[H])C([H])([H])[N+]([H])([H])C3([H])[H])[N+]([H])([H])[H])c([H])c([H])c2C1([H])[H]

>  <smiles>  (59) 
[H]c1c([H])c([H])c2c(c1[H])C([H])([H])C([H])([H])C([H])([H])C2([H])N([H])C(=O)C1([H])N(C(=O)C([H])(N([H])C(=O)C([H])(N([H])C([H])([H])[H])C([H])([H])[H])C(C([H])([H])[H])(C([H])([H])[H])C([H])([H])[H])C([H])([H])c2c([H])c(OC([H])([H])C([H])([H])C([H])(C(=O)C([H])([H])C([H])([H])C3([H])C([H])(N([H])C(=O)N4C([H])([H])C([H])([H])C([H])([H])C([H])(n5nc(-c6c([H])c([H])c(Oc7c([H])c([H])c(F)c([H])c7F)c([H])c6[H])c(C(=O)N([H])[H])c5N([H])[H])C4([H])[H])C([H])([H])[N+]([H])([H])C3([H])[H])[N+]([H])([H])[H])c([H])c([H])c2C1([H])[H]

$$$$
59:0:0
     RDKit          3D

 89 97  0  0  1  0  0  0  0  0999 V2000
  -29.1340  -21.0950   20.6620 C   0  0  0  0  0  3  0  0  0  0  0  0
  -29.9420  -19.9070   20.1380 N   0  0  0  0  0  4  0  0  0  0  0  0
  -29.9180  -19.9230   19.1320 H   0  0  0  0  0  0  0  0  0  0  0  0
  -30.9000  -20.0720   20.4010 H   0  0  0  0  0  0  0  0  0  0  0  0
  -30.6420  -14.7580   20.3390 C   0  0  0  0  0  0  0  0  0  0  0  0
  -30.3690  -12.4830   19.3500 C   0  0  0  0  0  2  0  0  0  0  0  0
  -29.4210  -12.5200   18.1330 C   0  0  0  0  0  2  0  0  0  0  0  0
  -27.9620  -12.3070   18.5810 C   0  0  0  0  0  2  0  0  0  0  0  0
  -27.5760  -13.2100   19.7780 C   0  0  0  0  0  3  0  0  0  0  0  0
  -28.6570  -13.2200   20.8880 C   0  0  0  0  0  2  0  0  0  0  0  0
  -29.9430  -13.5680   20.2630 N   0  0  0  0  0  0  0  0  0  0  0  0
  -31.8580  -14.7510   20.1330 O   0  0  0  0  0  0  0  0  0  0  0  0
  -28.4570  -17.8420   19.8000 C   0  0  0  0  0  2  0  0  0  0  0  0
  -28.6400  -16.3150   19.9720 C   0  0  0  0  0  2  0  0  0  0  0  0
  -30.6700  -17.3410   20.5020 C   0  0  0  0  0  2  0  0  0  0  0  0
  -29.5830  -18.4910   20.5920 C   0  0  0  0  0  3  0  0  0  0  0  0
  -29.9950  -15.9950   20.4400 N   0  0  0  0  0  0  0  0  0  0  0  0
  -25.2040  -13.8360   20.5150 C   0  0  0  0  0  0  0  0  0  0  0  0
  -24.1370  -13.0710   20.8930 C   0  0  0  0  0  0  0  0  0  0  0  0
  -24.5980  -11.7200   20.8730 C   0  0  0  0  0  0  0  0  0  0  0  0
  -26.2420  -12.9470   20.2890 N   0  0  0  0  0  0  0  0  0  0  0  0
  -25.8870  -11.6710   20.5690 N   0  0  0  0  0  0  0  0  0  0  0  0
  -23.8740  -10.4630   21.0640 C   0  0  0  0  0  0  0  0  0  0  0  0
  -24.3200   -9.4920   21.9870 C   0  0  0  0  0  3  0  0  0  0  0  0
  -23.6000   -8.2930   22.1670 C   0  0  0  0  0  3  0  0  0  0  0  0
  -22.4180   -8.0600   21.4240 C   0  0  0  0  0  0  0  0  0  0  0  0
  -21.9920   -9.0180   20.4880 C   0  0  0  0  0  3  0  0  0  0  0  0
  -22.7140  -10.2090   20.3070 C   0  0  0  0  0  3  0  0  0  0  0  0
  -21.6650   -6.9150   21.5170 O   0  0  0  0  0  0  0  0  0  0  0  0
  -21.6430   -6.1600   22.6610 C   0  0  0  0  0  0  0  0  0  0  0  0
  -21.2570   -6.7050   23.9060 C   0  0  0  0  0  3  0  0  0  0  0  0
  -21.1830   -5.8750   25.0430 C   0  0  0  0  0  3  0  0  0  0  0  0
  -21.4820   -4.5030   24.9350 C   0  0  0  0  0  0  0  0  0  0  0  0
  -21.8600   -3.9600   23.6940 C   0  0  0  0  0  3  0  0  0  0  0  0
  -21.9360   -4.7870   22.5600 C   0  0  0  0  0  0  0  0  0  0  0  0
  -22.2810   -4.2540   21.3630 F   0  0  0  0  0  0  0  0  0  0  0  0
  -21.4010   -3.7040   26.0240 F   0  0  0  0  0  0  0  0  0  0  0  0
  -22.7400  -13.5540   21.1570 C   0  0  0  0  0  0  0  0  0  0  0  0
  -22.0090  -12.8650   22.0260 N   0  0  0  0  0  0  0  0  0  0  0  0
  -22.3070  -14.5770   20.6300 O   0  0  0  0  0  0  0  0  0  0  0  0
  -22.3720  -12.0390   22.4740 H   0  0  0  0  0  0  0  0  0  0  0  0
  -21.0690  -13.1680   22.2450 H   0  0  0  0  0  0  0  0  0  0  0  0
  -25.3600  -15.2050   20.3140 N   0  0  0  0  0  0  0  0  0  0  0  0
  -24.5780  -15.8470   20.3870 H   0  0  0  0  0  0  0  0  0  0  0  0
  -26.1930  -15.6350   19.9380 H   0  0  0  0  0  0  0  0  0  0  0  0
  -29.2860  -22.5100   19.9060 C   0  0  0  0  0  3  0  0  0  0  0  0
  -28.6560  -23.8490   20.5440 C   0  0  0  0  0  3  0  0  0  0  0  0
  -28.5250  -25.1600   19.6290 C   0  0  0  0  0  3  0  0  0  0  0  0
  -28.3760  -26.5110   20.2340 O   0  0  0  0  0  0  0  0  0  0  0  0
  -24.6030  -31.8760   23.2300 C   0  0  0  0  0  0  0  0  0  0  0  0
  -27.2160  -27.3070   20.1660 C   0  0  0  0  0  0  0  0  0  0  0  0
  -23.3920  -30.4700   21.5980 C   0  0  0  0  0  3  0  0  0  0  0  0
  -24.8360  -28.9130   20.1690 C   0  0  0  0  0  0  0  0  0  0  0  0
  -25.9280  -30.7910   21.4010 C   0  0  0  0  0  2  0  0  0  0  0  0
  -26.0050  -29.4080   20.7580 C   0  0  0  0  0  0  0  0  0  0  0  0
  -27.1900  -28.6150   20.7500 C   0  0  0  0  0  3  0  0  0  0  0  0
  -26.0160  -26.8580   19.5660 C   0  0  0  0  0  3  0  0  0  0  0  0
  -24.8440  -27.6440   19.5680 C   0  0  0  0  0  3  0  0  0  0  0  0
  -23.5990  -29.7870   20.2200 C   0  0  0  0  0  2  0  0  0  0  0  0
  -24.6600  -31.0630   22.1340 N   0  0  0  0  0  0  0  0  0  0  0  0
  -23.5220  -32.1550   23.7710 O   0  0  0  0  0  0  0  0  0  0  0  0
  -22.7340  -29.4590   22.5670 C   0  0  0  0  0  0  0  0  0  0  0  0
  -21.4070  -29.2810   22.4470 N   0  0  0  0  0  0  0  0  0  0  0  0
  -23.4150  -28.8360   23.3860 O   0  0  0  0  0  0  0  0  0  0  0  0
  -20.9160  -29.8330   21.7580 H   0  0  0  0  0  0  0  0  0  0  0  0
  -18.0360  -28.0720   22.9540 C   0  0  0  0  0  0  0  0  0  0  0  0
  -20.5920  -28.3440   23.2240 C   0  0  0  0  0  3  0  0  0  0  0  0
  -20.7010  -26.9090   22.6580 C   0  0  0  0  0  2  0  0  0  0  0  0
  -19.6010  -26.5760   21.6450 C   0  0  0  0  0  2  0  0  0  0  0  0
  -18.2180  -26.7200   22.2870 C   0  0  0  0  0  2  0  0  0  0  0  0
  -19.1510  -28.8420   23.3800 C   0  0  0  0  0  0  0  0  0  0  0  0
  -18.9260  -30.1080   23.9640 C   0  0  0  0  0  3  0  0  0  0  0  0
  -17.6180  -30.6040   24.1260 C   0  0  0  0  0  3  0  0  0  0  0  0
  -16.5180  -29.8310   23.7160 C   0  0  0  0  0  3  0  0  0  0  0  0
  -16.7270  -28.5670   23.1370 C   0  0  0  0  0  3  0  0  0  0  0  0
  -25.8880  -32.5110   23.8450 C   0  0  0  0  0  3  0  0  0  0  0  0
  -26.4170  -31.7390   25.1160 C   0  0  1  0  0  0  0  0  0  0  0  0
  -25.3330  -31.4990   26.1940 C   0  0  0  0  0  1  0  0  0  0  0  0
  -26.9960  -30.3610   24.7190 C   0  0  0  0  0  1  0  0  0  0  0  0
  -27.5740  -32.5310   25.7690 C   0  0  0  0  0  1  0  0  0  0  0  0
  -25.5770  -33.9070   24.1820 N   0  0  0  0  0  0  0  0  0  0  0  0
  -25.9000  -34.9640   23.4250 C   0  0  0  0  0  0  0  0  0  0  0  0
  -26.5610  -34.8670   22.3880 O   0  0  0  0  0  0  0  0  0  0  0  0
  -24.9870  -34.0580   24.9870 H   0  0  0  0  0  0  0  0  0  0  0  0
  -24.1600  -36.7540   23.0960 C   0  0  0  0  0  1  0  0  0  0  0  0
  -25.4120  -36.3500   23.8920 C   0  0  0  0  0  3  0  0  0  0  0  0
  -27.5550  -37.2380   24.6990 C   0  0  0  0  0  1  0  0  0  0  0  0
  -26.4390  -37.4070   23.7720 N   0  0  0  0  0  0  0  0  0  0  0  0
  -26.0310  -38.3240   23.9320 H   0  0  0  0  0  0  0  0  0  0  0  0
  2  4  1  0
  2  1  1  0
  3  2  1  0
  5 17  1  0
  6 11  1  0
  7  8  1  0
  7  6  1  0
  9  8  1  0
  9 21  1  0
  9 10  1  0
 11  5  1  0
 11 10  1  0
 12  5  2  0
 13 14  1  0
 13 16  1  0
 14 17  1  0
 15 16  1  0
 16  2  1  0
 17 15  1  0
 18 19  2  0
 19 38  1  0
 20 19  1  0
 20 23  1  0
 21 18  1  0
 21 22  1  0
 22 20  2  0
 23 24  1  0
 24 25  2  0
 26 29  1  0
 26 25  1  0
 27 26  2  0
 28 27  1  0
 28 23  2  0
 29 30  1  0
 30 31  1  0
 31 32  2  0
 33 32  1  0
 33 37  1  0
 34 33  2  0
 35 30  2  0
 35 34  1  0
 36 35  1  0
 38 39  1  0
 39 42  1  0
 39 41  1  0
 40 38  2  0
 43 44  1  0
 43 18  1  0
 45 43  1  0
 46 47  1  0
 46  1  2  0
 48 49  1  0
 48 47  2  0
 50 61  2  0
 51 49  1  0
 51 56  1  0
 52 60  1  0
 52 62  1  0
 53 59  1  0
 53 55  1  0
 54 60  1  0
 55 54  1  0
 56 55  2  0
 57 58  1  0
 57 51  2  0
 58 53  2  0
 59 52  1  0
 60 50  1  0
 62 64  2  0
 63 62  1  0
 65 63  1  0
 66 75  2  0
 66 71  1  0
 67 63  1  0
 67 71  1  0
 68 67  1  0
 69 70  1  0
 69 68  1  0
 70 66  1  0
 71 72  2  0
 72 73  1  0
 74 73  2  0
 75 74  1  0
 76 50  1  0
 76 81  1  0
 76 77  1  0
 77 80  1  1
 77 78  1  0
 79 77  1  0
 81 84  1  0
 82 86  1  0
 82 81  1  0
 83 82  2  0
 86 85  1  0
 88 86  1  0
 88 89  1  0
 88 87  1  0
M  ISO  4   5 100  17 100  48 101  49 101
M  END
>  <TORSDO>  (60) 
F 20

>  <SCORE>  (60) 
-13.760

>  <name>  (60) 
59

>  <ligand_id>  (60) 
59

>  <original_smiles>  (60) 
[H]c1c([H])c([H])c2c(c1[H])C([H])([H])C([H])([H])C([H])([H])C2([H])N([H])C(=O)C1([H])N(C(=O)C([H])(N([H])C(=O)C([H])(N([H])C([H])([H])[H])C([H])([H])[H])C(C([H])([H])[H])(C([H])([H])[H])C([H])([H])[H])C([H])([H])c2c([H])c(OC([H])([H])C([H])([H])C([H])([H])C([H])([H])[N+]([H])([H])C3([H])C([H])([H])N(C(=O)N4C([H])([H])C([H])([H])C([H])([H])C([H])(n5nc(-c6c([H])c([H])c(Oc7c([H])c([H])c(F)c([H])c7F)c([H])c6[H])c(C(=O)N([H])[H])c5N([H])[H])C4([H])[H])C([H])([H])C3([H])[H])c([H])c([H])c2C1([H])[H]

>  <smiles>  (60) 
[H]c1c([H])c([H])c2c(c1[H])C([H])([H])C([H])([H])C([H])([H])C2([H])N([H])C(=O)C1([H])N(C(=O)C([H])(N([H])C(=O)C([H])(N([H])C([H])([H])[H])C([H])([H])[H])C(C([H])([H])[H])(C([H])([H])[H])C([H])([H])[H])C([H])([H])c2c([H])c(OC([H])([H])C([H])([H])C([H])([H])C([H])([H])[N+]([H])([H])C3([H])C([H])([H])N(C(=O)N4C([H])([H])C([H])([H])C([H])([H])C([H])(n5nc(-c6c([H])c([H])c(Oc7c([H])c([H])c(F)c([H])c7F)c([H])c6[H])c(C(=O)N([H])[H])c5N([H])[H])C4([H])[H])C([H])([H])C3([H])[H])c([H])c([H])c2C1([H])[H]

$$$$
60:0:0
     RDKit          3D

 95103  0  0  1  0  0  0  0  0999 V2000
  -30.5400  -14.8530   20.1310 C   0  0  0  0  0  0  0  0  0  0  0  0
  -30.3820  -12.4170   19.7630 C   0  0  0  0  0  2  0  0  0  0  0  0
  -29.5490  -12.1520   18.4940 C   0  0  0  0  0  2  0  0  0  0  0  0
  -28.0480  -12.0800   18.8370 C   0  0  0  0  0  2  0  0  0  0  0  0
  -27.5750  -13.2690   19.7160 C   0  0  0  0  0  3  0  0  0  0  0  0
  -28.5370  -13.5110   20.9010 C   0  0  0  0  0  2  0  0  0  0  0  0
  -29.8930  -13.6730   20.3570 N   0  0  0  0  0  0  0  0  0  0  0  0
  -31.7070  -14.8960   19.7290 O   0  0  0  0  0  0  0  0  0  0  0  0
  -29.2350  -19.9680   17.7630 C   0  0  0  0  0  0  0  0  0  0  0  0
  -29.9420  -19.4210   21.1060 C   0  0  0  0  0  2  0  0  0  0  0  0
  -28.6930  -19.5210   20.1950 C   0  0  0  0  0  2  0  0  0  0  0  0
  -28.5980  -17.6910   18.5850 C   0  0  0  0  0  2  0  0  0  0  0  0
  -29.8080  -16.7550   18.8180 C   0  0  0  0  0  2  0  0  0  0  0  0
  -29.6980  -16.7830   21.3310 C   0  0  0  0  0  2  0  0  0  0  0  0
  -30.6360  -18.0370   21.3730 C   0  0  0  0  0  3  0  0  0  0  0  0
  -28.9210  -19.1240   18.7990 N   0  0  0  0  0  0  0  0  0  0  0  0
  -29.7770  -15.9810   20.0870 N   0  0  0  0  0  0  0  0  0  0  0  0
  -29.4120  -19.5230   16.6250 O   0  0  0  0  0  0  0  0  0  0  0  0
  -25.2050  -14.0380   20.3520 C   0  0  0  0  0  0  0  0  0  0  0  0
  -24.0790  -13.3420   20.7000 C   0  0  0  0  0  0  0  0  0  0  0  0
  -24.4520  -11.9630   20.7000 C   0  0  0  0  0  0  0  0  0  0  0  0
  -26.1960  -13.0880   20.1630 N   0  0  0  0  0  0  0  0  0  0  0  0
  -25.7440  -11.8360   20.4320 N   0  0  0  0  0  0  0  0  0  0  0  0
  -23.6380  -10.7540   20.8860 C   0  0  0  0  0  0  0  0  0  0  0  0
  -24.0250   -9.7340   21.7840 C   0  0  0  0  0  3  0  0  0  0  0  0
  -23.2180   -8.5900   21.9580 C   0  0  0  0  0  3  0  0  0  0  0  0
  -22.0090   -8.4570   21.2360 C   0  0  0  0  0  0  0  0  0  0  0  0
  -21.6390   -9.4640   20.3260 C   0  0  0  0  0  3  0  0  0  0  0  0
  -22.4460  -10.6000   20.1500 C   0  0  0  0  0  3  0  0  0  0  0  0
  -21.1740   -7.3690   21.3220 O   0  0  0  0  0  0  0  0  0  0  0  0
  -21.1770   -6.5430   22.4180 C   0  0  0  0  0  0  0  0  0  0  0  0
  -20.9210   -7.0310   23.7180 C   0  0  0  0  0  3  0  0  0  0  0  0
  -20.8640   -6.1370   24.8060 C   0  0  0  0  0  3  0  0  0  0  0  0
  -21.0550   -4.7580   24.5960 C   0  0  0  0  0  0  0  0  0  0  0  0
  -21.3060   -4.2710   23.3020 C   0  0  0  0  0  3  0  0  0  0  0  0
  -21.3640   -5.1610   22.2160 C   0  0  0  0  0  0  0  0  0  0  0  0
  -21.5850   -4.6840   20.9670 F   0  0  0  0  0  0  0  0  0  0  0  0
  -20.9940   -3.8980   25.6400 F   0  0  0  0  0  0  0  0  0  0  0  0
  -22.7090  -13.9130   20.9240 C   0  0  0  0  0  0  0  0  0  0  0  0
  -21.9190  -13.2900   21.7910 N   0  0  0  0  0  0  0  0  0  0  0  0
  -22.3480  -14.9480   20.3660 O   0  0  0  0  0  0  0  0  0  0  0  0
  -22.2230  -12.4540   22.2670 H   0  0  0  0  0  0  0  0  0  0  0  0
  -20.9970  -13.6550   21.9820 H   0  0  0  0  0  0  0  0  0  0  0  0
  -25.4650  -15.3920   20.1620 N   0  0  0  0  0  0  0  0  0  0  0  0
  -24.7410  -16.0970   20.2370 H   0  0  0  0  0  0  0  0  0  0  0  0
  -26.3540  -15.7660   19.8540 H   0  0  0  0  0  0  0  0  0  0  0  0
  -32.2140  -19.2500   22.8990 C   0  0  0  0  0  1  0  0  0  0  0  0
  -31.3160  -18.0950   22.6940 N   0  0  0  0  0  4  0  0  0  0  0  0
  -31.8900  -17.2710   22.7900 H   0  0  0  0  0  0  0  0  0  0  0  0
  -30.6380  -18.0710   23.4380 H   0  0  0  0  0  0  0  0  0  0  0  0
  -29.3890  -21.5130   17.9310 C   0  0  0  0  0  2  0  0  0  0  0  0
  -28.3600  -22.3470   17.0970 C   0  0  0  0  0  2  0  0  0  0  0  0
  -28.6130  -23.8870   16.9530 C   0  0  0  0  0  2  0  0  0  0  0  0
  -27.2930  -24.6800   16.7170 C   0  0  0  0  0  2  0  0  0  0  0  0
  -27.3480  -26.1330   16.7460 O   0  0  0  0  0  0  0  0  0  0  0  0
  -24.2320  -29.9470   21.9390 C   0  0  0  0  0  0  0  0  0  0  0  0
  -26.1960  -26.7840   17.1800 C   0  0  0  0  0  0  0  0  0  0  0  0
  -22.7150  -28.9250   20.2780 C   0  0  0  0  0  3  0  0  0  0  0  0
  -23.8270  -28.0120   18.1740 C   0  0  0  0  0  0  0  0  0  0  0  0
  -25.1060  -29.5820   19.6290 C   0  0  0  0  0  2  0  0  0  0  0  0
  -25.0810  -28.4580   18.6110 C   0  0  0  0  0  0  0  0  0  0  0  0
  -26.2660  -27.8540   18.1120 C   0  0  0  0  0  3  0  0  0  0  0  0
  -24.9100  -26.3870   16.7320 C   0  0  0  0  0  3  0  0  0  0  0  0
  -23.7390  -26.9800   17.2300 C   0  0  0  0  0  3  0  0  0  0  0  0
  -22.6030  -28.6840   18.7510 C   0  0  0  0  0  2  0  0  0  0  0  0
  -24.0490  -29.4850   20.6690 N   0  0  0  0  0  0  0  0  0  0  0  0
  -23.3050  -29.9420   22.7620 O   0  0  0  0  0  0  0  0  0  0  0  0
  -22.3620  -27.6120   21.0180 C   0  0  0  0  0  0  0  0  0  0  0  0
  -21.0580  -27.2960   21.0880 N   0  0  0  0  0  0  0  0  0  0  0  0
  -23.2470  -26.8950   21.4900 O   0  0  0  0  0  0  0  0  0  0  0  0
  -20.3910  -27.9380   20.6840 H   0  0  0  0  0  0  0  0  0  0  0  0
  -17.9830  -25.4990   21.7040 C   0  0  0  0  0  0  0  0  0  0  0  0
  -20.4980  -26.0930   21.7060 C   0  0  0  0  0  3  0  0  0  0  0  0
  -20.6850  -24.8600   20.7920 C   0  0  0  0  0  2  0  0  0  0  0  0
  -19.4840  -24.5990   19.8770 C   0  0  0  0  0  2  0  0  0  0  0  0
  -18.2160  -24.3780   20.7060 C   0  0  0  0  0  2  0  0  0  0  0  0
  -19.0520  -26.3140   22.1620 C   0  0  0  0  0  0  0  0  0  0  0  0
  -18.7740  -27.3650   23.0640 C   0  0  0  0  0  3  0  0  0  0  0  0
  -17.4610  -27.6040   23.5080 C   0  0  0  0  0  3  0  0  0  0  0  0
  -16.4090  -26.7850   23.0640 C   0  0  0  0  0  3  0  0  0  0  0  0
  -16.6710  -25.7330   22.1680 C   0  0  0  0  0  3  0  0  0  0  0  0
  -25.6030  -30.5230   22.4080 C   0  0  0  0  0  3  0  0  0  0  0  0
  -26.5490  -29.4340   23.0450 C   0  0  1  0  0  0  0  0  0  0  0  0
  -25.8740  -28.6010   24.1600 C   0  0  0  0  0  1  0  0  0  0  0  0
  -27.0560  -28.4500   21.9650 C   0  0  0  0  0  1  0  0  0  0  0  0
  -27.8010  -30.1140   23.6460 C   0  0  0  0  0  1  0  0  0  0  0  0
  -25.3240  -31.5960   23.3720 N   0  0  0  0  0  0  0  0  0  0  0  0
  -25.4800  -32.9030   23.1220 C   0  0  0  0  0  0  0  0  0  0  0  0
  -25.9480  -33.3320   22.0630 O   0  0  0  0  0  0  0  0  0  0  0  0
  -24.8850  -31.3240   24.2400 H   0  0  0  0  0  0  0  0  0  0  0  0
  -23.6840  -34.5020   23.8590 C   0  0  0  0  0  1  0  0  0  0  0  0
  -25.0490  -33.8940   24.2210 C   0  0  0  0  0  3  0  0  0  0  0  0
  -27.2740  -34.5060   25.0590 C   0  0  0  0  0  1  0  0  0  0  0  0
  -26.0300  -34.9770   24.4540 N   0  0  0  0  0  0  0  0  0  0  0  0
  -25.6370  -35.6950   25.0560 H   0  0  0  0  0  0  0  0  0  0  0  0
  1  7  1  0
  2  7  1  0
  3  4  1  0
  3  2  1  0
  5  4  1  0
  5 22  1  0
  5  6  1  0
  7  6  1  0
  8  1  2  0
  9 51  1  0
  9 16  1  0
 10 15  1  0
 11 10  1  0
 12 16  1  0
 12 13  1  0
 13 17  1  0
 14 15  1  0
 15 48  1  0
 16 11  1  0
 17  1  1  0
 17 14  1  0
 18  9  2  0
 19 20  2  0
 20 21  1  0
 20 39  1  0
 21 24  1  0
 22 19  1  0
 22 23  1  0
 23 21  2  0
 24 25  1  0
 25 26  2  0
 27 30  1  0
 27 26  1  0
 28 27  2  0
 29 28  1  0
 29 24  2  0
 30 31  1  0
 31 32  1  0
 32 33  2  0
 34 33  1  0
 34 38  1  0
 35 34  2  0
 36 31  2  0
 36 35  1  0
 37 36  1  0
 39 40  1  0
 40 43  1  0
 40 42  1  0
 41 39  2  0
 44 45  1  0
 44 19  1  0
 46 44  1  0
 48 49  1  0
 48 47  1  0
 48 50  1  0
 52 51  1  0
 53 52  1  0
 54 55  1  0
 54 53  1  0
 55 57  1  0
 56 67  2  0
 57 62  1  0
 58 66  1  0
 58 68  1  0
 59 61  1  0
 59 65  1  0
 60 66  1  0
 61 60  1  0
 62 61  2  0
 63 57  2  0
 63 64  1  0
 64 59  2  0
 65 58  1  0
 66 56  1  0
 68 69  1  0
 68 70  2  0
 71 69  1  0
 72 77  2  0
 72 81  1  0
 73 69  1  0
 73 77  1  0
 74 73  1  0
 75 76  1  0
 75 74  1  0
 76 72  1  0
 77 78  1  0
 78 79  2  0
 80 79  1  0
 81 80  2  0
 82 56  1  0
 82 83  1  0
 82 87  1  0
 83 86  1  1
 83 84  1  0
 85 83  1  0
 87 90  1  0
 88 87  1  0
 88 92  1  0
 89 88  2  0
 92 91  1  0
 92 94  1  0
 94 95  1  0
 94 93  1  0
M  ISO  4   1 100  17 100  54 101  55 101
M  END
>  <TORSDO>  (61) 
F 20

>  <SCORE>  (61) 
-8.012

>  <name>  (61) 
60

>  <ligand_id>  (61) 
60

>  <original_smiles>  (61) 
[H]c1c([H])c([H])c2c(c1[H])C([H])([H])C([H])([H])C([H])([H])C2([H])N([H])C(=O)C1([H])N(C(=O)C([H])(N([H])C(=O)C([H])(N([H])C([H])([H])[H])C([H])([H])[H])C(C([H])([H])[H])(C([H])([H])[H])C([H])([H])[H])C([H])([H])c2c([H])c(OC([H])([H])C([H])([H])C([H])([H])C([H])([H])C(=O)N3C([H])([H])C([H])([H])N(C(=O)N4C([H])([H])C([H])([H])C([H])([H])C([H])(n5nc(-c6c([H])c([H])c(Oc7c([H])c([H])c(F)c([H])c7F)c([H])c6[H])c(C(=O)N([H])[H])c5N([H])[H])C4([H])[H])C([H])([H])C([H])([N+]([H])([H])C([H])([H])[H])C([H])([H])C3([H])[H])c([H])c([H])c2C1([H])[H]

>  <smiles>  (61) 
[H]c1c([H])c([H])c2c(c1[H])C([H])([H])C([H])([H])C([H])([H])C2([H])N([H])C(=O)C1([H])N(C(=O)C([H])(N([H])C(=O)C([H])(N([H])C([H])([H])[H])C([H])([H])[H])C(C([H])([H])[H])(C([H])([H])[H])C([H])([H])[H])C([H])([H])c2c([H])c(OC([H])([H])C([H])([H])C([H])([H])C([H])([H])C(=O)N3C([H])([H])C([H])([H])N(C(=O)N4C([H])([H])C([H])([H])C([H])([H])C([H])(n5nc(-c6c([H])c([H])c(Oc7c([H])c([H])c(F)c([H])c7F)c([H])c6[H])c(C(=O)N([H])[H])c5N([H])[H])C4([H])[H])C([H])([H])C([H])([N+]([H])([H])C([H])([H])[H])C([H])([H])C3([H])[H])c([H])c([H])c2C1([H])[H]

$$$$
61:0:0
     RDKit          3D

 92101  0  0  1  0  0  0  0  0999 V2000
  -29.3760  -19.9870   19.8120 C   0  0  0  0  0  3  0  0  0  0  0  0
  -30.6960  -14.5190   19.7650 C   0  0  0  0  0  0  0  0  0  0  0  0
  -30.1810  -12.4780   18.4430 C   0  0  0  0  0  2  0  0  0  0  0  0
  -29.0820  -12.7490   17.3960 C   0  0  0  0  0  2  0  0  0  0  0  0
  -27.6810  -12.5680   18.0090 C   0  0  0  0  0  2  0  0  0  0  0  0
  -27.5270  -13.3190   19.3560 C   0  0  0  0  0  3  0  0  0  0  0  0
  -28.7140  -13.0240   20.3010 C   0  0  0  0  0  2  0  0  0  0  0  0
  -29.9580  -13.3770   19.5930 N   0  0  0  0  0  0  0  0  0  0  0  0
  -31.7070  -14.7530   19.0940 O   0  0  0  0  0  0  0  0  0  0  0  0
  -32.0170  -16.6320   22.1540 C   0  0  0  0  0  2  0  0  0  0  0  0
  -29.8010  -17.9170   22.5500 C   0  0  0  0  0  2  0  0  0  0  0  0
  -31.1100  -15.3920   22.0010 C   0  0  0  0  0  2  0  0  0  0  0  0
  -29.1450  -16.2990   20.6300 C   0  0  0  0  0  2  0  0  0  0  0  0
  -31.3600  -18.8580   20.9900 C   0  0  0  0  0  2  0  0  0  0  0  0
  -31.3050  -18.0040   22.2750 C   0  0  0  0  0  3  0  0  0  0  0  0
  -29.2210  -17.7920   21.1460 C   0  0  0  0  0  3  0  0  0  0  0  0
  -30.3200  -15.3780   20.7570 N   0  0  0  0  0  0  0  0  0  0  0  0
  -30.0460  -18.7180   20.3120 N   0  0  1  0  0  4  0  0  0  0  0  0
  -30.2380  -18.1980   19.4680 H   0  0  0  0  0  0  0  0  0  0  0  0
  -25.2370  -13.9100   20.3660 C   0  0  0  0  0  0  0  0  0  0  0  0
  -24.2120  -13.1290   20.8340 C   0  0  0  0  0  0  0  0  0  0  0  0
  -24.6520  -11.7780   20.6910 C   0  0  0  0  0  0  0  0  0  0  0  0
  -26.2380  -13.0340   19.9810 N   0  0  0  0  0  0  0  0  0  0  0  0
  -25.8960  -11.7440   20.2300 N   0  0  0  0  0  0  0  0  0  0  0  0
  -23.9400  -10.5130   20.9150 C   0  0  0  0  0  0  0  0  0  0  0  0
  -24.4280   -9.5470   21.8210 C   0  0  0  0  0  3  0  0  0  0  0  0
  -23.7190   -8.3440   22.0330 C   0  0  0  0  0  3  0  0  0  0  0  0
  -22.5090   -8.1030   21.3430 C   0  0  0  0  0  0  0  0  0  0  0  0
  -22.0440   -9.0580   20.4200 C   0  0  0  0  0  3  0  0  0  0  0  0
  -22.7530  -10.2510   20.2050 C   0  0  0  0  0  3  0  0  0  0  0  0
  -21.7650   -6.9550   21.4680 O   0  0  0  0  0  0  0  0  0  0  0  0
  -21.7060   -6.2580   22.6500 C   0  0  0  0  0  0  0  0  0  0  0  0
  -21.2630   -6.8590   23.8490 C   0  0  0  0  0  3  0  0  0  0  0  0
  -21.1570   -6.0900   25.0230 C   0  0  0  0  0  3  0  0  0  0  0  0
  -21.4830   -4.7190   25.0010 C   0  0  0  0  0  0  0  0  0  0  0  0
  -21.9180   -4.1190   23.8080 C   0  0  0  0  0  3  0  0  0  0  0  0
  -22.0280   -4.8870   22.6340 C   0  0  0  0  0  0  0  0  0  0  0  0
  -22.4290   -4.2980   21.4810 F   0  0  0  0  0  0  0  0  0  0  0  0
  -21.3730   -3.9790   26.1280 F   0  0  0  0  0  0  0  0  0  0  0  0
  -22.8640  -13.6020   21.2930 C   0  0  0  0  0  0  0  0  0  0  0  0
  -22.2510  -12.8860   22.2330 N   0  0  0  0  0  0  0  0  0  0  0  0
  -22.3680  -14.6400   20.8570 O   0  0  0  0  0  0  0  0  0  0  0  0
  -22.6720  -12.0480   22.6060 H   0  0  0  0  0  0  0  0  0  0  0  0
  -21.3470  -13.1730   22.5770 H   0  0  0  0  0  0  0  0  0  0  0  0
  -25.3930  -15.2840   20.2100 N   0  0  0  0  0  0  0  0  0  0  0  0
  -24.6350  -15.9350   20.3860 H   0  0  0  0  0  0  0  0  0  0  0  0
  -26.1710  -15.7070   19.7230 H   0  0  0  0  0  0  0  0  0  0  0  0
  -29.5310  -21.3420   20.6130 C   0  0  0  0  0  3  0  0  0  0  0  0
  -28.6340  -22.5360   20.1180 C   0  0  0  0  0  2  0  0  0  0  0  0
  -28.9650  -23.9800   20.6560 C   0  0  0  0  0  2  0  0  0  0  0  0
  -27.9510  -25.0820   20.2000 C   0  0  0  0  0  2  0  0  0  0  0  0
  -28.2210  -26.4860   20.5250 O   0  0  0  0  0  0  0  0  0  0  0  0
  -24.5960  -31.9710   23.4200 C   0  0  0  0  0  0  0  0  0  0  0  0
  -27.1330  -27.3580   20.4220 C   0  0  0  0  0  0  0  0  0  0  0  0
  -23.3810  -30.5840   21.7800 C   0  0  0  0  0  3  0  0  0  0  0  0
  -24.8140  -29.0120   20.3700 C   0  0  0  0  0  0  0  0  0  0  0  0
  -25.9290  -30.8520   21.6240 C   0  0  0  0  0  2  0  0  0  0  0  0
  -25.9830  -29.4740   20.9840 C   0  0  0  0  0  0  0  0  0  0  0  0
  -27.1480  -28.6560   21.0080 C   0  0  0  0  0  3  0  0  0  0  0  0
  -25.9450  -26.9540   19.7630 C   0  0  0  0  0  3  0  0  0  0  0  0
  -24.7950  -27.7580   19.7510 C   0  0  0  0  0  3  0  0  0  0  0  0
  -23.5950  -29.9080   20.4020 C   0  0  0  0  0  2  0  0  0  0  0  0
  -24.6540  -31.1510   22.3300 N   0  0  0  0  0  0  0  0  0  0  0  0
  -23.5130  -32.2750   23.9390 O   0  0  0  0  0  0  0  0  0  0  0  0
  -22.6940  -29.5780   22.7350 C   0  0  0  0  0  0  0  0  0  0  0  0
  -21.3750  -29.3890   22.5670 N   0  0  0  0  0  0  0  0  0  0  0  0
  -23.3490  -28.9720   23.5870 O   0  0  0  0  0  0  0  0  0  0  0  0
  -20.9120  -29.9340   21.8540 H   0  0  0  0  0  0  0  0  0  0  0  0
  -17.9910  -28.1790   22.9390 C   0  0  0  0  0  0  0  0  0  0  0  0
  -20.5290  -28.4700   23.3280 C   0  0  0  0  0  3  0  0  0  0  0  0
  -20.6730  -27.0220   22.8060 C   0  0  0  0  0  2  0  0  0  0  0  0
  -19.6250  -26.6530   21.7520 C   0  0  0  0  0  2  0  0  0  0  0  0
  -18.2110  -26.8070   22.3210 C   0  0  0  0  0  2  0  0  0  0  0  0
  -19.0820  -28.9660   23.3960 C   0  0  0  0  0  0  0  0  0  0  0  0
  -18.8250  -30.2460   23.9310 C   0  0  0  0  0  3  0  0  0  0  0  0
  -17.5110  -30.7420   24.0130 C   0  0  0  0  0  3  0  0  0  0  0  0
  -16.4330  -29.9530   23.5760 C   0  0  0  0  0  3  0  0  0  0  0  0
  -16.6730  -28.6730   23.0430 C   0  0  0  0  0  3  0  0  0  0  0  0
  -25.8870  -32.5770   24.0490 C   0  0  0  0  0  3  0  0  0  0  0  0
  -26.3450  -31.8380   25.3650 C   0  0  1  0  0  0  0  0  0  0  0  0
  -25.2130  -31.6610   26.4040 C   0  0  0  0  0  1  0  0  0  0  0  0
  -26.9070  -30.4370   25.0310 C   0  0  0  0  0  1  0  0  0  0  0  0
  -27.4920  -32.6280   26.0390 C   0  0  0  0  0  1  0  0  0  0  0  0
  -25.6200  -33.9980   24.3190 N   0  0  0  0  0  0  0  0  0  0  0  0
  -25.9890  -35.0080   23.5210 C   0  0  0  0  0  0  0  0  0  0  0  0
  -26.6550  -34.8420   22.4960 O   0  0  0  0  0  0  0  0  0  0  0  0
  -25.0350  -34.2050   25.1140 H   0  0  0  0  0  0  0  0  0  0  0  0
  -24.3070  -36.8270   23.0860 C   0  0  0  0  0  1  0  0  0  0  0  0
  -25.5370  -36.4260   23.9160 C   0  0  0  0  0  3  0  0  0  0  0  0
  -27.6940  -37.2840   24.7110 C   0  0  0  0  0  1  0  0  0  0  0  0
  -26.5960  -37.4440   23.7620 N   0  0  0  0  0  0  0  0  0  0  0  0
  -26.2170  -38.3810   23.8710 H   0  0  0  0  0  0  0  0  0  0  0  0
  1 18  1  0
  1 48  2  0
  2 17  1  0
  3  8  1  0
  4  5  1  0
  4  3  1  0
  6  5  1  0
  6 23  1  0
  6  7  1  0
  8  2  1  0
  8  7  1  0
  9  2  2  0
 10 15  1  0
 12 10  1  0
 13 17  1  0
 15 14  1  0
 15 11  1  0
 16 13  1  0
 16 11  1  0
 17 12  1  0
 18 14  1  0
 18 16  1  0
 18 19  1  6
 20 21  2  0
 21 40  1  0
 22 21  1  0
 22 25  1  0
 23 24  1  0
 23 20  1  0
 24 22  2  0
 25 26  1  0
 26 27  2  0
 28 31  1  0
 28 27  1  0
 29 28  2  0
 30 29  1  0
 30 25  2  0
 31 32  1  0
 32 33  1  0
 33 34  2  0
 35 34  1  0
 35 39  1  0
 36 35  2  0
 37 32  2  0
 37 36  1  0
 38 37  1  0
 40 41  1  0
 41 44  1  0
 41 43  1  0
 42 40  2  0
 45 20  1  0
 45 46  1  0
 47 45  1  0
 49 48  1  0
 49 50  1  0
 51 52  1  0
 51 50  1  0
 53 64  2  0
 54 52  1  0
 54 59  1  0
 55 63  1  0
 55 65  1  0
 56 62  1  0
 56 58  1  0
 57 63  1  0
 58 59  2  0
 58 57  1  0
 60 54  2  0
 61 60  1  0
 61 56  2  0
 62 55  1  0
 63 53  1  0
 65 67  2  0
 66 65  1  0
 68 66  1  0
 69 78  2  0
 69 74  1  0
 70 66  1  0
 70 74  1  0
 71 70  1  0
 72 73  1  0
 72 71  1  0
 73 69  1  0
 74 75  2  0
 75 76  1  0
 77 76  2  0
 78 77  1  0
 79 53  1  0
 79 84  1  0
 79 80  1  0
 80 83  1  1
 80 81  1  0
 82 80  1  0
 84 87  1  0
 85 89  1  0
 85 84  1  0
 86 85  2  0
 89 88  1  0
 91 92  1  0
 91 89  1  0
 91 90  1  0
M  ISO  4   2 100  17 100  51 101  52 101
M  END
>  <TORSDO>  (62) 
F 20

>  <SCORE>  (62) 
-10.257

>  <name>  (62) 
61

>  <ligand_id>  (62) 
61

>  <original_smiles>  (62) 
[H]c1c([H])c([H])c2c(c1[H])C([H])([H])C([H])([H])C([H])([H])C2([H])N([H])C(=O)C1([H])N(C(=O)C([H])(N([H])C(=O)C([H])(N([H])C([H])([H])[H])C([H])([H])[H])C(C([H])([H])[H])(C([H])([H])[H])C([H])([H])[H])C([H])([H])c2c([H])c(OC([H])([H])C([H])([H])C([H])([H])C([H])([H])C([H])([H])[N+]3([H])C([H])([H])C4([H])C([H])([H])C([H])([H])N(C(=O)N5C([H])([H])C([H])([H])C([H])([H])C([H])(n6nc(-c7c([H])c([H])c(Oc8c([H])c([H])c(F)c([H])c8F)c([H])c7[H])c(C(=O)N([H])[H])c6N([H])[H])C5([H])[H])C([H])([H])C3([H])C4([H])[H])c([H])c([H])c2C1([H])[H]

>  <smiles>  (62) 
[H]c1c([H])c([H])c2c(c1[H])C([H])([H])C([H])([H])C([H])([H])C2([H])N([H])C(=O)C1([H])N(C(=O)C([H])(N([H])C(=O)C([H])(N([H])C([H])([H])[H])C([H])([H])[H])C(C([H])([H])[H])(C([H])([H])[H])C([H])([H])[H])C([H])([H])c2c([H])c(OC([H])([H])C([H])([H])C([H])([H])C([H])([H])C([H])([H])[N+]3([H])C([H])([H])C4([H])C([H])([H])C([H])([H])N(C(=O)N5C([H])([H])C([H])([H])C([H])([H])C([H])(n6nc(-c7c([H])c([H])c(Oc8c([H])c([H])c(F)c([H])c8F)c([H])c7[H])c(C(=O)N([H])[H])c6N([H])[H])C5([H])[H])C([H])([H])C3([H])C4([H])[H])c([H])c([H])c2C1([H])[H]

$$$$
62:0:0
     RDKit          3D

 97105  0  0  1  0  0  0  0  0999 V2000
  -28.1530  -19.0740   19.2800 C   0  0  0  0  0  0  0  0  0  0  0  0
  -30.4700  -21.3290   20.0330 C   0  0  0  0  0  0  0  0  0  0  0  0
  -29.4510  -18.9250   20.1310 C   0  0  0  0  0  3  0  0  0  0  0  0
  -27.7880  -20.3290   18.4620 C   0  0  0  0  0  3  0  0  0  0  0  0
  -29.6030  -22.0270   18.9670 C   0  0  0  0  0  3  0  0  0  0  0  0
  -26.6910  -21.1860   19.1350 C   0  0  0  0  0  1  0  0  0  0  0  0
  -30.4610  -20.0020   20.2310 N   0  0  0  0  0  0  0  0  0  0  0  0
  -28.9940  -21.0630   18.0200 N   0  0  0  0  0  4  0  0  0  0  0  0
  -27.3460  -18.1400   19.2950 O   0  0  0  0  0  0  0  0  0  0  0  0
  -31.2590  -21.9990   20.6940 O   0  0  0  0  0  0  0  0  0  0  0  0
  -31.2360  -19.7300   20.8180 H   0  0  0  0  0  0  0  0  0  0  0  0
  -28.7130  -21.5940   17.2130 H   0  0  0  0  0  0  0  0  0  0  0  0
  -29.6970  -20.4070   17.7130 H   0  0  0  0  0  0  0  0  0  0  0  0
  -30.0830  -17.4780   19.9310 C   0  0  0  0  0  2  0  0  0  0  0  0
  -31.5320  -16.9250   20.2570 C   0  0  0  0  0  2  0  0  0  0  0  0
  -32.1400  -14.4690   20.5290 C   0  0  0  0  0  0  0  0  0  0  0  0
  -31.8960  -12.0350   20.1960 C   0  0  0  0  0  2  0  0  0  0  0  0
  -31.0410  -11.8200   18.9280 C   0  0  0  0  0  2  0  0  0  0  0  0
  -29.5350  -11.8590   19.2680 C   0  0  0  0  0  2  0  0  0  0  0  0
  -29.1480  -13.0930   20.1300 C   0  0  0  0  0  3  0  0  0  0  0  0
  -30.1100  -13.2250   21.3310 C   0  0  0  0  0  2  0  0  0  0  0  0
  -31.4890  -13.3110   20.8030 N   0  0  0  0  0  0  0  0  0  0  0  0
  -33.2540  -14.5260   19.9950 O   0  0  0  0  0  0  0  0  0  0  0  0
  -31.3930  -15.5600   20.7730 N   0  0  0  0  0  0  0  0  0  0  0  0
  -30.5150  -15.3710   21.2350 H   0  0  0  0  0  0  0  0  0  0  0  0
  -26.8840  -14.0600   20.8890 C   0  0  0  0  0  0  0  0  0  0  0  0
  -25.6840  -13.4630   21.1760 C   0  0  0  0  0  0  0  0  0  0  0  0
  -25.8950  -12.0630   21.0070 C   0  0  0  0  0  0  0  0  0  0  0  0
  -27.7550  -13.0280   20.5690 N   0  0  0  0  0  0  0  0  0  0  0  0
  -27.1600  -11.8160   20.6900 N   0  0  0  0  0  0  0  0  0  0  0  0
  -24.9480  -10.9430   21.0720 C   0  0  0  0  0  0  0  0  0  0  0  0
  -25.1790   -9.8280   21.9090 C   0  0  0  0  0  3  0  0  0  0  0  0
  -24.2460   -8.7720   21.9670 C   0  0  0  0  0  3  0  0  0  0  0  0
  -23.0680   -8.8240   21.1840 C   0  0  0  0  0  0  0  0  0  0  0  0
  -22.8540   -9.9220   20.3360 C   0  0  0  0  0  3  0  0  0  0  0  0
  -23.7850  -10.9710   20.2740 C   0  0  0  0  0  3  0  0  0  0  0  0
  -22.1190   -7.8320   21.1550 O   0  0  0  0  0  0  0  0  0  0  0  0
  -21.9220   -6.9930   22.2220 C   0  0  0  0  0  0  0  0  0  0  0  0
  -21.5140   -7.4790   23.4840 C   0  0  0  0  0  3  0  0  0  0  0  0
  -21.2540   -6.5740   24.5330 C   0  0  0  0  0  3  0  0  0  0  0  0
  -21.3940   -5.1900   24.3230 C   0  0  0  0  0  0  0  0  0  0  0  0
  -21.7980   -4.7060   23.0660 C   0  0  0  0  0  3  0  0  0  0  0  0
  -22.0580   -5.6050   22.0180 C   0  0  0  0  0  0  0  0  0  0  0  0
  -22.4250   -5.1350   20.8020 F   0  0  0  0  0  0  0  0  0  0  0  0
  -21.1370   -4.3210   25.3290 F   0  0  0  0  0  0  0  0  0  0  0  0
  -24.3940  -14.1580   21.5010 C   0  0  0  0  0  0  0  0  0  0  0  0
  -23.5560  -13.5330   22.3250 N   0  0  0  0  0  0  0  0  0  0  0  0
  -24.1460  -15.2830   21.0690 O   0  0  0  0  0  0  0  0  0  0  0  0
  -23.7670  -12.6160   22.6880 H   0  0  0  0  0  0  0  0  0  0  0  0
  -22.6910  -13.9790   22.5960 H   0  0  0  0  0  0  0  0  0  0  0  0
  -27.2970  -15.3840   20.8640 N   0  0  0  0  0  0  0  0  0  0  0  0
  -26.6860  -16.1470   21.1360 H   0  0  0  0  0  0  0  0  0  0  0  0
  -28.2560  -15.6820   20.7510 H   0  0  0  0  0  0  0  0  0  0  0  0
  -30.4370  -23.0770   18.1710 C   0  0  0  0  0  2  0  0  0  0  0  0
  -30.4130  -24.5280   18.7090 C   0  0  0  0  0  2  0  0  0  0  0  0
  -30.6480  -25.5540   17.5790 C   0  0  0  0  0  2  0  0  0  0  0  0
  -30.3280  -26.8920   17.9620 O   0  0  0  0  0  0  0  0  0  0  0  0
  -25.8840  -29.0580   23.0440 C   0  0  0  0  0  0  0  0  0  0  0  0
  -29.0190  -27.2240   18.2540 C   0  0  0  0  0  0  0  0  0  0  0  0
  -24.8110  -28.3220   20.9400 C   0  0  0  0  0  3  0  0  0  0  0  0
  -26.3780  -27.9700   18.9620 C   0  0  0  0  0  0  0  0  0  0  0  0
  -27.1790  -29.2960   20.9310 C   0  0  0  0  0  2  0  0  0  0  0  0
  -27.4620  -28.4230   19.7240 C   0  0  0  0  0  0  0  0  0  0  0  0
  -28.7780  -28.0510   19.3740 C   0  0  0  0  0  3  0  0  0  0  0  0
  -27.9090  -26.7810   17.4950 C   0  0  0  0  0  3  0  0  0  0  0  0
  -26.5970  -27.1470   17.8450 C   0  0  0  0  0  3  0  0  0  0  0  0
  -25.0010  -28.4100   19.4020 C   0  0  0  0  0  2  0  0  0  0  0  0
  -25.9780  -28.8800   21.6970 N   0  0  0  0  0  0  0  0  0  0  0  0
  -24.8380  -28.8020   23.6520 O   0  0  0  0  0  0  0  0  0  0  0  0
  -24.4850  -26.8590   21.3160 C   0  0  0  0  0  0  0  0  0  0  0  0
  -23.2780  -26.4060   20.9430 N   0  0  0  0  0  0  0  0  0  0  0  0
  -25.3100  -26.1540   21.9020 O   0  0  0  0  0  0  0  0  0  0  0  0
  -22.6510  -27.0470   20.4790 H   0  0  0  0  0  0  0  0  0  0  0  0
  -20.4760  -24.2250   20.2830 C   0  0  0  0  0  0  0  0  0  0  0  0
  -22.7690  -25.0520   21.1440 C   0  0  0  0  0  3  0  0  0  0  0  0
  -23.3990  -24.0700   20.1280 C   0  0  0  0  0  2  0  0  0  0  0  0
  -22.5480  -23.8700   18.8710 C   0  0  0  0  0  2  0  0  0  0  0  0
  -21.1490  -23.3560   19.2290 C   0  0  0  0  0  2  0  0  0  0  0  0
  -21.2370  -25.0320   21.1670 C   0  0  0  0  0  0  0  0  0  0  0  0
  -20.5610  -25.8490   22.0960 C   0  0  0  0  0  3  0  0  0  0  0  0
  -19.1570  -25.8590   22.1650 C   0  0  0  0  0  3  0  0  0  0  0  0
  -18.4070  -25.0400   21.3060 C   0  0  0  0  0  3  0  0  0  0  0  0
  -19.0650  -24.2260   20.3640 C   0  0  0  0  0  3  0  0  0  0  0  0
  -27.0850  -29.6060   23.8770 C   0  0  0  0  0  3  0  0  0  0  0  0
  -26.6230  -30.8210   24.5580 N   0  0  0  0  0  0  0  0  0  0  0  0
  -27.0100  -32.0640   24.2450 C   0  0  0  0  0  0  0  0  0  0  0  0
  -27.8650  -32.3020   23.3860 O   0  0  0  0  0  0  0  0  0  0  0  0
  -25.8770  -30.7010   25.2270 H   0  0  0  0  0  0  0  0  0  0  0  0
  -25.3260  -33.9190   24.0990 C   0  0  0  0  0  1  0  0  0  0  0  0
  -26.3520  -33.2260   25.0050 C   0  0  0  0  0  3  0  0  0  0  0  0
  -28.1520  -33.7160   26.6020 C   0  0  0  0  0  1  0  0  0  0  0  0
  -27.3190  -34.2210   25.5150 N   0  0  0  0  0  0  0  0  0  0  0  0
  -26.8380  -35.0510   25.8470 H   0  0  0  0  0  0  0  0  0  0  0  0
  -27.6520  -28.5600   24.9150 C   0  0  1  0  0  0  0  0  0  0  0  0
  -26.5670  -27.9460   25.8310 C   0  0  0  0  0  1  0  0  0  0  0  0
  -28.3690  -27.3980   24.1880 C   0  0  0  0  0  1  0  0  0  0  0  0
  -28.7110  -29.2380   25.8160 C   0  0  0  0  0  1  0  0  0  0  0  0
  1  9  2  0
  1  3  1  0
  2  7  1  0
  2 10  2  0
  3 14  1  0
  3  7  1  0
  4  6  1  0
  4  1  1  0
  5 54  1  0
  5  2  1  0
  7 11  1  0
  8  4  1  0
  8  5  1  0
 12  8  1  0
 13  8  1  0
 14 15  1  0
 15 24  1  0
 16 24  1  0
 16 22  1  0
 17 22  1  0
 18 19  1  0
 18 17  1  0
 20 19  1  0
 20 29  1  0
 20 21  1  0
 22 21  1  0
 23 16  2  0
 24 25  1  0
 26 27  2  0
 27 46  1  0
 28 31  1  0
 28 27  1  0
 29 30  1  0
 29 26  1  0
 30 28  2  0
 31 32  1  0
 32 33  2  0
 34 33  1  0
 35 34  2  0
 36 35  1  0
 36 31  2  0
 37 34  1  0
 37 38  1  0
 38 39  1  0
 39 40  2  0
 41 40  1  0
 41 45  1  0
 42 41  2  0
 43 38  2  0
 43 42  1  0
 44 43  1  0
 46 47  1  0
 47 50  1  0
 47 49  1  0
 48 46  2  0
 51 26  1  0
 51 52  1  0
 53 51  1  0
 54 55  1  0
 56 57  1  0
 56 55  1  0
 57 59  1  0
 58 69  2  0
 59 64  1  0
 60 70  1  0
 60 68  1  0
 61 67  1  0
 61 63  1  0
 62 68  1  0
 63 62  1  0
 64 63  2  0
 65 66  1  0
 65 59  2  0
 66 61  2  0
 67 60  1  0
 68 58  1  0
 70 72  2  0
 71 70  1  0
 73 71  1  0
 74 83  2  0
 74 79  1  0
 75 71  1  0
 75 79  1  0
 76 75  1  0
 77 78  1  0
 77 76  1  0
 78 74  1  0
 79 80  2  0
 80 81  1  0
 82 81  2  0
 83 82  1  0
 84 58  1  0
 84 85  1  0
 84 94  1  0
 85 88  1  0
 86 85  1  0
 86 90  1  0
 87 86  2  0
 90 89  1  0
 90 92  1  0
 92 93  1  0
 92 91  1  0
 94 97  1  1
 94 95  1  0
 96 94  1  0
M  ISO  4  16 100  24 100  56 101  57 101
M  END
>  <TORSDO>  (63) 
F 21

>  <SCORE>  (63) 
-8.428

>  <name>  (63) 
62

>  <ligand_id>  (63) 
62

>  <original_smiles>  (63) 
[H]c1c([H])c([H])c2c(c1[H])C([H])([H])C([H])([H])C([H])([H])C2([H])N([H])C(=O)C1([H])N(C(=O)C([H])(N([H])C(=O)C([H])(N([H])C([H])([H])[H])C([H])([H])[H])C(C([H])([H])[H])(C([H])([H])[H])C([H])([H])[H])C([H])([H])c2c([H])c(OC([H])([H])C([H])([H])C([H])([H])C3([H])C(=O)N([H])C([H])(C([H])([H])C([H])([H])N([H])C(=O)N4C([H])([H])C([H])([H])C([H])([H])C([H])(n5nc(-c6c([H])c([H])c(Oc7c([H])c([H])c(F)c([H])c7F)c([H])c6[H])c(C(=O)N([H])[H])c5N([H])[H])C4([H])[H])C(=O)C([H])(C([H])([H])[H])[N+]3([H])[H])c([H])c([H])c2C1([H])[H]

>  <smiles>  (63) 
[H]c1c([H])c([H])c2c(c1[H])C([H])([H])C([H])([H])C([H])([H])C2([H])N([H])C(=O)C1([H])N(C(=O)C([H])(N([H])C(=O)C([H])(N([H])C([H])([H])[H])C([H])([H])[H])C(C([H])([H])[H])(C([H])([H])[H])C([H])([H])[H])C([H])([H])c2c([H])c(OC([H])([H])C([H])([H])C([H])([H])C3([H])C(=O)N([H])C([H])(C([H])([H])C([H])([H])N([H])C(=O)N4C([H])([H])C([H])([H])C([H])([H])C([H])(n5nc(-c6c([H])c([H])c(Oc7c([H])c([H])c(F)c([H])c7F)c([H])c6[H])c(C(=O)N([H])[H])c5N([H])[H])C4([H])[H])C(=O)C([H])(C([H])([H])[H])[N+]3([H])[H])c([H])c([H])c2C1([H])[H]

$$$$
63:0:0
     RDKit          3D

 96104  0  0  1  0  0  0  0  0999 V2000
  -29.8460  -23.4820   19.1190 C   0  0  0  0  0  3  0  0  0  0  0  0
  -30.5090  -23.6540   17.7420 C   0  0  0  0  0  0  0  0  0  0  0  0
  -29.7870  -23.3910   16.6600 N   0  0  0  0  0  0  0  0  0  0  0  0
  -31.6710  -24.0450   17.6480 O   0  0  0  0  0  0  0  0  0  0  0  0
  -28.8320  -23.0700   16.7400 H   0  0  0  0  0  0  0  0  0  0  0  0
  -30.1870  -23.5100   15.7390 H   0  0  0  0  0  0  0  0  0  0  0  0
  -30.5540  -22.4030   19.9720 C   0  0  0  0  0  2  0  0  0  0  0  0
  -29.9440  -21.0060   19.7550 C   0  0  0  0  0  2  0  0  0  0  0  0
  -30.6920  -19.8850   20.4950 C   0  0  0  0  0  2  0  0  0  0  0  0
  -30.8320  -14.4960   20.3820 C   0  0  0  0  0  0  0  0  0  0  0  0
  -30.4900  -12.3140   19.3530 C   0  0  0  0  0  2  0  0  0  0  0  0
  -29.5620  -12.5240   18.1400 C   0  0  0  0  0  2  0  0  0  0  0  0
  -28.0840  -12.4050   18.5800 C   0  0  0  0  0  2  0  0  0  0  0  0
  -27.7430  -13.2620   19.8330 C   0  0  0  0  0  3  0  0  0  0  0  0
  -28.8120  -13.0910   20.9380 C   0  0  0  0  0  2  0  0  0  0  0  0
  -30.1310  -13.3360   20.3350 N   0  0  0  0  0  0  0  0  0  0  0  0
  -32.0300  -14.5750   20.0980 O   0  0  0  0  0  0  0  0  0  0  0  0
  -29.8770  -16.3940   21.4780 C   0  0  0  0  0  2  0  0  0  0  0  0
  -29.4150  -17.8530   21.2720 C   0  0  0  0  0  2  0  0  0  0  0  0
  -30.9160  -17.7440   19.2690 C   0  0  0  0  0  2  0  0  0  0  0  0
  -30.2490  -16.3850   18.9930 C   0  0  0  0  0  3  0  0  0  0  0  0
  -28.9310  -16.5020   18.2020 C   0  0  0  0  0  1  0  0  0  0  0  0
  -30.0770  -15.6070   20.2470 N   0  0  0  0  0  0  0  0  0  0  0  0
  -30.0800  -18.5790   20.1530 N   0  0  2  0  0  4  0  0  0  0  0  0
  -29.3020  -18.8370   19.5670 H   0  0  0  0  0  0  0  0  0  0  0  0
  -25.3540  -13.8840   20.5610 C   0  0  0  0  0  0  0  0  0  0  0  0
  -24.2800  -13.1180   20.9200 C   0  0  0  0  0  0  0  0  0  0  0  0
  -24.7300  -11.7630   20.8750 C   0  0  0  0  0  0  0  0  0  0  0  0
  -26.3930  -12.9950   20.3200 N   0  0  0  0  0  0  0  0  0  0  0  0
  -26.0190  -11.7150   20.5640 N   0  0  0  0  0  0  0  0  0  0  0  0
  -23.9960  -10.5040   21.0540 C   0  0  0  0  0  0  0  0  0  0  0  0
  -24.4130   -9.5340   21.9940 C   0  0  0  0  0  3  0  0  0  0  0  0
  -23.6790   -8.3380   22.1610 C   0  0  0  0  0  3  0  0  0  0  0  0
  -22.5180   -8.1040   21.3850 C   0  0  0  0  0  0  0  0  0  0  0  0
  -22.1200   -9.0660   20.4380 C   0  0  0  0  0  3  0  0  0  0  0  0
  -22.8530  -10.2520   20.2710 C   0  0  0  0  0  3  0  0  0  0  0  0
  -21.7590   -6.9610   21.4590 O   0  0  0  0  0  0  0  0  0  0  0  0
  -21.6650   -6.2380   22.6200 C   0  0  0  0  0  0  0  0  0  0  0  0
  -21.1670   -6.8020   23.8150 C   0  0  0  0  0  3  0  0  0  0  0  0
  -21.0270   -6.0010   24.9660 C   0  0  0  0  0  3  0  0  0  0  0  0
  -21.3710   -4.6360   24.9190 C   0  0  0  0  0  0  0  0  0  0  0  0
  -21.8620   -4.0720   23.7290 C   0  0  0  0  0  3  0  0  0  0  0  0
  -22.0070   -4.8710   22.5820 C   0  0  0  0  0  0  0  0  0  0  0  0
  -22.4600   -4.3190   21.4290 F   0  0  0  0  0  0  0  0  0  0  0  0
  -21.2290   -3.8640   26.0200 F   0  0  0  0  0  0  0  0  0  0  0  0
  -22.8870  -13.6110   21.1890 C   0  0  0  0  0  0  0  0  0  0  0  0
  -22.1440  -12.9240   22.0480 N   0  0  0  0  0  0  0  0  0  0  0  0
  -22.4650  -14.6450   20.6760 O   0  0  0  0  0  0  0  0  0  0  0  0
  -22.4930  -12.0940   22.5030 H   0  0  0  0  0  0  0  0  0  0  0  0
  -21.2120  -13.2530   22.2580 H   0  0  0  0  0  0  0  0  0  0  0  0
  -25.5260  -15.2540   20.3950 N   0  0  0  0  0  0  0  0  0  0  0  0
  -24.7650  -15.9130   20.5160 H   0  0  0  0  0  0  0  0  0  0  0  0
  -26.3750  -15.6830   20.0530 H   0  0  0  0  0  0  0  0  0  0  0  0
  -29.7580  -24.8490   19.8360 C   0  0  0  0  0  2  0  0  0  0  0  0
  -28.5410  -25.6410   19.3510 C   0  0  0  0  0  2  0  0  0  0  0  0
  -28.4200  -26.8280   20.1210 O   0  0  0  0  0  0  0  0  0  0  0  0
  -24.5260  -31.8870   23.2260 C   0  0  0  0  0  0  0  0  0  0  0  0
  -27.2160  -27.4980   20.1100 C   0  0  0  0  0  0  0  0  0  0  0  0
  -23.3400  -30.4910   21.5660 C   0  0  0  0  0  3  0  0  0  0  0  0
  -24.8070  -28.9770   20.1420 C   0  0  0  0  0  0  0  0  0  0  0  0
  -25.8630  -30.8640   21.3930 C   0  0  0  0  0  2  0  0  0  0  0  0
  -25.9540  -29.4980   20.7470 C   0  0  0  0  0  0  0  0  0  0  0  0
  -27.1540  -28.7560   20.7490 C   0  0  0  0  0  3  0  0  0  0  0  0
  -26.0440  -26.9940   19.4920 C   0  0  0  0  0  3  0  0  0  0  0  0
  -24.8430  -27.7190   19.5250 C   0  0  0  0  0  3  0  0  0  0  0  0
  -23.5640  -29.8340   20.1800 C   0  0  0  0  0  2  0  0  0  0  0  0
  -24.5940  -31.0930   22.1210 N   0  0  0  0  0  0  0  0  0  0  0  0
  -23.4410  -32.1520   23.7580 O   0  0  0  0  0  0  0  0  0  0  0  0
  -22.6880  -29.4570   22.5080 C   0  0  0  0  0  0  0  0  0  0  0  0
  -21.3660  -29.2760   22.3760 N   0  0  0  0  0  0  0  0  0  0  0  0
  -23.3700  -28.8200   23.3190 O   0  0  0  0  0  0  0  0  0  0  0  0
  -20.8750  -29.8430   21.6970 H   0  0  0  0  0  0  0  0  0  0  0  0
  -17.9810  -28.1130   22.8730 C   0  0  0  0  0  0  0  0  0  0  0  0
  -20.5440  -28.3350   23.1360 C   0  0  0  0  0  3  0  0  0  0  0  0
  -20.6250  -26.9130   22.5310 C   0  0  0  0  0  2  0  0  0  0  0  0
  -19.5120  -26.6250   21.5200 C   0  0  0  0  0  2  0  0  0  0  0  0
  -18.1380  -26.7740   22.1750 C   0  0  0  0  0  2  0  0  0  0  0  0
  -19.1130  -28.8530   23.3110 C   0  0  0  0  0  0  0  0  0  0  0  0
  -18.9130  -30.1090   23.9230 C   0  0  0  0  0  3  0  0  0  0  0  0
  -17.6160  -30.6230   24.1080 C   0  0  0  0  0  3  0  0  0  0  0  0
  -16.5000  -29.8800   23.6850 C   0  0  0  0  0  3  0  0  0  0  0  0
  -16.6840  -28.6280   23.0730 C   0  0  0  0  0  3  0  0  0  0  0  0
  -25.8080  -32.5180   23.8540 C   0  0  0  0  0  3  0  0  0  0  0  0
  -25.4980  -33.9170   24.1710 N   0  0  0  0  0  0  0  0  0  0  0  0
  -25.8440  -34.9620   23.4080 C   0  0  0  0  0  0  0  0  0  0  0  0
  -26.5280  -34.8500   22.3880 O   0  0  0  0  0  0  0  0  0  0  0  0
  -24.8860  -34.0790   24.9580 H   0  0  0  0  0  0  0  0  0  0  0  0
  -24.1280  -36.7570   23.0070 C   0  0  0  0  0  1  0  0  0  0  0  0
  -25.3500  -36.3530   23.8460 C   0  0  0  0  0  3  0  0  0  0  0  0
  -27.4660  -37.2350   24.7220 C   0  0  0  0  0  1  0  0  0  0  0  0
  -26.3870  -37.4030   23.7540 N   0  0  0  0  0  0  0  0  0  0  0  0
  -25.9790  -38.3240   23.8930 H   0  0  0  0  0  0  0  0  0  0  0  0
  -26.3130  -31.7500   25.1370 C   0  0  1  0  0  0  0  0  0  0  0  0
  -25.2130  -31.5140   26.1960 C   0  0  0  0  0  1  0  0  0  0  0  0
  -26.8990  -30.3710   24.7510 C   0  0  0  0  0  1  0  0  0  0  0  0
  -27.4560  -32.5450   25.8090 C   0  0  0  0  0  1  0  0  0  0  0  0
  1 54  1  0
  1  7  1  0
  2  1  1  0
  3  5  1  0
  3  2  1  0
  4  2  2  0
  6  3  1  0
  8  7  1  0
  8  9  1  0
 11 16  1  0
 12 13  1  0
 12 11  1  0
 14 13  1  0
 14 29  1  0
 14 15  1  0
 16 10  1  0
 16 15  1  0
 17 10  2  0
 19 18  1  0
 20 24  1  0
 21 22  1  0
 21 20  1  0
 21 23  1  0
 23 10  1  0
 23 18  1  0
 24  9  1  0
 24 19  1  0
 24 25  1  6
 26 27  2  0
 27 46  1  0
 28 27  1  0
 28 31  1  0
 29 26  1  0
 29 30  1  0
 30 28  2  0
 31 32  1  0
 32 33  2  0
 34 37  1  0
 34 33  1  0
 35 34  2  0
 36 35  1  0
 36 31  2  0
 37 38  1  0
 38 39  1  0
 39 40  2  0
 41 40  1  0
 41 45  1  0
 42 41  2  0
 43 38  2  0
 43 42  1  0
 44 43  1  0
 46 47  1  0
 47 50  1  0
 47 49  1  0
 48 46  2  0
 51 52  1  0
 51 26  1  0
 53 51  1  0
 55 54  1  0
 55 56  1  0
 57 68  2  0
 58 56  1  0
 58 63  1  0
 59 67  1  0
 59 69  1  0
 60 66  1  0
 60 62  1  0
 61 67  1  0
 62 63  2  0
 62 61  1  0
 64 65  1  0
 64 58  2  0
 65 60  2  0
 66 59  1  0
 67 57  1  0
 69 71  2  0
 70 69  1  0
 72 70  1  0
 73 82  2  0
 73 78  1  0
 74 70  1  0
 74 78  1  0
 75 74  1  0
 76 77  1  0
 76 75  1  0
 77 73  1  0
 78 79  2  0
 79 80  1  0
 81 80  2  0
 82 81  1  0
 83 57  1  0
 83 84  1  0
 83 93  1  0
 84 87  1  0
 85 89  1  0
 85 84  1  0
 86 85  2  0
 89 88  1  0
 91 89  1  0
 91 92  1  0
 91 90  1  0
 93 96  1  1
 93 94  1  0
 95 93  1  0
M  ISO  4  10 100  23 100  55 101  56 101
M  END
>  <TORSDO>  (64) 
F 22

>  <SCORE>  (64) 
-12.405

>  <name>  (64) 
63

>  <ligand_id>  (64) 
63

>  <original_smiles>  (64) 
[H]c1c([H])c([H])c2c(c1[H])C([H])([H])C([H])([H])C([H])([H])C2([H])N([H])C(=O)C1([H])N(C(=O)C([H])(N([H])C(=O)C([H])(N([H])C([H])([H])[H])C([H])([H])[H])C(C([H])([H])[H])(C([H])([H])[H])C([H])([H])[H])C([H])([H])c2c([H])c(OC([H])([H])C([H])([H])C([H])(C(=O)N([H])[H])C([H])([H])C([H])([H])C([H])([H])[N+]3([H])C([H])([H])C([H])([H])N(C(=O)N4C([H])([H])C([H])([H])C([H])([H])C([H])(n5nc(-c6c([H])c([H])c(Oc7c([H])c([H])c(F)c([H])c7F)c([H])c6[H])c(C(=O)N([H])[H])c5N([H])[H])C4([H])[H])C([H])(C([H])([H])[H])C3([H])[H])c([H])c([H])c2C1([H])[H]

>  <smiles>  (64) 
[H]c1c([H])c([H])c2c(c1[H])C([H])([H])C([H])([H])C([H])([H])C2([H])N([H])C(=O)C1([H])N(C(=O)C([H])(N([H])C(=O)C([H])(N([H])C([H])([H])[H])C([H])([H])[H])C(C([H])([H])[H])(C([H])([H])[H])C([H])([H])[H])C([H])([H])c2c([H])c(OC([H])([H])C([H])([H])C([H])(C(=O)N([H])[H])C([H])([H])C([H])([H])C([H])([H])[N+]3([H])C([H])([H])C([H])([H])N(C(=O)N4C([H])([H])C([H])([H])C([H])([H])C([H])(n5nc(-c6c([H])c([H])c(Oc7c([H])c([H])c(F)c([H])c7F)c([H])c6[H])c(C(=O)N([H])[H])c5N([H])[H])C4([H])[H])C([H])(C([H])([H])[H])C3([H])[H])c([H])c([H])c2C1([H])[H]

$$$$
64:0:0
     RDKit          3D

 99108  0  0  1  0  0  0  0  0999 V2000
  -33.9490  -22.4490   21.0500 C   0  0  0  0  0  2  0  0  0  0  0  0
  -33.0510  -22.4680   19.8170 C   0  0  0  0  0  2  0  0  0  0  0  0
  -32.0580  -20.9820   21.4070 C   0  0  0  0  0  3  0  0  0  0  0  0
  -33.5580  -21.1450   21.7380 C   0  0  0  0  0  3  0  0  0  0  0  0
  -31.7680  -21.8480   20.2310 N   0  0  1  0  0  4  0  0  0  0  0  0
  -31.4620  -21.2330   19.4920 H   0  0  0  0  0  0  0  0  0  0  0  0
  -31.9540  -18.9410   19.8690 C   0  0  0  0  0  3  0  0  0  0  0  0
  -31.6380  -17.5920   19.6250 C   0  0  0  0  0  3  0  0  0  0  0  0
  -31.0790  -18.7390   22.1270 C   0  0  0  0  0  3  0  0  0  0  0  0
  -31.6810  -19.5260   21.1240 C   0  0  0  0  0  0  0  0  0  0  0  0
  -30.7700  -17.3810   21.8930 C   0  0  0  0  0  0  0  0  0  0  0  0
  -31.0600  -16.7890   20.6380 C   0  0  0  0  0  0  0  0  0  0  0  0
  -30.1370  -16.5630   23.0080 C   0  0  0  0  0  1  0  0  0  0  0  0
  -31.1980  -14.5110   19.5800 C   0  0  0  0  0  0  0  0  0  0  0  0
  -30.7730  -12.3180   18.5310 C   0  0  0  0  0  2  0  0  0  0  0  0
  -29.6840  -12.4490   17.4480 C   0  0  0  0  0  2  0  0  0  0  0  0
  -28.2790  -12.3120   18.0650 C   0  0  0  0  0  2  0  0  0  0  0  0
  -28.0840  -13.2110   19.3140 C   0  0  0  0  0  3  0  0  0  0  0  0
  -29.2680  -13.0450   20.2940 C   0  0  0  0  0  2  0  0  0  0  0  0
  -30.5160  -13.3350   19.5610 N   0  0  0  0  0  0  0  0  0  0  0  0
  -32.1710  -14.7250   18.8520 O   0  0  0  0  0  0  0  0  0  0  0  0
  -30.7180  -15.4170   20.4500 N   0  0  0  0  0  0  0  0  0  0  0  0
  -29.9860  -15.0660   21.0460 H   0  0  0  0  0  0  0  0  0  0  0  0
  -25.8640  -13.8390   20.4610 C   0  0  0  0  0  0  0  0  0  0  0  0
  -24.8170  -13.0770   20.9050 C   0  0  0  0  0  0  0  0  0  0  0  0
  -25.1790  -11.7200   20.6460 C   0  0  0  0  0  0  0  0  0  0  0  0
  -26.8020  -12.9460   19.9670 N   0  0  0  0  0  0  0  0  0  0  0  0
  -26.4000  -11.6590   20.1310 N   0  0  0  0  0  0  0  0  0  0  0  0
  -24.4110  -10.4770   20.8040 C   0  0  0  0  0  0  0  0  0  0  0  0
  -24.7280   -9.5360   21.8070 C   0  0  0  0  0  3  0  0  0  0  0  0
  -23.9640   -8.3580   21.9510 C   0  0  0  0  0  3  0  0  0  0  0  0
  -22.8690   -8.1130   21.0890 C   0  0  0  0  0  0  0  0  0  0  0  0
  -22.5710   -9.0430   20.0780 C   0  0  0  0  0  3  0  0  0  0  0  0
  -23.3350  -10.2130   19.9320 C   0  0  0  0  0  3  0  0  0  0  0  0
  -22.0860   -6.9840   21.1380 O   0  0  0  0  0  0  0  0  0  0  0  0
  -21.6180   -6.4840   22.3270 C   0  0  0  0  0  0  0  0  0  0  0  0
  -20.8250   -7.2600   23.2000 C   0  0  0  0  0  3  0  0  0  0  0  0
  -20.3070   -6.6840   24.3790 C   0  0  0  0  0  3  0  0  0  0  0  0
  -20.5710   -5.3340   24.6790 C   0  0  0  0  0  0  0  0  0  0  0  0
  -21.3560   -4.5590   23.8070 C   0  0  0  0  0  3  0  0  0  0  0  0
  -21.8750   -5.1320   22.6320 C   0  0  0  0  0  0  0  0  0  0  0  0
  -22.6130   -4.3750   21.7850 F   0  0  0  0  0  0  0  0  0  0  0  0
  -20.0670   -4.7790   25.8050 F   0  0  0  0  0  0  0  0  0  0  0  0
  -23.5130  -13.5790   21.4540 C   0  0  0  0  0  0  0  0  0  0  0  0
  -22.9200  -12.8510   22.3930 N   0  0  0  0  0  0  0  0  0  0  0  0
  -23.0340  -14.6510   21.0830 O   0  0  0  0  0  0  0  0  0  0  0  0
  -23.3220  -11.9810   22.7120 H   0  0  0  0  0  0  0  0  0  0  0  0
  -22.0510  -13.1670   22.8000 H   0  0  0  0  0  0  0  0  0  0  0  0
  -26.0890  -15.2120   20.4180 N   0  0  0  0  0  0  0  0  0  0  0  0
  -25.3950  -15.8860   20.7240 H   0  0  0  0  0  0  0  0  0  0  0  0
  -26.9140  -15.6460   20.0210 H   0  0  0  0  0  0  0  0  0  0  0  0
  -33.8810  -21.1140   23.2420 C   0  0  0  0  0  3  0  0  0  0  0  0
  -32.9970  -21.8200   23.9480 F   0  0  0  0  0  0  0  0  0  0  0  0
  -35.1030  -21.5970   23.4650 F   0  0  0  0  0  0  0  0  0  0  0  0
  -30.6770  -22.8350   20.4510 C   0  0  0  0  0  2  0  0  0  0  0  0
  -30.2730  -23.5750   19.1540 C   0  0  0  0  0  2  0  0  0  0  0  0
  -29.4090  -24.8250   19.4110 C   0  0  0  0  0  2  0  0  0  0  0  0
  -29.1720  -25.6530   18.1360 C   0  0  0  0  0  2  0  0  0  0  0  0
  -28.9010  -27.0040   18.5010 O   0  0  0  0  0  0  0  0  0  0  0  0
  -24.6410  -30.6610   22.8220 C   0  0  0  0  0  0  0  0  0  0  0  0
  -27.6200  -27.4820   18.6780 C   0  0  0  0  0  0  0  0  0  0  0  0
  -23.5290  -29.6310   20.8650 C   0  0  0  0  0  3  0  0  0  0  0  0
  -25.0840  -28.6670   19.0900 C   0  0  0  0  0  0  0  0  0  0  0  0
  -26.0000  -30.2780   20.7700 C   0  0  0  0  0  2  0  0  0  0  0  0
  -26.1970  -29.1360   19.7960 C   0  0  0  0  0  0  0  0  0  0  0  0
  -27.4630  -28.5500   19.5890 C   0  0  0  0  0  3  0  0  0  0  0  0
  -26.4820  -27.0110   17.9790 C   0  0  0  0  0  3  0  0  0  0  0  0
  -25.2200  -27.6010   18.1840 C   0  0  0  0  0  3  0  0  0  0  0  0
  -23.7660  -29.3580   19.3560 C   0  0  0  0  0  2  0  0  0  0  0  0
  -24.7420  -30.1900   21.5470 N   0  0  0  0  0  0  0  0  0  0  0  0
  -23.5530  -30.6740   23.4140 O   0  0  0  0  0  0  0  0  0  0  0  0
  -23.0030  -28.3340   21.5190 C   0  0  0  0  0  0  0  0  0  0  0  0
  -21.7000  -28.0640   21.3450 N   0  0  0  0  0  0  0  0  0  0  0  0
  -23.7620  -27.5850   22.1400 O   0  0  0  0  0  0  0  0  0  0  0  0
  -21.1440  -28.7330   20.8310 H   0  0  0  0  0  0  0  0  0  0  0  0
  -18.4510  -26.5040   21.5680 C   0  0  0  0  0  0  0  0  0  0  0  0
  -20.9930  -26.8820   21.8360 C   0  0  0  0  0  3  0  0  0  0  0  0
  -21.1700  -25.6880   20.8720 C   0  0  0  0  0  2  0  0  0  0  0  0
  -20.0460  -25.5760   19.8360 C   0  0  0  0  0  2  0  0  0  0  0  0
  -18.6900  -25.4180   20.5320 C   0  0  0  0  0  2  0  0  0  0  0  0
  -19.5310  -27.2020   22.1690 C   0  0  0  0  0  0  0  0  0  0  0  0
  -19.2530  -28.2260   23.1000 C   0  0  0  0  0  3  0  0  0  0  0  0
  -17.9250  -28.5540   23.4340 C   0  0  0  0  0  3  0  0  0  0  0  0
  -16.8590  -27.8480   22.8490 C   0  0  0  0  0  3  0  0  0  0  0  0
  -17.1230  -26.8230   21.9230 C   0  0  0  0  0  3  0  0  0  0  0  0
  -25.8780  -31.2250   23.5870 C   0  0  0  0  0  3  0  0  0  0  0  0
  -25.5160  -32.5570   24.0910 N   0  0  0  0  0  0  0  0  0  0  0  0
  -25.9200  -33.7110   23.5440 C   0  0  0  0  0  0  0  0  0  0  0  0
  -26.7040  -33.7630   22.5920 O   0  0  0  0  0  0  0  0  0  0  0  0
  -24.8310  -32.5880   24.8320 H   0  0  0  0  0  0  0  0  0  0  0  0
  -24.2550  -35.5720   23.2390 C   0  0  0  0  0  1  0  0  0  0  0  0
  -25.3640  -35.0150   24.1480 C   0  0  0  0  0  3  0  0  0  0  0  0
  -27.3360  -35.7130   25.4310 C   0  0  0  0  0  1  0  0  0  0  0  0
  -26.3980  -36.0500   24.3650 N   0  0  0  0  0  0  0  0  0  0  0  0
  -25.9690  -36.9430   24.5900 H   0  0  0  0  0  0  0  0  0  0  0  0
  -26.3600  -30.2930   24.7660 C   0  0  1  0  0  0  0  0  0  0  0  0
  -25.2270  -29.8770   25.7320 C   0  0  0  0  0  1  0  0  0  0  0  0
  -27.0050  -29.0010   24.2090 C   0  0  0  0  0  1  0  0  0  0  0  0
  -27.4530  -31.0130   25.5910 C   0  0  0  0  0  1  0  0  0  0  0  0
  1  4  1  0
  2  5  1  0
  2  1  1  0
  3 10  1  0
  3  4  1  0
  4 52  1  0
  5 55  1  0
  5  3  1  0
  5  6  1  6
  7 10  1  0
  8  7  2  0
  8 12  1  0
 10  9  2  0
 11  9  1  0
 11 13  1  0
 12 11  2  0
 14 22  1  0
 15 20  1  0
 16 17  1  0
 16 15  1  0
 18 17  1  0
 18 27  1  0
 18 19  1  0
 20 14  1  0
 20 19  1  0
 21 14  2  0
 22 12  1  0
 22 23  1  0
 24 25  2  0
 25 44  1  0
 26 29  1  0
 26 25  1  0
 27 28  1  0
 27 24  1  0
 28 26  2  0
 29 30  1  0
 30 31  2  0
 32 35  1  0
 32 31  1  0
 33 32  2  0
 34 33  1  0
 34 29  2  0
 35 36  1  0
 36 41  2  0
 36 37  1  0
 37 38  2  0
 38 39  1  0
 39 43  1  0
 40 39  2  0
 41 40  1  0
 42 41  1  0
 44 45  1  0
 45 47  1  0
 45 48  1  0
 46 44  2  0
 49 24  1  0
 49 50  1  0
 51 49  1  0
 52 54  1  0
 52 53  1  0
 56 57  1  0
 56 55  1  0
 58 59  1  0
 58 57  1  0
 59 61  1  0
 60 71  2  0
 61 66  1  0
 62 72  1  0
 62 70  1  0
 63 69  1  0
 63 65  1  0
 64 70  1  0
 65 64  1  0
 66 65  2  0
 67 68  1  0
 67 61  2  0
 68 63  2  0
 69 62  1  0
 70 60  1  0
 72 74  2  0
 73 72  1  0
 75 73  1  0
 76 85  2  0
 76 81  1  0
 77 73  1  0
 77 81  1  0
 78 77  1  0
 79 80  1  0
 79 78  1  0
 80 76  1  0
 81 82  2  0
 82 83  1  0
 84 83  2  0
 85 84  1  0
 86 60  1  0
 86 87  1  0
 86 96  1  0
 87 90  1  0
 88 87  1  0
 88 92  1  0
 89 88  2  0
 92 91  1  0
 92 94  1  0
 94 95  1  0
 94 93  1  0
 96 99  1  1
 96 97  1  0
 98 96  1  0
M  ISO  4  14 100  22 100  58 101  59 101
M  END
>  <TORSDO>  (65) 
F 22

>  <SCORE>  (65) 
-6.755

>  <name>  (65) 
64

>  <ligand_id>  (65) 
64

>  <original_smiles>  (65) 
[H]c1c([H])c([H])c2c(c1[H])C([H])([H])C([H])([H])C([H])([H])C2([H])N([H])C(=O)C1([H])N(C(=O)C([H])(N([H])C(=O)C([H])(N([H])C([H])([H])[H])C([H])([H])[H])C(C([H])([H])[H])(C([H])([H])[H])C([H])([H])[H])C([H])([H])c2c([H])c(OC([H])([H])C([H])([H])C([H])([H])C([H])([H])[N+]3([H])C([H])([H])C([H])([H])C([H])(C([H])(F)F)C3([H])c3c([H])c([H])c(N([H])C(=O)N4C([H])([H])C([H])([H])C([H])([H])C([H])(n5nc(-c6c([H])c([H])c(Oc7c([H])c([H])c(F)c([H])c7F)c([H])c6[H])c(C(=O)N([H])[H])c5N([H])[H])C4([H])[H])c(C([H])([H])[H])c3[H])c([H])c([H])c2C1([H])[H]

>  <smiles>  (65) 
[H]c1c([H])c([H])c2c(c1[H])C([H])([H])C([H])([H])C([H])([H])C2([H])N([H])C(=O)C1([H])N(C(=O)C([H])(N([H])C(=O)C([H])(N([H])C([H])([H])[H])C([H])([H])[H])C(C([H])([H])[H])(C([H])([H])[H])C([H])([H])[H])C([H])([H])c2c([H])c(OC([H])([H])C([H])([H])C([H])([H])C([H])([H])[N+]3([H])C([H])([H])C([H])([H])C([H])(C([H])(F)F)C3([H])c3c([H])c([H])c(N([H])C(=O)N4C([H])([H])C([H])([H])C([H])([H])C([H])(n5nc(-c6c([H])c([H])c(Oc7c([H])c([H])c(F)c([H])c7F)c([H])c6[H])c(C(=O)N([H])[H])c5N([H])[H])C4([H])[H])c(C([H])([H])[H])c3[H])c([H])c([H])c2C1([H])[H]

$$$$
65:0:0
     RDKit          3D

 92100  0  0  1  0  0  0  0  0999 V2000
  -31.3710  -20.0460   19.9330 C   0  0  0  0  0  2  0  0  0  0  0  0
  -31.4420  -18.5090   19.9550 C   0  0  0  0  0  3  0  0  0  0  0  0
  -29.9050  -20.3680   20.2350 C   0  0  0  0  0  3  0  0  0  0  0  0
  -30.3540  -18.0610   20.9680 C   0  0  0  0  0  3  0  0  0  0  0  0
  -32.8600  -18.0030   20.2660 C   0  0  0  0  0  1  0  0  0  0  0  0
  -29.4630  -19.2480   21.1000 N   0  0  0  0  0  4  0  0  0  0  0  0
  -28.5100  -19.0030   20.8860 H   0  0  0  0  0  0  0  0  0  0  0  0
  -29.4900  -19.5420   22.0620 H   0  0  0  0  0  0  0  0  0  0  0  0
  -29.6570  -21.7760   20.8720 C   0  0  0  0  0  3  0  0  0  0  0  0
  -29.5400  -22.9660   19.8750 C   0  0  0  0  0  3  0  0  0  0  0  0
  -29.3500  -24.3740   20.5250 C   0  0  0  0  0  2  0  0  0  0  0  0
  -28.4600  -25.3360   19.6920 C   0  0  0  0  0  2  0  0  0  0  0  0
  -28.4150  -26.6930   20.1990 O   0  0  0  0  0  0  0  0  0  0  0  0
  -24.6060  -31.9100   23.2320 C   0  0  0  0  0  0  0  0  0  0  0  0
  -27.2350  -27.4290   20.1450 C   0  0  0  0  0  0  0  0  0  0  0  0
  -23.3940  -30.5100   21.5950 C   0  0  0  0  0  3  0  0  0  0  0  0
  -24.8420  -28.9690   20.1650 C   0  0  0  0  0  0  0  0  0  0  0  0
  -25.9250  -30.8500   21.3990 C   0  0  0  0  0  2  0  0  0  0  0  0
  -26.0050  -29.4780   20.7550 C   0  0  0  0  0  0  0  0  0  0  0  0
  -27.1990  -28.7150   20.7460 C   0  0  0  0  0  3  0  0  0  0  0  0
  -26.0510  -26.9560   19.5290 C   0  0  0  0  0  3  0  0  0  0  0  0
  -24.8620  -27.7090   19.5500 C   0  0  0  0  0  3  0  0  0  0  0  0
  -23.6010  -29.8320   20.2150 C   0  0  0  0  0  2  0  0  0  0  0  0
  -24.6600  -31.1050   22.1320 N   0  0  0  0  0  0  0  0  0  0  0  0
  -23.5250  -32.1850   23.7720 O   0  0  0  0  0  0  0  0  0  0  0  0
  -22.7420  -29.4890   22.5560 C   0  0  0  0  0  0  0  0  0  0  0  0
  -21.4170  -29.3100   22.4300 N   0  0  0  0  0  0  0  0  0  0  0  0
  -23.4250  -28.8620   23.3710 O   0  0  0  0  0  0  0  0  0  0  0  0
  -20.9290  -29.8660   21.7420 H   0  0  0  0  0  0  0  0  0  0  0  0
  -18.0400  -28.1270   22.9350 C   0  0  0  0  0  0  0  0  0  0  0  0
  -20.6000  -28.3750   23.2020 C   0  0  0  0  0  3  0  0  0  0  0  0
  -20.6960  -26.9450   22.6240 C   0  0  0  0  0  2  0  0  0  0  0  0
  -19.5900  -26.6250   21.6120 C   0  0  0  0  0  2  0  0  0  0  0  0
  -18.2110  -26.7760   22.2590 C   0  0  0  0  0  2  0  0  0  0  0  0
  -19.1630  -28.8840   23.3630 C   0  0  0  0  0  0  0  0  0  0  0  0
  -18.9510  -30.1480   23.9540 C   0  0  0  0  0  3  0  0  0  0  0  0
  -17.6500  -30.6560   24.1240 C   0  0  0  0  0  3  0  0  0  0  0  0
  -16.5410  -29.8950   23.7120 C   0  0  0  0  0  3  0  0  0  0  0  0
  -16.7370  -28.6330   23.1230 C   0  0  0  0  0  3  0  0  0  0  0  0
  -25.8940  -32.5370   23.8490 C   0  0  0  0  0  3  0  0  0  0  0  0
  -25.5870  -33.9340   24.1810 N   0  0  0  0  0  0  0  0  0  0  0  0
  -25.9170  -34.9880   23.4220 C   0  0  0  0  0  0  0  0  0  0  0  0
  -26.5830  -34.8860   22.3890 O   0  0  0  0  0  0  0  0  0  0  0  0
  -24.9920  -34.0880   24.9820 H   0  0  0  0  0  0  0  0  0  0  0  0
  -24.1870  -36.7790   23.0750 C   0  0  0  0  0  1  0  0  0  0  0  0
  -25.4300  -36.3760   23.8830 C   0  0  0  0  0  3  0  0  0  0  0  0
  -27.5670  -37.2580   24.7090 C   0  0  0  0  0  1  0  0  0  0  0  0
  -26.4620  -37.4290   23.7690 N   0  0  0  0  0  0  0  0  0  0  0  0
  -26.0570  -38.3490   23.9200 H   0  0  0  0  0  0  0  0  0  0  0  0
  -26.4160  -31.7640   25.1210 C   0  0  1  0  0  0  0  0  0  0  0  0
  -25.3260  -31.5260   26.1920 C   0  0  0  0  0  1  0  0  0  0  0  0
  -26.9970  -30.3880   24.7230 C   0  0  0  0  0  1  0  0  0  0  0  0
  -27.5690  -32.5570   25.7790 C   0  0  0  0  0  1  0  0  0  0  0  0
  -29.5310  -16.8040   20.5280 C   0  0  0  0  0  2  0  0  0  0  0  0
  -30.6210  -14.5210   20.5100 C   0  0  0  0  0  0  0  0  0  0  0  0
  -30.3700  -12.3580   19.3590 C   0  0  0  0  0  2  0  0  0  0  0  0
  -29.4290  -12.5760   18.1550 C   0  0  0  0  0  2  0  0  0  0  0  0
  -27.9500  -12.4430   18.5740 C   0  0  0  0  0  2  0  0  0  0  0  0
  -27.6120  -13.2560   19.8530 C   0  0  0  0  0  3  0  0  0  0  0  0
  -28.6630  -12.9960   20.9580 C   0  0  0  0  0  2  0  0  0  0  0  0
  -29.9950  -13.3150   20.4120 N   0  0  0  0  0  0  0  0  0  0  0  0
  -31.6970  -14.7660   19.9650 O   0  0  0  0  0  0  0  0  0  0  0  0
  -29.8870  -15.4850   21.0950 N   0  0  0  0  0  0  0  0  0  0  0  0
  -29.1570  -15.1000   21.6760 H   0  0  0  0  0  0  0  0  0  0  0  0
  -25.2060  -13.8680   20.5440 C   0  0  0  0  0  0  0  0  0  0  0  0
  -24.1350  -13.0980   20.9100 C   0  0  0  0  0  0  0  0  0  0  0  0
  -24.5960  -11.7450   20.8810 C   0  0  0  0  0  0  0  0  0  0  0  0
  -26.2530  -12.9850   20.3200 N   0  0  0  0  0  0  0  0  0  0  0  0
  -25.8860  -11.7040   20.5770 N   0  0  0  0  0  0  0  0  0  0  0  0
  -23.8680  -10.4830   21.0690 C   0  0  0  0  0  0  0  0  0  0  0  0
  -24.3050   -9.5120   21.9980 C   0  0  0  0  0  3  0  0  0  0  0  0
  -23.5790   -8.3150   22.1750 C   0  0  0  0  0  3  0  0  0  0  0  0
  -22.4020   -8.0810   21.4240 C   0  0  0  0  0  0  0  0  0  0  0  0
  -21.9850   -9.0400   20.4840 C   0  0  0  0  0  3  0  0  0  0  0  0
  -22.7110  -10.2290   20.3060 C   0  0  0  0  0  3  0  0  0  0  0  0
  -21.6490   -6.9340   21.5080 O   0  0  0  0  0  0  0  0  0  0  0  0
  -21.6090   -6.1820   22.6550 C   0  0  0  0  0  0  0  0  0  0  0  0
  -21.1990   -6.7280   23.8910 C   0  0  0  0  0  3  0  0  0  0  0  0
  -21.1060   -5.9030   25.0290 C   0  0  0  0  0  3  0  0  0  0  0  0
  -21.4120   -4.5320   24.9320 C   0  0  0  0  0  0  0  0  0  0  0  0
  -21.8150   -3.9850   23.7010 C   0  0  0  0  0  3  0  0  0  0  0  0
  -21.9110   -4.8080   22.5650 C   0  0  0  0  0  0  0  0  0  0  0  0
  -22.2790   -4.2710   21.3760 F   0  0  0  0  0  0  0  0  0  0  0  0
  -21.3170   -3.7370   26.0240 F   0  0  0  0  0  0  0  0  0  0  0  0
  -22.7370  -13.5760   21.1780 C   0  0  0  0  0  0  0  0  0  0  0  0
  -22.0060  -12.8790   22.0400 N   0  0  0  0  0  0  0  0  0  0  0  0
  -22.3000  -14.6020   20.6590 O   0  0  0  0  0  0  0  0  0  0  0  0
  -22.3710  -12.0510   22.4870 H   0  0  0  0  0  0  0  0  0  0  0  0
  -21.0650  -13.1780   22.2570 H   0  0  0  0  0  0  0  0  0  0  0  0
  -25.3740  -15.2380   20.3640 N   0  0  0  0  0  0  0  0  0  0  0  0
  -24.6040  -15.8920   20.4540 H   0  0  0  0  0  0  0  0  0  0  0  0
  -26.2190  -15.6700   20.0140 H   0  0  0  0  0  0  0  0  0  0  0  0
  1  2  1  0
  1  3  1  0
  2  5  1  0
  2  4  1  0
  3  9  1  0
  3  6  1  0
  4 54  1  0
  4  6  1  0
  6  8  1  0
  7  6  1  0
 10 11  1  0
 10  9  2  0
 12 13  1  0
 12 11  1  0
 14 25  2  0
 15 13  1  0
 15 20  1  0
 16 24  1  0
 16 26  1  0
 17 23  1  0
 17 19  1  0
 18 24  1  0
 19 18  1  0
 20 19  2  0
 21 22  1  0
 21 15  2  0
 22 17  2  0
 23 16  1  0
 24 14  1  0
 26 28  2  0
 27 26  1  0
 29 27  1  0
 30 39  2  0
 30 35  1  0
 31 27  1  0
 31 35  1  0
 32 31  1  0
 33 34  1  0
 33 32  1  0
 34 30  1  0
 35 36  2  0
 36 37  1  0
 38 37  2  0
 39 38  1  0
 40 14  1  0
 40 41  1  0
 40 50  1  0
 41 44  1  0
 42 46  1  0
 42 41  1  0
 43 42  2  0
 46 45  1  0
 48 46  1  0
 48 49  1  0
 48 47  1  0
 50 53  1  1
 50 51  1  0
 52 50  1  0
 54 63  1  0
 55 63  1  0
 56 61  1  0
 57 58  1  0
 57 56  1  0
 59 58  1  0
 59 68  1  0
 59 60  1  0
 61 55  1  0
 61 60  1  0
 62 55  2  0
 63 64  1  0
 65 66  2  0
 66 85  1  0
 67 66  1  0
 67 70  1  0
 68 65  1  0
 68 69  1  0
 69 67  2  0
 70 71  1  0
 71 72  2  0
 73 76  1  0
 73 72  1  0
 74 73  2  0
 75 74  1  0
 75 70  2  0
 76 77  1  0
 77 78  1  0
 78 79  2  0
 80 79  1  0
 80 84  1  0
 81 80  2  0
 82 77  2  0
 82 81  1  0
 83 82  1  0
 85 86  1  0
 86 89  1  0
 86 88  1  0
 87 85  2  0
 90 91  1  0
 90 65  1  0
 92 90  1  0
M  ISO  4  12 101  13 101  55 100  63 100
M  END
>  <TORSDO>  (66) 
F 21

>  <SCORE>  (66) 
-13.679

>  <name>  (66) 
65

>  <ligand_id>  (66) 
65

>  <original_smiles>  (66) 
[H]c1c([H])c([H])c2c(c1[H])C([H])([H])C([H])([H])C([H])([H])C2([H])N([H])C(=O)C1([H])N(C(=O)C([H])(N([H])C(=O)C([H])(N([H])C([H])([H])[H])C([H])([H])[H])C(C([H])([H])[H])(C([H])([H])[H])C([H])([H])[H])C([H])([H])c2c([H])c(OC([H])([H])C([H])([H])C([H])([H])C([H])([H])C3([H])C([H])([H])C([H])(C([H])([H])[H])C([H])(C([H])([H])N([H])C(=O)N4C([H])([H])C([H])([H])C([H])([H])C([H])(n5nc(-c6c([H])c([H])c(Oc7c([H])c([H])c(F)c([H])c7F)c([H])c6[H])c(C(=O)N([H])[H])c5N([H])[H])C4([H])[H])[N+]3([H])[H])c([H])c([H])c2C1([H])[H]

>  <smiles>  (66) 
[H]c1c([H])c([H])c2c(c1[H])C([H])([H])C([H])([H])C([H])([H])C2([H])N([H])C(=O)C1([H])N(C(=O)C([H])(N([H])C(=O)C([H])(N([H])C([H])([H])[H])C([H])([H])[H])C(C([H])([H])[H])(C([H])([H])[H])C([H])([H])[H])C([H])([H])c2c([H])c(OC([H])([H])C([H])([H])C([H])([H])C([H])([H])C3([H])C([H])([H])C([H])(C([H])([H])[H])C([H])(C([H])([H])N([H])C(=O)N4C([H])([H])C([H])([H])C([H])([H])C([H])(n5nc(-c6c([H])c([H])c(Oc7c([H])c([H])c(F)c([H])c7F)c([H])c6[H])c(C(=O)N([H])[H])c5N([H])[H])C4([H])[H])[N+]3([H])[H])c([H])c([H])c2C1([H])[H]

$$$$
66:0:0
     RDKit          3D

 94102  0  0  1  0  0  0  0  0999 V2000
  -27.4580  -21.8760   20.8780 C   0  0  0  0  0  2  0  0  0  0  0  0
  -28.0150  -22.5400   19.6070 C   0  0  0  0  0  2  0  0  0  0  0  0
  -30.3550  -21.5590   19.6680 C   0  0  0  0  0  2  0  0  0  0  0  0
  -27.5570  -20.3360   20.9210 C   0  0  0  0  0  2  0  0  0  0  0  0
  -30.0840  -20.5770   20.8260 C   0  0  0  0  0  2  0  0  0  0  0  0
  -29.5210  -22.8500   19.7320 C   0  0  0  0  0  3  0  0  0  0  0  0
  -28.8840  -19.7330   20.5890 N   0  0  1  0  0  4  0  0  0  0  0  0
  -28.8460  -19.5910   19.5930 H   0  0  0  0  0  0  0  0  0  0  0  0
  -30.0170  -23.8960   18.7000 C   0  0  0  0  0  2  0  0  0  0  0  0
  -29.9890  -25.3340   19.2240 C   0  0  0  0  0  0  0  0  0  0  0  0
  -30.9300  -25.7850   19.8870 O   0  0  0  0  0  0  0  0  0  0  0  0
  -28.7590  -26.1770   18.8990 C   0  0  0  0  0  2  0  0  0  0  0  0
  -28.5210  -27.0860   19.9660 O   0  0  0  0  0  0  0  0  0  0  0  0
  -24.7520  -31.9490   23.4530 C   0  0  0  0  0  0  0  0  0  0  0  0
  -27.3180  -27.7500   20.0110 C   0  0  0  0  0  0  0  0  0  0  0  0
  -23.5040  -30.6670   21.7430 C   0  0  0  0  0  3  0  0  0  0  0  0
  -24.9180  -29.2290   20.1860 C   0  0  0  0  0  0  0  0  0  0  0  0
  -26.0240  -31.0340   21.5210 C   0  0  0  0  0  2  0  0  0  0  0  0
  -26.0850  -29.7110   20.7900 C   0  0  0  0  0  0  0  0  0  0  0  0
  -27.2810  -28.9720   20.7130 C   0  0  0  0  0  3  0  0  0  0  0  0
  -26.1280  -27.2650   19.4140 C   0  0  0  0  0  3  0  0  0  0  0  0
  -24.9320  -28.0010   19.5020 C   0  0  0  0  0  3  0  0  0  0  0  0
  -23.6790  -30.0820   20.3160 C   0  0  0  0  0  2  0  0  0  0  0  0
  -24.7780  -31.2280   22.2970 N   0  0  0  0  0  0  0  0  0  0  0  0
  -23.6850  -32.1860   24.0340 O   0  0  0  0  0  0  0  0  0  0  0  0
  -22.8730  -29.5830   22.6450 C   0  0  0  0  0  0  0  0  0  0  0  0
  -21.5670  -29.3380   22.4560 N   0  0  0  0  0  0  0  0  0  0  0  0
  -23.5560  -28.9650   23.4670 O   0  0  0  0  0  0  0  0  0  0  0  0
  -21.0770  -29.8940   21.7700 H   0  0  0  0  0  0  0  0  0  0  0  0
  -18.2720  -27.8770   22.6760 C   0  0  0  0  0  0  0  0  0  0  0  0
  -20.7680  -28.3370   23.1630 C   0  0  0  0  0  3  0  0  0  0  0  0
  -21.0320  -26.9200   22.6070 C   0  0  0  0  0  2  0  0  0  0  0  0
  -20.0510  -26.5110   21.5040 C   0  0  0  0  0  2  0  0  0  0  0  0
  -18.6110  -26.5470   22.0240 C   0  0  0  0  0  2  0  0  0  0  0  0
  -19.2860  -28.7250   23.1950 C   0  0  0  0  0  0  0  0  0  0  0  0
  -18.9180  -29.9670   23.7580 C   0  0  0  0  0  3  0  0  0  0  0  0
  -17.5680  -30.3630   23.8070 C   0  0  0  0  0  3  0  0  0  0  0  0
  -16.5680  -29.5140   23.3030 C   0  0  0  0  0  3  0  0  0  0  0  0
  -16.9210  -28.2720   22.7450 C   0  0  0  0  0  3  0  0  0  0  0  0
  -26.0570  -32.5270   24.0870 C   0  0  0  0  0  3  0  0  0  0  0  0
  -25.7880  -33.9250   24.4470 N   0  0  0  0  0  0  0  0  0  0  0  0
  -26.1590  -34.9840   23.7150 C   0  0  0  0  0  0  0  0  0  0  0  0
  -26.8360  -34.8840   22.6870 O   0  0  0  0  0  0  0  0  0  0  0  0
  -25.1860  -34.0780   25.2430 H   0  0  0  0  0  0  0  0  0  0  0  0
  -24.4800  -36.8260   23.3900 C   0  0  0  0  0  1  0  0  0  0  0  0
  -25.7070  -36.3740   24.1980 C   0  0  0  0  0  3  0  0  0  0  0  0
  -27.8630  -37.1780   25.0530 C   0  0  0  0  0  1  0  0  0  0  0  0
  -26.7670  -37.4020   24.1130 N   0  0  0  0  0  0  0  0  0  0  0  0
  -26.3860  -38.3290   24.2850 H   0  0  0  0  0  0  0  0  0  0  0  0
  -26.5530  -31.7110   25.3430 C   0  0  1  0  0  0  0  0  0  0  0  0
  -25.4480  -31.4640   26.3950 C   0  0  0  0  0  1  0  0  0  0  0  0
  -27.1160  -30.3360   24.9150 C   0  0  0  0  0  1  0  0  0  0  0  0
  -27.7160  -32.4660   26.0300 C   0  0  0  0  0  1  0  0  0  0  0  0
  -29.0440  -18.3700   21.1570 C   0  0  0  0  0  2  0  0  0  0  0  0
  -29.8830  -17.4470   20.2380 C   0  0  0  0  0  2  0  0  0  0  0  0
  -31.1720  -16.8490   20.8530 C   0  0  0  0  0  2  0  0  0  0  0  0
  -31.5510  -14.5160   19.9780 C   0  0  0  0  0  0  0  0  0  0  0  0
  -31.1700  -12.2930   18.9600 C   0  0  0  0  0  2  0  0  0  0  0  0
  -30.2020  -12.4250   17.7680 C   0  0  0  0  0  2  0  0  0  0  0  0
  -28.7360  -12.3580   18.2430 C   0  0  0  0  0  2  0  0  0  0  0  0
  -28.4560  -13.3240   19.4230 C   0  0  0  0  0  3  0  0  0  0  0  0
  -29.5200  -13.1340   20.5260 C   0  0  0  0  0  2  0  0  0  0  0  0
  -30.8560  -13.3510   19.9300 N   0  0  0  0  0  0  0  0  0  0  0  0
  -32.5280  -14.7670   19.2620 O   0  0  0  0  0  0  0  0  0  0  0  0
  -31.0620  -15.3920   20.8630 N   0  0  0  0  0  0  0  0  0  0  0  0
  -30.3540  -15.0130   21.4760 H   0  0  0  0  0  0  0  0  0  0  0  0
  -26.1260  -14.0980   20.2080 C   0  0  0  0  0  0  0  0  0  0  0  0
  -25.0240  -13.3970   20.6220 C   0  0  0  0  0  0  0  0  0  0  0  0
  -25.3930  -12.0190   20.5760 C   0  0  0  0  0  0  0  0  0  0  0  0
  -27.1010  -13.1490   19.9440 N   0  0  0  0  0  0  0  0  0  0  0  0
  -26.6630  -11.8920   20.2150 N   0  0  0  0  0  0  0  0  0  0  0  0
  -24.5940  -10.8080   20.7990 C   0  0  0  0  0  0  0  0  0  0  0  0
  -24.9450   -9.8630   21.7880 C   0  0  0  0  0  3  0  0  0  0  0  0
  -24.1490   -8.7140   21.9960 C   0  0  0  0  0  3  0  0  0  0  0  0
  -22.9920   -8.5020   21.2100 C   0  0  0  0  0  0  0  0  0  0  0  0
  -22.6610   -9.4340   20.2100 C   0  0  0  0  0  3  0  0  0  0  0  0
  -23.4570  -10.5730   20.0020 C   0  0  0  0  0  3  0  0  0  0  0  0
  -22.1730   -7.4040   21.3230 O   0  0  0  0  0  0  0  0  0  0  0  0
  -21.9730   -6.7750   22.5250 C   0  0  0  0  0  0  0  0  0  0  0  0
  -21.4580   -7.4610   23.6470 C   0  0  0  0  0  3  0  0  0  0  0  0
  -21.2030   -6.7650   24.8440 C   0  0  0  0  0  3  0  0  0  0  0  0
  -21.4540   -5.3800   24.9200 C   0  0  0  0  0  0  0  0  0  0  0  0
  -21.9610   -4.6940   23.8020 C   0  0  0  0  0  3  0  0  0  0  0  0
  -22.2180   -5.3900   22.6080 C   0  0  0  0  0  0  0  0  0  0  0  0
  -22.6880   -4.7200   21.5280 F   0  0  0  0  0  0  0  0  0  0  0  0
  -21.2030   -4.7080   26.0670 F   0  0  0  0  0  0  0  0  0  0  0  0
  -23.6730  -13.9660   20.9520 C   0  0  0  0  0  0  0  0  0  0  0  0
  -22.9500  -13.3300   21.8690 N   0  0  0  0  0  0  0  0  0  0  0  0
  -23.2690  -15.0040   20.4300 O   0  0  0  0  0  0  0  0  0  0  0  0
  -23.2940  -12.4880   22.3060 H   0  0  0  0  0  0  0  0  0  0  0  0
  -22.0470  -13.6890   22.1390 H   0  0  0  0  0  0  0  0  0  0  0  0
  -26.3690  -15.4550   20.0190 N   0  0  0  0  0  0  0  0  0  0  0  0
  -25.6340  -16.1450   20.1210 H   0  0  0  0  0  0  0  0  0  0  0  0
  -27.2150  -15.8270   19.6060 H   0  0  0  0  0  0  0  0  0  0  0  0
  1  4  1  0
  2  6  1  0
  2  1  1  0
  3  6  1  0
  3  5  1  0
  6  9  1  0
  7  5  1  0
  7  4  1  0
  7 54  1  0
  7  8  1  6
  9 10  1  0
 10 11  2  0
 12 10  1  0
 12 13  1  0
 13 15  1  0
 14 25  2  0
 15 20  1  0
 16 24  1  0
 16 26  1  0
 17 23  1  0
 17 19  1  0
 18 24  1  0
 19 18  1  0
 20 19  2  0
 21 22  1  0
 21 15  2  0
 22 17  2  0
 23 16  1  0
 24 14  1  0
 26 28  2  0
 27 26  1  0
 29 27  1  0
 30 39  2  0
 30 35  1  0
 31 27  1  0
 31 35  1  0
 32 31  1  0
 33 34  1  0
 33 32  1  0
 34 30  1  0
 35 36  2  0
 36 37  1  0
 38 37  2  0
 39 38  1  0
 40 14  1  0
 40 41  1  0
 40 50  1  0
 41 44  1  0
 42 46  1  0
 42 41  1  0
 43 42  2  0
 46 45  1  0
 48 46  1  0
 48 49  1  0
 48 47  1  0
 50 53  1  1
 50 51  1  0
 52 50  1  0
 55 56  1  0
 55 54  1  0
 56 65  1  0
 57 65  1  0
 58 63  1  0
 59 60  1  0
 59 58  1  0
 61 60  1  0
 61 70  1  0
 61 62  1  0
 63 57  1  0
 63 62  1  0
 64 57  2  0
 65 66  1  0
 67 68  2  0
 68 87  1  0
 69 68  1  0
 69 72  1  0
 70 67  1  0
 70 71  1  0
 71 69  2  0
 72 73  1  0
 73 74  2  0
 75 78  1  0
 75 74  1  0
 76 75  2  0
 77 76  1  0
 77 72  2  0
 78 79  1  0
 79 84  2  0
 79 80  1  0
 80 81  2  0
 81 82  1  0
 82 86  1  0
 83 82  2  0
 84 83  1  0
 85 84  1  0
 87 88  1  0
 88 91  1  0
 88 90  1  0
 89 87  2  0
 92 93  1  0
 92 67  1  0
 94 92  1  0
M  ISO  4  12 101  13 101  57 100  65 100
M  END
>  <TORSDO>  (67) 
F 22

>  <SCORE>  (67) 
-11.031

>  <name>  (67) 
66

>  <ligand_id>  (67) 
66

>  <original_smiles>  (67) 
[H]c1c([H])c([H])c2c(c1[H])C([H])([H])C([H])([H])C([H])([H])C2([H])N([H])C(=O)C1([H])N(C(=O)C([H])(N([H])C(=O)C([H])(N([H])C([H])([H])[H])C([H])([H])[H])C(C([H])([H])[H])(C([H])([H])[H])C([H])([H])[H])C([H])([H])c2c([H])c(OC([H])([H])C(=O)C([H])([H])C3([H])C([H])([H])C([H])([H])C([H])([H])[N+]([H])(C([H])([H])C([H])([H])C([H])([H])N([H])C(=O)N4C([H])([H])C([H])([H])C([H])([H])C([H])(n5nc(-c6c([H])c([H])c(Oc7c([H])c([H])c(F)c([H])c7F)c([H])c6[H])c(C(=O)N([H])[H])c5N([H])[H])C4([H])[H])C([H])([H])C3([H])[H])c([H])c([H])c2C1([H])[H]

>  <smiles>  (67) 
[H]c1c([H])c([H])c2c(c1[H])C([H])([H])C([H])([H])C([H])([H])C2([H])N([H])C(=O)C1([H])N(C(=O)C([H])(N([H])C(=O)C([H])(N([H])C([H])([H])[H])C([H])([H])[H])C(C([H])([H])[H])(C([H])([H])[H])C([H])([H])[H])C([H])([H])c2c([H])c(OC([H])([H])C(=O)C([H])([H])C3([H])C([H])([H])C([H])([H])C([H])([H])[N+]([H])(C([H])([H])C([H])([H])C([H])([H])N([H])C(=O)N4C([H])([H])C([H])([H])C([H])([H])C([H])(n5nc(-c6c([H])c([H])c(Oc7c([H])c([H])c(F)c([H])c7F)c([H])c6[H])c(C(=O)N([H])[H])c5N([H])[H])C4([H])[H])C([H])([H])C3([H])[H])c([H])c([H])c2C1([H])[H]

$$$$
67:0:0
     RDKit          3D

 97105  0  0  1  0  0  0  0  0999 V2000
  -27.1510  -19.8280   20.5920 C   0  0  0  0  0  2  0  0  0  0  0  0
  -27.1260  -21.3570   20.8350 C   0  0  0  0  0  2  0  0  0  0  0  0
  -27.6330  -19.3170   19.2160 C   0  0  0  0  0  2  0  0  0  0  0  0
  -29.2810  -22.5430   19.9870 C   0  0  0  0  0  2  0  0  0  0  0  0
  -30.2860  -21.5400   19.3420 C   0  0  0  0  0  2  0  0  0  0  0  0
  -28.4670  -22.0600   21.2200 C   0  0  0  0  0  3  0  0  0  0  0  0
  -29.1720  -19.3070   19.0210 C   0  0  0  0  0  3  0  0  0  0  0  0
  -29.7240  -20.5900   18.3250 N   0  0  1  0  0  4  0  0  0  0  0  0
  -30.5550  -20.2630   17.8530 H   0  0  0  0  0  0  0  0  0  0  0  0
  -28.2030  -23.2230   22.1040 N   0  0  0  0  0  4  0  0  0  0  0  0
  -27.6380  -23.9170   21.6470 H   0  0  0  0  0  0  0  0  0  0  0  0
  -29.0640  -23.6630   22.3810 H   0  0  0  0  0  0  0  0  0  0  0  0
  -27.7400  -22.9430   22.9510 H   0  0  0  0  0  0  0  0  0  0  0  0
  -29.7210  -17.8460   18.5940 C   0  0  0  0  0  2  0  0  0  0  0  0
  -30.2070  -16.7530   19.6990 C   0  0  0  0  0  2  0  0  0  0  0  0
  -30.5640  -14.1560   19.7580 C   0  0  0  0  0  0  0  0  0  0  0  0
  -30.4340  -11.6990   19.3270 C   0  0  0  0  0  2  0  0  0  0  0  0
  -29.4630  -11.4060   18.1610 C   0  0  0  0  0  2  0  0  0  0  0  0
  -28.0140  -11.2870   18.6720 C   0  0  0  0  0  2  0  0  0  0  0  0
  -27.6190  -12.4360   19.6340 C   0  0  0  0  0  3  0  0  0  0  0  0
  -28.7040  -12.6970   20.7010 C   0  0  0  0  0  2  0  0  0  0  0  0
  -29.9710  -12.9370   19.9930 N   0  0  0  0  0  0  0  0  0  0  0  0
  -31.7440  -14.2170   19.4090 O   0  0  0  0  0  0  0  0  0  0  0  0
  -29.7690  -15.2900   19.7320 N   0  0  0  0  0  0  0  0  0  0  0  0
  -28.7940  -15.1260   19.9270 H   0  0  0  0  0  0  0  0  0  0  0  0
  -25.3150  -13.1360   20.5240 C   0  0  0  0  0  0  0  0  0  0  0  0
  -24.2460  -12.4150   20.9720 C   0  0  0  0  0  0  0  0  0  0  0  0
  -24.6430  -11.0440   20.9150 C   0  0  0  0  0  0  0  0  0  0  0  0
  -26.3030  -12.2130   20.2210 N   0  0  0  0  0  0  0  0  0  0  0  0
  -25.9040  -10.9480   20.5140 N   0  0  0  0  0  0  0  0  0  0  0  0
  -23.8730   -9.8170   21.1500 C   0  0  0  0  0  0  0  0  0  0  0  0
  -24.3380   -8.8040   22.0210 C   0  0  0  0  0  3  0  0  0  0  0  0
  -23.5660   -7.6450   22.2480 C   0  0  0  0  0  3  0  0  0  0  0  0
  -22.3150   -7.4890   21.6060 C   0  0  0  0  0  0  0  0  0  0  0  0
  -21.8710   -8.4840   20.7170 C   0  0  0  0  0  3  0  0  0  0  0  0
  -22.6430   -9.6350   20.4880 C   0  0  0  0  0  3  0  0  0  0  0  0
  -21.5050   -6.3860   21.7550 O   0  0  0  0  0  0  0  0  0  0  0  0
  -21.5650   -5.5910   22.8710 C   0  0  0  0  0  0  0  0  0  0  0  0
  -21.3240   -6.0990   24.1650 C   0  0  0  0  0  3  0  0  0  0  0  0
  -21.3270   -5.2300   25.2760 C   0  0  0  0  0  3  0  0  0  0  0  0
  -21.5640   -3.8540   25.0920 C   0  0  0  0  0  0  0  0  0  0  0  0
  -21.7950   -3.3460   23.8010 C   0  0  0  0  0  3  0  0  0  0  0  0
  -21.7920   -4.2110   22.6940 C   0  0  0  0  0  0  0  0  0  0  0  0
  -22.0000   -3.7130   21.4510 F   0  0  0  0  0  0  0  0  0  0  0  0
  -21.5650   -3.0160   26.1530 F   0  0  0  0  0  0  0  0  0  0  0  0
  -22.8950  -12.9550   21.3410 C   0  0  0  0  0  0  0  0  0  0  0  0
  -22.1940  -12.2930   22.2530 N   0  0  0  0  0  0  0  0  0  0  0  0
  -22.4660  -13.9970   20.8410 O   0  0  0  0  0  0  0  0  0  0  0  0
  -22.5460  -11.4460   22.6740 H   0  0  0  0  0  0  0  0  0  0  0  0
  -21.2830  -12.6370   22.5210 H   0  0  0  0  0  0  0  0  0  0  0  0
  -25.5240  -14.4960   20.3190 N   0  0  0  0  0  0  0  0  0  0  0  0
  -24.7770  -15.1680   20.4560 H   0  0  0  0  0  0  0  0  0  0  0  0
  -26.3460  -14.8920   19.8780 H   0  0  0  0  0  0  0  0  0  0  0  0
  -28.9240  -21.3430   17.2350 C   0  0  0  0  0  2  0  0  0  0  0  0
  -29.3880  -22.8300   16.7590 C   0  0  0  0  0  2  0  0  0  0  0  0
  -28.2650  -23.9760   16.6820 C   0  0  0  0  0  2  0  0  0  0  0  0
  -28.5780  -25.4060   16.9750 O   0  0  0  0  0  0  0  0  0  0  0  0
  -25.7890  -28.6110   22.8540 C   0  0  0  0  0  0  0  0  0  0  0  0
  -27.5710  -26.2330   17.5230 C   0  0  0  0  0  0  0  0  0  0  0  0
  -24.3030  -28.3980   20.8960 C   0  0  0  0  0  3  0  0  0  0  0  0
  -25.4330  -27.7540   18.6920 C   0  0  0  0  0  0  0  0  0  0  0  0
  -26.8430  -28.5700   20.5760 C   0  0  0  0  0  2  0  0  0  0  0  0
  -26.6960  -27.7550   19.2960 C   0  0  0  0  0  0  0  0  0  0  0  0
  -27.7630  -27.0050   18.7150 C   0  0  0  0  0  3  0  0  0  0  0  0
  -26.2850  -26.3040   16.9300 C   0  0  0  0  0  3  0  0  0  0  0  0
  -25.2320  -27.0400   17.5040 C   0  0  0  0  0  3  0  0  0  0  0  0
  -24.3260  -28.5540   19.3550 C   0  0  0  0  0  2  0  0  0  0  0  0
  -25.6710  -28.5090   21.4970 N   0  0  0  0  0  0  0  0  0  0  0  0
  -24.7900  -28.6350   23.5880 O   0  0  0  0  0  0  0  0  0  0  0  0
  -23.5860  -27.0760   21.2530 C   0  0  0  0  0  0  0  0  0  0  0  0
  -22.2500  -27.0560   21.1150 N   0  0  0  0  0  0  0  0  0  0  0  0
  -24.2300  -26.0890   21.6200 O   0  0  0  0  0  0  0  0  0  0  0  0
  -21.7920  -27.9100   20.8210 H   0  0  0  0  0  0  0  0  0  0  0  0
  -18.8220  -25.9090   20.9640 C   0  0  0  0  0  0  0  0  0  0  0  0
  -21.3760  -25.9050   21.3510 C   0  0  0  0  0  3  0  0  0  0  0  0
  -21.4450  -24.8970   20.1800 C   0  0  0  0  0  2  0  0  0  0  0  0
  -20.3630  -25.1300   19.1190 C   0  0  0  0  0  2  0  0  0  0  0  0
  -18.9690  -25.0210   19.7420 C   0  0  0  0  0  2  0  0  0  0  0  0
  -19.9510  -26.3370   21.7110 C   0  0  0  0  0  0  0  0  0  0  0  0
  -19.7580  -27.1930   22.8180 C   0  0  0  0  0  3  0  0  0  0  0  0
  -18.4660  -27.6160   23.1830 C   0  0  0  0  0  3  0  0  0  0  0  0
  -17.3490  -27.1760   22.4530 C   0  0  0  0  0  3  0  0  0  0  0  0
  -17.5280  -26.3220   21.3480 C   0  0  0  0  0  3  0  0  0  0  0  0
  -27.1800  -28.7220   23.5480 C   0  0  0  0  0  3  0  0  0  0  0  0
  -27.0200  -29.5610   24.7460 N   0  0  0  0  0  0  0  0  0  0  0  0
  -27.4110  -30.8380   24.8400 C   0  0  0  0  0  0  0  0  0  0  0  0
  -28.0190  -31.4160   23.9350 O   0  0  0  0  0  0  0  0  0  0  0  0
  -26.4820  -29.1680   25.5040 H   0  0  0  0  0  0  0  0  0  0  0  0
  -25.8520  -32.4950   25.9150 C   0  0  0  0  0  1  0  0  0  0  0  0
  -27.0770  -31.5920   26.1420 C   0  0  0  0  0  3  0  0  0  0  0  0
  -29.3140  -31.5950   27.1540 C   0  0  0  0  0  1  0  0  0  0  0  0
  -28.2030  -32.4020   26.6600 N   0  0  0  0  0  0  0  0  0  0  0  0
  -27.8950  -33.0140   27.4100 H   0  0  0  0  0  0  0  0  0  0  0  0
  -27.7900  -27.3180   23.9380 C   0  0  1  0  0  0  0  0  0  0  0  0
  -26.8240  -26.4240   24.7490 C   0  0  0  0  0  1  0  0  0  0  0  0
  -28.2100  -26.5370   22.6720 C   0  0  0  0  0  1  0  0  0  0  0  0
  -29.0740  -27.5190   24.7770 C   0  0  0  0  0  1  0  0  0  0  0  0
  1  2  1  0
  2  6  1  0
  3  1  1  0
  4  6  1  0
  5  4  1  0
  6 10  1  0
  7 14  1  0
  7  3  1  0
  8  7  1  0
  8  5  1  0
  8  9  1  6
 10 12  1  0
 10 13  1  0
 11 10  1  0
 14 15  1  0
 15 24  1  0
 16 22  1  0
 17 22  1  0
 18 19  1  0
 18 17  1  0
 20 19  1  0
 20 29  1  0
 20 21  1  0
 22 21  1  0
 23 16  2  0
 24 16  1  0
 24 25  1  0
 26 27  2  0
 27 46  1  0
 28 27  1  0
 28 31  1  0
 29 30  1  0
 29 26  1  0
 30 28  2  0
 31 32  1  0
 32 33  2  0
 34 37  1  0
 34 33  1  0
 35 34  2  0
 36 35  1  0
 36 31  2  0
 37 38  1  0
 38 39  1  0
 39 40  2  0
 41 40  1  0
 41 45  1  0
 42 41  2  0
 43 38  2  0
 43 42  1  0
 44 43  1  0
 46 47  1  0
 47 50  1  0
 47 49  1  0
 48 46  2  0
 51 52  1  0
 51 26  1  0
 53 51  1  0
 54  8  1  0
 55 54  1  0
 56 55  1  0
 56 57  1  0
 57 59  1  0
 58 69  2  0
 59 64  1  0
 60 70  1  0
 60 68  1  0
 61 63  1  0
 61 67  1  0
 62 68  1  0
 63 62  1  0
 64 63  2  0
 65 66  1  0
 65 59  2  0
 66 61  2  0
 67 60  1  0
 68 58  1  0
 70 72  2  0
 71 70  1  0
 73 71  1  0
 74 83  2  0
 74 79  1  0
 75 71  1  0
 75 79  1  0
 76 75  1  0
 77 78  1  0
 77 76  1  0
 78 74  1  0
 79 80  2  0
 80 81  1  0
 82 81  2  0
 83 82  1  0
 84 58  1  0
 84 94  1  0
 84 85  1  0
 85 86  1  0
 85 88  1  0
 86 90  1  0
 87 86  2  0
 90 89  1  0
 90 92  1  0
 92 91  1  0
 92 93  1  0
 94 95  1  1
 94 97  1  0
 96 94  1  0
M  ISO  4  16 100  24 100  56 101  57 101
M  END
>  <TORSDO>  (68) 
F 22

>  <SCORE>  (68) 
-7.820

>  <name>  (68) 
67

>  <ligand_id>  (68) 
67

>  <original_smiles>  (68) 
[H]c1c([H])c([H])c2c(c1[H])C([H])([H])C([H])([H])C([H])([H])C2([H])N([H])C(=O)C1([H])N(C(=O)C([H])(N([H])C(=O)C([H])(N([H])C([H])([H])[H])C([H])([H])[H])C(C([H])([H])[H])(C([H])([H])[H])C([H])([H])[H])C([H])([H])c2c([H])c(OC([H])([H])C([H])([H])C([H])([H])[N+]3([H])C([H])([H])C([H])([H])C([H])([N+]([H])([H])[H])C([H])([H])C([H])([H])C([H])([H])C3([H])C([H])([H])C([H])([H])N([H])C(=O)N3C([H])([H])C([H])([H])C([H])([H])C([H])(n4nc(-c5c([H])c([H])c(Oc6c([H])c([H])c(F)c([H])c6F)c([H])c5[H])c(C(=O)N([H])[H])c4N([H])[H])C3([H])[H])c([H])c([H])c2C1([H])[H]

>  <smiles>  (68) 
[H]c1c([H])c([H])c2c(c1[H])C([H])([H])C([H])([H])C([H])([H])C2([H])N([H])C(=O)C1([H])N(C(=O)C([H])(N([H])C(=O)C([H])(N([H])C([H])([H])[H])C([H])([H])[H])C(C([H])([H])[H])(C([H])([H])[H])C([H])([H])[H])C([H])([H])c2c([H])c(OC([H])([H])C([H])([H])C([H])([H])[N+]3([H])C([H])([H])C([H])([H])C([H])([N+]([H])([H])[H])C([H])([H])C([H])([H])C([H])([H])C3([H])C([H])([H])C([H])([H])N([H])C(=O)N3C([H])([H])C([H])([H])C([H])([H])C([H])(n4nc(-c5c([H])c([H])c(Oc6c([H])c([H])c(F)c([H])c6F)c([H])c5[H])c(C(=O)N([H])[H])c4N([H])[H])C3([H])[H])c([H])c([H])c2C1([H])[H]

$$$$
68:0:0
     RDKit          3D

 89 97  0  0  1  0  0  0  0  0999 V2000
  -29.8480  -21.2750   20.5540 C   0  0  0  0  0  3  0  0  0  0  0  0
  -29.3760  -19.8100   20.9310 C   0  0  0  0  0  0  0  0  0  0  0  0
  -28.7960  -19.6650   22.0100 O   0  0  0  0  0  0  0  0  0  0  0  0
  -30.8610  -14.8170   20.5260 C   0  0  0  0  0  0  0  0  0  0  0  0
  -30.6990  -12.5070   19.6550 C   0  0  0  0  0  2  0  0  0  0  0  0
  -29.8220  -12.5390   18.3830 C   0  0  0  0  0  2  0  0  0  0  0  0
  -28.3200  -12.4670   18.7160 C   0  0  0  0  0  2  0  0  0  0  0  0
  -27.8990  -13.3490   19.9250 C   0  0  0  0  0  3  0  0  0  0  0  0
  -28.9120  -13.2910   21.0880 C   0  0  0  0  0  2  0  0  0  0  0  0
  -30.2300  -13.6010   20.5230 N   0  0  0  0  0  0  0  0  0  0  0  0
  -32.0920  -14.8920   20.4760 O   0  0  0  0  0  0  0  0  0  0  0  0
  -30.4100  -17.4570   17.9670 C   0  0  0  0  0  3  0  0  0  0  0  0
  -30.6720  -18.5930   18.9630 C   0  0  0  0  0  2  0  0  0  0  0  0
  -30.1160  -16.0580   18.5710 C   0  0  0  0  0  3  0  0  0  0  0  0
  -29.8710  -17.1440   20.8530 C   0  0  0  0  0  2  0  0  0  0  0  0
  -29.6110  -18.5050   20.0550 C   0  0  0  0  0  3  0  0  0  0  0  0
  -30.1250  -15.8900   20.0520 N   0  0  0  0  0  0  0  0  0  0  0  0
  -25.4790  -13.9260   20.5370 C   0  0  0  0  0  0  0  0  0  0  0  0
  -24.4030  -13.1470   20.8550 C   0  0  0  0  0  0  0  0  0  0  0  0
  -24.8790  -11.7970   20.8630 C   0  0  0  0  0  0  0  0  0  0  0  0
  -26.5410  -13.0530   20.3640 N   0  0  0  0  0  0  0  0  0  0  0  0
  -26.1840  -11.7690   20.6240 N   0  0  0  0  0  0  0  0  0  0  0  0
  -24.1560  -10.5330   21.0290 C   0  0  0  0  0  0  0  0  0  0  0  0
  -24.5590   -9.5700   21.9820 C   0  0  0  0  0  3  0  0  0  0  0  0
  -23.8320   -8.3700   22.1360 C   0  0  0  0  0  3  0  0  0  0  0  0
  -22.6900   -8.1240   21.3370 C   0  0  0  0  0  0  0  0  0  0  0  0
  -22.3090   -9.0740   20.3750 C   0  0  0  0  0  3  0  0  0  0  0  0
  -23.0340  -10.2670   20.2190 C   0  0  0  0  0  3  0  0  0  0  0  0
  -21.9340   -6.9770   21.4010 O   0  0  0  0  0  0  0  0  0  0  0  0
  -21.8490   -6.2310   22.5490 C   0  0  0  0  0  0  0  0  0  0  0  0
  -21.3670   -6.7770   23.7570 C   0  0  0  0  0  3  0  0  0  0  0  0
  -21.2330   -5.9580   24.8970 C   0  0  0  0  0  3  0  0  0  0  0  0
  -21.5660   -4.5920   24.8230 C   0  0  0  0  0  0  0  0  0  0  0  0
  -22.0470   -4.0450   23.6190 C   0  0  0  0  0  3  0  0  0  0  0  0
  -22.1840   -4.8610   22.4840 C   0  0  0  0  0  0  0  0  0  0  0  0
  -22.6220   -4.3260   21.3200 F   0  0  0  0  0  0  0  0  0  0  0  0
  -21.4320   -3.8030   25.9140 F   0  0  0  0  0  0  0  0  0  0  0  0
  -22.9890  -13.6140   21.0430 C   0  0  0  0  0  0  0  0  0  0  0  0
  -22.2240  -12.9260   21.8830 N   0  0  0  0  0  0  0  0  0  0  0  0
  -22.5730  -14.6260   20.4820 O   0  0  0  0  0  0  0  0  0  0  0  0
  -22.5800  -12.1090   22.3580 H   0  0  0  0  0  0  0  0  0  0  0  0
  -21.2720  -13.2170   22.0480 H   0  0  0  0  0  0  0  0  0  0  0  0
  -25.6470  -15.2960   20.3500 N   0  0  0  0  0  0  0  0  0  0  0  0
  -24.8780  -15.9550   20.4190 H   0  0  0  0  0  0  0  0  0  0  0  0
  -26.5230  -15.7300   20.0880 H   0  0  0  0  0  0  0  0  0  0  0  0
  -28.7750  -22.4030   20.1790 C   0  0  0  0  0  3  0  0  0  0  0  0
  -29.1730  -23.9630   20.2600 C   0  0  0  0  0  3  0  0  0  0  0  0
  -28.0870  -25.0700   19.8310 C   0  0  0  0  0  3  0  0  0  0  0  0
  -28.3340  -26.5230   20.1070 O   0  0  0  0  0  0  0  0  0  0  0  0
  -24.5990  -31.9070   23.2690 C   0  0  0  0  0  0  0  0  0  0  0  0
  -27.2310  -27.4030   20.0850 C   0  0  0  0  0  0  0  0  0  0  0  0
  -23.4070  -30.5270   21.6100 C   0  0  0  0  0  3  0  0  0  0  0  0
  -24.8600  -29.0250   20.1390 C   0  0  0  0  0  0  0  0  0  0  0  0
  -25.9460  -30.8590   21.4300 C   0  0  0  0  0  2  0  0  0  0  0  0
  -26.0300  -29.4930   20.7490 C   0  0  0  0  0  0  0  0  0  0  0  0
  -27.2170  -28.6900   20.7180 C   0  0  0  0  0  3  0  0  0  0  0  0
  -26.0320  -27.0060   19.4440 C   0  0  0  0  0  3  0  0  0  0  0  0
  -24.8610  -27.7860   19.4790 C   0  0  0  0  0  3  0  0  0  0  0  0
  -23.6170  -29.8930   20.2120 C   0  0  0  0  0  2  0  0  0  0  0  0
  -24.6710  -31.1140   22.1600 N   0  0  0  0  0  0  0  0  0  0  0  0
  -23.5150  -32.1660   23.8120 O   0  0  0  0  0  0  0  0  0  0  0  0
  -22.7570  -29.4810   22.5490 C   0  0  0  0  0  0  0  0  0  0  0  0
  -21.4330  -29.2930   22.4240 N   0  0  0  0  0  0  0  0  0  0  0  0
  -23.4440  -28.8460   23.3530 O   0  0  0  0  0  0  0  0  0  0  0  0
  -20.9360  -29.8570   21.7510 H   0  0  0  0  0  0  0  0  0  0  0  0
  -18.0650  -28.0640   22.8980 C   0  0  0  0  0  0  0  0  0  0  0  0
  -20.6210  -28.3370   23.1780 C   0  0  0  0  0  3  0  0  0  0  0  0
  -20.7370  -26.9170   22.5820 C   0  0  0  0  0  2  0  0  0  0  0  0
  -19.6410  -26.6030   21.5590 C   0  0  0  0  0  2  0  0  0  0  0  0
  -18.2570  -26.7270   22.2020 C   0  0  0  0  0  2  0  0  0  0  0  0
  -19.1770  -28.8290   23.3420 C   0  0  0  0  0  0  0  0  0  0  0  0
  -18.9480  -30.0800   23.9540 C   0  0  0  0  0  3  0  0  0  0  0  0
  -17.6380  -30.5690   24.1270 C   0  0  0  0  0  3  0  0  0  0  0  0
  -16.5410  -29.8020   23.7020 C   0  0  0  0  0  3  0  0  0  0  0  0
  -16.7560  -28.5510   23.0950 C   0  0  0  0  0  3  0  0  0  0  0  0
  -25.8780  -32.5430   23.8940 C   0  0  0  0  0  3  0  0  0  0  0  0
  -26.3950  -31.7680   25.1670 C   0  0  1  0  0  0  0  0  0  0  0  0
  -25.3020  -31.5180   26.2300 C   0  0  0  0  0  1  0  0  0  0  0  0
  -26.9850  -30.3940   24.7710 C   0  0  0  0  0  1  0  0  0  0  0  0
  -27.5360  -32.5680   25.8410 C   0  0  0  0  0  1  0  0  0  0  0  0
  -25.5570  -33.9360   24.2260 N   0  0  0  0  0  0  0  0  0  0  0  0
  -25.8940  -34.9970   23.4770 C   0  0  0  0  0  0  0  0  0  0  0  0
  -26.5790  -34.9050   22.4540 O   0  0  0  0  0  0  0  0  0  0  0  0
  -24.9350  -34.0810   25.0090 H   0  0  0  0  0  0  0  0  0  0  0  0
  -24.1670  -36.7910   23.1260 C   0  0  0  0  0  1  0  0  0  0  0  0
  -25.4000  -36.3790   23.9450 C   0  0  0  0  0  3  0  0  0  0  0  0
  -27.5200  -37.2630   24.8150 C   0  0  0  0  0  1  0  0  0  0  0  0
  -26.4320  -37.4360   23.8530 N   0  0  0  0  0  0  0  0  0  0  0  0
  -26.0180  -38.3500   24.0090 H   0  0  0  0  0  0  0  0  0  0  0  0
  1  2  1  0
  2  3  2  0
  5 10  1  0
  6  7  1  0
  6  5  1  0
  8  7  1  0
  8 21  1  0
  8  9  1  0
 10  4  1  0
 10  9  1  0
 11  4  2  0
 12 14  2  0
 12 13  1  0
 13 16  1  0
 14 17  1  0
 16 15  1  0
 16  2  1  0
 17  4  1  0
 17 15  1  0
 18 19  2  0
 19 20  1  0
 19 38  1  0
 20 23  1  0
 21 18  1  0
 21 22  1  0
 22 20  2  0
 23 24  1  0
 24 25  2  0
 26 29  1  0
 26 25  1  0
 27 26  2  0
 28 27  1  0
 28 23  2  0
 29 30  1  0
 30 31  1  0
 31 32  2  0
 33 32  1  0
 33 37  1  0
 34 33  2  0
 35 30  2  0
 35 34  1  0
 36 35  1  0
 38 39  1  0
 39 42  1  0
 39 41  1  0
 40 38  2  0
 43 44  1  0
 43 18  1  0
 45 43  1  0
 46 47  1  0
 46  1  2  0
 48 49  1  0
 48 47  2  0
 50 61  2  0
 51 49  1  0
 51 56  1  0
 52 60  1  0
 52 62  1  0
 53 59  1  0
 53 55  1  0
 54 60  1  0
 55 54  1  0
 56 55  2  0
 57 58  1  0
 57 51  2  0
 58 53  2  0
 59 52  1  0
 60 50  1  0
 62 64  2  0
 63 62  1  0
 65 63  1  0
 66 75  2  0
 66 71  1  0
 67 63  1  0
 67 71  1  0
 68 67  1  0
 69 70  1  0
 69 68  1  0
 70 66  1  0
 71 72  2  0
 72 73  1  0
 74 73  2  0
 75 74  1  0
 76 50  1  0
 76 81  1  0
 76 77  1  0
 77 80  1  1
 77 78  1  0
 79 77  1  0
 81 84  1  0
 82 86  1  0
 82 81  1  0
 83 82  2  0
 86 85  1  0
 88 86  1  0
 88 89  1  0
 88 87  1  0
M  ISO  4   4 100  17 100  48 101  49 101
M  END
>  <TORSDO>  (69) 
F 20

>  <SCORE>  (69) 
-11.984

>  <name>  (69) 
68

>  <ligand_id>  (69) 
68

>  <original_smiles>  (69) 
[H]c1c([H])c([H])c2c(c1[H])C([H])([H])C([H])([H])C([H])([H])C2([H])N([H])C(=O)C1([H])N(C(=O)C([H])(N([H])C(=O)C([H])(N([H])C([H])([H])[H])C([H])([H])[H])C(C([H])([H])[H])(C([H])([H])[H])C([H])([H])[H])C([H])([H])c2c([H])c(OC([H])([H])C([H])([H])C([H])([H])C([H])([H])C(=O)C3([H])C([H])([H])N(C(=O)N4C([H])([H])C([H])([H])C([H])([H])C([H])(n5nc(-c6c([H])c([H])c(Oc7c([H])c([H])c(F)c([H])c7F)c([H])c6[H])c(C(=O)N([H])[H])c5N([H])[H])C4([H])[H])C([H])([H])C([H])([H])C3([H])[H])c([H])c([H])c2C1([H])[H]

>  <smiles>  (69) 
[H]c1c([H])c([H])c2c(c1[H])C([H])([H])C([H])([H])C([H])([H])C2([H])N([H])C(=O)C1([H])N(C(=O)C([H])(N([H])C(=O)C([H])(N([H])C([H])([H])[H])C([H])([H])[H])C(C([H])([H])[H])(C([H])([H])[H])C([H])([H])[H])C([H])([H])c2c([H])c(OC([H])([H])C([H])([H])C([H])([H])C([H])([H])C(=O)C3([H])C([H])([H])N(C(=O)N4C([H])([H])C([H])([H])C([H])([H])C([H])(n5nc(-c6c([H])c([H])c(Oc7c([H])c([H])c(F)c([H])c7F)c([H])c6[H])c(C(=O)N([H])[H])c5N([H])[H])C4([H])[H])C([H])([H])C([H])([H])C3([H])[H])c([H])c([H])c2C1([H])[H]

$$$$
69:0:0
     RDKit          3D

 93101  0  0  1  0  0  0  0  0999 V2000
  -29.9900  -23.2640   22.1450 C   0  0  0  0  0  2  0  0  0  0  0  0
  -31.5830  -19.9270   21.0820 C   0  0  0  0  0  3  0  0  0  0  0  0
  -30.7210  -19.6800   23.3460 C   0  0  0  0  0  3  0  0  0  0  0  0
  -31.1870  -21.2790   21.0790 C   0  0  0  0  0  3  0  0  0  0  0  0
  -30.3460  -21.0380   23.3510 C   0  0  0  0  0  3  0  0  0  0  0  0
  -31.3100  -19.1070   22.1980 C   0  0  0  0  0  0  0  0  0  0  0  0
  -30.5320  -21.8350   22.1990 C   0  0  0  0  0  0  0  0  0  0  0  0
  -31.5590  -17.6050   22.1260 C   0  0  0  0  0  2  0  0  0  0  0  0
  -30.7420  -16.9830   20.9770 C   0  0  0  0  0  2  0  0  0  0  0  0
  -31.1490  -14.6080   20.3360 C   0  0  0  0  0  0  0  0  0  0  0  0
  -30.7870  -12.4540   19.1860 C   0  0  0  0  0  2  0  0  0  0  0  0
  -29.8260  -12.6550   17.9970 C   0  0  0  0  0  2  0  0  0  0  0  0
  -28.3570  -12.5530   18.4520 C   0  0  0  0  0  2  0  0  0  0  0  0
  -28.0580  -13.4270   19.6990 C   0  0  0  0  0  3  0  0  0  0  0  0
  -29.1190  -13.1830   20.7960 C   0  0  0  0  0  2  0  0  0  0  0  0
  -30.4530  -13.4460   20.2190 N   0  0  0  0  0  0  0  0  0  0  0  0
  -32.1980  -14.8410   19.7270 O   0  0  0  0  0  0  0  0  0  0  0  0
  -30.5500  -15.5390   21.0880 N   0  0  0  0  0  0  0  0  0  0  0  0
  -29.7140  -15.2360   21.5670 H   0  0  0  0  0  0  0  0  0  0  0  0
  -25.6980  -14.1160   20.4780 C   0  0  0  0  0  0  0  0  0  0  0  0
  -24.6070  -13.3770   20.8500 C   0  0  0  0  0  0  0  0  0  0  0  0
  -25.0090  -12.0090   20.7650 C   0  0  0  0  0  0  0  0  0  0  0  0
  -26.7010  -13.2000   20.1970 N   0  0  0  0  0  0  0  0  0  0  0  0
  -26.2880  -11.9250   20.4210 N   0  0  0  0  0  0  0  0  0  0  0  0
  -24.2360  -10.7730   20.9340 C   0  0  0  0  0  0  0  0  0  0  0  0
  -24.6260   -9.7790   21.8600 C   0  0  0  0  0  3  0  0  0  0  0  0
  -23.8570   -8.6070   22.0180 C   0  0  0  0  0  3  0  0  0  0  0  0
  -22.6830   -8.4200   21.2490 C   0  0  0  0  0  0  0  0  0  0  0  0
  -22.3120   -9.4010   20.3140 C   0  0  0  0  0  3  0  0  0  0  0  0
  -23.0820  -10.5650   20.1530 C   0  0  0  0  0  3  0  0  0  0  0  0
  -21.8880   -7.3020   21.3170 O   0  0  0  0  0  0  0  0  0  0  0  0
  -21.7580   -6.5800   22.4760 C   0  0  0  0  0  0  0  0  0  0  0  0
  -21.2720   -7.1630   23.6660 C   0  0  0  0  0  3  0  0  0  0  0  0
  -21.0890   -6.3680   24.8150 C   0  0  0  0  0  3  0  0  0  0  0  0
  -21.3810   -4.9920   24.7750 C   0  0  0  0  0  0  0  0  0  0  0  0
  -21.8580   -4.4080   23.5890 C   0  0  0  0  0  3  0  0  0  0  0  0
  -22.0430   -5.2000   22.4410 C   0  0  0  0  0  0  0  0  0  0  0  0
  -22.4840   -4.6280   21.2950 F   0  0  0  0  0  0  0  0  0  0  0  0
  -21.1960   -4.2270   25.8760 F   0  0  0  0  0  0  0  0  0  0  0  0
  -23.2390  -13.9020   21.1760 C   0  0  0  0  0  0  0  0  0  0  0  0
  -22.5120  -13.2140   22.0500 N   0  0  0  0  0  0  0  0  0  0  0  0
  -22.8260  -14.9560   20.6940 O   0  0  0  0  0  0  0  0  0  0  0  0
  -22.8590  -12.3600   22.4610 H   0  0  0  0  0  0  0  0  0  0  0  0
  -21.5940  -13.5450   22.3130 H   0  0  0  0  0  0  0  0  0  0  0  0
  -25.9160  -15.4840   20.3410 N   0  0  0  0  0  0  0  0  0  0  0  0
  -25.1810  -16.1660   20.4920 H   0  0  0  0  0  0  0  0  0  0  0  0
  -26.7800  -15.8990   20.0150 H   0  0  0  0  0  0  0  0  0  0  0  0
  -27.5770  -23.7120   22.8010 C   0  0  0  0  0  1  0  0  0  0  0  0
  -28.0050  -22.1260   20.9310 C   0  0  0  0  0  1  0  0  0  0  0  0
  -28.5210  -23.4180   21.6150 C   0  0  2  0  0  0  0  0  0  0  0  0
  -28.4140  -24.5560   20.5530 C   0  0  0  0  0  2  0  0  0  0  0  0
  -28.7440  -25.9940   21.0150 C   0  0  0  0  0  2  0  0  0  0  0  0
  -28.5820  -26.9250   19.9380 O   0  0  0  0  0  0  0  0  0  0  0  0
  -24.6840  -31.8900   23.2180 C   0  0  0  0  0  0  0  0  0  0  0  0
  -27.4060  -27.6330   19.9750 C   0  0  0  0  0  0  0  0  0  0  0  0
  -23.4990  -30.5250   21.5300 C   0  0  0  0  0  3  0  0  0  0  0  0
  -24.9790  -29.0710   20.0430 C   0  0  0  0  0  0  0  0  0  0  0  0
  -26.0130  -30.9460   21.3350 C   0  0  0  0  0  2  0  0  0  0  0  0
  -26.1250  -29.6020   20.6480 C   0  0  0  0  0  0  0  0  0  0  0  0
  -27.3430  -28.8900   20.6150 C   0  0  0  0  0  3  0  0  0  0  0  0
  -26.2490  -27.1100   19.3630 C   0  0  0  0  0  3  0  0  0  0  0  0
  -25.0340  -27.8210   19.3990 C   0  0  0  0  0  3  0  0  0  0  0  0
  -23.7160  -29.8970   20.1260 C   0  0  0  0  0  2  0  0  0  0  0  0
  -24.7500  -31.1330   22.0870 N   0  0  0  0  0  0  0  0  0  0  0  0
  -23.6010  -32.1220   23.7710 O   0  0  0  0  0  0  0  0  0  0  0  0
  -22.8730  -29.4560   22.4550 C   0  0  0  0  0  0  0  0  0  0  0  0
  -21.5490  -29.2650   22.3350 N   0  0  0  0  0  0  0  0  0  0  0  0
  -23.5750  -28.8050   23.2330 O   0  0  0  0  0  0  0  0  0  0  0  0
  -21.0470  -29.8430   21.6770 H   0  0  0  0  0  0  0  0  0  0  0  0
  -18.1890  -28.0360   22.8370 C   0  0  0  0  0  0  0  0  0  0  0  0
  -20.7510  -28.2880   23.0740 C   0  0  0  0  0  3  0  0  0  0  0  0
  -20.8480  -26.8890   22.4240 C   0  0  0  0  0  2  0  0  0  0  0  0
  -19.7270  -26.6140   21.4160 C   0  0  0  0  0  2  0  0  0  0  0  0
  -18.3570  -26.7210   22.0930 C   0  0  0  0  0  2  0  0  0  0  0  0
  -19.3140  -28.7780   23.2830 C   0  0  0  0  0  0  0  0  0  0  0  0
  -19.1060  -30.0110   23.9390 C   0  0  0  0  0  3  0  0  0  0  0  0
  -17.8040  -30.5010   24.1530 C   0  0  0  0  0  3  0  0  0  0  0  0
  -16.6930  -29.7540   23.7260 C   0  0  0  0  0  3  0  0  0  0  0  0
  -16.8870  -28.5230   23.0730 C   0  0  0  0  0  3  0  0  0  0  0  0
  -25.9620  -32.5210   23.8540 C   0  0  0  0  0  3  0  0  0  0  0  0
  -25.6410  -33.9110   24.2030 N   0  0  0  0  0  0  0  0  0  0  0  0
  -25.9750  -34.9760   23.4620 C   0  0  0  0  0  0  0  0  0  0  0  0
  -26.6570  -34.8930   22.4360 O   0  0  0  0  0  0  0  0  0  0  0  0
  -25.0320  -34.0500   24.9960 H   0  0  0  0  0  0  0  0  0  0  0  0
  -24.2380  -36.7620   23.1150 C   0  0  0  0  0  1  0  0  0  0  0  0
  -25.4720  -36.3530   23.9350 C   0  0  0  0  0  3  0  0  0  0  0  0
  -27.5880  -37.2400   24.8100 C   0  0  0  0  0  1  0  0  0  0  0  0
  -26.4990  -37.4150   23.8520 N   0  0  0  0  0  0  0  0  0  0  0  0
  -26.0850  -38.3310   24.0040 H   0  0  0  0  0  0  0  0  0  0  0  0
  -26.4800  -31.7330   25.1180 C   0  0  1  0  0  0  0  0  0  0  0  0
  -25.3840  -31.4650   26.1750 C   0  0  0  0  0  1  0  0  0  0  0  0
  -27.0800  -30.3680   24.7030 C   0  0  0  0  0  1  0  0  0  0  0  0
  -27.6210  -32.5280   25.8010 C   0  0  0  0  0  1  0  0  0  0  0  0
  1  7  1  0
  2  6  1  0
  3  5  1  0
  4  2  2  0
  4  7  1  0
  6  3  2  0
  7  5  2  0
  8  6  1  0
  9 18  1  0
  9  8  1  0
 10 18  1  0
 11 16  1  0
 12 13  1  0
 12 11  1  0
 14 13  1  0
 14 23  1  0
 14 15  1  0
 16 10  1  0
 16 15  1  0
 17 10  2  0
 18 19  1  0
 20 21  2  0
 21 40  1  0
 22 21  1  0
 22 25  1  0
 23 24  1  0
 23 20  1  0
 24 22  2  0
 25 26  1  0
 26 27  2  0
 28 31  1  0
 28 27  1  0
 29 28  2  0
 30 29  1  0
 30 25  2  0
 31 32  1  0
 32 33  1  0
 33 34  2  0
 35 34  1  0
 35 39  1  0
 36 35  2  0
 37 32  2  0
 37 36  1  0
 38 37  1  0
 40 41  1  0
 41 44  1  0
 41 43  1  0
 42 40  2  0
 45 20  1  0
 45 46  1  0
 47 45  1  0
 50 49  1  6
 50  1  1  0
 50 48  1  0
 51 52  1  0
 51 50  1  0
 53 55  1  0
 53 52  1  0
 54 65  2  0
 55 60  1  0
 56 64  1  0
 56 66  1  0
 57 63  1  0
 57 59  1  0
 58 64  1  0
 59 58  1  0
 60 59  2  0
 61 62  1  0
 61 55  2  0
 62 57  2  0
 63 56  1  0
 64 54  1  0
 66 68  2  0
 67 66  1  0
 69 67  1  0
 70 79  2  0
 70 75  1  0
 71 67  1  0
 71 75  1  0
 72 71  1  0
 73 74  1  0
 73 72  1  0
 74 70  1  0
 75 76  2  0
 76 77  1  0
 78 77  2  0
 79 78  1  0
 80 54  1  0
 80 81  1  0
 80 90  1  0
 81 84  1  0
 82 86  1  0
 82 81  1  0
 83 82  2  0
 86 85  1  0
 88 86  1  0
 88 89  1  0
 88 87  1  0
 90 93  1  1
 90 91  1  0
 92 90  1  0
M  ISO  4  10 100  18 100  52 101  53 101
M  END
>  <TORSDO>  (70) 
F 22

>  <SCORE>  (70) 
-11.751

>  <name>  (70) 
69

>  <ligand_id>  (70) 
69

>  <original_smiles>  (70) 
[H]c1c([H])c([H])c2c(c1[H])C([H])([H])C([H])([H])C([H])([H])C2([H])N([H])C(=O)C1([H])N(C(=O)C([H])(N([H])C(=O)C([H])(N([H])C([H])([H])[H])C([H])([H])[H])C(C([H])([H])[H])(C([H])([H])[H])C([H])([H])[H])C([H])([H])c2c([H])c(OC([H])([H])C([H])([H])C(C([H])([H])[H])(C([H])([H])[H])C([H])([H])c3c([H])c([H])c(C([H])([H])C([H])([H])N([H])C(=O)N4C([H])([H])C([H])([H])C([H])([H])C([H])(n5nc(-c6c([H])c([H])c(Oc7c([H])c([H])c(F)c([H])c7F)c([H])c6[H])c(C(=O)N([H])[H])c5N([H])[H])C4([H])[H])c([H])c3[H])c([H])c([H])c2C1([H])[H]

>  <smiles>  (70) 
[H]c1c([H])c([H])c2c(c1[H])C([H])([H])C([H])([H])C([H])([H])C2([H])N([H])C(=O)C1([H])N(C(=O)C([H])(N([H])C(=O)C([H])(N([H])C([H])([H])[H])C([H])([H])[H])C(C([H])([H])[H])(C([H])([H])[H])C([H])([H])[H])C([H])([H])c2c([H])c(OC([H])([H])C([H])([H])C(C([H])([H])[H])(C([H])([H])[H])C([H])([H])c3c([H])c([H])c(C([H])([H])C([H])([H])N([H])C(=O)N4C([H])([H])C([H])([H])C([H])([H])C([H])(n5nc(-c6c([H])c([H])c(Oc7c([H])c([H])c(F)c([H])c7F)c([H])c6[H])c(C(=O)N([H])[H])c5N([H])[H])C4([H])[H])c([H])c3[H])c([H])c([H])c2C1([H])[H]

$$$$
70:0:0
     RDKit          3D

 97105  0  0  1  0  0  0  0  0999 V2000
  -27.4430  -23.4910   20.9110 C   0  0  0  0  0  0  0  0  0  0  0  0
  -26.7920  -21.9330   19.0090 C   0  0  0  0  0  2  0  0  0  0  0  0
  -27.3340  -21.1880   21.4020 C   0  0  0  0  0  2  0  0  0  0  0  0
  -26.4660  -23.2640   19.7480 C   0  0  0  0  0  3  0  0  0  0  0  0
  -27.3430  -20.7880   19.9100 C   0  0  0  0  0  3  0  0  0  0  0  0
  -27.8790  -22.5270   21.6280 N   0  0  0  0  0  0  0  0  0  0  0  0
  -25.0680  -23.3480   20.2280 N   0  0  0  0  0  4  0  0  0  0  0  0
  -24.4210  -23.1050   19.4950 H   0  0  0  0  0  0  0  0  0  0  0  0
  -24.8610  -24.2910   20.5070 H   0  0  0  0  0  0  0  0  0  0  0  0
  -24.9040  -22.7530   21.0180 H   0  0  0  0  0  0  0  0  0  0  0  0
  -28.7170  -20.3820   19.5080 N   0  0  0  0  0  4  0  0  0  0  0  0
  -29.3730  -20.7560   20.1780 H   0  0  0  0  0  0  0  0  0  0  0  0
  -28.9260  -20.8280   18.6300 H   0  0  0  0  0  0  0  0  0  0  0  0
  -28.9660  -18.9220   19.3110 C   0  0  0  0  0  2  0  0  0  0  0  0
  -29.7840  -18.2340   20.4660 C   0  0  0  0  0  2  0  0  0  0  0  0
  -30.9960  -17.2390   20.3460 C   0  0  0  0  0  2  0  0  0  0  0  0
  -31.5260  -14.8320   20.6550 C   0  0  0  0  0  0  0  0  0  0  0  0
  -31.2810  -12.5530   19.7640 C   0  0  0  0  0  2  0  0  0  0  0  0
  -30.4510  -12.6570   18.4680 C   0  0  0  0  0  2  0  0  0  0  0  0
  -28.9420  -12.5970   18.7850 C   0  0  0  0  0  2  0  0  0  0  0  0
  -28.5250  -13.5780   19.9170 C   0  0  0  0  0  3  0  0  0  0  0  0
  -29.4770  -13.4460   21.1300 C   0  0  0  0  0  2  0  0  0  0  0  0
  -30.8580  -13.6510   20.6500 N   0  0  0  0  0  0  0  0  0  0  0  0
  -32.6810  -14.9660   20.2410 O   0  0  0  0  0  0  0  0  0  0  0  0
  -30.7600  -15.9000   20.9190 N   0  0  0  0  0  0  0  0  0  0  0  0
  -29.8350  -15.7050   21.2710 H   0  0  0  0  0  0  0  0  0  0  0  0
  -26.1270  -14.3280   20.4870 C   0  0  0  0  0  0  0  0  0  0  0  0
  -24.9930  -13.6210   20.7880 C   0  0  0  0  0  0  0  0  0  0  0  0
  -25.3720  -12.2420   20.7630 C   0  0  0  0  0  0  0  0  0  0  0  0
  -27.1280  -13.3860   20.3050 N   0  0  0  0  0  0  0  0  0  0  0  0
  -26.6730  -12.1260   20.5210 N   0  0  0  0  0  0  0  0  0  0  0  0
  -24.5590  -11.0270   20.8850 C   0  0  0  0  0  0  0  0  0  0  0  0
  -24.8440  -10.0460   21.8600 C   0  0  0  0  0  3  0  0  0  0  0  0
  -24.0390   -8.8930   21.9720 C   0  0  0  0  0  3  0  0  0  0  0  0
  -22.9340   -8.7110   21.1050 C   0  0  0  0  0  0  0  0  0  0  0  0
  -22.6670   -9.6800   20.1220 C   0  0  0  0  0  3  0  0  0  0  0  0
  -23.4730  -10.8250   20.0090 C   0  0  0  0  0  3  0  0  0  0  0  0
  -22.1130   -7.6100   21.1240 O   0  0  0  0  0  0  0  0  0  0  0  0
  -21.8550   -6.9230   22.2840 C   0  0  0  0  0  0  0  0  0  0  0  0
  -21.2800   -7.5540   23.4100 C   0  0  0  0  0  3  0  0  0  0  0  0
  -20.9690   -6.7970   24.5570 C   0  0  0  0  0  3  0  0  0  0  0  0
  -21.2190   -5.4120   24.5790 C   0  0  0  0  0  0  0  0  0  0  0  0
  -21.7900   -4.7830   23.4580 C   0  0  0  0  0  3  0  0  0  0  0  0
  -22.1030   -5.5370   22.3130 C   0  0  0  0  0  0  0  0  0  0  0  0
  -22.6300   -4.9220   21.2280 F   0  0  0  0  0  0  0  0  0  0  0  0
  -20.9140   -4.6830   25.6780 F   0  0  0  0  0  0  0  0  0  0  0  0
  -23.6160  -14.1800   20.9910 C   0  0  0  0  0  0  0  0  0  0  0  0
  -22.7990  -13.5240   21.8100 N   0  0  0  0  0  0  0  0  0  0  0  0
  -23.2710  -15.2370   20.4620 O   0  0  0  0  0  0  0  0  0  0  0  0
  -23.0900  -12.6700   22.2650 H   0  0  0  0  0  0  0  0  0  0  0  0
  -21.8690  -13.8800   21.9830 H   0  0  0  0  0  0  0  0  0  0  0  0
  -26.3800  -15.6850   20.3280 N   0  0  0  0  0  0  0  0  0  0  0  0
  -25.6060  -16.3400   20.2910 H   0  0  0  0  0  0  0  0  0  0  0  0
  -27.2160  -16.0350   19.8840 H   0  0  0  0  0  0  0  0  0  0  0  0
  -27.8210  -24.9410   21.2120 C   0  0  0  0  0  2  0  0  0  0  0  0
  -28.7140  -25.6400   20.1500 C   0  0  0  0  0  2  0  0  0  0  0  0
  -28.7370  -27.0660   20.3090 O   0  0  0  0  0  0  0  0  0  0  0  0
  -24.6510  -31.9970   23.3520 C   0  0  0  0  0  0  0  0  0  0  0  0
  -27.5340  -27.7380   20.2420 C   0  0  0  0  0  0  0  0  0  0  0  0
  -23.5380  -30.5800   21.6570 C   0  0  0  0  0  3  0  0  0  0  0  0
  -25.0760  -29.1300   20.2370 C   0  0  0  0  0  0  0  0  0  0  0  0
  -26.0440  -31.0480   21.5180 C   0  0  0  0  0  2  0  0  0  0  0  0
  -26.1980  -29.6910   20.8610 C   0  0  0  0  0  0  0  0  0  0  0  0
  -27.4280  -29.0000   20.8660 C   0  0  0  0  0  3  0  0  0  0  0  0
  -26.3970  -27.1990   19.5930 C   0  0  0  0  0  3  0  0  0  0  0  0
  -25.1660  -27.8780   19.6080 C   0  0  0  0  0  3  0  0  0  0  0  0
  -23.8010  -29.9340   20.2690 C   0  0  0  0  0  2  0  0  0  0  0  0
  -24.7610  -31.2220   22.2340 N   0  0  0  0  0  0  0  0  0  0  0  0
  -23.5500  -32.2180   23.8750 O   0  0  0  0  0  0  0  0  0  0  0  0
  -22.9100  -29.5180   22.5860 C   0  0  0  0  0  0  0  0  0  0  0  0
  -21.5910  -29.3070   22.4420 N   0  0  0  0  0  0  0  0  0  0  0  0
  -23.6010  -28.8920   23.3930 O   0  0  0  0  0  0  0  0  0  0  0  0
  -21.0900  -29.8720   21.7720 H   0  0  0  0  0  0  0  0  0  0  0  0
  -18.2470  -28.0090   22.8860 C   0  0  0  0  0  0  0  0  0  0  0  0
  -20.7960  -28.3240   23.1790 C   0  0  0  0  0  3  0  0  0  0  0  0
  -20.9370  -26.9170   22.5550 C   0  0  0  0  0  2  0  0  0  0  0  0
  -19.8490  -26.6070   21.5260 C   0  0  0  0  0  2  0  0  0  0  0  0
  -18.4660  -26.6800   22.1810 C   0  0  0  0  0  2  0  0  0  0  0  0
  -19.3440  -28.7870   23.3410 C   0  0  0  0  0  0  0  0  0  0  0  0
  -19.0920  -30.0300   23.9640 C   0  0  0  0  0  3  0  0  0  0  0  0
  -17.7770  -30.4950   24.1330 C   0  0  0  0  0  3  0  0  0  0  0  0
  -16.6950  -29.7150   23.6940 C   0  0  0  0  0  3  0  0  0  0  0  0
  -16.9290  -28.4720   23.0810 C   0  0  0  0  0  3  0  0  0  0  0  0
  -25.9020  -32.6640   24.0080 C   0  0  0  0  0  3  0  0  0  0  0  0
  -25.5620  -34.0680   24.2730 N   0  0  0  0  0  0  0  0  0  0  0  0
  -25.9190  -35.0930   23.4890 C   0  0  0  0  0  0  0  0  0  0  0  0
  -26.6410  -34.9600   22.4950 O   0  0  0  0  0  0  0  0  0  0  0  0
  -24.9350  -34.2440   25.0430 H   0  0  0  0  0  0  0  0  0  0  0  0
  -24.1890  -36.8430   22.9920 C   0  0  0  0  0  1  0  0  0  0  0  0
  -25.4010  -36.4900   23.8680 C   0  0  0  0  0  3  0  0  0  0  0  0
  -27.4850  -37.4360   24.7540 C   0  0  0  0  0  1  0  0  0  0  0  0
  -26.4240  -37.5530   23.7550 N   0  0  0  0  0  0  0  0  0  0  0  0
  -26.0010  -38.4710   23.8530 H   0  0  0  0  0  0  0  0  0  0  0  0
  -26.3690  -31.9370   25.3290 C   0  0  1  0  0  0  0  0  0  0  0  0
  -25.2300  -31.6840   26.3420 C   0  0  0  0  0  1  0  0  0  0  0  0
  -27.0120  -30.5700   25.0000 C   0  0  0  0  0  1  0  0  0  0  0  0
  -27.4540  -32.7820   26.0370 C   0  0  0  0  0  1  0  0  0  0  0  0
  1 55  1  0
  1  6  2  0
  2  4  1  0
  2  5  1  0
  3  6  1  0
  4  7  1  0
  4  1  1  0
  5 11  1  0
  5  3  1  0
  7  9  1  0
  7 10  1  0
  8  7  1  0
 11 12  1  0
 13 11  1  0
 14 11  1  0
 14 15  1  0
 16 15  1  0
 16 25  1  0
 17 25  1  0
 18 23  1  0
 19 20  1  0
 19 18  1  0
 21 20  1  0
 21 30  1  0
 21 22  1  0
 23 17  1  0
 23 22  1  0
 24 17  2  0
 25 26  1  0
 27 28  2  0
 28 47  1  0
 29 28  1  0
 29 32  1  0
 30 27  1  0
 30 31  1  0
 31 29  2  0
 32 33  1  0
 33 34  2  0
 35 38  1  0
 35 34  1  0
 36 35  2  0
 37 36  1  0
 37 32  2  0
 38 39  1  0
 39 44  2  0
 39 40  1  0
 40 41  2  0
 41 42  1  0
 42 46  1  0
 43 42  2  0
 44 43  1  0
 45 44  1  0
 47 48  1  0
 48 51  1  0
 48 50  1  0
 49 47  2  0
 52 27  1  0
 53 52  1  0
 54 52  1  0
 56 57  1  0
 56 55  1  0
 58 69  2  0
 59 57  1  0
 59 64  1  0
 60 68  1  0
 60 70  1  0
 61 67  1  0
 61 63  1  0
 62 68  1  0
 63 64  2  0
 63 62  1  0
 65 66  1  0
 65 59  2  0
 66 61  2  0
 67 60  1  0
 68 58  1  0
 70 72  2  0
 71 70  1  0
 73 71  1  0
 74 83  2  0
 74 79  1  0
 75 71  1  0
 75 79  1  0
 76 75  1  0
 77 78  1  0
 77 76  1  0
 78 74  1  0
 79 80  2  0
 80 81  1  0
 82 81  2  0
 83 82  1  0
 84 58  1  0
 84 85  1  0
 84 94  1  0
 85 88  1  0
 86 90  1  0
 86 85  1  0
 87 86  2  0
 90 89  1  0
 92 93  1  0
 92 90  1  0
 92 91  1  0
 94 97  1  1
 94 95  1  0
 96 94  1  0
M  ISO  4  17 100  25 100  56 101  57 101
M  END
>  <TORSDO>  (71) 
F 23

>  <SCORE>  (71) 
-10.876

>  <name>  (71) 
70

>  <ligand_id>  (71) 
70

>  <original_smiles>  (71) 
[H]c1c([H])c([H])c2c(c1[H])C([H])([H])C([H])([H])C([H])([H])C2([H])N([H])C(=O)C1([H])N(C(=O)C([H])(N([H])C(=O)C([H])(N([H])C([H])([H])[H])C([H])([H])[H])C(C([H])([H])[H])(C([H])([H])[H])C([H])([H])[H])C([H])([H])c2c([H])c(OC([H])([H])C([H])([H])C3=NC([H])([H])C([H])([N+]([H])([H])C([H])([H])C([H])([H])C([H])([H])N([H])C(=O)N4C([H])([H])C([H])([H])C([H])([H])C([H])(n5nc(-c6c([H])c([H])c(Oc7c([H])c([H])c(F)c([H])c7F)c([H])c6[H])c(C(=O)N([H])[H])c5N([H])[H])C4([H])[H])C([H])([H])C3([H])[N+]([H])([H])[H])c([H])c([H])c2C1([H])[H]

>  <smiles>  (71) 
[H]c1c([H])c([H])c2c(c1[H])C([H])([H])C([H])([H])C([H])([H])C2([H])N([H])C(=O)C1([H])N(C(=O)C([H])(N([H])C(=O)C([H])(N([H])C([H])([H])[H])C([H])([H])[H])C(C([H])([H])[H])(C([H])([H])[H])C([H])([H])[H])C([H])([H])c2c([H])c(OC([H])([H])C([H])([H])C3=NC([H])([H])C([H])([N+]([H])([H])C([H])([H])C([H])([H])C([H])([H])N([H])C(=O)N4C([H])([H])C([H])([H])C([H])([H])C([H])(n5nc(-c6c([H])c([H])c(Oc7c([H])c([H])c(F)c([H])c7F)c([H])c6[H])c(C(=O)N([H])[H])c5N([H])[H])C4([H])[H])C([H])([H])C3([H])[N+]([H])([H])[H])c([H])c([H])c2C1([H])[H]

$$$$
71:0:0
     RDKit          3D

 92100  0  0  1  0  0  0  0  0999 V2000
  -29.4830  -21.7150   19.6110 C   0  0  0  0  0  2  0  0  0  0  0  0
  -29.5610  -20.7310   20.7940 C   0  0  0  0  0  3  0  0  0  0  0  0
  -29.8750  -19.4060   20.9260 C   0  0  0  0  0  0  0  0  0  0  0  0
  -29.7580  -18.8140   22.3280 C   0  0  0  0  0  1  0  0  0  0  0  0
  -31.8610  -14.8280   19.7890 C   0  0  0  0  0  0  0  0  0  0  0  0
  -31.4510  -12.6050   18.8500 C   0  0  0  0  0  2  0  0  0  0  0  0
  -30.4450  -12.7800   17.6950 C   0  0  0  0  0  2  0  0  0  0  0  0
  -28.9980  -12.6990   18.2260 C   0  0  0  0  0  2  0  0  0  0  0  0
  -28.7460  -13.5910   19.4760 C   0  0  0  0  0  3  0  0  0  0  0  0
  -29.8800  -13.4390   20.5170 C   0  0  0  0  0  2  0  0  0  0  0  0
  -31.1530  -13.6650   19.8240 N   0  0  0  0  0  0  0  0  0  0  0  0
  -33.0670  -14.8370   19.5380 O   0  0  0  0  0  0  0  0  0  0  0  0
  -32.2070  -17.8000   18.1610 C   0  0  0  0  0  2  0  0  0  0  0  0
  -31.5070  -18.8890   18.9890 C   0  0  0  0  0  2  0  0  0  0  0  0
  -31.3810  -16.5030   18.0710 C   0  0  0  0  0  2  0  0  0  0  0  0
  -30.6150  -16.9050   20.3960 C   0  0  0  0  0  2  0  0  0  0  0  0
  -30.3350  -18.3720   19.8520 C   0  0  0  0  0  3  0  0  0  0  0  0
  -31.1330  -15.9220   19.4090 N   0  0  0  0  0  0  0  0  0  0  0  0
  -26.4450  -14.2670   20.4030 C   0  0  0  0  0  0  0  0  0  0  0  0
  -25.3640  -13.5290   20.7990 C   0  0  0  0  0  0  0  0  0  0  0  0
  -25.7500  -12.1570   20.6690 C   0  0  0  0  0  0  0  0  0  0  0  0
  -27.4240  -13.3510   20.0490 N   0  0  0  0  0  0  0  0  0  0  0  0
  -27.0170  -12.0750   20.2750 N   0  0  0  0  0  0  0  0  0  0  0  0
  -24.9730  -10.9240   20.8460 C   0  0  0  0  0  0  0  0  0  0  0  0
  -25.2780  -10.0010   21.8700 C   0  0  0  0  0  3  0  0  0  0  0  0
  -24.5050   -8.8300   22.0320 C   0  0  0  0  0  3  0  0  0  0  0  0
  -23.4120   -8.5780   21.1710 C   0  0  0  0  0  0  0  0  0  0  0  0
  -23.1280   -9.4870   20.1380 C   0  0  0  0  0  3  0  0  0  0  0  0
  -23.9000  -10.6490   19.9740 C   0  0  0  0  0  3  0  0  0  0  0  0
  -22.6230   -7.4540   21.2360 O   0  0  0  0  0  0  0  0  0  0  0  0
  -22.2510   -6.9060   22.4370 C   0  0  0  0  0  0  0  0  0  0  0  0
  -21.4850   -7.6270   23.3800 C   0  0  0  0  0  3  0  0  0  0  0  0
  -21.0640   -7.0030   24.5700 C   0  0  0  0  0  3  0  0  0  0  0  0
  -21.3970   -5.6560   24.8160 C   0  0  0  0  0  0  0  0  0  0  0  0
  -22.1580   -4.9370   23.8770 C   0  0  0  0  0  3  0  0  0  0  0  0
  -22.5790   -5.5590   22.6910 C   0  0  0  0  0  0  0  0  0  0  0  0
  -23.2920   -4.8540   21.7790 F   0  0  0  0  0  0  0  0  0  0  0  0
  -20.9870   -5.0530   25.9560 F   0  0  0  0  0  0  0  0  0  0  0  0
  -24.0090  -14.0580   21.1790 C   0  0  0  0  0  0  0  0  0  0  0  0
  -23.3090  -13.3640   22.0680 N   0  0  0  0  0  0  0  0  0  0  0  0
  -23.5870  -15.1230   20.7260 O   0  0  0  0  0  0  0  0  0  0  0  0
  -23.6640  -12.5000   22.4510 H   0  0  0  0  0  0  0  0  0  0  0  0
  -22.4040  -13.6970   22.3710 H   0  0  0  0  0  0  0  0  0  0  0  0
  -26.6660  -15.6370   20.2930 N   0  0  0  0  0  0  0  0  0  0  0  0
  -25.9380  -16.3110   20.5060 H   0  0  0  0  0  0  0  0  0  0  0  0
  -27.5100  -16.0700   19.9400 H   0  0  0  0  0  0  0  0  0  0  0  0
  -28.5470  -22.8490   19.9220 N   0  0  0  0  0  4  0  0  0  0  0  0
  -28.6630  -23.0470   20.9050 H   0  0  0  0  0  0  0  0  0  0  0  0
  -27.5940  -22.5340   19.7950 H   0  0  0  0  0  0  0  0  0  0  0  0
  -28.7070  -24.1570   19.2000 C   0  0  0  0  0  2  0  0  0  0  0  0
  -28.3860  -25.3860   20.1190 C   0  0  0  0  0  2  0  0  0  0  0  0
  -28.4400  -26.7190   19.5400 O   0  0  0  0  0  0  0  0  0  0  0  0
  -24.5900  -31.6470   23.0630 C   0  0  0  0  0  0  0  0  0  0  0  0
  -27.2740  -27.4610   19.6310 C   0  0  0  0  0  0  0  0  0  0  0  0
  -23.3820  -30.2970   21.3800 C   0  0  0  0  0  3  0  0  0  0  0  0
  -24.8410  -28.9030   19.8180 C   0  0  0  0  0  0  0  0  0  0  0  0
  -25.8910  -30.7580   21.1200 C   0  0  0  0  0  2  0  0  0  0  0  0
  -26.0050  -29.4280   20.3920 C   0  0  0  0  0  0  0  0  0  0  0  0
  -27.2340  -28.7230   20.2800 C   0  0  0  0  0  3  0  0  0  0  0  0
  -26.0900  -26.9580   19.0560 C   0  0  0  0  0  3  0  0  0  0  0  0
  -24.8800  -27.6690   19.1430 C   0  0  0  0  0  3  0  0  0  0  0  0
  -23.5680  -29.7090   19.9570 C   0  0  0  0  0  2  0  0  0  0  0  0
  -24.6410  -30.9130   21.9130 N   0  0  0  0  0  0  0  0  0  0  0  0
  -23.5180  -31.8460   23.6500 O   0  0  0  0  0  0  0  0  0  0  0  0
  -22.7980  -29.1990   22.2990 C   0  0  0  0  0  0  0  0  0  0  0  0
  -21.4790  -28.9640   22.1880 N   0  0  0  0  0  0  0  0  0  0  0  0
  -23.5260  -28.5640   23.0670 O   0  0  0  0  0  0  0  0  0  0  0  0
  -20.9520  -29.5340   21.5420 H   0  0  0  0  0  0  0  0  0  0  0  0
  -18.1700  -27.5940   22.6810 C   0  0  0  0  0  0  0  0  0  0  0  0
  -20.7190  -27.9510   22.9190 C   0  0  0  0  0  3  0  0  0  0  0  0
  -20.8740  -26.5590   22.2640 C   0  0  0  0  0  2  0  0  0  0  0  0
  -19.7660  -26.2410   21.2570 C   0  0  0  0  0  2  0  0  0  0  0  0
  -18.3910  -26.2900   21.9320 C   0  0  0  0  0  2  0  0  0  0  0  0
  -19.2620  -28.3810   23.1310 C   0  0  0  0  0  0  0  0  0  0  0  0
  -19.0010  -29.6000   23.7910 C   0  0  0  0  0  3  0  0  0  0  0  0
  -17.6790  -30.0350   24.0060 C   0  0  0  0  0  3  0  0  0  0  0  0
  -16.6020  -29.2420   23.5740 C   0  0  0  0  0  3  0  0  0  0  0  0
  -16.8480  -28.0230   22.9180 C   0  0  0  0  0  3  0  0  0  0  0  0
  -25.8720  -32.2870   23.6790 C   0  0  0  0  0  3  0  0  0  0  0  0
  -26.4420  -31.4760   24.9050 C   0  0  1  0  0  0  0  0  0  0  0  0
  -25.3810  -31.1460   25.9810 C   0  0  0  0  0  1  0  0  0  0  0  0
  -27.0650  -30.1420   24.4300 C   0  0  0  0  0  1  0  0  0  0  0  0
  -27.5800  -32.2780   25.5810 C   0  0  0  0  0  1  0  0  0  0  0  0
  -25.5320  -33.6610   24.0800 N   0  0  0  0  0  0  0  0  0  0  0  0
  -25.8270  -34.7550   23.3660 C   0  0  0  0  0  0  0  0  0  0  0  0
  -26.4860  -34.7160   22.3230 O   0  0  0  0  0  0  0  0  0  0  0  0
  -24.9410  -33.7620   24.8930 H   0  0  0  0  0  0  0  0  0  0  0  0
  -24.0640  -36.5260   23.1000 C   0  0  0  0  0  1  0  0  0  0  0  0
  -25.3110  -36.1070   23.8940 C   0  0  0  0  0  3  0  0  0  0  0  0
  -27.4150  -37.0010   24.7910 C   0  0  0  0  0  1  0  0  0  0  0  0
  -26.3210  -37.1850   23.8380 N   0  0  0  0  0  0  0  0  0  0  0  0
  -25.8940  -38.0890   24.0200 H   0  0  0  0  0  0  0  0  0  0  0  0
  1 47  1  0
  1  2  1  0
  2  3  2  0
  3  4  1  0
  5 11  1  0
  6 11  1  0
  7  8  1  0
  7  6  1  0
  9  8  1  0
  9 22  1  0
  9 10  1  0
 11 10  1  0
 12  5  2  0
 13 14  1  0
 14 17  1  0
 15 13  1  0
 15 18  1  0
 17 16  1  0
 17  3  1  0
 18  5  1  0
 18 16  1  0
 19 20  2  0
 20 39  1  0
 21 20  1  0
 21 24  1  0
 22 23  1  0
 22 19  1  0
 23 21  2  0
 24 25  1  0
 25 26  2  0
 27 30  1  0
 27 26  1  0
 28 27  2  0
 29 28  1  0
 29 24  2  0
 30 31  1  0
 31 36  2  0
 31 32  1  0
 32 33  2  0
 33 34  1  0
 34 38  1  0
 35 34  2  0
 36 35  1  0
 37 36  1  0
 39 40  1  0
 40 43  1  0
 40 42  1  0
 41 39  2  0
 44 19  1  0
 44 45  1  0
 46 44  1  0
 47 48  1  0
 49 47  1  0
 50 47  1  0
 50 51  1  0
 52 54  1  0
 52 51  1  0
 53 64  2  0
 54 59  1  0
 55 63  1  0
 55 65  1  0
 56 62  1  0
 56 58  1  0
 57 63  1  0
 58 57  1  0
 59 58  2  0
 60 61  1  0
 60 54  2  0
 61 56  2  0
 62 55  1  0
 63 53  1  0
 65 67  2  0
 66 65  1  0
 68 66  1  0
 69 78  2  0
 69 74  1  0
 70 66  1  0
 70 74  1  0
 71 70  1  0
 72 73  1  0
 72 71  1  0
 73 69  1  0
 74 75  2  0
 75 76  1  0
 77 76  2  0
 78 77  1  0
 79 53  1  0
 79 84  1  0
 79 80  1  0
 80 83  1  1
 80 81  1  0
 82 80  1  0
 84 87  1  0
 85 89  1  0
 85 84  1  0
 86 85  2  0
 89 88  1  0
 91 89  1  0
 91 92  1  0
 91 90  1  0
M  ISO  4   5 100  18 100  51 101  52 101
M  END
>  <TORSDO>  (72) 
F 20

>  <SCORE>  (72) 
-10.460

>  <name>  (72) 
71

>  <ligand_id>  (72) 
71

>  <original_smiles>  (72) 
[H]C(=C(C([H])([H])[H])C1([H])C([H])([H])N(C(=O)N2C([H])([H])C([H])([H])C([H])([H])C([H])(n3nc(-c4c([H])c([H])c(Oc5c([H])c([H])c(F)c([H])c5F)c([H])c4[H])c(C(=O)N([H])[H])c3N([H])[H])C2([H])[H])C([H])([H])C([H])([H])C1([H])[H])C([H])([H])[N+]([H])([H])C([H])([H])C([H])([H])Oc1c([H])c([H])c2c(c1[H])C([H])([H])N(C(=O)C([H])(N([H])C(=O)C([H])(N([H])C([H])([H])[H])C([H])([H])[H])C(C([H])([H])[H])(C([H])([H])[H])C([H])([H])[H])C([H])(C(=O)N([H])C1([H])c3c([H])c([H])c([H])c([H])c3C([H])([H])C([H])([H])C1([H])[H])C2([H])[H]

>  <smiles>  (72) 
[H]C(=C(C([H])([H])[H])C1([H])C([H])([H])N(C(=O)N2C([H])([H])C([H])([H])C([H])([H])C([H])(n3nc(-c4c([H])c([H])c(Oc5c([H])c([H])c(F)c([H])c5F)c([H])c4[H])c(C(=O)N([H])[H])c3N([H])[H])C2([H])[H])C([H])([H])C([H])([H])C1([H])[H])C([H])([H])[N+]([H])([H])C([H])([H])C([H])([H])Oc1c([H])c([H])c2c(c1[H])C([H])([H])N(C(=O)C([H])(N([H])C(=O)C([H])(N([H])C([H])([H])[H])C([H])([H])[H])C(C([H])([H])[H])(C([H])([H])[H])C([H])([H])[H])C([H])(C(=O)N([H])C1([H])c3c([H])c([H])c([H])c([H])c3C([H])([H])C([H])([H])C1([H])[H])C2([H])[H]

$$$$
72:0:0
     RDKit          3D

 90 98  0  0  1  0  0  0  0  0999 V2000
  -29.7900  -20.4940   20.1040 N   0  0  0  0  0  4  0  0  0  0  0  0
  -30.2110  -20.5400   19.1900 H   0  0  0  0  0  0  0  0  0  0  0  0
  -30.5240  -20.7040   20.7600 H   0  0  0  0  0  0  0  0  0  0  0  0
  -30.8750  -18.2110   22.1490 C   0  0  0  0  0  2  0  0  0  0  0  0
  -31.5350  -17.8590   20.8060 C   0  0  0  0  0  2  0  0  0  0  0  0
  -29.4390  -18.6760   21.8390 C   0  0  0  0  0  2  0  0  0  0  0  0
  -30.3790  -17.6960   19.8100 C   0  0  0  0  0  3  0  0  0  0  0  0
  -29.4030  -18.9670   20.3310 C   0  0  0  0  0  3  0  0  0  0  0  0
  -30.7100  -14.9690   19.6390 C   0  0  0  0  0  0  0  0  0  0  0  0
  -30.4800  -12.6190   18.7220 C   0  0  0  0  0  2  0  0  0  0  0  0
  -29.4340  -12.5770   17.5850 C   0  0  0  0  0  2  0  0  0  0  0  0
  -28.0170  -12.3730   18.1560 C   0  0  0  0  0  2  0  0  0  0  0  0
  -27.7280  -13.3030   19.3640 C   0  0  0  0  0  3  0  0  0  0  0  0
  -28.8870  -13.3190   20.3830 C   0  0  0  0  0  2  0  0  0  0  0  0
  -30.0950  -13.7200   19.6500 N   0  0  0  0  0  0  0  0  0  0  0  0
  -31.8820  -15.0190   19.2510 O   0  0  0  0  0  0  0  0  0  0  0  0
  -29.9740  -16.1640   19.8600 N   0  0  0  0  0  0  0  0  0  0  0  0
  -29.0080  -16.0000   20.0990 H   0  0  0  0  0  0  0  0  0  0  0  0
  -25.4460  -13.8880   20.3640 C   0  0  0  0  0  0  0  0  0  0  0  0
  -24.4140  -13.1140   20.8180 C   0  0  0  0  0  0  0  0  0  0  0  0
  -24.8520  -11.7600   20.7010 C   0  0  0  0  0  0  0  0  0  0  0  0
  -26.4450  -13.0040   19.9910 N   0  0  0  0  0  0  0  0  0  0  0  0
  -26.1040  -11.7170   20.2590 N   0  0  0  0  0  0  0  0  0  0  0  0
  -24.1290  -10.5010   20.9260 C   0  0  0  0  0  0  0  0  0  0  0  0
  -24.5610   -9.5620   21.8880 C   0  0  0  0  0  3  0  0  0  0  0  0
  -23.8360   -8.3680   22.1000 C   0  0  0  0  0  3  0  0  0  0  0  0
  -22.6670   -8.1060   21.3490 C   0  0  0  0  0  0  0  0  0  0  0  0
  -22.2540   -9.0320   20.3750 C   0  0  0  0  0  3  0  0  0  0  0  0
  -22.9780  -10.2160   20.1620 C   0  0  0  0  0  3  0  0  0  0  0  0
  -21.9130   -6.9620   21.4690 O   0  0  0  0  0  0  0  0  0  0  0  0
  -21.7540   -6.3300   22.6760 C   0  0  0  0  0  0  0  0  0  0  0  0
  -21.1800   -6.9810   23.7890 C   0  0  0  0  0  3  0  0  0  0  0  0
  -20.9710   -6.2720   24.9900 C   0  0  0  0  0  3  0  0  0  0  0  0
  -21.3250   -4.9130   25.0750 C   0  0  0  0  0  0  0  0  0  0  0  0
  -21.8900   -4.2600   23.9650 C   0  0  0  0  0  3  0  0  0  0  0  0
  -22.1010   -4.9670   22.7680 C   0  0  0  0  0  0  0  0  0  0  0  0
  -22.6270   -4.3280   21.6960 F   0  0  0  0  0  0  0  0  0  0  0  0
  -21.1170   -4.2280   26.2240 F   0  0  0  0  0  0  0  0  0  0  0  0
  -23.0580  -13.5990   21.2410 C   0  0  0  0  0  0  0  0  0  0  0  0
  -22.4200  -12.9020   22.1740 N   0  0  0  0  0  0  0  0  0  0  0  0
  -22.5780  -14.6340   20.7780 O   0  0  0  0  0  0  0  0  0  0  0  0
  -22.8230  -12.0660   22.5690 H   0  0  0  0  0  0  0  0  0  0  0  0
  -21.5140  -13.2100   22.4980 H   0  0  0  0  0  0  0  0  0  0  0  0
  -25.6080  -15.2610   20.2090 N   0  0  0  0  0  0  0  0  0  0  0  0
  -24.8560  -15.9130   20.4070 H   0  0  0  0  0  0  0  0  0  0  0  0
  -26.4010  -15.6980   19.7580 H   0  0  0  0  0  0  0  0  0  0  0  0
  -28.7590  -21.7040   20.1680 C   0  0  0  0  0  2  0  0  0  0  0  0
  -29.1880  -23.3420   20.1550 C   0  0  0  0  0  3  0  0  0  0  0  0
  -28.1080  -24.6300   19.9930 C   0  0  0  0  0  3  0  0  0  0  0  0
  -28.3640  -26.1630   20.1300 O   0  0  0  0  0  0  0  0  0  0  0  0
  -24.5870  -31.7180   23.1740 C   0  0  0  0  0  0  0  0  0  0  0  0
  -27.2860  -27.1220   20.0750 C   0  0  0  0  0  0  0  0  0  0  0  0
  -23.4290  -30.3310   21.4970 C   0  0  0  0  0  3  0  0  0  0  0  0
  -24.9200  -28.8160   20.0560 C   0  0  0  0  0  0  0  0  0  0  0  0
  -25.9790  -30.6540   21.3590 C   0  0  0  0  0  2  0  0  0  0  0  0
  -26.0870  -29.2770   20.6810 C   0  0  0  0  0  0  0  0  0  0  0  0
  -27.2710  -28.4470   20.6730 C   0  0  0  0  0  3  0  0  0  0  0  0
  -26.0890  -26.7630   19.4150 C   0  0  0  0  0  3  0  0  0  0  0  0
  -24.9340  -27.5720   19.4080 C   0  0  0  0  0  3  0  0  0  0  0  0
  -23.6740  -29.6860   20.1080 C   0  0  0  0  0  2  0  0  0  0  0  0
  -24.6840  -30.9220   22.0660 N   0  0  0  0  0  0  0  0  0  0  0  0
  -23.4910  -31.9710   23.6970 O   0  0  0  0  0  0  0  0  0  0  0  0
  -22.7620  -29.2930   22.4340 C   0  0  0  0  0  0  0  0  0  0  0  0
  -21.4470  -29.0670   22.2620 N   0  0  0  0  0  0  0  0  0  0  0  0
  -23.4310  -28.6920   23.2780 O   0  0  0  0  0  0  0  0  0  0  0  0
  -20.9620  -29.6040   21.5570 H   0  0  0  0  0  0  0  0  0  0  0  0
  -18.1090  -27.7120   22.6340 C   0  0  0  0  0  0  0  0  0  0  0  0
  -20.6400  -28.0940   23.0030 C   0  0  0  0  0  3  0  0  0  0  0  0
  -20.8320  -26.6660   22.4390 C   0  0  0  0  0  2  0  0  0  0  0  0
  -19.7870  -26.2900   21.3820 C   0  0  0  0  0  2  0  0  0  0  0  0
  -18.3750  -26.3720   21.9690 C   0  0  0  0  0  2  0  0  0  0  0  0
  -19.1720  -28.5270   23.1050 C   0  0  0  0  0  0  0  0  0  0  0  0
  -18.8690  -29.7770   23.6850 C   0  0  0  0  0  3  0  0  0  0  0  0
  -17.5350  -30.2150   23.7990 C   0  0  0  0  0  3  0  0  0  0  0  0
  -16.4870  -29.3970   23.3430 C   0  0  0  0  0  3  0  0  0  0  0  0
  -16.7730  -28.1470   22.7660 C   0  0  0  0  0  3  0  0  0  0  0  0
  -25.8460  -32.3660   23.8250 C   0  0  0  0  0  3  0  0  0  0  0  0
  -26.3460  -31.5960   25.1110 C   0  0  1  0  0  0  0  0  0  0  0  0
  -25.2320  -31.3410   26.1530 C   0  0  0  0  0  1  0  0  0  0  0  0
  -26.9550  -30.2280   24.7300 C   0  0  0  0  0  1  0  0  0  0  0  0
  -27.4720  -32.4020   25.7990 C   0  0  0  0  0  1  0  0  0  0  0  0
  -25.5110  -33.7590   24.1610 N   0  0  0  0  0  0  0  0  0  0  0  0
  -25.8250  -34.8220   23.4090 C   0  0  0  0  0  0  0  0  0  0  0  0
  -26.4940  -34.7350   22.3750 O   0  0  0  0  0  0  0  0  0  0  0  0
  -24.9150  -33.9010   24.9630 H   0  0  0  0  0  0  0  0  0  0  0  0
  -24.0580  -36.5850   23.0850 C   0  0  0  0  0  1  0  0  0  0  0  0
  -25.3190  -36.2020   23.8770 C   0  0  0  0  0  3  0  0  0  0  0  0
  -27.4450  -37.1340   24.6830 C   0  0  0  0  0  1  0  0  0  0  0  0
  -26.3300  -37.2740   23.7490 N   0  0  0  0  0  0  0  0  0  0  0  0
  -25.9070  -38.1870   23.8950 H   0  0  0  0  0  0  0  0  0  0  0  0
  1 47  1  0
  1  3  1  0
  2  1  1  0
  5  4  1  0
  6  4  1  0
  7 17  1  0
  7  8  1  0
  7  5  1  0
  8  1  1  0
  8  6  1  0
  9 15  1  0
  9 17  1  0
 10 15  1  0
 11 12  1  0
 11 10  1  0
 13 12  1  0
 13 22  1  0
 13 14  1  0
 15 14  1  0
 16  9  2  0
 17 18  1  0
 19 20  2  0
 20 39  1  0
 21 20  1  0
 21 24  1  0
 22 23  1  0
 22 19  1  0
 23 21  2  0
 24 25  1  0
 25 26  2  0
 27 30  1  0
 27 26  1  0
 28 27  2  0
 29 28  1  0
 29 24  2  0
 30 31  1  0
 31 36  2  0
 31 32  1  0
 32 33  2  0
 33 34  1  0
 34 38  1  0
 35 34  2  0
 36 35  1  0
 37 36  1  0
 39 40  1  0
 40 43  1  0
 40 42  1  0
 41 39  2  0
 44 19  1  0
 44 45  1  0
 46 44  1  0
 48 47  1  0
 49 50  1  0
 49 48  2  0
 51 62  2  0
 52 50  1  0
 52 57  1  0
 53 61  1  0
 53 63  1  0
 54 60  1  0
 54 56  1  0
 55 61  1  0
 56 55  1  0
 57 56  2  0
 58 52  2  0
 59 58  1  0
 59 54  2  0
 60 53  1  0
 61 51  1  0
 63 65  2  0
 64 63  1  0
 66 64  1  0
 67 76  2  0
 67 72  1  0
 68 64  1  0
 68 72  1  0
 69 68  1  0
 70 71  1  0
 70 69  1  0
 71 67  1  0
 72 73  2  0
 73 74  1  0
 75 74  2  0
 76 75  1  0
 77 51  1  0
 77 82  1  0
 77 78  1  0
 78 81  1  1
 78 79  1  0
 80 78  1  0
 82 85  1  0
 83 87  1  0
 83 82  1  0
 84 83  2  0
 87 86  1  0
 89 87  1  0
 89 90  1  0
 89 88  1  0
M  ISO  4   9 100  17 100  49 101  50 101
M  END
>  <TORSDO>  (73) 
F 20

>  <SCORE>  (73) 
-12.159

>  <name>  (73) 
72

>  <ligand_id>  (73) 
72

>  <original_smiles>  (73) 
[H]c1c([H])c([H])c2c(c1[H])C([H])([H])C([H])([H])C([H])([H])C2([H])N([H])C(=O)C1([H])N(C(=O)C([H])(N([H])C(=O)C([H])(N([H])C([H])([H])[H])C([H])([H])[H])C(C([H])([H])[H])(C([H])([H])[H])C([H])([H])[H])C([H])([H])c2c([H])c(OC([H])([H])C([H])([H])C([H])([H])[N+]([H])([H])C3([H])C([H])([H])C([H])([H])C([H])([H])C3([H])N([H])C(=O)N3C([H])([H])C([H])([H])C([H])([H])C([H])(n4nc(-c5c([H])c([H])c(Oc6c([H])c([H])c(F)c([H])c6F)c([H])c5[H])c(C(=O)N([H])[H])c4N([H])[H])C3([H])[H])c([H])c([H])c2C1([H])[H]

>  <smiles>  (73) 
[H]c1c([H])c([H])c2c(c1[H])C([H])([H])C([H])([H])C([H])([H])C2([H])N([H])C(=O)C1([H])N(C(=O)C([H])(N([H])C(=O)C([H])(N([H])C([H])([H])[H])C([H])([H])[H])C(C([H])([H])[H])(C([H])([H])[H])C([H])([H])[H])C([H])([H])c2c([H])c(OC([H])([H])C([H])([H])C([H])([H])[N+]([H])([H])C3([H])C([H])([H])C([H])([H])C([H])([H])C3([H])N([H])C(=O)N3C([H])([H])C([H])([H])C([H])([H])C([H])(n4nc(-c5c([H])c([H])c(Oc6c([H])c([H])c(F)c([H])c6F)c([H])c5[H])c(C(=O)N([H])[H])c4N([H])[H])C3([H])[H])c([H])c([H])c2C1([H])[H]

$$$$
73:0:0
     RDKit          3D

 95103  0  0  1  0  0  0  0  0999 V2000
  -29.5280  -21.3920   21.8560 C   0  0  0  0  0  2  0  0  0  0  0  0
  -29.3690  -19.8650   21.7860 C   0  0  0  0  0  2  0  0  0  0  0  0
  -30.0420  -20.4810   19.6730 C   0  0  0  0  0  3  0  0  0  0  0  0
  -30.0020  -21.8330   20.4630 C   0  0  0  0  0  3  0  0  0  0  0  0
  -30.2560  -19.4390   20.7050 N   0  0  0  0  0  0  0  0  0  0  0  0
  -31.0930  -20.4520   18.5510 C   0  0  0  0  0  3  0  0  0  0  0  0
  -30.6960  -21.0620   17.2250 C   0  0  0  0  0  1  0  0  0  0  0  0
  -32.2390  -19.9430   18.7260 N   0  0  0  0  0  2  0  0  0  0  0  0
  -32.2870  -19.5770   19.6740 H   0  0  0  0  0  0  0  0  0  0  0  0
  -29.1280  -22.8980   19.8670 N   0  0  0  0  0  4  0  0  0  0  0  0
  -28.1670  -22.6230   20.0050 H   0  0  0  0  0  0  0  0  0  0  0  0
  -29.2830  -22.9160   18.8720 H   0  0  0  0  0  0  0  0  0  0  0  0
  -29.3220  -24.3020   20.3650 C   0  0  0  0  0  2  0  0  0  0  0  0
  -28.2260  -25.2720   19.8330 C   0  0  0  0  0  2  0  0  0  0  0  0
  -28.3650  -26.6810   20.1650 O   0  0  0  0  0  0  0  0  0  0  0  0
  -24.5270  -31.8880   23.2200 C   0  0  0  0  0  0  0  0  0  0  0  0
  -27.2080  -27.4530   20.1150 C   0  0  0  0  0  0  0  0  0  0  0  0
  -23.3390  -30.4900   21.5650 C   0  0  0  0  0  3  0  0  0  0  0  0
  -24.8100  -28.9840   20.1280 C   0  0  0  0  0  0  0  0  0  0  0  0
  -25.8710  -30.8590   21.3860 C   0  0  0  0  0  2  0  0  0  0  0  0
  -25.9680  -29.4940   20.7290 C   0  0  0  0  0  0  0  0  0  0  0  0
  -27.1690  -28.7390   20.7160 C   0  0  0  0  0  3  0  0  0  0  0  0
  -26.0260  -26.9840   19.4870 C   0  0  0  0  0  3  0  0  0  0  0  0
  -24.8390  -27.7320   19.5020 C   0  0  0  0  0  3  0  0  0  0  0  0
  -23.5610  -29.8330   20.1790 C   0  0  0  0  0  2  0  0  0  0  0  0
  -24.5980  -31.0930   22.1140 N   0  0  0  0  0  0  0  0  0  0  0  0
  -23.4400  -32.1470   23.7550 O   0  0  0  0  0  0  0  0  0  0  0  0
  -22.6940  -29.4520   22.5120 C   0  0  0  0  0  0  0  0  0  0  0  0
  -21.3690  -29.2670   22.3850 N   0  0  0  0  0  0  0  0  0  0  0  0
  -23.3810  -28.8180   23.3170 O   0  0  0  0  0  0  0  0  0  0  0  0
  -20.8750  -29.8350   21.7110 H   0  0  0  0  0  0  0  0  0  0  0  0
  -17.9930  -28.0790   22.8990 C   0  0  0  0  0  0  0  0  0  0  0  0
  -20.5550  -28.3170   23.1440 C   0  0  0  0  0  3  0  0  0  0  0  0
  -20.6420  -26.8970   22.5380 C   0  0  0  0  0  2  0  0  0  0  0  0
  -19.5260  -26.6010   21.5310 C   0  0  0  0  0  2  0  0  0  0  0  0
  -18.1530  -26.7430   22.1940 C   0  0  0  0  0  2  0  0  0  0  0  0
  -19.1220  -28.8260   23.3290 C   0  0  0  0  0  0  0  0  0  0  0  0
  -18.9190  -30.0790   23.9470 C   0  0  0  0  0  3  0  0  0  0  0  0
  -17.6190  -30.5850   24.1390 C   0  0  0  0  0  3  0  0  0  0  0  0
  -16.5050  -29.8340   23.7260 C   0  0  0  0  0  3  0  0  0  0  0  0
  -16.6930  -28.5840   23.1100 C   0  0  0  0  0  3  0  0  0  0  0  0
  -25.8050  -32.5270   23.8490 C   0  0  0  0  0  3  0  0  0  0  0  0
  -25.4860  -33.9250   24.1720 N   0  0  0  0  0  0  0  0  0  0  0  0
  -25.8230  -34.9760   23.4130 C   0  0  0  0  0  0  0  0  0  0  0  0
  -26.5070  -34.8730   22.3910 O   0  0  0  0  0  0  0  0  0  0  0  0
  -24.8850  -34.0800   24.9680 H   0  0  0  0  0  0  0  0  0  0  0  0
  -24.1000  -36.7650   23.0230 C   0  0  0  0  0  1  0  0  0  0  0  0
  -25.3240  -36.3620   23.8610 C   0  0  0  0  0  3  0  0  0  0  0  0
  -27.4360  -37.2510   24.7430 C   0  0  0  0  0  1  0  0  0  0  0  0
  -26.3570  -37.4170   23.7720 N   0  0  0  0  0  0  0  0  0  0  0  0
  -25.9450  -38.3360   23.9100 H   0  0  0  0  0  0  0  0  0  0  0  0
  -26.3150  -31.7620   25.1310 C   0  0  1  0  0  0  0  0  0  0  0  0
  -25.2130  -31.5130   26.1870 C   0  0  0  0  0  1  0  0  0  0  0  0
  -26.9170  -30.3900   24.7440 C   0  0  0  0  0  1  0  0  0  0  0  0
  -27.4520  -32.5670   25.8030 C   0  0  0  0  0  1  0  0  0  0  0  0
  -29.9990  -18.0410   20.2820 C   0  0  0  0  0  2  0  0  0  0  0  0
  -30.5920  -16.9840   21.2610 C   0  0  0  0  0  2  0  0  0  0  0  0
  -30.8200  -14.6020   20.4090 C   0  0  0  0  0  0  0  0  0  0  0  0
  -30.5240  -12.4450   19.2360 C   0  0  0  0  0  2  0  0  0  0  0  0
  -29.5780  -12.6420   18.0320 C   0  0  0  0  0  2  0  0  0  0  0  0
  -28.1060  -12.4900   18.4630 C   0  0  0  0  0  2  0  0  0  0  0  0
  -27.7660  -13.3310   19.7220 C   0  0  0  0  0  3  0  0  0  0  0  0
  -28.8200  -13.1160   20.8320 C   0  0  0  0  0  2  0  0  0  0  0  0
  -30.1440  -13.4270   20.2650 N   0  0  0  0  0  0  0  0  0  0  0  0
  -31.9410  -14.7900   19.9320 O   0  0  0  0  0  0  0  0  0  0  0  0
  -30.1370  -15.6020   21.0020 N   0  0  0  0  0  0  0  0  0  0  0  0
  -29.2140  -15.3670   21.3340 H   0  0  0  0  0  0  0  0  0  0  0  0
  -25.3630  -13.9380   20.4130 C   0  0  0  0  0  0  0  0  0  0  0  0
  -24.2940  -13.1670   20.7830 C   0  0  0  0  0  0  0  0  0  0  0  0
  -24.7590  -11.8170   20.7690 C   0  0  0  0  0  0  0  0  0  0  0  0
  -26.4120  -13.0580   20.1980 N   0  0  0  0  0  0  0  0  0  0  0  0
  -26.0510  -11.7770   20.4700 N   0  0  0  0  0  0  0  0  0  0  0  0
  -24.0350  -10.5540   20.9690 C   0  0  0  0  0  0  0  0  0  0  0  0
  -24.4600   -9.6010   21.9200 C   0  0  0  0  0  3  0  0  0  0  0  0
  -23.7360   -8.4030   22.1050 C   0  0  0  0  0  3  0  0  0  0  0  0
  -22.5720   -8.1510   21.3400 C   0  0  0  0  0  0  0  0  0  0  0  0
  -22.1680   -9.0930   20.3780 C   0  0  0  0  0  3  0  0  0  0  0  0
  -22.8920  -10.2820   20.1910 C   0  0  0  0  0  3  0  0  0  0  0  0
  -21.8210   -7.0050   21.4350 O   0  0  0  0  0  0  0  0  0  0  0  0
  -21.7550   -6.2820   22.5990 C   0  0  0  0  0  0  0  0  0  0  0  0
  -21.2940   -6.8540   23.8050 C   0  0  0  0  0  3  0  0  0  0  0  0
  -21.1750   -6.0560   24.9610 C   0  0  0  0  0  3  0  0  0  0  0  0
  -21.5050   -4.6890   24.9110 C   0  0  0  0  0  0  0  0  0  0  0  0
  -21.9590   -4.1180   23.7090 C   0  0  0  0  0  3  0  0  0  0  0  0
  -22.0790   -4.9110   22.5560 C   0  0  0  0  0  0  0  0  0  0  0  0
  -22.4960   -4.3510   21.3950 F   0  0  0  0  0  0  0  0  0  0  0  0
  -21.3850   -3.9200   26.0190 F   0  0  0  0  0  0  0  0  0  0  0  0
  -22.8940  -13.6430   21.0440 C   0  0  0  0  0  0  0  0  0  0  0  0
  -22.1640  -12.9520   21.9130 N   0  0  0  0  0  0  0  0  0  0  0  0
  -22.4560  -14.6630   20.5120 O   0  0  0  0  0  0  0  0  0  0  0  0
  -22.5330  -12.1270   22.3640 H   0  0  0  0  0  0  0  0  0  0  0  0
  -21.2250  -13.2520   22.1310 H   0  0  0  0  0  0  0  0  0  0  0  0
  -25.5240  -15.3070   20.2240 N   0  0  0  0  0  0  0  0  0  0  0  0
  -24.7500  -15.9560   20.3130 H   0  0  0  0  0  0  0  0  0  0  0  0
  -26.3740  -15.7500   19.9010 H   0  0  0  0  0  0  0  0  0  0  0  0
  2  1  1  0
  3  6  1  0
  3  4  1  0
  3  5  1  0
  4 10  1  0
  4  1  1  0
  5  2  1  0
  6  7  1  0
  6  8  1  0
  8  9  1  0
 10 11  1  0
 10 13  1  0
 12 10  1  0
 14 15  1  0
 14 13  1  0
 16 27  2  0
 17 15  1  0
 17 22  1  0
 18 26  1  0
 18 28  1  0
 19 25  1  0
 19 21  1  0
 20 26  1  0
 21 20  1  0
 22 21  2  0
 23 24  1  0
 23 17  2  0
 24 19  2  0
 25 18  1  0
 26 16  1  0
 28 30  2  0
 29 28  1  0
 31 29  1  0
 32 41  2  0
 32 37  1  0
 33 29  1  0
 33 37  1  0
 34 33  1  0
 35 36  1  0
 35 34  1  0
 36 32  1  0
 37 38  2  0
 38 39  1  0
 40 39  2  0
 41 40  1  0
 42 16  1  0
 42 43  1  0
 42 52  1  0
 43 46  1  0
 44 48  1  0
 44 43  1  0
 45 44  2  0
 48 47  1  0
 50 48  1  0
 50 51  1  0
 50 49  1  0
 52 55  1  1
 52 53  1  0
 54 52  1  0
 56  5  1  0
 56 57  1  0
 58 66  1  0
 59 64  1  0
 60 61  1  0
 60 59  1  0
 62 61  1  0
 62 71  1  0
 62 63  1  0
 64 58  1  0
 64 63  1  0
 65 58  2  0
 66 57  1  0
 66 67  1  0
 68 69  2  0
 69 88  1  0
 70 69  1  0
 70 73  1  0
 71 68  1  0
 71 72  1  0
 72 70  2  0
 73 74  1  0
 74 75  2  0
 76 79  1  0
 76 75  1  0
 77 76  2  0
 78 77  1  0
 78 73  2  0
 79 80  1  0
 80 81  1  0
 81 82  2  0
 83 82  1  0
 83 87  1  0
 84 83  2  0
 85 80  2  0
 85 84  1  0
 86 85  1  0
 88 89  1  0
 89 92  1  0
 89 91  1  0
 90 88  2  0
 93 94  1  0
 93 68  1  0
 95 93  1  0
M  ISO  4  14 101  15 101  58 100  66 100
M  END
>  <TORSDO>  (74) 
F 22

>  <SCORE>  (74) 
-12.684

>  <name>  (74) 
73

>  <ligand_id>  (74) 
73

>  <original_smiles>  (74) 
[H]N=C(C([H])([H])[H])C1([H])N(C([H])([H])C([H])([H])N([H])C(=O)N2C([H])([H])C([H])([H])C([H])([H])C([H])(n3nc(-c4c([H])c([H])c(Oc5c([H])c([H])c(F)c([H])c5F)c([H])c4[H])c(C(=O)N([H])[H])c3N([H])[H])C2([H])[H])C([H])([H])C([H])([H])C1([H])[N+]([H])([H])C([H])([H])C([H])([H])Oc1c([H])c([H])c2c(c1[H])C([H])([H])N(C(=O)C([H])(N([H])C(=O)C([H])(N([H])C([H])([H])[H])C([H])([H])[H])C(C([H])([H])[H])(C([H])([H])[H])C([H])([H])[H])C([H])(C(=O)N([H])C1([H])c3c([H])c([H])c([H])c([H])c3C([H])([H])C([H])([H])C1([H])[H])C2([H])[H]

>  <smiles>  (74) 
[H]N=C(C([H])([H])[H])C1([H])N(C([H])([H])C([H])([H])N([H])C(=O)N2C([H])([H])C([H])([H])C([H])([H])C([H])(n3nc(-c4c([H])c([H])c(Oc5c([H])c([H])c(F)c([H])c5F)c([H])c4[H])c(C(=O)N([H])[H])c3N([H])[H])C2([H])[H])C([H])([H])C([H])([H])C1([H])[N+]([H])([H])C([H])([H])C([H])([H])Oc1c([H])c([H])c2c(c1[H])C([H])([H])N(C(=O)C([H])(N([H])C(=O)C([H])(N([H])C([H])([H])[H])C([H])([H])[H])C(C([H])([H])[H])(C([H])([H])[H])C([H])([H])[H])C([H])(C(=O)N([H])C1([H])c3c([H])c([H])c([H])c([H])c3C([H])([H])C([H])([H])C1([H])[H])C2([H])[H]

$$$$
74:0:0
     RDKit          3D

 91 99  0  0  1  0  0  0  0  0999 V2000
  -28.9180  -21.2720   20.0940 C   0  0  0  0  0  2  0  0  0  0  0  0
  -29.9320  -20.2830   20.6110 N   0  0  0  0  0  4  0  0  0  0  0  0
  -30.7790  -20.3960   20.0770 H   0  0  0  0  0  0  0  0  0  0  0  0
  -30.1440  -20.6370   21.5330 H   0  0  0  0  0  0  0  0  0  0  0  0
  -30.6650  -14.6270   20.1480 C   0  0  0  0  0  0  0  0  0  0  0  0
  -30.3360  -12.4360   19.0320 C   0  0  0  0  0  2  0  0  0  0  0  0
  -29.3470  -12.6110   17.8610 C   0  0  0  0  0  2  0  0  0  0  0  0
  -27.8970  -12.4410   18.3500 C   0  0  0  0  0  2  0  0  0  0  0  0
  -27.5930  -13.2760   19.6220 C   0  0  0  0  0  3  0  0  0  0  0  0
  -28.7000  -13.1220   20.6890 C   0  0  0  0  0  2  0  0  0  0  0  0
  -29.9840  -13.4440   20.0490 N   0  0  0  0  0  0  0  0  0  0  0  0
  -31.8280  -14.7380   19.7490 O   0  0  0  0  0  0  0  0  0  0  0  0
  -30.6580  -18.0190   21.5390 C   0  0  0  0  0  2  0  0  0  0  0  0
  -29.4630  -18.0340   19.4060 C   0  0  0  0  0  2  0  0  0  0  0  0
  -30.3260  -16.5060   21.7550 C   0  0  0  0  0  2  0  0  0  0  0  0
  -29.1140  -16.5160   19.5950 C   0  0  0  0  0  2  0  0  0  0  0  0
  -29.5870  -18.8110   20.7400 C   0  0  0  0  0  3  0  0  0  0  0  0
  -29.9660  -15.7440   20.5390 N   0  0  0  0  0  0  0  0  0  0  0  0
  -25.2360  -13.8660   20.4550 C   0  0  0  0  0  0  0  0  0  0  0  0
  -24.1830  -13.0880   20.8530 C   0  0  0  0  0  0  0  0  0  0  0  0
  -24.6440  -11.7370   20.7810 C   0  0  0  0  0  0  0  0  0  0  0  0
  -26.2690  -12.9890   20.1630 N   0  0  0  0  0  0  0  0  0  0  0  0
  -25.9210  -11.7030   20.4210 N   0  0  0  0  0  0  0  0  0  0  0  0
  -23.9260  -10.4710   20.9770 C   0  0  0  0  0  0  0  0  0  0  0  0
  -24.3680   -9.5080   21.9100 C   0  0  0  0  0  3  0  0  0  0  0  0
  -23.6500   -8.3070   22.0920 C   0  0  0  0  0  3  0  0  0  0  0  0
  -22.4770   -8.0620   21.3420 C   0  0  0  0  0  0  0  0  0  0  0  0
  -22.0540   -9.0130   20.3970 C   0  0  0  0  0  3  0  0  0  0  0  0
  -22.7720  -10.2060   20.2130 C   0  0  0  0  0  3  0  0  0  0  0  0
  -21.7290   -6.9130   21.4340 O   0  0  0  0  0  0  0  0  0  0  0  0
  -21.6570   -6.1940   22.6000 C   0  0  0  0  0  0  0  0  0  0  0  0
  -21.1780   -6.7640   23.8000 C   0  0  0  0  0  3  0  0  0  0  0  0
  -21.0570   -5.9690   24.9570 C   0  0  0  0  0  3  0  0  0  0  0  0
  -21.4030   -4.6060   24.9150 C   0  0  0  0  0  0  0  0  0  0  0  0
  -21.8730   -4.0350   23.7200 C   0  0  0  0  0  3  0  0  0  0  0  0
  -21.9970   -4.8270   22.5650 C   0  0  0  0  0  0  0  0  0  0  0  0
  -22.4310   -4.2670   21.4090 F   0  0  0  0  0  0  0  0  0  0  0  0
  -21.2790   -3.8400   26.0240 F   0  0  0  0  0  0  0  0  0  0  0  0
  -22.7970  -13.5610   21.1860 C   0  0  0  0  0  0  0  0  0  0  0  0
  -22.1020  -12.8470   22.0640 N   0  0  0  0  0  0  0  0  0  0  0  0
  -22.3420  -14.5980   20.7040 O   0  0  0  0  0  0  0  0  0  0  0  0
  -22.4820  -12.0070   22.4740 H   0  0  0  0  0  0  0  0  0  0  0  0
  -21.1750  -13.1460   22.3300 H   0  0  0  0  0  0  0  0  0  0  0  0
  -25.3940  -15.2390   20.2940 N   0  0  0  0  0  0  0  0  0  0  0  0
  -24.6360  -15.8950   20.4510 H   0  0  0  0  0  0  0  0  0  0  0  0
  -26.2370  -15.6800   19.9500 H   0  0  0  0  0  0  0  0  0  0  0  0
  -29.2180  -22.7080   20.6440 C   0  0  0  0  0  0  0  0  0  0  0  0
  -29.9340  -22.8210   21.6440 O   0  0  0  0  0  0  0  0  0  0  0  0
  -28.6340  -23.9920   19.9450 C   0  0  0  0  0  2  0  0  0  0  0  0
  -28.3730  -25.2670   20.8490 C   0  0  0  0  0  2  0  0  0  0  0  0
  -28.4480  -26.6000   20.2400 O   0  0  0  0  0  0  0  0  0  0  0  0
  -24.6040  -31.8870   23.2470 C   0  0  0  0  0  0  0  0  0  0  0  0
  -27.2990  -27.3840   20.2380 C   0  0  0  0  0  0  0  0  0  0  0  0
  -23.4280  -30.4720   21.5960 C   0  0  0  0  0  3  0  0  0  0  0  0
  -24.9080  -28.9280   20.1970 C   0  0  0  0  0  0  0  0  0  0  0  0
  -25.9600  -30.8270   21.4330 C   0  0  0  0  0  2  0  0  0  0  0  0
  -26.0620  -29.4490   20.7980 C   0  0  0  0  0  0  0  0  0  0  0  0
  -27.2630  -28.6900   20.8040 C   0  0  0  0  0  3  0  0  0  0  0  0
  -26.1270  -26.8920   19.6290 C   0  0  0  0  0  3  0  0  0  0  0  0
  -24.9410  -27.6530   19.6030 C   0  0  0  0  0  3  0  0  0  0  0  0
  -23.6610  -29.7860   20.2230 C   0  0  0  0  0  2  0  0  0  0  0  0
  -24.6810  -31.0790   22.1500 N   0  0  0  0  0  0  0  0  0  0  0  0
  -23.5140  -32.1550   23.7730 O   0  0  0  0  0  0  0  0  0  0  0  0
  -22.7660  -29.4540   22.5530 C   0  0  0  0  0  0  0  0  0  0  0  0
  -21.4420  -29.2740   22.4200 N   0  0  0  0  0  0  0  0  0  0  0  0
  -23.4430  -28.8280   23.3730 O   0  0  0  0  0  0  0  0  0  0  0  0
  -20.9550  -29.8330   21.7320 H   0  0  0  0  0  0  0  0  0  0  0  0
  -18.0590  -28.1010   22.9230 C   0  0  0  0  0  0  0  0  0  0  0  0
  -20.6200  -28.3350   23.1850 C   0  0  0  0  0  3  0  0  0  0  0  0
  -20.7080  -26.9080   22.5950 C   0  0  0  0  0  2  0  0  0  0  0  0
  -19.5990  -26.6050   21.5820 C   0  0  0  0  0  2  0  0  0  0  0  0
  -18.2210  -26.7560   22.2320 C   0  0  0  0  0  2  0  0  0  0  0  0
  -19.1860  -28.8490   23.3560 C   0  0  0  0  0  0  0  0  0  0  0  0
  -18.9800  -30.1080   23.9610 C   0  0  0  0  0  3  0  0  0  0  0  0
  -17.6800  -30.6180   24.1380 C   0  0  0  0  0  3  0  0  0  0  0  0
  -16.5680  -29.8650   23.7220 C   0  0  0  0  0  3  0  0  0  0  0  0
  -16.7580  -28.6090   23.1200 C   0  0  0  0  0  3  0  0  0  0  0  0
  -25.8760  -32.5280   23.8830 C   0  0  0  0  0  3  0  0  0  0  0  0
  -26.3770  -31.7710   25.1740 C   0  0  1  0  0  0  0  0  0  0  0  0
  -25.2690  -31.5390   26.2280 C   0  0  0  0  0  1  0  0  0  0  0  0
  -26.9710  -30.3920   24.8040 C   0  0  0  0  0  1  0  0  0  0  0  0
  -27.5150  -32.5760   25.8460 C   0  0  0  0  0  1  0  0  0  0  0  0
  -25.5580  -33.9280   24.1950 N   0  0  0  0  0  0  0  0  0  0  0  0
  -25.9030  -34.9750   23.4330 C   0  0  0  0  0  0  0  0  0  0  0  0
  -26.5910  -34.8640   22.4150 O   0  0  0  0  0  0  0  0  0  0  0  0
  -24.9500  -34.0890   24.9830 H   0  0  0  0  0  0  0  0  0  0  0  0
  -24.1810  -36.7640   23.0260 C   0  0  0  0  0  1  0  0  0  0  0  0
  -25.4030  -36.3660   23.8690 C   0  0  0  0  0  3  0  0  0  0  0  0
  -27.5160  -37.2600   24.7460 C   0  0  0  0  0  1  0  0  0  0  0  0
  -26.4370  -37.4200   23.7740 N   0  0  0  0  0  0  0  0  0  0  0  0
  -26.0260  -38.3400   23.9040 H   0  0  0  0  0  0  0  0  0  0  0  0
  1  2  1  0
  1 47  1  0
  2  4  1  0
  3  2  1  0
  5 18  1  0
  6 11  1  0
  7  8  1  0
  7  6  1  0
  9  8  1  0
  9 22  1  0
  9 10  1  0
 11  5  1  0
 11 10  1  0
 12  5  2  0
 13 15  1  0
 14 16  1  0
 14 17  1  0
 16 18  1  0
 17  2  1  0
 17 13  1  0
 18 15  1  0
 19 20  2  0
 20 39  1  0
 21 20  1  0
 21 24  1  0
 22 23  1  0
 22 19  1  0
 23 21  2  0
 24 25  1  0
 25 26  2  0
 27 30  1  0
 27 26  1  0
 28 27  2  0
 29 28  1  0
 29 24  2  0
 30 31  1  0
 31 32  1  0
 32 33  2  0
 34 33  1  0
 34 38  1  0
 35 34  2  0
 36 31  2  0
 36 35  1  0
 37 36  1  0
 39 40  1  0
 40 43  1  0
 40 42  1  0
 41 39  2  0
 44 45  1  0
 44 19  1  0
 46 44  1  0
 47 48  2  0
 49 47  1  0
 49 50  1  0
 51 50  1  0
 52 63  2  0
 53 51  1  0
 53 58  1  0
 54 62  1  0
 54 64  1  0
 55 61  1  0
 55 57  1  0
 56 62  1  0
 57 58  2  0
 57 56  1  0
 59 53  2  0
 60 59  1  0
 60 55  2  0
 61 54  1  0
 62 52  1  0
 64 66  2  0
 65 64  1  0
 67 65  1  0
 68 77  2  0
 68 73  1  0
 69 65  1  0
 69 73  1  0
 70 69  1  0
 71 72  1  0
 71 70  1  0
 72 68  1  0
 73 74  2  0
 74 75  1  0
 76 75  2  0
 77 76  1  0
 78 52  1  0
 78 83  1  0
 78 79  1  0
 79 82  1  1
 79 80  1  0
 81 79  1  0
 83 86  1  0
 84 88  1  0
 84 83  1  0
 85 84  2  0
 88 87  1  0
 90 88  1  0
 90 91  1  0
 90 89  1  0
M  ISO  4   5 100  18 100  50 101  51 101
M  END
>  <TORSDO>  (75) 
F 20

>  <SCORE>  (75) 
-13.966

>  <name>  (75) 
74

>  <ligand_id>  (75) 
74

>  <original_smiles>  (75) 
[H]c1c([H])c([H])c2c(c1[H])C([H])([H])C([H])([H])C([H])([H])C2([H])N([H])C(=O)C1([H])N(C(=O)C([H])(N([H])C(=O)C([H])(N([H])C([H])([H])[H])C([H])([H])[H])C(C([H])([H])[H])(C([H])([H])[H])C([H])([H])[H])C([H])([H])c2c([H])c(OC([H])([H])C([H])([H])C(=O)C([H])([H])[N+]([H])([H])C3([H])C([H])([H])C([H])([H])N(C(=O)N4C([H])([H])C([H])([H])C([H])([H])C([H])(n5nc(-c6c([H])c([H])c(Oc7c([H])c([H])c(F)c([H])c7F)c([H])c6[H])c(C(=O)N([H])[H])c5N([H])[H])C4([H])[H])C([H])([H])C3([H])[H])c([H])c([H])c2C1([H])[H]

>  <smiles>  (75) 
[H]c1c([H])c([H])c2c(c1[H])C([H])([H])C([H])([H])C([H])([H])C2([H])N([H])C(=O)C1([H])N(C(=O)C([H])(N([H])C(=O)C([H])(N([H])C([H])([H])[H])C([H])([H])[H])C(C([H])([H])[H])(C([H])([H])[H])C([H])([H])[H])C([H])([H])c2c([H])c(OC([H])([H])C([H])([H])C(=O)C([H])([H])[N+]([H])([H])C3([H])C([H])([H])C([H])([H])N(C(=O)N4C([H])([H])C([H])([H])C([H])([H])C([H])(n5nc(-c6c([H])c([H])c(Oc7c([H])c([H])c(F)c([H])c7F)c([H])c6[H])c(C(=O)N([H])[H])c5N([H])[H])C4([H])[H])C([H])([H])C3([H])[H])c([H])c([H])c2C1([H])[H]

$$$$
75:0:0
     RDKit          3D

 90 98  0  0  1  0  0  0  0  0999 V2000
  -28.5300  -21.6230   20.2810 C   0  0  0  0  0  2  0  0  0  0  0  0
  -29.2800  -20.4420   20.7980 N   0  0  0  0  0  4  0  0  0  0  0  0
  -30.2460  -20.5490   20.5330 H   0  0  0  0  0  0  0  0  0  0  0  0
  -29.2360  -20.4410   21.8050 H   0  0  0  0  0  0  0  0  0  0  0  0
  -28.7920  -19.1200   20.3080 C   0  0  0  0  0  2  0  0  0  0  0  0
  -30.6640  -14.5020   20.1110 C   0  0  0  0  0  0  0  0  0  0  0  0
  -30.2770  -12.3670   18.9230 C   0  0  0  0  0  2  0  0  0  0  0  0
  -29.2710  -12.5880   17.7760 C   0  0  0  0  0  2  0  0  0  0  0  0
  -27.8230  -12.4480   18.2870 C   0  0  0  0  0  2  0  0  0  0  0  0
  -27.5620  -13.2650   19.5810 C   0  0  0  0  0  3  0  0  0  0  0  0
  -28.6760  -13.0300   20.6240 C   0  0  0  0  0  2  0  0  0  0  0  0
  -29.9640  -13.3380   19.9840 N   0  0  0  0  0  0  0  0  0  0  0  0
  -31.7630  -14.6740   19.5730 O   0  0  0  0  0  0  0  0  0  0  0  0
  -30.1630  -17.6220   21.9680 C   0  0  0  0  0  2  0  0  0  0  0  0
  -30.7140  -16.1880   21.8970 C   0  0  0  0  0  2  0  0  0  0  0  0
  -29.3030  -16.5570   20.0340 C   0  0  0  0  0  2  0  0  0  0  0  0
  -29.7910  -17.9400   20.5280 C   0  0  0  0  0  3  0  0  0  0  0  0
  -30.0450  -15.5140   20.7740 N   0  0  0  0  0  0  0  0  0  0  0  0
  -25.2160  -13.8740   20.4450 C   0  0  0  0  0  0  0  0  0  0  0  0
  -24.1650  -13.1010   20.8590 C   0  0  0  0  0  0  0  0  0  0  0  0
  -24.6100  -11.7470   20.7700 C   0  0  0  0  0  0  0  0  0  0  0  0
  -26.2370  -12.9890   20.1320 N   0  0  0  0  0  0  0  0  0  0  0  0
  -25.8800  -11.7050   20.3840 N   0  0  0  0  0  0  0  0  0  0  0  0
  -23.8860  -10.4870   20.9700 C   0  0  0  0  0  0  0  0  0  0  0  0
  -24.3410   -9.5100   21.8840 C   0  0  0  0  0  3  0  0  0  0  0  0
  -23.6140   -8.3150   22.0720 C   0  0  0  0  0  3  0  0  0  0  0  0
  -22.4210   -8.0870   21.3480 C   0  0  0  0  0  0  0  0  0  0  0  0
  -21.9860   -9.0520   20.4230 C   0  0  0  0  0  3  0  0  0  0  0  0
  -22.7120  -10.2400   20.2320 C   0  0  0  0  0  3  0  0  0  0  0  0
  -21.6640   -6.9450   21.4470 O   0  0  0  0  0  0  0  0  0  0  0  0
  -21.6120   -6.2140   22.6080 C   0  0  0  0  0  0  0  0  0  0  0  0
  -21.1830   -6.7820   23.8270 C   0  0  0  0  0  3  0  0  0  0  0  0
  -21.0760   -5.9790   24.9800 C   0  0  0  0  0  3  0  0  0  0  0  0
  -21.3920   -4.6090   24.9150 C   0  0  0  0  0  0  0  0  0  0  0  0
  -21.8160   -4.0400   23.7010 C   0  0  0  0  0  3  0  0  0  0  0  0
  -21.9220   -4.8410   22.5500 C   0  0  0  0  0  0  0  0  0  0  0  0
  -22.3100   -4.2830   21.3780 F   0  0  0  0  0  0  0  0  0  0  0  0
  -21.2820   -3.8340   26.0200 F   0  0  0  0  0  0  0  0  0  0  0  0
  -22.7920  -13.5850   21.2250 C   0  0  0  0  0  0  0  0  0  0  0  0
  -22.1120  -12.8770   22.1200 N   0  0  0  0  0  0  0  0  0  0  0  0
  -22.3330  -14.6240   20.7530 O   0  0  0  0  0  0  0  0  0  0  0  0
  -22.4970  -12.0370   22.5230 H   0  0  0  0  0  0  0  0  0  0  0  0
  -21.1920  -13.1820   22.4070 H   0  0  0  0  0  0  0  0  0  0  0  0
  -25.3810  -15.2480   20.2890 N   0  0  0  0  0  0  0  0  0  0  0  0
  -24.6240  -15.9020   20.4520 H   0  0  0  0  0  0  0  0  0  0  0  0
  -26.2060  -15.6860   19.9030 H   0  0  0  0  0  0  0  0  0  0  0  0
  -28.9120  -22.9680   20.9690 C   0  0  0  0  0  2  0  0  0  0  0  0
  -28.3800  -24.2430   20.2520 C   0  0  0  0  0  2  0  0  0  0  0  0
  -28.5610  -25.5520   21.0640 C   0  0  0  0  0  2  0  0  0  0  0  0
  -28.5270  -26.7420   20.2600 O   0  0  0  0  0  0  0  0  0  0  0  0
  -24.6000  -31.8840   23.2630 C   0  0  0  0  0  0  0  0  0  0  0  0
  -27.3470  -27.4510   20.2680 C   0  0  0  0  0  0  0  0  0  0  0  0
  -23.4390  -30.4620   21.6030 C   0  0  0  0  0  3  0  0  0  0  0  0
  -24.9380  -28.9280   20.2180 C   0  0  0  0  0  0  0  0  0  0  0  0
  -25.9640  -30.8490   21.4490 C   0  0  0  0  0  2  0  0  0  0  0  0
  -26.0760  -29.4730   20.8240 C   0  0  0  0  0  0  0  0  0  0  0  0
  -27.2880  -28.7430   20.8420 C   0  0  0  0  0  3  0  0  0  0  0  0
  -26.1940  -26.9160   19.6610 C   0  0  0  0  0  3  0  0  0  0  0  0
  -24.9900  -27.6480   19.6360 C   0  0  0  0  0  3  0  0  0  0  0  0
  -23.6830  -29.7740   20.2310 C   0  0  0  0  0  2  0  0  0  0  0  0
  -24.6840  -31.0810   22.1640 N   0  0  0  0  0  0  0  0  0  0  0  0
  -23.5070  -32.1470   23.7830 O   0  0  0  0  0  0  0  0  0  0  0  0
  -22.7780  -29.4410   22.5560 C   0  0  0  0  0  0  0  0  0  0  0  0
  -21.4550  -29.2610   22.4180 N   0  0  0  0  0  0  0  0  0  0  0  0
  -23.4560  -28.8120   23.3740 O   0  0  0  0  0  0  0  0  0  0  0  0
  -20.9700  -29.8210   21.7320 H   0  0  0  0  0  0  0  0  0  0  0  0
  -18.0740  -28.0820   22.8990 C   0  0  0  0  0  0  0  0  0  0  0  0
  -20.6330  -28.3190   23.1780 C   0  0  0  0  0  3  0  0  0  0  0  0
  -20.7250  -26.8930   22.5860 C   0  0  0  0  0  2  0  0  0  0  0  0
  -19.6220  -26.5890   21.5670 C   0  0  0  0  0  2  0  0  0  0  0  0
  -18.2420  -26.7380   22.2100 C   0  0  0  0  0  2  0  0  0  0  0  0
  -19.1960  -28.8320   23.3400 C   0  0  0  0  0  0  0  0  0  0  0  0
  -18.9860  -30.0920   23.9410 C   0  0  0  0  0  3  0  0  0  0  0  0
  -17.6850  -30.6020   24.1060 C   0  0  0  0  0  3  0  0  0  0  0  0
  -16.5770  -29.8500   23.6840 C   0  0  0  0  0  3  0  0  0  0  0  0
  -16.7720  -28.5910   23.0860 C   0  0  0  0  0  3  0  0  0  0  0  0
  -25.8700  -32.5290   23.9050 C   0  0  0  0  0  3  0  0  0  0  0  0
  -25.5410  -33.9230   24.2300 N   0  0  0  0  0  0  0  0  0  0  0  0
  -25.8620  -34.9770   23.4670 C   0  0  0  0  0  0  0  0  0  0  0  0
  -26.5390  -34.8790   22.4400 O   0  0  0  0  0  0  0  0  0  0  0  0
  -24.9430  -34.0740   25.0290 H   0  0  0  0  0  0  0  0  0  0  0  0
  -24.1040  -36.7370   23.1050 C   0  0  0  0  0  1  0  0  0  0  0  0
  -25.3520  -36.3600   23.9170 C   0  0  0  0  0  3  0  0  0  0  0  0
  -27.4740  -37.2850   24.7380 C   0  0  0  0  0  1  0  0  0  0  0  0
  -26.3680  -37.4290   23.7960 N   0  0  0  0  0  0  0  0  0  0  0  0
  -25.9470  -38.3440   23.9370 H   0  0  0  0  0  0  0  0  0  0  0  0
  -26.3780  -31.7620   25.1870 C   0  0  1  0  0  0  0  0  0  0  0  0
  -25.2740  -31.5060   26.2380 C   0  0  0  0  0  1  0  0  0  0  0  0
  -26.9850  -30.3930   24.7970 C   0  0  0  0  0  1  0  0  0  0  0  0
  -27.5100  -32.5690   25.8670 C   0  0  0  0  0  1  0  0  0  0  0  0
  1  2  1  0
  1 47  1  0
  2  4  1  0
  3  2  1  0
  5  2  1  0
  6 18  1  0
  7 12  1  0
  8  9  1  0
  8  7  1  0
 10  9  1  0
 10 22  1  0
 10 11  1  0
 12  6  1  0
 12 11  1  0
 13  6  2  0
 15 14  1  0
 16 17  1  0
 16 18  1  0
 17  5  1  0
 17 14  1  0
 18 15  1  0
 19 20  2  0
 20 39  1  0
 21 20  1  0
 21 24  1  0
 22 23  1  0
 22 19  1  0
 23 21  2  0
 24 25  1  0
 25 26  2  0
 27 30  1  0
 27 26  1  0
 28 27  2  0
 29 28  1  0
 29 24  2  0
 30 31  1  0
 31 32  1  0
 32 33  2  0
 34 33  1  0
 34 38  1  0
 35 34  2  0
 36 31  2  0
 36 35  1  0
 37 36  1  0
 39 40  1  0
 40 43  1  0
 40 42  1  0
 41 39  2  0
 44 19  1  0
 44 45  1  0
 46 44  1  0
 48 47  1  0
 48 49  1  0
 50 52  1  0
 50 49  1  0
 51 62  2  0
 52 57  1  0
 53 61  1  0
 53 63  1  0
 54 60  1  0
 54 56  1  0
 55 61  1  0
 56 57  2  0
 56 55  1  0
 58 52  2  0
 59 58  1  0
 59 54  2  0
 60 53  1  0
 61 51  1  0
 63 65  2  0
 64 63  1  0
 66 64  1  0
 67 76  2  0
 67 72  1  0
 68 64  1  0
 68 72  1  0
 69 68  1  0
 70 71  1  0
 70 69  1  0
 71 67  1  0
 72 73  2  0
 73 74  1  0
 75 74  2  0
 76 75  1  0
 77 51  1  0
 77 78  1  0
 77 87  1  0
 78 81  1  0
 79 83  1  0
 79 78  1  0
 80 79  2  0
 83 82  1  0
 85 83  1  0
 85 86  1  0
 85 84  1  0
 87 90  1  1
 87 88  1  0
 89 87  1  0
M  ISO  4   6 100  18 100  49 101  50 101
M  END
>  <TORSDO>  (76) 
F 21

>  <SCORE>  (76) 
-13.462

>  <name>  (76) 
75

>  <ligand_id>  (76) 
75

>  <original_smiles>  (76) 
[H]c1c([H])c([H])c2c(c1[H])C([H])([H])C([H])([H])C([H])([H])C2([H])N([H])C(=O)C1([H])N(C(=O)C([H])(N([H])C(=O)C([H])(N([H])C([H])([H])[H])C([H])([H])[H])C(C([H])([H])[H])(C([H])([H])[H])C([H])([H])[H])C([H])([H])c2c([H])c(OC([H])([H])C([H])([H])C([H])([H])C([H])([H])[N+]([H])([H])C([H])([H])C3([H])C([H])([H])N(C(=O)N4C([H])([H])C([H])([H])C([H])([H])C([H])(n5nc(-c6c([H])c([H])c(Oc7c([H])c([H])c(F)c([H])c7F)c([H])c6[H])c(C(=O)N([H])[H])c5N([H])[H])C4([H])[H])C([H])([H])C3([H])[H])c([H])c([H])c2C1([H])[H]

>  <smiles>  (76) 
[H]c1c([H])c([H])c2c(c1[H])C([H])([H])C([H])([H])C([H])([H])C2([H])N([H])C(=O)C1([H])N(C(=O)C([H])(N([H])C(=O)C([H])(N([H])C([H])([H])[H])C([H])([H])[H])C(C([H])([H])[H])(C([H])([H])[H])C([H])([H])[H])C([H])([H])c2c([H])c(OC([H])([H])C([H])([H])C([H])([H])C([H])([H])[N+]([H])([H])C([H])([H])C3([H])C([H])([H])N(C(=O)N4C([H])([H])C([H])([H])C([H])([H])C([H])(n5nc(-c6c([H])c([H])c(Oc7c([H])c([H])c(F)c([H])c7F)c([H])c6[H])c(C(=O)N([H])[H])c5N([H])[H])C4([H])[H])C([H])([H])C3([H])[H])c([H])c([H])c2C1([H])[H]

$$$$
76:0:0
     RDKit          3D

 99107  0  0  1  0  0  0  0  0999 V2000
  -30.4810  -21.1450   20.7960 C   0  0  0  0  0  2  0  0  0  0  0  0
  -29.8870  -19.7660   20.4720 C   0  0  0  0  0  2  0  0  0  0  0  0
  -32.0700  -18.8300   20.1490 C   0  0  0  0  0  2  0  0  0  0  0  0
  -31.8300  -21.3580   20.0830 C   0  0  0  0  0  3  0  0  0  0  0  0
  -32.7720  -20.1780   20.4520 C   0  0  0  0  0  3  0  0  0  0  0  0
  -30.8080  -18.7030   20.8930 N   0  0  0  0  0  0  0  0  0  0  0  0
  -34.0810  -20.2360   19.7680 N   0  0  0  0  0  4  0  0  0  0  0  0
  -33.9790  -20.2190   18.7680 H   0  0  0  0  0  0  0  0  0  0  0  0
  -34.6430  -19.4470   20.0380 H   0  0  0  0  0  0  0  0  0  0  0  0
  -34.5850  -21.0650   20.0300 H   0  0  0  0  0  0  0  0  0  0  0  0
  -32.3910  -22.7450   20.4400 C   0  0  0  0  0  0  0  0  0  0  0  0
  -32.2470  -23.7080   19.5210 N   0  0  0  0  0  0  0  0  0  0  0  0
  -32.9640  -22.9350   21.5140 O   0  0  0  0  0  0  0  0  0  0  0  0
  -31.7680  -23.4650   18.6620 H   0  0  0  0  0  0  0  0  0  0  0  0
  -32.7240  -25.0850   19.6310 C   0  0  0  0  0  2  0  0  0  0  0  0
  -31.6570  -26.0430   20.1950 C   0  0  0  0  0  2  0  0  0  0  0  0
  -30.2860  -25.9090   19.5120 C   0  0  0  0  0  2  0  0  0  0  0  0
  -29.2620  -26.9510   19.9790 C   0  0  0  0  0  2  0  0  0  0  0  0
  -28.0310  -26.6080   19.3580 O   0  0  0  0  0  0  0  0  0  0  0  0
  -24.5680  -31.6610   23.0770 C   0  0  0  0  0  0  0  0  0  0  0  0
  -26.9250  -27.3990   19.5680 C   0  0  0  0  0  0  0  0  0  0  0  0
  -23.2250  -30.3850   21.4350 C   0  0  0  0  0  3  0  0  0  0  0  0
  -24.5530  -28.9100   19.8340 C   0  0  0  0  0  0  0  0  0  0  0  0
  -25.7350  -30.7170   21.0930 C   0  0  0  0  0  2  0  0  0  0  0  0
  -25.7520  -29.3840   20.3790 C   0  0  0  0  0  0  0  0  0  0  0  0
  -26.9390  -28.6340   20.2570 C   0  0  0  0  0  3  0  0  0  0  0  0
  -25.7100  -26.9310   19.0290 C   0  0  0  0  0  3  0  0  0  0  0  0
  -24.5220  -27.6760   19.1610 C   0  0  0  0  0  3  0  0  0  0  0  0
  -23.3300  -29.7820   20.0080 C   0  0  0  0  0  2  0  0  0  0  0  0
  -24.5320  -30.9310   21.9270 N   0  0  0  0  0  0  0  0  0  0  0  0
  -23.5320  -31.9220   23.7030 O   0  0  0  0  0  0  0  0  0  0  0  0
  -22.6150  -29.3200   22.3730 C   0  0  0  0  0  0  0  0  0  0  0  0
  -21.2930  -29.1190   22.2680 N   0  0  0  0  0  0  0  0  0  0  0  0
  -23.3290  -28.6800   23.1510 O   0  0  0  0  0  0  0  0  0  0  0  0
  -20.7790  -29.6910   21.6120 H   0  0  0  0  0  0  0  0  0  0  0  0
  -17.9620  -27.8000   22.7320 C   0  0  0  0  0  0  0  0  0  0  0  0
  -20.5080  -28.1420   23.0220 C   0  0  0  0  0  3  0  0  0  0  0  0
  -20.6630  -26.7240   22.4260 C   0  0  0  0  0  2  0  0  0  0  0  0
  -19.5780  -26.3770   21.4020 C   0  0  0  0  0  2  0  0  0  0  0  0
  -18.1890  -26.4660   22.0400 C   0  0  0  0  0  2  0  0  0  0  0  0
  -19.0510  -28.5940   23.1790 C   0  0  0  0  0  0  0  0  0  0  0  0
  -18.7860  -29.8420   23.7830 C   0  0  0  0  0  3  0  0  0  0  0  0
  -17.4650  -30.2970   23.9470 C   0  0  0  0  0  3  0  0  0  0  0  0
  -16.3900  -29.5000   23.5170 C   0  0  0  0  0  3  0  0  0  0  0  0
  -16.6390  -28.2530   22.9160 C   0  0  0  0  0  3  0  0  0  0  0  0
  -25.9080  -32.2250   23.6460 C   0  0  0  0  0  3  0  0  0  0  0  0
  -26.4840  -31.3740   24.8440 C   0  0  1  0  0  0  0  0  0  0  0  0
  -25.4540  -31.1100   25.9680 C   0  0  0  0  0  1  0  0  0  0  0  0
  -26.9970  -30.0040   24.3420 C   0  0  0  0  0  1  0  0  0  0  0  0
  -27.6980  -32.1000   25.4690 C   0  0  0  0  0  1  0  0  0  0  0  0
  -25.6640  -33.6120   24.0610 N   0  0  0  0  0  0  0  0  0  0  0  0
  -25.9750  -34.6900   23.3300 C   0  0  0  0  0  0  0  0  0  0  0  0
  -26.5720  -34.6200   22.2520 O   0  0  0  0  0  0  0  0  0  0  0  0
  -25.1260  -33.7420   24.9060 H   0  0  0  0  0  0  0  0  0  0  0  0
  -24.2710  -36.5320   23.1820 C   0  0  0  0  0  1  0  0  0  0  0  0
  -25.5570  -36.0650   23.8830 C   0  0  0  0  0  3  0  0  0  0  0  0
  -27.7660  -36.8640   24.5950 C   0  0  0  0  0  1  0  0  0  0  0  0
  -26.6040  -37.1010   23.7420 N   0  0  0  0  0  0  0  0  0  0  0  0
  -26.2330  -38.0210   23.9610 H   0  0  0  0  0  0  0  0  0  0  0  0
  -30.1760  -17.4070   20.6270 C   0  0  0  0  0  2  0  0  0  0  0  0
  -30.8020  -16.2680   21.4570 C   0  0  0  0  0  2  0  0  0  0  0  0
  -30.6000  -14.1830   20.1180 C   0  0  0  0  0  0  0  0  0  0  0  0
  -30.1620  -12.0910   18.8880 C   0  0  0  0  0  2  0  0  0  0  0  0
  -29.1360  -12.3100   17.7610 C   0  0  0  0  0  2  0  0  0  0  0  0
  -27.6990  -12.1670   18.2950 C   0  0  0  0  0  2  0  0  0  0  0  0
  -27.4540  -13.0030   19.5790 C   0  0  0  0  0  3  0  0  0  0  0  0
  -28.5780  -12.7570   20.6100 C   0  0  0  0  0  2  0  0  0  0  0  0
  -29.8740  -13.0460   19.9680 N   0  0  0  0  0  0  0  0  0  0  0  0
  -31.5690  -14.4720   19.4100 O   0  0  0  0  0  0  0  0  0  0  0  0
  -30.2050  -14.9820   21.1150 N   0  0  0  0  0  0  0  0  0  0  0  0
  -29.4190  -14.6710   21.6680 H   0  0  0  0  0  0  0  0  0  0  0  0
  -25.1020  -13.6170   20.4330 C   0  0  0  0  0  0  0  0  0  0  0  0
  -24.0620  -12.8470   20.8810 C   0  0  0  0  0  0  0  0  0  0  0  0
  -24.5240  -11.4960   20.8330 C   0  0  0  0  0  0  0  0  0  0  0  0
  -26.1340  -12.7360   20.1450 N   0  0  0  0  0  0  0  0  0  0  0  0
  -25.7900  -11.4550   20.4400 N   0  0  0  0  0  0  0  0  0  0  0  0
  -23.8150  -10.2340   21.0860 C   0  0  0  0  0  0  0  0  0  0  0  0
  -24.3010   -9.2880   22.0140 C   0  0  0  0  0  3  0  0  0  0  0  0
  -23.5930   -8.0890   22.2520 C   0  0  0  0  0  3  0  0  0  0  0  0
  -22.3850   -7.8310   21.5630 C   0  0  0  0  0  0  0  0  0  0  0  0
  -21.9180   -8.7660   20.6220 C   0  0  0  0  0  3  0  0  0  0  0  0
  -22.6270   -9.9550   20.3820 C   0  0  0  0  0  3  0  0  0  0  0  0
  -21.6440   -6.6840   21.7090 O   0  0  0  0  0  0  0  0  0  0  0  0
  -21.6440   -5.9720   22.8830 C   0  0  0  0  0  0  0  0  0  0  0  0
  -21.2370   -6.5510   24.1050 C   0  0  0  0  0  3  0  0  0  0  0  0
  -21.1860   -5.7650   25.2740 C   0  0  0  0  0  3  0  0  0  0  0  0
  -21.5310   -4.4010   25.2210 C   0  0  0  0  0  0  0  0  0  0  0  0
  -21.9300   -3.8210   24.0040 C   0  0  0  0  0  3  0  0  0  0  0  0
  -21.9830   -4.6050   22.8370 C   0  0  0  0  0  0  0  0  0  0  0  0
  -22.3490   -4.0370   21.6630 F   0  0  0  0  0  0  0  0  0  0  0  0
  -21.4750   -3.6430   26.3420 F   0  0  0  0  0  0  0  0  0  0  0  0
  -22.6860  -13.3240   21.2440 C   0  0  0  0  0  0  0  0  0  0  0  0
  -22.0200  -12.6340   22.1640 N   0  0  0  0  0  0  0  0  0  0  0  0
  -22.2110  -14.3440   20.7470 O   0  0  0  0  0  0  0  0  0  0  0  0
  -22.4180  -11.8100   22.5870 H   0  0  0  0  0  0  0  0  0  0  0  0
  -21.0990  -12.9360   22.4490 H   0  0  0  0  0  0  0  0  0  0  0  0
  -25.2520  -14.9860   20.2310 N   0  0  0  0  0  0  0  0  0  0  0  0
  -24.4960  -15.6430   20.3870 H   0  0  0  0  0  0  0  0  0  0  0  0
  -26.0860  -15.4210   19.8570 H   0  0  0  0  0  0  0  0  0  0  0  0
  2  1  1  0
  2  6  1  0
  3  5  1  0
  3  6  1  0
  4 11  1  0
  4  5  1  0
  4  1  1  0
  5  7  1  0
  7 10  1  0
  7  9  1  0
  8  7  1  0
 11 13  2  0
 12 15  1  0
 12 11  1  0
 14 12  1  0
 15 16  1  0
 17 18  1  0
 17 16  1  0
 19 21  1  0
 19 18  1  0
 20 31  2  0
 21 26  1  0
 22 30  1  0
 22 32  1  0
 23 29  1  0
 23 25  1  0
 24 30  1  0
 25 24  1  0
 26 25  2  0
 27 28  1  0
 27 21  2  0
 28 23  2  0
 29 22  1  0
 30 20  1  0
 32 34  2  0
 33 32  1  0
 35 33  1  0
 36 45  2  0
 36 41  1  0
 37 33  1  0
 37 41  1  0
 38 37  1  0
 39 40  1  0
 39 38  1  0
 40 36  1  0
 41 42  2  0
 42 43  1  0
 44 43  2  0
 45 44  1  0
 46 20  1  0
 46 51  1  0
 46 47  1  0
 47 50  1  1
 47 48  1  0
 49 47  1  0
 51 54  1  0
 52 56  1  0
 52 51  1  0
 53 52  2  0
 56 55  1  0
 58 56  1  0
 58 59  1  0
 58 57  1  0
 60  6  1  0
 60 61  1  0
 62 70  1  0
 63 68  1  0
 64 65  1  0
 64 63  1  0
 66 65  1  0
 66 75  1  0
 66 67  1  0
 68 62  1  0
 68 67  1  0
 69 62  2  0
 70 61  1  0
 70 71  1  0
 72 73  2  0
 73 92  1  0
 74 73  1  0
 74 77  1  0
 75 72  1  0
 75 76  1  0
 76 74  2  0
 77 78  1  0
 78 79  2  0
 80 83  1  0
 80 79  1  0
 81 80  2  0
 82 81  1  0
 82 77  2  0
 83 84  1  0
 84 85  1  0
 85 86  2  0
 87 86  1  0
 87 91  1  0
 88 87  2  0
 89 84  2  0
 89 88  1  0
 90 89  1  0
 92 93  1  0
 93 96  1  0
 93 95  1  0
 94 92  2  0
 97 98  1  0
 97 72  1  0
 99 97  1  0
M  ISO  4  18 101  19 101  62 100  70 100
M  END
>  <TORSDO>  (77) 
F 24

>  <SCORE>  (77) 
-10.919

>  <name>  (77) 
76

>  <ligand_id>  (77) 
76

>  <original_smiles>  (77) 
[H]c1c([H])c([H])c2c(c1[H])C([H])([H])C([H])([H])C([H])([H])C2([H])N([H])C(=O)C1([H])N(C(=O)C([H])(N([H])C(=O)C([H])(N([H])C([H])([H])[H])C([H])([H])[H])C(C([H])([H])[H])(C([H])([H])[H])C([H])([H])[H])C([H])([H])c2c([H])c(OC([H])([H])C([H])([H])C([H])([H])C([H])([H])N([H])C(=O)C3([H])C([H])([H])C([H])([H])N(C([H])([H])C([H])([H])N([H])C(=O)N4C([H])([H])C([H])([H])C([H])([H])C([H])(n5nc(-c6c([H])c([H])c(Oc7c([H])c([H])c(F)c([H])c7F)c([H])c6[H])c(C(=O)N([H])[H])c5N([H])[H])C4([H])[H])C([H])([H])C3([H])[N+]([H])([H])[H])c([H])c([H])c2C1([H])[H]

>  <smiles>  (77) 
[H]c1c([H])c([H])c2c(c1[H])C([H])([H])C([H])([H])C([H])([H])C2([H])N([H])C(=O)C1([H])N(C(=O)C([H])(N([H])C(=O)C([H])(N([H])C([H])([H])[H])C([H])([H])[H])C(C([H])([H])[H])(C([H])([H])[H])C([H])([H])[H])C([H])([H])c2c([H])c(OC([H])([H])C([H])([H])C([H])([H])C([H])([H])N([H])C(=O)C3([H])C([H])([H])C([H])([H])N(C([H])([H])C([H])([H])N([H])C(=O)N4C([H])([H])C([H])([H])C([H])([H])C([H])(n5nc(-c6c([H])c([H])c(Oc7c([H])c([H])c(F)c([H])c7F)c([H])c6[H])c(C(=O)N([H])[H])c5N([H])[H])C4([H])[H])C([H])([H])C3([H])[N+]([H])([H])[H])c([H])c([H])c2C1([H])[H]

$$$$
77:0:0
     RDKit          3D

 92100  0  0  1  0  0  0  0  0999 V2000
  -30.9800  -21.0940   19.3420 C   0  0  0  0  0  2  0  0  0  0  0  0
  -31.0200  -22.4760   20.0280 C   0  0  0  0  0  2  0  0  0  0  0  0
  -29.7640  -23.2920   19.7000 C   0  0  0  0  0  2  0  0  0  0  0  0
  -29.7830  -24.7510   20.1780 C   0  0  0  0  0  2  0  0  0  0  0  0
  -28.4140  -25.3860   19.9220 C   0  0  0  0  0  2  0  0  0  0  0  0
  -28.4400  -26.7800   20.1750 O   0  0  0  0  0  0  0  0  0  0  0  0
  -24.5870  -31.8730   23.2180 C   0  0  0  0  0  0  0  0  0  0  0  0
  -27.2330  -27.4430   20.1640 C   0  0  0  0  0  0  0  0  0  0  0  0
  -23.3720  -30.4610   21.5880 C   0  0  0  0  0  3  0  0  0  0  0  0
  -24.8220  -28.9150   20.1760 C   0  0  0  0  0  0  0  0  0  0  0  0
  -25.8910  -30.8360   21.3650 C   0  0  0  0  0  2  0  0  0  0  0  0
  -25.9790  -29.4590   20.7460 C   0  0  0  0  0  0  0  0  0  0  0  0
  -27.1850  -28.7310   20.7350 C   0  0  0  0  0  3  0  0  0  0  0  0
  -26.0490  -26.8950   19.6120 C   0  0  0  0  0  3  0  0  0  0  0  0
  -24.8490  -27.6290   19.6110 C   0  0  0  0  0  3  0  0  0  0  0  0
  -23.5730  -29.7670   20.2140 C   0  0  0  0  0  2  0  0  0  0  0  0
  -24.6370  -31.0680   22.1190 N   0  0  0  0  0  0  0  0  0  0  0  0
  -23.5080  -32.1470   23.7620 O   0  0  0  0  0  0  0  0  0  0  0  0
  -22.7240  -29.4480   22.5570 C   0  0  0  0  0  0  0  0  0  0  0  0
  -21.4010  -29.2670   22.4280 N   0  0  0  0  0  0  0  0  0  0  0  0
  -23.4080  -28.8250   23.3740 O   0  0  0  0  0  0  0  0  0  0  0  0
  -20.9130  -29.8190   21.7380 H   0  0  0  0  0  0  0  0  0  0  0  0
  -18.0250  -28.0720   22.9120 C   0  0  0  0  0  0  0  0  0  0  0  0
  -20.5800  -28.3370   23.2030 C   0  0  0  0  0  3  0  0  0  0  0  0
  -20.6910  -26.8990   22.6470 C   0  0  0  0  0  2  0  0  0  0  0  0
  -19.5980  -26.5630   21.6270 C   0  0  0  0  0  2  0  0  0  0  0  0
  -18.2090  -26.7150   22.2530 C   0  0  0  0  0  2  0  0  0  0  0  0
  -19.1390  -28.8430   23.3410 C   0  0  0  0  0  0  0  0  0  0  0  0
  -18.9150  -30.1140   23.9120 C   0  0  0  0  0  3  0  0  0  0  0  0
  -17.6090  -30.6170   24.0580 C   0  0  0  0  0  3  0  0  0  0  0  0
  -16.5100  -29.8470   23.6450 C   0  0  0  0  0  3  0  0  0  0  0  0
  -16.7170  -28.5770   23.0780 C   0  0  0  0  0  3  0  0  0  0  0  0
  -25.8790  -32.5050   23.8290 C   0  0  0  0  0  3  0  0  0  0  0  0
  -26.4110  -31.7250   25.0930 C   0  0  1  0  0  0  0  0  0  0  0  0
  -25.3300  -31.4810   26.1710 C   0  0  0  0  0  1  0  0  0  0  0  0
  -26.9890  -30.3530   24.6780 C   0  0  0  0  0  1  0  0  0  0  0  0
  -27.5660  -32.5160   25.7490 C   0  0  0  0  0  1  0  0  0  0  0  0
  -25.5710  -33.9000   24.1670 N   0  0  0  0  0  0  0  0  0  0  0  0
  -25.8990  -34.9540   23.4090 C   0  0  0  0  0  0  0  0  0  0  0  0
  -26.5610  -34.8550   22.3720 O   0  0  0  0  0  0  0  0  0  0  0  0
  -24.9800  -34.0500   24.9700 H   0  0  0  0  0  0  0  0  0  0  0  0
  -24.1600  -36.7390   23.0710 C   0  0  0  0  0  1  0  0  0  0  0  0
  -25.4100  -36.3390   23.8720 C   0  0  0  0  0  3  0  0  0  0  0  0
  -27.5510  -37.2250   24.6820 C   0  0  0  0  0  1  0  0  0  0  0  0
  -26.4370  -37.3970   23.7520 N   0  0  0  0  0  0  0  0  0  0  0  0
  -26.0300  -38.3150   23.9130 H   0  0  0  0  0  0  0  0  0  0  0  0
  -30.2010  -20.0130   20.1200 C   0  0  0  0  0  2  0  0  0  0  0  0
  -30.0710  -18.7680   19.3330 N   0  0  0  0  0  4  0  0  0  0  0  0
  -29.4660  -18.9560   18.5480 H   0  0  0  0  0  0  0  0  0  0  0  0
  -30.9830  -18.5480   18.9620 H   0  0  0  0  0  0  0  0  0  0  0  0
  -30.7060  -14.4320   20.0910 C   0  0  0  0  0  0  0  0  0  0  0  0
  -30.3050  -12.3340   18.8840 C   0  0  0  0  0  2  0  0  0  0  0  0
  -29.2750  -12.6000   17.7640 C   0  0  0  0  0  2  0  0  0  0  0  0
  -27.8340  -12.4460   18.2930 C   0  0  0  0  0  2  0  0  0  0  0  0
  -27.5940  -13.2400   19.6030 C   0  0  0  0  0  3  0  0  0  0  0  0
  -28.7230  -12.9880   20.6280 C   0  0  0  0  0  2  0  0  0  0  0  0
  -30.0070  -13.2780   19.9720 N   0  0  0  0  0  0  0  0  0  0  0  0
  -31.8720  -14.5540   19.7040 O   0  0  0  0  0  0  0  0  0  0  0  0
  -29.5720  -16.3200   19.1510 C   0  0  0  0  0  2  0  0  0  0  0  0
  -29.5540  -17.5580   20.0240 C   0  0  0  0  0  3  0  0  0  0  0  0
  -30.5030  -16.7920   20.9390 C   0  0  0  0  0  3  0  0  0  0  0  0
  -29.9510  -15.5410   20.3460 N   0  0  0  0  0  0  0  0  0  0  0  0
  -25.2620  -13.8740   20.4960 C   0  0  0  0  0  0  0  0  0  0  0  0
  -24.2010  -13.1130   20.9080 C   0  0  0  0  0  0  0  0  0  0  0  0
  -24.6390  -11.7550   20.8190 C   0  0  0  0  0  0  0  0  0  0  0  0
  -26.2730  -12.9800   20.1690 N   0  0  0  0  0  0  0  0  0  0  0  0
  -25.9070  -11.7010   20.4250 N   0  0  0  0  0  0  0  0  0  0  0  0
  -23.9150  -10.4970   21.0330 C   0  0  0  0  0  0  0  0  0  0  0  0
  -24.3880   -9.5110   21.9260 C   0  0  0  0  0  3  0  0  0  0  0  0
  -23.6630   -8.3160   22.1260 C   0  0  0  0  0  3  0  0  0  0  0  0
  -22.4490   -8.1000   21.4340 C   0  0  0  0  0  0  0  0  0  0  0  0
  -21.9920   -9.0750   20.5300 C   0  0  0  0  0  3  0  0  0  0  0  0
  -22.7190  -10.2610   20.3280 C   0  0  0  0  0  3  0  0  0  0  0  0
  -21.6910   -6.9600   21.5450 O   0  0  0  0  0  0  0  0  0  0  0  0
  -21.6880   -6.2050   22.6920 C   0  0  0  0  0  0  0  0  0  0  0  0
  -21.3480   -6.7580   23.9440 C   0  0  0  0  0  3  0  0  0  0  0  0
  -21.2880   -5.9320   25.0840 C   0  0  0  0  0  3  0  0  0  0  0  0
  -21.5630   -4.5550   24.9710 C   0  0  0  0  0  0  0  0  0  0  0  0
  -21.8970   -4.0030   23.7220 C   0  0  0  0  0  3  0  0  0  0  0  0
  -21.9570   -4.8270   22.5850 C   0  0  0  0  0  0  0  0  0  0  0  0
  -22.2570   -4.2880   21.3780 F   0  0  0  0  0  0  0  0  0  0  0  0
  -21.5000   -3.7590   26.0630 F   0  0  0  0  0  0  0  0  0  0  0  0
  -22.8290  -13.6080   21.2710 C   0  0  0  0  0  0  0  0  0  0  0  0
  -22.1420  -12.9180   22.1780 N   0  0  0  0  0  0  0  0  0  0  0  0
  -22.3700  -14.6370   20.7800 O   0  0  0  0  0  0  0  0  0  0  0  0
  -22.5260  -12.0870   22.5980 H   0  0  0  0  0  0  0  0  0  0  0  0
  -21.2200  -13.2280   22.4520 H   0  0  0  0  0  0  0  0  0  0  0  0
  -25.4510  -15.2470   20.3590 N   0  0  0  0  0  0  0  0  0  0  0  0
  -24.7410  -15.9200   20.6240 H   0  0  0  0  0  0  0  0  0  0  0  0
  -26.3330  -15.6740   20.1040 H   0  0  0  0  0  0  0  0  0  0  0  0
  -30.6170  -18.1740   23.1040 C   0  0  0  0  0  1  0  0  0  0  0  0
  -30.2660  -16.8260   22.4560 C   0  0  0  0  0  2  0  0  0  0  0  0
  1  2  1  0
  1 47  1  0
  3  2  1  0
  3  4  1  0
  5  6  1  0
  5  4  1  0
  7 18  2  0
  8  6  1  0
  8 13  1  0
  9 17  1  0
  9 19  1  0
 10 16  1  0
 10 12  1  0
 11 17  1  0
 12 11  1  0
 13 12  2  0
 14  8  2  0
 15 14  1  0
 15 10  2  0
 16  9  1  0
 17  7  1  0
 19 21  2  0
 20 19  1  0
 22 20  1  0
 23 32  2  0
 23 28  1  0
 24 20  1  0
 24 28  1  0
 25 24  1  0
 26 27  1  0
 26 25  1  0
 27 23  1  0
 28 29  2  0
 29 30  1  0
 31 30  2  0
 32 31  1  0
 33  7  1  0
 33 38  1  0
 33 34  1  0
 34 37  1  1
 34 35  1  0
 36 34  1  0
 38 41  1  0
 39 43  1  0
 39 38  1  0
 40 39  2  0
 43 42  1  0
 45 43  1  0
 45 46  1  0
 45 44  1  0
 48 47  1  0
 49 48  1  0
 50 48  1  0
 51 62  1  0
 52 57  1  0
 53 54  1  0
 53 52  1  0
 55 54  1  0
 55 66  1  0
 55 56  1  0
 57 51  1  0
 57 56  1  0
 58 51  2  0
 59 60  1  0
 59 62  1  0
 60 48  1  0
 60 61  1  0
 61 92  1  0
 62 61  1  0
 63 64  2  0
 64 83  1  0
 65 64  1  0
 65 68  1  0
 66 67  1  0
 66 63  1  0
 67 65  2  0
 68 69  1  0
 69 70  2  0
 71 74  1  0
 71 70  1  0
 72 71  2  0
 73 72  1  0
 73 68  2  0
 74 75  1  0
 75 76  1  0
 76 77  2  0
 78 77  1  0
 78 82  1  0
 79 78  2  0
 80 75  2  0
 80 79  1  0
 81 80  1  0
 83 84  1  0
 84 87  1  0
 84 86  1  0
 85 83  2  0
 88 63  1  0
 88 89  1  0
 90 88  1  0
 92 91  1  0
M  ISO  4   5 101   6 101  51 100  62 100
M  END
>  <TORSDO>  (78) 
F 23

>  <SCORE>  (78) 
-12.089

>  <name>  (78) 
77

>  <ligand_id>  (78) 
77

>  <original_smiles>  (78) 
[H]c1c([H])c([H])c2c(c1[H])C([H])([H])C([H])([H])C([H])([H])C2([H])N([H])C(=O)C1([H])N(C(=O)C([H])(N([H])C(=O)C([H])(N([H])C([H])([H])[H])C([H])([H])[H])C(C([H])([H])[H])(C([H])([H])[H])C([H])([H])[H])C([H])([H])c2c([H])c(OC([H])([H])C([H])([H])C([H])([H])C([H])([H])C([H])([H])C([H])([H])[N+]([H])([H])C3([H])C([H])([H])N(C(=O)N4C([H])([H])C([H])([H])C([H])([H])C([H])(n5nc(-c6c([H])c([H])c(Oc7c([H])c([H])c(F)c([H])c7F)c([H])c6[H])c(C(=O)N([H])[H])c5N([H])[H])C4([H])[H])C3([H])C([H])([H])C([H])([H])[H])c([H])c([H])c2C1([H])[H]

>  <smiles>  (78) 
[H]c1c([H])c([H])c2c(c1[H])C([H])([H])C([H])([H])C([H])([H])C2([H])N([H])C(=O)C1([H])N(C(=O)C([H])(N([H])C(=O)C([H])(N([H])C([H])([H])[H])C([H])([H])[H])C(C([H])([H])[H])(C([H])([H])[H])C([H])([H])[H])C([H])([H])c2c([H])c(OC([H])([H])C([H])([H])C([H])([H])C([H])([H])C([H])([H])C([H])([H])[N+]([H])([H])C3([H])C([H])([H])N(C(=O)N4C([H])([H])C([H])([H])C([H])([H])C([H])(n5nc(-c6c([H])c([H])c(Oc7c([H])c([H])c(F)c([H])c7F)c([H])c6[H])c(C(=O)N([H])[H])c5N([H])[H])C4([H])[H])C3([H])C([H])([H])C([H])([H])[H])c([H])c([H])c2C1([H])[H]

$$$$
78:0:0
     RDKit          3D

 95103  0  0  1  0  0  0  0  0999 V2000
  -29.7390  -19.9360   20.9630 C   0  0  0  0  0  2  0  0  0  0  0  0
  -30.1210  -21.4040   20.7050 C   0  0  0  0  0  2  0  0  0  0  0  0
  -30.8790  -20.7280   18.3830 C   0  0  0  0  0  2  0  0  0  0  0  0
  -30.5760  -18.9650   20.0970 C   0  0  0  0  0  3  0  0  0  0  0  0
  -30.0350  -21.7340   19.1990 C   0  0  0  0  0  3  0  0  0  0  0  0
  -30.4750  -19.3360   18.6680 N   0  0  0  0  0  4  0  0  0  0  0  0
  -31.0520  -18.7070   18.1340 H   0  0  0  0  0  0  0  0  0  0  0  0
  -29.5250  -19.1780   18.3710 H   0  0  0  0  0  0  0  0  0  0  0  0
  -30.0580  -17.5190   20.2210 C   0  0  0  0  0  0  0  0  0  0  0  0
  -29.2900  -17.0170   19.3890 O   0  0  0  0  0  0  0  0  0  0  0  0
  -30.4900  -16.7110   21.4580 C   0  0  0  0  0  2  0  0  0  0  0  0
  -30.7070  -14.4030   20.5520 C   0  0  0  0  0  0  0  0  0  0  0  0
  -30.3740  -12.3170   19.2850 C   0  0  0  0  0  2  0  0  0  0  0  0
  -29.4340  -12.5780   18.0910 C   0  0  0  0  0  2  0  0  0  0  0  0
  -27.9570  -12.4490   18.5110 C   0  0  0  0  0  2  0  0  0  0  0  0
  -27.6300  -13.2530   19.7970 C   0  0  0  0  0  3  0  0  0  0  0  0
  -28.6720  -12.9580   20.8990 C   0  0  0  0  0  2  0  0  0  0  0  0
  -30.0120  -13.2540   20.3580 N   0  0  0  0  0  0  0  0  0  0  0  0
  -31.7740  -14.6640   19.9860 O   0  0  0  0  0  0  0  0  0  0  0  0
  -30.1070  -15.2990   21.3450 N   0  0  0  0  0  0  0  0  0  0  0  0
  -29.2300  -15.0230   21.7600 H   0  0  0  0  0  0  0  0  0  0  0  0
  -25.2240  -13.8780   20.4700 C   0  0  0  0  0  0  0  0  0  0  0  0
  -24.1480  -13.1120   20.8340 C   0  0  0  0  0  0  0  0  0  0  0  0
  -24.6040  -11.7590   20.8170 C   0  0  0  0  0  0  0  0  0  0  0  0
  -26.2680  -12.9910   20.2580 N   0  0  0  0  0  0  0  0  0  0  0  0
  -25.8960  -11.7110   20.5210 N   0  0  0  0  0  0  0  0  0  0  0  0
  -23.8720  -10.5000   21.0110 C   0  0  0  0  0  0  0  0  0  0  0  0
  -24.2990   -9.5340   21.9500 C   0  0  0  0  0  3  0  0  0  0  0  0
  -23.5700   -8.3400   22.1300 C   0  0  0  0  0  3  0  0  0  0  0  0
  -22.4000   -8.1000   21.3710 C   0  0  0  0  0  0  0  0  0  0  0  0
  -21.9930   -9.0540   20.4210 C   0  0  0  0  0  3  0  0  0  0  0  0
  -22.7220  -10.2410   20.2400 C   0  0  0  0  0  3  0  0  0  0  0  0
  -21.6440   -6.9570   21.4600 O   0  0  0  0  0  0  0  0  0  0  0  0
  -21.5940   -6.2150   22.6130 C   0  0  0  0  0  0  0  0  0  0  0  0
  -21.1750   -6.7720   23.8400 C   0  0  0  0  0  3  0  0  0  0  0  0
  -21.0700   -5.9570   24.9840 C   0  0  0  0  0  3  0  0  0  0  0  0
  -21.3770   -4.5850   24.9030 C   0  0  0  0  0  0  0  0  0  0  0  0
  -21.7890   -4.0270   23.6800 C   0  0  0  0  0  3  0  0  0  0  0  0
  -21.8950   -4.8390   22.5390 C   0  0  0  0  0  0  0  0  0  0  0  0
  -22.2730   -4.2920   21.3580 F   0  0  0  0  0  0  0  0  0  0  0  0
  -21.2690   -3.8000   26.0000 F   0  0  0  0  0  0  0  0  0  0  0  0
  -22.7490  -13.5950   21.0910 C   0  0  0  0  0  0  0  0  0  0  0  0
  -22.0120  -12.9060   21.9550 N   0  0  0  0  0  0  0  0  0  0  0  0
  -22.3180  -14.6170   20.5600 O   0  0  0  0  0  0  0  0  0  0  0  0
  -22.3730  -12.0790   22.4060 H   0  0  0  0  0  0  0  0  0  0  0  0
  -21.0730  -13.2120   22.1690 H   0  0  0  0  0  0  0  0  0  0  0  0
  -25.3970  -15.2460   20.2850 N   0  0  0  0  0  0  0  0  0  0  0  0
  -24.6370  -15.9100   20.3870 H   0  0  0  0  0  0  0  0  0  0  0  0
  -26.2560  -15.6740   19.9610 H   0  0  0  0  0  0  0  0  0  0  0  0
  -30.5340  -23.0840   18.9540 N   0  0  0  0  0  0  0  0  0  0  0  0
  -30.8040  -23.1570   17.9760 H   0  0  0  0  0  0  0  0  0  0  0  0
  -29.5100  -24.0940   19.2080 C   0  0  0  0  0  2  0  0  0  0  0  0
  -30.0610  -25.4860   18.8620 C   0  0  0  0  0  2  0  0  0  0  0  0
  -28.9660  -26.5600   18.8080 C   0  0  0  0  0  2  0  0  0  0  0  0
  -28.4540  -26.8100   20.1150 O   0  0  0  0  0  0  0  0  0  0  0  0
  -24.5880  -31.8940   23.2380 C   0  0  0  0  0  0  0  0  0  0  0  0
  -27.2700  -27.5020   20.1400 C   0  0  0  0  0  0  0  0  0  0  0  0
  -23.3900  -30.4840   21.5960 C   0  0  0  0  0  3  0  0  0  0  0  0
  -24.8530  -28.9550   20.1740 C   0  0  0  0  0  0  0  0  0  0  0  0
  -25.9080  -30.8650   21.3960 C   0  0  0  0  0  2  0  0  0  0  0  0
  -26.0030  -29.4930   20.7640 C   0  0  0  0  0  0  0  0  0  0  0  0
  -27.2120  -28.7670   20.7590 C   0  0  0  0  0  3  0  0  0  0  0  0
  -26.1010  -26.9580   19.5650 C   0  0  0  0  0  3  0  0  0  0  0  0
  -24.8920  -27.6810   19.5800 C   0  0  0  0  0  3  0  0  0  0  0  0
  -23.6020  -29.8020   20.2170 C   0  0  0  0  0  2  0  0  0  0  0  0
  -24.6460  -31.0950   22.1350 N   0  0  0  0  0  0  0  0  0  0  0  0
  -23.5060  -32.1600   23.7790 O   0  0  0  0  0  0  0  0  0  0  0  0
  -22.7470  -29.4580   22.5570 C   0  0  0  0  0  0  0  0  0  0  0  0
  -21.4220  -29.2740   22.4350 N   0  0  0  0  0  0  0  0  0  0  0  0
  -23.4360  -28.8320   23.3660 O   0  0  0  0  0  0  0  0  0  0  0  0
  -20.9290  -29.8320   21.7520 H   0  0  0  0  0  0  0  0  0  0  0  0
  -18.0510  -28.0900   22.9530 C   0  0  0  0  0  0  0  0  0  0  0  0
  -20.6100  -28.3350   23.2070 C   0  0  0  0  0  3  0  0  0  0  0  0
  -20.7030  -26.9080   22.6200 C   0  0  0  0  0  2  0  0  0  0  0  0
  -19.5910  -26.5970   21.6120 C   0  0  0  0  0  2  0  0  0  0  0  0
  -18.2160  -26.7440   22.2680 C   0  0  0  0  0  2  0  0  0  0  0  0
  -19.1760  -28.8430   23.3800 C   0  0  0  0  0  0  0  0  0  0  0  0
  -18.9680  -30.1050   23.9800 C   0  0  0  0  0  3  0  0  0  0  0  0
  -17.6670  -30.6110   24.1590 C   0  0  0  0  0  3  0  0  0  0  0  0
  -16.5560  -29.8540   23.7490 C   0  0  0  0  0  3  0  0  0  0  0  0
  -16.7490  -28.5950   23.1520 C   0  0  0  0  0  3  0  0  0  0  0  0
  -25.8730  -32.5320   23.8550 C   0  0  0  0  0  3  0  0  0  0  0  0
  -25.5600  -33.9290   24.1800 N   0  0  0  0  0  0  0  0  0  0  0  0
  -25.8960  -34.9790   23.4200 C   0  0  0  0  0  0  0  0  0  0  0  0
  -26.5740  -34.8750   22.3930 O   0  0  0  0  0  0  0  0  0  0  0  0
  -24.9590  -34.0850   24.9770 H   0  0  0  0  0  0  0  0  0  0  0  0
  -24.1710  -36.7690   23.0390 C   0  0  0  0  0  1  0  0  0  0  0  0
  -25.4010  -36.3670   23.8680 C   0  0  0  0  0  3  0  0  0  0  0  0
  -27.5260  -37.2520   24.7250 C   0  0  0  0  0  1  0  0  0  0  0  0
  -26.4340  -37.4210   23.7680 N   0  0  0  0  0  0  0  0  0  0  0  0
  -26.0260  -38.3410   23.9120 H   0  0  0  0  0  0  0  0  0  0  0  0
  -26.3970  -31.7650   25.1310 C   0  0  1  0  0  0  0  0  0  0  0  0
  -25.3090  -31.5270   26.2030 C   0  0  0  0  0  1  0  0  0  0  0  0
  -26.9820  -30.3880   24.7370 C   0  0  0  0  0  1  0  0  0  0  0  0
  -27.5480  -32.5640   25.7870 C   0  0  0  0  0  1  0  0  0  0  0  0
  2  1  1  0
  3  6  1  0
  3  5  1  0
  4  9  1  0
  4  1  1  0
  5 50  1  0
  5  2  1  0
  6  4  1  0
  7  6  1  0
  8  6  1  0
  9 11  1  0
 10  9  2  0
 12 20  1  0
 13 18  1  0
 14 15  1  0
 14 13  1  0
 16 15  1  0
 16 25  1  0
 16 17  1  0
 18 12  1  0
 18 17  1  0
 19 12  2  0
 20 11  1  0
 20 21  1  0
 22 23  2  0
 23 42  1  0
 24 23  1  0
 24 27  1  0
 25 22  1  0
 25 26  1  0
 26 24  2  0
 27 28  1  0
 28 29  2  0
 30 33  1  0
 30 29  1  0
 31 30  2  0
 32 31  1  0
 32 27  2  0
 33 34  1  0
 34 35  1  0
 35 36  2  0
 37 36  1  0
 37 41  1  0
 38 37  2  0
 39 34  2  0
 39 38  1  0
 40 39  1  0
 42 43  1  0
 43 46  1  0
 43 45  1  0
 44 42  2  0
 47 48  1  0
 47 22  1  0
 49 47  1  0
 50 52  1  0
 51 50  1  0
 53 52  1  0
 54 53  1  0
 54 55  1  0
 55 57  1  0
 56 67  2  0
 57 62  1  0
 58 66  1  0
 58 68  1  0
 59 65  1  0
 59 61  1  0
 60 66  1  0
 61 60  1  0
 62 61  2  0
 63 64  1  0
 63 57  2  0
 64 59  2  0
 65 58  1  0
 66 56  1  0
 68 70  2  0
 69 68  1  0
 71 69  1  0
 72 81  2  0
 72 77  1  0
 73 69  1  0
 73 77  1  0
 74 73  1  0
 75 76  1  0
 75 74  1  0
 76 72  1  0
 77 78  2  0
 78 79  1  0
 80 79  2  0
 81 80  1  0
 82 56  1  0
 82 83  1  0
 82 92  1  0
 83 86  1  0
 84 88  1  0
 84 83  1  0
 85 84  2  0
 88 87  1  0
 90 88  1  0
 90 91  1  0
 90 89  1  0
 92 95  1  1
 92 93  1  0
 94 92  1  0
M  ISO  4  12 100  20 100  54 101  55 101
M  END
>  <TORSDO>  (79) 
F 22

>  <SCORE>  (79) 
-13.198

>  <name>  (79) 
78

>  <ligand_id>  (79) 
78

>  <original_smiles>  (79) 
[H]c1c([H])c([H])c2c(c1[H])C([H])([H])C([H])([H])C([H])([H])C2([H])N([H])C(=O)C1([H])N(C(=O)C([H])(N([H])C(=O)C([H])(N([H])C([H])([H])[H])C([H])([H])[H])C(C([H])([H])[H])(C([H])([H])[H])C([H])([H])[H])C([H])([H])c2c([H])c(OC([H])([H])C([H])([H])C([H])([H])N([H])C3([H])C([H])([H])C([H])([H])C([H])(C(=O)C([H])([H])N([H])C(=O)N4C([H])([H])C([H])([H])C([H])([H])C([H])(n5nc(-c6c([H])c([H])c(Oc7c([H])c([H])c(F)c([H])c7F)c([H])c6[H])c(C(=O)N([H])[H])c5N([H])[H])C4([H])[H])[N+]([H])([H])C3([H])[H])c([H])c([H])c2C1([H])[H]

>  <smiles>  (79) 
[H]c1c([H])c([H])c2c(c1[H])C([H])([H])C([H])([H])C([H])([H])C2([H])N([H])C(=O)C1([H])N(C(=O)C([H])(N([H])C(=O)C([H])(N([H])C([H])([H])[H])C([H])([H])[H])C(C([H])([H])[H])(C([H])([H])[H])C([H])([H])[H])C([H])([H])c2c([H])c(OC([H])([H])C([H])([H])C([H])([H])N([H])C3([H])C([H])([H])C([H])([H])C([H])(C(=O)C([H])([H])N([H])C(=O)N4C([H])([H])C([H])([H])C([H])([H])C([H])(n5nc(-c6c([H])c([H])c(Oc7c([H])c([H])c(F)c([H])c7F)c([H])c6[H])c(C(=O)N([H])[H])c5N([H])[H])C4([H])[H])[N+]([H])([H])C3([H])[H])c([H])c([H])c2C1([H])[H]

$$$$
79:0:0
     RDKit          3D

 96104  0  0  1  0  0  0  0  0999 V2000
  -31.7950  -18.6350   21.3150 C   0  0  0  0  0  2  0  0  0  0  0  0
  -31.5880  -19.9110   20.4860 C   0  0  0  0  0  2  0  0  0  0  0  0
  -29.2520  -19.4540   20.2740 C   0  0  0  0  0  2  0  0  0  0  0  0
  -30.7820  -17.5330   20.9520 C   0  0  0  0  0  3  0  0  0  0  0  0
  -29.3530  -18.1360   21.0780 C   0  0  0  0  0  3  0  0  0  0  0  0
  -30.2390  -20.4410   20.7210 N   0  0  0  0  0  0  0  0  0  0  0  0
  -28.3000  -17.2090   20.6270 N   0  0  0  0  0  4  0  0  0  0  0  0
  -28.4210  -16.9710   19.6600 H   0  0  0  0  0  0  0  0  0  0  0  0
  -27.3980  -17.6440   20.7320 H   0  0  0  0  0  0  0  0  0  0  0  0
  -28.2930  -16.3740   21.1810 H   0  0  0  0  0  0  0  0  0  0  0  0
  -31.0400  -16.2870   21.8400 C   0  0  0  0  0  2  0  0  0  0  0  0
  -30.7430  -14.3750   20.2710 C   0  0  0  0  0  0  0  0  0  0  0  0
  -30.2860  -12.3820   18.8950 C   0  0  0  0  0  2  0  0  0  0  0  0
  -29.2800  -12.6920   17.7710 C   0  0  0  0  0  2  0  0  0  0  0  0
  -27.8320  -12.5400   18.2740 C   0  0  0  0  0  2  0  0  0  0  0  0
  -27.5850  -13.2980   19.6040 C   0  0  0  0  0  3  0  0  0  0  0  0
  -28.6870  -12.9640   20.6350 C   0  0  0  0  0  2  0  0  0  0  0  0
  -30.0000  -13.2650   20.0330 N   0  0  0  0  0  0  0  0  0  0  0  0
  -31.7060  -14.7150   19.5760 O   0  0  0  0  0  0  0  0  0  0  0  0
  -30.3730  -15.0780   21.3510 N   0  0  0  0  0  0  0  0  0  0  0  0
  -29.6660  -14.6500   21.9300 H   0  0  0  0  0  0  0  0  0  0  0  0
  -25.2190  -13.9030   20.4240 C   0  0  0  0  0  0  0  0  0  0  0  0
  -24.1690  -13.1270   20.8400 C   0  0  0  0  0  0  0  0  0  0  0  0
  -24.6260  -11.7750   20.7680 C   0  0  0  0  0  0  0  0  0  0  0  0
  -26.2490  -13.0230   20.1330 N   0  0  0  0  0  0  0  0  0  0  0  0
  -25.8970  -11.7380   20.3950 N   0  0  0  0  0  0  0  0  0  0  0  0
  -23.9080  -10.5110   20.9770 C   0  0  0  0  0  0  0  0  0  0  0  0
  -24.3780   -9.5380   21.8870 C   0  0  0  0  0  3  0  0  0  0  0  0
  -23.6610   -8.3370   22.0830 C   0  0  0  0  0  3  0  0  0  0  0  0
  -22.4640   -8.1010   21.3670 C   0  0  0  0  0  0  0  0  0  0  0  0
  -22.0150   -9.0620   20.4450 C   0  0  0  0  0  3  0  0  0  0  0  0
  -22.7300  -10.2540   20.2470 C   0  0  0  0  0  3  0  0  0  0  0  0
  -21.7170   -6.9530   21.4750 O   0  0  0  0  0  0  0  0  0  0  0  0
  -21.7010   -6.2090   22.6280 C   0  0  0  0  0  0  0  0  0  0  0  0
  -21.3180   -6.7640   23.8680 C   0  0  0  0  0  3  0  0  0  0  0  0
  -21.2490   -5.9480   25.0140 C   0  0  0  0  0  3  0  0  0  0  0  0
  -21.5540   -4.5760   24.9220 C   0  0  0  0  0  0  0  0  0  0  0  0
  -21.9300   -4.0200   23.6860 C   0  0  0  0  0  3  0  0  0  0  0  0
  -22.0010   -4.8350   22.5420 C   0  0  0  0  0  0  0  0  0  0  0  0
  -22.3440   -4.2890   21.3500 F   0  0  0  0  0  0  0  0  0  0  0  0
  -21.4800   -3.7900   26.0200 F   0  0  0  0  0  0  0  0  0  0  0  0
  -22.7850  -13.6010   21.1810 C   0  0  0  0  0  0  0  0  0  0  0  0
  -22.1000  -12.9010   22.0780 N   0  0  0  0  0  0  0  0  0  0  0  0
  -22.3230  -14.6270   20.6830 O   0  0  0  0  0  0  0  0  0  0  0  0
  -22.4900  -12.0710   22.4990 H   0  0  0  0  0  0  0  0  0  0  0  0
  -21.1730  -13.2000   22.3460 H   0  0  0  0  0  0  0  0  0  0  0  0
  -25.3760  -15.2740   20.2430 N   0  0  0  0  0  0  0  0  0  0  0  0
  -24.5170  -15.8150   20.2750 H   0  0  0  0  0  0  0  0  0  0  0  0
  -25.9580  -15.5550   19.4640 H   0  0  0  0  0  0  0  0  0  0  0  0
  -30.0230  -21.6730   19.9610 C   0  0  0  0  0  2  0  0  0  0  0  0
  -30.8570  -22.8480   20.4970 C   0  0  0  0  0  2  0  0  0  0  0  0
  -30.4150  -24.1740   19.8660 C   0  0  0  0  0  2  0  0  0  0  0  0
  -31.2930  -25.3580   20.2920 C   0  0  0  0  0  2  0  0  0  0  0  0
  -30.9240  -26.6760   19.5900 C   0  0  0  0  0  2  0  0  0  0  0  0
  -29.7150  -27.4150   20.1830 C   0  0  0  0  0  2  0  0  0  0  0  0
  -28.4900  -26.7390   19.9000 O   0  0  0  0  0  0  0  0  0  0  0  0
  -24.6590  -31.8120   23.1780 C   0  0  0  0  0  0  0  0  0  0  0  0
  -27.3260  -27.4670   20.0130 C   0  0  0  0  0  0  0  0  0  0  0  0
  -23.4390  -30.4250   21.5250 C   0  0  0  0  0  3  0  0  0  0  0  0
  -24.8900  -28.9070   20.0750 C   0  0  0  0  0  0  0  0  0  0  0  0
  -25.9530  -30.8120   21.3050 C   0  0  0  0  0  2  0  0  0  0  0  0
  -26.0410  -29.4470   20.6610 C   0  0  0  0  0  0  0  0  0  0  0  0
  -27.2530  -28.7330   20.6420 C   0  0  0  0  0  3  0  0  0  0  0  0
  -26.1530  -26.9240   19.4460 C   0  0  0  0  0  3  0  0  0  0  0  0
  -24.9370  -27.6380   19.4710 C   0  0  0  0  0  3  0  0  0  0  0  0
  -23.6380  -29.7540   20.1370 C   0  0  0  0  0  2  0  0  0  0  0  0
  -24.7010  -31.0300   22.0620 N   0  0  0  0  0  0  0  0  0  0  0  0
  -23.5830  -32.0740   23.7330 O   0  0  0  0  0  0  0  0  0  0  0  0
  -22.8020  -29.3910   22.4800 C   0  0  0  0  0  0  0  0  0  0  0  0
  -21.4760  -29.2150   22.3690 N   0  0  0  0  0  0  0  0  0  0  0  0
  -23.4970  -28.7480   23.2720 O   0  0  0  0  0  0  0  0  0  0  0  0
  -20.9790  -29.7860   21.6990 H   0  0  0  0  0  0  0  0  0  0  0  0
  -18.1030  -28.0470   22.9000 C   0  0  0  0  0  0  0  0  0  0  0  0
  -20.6660  -28.2710   23.1340 C   0  0  0  0  0  3  0  0  0  0  0  0
  -20.7440  -26.8530   22.5240 C   0  0  0  0  0  2  0  0  0  0  0  0
  -19.6220  -26.5630   21.5230 C   0  0  0  0  0  2  0  0  0  0  0  0
  -18.2530  -26.7100   22.1940 C   0  0  0  0  0  2  0  0  0  0  0  0
  -19.2360  -28.7870   23.3270 C   0  0  0  0  0  0  0  0  0  0  0  0
  -19.0420  -30.0420   23.9460 C   0  0  0  0  0  3  0  0  0  0  0  0
  -17.7470  -30.5540   24.1440 C   0  0  0  0  0  3  0  0  0  0  0  0
  -16.6270  -29.8080   23.7350 C   0  0  0  0  0  3  0  0  0  0  0  0
  -16.8060  -28.5570   23.1180 C   0  0  0  0  0  3  0  0  0  0  0  0
  -25.9520  -32.4350   23.7930 C   0  0  0  0  0  3  0  0  0  0  0  0
  -26.4890  -31.6420   25.0460 C   0  0  1  0  0  0  0  0  0  0  0  0
  -25.4100  -31.3750   26.1210 C   0  0  0  0  0  1  0  0  0  0  0  0
  -27.0740  -30.2760   24.6150 C   0  0  0  0  0  1  0  0  0  0  0  0
  -27.6430  -32.4270   25.7130 C   0  0  0  0  0  1  0  0  0  0  0  0
  -25.6470  -33.8270   24.1490 N   0  0  0  0  0  0  0  0  0  0  0  0
  -25.9770  -34.8910   23.4030 C   0  0  0  0  0  0  0  0  0  0  0  0
  -26.6410  -34.8030   22.3670 O   0  0  0  0  0  0  0  0  0  0  0  0
  -25.0610  -33.9700   24.9580 H   0  0  0  0  0  0  0  0  0  0  0  0
  -24.2410  -36.6790   23.0830 C   0  0  0  0  0  1  0  0  0  0  0  0
  -25.4890  -36.2700   23.8820 C   0  0  0  0  0  3  0  0  0  0  0  0
  -27.6270  -37.1460   24.7110 C   0  0  0  0  0  1  0  0  0  0  0  0
  -26.5190  -37.3270   23.7780 N   0  0  0  0  0  0  0  0  0  0  0  0
  -26.1110  -38.2440   23.9430 H   0  0  0  0  0  0  0  0  0  0  0  0
  2  6  1  0
  2  1  1  0
  3  6  1  0
  3  5  1  0
  4  5  1  0
  4  1  1  0
  4 11  1  0
  5  7  1  0
  7  9  1  0
  7 10  1  0
  8  7  1  0
 12 20  1  0
 13 18  1  0
 14 15  1  0
 14 13  1  0
 16 15  1  0
 16 25  1  0
 16 17  1  0
 18 12  1  0
 18 17  1  0
 19 12  2  0
 20 11  1  0
 20 21  1  0
 22 23  2  0
 23 42  1  0
 24 23  1  0
 24 27  1  0
 25 26  1  0
 25 22  1  0
 26 24  2  0
 27 28  1  0
 28 29  2  0
 30 33  1  0
 30 29  1  0
 31 30  2  0
 32 31  1  0
 32 27  2  0
 33 34  1  0
 34 35  1  0
 35 36  2  0
 37 36  1  0
 37 41  1  0
 38 37  2  0
 39 34  2  0
 39 38  1  0
 40 39  1  0
 42 43  1  0
 43 46  1  0
 43 45  1  0
 44 42  2  0
 47 48  1  0
 47 22  1  0
 49 47  1  0
 50 51  1  0
 50  6  1  0
 52 53  1  0
 52 51  1  0
 54 55  1  0
 54 53  1  0
 56 58  1  0
 56 55  1  0
 57 68  2  0
 58 63  1  0
 59 67  1  0
 59 69  1  0
 60 66  1  0
 60 62  1  0
 61 67  1  0
 62 61  1  0
 63 62  2  0
 64 65  1  0
 64 58  2  0
 65 60  2  0
 66 59  1  0
 67 57  1  0
 69 71  2  0
 70 69  1  0
 72 70  1  0
 73 82  2  0
 73 78  1  0
 74 70  1  0
 74 78  1  0
 75 74  1  0
 76 77  1  0
 76 75  1  0
 77 73  1  0
 78 79  2  0
 79 80  1  0
 81 80  2  0
 82 81  1  0
 83 57  1  0
 83 88  1  0
 83 84  1  0
 84 87  1  1
 84 85  1  0
 86 84  1  0
 88 91  1  0
 89 93  1  0
 89 88  1  0
 90 89  2  0
 93 92  1  0
 95 93  1  0
 95 96  1  0
 95 94  1  0
M  ISO  4  12 100  20 100  55 101  56 101
M  END
>  <TORSDO>  (80) 
F 24

>  <SCORE>  (80) 
-12.658

>  <name>  (80) 
79

>  <ligand_id>  (80) 
79

>  <original_smiles>  (80) 
[H]c1c([H])c([H])c2c(c1[H])C([H])([H])C([H])([H])C([H])([H])C2([H])N([H])C(=O)C1([H])N(C(=O)C([H])(N([H])C(=O)C([H])(N([H])C([H])([H])[H])C([H])([H])[H])C(C([H])([H])[H])(C([H])([H])[H])C([H])([H])[H])C([H])([H])c2c([H])c(OC([H])([H])C([H])([H])C([H])([H])C([H])([H])C([H])([H])C([H])([H])N3C([H])([H])C([H])([H])C([H])(C([H])([H])N([H])C(=O)N4C([H])([H])C([H])([H])C([H])([H])C([H])(n5nc(-c6c([H])c([H])c(Oc7c([H])c([H])c(F)c([H])c7F)c([H])c6[H])c(C(=O)N([H])[H])c5N([H])[H])C4([H])[H])C([H])([N+]([H])([H])[H])C3([H])[H])c([H])c([H])c2C1([H])[H]

>  <smiles>  (80) 
[H]c1c([H])c([H])c2c(c1[H])C([H])([H])C([H])([H])C([H])([H])C2([H])N([H])C(=O)C1([H])N(C(=O)C([H])(N([H])C(=O)C([H])(N([H])C([H])([H])[H])C([H])([H])[H])C(C([H])([H])[H])(C([H])([H])[H])C([H])([H])[H])C([H])([H])c2c([H])c(OC([H])([H])C([H])([H])C([H])([H])C([H])([H])C([H])([H])C([H])([H])N3C([H])([H])C([H])([H])C([H])(C([H])([H])N([H])C(=O)N4C([H])([H])C([H])([H])C([H])([H])C([H])(n5nc(-c6c([H])c([H])c(Oc7c([H])c([H])c(F)c([H])c7F)c([H])c6[H])c(C(=O)N([H])[H])c5N([H])[H])C4([H])[H])C([H])([N+]([H])([H])[H])C3([H])[H])c([H])c([H])c2C1([H])[H]

$$$$
80:0:0
     RDKit          3D

 88 95  0  0  1  0  0  0  0  0999 V2000
  -28.9110  -21.2120   20.0080 C   0  0  0  0  0  0  0  0  0  0  0  0
  -28.9910  -22.4940   20.5120 N   0  0  0  0  0  0  0  0  0  0  0  0
  -28.3240  -21.0030   18.9460 O   0  0  0  0  0  0  0  0  0  0  0  0
  -29.4620  -22.5830   21.4030 H   0  0  0  0  0  0  0  0  0  0  0  0
  -29.6120  -19.9780   20.7310 C   0  0  0  0  0  2  0  0  0  0  0  0
  -29.2490  -18.4560   20.3270 C   0  0  0  0  0  3  0  0  0  0  0  0
  -30.2460  -17.2720   20.7760 C   0  0  0  0  0  3  0  0  0  0  0  0
  -30.5860  -14.7030   20.3810 C   0  0  0  0  0  0  0  0  0  0  0  0
  -30.3730  -12.4530   19.3310 C   0  0  0  0  0  2  0  0  0  0  0  0
  -29.4250  -12.5500   18.1160 C   0  0  0  0  0  2  0  0  0  0  0  0
  -27.9570  -12.3790   18.5550 C   0  0  0  0  0  2  0  0  0  0  0  0
  -27.5940  -13.2540   19.7850 C   0  0  0  0  0  3  0  0  0  0  0  0
  -28.6580  -13.1390   20.8970 C   0  0  0  0  0  2  0  0  0  0  0  0
  -29.9530  -13.4870   20.3000 N   0  0  0  0  0  0  0  0  0  0  0  0
  -31.7690  -14.8170   20.0500 O   0  0  0  0  0  0  0  0  0  0  0  0
  -29.8170  -15.8180   20.6470 N   0  0  0  0  0  0  0  0  0  0  0  0
  -28.8460  -15.6250   20.8430 H   0  0  0  0  0  0  0  0  0  0  0  0
  -25.2050  -13.8410   20.5180 C   0  0  0  0  0  0  0  0  0  0  0  0
  -24.1440  -13.0630   20.8930 C   0  0  0  0  0  0  0  0  0  0  0  0
  -24.6120  -11.7130   20.8640 C   0  0  0  0  0  0  0  0  0  0  0  0
  -26.2510  -12.9640   20.2800 N   0  0  0  0  0  0  0  0  0  0  0  0
  -25.9010  -11.6800   20.5510 N   0  0  0  0  0  0  0  0  0  0  0  0
  -23.8910  -10.4480   21.0570 C   0  0  0  0  0  0  0  0  0  0  0  0
  -24.3380   -9.4770   21.9800 C   0  0  0  0  0  3  0  0  0  0  0  0
  -23.6170   -8.2770   22.1610 C   0  0  0  0  0  3  0  0  0  0  0  0
  -22.4340   -8.0410   21.4210 C   0  0  0  0  0  0  0  0  0  0  0  0
  -22.0070   -9.0010   20.4870 C   0  0  0  0  0  3  0  0  0  0  0  0
  -22.7290  -10.1920   20.3030 C   0  0  0  0  0  3  0  0  0  0  0  0
  -21.6840   -6.8940   21.5130 O   0  0  0  0  0  0  0  0  0  0  0  0
  -21.6620   -6.1370   22.6570 C   0  0  0  0  0  0  0  0  0  0  0  0
  -21.2710   -6.6800   23.9010 C   0  0  0  0  0  3  0  0  0  0  0  0
  -21.1970   -5.8500   25.0390 C   0  0  0  0  0  3  0  0  0  0  0  0
  -21.5010   -4.4800   24.9330 C   0  0  0  0  0  0  0  0  0  0  0  0
  -21.8850   -3.9370   23.6940 C   0  0  0  0  0  3  0  0  0  0  0  0
  -21.9620   -4.7640   22.5580 C   0  0  0  0  0  0  0  0  0  0  0  0
  -22.3110   -4.2320   21.3620 F   0  0  0  0  0  0  0  0  0  0  0  0
  -21.4220   -3.6820   26.0220 F   0  0  0  0  0  0  0  0  0  0  0  0
  -22.7450  -13.5350   21.1670 C   0  0  0  0  0  0  0  0  0  0  0  0
  -22.0210  -12.8380   22.0360 N   0  0  0  0  0  0  0  0  0  0  0  0
  -22.3030  -14.5570   20.6440 O   0  0  0  0  0  0  0  0  0  0  0  0
  -22.3920  -12.0110   22.4800 H   0  0  0  0  0  0  0  0  0  0  0  0
  -21.0830  -13.1360   22.2610 H   0  0  0  0  0  0  0  0  0  0  0  0
  -25.3610  -15.2110   20.3360 N   0  0  0  0  0  0  0  0  0  0  0  0
  -24.5870  -15.8580   20.4410 H   0  0  0  0  0  0  0  0  0  0  0  0
  -26.1950  -15.6520   19.9690 H   0  0  0  0  0  0  0  0  0  0  0  0
  -28.6520  -23.8120   19.8260 C   0  0  0  0  0  2  0  0  0  0  0  0
  -28.2250  -25.0760   20.7210 C   0  0  0  0  0  2  0  0  0  0  0  0
  -28.3520  -26.4670   20.2010 O   0  0  0  0  0  0  0  0  0  0  0  0
  -24.6120  -31.8750   23.2380 C   0  0  0  0  0  0  0  0  0  0  0  0
  -27.2280  -27.3070   20.2010 C   0  0  0  0  0  0  0  0  0  0  0  0
  -23.4080  -30.4700   21.6010 C   0  0  0  0  0  3  0  0  0  0  0  0
  -24.8600  -28.9120   20.1820 C   0  0  0  0  0  0  0  0  0  0  0  0
  -25.9460  -30.7940   21.4120 C   0  0  0  0  0  2  0  0  0  0  0  0
  -26.0290  -29.4120   20.7710 C   0  0  0  0  0  0  0  0  0  0  0  0
  -27.2190  -28.6220   20.7640 C   0  0  0  0  0  3  0  0  0  0  0  0
  -26.0390  -26.8570   19.5930 C   0  0  0  0  0  3  0  0  0  0  0  0
  -24.8670  -27.6410   19.5820 C   0  0  0  0  0  3  0  0  0  0  0  0
  -23.6220  -29.7860   20.2250 C   0  0  0  0  0  2  0  0  0  0  0  0
  -24.6740  -31.0650   22.1400 N   0  0  0  0  0  0  0  0  0  0  0  0
  -23.5290  -32.1520   23.7730 O   0  0  0  0  0  0  0  0  0  0  0  0
  -22.7480  -29.4570   22.5660 C   0  0  0  0  0  0  0  0  0  0  0  0
  -21.4210  -29.2800   22.4420 N   0  0  0  0  0  0  0  0  0  0  0  0
  -23.4280  -28.8330   23.3840 O   0  0  0  0  0  0  0  0  0  0  0  0
  -20.9310  -29.8350   21.7560 H   0  0  0  0  0  0  0  0  0  0  0  0
  -18.0460  -28.0820   22.9480 C   0  0  0  0  0  0  0  0  0  0  0  0
  -20.6040  -28.3440   23.2160 C   0  0  0  0  0  3  0  0  0  0  0  0
  -20.7080  -26.9110   22.6450 C   0  0  0  0  0  2  0  0  0  0  0  0
  -19.6050  -26.5840   21.6320 C   0  0  0  0  0  2  0  0  0  0  0  0
  -18.2240  -26.7300   22.2760 C   0  0  0  0  0  2  0  0  0  0  0  0
  -19.1640  -28.8460   23.3750 C   0  0  0  0  0  0  0  0  0  0  0  0
  -18.9430  -30.1100   23.9640 C   0  0  0  0  0  3  0  0  0  0  0  0
  -17.6380  -30.6100   24.1280 C   0  0  0  0  0  3  0  0  0  0  0  0
  -16.5340  -29.8430   23.7170 C   0  0  0  0  0  3  0  0  0  0  0  0
  -16.7390  -28.5800   23.1320 C   0  0  0  0  0  3  0  0  0  0  0  0
  -25.8940  -32.5120   23.8580 C   0  0  0  0  0  3  0  0  0  0  0  0
  -25.5820  -33.9100   24.1870 N   0  0  0  0  0  0  0  0  0  0  0  0
  -25.9130  -34.9640   23.4290 C   0  0  0  0  0  0  0  0  0  0  0  0
  -26.5820  -34.8600   22.3970 O   0  0  0  0  0  0  0  0  0  0  0  0
  -24.9880  -34.0630   24.9890 H   0  0  0  0  0  0  0  0  0  0  0  0
  -24.1820  -36.7550   23.0770 C   0  0  0  0  0  1  0  0  0  0  0  0
  -25.4260  -36.3520   23.8870 C   0  0  0  0  0  3  0  0  0  0  0  0
  -27.5610  -37.2380   24.7130 C   0  0  0  0  0  1  0  0  0  0  0  0
  -26.4560  -37.4050   23.7710 N   0  0  0  0  0  0  0  0  0  0  0  0
  -26.0500  -38.3260   23.9190 H   0  0  0  0  0  0  0  0  0  0  0  0
  -26.4130  -31.7430   25.1360 C   0  0  1  0  0  0  0  0  0  0  0  0
  -25.3210  -31.5090   26.2060 C   0  0  0  0  0  1  0  0  0  0  0  0
  -26.9940  -30.3640   24.7470 C   0  0  0  0  0  1  0  0  0  0  0  0
  -27.5640  -32.5390   25.7940 C   0  0  0  0  0  1  0  0  0  0  0  0
  1  2  1  0
  1  5  1  0
  2  4  1  0
  3  1  2  0
  6  5  1  0
  6  7  2  0
  8 16  1  0
  9 14  1  0
 10 11  1  0
 10  9  1  0
 12 11  1  0
 12 21  1  0
 12 13  1  0
 14  8  1  0
 14 13  1  0
 15  8  2  0
 16  7  1  0
 16 17  1  0
 18 19  2  0
 19 38  1  0
 20 19  1  0
 20 23  1  0
 21 18  1  0
 21 22  1  0
 22 20  2  0
 23 24  1  0
 24 25  2  0
 26 29  1  0
 26 25  1  0
 27 26  2  0
 28 27  1  0
 28 23  2  0
 29 30  1  0
 30 31  1  0
 31 32  2  0
 33 32  1  0
 33 37  1  0
 34 33  2  0
 35 30  2  0
 35 34  1  0
 36 35  1  0
 38 39  1  0
 39 42  1  0
 39 41  1  0
 40 38  2  0
 43 44  1  0
 43 18  1  0
 45 43  1  0
 46  2  1  0
 46 47  1  0
 48 47  1  0
 49 60  2  0
 50 48  1  0
 50 55  1  0
 51 59  1  0
 51 61  1  0
 52 58  1  0
 52 54  1  0
 53 59  1  0
 54 53  1  0
 55 54  2  0
 56 50  2  0
 57 56  1  0
 57 52  2  0
 58 51  1  0
 59 49  1  0
 61 63  2  0
 62 61  1  0
 64 62  1  0
 65 74  2  0
 65 70  1  0
 66 62  1  0
 66 70  1  0
 67 66  1  0
 68 69  1  0
 68 67  1  0
 69 65  1  0
 70 71  2  0
 71 72  1  0
 73 72  2  0
 74 73  1  0
 75 49  1  0
 75 76  1  0
 75 85  1  0
 76 79  1  0
 77 81  1  0
 77 76  1  0
 78 77  2  0
 81 80  1  0
 83 81  1  0
 83 84  1  0
 83 82  1  0
 85 88  1  1
 85 86  1  0
 87 85  1  0
M  ISO  4   8 100  16 100  47 101  48 101
M  END
>  <TORSDO>  (81) 
F 21

>  <SCORE>  (81) 
-13.303

>  <name>  (81) 
80

>  <ligand_id>  (81) 
80

>  <original_smiles>  (81) 
[H]c1c([H])c([H])c2c(c1[H])C([H])([H])C([H])([H])C([H])([H])C2([H])N([H])C(=O)C1([H])N(C(=O)C([H])(N([H])C(=O)C([H])(N([H])C([H])([H])[H])C([H])([H])[H])C(C([H])([H])[H])(C([H])([H])[H])C([H])([H])[H])C([H])([H])c2c([H])c(OC([H])([H])C([H])([H])N([H])C(=O)C([H])([H])C([H])([H])C([H])([H])N([H])C(=O)N3C([H])([H])C([H])([H])C([H])([H])C([H])(n4nc(-c5c([H])c([H])c(Oc6c([H])c([H])c(F)c([H])c6F)c([H])c5[H])c(C(=O)N([H])[H])c4N([H])[H])C3([H])[H])c([H])c([H])c2C1([H])[H]

>  <smiles>  (81) 
[H]c1c([H])c([H])c2c(c1[H])C([H])([H])C([H])([H])C([H])([H])C2([H])N([H])C(=O)C1([H])N(C(=O)C([H])(N([H])C(=O)C([H])(N([H])C([H])([H])[H])C([H])([H])[H])C(C([H])([H])[H])(C([H])([H])[H])C([H])([H])[H])C([H])([H])c2c([H])c(OC([H])([H])C([H])([H])N([H])C(=O)C([H])([H])C([H])([H])C([H])([H])N([H])C(=O)N3C([H])([H])C([H])([H])C([H])([H])C([H])(n4nc(-c5c([H])c([H])c(Oc6c([H])c([H])c(F)c([H])c6F)c([H])c5[H])c(C(=O)N([H])[H])c4N([H])[H])C3([H])[H])c([H])c([H])c2C1([H])[H]

$$$$
81:0:0
     RDKit          3D

 94102  0  0  1  0  0  0  0  0999 V2000
  -29.9780  -20.9430   19.6210 C   0  0  0  0  0  2  0  0  0  0  0  0
  -29.7240  -17.4990   20.3750 C   0  0  0  0  0  2  0  0  0  0  0  0
  -28.8840  -18.7810   20.2460 C   0  0  0  0  0  2  0  0  0  0  0  0
  -30.7590  -19.6940   21.6300 C   0  0  0  0  0  2  0  0  0  0  0  0
  -30.0910  -17.2130   21.8500 C   0  0  0  0  0  3  0  0  0  0  0  0
  -30.4200  -18.5420   22.6020 C   0  0  0  0  0  3  0  0  0  0  0  0
  -31.4650  -18.4000   23.7170 C   0  0  0  0  0  1  0  0  0  0  0  0
  -29.6200  -19.9950   20.7110 N   0  0  1  0  0  4  0  0  0  0  0  0
  -28.9310  -20.4840   21.2600 H   0  0  0  0  0  0  0  0  0  0  0  0
  -31.1340  -16.0700   21.9590 C   0  0  0  0  0  2  0  0  0  0  0  0
  -30.8520  -14.2140   20.2930 C   0  0  0  0  0  0  0  0  0  0  0  0
  -30.3700  -12.2210   18.9240 C   0  0  0  0  0  2  0  0  0  0  0  0
  -29.3720  -12.5120   17.7910 C   0  0  0  0  0  2  0  0  0  0  0  0
  -27.9230  -12.3740   18.2910 C   0  0  0  0  0  2  0  0  0  0  0  0
  -27.6680  -13.1820   19.5910 C   0  0  0  0  0  3  0  0  0  0  0  0
  -28.7560  -12.8620   20.6390 C   0  0  0  0  0  2  0  0  0  0  0  0
  -30.0840  -13.1240   20.0470 N   0  0  0  0  0  0  0  0  0  0  0  0
  -31.7800  -14.5840   19.5650 O   0  0  0  0  0  0  0  0  0  0  0  0
  -30.5710  -14.8240   21.4480 N   0  0  0  0  0  0  0  0  0  0  0  0
  -29.8500  -14.3910   22.0080 H   0  0  0  0  0  0  0  0  0  0  0  0
  -25.3080  -13.8470   20.3840 C   0  0  0  0  0  0  0  0  0  0  0  0
  -24.2360  -13.0990   20.7950 C   0  0  0  0  0  0  0  0  0  0  0  0
  -24.6640  -11.7380   20.7460 C   0  0  0  0  0  0  0  0  0  0  0  0
  -26.3250  -12.9410   20.1170 N   0  0  0  0  0  0  0  0  0  0  0  0
  -25.9400  -11.6680   20.3860 N   0  0  0  0  0  0  0  0  0  0  0  0
  -23.9190  -10.4910   20.9690 C   0  0  0  0  0  0  0  0  0  0  0  0
  -24.3630   -9.5250   21.8980 C   0  0  0  0  0  3  0  0  0  0  0  0
  -23.6260   -8.3390   22.1080 C   0  0  0  0  0  3  0  0  0  0  0  0
  -22.4300   -8.1110   21.3870 C   0  0  0  0  0  0  0  0  0  0  0  0
  -22.0040   -9.0660   20.4470 C   0  0  0  0  0  3  0  0  0  0  0  0
  -22.7400  -10.2440   20.2360 C   0  0  0  0  0  3  0  0  0  0  0  0
  -21.6620   -6.9770   21.5020 O   0  0  0  0  0  0  0  0  0  0  0  0
  -21.6230   -6.2520   22.6650 C   0  0  0  0  0  0  0  0  0  0  0  0
  -21.2360   -6.8310   23.8920 C   0  0  0  0  0  3  0  0  0  0  0  0
  -21.1430   -6.0320   25.0490 C   0  0  0  0  0  3  0  0  0  0  0  0
  -21.4250   -4.6540   24.9800 C   0  0  0  0  0  0  0  0  0  0  0  0
  -21.8030   -4.0740   23.7560 C   0  0  0  0  0  3  0  0  0  0  0  0
  -21.8990   -4.8710   22.6020 C   0  0  0  0  0  0  0  0  0  0  0  0
  -22.2450   -4.3040   21.4210 F   0  0  0  0  0  0  0  0  0  0  0  0
  -21.3270   -3.8840   26.0880 F   0  0  0  0  0  0  0  0  0  0  0  0
  -22.8600  -13.6060   21.1190 C   0  0  0  0  0  0  0  0  0  0  0  0
  -22.1530  -12.9270   22.0170 N   0  0  0  0  0  0  0  0  0  0  0  0
  -22.4200  -14.6340   20.6090 O   0  0  0  0  0  0  0  0  0  0  0  0
  -22.5240  -12.0990   22.4570 H   0  0  0  0  0  0  0  0  0  0  0  0
  -21.2280  -13.2430   22.2660 H   0  0  0  0  0  0  0  0  0  0  0  0
  -25.5020  -15.2110   20.2000 N   0  0  0  0  0  0  0  0  0  0  0  0
  -24.7560  -15.8890   20.3120 H   0  0  0  0  0  0  0  0  0  0  0  0
  -26.3530  -15.6140   19.8290 H   0  0  0  0  0  0  0  0  0  0  0  0
  -29.7610  -22.4300   19.9990 C   0  0  0  0  0  2  0  0  0  0  0  0
  -28.2940  -22.8340   20.2830 C   0  0  0  0  0  3  0  0  0  0  0  0
  -27.4920  -22.0220   19.5930 F   0  0  0  0  0  0  0  0  0  0  0  0
  -27.9130  -24.2710   19.8540 C   0  0  0  0  0  2  0  0  0  0  0  0
  -28.4340  -25.4250   20.7450 C   0  0  0  0  0  2  0  0  0  0  0  0
  -28.3770  -26.7220   20.1290 O   0  0  0  0  0  0  0  0  0  0  0  0
  -24.5740  -31.8850   23.2640 C   0  0  0  0  0  0  0  0  0  0  0  0
  -27.1890  -27.4210   20.1840 C   0  0  0  0  0  0  0  0  0  0  0  0
  -23.3500  -30.4770   21.6370 C   0  0  0  0  0  3  0  0  0  0  0  0
  -24.7930  -28.9260   20.2170 C   0  0  0  0  0  0  0  0  0  0  0  0
  -25.8780  -30.8280   21.4190 C   0  0  0  0  0  2  0  0  0  0  0  0
  -25.9560  -29.4520   20.7900 C   0  0  0  0  0  0  0  0  0  0  0  0
  -27.1590  -28.7090   20.7680 C   0  0  0  0  0  3  0  0  0  0  0  0
  -26.0100  -26.9180   19.5920 C   0  0  0  0  0  3  0  0  0  0  0  0
  -24.8130  -27.6550   19.6190 C   0  0  0  0  0  3  0  0  0  0  0  0
  -23.5490  -29.7840   20.2630 C   0  0  0  0  0  2  0  0  0  0  0  0
  -24.6200  -31.0780   22.1640 N   0  0  0  0  0  0  0  0  0  0  0  0
  -23.4980  -32.1640   23.8110 O   0  0  0  0  0  0  0  0  0  0  0  0
  -22.7030  -29.4640   22.6070 C   0  0  0  0  0  0  0  0  0  0  0  0
  -21.3770  -29.2810   22.4870 N   0  0  0  0  0  0  0  0  0  0  0  0
  -23.3900  -28.8410   23.4190 O   0  0  0  0  0  0  0  0  0  0  0  0
  -20.8830  -29.8390   21.8040 H   0  0  0  0  0  0  0  0  0  0  0  0
  -18.0070  -28.0880   22.9940 C   0  0  0  0  0  0  0  0  0  0  0  0
  -20.5640  -28.3480   23.2650 C   0  0  0  0  0  3  0  0  0  0  0  0
  -20.6670  -26.9120   22.7020 C   0  0  0  0  0  2  0  0  0  0  0  0
  -19.5660  -26.5790   21.6900 C   0  0  0  0  0  2  0  0  0  0  0  0
  -18.1840  -26.7320   22.3310 C   0  0  0  0  0  2  0  0  0  0  0  0
  -19.1250  -28.8540   23.4170 C   0  0  0  0  0  0  0  0  0  0  0  0
  -18.9080  -30.1240   23.9950 C   0  0  0  0  0  3  0  0  0  0  0  0
  -17.6040  -30.6290   24.1520 C   0  0  0  0  0  3  0  0  0  0  0  0
  -16.5000  -29.8590   23.7480 C   0  0  0  0  0  3  0  0  0  0  0  0
  -16.7020  -28.5910   23.1750 C   0  0  0  0  0  3  0  0  0  0  0  0
  -25.8680  -32.5140   23.8700 C   0  0  0  0  0  3  0  0  0  0  0  0
  -25.5660  -33.9120   24.2030 N   0  0  0  0  0  0  0  0  0  0  0  0
  -25.8940  -34.9630   23.4400 C   0  0  0  0  0  0  0  0  0  0  0  0
  -26.5530  -34.8580   22.4010 O   0  0  0  0  0  0  0  0  0  0  0  0
  -24.9840  -34.0710   25.0130 H   0  0  0  0  0  0  0  0  0  0  0  0
  -24.1660  -36.7560   23.0960 C   0  0  0  0  0  1  0  0  0  0  0  0
  -25.4110  -36.3510   23.9010 C   0  0  0  0  0  3  0  0  0  0  0  0
  -27.5530  -37.2290   24.7200 C   0  0  0  0  0  1  0  0  0  0  0  0
  -26.4450  -37.4020   23.7830 N   0  0  0  0  0  0  0  0  0  0  0  0
  -26.0410  -38.3220   23.9350 H   0  0  0  0  0  0  0  0  0  0  0  0
  -26.4040  -31.7400   25.1360 C   0  0  1  0  0  0  0  0  0  0  0  0
  -25.3270  -31.5000   26.2180 C   0  0  0  0  0  1  0  0  0  0  0  0
  -26.9800  -30.3630   24.7300 C   0  0  0  0  0  1  0  0  0  0  0  0
  -27.5620  -32.5340   25.7850 C   0  0  0  0  0  1  0  0  0  0  0  0
  1 49  1  0
  1  8  1  0
  2  5  1  0
  3  2  1  0
  3  8  1  0
  4  6  1  0
  5 10  1  0
  5  6  1  0
  6  7  1  0
  8  9  1  1
  8  4  1  0
 11 19  1  0
 12 17  1  0
 13 14  1  0
 13 12  1  0
 15 14  1  0
 15 24  1  0
 15 16  1  0
 17 11  1  0
 17 16  1  0
 18 11  2  0
 19 10  1  0
 19 20  1  0
 21 22  2  0
 22 41  1  0
 23 22  1  0
 23 26  1  0
 24 21  1  0
 24 25  1  0
 25 23  2  0
 26 27  1  0
 27 28  2  0
 29 32  1  0
 29 28  1  0
 30 29  2  0
 31 30  1  0
 31 26  2  0
 32 33  1  0
 33 34  1  0
 34 35  2  0
 36 35  1  0
 36 40  1  0
 37 36  2  0
 38 33  2  0
 38 37  1  0
 39 38  1  0
 41 42  1  0
 42 45  1  0
 42 44  1  0
 43 41  2  0
 46 47  1  0
 46 21  1  0
 48 46  1  0
 49 50  1  0
 50 51  1  0
 52 50  1  0
 52 53  1  0
 54 56  1  0
 54 53  1  0
 55 66  2  0
 56 61  1  0
 57 65  1  0
 57 67  1  0
 58 64  1  0
 58 60  1  0
 59 65  1  0
 60 59  1  0
 61 60  2  0
 62 63  1  0
 62 56  2  0
 63 58  2  0
 64 57  1  0
 65 55  1  0
 67 69  2  0
 68 67  1  0
 70 68  1  0
 71 80  2  0
 71 76  1  0
 72 68  1  0
 72 76  1  0
 73 72  1  0
 74 75  1  0
 74 73  1  0
 75 71  1  0
 76 77  2  0
 77 78  1  0
 79 78  2  0
 80 79  1  0
 81 55  1  0
 81 82  1  0
 81 91  1  0
 82 85  1  0
 83 87  1  0
 83 82  1  0
 84 83  2  0
 87 86  1  0
 89 87  1  0
 89 90  1  0
 89 88  1  0
 91 94  1  1
 91 92  1  0
 93 91  1  0
M  ISO  4  11 100  19 100  53 101  54 101
M  END
>  <TORSDO>  (82) 
F 22

>  <SCORE>  (82) 
-12.028

>  <name>  (82) 
81

>  <ligand_id>  (82) 
81

>  <original_smiles>  (82) 
[H]c1c([H])c([H])c2c(c1[H])C([H])([H])C([H])([H])C([H])([H])C2([H])N([H])C(=O)C1([H])N(C(=O)C([H])(N([H])C(=O)C([H])(N([H])C([H])([H])[H])C([H])([H])[H])C(C([H])([H])[H])(C([H])([H])[H])C([H])([H])[H])C([H])([H])c2c([H])c(OC([H])([H])C([H])([H])C([H])(F)C([H])([H])C([H])([H])[N+]3([H])C([H])([H])C([H])([H])C([H])(C([H])([H])N([H])C(=O)N4C([H])([H])C([H])([H])C([H])([H])C([H])(n5nc(-c6c([H])c([H])c(Oc7c([H])c([H])c(F)c([H])c7F)c([H])c6[H])c(C(=O)N([H])[H])c5N([H])[H])C4([H])[H])C([H])(C([H])([H])[H])C3([H])[H])c([H])c([H])c2C1([H])[H]

>  <smiles>  (82) 
[H]c1c([H])c([H])c2c(c1[H])C([H])([H])C([H])([H])C([H])([H])C2([H])N([H])C(=O)C1([H])N(C(=O)C([H])(N([H])C(=O)C([H])(N([H])C([H])([H])[H])C([H])([H])[H])C(C([H])([H])[H])(C([H])([H])[H])C([H])([H])[H])C([H])([H])c2c([H])c(OC([H])([H])C([H])([H])C([H])(F)C([H])([H])C([H])([H])[N+]3([H])C([H])([H])C([H])([H])C([H])(C([H])([H])N([H])C(=O)N4C([H])([H])C([H])([H])C([H])([H])C([H])(n5nc(-c6c([H])c([H])c(Oc7c([H])c([H])c(F)c([H])c7F)c([H])c6[H])c(C(=O)N([H])[H])c5N([H])[H])C4([H])[H])C([H])(C([H])([H])[H])C3([H])[H])c([H])c([H])c2C1([H])[H]

$$$$
82:0:0
     RDKit          3D

 91 99  0  0  1  0  0  0  0  0999 V2000
  -30.6060  -14.7720   20.4290 C   0  0  0  0  0  0  0  0  0  0  0  0
  -30.3950  -12.4950   19.4290 C   0  0  0  0  0  2  0  0  0  0  0  0
  -29.4690  -12.5580   18.1940 C   0  0  0  0  0  2  0  0  0  0  0  0
  -27.9950  -12.3940   18.6120 C   0  0  0  0  0  2  0  0  0  0  0  0
  -27.6080  -13.2960   19.8140 C   0  0  0  0  0  3  0  0  0  0  0  0
  -28.6540  -13.2330   20.9470 C   0  0  0  0  0  2  0  0  0  0  0  0
  -29.9570  -13.5610   20.3550 N   0  0  0  0  0  0  0  0  0  0  0  0
  -31.8220  -14.8350   20.2280 O   0  0  0  0  0  0  0  0  0  0  0  0
  -29.7380  -18.4950   20.3940 C   0  0  0  0  0  0  0  0  0  0  0  0
  -30.0370  -17.1840   21.2040 C   0  0  0  0  0  2  0  0  0  0  0  0
  -29.4940  -16.4600   19.0330 C   0  0  0  0  0  2  0  0  0  0  0  0
  -29.6430  -18.0100   18.9690 C   0  0  0  0  0  3  0  0  0  0  0  0
  -29.6050  -19.7290   20.8520 N   0  0  0  0  0  0  0  0  0  0  0  0
  -29.8440  -15.9370   20.3720 N   0  0  0  0  0  0  0  0  0  0  0  0
  -25.2170  -13.9160   20.4970 C   0  0  0  0  0  0  0  0  0  0  0  0
  -24.1380  -13.1530   20.8530 C   0  0  0  0  0  0  0  0  0  0  0  0
  -24.5950  -11.8000   20.8520 C   0  0  0  0  0  0  0  0  0  0  0  0
  -26.2580  -13.0240   20.2920 N   0  0  0  0  0  0  0  0  0  0  0  0
  -25.8910  -11.7490   20.5710 N   0  0  0  0  0  0  0  0  0  0  0  0
  -23.8600  -10.5440   21.0450 C   0  0  0  0  0  0  0  0  0  0  0  0
  -24.2820   -9.5770   21.9830 C   0  0  0  0  0  3  0  0  0  0  0  0
  -23.5460   -8.3860   22.1620 C   0  0  0  0  0  3  0  0  0  0  0  0
  -22.3750   -8.1540   21.4030 C   0  0  0  0  0  0  0  0  0  0  0  0
  -21.9720   -9.1100   20.4530 C   0  0  0  0  0  3  0  0  0  0  0  0
  -22.7080  -10.2920   20.2720 C   0  0  0  0  0  3  0  0  0  0  0  0
  -21.6120   -7.0160   21.4930 O   0  0  0  0  0  0  0  0  0  0  0  0
  -21.5630   -6.2700   22.6440 C   0  0  0  0  0  0  0  0  0  0  0  0
  -21.1680   -6.8300   23.8780 C   0  0  0  0  0  3  0  0  0  0  0  0
  -21.0660   -6.0120   25.0210 C   0  0  0  0  0  3  0  0  0  0  0  0
  -21.3480   -4.6350   24.9300 C   0  0  0  0  0  0  0  0  0  0  0  0
  -21.7350   -4.0760   23.7000 C   0  0  0  0  0  3  0  0  0  0  0  0
  -21.8390   -4.8900   22.5590 C   0  0  0  0  0  0  0  0  0  0  0  0
  -22.1920   -4.3410   21.3720 F   0  0  0  0  0  0  0  0  0  0  0  0
  -21.2410   -3.8480   26.0250 F   0  0  0  0  0  0  0  0  0  0  0  0
  -22.7380  -13.6420   21.0880 C   0  0  0  0  0  0  0  0  0  0  0  0
  -21.9890  -12.9630   21.9510 N   0  0  0  0  0  0  0  0  0  0  0  0
  -22.3170  -14.6610   20.5430 O   0  0  0  0  0  0  0  0  0  0  0  0
  -22.3420  -12.1380   22.4110 H   0  0  0  0  0  0  0  0  0  0  0  0
  -21.0500  -13.2740   22.1540 H   0  0  0  0  0  0  0  0  0  0  0  0
  -25.3940  -15.2830   20.3060 N   0  0  0  0  0  0  0  0  0  0  0  0
  -24.6320  -15.9440   20.4030 H   0  0  0  0  0  0  0  0  0  0  0  0
  -26.2640  -15.7190   20.0290 H   0  0  0  0  0  0  0  0  0  0  0  0
  -30.8340  -18.4200   18.2020 N   0  0  0  0  0  4  0  0  0  0  0  0
  -31.6730  -18.0710   18.6310 H   0  0  0  0  0  0  0  0  0  0  0  0
  -30.8970  -19.4200   18.1700 H   0  0  0  0  0  0  0  0  0  0  0  0
  -30.7840  -18.0810   17.2580 H   0  0  0  0  0  0  0  0  0  0  0  0
  -29.3630  -20.9750   20.0110 C   0  0  0  0  0  3  0  0  0  0  0  0
  -28.9320  -22.3270   20.7920 C   0  0  0  0  0  3  0  0  0  0  0  0
  -28.9020  -23.7680   20.0410 C   0  0  0  0  0  3  0  0  0  0  0  0
  -28.2520  -25.0520   20.7790 C   0  0  0  0  0  3  0  0  0  0  0  0
  -28.4130  -26.4530   20.2710 O   0  0  0  0  0  0  0  0  0  0  0  0
  -24.6250  -31.8900   23.2510 C   0  0  0  0  0  0  0  0  0  0  0  0
  -27.2930  -27.3090   20.2560 C   0  0  0  0  0  0  0  0  0  0  0  0
  -23.4440  -30.4710   21.6110 C   0  0  0  0  0  3  0  0  0  0  0  0
  -24.9190  -28.9140   20.2120 C   0  0  0  0  0  0  0  0  0  0  0  0
  -25.9840  -30.8040   21.4440 C   0  0  0  0  0  2  0  0  0  0  0  0
  -26.0820  -29.4170   20.8110 C   0  0  0  0  0  0  0  0  0  0  0  0
  -27.2750  -28.6290   20.8160 C   0  0  0  0  0  3  0  0  0  0  0  0
  -26.1080  -26.8630   19.6340 C   0  0  0  0  0  3  0  0  0  0  0  0
  -24.9350  -27.6440   19.6130 C   0  0  0  0  0  3  0  0  0  0  0  0
  -23.6750  -29.7830   20.2400 C   0  0  0  0  0  2  0  0  0  0  0  0
  -24.7030  -31.0740   22.1590 N   0  0  0  0  0  0  0  0  0  0  0  0
  -23.5350  -32.1620   23.7750 O   0  0  0  0  0  0  0  0  0  0  0  0
  -22.7800  -29.4590   22.5750 C   0  0  0  0  0  0  0  0  0  0  0  0
  -21.4530  -29.2840   22.4500 N   0  0  0  0  0  0  0  0  0  0  0  0
  -23.4580  -28.8340   23.3940 O   0  0  0  0  0  0  0  0  0  0  0  0
  -20.9650  -29.8410   21.7620 H   0  0  0  0  0  0  0  0  0  0  0  0
  -18.0740  -28.0930   22.9550 C   0  0  0  0  0  0  0  0  0  0  0  0
  -20.6340  -28.3480   23.2220 C   0  0  0  0  0  3  0  0  0  0  0  0
  -20.7330  -26.9150   22.6480 C   0  0  0  0  0  2  0  0  0  0  0  0
  -19.6290  -26.5930   21.6350 C   0  0  0  0  0  2  0  0  0  0  0  0
  -18.2490  -26.7420   22.2800 C   0  0  0  0  0  2  0  0  0  0  0  0
  -19.1950  -28.8530   23.3840 C   0  0  0  0  0  0  0  0  0  0  0  0
  -18.9790  -30.1160   23.9760 C   0  0  0  0  0  3  0  0  0  0  0  0
  -17.6750  -30.6200   24.1430 C   0  0  0  0  0  3  0  0  0  0  0  0
  -16.5690  -29.8550   23.7320 C   0  0  0  0  0  3  0  0  0  0  0  0
  -16.7700  -28.5950   23.1440 C   0  0  0  0  0  3  0  0  0  0  0  0
  -25.8970  -32.5380   23.8800 C   0  0  0  0  0  3  0  0  0  0  0  0
  -26.4090  -31.7790   25.1660 C   0  0  1  0  0  0  0  0  0  0  0  0
  -25.3090  -31.5440   26.2290 C   0  0  0  0  0  1  0  0  0  0  0  0
  -27.0010  -30.4010   24.7880 C   0  0  0  0  0  1  0  0  0  0  0  0
  -27.5540  -32.5830   25.8280 C   0  0  0  0  0  1  0  0  0  0  0  0
  -25.5750  -33.9350   24.2000 N   0  0  0  0  0  0  0  0  0  0  0  0
  -25.9020  -34.9870   23.4380 C   0  0  0  0  0  0  0  0  0  0  0  0
  -26.5770  -34.8850   22.4100 O   0  0  0  0  0  0  0  0  0  0  0  0
  -24.9800  -34.0910   25.0000 H   0  0  0  0  0  0  0  0  0  0  0  0
  -24.1590  -36.7630   23.0730 C   0  0  0  0  0  1  0  0  0  0  0  0
  -25.4020  -36.3740   23.8880 C   0  0  0  0  0  3  0  0  0  0  0  0
  -27.5340  -37.2780   24.7090 C   0  0  0  0  0  1  0  0  0  0  0  0
  -26.4260  -37.4370   23.7720 N   0  0  0  0  0  0  0  0  0  0  0  0
  -26.0110  -38.3520   23.9260 H   0  0  0  0  0  0  0  0  0  0  0  0
  2  7  1  0
  3  4  1  0
  3  2  1  0
  5  4  1  0
  5 18  1  0
  5  6  1  0
  7  1  1  0
  7  6  1  0
  8  1  2  0
  9 13  2  0
  9 10  1  0
 11 14  1  0
 12 43  1  0
 12 11  1  0
 12  9  1  0
 14  1  1  0
 14 10  1  0
 15 16  2  0
 16 35  1  0
 17 16  1  0
 17 20  1  0
 18 15  1  0
 18 19  1  0
 19 17  2  0
 20 21  1  0
 21 22  2  0
 23 26  1  0
 23 22  1  0
 24 23  2  0
 25 24  1  0
 25 20  2  0
 26 27  1  0
 27 28  1  0
 28 29  2  0
 30 29  1  0
 30 34  1  0
 31 30  2  0
 32 27  2  0
 32 31  1  0
 33 32  1  0
 35 36  1  0
 36 39  1  0
 36 38  1  0
 37 35  2  0
 40 41  1  0
 40 15  1  0
 42 40  1  0
 43 44  1  0
 45 43  1  0
 46 43  1  0
 47 48  2  0
 47 13  1  0
 49 50  2  0
 49 48  1  0
 51 50  1  0
 52 63  2  0
 53 51  1  0
 53 58  1  0
 54 62  1  0
 54 64  1  0
 55 61  1  0
 55 57  1  0
 56 62  1  0
 57 58  2  0
 57 56  1  0
 59 53  2  0
 60 59  1  0
 60 55  2  0
 61 54  1  0
 62 52  1  0
 64 66  2  0
 65 64  1  0
 67 65  1  0
 68 77  2  0
 68 73  1  0
 69 65  1  0
 69 73  1  0
 70 69  1  0
 71 72  1  0
 71 70  1  0
 72 68  1  0
 73 74  2  0
 74 75  1  0
 76 75  2  0
 77 76  1  0
 78 52  1  0
 78 83  1  0
 78 79  1  0
 79 82  1  1
 79 80  1  0
 81 79  1  0
 83 86  1  0
 84 88  1  0
 84 83  1  0
 85 84  2  0
 88 87  1  0
 90 88  1  0
 90 91  1  0
 90 89  1  0
M  ISO  4   1 100  14 100  50 101  51 101
M  END
>  <TORSDO>  (83) 
F 20

>  <SCORE>  (83) 
-13.950

>  <name>  (83) 
82

>  <ligand_id>  (83) 
82

>  <original_smiles>  (83) 
[H]c1c([H])c([H])c2c(c1[H])C([H])([H])C([H])([H])C([H])([H])C2([H])N([H])C(=O)C1([H])N(C(=O)C([H])(N([H])C(=O)C([H])(N([H])C([H])([H])[H])C([H])([H])[H])C(C([H])([H])[H])(C([H])([H])[H])C([H])([H])[H])C([H])([H])c2c([H])c(OC([H])([H])C([H])([H])C([H])([H])C([H])([H])N=C3C([H])([H])N(C(=O)N4C([H])([H])C([H])([H])C([H])([H])C([H])(n5nc(-c6c([H])c([H])c(Oc7c([H])c([H])c(F)c([H])c7F)c([H])c6[H])c(C(=O)N([H])[H])c5N([H])[H])C4([H])[H])C([H])([H])C3([H])[N+]([H])([H])[H])c([H])c([H])c2C1([H])[H]

>  <smiles>  (83) 
[H]c1c([H])c([H])c2c(c1[H])C([H])([H])C([H])([H])C([H])([H])C2([H])N([H])C(=O)C1([H])N(C(=O)C([H])(N([H])C(=O)C([H])(N([H])C([H])([H])[H])C([H])([H])[H])C(C([H])([H])[H])(C([H])([H])[H])C([H])([H])[H])C([H])([H])c2c([H])c(OC([H])([H])C([H])([H])C([H])([H])C([H])([H])N=C3C([H])([H])N(C(=O)N4C([H])([H])C([H])([H])C([H])([H])C([H])(n5nc(-c6c([H])c([H])c(Oc7c([H])c([H])c(F)c([H])c7F)c([H])c6[H])c(C(=O)N([H])[H])c5N([H])[H])C4([H])[H])C([H])([H])C3([H])[N+]([H])([H])[H])c([H])c([H])c2C1([H])[H]

$$$$
83:0:0
     RDKit          3D

 93101  0  0  1  0  0  0  0  0999 V2000
  -27.4580  -22.3200   20.9750 C   0  0  0  0  0  0  0  0  0  0  0  0
  -28.0620  -23.3220   20.3260 N   0  0  0  0  0  0  0  0  0  0  0  0
  -26.8630  -22.4830   22.0430 O   0  0  0  0  0  0  0  0  0  0  0  0
  -28.5440  -23.1060   19.4620 H   0  0  0  0  0  0  0  0  0  0  0  0
  -27.5120  -20.9370   20.3180 C   0  0  0  0  0  2  0  0  0  0  0  0
  -31.1010  -19.8320   21.2970 C   0  0  0  0  0  3  0  0  0  0  0  0
  -29.9910  -20.6620   21.0500 C   0  0  0  0  0  3  0  0  0  0  0  0
  -31.0070  -18.4410   21.1050 C   0  0  0  0  0  3  0  0  0  0  0  0
  -28.6830  -18.7070   20.4280 C   0  0  0  0  0  3  0  0  0  0  0  0
  -28.7650  -20.1040   20.6150 C   0  0  0  0  0  0  0  0  0  0  0  0
  -29.7940  -17.8690   20.6620 C   0  0  0  0  0  0  0  0  0  0  0  0
  -29.6270  -16.3700   20.4460 C   0  0  0  0  0  2  0  0  0  0  0  0
  -31.2440  -14.5830   19.9890 C   0  0  0  0  0  0  0  0  0  0  0  0
  -30.8410  -12.3700   18.9750 C   0  0  0  0  0  2  0  0  0  0  0  0
  -29.8690  -12.4780   17.7860 C   0  0  0  0  0  2  0  0  0  0  0  0
  -28.4070  -12.3950   18.2680 C   0  0  0  0  0  2  0  0  0  0  0  0
  -28.1170  -13.3610   19.4450 C   0  0  0  0  0  3  0  0  0  0  0  0
  -29.1920  -13.2080   20.5450 C   0  0  0  0  0  2  0  0  0  0  0  0
  -30.5110  -13.4380   19.9310 N   0  0  0  0  0  0  0  0  0  0  0  0
  -32.3150  -14.7320   19.3970 O   0  0  0  0  0  0  0  0  0  0  0  0
  -30.7960  -15.5580   20.7890 N   0  0  0  0  0  0  0  0  0  0  0  0
  -31.5540  -16.1480   21.0940 H   0  0  0  0  0  0  0  0  0  0  0  0
  -25.7950  -14.1160   20.2630 C   0  0  0  0  0  0  0  0  0  0  0  0
  -24.6960  -13.4090   20.6680 C   0  0  0  0  0  0  0  0  0  0  0  0
  -25.0670  -12.0320   20.5990 C   0  0  0  0  0  0  0  0  0  0  0  0
  -26.7690  -13.1730   19.9750 N   0  0  0  0  0  0  0  0  0  0  0  0
  -26.3370  -11.9140   20.2330 N   0  0  0  0  0  0  0  0  0  0  0  0
  -24.2720  -10.8150   20.8030 C   0  0  0  0  0  0  0  0  0  0  0  0
  -24.6480   -9.8370   21.7490 C   0  0  0  0  0  3  0  0  0  0  0  0
  -23.8580   -8.6830   21.9380 C   0  0  0  0  0  3  0  0  0  0  0  0
  -22.6770   -8.5000   21.1800 C   0  0  0  0  0  0  0  0  0  0  0  0
  -22.3200   -9.4660   20.2220 C   0  0  0  0  0  3  0  0  0  0  0  0
  -23.1100  -10.6120   20.0310 C   0  0  0  0  0  3  0  0  0  0  0  0
  -21.8610   -7.4000   21.2780 O   0  0  0  0  0  0  0  0  0  0  0  0
  -21.7220   -6.7100   22.4560 C   0  0  0  0  0  0  0  0  0  0  0  0
  -21.2730   -7.3370   23.6390 C   0  0  0  0  0  3  0  0  0  0  0  0
  -21.0780   -6.5760   24.8090 C   0  0  0  0  0  3  0  0  0  0  0  0
  -21.3200   -5.1890   24.7960 C   0  0  0  0  0  0  0  0  0  0  0  0
  -21.7600   -4.5610   23.6180 C   0  0  0  0  0  3  0  0  0  0  0  0
  -21.9590   -5.3210   22.4500 C   0  0  0  0  0  0  0  0  0  0  0  0
  -22.3640   -4.7070   21.3120 F   0  0  0  0  0  0  0  0  0  0  0  0
  -21.1250   -4.4560   25.9170 F   0  0  0  0  0  0  0  0  0  0  0  0
  -23.3440  -13.9700   21.0070 C   0  0  0  0  0  0  0  0  0  0  0  0
  -22.6150  -13.3130   21.9020 N   0  0  0  0  0  0  0  0  0  0  0  0
  -22.9450  -15.0230   20.5120 O   0  0  0  0  0  0  0  0  0  0  0  0
  -22.9460  -12.4590   22.3250 H   0  0  0  0  0  0  0  0  0  0  0  0
  -21.7080  -13.6700   22.1710 H   0  0  0  0  0  0  0  0  0  0  0  0
  -26.0400  -15.4770   20.0910 N   0  0  0  0  0  0  0  0  0  0  0  0
  -25.3180  -16.1730   20.2380 H   0  0  0  0  0  0  0  0  0  0  0  0
  -26.8800  -15.8560   19.6770 H   0  0  0  0  0  0  0  0  0  0  0  0
  -28.0240  -24.7170   20.7450 C   0  0  0  0  0  2  0  0  0  0  0  0
  -28.5670  -25.6400   19.6370 C   0  0  0  0  0  2  0  0  0  0  0  0
  -28.5010  -27.0080   20.0330 O   0  0  0  0  0  0  0  0  0  0  0  0
  -24.5880  -31.9890   23.2300 C   0  0  0  0  0  0  0  0  0  0  0  0
  -27.2810  -27.6510   20.0530 C   0  0  0  0  0  0  0  0  0  0  0  0
  -23.3870  -30.5870   21.5860 C   0  0  0  0  0  3  0  0  0  0  0  0
  -24.8500  -29.0950   20.1280 C   0  0  0  0  0  0  0  0  0  0  0  0
  -25.9010  -30.9970   21.3610 C   0  0  0  0  0  2  0  0  0  0  0  0
  -26.0030  -29.6360   20.7050 C   0  0  0  0  0  0  0  0  0  0  0  0
  -27.2180  -28.9190   20.6670 C   0  0  0  0  0  3  0  0  0  0  0  0
  -26.1030  -27.1140   19.4790 C   0  0  0  0  0  3  0  0  0  0  0  0
  -24.8910  -27.8290   19.5170 C   0  0  0  0  0  3  0  0  0  0  0  0
  -23.5930  -29.9320   20.1940 C   0  0  0  0  0  2  0  0  0  0  0  0
  -24.6450  -31.2030   22.1190 N   0  0  0  0  0  0  0  0  0  0  0  0
  -23.5100  -32.2320   23.7880 O   0  0  0  0  0  0  0  0  0  0  0  0
  -22.7710  -29.5370   22.5370 C   0  0  0  0  0  0  0  0  0  0  0  0
  -21.4510  -29.3210   22.4120 N   0  0  0  0  0  0  0  0  0  0  0  0
  -23.4740  -28.9240   23.3450 O   0  0  0  0  0  0  0  0  0  0  0  0
  -20.9440  -29.8700   21.7320 H   0  0  0  0  0  0  0  0  0  0  0  0
  -18.1190  -28.0110   22.8900 C   0  0  0  0  0  0  0  0  0  0  0  0
  -20.6640  -28.3560   23.1790 C   0  0  0  0  0  3  0  0  0  0  0  0
  -20.8180  -26.9280   22.6080 C   0  0  0  0  0  2  0  0  0  0  0  0
  -19.7370  -26.5680   21.5840 C   0  0  0  0  0  2  0  0  0  0  0  0
  -18.3460  -26.6670   22.2200 C   0  0  0  0  0  2  0  0  0  0  0  0
  -19.2080  -28.8110   23.3260 C   0  0  0  0  0  0  0  0  0  0  0  0
  -18.9420  -30.0690   23.9100 C   0  0  0  0  0  3  0  0  0  0  0  0
  -17.6200  -30.5260   24.0640 C   0  0  0  0  0  3  0  0  0  0  0  0
  -16.5450  -29.7230   23.6440 C   0  0  0  0  0  3  0  0  0  0  0  0
  -16.7960  -28.4680   23.0620 C   0  0  0  0  0  3  0  0  0  0  0  0
  -25.8700  -32.6360   23.8400 C   0  0  0  0  0  3  0  0  0  0  0  0
  -25.5490  -34.0310   24.1660 N   0  0  0  0  0  0  0  0  0  0  0  0
  -25.8650  -35.0830   23.3990 C   0  0  0  0  0  0  0  0  0  0  0  0
  -26.5340  -34.9830   22.3670 O   0  0  0  0  0  0  0  0  0  0  0  0
  -24.9600  -34.1810   24.9720 H   0  0  0  0  0  0  0  0  0  0  0  0
  -24.1200  -36.8550   23.0300 C   0  0  0  0  0  1  0  0  0  0  0  0
  -25.3610  -36.4670   23.8500 C   0  0  0  0  0  3  0  0  0  0  0  0
  -27.4840  -37.3750   24.6850 C   0  0  0  0  0  1  0  0  0  0  0  0
  -26.3830  -37.5310   23.7380 N   0  0  0  0  0  0  0  0  0  0  0  0
  -25.9680  -38.4480   23.8830 H   0  0  0  0  0  0  0  0  0  0  0  0
  -26.4070  -31.8730   25.1130 C   0  0  1  0  0  0  0  0  0  0  0  0
  -25.3230  -31.6110   26.1850 C   0  0  0  0  0  1  0  0  0  0  0  0
  -27.0140  -30.5080   24.7120 C   0  0  0  0  0  1  0  0  0  0  0  0
  -27.5470  -32.6870   25.7700 C   0  0  0  0  0  1  0  0  0  0  0  0
  1  3  2  0
  2 51  1  0
  2  1  1  0
  4  2  1  0
  5 10  1  0
  5  1  1  0
  7  6  2  0
  8  6  1  0
  9 10  2  0
  9 11  1  0
 10  7  1  0
 11  8  2  0
 12 11  1  0
 12 21  1  0
 13 21  1  0
 14 19  1  0
 15 16  1  0
 15 14  1  0
 17 16  1  0
 17 26  1  0
 17 18  1  0
 19 13  1  0
 19 18  1  0
 20 13  2  0
 21 22  1  0
 23 24  2  0
 24 43  1  0
 25 24  1  0
 25 28  1  0
 26 27  1  0
 26 23  1  0
 27 25  2  0
 28 29  1  0
 29 30  2  0
 31 34  1  0
 31 30  1  0
 32 31  2  0
 33 32  1  0
 33 28  2  0
 34 35  1  0
 35 36  1  0
 36 37  2  0
 38 37  1  0
 38 42  1  0
 39 38  2  0
 40 35  2  0
 40 39  1  0
 41 40  1  0
 43 44  1  0
 44 47  1  0
 44 46  1  0
 45 43  2  0
 48 49  1  0
 48 23  1  0
 50 48  1  0
 52 53  1  0
 52 51  1  0
 53 55  1  0
 54 65  2  0
 55 60  1  0
 56 64  1  0
 56 66  1  0
 57 63  1  0
 57 59  1  0
 58 64  1  0
 59 58  1  0
 60 59  2  0
 61 62  1  0
 61 55  2  0
 62 57  2  0
 63 56  1  0
 64 54  1  0
 66 68  2  0
 67 66  1  0
 69 67  1  0
 70 79  2  0
 70 75  1  0
 71 67  1  0
 71 75  1  0
 72 71  1  0
 73 74  1  0
 73 72  1  0
 74 70  1  0
 75 76  2  0
 76 77  1  0
 78 77  2  0
 79 78  1  0
 80 54  1  0
 80 81  1  0
 80 90  1  0
 81 84  1  0
 82 86  1  0
 82 81  1  0
 83 82  2  0
 86 85  1  0
 88 86  1  0
 88 89  1  0
 88 87  1  0
 90 93  1  1
 90 91  1  0
 92 90  1  0
M  ISO  4  13 100  21 100  52 101  53 101
M  END
>  <TORSDO>  (84) 
F 21

>  <SCORE>  (84) 
-12.860

>  <name>  (84) 
83

>  <ligand_id>  (84) 
83

>  <original_smiles>  (84) 
[H]c1c([H])c(C([H])([H])C(=O)N([H])C([H])([H])C([H])([H])Oc2c([H])c([H])c3c(c2[H])C([H])([H])N(C(=O)C([H])(N([H])C(=O)C([H])(N([H])C([H])([H])[H])C([H])([H])[H])C(C([H])([H])[H])(C([H])([H])[H])C([H])([H])[H])C([H])(C(=O)N([H])C2([H])c4c([H])c([H])c([H])c([H])c4C([H])([H])C([H])([H])C2([H])[H])C3([H])[H])c([H])c(C([H])([H])N([H])C(=O)N2C([H])([H])C([H])([H])C([H])([H])C([H])(n3nc(-c4c([H])c([H])c(Oc5c([H])c([H])c(F)c([H])c5F)c([H])c4[H])c(C(=O)N([H])[H])c3N([H])[H])C2([H])[H])c1[H]

>  <smiles>  (84) 
[H]c1c([H])c(C([H])([H])C(=O)N([H])C([H])([H])C([H])([H])Oc2c([H])c([H])c3c(c2[H])C([H])([H])N(C(=O)C([H])(N([H])C(=O)C([H])(N([H])C([H])([H])[H])C([H])([H])[H])C(C([H])([H])[H])(C([H])([H])[H])C([H])([H])[H])C([H])(C(=O)N([H])C2([H])c4c([H])c([H])c([H])c([H])c4C([H])([H])C([H])([H])C2([H])[H])C3([H])[H])c([H])c(C([H])([H])N([H])C(=O)N2C([H])([H])C([H])([H])C([H])([H])C([H])(n3nc(-c4c([H])c([H])c(Oc5c([H])c([H])c(F)c([H])c5F)c([H])c4[H])c(C(=O)N([H])[H])c3N([H])[H])C2([H])[H])c1[H]

$$$$
84:0:0
     RDKit          3D

 93101  0  0  1  0  0  0  0  0999 V2000
  -28.8330  -20.3740   20.3910 N   0  0  0  0  0  4  0  0  0  0  0  0
  -28.4700  -20.4510   21.3260 H   0  0  0  0  0  0  0  0  0  0  0  0
  -28.0390  -20.1110   19.8310 H   0  0  0  0  0  0  0  0  0  0  0  0
  -30.5310  -15.0150   20.2320 C   0  0  0  0  0  0  0  0  0  0  0  0
  -30.3490  -12.6660   19.2760 C   0  0  0  0  0  2  0  0  0  0  0  0
  -29.4040  -12.6510   18.0530 C   0  0  0  0  0  2  0  0  0  0  0  0
  -27.9490  -12.4320   18.5060 C   0  0  0  0  0  2  0  0  0  0  0  0
  -27.5680  -13.3300   19.7150 C   0  0  0  0  0  3  0  0  0  0  0  0
  -28.6460  -13.3420   20.8230 C   0  0  0  0  0  2  0  0  0  0  0  0
  -29.9050  -13.7630   20.1950 N   0  0  0  0  0  0  0  0  0  0  0  0
  -31.6830  -15.0520   19.7830 O   0  0  0  0  0  0  0  0  0  0  0  0
  -31.5850  -17.7980   21.7690 C   0  0  0  0  0  2  0  0  0  0  0  0
  -30.5980  -16.6410   22.0390 C   0  0  0  0  0  2  0  0  0  0  0  0
  -29.2120  -17.5110   20.2670 C   0  0  0  0  0  2  0  0  0  0  0  0
  -30.8860  -19.1640   21.5210 C   0  0  0  0  0  3  0  0  0  0  0  0
  -29.8160  -19.1000   20.3710 C   0  0  0  0  0  3  0  0  0  0  0  0
  -29.9540  -16.2060   20.7950 N   0  0  0  0  0  0  0  0  0  0  0  0
  -25.2010  -13.8820   20.5050 C   0  0  0  0  0  0  0  0  0  0  0  0
  -24.1490  -13.0970   20.8870 C   0  0  0  0  0  0  0  0  0  0  0  0
  -24.6220  -11.7500   20.8350 C   0  0  0  0  0  0  0  0  0  0  0  0
  -26.2440  -13.0140   20.2370 N   0  0  0  0  0  0  0  0  0  0  0  0
  -25.9090  -11.7260   20.5050 N   0  0  0  0  0  0  0  0  0  0  0  0
  -23.9070  -10.4790   21.0260 C   0  0  0  0  0  0  0  0  0  0  0  0
  -24.3510   -9.5110   21.9530 C   0  0  0  0  0  3  0  0  0  0  0  0
  -23.6310   -8.3110   22.1370 C   0  0  0  0  0  3  0  0  0  0  0  0
  -22.4530   -8.0680   21.3910 C   0  0  0  0  0  0  0  0  0  0  0  0
  -22.0290   -9.0230   20.4520 C   0  0  0  0  0  3  0  0  0  0  0  0
  -22.7490  -10.2160   20.2670 C   0  0  0  0  0  3  0  0  0  0  0  0
  -21.7060   -6.9190   21.4810 O   0  0  0  0  0  0  0  0  0  0  0  0
  -21.6620   -6.1790   22.6350 C   0  0  0  0  0  0  0  0  0  0  0  0
  -21.2190   -6.7290   23.8580 C   0  0  0  0  0  3  0  0  0  0  0  0
  -21.1250   -5.9120   25.0020 C   0  0  0  0  0  3  0  0  0  0  0  0
  -21.4630   -4.5490   24.9260 C   0  0  0  0  0  0  0  0  0  0  0  0
  -21.8970   -3.9980   23.7080 C   0  0  0  0  0  3  0  0  0  0  0  0
  -21.9910   -4.8110   22.5660 C   0  0  0  0  0  0  0  0  0  0  0  0
  -22.3900   -4.2700   21.3880 F   0  0  0  0  0  0  0  0  0  0  0  0
  -21.3630   -3.7640   26.0240 F   0  0  0  0  0  0  0  0  0  0  0  0
  -22.7550  -13.5620   21.1860 C   0  0  0  0  0  0  0  0  0  0  0  0
  -22.0450  -12.8520   22.0560 N   0  0  0  0  0  0  0  0  0  0  0  0
  -22.3040  -14.5910   20.6830 O   0  0  0  0  0  0  0  0  0  0  0  0
  -22.4260  -12.0190   22.4810 H   0  0  0  0  0  0  0  0  0  0  0  0
  -21.1100  -13.1410   22.2980 H   0  0  0  0  0  0  0  0  0  0  0  0
  -25.3540  -15.2570   20.3400 N   0  0  0  0  0  0  0  0  0  0  0  0
  -24.5900  -15.9110   20.4810 H   0  0  0  0  0  0  0  0  0  0  0  0
  -26.2030  -15.7050   20.0170 H   0  0  0  0  0  0  0  0  0  0  0  0
  -31.9560  -20.2590   21.3390 C   0  0  0  0  0  0  0  0  0  0  0  0
  -31.9860  -21.3790   22.3640 C   0  0  0  0  0  1  0  0  0  0  0  0
  -32.8170  -20.2330   20.4090 N   0  0  0  0  0  0  0  0  0  0  0  0
  -32.7390  -19.4160   19.8110 H   0  0  0  0  0  0  0  0  0  0  0  0
  -29.1590  -21.8650   19.9160 C   0  0  0  0  0  3  0  0  0  0  0  0
  -28.3180  -23.2590   20.4210 C   0  0  0  0  0  3  0  0  0  0  0  0
  -28.3990  -24.8010   19.7130 C   0  0  0  0  0  2  0  0  0  0  0  0
  -28.2490  -26.2360   20.3160 O   0  0  0  0  0  0  0  0  0  0  0  0
  -24.5910  -31.9150   23.2210 C   0  0  0  0  0  0  0  0  0  0  0  0
  -27.1620  -27.1770   20.2020 C   0  0  0  0  0  0  0  0  0  0  0  0
  -23.3860  -30.5100   21.5920 C   0  0  0  0  0  3  0  0  0  0  0  0
  -24.8250  -28.9170   20.1700 C   0  0  0  0  0  0  0  0  0  0  0  0
  -25.9340  -30.7730   21.4090 C   0  0  0  0  0  2  0  0  0  0  0  0
  -26.0020  -29.3720   20.7720 C   0  0  0  0  0  0  0  0  0  0  0  0
  -27.1650  -28.5120   20.7790 C   0  0  0  0  0  3  0  0  0  0  0  0
  -25.9560  -26.8170   19.5620 C   0  0  0  0  0  3  0  0  0  0  0  0
  -24.8130  -27.6540   19.5530 C   0  0  0  0  0  3  0  0  0  0  0  0
  -23.5960  -29.8130   20.2200 C   0  0  0  0  0  2  0  0  0  0  0  0
  -24.6580  -31.0870   22.1320 N   0  0  0  0  0  0  0  0  0  0  0  0
  -23.5060  -32.2100   23.7450 O   0  0  0  0  0  0  0  0  0  0  0  0
  -22.7010  -29.5190   22.5640 C   0  0  0  0  0  0  0  0  0  0  0  0
  -21.3740  -29.3550   22.4390 N   0  0  0  0  0  0  0  0  0  0  0  0
  -23.3680  -28.8930   23.3940 O   0  0  0  0  0  0  0  0  0  0  0  0
  -20.8940  -29.8990   21.7360 H   0  0  0  0  0  0  0  0  0  0  0  0
  -17.9860  -28.1840   22.9570 C   0  0  0  0  0  0  0  0  0  0  0  0
  -20.5490  -28.4280   23.2170 C   0  0  0  0  0  3  0  0  0  0  0  0
  -20.6380  -26.9930   22.6480 C   0  0  0  0  0  2  0  0  0  0  0  0
  -19.5330  -26.6750   21.6380 C   0  0  0  0  0  2  0  0  0  0  0  0
  -18.1520  -26.8330   22.2810 C   0  0  0  0  0  2  0  0  0  0  0  0
  -19.1130  -28.9400   23.3820 C   0  0  0  0  0  0  0  0  0  0  0  0
  -18.9030  -30.2020   23.9760 C   0  0  0  0  0  3  0  0  0  0  0  0
  -17.6020  -30.7140   24.1460 C   0  0  0  0  0  3  0  0  0  0  0  0
  -16.4910  -29.9520   23.7380 C   0  0  0  0  0  3  0  0  0  0  0  0
  -16.6850  -28.6910   23.1510 C   0  0  0  0  0  3  0  0  0  0  0  0
  -25.8700  -32.5530   23.8430 C   0  0  0  0  0  3  0  0  0  0  0  0
  -26.3800  -31.7900   25.1270 C   0  0  1  0  0  0  0  0  0  0  0  0
  -25.2840  -31.5560   26.1920 C   0  0  0  0  0  1  0  0  0  0  0  0
  -26.9600  -30.4100   24.7430 C   0  0  0  0  0  1  0  0  0  0  0  0
  -27.5370  -32.5820   25.7820 C   0  0  0  0  0  1  0  0  0  0  0  0
  -25.5650  -33.9570   24.1710 N   0  0  0  0  0  0  0  0  0  0  0  0
  -25.8980  -35.0090   23.4120 C   0  0  0  0  0  0  0  0  0  0  0  0
  -26.5650  -34.8990   22.3800 O   0  0  0  0  0  0  0  0  0  0  0  0
  -24.9670  -34.1140   24.9690 H   0  0  0  0  0  0  0  0  0  0  0  0
  -24.1790  -36.8140   23.0590 C   0  0  0  0  0  1  0  0  0  0  0  0
  -25.4190  -36.4030   23.8680 C   0  0  0  0  0  3  0  0  0  0  0  0
  -27.5580  -37.2770   24.6960 C   0  0  0  0  0  1  0  0  0  0  0  0
  -26.4590  -37.4490   23.7510 N   0  0  0  0  0  0  0  0  0  0  0  0
  -26.0610  -38.3730   23.8940 H   0  0  0  0  0  0  0  0  0  0  0  0
  1  2  1  0
  3  1  1  0
  4 17  1  0
  5 10  1  0
  6  7  1  0
  6  5  1  0
  8  7  1  0
  8 21  1  0
  8  9  1  0
 10  4  1  0
 10  9  1  0
 11  4  2  0
 12 13  1  0
 14 16  1  0
 14 17  1  0
 15 46  1  0
 15 12  1  0
 16  1  1  0
 16 15  1  0
 17 13  1  0
 18 19  2  0
 19 38  1  0
 20 19  1  0
 20 23  1  0
 21 22  1  0
 21 18  1  0
 22 20  2  0
 23 24  1  0
 24 25  2  0
 26 29  1  0
 26 25  1  0
 27 26  2  0
 28 27  1  0
 28 23  2  0
 29 30  1  0
 30 31  1  0
 31 32  2  0
 33 32  1  0
 33 37  1  0
 34 33  2  0
 35 30  2  0
 35 34  1  0
 36 35  1  0
 38 39  1  0
 39 42  1  0
 39 41  1  0
 40 38  2  0
 43 44  1  0
 43 18  1  0
 45 43  1  0
 46 47  1  0
 48 46  2  0
 49 48  1  0
 50  1  1  0
 50 51  2  0
 52 53  1  0
 52 51  1  0
 54 65  2  0
 55 53  1  0
 55 60  1  0
 56 64  1  0
 56 66  1  0
 57 63  1  0
 57 59  1  0
 58 64  1  0
 59 60  2  0
 59 58  1  0
 61 55  2  0
 62 61  1  0
 62 57  2  0
 63 56  1  0
 64 54  1  0
 66 68  2  0
 67 66  1  0
 69 67  1  0
 70 79  2  0
 70 75  1  0
 71 67  1  0
 71 75  1  0
 72 71  1  0
 73 74  1  0
 73 72  1  0
 74 70  1  0
 75 76  2  0
 76 77  1  0
 78 77  2  0
 79 78  1  0
 80 54  1  0
 80 85  1  0
 80 81  1  0
 81 84  1  1
 81 82  1  0
 83 81  1  0
 85 88  1  0
 86 90  1  0
 86 85  1  0
 87 86  2  0
 90 89  1  0
 92 90  1  0
 92 93  1  0
 92 91  1  0
M  ISO  4   4 100  17 100  52 101  53 101
M  END
>  <TORSDO>  (85) 
F 20

>  <SCORE>  (85) 
-15.271

>  <name>  (85) 
84

>  <ligand_id>  (85) 
84

>  <original_smiles>  (85) 
[H]N=C(C([H])([H])[H])C1([H])C([H])([H])C([H])([H])N(C(=O)N2C([H])([H])C([H])([H])C([H])([H])C([H])(n3nc(-c4c([H])c([H])c(Oc5c([H])c([H])c(F)c([H])c5F)c([H])c4[H])c(C(=O)N([H])[H])c3N([H])[H])C2([H])[H])C([H])([H])C1([H])[N+]([H])([H])C([H])([H])C([H])([H])C([H])([H])Oc1c([H])c([H])c2c(c1[H])C([H])([H])N(C(=O)C([H])(N([H])C(=O)C([H])(N([H])C([H])([H])[H])C([H])([H])[H])C(C([H])([H])[H])(C([H])([H])[H])C([H])([H])[H])C([H])(C(=O)N([H])C1([H])c3c([H])c([H])c([H])c([H])c3C([H])([H])C([H])([H])C1([H])[H])C2([H])[H]

>  <smiles>  (85) 
[H]N=C(C([H])([H])[H])C1([H])C([H])([H])C([H])([H])N(C(=O)N2C([H])([H])C([H])([H])C([H])([H])C([H])(n3nc(-c4c([H])c([H])c(Oc5c([H])c([H])c(F)c([H])c5F)c([H])c4[H])c(C(=O)N([H])[H])c3N([H])[H])C2([H])[H])C([H])([H])C1([H])[N+]([H])([H])C([H])([H])C([H])([H])C([H])([H])Oc1c([H])c([H])c2c(c1[H])C([H])([H])N(C(=O)C([H])(N([H])C(=O)C([H])(N([H])C([H])([H])[H])C([H])([H])[H])C(C([H])([H])[H])(C([H])([H])[H])C([H])([H])[H])C([H])(C(=O)N([H])C1([H])c3c([H])c([H])c([H])c([H])c3C([H])([H])C([H])([H])C1([H])[H])C2([H])[H]

$$$$
85:0:0
     RDKit          3D

 90 98  0  0  1  0  0  0  0  0999 V2000
  -29.0520  -20.3250   20.8650 C   0  0  0  0  0  0  0  0  0  0  0  0
  -28.9040  -20.4230   22.0880 O   0  0  0  0  0  0  0  0  0  0  0  0
  -29.2480  -18.9410   20.1960 C   0  0  0  0  0  2  0  0  0  0  0  0
  -30.7930  -14.5690   19.9110 C   0  0  0  0  0  0  0  0  0  0  0  0
  -30.3400  -12.4450   18.7250 C   0  0  0  0  0  2  0  0  0  0  0  0
  -29.3100  -12.6740   17.6020 C   0  0  0  0  0  2  0  0  0  0  0  0
  -27.8790  -12.5130   18.1470 C   0  0  0  0  0  2  0  0  0  0  0  0
  -27.6470  -13.3150   19.4540 C   0  0  0  0  0  3  0  0  0  0  0  0
  -28.7940  -13.0910   20.4670 C   0  0  0  0  0  2  0  0  0  0  0  0
  -30.0580  -13.4210   19.7950 N   0  0  0  0  0  0  0  0  0  0  0  0
  -31.8750  -14.6760   19.3290 O   0  0  0  0  0  0  0  0  0  0  0  0
  -30.2470  -17.5020   22.1510 C   0  0  0  0  0  2  0  0  0  0  0  0
  -29.0750  -16.3250   20.4240 C   0  0  0  0  0  2  0  0  0  0  0  0
  -29.1150  -17.6970   21.1410 C   0  0  0  0  0  3  0  0  0  0  0  0
  -31.1850  -16.4580   21.5340 C   0  0  0  0  0  3  0  0  0  0  0  0
  -32.3290  -17.1690   20.7720 C   0  0  0  0  0  1  0  0  0  0  0  0
  -30.3260  -15.5870   20.7000 N   0  0  0  0  0  0  0  0  0  0  0  0
  -25.3160  -13.9030   20.3660 C   0  0  0  0  0  0  0  0  0  0  0  0
  -24.2850  -13.1210   20.8110 C   0  0  0  0  0  0  0  0  0  0  0  0
  -24.7470  -11.7730   20.7250 C   0  0  0  0  0  0  0  0  0  0  0  0
  -26.3410  -13.0280   20.0400 N   0  0  0  0  0  0  0  0  0  0  0  0
  -26.0090  -11.7420   20.3150 N   0  0  0  0  0  0  0  0  0  0  0  0
  -24.0420  -10.5040   20.9530 C   0  0  0  0  0  0  0  0  0  0  0  0
  -24.5040   -9.5670   21.9030 C   0  0  0  0  0  3  0  0  0  0  0  0
  -23.8000   -8.3620   22.1200 C   0  0  0  0  0  3  0  0  0  0  0  0
  -22.6200   -8.0880   21.3880 C   0  0  0  0  0  0  0  0  0  0  0  0
  -22.1780   -9.0150   20.4270 C   0  0  0  0  0  3  0  0  0  0  0  0
  -22.8830  -10.2110   20.2080 C   0  0  0  0  0  3  0  0  0  0  0  0
  -21.8860   -6.9330   21.5130 O   0  0  0  0  0  0  0  0  0  0  0  0
  -21.8000   -6.2600   22.7050 C   0  0  0  0  0  0  0  0  0  0  0  0
  -21.3100   -6.8790   23.8770 C   0  0  0  0  0  3  0  0  0  0  0  0
  -21.1720   -6.1320   25.0620 C   0  0  0  0  0  3  0  0  0  0  0  0
  -21.5150   -4.7660   25.0780 C   0  0  0  0  0  0  0  0  0  0  0  0
  -21.9980   -4.1470   23.9120 C   0  0  0  0  0  3  0  0  0  0  0  0
  -22.1380   -4.8920   22.7280 C   0  0  0  0  0  0  0  0  0  0  0  0
  -22.5820   -4.2870   21.6010 F   0  0  0  0  0  0  0  0  0  0  0  0
  -21.3760   -4.0450   26.2150 F   0  0  0  0  0  0  0  0  0  0  0  0
  -22.9140  -13.5910   21.2000 C   0  0  0  0  0  0  0  0  0  0  0  0
  -22.2660  -12.8890   22.1240 N   0  0  0  0  0  0  0  0  0  0  0  0
  -22.4260  -14.6140   20.7200 O   0  0  0  0  0  0  0  0  0  0  0  0
  -22.6750  -12.0630   22.5360 H   0  0  0  0  0  0  0  0  0  0  0  0
  -21.3490  -13.1860   22.4270 H   0  0  0  0  0  0  0  0  0  0  0  0
  -25.4580  -15.2760   20.1900 N   0  0  0  0  0  0  0  0  0  0  0  0
  -24.6970  -15.9220   20.3700 H   0  0  0  0  0  0  0  0  0  0  0  0
  -26.2710  -15.7250   19.7860 H   0  0  0  0  0  0  0  0  0  0  0  0
  -29.0330  -21.5900   19.9740 C   0  0  0  0  0  2  0  0  0  0  0  0
  -28.6760  -22.9020   20.7360 C   0  0  0  0  0  2  0  0  0  0  0  0
  -28.7630  -24.2300   19.9250 C   0  0  0  0  0  2  0  0  0  0  0  0
  -28.3530  -25.4600   20.7780 C   0  0  0  0  0  2  0  0  0  0  0  0
  -28.4680  -26.7350   20.1130 O   0  0  0  0  0  0  0  0  0  0  0  0
  -24.6610  -31.9120   23.2170 C   0  0  0  0  0  0  0  0  0  0  0  0
  -27.3140  -27.4870   20.1160 C   0  0  0  0  0  0  0  0  0  0  0  0
  -23.4530  -30.4920   21.5920 C   0  0  0  0  0  3  0  0  0  0  0  0
  -24.9070  -28.9710   20.1500 C   0  0  0  0  0  0  0  0  0  0  0  0
  -25.9710  -30.8830   21.3590 C   0  0  0  0  0  2  0  0  0  0  0  0
  -26.0670  -29.5100   20.7220 C   0  0  0  0  0  0  0  0  0  0  0  0
  -27.2770  -28.7780   20.6970 C   0  0  0  0  0  3  0  0  0  0  0  0
  -26.1400  -26.9650   19.5360 C   0  0  0  0  0  3  0  0  0  0  0  0
  -24.9380  -27.6990   19.5530 C   0  0  0  0  0  3  0  0  0  0  0  0
  -23.6530  -29.8150   20.2100 C   0  0  0  0  0  2  0  0  0  0  0  0
  -24.7140  -31.1100   22.1150 N   0  0  0  0  0  0  0  0  0  0  0  0
  -23.5820  -32.1700   23.7690 O   0  0  0  0  0  0  0  0  0  0  0  0
  -22.8250  -29.4650   22.5600 C   0  0  0  0  0  0  0  0  0  0  0  0
  -21.5030  -29.2590   22.4400 N   0  0  0  0  0  0  0  0  0  0  0  0
  -23.5230  -28.8550   23.3750 O   0  0  0  0  0  0  0  0  0  0  0  0
  -20.9990  -29.8020   21.7550 H   0  0  0  0  0  0  0  0  0  0  0  0
  -18.1530  -28.0010   22.9510 C   0  0  0  0  0  0  0  0  0  0  0  0
  -20.7070  -28.3120   23.2200 C   0  0  0  0  0  3  0  0  0  0  0  0
  -20.8370  -26.8780   22.6540 C   0  0  0  0  0  2  0  0  0  0  0  0
  -19.7400  -26.5250   21.6430 C   0  0  0  0  0  2  0  0  0  0  0  0
  -18.3570  -26.6500   22.2880 C   0  0  0  0  0  2  0  0  0  0  0  0
  -19.2560  -28.7880   23.3750 C   0  0  0  0  0  0  0  0  0  0  0  0
  -19.0130  -30.0540   23.9530 C   0  0  0  0  0  3  0  0  0  0  0  0
  -17.6990  -30.5300   24.1150 C   0  0  0  0  0  3  0  0  0  0  0  0
  -16.6100  -29.7400   23.7080 C   0  0  0  0  0  3  0  0  0  0  0  0
  -16.8380  -28.4770   23.1320 C   0  0  0  0  0  3  0  0  0  0  0  0
  -25.9460  -32.5580   23.8220 C   0  0  0  0  0  3  0  0  0  0  0  0
  -25.6210  -33.9470   24.1720 N   0  0  0  0  0  0  0  0  0  0  0  0
  -25.9230  -35.0110   23.4160 C   0  0  0  0  0  0  0  0  0  0  0  0
  -26.5760  -34.9290   22.3720 O   0  0  0  0  0  0  0  0  0  0  0  0
  -25.0430  -34.0850   24.9880 H   0  0  0  0  0  0  0  0  0  0  0  0
  -24.1590  -36.7750   23.1050 C   0  0  0  0  0  1  0  0  0  0  0  0
  -25.4180  -36.3870   23.8950 C   0  0  0  0  0  3  0  0  0  0  0  0
  -27.5500  -37.2980   24.7030 C   0  0  0  0  0  1  0  0  0  0  0  0
  -26.4310  -37.4590   23.7770 N   0  0  0  0  0  0  0  0  0  0  0  0
  -26.0120  -38.3700   23.9400 H   0  0  0  0  0  0  0  0  0  0  0  0
  -26.5020  -31.7810   25.0770 C   0  0  1  0  0  0  0  0  0  0  0  0
  -25.4300  -31.4980   26.1570 C   0  0  0  0  0  1  0  0  0  0  0  0
  -27.1130  -30.4260   24.6530 C   0  0  0  0  0  1  0  0  0  0  0  0
  -27.6420  -32.5930   25.7360 C   0  0  0  0  0  1  0  0  0  0  0  0
  1  2  2  0
  3  1  1  0
  4 17  1  0
  5 10  1  0
  6  7  1  0
  6  5  1  0
  8  7  1  0
  8 21  1  0
  8  9  1  0
 10  4  1  0
 10  9  1  0
 11  4  2  0
 13 17  1  0
 13 14  1  0
 14  3  1  0
 14 12  1  0
 15 16  1  0
 15 12  1  0
 17 15  1  0
 18 19  2  0
 19 38  1  0
 20 19  1  0
 20 23  1  0
 21 22  1  0
 21 18  1  0
 22 20  2  0
 23 24  1  0
 24 25  2  0
 26 29  1  0
 26 25  1  0
 27 26  2  0
 28 27  1  0
 28 23  2  0
 29 30  1  0
 30 35  2  0
 30 31  1  0
 31 32  2  0
 32 33  1  0
 33 37  1  0
 34 33  2  0
 35 34  1  0
 36 35  1  0
 38 39  1  0
 39 42  1  0
 39 41  1  0
 40 38  2  0
 43 18  1  0
 43 44  1  0
 45 43  1  0
 46 47  1  0
 46  1  1  0
 48 47  1  0
 48 49  1  0
 50 52  1  0
 50 49  1  0
 51 62  2  0
 52 57  1  0
 53 61  1  0
 53 63  1  0
 54 60  1  0
 54 56  1  0
 55 61  1  0
 56 55  1  0
 57 56  2  0
 58 59  1  0
 58 52  2  0
 59 54  2  0
 60 53  1  0
 61 51  1  0
 63 65  2  0
 64 63  1  0
 66 64  1  0
 67 76  2  0
 67 72  1  0
 68 64  1  0
 68 72  1  0
 69 68  1  0
 70 71  1  0
 70 69  1  0
 71 67  1  0
 72 73  2  0
 73 74  1  0
 75 74  2  0
 76 75  1  0
 77 51  1  0
 77 78  1  0
 77 87  1  0
 78 81  1  0
 79 83  1  0
 79 78  1  0
 80 79  2  0
 83 82  1  0
 85 83  1  0
 85 86  1  0
 85 84  1  0
 87 90  1  1
 87 88  1  0
 89 87  1  0
M  ISO  4   4 100  17 100  49 101  50 101
M  END
>  <TORSDO>  (86) 
F 21

>  <SCORE>  (86) 
-12.187

>  <name>  (86) 
85

>  <ligand_id>  (86) 
85

>  <original_smiles>  (86) 
[H]c1c([H])c([H])c2c(c1[H])C([H])([H])C([H])([H])C([H])([H])C2([H])N([H])C(=O)C1([H])N(C(=O)C([H])(N([H])C(=O)C([H])(N([H])C([H])([H])[H])C([H])([H])[H])C(C([H])([H])[H])(C([H])([H])[H])C([H])([H])[H])C([H])([H])c2c([H])c(OC([H])([H])C([H])([H])C([H])([H])C([H])([H])C(=O)C([H])([H])C3([H])C([H])([H])N(C(=O)N4C([H])([H])C([H])([H])C([H])([H])C([H])(n5nc(-c6c([H])c([H])c(Oc7c([H])c([H])c(F)c([H])c7F)c([H])c6[H])c(C(=O)N([H])[H])c5N([H])[H])C4([H])[H])C([H])(C([H])([H])[H])C3([H])[H])c([H])c([H])c2C1([H])[H]

>  <smiles>  (86) 
[H]c1c([H])c([H])c2c(c1[H])C([H])([H])C([H])([H])C([H])([H])C2([H])N([H])C(=O)C1([H])N(C(=O)C([H])(N([H])C(=O)C([H])(N([H])C([H])([H])[H])C([H])([H])[H])C(C([H])([H])[H])(C([H])([H])[H])C([H])([H])[H])C([H])([H])c2c([H])c(OC([H])([H])C([H])([H])C([H])([H])C([H])([H])C(=O)C([H])([H])C3([H])C([H])([H])N(C(=O)N4C([H])([H])C([H])([H])C([H])([H])C([H])(n5nc(-c6c([H])c([H])c(Oc7c([H])c([H])c(F)c([H])c7F)c([H])c6[H])c(C(=O)N([H])[H])c5N([H])[H])C4([H])[H])C([H])(C([H])([H])[H])C3([H])[H])c([H])c([H])c2C1([H])[H]

$$$$
86:0:0
     RDKit          3D

 89 97  0  0  1  0  0  0  0  0999 V2000
  -30.6620  -14.8140   20.3920 C   0  0  0  0  0  0  0  0  0  0  0  0
  -30.4030  -12.5190   19.4300 C   0  0  0  0  0  2  0  0  0  0  0  0
  -29.4770  -12.5370   18.1970 C   0  0  0  0  0  2  0  0  0  0  0  0
  -28.0110  -12.3490   18.6290 C   0  0  0  0  0  2  0  0  0  0  0  0
  -27.6110  -13.2760   19.8050 C   0  0  0  0  0  3  0  0  0  0  0  0
  -28.6710  -13.2930   20.9310 C   0  0  0  0  0  2  0  0  0  0  0  0
  -29.9660  -13.6220   20.3200 N   0  0  0  0  0  0  0  0  0  0  0  0
  -31.8820  -14.7970   20.2070 O   0  0  0  0  0  0  0  0  0  0  0  0
  -29.6180  -21.0080   20.8510 C   0  0  0  0  0  0  0  0  0  0  0  0
  -29.0360  -17.8330   18.8040 C   0  0  0  0  0  3  0  0  0  0  0  0
  -28.5350  -19.1230   19.5350 C   0  0  0  0  0  2  0  0  0  0  0  0
  -28.9400  -16.4390   19.5330 C   0  0  0  0  0  3  0  0  0  0  0  0
  -29.8220  -18.5140   21.5010 C   0  0  0  0  0  3  0  0  0  0  0  0
  -30.7150  -17.3070   20.9490 C   0  0  0  0  0  3  0  0  0  0  0  0
  -29.4410  -19.6450   20.5720 N   0  0  0  0  0  0  0  0  0  0  0  0
  -30.0060  -16.0540   20.4960 N   0  0  0  0  0  0  0  0  0  0  0  0
  -30.3910  -21.3480   21.7520 O   0  0  0  0  0  0  0  0  0  0  0  0
  -25.2330  -13.8960   20.5180 C   0  0  0  0  0  0  0  0  0  0  0  0
  -24.1590  -13.1320   20.8820 C   0  0  0  0  0  0  0  0  0  0  0  0
  -24.6170  -11.7780   20.8690 C   0  0  0  0  0  0  0  0  0  0  0  0
  -26.2720  -13.0040   20.3010 N   0  0  0  0  0  0  0  0  0  0  0  0
  -25.9100  -11.7280   20.5800 N   0  0  0  0  0  0  0  0  0  0  0  0
  -23.8840  -10.5230   21.0590 C   0  0  0  0  0  0  0  0  0  0  0  0
  -24.3130   -9.5520   21.9900 C   0  0  0  0  0  3  0  0  0  0  0  0
  -23.5800   -8.3590   22.1690 C   0  0  0  0  0  3  0  0  0  0  0  0
  -22.4050   -8.1300   21.4150 C   0  0  0  0  0  0  0  0  0  0  0  0
  -21.9960   -9.0890   20.4720 C   0  0  0  0  0  3  0  0  0  0  0  0
  -22.7290  -10.2730   20.2920 C   0  0  0  0  0  3  0  0  0  0  0  0
  -21.6430   -6.9910   21.5050 O   0  0  0  0  0  0  0  0  0  0  0  0
  -21.6030   -6.2410   22.6520 C   0  0  0  0  0  0  0  0  0  0  0  0
  -21.1840   -6.7870   23.8850 C   0  0  0  0  0  3  0  0  0  0  0  0
  -21.0920   -5.9630   25.0250 C   0  0  0  0  0  3  0  0  0  0  0  0
  -21.4080   -4.5940   24.9320 C   0  0  0  0  0  0  0  0  0  0  0  0
  -21.8200   -4.0480   23.7040 C   0  0  0  0  0  3  0  0  0  0  0  0
  -21.9140   -4.8690   22.5660 C   0  0  0  0  0  0  0  0  0  0  0  0
  -22.2910   -4.3340   21.3800 F   0  0  0  0  0  0  0  0  0  0  0  0
  -21.3110   -3.8000   26.0240 F   0  0  0  0  0  0  0  0  0  0  0  0
  -22.7610  -13.6190   21.1280 C   0  0  0  0  0  0  0  0  0  0  0  0
  -22.0180  -12.9360   21.9910 N   0  0  0  0  0  0  0  0  0  0  0  0
  -22.3360  -14.6410   20.5890 O   0  0  0  0  0  0  0  0  0  0  0  0
  -22.3750  -12.1100   22.4480 H   0  0  0  0  0  0  0  0  0  0  0  0
  -21.0800  -13.2460   22.2000 H   0  0  0  0  0  0  0  0  0  0  0  0
  -25.4020  -15.2630   20.3290 N   0  0  0  0  0  0  0  0  0  0  0  0
  -24.6360  -15.9210   20.4300 H   0  0  0  0  0  0  0  0  0  0  0  0
  -26.2580  -15.6970   20.0120 H   0  0  0  0  0  0  0  0  0  0  0  0
  -28.8430  -22.2050   20.1180 C   0  0  0  0  0  2  0  0  0  0  0  0
  -29.1020  -23.7570   20.5560 C   0  0  0  0  0  3  0  0  0  0  0  0
  -28.1130  -24.9300   20.0400 C   0  0  0  0  0  3  0  0  0  0  0  0
  -28.3350  -26.3950   20.3200 O   0  0  0  0  0  0  0  0  0  0  0  0
  -24.6230  -31.8870   23.2840 C   0  0  0  0  0  0  0  0  0  0  0  0
  -27.2400  -27.2920   20.2380 C   0  0  0  0  0  0  0  0  0  0  0  0
  -23.4270  -30.4890   21.6400 C   0  0  0  0  0  3  0  0  0  0  0  0
  -24.8840  -28.9420   20.2120 C   0  0  0  0  0  0  0  0  0  0  0  0
  -25.9710  -30.7970   21.4700 C   0  0  0  0  0  2  0  0  0  0  0  0
  -26.0530  -29.4170   20.8190 C   0  0  0  0  0  0  0  0  0  0  0  0
  -27.2330  -28.6050   20.8210 C   0  0  0  0  0  3  0  0  0  0  0  0
  -26.0490  -26.8930   19.5890 C   0  0  0  0  0  3  0  0  0  0  0  0
  -24.8870  -27.6880   19.5850 C   0  0  0  0  0  3  0  0  0  0  0  0
  -23.6470  -29.8180   20.2590 C   0  0  0  0  0  2  0  0  0  0  0  0
  -24.6930  -31.0760   22.1880 N   0  0  0  0  0  0  0  0  0  0  0  0
  -23.5370  -32.1650   23.8140 O   0  0  0  0  0  0  0  0  0  0  0  0
  -22.7610  -29.4710   22.5980 C   0  0  0  0  0  0  0  0  0  0  0  0
  -21.4360  -29.2880   22.4650 N   0  0  0  0  0  0  0  0  0  0  0  0
  -23.4370  -28.8490   23.4220 O   0  0  0  0  0  0  0  0  0  0  0  0
  -20.9490  -29.8430   21.7740 H   0  0  0  0  0  0  0  0  0  0  0  0
  -18.0590  -28.0820   22.9520 C   0  0  0  0  0  0  0  0  0  0  0  0
  -20.6160  -28.3500   23.2330 C   0  0  0  0  0  3  0  0  0  0  0  0
  -20.7250  -26.9180   22.6600 C   0  0  0  0  0  2  0  0  0  0  0  0
  -19.6280  -26.5900   21.6410 C   0  0  0  0  0  2  0  0  0  0  0  0
  -18.2420  -26.7320   22.2780 C   0  0  0  0  0  2  0  0  0  0  0  0
  -19.1740  -28.8480   23.3870 C   0  0  0  0  0  0  0  0  0  0  0  0
  -18.9480  -30.1100   23.9780 C   0  0  0  0  0  3  0  0  0  0  0  0
  -17.6410  -30.6060   24.1380 C   0  0  0  0  0  3  0  0  0  0  0  0
  -16.5410  -29.8370   23.7200 C   0  0  0  0  0  3  0  0  0  0  0  0
  -16.7510  -28.5760   23.1330 C   0  0  0  0  0  3  0  0  0  0  0  0
  -25.9010  -32.5230   23.9100 C   0  0  0  0  0  3  0  0  0  0  0  0
  -25.5920  -33.9250   24.2260 N   0  0  0  0  0  0  0  0  0  0  0  0
  -25.9220  -34.9720   23.4560 C   0  0  0  0  0  0  0  0  0  0  0  0
  -26.5870  -34.8570   22.4240 O   0  0  0  0  0  0  0  0  0  0  0  0
  -25.0020  -34.0880   25.0290 H   0  0  0  0  0  0  0  0  0  0  0  0
  -24.1880  -36.7590   23.0990 C   0  0  0  0  0  1  0  0  0  0  0  0
  -25.4370  -36.3650   23.9020 C   0  0  0  0  0  3  0  0  0  0  0  0
  -27.5770  -37.2640   24.7050 C   0  0  0  0  0  1  0  0  0  0  0  0
  -26.4670  -37.4180   23.7680 N   0  0  0  0  0  0  0  0  0  0  0  0
  -26.0610  -38.3390   23.9060 H   0  0  0  0  0  0  0  0  0  0  0  0
  -26.4050  -31.7640   25.2000 C   0  0  1  0  0  0  0  0  0  0  0  0
  -25.3030  -31.5430   26.2620 C   0  0  0  0  0  1  0  0  0  0  0  0
  -26.9850  -30.3790   24.8290 C   0  0  0  0  0  1  0  0  0  0  0  0
  -27.5540  -32.5610   25.8610 C   0  0  0  0  0  1  0  0  0  0  0  0
  1 16  1  0
  2  7  1  0
  3  4  1  0
  3  2  1  0
  5  4  1  0
  5 21  1  0
  5  6  1  0
  7  1  1  0
  7  6  1  0
  8  1  2  0
  9 17  2  0
 10 12  2  0
 10 11  1  0
 11 15  1  0
 12 16  1  0
 14 13  2  0
 15  9  1  0
 15 13  1  0
 16 14  1  0
 18 19  2  0
 19 38  1  0
 20 19  1  0
 20 23  1  0
 21 18  1  0
 21 22  1  0
 22 20  2  0
 23 24  1  0
 24 25  2  0
 26 29  1  0
 26 25  1  0
 27 26  2  0
 28 27  1  0
 28 23  2  0
 29 30  1  0
 30 31  1  0
 31 32  2  0
 33 32  1  0
 33 37  1  0
 34 33  2  0
 35 30  2  0
 35 34  1  0
 36 35  1  0
 38 39  1  0
 39 42  1  0
 39 41  1  0
 40 38  2  0
 43 44  1  0
 43 18  1  0
 45 43  1  0
 46 47  1  0
 46  9  1  0
 48 49  1  0
 48 47  2  0
 50 61  2  0
 51 49  1  0
 51 56  1  0
 52 60  1  0
 52 62  1  0
 53 59  1  0
 53 55  1  0
 54 60  1  0
 55 56  2  0
 55 54  1  0
 57 51  2  0
 58 57  1  0
 58 53  2  0
 59 52  1  0
 60 50  1  0
 62 64  2  0
 63 62  1  0
 65 63  1  0
 66 75  2  0
 66 71  1  0
 67 63  1  0
 67 71  1  0
 68 67  1  0
 69 70  1  0
 69 68  1  0
 70 66  1  0
 71 72  2  0
 72 73  1  0
 74 73  2  0
 75 74  1  0
 76 50  1  0
 76 77  1  0
 76 86  1  0
 77 80  1  0
 78 82  1  0
 78 77  1  0
 79 78  2  0
 82 81  1  0
 84 82  1  0
 84 85  1  0
 84 83  1  0
 86 89  1  1
 86 87  1  0
 88 86  1  0
M  ISO  4   1 100  16 100  48 101  49 101
M  END
>  <TORSDO>  (87) 
F 18

>  <SCORE>  (87) 
-14.505

>  <name>  (87) 
86

>  <ligand_id>  (87) 
86

>  <original_smiles>  (87) 
[H]c1c([H])c([H])c2c(c1[H])C([H])([H])C([H])([H])C([H])([H])C2([H])N([H])C(=O)C1([H])N(C(=O)C([H])(N([H])C(=O)C([H])(N([H])C([H])([H])[H])C([H])([H])[H])C(C([H])([H])[H])(C([H])([H])[H])C([H])([H])[H])C([H])([H])c2c([H])c(OC([H])([H])C([H])([H])C([H])([H])C(=O)N3C([H])([H])C([H])([H])N(C(=O)N4C([H])([H])C([H])([H])C([H])([H])C([H])(n5nc(-c6c([H])c([H])c(Oc7c([H])c([H])c(F)c([H])c7F)c([H])c6[H])c(C(=O)N([H])[H])c5N([H])[H])C4([H])[H])C([H])([H])C([H])([H])C3([H])[H])c([H])c([H])c2C1([H])[H]

>  <smiles>  (87) 
[H]c1c([H])c([H])c2c(c1[H])C([H])([H])C([H])([H])C([H])([H])C2([H])N([H])C(=O)C1([H])N(C(=O)C([H])(N([H])C(=O)C([H])(N([H])C([H])([H])[H])C([H])([H])[H])C(C([H])([H])[H])(C([H])([H])[H])C([H])([H])[H])C([H])([H])c2c([H])c(OC([H])([H])C([H])([H])C([H])([H])C(=O)N3C([H])([H])C([H])([H])N(C(=O)N4C([H])([H])C([H])([H])C([H])([H])C([H])(n5nc(-c6c([H])c([H])c(Oc7c([H])c([H])c(F)c([H])c7F)c([H])c6[H])c(C(=O)N([H])[H])c5N([H])[H])C4([H])[H])C([H])([H])C([H])([H])C3([H])[H])c([H])c([H])c2C1([H])[H]

$$$$
87:0:0
     RDKit          3D

 95103  0  0  1  0  0  0  0  0999 V2000
  -28.5610  -21.5520   20.1430 N   0  0  0  0  0  4  0  0  0  0  0  0
  -28.2330  -21.9410   19.2720 H   0  0  0  0  0  0  0  0  0  0  0  0
  -29.5660  -21.5190   20.0830 H   0  0  0  0  0  0  0  0  0  0  0  0
  -28.2580  -19.3250   19.0120 C   0  0  0  0  0  2  0  0  0  0  0  0
  -28.4220  -19.3870   21.5070 C   0  0  0  0  0  2  0  0  0  0  0  0
  -29.7190  -18.8290   18.9440 C   0  0  0  0  0  2  0  0  0  0  0  0
  -29.8770  -18.8870   21.4130 C   0  0  0  0  0  2  0  0  0  0  0  0
  -27.9730  -20.1870   20.2610 C   0  0  0  0  0  3  0  0  0  0  0  0
  -30.1330  -18.0980   20.1750 N   0  0  2  0  0  4  0  0  0  0  0  0
  -29.5700  -17.2620   20.2210 H   0  0  0  0  0  0  0  0  0  0  0  0
  -31.5380  -17.6170   20.1000 C   0  0  0  0  0  2  0  0  0  0  0  0
  -31.8090  -16.4280   21.0480 C   0  0  0  0  0  2  0  0  0  0  0  0
  -31.3740  -14.3150   19.8180 C   0  0  0  0  0  0  0  0  0  0  0  0
  -30.8930  -12.0910   18.8710 C   0  0  0  0  0  2  0  0  0  0  0  0
  -29.9020  -12.1770   17.6960 C   0  0  0  0  0  2  0  0  0  0  0  0
  -28.4490  -12.1490   18.2040 C   0  0  0  0  0  2  0  0  0  0  0  0
  -28.2020  -13.1610   19.3520 C   0  0  0  0  0  3  0  0  0  0  0  0
  -29.2900  -13.0360   20.4400 C   0  0  0  0  0  2  0  0  0  0  0  0
  -30.6090  -13.1960   19.7990 N   0  0  0  0  0  0  0  0  0  0  0  0
  -32.3550  -14.4850   19.0890 O   0  0  0  0  0  0  0  0  0  0  0  0
  -31.0210  -15.2360   20.7250 N   0  0  0  0  0  0  0  0  0  0  0  0
  -30.2480  -14.9990   21.3300 H   0  0  0  0  0  0  0  0  0  0  0  0
  -25.9120  -13.9760   20.2030 C   0  0  0  0  0  0  0  0  0  0  0  0
  -24.8060  -13.2980   20.6420 C   0  0  0  0  0  0  0  0  0  0  0  0
  -25.1440  -11.9120   20.5810 C   0  0  0  0  0  0  0  0  0  0  0  0
  -26.8600  -13.0080   19.9110 N   0  0  0  0  0  0  0  0  0  0  0  0
  -26.4020  -11.7610   20.1900 N   0  0  0  0  0  0  0  0  0  0  0  0
  -24.3240  -10.7160   20.8160 C   0  0  0  0  0  0  0  0  0  0  0  0
  -24.6930   -9.7440   21.7720 C   0  0  0  0  0  3  0  0  0  0  0  0
  -23.8800   -8.6110   21.9920 C   0  0  0  0  0  3  0  0  0  0  0  0
  -22.6820   -8.4440   21.2560 C   0  0  0  0  0  0  0  0  0  0  0  0
  -22.3320   -9.4030   20.2890 C   0  0  0  0  0  3  0  0  0  0  0  0
  -23.1450  -10.5270   20.0670 C   0  0  0  0  0  3  0  0  0  0  0  0
  -21.8430   -7.3640   21.3850 O   0  0  0  0  0  0  0  0  0  0  0  0
  -21.7170   -6.6890   22.5720 C   0  0  0  0  0  0  0  0  0  0  0  0
  -21.3010   -7.3350   23.7570 C   0  0  0  0  0  3  0  0  0  0  0  0
  -21.1180   -6.5900   24.9390 C   0  0  0  0  0  3  0  0  0  0  0  0
  -21.3390   -5.1990   24.9360 C   0  0  0  0  0  0  0  0  0  0  0  0
  -21.7480   -4.5540   23.7560 C   0  0  0  0  0  3  0  0  0  0  0  0
  -21.9330   -5.2960   22.5770 C   0  0  0  0  0  0  0  0  0  0  0  0
  -22.3080   -4.6660   21.4380 F   0  0  0  0  0  0  0  0  0  0  0  0
  -21.1560   -4.4810   26.0690 F   0  0  0  0  0  0  0  0  0  0  0  0
  -23.4760  -13.8930   21.0030 C   0  0  0  0  0  0  0  0  0  0  0  0
  -22.7540  -13.2650   21.9250 N   0  0  0  0  0  0  0  0  0  0  0  0
  -23.0900  -14.9500   20.5020 O   0  0  0  0  0  0  0  0  0  0  0  0
  -23.0810  -12.4080   22.3470 H   0  0  0  0  0  0  0  0  0  0  0  0
  -21.8640  -13.6440   22.2130 H   0  0  0  0  0  0  0  0  0  0  0  0
  -26.1830  -15.3270   20.0110 N   0  0  0  0  0  0  0  0  0  0  0  0
  -25.4720  -16.0390   20.1370 H   0  0  0  0  0  0  0  0  0  0  0  0
  -27.0200  -15.6760   19.5610 H   0  0  0  0  0  0  0  0  0  0  0  0
  -28.1990  -22.5290   21.1960 C   0  0  0  0  0  2  0  0  0  0  0  0
  -28.7560  -23.9210   20.8540 C   0  0  0  0  0  2  0  0  0  0  0  0
  -28.4350  -24.9980   21.9040 C   0  0  0  0  0  2  0  0  0  0  0  0
  -29.0450  -26.3590   21.5330 C   0  0  0  0  0  2  0  0  0  0  0  0
  -28.5450  -26.7750   20.2640 O   0  0  0  0  0  0  0  0  0  0  0  0
  -24.6860  -31.8600   23.4060 C   0  0  0  0  0  0  0  0  0  0  0  0
  -27.3870  -27.5080   20.2990 C   0  0  0  0  0  0  0  0  0  0  0  0
  -23.5070  -30.4980   21.7080 C   0  0  0  0  0  3  0  0  0  0  0  0
  -24.9860  -28.9830   20.2850 C   0  0  0  0  0  0  0  0  0  0  0  0
  -26.0310  -30.8620   21.5670 C   0  0  0  0  0  2  0  0  0  0  0  0
  -26.1260  -29.5030   20.9100 C   0  0  0  0  0  0  0  0  0  0  0  0
  -27.3280  -28.7710   20.9230 C   0  0  0  0  0  3  0  0  0  0  0  0
  -26.2400  -26.9910   19.6640 C   0  0  0  0  0  3  0  0  0  0  0  0
  -25.0350  -27.7210   19.6620 C   0  0  0  0  0  3  0  0  0  0  0  0
  -23.7400  -29.8380   20.3210 C   0  0  0  0  0  2  0  0  0  0  0  0
  -24.7590  -31.0860   22.2870 N   0  0  0  0  0  0  0  0  0  0  0  0
  -23.5960  -32.1260   23.9290 O   0  0  0  0  0  0  0  0  0  0  0  0
  -22.8330  -29.4610   22.6340 C   0  0  0  0  0  0  0  0  0  0  0  0
  -21.5120  -29.2870   22.4690 N   0  0  0  0  0  0  0  0  0  0  0  0
  -23.4950  -28.8150   23.4500 O   0  0  0  0  0  0  0  0  0  0  0  0
  -21.0420  -29.8570   21.7810 H   0  0  0  0  0  0  0  0  0  0  0  0
  -18.1210  -28.1090   22.8610 C   0  0  0  0  0  0  0  0  0  0  0  0
  -20.6720  -28.3390   23.2000 C   0  0  0  0  0  3  0  0  0  0  0  0
  -20.7800  -26.9210   22.5940 C   0  0  0  0  0  2  0  0  0  0  0  0
  -19.7000  -26.6290   21.5480 C   0  0  0  0  0  2  0  0  0  0  0  0
  -18.3030  -26.7710   22.1610 C   0  0  0  0  0  2  0  0  0  0  0  0
  -19.2350  -28.8510   23.3350 C   0  0  0  0  0  0  0  0  0  0  0  0
  -19.0110  -30.1050   23.9440 C   0  0  0  0  0  3  0  0  0  0  0  0
  -17.7060  -30.6140   24.0890 C   0  0  0  0  0  3  0  0  0  0  0  0
  -16.6070  -29.8660   23.6330 C   0  0  0  0  0  3  0  0  0  0  0  0
  -16.8150  -28.6160   23.0240 C   0  0  0  0  0  3  0  0  0  0  0  0
  -25.9640  -32.4670   24.0670 C   0  0  0  0  0  3  0  0  0  0  0  0
  -25.6650  -33.8660   24.3980 N   0  0  0  0  0  0  0  0  0  0  0  0
  -26.0320  -34.9180   23.6540 C   0  0  0  0  0  0  0  0  0  0  0  0
  -26.7280  -34.8130   22.6410 O   0  0  0  0  0  0  0  0  0  0  0  0
  -25.0460  -34.0240   25.1810 H   0  0  0  0  0  0  0  0  0  0  0  0
  -24.3330  -36.7330   23.2660 C   0  0  0  0  0  1  0  0  0  0  0  0
  -25.5480  -36.3090   24.1060 C   0  0  0  0  0  3  0  0  0  0  0  0
  -27.6700  -37.1630   24.9970 C   0  0  0  0  0  1  0  0  0  0  0  0
  -26.5940  -37.3510   24.0280 N   0  0  0  0  0  0  0  0  0  0  0  0
  -26.1950  -38.2740   24.1740 H   0  0  0  0  0  0  0  0  0  0  0  0
  -26.4410  -31.6760   25.3460 C   0  0  1  0  0  0  0  0  0  0  0  0
  -25.3160  -31.4330   26.3810 C   0  0  0  0  0  1  0  0  0  0  0  0
  -27.0240  -30.2980   24.9510 C   0  0  0  0  0  1  0  0  0  0  0  0
  -27.5800  -32.4530   26.0490 C   0  0  0  0  0  1  0  0  0  0  0  0
  1 51  1  0
  2  1  1  0
  3  1  1  0
  4  8  1  0
  6  4  1  0
  6  9  1  0
  7  5  1  0
  8  1  1  0
  8  5  1  0
  9 10  1  1
  9  7  1  0
 11  9  1  0
 11 12  1  0
 13 21  1  0
 14 19  1  0
 15 16  1  0
 15 14  1  0
 17 16  1  0
 17 26  1  0
 17 18  1  0
 19 13  1  0
 19 18  1  0
 20 13  2  0
 21 12  1  0
 21 22  1  0
 23 24  2  0
 24 43  1  0
 25 24  1  0
 25 28  1  0
 26 27  1  0
 26 23  1  0
 27 25  2  0
 28 29  1  0
 29 30  2  0
 31 34  1  0
 31 30  1  0
 32 31  2  0
 33 32  1  0
 33 28  2  0
 34 35  1  0
 35 40  2  0
 35 36  1  0
 36 37  2  0
 38 37  1  0
 38 42  1  0
 39 38  2  0
 40 39  1  0
 41 40  1  0
 43 44  1  0
 44 47  1  0
 44 46  1  0
 45 43  2  0
 48 49  1  0
 48 23  1  0
 50 48  1  0
 52 51  1  0
 52 53  1  0
 54 53  1  0
 55 57  1  0
 55 54  1  0
 56 67  2  0
 57 62  1  0
 58 66  1  0
 58 68  1  0
 59 65  1  0
 59 61  1  0
 60 66  1  0
 61 62  2  0
 61 60  1  0
 63 57  2  0
 64 63  1  0
 64 59  2  0
 65 58  1  0
 66 56  1  0
 68 70  2  0
 69 68  1  0
 71 69  1  0
 72 81  2  0
 72 77  1  0
 73 69  1  0
 73 77  1  0
 74 73  1  0
 75 76  1  0
 75 74  1  0
 76 72  1  0
 77 78  2  0
 78 79  1  0
 80 79  2  0
 81 80  1  0
 82 56  1  0
 82 83  1  0
 82 92  1  0
 83 86  1  0
 84 88  1  0
 84 83  1  0
 85 84  2  0
 88 87  1  0
 90 88  1  0
 90 91  1  0
 90 89  1  0
 92 95  1  1
 92 93  1  0
 94 92  1  0
M  ISO  4  13 100  21 100  54 101  55 101
M  END
>  <TORSDO>  (88) 
F 23

>  <SCORE>  (88) 
-10.928

>  <name>  (88) 
87

>  <ligand_id>  (88) 
87

>  <original_smiles>  (88) 
[H]c1c([H])c([H])c2c(c1[H])C([H])([H])C([H])([H])C([H])([H])C2([H])N([H])C(=O)C1([H])N(C(=O)C([H])(N([H])C(=O)C([H])(N([H])C([H])([H])[H])C([H])([H])[H])C(C([H])([H])[H])(C([H])([H])[H])C([H])([H])[H])C([H])([H])c2c([H])c(OC([H])([H])C([H])([H])C([H])([H])C([H])([H])[N+]([H])([H])C3([H])C([H])([H])C([H])([H])[N+]([H])(C([H])([H])C([H])([H])N([H])C(=O)N4C([H])([H])C([H])([H])C([H])([H])C([H])(n5nc(-c6c([H])c([H])c(Oc7c([H])c([H])c(F)c([H])c7F)c([H])c6[H])c(C(=O)N([H])[H])c5N([H])[H])C4([H])[H])C([H])([H])C3([H])[H])c([H])c([H])c2C1([H])[H]

>  <smiles>  (88) 
[H]c1c([H])c([H])c2c(c1[H])C([H])([H])C([H])([H])C([H])([H])C2([H])N([H])C(=O)C1([H])N(C(=O)C([H])(N([H])C(=O)C([H])(N([H])C([H])([H])[H])C([H])([H])[H])C(C([H])([H])[H])(C([H])([H])[H])C([H])([H])[H])C([H])([H])c2c([H])c(OC([H])([H])C([H])([H])C([H])([H])C([H])([H])[N+]([H])([H])C3([H])C([H])([H])C([H])([H])[N+]([H])(C([H])([H])C([H])([H])N([H])C(=O)N4C([H])([H])C([H])([H])C([H])([H])C([H])(n5nc(-c6c([H])c([H])c(Oc7c([H])c([H])c(F)c([H])c7F)c([H])c6[H])c(C(=O)N([H])[H])c5N([H])[H])C4([H])[H])C([H])([H])C3([H])[H])c([H])c([H])c2C1([H])[H]

$$$$
88:0:0
     RDKit          3D

 90 98  0  0  1  0  0  0  0  0999 V2000
  -28.7280  -21.9110   20.3870 C   0  0  0  0  0  2  0  0  0  0  0  0
  -28.2060  -23.3570   20.6580 C   0  0  0  0  0  2  0  0  0  0  0  0
  -29.2490  -24.4810   20.9040 C   0  0  0  0  0  2  0  0  0  0  0  0
  -28.6270  -25.8660   21.2520 C   0  0  0  0  0  2  0  0  0  0  0  0
  -28.3880  -26.6890   20.1040 O   0  0  0  0  0  0  0  0  0  0  0  0
  -24.5730  -31.8870   23.2270 C   0  0  0  0  0  0  0  0  0  0  0  0
  -27.2400  -27.4460   20.1580 C   0  0  0  0  0  0  0  0  0  0  0  0
  -23.3770  -30.4790   21.5820 C   0  0  0  0  0  3  0  0  0  0  0  0
  -24.8430  -28.9430   20.1640 C   0  0  0  0  0  0  0  0  0  0  0  0
  -25.9040  -30.8430   21.3930 C   0  0  0  0  0  2  0  0  0  0  0  0
  -25.9970  -29.4700   20.7600 C   0  0  0  0  0  0  0  0  0  0  0  0
  -27.2020  -28.7260   20.7600 C   0  0  0  0  0  3  0  0  0  0  0  0
  -26.0730  -26.9340   19.5580 C   0  0  0  0  0  3  0  0  0  0  0  0
  -24.8750  -27.6720   19.5620 C   0  0  0  0  0  3  0  0  0  0  0  0
  -23.5960  -29.7990   20.2040 C   0  0  0  0  0  2  0  0  0  0  0  0
  -24.6360  -31.0860   22.1250 N   0  0  0  0  0  0  0  0  0  0  0  0
  -23.4890  -32.1580   23.7640 O   0  0  0  0  0  0  0  0  0  0  0  0
  -22.7260  -29.4570   22.5420 C   0  0  0  0  0  0  0  0  0  0  0  0
  -21.4000  -29.2780   22.4200 N   0  0  0  0  0  0  0  0  0  0  0  0
  -23.4100  -28.8280   23.3540 O   0  0  0  0  0  0  0  0  0  0  0  0
  -20.9080  -29.8360   21.7370 H   0  0  0  0  0  0  0  0  0  0  0  0
  -18.0240  -28.0920   22.9280 C   0  0  0  0  0  0  0  0  0  0  0  0
  -20.5850  -28.3390   23.1900 C   0  0  0  0  0  3  0  0  0  0  0  0
  -20.6810  -26.9100   22.6090 C   0  0  0  0  0  2  0  0  0  0  0  0
  -19.5730  -26.5940   21.5980 C   0  0  0  0  0  2  0  0  0  0  0  0
  -18.1940  -26.7440   22.2480 C   0  0  0  0  0  2  0  0  0  0  0  0
  -19.1480  -28.8480   23.3570 C   0  0  0  0  0  0  0  0  0  0  0  0
  -18.9350  -30.1090   23.9530 C   0  0  0  0  0  3  0  0  0  0  0  0
  -17.6330  -30.6150   24.1240 C   0  0  0  0  0  3  0  0  0  0  0  0
  -16.5240  -29.8540   23.7130 C   0  0  0  0  0  3  0  0  0  0  0  0
  -16.7220  -28.5960   23.1210 C   0  0  0  0  0  3  0  0  0  0  0  0
  -25.8550  -32.5260   23.8480 C   0  0  0  0  0  3  0  0  0  0  0  0
  -26.3820  -31.7510   25.1170 C   0  0  1  0  0  0  0  0  0  0  0  0
  -25.2950  -31.5010   26.1890 C   0  0  0  0  0  1  0  0  0  0  0  0
  -26.9720  -30.3790   24.7150 C   0  0  0  0  0  1  0  0  0  0  0  0
  -27.5310  -32.5490   25.7780 C   0  0  0  0  0  1  0  0  0  0  0  0
  -25.5400  -33.9210   24.1830 N   0  0  0  0  0  0  0  0  0  0  0  0
  -25.8660  -34.9760   23.4260 C   0  0  0  0  0  0  0  0  0  0  0  0
  -26.5370  -34.8790   22.3950 O   0  0  0  0  0  0  0  0  0  0  0  0
  -24.9460  -34.0700   24.9860 H   0  0  0  0  0  0  0  0  0  0  0  0
  -24.1300  -36.7600   23.0730 C   0  0  0  0  0  1  0  0  0  0  0  0
  -25.3710  -36.3610   23.8860 C   0  0  0  0  0  3  0  0  0  0  0  0
  -27.5010  -37.2500   24.7240 C   0  0  0  0  0  1  0  0  0  0  0  0
  -26.3990  -37.4190   23.7810 N   0  0  0  0  0  0  0  0  0  0  0  0
  -25.9880  -38.3360   23.9370 H   0  0  0  0  0  0  0  0  0  0  0  0
  -29.7920  -21.3570   21.3720 C   0  0  0  0  0  2  0  0  0  0  0  0
  -29.9310  -19.8060   21.5340 C   0  0  0  0  0  2  0  0  0  0  0  0
  -29.7670  -19.0020   20.2960 N   0  0  0  0  0  4  0  0  0  0  0  0
  -28.7880  -18.9950   20.0600 H   0  0  0  0  0  0  0  0  0  0  0  0
  -30.2500  -19.4740   19.5480 H   0  0  0  0  0  0  0  0  0  0  0  0
  -30.6680  -14.5430   20.1580 C   0  0  0  0  0  0  0  0  0  0  0  0
  -30.3750  -12.3810   19.0120 C   0  0  0  0  0  2  0  0  0  0  0  0
  -29.3920  -12.6190   17.8460 C   0  0  0  0  0  2  0  0  0  0  0  0
  -27.9280  -12.4950   18.3220 C   0  0  0  0  0  2  0  0  0  0  0  0
  -27.6420  -13.3090   19.6130 C   0  0  0  0  0  3  0  0  0  0  0  0
  -28.7320  -13.0410   20.6770 C   0  0  0  0  0  2  0  0  0  0  0  0
  -30.0350  -13.3440   20.0690 N   0  0  0  0  0  0  0  0  0  0  0  0
  -31.8220  -14.7370   19.7580 O   0  0  0  0  0  0  0  0  0  0  0  0
  -29.7520  -16.6060   21.3790 C   0  0  0  0  0  2  0  0  0  0  0  0
  -29.6340  -16.6490   19.3140 C   0  0  0  0  0  2  0  0  0  0  0  0
  -30.2700  -17.5930   20.3290 C   0  0  0  0  0  3  0  0  0  0  0  0
  -29.8030  -15.5770   20.3140 N   0  0  0  0  0  0  0  0  0  0  0  0
  -25.2810  -13.9450   20.4130 C   0  0  0  0  0  0  0  0  0  0  0  0
  -24.2170  -13.1820   20.8150 C   0  0  0  0  0  0  0  0  0  0  0  0
  -24.6630  -11.8270   20.7610 C   0  0  0  0  0  0  0  0  0  0  0  0
  -26.3040  -13.0510   20.1380 N   0  0  0  0  0  0  0  0  0  0  0  0
  -25.9390  -11.7730   20.4050 N   0  0  0  0  0  0  0  0  0  0  0  0
  -23.9330  -10.5710   20.9690 C   0  0  0  0  0  0  0  0  0  0  0  0
  -24.3880   -9.5980   21.8870 C   0  0  0  0  0  3  0  0  0  0  0  0
  -23.6610   -8.4040   22.0810 C   0  0  0  0  0  3  0  0  0  0  0  0
  -22.4660   -8.1760   21.3580 C   0  0  0  0  0  0  0  0  0  0  0  0
  -22.0310   -9.1360   20.4270 C   0  0  0  0  0  3  0  0  0  0  0  0
  -22.7600  -10.3210   20.2300 C   0  0  0  0  0  3  0  0  0  0  0  0
  -21.7090   -7.0360   21.4620 O   0  0  0  0  0  0  0  0  0  0  0  0
  -21.6760   -6.2950   22.6170 C   0  0  0  0  0  0  0  0  0  0  0  0
  -21.2810   -6.8570   23.8510 C   0  0  0  0  0  3  0  0  0  0  0  0
  -21.1960   -6.0430   24.9980 C   0  0  0  0  0  3  0  0  0  0  0  0
  -21.4950   -4.6710   24.9120 C   0  0  0  0  0  0  0  0  0  0  0  0
  -21.8830   -4.1090   23.6830 C   0  0  0  0  0  3  0  0  0  0  0  0
  -21.9690   -4.9190   22.5380 C   0  0  0  0  0  0  0  0  0  0  0  0
  -22.3240   -4.3690   21.3520 F   0  0  0  0  0  0  0  0  0  0  0  0
  -21.4050   -3.8880   26.0130 F   0  0  0  0  0  0  0  0  0  0  0  0
  -22.8350  -13.6700   21.1380 C   0  0  0  0  0  0  0  0  0  0  0  0
  -22.1300  -12.9800   22.0270 N   0  0  0  0  0  0  0  0  0  0  0  0
  -22.3900  -14.7020   20.6390 O   0  0  0  0  0  0  0  0  0  0  0  0
  -22.5040  -12.1480   22.4590 H   0  0  0  0  0  0  0  0  0  0  0  0
  -21.2010  -13.2880   22.2780 H   0  0  0  0  0  0  0  0  0  0  0  0
  -25.4560  -15.3140   20.2390 N   0  0  0  0  0  0  0  0  0  0  0  0
  -24.7000  -15.9780   20.3820 H   0  0  0  0  0  0  0  0  0  0  0  0
  -26.3040  -15.7430   19.8920 H   0  0  0  0  0  0  0  0  0  0  0  0
  1  2  1  0
  1 46  1  0
  2  3  1  0
  3  4  1  0
  5  7  1  0
  5  4  1  0
  6 17  2  0
  7 12  1  0
  8 16  1  0
  8 18  1  0
  9 15  1  0
  9 11  1  0
 10 16  1  0
 11 10  1  0
 12 11  2  0
 13 14  1  0
 13  7  2  0
 14  9  2  0
 15  8  1  0
 16  6  1  0
 18 20  2  0
 19 18  1  0
 21 19  1  0
 22 31  2  0
 22 27  1  0
 23 19  1  0
 23 27  1  0
 24 23  1  0
 25 26  1  0
 25 24  1  0
 26 22  1  0
 27 28  2  0
 28 29  1  0
 30 29  2  0
 31 30  1  0
 32  6  1  0
 32 37  1  0
 32 33  1  0
 33 36  1  1
 33 34  1  0
 35 33  1  0
 37 40  1  0
 38 42  1  0
 38 37  1  0
 39 38  2  0
 42 41  1  0
 44 42  1  0
 44 45  1  0
 44 43  1  0
 46 47  1  0
 48 47  1  0
 49 48  1  0
 50 48  1  0
 51 62  1  0
 52 57  1  0
 53 54  1  0
 53 52  1  0
 55 54  1  0
 55 66  1  0
 55 56  1  0
 57 51  1  0
 57 56  1  0
 58 51  2  0
 60 62  1  0
 60 61  1  0
 61 48  1  0
 61 59  1  0
 62 59  1  0
 63 64  2  0
 64 83  1  0
 65 64  1  0
 65 68  1  0
 66 67  1  0
 66 63  1  0
 67 65  2  0
 68 69  1  0
 69 70  2  0
 71 74  1  0
 71 70  1  0
 72 71  2  0
 73 72  1  0
 73 68  2  0
 74 75  1  0
 75 76  1  0
 76 77  2  0
 78 77  1  0
 78 82  1  0
 79 78  2  0
 80 75  2  0
 80 79  1  0
 81 80  1  0
 83 84  1  0
 84 87  1  0
 84 86  1  0
 85 83  2  0
 88 89  1  0
 88 63  1  0
 90 88  1  0
M  ISO  4   4 101   5 101  51 100  62 100
M  END
>  <TORSDO>  (89) 
F 22

>  <SCORE>  (89) 
-13.006

>  <name>  (89) 
88

>  <ligand_id>  (89) 
88

>  <original_smiles>  (89) 
[H]c1c([H])c([H])c2c(c1[H])C([H])([H])C([H])([H])C([H])([H])C2([H])N([H])C(=O)C1([H])N(C(=O)C([H])(N([H])C(=O)C([H])(N([H])C([H])([H])[H])C([H])([H])[H])C(C([H])([H])[H])(C([H])([H])[H])C([H])([H])[H])C([H])([H])c2c([H])c(OC([H])([H])C([H])([H])C([H])([H])C([H])([H])C([H])([H])C([H])([H])[N+]([H])([H])C3([H])C([H])([H])N(C(=O)N4C([H])([H])C([H])([H])C([H])([H])C([H])(n5nc(-c6c([H])c([H])c(Oc7c([H])c([H])c(F)c([H])c7F)c([H])c6[H])c(C(=O)N([H])[H])c5N([H])[H])C4([H])[H])C3([H])[H])c([H])c([H])c2C1([H])[H]

>  <smiles>  (89) 
[H]c1c([H])c([H])c2c(c1[H])C([H])([H])C([H])([H])C([H])([H])C2([H])N([H])C(=O)C1([H])N(C(=O)C([H])(N([H])C(=O)C([H])(N([H])C([H])([H])[H])C([H])([H])[H])C(C([H])([H])[H])(C([H])([H])[H])C([H])([H])[H])C([H])([H])c2c([H])c(OC([H])([H])C([H])([H])C([H])([H])C([H])([H])C([H])([H])C([H])([H])[N+]([H])([H])C3([H])C([H])([H])N(C(=O)N4C([H])([H])C([H])([H])C([H])([H])C([H])(n5nc(-c6c([H])c([H])c(Oc7c([H])c([H])c(F)c([H])c7F)c([H])c6[H])c(C(=O)N([H])[H])c5N([H])[H])C4([H])[H])C3([H])[H])c([H])c([H])c2C1([H])[H]

$$$$
89:0:0
     RDKit          3D

 96104  0  0  1  0  0  0  0  0999 V2000
  -27.6950  -18.9080   18.9050 C   0  0  0  0  0  2  0  0  0  0  0  0
  -27.3330  -19.7690   20.1330 C   0  0  0  0  0  2  0  0  0  0  0  0
  -29.5590  -19.3900   21.1740 C   0  0  0  0  0  2  0  0  0  0  0  0
  -29.3740  -17.9650   20.5710 C   0  0  0  0  0  3  0  0  0  0  0  0
  -29.0230  -18.1240   19.0610 C   0  0  0  0  0  3  0  0  0  0  0  0
  -28.5340  -20.3940   20.7470 N   0  0  2  0  0  4  0  0  0  0  0  0
  -28.9690  -20.9400   20.0170 H   0  0  0  0  0  0  0  0  0  0  0  0
  -28.9820  -16.8660   18.2870 N   0  0  0  0  0  4  0  0  0  0  0  0
  -28.2500  -16.2530   18.5990 H   0  0  0  0  0  0  0  0  0  0  0  0
  -29.8650  -16.3840   18.3210 H   0  0  0  0  0  0  0  0  0  0  0  0
  -28.8030  -17.0720   17.3200 H   0  0  0  0  0  0  0  0  0  0  0  0
  -30.6160  -17.0840   20.8940 C   0  0  0  0  0  2  0  0  0  0  0  0
  -31.0560  -14.6540   20.3840 C   0  0  0  0  0  0  0  0  0  0  0  0
  -30.7900  -12.4510   19.3220 C   0  0  0  0  0  2  0  0  0  0  0  0
  -29.8640  -12.6100   18.0980 C   0  0  0  0  0  2  0  0  0  0  0  0
  -28.3810  -12.5060   18.5090 C   0  0  0  0  0  2  0  0  0  0  0  0
  -28.0290  -13.4030   19.7290 C   0  0  0  0  0  3  0  0  0  0  0  0
  -29.0620  -13.1960   20.8600 C   0  0  0  0  0  2  0  0  0  0  0  0
  -30.3990  -13.4690   20.3050 N   0  0  0  0  0  0  0  0  0  0  0  0
  -32.1660  -14.8630   19.8930 O   0  0  0  0  0  0  0  0  0  0  0  0
  -30.3030  -15.6500   20.8700 N   0  0  0  0  0  0  0  0  0  0  0  0
  -29.4270  -15.3620   21.2800 H   0  0  0  0  0  0  0  0  0  0  0  0
  -25.6410  -14.0870   20.4200 C   0  0  0  0  0  0  0  0  0  0  0  0
  -24.5440  -13.3440   20.7640 C   0  0  0  0  0  0  0  0  0  0  0  0
  -24.9630  -11.9800   20.7160 C   0  0  0  0  0  0  0  0  0  0  0  0
  -26.6610  -13.1750   20.1870 N   0  0  0  0  0  0  0  0  0  0  0  0
  -26.2530  -11.9020   20.4180 N   0  0  0  0  0  0  0  0  0  0  0  0
  -24.1970  -10.7390   20.8800 C   0  0  0  0  0  0  0  0  0  0  0  0
  -24.5820   -9.7510   21.8150 C   0  0  0  0  0  3  0  0  0  0  0  0
  -23.8200   -8.5740   21.9660 C   0  0  0  0  0  3  0  0  0  0  0  0
  -22.6560   -8.3760   21.1850 C   0  0  0  0  0  0  0  0  0  0  0  0
  -22.2920   -9.3510   20.2400 C   0  0  0  0  0  3  0  0  0  0  0  0
  -23.0540  -10.5190   20.0860 C   0  0  0  0  0  3  0  0  0  0  0  0
  -21.8690   -7.2520   21.2450 O   0  0  0  0  0  0  0  0  0  0  0  0
  -21.7510   -6.5200   22.3990 C   0  0  0  0  0  0  0  0  0  0  0  0
  -21.2970   -7.0980   23.6040 C   0  0  0  0  0  3  0  0  0  0  0  0
  -21.1270   -6.2940   24.7490 C   0  0  0  0  0  3  0  0  0  0  0  0
  -21.3960   -4.9130   24.6870 C   0  0  0  0  0  0  0  0  0  0  0  0
  -21.8440   -4.3350   23.4840 C   0  0  0  0  0  3  0  0  0  0  0  0
  -22.0170   -5.1380   22.3430 C   0  0  0  0  0  0  0  0  0  0  0  0
  -22.4290   -4.5740   21.1820 F   0  0  0  0  0  0  0  0  0  0  0  0
  -21.2240   -4.1380   25.7820 F   0  0  0  0  0  0  0  0  0  0  0  0
  -23.1620  -13.8620   21.0360 C   0  0  0  0  0  0  0  0  0  0  0  0
  -22.4170  -13.1910   21.9080 N   0  0  0  0  0  0  0  0  0  0  0  0
  -22.7500  -14.8960   20.5110 O   0  0  0  0  0  0  0  0  0  0  0  0
  -22.7630  -12.3560   22.3560 H   0  0  0  0  0  0  0  0  0  0  0  0
  -21.4890  -13.5190   22.1350 H   0  0  0  0  0  0  0  0  0  0  0  0
  -25.8490  -15.4560   20.2770 N   0  0  0  0  0  0  0  0  0  0  0  0
  -25.0930  -16.1190   20.4160 H   0  0  0  0  0  0  0  0  0  0  0  0
  -26.7350  -15.8970   20.0860 H   0  0  0  0  0  0  0  0  0  0  0  0
  -28.2060  -21.3720   21.8210 C   0  0  0  0  0  2  0  0  0  0  0  0
  -27.6060  -22.6920   21.2870 C   0  0  0  0  0  2  0  0  0  0  0  0
  -28.6460  -23.7990   21.0340 C   0  0  0  0  0  2  0  0  0  0  0  0
  -28.0130  -25.0290   20.3650 C   0  0  0  0  0  2  0  0  0  0  0  0
  -28.8780  -26.3010   20.4550 C   0  0  0  0  0  2  0  0  0  0  0  0
  -28.5310  -27.2610   19.4630 O   0  0  0  0  0  0  0  0  0  0  0  0
  -24.5110  -31.8410   23.1580 C   0  0  0  0  0  0  0  0  0  0  0  0
  -27.3190  -27.8830   19.6270 C   0  0  0  0  0  0  0  0  0  0  0  0
  -23.3360  -30.5160   21.4290 C   0  0  0  0  0  3  0  0  0  0  0  0
  -24.8360  -29.2020   19.8400 C   0  0  0  0  0  0  0  0  0  0  0  0
  -25.8250  -31.0540   21.1970 C   0  0  0  0  0  2  0  0  0  0  0  0
  -25.9750  -29.7500   20.4450 C   0  0  0  0  0  0  0  0  0  0  0  0
  -27.2200  -29.0970   20.3400 C   0  0  0  0  0  3  0  0  0  0  0  0
  -26.1690  -27.3450   19.0120 C   0  0  0  0  0  3  0  0  0  0  0  0
  -24.9260  -27.9960   19.1230 C   0  0  0  0  0  3  0  0  0  0  0  0
  -23.5430  -29.9710   19.9900 C   0  0  0  0  0  2  0  0  0  0  0  0
  -24.5770  -31.1490   21.9870 N   0  0  0  0  0  0  0  0  0  0  0  0
  -23.4320  -31.9970   23.7490 O   0  0  0  0  0  0  0  0  0  0  0  0
  -22.7790  -29.3770   22.3110 C   0  0  0  0  0  0  0  0  0  0  0  0
  -21.4660  -29.1200   22.1950 N   0  0  0  0  0  0  0  0  0  0  0  0
  -23.5220  -28.7300   23.0540 O   0  0  0  0  0  0  0  0  0  0  0  0
  -20.9250  -29.7020   21.5700 H   0  0  0  0  0  0  0  0  0  0  0  0
  -18.2020  -27.6290   22.5970 C   0  0  0  0  0  0  0  0  0  0  0  0
  -20.7290  -28.0700   22.8980 C   0  0  0  0  0  3  0  0  0  0  0  0
  -20.9460  -26.6950   22.2240 C   0  0  0  0  0  2  0  0  0  0  0  0
  -19.8720  -26.3540   21.1880 C   0  0  0  0  0  2  0  0  0  0  0  0
  -18.4830  -26.3480   21.8310 C   0  0  0  0  0  2  0  0  0  0  0  0
  -19.2550  -28.4470   23.0830 C   0  0  0  0  0  0  0  0  0  0  0  0
  -18.9380  -29.6460   23.7540 C   0  0  0  0  0  3  0  0  0  0  0  0
  -17.5980  -30.0330   23.9440 C   0  0  0  0  0  3  0  0  0  0  0  0
  -16.5590  -29.2130   23.4730 C   0  0  0  0  0  3  0  0  0  0  0  0
  -16.8610  -28.0120   22.8080 C   0  0  0  0  0  3  0  0  0  0  0  0
  -25.7770  -32.4900   23.7990 C   0  0  0  0  0  3  0  0  0  0  0  0
  -26.3430  -31.6730   25.0250 C   0  0  1  0  0  0  0  0  0  0  0  0
  -25.2790  -31.3430   26.0970 C   0  0  0  0  0  1  0  0  0  0  0  0
  -26.9630  -30.3380   24.5500 C   0  0  0  0  0  1  0  0  0  0  0  0
  -27.4780  -32.4720   25.7070 C   0  0  0  0  0  1  0  0  0  0  0  0
  -25.4170  -33.8550   24.2020 N   0  0  0  0  0  0  0  0  0  0  0  0
  -25.7090  -34.9570   23.4970 C   0  0  0  0  0  0  0  0  0  0  0  0
  -26.3820  -34.9310   22.4620 O   0  0  0  0  0  0  0  0  0  0  0  0
  -24.8160  -33.9460   25.0080 H   0  0  0  0  0  0  0  0  0  0  0  0
  -23.9080  -36.6910   23.2400 C   0  0  0  0  0  1  0  0  0  0  0  0
  -25.1700  -36.3000   24.0240 C   0  0  0  0  0  3  0  0  0  0  0  0
  -27.2750  -37.2270   24.8840 C   0  0  0  0  0  1  0  0  0  0  0  0
  -26.1580  -37.3980   23.9570 N   0  0  0  0  0  0  0  0  0  0  0  0
  -25.7170  -38.2930   24.1520 H   0  0  0  0  0  0  0  0  0  0  0  0
  1  5  1  0
  1  2  1  0
  2  6  1  0
  4 12  1  0
  4  3  1  0
  5  8  1  0
  5  4  1  0
  6  3  1  0
  6 51  1  0
  6  7  1  6
  8 10  1  0
  8  9  1  0
 11  8  1  0
 13 21  1  0
 14 19  1  0
 15 16  1  0
 15 14  1  0
 17 16  1  0
 17 26  1  0
 17 18  1  0
 19 13  1  0
 19 18  1  0
 20 13  2  0
 21 12  1  0
 21 22  1  0
 23 24  2  0
 24 43  1  0
 25 24  1  0
 25 28  1  0
 26 27  1  0
 26 23  1  0
 27 25  2  0
 28 29  1  0
 29 30  2  0
 31 34  1  0
 31 30  1  0
 32 31  2  0
 33 32  1  0
 33 28  2  0
 34 35  1  0
 35 36  1  0
 36 37  2  0
 38 37  1  0
 38 42  1  0
 39 38  2  0
 40 35  2  0
 40 39  1  0
 41 40  1  0
 43 44  1  0
 44 47  1  0
 44 46  1  0
 45 43  2  0
 48 49  1  0
 48 23  1  0
 50 48  1  0
 52 51  1  0
 53 52  1  0
 54 55  1  0
 54 53  1  0
 56 58  1  0
 56 55  1  0
 57 68  2  0
 58 63  1  0
 59 67  1  0
 59 69  1  0
 60 66  1  0
 60 62  1  0
 61 67  1  0
 62 61  1  0
 63 62  2  0
 64 65  1  0
 64 58  2  0
 65 60  2  0
 66 59  1  0
 67 57  1  0
 69 71  2  0
 70 69  1  0
 72 70  1  0
 73 82  2  0
 73 78  1  0
 74 70  1  0
 74 78  1  0
 75 74  1  0
 76 77  1  0
 76 75  1  0
 77 73  1  0
 78 79  2  0
 79 80  1  0
 81 80  2  0
 82 81  1  0
 83 57  1  0
 83 88  1  0
 83 84  1  0
 84 87  1  1
 84 85  1  0
 86 84  1  0
 88 91  1  0
 89 93  1  0
 89 88  1  0
 90 89  2  0
 93 92  1  0
 95 93  1  0
 95 96  1  0
 95 94  1  0
M  ISO  4  13 100  21 100  55 101  56 101
M  END
>  <TORSDO>  (90) 
F 23

>  <SCORE>  (90) 
-11.774

>  <name>  (90) 
89

>  <ligand_id>  (90) 
89

>  <original_smiles>  (90) 
[H]c1c([H])c([H])c2c(c1[H])C([H])([H])C([H])([H])C([H])([H])C2([H])N([H])C(=O)C1([H])N(C(=O)C([H])(N([H])C(=O)C([H])(N([H])C([H])([H])[H])C([H])([H])[H])C(C([H])([H])[H])(C([H])([H])[H])C([H])([H])[H])C([H])([H])c2c([H])c(OC([H])([H])C([H])([H])C([H])([H])C([H])([H])C([H])([H])[N+]3([H])C([H])([H])C([H])([H])C([H])([N+]([H])([H])[H])C([H])(C([H])([H])N([H])C(=O)N4C([H])([H])C([H])([H])C([H])([H])C([H])(n5nc(-c6c([H])c([H])c(Oc7c([H])c([H])c(F)c([H])c7F)c([H])c6[H])c(C(=O)N([H])[H])c5N([H])[H])C4([H])[H])C3([H])[H])c([H])c([H])c2C1([H])[H]

>  <smiles>  (90) 
[H]c1c([H])c([H])c2c(c1[H])C([H])([H])C([H])([H])C([H])([H])C2([H])N([H])C(=O)C1([H])N(C(=O)C([H])(N([H])C(=O)C([H])(N([H])C([H])([H])[H])C([H])([H])[H])C(C([H])([H])[H])(C([H])([H])[H])C([H])([H])[H])C([H])([H])c2c([H])c(OC([H])([H])C([H])([H])C([H])([H])C([H])([H])C([H])([H])[N+]3([H])C([H])([H])C([H])([H])C([H])([N+]([H])([H])[H])C([H])(C([H])([H])N([H])C(=O)N4C([H])([H])C([H])([H])C([H])([H])C([H])(n5nc(-c6c([H])c([H])c(Oc7c([H])c([H])c(F)c([H])c7F)c([H])c6[H])c(C(=O)N([H])[H])c5N([H])[H])C4([H])[H])C3([H])[H])c([H])c([H])c2C1([H])[H]

$$$$
90:0:0
     RDKit          3D

 92100  0  0  1  0  0  0  0  0999 V2000
  -30.1620  -20.2260   20.2990 N   0  0  0  0  0  4  0  0  0  0  0  0
  -31.0820  -20.3400   19.9040 H   0  0  0  0  0  0  0  0  0  0  0  0
  -30.2560  -20.3830   21.2900 H   0  0  0  0  0  0  0  0  0  0  0  0
  -30.9910  -15.1440   19.5540 C   0  0  0  0  0  0  0  0  0  0  0  0
  -30.6750  -12.9060   18.4930 C   0  0  0  0  0  2  0  0  0  0  0  0
  -29.5650  -12.9740   17.4210 C   0  0  0  0  0  2  0  0  0  0  0  0
  -28.1860  -12.7170   18.0590 C   0  0  0  0  0  2  0  0  0  0  0  0
  -27.9570  -13.5630   19.3360 C   0  0  0  0  0  3  0  0  0  0  0  0
  -29.1720  -13.5200   20.2890 C   0  0  0  0  0  2  0  0  0  0  0  0
  -30.3560  -13.9230   19.5190 N   0  0  0  0  0  0  0  0  0  0  0  0
  -32.1550  -15.2390   19.1550 O   0  0  0  0  0  0  0  0  0  0  0  0
  -29.3110  -18.3110   18.7520 C   0  0  0  0  0  2  0  0  0  0  0  0
  -29.2280  -16.7720   18.8980 C   0  0  0  0  0  2  0  0  0  0  0  0
  -29.7390  -18.7600   20.1380 C   0  0  0  0  0  3  0  0  0  0  0  0
  -30.7830  -17.5910   20.4290 C   0  0  0  0  0  3  0  0  0  0  0  0
  -30.2550  -16.2940   19.8510 N   0  0  0  0  0  0  0  0  0  0  0  0
  -25.7240  -14.0840   20.4830 C   0  0  0  0  0  0  0  0  0  0  0  0
  -24.7250  -13.2730   20.9470 C   0  0  0  0  0  0  0  0  0  0  0  0
  -25.1750  -11.9350   20.7350 C   0  0  0  0  0  0  0  0  0  0  0  0
  -26.7120  -13.2330   20.0140 N   0  0  0  0  0  0  0  0  0  0  0  0
  -26.4020  -11.9320   20.2300 N   0  0  0  0  0  0  0  0  0  0  0  0
  -24.4860  -10.6540   20.9270 C   0  0  0  0  0  0  0  0  0  0  0  0
  -24.9220   -9.7210   21.8930 C   0  0  0  0  0  3  0  0  0  0  0  0
  -24.2330   -8.5030   22.0720 C   0  0  0  0  0  3  0  0  0  0  0  0
  -23.0940   -8.2100   21.2820 C   0  0  0  0  0  0  0  0  0  0  0  0
  -22.6800   -9.1320   20.3060 C   0  0  0  0  0  3  0  0  0  0  0  0
  -23.3710  -10.3420   20.1260 C   0  0  0  0  0  3  0  0  0  0  0  0
  -22.3770   -7.0420   21.3690 O   0  0  0  0  0  0  0  0  0  0  0  0
  -22.1050   -6.4530   22.5780 C   0  0  0  0  0  0  0  0  0  0  0  0
  -21.3910   -7.1280   23.5910 C   0  0  0  0  0  3  0  0  0  0  0  0
  -21.0730   -6.4600   24.7920 C   0  0  0  0  0  3  0  0  0  0  0  0
  -21.4590   -5.1200   24.9760 C   0  0  0  0  0  0  0  0  0  0  0  0
  -22.1660   -4.4450   23.9650 C   0  0  0  0  0  3  0  0  0  0  0  0
  -22.4860   -5.1090   22.7680 C   0  0  0  0  0  0  0  0  0  0  0  0
  -23.1490   -4.4480   21.7890 F   0  0  0  0  0  0  0  0  0  0  0  0
  -21.1460   -4.4750   26.1250 F   0  0  0  0  0  0  0  0  0  0  0  0
  -23.3860  -13.7130   21.4650 C   0  0  0  0  0  0  0  0  0  0  0  0
  -22.8220  -12.9710   22.4110 N   0  0  0  0  0  0  0  0  0  0  0  0
  -22.8530  -14.7460   21.0640 O   0  0  0  0  0  0  0  0  0  0  0  0
  -23.2690  -12.1350   22.7560 H   0  0  0  0  0  0  0  0  0  0  0  0
  -21.9300  -13.2450   22.7980 H   0  0  0  0  0  0  0  0  0  0  0  0
  -25.8600  -15.4660   20.3980 N   0  0  0  0  0  0  0  0  0  0  0  0
  -25.1220  -16.0990   20.6860 H   0  0  0  0  0  0  0  0  0  0  0  0
  -26.6550  -15.9420   19.9920 H   0  0  0  0  0  0  0  0  0  0  0  0
  -31.1910  -17.4490   21.9130 C   0  0  0  0  0  2  0  0  0  0  0  0
  -30.4620  -17.7990   24.3300 C   0  0  0  0  0  1  0  0  0  0  0  0
  -30.0220  -17.4100   22.9150 C   0  0  0  0  0  2  0  0  0  0  0  0
  -29.2820  -21.3550   19.7520 C   0  0  0  0  0  3  0  0  0  0  0  0
  -29.4180  -22.8210   20.4160 C   0  0  0  0  0  3  0  0  0  0  0  0
  -28.8510  -24.1370   19.6710 C   0  0  0  0  0  2  0  0  0  0  0  0
  -28.5880  -25.4720   20.5270 C   0  0  0  0  0  2  0  0  0  0  0  0
  -28.5750  -26.8240   19.9070 O   0  0  0  0  0  0  0  0  0  0  0  0
  -24.7170  -31.9830   23.2200 C   0  0  0  0  0  0  0  0  0  0  0  0
  -27.4160  -27.6090   19.9820 C   0  0  0  0  0  0  0  0  0  0  0  0
  -23.5210  -30.5840   21.5730 C   0  0  0  0  0  3  0  0  0  0  0  0
  -24.9880  -29.1190   20.0720 C   0  0  0  0  0  0  0  0  0  0  0  0
  -26.0380  -31.0070   21.3260 C   0  0  0  0  0  2  0  0  0  0  0  0
  -26.1530  -29.6460   20.6460 C   0  0  0  0  0  0  0  0  0  0  0  0
  -27.3720  -28.9050   20.5830 C   0  0  0  0  0  3  0  0  0  0  0  0
  -26.2270  -27.1250   19.4000 C   0  0  0  0  0  3  0  0  0  0  0  0
  -25.0270  -27.8640   19.4390 C   0  0  0  0  0  3  0  0  0  0  0  0
  -23.7210  -29.9460   20.1720 C   0  0  0  0  0  2  0  0  0  0  0  0
  -24.7790  -31.2080   22.0970 N   0  0  0  0  0  0  0  0  0  0  0  0
  -23.6400  -32.2050   23.7920 O   0  0  0  0  0  0  0  0  0  0  0  0
  -22.9220  -29.5210   22.5250 C   0  0  0  0  0  0  0  0  0  0  0  0
  -21.6050  -29.2780   22.4110 N   0  0  0  0  0  0  0  0  0  0  0  0
  -23.6410  -28.9160   23.3250 O   0  0  0  0  0  0  0  0  0  0  0  0
  -21.0800  -29.8220   21.7390 H   0  0  0  0  0  0  0  0  0  0  0  0
  -18.3020  -27.8920   22.9150 C   0  0  0  0  0  0  0  0  0  0  0  0
  -20.8440  -28.2870   23.1720 C   0  0  0  0  0  3  0  0  0  0  0  0
  -21.0190  -26.8710   22.5760 C   0  0  0  0  0  2  0  0  0  0  0  0
  -19.9300  -26.5030   21.5640 C   0  0  0  0  0  2  0  0  0  0  0  0
  -18.5470  -26.5640   22.2190 C   0  0  0  0  0  2  0  0  0  0  0  0
  -19.3810  -28.7080   23.3480 C   0  0  0  0  0  0  0  0  0  0  0  0
  -19.0970  -29.9500   23.9600 C   0  0  0  0  0  3  0  0  0  0  0  0
  -17.7680  -30.3760   24.1410 C   0  0  0  0  0  3  0  0  0  0  0  0
  -16.7040  -29.5580   23.7230 C   0  0  0  0  0  3  0  0  0  0  0  0
  -16.9720  -28.3170   23.1160 C   0  0  0  0  0  3  0  0  0  0  0  0
  -25.9930  -32.6470   23.8250 C   0  0  0  0  0  3  0  0  0  0  0  0
  -26.5410  -31.8910   25.0990 C   0  0  1  0  0  0  0  0  0  0  0  0
  -25.4600  -31.6140   26.1700 C   0  0  0  0  0  1  0  0  0  0  0  0
  -27.1710  -30.5360   24.7020 C   0  0  0  0  0  1  0  0  0  0  0  0
  -27.6650  -32.7240   25.7590 C   0  0  0  0  0  1  0  0  0  0  0  0
  -25.6570  -34.0390   24.1560 N   0  0  0  0  0  0  0  0  0  0  0  0
  -25.9470  -35.0960   23.3850 C   0  0  0  0  0  0  0  0  0  0  0  0
  -26.5950  -35.0030   22.3390 O   0  0  0  0  0  0  0  0  0  0  0  0
  -25.0770  -34.1830   24.9690 H   0  0  0  0  0  0  0  0  0  0  0  0
  -24.1640  -36.8420   23.0710 C   0  0  0  0  0  1  0  0  0  0  0  0
  -25.4370  -36.4750   23.8480 C   0  0  0  0  0  3  0  0  0  0  0  0
  -27.5700  -37.4230   24.6120 C   0  0  0  0  0  1  0  0  0  0  0  0
  -26.4390  -37.5530   23.6970 N   0  0  0  0  0  0  0  0  0  0  0  0
  -26.0140  -38.4640   23.8460 H   0  0  0  0  0  0  0  0  0  0  0  0
  1  3  1  0
  2  1  1  0
  4 16  1  0
  5 10  1  0
  6  7  1  0
  6  5  1  0
  8  7  1  0
  8 20  1  0
  8  9  1  0
 10  4  1  0
 10  9  1  0
 11  4  2  0
 12 13  1  0
 12 14  1  0
 13 16  1  0
 14  1  1  0
 14 15  1  0
 15 45  1  0
 16 15  1  0
 17 18  2  0
 18 37  1  0
 19 22  1  0
 19 18  1  0
 20 21  1  0
 20 17  1  0
 21 19  2  0
 22 23  1  0
 23 24  2  0
 25 28  1  0
 25 24  1  0
 26 25  2  0
 27 26  1  0
 27 22  2  0
 28 29  1  0
 29 34  2  0
 29 30  1  0
 30 31  2  0
 31 32  1  0
 32 36  1  0
 33 32  2  0
 34 33  1  0
 35 34  1  0
 37 38  1  0
 38 40  1  0
 38 41  1  0
 39 37  2  0
 42 17  1  0
 42 43  1  0
 44 42  1  0
 45 47  1  0
 47 46  1  0
 48  1  1  0
 48 49  2  0
 50 49  1  0
 50 51  1  0
 52 54  1  0
 52 51  1  0
 53 64  2  0
 54 59  1  0
 55 63  1  0
 55 65  1  0
 56 62  1  0
 56 58  1  0
 57 63  1  0
 58 57  1  0
 59 58  2  0
 60 61  1  0
 60 54  2  0
 61 56  2  0
 62 55  1  0
 63 53  1  0
 65 67  2  0
 66 65  1  0
 68 66  1  0
 69 78  2  0
 69 74  1  0
 70 66  1  0
 70 74  1  0
 71 70  1  0
 72 73  1  0
 72 71  1  0
 73 69  1  0
 74 75  2  0
 75 76  1  0
 77 76  2  0
 78 77  1  0
 79 53  1  0
 79 84  1  0
 79 80  1  0
 80 83  1  1
 80 81  1  0
 82 80  1  0
 84 87  1  0
 85 89  1  0
 85 84  1  0
 86 85  2  0
 89 88  1  0
 91 92  1  0
 91 89  1  0
 91 90  1  0
M  ISO  4   4 100  16 100  51 101  52 101
M  END
>  <TORSDO>  (91) 
F 22

>  <SCORE>  (91) 
-9.395

>  <name>  (91) 
90

>  <ligand_id>  (91) 
90

>  <original_smiles>  (91) 
[H]c1c([H])c([H])c2c(c1[H])C([H])([H])C([H])([H])C([H])([H])C2([H])N([H])C(=O)C1([H])N(C(=O)C([H])(N([H])C(=O)C([H])(N([H])C([H])([H])[H])C([H])([H])[H])C(C([H])([H])[H])(C([H])([H])[H])C([H])([H])[H])C([H])([H])c2c([H])c(OC([H])([H])C([H])([H])C([H])([H])C([H])([H])[N+]([H])([H])C3([H])C([H])([H])C([H])([H])N(C(=O)N4C([H])([H])C([H])([H])C([H])([H])C([H])(n5nc(-c6c([H])c([H])c(Oc7c([H])c([H])c(F)c([H])c7F)c([H])c6[H])c(C(=O)N([H])[H])c5N([H])[H])C4([H])[H])C3([H])C([H])([H])C([H])([H])C([H])([H])[H])c([H])c([H])c2C1([H])[H]

>  <smiles>  (91) 
[H]c1c([H])c([H])c2c(c1[H])C([H])([H])C([H])([H])C([H])([H])C2([H])N([H])C(=O)C1([H])N(C(=O)C([H])(N([H])C(=O)C([H])(N([H])C([H])([H])[H])C([H])([H])[H])C(C([H])([H])[H])(C([H])([H])[H])C([H])([H])[H])C([H])([H])c2c([H])c(OC([H])([H])C([H])([H])C([H])([H])C([H])([H])[N+]([H])([H])C3([H])C([H])([H])C([H])([H])N(C(=O)N4C([H])([H])C([H])([H])C([H])([H])C([H])(n5nc(-c6c([H])c([H])c(Oc7c([H])c([H])c(F)c([H])c7F)c([H])c6[H])c(C(=O)N([H])[H])c5N([H])[H])C4([H])[H])C3([H])C([H])([H])C([H])([H])C([H])([H])[H])c([H])c([H])c2C1([H])[H]

$$$$
91:0:0
     RDKit          3D

 98106  0  0  1  0  0  0  0  0999 V2000
  -28.1740  -17.7160   18.1300 C   0  0  0  0  0  2  0  0  0  0  0  0
  -28.8720  -18.4450   16.9610 C   0  0  0  0  0  2  0  0  0  0  0  0
  -29.1120  -17.0920   19.1790 C   0  0  0  0  0  2  0  0  0  0  0  0
  -30.5820  -20.1990   17.8820 C   0  0  0  0  0  2  0  0  0  0  0  0
  -30.9170  -19.4420   19.1980 C   0  0  0  0  0  2  0  0  0  0  0  0
  -29.2090  -19.9390   17.1960 C   0  0  0  0  0  3  0  0  0  0  0  0
  -29.3600  -17.9090   20.4790 C   0  0  0  0  0  3  0  0  0  0  0  0
  -29.7620  -19.3250   20.1380 N   0  0  1  0  0  4  0  0  0  0  0  0
  -28.9710  -19.5930   19.5780 H   0  0  0  0  0  0  0  0  0  0  0  0
  -29.1280  -20.6890   15.9210 N   0  0  0  0  0  4  0  0  0  0  0  0
  -29.8300  -20.3940   15.2640 H   0  0  0  0  0  0  0  0  0  0  0  0
  -29.2350  -21.6760   16.0670 H   0  0  0  0  0  0  0  0  0  0  0  0
  -28.2290  -20.5530   15.4860 H   0  0  0  0  0  0  0  0  0  0  0  0
  -30.3130  -17.1130   21.4420 C   0  0  0  0  0  2  0  0  0  0  0  0
  -30.7910  -14.6330   21.0830 C   0  0  0  0  0  0  0  0  0  0  0  0
  -30.5300  -12.6530   19.6430 C   0  0  0  0  0  2  0  0  0  0  0  0
  -29.6350  -13.0680   18.4550 C   0  0  0  0  0  2  0  0  0  0  0  0
  -28.1440  -12.8750   18.8020 C   0  0  0  0  0  2  0  0  0  0  0  0
  -27.7640  -13.4770   20.1800 C   0  0  0  0  0  3  0  0  0  0  0  0
  -28.7880  -13.1010   21.2770 C   0  0  0  0  0  2  0  0  0  0  0  0
  -30.1290  -13.4730   20.7970 N   0  0  0  0  0  0  0  0  0  0  0  0
  -31.9630  -14.8300   20.7600 O   0  0  0  0  0  0  0  0  0  0  0  0
  -30.0090  -15.6540   21.5040 N   0  0  0  0  0  0  0  0  0  0  0  0
  -29.0710  -15.3940   21.7670 H   0  0  0  0  0  0  0  0  0  0  0  0
  -25.3170  -14.0160   20.7330 C   0  0  0  0  0  0  0  0  0  0  0  0
  -24.2440  -13.2100   21.0000 C   0  0  0  0  0  0  0  0  0  0  0  0
  -24.7400  -11.8710   20.9670 C   0  0  0  0  0  0  0  0  0  0  0  0
  -26.3940  -13.1620   20.5570 N   0  0  0  0  0  0  0  0  0  0  0  0
  -26.0500  -11.8670   20.7540 N   0  0  0  0  0  0  0  0  0  0  0  0
  -24.0390  -10.5870   21.0720 C   0  0  0  0  0  0  0  0  0  0  0  0
  -24.4130   -9.6200   22.0300 C   0  0  0  0  0  3  0  0  0  0  0  0
  -23.7130   -8.3990   22.1220 C   0  0  0  0  0  3  0  0  0  0  0  0
  -22.6260   -8.1380   21.2550 C   0  0  0  0  0  0  0  0  0  0  0  0
  -22.2740   -9.0960   20.2860 C   0  0  0  0  0  3  0  0  0  0  0  0
  -22.9750  -10.3090   20.1920 C   0  0  0  0  0  3  0  0  0  0  0  0
  -21.9030   -6.9700   21.2540 O   0  0  0  0  0  0  0  0  0  0  0  0
  -21.7630   -6.2110   22.3860 C   0  0  0  0  0  0  0  0  0  0  0  0
  -21.1420   -6.7180   23.5490 C   0  0  0  0  0  3  0  0  0  0  0  0
  -20.9540   -5.8850   24.6690 C   0  0  0  0  0  3  0  0  0  0  0  0
  -21.3790   -4.5440   24.6270 C   0  0  0  0  0  0  0  0  0  0  0  0
  -21.9940   -4.0340   23.4690 C   0  0  0  0  0  3  0  0  0  0  0  0
  -22.1820   -4.8660   22.3520 C   0  0  0  0  0  0  0  0  0  0  0  0
  -22.7550   -4.3660   21.2310 F   0  0  0  0  0  0  0  0  0  0  0  0
  -21.1910   -3.7390   25.6990 F   0  0  0  0  0  0  0  0  0  0  0  0
  -22.8200  -13.6480   21.1890 C   0  0  0  0  0  0  0  0  0  0  0  0
  -22.0520  -12.9050   21.9760 N   0  0  0  0  0  0  0  0  0  0  0  0
  -22.3960  -14.6830   20.6740 O   0  0  0  0  0  0  0  0  0  0  0  0
  -22.4060  -12.0670   22.4140 H   0  0  0  0  0  0  0  0  0  0  0  0
  -21.0930  -13.1760   22.1470 H   0  0  0  0  0  0  0  0  0  0  0  0
  -25.4580  -15.3950   20.6060 N   0  0  0  0  0  0  0  0  0  0  0  0
  -24.6620  -16.0210   20.6580 H   0  0  0  0  0  0  0  0  0  0  0  0
  -26.3230  -15.8730   20.3960 H   0  0  0  0  0  0  0  0  0  0  0  0
  -29.7160  -20.3660   21.2230 C   0  0  0  0  0  2  0  0  0  0  0  0
  -29.6870  -21.8240   20.6520 C   0  0  0  0  0  2  0  0  0  0  0  0
  -29.5050  -23.0130   21.6340 C   0  0  0  0  0  2  0  0  0  0  0  0
  -29.5670  -24.3890   20.8970 C   0  0  0  0  0  2  0  0  0  0  0  0
  -29.2060  -25.6370   21.7430 C   0  0  0  0  0  2  0  0  0  0  0  0
  -29.2370  -26.8550   20.9680 O   0  0  0  0  0  0  0  0  0  0  0  0
  -24.9160  -31.9390   23.4810 C   0  0  0  0  0  0  0  0  0  0  0  0
  -28.0360  -27.5230   20.8460 C   0  0  0  0  0  0  0  0  0  0  0  0
  -23.9170  -30.3950   21.8280 C   0  0  0  0  0  3  0  0  0  0  0  0
  -25.5610  -28.8750   20.5970 C   0  0  0  0  0  0  0  0  0  0  0  0
  -26.4230  -30.8960   21.7900 C   0  0  0  0  0  2  0  0  0  0  0  0
  -26.6400  -29.5020   21.2340 C   0  0  0  0  0  0  0  0  0  0  0  0
  -27.8820  -28.8360   21.3510 C   0  0  0  0  0  3  0  0  0  0  0  0
  -26.9410  -26.9050   20.2010 C   0  0  0  0  0  3  0  0  0  0  0  0
  -25.7050  -27.5730   20.0810 C   0  0  0  0  0  3  0  0  0  0  0  0
  -24.2670  -29.6580   20.5070 C   0  0  0  0  0  2  0  0  0  0  0  0
  -25.0990  -31.0920   22.4290 N   0  0  0  0  0  0  0  0  0  0  0  0
  -23.7840  -32.1690   23.9300 O   0  0  0  0  0  0  0  0  0  0  0  0
  -23.2540  -29.3840   22.7910 C   0  0  0  0  0  0  0  0  0  0  0  0
  -21.9720  -29.0720   22.5450 N   0  0  0  0  0  0  0  0  0  0  0  0
  -23.8950  -28.8800   23.7150 O   0  0  0  0  0  0  0  0  0  0  0  0
  -21.5120  -29.5400   21.7760 H   0  0  0  0  0  0  0  0  0  0  0  0
  -18.6690  -27.6260   22.8040 C   0  0  0  0  0  0  0  0  0  0  0  0
  -21.1600  -28.1140   23.2940 C   0  0  0  0  0  3  0  0  0  0  0  0
  -21.4280  -26.6670   22.8240 C   0  0  0  0  0  2  0  0  0  0  0  0
  -20.4590  -26.1940   21.7350 C   0  0  0  0  0  2  0  0  0  0  0  0
  -19.0140  -26.2580   22.2360 C   0  0  0  0  0  2  0  0  0  0  0  0
  -19.6770  -28.5030   23.2850 C   0  0  0  0  0  0  0  0  0  0  0  0
  -19.3040  -29.7760   23.7700 C   0  0  0  0  0  3  0  0  0  0  0  0
  -17.9550  -30.1740   23.7820 C   0  0  0  0  0  3  0  0  0  0  0  0
  -16.9600  -29.2970   23.3160 C   0  0  0  0  0  3  0  0  0  0  0  0
  -17.3170  -28.0260   22.8320 C   0  0  0  0  0  3  0  0  0  0  0  0
  -26.1120  -32.6760   24.1590 C   0  0  0  0  0  3  0  0  0  0  0  0
  -26.5820  -31.9930   25.5010 C   0  0  1  0  0  0  0  0  0  0  0  0
  -25.4250  -31.6670   26.4760 C   0  0  0  0  0  1  0  0  0  0  0  0
  -27.3370  -30.6760   25.2050 C   0  0  0  0  0  1  0  0  0  0  0  0
  -27.5820  -32.9160   26.2360 C   0  0  0  0  0  1  0  0  0  0  0  0
  -25.6960  -34.0650   24.4020 N   0  0  0  0  0  0  0  0  0  0  0  0
  -25.9970  -35.0980   23.6030 C   0  0  0  0  0  0  0  0  0  0  0  0
  -26.7200  -34.9890   22.6100 O   0  0  0  0  0  0  0  0  0  0  0  0
  -25.0530  -34.2180   25.1640 H   0  0  0  0  0  0  0  0  0  0  0  0
  -24.1590  -36.7390   23.0970 C   0  0  0  0  0  1  0  0  0  0  0  0
  -25.4000  -36.4720   23.9630 C   0  0  0  0  0  3  0  0  0  0  0  0
  -27.4290  -37.5660   24.8100 C   0  0  0  0  0  1  0  0  0  0  0  0
  -26.3610  -37.5880   23.8150 N   0  0  0  0  0  0  0  0  0  0  0  0
  -25.8830  -38.4830   23.8830 H   0  0  0  0  0  0  0  0  0  0  0  0
  1  3  1  0
  2  6  1  0
  2  1  1  0
  3  7  1  0
  4  5  1  0
  5  8  1  0
  6 10  1  0
  6  4  1  0
  7 14  1  0
  8  7  1  0
  8 53  1  0
  8  9  1  6
 10 12  1  0
 11 10  1  0
 13 10  1  0
 14 23  1  0
 15 23  1  0
 16 21  1  0
 17 18  1  0
 17 16  1  0
 19 18  1  0
 19 28  1  0
 19 20  1  0
 21 15  1  0
 21 20  1  0
 22 15  2  0
 23 24  1  0
 25 26  2  0
 26 45  1  0
 27 26  1  0
 27 30  1  0
 28 25  1  0
 28 29  1  0
 29 27  2  0
 30 31  1  0
 31 32  2  0
 33 32  1  0
 34 33  2  0
 35 34  1  0
 35 30  2  0
 36 33  1  0
 36 37  1  0
 37 38  1  0
 38 39  2  0
 40 39  1  0
 40 44  1  0
 41 40  2  0
 42 37  2  0
 42 41  1  0
 43 42  1  0
 45 46  1  0
 46 49  1  0
 46 48  1  0
 47 45  2  0
 50 51  1  0
 50 25  1  0
 52 50  1  0
 54 53  1  0
 54 55  1  0
 56 55  1  0
 56 57  1  0
 58 57  1  0
 59 70  2  0
 60 58  1  0
 60 65  1  0
 61 69  1  0
 61 71  1  0
 62 64  1  0
 63 69  1  0
 64 65  2  0
 64 63  1  0
 66 60  2  0
 67 66  1  0
 67 62  2  0
 68 62  1  0
 68 61  1  0
 69 59  1  0
 71 73  2  0
 72 71  1  0
 74 72  1  0
 75 84  2  0
 75 80  1  0
 76 72  1  0
 77 76  1  0
 78 79  1  0
 78 77  1  0
 79 75  1  0
 80 76  1  0
 80 81  2  0
 81 82  1  0
 83 82  2  0
 84 83  1  0
 85 59  1  0
 85 90  1  0
 85 86  1  0
 86 89  1  1
 86 87  1  0
 88 86  1  0
 90 93  1  0
 91 95  1  0
 91 90  1  0
 92 91  2  0
 95 94  1  0
 97 98  1  0
 97 95  1  0
 97 96  1  0
M  ISO  4  15 100  23 100  57 101  58 101
M  END
>  <TORSDO>  (92) 
F 23

>  <SCORE>  (92) 
-12.530

>  <name>  (92) 
91

>  <ligand_id>  (92) 
91

>  <original_smiles>  (92) 
[H]c1c([H])c([H])c2c(c1[H])C([H])([H])C([H])([H])C([H])([H])C2([H])N([H])C(=O)C1([H])N(C(=O)C([H])(N([H])C(=O)C([H])(N([H])C([H])([H])[H])C([H])([H])[H])C(C([H])([H])[H])(C([H])([H])[H])C([H])([H])[H])C([H])([H])c2c([H])c(OC([H])([H])C([H])([H])C([H])([H])C([H])([H])C([H])([H])[N+]3([H])C([H])([H])C([H])([H])C([H])([N+]([H])([H])[H])C([H])([H])C([H])([H])C([H])([H])C3([H])C([H])([H])N([H])C(=O)N3C([H])([H])C([H])([H])C([H])([H])C([H])(n4nc(-c5c([H])c([H])c(Oc6c([H])c([H])c(F)c([H])c6F)c([H])c5[H])c(C(=O)N([H])[H])c4N([H])[H])C3([H])[H])c([H])c([H])c2C1([H])[H]

>  <smiles>  (92) 
[H]c1c([H])c([H])c2c(c1[H])C([H])([H])C([H])([H])C([H])([H])C2([H])N([H])C(=O)C1([H])N(C(=O)C([H])(N([H])C(=O)C([H])(N([H])C([H])([H])[H])C([H])([H])[H])C(C([H])([H])[H])(C([H])([H])[H])C([H])([H])[H])C([H])([H])c2c([H])c(OC([H])([H])C([H])([H])C([H])([H])C([H])([H])C([H])([H])[N+]3([H])C([H])([H])C([H])([H])C([H])([N+]([H])([H])[H])C([H])([H])C([H])([H])C([H])([H])C3([H])C([H])([H])N([H])C(=O)N3C([H])([H])C([H])([H])C([H])([H])C([H])(n4nc(-c5c([H])c([H])c(Oc6c([H])c([H])c(F)c([H])c6F)c([H])c5[H])c(C(=O)N([H])[H])c4N([H])[H])C3([H])[H])c([H])c([H])c2C1([H])[H]

$$$$
92:0:0
     RDKit          3D

 98107  0  0  1  0  0  0  0  0999 V2000
  -31.7160  -21.3390   19.4980 C   0  0  0  0  0  2  0  0  0  0  0  0
  -29.2550  -21.5610   19.3290 C   0  0  0  0  0  2  0  0  0  0  0  0
  -31.8440  -22.8610   19.6900 C   0  0  0  0  0  2  0  0  0  0  0  0
  -29.3930  -23.0850   19.4560 C   0  0  0  0  0  2  0  0  0  0  0  0
  -30.4970  -20.9940   18.6180 C   0  0  0  0  0  3  0  0  0  0  0  0
  -30.6010  -23.4720   20.2360 N   0  0  2  0  0  4  0  0  0  0  0  0
  -30.4930  -23.0920   21.1660 H   0  0  0  0  0  0  0  0  0  0  0  0
  -29.1970  -19.4310   17.1140 C   0  0  0  0  0  1  0  0  0  0  0  0
  -30.3770  -19.5170   18.1220 C   0  0  2  0  0  0  0  0  0  0  0  0
  -29.1140  -16.4190   20.0280 C   0  0  0  0  0  3  0  0  0  0  0  0
  -31.3600  -16.8880   20.7340 C   0  0  0  0  0  3  0  0  0  0  0  0
  -29.0500  -17.6750   19.3890 C   0  0  0  0  0  3  0  0  0  0  0  0
  -31.3100  -18.1350   20.0840 C   0  0  0  0  0  3  0  0  0  0  0  0
  -30.3360  -15.9290   20.5320 C   0  0  0  0  0  0  0  0  0  0  0  0
  -30.2120  -18.4740   19.2620 C   0  0  0  0  0  0  0  0  0  0  0  0
  -30.7870  -14.4850   20.3620 C   0  0  0  0  0  0  0  0  0  0  0  0
  -30.3120  -12.3280   19.3030 C   0  0  0  0  0  2  0  0  0  0  0  0
  -29.3950  -12.5040   18.0780 C   0  0  0  0  0  2  0  0  0  0  0  0
  -27.9330  -12.3230   18.5140 C   0  0  0  0  0  2  0  0  0  0  0  0
  -27.5730  -13.2220   19.7200 C   0  0  0  0  0  3  0  0  0  0  0  0
  -28.6420  -13.1870   20.8450 C   0  0  0  0  0  2  0  0  0  0  0  0
  -29.9720  -13.3960   20.2660 N   0  0  0  0  0  0  0  0  0  0  0  0
  -31.9700  -14.4000   20.0340 O   0  0  0  0  0  0  0  0  0  0  0  0
  -25.2040  -13.8450   20.4940 C   0  0  0  0  0  0  0  0  0  0  0  0
  -24.1390  -13.0740   20.8730 C   0  0  0  0  0  0  0  0  0  0  0  0
  -24.6020  -11.7230   20.8420 C   0  0  0  0  0  0  0  0  0  0  0  0
  -26.2390  -12.9560   20.2400 N   0  0  0  0  0  0  0  0  0  0  0  0
  -25.8870  -11.6790   20.5220 N   0  0  0  0  0  0  0  0  0  0  0  0
  -23.8810  -10.4610   21.0350 C   0  0  0  0  0  0  0  0  0  0  0  0
  -24.3210   -9.4970   21.9670 C   0  0  0  0  0  3  0  0  0  0  0  0
  -23.6020   -8.2960   22.1460 C   0  0  0  0  0  3  0  0  0  0  0  0
  -22.4310   -8.0520   21.3910 C   0  0  0  0  0  0  0  0  0  0  0  0
  -22.0120   -9.0060   20.4450 C   0  0  0  0  0  3  0  0  0  0  0  0
  -22.7320  -10.1970   20.2640 C   0  0  0  0  0  3  0  0  0  0  0  0
  -21.6800   -6.9050   21.4810 O   0  0  0  0  0  0  0  0  0  0  0  0
  -21.6350   -6.1650   22.6340 C   0  0  0  0  0  0  0  0  0  0  0  0
  -21.2000   -6.7180   23.8580 C   0  0  0  0  0  3  0  0  0  0  0  0
  -21.1010   -5.9010   25.0030 C   0  0  0  0  0  3  0  0  0  0  0  0
  -21.4270   -4.5340   24.9250 C   0  0  0  0  0  0  0  0  0  0  0  0
  -21.8560   -3.9820   23.7050 C   0  0  0  0  0  3  0  0  0  0  0  0
  -21.9560   -4.7950   22.5630 C   0  0  0  0  0  0  0  0  0  0  0  0
  -22.3480   -4.2520   21.3850 F   0  0  0  0  0  0  0  0  0  0  0  0
  -21.3260   -3.7500   26.0230 F   0  0  0  0  0  0  0  0  0  0  0  0
  -22.7440  -13.5510   21.1510 C   0  0  0  0  0  0  0  0  0  0  0  0
  -22.0180  -12.8530   22.0160 N   0  0  0  0  0  0  0  0  0  0  0  0
  -22.3050  -14.5780   20.6330 O   0  0  0  0  0  0  0  0  0  0  0  0
  -22.3860  -12.0240   22.4580 H   0  0  0  0  0  0  0  0  0  0  0  0
  -21.0810  -13.1540   22.2420 H   0  0  0  0  0  0  0  0  0  0  0  0
  -25.3670  -15.2150   20.3140 N   0  0  0  0  0  0  0  0  0  0  0  0
  -24.6030  -15.8690   20.4430 H   0  0  0  0  0  0  0  0  0  0  0  0
  -26.2110  -15.6600   19.9800 H   0  0  0  0  0  0  0  0  0  0  0  0
  -32.0510  -19.9700   16.0970 C   0  0  0  0  0  1  0  0  0  0  0  0
  -31.6480  -19.1000   17.3040 C   0  0  0  0  0  2  0  0  0  0  0  0
  -30.7430  -24.9440   20.3890 C   0  0  0  0  0  2  0  0  0  0  0  0
  -30.0180  -25.5100   21.6240 C   0  0  0  0  0  2  0  0  0  0  0  0
  -27.9770  -26.4210   22.7710 C   0  0  0  0  0  1  0  0  0  0  0  0
  -28.5330  -25.8730   21.4380 C   0  0  0  0  0  3  0  0  0  0  0  0
  -28.4620  -26.7780   20.3240 O   0  0  0  0  0  0  0  0  0  0  0  0
  -24.5990  -31.8950   23.2380 C   0  0  0  0  0  0  0  0  0  0  0  0
  -27.2970  -27.4870   20.2330 C   0  0  0  0  0  0  0  0  0  0  0  0
  -23.4110  -30.4690   21.5980 C   0  0  0  0  0  3  0  0  0  0  0  0
  -24.8870  -28.9340   20.1910 C   0  0  0  0  0  0  0  0  0  0  0  0
  -25.9270  -30.8650   21.4050 C   0  0  0  0  0  2  0  0  0  0  0  0
  -26.0300  -29.4950   20.7750 C   0  0  0  0  0  0  0  0  0  0  0  0
  -27.2420  -28.7830   20.7800 C   0  0  0  0  0  3  0  0  0  0  0  0
  -26.1490  -26.9260   19.6400 C   0  0  0  0  0  3  0  0  0  0  0  0
  -24.9400  -27.6510   19.6140 C   0  0  0  0  0  3  0  0  0  0  0  0
  -23.6310  -29.7740   20.2260 C   0  0  0  0  0  2  0  0  0  0  0  0
  -24.6630  -31.0900   22.1410 N   0  0  0  0  0  0  0  0  0  0  0  0
  -23.5130  -32.1650   23.7700 O   0  0  0  0  0  0  0  0  0  0  0  0
  -22.7620  -29.4530   22.5650 C   0  0  0  0  0  0  0  0  0  0  0  0
  -21.4400  -29.2620   22.4280 N   0  0  0  0  0  0  0  0  0  0  0  0
  -23.4430  -28.8400   23.3900 O   0  0  0  0  0  0  0  0  0  0  0  0
  -20.9530  -29.8090   21.7330 H   0  0  0  0  0  0  0  0  0  0  0  0
  -18.0680  -28.0650   22.9070 C   0  0  0  0  0  0  0  0  0  0  0  0
  -20.6220  -28.3280   23.1990 C   0  0  0  0  0  3  0  0  0  0  0  0
  -20.7320  -26.8950   22.6310 C   0  0  0  0  0  2  0  0  0  0  0  0
  -19.6390  -26.5640   21.6110 C   0  0  0  0  0  2  0  0  0  0  0  0
  -18.2520  -26.7110   22.2430 C   0  0  0  0  0  2  0  0  0  0  0  0
  -19.1810  -28.8320   23.3410 C   0  0  0  0  0  0  0  0  0  0  0  0
  -18.9570  -30.1020   23.9180 C   0  0  0  0  0  3  0  0  0  0  0  0
  -17.6490  -30.6020   24.0680 C   0  0  0  0  0  3  0  0  0  0  0  0
  -16.5500  -29.8320   23.6510 C   0  0  0  0  0  3  0  0  0  0  0  0
  -16.7600  -28.5660   23.0760 C   0  0  0  0  0  3  0  0  0  0  0  0
  -25.8780  -32.5360   23.8620 C   0  0  0  0  0  3  0  0  0  0  0  0
  -25.5610  -33.9320   24.1840 N   0  0  0  0  0  0  0  0  0  0  0  0
  -25.9000  -34.9810   23.4240 C   0  0  0  0  0  0  0  0  0  0  0  0
  -26.5830  -34.8760   22.4010 O   0  0  0  0  0  0  0  0  0  0  0  0
  -24.9540  -34.0890   24.9750 H   0  0  0  0  0  0  0  0  0  0  0  0
  -24.1740  -36.7680   23.0320 C   0  0  0  0  0  1  0  0  0  0  0  0
  -25.4000  -36.3690   23.8680 C   0  0  0  0  0  3  0  0  0  0  0  0
  -27.5160  -37.2610   24.7380 C   0  0  0  0  0  1  0  0  0  0  0  0
  -26.4320  -37.4240   23.7730 N   0  0  0  0  0  0  0  0  0  0  0  0
  -26.0200  -38.3430   23.9120 H   0  0  0  0  0  0  0  0  0  0  0  0
  -26.3990  -31.7700   25.1390 C   0  0  1  0  0  0  0  0  0  0  0  0
  -25.3050  -31.5190   26.2030 C   0  0  0  0  0  1  0  0  0  0  0  0
  -27.0000  -30.3990   24.7440 C   0  0  0  0  0  1  0  0  0  0  0  0
  -27.5380  -32.5770   25.8060 C   0  0  0  0  0  1  0  0  0  0  0  0
  1  3  1  0
  2  4  1  0
  3  6  1  0
  4  6  1  0
  5  9  1  0
  5  2  1  0
  5  1  1  0
  6 54  1  0
  6  7  1  1
  9  8  1  6
  9 15  1  0
 10 14  1  0
 12 10  2  0
 13 11  1  0
 14 11  2  0
 15 12  1  0
 15 13  2  0
 16 14  1  0
 17 22  1  0
 18 19  1  0
 18 17  1  0
 20 19  1  0
 20 27  1  0
 20 21  1  0
 22 16  1  0
 22 21  1  0
 23 16  2  0
 24 25  2  0
 25 44  1  0
 26 25  1  0
 26 29  1  0
 27 24  1  0
 27 28  1  0
 28 26  2  0
 29 30  1  0
 30 31  2  0
 32 35  1  0
 32 31  1  0
 33 32  2  0
 34 33  1  0
 34 29  2  0
 35 36  1  0
 36 37  1  0
 37 38  2  0
 39 38  1  0
 39 43  1  0
 40 39  2  0
 41 36  2  0
 41 40  1  0
 42 41  1  0
 44 45  1  0
 45 48  1  0
 45 47  1  0
 46 44  2  0
 49 50  1  0
 49 24  1  0
 51 49  1  0
 52 53  1  0
 53  9  1  0
 54 55  1  0
 57 55  1  0
 57 56  1  0
 58 57  1  0
 59 70  2  0
 60 58  1  0
 60 65  1  0
 61 69  1  0
 61 71  1  0
 62 68  1  0
 62 64  1  0
 63 69  1  0
 64 65  2  0
 64 63  1  0
 66 60  2  0
 67 66  1  0
 67 62  2  0
 68 61  1  0
 69 59  1  0
 71 73  2  0
 72 71  1  0
 74 72  1  0
 75 84  2  0
 75 80  1  0
 76 72  1  0
 76 80  1  0
 77 76  1  0
 78 79  1  0
 78 77  1  0
 79 75  1  0
 80 81  2  0
 81 82  1  0
 83 82  2  0
 84 83  1  0
 85 59  1  0
 85 86  1  0
 85 95  1  0
 86 89  1  0
 87 91  1  0
 87 86  1  0
 88 87  2  0
 91 90  1  0
 93 91  1  0
 93 94  1  0
 93 92  1  0
 95 98  1  1
 95 96  1  0
 97 95  1  0
M  ISO  4  14 100  16 100  57 101  58 101
M  END
>  <TORSDO>  (93) 
F 22

>  <SCORE>  (93) 
-13.577

>  <name>  (93) 
92

>  <ligand_id>  (93) 
92

>  <original_smiles>  (93) 
[H]c1c([H])c([H])c2c(c1[H])C([H])([H])C([H])([H])C([H])([H])C2([H])N([H])C(=O)C1([H])N(C(=O)C([H])(N([H])C(=O)C([H])(N([H])C([H])([H])[H])C([H])([H])[H])C(C([H])([H])[H])(C([H])([H])[H])C([H])([H])[H])C([H])([H])c2c([H])c(OC([H])(C([H])([H])[H])C([H])([H])C([H])([H])[N+]3([H])C([H])([H])C([H])([H])C([H])(C(c4c([H])c([H])c(C(=O)N5C([H])([H])C([H])([H])C([H])([H])C([H])(n6nc(-c7c([H])c([H])c(Oc8c([H])c([H])c(F)c([H])c8F)c([H])c7[H])c(C(=O)N([H])[H])c6N([H])[H])C5([H])[H])c([H])c4[H])(C([H])([H])[H])C([H])([H])C([H])([H])[H])C([H])([H])C3([H])[H])c([H])c([H])c2C1([H])[H]

>  <smiles>  (93) 
[H]c1c([H])c([H])c2c(c1[H])C([H])([H])C([H])([H])C([H])([H])C2([H])N([H])C(=O)C1([H])N(C(=O)C([H])(N([H])C(=O)C([H])(N([H])C([H])([H])[H])C([H])([H])[H])C(C([H])([H])[H])(C([H])([H])[H])C([H])([H])[H])C([H])([H])c2c([H])c(OC([H])(C([H])([H])[H])C([H])([H])C([H])([H])[N+]3([H])C([H])([H])C([H])([H])C([H])(C(c4c([H])c([H])c(C(=O)N5C([H])([H])C([H])([H])C([H])([H])C([H])(n6nc(-c7c([H])c([H])c(Oc8c([H])c([H])c(F)c([H])c8F)c([H])c7[H])c(C(=O)N([H])[H])c6N([H])[H])C5([H])[H])c([H])c4[H])(C([H])([H])[H])C([H])([H])C([H])([H])[H])C([H])([H])C3([H])[H])c([H])c([H])c2C1([H])[H]

$$$$
93:0:0
     RDKit          3D

 98106  0  0  1  0  0  0  0  0999 V2000
  -29.3550  -22.9810   20.1710 C   0  0  0  0  0  0  0  0  0  0  0  0
  -29.7880  -23.1290   19.0260 O   0  0  0  0  0  0  0  0  0  0  0  0
  -29.7890  -21.7240   21.0020 C   0  0  0  0  0  2  0  0  0  0  0  0
  -29.2870  -19.2850   21.6040 C   0  0  0  0  0  2  0  0  0  0  0  0
  -29.1790  -17.7870   21.2220 C   0  0  0  0  0  2  0  0  0  0  0  0
  -30.9240  -19.6360   19.7510 C   0  0  0  0  0  2  0  0  0  0  0  0
  -29.6560  -20.2400   20.4370 C   0  0  0  0  0  3  0  0  0  0  0  0
  -30.4680  -17.1890   20.6020 C   0  0  0  0  0  3  0  0  0  0  0  0
  -30.8540  -18.0980   19.3870 C   0  0  0  0  0  3  0  0  0  0  0  0
  -30.9850  -14.6990   19.8760 C   0  0  0  0  0  0  0  0  0  0  0  0
  -30.6590  -12.4960   18.7780 C   0  0  0  0  0  2  0  0  0  0  0  0
  -29.6100  -12.6410   17.6540 C   0  0  0  0  0  2  0  0  0  0  0  0
  -28.1780  -12.4920   18.2100 C   0  0  0  0  0  2  0  0  0  0  0  0
  -27.9360  -13.3580   19.4730 C   0  0  0  0  0  3  0  0  0  0  0  0
  -29.0810  -13.1650   20.4950 C   0  0  0  0  0  2  0  0  0  0  0  0
  -30.3450  -13.4940   19.8150 N   0  0  0  0  0  0  0  0  0  0  0  0
  -32.0920  -14.8970   19.3690 O   0  0  0  0  0  0  0  0  0  0  0  0
  -30.2310  -15.7270   20.3480 N   0  0  0  0  0  0  0  0  0  0  0  0
  -29.3220  -15.4130   20.6520 H   0  0  0  0  0  0  0  0  0  0  0  0
  -25.6380  -14.0060   20.4290 C   0  0  0  0  0  0  0  0  0  0  0  0
  -24.5800  -13.2530   20.8590 C   0  0  0  0  0  0  0  0  0  0  0  0
  -24.9860  -11.8900   20.7240 C   0  0  0  0  0  0  0  0  0  0  0  0
  -26.6250  -13.1030   20.0640 N   0  0  0  0  0  0  0  0  0  0  0  0
  -26.2420  -11.8230   20.2990 N   0  0  0  0  0  0  0  0  0  0  0  0
  -24.2340  -10.6440   20.9210 C   0  0  0  0  0  0  0  0  0  0  0  0
  -24.6470   -9.6750   21.8610 C   0  0  0  0  0  3  0  0  0  0  0  0
  -23.8990   -8.4920   22.0450 C   0  0  0  0  0  3  0  0  0  0  0  0
  -22.7230   -8.2710   21.2890 C   0  0  0  0  0  0  0  0  0  0  0  0
  -22.3290   -9.2300   20.3390 C   0  0  0  0  0  3  0  0  0  0  0  0
  -23.0780  -10.4030   20.1520 C   0  0  0  0  0  3  0  0  0  0  0  0
  -21.9470   -7.1410   21.3820 O   0  0  0  0  0  0  0  0  0  0  0  0
  -21.7880   -6.4740   22.5700 C   0  0  0  0  0  0  0  0  0  0  0  0
  -21.2280   -7.0980   23.7060 C   0  0  0  0  0  3  0  0  0  0  0  0
  -21.0180   -6.3570   24.8850 C   0  0  0  0  0  3  0  0  0  0  0  0
  -21.3570   -4.9900   24.9280 C   0  0  0  0  0  0  0  0  0  0  0  0
  -21.9080   -4.3660   23.7960 C   0  0  0  0  0  3  0  0  0  0  0  0
  -22.1200   -5.1050   22.6190 C   0  0  0  0  0  0  0  0  0  0  0  0
  -22.6320   -4.4940   21.5240 F   0  0  0  0  0  0  0  0  0  0  0  0
  -21.1470   -4.2750   26.0580 F   0  0  0  0  0  0  0  0  0  0  0  0
  -23.2300  -13.7600   21.2800 C   0  0  0  0  0  0  0  0  0  0  0  0
  -22.5600  -13.0490   22.1770 N   0  0  0  0  0  0  0  0  0  0  0  0
  -22.7830  -14.8220   20.8460 O   0  0  0  0  0  0  0  0  0  0  0  0
  -22.9370  -12.1890   22.5500 H   0  0  0  0  0  0  0  0  0  0  0  0
  -21.6570  -13.3680   22.4980 H   0  0  0  0  0  0  0  0  0  0  0  0
  -25.8360  -15.3770   20.2980 N   0  0  0  0  0  0  0  0  0  0  0  0
  -25.0990  -16.0460   20.4940 H   0  0  0  0  0  0  0  0  0  0  0  0
  -26.6500  -15.8020   19.8730 H   0  0  0  0  0  0  0  0  0  0  0  0
  -32.1220  -17.6430   18.7880 N   0  0  0  0  0  4  0  0  0  0  0  0
  -32.9060  -17.9060   19.3570 H   0  0  0  0  0  0  0  0  0  0  0  0
  -32.2490  -18.0220   17.8660 H   0  0  0  0  0  0  0  0  0  0  0  0
  -32.1190  -16.6290   18.7330 H   0  0  0  0  0  0  0  0  0  0  0  0
  -28.3100  -23.9770   20.8090 C   0  0  0  0  0  3  0  0  0  0  0  0
  -27.0370  -23.7640   20.0960 N   0  0  0  0  0  4  0  0  0  0  0  0
  -26.2730  -24.1850   20.5930 H   0  0  0  0  0  0  0  0  0  0  0  0
  -26.8530  -22.7790   20.0150 H   0  0  0  0  0  0  0  0  0  0  0  0
  -27.0920  -24.1410   19.1650 H   0  0  0  0  0  0  0  0  0  0  0  0
  -28.6960  -25.5110   21.0180 C   0  0  0  0  0  2  0  0  0  0  0  0
  -28.4850  -26.5460   19.9990 O   0  0  0  0  0  0  0  0  0  0  0  0
  -24.6510  -31.7860   23.1960 C   0  0  0  0  0  0  0  0  0  0  0  0
  -27.3480  -27.3460   20.0760 C   0  0  0  0  0  0  0  0  0  0  0  0
  -23.4740  -30.3970   21.5290 C   0  0  0  0  0  3  0  0  0  0  0  0
  -24.9540  -28.8920   20.0900 C   0  0  0  0  0  0  0  0  0  0  0  0
  -26.0070  -30.7610   21.3620 C   0  0  0  0  0  2  0  0  0  0  0  0
  -26.1090  -29.3920   20.7060 C   0  0  0  0  0  0  0  0  0  0  0  0
  -27.3100  -28.6250   20.7030 C   0  0  0  0  0  3  0  0  0  0  0  0
  -26.1830  -26.9030   19.4190 C   0  0  0  0  0  3  0  0  0  0  0  0
  -24.9900  -27.6460   19.4440 C   0  0  0  0  0  3  0  0  0  0  0  0
  -23.7030  -29.7450   20.1400 C   0  0  0  0  0  2  0  0  0  0  0  0
  -24.7290  -30.9980   22.0860 N   0  0  0  0  0  0  0  0  0  0  0  0
  -23.5630  -32.0380   23.7340 O   0  0  0  0  0  0  0  0  0  0  0  0
  -22.8280  -29.3510   22.4680 C   0  0  0  0  0  0  0  0  0  0  0  0
  -21.5040  -29.1630   22.3410 N   0  0  0  0  0  0  0  0  0  0  0  0
  -23.5170  -28.7120   23.2680 O   0  0  0  0  0  0  0  0  0  0  0  0
  -21.0060  -29.7330   21.6710 H   0  0  0  0  0  0  0  0  0  0  0  0
  -18.1350  -27.9500   22.8500 C   0  0  0  0  0  0  0  0  0  0  0  0
  -20.6970  -28.2020   23.0970 C   0  0  0  0  0  3  0  0  0  0  0  0
  -20.7920  -26.7860   22.4790 C   0  0  0  0  0  2  0  0  0  0  0  0
  -19.6760  -26.4940   21.4720 C   0  0  0  0  0  2  0  0  0  0  0  0
  -18.3030  -26.6200   22.1360 C   0  0  0  0  0  2  0  0  0  0  0  0
  -19.2590  -28.6990   23.2880 C   0  0  0  0  0  0  0  0  0  0  0  0
  -19.0470  -29.9460   23.9160 C   0  0  0  0  0  3  0  0  0  0  0  0
  -17.7450  -30.4420   24.1130 C   0  0  0  0  0  3  0  0  0  0  0  0
  -16.6350  -29.6880   23.6930 C   0  0  0  0  0  3  0  0  0  0  0  0
  -16.8320  -28.4450   23.0650 C   0  0  0  0  0  3  0  0  0  0  0  0
  -25.9250  -32.4270   23.8290 C   0  0  0  0  0  3  0  0  0  0  0  0
  -25.5990  -33.8210   24.1610 N   0  0  0  0  0  0  0  0  0  0  0  0
  -25.9290  -34.8790   23.4080 C   0  0  0  0  0  0  0  0  0  0  0  0
  -26.6100  -34.7860   22.3820 O   0  0  0  0  0  0  0  0  0  0  0  0
  -24.9950  -33.9670   24.9560 H   0  0  0  0  0  0  0  0  0  0  0  0
  -24.2040  -36.6690   23.0300 C   0  0  0  0  0  1  0  0  0  0  0  0
  -25.4270  -36.2610   23.8670 C   0  0  0  0  0  3  0  0  0  0  0  0
  -27.5290  -37.1550   24.7670 C   0  0  0  0  0  1  0  0  0  0  0  0
  -26.4580  -37.3180   23.7890 N   0  0  0  0  0  0  0  0  0  0  0  0
  -26.0430  -38.2360   23.9270 H   0  0  0  0  0  0  0  0  0  0  0  0
  -26.4370  -31.6560   25.1070 C   0  0  1  0  0  0  0  0  0  0  0  0
  -25.3340  -31.4000   26.1610 C   0  0  0  0  0  1  0  0  0  0  0  0
  -27.0420  -30.2890   24.7150 C   0  0  0  0  0  1  0  0  0  0  0  0
  -27.5670  -32.4640   25.7860 C   0  0  0  0  0  1  0  0  0  0  0  0
  1 52  1  0
  1  3  1  0
  2  1  2  0
  5  4  1  0
  6  7  1  0
  7  3  1  0
  7  4  1  0
  8 18  1  0
  8  5  1  0
  9 48  1  0
  9  6  1  0
  9  8  1  0
 10 18  1  0
 11 16  1  0
 12 13  1  0
 12 11  1  0
 14 13  1  0
 14 23  1  0
 14 15  1  0
 16 10  1  0
 16 15  1  0
 17 10  2  0
 18 19  1  0
 20 21  2  0
 21 40  1  0
 22 21  1  0
 22 25  1  0
 23 24  1  0
 23 20  1  0
 24 22  2  0
 25 26  1  0
 26 27  2  0
 28 31  1  0
 28 27  1  0
 29 28  2  0
 30 29  1  0
 30 25  2  0
 31 32  1  0
 32 37  2  0
 32 33  1  0
 33 34  2  0
 34 35  1  0
 35 39  1  0
 36 35  2  0
 37 36  1  0
 38 37  1  0
 40 41  1  0
 41 44  1  0
 41 43  1  0
 42 40  2  0
 45 20  1  0
 45 46  1  0
 47 45  1  0
 48 49  1  0
 50 48  1  0
 51 48  1  0
 52 57  1  0
 53 54  1  0
 53 52  1  0
 55 53  1  0
 56 53  1  0
 58 60  1  0
 58 57  1  0
 59 70  2  0
 60 65  1  0
 61 69  1  0
 61 71  1  0
 62 68  1  0
 62 64  1  0
 63 69  1  0
 64 63  1  0
 65 64  2  0
 66 67  1  0
 66 60  2  0
 67 62  2  0
 68 61  1  0
 69 59  1  0
 71 73  2  0
 72 71  1  0
 74 72  1  0
 75 84  2  0
 75 80  1  0
 76 72  1  0
 76 80  1  0
 77 76  1  0
 78 79  1  0
 78 77  1  0
 79 75  1  0
 80 81  2  0
 81 82  1  0
 83 82  2  0
 84 83  1  0
 85 59  1  0
 85 86  1  0
 85 95  1  0
 86 89  1  0
 87 91  1  0
 87 86  1  0
 88 87  2  0
 91 90  1  0
 93 91  1  0
 93 94  1  0
 93 92  1  0
 95 98  1  1
 95 96  1  0
 97 95  1  0
M  ISO  4  10 100  18 100  57 101  58 101
M  END
>  <TORSDO>  (94) 
F 22

>  <SCORE>  (94) 
-12.158

>  <name>  (94) 
93

>  <ligand_id>  (94) 
93

>  <original_smiles>  (94) 
[H]c1c([H])c([H])c2c(c1[H])C([H])([H])C([H])([H])C([H])([H])C2([H])N([H])C(=O)C1([H])N(C(=O)C([H])(N([H])C(=O)C([H])(N([H])C([H])([H])[H])C([H])([H])[H])C(C([H])([H])[H])(C([H])([H])[H])C([H])([H])[H])C([H])([H])c2c([H])c(OC([H])([H])C([H])(C(=O)C([H])([H])C3([H])C([H])([H])C([H])([H])C([H])(N([H])C(=O)N4C([H])([H])C([H])([H])C([H])([H])C([H])(n5nc(-c6c([H])c([H])c(Oc7c([H])c([H])c(F)c([H])c7F)c([H])c6[H])c(C(=O)N([H])[H])c5N([H])[H])C4([H])[H])C([H])([N+]([H])([H])[H])C3([H])[H])[N+]([H])([H])[H])c([H])c([H])c2C1([H])[H]

>  <smiles>  (94) 
[H]c1c([H])c([H])c2c(c1[H])C([H])([H])C([H])([H])C([H])([H])C2([H])N([H])C(=O)C1([H])N(C(=O)C([H])(N([H])C(=O)C([H])(N([H])C([H])([H])[H])C([H])([H])[H])C(C([H])([H])[H])(C([H])([H])[H])C([H])([H])[H])C([H])([H])c2c([H])c(OC([H])([H])C([H])(C(=O)C([H])([H])C3([H])C([H])([H])C([H])([H])C([H])(N([H])C(=O)N4C([H])([H])C([H])([H])C([H])([H])C([H])(n5nc(-c6c([H])c([H])c(Oc7c([H])c([H])c(F)c([H])c7F)c([H])c6[H])c(C(=O)N([H])[H])c5N([H])[H])C4([H])[H])C([H])([N+]([H])([H])[H])C3([H])[H])[N+]([H])([H])[H])c([H])c([H])c2C1([H])[H]

$$$$
94:0:0
     RDKit          3D

 92100  0  0  1  0  0  0  0  0999 V2000
  -29.2000  -21.8700   21.2980 C   0  0  0  0  0  0  0  0  0  0  0  0
  -28.7850  -20.9640   19.0780 C   0  0  0  0  0  2  0  0  0  0  0  0
  -28.6250  -22.5010   19.0810 C   0  0  0  0  0  2  0  0  0  0  0  0
  -29.1250  -20.5320   20.5290 C   0  0  0  0  0  3  0  0  0  0  0  0
  -28.3200  -22.8590   20.5370 C   0  0  0  0  0  3  0  0  0  0  0  0
  -29.8420  -22.1210   22.3620 N   0  0  0  0  0  0  0  0  0  0  0  0
  -29.7370  -23.0830   22.6670 H   0  0  0  0  0  0  0  0  0  0  0  0
  -30.3160  -19.5250   20.6230 C   0  0  0  0  0  0  0  0  0  0  0  0
  -31.4590  -19.8710   20.9390 O   0  0  0  0  0  0  0  0  0  0  0  0
  -30.0380  -18.0380   20.2460 C   0  0  0  0  0  3  0  0  0  0  0  0
  -30.6830  -16.9840   21.1920 C   0  0  0  0  0  3  0  0  0  0  0  0
  -30.7150  -14.5460   20.4710 C   0  0  0  0  0  0  0  0  0  0  0  0
  -30.3520  -12.3820   19.3360 C   0  0  0  0  0  2  0  0  0  0  0  0
  -29.4040  -12.5630   18.1320 C   0  0  0  0  0  2  0  0  0  0  0  0
  -27.9380  -12.4160   18.5760 C   0  0  0  0  0  2  0  0  0  0  0  0
  -27.6040  -13.2730   19.8250 C   0  0  0  0  0  3  0  0  0  0  0  0
  -28.6720  -13.1020   20.9340 C   0  0  0  0  0  2  0  0  0  0  0  0
  -29.9940  -13.3920   20.3500 N   0  0  0  0  0  0  0  0  0  0  0  0
  -31.8200  -14.6820   19.9470 O   0  0  0  0  0  0  0  0  0  0  0  0
  -30.1280  -15.5990   21.0790 N   0  0  0  0  0  0  0  0  0  0  0  0
  -29.2510  -15.4150   21.5450 H   0  0  0  0  0  0  0  0  0  0  0  0
  -25.2090  -13.8680   20.5350 C   0  0  0  0  0  0  0  0  0  0  0  0
  -24.1380  -13.0940   20.9030 C   0  0  0  0  0  0  0  0  0  0  0  0
  -24.6010  -11.7450   20.8760 C   0  0  0  0  0  0  0  0  0  0  0  0
  -26.2540  -12.9890   20.3060 N   0  0  0  0  0  0  0  0  0  0  0  0
  -25.8920  -11.7050   20.5700 N   0  0  0  0  0  0  0  0  0  0  0  0
  -23.8730  -10.4820   21.0680 C   0  0  0  0  0  0  0  0  0  0  0  0
  -24.3100   -9.5100   21.9950 C   0  0  0  0  0  3  0  0  0  0  0  0
  -23.5870   -8.3110   22.1730 C   0  0  0  0  0  3  0  0  0  0  0  0
  -22.4080   -8.0780   21.4260 C   0  0  0  0  0  0  0  0  0  0  0  0
  -21.9880   -9.0360   20.4860 C   0  0  0  0  0  3  0  0  0  0  0  0
  -22.7140  -10.2260   20.3070 C   0  0  0  0  0  3  0  0  0  0  0  0
  -21.6520   -6.9350   21.5160 O   0  0  0  0  0  0  0  0  0  0  0  0
  -21.6180   -6.1850   22.6640 C   0  0  0  0  0  0  0  0  0  0  0  0
  -21.2180   -6.7340   23.9020 C   0  0  0  0  0  3  0  0  0  0  0  0
  -21.1300   -5.9090   25.0410 C   0  0  0  0  0  3  0  0  0  0  0  0
  -21.4330   -4.5380   24.9430 C   0  0  0  0  0  0  0  0  0  0  0  0
  -21.8240   -3.9880   23.7110 C   0  0  0  0  0  3  0  0  0  0  0  0
  -21.9140   -4.8090   22.5730 C   0  0  0  0  0  0  0  0  0  0  0  0
  -22.2730   -4.2720   21.3820 F   0  0  0  0  0  0  0  0  0  0  0  0
  -21.3390   -3.7410   26.0350 F   0  0  0  0  0  0  0  0  0  0  0  0
  -22.7410  -13.5740   21.1730 C   0  0  0  0  0  0  0  0  0  0  0  0
  -22.0150  -12.8740   22.0400 N   0  0  0  0  0  0  0  0  0  0  0  0
  -22.3020  -14.5990   20.6560 O   0  0  0  0  0  0  0  0  0  0  0  0
  -22.3830  -12.0420   22.4750 H   0  0  0  0  0  0  0  0  0  0  0  0
  -21.0790  -13.1780   22.2700 H   0  0  0  0  0  0  0  0  0  0  0  0
  -25.3770  -15.2350   20.3550 N   0  0  0  0  0  0  0  0  0  0  0  0
  -24.6210  -15.9030   20.4830 H   0  0  0  0  0  0  0  0  0  0  0  0
  -26.2350  -15.6700   20.0300 H   0  0  0  0  0  0  0  0  0  0  0  0
  -28.3030  -24.3770   20.9540 C   0  0  0  0  0  2  0  0  0  0  0  0
  -28.6080  -25.4100   19.8330 C   0  0  0  0  0  2  0  0  0  0  0  0
  -28.4600  -26.7810   20.2430 O   0  0  0  0  0  0  0  0  0  0  0  0
  -24.5860  -31.9000   23.2430 C   0  0  0  0  0  0  0  0  0  0  0  0
  -27.2430  -27.4420   20.1990 C   0  0  0  0  0  0  0  0  0  0  0  0
  -23.3710  -30.4920   21.6100 C   0  0  0  0  0  3  0  0  0  0  0  0
  -24.8270  -28.9360   20.1920 C   0  0  0  0  0  0  0  0  0  0  0  0
  -25.8940  -30.8480   21.3980 C   0  0  0  0  0  2  0  0  0  0  0  0
  -25.9810  -29.4730   20.7690 C   0  0  0  0  0  0  0  0  0  0  0  0
  -27.1850  -28.7350   20.7680 C   0  0  0  0  0  3  0  0  0  0  0  0
  -26.0670  -26.9150   19.6120 C   0  0  0  0  0  3  0  0  0  0  0  0
  -24.8650  -27.6550   19.6080 C   0  0  0  0  0  3  0  0  0  0  0  0
  -23.5770  -29.7930   20.2360 C   0  0  0  0  0  2  0  0  0  0  0  0
  -24.6360  -31.0950   22.1420 N   0  0  0  0  0  0  0  0  0  0  0  0
  -23.5070  -32.1800   23.7840 O   0  0  0  0  0  0  0  0  0  0  0  0
  -22.7250  -29.4780   22.5810 C   0  0  0  0  0  0  0  0  0  0  0  0
  -21.4000  -29.2950   22.4570 N   0  0  0  0  0  0  0  0  0  0  0  0
  -23.4110  -28.8580   23.3990 O   0  0  0  0  0  0  0  0  0  0  0  0
  -20.9050  -29.8530   21.7730 H   0  0  0  0  0  0  0  0  0  0  0  0
  -18.0320  -28.1000   22.9610 C   0  0  0  0  0  0  0  0  0  0  0  0
  -20.5880  -28.3620   23.2330 C   0  0  0  0  0  3  0  0  0  0  0  0
  -20.6910  -26.9260   22.6680 C   0  0  0  0  0  2  0  0  0  0  0  0
  -19.5900  -26.5920   21.6570 C   0  0  0  0  0  2  0  0  0  0  0  0
  -18.2060  -26.7460   22.2930 C   0  0  0  0  0  2  0  0  0  0  0  0
  -19.1480  -28.8640   23.3880 C   0  0  0  0  0  0  0  0  0  0  0  0
  -18.9260  -30.1300   23.9730 C   0  0  0  0  0  3  0  0  0  0  0  0
  -17.6230  -30.6300   24.1340 C   0  0  0  0  0  3  0  0  0  0  0  0
  -16.5180  -29.8600   23.7280 C   0  0  0  0  0  3  0  0  0  0  0  0
  -16.7240  -28.5980   23.1440 C   0  0  0  0  0  3  0  0  0  0  0  0
  -25.8770  -32.5320   23.8550 C   0  0  0  0  0  3  0  0  0  0  0  0
  -25.5700  -33.9310   24.1840 N   0  0  0  0  0  0  0  0  0  0  0  0
  -25.9020  -34.9800   23.4210 C   0  0  0  0  0  0  0  0  0  0  0  0
  -26.5740  -34.8770   22.3910 O   0  0  0  0  0  0  0  0  0  0  0  0
  -24.9760  -34.0890   24.9870 H   0  0  0  0  0  0  0  0  0  0  0  0
  -24.1800  -36.7740   23.0560 C   0  0  0  0  0  1  0  0  0  0  0  0
  -25.4170  -36.3700   23.8740 C   0  0  0  0  0  3  0  0  0  0  0  0
  -27.5500  -37.2530   24.7120 C   0  0  0  0  0  1  0  0  0  0  0  0
  -26.4530  -37.4210   23.7610 N   0  0  0  0  0  0  0  0  0  0  0  0
  -26.0470  -38.3430   23.9040 H   0  0  0  0  0  0  0  0  0  0  0  0
  -26.4000  -31.7640   25.1300 C   0  0  1  0  0  0  0  0  0  0  0  0
  -25.3130  -31.5290   26.2060 C   0  0  0  0  0  1  0  0  0  0  0  0
  -26.9820  -30.3870   24.7370 C   0  0  0  0  0  1  0  0  0  0  0  0
  -27.5560  -32.5590   25.7840 C   0  0  0  0  0  1  0  0  0  0  0  0
  1  6  2  0
  2  3  1  0
  2  4  1  0
  3  5  1  0
  4  8  1  0
  4  1  1  0
  5 50  1  0
  5  1  1  0
  6  7  1  0
  8  9  2  0
 10  8  1  0
 10 11  2  0
 12 20  1  0
 13 18  1  0
 14 15  1  0
 14 13  1  0
 16 15  1  0
 16 25  1  0
 16 17  1  0
 18 12  1  0
 18 17  1  0
 19 12  2  0
 20 11  1  0
 20 21  1  0
 22 23  2  0
 23 42  1  0
 24 23  1  0
 24 27  1  0
 25 22  1  0
 25 26  1  0
 26 24  2  0
 27 28  1  0
 28 29  2  0
 30 33  1  0
 30 29  1  0
 31 30  2  0
 32 31  1  0
 32 27  2  0
 33 34  1  0
 34 35  1  0
 35 36  2  0
 37 36  1  0
 37 41  1  0
 38 37  2  0
 39 34  2  0
 39 38  1  0
 40 39  1  0
 42 43  1  0
 43 46  1  0
 43 45  1  0
 44 42  2  0
 47 48  1  0
 47 22  1  0
 49 47  1  0
 51 52  1  0
 51 50  1  0
 53 64  2  0
 54 52  1  0
 54 59  1  0
 55 63  1  0
 55 65  1  0
 56 62  1  0
 56 58  1  0
 57 63  1  0
 58 57  1  0
 59 58  2  0
 60 54  2  0
 61 60  1  0
 61 56  2  0
 62 55  1  0
 63 53  1  0
 65 67  2  0
 66 65  1  0
 68 66  1  0
 69 78  2  0
 69 74  1  0
 70 66  1  0
 70 74  1  0
 71 70  1  0
 72 73  1  0
 72 71  1  0
 73 69  1  0
 74 75  2  0
 75 76  1  0
 77 76  2  0
 78 77  1  0
 79 53  1  0
 79 80  1  0
 79 89  1  0
 80 83  1  0
 81 85  1  0
 81 80  1  0
 82 81  2  0
 85 84  1  0
 87 85  1  0
 87 88  1  0
 87 86  1  0
 89 92  1  1
 89 90  1  0
 91 89  1  0
M  ISO  4  12 100  20 100  51 101  52 101
M  END
>  <TORSDO>  (95) 
F 21

>  <SCORE>  (95) 
-13.700

>  <name>  (95) 
94

>  <ligand_id>  (95) 
94

>  <original_smiles>  (95) 
[H]N=C1C([H])(C(=O)C([H])([H])C([H])([H])N([H])C(=O)N2C([H])([H])C([H])([H])C([H])([H])C([H])(n3nc(-c4c([H])c([H])c(Oc5c([H])c([H])c(F)c([H])c5F)c([H])c4[H])c(C(=O)N([H])[H])c3N([H])[H])C2([H])[H])C([H])([H])C([H])([H])C1([H])C([H])([H])C([H])([H])Oc1c([H])c([H])c2c(c1[H])C([H])([H])N(C(=O)C([H])(N([H])C(=O)C([H])(N([H])C([H])([H])[H])C([H])([H])[H])C(C([H])([H])[H])(C([H])([H])[H])C([H])([H])[H])C([H])(C(=O)N([H])C1([H])c3c([H])c([H])c([H])c([H])c3C([H])([H])C([H])([H])C1([H])[H])C2([H])[H]

>  <smiles>  (95) 
[H]N=C1C([H])(C(=O)C([H])([H])C([H])([H])N([H])C(=O)N2C([H])([H])C([H])([H])C([H])([H])C([H])(n3nc(-c4c([H])c([H])c(Oc5c([H])c([H])c(F)c([H])c5F)c([H])c4[H])c(C(=O)N([H])[H])c3N([H])[H])C2([H])[H])C([H])([H])C([H])([H])C1([H])C([H])([H])C([H])([H])Oc1c([H])c([H])c2c(c1[H])C([H])([H])N(C(=O)C([H])(N([H])C(=O)C([H])(N([H])C([H])([H])[H])C([H])([H])[H])C(C([H])([H])[H])(C([H])([H])[H])C([H])([H])[H])C([H])(C(=O)N([H])C1([H])c3c([H])c([H])c([H])c([H])c3C([H])([H])C([H])([H])C1([H])[H])C2([H])[H]

$$$$
95:0:0
     RDKit          3D

100109  0  0  1  0  0  0  0  0999 V2000
  -31.2180  -22.7980   23.3770 C   0  0  0  0  0  2  0  0  0  0  0  0
  -30.5130  -21.4650   20.8460 C   0  0  0  0  0  2  0  0  0  0  0  0
  -29.6890  -22.7120   23.5690 C   0  0  0  0  0  2  0  0  0  0  0  0
  -29.0750  -21.7760   21.3420 C   0  0  0  0  0  2  0  0  0  0  0  0
  -31.9780  -21.5030   22.9610 C   0  0  0  0  0  3  0  0  0  0  0  0
  -31.3540  -20.6260   21.8280 C   0  0  0  0  0  3  0  0  0  0  0  0
  -32.3380  -20.6590   24.1980 C   0  0  0  0  0  1  0  0  0  0  0  0
  -29.0210  -22.9370   22.2680 N   0  0  1  0  0  4  0  0  0  0  0  0
  -29.5960  -23.6420   21.8360 H   0  0  0  0  0  0  0  0  0  0  0  0
  -32.4350  -19.7850   21.0750 C   0  0  0  0  0  2  0  0  0  0  0  0
  -32.0990  -18.2900   20.7970 C   0  0  0  0  0  2  0  0  0  0  0  0
  -31.1830  -18.0310   19.6520 N   0  0  0  0  0  4  0  0  0  0  0  0
  -31.3080  -18.7450   18.9500 H   0  0  0  0  0  0  0  0  0  0  0  0
  -31.5060  -17.1710   19.2300 H   0  0  0  0  0  0  0  0  0  0  0  0
  -30.3510  -14.5210   19.9290 C   0  0  0  0  0  0  0  0  0  0  0  0
  -30.1470  -12.3240   18.9380 C   0  0  0  0  0  2  0  0  0  0  0  0
  -29.0870  -12.4280   17.8140 C   0  0  0  0  0  2  0  0  0  0  0  0
  -27.6520  -12.2940   18.3780 C   0  0  0  0  0  2  0  0  0  0  0  0
  -27.3700  -13.1650   19.6400 C   0  0  0  0  0  3  0  0  0  0  0  0
  -28.5200  -12.9850   20.6590 C   0  0  0  0  0  2  0  0  0  0  0  0
  -29.7850  -13.2950   19.9680 N   0  0  0  0  0  0  0  0  0  0  0  0
  -31.5300  -14.7420   19.6450 O   0  0  0  0  0  0  0  0  0  0  0  0
  -28.9190  -17.5930   18.6760 C   0  0  0  0  0  2  0  0  0  0  0  0
  -29.0660  -16.0710   18.4790 C   0  0  0  0  0  2  0  0  0  0  0  0
  -29.4100  -16.6100   20.7580 C   0  0  0  0  0  2  0  0  0  0  0  0
  -29.7270  -17.8730   19.9520 C   0  0  0  0  0  3  0  0  0  0  0  0
  -29.4340  -15.5110   19.8040 N   0  0  0  0  0  0  0  0  0  0  0  0
  -25.0440  -13.7440   20.5910 C   0  0  0  0  0  0  0  0  0  0  0  0
  -24.0140  -12.9520   21.0050 C   0  0  0  0  0  0  0  0  0  0  0  0
  -24.4800  -11.6030   20.8860 C   0  0  0  0  0  0  0  0  0  0  0  0
  -26.0670  -12.8780   20.2270 N   0  0  0  0  0  0  0  0  0  0  0  0
  -25.7330  -11.5880   20.4660 N   0  0  0  0  0  0  0  0  0  0  0  0
  -23.7920  -10.3230   21.0740 C   0  0  0  0  0  0  0  0  0  0  0  0
  -24.2880   -9.3370   21.9540 C   0  0  0  0  0  3  0  0  0  0  0  0
  -23.5930   -8.1230   22.1280 C   0  0  0  0  0  3  0  0  0  0  0  0
  -22.3870   -7.8900   21.4270 C   0  0  0  0  0  0  0  0  0  0  0  0
  -21.9130   -8.8650   20.5330 C   0  0  0  0  0  3  0  0  0  0  0  0
  -22.6120  -10.0700   20.3510 C   0  0  0  0  0  3  0  0  0  0  0  0
  -21.6610   -6.7250   21.5130 O   0  0  0  0  0  0  0  0  0  0  0  0
  -21.6660   -5.9560   22.6510 C   0  0  0  0  0  0  0  0  0  0  0  0
  -21.2280   -6.4640   23.8930 C   0  0  0  0  0  3  0  0  0  0  0  0
  -21.1780   -5.6180   25.0210 C   0  0  0  0  0  3  0  0  0  0  0  0
  -21.5510   -4.2670   24.9080 C   0  0  0  0  0  0  0  0  0  0  0  0
  -21.9770   -3.7570   23.6680 C   0  0  0  0  0  3  0  0  0  0  0  0
  -22.0250   -4.5970   22.5440 C   0  0  0  0  0  0  0  0  0  0  0  0
  -22.4140   -4.0940   21.3490 F   0  0  0  0  0  0  0  0  0  0  0  0
  -21.5000   -3.4570   25.9900 F   0  0  0  0  0  0  0  0  0  0  0  0
  -22.6330  -13.3990   21.4050 C   0  0  0  0  0  0  0  0  0  0  0  0
  -21.9750  -12.6620   22.2880 N   0  0  0  0  0  0  0  0  0  0  0  0
  -22.1480  -14.4460   20.9690 O   0  0  0  0  0  0  0  0  0  0  0  0
  -22.3800  -11.8250   22.6800 H   0  0  0  0  0  0  0  0  0  0  0  0
  -21.0480  -12.9360   22.5790 H   0  0  0  0  0  0  0  0  0  0  0  0
  -25.1760  -15.1310   20.4650 N   0  0  0  0  0  0  0  0  0  0  0  0
  -24.4230  -15.7650   20.7150 H   0  0  0  0  0  0  0  0  0  0  0  0
  -25.9900  -15.6100   20.1060 H   0  0  0  0  0  0  0  0  0  0  0  0
  -27.7090  -23.6350   22.3210 C   0  0  0  0  0  2  0  0  0  0  0  0
  -27.7700  -24.8720   21.3960 C   0  0  0  0  0  2  0  0  0  0  0  0
  -28.4740  -26.1170   21.9920 C   0  0  0  0  0  2  0  0  0  0  0  0
  -29.3190  -26.9320   20.9870 C   0  0  0  0  0  2  0  0  0  0  0  0
  -28.6710  -27.1190   19.7200 O   0  0  0  0  0  0  0  0  0  0  0  0
  -24.5450  -31.8150   23.0690 C   0  0  0  0  0  0  0  0  0  0  0  0
  -27.4800  -27.8010   19.7460 C   0  0  0  0  0  0  0  0  0  0  0  0
  -23.4210  -30.4390   21.3360 C   0  0  0  0  0  3  0  0  0  0  0  0
  -24.9730  -29.1040   19.8160 C   0  0  0  0  0  0  0  0  0  0  0  0
  -25.9060  -31.0000   21.1590 C   0  0  0  0  0  2  0  0  0  0  0  0
  -26.0840  -29.6800   20.4420 C   0  0  0  0  0  0  0  0  0  0  0  0
  -27.3360  -29.0390   20.4070 C   0  0  0  0  0  3  0  0  0  0  0  0
  -26.3620  -27.2400   19.0940 C   0  0  0  0  0  3  0  0  0  0  0  0
  -25.1050  -27.8790   19.1360 C   0  0  0  0  0  3  0  0  0  0  0  0
  -23.6680  -29.8630   19.9150 C   0  0  0  0  0  2  0  0  0  0  0  0
  -24.6390  -31.0960   21.9150 N   0  0  0  0  0  0  0  0  0  0  0  0
  -23.4560  -31.9800   23.6320 O   0  0  0  0  0  0  0  0  0  0  0  0
  -22.8580  -29.3150   22.2350 C   0  0  0  0  0  0  0  0  0  0  0  0
  -21.5440  -29.0670   22.1220 N   0  0  0  0  0  0  0  0  0  0  0  0
  -23.5990  -28.6770   22.9890 O   0  0  0  0  0  0  0  0  0  0  0  0
  -21.0150  -29.6370   21.4780 H   0  0  0  0  0  0  0  0  0  0  0  0
  -18.2400  -27.7070   22.6180 C   0  0  0  0  0  0  0  0  0  0  0  0
  -20.7930  -28.0370   22.8370 C   0  0  0  0  0  3  0  0  0  0  0  0
  -20.9320  -26.6700   22.1320 C   0  0  0  0  0  2  0  0  0  0  0  0
  -19.8090  -26.3920   21.1300 C   0  0  0  0  0  2  0  0  0  0  0  0
  -18.4430  -26.4270   21.8240 C   0  0  0  0  0  2  0  0  0  0  0  0
  -19.3440  -28.4710   23.0770 C   0  0  0  0  0  0  0  0  0  0  0  0
  -19.0990  -29.6740   23.7760 C   0  0  0  0  0  3  0  0  0  0  0  0
  -17.7830  -30.1100   24.0200 C   0  0  0  0  0  3  0  0  0  0  0  0
  -16.6940  -29.3370   23.5800 C   0  0  0  0  0  3  0  0  0  0  0  0
  -16.9230  -28.1370   22.8860 C   0  0  0  0  0  3  0  0  0  0  0  0
  -25.7960  -32.4840   23.7260 C   0  0  0  0  0  3  0  0  0  0  0  0
  -25.4250  -33.8580   24.0930 N   0  0  0  0  0  0  0  0  0  0  0  0
  -25.7280  -34.9450   23.3690 C   0  0  0  0  0  0  0  0  0  0  0  0
  -26.4190  -34.8970   22.3480 O   0  0  0  0  0  0  0  0  0  0  0  0
  -24.8090  -33.9650   24.8860 H   0  0  0  0  0  0  0  0  0  0  0  0
  -23.9260  -36.6610   23.0240 C   0  0  0  0  0  1  0  0  0  0  0  0
  -25.1720  -36.2990   23.8490 C   0  0  0  0  0  3  0  0  0  0  0  0
  -27.2530  -37.2520   24.7410 C   0  0  0  0  0  1  0  0  0  0  0  0
  -26.1610  -37.3960   23.7800 N   0  0  0  0  0  0  0  0  0  0  0  0
  -25.7190  -38.2990   23.9330 H   0  0  0  0  0  0  0  0  0  0  0  0
  -26.3390  -31.6960   24.9800 C   0  0  1  0  0  0  0  0  0  0  0  0
  -25.2340  -31.3430   26.0040 C   0  0  0  0  0  1  0  0  0  0  0  0
  -27.0290  -30.3800   24.5460 C   0  0  0  0  0  1  0  0  0  0  0  0
  -27.4280  -32.5320   25.6970 C   0  0  0  0  0  1  0  0  0  0  0  0
  1  3  1  0
  2  4  1  0
  2  6  1  0
  4  8  1  0
  5  1  1  0
  5  7  1  0
  6 10  1  0
  6  5  1  0
  8 56  1  0
  8  3  1  0
  8  9  1  6
 11 10  1  0
 12 11  1  0
 13 12  1  0
 14 12  1  0
 15 21  1  0
 16 21  1  0
 17 18  1  0
 17 16  1  0
 19 18  1  0
 19 31  1  0
 19 20  1  0
 21 20  1  0
 22 15  2  0
 23 26  1  0
 24 23  1  0
 24 27  1  0
 26 12  1  0
 26 25  1  0
 27 15  1  0
 27 25  1  0
 28 29  2  0
 29 48  1  0
 30 29  1  0
 30 33  1  0
 31 32  1  0
 31 28  1  0
 32 30  2  0
 33 34  1  0
 34 35  2  0
 36 39  1  0
 36 35  1  0
 37 36  2  0
 38 37  1  0
 38 33  2  0
 39 40  1  0
 40 41  1  0
 41 42  2  0
 43 42  1  0
 43 47  1  0
 44 43  2  0
 45 40  2  0
 45 44  1  0
 46 45  1  0
 48 49  1  0
 49 52  1  0
 49 51  1  0
 50 48  2  0
 53 28  1  0
 53 54  1  0
 55 53  1  0
 57 58  1  0
 57 56  1  0
 59 58  1  0
 60 62  1  0
 60 59  1  0
 61 72  2  0
 62 67  1  0
 63 71  1  0
 63 73  1  0
 64 70  1  0
 64 66  1  0
 65 71  1  0
 66 65  1  0
 67 66  2  0
 68 69  1  0
 68 62  2  0
 69 64  2  0
 70 63  1  0
 71 61  1  0
 73 75  2  0
 74 73  1  0
 76 74  1  0
 77 86  2  0
 77 82  1  0
 78 74  1  0
 78 82  1  0
 79 78  1  0
 80 81  1  0
 80 79  1  0
 81 77  1  0
 82 83  2  0
 83 84  1  0
 85 84  2  0
 86 85  1  0
 87 61  1  0
 87 88  1  0
 87 97  1  0
 88 91  1  0
 89 93  1  0
 89 88  1  0
 90 89  2  0
 93 92  1  0
 95 93  1  0
 95 96  1  0
 95 94  1  0
 97100  1  1
 97 98  1  0
 99 97  1  0
M  ISO  4  15 100  27 100  59 101  60 101
M  END
>  <TORSDO>  (96) 
F 23

>  <SCORE>  (96) 
-10.621

>  <name>  (96) 
95

>  <ligand_id>  (96) 
95

>  <original_smiles>  (96) 
[H]c1c([H])c([H])c2c(c1[H])C([H])([H])C([H])([H])C([H])([H])C2([H])N([H])C(=O)C1([H])N(C(=O)C([H])(N([H])C(=O)C([H])(N([H])C([H])([H])[H])C([H])([H])[H])C(C([H])([H])[H])(C([H])([H])[H])C([H])([H])[H])C([H])([H])c2c([H])c(OC([H])([H])C([H])([H])C([H])([H])C([H])([H])[N+]3([H])C([H])([H])C([H])([H])C([H])(C([H])([H])[H])C([H])(C([H])([H])C([H])([H])[N+]([H])([H])C4([H])C([H])([H])N(C(=O)N5C([H])([H])C([H])([H])C([H])([H])C([H])(n6nc(-c7c([H])c([H])c(Oc8c([H])c([H])c(F)c([H])c8F)c([H])c7[H])c(C(=O)N([H])[H])c6N([H])[H])C5([H])[H])C([H])([H])C4([H])[H])C([H])([H])C3([H])[H])c([H])c([H])c2C1([H])[H]

>  <smiles>  (96) 
[H]c1c([H])c([H])c2c(c1[H])C([H])([H])C([H])([H])C([H])([H])C2([H])N([H])C(=O)C1([H])N(C(=O)C([H])(N([H])C(=O)C([H])(N([H])C([H])([H])[H])C([H])([H])[H])C(C([H])([H])[H])(C([H])([H])[H])C([H])([H])[H])C([H])([H])c2c([H])c(OC([H])([H])C([H])([H])C([H])([H])C([H])([H])[N+]3([H])C([H])([H])C([H])([H])C([H])(C([H])([H])[H])C([H])(C([H])([H])C([H])([H])[N+]([H])([H])C4([H])C([H])([H])N(C(=O)N5C([H])([H])C([H])([H])C([H])([H])C([H])(n6nc(-c7c([H])c([H])c(Oc8c([H])c([H])c(F)c([H])c8F)c([H])c7[H])c(C(=O)N([H])[H])c6N([H])[H])C5([H])[H])C([H])([H])C4([H])[H])C([H])([H])C3([H])[H])c([H])c([H])c2C1([H])[H]

$$$$
96:0:0
     RDKit          3D

 93101  0  0  1  0  0  0  0  0999 V2000
  -31.3340  -20.3870   18.4630 C   0  0  0  0  0  2  0  0  0  0  0  0
  -31.1150  -18.9360   18.8670 C   0  0  0  0  0  3  0  0  0  0  0  0
  -30.1270  -21.1360   19.0460 C   0  0  0  0  0  3  0  0  0  0  0  0
  -30.4830  -19.0770   20.2670 C   0  0  0  0  0  3  0  0  0  0  0  0
  -32.4020  -18.1030   18.7950 C   0  0  0  0  0  1  0  0  0  0  0  0
  -29.6500  -20.3030   20.1790 N   0  0  0  0  0  4  0  0  0  0  0  0
  -28.6910  -20.0500   19.9980 H   0  0  0  0  0  0  0  0  0  0  0  0
  -29.6790  -20.8120   21.0480 H   0  0  0  0  0  0  0  0  0  0  0  0
  -30.5090  -22.5930   19.4220 C   0  0  0  0  0  2  0  0  0  0  0  0
  -29.3680  -23.6330   19.3780 C   0  0  0  0  0  2  0  0  0  0  0  0
  -29.9130  -25.0660   19.1600 C   0  0  0  0  0  2  0  0  0  0  0  0
  -28.8400  -26.1400   18.9120 C   0  0  0  0  0  2  0  0  0  0  0  0
  -28.4440  -26.7510   20.1400 O   0  0  0  0  0  0  0  0  0  0  0  0
  -24.6090  -31.8830   23.2380 C   0  0  0  0  0  0  0  0  0  0  0  0
  -27.2670  -27.4650   20.1330 C   0  0  0  0  0  0  0  0  0  0  0  0
  -23.4060  -30.4810   21.5940 C   0  0  0  0  0  3  0  0  0  0  0  0
  -24.8620  -28.9520   20.1670 C   0  0  0  0  0  0  0  0  0  0  0  0
  -25.9300  -30.8470   21.3980 C   0  0  0  0  0  2  0  0  0  0  0  0
  -26.0180  -29.4780   20.7590 C   0  0  0  0  0  0  0  0  0  0  0  0
  -27.2210  -28.7360   20.7500 C   0  0  0  0  0  3  0  0  0  0  0  0
  -26.0860  -26.9400   19.5630 C   0  0  0  0  0  3  0  0  0  0  0  0
  -24.8890  -27.6790   19.5750 C   0  0  0  0  0  3  0  0  0  0  0  0
  -23.6170  -29.8060   20.2140 C   0  0  0  0  0  2  0  0  0  0  0  0
  -24.6670  -31.0850   22.1340 N   0  0  0  0  0  0  0  0  0  0  0  0
  -23.5270  -32.1520   23.7790 O   0  0  0  0  0  0  0  0  0  0  0  0
  -22.7590  -29.4550   22.5510 C   0  0  0  0  0  0  0  0  0  0  0  0
  -21.4350  -29.2710   22.4240 N   0  0  0  0  0  0  0  0  0  0  0  0
  -23.4450  -28.8270   23.3640 O   0  0  0  0  0  0  0  0  0  0  0  0
  -20.9440  -29.8290   21.7390 H   0  0  0  0  0  0  0  0  0  0  0  0
  -18.0610  -28.0810   22.9220 C   0  0  0  0  0  0  0  0  0  0  0  0
  -20.6190  -28.3320   23.1920 C   0  0  0  0  0  3  0  0  0  0  0  0
  -20.7190  -26.9040   22.6090 C   0  0  0  0  0  2  0  0  0  0  0  0
  -19.6150  -26.5870   21.5950 C   0  0  0  0  0  2  0  0  0  0  0  0
  -18.2340  -26.7330   22.2420 C   0  0  0  0  0  2  0  0  0  0  0  0
  -19.1820  -28.8390   23.3540 C   0  0  0  0  0  0  0  0  0  0  0  0
  -18.9670  -30.1000   23.9480 C   0  0  0  0  0  3  0  0  0  0  0  0
  -17.6630  -30.6050   24.1160 C   0  0  0  0  0  3  0  0  0  0  0  0
  -16.5570  -29.8430   23.7010 C   0  0  0  0  0  3  0  0  0  0  0  0
  -16.7570  -28.5840   23.1110 C   0  0  0  0  0  3  0  0  0  0  0  0
  -25.8950  -32.5150   23.8590 C   0  0  0  0  0  3  0  0  0  0  0  0
  -25.5830  -33.9120   24.1900 N   0  0  0  0  0  0  0  0  0  0  0  0
  -25.9130  -34.9650   23.4310 C   0  0  0  0  0  0  0  0  0  0  0  0
  -26.5860  -34.8640   22.4010 O   0  0  0  0  0  0  0  0  0  0  0  0
  -24.9860  -34.0650   24.9910 H   0  0  0  0  0  0  0  0  0  0  0  0
  -24.1820  -36.7530   23.0740 C   0  0  0  0  0  1  0  0  0  0  0  0
  -25.4220  -36.3510   23.8890 C   0  0  0  0  0  3  0  0  0  0  0  0
  -27.5520  -37.2380   24.7260 C   0  0  0  0  0  1  0  0  0  0  0  0
  -26.4520  -37.4070   23.7800 N   0  0  0  0  0  0  0  0  0  0  0  0
  -26.0440  -38.3250   23.9290 H   0  0  0  0  0  0  0  0  0  0  0  0
  -26.4160  -31.7410   25.1310 C   0  0  1  0  0  0  0  0  0  0  0  0
  -25.3270  -31.4970   26.2000 C   0  0  0  0  0  1  0  0  0  0  0  0
  -27.0010  -30.3660   24.7300 C   0  0  0  0  0  1  0  0  0  0  0  0
  -27.5660  -32.5360   25.7930 C   0  0  0  0  0  1  0  0  0  0  0  0
  -29.7020  -17.8100   20.7200 C   0  0  0  0  0  2  0  0  0  0  0  0
  -30.5820  -16.7590   21.4430 C   0  0  0  0  0  2  0  0  0  0  0  0
  -30.6960  -14.4330   20.5340 C   0  0  0  0  0  0  0  0  0  0  0  0
  -30.3550  -12.3290   19.3010 C   0  0  0  0  0  2  0  0  0  0  0  0
  -29.4140  -12.5780   18.1060 C   0  0  0  0  0  2  0  0  0  0  0  0
  -27.9400  -12.4380   18.5360 C   0  0  0  0  0  2  0  0  0  0  0  0
  -27.6120  -13.2460   19.8200 C   0  0  0  0  0  3  0  0  0  0  0  0
  -28.6650  -12.9850   20.9210 C   0  0  0  0  0  2  0  0  0  0  0  0
  -29.9950  -13.2820   20.3620 N   0  0  0  0  0  0  0  0  0  0  0  0
  -31.7790  -14.6460   19.9840 O   0  0  0  0  0  0  0  0  0  0  0  0
  -30.0920  -15.3840   21.2670 N   0  0  0  0  0  0  0  0  0  0  0  0
  -29.2120  -15.1370   21.6970 H   0  0  0  0  0  0  0  0  0  0  0  0
  -25.2060  -13.8470   20.5130 C   0  0  0  0  0  0  0  0  0  0  0  0
  -24.1400  -13.0720   20.8820 C   0  0  0  0  0  0  0  0  0  0  0  0
  -24.6060  -11.7220   20.8580 C   0  0  0  0  0  0  0  0  0  0  0  0
  -26.2570  -12.9690   20.2930 N   0  0  0  0  0  0  0  0  0  0  0  0
  -25.8970  -11.6850   20.5550 N   0  0  0  0  0  0  0  0  0  0  0  0
  -23.8840  -10.4570   21.0510 C   0  0  0  0  0  0  0  0  0  0  0  0
  -24.3240   -9.4910   21.9810 C   0  0  0  0  0  3  0  0  0  0  0  0
  -23.6050   -8.2900   22.1620 C   0  0  0  0  0  3  0  0  0  0  0  0
  -22.4300   -8.0480   21.4130 C   0  0  0  0  0  0  0  0  0  0  0  0
  -22.0060   -9.0040   20.4730 C   0  0  0  0  0  3  0  0  0  0  0  0
  -22.7270  -10.1960   20.2890 C   0  0  0  0  0  3  0  0  0  0  0  0
  -21.6790   -6.9010   21.5050 O   0  0  0  0  0  0  0  0  0  0  0  0
  -21.6470   -6.1490   22.6530 C   0  0  0  0  0  0  0  0  0  0  0  0
  -21.2420   -6.6970   23.8910 C   0  0  0  0  0  3  0  0  0  0  0  0
  -21.1580   -5.8740   25.0310 C   0  0  0  0  0  3  0  0  0  0  0  0
  -21.4690   -4.5030   24.9350 C   0  0  0  0  0  0  0  0  0  0  0  0
  -21.8660   -3.9560   23.7020 C   0  0  0  0  0  3  0  0  0  0  0  0
  -21.9520   -4.7760   22.5650 C   0  0  0  0  0  0  0  0  0  0  0  0
  -22.3160   -4.2390   21.3760 F   0  0  0  0  0  0  0  0  0  0  0  0
  -21.3800   -3.7100   26.0270 F   0  0  0  0  0  0  0  0  0  0  0  0
  -22.7390  -13.5460   21.1480 C   0  0  0  0  0  0  0  0  0  0  0  0
  -22.0110  -12.8490   22.0150 N   0  0  0  0  0  0  0  0  0  0  0  0
  -22.2990  -14.5670   20.6220 O   0  0  0  0  0  0  0  0  0  0  0  0
  -22.3780  -12.0220   22.4610 H   0  0  0  0  0  0  0  0  0  0  0  0
  -21.0710  -13.1470   22.2330 H   0  0  0  0  0  0  0  0  0  0  0  0
  -25.3670  -15.2170   20.3290 N   0  0  0  0  0  0  0  0  0  0  0  0
  -24.5980  -15.8720   20.4240 H   0  0  0  0  0  0  0  0  0  0  0  0
  -26.2210  -15.6540   20.0010 H   0  0  0  0  0  0  0  0  0  0  0  0
  1  2  1  0
  1  3  1  0
  2  5  1  0
  2  4  1  0
  3  9  1  0
  3  6  1  0
  4 54  1  0
  6  4  1  0
  6  8  1  0
  7  6  1  0
 10  9  1  0
 11 10  1  0
 12 11  1  0
 12 13  1  0
 14 25  2  0
 15 13  1  0
 15 20  1  0
 16 24  1  0
 16 26  1  0
 17 23  1  0
 17 19  1  0
 18 24  1  0
 19 18  1  0
 20 19  2  0
 21 22  1  0
 21 15  2  0
 22 17  2  0
 23 16  1  0
 24 14  1  0
 26 28  2  0
 27 26  1  0
 29 27  1  0
 30 39  2  0
 30 35  1  0
 31 27  1  0
 31 35  1  0
 32 31  1  0
 33 34  1  0
 33 32  1  0
 34 30  1  0
 35 36  2  0
 36 37  1  0
 38 37  2  0
 39 38  1  0
 40 14  1  0
 40 41  1  0
 40 50  1  0
 41 44  1  0
 42 46  1  0
 42 41  1  0
 43 42  2  0
 46 45  1  0
 48 46  1  0
 48 49  1  0
 48 47  1  0
 50 53  1  1
 50 51  1  0
 52 50  1  0
 54 55  1  0
 56 64  1  0
 57 62  1  0
 58 59  1  0
 58 57  1  0
 60 59  1  0
 60 69  1  0
 60 61  1  0
 62 56  1  0
 62 61  1  0
 63 56  2  0
 64 55  1  0
 64 65  1  0
 66 67  2  0
 67 86  1  0
 68 67  1  0
 68 71  1  0
 69 66  1  0
 69 70  1  0
 70 68  2  0
 71 72  1  0
 72 73  2  0
 74 77  1  0
 74 73  1  0
 75 74  2  0
 76 75  1  0
 76 71  2  0
 77 78  1  0
 78 79  1  0
 79 80  2  0
 81 80  1  0
 81 85  1  0
 82 81  2  0
 83 78  2  0
 83 82  1  0
 84 83  1  0
 86 87  1  0
 87 90  1  0
 87 89  1  0
 88 86  2  0
 91 92  1  0
 91 66  1  0
 93 91  1  0
M  ISO  4  12 101  13 101  56 100  64 100
M  END
>  <TORSDO>  (97) 
F 22

>  <SCORE>  (97) 
-13.168

>  <name>  (97) 
96

>  <ligand_id>  (97) 
96

>  <original_smiles>  (97) 
[H]c1c([H])c([H])c2c(c1[H])C([H])([H])C([H])([H])C([H])([H])C2([H])N([H])C(=O)C1([H])N(C(=O)C([H])(N([H])C(=O)C([H])(N([H])C([H])([H])[H])C([H])([H])[H])C(C([H])([H])[H])(C([H])([H])[H])C([H])([H])[H])C([H])([H])c2c([H])c(OC([H])([H])C([H])([H])C([H])([H])C([H])([H])C3([H])C([H])([H])C([H])(C([H])([H])[H])C([H])(C([H])([H])C([H])([H])N([H])C(=O)N4C([H])([H])C([H])([H])C([H])([H])C([H])(n5nc(-c6c([H])c([H])c(Oc7c([H])c([H])c(F)c([H])c7F)c([H])c6[H])c(C(=O)N([H])[H])c5N([H])[H])C4([H])[H])[N+]3([H])[H])c([H])c([H])c2C1([H])[H]

>  <smiles>  (97) 
[H]c1c([H])c([H])c2c(c1[H])C([H])([H])C([H])([H])C([H])([H])C2([H])N([H])C(=O)C1([H])N(C(=O)C([H])(N([H])C(=O)C([H])(N([H])C([H])([H])[H])C([H])([H])[H])C(C([H])([H])[H])(C([H])([H])[H])C([H])([H])[H])C([H])([H])c2c([H])c(OC([H])([H])C([H])([H])C([H])([H])C([H])([H])C3([H])C([H])([H])C([H])(C([H])([H])[H])C([H])(C([H])([H])C([H])([H])N([H])C(=O)N4C([H])([H])C([H])([H])C([H])([H])C([H])(n5nc(-c6c([H])c([H])c(Oc7c([H])c([H])c(F)c([H])c7F)c([H])c6[H])c(C(=O)N([H])[H])c5N([H])[H])C4([H])[H])[N+]3([H])[H])c([H])c([H])c2C1([H])[H]

$$$$
97:0:0
     RDKit          3D

 91 98  0  0  1  0  0  0  0  0999 V2000
  -30.9040  -21.2670   20.3520 C   0  0  0  0  0  0  0  0  0  0  0  0
  -30.5390  -21.9770   19.2750 N   0  0  0  0  0  0  0  0  0  0  0  0
  -31.5710  -21.7520   21.2710 O   0  0  0  0  0  0  0  0  0  0  0  0
  -29.9560  -21.5020   18.5950 H   0  0  0  0  0  0  0  0  0  0  0  0
  -30.5660  -19.7710   20.3430 C   0  0  0  0  0  2  0  0  0  0  0  0
  -30.1970  -19.1670   21.7170 C   0  0  0  0  0  2  0  0  0  0  0  0
  -30.4530  -17.6420   21.8450 C   0  0  0  0  0  2  0  0  0  0  0  0
  -30.0030  -16.8080   20.6310 C   0  0  0  0  0  2  0  0  0  0  0  0
  -30.7260  -14.4200   20.3310 C   0  0  0  0  0  0  0  0  0  0  0  0
  -30.4310  -12.3180   19.0820 C   0  0  0  0  0  2  0  0  0  0  0  0
  -29.4580  -12.5910   17.9150 C   0  0  0  0  0  2  0  0  0  0  0  0
  -27.9890  -12.4570   18.3650 C   0  0  0  0  0  2  0  0  0  0  0  0
  -27.6970  -13.2340   19.6800 C   0  0  0  0  0  3  0  0  0  0  0  0
  -28.7660  -12.9030   20.7460 C   0  0  0  0  0  2  0  0  0  0  0  0
  -30.0850  -13.2330   20.1780 N   0  0  0  0  0  0  0  0  0  0  0  0
  -31.8260  -14.6740   19.8280 O   0  0  0  0  0  0  0  0  0  0  0  0
  -29.9600  -15.3690   20.8970 N   0  0  0  0  0  0  0  0  0  0  0  0
  -29.0950  -15.0190   21.2830 H   0  0  0  0  0  0  0  0  0  0  0  0
  -25.3070  -13.8580   20.4150 C   0  0  0  0  0  0  0  0  0  0  0  0
  -24.2400  -13.0910   20.8000 C   0  0  0  0  0  0  0  0  0  0  0  0
  -24.6930  -11.7370   20.7600 C   0  0  0  0  0  0  0  0  0  0  0  0
  -26.3460  -12.9710   20.1710 N   0  0  0  0  0  0  0  0  0  0  0  0
  -25.9800  -11.6900   20.4330 N   0  0  0  0  0  0  0  0  0  0  0  0
  -23.9660  -10.4770   20.9600 C   0  0  0  0  0  0  0  0  0  0  0  0
  -24.3970   -9.5180   21.9010 C   0  0  0  0  0  3  0  0  0  0  0  0
  -23.6740   -8.3220   22.0880 C   0  0  0  0  0  3  0  0  0  0  0  0
  -22.5000   -8.0780   21.3370 C   0  0  0  0  0  0  0  0  0  0  0  0
  -22.0880   -9.0270   20.3850 C   0  0  0  0  0  3  0  0  0  0  0  0
  -22.8130  -10.2140   20.1950 C   0  0  0  0  0  3  0  0  0  0  0  0
  -21.7470   -6.9350   21.4340 O   0  0  0  0  0  0  0  0  0  0  0  0
  -21.6890   -6.2080   22.5950 C   0  0  0  0  0  0  0  0  0  0  0  0
  -21.2440   -6.7750   23.8100 C   0  0  0  0  0  3  0  0  0  0  0  0
  -21.1340   -5.9740   24.9620 C   0  0  0  0  0  3  0  0  0  0  0  0
  -21.4560   -4.6050   24.9020 C   0  0  0  0  0  0  0  0  0  0  0  0
  -21.8910   -4.0370   23.6920 C   0  0  0  0  0  3  0  0  0  0  0  0
  -22.0040   -4.8350   22.5410 C   0  0  0  0  0  0  0  0  0  0  0  0
  -22.4040   -4.2770   21.3740 F   0  0  0  0  0  0  0  0  0  0  0  0
  -21.3440   -3.8320   26.0080 F   0  0  0  0  0  0  0  0  0  0  0  0
  -22.8470  -13.5750   21.0900 C   0  0  0  0  0  0  0  0  0  0  0  0
  -22.1290  -12.8830   21.9640 N   0  0  0  0  0  0  0  0  0  0  0  0
  -22.4060  -14.6030   20.5780 O   0  0  0  0  0  0  0  0  0  0  0  0
  -22.5010  -12.0570   22.4090 H   0  0  0  0  0  0  0  0  0  0  0  0
  -21.1930  -13.1870   22.1970 H   0  0  0  0  0  0  0  0  0  0  0  0
  -25.4760  -15.2260   20.2310 N   0  0  0  0  0  0  0  0  0  0  0  0
  -24.7190  -15.8880   20.3500 H   0  0  0  0  0  0  0  0  0  0  0  0
  -26.3180  -15.6530   19.8640 H   0  0  0  0  0  0  0  0  0  0  0  0
  -31.2050  -23.1980   18.8200 C   0  0  0  0  0  2  0  0  0  0  0  0
  -30.6000  -24.5140   19.3570 C   0  0  0  0  0  2  0  0  0  0  0  0
  -29.2130  -24.8390   18.7710 C   0  0  0  0  0  2  0  0  0  0  0  0
  -28.8420  -26.3360   18.8270 C   0  0  0  0  0  2  0  0  0  0  0  0
  -28.3920  -26.7590   20.1170 O   0  0  0  0  0  0  0  0  0  0  0  0
  -24.5620  -31.8920   23.2430 C   0  0  0  0  0  0  0  0  0  0  0  0
  -27.2090  -27.4650   20.1420 C   0  0  0  0  0  0  0  0  0  0  0  0
  -23.3480  -30.4880   21.6050 C   0  0  0  0  0  3  0  0  0  0  0  0
  -24.7990  -28.9440   20.1810 C   0  0  0  0  0  0  0  0  0  0  0  0
  -25.8730  -30.8420   21.4080 C   0  0  0  0  0  2  0  0  0  0  0  0
  -25.9550  -29.4700   20.7720 C   0  0  0  0  0  0  0  0  0  0  0  0
  -27.1560  -28.7290   20.7680 C   0  0  0  0  0  3  0  0  0  0  0  0
  -26.0320  -26.9390   19.5640 C   0  0  0  0  0  3  0  0  0  0  0  0
  -24.8290  -27.6720   19.5820 C   0  0  0  0  0  3  0  0  0  0  0  0
  -23.5530  -29.8030   20.2280 C   0  0  0  0  0  2  0  0  0  0  0  0
  -24.6130  -31.0900   22.1430 N   0  0  0  0  0  0  0  0  0  0  0  0
  -23.4820  -32.1670   23.7860 O   0  0  0  0  0  0  0  0  0  0  0  0
  -22.6990  -29.4690   22.5680 C   0  0  0  0  0  0  0  0  0  0  0  0
  -21.3760  -29.2830   22.4390 N   0  0  0  0  0  0  0  0  0  0  0  0
  -23.3820  -28.8480   23.3880 O   0  0  0  0  0  0  0  0  0  0  0  0
  -20.8860  -29.8350   21.7480 H   0  0  0  0  0  0  0  0  0  0  0  0
  -18.0020  -28.0900   22.9300 C   0  0  0  0  0  0  0  0  0  0  0  0
  -20.5590  -28.3470   23.2090 C   0  0  0  0  0  3  0  0  0  0  0  0
  -20.6620  -26.9150   22.6360 C   0  0  0  0  0  2  0  0  0  0  0  0
  -19.5640  -26.5910   21.6200 C   0  0  0  0  0  2  0  0  0  0  0  0
  -18.1800  -26.7370   22.2600 C   0  0  0  0  0  2  0  0  0  0  0  0
  -19.1180  -28.8520   23.3620 C   0  0  0  0  0  0  0  0  0  0  0  0
  -18.8990  -30.1180   23.9460 C   0  0  0  0  0  3  0  0  0  0  0  0
  -17.5940  -30.6230   24.1040 C   0  0  0  0  0  3  0  0  0  0  0  0
  -16.4920  -29.8550   23.6920 C   0  0  0  0  0  3  0  0  0  0  0  0
  -16.6960  -28.5910   23.1100 C   0  0  0  0  0  3  0  0  0  0  0  0
  -25.8510  -32.5190   23.8580 C   0  0  0  0  0  3  0  0  0  0  0  0
  -25.5520  -33.9220   24.1740 N   0  0  0  0  0  0  0  0  0  0  0  0
  -25.9030  -34.9640   23.4100 C   0  0  0  0  0  0  0  0  0  0  0  0
  -26.5830  -34.8490   22.3870 O   0  0  0  0  0  0  0  0  0  0  0  0
  -24.9520  -34.0890   24.9680 H   0  0  0  0  0  0  0  0  0  0  0  0
  -24.1990  -36.7700   23.0110 C   0  0  0  0  0  1  0  0  0  0  0  0
  -25.4200  -36.3600   23.8500 C   0  0  0  0  0  3  0  0  0  0  0  0
  -27.5460  -37.2240   24.7230 C   0  0  0  0  0  1  0  0  0  0  0  0
  -26.4640  -37.4020   23.7550 N   0  0  0  0  0  0  0  0  0  0  0  0
  -26.0660  -38.3260   23.8950 H   0  0  0  0  0  0  0  0  0  0  0  0
  -26.3680  -31.7570   25.1390 C   0  0  1  0  0  0  0  0  0  0  0  0
  -25.2760  -31.5310   26.2100 C   0  0  0  0  0  1  0  0  0  0  0  0
  -26.9470  -30.3740   24.7560 C   0  0  0  0  0  1  0  0  0  0  0  0
  -27.5230  -32.5520   25.7930 C   0  0  0  0  0  1  0  0  0  0  0  0
  1  3  2  0
  2  1  1  0
  4  2  1  0
  5  1  1  0
  5  6  1  0
  6  7  1  0
  8 17  1  0
  8  7  1  0
  9 17  1  0
 10 15  1  0
 11 12  1  0
 11 10  1  0
 13 12  1  0
 13 22  1  0
 13 14  1  0
 15  9  1  0
 15 14  1  0
 16  9  2  0
 17 18  1  0
 19 20  2  0
 20 39  1  0
 21 20  1  0
 21 24  1  0
 22 19  1  0
 22 23  1  0
 23 21  2  0
 24 25  1  0
 25 26  2  0
 27 30  1  0
 27 26  1  0
 28 27  2  0
 29 28  1  0
 29 24  2  0
 30 31  1  0
 31 32  1  0
 32 33  2  0
 34 33  1  0
 34 38  1  0
 35 34  2  0
 36 31  2  0
 36 35  1  0
 37 36  1  0
 39 40  1  0
 40 43  1  0
 40 42  1  0
 41 39  2  0
 44 45  1  0
 44 19  1  0
 46 44  1  0
 47  2  1  0
 47 48  1  0
 49 50  1  0
 49 48  1  0
 50 51  1  0
 51 53  1  0
 52 63  2  0
 53 58  1  0
 54 62  1  0
 54 64  1  0
 55 61  1  0
 55 57  1  0
 56 62  1  0
 57 56  1  0
 58 57  2  0
 59 60  1  0
 59 53  2  0
 60 55  2  0
 61 54  1  0
 62 52  1  0
 64 66  2  0
 65 64  1  0
 67 65  1  0
 68 77  2  0
 68 73  1  0
 69 65  1  0
 69 73  1  0
 70 69  1  0
 71 72  1  0
 71 70  1  0
 72 68  1  0
 73 74  2  0
 74 75  1  0
 76 75  2  0
 77 76  1  0
 78 52  1  0
 78 79  1  0
 78 88  1  0
 79 82  1  0
 80 84  1  0
 80 79  1  0
 81 80  2  0
 84 83  1  0
 86 84  1  0
 86 87  1  0
 86 85  1  0
 88 91  1  1
 88 89  1  0
 90 88  1  0
M  ISO  4   9 100  17 100  50 101  51 101
M  END
>  <TORSDO>  (98) 
F 24

>  <SCORE>  (98) 
-12.167

>  <name>  (98) 
97

>  <ligand_id>  (98) 
97

>  <original_smiles>  (98) 
[H]c1c([H])c([H])c2c(c1[H])C([H])([H])C([H])([H])C([H])([H])C2([H])N([H])C(=O)C1([H])N(C(=O)C([H])(N([H])C(=O)C([H])(N([H])C([H])([H])[H])C([H])([H])[H])C(C([H])([H])[H])(C([H])([H])[H])C([H])([H])[H])C([H])([H])c2c([H])c(OC([H])([H])C([H])([H])C([H])([H])C([H])([H])N([H])C(=O)C([H])([H])C([H])([H])C([H])([H])C([H])([H])N([H])C(=O)N3C([H])([H])C([H])([H])C([H])([H])C([H])(n4nc(-c5c([H])c([H])c(Oc6c([H])c([H])c(F)c([H])c6F)c([H])c5[H])c(C(=O)N([H])[H])c4N([H])[H])C3([H])[H])c([H])c([H])c2C1([H])[H]

>  <smiles>  (98) 
[H]c1c([H])c([H])c2c(c1[H])C([H])([H])C([H])([H])C([H])([H])C2([H])N([H])C(=O)C1([H])N(C(=O)C([H])(N([H])C(=O)C([H])(N([H])C([H])([H])[H])C([H])([H])[H])C(C([H])([H])[H])(C([H])([H])[H])C([H])([H])[H])C([H])([H])c2c([H])c(OC([H])([H])C([H])([H])C([H])([H])C([H])([H])N([H])C(=O)C([H])([H])C([H])([H])C([H])([H])C([H])([H])N([H])C(=O)N3C([H])([H])C([H])([H])C([H])([H])C([H])(n4nc(-c5c([H])c([H])c(Oc6c([H])c([H])c(F)c([H])c6F)c([H])c5[H])c(C(=O)N([H])[H])c4N([H])[H])C3([H])[H])c([H])c([H])c2C1([H])[H]

$$$$
98:0:0
     RDKit          3D

 90 97  0  0  1  0  0  0  0  0999 V2000
  -28.2530  -22.7640   20.2870 C   0  0  0  0  0  3  0  0  0  0  0  0
  -25.8930  -22.9640   19.1670 C   0  0  0  0  0  1  0  0  0  0  0  0
  -26.8220  -22.1960   20.1230 C   0  0  0  0  0  2  0  0  0  0  0  0
  -28.2400  -24.2630   20.7320 C   0  0  0  0  0  0  0  0  0  0  0  0
  -27.9880  -24.5560   21.9060 O   0  0  0  0  0  0  0  0  0  0  0  0
  -28.5430  -25.3690   19.6820 C   0  0  0  0  0  2  0  0  0  0  0  0
  -28.4630  -26.7230   20.2150 O   0  0  0  0  0  0  0  0  0  0  0  0
  -24.5470  -31.8970   23.2150 C   0  0  0  0  0  0  0  0  0  0  0  0
  -27.2770  -27.4440   20.1730 C   0  0  0  0  0  0  0  0  0  0  0  0
  -23.3850  -30.4910   21.5450 C   0  0  0  0  0  3  0  0  0  0  0  0
  -24.8760  -28.9650   20.1490 C   0  0  0  0  0  0  0  0  0  0  0  0
  -25.9170  -30.8560   21.4050 C   0  0  0  0  0  2  0  0  0  0  0  0
  -26.0210  -29.4870   20.7600 C   0  0  0  0  0  0  0  0  0  0  0  0
  -27.2220  -28.7320   20.7660 C   0  0  0  0  0  3  0  0  0  0  0  0
  -26.1030  -26.9490   19.5580 C   0  0  0  0  0  3  0  0  0  0  0  0
  -24.9140  -27.6970   19.5470 C   0  0  0  0  0  3  0  0  0  0  0  0
  -23.6260  -29.8160   20.1720 C   0  0  0  0  0  2  0  0  0  0  0  0
  -24.6330  -31.0980   22.1130 N   0  0  0  0  0  0  0  0  0  0  0  0
  -23.4500  -32.1600   23.7310 O   0  0  0  0  0  0  0  0  0  0  0  0
  -22.7200  -29.4660   22.4930 C   0  0  0  0  0  0  0  0  0  0  0  0
  -21.3970  -29.2870   22.3470 N   0  0  0  0  0  0  0  0  0  0  0  0
  -23.3930  -28.8340   23.3110 O   0  0  0  0  0  0  0  0  0  0  0  0
  -20.9170  -29.8510   21.6590 H   0  0  0  0  0  0  0  0  0  0  0  0
  -18.0110  -28.1100   22.8160 C   0  0  0  0  0  0  0  0  0  0  0  0
  -20.5710  -28.3390   23.0950 C   0  0  0  0  0  3  0  0  0  0  0  0
  -20.6640  -26.9240   22.4790 C   0  0  0  0  0  2  0  0  0  0  0  0
  -19.5550  -26.6350   21.4600 C   0  0  0  0  0  2  0  0  0  0  0  0
  -18.1780  -26.7710   22.1150 C   0  0  0  0  0  2  0  0  0  0  0  0
  -19.1360  -28.8520   23.2610 C   0  0  0  0  0  0  0  0  0  0  0  0
  -18.9280  -30.1060   23.8770 C   0  0  0  0  0  3  0  0  0  0  0  0
  -17.6280  -30.6150   24.0530 C   0  0  0  0  0  3  0  0  0  0  0  0
  -16.5180  -29.8690   23.6240 C   0  0  0  0  0  3  0  0  0  0  0  0
  -16.7100  -28.6180   23.0120 C   0  0  0  0  0  3  0  0  0  0  0  0
  -25.8110  -32.5370   23.8650 C   0  0  0  0  0  3  0  0  0  0  0  0
  -25.4860  -33.9350   24.1820 N   0  0  0  0  0  0  0  0  0  0  0  0
  -25.8310  -34.9870   23.4290 C   0  0  0  0  0  0  0  0  0  0  0  0
  -26.5280  -34.8860   22.4160 O   0  0  0  0  0  0  0  0  0  0  0  0
  -24.8680  -34.0860   24.9650 H   0  0  0  0  0  0  0  0  0  0  0  0
  -24.1090  -36.7730   23.0190 C   0  0  0  0  0  1  0  0  0  0  0  0
  -25.3250  -36.3740   23.8690 C   0  0  0  0  0  3  0  0  0  0  0  0
  -27.4270  -37.2710   24.7700 C   0  0  0  0  0  1  0  0  0  0  0  0
  -26.3580  -37.4320   23.7900 N   0  0  0  0  0  0  0  0  0  0  0  0
  -25.9430  -38.3510   23.9190 H   0  0  0  0  0  0  0  0  0  0  0  0
  -26.3020  -31.7730   25.1550 C   0  0  1  0  0  0  0  0  0  0  0  0
  -25.1830  -31.5330   26.1940 C   0  0  0  0  0  1  0  0  0  0  0  0
  -26.9050  -30.3990   24.7790 C   0  0  0  0  0  1  0  0  0  0  0  0
  -27.4310  -32.5780   25.8410 C   0  0  0  0  0  1  0  0  0  0  0  0
  -29.0610  -21.8530   21.2770 C   0  0  0  0  0  2  0  0  0  0  0  0
  -29.7630  -20.5580   20.7360 C   0  0  0  0  0  2  0  0  0  0  0  0
  -29.0140  -19.1850   20.7650 C   0  0  0  0  0  2  0  0  0  0  0  0
  -29.9930  -17.9600   20.7630 C   0  0  0  0  0  2  0  0  0  0  0  0
  -29.3670  -16.5290   20.6940 C   0  0  0  0  0  2  0  0  0  0  0  0
  -30.8030  -14.5140   20.2390 C   0  0  0  0  0  0  0  0  0  0  0  0
  -30.4470  -12.3440   19.0970 C   0  0  0  0  0  2  0  0  0  0  0  0
  -29.4690  -12.5000   17.9150 C   0  0  0  0  0  2  0  0  0  0  0  0
  -28.0100  -12.3680   18.3930 C   0  0  0  0  0  2  0  0  0  0  0  0
  -27.7100  -13.2480   19.6350 C   0  0  0  0  0  3  0  0  0  0  0  0
  -28.7910  -13.0600   20.7210 C   0  0  0  0  0  2  0  0  0  0  0  0
  -30.0980  -13.3550   20.1120 N   0  0  0  0  0  0  0  0  0  0  0  0
  -31.8810  -14.6980   19.6710 O   0  0  0  0  0  0  0  0  0  0  0  0
  -30.3150  -15.4540   21.0740 N   0  0  0  0  0  0  0  0  0  0  0  0
  -31.0570  -15.8280   21.6470 H   0  0  0  0  0  0  0  0  0  0  0  0
  -25.3560  -13.9080   20.4390 C   0  0  0  0  0  0  0  0  0  0  0  0
  -24.2790  -13.1590   20.8280 C   0  0  0  0  0  0  0  0  0  0  0  0
  -24.7030  -11.7950   20.7590 C   0  0  0  0  0  0  0  0  0  0  0  0
  -26.3680  -13.0040   20.1570 N   0  0  0  0  0  0  0  0  0  0  0  0
  -25.9800  -11.7260   20.4070 N   0  0  0  0  0  0  0  0  0  0  0  0
  -23.9510  -10.5490   20.9530 C   0  0  0  0  0  0  0  0  0  0  0  0
  -24.3700   -9.5680   21.8800 C   0  0  0  0  0  3  0  0  0  0  0  0
  -23.6170   -8.3880   22.0640 C   0  0  0  0  0  3  0  0  0  0  0  0
  -22.4330   -8.1780   21.3170 C   0  0  0  0  0  0  0  0  0  0  0  0
  -22.0320   -9.1470   20.3810 C   0  0  0  0  0  3  0  0  0  0  0  0
  -22.7840  -10.3180   20.1960 C   0  0  0  0  0  3  0  0  0  0  0  0
  -21.6550   -7.0490   21.4070 O   0  0  0  0  0  0  0  0  0  0  0  0
  -21.5800   -6.3180   22.5640 C   0  0  0  0  0  0  0  0  0  0  0  0
  -21.1320   -6.8860   23.7770 C   0  0  0  0  0  3  0  0  0  0  0  0
  -21.0020   -6.0820   24.9270 C   0  0  0  0  0  3  0  0  0  0  0  0
  -21.3110   -4.7090   24.8640 C   0  0  0  0  0  0  0  0  0  0  0  0
  -21.7540   -4.1410   23.6570 C   0  0  0  0  0  3  0  0  0  0  0  0
  -21.8840   -4.9430   22.5100 C   0  0  0  0  0  0  0  0  0  0  0  0
  -22.2890   -4.3860   21.3420 F   0  0  0  0  0  0  0  0  0  0  0  0
  -21.1820   -3.9340   25.9670 F   0  0  0  0  0  0  0  0  0  0  0  0
  -22.9030  -13.6680   21.1500 C   0  0  0  0  0  0  0  0  0  0  0  0
  -22.1850  -12.9780   22.0280 N   0  0  0  0  0  0  0  0  0  0  0  0
  -22.4740  -14.7120   20.6580 O   0  0  0  0  0  0  0  0  0  0  0  0
  -22.5420  -12.1330   22.4460 H   0  0  0  0  0  0  0  0  0  0  0  0
  -21.2640  -13.3040   22.2890 H   0  0  0  0  0  0  0  0  0  0  0  0
  -25.5500  -15.2770   20.2770 N   0  0  0  0  0  0  0  0  0  0  0  0
  -24.7990  -15.9450   20.4160 H   0  0  0  0  0  0  0  0  0  0  0  0
  -26.3900  -15.7020   19.9070 H   0  0  0  0  0  0  0  0  0  0  0  0
  1  3  1  0
  1  4  1  0
  1 48  1  0
  2  3  1  0
  4  5  2  0
  6  7  1  0
  6  4  1  0
  8 19  2  0
  9  7  1  0
  9 14  1  0
 10 18  1  0
 10 20  1  0
 11 17  1  0
 11 13  1  0
 12 18  1  0
 13 14  2  0
 13 12  1  0
 15  9  2  0
 16 15  1  0
 16 11  2  0
 17 10  1  0
 18  8  1  0
 20 22  2  0
 21 20  1  0
 23 21  1  0
 24 33  2  0
 24 29  1  0
 25 21  1  0
 25 29  1  0
 26 25  1  0
 27 28  1  0
 27 26  1  0
 28 24  1  0
 29 30  2  0
 30 31  1  0
 32 31  2  0
 33 32  1  0
 34  8  1  0
 34 35  1  0
 34 44  1  0
 35 38  1  0
 36 40  1  0
 36 35  1  0
 37 36  2  0
 40 39  1  0
 42 40  1  0
 42 43  1  0
 42 41  1  0
 44 47  1  1
 44 45  1  0
 46 44  1  0
 49 50  1  0
 49 48  1  0
 51 50  1  0
 52 51  1  0
 52 61  1  0
 53 61  1  0
 54 59  1  0
 55 56  1  0
 55 54  1  0
 57 56  1  0
 57 66  1  0
 57 58  1  0
 59 53  1  0
 59 58  1  0
 60 53  2  0
 61 62  1  0
 63 64  2  0
 64 83  1  0
 65 64  1  0
 65 68  1  0
 66 67  1  0
 66 63  1  0
 67 65  2  0
 68 69  1  0
 69 70  2  0
 71 74  1  0
 71 70  1  0
 72 71  2  0
 73 72  1  0
 73 68  2  0
 74 75  1  0
 75 76  1  0
 76 77  2  0
 78 77  1  0
 78 82  1  0
 79 78  2  0
 80 75  2  0
 80 79  1  0
 81 80  1  0
 83 84  1  0
 84 87  1  0
 84 86  1  0
 85 83  2  0
 88 89  1  0
 88 63  1  0
 90 88  1  0
M  ISO  4   6 101   7 101  53 100  61 100
M  END
>  <TORSDO>  (99) 
F 24

>  <SCORE>  (99) 
-12.366

>  <name>  (99) 
98

>  <ligand_id>  (99) 
98

>  <original_smiles>  (99) 
[H]c1c([H])c([H])c2c(c1[H])C([H])([H])C([H])([H])C([H])([H])C2([H])N([H])C(=O)C1([H])N(C(=O)C([H])(N([H])C(=O)C([H])(N([H])C([H])([H])[H])C([H])([H])[H])C(C([H])([H])[H])(C([H])([H])[H])C([H])([H])[H])C([H])([H])c2c([H])c(OC([H])([H])C(=O)C([H])(C([H])([H])C([H])([H])[H])C([H])([H])C([H])([H])C([H])([H])C([H])([H])C([H])([H])N([H])C(=O)N3C([H])([H])C([H])([H])C([H])([H])C([H])(n4nc(-c5c([H])c([H])c(Oc6c([H])c([H])c(F)c([H])c6F)c([H])c5[H])c(C(=O)N([H])[H])c4N([H])[H])C3([H])[H])c([H])c([H])c2C1([H])[H]

>  <smiles>  (99) 
[H]c1c([H])c([H])c2c(c1[H])C([H])([H])C([H])([H])C([H])([H])C2([H])N([H])C(=O)C1([H])N(C(=O)C([H])(N([H])C(=O)C([H])(N([H])C([H])([H])[H])C([H])([H])[H])C(C([H])([H])[H])(C([H])([H])[H])C([H])([H])[H])C([H])([H])c2c([H])c(OC([H])([H])C(=O)C([H])(C([H])([H])C([H])([H])[H])C([H])([H])C([H])([H])C([H])([H])C([H])([H])C([H])([H])N([H])C(=O)N3C([H])([H])C([H])([H])C([H])([H])C([H])(n4nc(-c5c([H])c([H])c(Oc6c([H])c([H])c(F)c([H])c6F)c([H])c5[H])c(C(=O)N([H])[H])c4N([H])[H])C3([H])[H])c([H])c([H])c2C1([H])[H]

$$$$
