0:0:0
     RDKit          3D

 94101  0  0  1  0  0  0  0  0999 V2000
  -27.6860  -21.0870   17.8780 C   0  0  0  0  0  2  0  0  0  0  0  0
  -27.8590  -20.3500   16.5390 C   0  0  0  0  0  2  0  0  0  0  0  0
  -27.3860  -18.8830   16.5760 C   0  0  0  0  0  2  0  0  0  0  0  0
  -29.0130  -17.9190   18.2060 C   0  0  0  0  0  0  0  0  0  0  0  0
  -27.7640  -18.1900   17.8050 N   0  0  0  0  0  0  0  0  0  0  0  0
  -30.0060  -18.2090   17.5360 O   0  0  0  0  0  0  0  0  0  0  0  0
  -27.0060  -17.9090   18.4140 H   0  0  0  0  0  0  0  0  0  0  0  0
  -29.1700  -17.2170   19.5540 C   0  0  0  0  0  2  0  0  0  0  0  0
  -30.3880  -17.7190   20.3620 C   0  0  0  0  0  2  0  0  0  0  0  0
  -30.6490  -16.9800   21.6950 C   0  0  0  0  0  2  0  0  0  0  0  0
  -31.0510  -14.6300   20.9530 C   0  0  0  0  0  0  0  0  0  0  0  0
  -30.8010  -12.5030   19.7370 C   0  0  0  0  0  2  0  0  0  0  0  0
  -29.9300  -12.7360   18.4870 C   0  0  0  0  0  2  0  0  0  0  0  0
  -28.4310  -12.6110   18.8270 C   0  0  0  0  0  2  0  0  0  0  0  0
  -28.0280  -13.4430   20.0720 C   0  0  0  0  0  3  0  0  0  0  0  0
  -29.0100  -13.1770   21.2380 C   0  0  0  0  0  2  0  0  0  0  0  0
  -30.3790  -13.4660   20.7640 N   0  0  0  0  0  0  0  0  0  0  0  0
  -32.1530  -14.8800   20.4590 O   0  0  0  0  0  0  0  0  0  0  0  0
  -30.3580  -15.5530   21.6270 N   0  0  0  0  0  0  0  0  0  0  0  0
  -29.4840  -15.2420   22.0250 H   0  0  0  0  0  0  0  0  0  0  0  0
  -25.5930  -14.0900   20.5930 C   0  0  0  0  0  0  0  0  0  0  0  0
  -24.4950  -13.3360   20.9010 C   0  0  0  0  0  0  0  0  0  0  0  0
  -24.9440  -11.9800   20.9270 C   0  0  0  0  0  0  0  0  0  0  0  0
  -26.6440  -13.1950   20.4560 N   0  0  0  0  0  0  0  0  0  0  0  0
  -26.2510  -11.9220   20.7090 N   0  0  0  0  0  0  0  0  0  0  0  0
  -24.1970  -10.7290   21.0880 C   0  0  0  0  0  0  0  0  0  0  0  0
  -24.5620   -9.7730   22.0600 C   0  0  0  0  0  3  0  0  0  0  0  0
  -23.8180   -8.5830   22.2070 C   0  0  0  0  0  3  0  0  0  0  0  0
  -22.6960   -8.3400   21.3790 C   0  0  0  0  0  0  0  0  0  0  0  0
  -22.3540   -9.2840   20.3960 C   0  0  0  0  0  3  0  0  0  0  0  0
  -23.0970  -10.4660   20.2490 C   0  0  0  0  0  3  0  0  0  0  0  0
  -21.9330   -7.1990   21.4330 O   0  0  0  0  0  0  0  0  0  0  0  0
  -21.7940   -6.4820   22.5930 C   0  0  0  0  0  0  0  0  0  0  0  0
  -21.2800   -7.0630   23.7730 C   0  0  0  0  0  3  0  0  0  0  0  0
  -21.0880   -6.2700   24.9230 C   0  0  0  0  0  3  0  0  0  0  0  0
  -21.4000   -4.8980   24.8930 C   0  0  0  0  0  0  0  0  0  0  0  0
  -21.9060   -4.3160   23.7180 C   0  0  0  0  0  3  0  0  0  0  0  0
  -22.0990   -5.1050   22.5700 C   0  0  0  0  0  0  0  0  0  0  0  0
  -22.5680   -4.5350   21.4340 F   0  0  0  0  0  0  0  0  0  0  0  0
  -21.2080   -4.1350   25.9940 F   0  0  0  0  0  0  0  0  0  0  0  0
  -23.0870  -13.8300   21.0790 C   0  0  0  0  0  0  0  0  0  0  0  0
  -22.3010  -13.1550   21.9110 N   0  0  0  0  0  0  0  0  0  0  0  0
  -22.6900  -14.8490   20.5150 O   0  0  0  0  0  0  0  0  0  0  0  0
  -22.6320  -12.3280   22.3830 H   0  0  0  0  0  0  0  0  0  0  0  0
  -21.3590  -13.4750   22.0830 H   0  0  0  0  0  0  0  0  0  0  0  0
  -25.7830  -15.4550   20.4000 N   0  0  0  0  0  0  0  0  0  0  0  0
  -25.0120  -16.1160   20.4250 H   0  0  0  0  0  0  0  0  0  0  0  0
  -26.6680  -15.8790   20.1580 H   0  0  0  0  0  0  0  0  0  0  0  0
  -28.0460  -22.5720   17.7980 C   0  0  0  0  0  2  0  0  0  0  0  0
  -28.0680  -23.1980   19.1950 C   0  0  0  0  0  2  0  0  0  0  0  0
  -28.5070  -24.6670   19.1950 C   0  0  0  0  0  2  0  0  0  0  0  0
  -29.2860  -24.9240   21.6270 C   0  0  0  0  0  1  0  0  0  0  0  0
  -28.2690  -25.3430   20.5560 C   0  0  0  0  0  3  0  0  0  0  0  0
  -28.3750  -26.7560   20.4040 O   0  0  0  0  0  0  0  0  0  0  0  0
  -24.6010  -31.9270   23.4230 C   0  0  0  0  0  0  0  0  0  0  0  0
  -27.2010  -27.4730   20.3640 C   0  0  0  0  0  0  0  0  0  0  0  0
  -23.3870  -30.5600   21.7530 C   0  0  0  0  0  3  0  0  0  0  0  0
  -24.8320  -29.0080   20.3410 C   0  0  0  0  0  0  0  0  0  0  0  0
  -25.9190  -30.8810   21.5870 C   0  0  0  0  0  2  0  0  0  0  0  0
  -25.9880  -29.5120   20.9460 C   0  0  0  0  0  0  0  0  0  0  0  0
  -27.1770  -28.7540   20.9510 C   0  0  0  0  0  3  0  0  0  0  0  0
  -26.0260  -26.9760   19.7530 C   0  0  0  0  0  3  0  0  0  0  0  0
  -24.8430  -27.7360   19.7400 C   0  0  0  0  0  3  0  0  0  0  0  0
  -23.6020  -29.8840   20.3720 C   0  0  0  0  0  2  0  0  0  0  0  0
  -24.6530  -31.1340   22.3150 N   0  0  0  0  0  0  0  0  0  0  0  0
  -23.5180  -32.2200   23.9510 O   0  0  0  0  0  0  0  0  0  0  0  0
  -22.7010  -29.5490   22.6980 C   0  0  0  0  0  0  0  0  0  0  0  0
  -21.3780  -29.3900   22.5410 N   0  0  0  0  0  0  0  0  0  0  0  0
  -23.3580  -28.9080   23.5220 O   0  0  0  0  0  0  0  0  0  0  0  0
  -20.9120  -29.9600   21.8490 H   0  0  0  0  0  0  0  0  0  0  0  0
  -17.9760  -28.2420   22.9480 C   0  0  0  0  0  0  0  0  0  0  0  0
  -20.5290  -28.4650   23.2920 C   0  0  0  0  0  3  0  0  0  0  0  0
  -20.6290  -27.0320   22.7220 C   0  0  0  0  0  2  0  0  0  0  0  0
  -19.5520  -26.7210   21.6790 C   0  0  0  0  0  2  0  0  0  0  0  0
  -18.1540  -26.8870   22.2820 C   0  0  0  0  0  2  0  0  0  0  0  0
  -19.0940  -28.9900   23.4060 C   0  0  0  0  0  0  0  0  0  0  0  0
  -18.8800  -30.2590   23.9860 C   0  0  0  0  0  3  0  0  0  0  0  0
  -17.5790  -30.7800   24.1180 C   0  0  0  0  0  3  0  0  0  0  0  0
  -16.4750  -30.0320   23.6750 C   0  0  0  0  0  3  0  0  0  0  0  0
  -16.6740  -28.7660   23.0950 C   0  0  0  0  0  3  0  0  0  0  0  0
  -25.8930  -32.5250   24.0620 C   0  0  0  0  0  3  0  0  0  0  0  0
  -26.3660  -31.7450   25.3480 C   0  0  1  0  0  0  0  0  0  0  0  0
  -25.2470  -31.5460   26.3960 C   0  0  0  0  0  1  0  0  0  0  0  0
  -26.9170  -30.3500   24.9650 C   0  0  0  0  0  1  0  0  0  0  0  0
  -27.5240  -32.5130   26.0290 C   0  0  0  0  0  1  0  0  0  0  0  0
  -25.6180  -33.9330   24.3780 N   0  0  0  0  0  0  0  0  0  0  0  0
  -26.0000  -34.9700   23.6220 C   0  0  0  0  0  0  0  0  0  0  0  0
  -26.6890  -34.8400   22.6060 O   0  0  0  0  0  0  0  0  0  0  0  0
  -25.0100  -34.1090   25.1650 H   0  0  0  0  0  0  0  0  0  0  0  0
  -24.3320  -36.8090   23.2180 C   0  0  0  0  0  1  0  0  0  0  0  0
  -25.5420  -36.3740   24.0590 C   0  0  0  0  0  3  0  0  0  0  0  0
  -27.6780  -37.1990   24.9360 C   0  0  0  0  0  1  0  0  0  0  0  0
  -26.6050  -37.3960   23.9660 N   0  0  0  0  0  0  0  0  0  0  0  0
  -26.2220  -38.3270   24.1030 H   0  0  0  0  0  0  0  0  0  0  0  0
  2  3  1  0
  2  1  1  0
  3  5  1  0
  4  8  1  0
  5  4  1  0
  5  7  1  0
  6  4  2  0
  8  9  1  0
  9 10  1  0
 11 19  1  0
 12 17  1  0
 13 14  1  0
 13 12  1  0
 15 14  1  0
 15 24  1  0
 15 16  1  0
 17 11  1  0
 17 16  1  0
 18 11  2  0
 19 10  1  0
 19 20  1  0
 21 22  2  0
 22 23  1  0
 22 41  1  0
 23 26  1  0
 24 21  1  0
 24 25  1  0
 25 23  2  0
 26 27  1  0
 27 28  2  0
 29 32  1  0
 29 28  1  0
 30 29  2  0
 31 30  1  0
 31 26  2  0
 32 33  1  0
 33 34  1  0
 34 35  2  0
 36 35  1  0
 36 40  1  0
 37 36  2  0
 38 33  2  0
 38 37  1  0
 39 38  1  0
 41 42  1  0
 42 45  1  0
 42 44  1  0
 43 41  2  0
 46 47  1  0
 46 21  1  0
 48 46  1  0
 49  1  1  0
 49 50  1  0
 51 50  1  0
 51 53  1  0
 53 52  1  0
 54 53  1  0
 55 66  2  0
 56 54  1  0
 56 61  1  0
 57 65  1  0
 57 67  1  0
 58 64  1  0
 58 60  1  0
 59 65  1  0
 60 61  2  0
 60 59  1  0
 62 56  2  0
 63 62  1  0
 63 58  2  0
 64 57  1  0
 65 55  1  0
 67 69  2  0
 68 67  1  0
 70 68  1  0
 71 80  2  0
 71 76  1  0
 72 68  1  0
 72 76  1  0
 73 72  1  0
 74 75  1  0
 74 73  1  0
 75 71  1  0
 76 77  2  0
 77 78  1  0
 79 78  2  0
 80 79  1  0
 81 55  1  0
 81 86  1  0
 81 82  1  0
 82 85  1  1
 82 83  1  0
 84 82  1  0
 86 89  1  0
 87 91  1  0
 87 86  1  0
 88 87  2  0
 91 90  1  0
 93 91  1  0
 93 94  1  0
 93 92  1  0
M  ISO  4  11 100  19 100  53 101  54 101
M  END
>  <TORSDO>  (1) 
F 26

>  <SCORE>  (1) 
-11.163

>  <name>  (1) 
0

>  <ligand_id>  (1) 
0

>  <original_smiles>  (1) 
[H]c1c([H])c([H])c2c(c1[H])C([H])([H])C([H])([H])C([H])([H])C2([H])N([H])C(=O)C1([H])N(C(=O)C([H])(N([H])C(=O)C([H])(N([H])C([H])([H])[H])C([H])([H])[H])C(C([H])([H])[H])(C([H])([H])[H])C([H])([H])[H])C([H])([H])c2c([H])c(OC([H])(C([H])([H])[H])C([H])([H])C([H])([H])C([H])([H])C([H])([H])C([H])([H])C([H])([H])N([H])C(=O)C([H])([H])C([H])([H])C([H])([H])N([H])C(=O)N3C([H])([H])C([H])([H])C([H])([H])C([H])(n4nc(-c5c([H])c([H])c(Oc6c([H])c([H])c(F)c([H])c6F)c([H])c5[H])c(C(=O)N([H])[H])c4N([H])[H])C3([H])[H])c([H])c([H])c2C1([H])[H]

>  <smiles>  (1) 
[H]c1c([H])c([H])c2c(c1[H])C([H])([H])C([H])([H])C([H])([H])C2([H])N([H])C(=O)C1([H])N(C(=O)C([H])(N([H])C(=O)C([H])(N([H])C([H])([H])[H])C([H])([H])[H])C(C([H])([H])[H])(C([H])([H])[H])C([H])([H])[H])C([H])([H])c2c([H])c(OC([H])(C([H])([H])[H])C([H])([H])C([H])([H])C([H])([H])C([H])([H])C([H])([H])C([H])([H])N([H])C(=O)C([H])([H])C([H])([H])C([H])([H])N([H])C(=O)N3C([H])([H])C([H])([H])C([H])([H])C([H])(n4nc(-c5c([H])c([H])c(Oc6c([H])c([H])c(F)c([H])c6F)c([H])c5[H])c(C(=O)N([H])[H])c4N([H])[H])C3([H])[H])c([H])c([H])c2C1([H])[H]

$$$$
1:0:0
     RDKit          3D

 96104  0  0  1  0  0  0  0  0999 V2000
  -28.4870  -21.0410   20.3210 C   0  0  0  0  0  0  0  0  0  0  0  0
  -29.5310  -21.3940   20.8760 O   0  0  0  0  0  0  0  0  0  0  0  0
  -28.0770  -18.6320   20.9720 C   0  0  0  0  0  2  0  0  0  0  0  0
  -29.4580  -18.0320   21.2180 C   0  0  0  0  0  2  0  0  0  0  0  0
  -28.2970  -19.6070   19.8110 C   0  0  0  0  0  3  0  0  0  0  0  0
  -29.5410  -19.0600   19.0580 C   0  0  0  0  0  3  0  0  0  0  0  0
  -30.0930  -17.9550   19.8840 N   0  0  1  0  0  4  0  0  0  0  0  0
  -29.7700  -17.0970   19.4640 H   0  0  0  0  0  0  0  0  0  0  0  0
  -28.7740  -19.7270   16.6970 C   0  0  0  0  0  1  0  0  0  0  0  0
  -29.2210  -18.5870   17.6250 C   0  0  0  0  0  2  0  0  0  0  0  0
  -31.5750  -17.8910   19.9100 C   0  0  0  0  0  2  0  0  0  0  0  0
  -32.1020  -16.7580   20.8130 C   0  0  0  0  0  2  0  0  0  0  0  0
  -31.8020  -14.5140   19.7680 C   0  0  0  0  0  0  0  0  0  0  0  0
  -31.4010  -12.2020   19.0100 C   0  0  0  0  0  2  0  0  0  0  0  0
  -30.4520  -12.1600   17.7980 C   0  0  0  0  0  2  0  0  0  0  0  0
  -28.9810  -12.1470   18.2570 C   0  0  0  0  0  2  0  0  0  0  0  0
  -28.6710  -13.2570   19.2930 C   0  0  0  0  0  3  0  0  0  0  0  0
  -29.7220  -13.2530   20.4250 C   0  0  0  0  0  2  0  0  0  0  0  0
  -31.0630  -13.3790   19.8220 N   0  0  0  0  0  0  0  0  0  0  0  0
  -32.7960  -14.6520   19.0490 O   0  0  0  0  0  0  0  0  0  0  0  0
  -31.4040  -15.4870   20.5980 N   0  0  0  0  0  0  0  0  0  0  0  0
  -30.6340  -15.2590   21.2120 H   0  0  0  0  0  0  0  0  0  0  0  0
  -26.3700  -14.1190   20.0690 C   0  0  0  0  0  0  0  0  0  0  0  0
  -25.2430  -13.4640   20.4950 C   0  0  0  0  0  0  0  0  0  0  0  0
  -25.5620  -12.0720   20.4650 C   0  0  0  0  0  0  0  0  0  0  0  0
  -27.3110  -13.1320   19.8180 N   0  0  0  0  0  0  0  0  0  0  0  0
  -26.8280  -11.8970   20.1090 N   0  0  0  0  0  0  0  0  0  0  0  0
  -24.7190  -10.8920   20.7020 C   0  0  0  0  0  0  0  0  0  0  0  0
  -25.0320   -9.9510   21.7050 C   0  0  0  0  0  3  0  0  0  0  0  0
  -24.1960   -8.8340   21.9260 C   0  0  0  0  0  3  0  0  0  0  0  0
  -23.0320   -8.6530   21.1400 C   0  0  0  0  0  0  0  0  0  0  0  0
  -22.7380   -9.5830   20.1260 C   0  0  0  0  0  3  0  0  0  0  0  0
  -23.5760  -10.6890   19.9050 C   0  0  0  0  0  3  0  0  0  0  0  0
  -22.1760   -7.5850   21.2650 O   0  0  0  0  0  0  0  0  0  0  0  0
  -21.9540   -6.9760   22.4740 C   0  0  0  0  0  0  0  0  0  0  0  0
  -21.4680   -7.6900   23.5920 C   0  0  0  0  0  3  0  0  0  0  0  0
  -21.1890   -7.0110   24.7930 C   0  0  0  0  0  3  0  0  0  0  0  0
  -21.3890   -5.6190   24.8790 C   0  0  0  0  0  0  0  0  0  0  0  0
  -21.8680   -4.9070   23.7660 C   0  0  0  0  0  3  0  0  0  0  0  0
  -22.1490   -5.5830   22.5670 C   0  0  0  0  0  0  0  0  0  0  0  0
  -22.5900   -4.8880   21.4910 F   0  0  0  0  0  0  0  0  0  0  0  0
  -21.1150   -4.9650   26.0320 F   0  0  0  0  0  0  0  0  0  0  0  0
  -23.9140  -14.0850   20.8100 C   0  0  0  0  0  0  0  0  0  0  0  0
  -23.1590  -13.4920   21.7290 N   0  0  0  0  0  0  0  0  0  0  0  0
  -23.5560  -15.1330   20.2740 O   0  0  0  0  0  0  0  0  0  0  0  0
  -23.4590  -12.6410   22.1820 H   0  0  0  0  0  0  0  0  0  0  0  0
  -22.2680  -13.8960   21.9820 H   0  0  0  0  0  0  0  0  0  0  0  0
  -26.6630  -15.4610   19.8550 N   0  0  0  0  0  0  0  0  0  0  0  0
  -25.9370  -16.1660   19.9130 H   0  0  0  0  0  0  0  0  0  0  0  0
  -27.4740  -15.7740   19.3400 H   0  0  0  0  0  0  0  0  0  0  0  0
  -27.3030  -21.9940   20.1320 C   0  0  0  0  0  2  0  0  0  0  0  0
  -27.6360  -23.4850   20.3490 C   0  0  0  0  0  2  0  0  0  0  0  0
  -27.8110  -23.9050   21.8260 C   0  0  0  0  0  2  0  0  0  0  0  0
  -29.0480  -24.7970   22.0670 C   0  0  0  0  0  2  0  0  0  0  0  0
  -28.8730  -26.2950   21.7630 C   0  0  0  0  0  2  0  0  0  0  0  0
  -28.4080  -26.5320   20.4310 O   0  0  0  0  0  0  0  0  0  0  0  0
  -24.6760  -31.8360   23.3310 C   0  0  0  0  0  0  0  0  0  0  0  0
  -27.3000  -27.3410   20.3610 C   0  0  0  0  0  0  0  0  0  0  0  0
  -23.4840  -30.4530   21.6620 C   0  0  0  0  0  3  0  0  0  0  0  0
  -24.9420  -28.8850   20.2760 C   0  0  0  0  0  0  0  0  0  0  0  0
  -26.0140  -30.7640   21.5320 C   0  0  0  0  0  2  0  0  0  0  0  0
  -26.0870  -29.3910   20.9040 C   0  0  0  0  0  0  0  0  0  0  0  0
  -27.2690  -28.6260   20.9470 C   0  0  0  0  0  3  0  0  0  0  0  0
  -26.1530  -26.8560   19.7030 C   0  0  0  0  0  3  0  0  0  0  0  0
  -24.9690  -27.6160   19.6710 C   0  0  0  0  0  3  0  0  0  0  0  0
  -23.7130  -29.7630   20.2880 C   0  0  0  0  0  2  0  0  0  0  0  0
  -24.7400  -31.0310   22.2340 N   0  0  0  0  0  0  0  0  0  0  0  0
  -23.5870  -32.1350   23.8420 O   0  0  0  0  0  0  0  0  0  0  0  0
  -22.7860  -29.4490   22.6050 C   0  0  0  0  0  0  0  0  0  0  0  0
  -21.4580  -29.3200   22.4560 N   0  0  0  0  0  0  0  0  0  0  0  0
  -23.4340  -28.7910   23.4220 O   0  0  0  0  0  0  0  0  0  0  0  0
  -20.9990  -29.8990   21.7660 H   0  0  0  0  0  0  0  0  0  0  0  0
  -18.0270  -28.2950   22.9330 C   0  0  0  0  0  0  0  0  0  0  0  0
  -20.5930  -28.4100   23.2080 C   0  0  0  0  0  3  0  0  0  0  0  0
  -20.6190  -26.9880   22.6010 C   0  0  0  0  0  2  0  0  0  0  0  0
  -19.5020  -26.7440   21.5810 C   0  0  0  0  0  2  0  0  0  0  0  0
  -18.1310  -26.9520   22.2290 C   0  0  0  0  0  2  0  0  0  0  0  0
  -19.1840  -28.9880   23.3760 C   0  0  0  0  0  0  0  0  0  0  0  0
  -19.0350  -30.2490   23.9900 C   0  0  0  0  0  3  0  0  0  0  0  0
  -17.7590  -30.8180   24.1650 C   0  0  0  0  0  3  0  0  0  0  0  0
  -16.6140  -30.1210   23.7380 C   0  0  0  0  0  3  0  0  0  0  0  0
  -16.7490  -28.8610   23.1290 C   0  0  0  0  0  3  0  0  0  0  0  0
  -25.9600  -32.4390   23.9830 C   0  0  0  0  0  3  0  0  0  0  0  0
  -26.4180  -31.6690   25.2830 C   0  0  1  0  0  0  0  0  0  0  0  0
  -25.2830  -31.4620   26.3140 C   0  0  0  0  0  1  0  0  0  0  0  0
  -26.9860  -30.2770   24.9230 C   0  0  0  0  0  1  0  0  0  0  0  0
  -27.5600  -32.4460   25.9790 C   0  0  0  0  0  1  0  0  0  0  0  0
  -25.6780  -33.8480   24.2820 N   0  0  0  0  0  0  0  0  0  0  0  0
  -26.0650  -34.8800   23.5190 C   0  0  0  0  0  0  0  0  0  0  0  0
  -26.7690  -34.7440   22.5140 O   0  0  0  0  0  0  0  0  0  0  0  0
  -25.0530  -34.0300   25.0540 H   0  0  0  0  0  0  0  0  0  0  0  0
  -24.4000  -36.7120   23.0790 C   0  0  0  0  0  1  0  0  0  0  0  0
  -25.6000  -36.2860   23.9390 C   0  0  0  0  0  3  0  0  0  0  0  0
  -27.7280  -37.1260   24.8360 C   0  0  0  0  0  1  0  0  0  0  0  0
  -26.6650  -37.3110   23.8510 N   0  0  0  0  0  0  0  0  0  0  0  0
  -26.2790  -38.2430   23.9750 H   0  0  0  0  0  0  0  0  0  0  0  0
  1  2  2  0
  3  4  1  0
  5  1  1  0
  5  3  1  0
  6 10  1  0
  6  5  1  0
  6  7  1  0
  7 11  1  0
  7  4  1  0
  7  8  1  6
  9 10  1  0
 11 12  1  0
 13 19  1  0
 13 21  1  0
 14 19  1  0
 15 16  1  0
 15 14  1  0
 17 16  1  0
 17 26  1  0
 17 18  1  0
 19 18  1  0
 20 13  2  0
 21 12  1  0
 21 22  1  0
 23 24  2  0
 24 43  1  0
 25 24  1  0
 25 28  1  0
 26 23  1  0
 26 27  1  0
 27 25  2  0
 28 29  1  0
 29 30  2  0
 31 34  1  0
 31 30  1  0
 32 31  2  0
 33 32  1  0
 33 28  2  0
 34 35  1  0
 35 40  2  0
 35 36  1  0
 36 37  2  0
 37 38  1  0
 38 42  1  0
 39 38  2  0
 40 39  1  0
 41 40  1  0
 43 44  1  0
 44 47  1  0
 44 46  1  0
 45 43  2  0
 48 49  1  0
 48 23  1  0
 50 48  1  0
 51  1  1  0
 51 52  1  0
 52 53  1  0
 53 54  1  0
 55 54  1  0
 56 55  1  0
 57 68  2  0
 58 56  1  0
 58 63  1  0
 59 67  1  0
 59 69  1  0
 60 66  1  0
 60 62  1  0
 61 67  1  0
 62 63  2  0
 62 61  1  0
 64 58  2  0
 65 64  1  0
 65 60  2  0
 66 59  1  0
 67 57  1  0
 69 71  2  0
 70 69  1  0
 72 70  1  0
 73 82  2  0
 73 78  1  0
 74 70  1  0
 74 78  1  0
 75 74  1  0
 76 77  1  0
 76 75  1  0
 77 73  1  0
 78 79  2  0
 79 80  1  0
 81 80  2  0
 82 81  1  0
 83 57  1  0
 83 88  1  0
 83 84  1  0
 84 87  1  1
 84 85  1  0
 86 84  1  0
 88 91  1  0
 89 93  1  0
 89 88  1  0
 90 89  2  0
 93 92  1  0
 95 93  1  0
 95 96  1  0
 95 94  1  0
M  ISO  4  13 100  21 100  55 101  56 101
M  END
>  <TORSDO>  (2) 
F 25

>  <SCORE>  (2) 
-10.591

>  <name>  (2) 
1

>  <ligand_id>  (2) 
1

>  <original_smiles>  (2) 
[H]c1c([H])c([H])c2c(c1[H])C([H])([H])C([H])([H])C([H])([H])C2([H])N([H])C(=O)C1([H])N(C(=O)C([H])(N([H])C(=O)C([H])(N([H])C([H])([H])[H])C([H])([H])[H])C(C([H])([H])[H])(C([H])([H])[H])C([H])([H])[H])C([H])([H])c2c([H])c(OC([H])([H])C([H])([H])C([H])([H])C([H])([H])C([H])([H])C(=O)C3([H])C([H])([H])C([H])([H])[N+]([H])(C([H])([H])C([H])([H])N([H])C(=O)N4C([H])([H])C([H])([H])C([H])([H])C([H])(n5nc(-c6c([H])c([H])c(Oc7c([H])c([H])c(F)c([H])c7F)c([H])c6[H])c(C(=O)N([H])[H])c5N([H])[H])C4([H])[H])C3([H])C([H])([H])C([H])([H])[H])c([H])c([H])c2C1([H])[H]

>  <smiles>  (2) 
[H]c1c([H])c([H])c2c(c1[H])C([H])([H])C([H])([H])C([H])([H])C2([H])N([H])C(=O)C1([H])N(C(=O)C([H])(N([H])C(=O)C([H])(N([H])C([H])([H])[H])C([H])([H])[H])C(C([H])([H])[H])(C([H])([H])[H])C([H])([H])[H])C([H])([H])c2c([H])c(OC([H])([H])C([H])([H])C([H])([H])C([H])([H])C([H])([H])C(=O)C3([H])C([H])([H])C([H])([H])[N+]([H])(C([H])([H])C([H])([H])N([H])C(=O)N4C([H])([H])C([H])([H])C([H])([H])C([H])(n5nc(-c6c([H])c([H])c(Oc7c([H])c([H])c(F)c([H])c7F)c([H])c6[H])c(C(=O)N([H])[H])c5N([H])[H])C4([H])[H])C3([H])C([H])([H])C([H])([H])[H])c([H])c([H])c2C1([H])[H]

$$$$
2:0:0
     RDKit          3D

 99101  0  0  1  0  0  0  0  0999 V2000
  -24.6820  -23.3940   21.8780 C   0  0  0  0  0 15  0  0  0  0  0  0
  -23.9240  -25.6030   23.4210 C   0  0  0  0  0  1  0  0  0  0  0  0
  -23.1740  -24.6530   22.4470 C   0  0  0  0  0  2  0  0  0  0  0  0
  -18.6950  -26.3310   22.9400 C   0  0  0  0  0 15  0  0  0  0  0  0
  -21.1520  -24.5880   22.9620 C   0  0  0  0  0  1  0  0  0  0  0  0
  -21.7660  -23.8340   21.5150 C   0  0  0  0  0  3  0  0  0  0  0  0
  -22.1780  -24.6340   20.0070 C   0  0  0  0  0  2  0  0  0  0  0  0
  -23.5080  -25.4740   19.2840 C   0  0  0  0  0  2  0  0  0  0  0  0
  -25.1160  -25.1950   18.7240 C   0  0  0  0  0  2  0  0  0  0  0  0
  -26.0030  -25.9700   17.6570 O   0  0  0  0  0  0  0  0  0  0  0  0
  -25.4630  -30.2540   23.1110 C   0  0  0  0  0  0  0  0  0  0  0  0
  -26.1130  -27.3050   17.9080 C   0  0  0  0  0  0  0  0  0  0  0  0
  -23.9610  -30.3270   21.2070 C   0  0  0  0  0  3  0  0  0  0  0  0
  -24.8040  -29.4740   18.9720 C   0  0  0  0  0  0  0  0  0  0  0  0
  -26.4220  -29.8120   20.8350 C   0  0  0  0  0  2  0  0  0  0  0  0
  -25.9840  -29.0390   19.5920 C   0  0  0  0  0  0  0  0  0  0  0  0
  -26.6470  -27.8970   19.0800 C   0  0  0  0  0  3  0  0  0  0  0  0
  -25.2140  -27.9930   17.1190 C   0  0  0  0  0  3  0  0  0  0  0  0
  -24.4660  -29.0090   17.7030 C   0  0  0  0  0  3  0  0  0  0  0  0
  -23.9790  -30.5120   19.6750 C   0  0  0  0  0  2  0  0  0  0  0  0
  -25.3200  -30.1530   21.7660 N   0  0  0  0  0  0  0  0  0  0  0  0
  -24.5050  -30.5370   23.8470 O   0  0  0  0  0  0  0  0  0  0  0  0
  -23.1210  -29.1190   21.6290 C   0  0  0  0  0  0  0  0  0  0  0  0
  -21.8520  -29.3390   21.8910 N   0  0  0  0  0  0  0  0  0  0  0  0
  -23.6190  -27.9970   21.7420 O   0  0  0  0  0  0  0  0  0  0  0  0
  -21.4610  -30.2790   21.8680 H   0  0  0  0  0  0  0  0  0  0  0  0
  -18.0410  -28.3110   21.9290 C   0  0  0  0  0  0  0  0  0  0  0  0
  -20.9870  -28.2230   21.6270 C   0  0  0  0  0  2  0  0  0  0  0  0
  -21.1040  -28.2130   19.6100 C   0  0  0  0  0 15  0  0  0  0  0  0
  -19.1600  -28.0600   18.7590 C   0  0  0  0  0 15  0  0  0  0  0  0
  -17.7700  -27.8540   20.2010 C   0  0  0  0  0  1  0  0  0  0  0  0
  -19.4590  -28.4170   22.5680 C   0  0  0  0  0  0  0  0  0  0  0  0
  -19.5880  -29.3780   23.6680 C   0  0  0  0  0  3  0  0  0  0  0  0
  -18.5610  -30.2260   24.1640 C   0  0  0  0  0  3  0  0  0  0  0  0
  -17.2930  -30.1630   23.5660 C   0  0  0  0  0  3  0  0  0  0  0  0
  -17.0740  -29.2530   22.4900 C   0  0  0  0  0  3  0  0  0  0  0  0
  -26.8450  -30.0590   23.7750 C   0  0  0  0  0  3  0  0  0  0  0  0
  -26.9690  -31.1140   24.7840 N   0  0  0  0  0  0  0  0  0  0  0  0
  -27.5770  -32.2870   24.5720 C   0  0  0  0  0  0  0  0  0  0  0  0
  -28.1850  -32.5460   23.5290 O   0  0  0  0  0  0  0  0  0  0  0  0
  -26.4380  -30.9930   25.6360 H   0  0  0  0  0  0  0  0  0  0  0  0
  -26.4520  -34.3900   25.3710 C   0  0  0  0  0  1  0  0  0  0  0  0
  -27.5140  -33.3290   25.7020 C   0  0  0  0  0  3  0  0  0  0  0  0
  -29.8180  -33.0730   26.5040 C   0  0  0  0  0  1  0  0  0  0  0  0
  -28.8140  -33.9840   25.9600 N   0  0  0  0  0  0  0  0  0  0  0  0
  -28.7040  -34.7600   26.6070 H   0  0  0  0  0  0  0  0  0  0  0  0
  -27.0290  -28.6320   24.4170 C   0  0  1  0  0  0  0  0  0  0  0  0
  -25.8190  -28.1580   25.2550 C   0  0  0  0  0  1  0  0  0  0  0  0
  -27.2970  -27.5640   23.3320 C   0  0  0  0  0  1  0  0  0  0  0  0
  -28.2780  -28.6510   25.3270 C   0  0  0  0  0  1  0  0  0  0  0  0
  -25.8110  -22.6690   20.4350 C   0  0  0  0  0  1  0  0  0  0  0  0
  -29.1330  -23.7420   18.5740 C   0  0  0  0  0  2  0  0  0  0  0  0
  -29.6150  -24.4420   19.8790 C   0  0  0  0  0  2  0  0  0  0  0  0
  -28.3220  -22.7980   21.2790 C   0  0  0  0  0  2  0  0  0  0  0  0
  -28.7290  -22.2460   18.7960 C   0  0  0  0  0  3  0  0  0  0  0  0
  -28.6150  -24.2930   21.0680 C   0  0  0  0  0  3  0  0  0  0  0  0
  -28.9840  -25.0150   22.3760 C   0  0  0  0  0  1  0  0  0  0  0  0
  -27.5480  -22.4260   20.1080 N   0  0  1  0  0  4  0  0  0  0  0  0
  -27.4960  -23.3710   19.7490 H   0  0  0  0  0  0  0  0  0  0  0  0
  -32.9240  -20.6380   17.0510 C   0  0  0  0  0  0  0  0  0  0  0  0
  -34.5150  -18.7940   15.8200 C   0  0  0  0  0  2  0  0  0  0  0  0
  -33.8570  -17.6520   14.9760 C   0  0  0  0  0  2  0  0  0  0  0  0
  -33.2630  -16.5800   15.9010 C   0  0  0  0  0  2  0  0  0  0  0  0
  -32.5580  -17.2440   17.1020 C   0  0  0  0  0  3  0  0  0  0  0  0
  -33.4120  -18.2790   17.8320 C   0  0  0  0  0  2  0  0  0  0  0  0
  -33.5060  -19.3200   16.8720 N   0  0  0  0  0  0  0  0  0  0  0  0
  -33.6610  -21.3680   16.3400 O   0  0  0  0  0  0  0  0  0  0  0  0
  -30.1530  -21.1120   18.2920 C   0  0  0  0  0  0  0  0  0  0  0  0
  -31.6490  -21.2170   17.7980 N   0  0  0  0  0  0  0  0  0  0  0  0
  -29.7020  -19.9870   18.1900 O   0  0  0  0  0  0  0  0  0  0  0  0
  -31.9450  -22.1520   18.0430 H   0  0  0  0  0  0  0  0  0  0  0  0
  -30.7920  -16.3500   18.6510 C   0  0  0  0  0  0  0  0  0  0  0  0
  -30.7250  -15.2630   19.4550 C   0  0  0  0  0  0  0  0  0  0  0  0
  -31.9890  -14.6160   19.3250 C   0  0  0  0  0  0  0  0  0  0  0  0
  -32.0390  -16.3240   18.0730 N   0  0  0  0  0  0  0  0  0  0  0  0
  -32.8020  -15.3120   18.5380 N   0  0  0  0  0  0  0  0  0  0  0  0
  -32.4390  -13.3330   19.8460 C   0  0  0  0  0  0  0  0  0  0  0  0
  -33.6710  -13.2040   20.5180 C   0  0  0  0  0  3  0  0  0  0  0  0
  -34.0700  -11.9540   21.0330 C   0  0  0  0  0  3  0  0  0  0  0  0
  -33.2310  -10.8250   20.8820 C   0  0  0  0  0  0  0  0  0  0  0  0
  -32.0140  -10.9570   20.1910 C   0  0  0  0  0  3  0  0  0  0  0  0
  -31.6190  -12.2000   19.6730 C   0  0  0  0  0  3  0  0  0  0  0  0
  -33.5470   -9.5650   21.3290 O   0  0  0  0  0  0  0  0  0  0  0  0
  -34.4790   -9.3690   22.3160 C   0  0  0  0  0  0  0  0  0  0  0  0
  -34.3530   -9.9610   23.5910 C   0  0  0  0  0  3  0  0  0  0  0  0
  -35.2960   -9.6750   24.5960 C   0  0  0  0  0  3  0  0  0  0  0  0
  -36.3580   -8.7880   24.3340 C   0  0  0  0  0  0  0  0  0  0  0  0
  -36.4820   -8.1930   23.0660 C   0  0  0  0  0  3  0  0  0  0  0  0
  -35.5430   -8.4800   22.0610 C   0  0  0  0  0  0  0  0  0  0  0  0
  -35.6550   -7.8890   20.8470 F   0  0  0  0  0  0  0  0  0  0  0  0
  -37.2600   -8.5050   25.3030 F   0  0  0  0  0  0  0  0  0  0  0  0
  -29.5080  -14.8110   20.1970 C   0  0  0  0  0  0  0  0  0  0  0  0
  -29.7040  -14.1510   21.3280 N   0  0  0  0  0  0  0  0  0  0  0  0
  -28.3760  -15.0820   19.7990 O   0  0  0  0  0  0  0  0  0  0  0  0
  -30.6370  -13.9520   21.6570 H   0  0  0  0  0  0  0  0  0  0  0  0
  -28.9130  -13.8390   21.8690 H   0  0  0  0  0  0  0  0  0  0  0  0
  -29.8670  -17.3080   18.3250 N   0  0  0  0  0  0  0  0  0  0  0  0
  -28.9520  -17.3890   18.7350 H   0  0  0  0  0  0  0  0  0  0  0  0
  -30.0330  -18.1350   17.7590 H   0  0  0  0  0  0  0  0  0  0  0  0
  3  2  1  0
  6  3  1  0
  6  5  1  0
  7  6  1  0
  8  7  1  0
  9  8  1  0
 10 12  1  0
 10  9  1  0
 11 22  2  0
 12 17  1  0
 13 23  1  0
 13 21  1  0
 14 16  1  0
 14 20  1  0
 15 21  1  0
 16 15  1  0
 17 16  2  0
 18 19  1  0
 18 12  2  0
 19 14  2  0
 20 13  1  0
 21 11  1  0
 23 25  2  0
 23 24  1  0
 26 24  1  0
 27 36  2  0
 27 32  1  0
 28 24  1  0
 28 32  1  0
 31 27  1  0
 32 33  2  0
 33 34  1  0
 35 34  2  0
 36 35  1  0
 37 11  1  0
 37 47  1  0
 37 38  1  0
 38 41  1  0
 39 38  1  0
 39 43  1  0
 40 39  2  0
 43 42  1  0
 43 45  1  0
 45 44  1  0
 45 46  1  0
 47 48  1  1
 47 50  1  0
 49 47  1  0
 52 55  1  0
 52 53  1  0
 53 56  1  0
 55 68  1  0
 55 58  1  0
 56 54  1  0
 56 57  1  0
 58 51  1  0
 58 54  1  0
 58 59  1  1
 60 69  1  0
 61 66  1  0
 62 61  1  0
 62 63  1  0
 64 63  1  0
 64 65  1  0
 64 75  1  0
 66 60  1  0
 66 65  1  0
 67 60  2  0
 69 71  1  0
 69 68  1  0
 70 68  2  0
 72 73  2  0
 73 92  1  0
 74 73  1  0
 74 77  1  0
 75 76  1  0
 75 72  1  0
 76 74  2  0
 77 78  1  0
 78 79  2  0
 80 79  1  0
 80 83  1  0
 81 80  2  0
 82 77  2  0
 82 81  1  0
 83 84  1  0
 84 85  1  0
 85 86  2  0
 87 86  1  0
 87 91  1  0
 88 87  2  0
 89 84  2  0
 89 88  1  0
 90 89  1  0
 92 93  1  0
 93 95  1  0
 93 96  1  0
 94 92  2  0
 97 72  1  0
 97 98  1  0
 99 97  1  0
M  ISO  4   9 101  10 101  60 100  69 100
M  END
>  <TORSDO>  (3) 
F 24

>  <SCORE>  (3) 
-6.585

>  <name>  (3) 
2

>  <ligand_id>  (3) 
2

>  <original_smiles>  (3) 
[H]c1c([H])c([H])c2c(c1[H])C([H])([H])C([H])([H])C([H])([H])C2([H])N([H])C(=O)C1([H])N(C(=O)C([H])(N([H])C(=O)C([H])(N([H])C([H])([H])[H])C([H])([H])[H])C(C([H])([H])[H])(C([H])([H])[H])C([H])([H])[H])C([H])([H])c2c([H])c(OC([H])([H])C([H])([H])C([H])([H])C([H])([H])C([H])(C([H])([H])[H])C([H])(C([H])([H])[H])C([H])([H])C([H])([H])[N+]3([H])C([H])([H])C([H])(C([H])([H])[H])C([H])([H])C([H])([H])C3([H])C(=O)N([H])C(=O)N3C([H])([H])C([H])([H])C([H])([H])C([H])(n4nc(-c5c([H])c([H])c(Oc6c([H])c([H])c(F)c([H])c6F)c([H])c5[H])c(C(=O)N([H])[H])c4N([H])[H])C3([H])[H])c([H])c([H])c2C1([H])[H]

>  <smiles>  (3) 
[H]c1c([H])c([H])c2c(c1[H])C([H])([H])C([H])([H])C([H])([H])C2([H])N([H])C(=O)C1([H])N(C(=O)C([H])(N([H])C(=O)C([H])(N([H])C([H])([H])[H])C([H])([H])[H])C(C([H])([H])[H])(C([H])([H])[H])C([H])([H])[H])C([H])([H])c2c([H])c(OC([H])([H])C([H])([H])C([H])([H])C([H])([H])C([H])(C([H])([H])[H])C([H])(C([H])([H])[H])C([H])([H])C([H])([H])[N+]3([H])C([H])([H])C([H])(C([H])([H])[H])C([H])([H])C([H])([H])C3([H])C(=O)N([H])C(=O)N3C([H])([H])C([H])([H])C([H])([H])C([H])(n4nc(-c5c([H])c([H])c(Oc6c([H])c([H])c(F)c([H])c6F)c([H])c5[H])c(C(=O)N([H])[H])c4N([H])[H])C3([H])[H])c([H])c([H])c2C1([H])[H]

$$$$
3:0:0
     RDKit          3D

 98106  0  0  1  0  0  0  0  0999 V2000
  -30.9160  -21.4970   20.0450 C   0  0  0  0  0  0  0  0  0  0  0  0
  -30.7220  -22.8050   20.3100 N   0  0  0  0  0  0  0  0  0  0  0  0
  -32.0490  -21.0400   19.8870 O   0  0  0  0  0  0  0  0  0  0  0  0
  -29.7690  -23.0930   20.4920 H   0  0  0  0  0  0  0  0  0  0  0  0
  -29.4280  -20.1360   18.4190 C   0  0  0  0  0  2  0  0  0  0  0  0
  -30.3840  -19.0200   17.9830 C   0  0  0  0  0  2  0  0  0  0  0  0
  -29.5660  -19.2970   20.7790 C   0  0  0  0  0  2  0  0  0  0  0  0
  -29.6600  -20.5790   19.8790 C   0  0  0  0  0  3  0  0  0  0  0  0
  -30.5030  -18.0890   20.4040 C   0  0  0  0  0  3  0  0  0  0  0  0
  -30.3310  -17.7570   18.8840 C   0  0  0  0  0  3  0  0  0  0  0  0
  -31.3480  -16.8090   18.3840 N   0  0  0  0  0  4  0  0  0  0  0  0
  -32.1570  -17.3020   18.0500 H   0  0  0  0  0  0  0  0  0  0  0  0
  -30.9890  -16.2680   17.6180 H   0  0  0  0  0  0  0  0  0  0  0  0
  -31.6450  -16.1580   19.1070 H   0  0  0  0  0  0  0  0  0  0  0  0
  -30.3480  -16.8800   21.4350 C   0  0  0  0  0  2  0  0  0  0  0  0
  -30.6770  -14.5020   20.5220 C   0  0  0  0  0  0  0  0  0  0  0  0
  -30.4330  -12.3630   19.2940 C   0  0  0  0  0  2  0  0  0  0  0  0
  -29.4960  -12.5680   18.0810 C   0  0  0  0  0  2  0  0  0  0  0  0
  -28.0180  -12.4010   18.5020 C   0  0  0  0  0  2  0  0  0  0  0  0
  -27.6680  -13.2390   19.7590 C   0  0  0  0  0  3  0  0  0  0  0  0
  -28.7030  -12.9940   20.8760 C   0  0  0  0  0  2  0  0  0  0  0  0
  -30.0250  -13.3220   20.3240 N   0  0  0  0  0  0  0  0  0  0  0  0
  -31.8320  -14.6980   20.1270 O   0  0  0  0  0  0  0  0  0  0  0  0
  -29.9220  -15.5340   20.9580 N   0  0  0  0  0  0  0  0  0  0  0  0
  -28.9520  -15.2990   21.1430 H   0  0  0  0  0  0  0  0  0  0  0  0
  -25.2620  -13.8740   20.4140 C   0  0  0  0  0  0  0  0  0  0  0  0
  -24.1820  -13.1160   20.7850 C   0  0  0  0  0  0  0  0  0  0  0  0
  -24.6360  -11.7600   20.7840 C   0  0  0  0  0  0  0  0  0  0  0  0
  -26.3070  -12.9800   20.2190 N   0  0  0  0  0  0  0  0  0  0  0  0
  -25.9300  -11.7060   20.4960 N   0  0  0  0  0  0  0  0  0  0  0  0
  -23.9010  -10.5070   20.9870 C   0  0  0  0  0  0  0  0  0  0  0  0
  -24.3260   -9.5510   21.9350 C   0  0  0  0  0  3  0  0  0  0  0  0
  -23.5970   -8.3550   22.1220 C   0  0  0  0  0  3  0  0  0  0  0  0
  -22.4300   -8.1130   21.3630 C   0  0  0  0  0  0  0  0  0  0  0  0
  -22.0240   -9.0550   20.4050 C   0  0  0  0  0  3  0  0  0  0  0  0
  -22.7540  -10.2390   20.2140 C   0  0  0  0  0  3  0  0  0  0  0  0
  -21.6710   -6.9720   21.4580 O   0  0  0  0  0  0  0  0  0  0  0  0
  -21.6130   -6.2390   22.6170 C   0  0  0  0  0  0  0  0  0  0  0  0
  -21.1970   -6.8070   23.8430 C   0  0  0  0  0  3  0  0  0  0  0  0
  -21.0910   -5.9990   24.9920 C   0  0  0  0  0  3  0  0  0  0  0  0
  -21.3880   -4.6260   24.9180 C   0  0  0  0  0  0  0  0  0  0  0  0
  -21.7970   -4.0580   23.7000 C   0  0  0  0  0  3  0  0  0  0  0  0
  -21.9040   -4.8630   22.5510 C   0  0  0  0  0  0  0  0  0  0  0  0
  -22.2790   -4.3070   21.3730 F   0  0  0  0  0  0  0  0  0  0  0  0
  -21.2790   -3.8490   26.0210 F   0  0  0  0  0  0  0  0  0  0  0  0
  -22.7850  -13.6110   21.0320 C   0  0  0  0  0  0  0  0  0  0  0  0
  -22.0390  -12.9360   21.9020 N   0  0  0  0  0  0  0  0  0  0  0  0
  -22.3620  -14.6270   20.4860 O   0  0  0  0  0  0  0  0  0  0  0  0
  -22.3940  -12.1200   22.3750 H   0  0  0  0  0  0  0  0  0  0  0  0
  -21.1050  -13.2540   22.1140 H   0  0  0  0  0  0  0  0  0  0  0  0
  -25.4430  -15.2360   20.2050 N   0  0  0  0  0  0  0  0  0  0  0  0
  -24.6520  -15.8730   20.1950 H   0  0  0  0  0  0  0  0  0  0  0  0
  -26.2850  -15.6440   19.8180 H   0  0  0  0  0  0  0  0  0  0  0  0
  -31.7410  -23.8740   20.3340 C   0  0  0  0  0  2  0  0  0  0  0  0
  -31.1290  -25.2860   20.5540 C   0  0  0  0  0  2  0  0  0  0  0  0
  -30.4190  -25.9020   19.3270 C   0  0  0  0  0  2  0  0  0  0  0  0
  -29.5520  -27.1440   19.6530 C   0  0  0  0  0  2  0  0  0  0  0  0
  -28.3200  -26.6450   20.1430 O   0  0  0  0  0  0  0  0  0  0  0  0
  -24.5700  -31.8860   23.2280 C   0  0  0  0  0  0  0  0  0  0  0  0
  -27.2190  -27.4680   20.1320 C   0  0  0  0  0  0  0  0  0  0  0  0
  -23.3630  -30.4830   21.5910 C   0  0  0  0  0  3  0  0  0  0  0  0
  -24.8170  -28.9590   20.1570 C   0  0  0  0  0  0  0  0  0  0  0  0
  -25.8860  -30.8570   21.3790 C   0  0  0  0  0  2  0  0  0  0  0  0
  -25.9790  -29.4900   20.7340 C   0  0  0  0  0  0  0  0  0  0  0  0
  -27.1890  -28.7580   20.7120 C   0  0  0  0  0  3  0  0  0  0  0  0
  -26.0360  -26.9380   19.5770 C   0  0  0  0  0  3  0  0  0  0  0  0
  -24.8400  -27.6800   19.5730 C   0  0  0  0  0  3  0  0  0  0  0  0
  -23.5670  -29.8110   20.2110 C   0  0  0  0  0  2  0  0  0  0  0  0
  -24.6260  -31.0880   22.1260 N   0  0  0  0  0  0  0  0  0  0  0  0
  -23.4890  -32.1560   23.7700 O   0  0  0  0  0  0  0  0  0  0  0  0
  -22.7140  -29.4570   22.5500 C   0  0  0  0  0  0  0  0  0  0  0  0
  -21.3880  -29.2800   22.4290 N   0  0  0  0  0  0  0  0  0  0  0  0
  -23.4000  -28.8310   23.3610 O   0  0  0  0  0  0  0  0  0  0  0  0
  -20.8950  -29.8410   21.7490 H   0  0  0  0  0  0  0  0  0  0  0  0
  -18.0090  -28.1050   22.9420 C   0  0  0  0  0  0  0  0  0  0  0  0
  -20.5700  -28.3420   23.2000 C   0  0  0  0  0  3  0  0  0  0  0  0
  -20.6590  -26.9120   22.6170 C   0  0  0  0  0  2  0  0  0  0  0  0
  -19.5500  -26.6030   21.6080 C   0  0  0  0  0  2  0  0  0  0  0  0
  -18.1720  -26.7560   22.2610 C   0  0  0  0  0  2  0  0  0  0  0  0
  -19.1360  -28.8550   23.3700 C   0  0  0  0  0  0  0  0  0  0  0  0
  -18.9290  -30.1190   23.9640 C   0  0  0  0  0  3  0  0  0  0  0  0
  -17.6300  -30.6290   24.1390 C   0  0  0  0  0  3  0  0  0  0  0  0
  -16.5180  -29.8730   23.7310 C   0  0  0  0  0  3  0  0  0  0  0  0
  -16.7080  -28.6130   23.1370 C   0  0  0  0  0  3  0  0  0  0  0  0
  -25.8580  -32.5180   23.8480 C   0  0  0  0  0  3  0  0  0  0  0  0
  -26.3780  -31.7460   25.1220 C   0  0  1  0  0  0  0  0  0  0  0  0
  -25.2860  -31.5130   26.1910 C   0  0  0  0  0  1  0  0  0  0  0  0
  -26.9590  -30.3690   24.7240 C   0  0  0  0  0  1  0  0  0  0  0  0
  -27.5310  -32.5410   25.7790 C   0  0  0  0  0  1  0  0  0  0  0  0
  -25.5500  -33.9150   24.1730 N   0  0  0  0  0  0  0  0  0  0  0  0
  -25.8890  -34.9650   23.4140 C   0  0  0  0  0  0  0  0  0  0  0  0
  -26.5660  -34.8590   22.3850 O   0  0  0  0  0  0  0  0  0  0  0  0
  -24.9480  -34.0720   24.9680 H   0  0  0  0  0  0  0  0  0  0  0  0
  -24.1720  -36.7620   23.0350 C   0  0  0  0  0  1  0  0  0  0  0  0
  -25.4000  -36.3540   23.8650 C   0  0  0  0  0  3  0  0  0  0  0  0
  -27.5270  -37.2240   24.7280 C   0  0  0  0  0  1  0  0  0  0  0  0
  -26.4380  -37.4040   23.7700 N   0  0  0  0  0  0  0  0  0  0  0  0
  -26.0340  -38.3240   23.9190 H   0  0  0  0  0  0  0  0  0  0  0  0
  1  2  1  0
  2 54  1  0
  2  4  1  0
  3  1  2  0
  5  8  1  0
  6  5  1  0
  6 10  1  0
  8  1  1  0
  8  7  1  0
  9  7  1  0
  9 15  1  0
 10 11  1  0
 10  9  1  0
 11 14  1  0
 12 11  1  0
 13 11  1  0
 16 24  1  0
 17 22  1  0
 18 19  1  0
 18 17  1  0
 20 19  1  0
 20 29  1  0
 20 21  1  0
 22 16  1  0
 22 21  1  0
 23 16  2  0
 24 25  1  0
 24 15  1  0
 26 27  2  0
 27 46  1  0
 28 27  1  0
 28 31  1  0
 29 26  1  0
 29 30  1  0
 30 28  2  0
 31 32  1  0
 32 33  2  0
 34 37  1  0
 34 33  1  0
 35 34  2  0
 36 35  1  0
 36 31  2  0
 37 38  1  0
 38 39  1  0
 39 40  2  0
 41 40  1  0
 41 45  1  0
 42 41  2  0
 43 38  2  0
 43 42  1  0
 44 43  1  0
 46 47  1  0
 47 50  1  0
 47 49  1  0
 48 46  2  0
 51 26  1  0
 52 51  1  0
 53 51  1  0
 54 55  1  0
 56 57  1  0
 56 55  1  0
 57 58  1  0
 59 70  2  0
 60 58  1  0
 60 65  1  0
 61 69  1  0
 61 71  1  0
 62 68  1  0
 62 64  1  0
 63 69  1  0
 64 63  1  0
 65 64  2  0
 66 60  2  0
 67 66  1  0
 67 62  2  0
 68 61  1  0
 69 59  1  0
 71 73  2  0
 72 71  1  0
 74 72  1  0
 75 84  2  0
 75 80  1  0
 76 72  1  0
 76 80  1  0
 77 76  1  0
 78 79  1  0
 78 77  1  0
 79 75  1  0
 80 81  2  0
 81 82  1  0
 83 82  2  0
 84 83  1  0
 85 59  1  0
 85 90  1  0
 85 86  1  0
 86 89  1  1
 86 87  1  0
 88 86  1  0
 90 93  1  0
 91 95  1  0
 91 90  1  0
 92 91  2  0
 95 94  1  0
 97 95  1  0
 97 98  1  0
 97 96  1  0
M  ISO  4  16 100  24 100  57 101  58 101
M  END
>  <TORSDO>  (4) 
F 23

>  <SCORE>  (4) 
-13.162

>  <name>  (4) 
3

>  <ligand_id>  (4) 
3

>  <original_smiles>  (4) 
[H]c1c([H])c([H])c2c(c1[H])C([H])([H])C([H])([H])C([H])([H])C2([H])N([H])C(=O)C1([H])N(C(=O)C([H])(N([H])C(=O)C([H])(N([H])C([H])([H])[H])C([H])([H])[H])C(C([H])([H])[H])(C([H])([H])[H])C([H])([H])[H])C([H])([H])c2c([H])c(OC([H])([H])C([H])([H])C([H])([H])C([H])([H])N([H])C(=O)C3([H])C([H])([H])C([H])([H])C([H])([N+]([H])([H])[H])C([H])(C([H])([H])N([H])C(=O)N4C([H])([H])C([H])([H])C([H])([H])C([H])(n5nc(-c6c([H])c([H])c(Oc7c([H])c([H])c(F)c([H])c7F)c([H])c6[H])c(C(=O)N([H])[H])c5N([H])[H])C4([H])[H])C3([H])[H])c([H])c([H])c2C1([H])[H]

>  <smiles>  (4) 
[H]c1c([H])c([H])c2c(c1[H])C([H])([H])C([H])([H])C([H])([H])C2([H])N([H])C(=O)C1([H])N(C(=O)C([H])(N([H])C(=O)C([H])(N([H])C([H])([H])[H])C([H])([H])[H])C(C([H])([H])[H])(C([H])([H])[H])C([H])([H])[H])C([H])([H])c2c([H])c(OC([H])([H])C([H])([H])C([H])([H])C([H])([H])N([H])C(=O)C3([H])C([H])([H])C([H])([H])C([H])([N+]([H])([H])[H])C([H])(C([H])([H])N([H])C(=O)N4C([H])([H])C([H])([H])C([H])([H])C([H])(n5nc(-c6c([H])c([H])c(Oc7c([H])c([H])c(F)c([H])c7F)c([H])c6[H])c(C(=O)N([H])[H])c5N([H])[H])C4([H])[H])C3([H])[H])c([H])c([H])c2C1([H])[H]

$$$$
4:0:0
     RDKit          3D

102110  0  0  1  0  0  0  0  0999 V2000
  -24.4760  -26.4000   21.5500 C   0  0  0  0  0  2  0  0  0  0  0  0
  -23.7690  -27.2870   18.5120 C   0  0  0  0  0  2  0  0  0  0  0  0
  -24.3710  -30.2150   20.1490 C   0  0  0  0  0  3  0  0  0  0  0  0
  -24.2740  -25.9950   19.8260 C   0  0  0  0  0  3  0  0  0  0  0  0
  -24.7970  -28.0640   22.2250 C   0  0  0  0  0  2  0  0  0  0  0  0
  -24.0110  -29.2230   18.4900 C   0  0  0  0  0  3  0  0  0  0  0  0
  -22.9920  -29.8890   17.6580 N   0  0  0  0  0  4  0  0  0  0  0  0
  -22.0690  -29.8120   18.0460 H   0  0  0  0  0  0  0  0  0  0  0  0
  -22.9800  -29.4880   16.7360 H   0  0  0  0  0  0  0  0  0  0  0  0
  -23.2150  -30.8640   17.5560 H   0  0  0  0  0  0  0  0  0  0  0  0
  -24.6090  -24.4040   19.4250 C   0  0  0  0  0  0  0  0  0  0  0  0
  -25.7000  -23.6050   19.9030 N   0  0  0  0  0  0  0  0  0  0  0  0
  -23.9130  -23.9310   18.5250 O   0  0  0  0  0  0  0  0  0  0  0  0
  -26.1700  -24.0260   20.6910 H   0  0  0  0  0  0  0  0  0  0  0  0
  -26.5110  -22.3890   19.2800 C   0  0  0  0  0  3  0  0  0  0  0  0
  -27.3100  -21.1410   20.1170 C   0  0  0  0  0  3  0  0  0  0  0  0
  -28.3030  -19.9210   19.4660 C   0  0  0  0  0  2  0  0  0  0  0  0
  -28.6140  -18.3670   20.0810 C   0  0  0  0  0  3  0  0  0  0  0  0
  -29.8410  -17.2960   19.5870 C   0  0  0  0  0  3  0  0  0  0  0  0
  -30.8720  -14.6890   19.7580 C   0  0  0  0  0  0  0  0  0  0  0  0
  -30.7380  -12.3550   18.7970 C   0  0  0  0  0  2  0  0  0  0  0  0
  -29.7170  -12.4140   17.6340 C   0  0  0  0  0  2  0  0  0  0  0  0
  -28.2720  -12.2910   18.1630 C   0  0  0  0  0  2  0  0  0  0  0  0
  -28.0170  -13.2030   19.3920 C   0  0  0  0  0  3  0  0  0  0  0  0
  -29.1220  -13.0340   20.4500 C   0  0  0  0  0  2  0  0  0  0  0  0
  -30.3640  -13.4040   19.7820 N   0  0  0  0  0  0  0  0  0  0  0  0
  -32.0480  -14.8260   19.3820 O   0  0  0  0  0  0  0  0  0  0  0  0
  -29.9430  -15.7600   19.9580 N   0  0  0  0  0  0  0  0  0  0  0  0
  -29.0620  -15.3910   20.2820 H   0  0  0  0  0  0  0  0  0  0  0  0
  -25.7650  -13.9760   20.3170 C   0  0  0  0  0  0  0  0  0  0  0  0
  -24.6710  -13.2810   20.7520 C   0  0  0  0  0  0  0  0  0  0  0  0
  -25.0200  -11.8990   20.6600 C   0  0  0  0  0  0  0  0  0  0  0  0
  -26.7030  -13.0170   19.9730 N   0  0  0  0  0  0  0  0  0  0  0  0
  -26.2740  -11.7620   20.2490 N   0  0  0  0  0  0  0  0  0  0  0  0
  -24.2160  -10.6940   20.8760 C   0  0  0  0  0  0  0  0  0  0  0  0
  -24.6140   -9.6940   21.7910 C   0  0  0  0  0  3  0  0  0  0  0  0
  -23.8110   -8.5520   21.9940 C   0  0  0  0  0  3  0  0  0  0  0  0
  -22.5970   -8.4040   21.2810 C   0  0  0  0  0  0  0  0  0  0  0  0
  -22.2200   -9.3900   20.3520 C   0  0  0  0  0  3  0  0  0  0  0  0
  -23.0230  -10.5240   20.1490 C   0  0  0  0  0  3  0  0  0  0  0  0
  -21.7650   -7.3170   21.3960 O   0  0  0  0  0  0  0  0  0  0  0  0
  -21.6630   -6.6090   22.5660 C   0  0  0  0  0  0  0  0  0  0  0  0
  -21.2900   -7.2260   23.7800 C   0  0  0  0  0  3  0  0  0  0  0  0
  -21.1310   -6.4490   24.9440 C   0  0  0  0  0  3  0  0  0  0  0  0
  -21.3340   -5.0560   24.8950 C   0  0  0  0  0  0  0  0  0  0  0  0
  -21.7010   -4.4400   23.6860 C   0  0  0  0  0  3  0  0  0  0  0  0
  -21.8620   -5.2150   22.5240 C   0  0  0  0  0  0  0  0  0  0  0  0
  -22.1960   -4.6130   21.3570 F   0  0  0  0  0  0  0  0  0  0  0  0
  -21.1740   -4.3080   26.0120 F   0  0  0  0  0  0  0  0  0  0  0  0
  -23.3410  -13.8610   21.1320 C   0  0  0  0  0  0  0  0  0  0  0  0
  -22.6270  -13.2110   22.0430 N   0  0  0  0  0  0  0  0  0  0  0  0
  -22.9500  -14.9260   20.6560 O   0  0  0  0  0  0  0  0  0  0  0  0
  -22.9580  -12.3490   22.4490 H   0  0  0  0  0  0  0  0  0  0  0  0
  -21.7350  -13.5820   22.3390 H   0  0  0  0  0  0  0  0  0  0  0  0
  -26.0260  -15.3360   20.1630 N   0  0  0  0  0  0  0  0  0  0  0  0
  -25.3150  -16.0290   20.3690 H   0  0  0  0  0  0  0  0  0  0  0  0
  -26.8420  -15.7310   19.7190 H   0  0  0  0  0  0  0  0  0  0  0  0
  -25.4650  -27.8750   23.6510 C   0  0  0  0  0  2  0  0  0  0  0  0
  -27.0470  -26.5370   25.1740 C   0  0  0  0  0  1  0  0  0  0  0  0
  -27.0380  -27.4430   23.9180 C   0  0  0  0  0  3  0  0  0  0  0  0
  -27.9840  -26.6560   22.8670 C   0  0  0  0  0  2  0  0  0  0  0  0
  -28.8590  -27.2900   21.8790 O   0  0  0  0  0  0  0  0  0  0  0  0
  -25.2720  -32.3710   24.6510 C   0  0  0  0  0  0  0  0  0  0  0  0
  -28.1750  -28.2060   21.2000 C   0  0  0  0  0  0  0  0  0  0  0  0
  -23.8120  -31.0520   22.9620 C   0  0  0  0  0  3  0  0  0  0  0  0
  -25.8560  -29.4190   20.7210 C   0  0  0  0  0  3  0  0  0  0  0  0
  -26.7370  -31.3860   22.7320 C   0  0  0  0  0  2  0  0  0  0  0  0
  -27.0230  -30.2230   21.4810 C   0  0  0  0  0  3  0  0  0  0  0  0
  -28.1940  -29.5200   21.6600 C   0  0  0  0  0  2  0  0  0  0  0  0
  -27.3560  -27.7960   20.1590 C   0  0  0  0  0  3  0  0  0  0  0  0
  -26.3910  -28.6620   19.6930 C   0  0  0  0  0  2  0  0  0  0  0  0
  -23.7140  -29.8300   21.5730 C   0  0  0  0  0  2  0  0  0  0  0  0
  -25.2870  -31.6520   23.4740 N   0  0  0  0  0  0  0  0  0  0  0  0
  -24.1970  -32.7230   25.1580 O   0  0  0  0  0  0  0  0  0  0  0  0
  -23.0030  -30.3090   23.9390 C   0  0  0  0  0  0  0  0  0  0  0  0
  -21.8640  -29.9210   23.4040 N   0  0  0  0  0  0  0  0  0  0  0  0
  -23.4770  -29.8730   24.9800 O   0  0  0  0  0  0  0  0  0  0  0  0
  -21.5710  -30.3120   22.5230 H   0  0  0  0  0  0  0  0  0  0  0  0
  -18.7770  -28.3560   22.9470 C   0  0  0  0  0  0  0  0  0  0  0  0
  -21.0610  -28.8710   23.9380 C   0  0  0  0  0  3  0  0  0  0  0  0
  -21.5050  -27.4830   23.4180 C   0  0  0  0  0  2  0  0  0  0  0  0
  -20.7940  -27.0720   22.1290 C   0  0  0  0  0  2  0  0  0  0  0  0
  -19.2870  -27.0360   22.3960 C   0  0  0  0  0  2  0  0  0  0  0  0
  -19.6310  -29.2360   23.6460 C   0  0  0  0  0  0  0  0  0  0  0  0
  -19.1600  -30.4970   24.0740 C   0  0  0  0  0  3  0  0  0  0  0  0
  -17.8260  -30.8680   23.8430 C   0  0  0  0  0  3  0  0  0  0  0  0
  -16.9570  -29.9690   23.2000 C   0  0  0  0  0  3  0  0  0  0  0  0
  -17.4300  -28.7210   22.7530 C   0  0  0  0  0  3  0  0  0  0  0  0
  -26.5720  -32.8080   25.4260 C   0  0  0  0  0  3  0  0  0  0  0  0
  -26.8070  -32.1270   26.8510 C   0  0  1  0  0  0  0  0  0  0  0  0
  -25.5070  -31.9580   27.6750 C   0  0  0  0  0  1  0  0  0  0  0  0
  -27.5040  -30.7600   26.7920 C   0  0  0  0  0  1  0  0  0  0  0  0
  -27.7990  -32.9590   27.6980 C   0  0  0  0  0  1  0  0  0  0  0  0
  -26.4580  -34.2610   25.6390 N   0  0  0  0  0  0  0  0  0  0  0  0
  -27.0990  -35.2110   24.9500 C   0  0  0  0  0  0  0  0  0  0  0  0
  -27.8840  -34.9520   24.0350 O   0  0  0  0  0  0  0  0  0  0  0  0
  -25.7780  -34.5510   26.3260 H   0  0  0  0  0  0  0  0  0  0  0  0
  -25.7740  -37.2690   24.3710 C   0  0  0  0  0  1  0  0  0  0  0  0
  -26.8140  -36.6770   25.3340 C   0  0  0  0  0  3  0  0  0  0  0  0
  -28.9540  -37.2020   26.4210 C   0  0  0  0  0  1  0  0  0  0  0  0
  -28.0210  -37.5310   25.3460 N   0  0  0  0  0  0  0  0  0  0  0  0
  -27.7660  -38.5100   25.4390 H   0  0  0  0  0  0  0  0  0  0  0  0
  1  5  1  0
  2  4  1  0
  3 66  1  0
  3 72  1  0
  4 11  1  0
  4  1  1  0
  5 58  1  0
  6  7  1  0
  6  2  1  0
  6  3  1  0
  7  8  1  0
  9  7  1  0
 10  7  1  0
 11 12  1  0
 12 14  1  0
 13 11  2  0
 15 12  1  0
 15 16  2  0
 17 18  1  0
 17 16  1  0
 19 28  1  0
 19 18  2  0
 20 26  1  0
 20 28  1  0
 21 26  1  0
 22 23  1  0
 22 21  1  0
 24 23  1  0
 24 33  1  0
 24 25  1  0
 26 25  1  0
 27 20  2  0
 28 29  1  0
 30 31  2  0
 31 50  1  0
 32 31  1  0
 32 35  1  0
 33 34  1  0
 33 30  1  0
 34 32  2  0
 35 36  1  0
 36 37  2  0
 38 41  1  0
 38 37  1  0
 39 38  2  0
 40 39  1  0
 40 35  2  0
 41 42  1  0
 42 43  1  0
 43 44  2  0
 45 44  1  0
 45 49  1  0
 46 45  2  0
 47 42  2  0
 47 46  1  0
 48 47  1  0
 50 51  1  0
 51 54  1  0
 51 53  1  0
 52 50  2  0
 55 30  1  0
 55 56  1  0
 57 55  1  0
 58 60  1  0
 60 59  1  0
 61 60  1  0
 62 61  1  0
 63 74  2  0
 64 69  1  0
 64 62  1  0
 65 73  1  0
 65 75  1  0
 66 71  1  0
 66 68  1  0
 67 73  1  0
 68 69  1  0
 68 67  1  0
 70 64  2  0
 71 70  1  0
 72 65  1  0
 73 63  1  0
 75 77  2  0
 76 75  1  0
 78 76  1  0
 79 84  1  0
 80 76  1  0
 81 80  1  0
 82 83  1  0
 82 81  1  0
 83 79  1  0
 84 80  1  0
 84 85  2  0
 86 85  1  0
 87 86  2  0
 88 79  2  0
 88 87  1  0
 89 63  1  0
 89 94  1  0
 89 90  1  0
 90 91  1  1
 90 93  1  0
 92 90  1  0
 94 97  1  0
 95 99  1  0
 95 94  1  0
 96 95  2  0
 99 98  1  0
 99101  1  0
101102  1  0
101100  1  0
M  ISO  4  20 100  28 100  61 101  62 101
M  END
>  <TORSDO>  (5) 
F 26

>  <SCORE>  (5) 
-7.375

>  <name>  (5) 
4

>  <ligand_id>  (5) 
4

>  <original_smiles>  (5) 
[H]c1c([H])c([H])c2c(c1[H])C([H])([H])C([H])([H])C([H])([H])C2([H])N([H])C(=O)C1([H])N(C(=O)C([H])(N([H])C(=O)C([H])(N([H])C([H])([H])[H])C([H])([H])[H])C(C([H])([H])[H])(C([H])([H])[H])C([H])([H])[H])C([H])([H])c2c([H])c(OC([H])([H])C([H])(C([H])([H])[H])C([H])([H])C3([H])C([H])([H])C([H])(C(=O)N([H])C([H])([H])C([H])([H])C([H])([H])C([H])([H])C([H])([H])N([H])C(=O)N4C([H])([H])C([H])([H])C([H])([H])C([H])(n5nc(-c6c([H])c([H])c(Oc7c([H])c([H])c(F)c([H])c7F)c([H])c6[H])c(C(=O)N([H])[H])c5N([H])[H])C4([H])[H])C([H])([H])C([H])([N+]([H])([H])[H])C3([H])[H])c([H])c([H])c2C1([H])[H]

>  <smiles>  (5) 
[H]c1c([H])c([H])c2c(c1[H])C([H])([H])C([H])([H])C([H])([H])C2([H])N([H])C(=O)C1([H])N(C(=O)C([H])(N([H])C(=O)C([H])(N([H])C([H])([H])[H])C([H])([H])[H])C(C([H])([H])[H])(C([H])([H])[H])C([H])([H])[H])C([H])([H])c2c([H])c(OC([H])([H])C([H])(C([H])([H])[H])C([H])([H])C3([H])C([H])([H])C([H])(C(=O)N([H])C([H])([H])C([H])([H])C([H])([H])C([H])([H])C([H])([H])N([H])C(=O)N4C([H])([H])C([H])([H])C([H])([H])C([H])(n5nc(-c6c([H])c([H])c(Oc7c([H])c([H])c(F)c([H])c7F)c([H])c6[H])c(C(=O)N([H])[H])c5N([H])[H])C4([H])[H])C([H])([H])C([H])([N+]([H])([H])[H])C3([H])[H])c([H])c([H])c2C1([H])[H]

$$$$
5:0:0
     RDKit          3D

 90 98  0  0  1  0  0  0  0  0999 V2000
  -29.3860  -21.5860   21.0750 C   0  0  0  0  0  2  0  0  0  0  0  0
  -26.9150  -22.2330   20.8150 C   0  0  0  0  0  1  0  0  0  0  0  0
  -28.3340  -22.7530   21.0860 C   0  0  0  0  0  3  0  0  0  0  0  0
  -28.6630  -24.0610   20.2680 C   0  0  0  0  0  2  0  0  0  0  0  0
  -28.2690  -25.4000   20.9920 C   0  0  0  0  0  2  0  0  0  0  0  0
  -28.4520  -26.6470   20.2590 O   0  0  0  0  0  0  0  0  0  0  0  0
  -24.6370  -31.9200   23.2520 C   0  0  0  0  0  0  0  0  0  0  0  0
  -27.3270  -27.4540   20.2140 C   0  0  0  0  0  0  0  0  0  0  0  0
  -23.4580  -30.5050   21.6050 C   0  0  0  0  0  3  0  0  0  0  0  0
  -24.9360  -28.9750   20.1890 C   0  0  0  0  0  0  0  0  0  0  0  0
  -25.9860  -30.8740   21.4290 C   0  0  0  0  0  2  0  0  0  0  0  0
  -26.0880  -29.5000   20.7900 C   0  0  0  0  0  0  0  0  0  0  0  0
  -27.2940  -28.7490   20.7950 C   0  0  0  0  0  3  0  0  0  0  0  0
  -26.1610  -26.9600   19.5940 C   0  0  0  0  0  3  0  0  0  0  0  0
  -24.9680  -27.7060   19.5850 C   0  0  0  0  0  3  0  0  0  0  0  0
  -23.6860  -29.8290   20.2280 C   0  0  0  0  0  2  0  0  0  0  0  0
  -24.7120  -31.1150   22.1550 N   0  0  0  0  0  0  0  0  0  0  0  0
  -23.5490  -32.1850   23.7830 O   0  0  0  0  0  0  0  0  0  0  0  0
  -22.8030  -29.4800   22.5620 C   0  0  0  0  0  0  0  0  0  0  0  0
  -21.4780  -29.2940   22.4330 N   0  0  0  0  0  0  0  0  0  0  0  0
  -23.4850  -28.8560   23.3780 O   0  0  0  0  0  0  0  0  0  0  0  0
  -20.9880  -29.8590   21.7520 H   0  0  0  0  0  0  0  0  0  0  0  0
  -18.1060  -28.0890   22.9270 C   0  0  0  0  0  0  0  0  0  0  0  0
  -20.6640  -28.3480   23.1950 C   0  0  0  0  0  3  0  0  0  0  0  0
  -20.7690  -26.9210   22.6110 C   0  0  0  0  0  2  0  0  0  0  0  0
  -19.6660  -26.6010   21.5960 C   0  0  0  0  0  2  0  0  0  0  0  0
  -18.2850  -26.7420   22.2430 C   0  0  0  0  0  2  0  0  0  0  0  0
  -19.2250  -28.8490   23.3590 C   0  0  0  0  0  0  0  0  0  0  0  0
  -19.0090  -30.1080   23.9580 C   0  0  0  0  0  3  0  0  0  0  0  0
  -17.7060  -30.6110   24.1280 C   0  0  0  0  0  3  0  0  0  0  0  0
  -16.6000  -29.8480   23.7130 C   0  0  0  0  0  3  0  0  0  0  0  0
  -16.8000  -28.5880   23.1200 C   0  0  0  0  0  3  0  0  0  0  0  0
  -25.9100  -32.5670   23.8810 C   0  0  0  0  0  3  0  0  0  0  0  0
  -25.5870  -33.9630   24.2030 N   0  0  0  0  0  0  0  0  0  0  0  0
  -25.9170  -35.0140   23.4400 C   0  0  0  0  0  0  0  0  0  0  0  0
  -26.5930  -34.9080   22.4120 O   0  0  0  0  0  0  0  0  0  0  0  0
  -24.9890  -34.1170   25.0010 H   0  0  0  0  0  0  0  0  0  0  0  0
  -24.1730  -36.7890   23.0690 C   0  0  0  0  0  1  0  0  0  0  0  0
  -25.4160  -36.4000   23.8880 C   0  0  0  0  0  3  0  0  0  0  0  0
  -27.5410  -37.3070   24.7180 C   0  0  0  0  0  1  0  0  0  0  0  0
  -26.4400  -37.4630   23.7710 N   0  0  0  0  0  0  0  0  0  0  0  0
  -26.0250  -38.3790   23.9190 H   0  0  0  0  0  0  0  0  0  0  0  0
  -26.4240  -31.8050   25.1630 C   0  0  1  0  0  0  0  0  0  0  0  0
  -25.3260  -31.5610   26.2240 C   0  0  0  0  0  1  0  0  0  0  0  0
  -27.0220  -30.4330   24.7760 C   0  0  0  0  0  1  0  0  0  0  0  0
  -27.5620  -32.6140   25.8290 C   0  0  0  0  0  1  0  0  0  0  0  0
  -29.4520  -20.5720   19.8840 C   0  0  0  0  0  2  0  0  0  0  0  0
  -28.7830  -19.1470   19.9980 C   0  0  0  0  0  2  0  0  0  0  0  0
  -30.7170  -14.5820   20.2550 C   0  0  0  0  0  0  0  0  0  0  0  0
  -30.3340  -12.4210   19.1070 C   0  0  0  0  0  2  0  0  0  0  0  0
  -29.3760  -12.6070   17.9130 C   0  0  0  0  0  2  0  0  0  0  0  0
  -27.9130  -12.4630   18.3750 C   0  0  0  0  0  2  0  0  0  0  0  0
  -27.6020  -13.3010   19.6440 C   0  0  0  0  0  3  0  0  0  0  0  0
  -28.6850  -13.1280   20.7330 C   0  0  0  0  0  2  0  0  0  0  0  0
  -29.9880  -13.4300   20.1290 N   0  0  0  0  0  0  0  0  0  0  0  0
  -31.8310  -14.6800   19.7320 O   0  0  0  0  0  0  0  0  0  0  0  0
  -30.7760  -17.9320   21.3500 C   0  0  0  0  0  0  0  0  0  0  0  0
  -31.1450  -16.5030   21.7070 C   0  0  0  0  0  2  0  0  0  0  0  0
  -29.1290  -16.5170   20.4330 C   0  0  0  0  0  2  0  0  0  0  0  0
  -29.3220  -17.9910   20.9340 C   0  0  0  0  0  3  0  0  0  0  0  0
  -30.2070  -15.6320   20.9700 N   0  0  0  0  0  0  0  0  0  0  0  0
  -31.5430  -18.8930   21.4450 O   0  0  0  0  0  0  0  0  0  0  0  0
  -25.2240  -13.9010   20.4130 C   0  0  0  0  0  0  0  0  0  0  0  0
  -24.1660  -13.1280   20.8090 C   0  0  0  0  0  0  0  0  0  0  0  0
  -24.6270  -11.7770   20.7670 C   0  0  0  0  0  0  0  0  0  0  0  0
  -26.2630  -13.0210   20.1580 N   0  0  0  0  0  0  0  0  0  0  0  0
  -25.9120  -11.7380   20.4320 N   0  0  0  0  0  0  0  0  0  0  0  0
  -23.9040  -10.5140   20.9720 C   0  0  0  0  0  0  0  0  0  0  0  0
  -24.3460   -9.5500   21.9050 C   0  0  0  0  0  3  0  0  0  0  0  0
  -23.6240   -8.3530   22.0950 C   0  0  0  0  0  3  0  0  0  0  0  0
  -22.4450   -8.1100   21.3500 C   0  0  0  0  0  0  0  0  0  0  0  0
  -22.0240   -9.0610   20.4040 C   0  0  0  0  0  3  0  0  0  0  0  0
  -22.7470  -10.2500   20.2130 C   0  0  0  0  0  3  0  0  0  0  0  0
  -21.6930   -6.9650   21.4500 O   0  0  0  0  0  0  0  0  0  0  0  0
  -21.6490   -6.2310   22.6080 C   0  0  0  0  0  0  0  0  0  0  0  0
  -21.2320   -6.7940   23.8330 C   0  0  0  0  0  3  0  0  0  0  0  0
  -21.1370   -5.9870   24.9840 C   0  0  0  0  0  3  0  0  0  0  0  0
  -21.4450   -4.6150   24.9110 C   0  0  0  0  0  0  0  0  0  0  0  0
  -21.8570   -4.0510   23.6910 C   0  0  0  0  0  3  0  0  0  0  0  0
  -21.9550   -4.8550   22.5420 C   0  0  0  0  0  0  0  0  0  0  0  0
  -22.3310   -4.3010   21.3640 F   0  0  0  0  0  0  0  0  0  0  0  0
  -21.3480   -3.8380   26.0160 F   0  0  0  0  0  0  0  0  0  0  0  0
  -22.7730  -13.6050   21.1100 C   0  0  0  0  0  0  0  0  0  0  0  0
  -22.0590  -12.9070   21.9850 N   0  0  0  0  0  0  0  0  0  0  0  0
  -22.3280  -14.6330   20.6030 O   0  0  0  0  0  0  0  0  0  0  0  0
  -22.4340  -12.0760   22.4220 H   0  0  0  0  0  0  0  0  0  0  0  0
  -21.1240  -13.2080   22.2220 H   0  0  0  0  0  0  0  0  0  0  0  0
  -25.3810  -15.2720   20.2230 N   0  0  0  0  0  0  0  0  0  0  0  0
  -24.6110  -15.9240   20.3290 H   0  0  0  0  0  0  0  0  0  0  0  0
  -26.2080  -15.6980   19.8280 H   0  0  0  0  0  0  0  0  0  0  0  0
  1  3  1  0
  3  2  1  0
  4  5  1  0
  4  3  1  0
  6  5  1  0
  7 18  2  0
  8  6  1  0
  8 13  1  0
  9 17  1  0
  9 19  1  0
 10 16  1  0
 10 12  1  0
 11 17  1  0
 12 13  2  0
 12 11  1  0
 14  8  2  0
 15 14  1  0
 15 10  2  0
 16  9  1  0
 17  7  1  0
 19 21  2  0
 20 19  1  0
 22 20  1  0
 23 32  2  0
 23 28  1  0
 24 20  1  0
 24 28  1  0
 25 24  1  0
 26 27  1  0
 26 25  1  0
 27 23  1  0
 28 29  2  0
 29 30  1  0
 31 30  2  0
 32 31  1  0
 33  7  1  0
 33 34  1  0
 33 43  1  0
 34 37  1  0
 35 39  1  0
 35 34  1  0
 36 35  2  0
 39 38  1  0
 41 39  1  0
 41 42  1  0
 41 40  1  0
 43 46  1  1
 43 44  1  0
 45 43  1  0
 47 48  1  0
 47  1  1  0
 49 61  1  0
 50 55  1  0
 51 52  1  0
 51 50  1  0
 53 52  1  0
 53 66  1  0
 53 54  1  0
 55 49  1  0
 55 54  1  0
 56 49  2  0
 57 62  2  0
 57 58  1  0
 59 60  1  0
 59 61  1  0
 60 48  1  0
 60 57  1  0
 61 58  1  0
 63 64  2  0
 64 83  1  0
 65 64  1  0
 65 68  1  0
 66 63  1  0
 66 67  1  0
 67 65  2  0
 68 69  1  0
 69 70  2  0
 71 74  1  0
 71 70  1  0
 72 71  2  0
 73 72  1  0
 73 68  2  0
 74 75  1  0
 75 76  1  0
 76 77  2  0
 78 77  1  0
 78 82  1  0
 79 78  2  0
 80 75  2  0
 80 79  1  0
 81 80  1  0
 83 84  1  0
 84 87  1  0
 84 86  1  0
 85 83  2  0
 88 89  1  0
 88 63  1  0
 90 88  1  0
M  ISO  4   5 101   6 101  49 100  61 100
M  END
>  <TORSDO>  (6) 
F 21

>  <SCORE>  (6) 
-13.504

>  <name>  (6) 
5

>  <ligand_id>  (6) 
5

>  <original_smiles>  (6) 
[H]c1c([H])c([H])c2c(c1[H])C([H])([H])C([H])([H])C([H])([H])C2([H])N([H])C(=O)C1([H])N(C(=O)C([H])(N([H])C(=O)C([H])(N([H])C([H])([H])[H])C([H])([H])[H])C(C([H])([H])[H])(C([H])([H])[H])C([H])([H])[H])C([H])([H])c2c([H])c(OC([H])([H])C([H])([H])C([H])(C([H])([H])[H])C([H])([H])C([H])([H])C([H])([H])C3([H])C(=O)C([H])([H])N(C(=O)N4C([H])([H])C([H])([H])C([H])([H])C([H])(n5nc(-c6c([H])c([H])c(Oc7c([H])c([H])c(F)c([H])c7F)c([H])c6[H])c(C(=O)N([H])[H])c5N([H])[H])C4([H])[H])C3([H])[H])c([H])c([H])c2C1([H])[H]

>  <smiles>  (6) 
[H]c1c([H])c([H])c2c(c1[H])C([H])([H])C([H])([H])C([H])([H])C2([H])N([H])C(=O)C1([H])N(C(=O)C([H])(N([H])C(=O)C([H])(N([H])C([H])([H])[H])C([H])([H])[H])C(C([H])([H])[H])(C([H])([H])[H])C([H])([H])[H])C([H])([H])c2c([H])c(OC([H])([H])C([H])([H])C([H])(C([H])([H])[H])C([H])([H])C([H])([H])C([H])([H])C3([H])C(=O)C([H])([H])N(C(=O)N4C([H])([H])C([H])([H])C([H])([H])C([H])(n5nc(-c6c([H])c([H])c(Oc7c([H])c([H])c(F)c([H])c7F)c([H])c6[H])c(C(=O)N([H])[H])c5N([H])[H])C4([H])[H])C3([H])[H])c([H])c([H])c2C1([H])[H]

$$$$
6:0:0
     RDKit          3D

108116  0  0  1  0  0  0  0  0999 V2000
  -28.3660  -22.1440   21.6250 C   0  0  0  0  0  2  0  0  0  0  0  0
  -29.0690  -20.7810   21.7370 C   0  0  0  0  0  2  0  0  0  0  0  0
  -29.2070  -20.6750   19.2630 C   0  0  0  0  0  2  0  0  0  0  0  0
  -28.8180  -22.9300   20.3790 C   0  0  0  0  0  3  0  0  0  0  0  0
  -28.5030  -22.0460   19.1420 C   0  0  0  0  0  3  0  0  0  0  0  0
  -28.8790  -19.9400   20.5190 N   0  0  1  0  0  4  0  0  0  0  0  0
  -27.8880  -19.7430   20.4860 H   0  0  0  0  0  0  0  0  0  0  0  0
  -29.5550  -18.6050   20.5140 C   0  0  0  0  0  2  0  0  0  0  0  0
  -30.6800  -18.3390   21.5560 C   0  0  0  0  0  2  0  0  0  0  0  0
  -32.0650  -18.0380   20.9260 C   0  0  0  0  0  3  0  0  0  0  0  0
  -32.1880  -16.5970   20.3620 C   0  0  0  0  0  2  0  0  0  0  0  0
  -31.4590  -15.4990   21.1780 C   0  0  0  0  0  3  0  0  0  0  0  0
  -31.6610  -15.7050   22.6320 N   0  0  0  0  0  4  0  0  0  0  0  0
  -32.6360  -15.6580   22.8780 H   0  0  0  0  0  0  0  0  0  0  0  0
  -31.1770  -15.0090   23.1730 H   0  0  0  0  0  0  0  0  0  0  0  0
  -31.3110  -16.6010   22.9240 H   0  0  0  0  0  0  0  0  0  0  0  0
  -31.9150  -14.0790   20.7580 C   0  0  0  0  0  2  0  0  0  0  0  0
  -31.4300  -13.5530   19.3890 C   0  0  0  0  0  0  0  0  0  0  0  0
  -30.7990  -11.2560   18.8280 C   0  0  0  0  0  2  0  0  0  0  0  0
  -29.7250  -10.9950   17.7700 C   0  0  0  0  0  2  0  0  0  0  0  0
  -28.3230  -11.0720   18.3950 C   0  0  0  0  0  2  0  0  0  0  0  0
  -28.1090  -12.3740   19.2080 C   0  0  0  0  0  3  0  0  0  0  0  0
  -29.2680  -12.6000   20.2090 C   0  0  0  0  0  2  0  0  0  0  0  0
  -30.5360  -12.5470   19.4650 N   0  0  0  0  0  0  0  0  0  0  0  0
  -32.1260  -13.7660   18.3880 O   0  0  0  0  0  0  0  0  0  0  0  0
  -26.0090  -13.4400   20.2530 C   0  0  0  0  0  0  0  0  0  0  0  0
  -24.8530  -12.8920   20.7430 C   0  0  0  0  0  0  0  0  0  0  0  0
  -25.0000  -11.4780   20.6080 C   0  0  0  0  0  0  0  0  0  0  0  0
  -26.8020  -12.3710   19.8640 N   0  0  0  0  0  0  0  0  0  0  0  0
  -26.2020  -11.1830   20.1290 N   0  0  0  0  0  0  0  0  0  0  0  0
  -24.0470  -10.3900   20.8600 C   0  0  0  0  0  0  0  0  0  0  0  0
  -24.3690   -9.3080   21.7090 C   0  0  0  0  0  3  0  0  0  0  0  0
  -23.4280   -8.2820   21.9510 C   0  0  0  0  0  3  0  0  0  0  0  0
  -22.1510   -8.3330   21.3450 C   0  0  0  0  0  0  0  0  0  0  0  0
  -21.8440   -9.4010   20.4810 C   0  0  0  0  0  3  0  0  0  0  0  0
  -22.7830  -10.4170   20.2370 C   0  0  0  0  0  3  0  0  0  0  0  0
  -21.1850   -7.3700   21.5020 O   0  0  0  0  0  0  0  0  0  0  0  0
  -21.1190   -6.5930   22.6300 C   0  0  0  0  0  0  0  0  0  0  0  0
  -20.9870   -7.1590   23.9180 C   0  0  0  0  0  3  0  0  0  0  0  0
  -20.8530   -6.3220   25.0430 C   0  0  0  0  0  3  0  0  0  0  0  0
  -20.8430   -4.9230   24.8850 C   0  0  0  0  0  0  0  0  0  0  0  0
  -20.9690   -4.3580   23.6040 C   0  0  0  0  0  3  0  0  0  0  0  0
  -21.1050   -5.1910   22.4800 C   0  0  0  0  0  0  0  0  0  0  0  0
  -21.2050   -4.6430   21.2440 F   0  0  0  0  0  0  0  0  0  0  0  0
  -20.7070   -4.1190   25.9660 F   0  0  0  0  0  0  0  0  0  0  0  0
  -23.6400  -13.6390   21.2200 C   0  0  0  0  0  0  0  0  0  0  0  0
  -22.9140  -13.0760   22.1790 N   0  0  0  0  0  0  0  0  0  0  0  0
  -23.3570  -14.7510   20.7760 O   0  0  0  0  0  0  0  0  0  0  0  0
  -23.1580  -12.1730   22.5580 H   0  0  0  0  0  0  0  0  0  0  0  0
  -22.1010  -13.5540   22.5420 H   0  0  0  0  0  0  0  0  0  0  0  0
  -26.4440  -14.7520   20.0910 N   0  0  0  0  0  0  0  0  0  0  0  0
  -25.8610  -15.5490   20.3190 H   0  0  0  0  0  0  0  0  0  0  0  0
  -27.3210  -15.0140   19.6550 H   0  0  0  0  0  0  0  0  0  0  0  0
  -32.4170  -19.1330   19.8780 C   0  0  0  0  0  2  0  0  0  0  0  0
  -33.8780  -20.0450   18.0420 C   0  0  0  0  0  1  0  0  0  0  0  0
  -34.9440  -19.4010   20.2330 C   0  0  0  0  0  1  0  0  0  0  0  0
  -33.8200  -19.0800   19.2360 C   0  0  0  0  0  3  0  0  0  0  0  0
  -28.7980  -22.6950   17.7670 C   0  0  0  0  0  2  0  0  0  0  0  0
  -27.7130  -23.6630   17.2620 C   0  0  0  0  0  2  0  0  0  0  0  0
  -27.9260  -25.1380   17.6770 C   0  0  0  0  0  3  0  0  0  0  0  0
  -28.3260  -25.8690   16.5290 O   0  0  0  0  0  0  0  0  0  0  0  0
  -27.5800  -25.9110   15.9410 H   0  0  0  0  0  0  0  0  0  0  0  0
  -26.6390  -25.7670   18.2430 C   0  0  0  0  0  2  0  0  0  0  0  0
  -26.9540  -26.8640   19.0990 O   0  0  0  0  0  0  0  0  0  0  0  0
  -24.7330  -31.8570   23.6620 C   0  0  0  0  0  0  0  0  0  0  0  0
  -25.9160  -27.6860   19.4830 C   0  0  0  0  0  0  0  0  0  0  0  0
  -23.0040  -30.9430   22.1480 C   0  0  0  0  0  3  0  0  0  0  0  0
  -23.8620  -29.4760   20.2480 C   0  0  0  0  0  0  0  0  0  0  0  0
  -25.4650  -30.9600   21.4560 C   0  0  0  0  0  2  0  0  0  0  0  0
  -25.1820  -29.7170   20.6390 C   0  0  0  0  0  0  0  0  0  0  0  0
  -26.2120  -28.8220   20.2690 C   0  0  0  0  0  3  0  0  0  0  0  0
  -24.5700  -27.4490   19.1100 C   0  0  0  0  0  3  0  0  0  0  0  0
  -23.5470  -28.3350   19.4880 C   0  0  0  0  0  3  0  0  0  0  0  0
  -22.8200  -30.4860   20.6760 C   0  0  0  0  0  2  0  0  0  0  0  0
  -24.4320  -31.2530   22.4770 N   0  0  0  0  0  0  0  0  0  0  0  0
  -23.8410  -32.1880   24.4550 O   0  0  0  0  0  0  0  0  0  0  0  0
  -22.3830  -29.8750   23.0770 C   0  0  0  0  0  0  0  0  0  0  0  0
  -21.0880  -29.5860   22.8710 N   0  0  0  0  0  0  0  0  0  0  0  0
  -23.0640  -29.3090   23.9380 O   0  0  0  0  0  0  0  0  0  0  0  0
  -20.6020  -30.0960   22.1470 H   0  0  0  0  0  0  0  0  0  0  0  0
  -17.9320  -27.8290   22.8990 C   0  0  0  0  0  0  0  0  0  0  0  0
  -20.3000  -28.5920   23.5990 C   0  0  0  0  0  3  0  0  0  0  0  0
  -20.7570  -27.1600   23.2470 C   0  0  0  0  0  2  0  0  0  0  0  0
  -19.9560  -26.5320   22.1010 C   0  0  0  0  0  2  0  0  0  0  0  0
  -18.4670  -26.4770   22.4570 C   0  0  0  0  0  2  0  0  0  0  0  0
  -18.7960  -28.8270   23.4220 C   0  0  0  0  0  0  0  0  0  0  0  0
  -18.2560  -30.0790   23.7910 C   0  0  0  0  0  3  0  0  0  0  0  0
  -16.8810  -30.3400   23.6420 C   0  0  0  0  0  3  0  0  0  0  0  0
  -16.0270  -29.3410   23.1410 C   0  0  0  0  0  3  0  0  0  0  0  0
  -16.5520  -28.0880   22.7760 C   0  0  0  0  0  3  0  0  0  0  0  0
  -26.2060  -32.1790   24.0640 C   0  0  0  0  0  3  0  0  0  0  0  0
  -26.2400  -33.5720   24.5280 N   0  0  0  0  0  0  0  0  0  0  0  0
  -26.6560  -34.6090   23.7890 C   0  0  0  0  0  0  0  0  0  0  0  0
  -27.1250  -34.4770   22.6560 O   0  0  0  0  0  0  0  0  0  0  0  0
  -25.8210  -33.7580   25.4270 H   0  0  0  0  0  0  0  0  0  0  0  0
  -25.2800  -36.7130   23.8380 C   0  0  0  0  0  1  0  0  0  0  0  0
  -26.5280  -36.0150   24.4030 C   0  0  0  0  0  3  0  0  0  0  0  0
  -28.9020  -36.3980   24.9010 C   0  0  0  0  0  1  0  0  0  0  0  0
  -27.7200  -36.8620   24.1820 N   0  0  0  0  0  0  0  0  0  0  0  0
  -27.5350  -37.8240   24.4590 H   0  0  0  0  0  0  0  0  0  0  0  0
  -26.7700  -31.2110   25.1720 C   0  0  1  0  0  0  0  0  0  0  0  0
  -25.8310  -31.0470   26.3880 C   0  0  0  0  0  1  0  0  0  0  0  0
  -27.0330  -29.8060   24.5830 C   0  0  0  0  0  1  0  0  0  0  0  0
  -28.1310  -31.7360   25.6830 C   0  0  0  0  0  1  0  0  0  0  0  0
  -30.2980  -23.4030   20.4600 C   0  0  0  0  0  2  0  0  0  0  0  0
  -30.5650  -24.4110   21.5810 C   0  0  0  0  0  0  0  0  0  0  0  0
  -30.3080  -25.8830   21.2920 C   0  0  0  0  0  1  0  0  0  0  0  0
  -30.9670  -24.0400   22.6860 O   0  0  0  0  0  0  0  0  0  0  0  0
  1  2  1  0
  3  6  1  0
  4105  1  0
  4  1  1  0
  5 58  1  0
  5  3  1  0
  5  4  1  0
  6  2  1  0
  6  7  1  6
  8  6  1  0
  8  9  1  0
 10 54  1  0
 10  9  1  0
 11 10  1  0
 12 11  1  0
 12 13  1  0
 13 14  1  0
 13 16  1  0
 13 15  1  0
 17 12  1  0
 18 24  1  0
 18 17  1  0
 19 24  1  0
 20 21  1  0
 20 19  1  0
 22 21  1  0
 22 29  1  0
 22 23  1  0
 24 23  1  0
 25 18  2  0
 26 27  2  0
 27 46  1  0
 28 27  1  0
 28 31  1  0
 29 30  1  0
 29 26  1  0
 30 28  2  0
 31 32  1  0
 32 33  2  0
 34 37  1  0
 34 33  1  0
 35 34  2  0
 36 35  1  0
 36 31  2  0
 37 38  1  0
 38 39  1  0
 39 40  2  0
 41 40  1  0
 41 45  1  0
 42 41  2  0
 43 38  2  0
 43 42  1  0
 44 43  1  0
 46 47  1  0
 47 50  1  0
 47 49  1  0
 48 46  2  0
 51 26  1  0
 51 52  1  0
 53 51  1  0
 55 57  1  0
 57 54  1  0
 57 56  1  0
 59 58  1  0
 60 59  1  0
 60 63  1  0
 61 60  1  0
 62 61  1  0
 63 64  1  0
 64 66  1  0
 65 76  2  0
 66 71  1  0
 67 75  1  0
 67 77  1  0
 68 70  1  0
 68 74  1  0
 69 75  1  0
 70 69  1  0
 71 70  2  0
 72 66  2  0
 72 73  1  0
 73 68  2  0
 74 67  1  0
 75 65  1  0
 77 79  2  0
 78 77  1  0
 80 78  1  0
 81 86  1  0
 82 78  1  0
 83 82  1  0
 84 85  1  0
 84 83  1  0
 85 81  1  0
 86 82  1  0
 86 87  2  0
 88 87  1  0
 89 88  2  0
 90 81  2  0
 90 89  1  0
 91 65  1  0
 91 92  1  0
 91101  1  0
 92 95  1  0
 93 97  1  0
 93 92  1  0
 94 93  2  0
 97 96  1  0
 99 97  1  0
 99100  1  0
 99 98  1  0
101104  1  1
101102  1  0
103101  1  0
105106  1  0
106108  2  0
107106  1  0
M  ISO  4  17 100  18 100  63 101  64 101
M  END
>  <TORSDO>  (7) 
F 32

>  <SCORE>  (7) 
-7.384

>  <name>  (7) 
6

>  <ligand_id>  (7) 
6

>  <original_smiles>  (7) 
[H]OC([H])(C([H])([H])Oc1c([H])c([H])c2c(c1[H])C([H])([H])N(C(=O)C([H])(N([H])C(=O)C([H])(N([H])C([H])([H])[H])C([H])([H])[H])C(C([H])([H])[H])(C([H])([H])[H])C([H])([H])[H])C([H])(C(=O)N([H])C1([H])c3c([H])c([H])c([H])c([H])c3C([H])([H])C([H])([H])C1([H])[H])C2([H])[H])C([H])([H])C([H])([H])C1([H])C([H])(C([H])([H])C(=O)C([H])([H])[H])C([H])([H])C([H])([H])[N+]([H])(C([H])([H])C([H])([H])C([H])(C([H])([H])C([H])(C([H])([H])[H])C([H])([H])[H])C([H])([H])C([H])(C([H])([H])C(=O)N2C([H])([H])C([H])([H])C([H])([H])C([H])(n3nc(-c4c([H])c([H])c(Oc5c([H])c([H])c(F)c([H])c5F)c([H])c4[H])c(C(=O)N([H])[H])c3N([H])[H])C2([H])[H])[N+]([H])([H])[H])C1([H])[H]

>  <smiles>  (7) 
[H]OC([H])(C([H])([H])Oc1c([H])c([H])c2c(c1[H])C([H])([H])N(C(=O)C([H])(N([H])C(=O)C([H])(N([H])C([H])([H])[H])C([H])([H])[H])C(C([H])([H])[H])(C([H])([H])[H])C([H])([H])[H])C([H])(C(=O)N([H])C1([H])c3c([H])c([H])c([H])c([H])c3C([H])([H])C([H])([H])C1([H])[H])C2([H])[H])C([H])([H])C([H])([H])C1([H])C([H])(C([H])([H])C(=O)C([H])([H])[H])C([H])([H])C([H])([H])[N+]([H])(C([H])([H])C([H])([H])C([H])(C([H])([H])C([H])(C([H])([H])[H])C([H])([H])[H])C([H])([H])C([H])(C([H])([H])C(=O)N2C([H])([H])C([H])([H])C([H])([H])C([H])(n3nc(-c4c([H])c([H])c(Oc5c([H])c([H])c(F)c([H])c5F)c([H])c4[H])c(C(=O)N([H])[H])c3N([H])[H])C2([H])[H])[N+]([H])([H])[H])C1([H])[H]

$$$$
7:0:0
     RDKit          3D

 96104  0  0  1  0  0  0  0  0999 V2000
  -28.7560  -22.1840   20.6920 C   0  0  0  0  0  2  0  0  0  0  0  0
  -28.6790  -21.5520   18.2390 C   0  0  0  0  0  2  0  0  0  0  0  0
  -28.3530  -23.9160   18.8850 C   0  0  0  0  0  2  0  0  0  0  0  0
  -29.2930  -21.2090   19.6150 C   0  0  0  0  0  3  0  0  0  0  0  0
  -28.9570  -23.6720   20.2930 C   0  0  0  0  0  3  0  0  0  0  0  0
  -28.8950  -22.9700   17.8860 N   0  0  0  0  0  4  0  0  0  0  0  0
  -28.4550  -23.1510   16.9970 H   0  0  0  0  0  0  0  0  0  0  0  0
  -29.8810  -23.1380   17.7640 H   0  0  0  0  0  0  0  0  0  0  0  0
  -28.9810  -19.7400   19.9540 C   0  0  0  0  0  0  0  0  0  0  0  0
  -29.9790  -18.8530   19.8330 N   0  0  0  0  0  0  0  0  0  0  0  0
  -27.8380  -19.4070   20.2750 O   0  0  0  0  0  0  0  0  0  0  0  0
  -30.8970  -19.2050   19.5930 H   0  0  0  0  0  0  0  0  0  0  0  0
  -29.8290  -17.3990   19.8700 C   0  0  0  0  0  2  0  0  0  0  0  0
  -30.3320  -16.7930   21.1930 C   0  0  0  0  0  2  0  0  0  0  0  0
  -30.7220  -14.4150   20.5700 C   0  0  0  0  0  0  0  0  0  0  0  0
  -30.4090  -12.2960   19.3590 C   0  0  0  0  0  2  0  0  0  0  0  0
  -29.4810  -12.5410   18.1520 C   0  0  0  0  0  2  0  0  0  0  0  0
  -28.0000  -12.4250   18.5620 C   0  0  0  0  0  2  0  0  0  0  0  0
  -27.6650  -13.2500   19.8330 C   0  0  0  0  0  3  0  0  0  0  0  0
  -28.6980  -12.9660   20.9470 C   0  0  0  0  0  2  0  0  0  0  0  0
  -30.0410  -13.2530   20.4100 N   0  0  0  0  0  0  0  0  0  0  0  0
  -31.8130  -14.6500   20.0430 O   0  0  0  0  0  0  0  0  0  0  0  0
  -30.0470  -15.3620   21.2350 N   0  0  0  0  0  0  0  0  0  0  0  0
  -29.1710  -15.0780   21.6470 H   0  0  0  0  0  0  0  0  0  0  0  0
  -25.2570  -13.8970   20.4860 C   0  0  0  0  0  0  0  0  0  0  0  0
  -24.1740  -13.1400   20.8460 C   0  0  0  0  0  0  0  0  0  0  0  0
  -24.6220  -11.7830   20.8390 C   0  0  0  0  0  0  0  0  0  0  0  0
  -26.2980  -13.0010   20.2860 N   0  0  0  0  0  0  0  0  0  0  0  0
  -25.9160  -11.7250   20.5540 N   0  0  0  0  0  0  0  0  0  0  0  0
  -23.8810  -10.5300   21.0320 C   0  0  0  0  0  0  0  0  0  0  0  0
  -24.2980   -9.5630   21.9740 C   0  0  0  0  0  3  0  0  0  0  0  0
  -23.5590   -8.3740   22.1550 C   0  0  0  0  0  3  0  0  0  0  0  0
  -22.3890   -8.1440   21.3930 C   0  0  0  0  0  0  0  0  0  0  0  0
  -21.9920   -9.0980   20.4400 C   0  0  0  0  0  3  0  0  0  0  0  0
  -22.7310  -10.2790   20.2580 C   0  0  0  0  0  3  0  0  0  0  0  0
  -21.6230   -7.0070   21.4820 O   0  0  0  0  0  0  0  0  0  0  0  0
  -21.5670   -6.2660   22.6350 C   0  0  0  0  0  0  0  0  0  0  0  0
  -21.1540   -6.8270   23.8640 C   0  0  0  0  0  3  0  0  0  0  0  0
  -21.0450   -6.0120   25.0080 C   0  0  0  0  0  3  0  0  0  0  0  0
  -21.3380   -4.6380   24.9260 C   0  0  0  0  0  0  0  0  0  0  0  0
  -21.7430   -4.0760   23.7020 C   0  0  0  0  0  3  0  0  0  0  0  0
  -21.8540   -4.8870   22.5590 C   0  0  0  0  0  0  0  0  0  0  0  0
  -22.2250   -4.3370   21.3780 F   0  0  0  0  0  0  0  0  0  0  0  0
  -21.2250   -3.8530   26.0230 F   0  0  0  0  0  0  0  0  0  0  0  0
  -22.7770  -13.6320   21.0910 C   0  0  0  0  0  0  0  0  0  0  0  0
  -22.0310  -12.9520   21.9540 N   0  0  0  0  0  0  0  0  0  0  0  0
  -22.3560  -14.6550   20.5530 O   0  0  0  0  0  0  0  0  0  0  0  0
  -22.3830  -12.1230   22.4090 H   0  0  0  0  0  0  0  0  0  0  0  0
  -21.0910  -13.2610   22.1590 H   0  0  0  0  0  0  0  0  0  0  0  0
  -25.4410  -15.2620   20.2940 N   0  0  0  0  0  0  0  0  0  0  0  0
  -24.6830  -15.9300   20.3880 H   0  0  0  0  0  0  0  0  0  0  0  0
  -26.3060  -15.6860   19.9810 H   0  0  0  0  0  0  0  0  0  0  0  0
  -26.9650  -24.4920   21.7660 C   0  0  0  0  0  1  0  0  0  0  0  0
  -28.4570  -24.6480   21.4080 C   0  0  0  0  0  3  0  0  0  0  0  0
  -28.8730  -26.1360   21.2340 C   0  0  0  0  0  2  0  0  0  0  0  0
  -28.3830  -26.7350   20.0380 O   0  0  0  0  0  0  0  0  0  0  0  0
  -24.5860  -31.8890   23.2300 C   0  0  0  0  0  0  0  0  0  0  0  0
  -27.2250  -27.4660   20.1370 C   0  0  0  0  0  0  0  0  0  0  0  0
  -23.3760  -30.4890   21.5880 C   0  0  0  0  0  3  0  0  0  0  0  0
  -24.8280  -28.9520   20.1640 C   0  0  0  0  0  0  0  0  0  0  0  0
  -25.9020  -30.8470   21.3930 C   0  0  0  0  0  2  0  0  0  0  0  0
  -25.9860  -29.4770   20.7550 C   0  0  0  0  0  0  0  0  0  0  0  0
  -27.1870  -28.7340   20.7560 C   0  0  0  0  0  3  0  0  0  0  0  0
  -26.0620  -26.9590   19.5270 C   0  0  0  0  0  3  0  0  0  0  0  0
  -24.8570  -27.6850   19.5570 C   0  0  0  0  0  3  0  0  0  0  0  0
  -23.5850  -29.8100   20.2080 C   0  0  0  0  0  2  0  0  0  0  0  0
  -24.6390  -31.0900   22.1280 N   0  0  0  0  0  0  0  0  0  0  0  0
  -23.5060  -32.1640   23.7720 O   0  0  0  0  0  0  0  0  0  0  0  0
  -22.7270  -29.4670   22.5480 C   0  0  0  0  0  0  0  0  0  0  0  0
  -21.4010  -29.2890   22.4240 N   0  0  0  0  0  0  0  0  0  0  0  0
  -23.4120  -28.8370   23.3590 O   0  0  0  0  0  0  0  0  0  0  0  0
  -20.9090  -29.8500   21.7420 H   0  0  0  0  0  0  0  0  0  0  0  0
  -18.0250  -28.1100   22.9320 C   0  0  0  0  0  0  0  0  0  0  0  0
  -20.5850  -28.3520   23.1930 C   0  0  0  0  0  3  0  0  0  0  0  0
  -20.6780  -26.9220   22.6110 C   0  0  0  0  0  2  0  0  0  0  0  0
  -19.5710  -26.6090   21.6000 C   0  0  0  0  0  2  0  0  0  0  0  0
  -18.1920  -26.7610   22.2510 C   0  0  0  0  0  2  0  0  0  0  0  0
  -19.1500  -28.8640   23.3600 C   0  0  0  0  0  0  0  0  0  0  0  0
  -18.9410  -30.1260   23.9550 C   0  0  0  0  0  3  0  0  0  0  0  0
  -17.6410  -30.6370   24.1260 C   0  0  0  0  0  3  0  0  0  0  0  0
  -16.5310  -29.8790   23.7170 C   0  0  0  0  0  3  0  0  0  0  0  0
  -16.7220  -28.6170   23.1250 C   0  0  0  0  0  3  0  0  0  0  0  0
  -25.8750  -32.5180   23.8470 C   0  0  0  0  0  3  0  0  0  0  0  0
  -25.5700  -33.9150   24.1790 N   0  0  0  0  0  0  0  0  0  0  0  0
  -25.9050  -34.9670   23.4210 C   0  0  0  0  0  0  0  0  0  0  0  0
  -26.5750  -34.8640   22.3880 O   0  0  0  0  0  0  0  0  0  0  0  0
  -24.9770  -34.0720   24.9820 H   0  0  0  0  0  0  0  0  0  0  0  0
  -24.1820  -36.7620   23.0650 C   0  0  0  0  0  1  0  0  0  0  0  0
  -25.4190  -36.3540   23.8800 C   0  0  0  0  0  3  0  0  0  0  0  0
  -27.5520  -37.2280   24.7220 C   0  0  0  0  0  1  0  0  0  0  0  0
  -26.4540  -37.4050   23.7750 N   0  0  0  0  0  0  0  0  0  0  0  0
  -26.0480  -38.3240   23.9260 H   0  0  0  0  0  0  0  0  0  0  0  0
  -26.4010  -31.7410   25.1170 C   0  0  1  0  0  0  0  0  0  0  0  0
  -25.3130  -31.4960   26.1870 C   0  0  0  0  0  1  0  0  0  0  0  0
  -26.9850  -30.3660   24.7150 C   0  0  0  0  0  1  0  0  0  0  0  0
  -27.5540  -32.5350   25.7750 C   0  0  0  0  0  1  0  0  0  0  0  0
  2  4  1  0
  3  5  1  0
  4  9  1  0
  4  1  1  0
  5  1  1  0
  5 54  1  0
  6  2  1  0
  6  3  1  0
  7  6  1  0
  8  6  1  0
  9 11  2  0
 10 13  1  0
 10  9  1  0
 12 10  1  0
 13 14  1  0
 14 23  1  0
 15 23  1  0
 16 21  1  0
 17 18  1  0
 17 16  1  0
 19 18  1  0
 19 28  1  0
 19 20  1  0
 21 15  1  0
 21 20  1  0
 22 15  2  0
 23 24  1  0
 25 26  2  0
 26 45  1  0
 27 26  1  0
 27 30  1  0
 28 25  1  0
 28 29  1  0
 29 27  2  0
 30 31  1  0
 31 32  2  0
 33 36  1  0
 33 32  1  0
 34 33  2  0
 35 34  1  0
 35 30  2  0
 36 37  1  0
 37 38  1  0
 38 39  2  0
 40 39  1  0
 40 44  1  0
 41 40  2  0
 42 37  2  0
 42 41  1  0
 43 42  1  0
 45 46  1  0
 46 49  1  0
 46 48  1  0
 47 45  2  0
 50 51  1  0
 50 25  1  0
 52 50  1  0
 54 53  1  0
 55 54  1  0
 56 58  1  0
 56 55  1  0
 57 68  2  0
 58 63  1  0
 59 67  1  0
 59 69  1  0
 60 66  1  0
 60 62  1  0
 61 67  1  0
 62 63  2  0
 62 61  1  0
 64 65  1  0
 64 58  2  0
 65 60  2  0
 66 59  1  0
 67 57  1  0
 69 71  2  0
 70 69  1  0
 72 70  1  0
 73 82  2  0
 73 78  1  0
 74 70  1  0
 74 78  1  0
 75 74  1  0
 76 77  1  0
 76 75  1  0
 77 73  1  0
 78 79  2  0
 79 80  1  0
 81 80  2  0
 82 81  1  0
 83 57  1  0
 83 84  1  0
 83 93  1  0
 84 87  1  0
 85 89  1  0
 85 84  1  0
 86 85  2  0
 89 88  1  0
 91 89  1  0
 91 92  1  0
 91 90  1  0
 93 96  1  1
 93 94  1  0
 95 93  1  0
M  ISO  4  15 100  23 100  55 101  56 101
M  END
>  <TORSDO>  (8) 
F 21

>  <SCORE>  (8) 
-13.682

>  <name>  (8) 
7

>  <ligand_id>  (8) 
7

>  <original_smiles>  (8) 
[H]c1c([H])c([H])c2c(c1[H])C([H])([H])C([H])([H])C([H])([H])C2([H])N([H])C(=O)C1([H])N(C(=O)C([H])(N([H])C(=O)C([H])(N([H])C([H])([H])[H])C([H])([H])[H])C(C([H])([H])[H])(C([H])([H])[H])C([H])([H])[H])C([H])([H])c2c([H])c(OC([H])([H])C([H])(C([H])([H])[H])C3([H])C([H])([H])C([H])(C(=O)N([H])C([H])([H])C([H])([H])N([H])C(=O)N4C([H])([H])C([H])([H])C([H])([H])C([H])(n5nc(-c6c([H])c([H])c(Oc7c([H])c([H])c(F)c([H])c7F)c([H])c6[H])c(C(=O)N([H])[H])c5N([H])[H])C4([H])[H])C([H])([H])[N+]([H])([H])C3([H])[H])c([H])c([H])c2C1([H])[H]

>  <smiles>  (8) 
[H]c1c([H])c([H])c2c(c1[H])C([H])([H])C([H])([H])C([H])([H])C2([H])N([H])C(=O)C1([H])N(C(=O)C([H])(N([H])C(=O)C([H])(N([H])C([H])([H])[H])C([H])([H])[H])C(C([H])([H])[H])(C([H])([H])[H])C([H])([H])[H])C([H])([H])c2c([H])c(OC([H])([H])C([H])(C([H])([H])[H])C3([H])C([H])([H])C([H])(C(=O)N([H])C([H])([H])C([H])([H])N([H])C(=O)N4C([H])([H])C([H])([H])C([H])([H])C([H])(n5nc(-c6c([H])c([H])c(Oc7c([H])c([H])c(F)c([H])c7F)c([H])c6[H])c(C(=O)N([H])[H])c5N([H])[H])C4([H])[H])C([H])([H])[N+]([H])([H])C3([H])[H])c([H])c([H])c2C1([H])[H]

$$$$
8:0:0
     RDKit          3D

 97105  0  0  1  0  0  0  0  0999 V2000
  -29.1700  -18.9360   20.8690 N   0  0  0  0  0  4  0  0  0  0  0  0
  -29.2850  -19.6310   21.5910 H   0  0  0  0  0  0  0  0  0  0  0  0
  -28.2470  -18.5410   20.9750 H   0  0  0  0  0  0  0  0  0  0  0  0
  -31.3180  -14.6070   19.5980 C   0  0  0  0  0  0  0  0  0  0  0  0
  -30.7850  -12.5010   18.4310 C   0  0  0  0  0  2  0  0  0  0  0  0
  -29.6730  -12.7410   17.3900 C   0  0  0  0  0  2  0  0  0  0  0  0
  -28.2830  -12.6020   18.0410 C   0  0  0  0  0  2  0  0  0  0  0  0
  -28.1520  -13.4180   19.3560 C   0  0  0  0  0  3  0  0  0  0  0  0
  -29.3620  -13.1680   20.2840 C   0  0  0  0  0  2  0  0  0  0  0  0
  -30.5890  -13.4620   19.5260 N   0  0  0  0  0  0  0  0  0  0  0  0
  -32.2930  -14.8310   18.8750 O   0  0  0  0  0  0  0  0  0  0  0  0
  -31.3160  -16.3290   22.8490 C   0  0  0  0  0  2  0  0  0  0  0  0
  -31.9620  -15.8000   21.5600 C   0  0  0  0  0  2  0  0  0  0  0  0
  -30.0740  -16.6420   20.1710 C   0  0  0  0  0  2  0  0  0  0  0  0
  -30.2220  -17.3970   22.5980 C   0  0  0  0  0  3  0  0  0  0  0  0
  -30.2080  -17.8820   21.1110 C   0  0  0  0  0  3  0  0  0  0  0  0
  -30.9490  -15.4980   20.5450 N   0  0  0  0  0  0  0  0  0  0  0  0
  -25.9490  -14.0290   20.5420 C   0  0  0  0  0  0  0  0  0  0  0  0
  -24.9200  -13.2590   21.0110 C   0  0  0  0  0  0  0  0  0  0  0  0
  -25.2920  -11.9030   20.7540 C   0  0  0  0  0  0  0  0  0  0  0  0
  -26.8870  -13.1420   20.0340 N   0  0  0  0  0  0  0  0  0  0  0  0
  -26.5040  -11.8530   20.2150 N   0  0  0  0  0  0  0  0  0  0  0  0
  -24.5390  -10.6540   20.9310 C   0  0  0  0  0  0  0  0  0  0  0  0
  -24.9710   -9.6540   21.8300 C   0  0  0  0  0  3  0  0  0  0  0  0
  -24.2220   -8.4680   21.9970 C   0  0  0  0  0  3  0  0  0  0  0  0
  -23.0270   -8.2770   21.2650 C   0  0  0  0  0  0  0  0  0  0  0  0
  -22.6120   -9.2660   20.3560 C   0  0  0  0  0  3  0  0  0  0  0  0
  -23.3610  -10.4410   20.1860 C   0  0  0  0  0  3  0  0  0  0  0  0
  -22.2470   -7.1490   21.3430 O   0  0  0  0  0  0  0  0  0  0  0  0
  -22.0760   -6.4730   22.5250 C   0  0  0  0  0  0  0  0  0  0  0  0
  -21.5430   -7.0990   23.6720 C   0  0  0  0  0  3  0  0  0  0  0  0
  -21.3170   -6.3480   24.8430 C   0  0  0  0  0  3  0  0  0  0  0  0
  -21.6160   -4.9720   24.8670 C   0  0  0  0  0  0  0  0  0  0  0  0
  -22.1460   -4.3460   23.7240 C   0  0  0  0  0  3  0  0  0  0  0  0
  -22.3700   -5.0950   22.5560 C   0  0  0  0  0  0  0  0  0  0  0  0
  -22.8590   -4.4820   21.4500 F   0  0  0  0  0  0  0  0  0  0  0  0
  -21.3940   -4.2490   25.9890 F   0  0  0  0  0  0  0  0  0  0  0  0
  -23.6170  -13.7530   21.5720 C   0  0  0  0  0  0  0  0  0  0  0  0
  -23.0300  -13.0160   22.5090 N   0  0  0  0  0  0  0  0  0  0  0  0
  -23.1300  -14.8260   21.2130 O   0  0  0  0  0  0  0  0  0  0  0  0
  -23.4370  -12.1500   22.8280 H   0  0  0  0  0  0  0  0  0  0  0  0
  -22.1590  -13.3250   22.9170 H   0  0  0  0  0  0  0  0  0  0  0  0
  -26.1540  -15.4040   20.4810 N   0  0  0  0  0  0  0  0  0  0  0  0
  -25.4280  -16.0580   20.7560 H   0  0  0  0  0  0  0  0  0  0  0  0
  -26.8890  -15.8330   19.9360 H   0  0  0  0  0  0  0  0  0  0  0  0
  -30.3450  -18.5230   23.6270 C   0  0  0  0  0  0  0  0  0  0  0  0
  -29.4800  -18.3770   24.8570 C   0  0  0  0  0  1  0  0  0  0  0  0
  -31.1350  -19.5010   23.4820 N   0  0  0  0  0  0  0  0  0  0  0  0
  -31.7030  -19.4420   22.6430 H   0  0  0  0  0  0  0  0  0  0  0  0
  -29.2190  -19.6690   19.5740 C   0  0  0  0  0  2  0  0  0  0  0  0
  -27.1370  -21.0410   20.2880 C   0  0  0  0  0  1  0  0  0  0  0  0
  -28.5230  -21.0710   19.6110 C   0  0  0  0  0  3  0  0  0  0  0  0
  -29.4440  -22.1880   20.1750 C   0  0  0  0  0  2  0  0  0  0  0  0
  -28.9330  -23.6500   20.0430 C   0  0  0  0  0  2  0  0  0  0  0  0
  -29.9400  -24.6690   20.6250 C   0  0  0  0  0  2  0  0  0  0  0  0
  -29.3720  -26.0650   20.9570 C   0  0  0  0  0  2  0  0  0  0  0  0
  -29.1640  -26.8720   19.7980 O   0  0  0  0  0  0  0  0  0  0  0  0
  -24.8050  -31.4860   23.0540 C   0  0  0  0  0  0  0  0  0  0  0  0
  -27.9530  -27.5140   19.8190 C   0  0  0  0  0  0  0  0  0  0  0  0
  -23.7830  -30.0490   21.3180 C   0  0  0  0  0  3  0  0  0  0  0  0
  -25.4150  -28.7420   19.8580 C   0  0  0  0  0  0  0  0  0  0  0  0
  -26.2590  -30.6790   21.1980 C   0  0  0  0  0  2  0  0  0  0  0  0
  -26.4990  -29.3580   20.4980 C   0  0  0  0  0  0  0  0  0  0  0  0
  -27.7730  -28.7490   20.4830 C   0  0  0  0  0  3  0  0  0  0  0  0
  -26.8590  -26.9050   19.1790 C   0  0  0  0  0  3  0  0  0  0  0  0
  -25.5890  -27.5120   19.1990 C   0  0  0  0  0  3  0  0  0  0  0  0
  -24.0870  -29.4630   19.9130 C   0  0  0  0  0  2  0  0  0  0  0  0
  -24.9650  -30.7520   21.9160 N   0  0  0  0  0  0  0  0  0  0  0  0
  -23.6910  -31.6140   23.5810 O   0  0  0  0  0  0  0  0  0  0  0  0
  -23.2270  -28.9200   22.2140 C   0  0  0  0  0  0  0  0  0  0  0  0
  -21.9410  -28.5850   22.0230 N   0  0  0  0  0  0  0  0  0  0  0  0
  -23.9500  -28.3520   23.0370 O   0  0  0  0  0  0  0  0  0  0  0  0
  -21.4120  -29.1070   21.3360 H   0  0  0  0  0  0  0  0  0  0  0  0
  -18.7270  -26.9600   22.3120 C   0  0  0  0  0  0  0  0  0  0  0  0
  -21.2160  -27.5210   22.7180 C   0  0  0  0  0  3  0  0  0  0  0  0
  -21.5240  -26.1400   22.0930 C   0  0  0  0  0  2  0  0  0  0  0  0
  -20.5130  -25.7150   21.0280 C   0  0  0  0  0  2  0  0  0  0  0  0
  -19.0990  -25.6650   21.6130 C   0  0  0  0  0  2  0  0  0  0  0  0
  -19.7190  -27.8370   22.8230 C   0  0  0  0  0  0  0  0  0  0  0  0
  -19.3190  -29.0380   23.4430 C   0  0  0  0  0  3  0  0  0  0  0  0
  -17.9570  -29.3710   23.5570 C   0  0  0  0  0  3  0  0  0  0  0  0
  -16.9750  -28.4960   23.0600 C   0  0  0  0  0  3  0  0  0  0  0  0
  -17.3600  -27.2920   22.4440 C   0  0  0  0  0  3  0  0  0  0  0  0
  -26.0080  -32.2140   23.7330 C   0  0  0  0  0  3  0  0  0  0  0  0
  -25.5570  -33.5590   24.1080 N   0  0  0  0  0  0  0  0  0  0  0  0
  -25.8110  -34.6680   23.4000 C   0  0  0  0  0  0  0  0  0  0  0  0
  -26.5210  -34.6710   22.3920 O   0  0  0  0  0  0  0  0  0  0  0  0
  -24.9260  -33.6250   24.8920 H   0  0  0  0  0  0  0  0  0  0  0  0
  -23.9290  -36.2990   23.0470 C   0  0  0  0  0  1  0  0  0  0  0  0
  -25.1740  -35.9830   23.8910 C   0  0  0  0  0  3  0  0  0  0  0  0
  -27.1830  -37.0310   24.8340 C   0  0  0  0  0  1  0  0  0  0  0  0
  -26.1000  -37.1350   23.8600 N   0  0  0  0  0  0  0  0  0  0  0  0
  -25.6000  -38.0040   24.0290 H   0  0  0  0  0  0  0  0  0  0  0  0
  -26.5690  -31.4450   24.9900 C   0  0  1  0  0  0  0  0  0  0  0  0
  -25.4800  -31.0380   26.0100 C   0  0  0  0  0  1  0  0  0  0  0  0
  -27.3150  -30.1610   24.5580 C   0  0  0  0  0  1  0  0  0  0  0  0
  -27.6040  -32.3290   25.7260 C   0  0  0  0  0  1  0  0  0  0  0  0
  1  3  1  0
  1  2  1  0
  4 17  1  0
  5 10  1  0
  6  7  1  0
  6  5  1  0
  8  7  1  0
  8 21  1  0
  8  9  1  0
 10  4  1  0
 10  9  1  0
 11  4  2  0
 13 12  1  0
 14 17  1  0
 14 16  1  0
 15 12  1  0
 15 46  1  0
 16  1  1  0
 16 15  1  0
 17 13  1  0
 18 19  2  0
 19 38  1  0
 20 23  1  0
 20 19  1  0
 21 22  1  0
 21 18  1  0
 22 20  2  0
 23 24  1  0
 24 25  2  0
 26 29  1  0
 26 25  1  0
 27 26  2  0
 28 27  1  0
 28 23  2  0
 29 30  1  0
 30 35  2  0
 30 31  1  0
 31 32  2  0
 32 33  1  0
 33 37  1  0
 34 33  2  0
 35 34  1  0
 36 35  1  0
 38 39  1  0
 39 41  1  0
 39 42  1  0
 40 38  2  0
 43 18  1  0
 43 44  1  0
 45 43  1  0
 46 47  1  0
 48 46  2  0
 49 48  1  0
 50 52  1  0
 50  1  1  0
 52 53  1  0
 52 51  1  0
 54 53  1  0
 54 55  1  0
 55 56  1  0
 57 59  1  0
 57 56  1  0
 58 69  2  0
 59 64  1  0
 60 68  1  0
 60 70  1  0
 61 67  1  0
 61 63  1  0
 62 68  1  0
 63 62  1  0
 64 63  2  0
 65 66  1  0
 65 59  2  0
 66 61  2  0
 67 60  1  0
 68 58  1  0
 70 72  2  0
 71 70  1  0
 73 71  1  0
 74 83  2  0
 74 79  1  0
 75 71  1  0
 75 79  1  0
 76 75  1  0
 77 78  1  0
 77 76  1  0
 78 74  1  0
 79 80  2  0
 80 81  1  0
 82 81  2  0
 83 82  1  0
 84 58  1  0
 84 85  1  0
 84 94  1  0
 85 88  1  0
 86 90  1  0
 86 85  1  0
 87 86  2  0
 90 89  1  0
 92 90  1  0
 92 93  1  0
 92 91  1  0
 94 97  1  1
 94 95  1  0
 96 94  1  0
M  ISO  4   4 100  17 100  56 101  57 101
M  END
>  <TORSDO>  (9) 
F 23

>  <SCORE>  (9) 
-5.508

>  <name>  (9) 
8

>  <ligand_id>  (9) 
8

>  <original_smiles>  (9) 
[H]N=C(C([H])([H])[H])C1([H])C([H])([H])C([H])([H])N(C(=O)N2C([H])([H])C([H])([H])C([H])([H])C([H])(n3nc(-c4c([H])c([H])c(Oc5c([H])c([H])c(F)c([H])c5F)c([H])c4[H])c(C(=O)N([H])[H])c3N([H])[H])C2([H])[H])C([H])([H])C1([H])[N+]([H])([H])C([H])([H])C([H])(C([H])([H])[H])C([H])([H])C([H])([H])C([H])([H])C([H])([H])Oc1c([H])c([H])c2c(c1[H])C([H])([H])N(C(=O)C([H])(N([H])C(=O)C([H])(N([H])C([H])([H])[H])C([H])([H])[H])C(C([H])([H])[H])(C([H])([H])[H])C([H])([H])[H])C([H])(C(=O)N([H])C1([H])c3c([H])c([H])c([H])c([H])c3C([H])([H])C([H])([H])C1([H])[H])C2([H])[H]

>  <smiles>  (9) 
[H]N=C(C([H])([H])[H])C1([H])C([H])([H])C([H])([H])N(C(=O)N2C([H])([H])C([H])([H])C([H])([H])C([H])(n3nc(-c4c([H])c([H])c(Oc5c([H])c([H])c(F)c([H])c5F)c([H])c4[H])c(C(=O)N([H])[H])c3N([H])[H])C2([H])[H])C([H])([H])C1([H])[N+]([H])([H])C([H])([H])C([H])(C([H])([H])[H])C([H])([H])C([H])([H])C([H])([H])C([H])([H])Oc1c([H])c([H])c2c(c1[H])C([H])([H])N(C(=O)C([H])(N([H])C(=O)C([H])(N([H])C([H])([H])[H])C([H])([H])[H])C(C([H])([H])[H])(C([H])([H])[H])C([H])([H])[H])C([H])(C(=O)N([H])C1([H])c3c([H])c([H])c([H])c([H])c3C([H])([H])C([H])([H])C1([H])[H])C2([H])[H]

$$$$
9:0:0
     RDKit          3D

 97105  0  0  1  0  0  0  0  0999 V2000
  -27.1760  -20.2290   18.1980 C   0  0  0  0  0  0  0  0  0  0  0  0
  -26.8990  -21.2240   19.0470 N   0  0  0  0  0  0  0  0  0  0  0  0
  -26.6790  -20.1620   17.0730 O   0  0  0  0  0  0  0  0  0  0  0  0
  -27.3360  -21.1960   19.9560 H   0  0  0  0  0  0  0  0  0  0  0  0
  -27.8530  -18.5270   20.0820 C   0  0  0  0  0  2  0  0  0  0  0  0
  -29.5710  -19.5670   18.7790 C   0  0  0  0  0  2  0  0  0  0  0  0
  -28.1130  -19.1130   18.6810 C   0  0  0  0  0  3  0  0  0  0  0  0
  -29.1330  -17.7080   20.3320 C   0  0  0  0  0  3  0  0  0  0  0  0
  -30.2700  -18.5100   19.6470 C   0  0  0  0  0  3  0  0  0  0  0  0
  -30.6460  -16.7130   17.7840 C   0  0  0  0  0  1  0  0  0  0  0  0
  -32.4060  -18.4540   18.2280 C   0  0  0  0  0  1  0  0  0  0  0  0
  -31.2740  -17.6270   18.8570 C   0  0  0  0  0  3  0  0  0  0  0  0
  -29.4240  -17.3110   21.8140 C   0  0  0  0  0  2  0  0  0  0  0  0
  -30.2100  -14.9630   21.5010 C   0  0  0  0  0  0  0  0  0  0  0  0
  -29.8710  -13.6830   19.4590 C   0  0  0  0  0  2  0  0  0  0  0  0
  -28.8890  -14.5190   18.6100 C   0  0  0  0  0  2  0  0  0  0  0  0
  -27.4190  -14.2100   18.9850 C   0  0  0  0  0  2  0  0  0  0  0  0
  -27.1590  -14.1680   20.5150 C   0  0  0  0  0  3  0  0  0  0  0  0
  -28.2720  -13.3970   21.2680 C   0  0  0  0  0  2  0  0  0  0  0  0
  -29.5730  -13.9500   20.8660 N   0  0  0  0  0  0  0  0  0  0  0  0
  -31.3890  -15.2690   21.3120 O   0  0  0  0  0  0  0  0  0  0  0  0
  -29.3390  -15.8560   21.9980 N   0  0  0  0  0  0  0  0  0  0  0  0
  -28.4010  -15.4960   22.0700 H   0  0  0  0  0  0  0  0  0  0  0  0
  -24.6490  -14.3400   21.0610 C   0  0  0  0  0  0  0  0  0  0  0  0
  -23.6950  -13.3780   21.2520 C   0  0  0  0  0  0  0  0  0  0  0  0
  -24.3700  -12.1220   21.1450 C   0  0  0  0  0  0  0  0  0  0  0  0
  -25.8340  -13.6520   20.8420 N   0  0  0  0  0  0  0  0  0  0  0  0
  -25.6670  -12.3130   20.9560 N   0  0  0  0  0  0  0  0  0  0  0  0
  -23.8490  -10.7520   21.1390 C   0  0  0  0  0  0  0  0  0  0  0  0
  -24.3290   -9.7770   22.0400 C   0  0  0  0  0  3  0  0  0  0  0  0
  -23.7970   -8.4690   22.0270 C   0  0  0  0  0  3  0  0  0  0  0  0
  -22.7780   -8.1280   21.1060 C   0  0  0  0  0  0  0  0  0  0  0  0
  -22.3200   -9.0970   20.1970 C   0  0  0  0  0  3  0  0  0  0  0  0
  -22.8540  -10.3960   20.2080 C   0  0  0  0  0  3  0  0  0  0  0  0
  -22.2230   -6.8750   21.0020 O   0  0  0  0  0  0  0  0  0  0  0  0
  -21.9250   -6.1250   22.1140 C   0  0  0  0  0  0  0  0  0  0  0  0
  -21.1420   -6.6370   23.1710 C   0  0  0  0  0  3  0  0  0  0  0  0
  -20.8040   -5.8120   24.2610 C   0  0  0  0  0  3  0  0  0  0  0  0
  -21.2400   -4.4740   24.2940 C   0  0  0  0  0  0  0  0  0  0  0  0
  -22.0170   -3.9610   23.2400 C   0  0  0  0  0  3  0  0  0  0  0  0
  -22.3570   -4.7840   22.1500 C   0  0  0  0  0  0  0  0  0  0  0  0
  -23.0880   -4.2810   21.1290 F   0  0  0  0  0  0  0  0  0  0  0  0
  -20.9060   -3.6760   25.3350 F   0  0  0  0  0  0  0  0  0  0  0  0
  -22.2240  -13.6080   21.4380 C   0  0  0  0  0  0  0  0  0  0  0  0
  -21.5630  -12.7580   22.2200 N   0  0  0  0  0  0  0  0  0  0  0  0
  -21.6580  -14.5770   20.9350 O   0  0  0  0  0  0  0  0  0  0  0  0
  -22.0270  -11.9790   22.6630 H   0  0  0  0  0  0  0  0  0  0  0  0
  -20.5780  -12.8990   22.3890 H   0  0  0  0  0  0  0  0  0  0  0  0
  -24.5960  -15.7280   21.0310 N   0  0  0  0  0  0  0  0  0  0  0  0
  -23.7080  -16.2160   21.1050 H   0  0  0  0  0  0  0  0  0  0  0  0
  -25.3630  -16.3380   20.7940 H   0  0  0  0  0  0  0  0  0  0  0  0
  -25.9750  -22.3190   18.7640 C   0  0  0  0  0  2  0  0  0  0  0  0
  -26.6680  -23.6910   18.8360 C   0  0  0  0  0  2  0  0  0  0  0  0
  -28.1700  -23.6740   18.4890 C   0  0  0  0  0  2  0  0  0  0  0  0
  -28.9090  -24.9310   18.9920 C   0  0  0  0  0  2  0  0  0  0  0  0
  -28.6880  -26.1810   18.1180 C   0  0  0  0  0  2  0  0  0  0  0  0
  -28.6340  -27.3650   18.9250 O   0  0  0  0  0  0  0  0  0  0  0  0
  -25.0810  -31.1100   23.8370 C   0  0  0  0  0  0  0  0  0  0  0  0
  -27.4170  -27.9100   19.2940 C   0  0  0  0  0  0  0  0  0  0  0  0
  -23.7070  -30.1330   22.0320 C   0  0  0  0  0  3  0  0  0  0  0  0
  -24.9960  -29.1580   20.0640 C   0  0  0  0  0  0  0  0  0  0  0  0
  -26.1710  -30.7080   21.6340 C   0  0  0  0  0  2  0  0  0  0  0  0
  -26.2070  -29.5810   20.6230 C   0  0  0  0  0  0  0  0  0  0  0  0
  -27.4160  -28.9600   20.2430 C   0  0  0  0  0  3  0  0  0  0  0  0
  -26.1760  -27.4790   18.7690 C   0  0  0  0  0  3  0  0  0  0  0  0
  -24.9730  -28.1050   19.1410 C   0  0  0  0  0  3  0  0  0  0  0  0
  -23.7450  -29.8860   20.5020 C   0  0  0  0  0  2  0  0  0  0  0  0
  -25.0100  -30.6500   22.5570 N   0  0  0  0  0  0  0  0  0  0  0  0
  -24.0750  -31.1460   24.5610 O   0  0  0  0  0  0  0  0  0  0  0  0
  -23.2310  -28.8390   22.7300 C   0  0  0  0  0  0  0  0  0  0  0  0
  -22.1290  -28.2600   22.2280 N   0  0  0  0  0  0  0  0  0  0  0  0
  -23.8540  -28.3690   23.6830 O   0  0  0  0  0  0  0  0  0  0  0  0
  -21.6710  -28.7080   21.4450 H   0  0  0  0  0  0  0  0  0  0  0  0
  -19.8240  -25.6250   21.3330 C   0  0  0  0  0  0  0  0  0  0  0  0
  -21.5160  -27.0180   22.7020 C   0  0  0  0  0  3  0  0  0  0  0  0
  -22.4850  -25.8230   22.5340 C   0  0  0  0  0  2  0  0  0  0  0  0
  -22.2910  -25.0730   21.2130 C   0  0  0  0  0  2  0  0  0  0  0  0
  -20.8610  -24.5370   21.1010 C   0  0  0  0  0  2  0  0  0  0  0  0
  -20.1380  -26.7960   22.0720 C   0  0  0  0  0  0  0  0  0  0  0  0
  -19.1480  -27.7900   22.2280 C   0  0  0  0  0  3  0  0  0  0  0  0
  -17.8680  -27.6290   21.6680 C   0  0  0  0  0  3  0  0  0  0  0  0
  -17.5580  -26.4610   20.9500 C   0  0  0  0  0  3  0  0  0  0  0  0
  -18.5330  -25.4600   20.7880 C   0  0  0  0  0  3  0  0  0  0  0  0
  -26.4180  -31.6320   24.4460 C   0  0  0  0  0  3  0  0  0  0  0  0
  -26.2110  -33.0360   24.8240 N   0  0  0  0  0  0  0  0  0  0  0  0
  -26.6990  -34.0840   24.1450 C   0  0  0  0  0  0  0  0  0  0  0  0
  -27.4390  -33.9610   23.1660 O   0  0  0  0  0  0  0  0  0  0  0  0
  -25.5680  -33.2110   25.5830 H   0  0  0  0  0  0  0  0  0  0  0  0
  -25.2160  -36.0670   23.7070 C   0  0  0  0  0  1  0  0  0  0  0  0
  -26.3030  -35.4910   24.6290 C   0  0  0  0  0  3  0  0  0  0  0  0
  -28.4130  -36.0880   25.7350 C   0  0  0  0  0  1  0  0  0  0  0  0
  -27.4420  -36.4320   24.6970 N   0  0  0  0  0  0  0  0  0  0  0  0
  -27.1180  -37.3810   24.8670 H   0  0  0  0  0  0  0  0  0  0  0  0
  -26.9090  -30.7830   25.6840 C   0  0  1  0  0  0  0  0  0  0  0  0
  -25.8120  -30.5450   26.7500 C   0  0  0  0  0  1  0  0  0  0  0  0
  -27.4350  -29.4010   25.2300 C   0  0  0  0  0  1  0  0  0  0  0  0
  -28.1010  -31.4950   26.3650 C   0  0  0  0  0  1  0  0  0  0  0  0
  1  2  1  0
  2  4  1  0
  3  1  2  0
  5  8  1  0
  6  9  1  0
  7  1  1  0
  7  6  1  0
  7  5  1  0
  8 13  1  0
  9 12  1  0
  9  8  1  0
 10 12  1  0
 11 12  1  0
 13 22  1  0
 14 22  1  0
 15 20  1  0
 16 17  1  0
 16 15  1  0
 18 17  1  0
 18 27  1  0
 18 19  1  0
 20 19  1  0
 20 14  1  0
 21 14  2  0
 22 23  1  0
 24 25  2  0
 25 44  1  0
 26 25  1  0
 27 28  1  0
 27 24  1  0
 28 26  2  0
 29 26  1  0
 29 30  1  0
 31 30  2  0
 32 31  1  0
 33 34  1  0
 33 32  2  0
 34 29  2  0
 35 32  1  0
 35 36  1  0
 36 41  2  0
 36 37  1  0
 37 38  2  0
 38 39  1  0
 39 43  1  0
 40 39  2  0
 41 40  1  0
 42 41  1  0
 44 45  1  0
 45 48  1  0
 45 47  1  0
 46 44  2  0
 49 24  1  0
 49 50  1  0
 51 49  1  0
 52 53  1  0
 52  2  1  0
 54 53  1  0
 54 55  1  0
 56 57  1  0
 56 55  1  0
 57 59  1  0
 58 69  2  0
 59 64  1  0
 60 68  1  0
 60 70  1  0
 61 67  1  0
 61 63  1  0
 62 68  1  0
 63 62  1  0
 64 63  2  0
 65 66  1  0
 65 59  2  0
 66 61  2  0
 67 60  1  0
 68 58  1  0
 70 72  2  0
 71 70  1  0
 73 71  1  0
 74 79  1  0
 75 71  1  0
 76 75  1  0
 77 76  1  0
 78 77  1  0
 78 74  1  0
 79 80  2  0
 79 75  1  0
 81 80  1  0
 82 81  2  0
 83 82  1  0
 83 74  2  0
 84 58  1  0
 84 85  1  0
 84 94  1  0
 85 88  1  0
 86 90  1  0
 86 85  1  0
 87 86  2  0
 90 89  1  0
 90 92  1  0
 92 93  1  0
 92 91  1  0
 94 97  1  1
 94 95  1  0
 96 94  1  0
M  ISO  4  14 100  22 100  56 101  57 101
M  END
>  <TORSDO>  (10) 
F 24

>  <SCORE>  (10) 
-7.725

>  <name>  (10) 
9

>  <ligand_id>  (10) 
9

>  <original_smiles>  (10) 
[H]c1c([H])c([H])c2c(c1[H])C([H])([H])C([H])([H])C([H])([H])C2([H])N([H])C(=O)C1([H])N(C(=O)C([H])(N([H])C(=O)C([H])(N([H])C([H])([H])[H])C([H])([H])[H])C(C([H])([H])[H])(C([H])([H])[H])C([H])([H])[H])C([H])([H])c2c([H])c(OC([H])([H])C([H])([H])C([H])([H])C([H])([H])C([H])([H])N([H])C(=O)C3([H])C([H])([H])C([H])(C([H])([H])N([H])C(=O)N4C([H])([H])C([H])([H])C([H])([H])C([H])(n5nc(-c6c([H])c([H])c(Oc7c([H])c([H])c(F)c([H])c7F)c([H])c6[H])c(C(=O)N([H])[H])c5N([H])[H])C4([H])[H])C([H])(C([H])(C([H])([H])[H])C([H])([H])[H])C3([H])[H])c([H])c([H])c2C1([H])[H]

>  <smiles>  (10) 
[H]c1c([H])c([H])c2c(c1[H])C([H])([H])C([H])([H])C([H])([H])C2([H])N([H])C(=O)C1([H])N(C(=O)C([H])(N([H])C(=O)C([H])(N([H])C([H])([H])[H])C([H])([H])[H])C(C([H])([H])[H])(C([H])([H])[H])C([H])([H])[H])C([H])([H])c2c([H])c(OC([H])([H])C([H])([H])C([H])([H])C([H])([H])C([H])([H])N([H])C(=O)C3([H])C([H])([H])C([H])(C([H])([H])N([H])C(=O)N4C([H])([H])C([H])([H])C([H])([H])C([H])(n5nc(-c6c([H])c([H])c(Oc7c([H])c([H])c(F)c([H])c7F)c([H])c6[H])c(C(=O)N([H])[H])c5N([H])[H])C4([H])[H])C([H])(C([H])(C([H])([H])[H])C([H])([H])[H])C3([H])[H])c([H])c([H])c2C1([H])[H]

$$$$
10:0:0
     RDKit          3D

100108  0  0  1  0  0  0  0  0999 V2000
  -29.2960  -18.9820   20.0390 C   0  0  0  0  0  3  0  0  0  0  0  0
  -29.0980  -20.5800   20.7280 N   0  0  0  0  0  4  0  0  0  0  0  0
  -28.2740  -20.4720   21.3000 H   0  0  0  0  0  0  0  0  0  0  0  0
  -29.8480  -20.6560   21.3970 H   0  0  0  0  0  0  0  0  0  0  0  0
  -28.9620  -22.2110   20.1080 C   0  0  0  0  0  2  0  0  0  0  0  0
  -28.2370  -23.8820   20.6910 C   0  0  0  0  0  2  0  0  0  0  0  0
  -28.3770  -25.6020   20.4610 O   0  0  0  0  0  0  0  0  0  0  0  0
  -24.7430  -31.8310   23.2570 C   0  0  0  0  0  0  0  0  0  0  0  0
  -27.3710  -26.7650   20.4230 C   0  0  0  0  0  0  0  0  0  0  0  0
  -23.6000  -30.3940   21.6230 C   0  0  0  0  0  3  0  0  0  0  0  0
  -25.0860  -28.7430   20.2730 C   0  0  0  0  0  0  0  0  0  0  0  0
  -26.1780  -30.5720   21.5460 C   0  0  0  0  0  2  0  0  0  0  0  0
  -26.2660  -29.1330   20.9190 C   0  0  0  0  0  0  0  0  0  0  0  0
  -27.4010  -28.1740   20.9510 C   0  0  0  0  0  3  0  0  0  0  0  0
  -26.1560  -26.5670   19.7230 C   0  0  0  0  0  3  0  0  0  0  0  0
  -25.0680  -27.4840   19.6490 C   0  0  0  0  0  3  0  0  0  0  0  0
  -23.8700  -29.6780   20.2710 C   0  0  0  0  0  2  0  0  0  0  0  0
  -24.8620  -30.9660   22.1930 N   0  0  0  0  0  0  0  0  0  0  0  0
  -23.6360  -32.1270   23.7400 O   0  0  0  0  0  0  0  0  0  0  0  0
  -22.8770  -29.4230   22.5950 C   0  0  0  0  0  0  0  0  0  0  0  0
  -21.5460  -29.2670   22.4560 N   0  0  0  0  0  0  0  0  0  0  0  0
  -23.5230  -28.8060   23.4450 O   0  0  0  0  0  0  0  0  0  0  0  0
  -21.0740  -29.8130   21.7500 H   0  0  0  0  0  0  0  0  0  0  0  0
  -18.1480  -28.0790   22.9560 C   0  0  0  0  0  0  0  0  0  0  0  0
  -20.7090  -28.3410   23.2290 C   0  0  0  0  0  3  0  0  0  0  0  0
  -20.8080  -26.9040   22.6660 C   0  0  0  0  0  2  0  0  0  0  0  0
  -19.7090  -26.5790   21.6480 C   0  0  0  0  0  2  0  0  0  0  0  0
  -18.3240  -26.7280   22.2830 C   0  0  0  0  0  2  0  0  0  0  0  0
  -19.2680  -28.8450   23.3840 C   0  0  0  0  0  0  0  0  0  0  0  0
  -19.0440  -30.1060   23.9770 C   0  0  0  0  0  3  0  0  0  0  0  0
  -17.7380  -30.6040   24.1420 C   0  0  0  0  0  3  0  0  0  0  0  0
  -16.6350  -29.8370   23.7260 C   0  0  0  0  0  3  0  0  0  0  0  0
  -16.8410  -28.5760   23.1420 C   0  0  0  0  0  3  0  0  0  0  0  0
  -25.9880  -32.5010   23.9110 C   0  0  0  0  0  3  0  0  0  0  0  0
  -26.4620  -31.7730   25.2310 C   0  0  1  0  0  0  0  0  0  0  0  0
  -25.3350  -31.5590   26.2690 C   0  0  0  0  0  1  0  0  0  0  0  0
  -27.0680  -30.3870   24.9140 C   0  0  0  0  0  1  0  0  0  0  0  0
  -27.5840  -32.5950   25.9070 C   0  0  0  0  0  1  0  0  0  0  0  0
  -25.6480  -33.9060   24.2120 N   0  0  0  0  0  0  0  0  0  0  0  0
  -25.9880  -34.9590   23.4580 C   0  0  0  0  0  0  0  0  0  0  0  0
  -26.6780  -34.8540   22.4410 O   0  0  0  0  0  0  0  0  0  0  0  0
  -25.0340  -34.0590   24.9990 H   0  0  0  0  0  0  0  0  0  0  0  0
  -24.2470  -36.7410   23.0740 C   0  0  0  0  0  1  0  0  0  0  0  0
  -25.4850  -36.3510   23.8970 C   0  0  0  0  0  3  0  0  0  0  0  0
  -27.6050  -37.2700   24.7340 C   0  0  0  0  0  1  0  0  0  0  0  0
  -26.5090  -37.4140   23.7780 N   0  0  0  0  0  0  0  0  0  0  0  0
  -26.0940  -38.3310   23.9070 H   0  0  0  0  0  0  0  0  0  0  0  0
  -29.5130  -19.0800   18.5160 C   0  0  0  0  0  2  0  0  0  0  0  0
  -28.3030  -18.6620   17.6310 C   0  0  0  0  0  2  0  0  0  0  0  0
  -26.9660  -20.8130   17.5210 C   0  0  0  0  0  0  0  0  0  0  0  0
  -27.0980  -19.4990   17.7540 N   0  0  0  0  0  0  0  0  0  0  0  0
  -27.8970  -21.5260   17.1430 O   0  0  0  0  0  0  0  0  0  0  0  0
  -26.2430  -19.0190   18.0140 H   0  0  0  0  0  0  0  0  0  0  0  0
  -25.4270  -22.9400   17.7590 C   0  0  0  0  0  2  0  0  0  0  0  0
  -25.1680  -21.4740   19.2570 C   0  0  0  0  0  2  0  0  0  0  0  0
  -25.5650  -21.3970   17.7680 C   0  0  0  0  0  3  0  0  0  0  0  0
  -24.4200  -22.7720   18.9110 C   0  0  0  0  0  3  0  0  0  0  0  0
  -24.4330  -23.8200   19.9600 N   0  0  0  0  0  4  0  0  0  0  0  0
  -25.3450  -23.9800   20.3450 H   0  0  0  0  0  0  0  0  0  0  0  0
  -23.8230  -23.5580   20.7140 H   0  0  0  0  0  0  0  0  0  0  0  0
  -24.0900  -24.6930   19.5970 H   0  0  0  0  0  0  0  0  0  0  0  0
  -29.6190  -17.1980   20.6710 C   0  0  0  0  0  3  0  0  0  0  0  0
  -30.3610  -15.5590   20.1870 C   0  0  0  0  0  0  0  0  0  0  0  0
  -30.4210  -13.0370   19.3140 C   0  0  0  0  0  2  0  0  0  0  0  0
  -29.4920  -12.7280   18.1040 C   0  0  0  0  0  2  0  0  0  0  0  0
  -28.0720  -12.3990   18.5810 C   0  0  0  0  0  2  0  0  0  0  0  0
  -27.6180  -13.3680   19.6950 C   0  0  0  0  0  3  0  0  0  0  0  0
  -28.6750  -13.5960   20.7990 C   0  0  0  0  0  2  0  0  0  0  0  0
  -29.8620  -14.1900   20.1520 N   0  0  0  0  0  0  0  0  0  0  0  0
  -31.5510  -15.5190   19.8240 O   0  0  0  0  0  0  0  0  0  0  0  0
  -25.2910  -13.9280   20.5400 C   0  0  0  0  0  0  0  0  0  0  0  0
  -24.2260  -13.1590   20.9110 C   0  0  0  0  0  0  0  0  0  0  0  0
  -24.6670  -11.8000   20.8230 C   0  0  0  0  0  0  0  0  0  0  0  0
  -26.3070  -13.0430   20.2350 N   0  0  0  0  0  0  0  0  0  0  0  0
  -25.9500  -11.7530   20.4740 N   0  0  0  0  0  0  0  0  0  0  0  0
  -23.9220  -10.5470   20.9990 C   0  0  0  0  0  0  0  0  0  0  0  0
  -24.3630   -9.5390   21.8860 C   0  0  0  0  0  3  0  0  0  0  0  0
  -23.6150   -8.3530   22.0510 C   0  0  0  0  0  3  0  0  0  0  0  0
  -22.4130   -8.1650   21.3290 C   0  0  0  0  0  0  0  0  0  0  0  0
  -21.9890   -9.1610   20.4310 C   0  0  0  0  0  3  0  0  0  0  0  0
  -22.7360  -10.3390   20.2640 C   0  0  0  0  0  3  0  0  0  0  0  0
  -21.6330   -7.0360   21.4070 O   0  0  0  0  0  0  0  0  0  0  0  0
  -21.6130   -6.2500   22.5300 C   0  0  0  0  0  0  0  0  0  0  0  0
  -21.2650   -6.7680   23.7960 C   0  0  0  0  0  3  0  0  0  0  0  0
  -21.1910   -5.9120   24.9130 C   0  0  0  0  0  3  0  0  0  0  0  0
  -21.4560   -4.5360   24.7640 C   0  0  0  0  0  0  0  0  0  0  0  0
  -21.7960   -4.0160   23.5030 C   0  0  0  0  0  3  0  0  0  0  0  0
  -21.8750   -4.8700   22.3890 C   0  0  0  0  0  0  0  0  0  0  0  0
  -22.1830   -4.3620   21.1720 F   0  0  0  0  0  0  0  0  0  0  0  0
  -21.3780   -3.7120   25.8350 F   0  0  0  0  0  0  0  0  0  0  0  0
  -22.8470  -13.6550   21.2310 C   0  0  0  0  0  0  0  0  0  0  0  0
  -22.1290  -12.9600   22.1030 N   0  0  0  0  0  0  0  0  0  0  0  0
  -22.4180  -14.7020   20.7470 O   0  0  0  0  0  0  0  0  0  0  0  0
  -22.4900  -12.1170   22.5260 H   0  0  0  0  0  0  0  0  0  0  0  0
  -21.2050  -13.2810   22.3570 H   0  0  0  0  0  0  0  0  0  0  0  0
  -25.4850  -15.3020   20.4150 N   0  0  0  0  0  0  0  0  0  0  0  0
  -24.7580  -15.9650   20.6540 H   0  0  0  0  0  0  0  0  0  0  0  0
  -26.3840  -15.7260   20.2430 H   0  0  0  0  0  0  0  0  0  0  0  0
  -31.2820  -17.9900   22.5050 C   0  0  0  0  0  1  0  0  0  0  0  0
  -29.9110  -17.3820   22.1800 C   0  0  0  0  0  2  0  0  0  0  0  0
  1 48  1  0
  1 62  1  0
  1  2  1  0
  2  3  1  0
  2  4  1  0
  5  6  1  0
  5  2  1  0
  7  6  1  0
  8 19  2  0
  9  7  1  0
  9 14  1  0
 10 18  1  0
 10 20  1  0
 11 13  1  0
 12 18  1  0
 13 14  2  0
 13 12  1  0
 15  9  2  0
 16 15  1  0
 16 11  2  0
 17 11  1  0
 17 10  1  0
 18  8  1  0
 20 22  2  0
 21 20  1  0
 23 21  1  0
 24 33  2  0
 24 29  1  0
 25 21  1  0
 25 29  1  0
 26 25  1  0
 27 28  1  0
 27 26  1  0
 28 24  1  0
 29 30  2  0
 30 31  1  0
 32 31  2  0
 33 32  1  0
 34  8  1  0
 34 39  1  0
 34 35  1  0
 35 38  1  1
 35 36  1  0
 37 35  1  0
 39 42  1  0
 40 44  1  0
 40 39  1  0
 41 40  2  0
 44 43  1  0
 46 44  1  0
 46 47  1  0
 46 45  1  0
 49 51  1  0
 49 48  1  0
 50 51  1  0
 51 53  1  0
 52 50  2  0
 54 56  1  0
 54 57  1  0
 56 50  1  0
 56 55  1  0
 57 55  1  0
 57 58  1  0
 58 59  1  0
 58 60  1  0
 61 58  1  0
 62100  1  0
 63 62  1  0
 64 69  1  0
 65 66  1  0
 65 64  1  0
 67 66  1  0
 67 74  1  0
 67 68  1  0
 69 63  1  0
 69 68  1  0
 70 63  2  0
 71 72  2  0
 72 91  1  0
 73 72  1  0
 73 76  1  0
 74 75  1  0
 74 71  1  0
 75 73  2  0
 76 77  1  0
 77 78  2  0
 79 82  1  0
 79 78  1  0
 80 79  2  0
 81 80  1  0
 81 76  2  0
 82 83  1  0
 83 84  1  0
 84 85  2  0
 86 85  1  0
 86 90  1  0
 87 86  2  0
 88 83  2  0
 88 87  1  0
 89 88  1  0
 91 92  1  0
 92 95  1  0
 92 94  1  0
 93 91  2  0
 96 71  1  0
 96 97  1  0
 98 96  1  0
100 99  1  0
M  ISO  4   6 101   7 101  62 100  63 100
M  END
>  <TORSDO>  (11) 
F 26

>  <SCORE>  (11) 
-13.996

>  <name>  (11) 
10

>  <ligand_id>  (11) 
10

>  <original_smiles>  (11) 
[H]c1c([H])c([H])c2c(c1[H])C([H])([H])C([H])([H])C([H])([H])C2([H])N([H])C(=O)C1([H])N(C(=O)C([H])(N([H])C(=O)C([H])(N([H])C([H])([H])[H])C([H])([H])[H])C(C([H])([H])[H])(C([H])([H])[H])C([H])([H])[H])C([H])([H])c2c([H])c(OC([H])([H])C([H])([H])[N+]([H])([H])C([H])(C([H])([H])C([H])([H])N([H])C(=O)C3([H])C([H])([H])C([H])([N+]([H])([H])[H])C3([H])[H])C([H])(C(=O)N3C([H])([H])C([H])([H])C([H])([H])C([H])(n4nc(-c5c([H])c([H])c(Oc6c([H])c([H])c(F)c([H])c6F)c([H])c5[H])c(C(=O)N([H])[H])c4N([H])[H])C3([H])[H])C([H])([H])C([H])([H])[H])c([H])c([H])c2C1([H])[H]

>  <smiles>  (11) 
[H]c1c([H])c([H])c2c(c1[H])C([H])([H])C([H])([H])C([H])([H])C2([H])N([H])C(=O)C1([H])N(C(=O)C([H])(N([H])C(=O)C([H])(N([H])C([H])([H])[H])C([H])([H])[H])C(C([H])([H])[H])(C([H])([H])[H])C([H])([H])[H])C([H])([H])c2c([H])c(OC([H])([H])C([H])([H])[N+]([H])([H])C([H])(C([H])([H])C([H])([H])N([H])C(=O)C3([H])C([H])([H])C([H])([N+]([H])([H])[H])C3([H])[H])C([H])(C(=O)N3C([H])([H])C([H])([H])C([H])([H])C([H])(n4nc(-c5c([H])c([H])c(Oc6c([H])c([H])c(F)c([H])c6F)c([H])c5[H])c(C(=O)N([H])[H])c4N([H])[H])C3([H])[H])C([H])([H])C([H])([H])[H])c([H])c([H])c2C1([H])[H]

$$$$
11:0:0
     RDKit          3D

 95103  0  0  1  0  0  0  0  0999 V2000
  -30.7990  -19.5800   20.7630 C   0  0  0  0  0  0  0  0  0  0  0  0
  -30.4500  -20.7780   20.2280 N   0  0  0  0  0  0  0  0  0  0  0  0
  -31.2840  -19.5380   21.8950 O   0  0  0  0  0  0  0  0  0  0  0  0
  -29.9690  -20.7550   19.3400 H   0  0  0  0  0  0  0  0  0  0  0  0
  -29.5340  -17.4440   18.2820 C   0  0  0  0  0  2  0  0  0  0  0  0
  -30.5240  -18.5990   18.4500 C   0  0  0  0  0  2  0  0  0  0  0  0
  -29.2730  -17.5590   19.7910 C   0  0  0  0  0  3  0  0  0  0  0  0
  -30.6990  -18.2260   19.9460 C   0  0  2  0  0  0  0  0  0  0  0  0
  -27.9720  -18.2840   20.0950 C   0  0  0  0  0  0  0  0  0  0  0  0
  -26.7290  -17.4130   19.9980 C   0  0  0  0  0  1  0  0  0  0  0  0
  -27.8170  -19.4840   20.3290 O   0  0  0  0  0  0  0  0  0  0  0  0
  -31.9200  -17.2590   20.2080 C   0  0  0  0  0  2  0  0  0  0  0  0
  -32.7990  -15.0210   19.3130 C   0  0  0  0  0  0  0  0  0  0  0  0
  -34.2880  -13.5960   17.9470 C   0  0  0  0  0  2  0  0  0  0  0  0
  -35.3070  -14.4980   17.2200 C   0  0  0  0  0  2  0  0  0  0  0  0
  -34.7330  -15.0090   15.8820 C   0  0  0  0  0  2  0  0  0  0  0  0
  -33.3000  -15.5900   16.0250 C   0  0  0  0  0  3  0  0  0  0  0  0
  -32.3940  -14.6430   16.8460 C   0  0  0  0  0  2  0  0  0  0  0  0
  -33.0560  -14.3800   18.1360 N   0  0  0  0  0  0  0  0  0  0  0  0
  -33.3420  -14.7080   20.3750 O   0  0  0  0  0  0  0  0  0  0  0  0
  -32.0650  -16.1500   19.2170 N   0  0  0  0  0  0  0  0  0  0  0  0
  -31.6700  -16.3300   18.3080 H   0  0  0  0  0  0  0  0  0  0  0  0
  -31.7880  -16.8810   14.3850 C   0  0  0  0  0  0  0  0  0  0  0  0
  -31.6330  -16.8080   13.0300 C   0  0  0  0  0  0  0  0  0  0  0  0
  -32.5130  -15.7740   12.5880 C   0  0  0  0  0  0  0  0  0  0  0  0
  -32.7170  -15.9070   14.7210 N   0  0  0  0  0  0  0  0  0  0  0  0
  -33.1110  -15.2030   13.6280 N   0  0  0  0  0  0  0  0  0  0  0  0
  -32.8620  -15.3360   11.2310 C   0  0  0  0  0  0  0  0  0  0  0  0
  -32.4750  -14.0680   10.7420 C   0  0  0  0  0  3  0  0  0  0  0  0
  -32.8070  -13.6790    9.4270 C   0  0  0  0  0  3  0  0  0  0  0  0
  -33.5270  -14.5590    8.5860 C   0  0  0  0  0  0  0  0  0  0  0  0
  -33.9290  -15.8100    9.0850 C   0  0  0  0  0  3  0  0  0  0  0  0
  -33.6020  -16.1950   10.3960 C   0  0  0  0  0  3  0  0  0  0  0  0
  -33.9150  -14.2570    7.3030 O   0  0  0  0  0  0  0  0  0  0  0  0
  -33.0090  -14.1930    6.2760 C   0  0  0  0  0  0  0  0  0  0  0  0
  -32.4260  -15.3550    5.7240 C   0  0  0  0  0  3  0  0  0  0  0  0
  -31.5530  -15.2480    4.6240 C   0  0  0  0  0  3  0  0  0  0  0  0
  -31.2680  -13.9860    4.0690 C   0  0  0  0  0  0  0  0  0  0  0  0
  -31.8530  -12.8300    4.6130 C   0  0  0  0  0  3  0  0  0  0  0  0
  -32.7230  -12.9330    5.7140 C   0  0  0  0  0  0  0  0  0  0  0  0
  -33.3010  -11.8180    6.2220 F   0  0  0  0  0  0  0  0  0  0  0  0
  -30.4370  -13.8830    3.0070 F   0  0  0  0  0  0  0  0  0  0  0  0
  -30.7940  -17.7160   12.1780 C   0  0  0  0  0  0  0  0  0  0  0  0
  -30.1190  -17.1680   11.1750 N   0  0  0  0  0  0  0  0  0  0  0  0
  -30.6900  -18.9160   12.4350 O   0  0  0  0  0  0  0  0  0  0  0  0
  -30.1870  -16.1800   10.9750 H   0  0  0  0  0  0  0  0  0  0  0  0
  -29.5220  -17.7440   10.5980 H   0  0  0  0  0  0  0  0  0  0  0  0
  -31.2350  -17.7150   15.3460 N   0  0  0  0  0  0  0  0  0  0  0  0
  -30.5980  -18.4630   15.0960 H   0  0  0  0  0  0  0  0  0  0  0  0
  -31.5160  -17.7430   16.3150 H   0  0  0  0  0  0  0  0  0  0  0  0
  -31.0820  -22.0820   20.5870 C   0  0  0  0  0  2  0  0  0  0  0  0
  -30.1470  -23.3270   20.5080 C   0  0  0  0  0  2  0  0  0  0  0  0
  -29.9880  -24.0600   19.1240 C   0  0  0  0  0  2  0  0  0  0  0  0
  -31.2340  -24.6710   18.4100 C   0  0  0  0  0  2  0  0  0  0  0  0
  -30.8360  -25.4970   17.2820 O   0  0  0  0  0  0  0  0  0  0  0  0
  -29.0820  -25.7070   10.3670 C   0  0  0  0  0  0  0  0  0  0  0  0
  -31.2290  -25.1750   15.9870 C   0  0  0  0  0  0  0  0  0  0  0  0
  -30.9800  -24.2340   10.9490 C   0  0  0  0  0  3  0  0  0  0  0  0
  -31.9240  -24.5130   13.3080 C   0  0  0  0  0  0  0  0  0  0  0  0
  -30.4560  -26.3030   12.3640 C   0  0  0  0  0  2  0  0  0  0  0  0
  -31.0340  -25.5630   13.5580 C   0  0  0  0  0  0  0  0  0  0  0  0
  -30.6930  -25.9000   14.8920 C   0  0  0  0  0  3  0  0  0  0  0  0
  -32.1520  -24.1400   15.7060 C   0  0  0  0  0  3  0  0  0  0  0  0
  -32.4910  -23.8030   14.3810 C   0  0  0  0  0  3  0  0  0  0  0  0
  -32.2360  -24.2000   11.8600 C   0  0  0  0  0  2  0  0  0  0  0  0
  -30.1130  -25.4270   11.2150 N   0  0  0  0  0  0  0  0  0  0  0  0
  -28.8760  -25.0170    9.3580 O   0  0  0  0  0  0  0  0  0  0  0  0
  -30.2310  -22.8890   11.0870 C   0  0  0  0  0  0  0  0  0  0  0  0
  -29.7880  -22.3290    9.9490 N   0  0  0  0  0  0  0  0  0  0  0  0
  -30.0810  -22.3590   12.1910 O   0  0  0  0  0  0  0  0  0  0  0  0
  -29.9440  -22.8320    9.0860 H   0  0  0  0  0  0  0  0  0  0  0  0
  -27.1480  -20.5910    8.1950 C   0  0  0  0  0  0  0  0  0  0  0  0
  -29.0950  -21.0470    9.8330 C   0  0  0  0  0  3  0  0  0  0  0  0
  -29.9110  -20.0500    8.9790 C   0  0  0  0  0  2  0  0  0  0  0  0
  -29.5220  -20.0610    7.4980 C   0  0  0  0  0  2  0  0  0  0  0  0
  -28.0410  -19.7180    7.3270 C   0  0  0  0  0  2  0  0  0  0  0  0
  -27.6480  -21.2280    9.3620 C   0  0  0  0  0  0  0  0  0  0  0  0
  -26.7840  -22.0570   10.1120 C   0  0  0  0  0  3  0  0  0  0  0  0
  -25.4490  -22.2520    9.7140 C   0  0  0  0  0  3  0  0  0  0  0  0
  -24.9550  -21.6080    8.5650 C   0  0  0  0  0  3  0  0  0  0  0  0
  -25.8020  -20.7750    7.8130 C   0  0  0  0  0  3  0  0  0  0  0  0
  -28.1280  -26.9180   10.6090 C   0  0  0  0  0  3  0  0  0  0  0  0
  -27.9440  -27.6020    9.3210 N   0  0  0  0  0  0  0  0  0  0  0  0
  -28.1830  -28.9030    9.1100 C   0  0  0  0  0  0  0  0  0  0  0  0
  -28.5190  -29.6760   10.0100 O   0  0  0  0  0  0  0  0  0  0  0  0
  -27.7220  -27.0180    8.5290 H   0  0  0  0  0  0  0  0  0  0  0  0
  -28.9730  -30.6180    7.4500 C   0  0  0  0  0  1  0  0  0  0  0  0
  -28.0250  -29.4290    7.6700 C   0  0  0  0  0  3  0  0  0  0  0  0
  -25.8620  -28.7570    6.7220 C   0  0  0  0  0  1  0  0  0  0  0  0
  -26.6390  -29.8280    7.3400 N   0  0  0  0  0  0  0  0  0  0  0  0
  -26.6330  -30.6280    6.7120 H   0  0  0  0  0  0  0  0  0  0  0  0
  -26.7350  -26.5020   11.2220 C   0  0  1  0  0  0  0  0  0  0  0  0
  -25.6820  -26.1160   10.1560 C   0  0  0  0  0  1  0  0  0  0  0  0
  -26.8980  -25.3020   12.1840 C   0  0  0  0  0  1  0  0  0  0  0  0
  -26.1650  -27.6670   12.0650 C   0  0  0  0  0  1  0  0  0  0  0  0
  1  3  2  0
  2 51  1  0
  2  1  1  0
  4  2  1  0
  5  6  1  0
  5  7  1  0
  6  8  1  0
  7  8  1  0
  7  9  1  0
  8 12  1  6
  8  1  1  0
  9 11  2  0
 10  9  1  0
 13 20  2  0
 14 19  1  0
 15 14  1  0
 16 17  1  0
 16 15  1  0
 17 26  1  0
 17 18  1  0
 18 19  1  0
 19 13  1  0
 21 13  1  0
 21 12  1  0
 22 21  1  0
 23 26  1  0
 23 48  1  0
 24 23  2  0
 25 24  1  0
 25 27  2  0
 27 26  1  0
 28 25  1  0
 29 28  1  0
 30 29  2  0
 31 32  2  0
 31 30  1  0
 32 33  1  0
 33 28  2  0
 34 31  1  0
 35 34  1  0
 36 35  1  0
 37 36  2  0
 38 39  2  0
 38 37  1  0
 39 40  1  0
 40 41  1  0
 40 35  2  0
 42 38  1  0
 43 45  2  0
 43 24  1  0
 44 43  1  0
 46 44  1  0
 47 44  1  0
 48 50  1  0
 49 48  1  0
 52 51  1  0
 53 52  1  0
 54 53  1  0
 55 54  1  0
 56 66  1  0
 57 55  1  0
 58 68  1  0
 58 66  1  0
 58 65  1  0
 59 61  2  0
 59 64  1  0
 60 61  1  0
 61 62  1  0
 62 57  2  0
 63 57  1  0
 64 63  2  0
 65 59  1  0
 66 60  1  0
 67 56  2  0
 68 70  2  0
 69 68  1  0
 71 69  1  0
 72 77  1  0
 73 69  1  0
 74 73  1  0
 75 74  1  0
 76 75  1  0
 76 72  1  0
 77 73  1  0
 77 78  2  0
 79 78  1  0
 80 79  2  0
 81 72  2  0
 81 80  1  0
 82 56  1  0
 82 92  1  0
 83 82  1  0
 84 83  1  0
 84 85  2  0
 86 83  1  0
 88 87  1  0
 88 84  1  0
 89 90  1  0
 90 88  1  0
 91 90  1  0
 92 95  1  1
 92 94  1  0
 93 92  1  0
M  ISO  4  13 100  21 100  54 101  55 101
M  END
>  <TORSDO>  (12) 
F 23

>  <SCORE>  (12) 
-4.388

>  <name>  (12) 
11

>  <ligand_id>  (12) 
11

>  <original_smiles>  (12) 
[H]c1c([H])c([H])c2c(c1[H])C([H])([H])C([H])([H])C([H])([H])C2([H])N([H])C(=O)C1([H])N(C(=O)C([H])(N([H])C(=O)C([H])(N([H])C([H])([H])[H])C([H])([H])[H])C(C([H])([H])[H])(C([H])([H])[H])C([H])([H])[H])C([H])([H])c2c([H])c(OC([H])([H])C([H])([H])C([H])([H])C([H])([H])N([H])C(=O)C3(C([H])([H])N([H])C(=O)N4C([H])([H])C([H])([H])C([H])([H])C([H])(n5nc(-c6c([H])c([H])c(Oc7c([H])c([H])c(F)c([H])c7F)c([H])c6[H])c(C(=O)N([H])[H])c5N([H])[H])C4([H])[H])C([H])([H])C([H])([H])C3([H])C(=O)C([H])([H])[H])c([H])c([H])c2C1([H])[H]

>  <smiles>  (12) 
[H]c1c([H])c([H])c2c(c1[H])C([H])([H])C([H])([H])C([H])([H])C2([H])N([H])C(=O)C1([H])N(C(=O)C([H])(N([H])C(=O)C([H])(N([H])C([H])([H])[H])C([H])([H])[H])C(C([H])([H])[H])(C([H])([H])[H])C([H])([H])[H])C([H])([H])c2c([H])c(OC([H])([H])C([H])([H])C([H])([H])C([H])([H])N([H])C(=O)C3(C([H])([H])N([H])C(=O)N4C([H])([H])C([H])([H])C([H])([H])C([H])(n5nc(-c6c([H])c([H])c(Oc7c([H])c([H])c(F)c([H])c7F)c([H])c6[H])c(C(=O)N([H])[H])c5N([H])[H])C4([H])[H])C([H])([H])C([H])([H])C3([H])C(=O)C([H])([H])[H])c([H])c([H])c2C1([H])[H]

$$$$
12:0:0
     RDKit          3D

 92100  0  0  1  0  0  0  0  0999 V2000
  -26.4980  -23.1450   20.6560 C   0  0  0  0  0  2  0  0  0  0  0  0
  -27.0750  -21.7850   21.0310 C   0  0  0  0  0  2  0  0  0  0  0  0
  -28.8660  -23.0090   20.0440 C   0  0  0  0  0  2  0  0  0  0  0  0
  -27.7130  -24.0300   20.3120 C   0  0  0  0  0  3  0  0  0  0  0  0
  -28.2290  -21.5930   20.0410 C   0  0  0  0  0  3  0  0  0  0  0  0
  -27.9730  -25.0800   21.4350 C   0  0  0  0  0  2  0  0  0  0  0  0
  -28.8640  -26.2960   21.0780 C   0  0  0  0  0  2  0  0  0  0  0  0
  -28.4480  -27.0190   19.9120 O   0  0  0  0  0  0  0  0  0  0  0  0
  -24.6910  -31.9630   23.4580 C   0  0  0  0  0  0  0  0  0  0  0  0
  -27.3050  -27.7710   20.0370 C   0  0  0  0  0  0  0  0  0  0  0  0
  -23.4700  -30.6870   21.7250 C   0  0  0  0  0  3  0  0  0  0  0  0
  -24.9130  -29.2650   20.1760 C   0  0  0  0  0  0  0  0  0  0  0  0
  -25.9920  -31.0660   21.5310 C   0  0  0  0  0  2  0  0  0  0  0  0
  -26.0740  -29.7420   20.8000 C   0  0  0  0  0  0  0  0  0  0  0  0
  -27.2750  -28.9990   20.7390 C   0  0  0  0  0  3  0  0  0  0  0  0
  -26.1350  -27.3110   19.4020 C   0  0  0  0  0  3  0  0  0  0  0  0
  -24.9370  -28.0460   19.4760 C   0  0  0  0  0  3  0  0  0  0  0  0
  -23.6670  -30.1130   20.2960 C   0  0  0  0  0  2  0  0  0  0  0  0
  -24.7370  -31.2500   22.2970 N   0  0  0  0  0  0  0  0  0  0  0  0
  -23.6160  -32.1890   24.0280 O   0  0  0  0  0  0  0  0  0  0  0  0
  -22.8290  -29.5940   22.6120 C   0  0  0  0  0  0  0  0  0  0  0  0
  -21.5090  -29.3980   22.4600 N   0  0  0  0  0  0  0  0  0  0  0  0
  -23.5170  -28.9280   23.3910 O   0  0  0  0  0  0  0  0  0  0  0  0
  -21.0140  -29.9830   21.8030 H   0  0  0  0  0  0  0  0  0  0  0  0
  -18.1600  -28.0880   22.8110 C   0  0  0  0  0  0  0  0  0  0  0  0
  -20.7020  -28.4000   23.1620 C   0  0  0  0  0  3  0  0  0  0  0  0
  -20.8610  -27.0050   22.5140 C   0  0  0  0  0  2  0  0  0  0  0  0
  -19.7940  -26.7080   21.4560 C   0  0  0  0  0  2  0  0  0  0  0  0
  -18.3920  -26.7840   22.0690 C   0  0  0  0  0  2  0  0  0  0  0  0
  -19.2460  -28.8570   23.3090 C   0  0  0  0  0  0  0  0  0  0  0  0
  -18.9790  -30.0820   23.9570 C   0  0  0  0  0  3  0  0  0  0  0  0
  -17.6580  -30.5410   24.1160 C   0  0  0  0  0  3  0  0  0  0  0  0
  -16.5840  -29.7700   23.6350 C   0  0  0  0  0  3  0  0  0  0  0  0
  -16.8370  -28.5460   22.9900 C   0  0  0  0  0  3  0  0  0  0  0  0
  -25.9830  -32.5450   24.1120 C   0  0  0  0  0  3  0  0  0  0  0  0
  -25.6900  -33.9280   24.5140 N   0  0  0  0  0  0  0  0  0  0  0  0
  -26.0460  -35.0140   23.8140 C   0  0  0  0  0  0  0  0  0  0  0  0
  -26.7260  -34.9560   22.7860 O   0  0  0  0  0  0  0  0  0  0  0  0
  -25.0930  -34.0490   25.3190 H   0  0  0  0  0  0  0  0  0  0  0  0
  -24.3450  -36.8430   23.5350 C   0  0  0  0  0  1  0  0  0  0  0  0
  -25.5720  -36.3820   24.3380 C   0  0  0  0  0  3  0  0  0  0  0  0
  -27.7120  -37.1890   25.2310 C   0  0  0  0  0  1  0  0  0  0  0  0
  -26.6200  -37.4250   24.2910 N   0  0  0  0  0  0  0  0  0  0  0  0
  -26.2250  -38.3400   24.4900 H   0  0  0  0  0  0  0  0  0  0  0  0
  -26.4910  -31.7010   25.3430 C   0  0  1  0  0  0  0  0  0  0  0  0
  -25.3940  -31.4160   26.3940 C   0  0  0  0  0  1  0  0  0  0  0  0
  -27.0610  -30.3430   24.8710 C   0  0  0  0  0  1  0  0  0  0  0  0
  -27.6500  -32.4450   26.0470 C   0  0  0  0  0  1  0  0  0  0  0  0
  -29.1840  -20.3680   20.3140 C   0  0  0  0  0  3  0  0  0  0  0  0
  -29.2500  -17.8830   21.1930 C   0  0  0  0  0  1  0  0  0  0  0  0
  -28.4410  -19.1770   20.9890 C   0  0  0  0  0  2  0  0  0  0  0  0
  -29.9130  -19.8640   19.0410 C   0  0  0  0  0  0  0  0  0  0  0  0
  -29.3640  -19.8800   17.9360 O   0  0  0  0  0  0  0  0  0  0  0  0
  -31.3370  -19.3000   19.2060 C   0  0  0  0  0  2  0  0  0  0  0  0
  -31.5780  -17.8400   18.7260 C   0  0  0  0  0  2  0  0  0  0  0  0
  -31.0550  -16.6880   19.6450 C   0  0  0  0  0  2  0  0  0  0  0  0
  -31.7480  -15.3250   19.3780 C   0  0  0  0  0  0  0  0  0  0  0  0
  -31.4950  -12.9030   18.9630 C   0  0  0  0  0  2  0  0  0  0  0  0
  -30.5450  -12.6960   17.7660 C   0  0  0  0  0  2  0  0  0  0  0  0
  -29.0780  -12.6620   18.2370 C   0  0  0  0  0  2  0  0  0  0  0  0
  -28.7220  -13.8490   19.1720 C   0  0  0  0  0  3  0  0  0  0  0  0
  -29.7870  -14.0310   20.2750 C   0  0  0  0  0  2  0  0  0  0  0  0
  -31.1010  -14.1550   19.6290 N   0  0  0  0  0  0  0  0  0  0  0  0
  -32.8570  -15.3430   18.8350 O   0  0  0  0  0  0  0  0  0  0  0  0
  -26.4450  -14.6840   20.0400 C   0  0  0  0  0  0  0  0  0  0  0  0
  -25.3280  -14.0160   20.4640 C   0  0  0  0  0  0  0  0  0  0  0  0
  -25.6440  -12.6250   20.3850 C   0  0  0  0  0  0  0  0  0  0  0  0
  -27.3790  -13.7040   19.7320 N   0  0  0  0  0  0  0  0  0  0  0  0
  -26.9030  -12.4610   19.9970 N   0  0  0  0  0  0  0  0  0  0  0  0
  -24.8030  -11.4400   20.6030 C   0  0  0  0  0  0  0  0  0  0  0  0
  -25.1580  -10.4450   21.5390 C   0  0  0  0  0  3  0  0  0  0  0  0
  -24.3240   -9.3240   21.7440 C   0  0  0  0  0  3  0  0  0  0  0  0
  -23.1200   -9.1920   21.0120 C   0  0  0  0  0  0  0  0  0  0  0  0
  -22.7820  -10.1760   20.0650 C   0  0  0  0  0  3  0  0  0  0  0  0
  -23.6160  -11.2880   19.8590 C   0  0  0  0  0  3  0  0  0  0  0  0
  -22.2610   -8.1260   21.1260 O   0  0  0  0  0  0  0  0  0  0  0  0
  -22.1150   -7.4420   22.3070 C   0  0  0  0  0  0  0  0  0  0  0  0
  -21.7370   -8.0890   23.5030 C   0  0  0  0  0  3  0  0  0  0  0  0
  -21.5310   -7.3380   24.6770 C   0  0  0  0  0  3  0  0  0  0  0  0
  -21.6940   -5.9400   24.6550 C   0  0  0  0  0  0  0  0  0  0  0  0
  -22.0660   -5.2920   23.4640 C   0  0  0  0  0  3  0  0  0  0  0  0
  -22.2730   -6.0420   22.2920 C   0  0  0  0  0  0  0  0  0  0  0  0
  -22.6100   -5.4090   21.1420 F   0  0  0  0  0  0  0  0  0  0  0  0
  -21.4890   -5.2160   25.7800 F   0  0  0  0  0  0  0  0  0  0  0  0
  -24.0060  -14.6290   20.8300 C   0  0  0  0  0  0  0  0  0  0  0  0
  -23.2760  -14.0090   21.7500 N   0  0  0  0  0  0  0  0  0  0  0  0
  -23.6340  -15.6910   20.3330 O   0  0  0  0  0  0  0  0  0  0  0  0
  -23.5900  -13.1490   22.1740 H   0  0  0  0  0  0  0  0  0  0  0  0
  -22.3900  -14.4010   22.0360 H   0  0  0  0  0  0  0  0  0  0  0  0
  -26.7390  -16.0330   19.8720 N   0  0  0  0  0  0  0  0  0  0  0  0
  -26.0510  -16.7590   20.0440 H   0  0  0  0  0  0  0  0  0  0  0  0
  -27.6140  -16.3930   19.5130 H   0  0  0  0  0  0  0  0  0  0  0  0
  1  2  1  0
  3  4  1  0
  4  1  1  0
  4  6  1  0
  5  3  1  0
  5 49  1  0
  5  2  1  0
  7  6  1  0
  8 10  1  0
  8  7  1  0
  9 20  2  0
 10 15  1  0
 11 19  1  0
 11 21  1  0
 12 18  1  0
 12 14  1  0
 13 19  1  0
 14 13  1  0
 15 14  2  0
 16 17  1  0
 16 10  2  0
 17 12  2  0
 18 11  1  0
 19  9  1  0
 21 23  2  0
 22 21  1  0
 24 22  1  0
 25 34  2  0
 25 30  1  0
 26 22  1  0
 26 30  1  0
 27 26  1  0
 28 29  1  0
 28 27  1  0
 29 25  1  0
 30 31  2  0
 31 32  1  0
 33 32  2  0
 34 33  1  0
 35  9  1  0
 35 36  1  0
 35 45  1  0
 36 39  1  0
 37 41  1  0
 37 36  1  0
 38 37  2  0
 41 40  1  0
 43 41  1  0
 43 44  1  0
 43 42  1  0
 45 48  1  1
 45 46  1  0
 47 45  1  0
 49 51  1  0
 51 50  1  0
 52 54  1  0
 52 49  1  0
 53 52  2  0
 55 54  1  0
 55 56  1  0
 57 63  1  0
 57 56  1  0
 58 63  1  0
 59 60  1  0
 59 58  1  0
 61 60  1  0
 61 68  1  0
 61 62  1  0
 63 62  1  0
 64 57  2  0
 65 66  2  0
 66 85  1  0
 67 66  1  0
 67 70  1  0
 68 69  1  0
 68 65  1  0
 69 67  2  0
 70 71  1  0
 71 72  2  0
 73 76  1  0
 73 72  1  0
 74 73  2  0
 75 74  1  0
 75 70  2  0
 76 77  1  0
 77 78  1  0
 78 79  2  0
 80 79  1  0
 80 84  1  0
 81 80  2  0
 82 77  2  0
 82 81  1  0
 83 82  1  0
 85 86  1  0
 86 89  1  0
 86 88  1  0
 87 85  2  0
 90 65  1  0
 90 91  1  0
 92 90  1  0
M  ISO  4   7 101   8 101  56 100  57 100
M  END
>  <TORSDO>  (13) 
F 24

>  <SCORE>  (13) 
-9.775

>  <name>  (13) 
12

>  <ligand_id>  (13) 
12

>  <original_smiles>  (13) 
[H]c1c([H])c([H])c2c(c1[H])C([H])([H])C([H])([H])C([H])([H])C2([H])N([H])C(=O)C1([H])N(C(=O)C([H])(N([H])C(=O)C([H])(N([H])C([H])([H])[H])C([H])([H])[H])C(C([H])([H])[H])(C([H])([H])[H])C([H])([H])[H])C([H])([H])c2c([H])c(OC([H])([H])C([H])([H])C3([H])C([H])([H])C([H])([H])C([H])(C([H])(C(=O)C([H])([H])C([H])([H])C([H])([H])C(=O)N4C([H])([H])C([H])([H])C([H])([H])C([H])(n5nc(-c6c([H])c([H])c(Oc7c([H])c([H])c(F)c([H])c7F)c([H])c6[H])c(C(=O)N([H])[H])c5N([H])[H])C4([H])[H])C([H])([H])C([H])([H])[H])C3([H])[H])c([H])c([H])c2C1([H])[H]

>  <smiles>  (13) 
[H]c1c([H])c([H])c2c(c1[H])C([H])([H])C([H])([H])C([H])([H])C2([H])N([H])C(=O)C1([H])N(C(=O)C([H])(N([H])C(=O)C([H])(N([H])C([H])([H])[H])C([H])([H])[H])C(C([H])([H])[H])(C([H])([H])[H])C([H])([H])[H])C([H])([H])c2c([H])c(OC([H])([H])C([H])([H])C3([H])C([H])([H])C([H])([H])C([H])(C([H])(C(=O)C([H])([H])C([H])([H])C([H])([H])C(=O)N4C([H])([H])C([H])([H])C([H])([H])C([H])(n5nc(-c6c([H])c([H])c(Oc7c([H])c([H])c(F)c([H])c7F)c([H])c6[H])c(C(=O)N([H])[H])c5N([H])[H])C4([H])[H])C([H])([H])C([H])([H])[H])C3([H])[H])c([H])c([H])c2C1([H])[H]

$$$$
13:0:0
     RDKit          3D

 95103  0  0  1  0  0  0  0  0999 V2000
  -29.7570  -20.0550   20.5420 C   0  0  0  0  0  3  0  0  0  0  0  0
  -28.7530  -21.2010   20.6840 N   0  0  0  0  0  4  0  0  0  0  0  0
  -27.8510  -20.8880   20.3640 H   0  0  0  0  0  0  0  0  0  0  0  0
  -28.6890  -21.3410   21.6830 H   0  0  0  0  0  0  0  0  0  0  0  0
  -29.0600  -22.5530   20.0250 C   0  0  0  0  0  3  0  0  0  0  0  0
  -28.2770  -23.8820   20.5100 C   0  0  0  0  0  3  0  0  0  0  0  0
  -28.4670  -25.2250   19.6470 C   0  0  0  0  0  2  0  0  0  0  0  0
  -28.3440  -26.5890   20.2260 O   0  0  0  0  0  0  0  0  0  0  0  0
  -24.5950  -31.9470   23.2390 C   0  0  0  0  0  0  0  0  0  0  0  0
  -27.1950  -27.3940   20.1570 C   0  0  0  0  0  0  0  0  0  0  0  0
  -23.3820  -30.5470   21.6040 C   0  0  0  0  0  3  0  0  0  0  0  0
  -24.8230  -28.9980   20.1640 C   0  0  0  0  0  0  0  0  0  0  0  0
  -25.9150  -30.8750   21.3960 C   0  0  0  0  0  2  0  0  0  0  0  0
  -25.9930  -29.4950   20.7510 C   0  0  0  0  0  0  0  0  0  0  0  0
  -27.1780  -28.7020   20.7380 C   0  0  0  0  0  3  0  0  0  0  0  0
  -26.0010  -26.9440   19.5540 C   0  0  0  0  0  3  0  0  0  0  0  0
  -24.8300  -27.7310   19.5560 C   0  0  0  0  0  3  0  0  0  0  0  0
  -23.5850  -29.8700   20.2220 C   0  0  0  0  0  2  0  0  0  0  0  0
  -24.6510  -31.1420   22.1370 N   0  0  0  0  0  0  0  0  0  0  0  0
  -23.5160  -32.2200   23.7840 O   0  0  0  0  0  0  0  0  0  0  0  0
  -22.7290  -29.5300   22.5700 C   0  0  0  0  0  0  0  0  0  0  0  0
  -21.4020  -29.3470   22.4510 N   0  0  0  0  0  0  0  0  0  0  0  0
  -23.4140  -28.9100   23.3870 O   0  0  0  0  0  0  0  0  0  0  0  0
  -20.9080  -29.9030   21.7680 H   0  0  0  0  0  0  0  0  0  0  0  0
  -18.0370  -28.1200   22.9520 C   0  0  0  0  0  0  0  0  0  0  0  0
  -20.5920  -28.4040   23.2240 C   0  0  0  0  0  3  0  0  0  0  0  0
  -20.7080  -26.9710   22.6560 C   0  0  0  0  0  2  0  0  0  0  0  0
  -19.6100  -26.6340   21.6410 C   0  0  0  0  0  2  0  0  0  0  0  0
  -18.2270  -26.7690   22.2820 C   0  0  0  0  0  2  0  0  0  0  0  0
  -19.1490  -28.8930   23.3810 C   0  0  0  0  0  0  0  0  0  0  0  0
  -18.9160  -30.1560   23.9680 C   0  0  0  0  0  3  0  0  0  0  0  0
  -17.6060  -30.6460   24.1290 C   0  0  0  0  0  3  0  0  0  0  0  0
  -16.5100  -29.8700   23.7160 C   0  0  0  0  0  3  0  0  0  0  0  0
  -16.7260  -28.6080   23.1340 C   0  0  0  0  0  3  0  0  0  0  0  0
  -25.8810  -32.5820   23.8550 C   0  0  0  0  0  3  0  0  0  0  0  0
  -25.5730  -33.9800   24.1850 N   0  0  0  0  0  0  0  0  0  0  0  0
  -25.9070  -35.0350   23.4270 C   0  0  0  0  0  0  0  0  0  0  0  0
  -26.5740  -34.9300   22.3940 O   0  0  0  0  0  0  0  0  0  0  0  0
  -24.9770  -34.1340   24.9840 H   0  0  0  0  0  0  0  0  0  0  0  0
  -24.1820  -36.8330   23.0790 C   0  0  0  0  0  1  0  0  0  0  0  0
  -25.4240  -36.4240   23.8860 C   0  0  0  0  0  3  0  0  0  0  0  0
  -27.5640  -37.3030   24.7110 C   0  0  0  0  0  1  0  0  0  0  0  0
  -26.4590  -37.4740   23.7720 N   0  0  0  0  0  0  0  0  0  0  0  0
  -26.0560  -38.3950   23.9210 H   0  0  0  0  0  0  0  0  0  0  0  0
  -26.4010  -31.8130   25.1310 C   0  0  1  0  0  0  0  0  0  0  0  0
  -25.3140  -31.5830   26.2060 C   0  0  0  0  0  1  0  0  0  0  0  0
  -26.9780  -30.4330   24.7370 C   0  0  0  0  0  1  0  0  0  0  0  0
  -27.5570  -32.6060   25.7860 C   0  0  0  0  0  1  0  0  0  0  0  0
  -30.7470  -20.2970   21.6960 C   0  0  0  0  0  0  0  0  0  0  0  0
  -30.3680  -20.1790   22.8660 O   0  0  0  0  0  0  0  0  0  0  0  0
  -34.0270  -19.3250   20.7130 C   0  0  0  0  0  2  0  0  0  0  0  0
  -34.4630  -20.0550   21.9760 C   0  0  0  0  0  2  0  0  0  0  0  0
  -32.8830  -20.1840   20.1700 C   0  0  0  0  0  2  0  0  0  0  0  0
  -33.1620  -20.5950   22.5780 C   0  0  0  0  0  2  0  0  0  0  0  0
  -32.1770  -20.8100   21.3980 C   0  0  0  0  0  3  0  0  0  0  0  0
  -29.2180  -18.5270   20.6410 C   0  0  0  0  0  3  0  0  0  0  0  0
  -30.2910  -17.3230   20.6550 C   0  0  0  0  0  3  0  0  0  0  0  0
  -30.6130  -14.7700   20.4270 C   0  0  0  0  0  0  0  0  0  0  0  0
  -30.4050  -12.5230   19.3820 C   0  0  0  0  0  2  0  0  0  0  0  0
  -29.4790  -12.6370   18.1520 C   0  0  0  0  0  2  0  0  0  0  0  0
  -28.0040  -12.4700   18.5680 C   0  0  0  0  0  2  0  0  0  0  0  0
  -27.6290  -13.3420   19.7970 C   0  0  0  0  0  3  0  0  0  0  0  0
  -28.6760  -13.2220   20.9260 C   0  0  0  0  0  2  0  0  0  0  0  0
  -29.9830  -13.5560   20.3490 N   0  0  0  0  0  0  0  0  0  0  0  0
  -31.7880  -14.8950   20.0700 O   0  0  0  0  0  0  0  0  0  0  0  0
  -29.8450  -15.8770   20.7100 N   0  0  0  0  0  0  0  0  0  0  0  0
  -28.8900  -15.6950   20.9790 H   0  0  0  0  0  0  0  0  0  0  0  0
  -25.2420  -13.9330   20.5300 C   0  0  0  0  0  0  0  0  0  0  0  0
  -24.1760  -13.1570   20.8940 C   0  0  0  0  0  0  0  0  0  0  0  0
  -24.6370  -11.8050   20.8440 C   0  0  0  0  0  0  0  0  0  0  0  0
  -26.2830  -13.0540   20.2800 N   0  0  0  0  0  0  0  0  0  0  0  0
  -25.9260  -11.7690   20.5320 N   0  0  0  0  0  0  0  0  0  0  0  0
  -23.9100  -10.5410   21.0170 C   0  0  0  0  0  0  0  0  0  0  0  0
  -24.3470   -9.5560   21.9290 C   0  0  0  0  0  3  0  0  0  0  0  0
  -23.6220   -8.3570   22.0900 C   0  0  0  0  0  3  0  0  0  0  0  0
  -22.4430   -8.1340   21.3390 C   0  0  0  0  0  0  0  0  0  0  0  0
  -22.0250   -9.1070   20.4130 C   0  0  0  0  0  3  0  0  0  0  0  0
  -22.7520  -10.2980   20.2510 C   0  0  0  0  0  3  0  0  0  0  0  0
  -21.6870   -6.9900   21.4120 O   0  0  0  0  0  0  0  0  0  0  0  0
  -21.6380   -6.2300   22.5540 C   0  0  0  0  0  0  0  0  0  0  0  0
  -21.2270   -6.7700   23.7930 C   0  0  0  0  0  3  0  0  0  0  0  0
  -21.1260   -5.9380   24.9250 C   0  0  0  0  0  3  0  0  0  0  0  0
  -21.4250   -4.5660   24.8200 C   0  0  0  0  0  0  0  0  0  0  0  0
  -21.8280   -4.0250   23.5860 C   0  0  0  0  0  3  0  0  0  0  0  0
  -21.9310   -4.8550   22.4560 C   0  0  0  0  0  0  0  0  0  0  0  0
  -22.3000   -4.3260   21.2650 F   0  0  0  0  0  0  0  0  0  0  0  0
  -21.3200   -3.7640   25.9050 F   0  0  0  0  0  0  0  0  0  0  0  0
  -22.7800  -13.6320   21.1720 C   0  0  0  0  0  0  0  0  0  0  0  0
  -22.0520  -12.9260   22.0310 N   0  0  0  0  0  0  0  0  0  0  0  0
  -22.3420  -14.6620   20.6620 O   0  0  0  0  0  0  0  0  0  0  0  0
  -22.4220  -12.0960   22.4690 H   0  0  0  0  0  0  0  0  0  0  0  0
  -21.1110  -13.2210   22.2540 H   0  0  0  0  0  0  0  0  0  0  0  0
  -25.4110  -15.3060   20.3680 N   0  0  0  0  0  0  0  0  0  0  0  0
  -24.6390  -15.9580   20.4620 H   0  0  0  0  0  0  0  0  0  0  0  0
  -26.2520  -15.7390   20.0090 H   0  0  0  0  0  0  0  0  0  0  0  0
  1 56  1  0
  1  2  1  0
  1 49  1  0
  2  4  1  0
  3  2  1  0
  5  6  2  0
  5  2  1  0
  7  8  1  0
  7  6  1  0
  9 20  2  0
 10  8  1  0
 10 15  1  0
 11 19  1  0
 11 21  1  0
 12 18  1  0
 12 14  1  0
 13 19  1  0
 14 13  1  0
 15 14  2  0
 16 17  1  0
 16 10  2  0
 17 12  2  0
 18 11  1  0
 19  9  1  0
 21 23  2  0
 22 21  1  0
 24 22  1  0
 25 34  2  0
 25 30  1  0
 26 22  1  0
 26 30  1  0
 27 26  1  0
 28 29  1  0
 28 27  1  0
 29 25  1  0
 30 31  2  0
 31 32  1  0
 33 32  2  0
 34 33  1  0
 35  9  1  0
 35 36  1  0
 35 45  1  0
 36 39  1  0
 37 41  1  0
 37 36  1  0
 38 37  2  0
 41 40  1  0
 43 41  1  0
 43 44  1  0
 43 42  1  0
 45 48  1  1
 45 46  1  0
 47 45  1  0
 49 50  2  0
 51 52  1  0
 52 54  1  0
 53 51  1  0
 53 55  1  0
 55 49  1  0
 55 54  1  0
 56 57  2  0
 57 66  1  0
 58 66  1  0
 59 64  1  0
 60 61  1  0
 60 59  1  0
 62 61  1  0
 62 71  1  0
 62 63  1  0
 64 58  1  0
 64 63  1  0
 65 58  2  0
 66 67  1  0
 68 69  2  0
 69 88  1  0
 70 69  1  0
 70 73  1  0
 71 68  1  0
 71 72  1  0
 72 70  2  0
 73 74  1  0
 74 75  2  0
 76 79  1  0
 76 75  1  0
 77 76  2  0
 78 77  1  0
 78 73  2  0
 79 80  1  0
 80 81  1  0
 81 82  2  0
 83 82  1  0
 83 87  1  0
 84 83  2  0
 85 80  2  0
 85 84  1  0
 86 85  1  0
 88 89  1  0
 89 92  1  0
 89 91  1  0
 90 88  2  0
 93 94  1  0
 93 68  1  0
 95 93  1  0
M  ISO  4   7 101   8 101  58 100  66 100
M  END
>  <TORSDO>  (14) 
F 24

>  <SCORE>  (14) 
-12.760

>  <name>  (14) 
13

>  <ligand_id>  (14) 
13

>  <original_smiles>  (14) 
[H]c1c([H])c([H])c2c(c1[H])C([H])([H])C([H])([H])C([H])([H])C2([H])N([H])C(=O)C1([H])N(C(=O)C([H])(N([H])C(=O)C([H])(N([H])C([H])([H])[H])C([H])([H])[H])C(C([H])([H])[H])(C([H])([H])[H])C([H])([H])[H])C([H])([H])c2c([H])c(OC([H])([H])C([H])([H])C([H])([H])[N+]([H])([H])C([H])(C(=O)C3([H])C([H])([H])C([H])([H])C([H])([H])C3([H])[H])C([H])([H])C([H])([H])N([H])C(=O)N3C([H])([H])C([H])([H])C([H])([H])C([H])(n4nc(-c5c([H])c([H])c(Oc6c([H])c([H])c(F)c([H])c6F)c([H])c5[H])c(C(=O)N([H])[H])c4N([H])[H])C3([H])[H])c([H])c([H])c2C1([H])[H]

>  <smiles>  (14) 
[H]c1c([H])c([H])c2c(c1[H])C([H])([H])C([H])([H])C([H])([H])C2([H])N([H])C(=O)C1([H])N(C(=O)C([H])(N([H])C(=O)C([H])(N([H])C([H])([H])[H])C([H])([H])[H])C(C([H])([H])[H])(C([H])([H])[H])C([H])([H])[H])C([H])([H])c2c([H])c(OC([H])([H])C([H])([H])C([H])([H])[N+]([H])([H])C([H])(C(=O)C3([H])C([H])([H])C([H])([H])C([H])([H])C3([H])[H])C([H])([H])C([H])([H])N([H])C(=O)N3C([H])([H])C([H])([H])C([H])([H])C([H])(n4nc(-c5c([H])c([H])c(Oc6c([H])c([H])c(F)c([H])c6F)c([H])c5[H])c(C(=O)N([H])[H])c4N([H])[H])C3([H])[H])c([H])c([H])c2C1([H])[H]

$$$$
14:0:0
     RDKit          3D

 98106  0  0  1  0  0  0  0  0999 V2000
  -29.0240  -19.0610   19.5050 C   0  0  0  0  0  2  0  0  0  0  0  0
  -28.8170  -20.6120   19.3370 C   0  0  0  0  0  2  0  0  0  0  0  0
  -30.8360  -19.8530   21.0510 C   0  0  0  0  0  2  0  0  0  0  0  0
  -29.9980  -18.5940   20.6440 C   0  0  0  0  0  3  0  0  0  0  0  0
  -28.7210  -21.3730   20.6830 C   0  0  0  0  0  3  0  0  0  0  0  0
  -30.0230  -21.1170   21.5300 C   0  0  0  0  0  3  0  0  0  0  0  0
  -31.1880  -14.9140   20.0340 C   0  0  0  0  0  0  0  0  0  0  0  0
  -30.8120  -12.7150   18.9540 C   0  0  0  0  0  2  0  0  0  0  0  0
  -29.8280  -12.8950   17.7800 C   0  0  0  0  0  2  0  0  0  0  0  0
  -28.3740  -12.7630   18.2720 C   0  0  0  0  0  2  0  0  0  0  0  0
  -28.0940  -13.6000   19.5510 C   0  0  0  0  0  3  0  0  0  0  0  0
  -29.2030  -13.4370   20.6140 C   0  0  0  0  0  2  0  0  0  0  0  0
  -30.4860  -13.7370   19.9700 N   0  0  0  0  0  0  0  0  0  0  0  0
  -32.3520  -14.9400   19.6260 O   0  0  0  0  0  0  0  0  0  0  0  0
  -30.9120  -17.3690   20.2290 C   0  0  0  0  0  0  0  0  0  0  0  0
  -30.5000  -16.0590   20.3660 N   0  0  0  0  0  0  0  0  0  0  0  0
  -32.0170  -17.6680   19.7660 O   0  0  0  0  0  0  0  0  0  0  0  0
  -29.5610  -15.9260   20.7020 H   0  0  0  0  0  0  0  0  0  0  0  0
  -25.7740  -14.2090   20.4610 C   0  0  0  0  0  0  0  0  0  0  0  0
  -24.7050  -13.4420   20.8380 C   0  0  0  0  0  0  0  0  0  0  0  0
  -25.1190  -12.0830   20.6850 C   0  0  0  0  0  0  0  0  0  0  0  0
  -26.7710  -13.3180   20.1010 N   0  0  0  0  0  0  0  0  0  0  0  0
  -26.3870  -12.0290   20.2980 N   0  0  0  0  0  0  0  0  0  0  0  0
  -24.3610  -10.8320   20.8260 C   0  0  0  0  0  0  0  0  0  0  0  0
  -24.7540   -9.8310   21.7420 C   0  0  0  0  0  3  0  0  0  0  0  0
  -23.9990   -8.6460   21.8740 C   0  0  0  0  0  3  0  0  0  0  0  0
  -22.8370   -8.4530   21.0910 C   0  0  0  0  0  0  0  0  0  0  0  0
  -22.4640   -9.4430   20.1640 C   0  0  0  0  0  3  0  0  0  0  0  0
  -23.2180  -10.6190   20.0290 C   0  0  0  0  0  3  0  0  0  0  0  0
  -22.0550   -7.3230   21.1330 O   0  0  0  0  0  0  0  0  0  0  0  0
  -21.8840   -6.6090   22.2920 C   0  0  0  0  0  0  0  0  0  0  0  0
  -21.3590   -7.2010   23.4630 C   0  0  0  0  0  3  0  0  0  0  0  0
  -21.1340   -6.4160   24.6100 C   0  0  0  0  0  3  0  0  0  0  0  0
  -21.4250   -5.0390   24.5890 C   0  0  0  0  0  0  0  0  0  0  0  0
  -21.9420   -4.4460   23.4230 C   0  0  0  0  0  3  0  0  0  0  0  0
  -22.1690   -5.2290   22.2780 C   0  0  0  0  0  0  0  0  0  0  0  0
  -22.6470   -4.6490   21.1510 F   0  0  0  0  0  0  0  0  0  0  0  0
  -21.2020   -4.2800   25.6870 F   0  0  0  0  0  0  0  0  0  0  0  0
  -23.3430  -13.9400   21.2230 C   0  0  0  0  0  0  0  0  0  0  0  0
  -22.6470  -13.2150   22.0910 N   0  0  0  0  0  0  0  0  0  0  0  0
  -22.9040  -15.0040   20.7870 O   0  0  0  0  0  0  0  0  0  0  0  0
  -23.0170  -12.3530   22.4670 H   0  0  0  0  0  0  0  0  0  0  0  0
  -21.7300  -13.5220   22.3850 H   0  0  0  0  0  0  0  0  0  0  0  0
  -25.9750  -15.5830   20.3690 N   0  0  0  0  0  0  0  0  0  0  0  0
  -25.2270  -16.2450   20.5480 H   0  0  0  0  0  0  0  0  0  0  0  0
  -26.7970  -16.0140   19.9650 H   0  0  0  0  0  0  0  0  0  0  0  0
  -29.7410  -20.9710   23.0540 C   0  0  0  0  0  2  0  0  0  0  0  0
  -29.5470  -22.2480   23.7630 N   0  0  0  0  0  4  0  0  0  0  0  0
  -30.3460  -22.8490   23.6500 H   0  0  0  0  0  0  0  0  0  0  0  0
  -29.4370  -22.0720   24.7460 H   0  0  0  0  0  0  0  0  0  0  0  0
  -28.7180  -22.7180   23.4490 H   0  0  0  0  0  0  0  0  0  0  0  0
  -28.0600  -22.8540   20.6870 C   0  0  0  0  0  3  0  0  0  0  0  0
  -28.6770  -24.0830   19.8990 C   0  0  0  0  0  0  0  0  0  0  0  0
  -29.2660  -23.9130   18.8270 O   0  0  0  0  0  0  0  0  0  0  0  0
  -28.5210  -25.5330   20.5090 C   0  0  0  0  0  2  0  0  0  0  0  0
  -28.5140  -26.6710   19.5770 O   0  0  0  0  0  0  0  0  0  0  0  0
  -24.6720  -31.7110   23.0000 C   0  0  0  0  0  0  0  0  0  0  0  0
  -27.3760  -27.4710   19.6290 C   0  0  0  0  0  0  0  0  0  0  0  0
  -23.4770  -30.3650   21.3050 C   0  0  0  0  0  3  0  0  0  0  0  0
  -24.9490  -28.9560   19.7600 C   0  0  0  0  0  0  0  0  0  0  0  0
  -25.9920  -30.8000   21.0810 C   0  0  0  0  0  2  0  0  0  0  0  0
  -26.1080  -29.4640   20.3610 C   0  0  0  0  0  0  0  0  0  0  0  0
  -27.3250  -28.7310   20.2920 C   0  0  0  0  0  3  0  0  0  0  0  0
  -26.2050  -27.0120   18.9950 C   0  0  0  0  0  3  0  0  0  0  0  0
  -24.9950  -27.7300   19.0730 C   0  0  0  0  0  3  0  0  0  0  0  0
  -23.6800  -29.7730   19.8840 C   0  0  0  0  0  2  0  0  0  0  0  0
  -24.7330  -30.9720   21.8530 N   0  0  0  0  0  0  0  0  0  0  0  0
  -23.5950  -31.9130   23.5760 O   0  0  0  0  0  0  0  0  0  0  0  0
  -22.8780  -29.2700   22.2190 C   0  0  0  0  0  0  0  0  0  0  0  0
  -21.5540  -29.0670   22.1300 N   0  0  0  0  0  0  0  0  0  0  0  0
  -23.6040  -28.6120   22.9690 O   0  0  0  0  0  0  0  0  0  0  0  0
  -21.0250  -29.6570   21.5020 H   0  0  0  0  0  0  0  0  0  0  0  0
  -18.2300  -27.7490   22.6550 C   0  0  0  0  0  0  0  0  0  0  0  0
  -20.7870  -28.0610   22.8650 C   0  0  0  0  0  3  0  0  0  0  0  0
  -20.9080  -26.6700   22.1990 C   0  0  0  0  0  2  0  0  0  0  0  0
  -19.7840  -26.3790   21.2010 C   0  0  0  0  0  2  0  0  0  0  0  0
  -18.4190  -26.4470   21.8940 C   0  0  0  0  0  2  0  0  0  0  0  0
  -19.3400  -28.5140   23.0970 C   0  0  0  0  0  0  0  0  0  0  0  0
  -19.1060  -29.7340   23.7700 C   0  0  0  0  0  3  0  0  0  0  0  0
  -17.7940  -30.1850   24.0060 C   0  0  0  0  0  3  0  0  0  0  0  0
  -16.6980  -29.4160   23.5780 C   0  0  0  0  0  3  0  0  0  0  0  0
  -16.9170  -28.1990   22.9080 C   0  0  0  0  0  3  0  0  0  0  0  0
  -25.9510  -32.3510   23.6270 C   0  0  0  0  0  3  0  0  0  0  0  0
  -25.6080  -33.7200   24.0300 N   0  0  0  0  0  0  0  0  0  0  0  0
  -25.9130  -34.8210   23.3280 C   0  0  0  0  0  0  0  0  0  0  0  0
  -26.5830  -34.7880   22.2930 O   0  0  0  0  0  0  0  0  0  0  0  0
  -25.0150  -33.8190   24.8410 H   0  0  0  0  0  0  0  0  0  0  0  0
  -24.1380  -36.5840   23.0730 C   0  0  0  0  0  1  0  0  0  0  0  0
  -25.3910  -36.1700   23.8600 C   0  0  0  0  0  3  0  0  0  0  0  0
  -27.5050  -37.0660   24.7310 C   0  0  0  0  0  1  0  0  0  0  0  0
  -26.3960  -37.2540   23.8000 N   0  0  0  0  0  0  0  0  0  0  0  0
  -25.9660  -38.1550   23.9960 H   0  0  0  0  0  0  0  0  0  0  0  0
  -26.5160  -31.5350   24.8550 C   0  0  1  0  0  0  0  0  0  0  0  0
  -25.4560  -31.2280   25.9380 C   0  0  0  0  0  1  0  0  0  0  0  0
  -27.1140  -30.1880   24.3870 C   0  0  0  0  0  1  0  0  0  0  0  0
  -27.6640  -32.3220   25.5250 C   0  0  0  0  0  1  0  0  0  0  0  0
  -25.6250  -23.7340   21.0860 C   0  0  0  0  0  1  0  0  0  0  0  0
  -26.5410  -22.7360   20.3560 C   0  0  0  0  0  2  0  0  0  0  0  0
  1  4  1  0
  2  1  1  0
  2  5  1  0
  3  6  1  0
  4 15  1  0
  4  3  1  0
  5 52  1  0
  5  6  1  0
  6 47  1  0
  7 16  1  0
  8 13  1  0
  9 10  1  0
  9  8  1  0
 11 10  1  0
 11 22  1  0
 11 12  1  0
 13  7  1  0
 13 12  1  0
 14  7  2  0
 15 16  1  0
 16 18  1  0
 17 15  2  0
 19 20  2  0
 20 39  1  0
 21 24  1  0
 21 20  1  0
 22 23  1  0
 22 19  1  0
 23 21  2  0
 24 25  1  0
 25 26  2  0
 27 30  1  0
 27 26  1  0
 28 27  2  0
 29 28  1  0
 29 24  2  0
 30 31  1  0
 31 32  1  0
 32 33  2  0
 34 33  1  0
 34 38  1  0
 35 34  2  0
 36 31  2  0
 36 35  1  0
 37 36  1  0
 39 40  1  0
 40 43  1  0
 40 42  1  0
 41 39  2  0
 44 19  1  0
 44 45  1  0
 46 44  1  0
 47 48  1  0
 48 50  1  0
 49 48  1  0
 51 48  1  0
 52 98  1  0
 53 55  1  0
 53 52  1  0
 54 53  2  0
 56 58  1  0
 56 55  1  0
 57 68  2  0
 58 63  1  0
 59 67  1  0
 59 69  1  0
 60 66  1  0
 60 62  1  0
 61 67  1  0
 62 61  1  0
 63 62  2  0
 64 65  1  0
 64 58  2  0
 65 60  2  0
 66 59  1  0
 67 57  1  0
 69 71  2  0
 70 69  1  0
 72 70  1  0
 73 82  2  0
 73 78  1  0
 74 70  1  0
 74 78  1  0
 75 74  1  0
 76 77  1  0
 76 75  1  0
 77 73  1  0
 78 79  2  0
 79 80  1  0
 81 80  2  0
 82 81  1  0
 83 57  1  0
 83 84  1  0
 83 93  1  0
 84 87  1  0
 85 89  1  0
 85 84  1  0
 86 85  2  0
 89 88  1  0
 91 89  1  0
 91 92  1  0
 91 90  1  0
 93 96  1  1
 93 94  1  0
 95 93  1  0
 98 97  1  0
M  ISO  4   7 100  16 100  55 101  56 101
M  END
>  <TORSDO>  (15) 
F 22

>  <SCORE>  (15) 
-12.376

>  <name>  (15) 
14

>  <ligand_id>  (15) 
14

>  <original_smiles>  (15) 
[H]c1c([H])c([H])c2c(c1[H])C([H])([H])C([H])([H])C([H])([H])C2([H])N([H])C(=O)C1([H])N(C(=O)C([H])(N([H])C(=O)C([H])(N([H])C([H])([H])[H])C([H])([H])[H])C(C([H])([H])[H])(C([H])([H])[H])C([H])([H])[H])C([H])([H])c2c([H])c(OC([H])([H])C(=O)C([H])(C([H])([H])C([H])([H])[H])C3([H])C([H])([H])C([H])([H])C([H])(C(=O)N([H])C(=O)N4C([H])([H])C([H])([H])C([H])([H])C([H])(n5nc(-c6c([H])c([H])c(Oc7c([H])c([H])c(F)c([H])c7F)c([H])c6[H])c(C(=O)N([H])[H])c5N([H])[H])C4([H])[H])C([H])([H])C3([H])C([H])([H])[N+]([H])([H])[H])c([H])c([H])c2C1([H])[H]

>  <smiles>  (15) 
[H]c1c([H])c([H])c2c(c1[H])C([H])([H])C([H])([H])C([H])([H])C2([H])N([H])C(=O)C1([H])N(C(=O)C([H])(N([H])C(=O)C([H])(N([H])C([H])([H])[H])C([H])([H])[H])C(C([H])([H])[H])(C([H])([H])[H])C([H])([H])[H])C([H])([H])c2c([H])c(OC([H])([H])C(=O)C([H])(C([H])([H])C([H])([H])[H])C3([H])C([H])([H])C([H])([H])C([H])(C(=O)N([H])C(=O)N4C([H])([H])C([H])([H])C([H])([H])C([H])(n5nc(-c6c([H])c([H])c(Oc7c([H])c([H])c(F)c([H])c7F)c([H])c6[H])c(C(=O)N([H])[H])c5N([H])[H])C4([H])[H])C([H])([H])C3([H])C([H])([H])[N+]([H])([H])[H])c([H])c([H])c2C1([H])[H]

$$$$
16:0:0
     RDKit          3D

 92100  0  0  1  0  0  0  0  0999 V2000
  -29.3300  -20.0130   20.9240 C   0  0  0  0  0  3  0  0  0  0  0  0
  -32.8210  -20.9830   23.3790 C   0  0  0  0  0  3  0  0  0  0  0  0
  -32.9820  -20.6760   22.0130 C   0  0  0  0  0  3  0  0  0  0  0  0
  -31.5320  -20.9810   23.9450 C   0  0  0  0  0  3  0  0  0  0  0  0
  -31.8580  -20.3730   21.2100 C   0  0  0  0  0  3  0  0  0  0  0  0
  -30.4110  -20.6710   23.1460 C   0  0  0  0  0  3  0  0  0  0  0  0
  -30.5610  -20.3670   21.7690 C   0  0  0  0  0  0  0  0  0  0  0  0
  -28.8960  -21.1140   19.8230 C   0  0  0  0  0  2  0  0  0  0  0  0
  -29.0900  -22.7100   20.0200 C   0  0  0  0  0  2  0  0  0  0  0  0
  -27.8920  -23.7970   19.9420 C   0  0  0  0  0  2  0  0  0  0  0  0
  -28.0050  -25.1500   19.0610 C   0  0  0  0  0  2  0  0  0  0  0  0
  -27.9760  -26.5300   19.6240 O   0  0  0  0  0  0  0  0  0  0  0  0
  -24.4750  -31.7850   23.1090 C   0  0  0  0  0  0  0  0  0  0  0  0
  -26.8430  -27.3610   19.6580 C   0  0  0  0  0  0  0  0  0  0  0  0
  -23.1560  -30.4860   21.4690 C   0  0  0  0  0  3  0  0  0  0  0  0
  -24.4970  -29.0020   19.8680 C   0  0  0  0  0  0  0  0  0  0  0  0
  -25.6820  -30.7890   21.1500 C   0  0  0  0  0  2  0  0  0  0  0  0
  -25.7030  -29.4470   20.4240 C   0  0  0  0  0  0  0  0  0  0  0  0
  -26.8700  -28.6380   20.3090 C   0  0  0  0  0  3  0  0  0  0  0  0
  -25.6100  -26.9640   19.0950 C   0  0  0  0  0  3  0  0  0  0  0  0
  -24.4540  -27.7690   19.1960 C   0  0  0  0  0  3  0  0  0  0  0  0
  -23.2710  -29.8790   20.0440 C   0  0  0  0  0  2  0  0  0  0  0  0
  -24.4600  -31.0350   21.9650 N   0  0  0  0  0  0  0  0  0  0  0  0
  -23.4290  -32.0410   23.7250 O   0  0  0  0  0  0  0  0  0  0  0  0
  -22.5410  -29.4300   22.4180 C   0  0  0  0  0  0  0  0  0  0  0  0
  -21.2170  -29.2120   22.3080 N   0  0  0  0  0  0  0  0  0  0  0  0
  -23.2500  -28.8090   23.2130 O   0  0  0  0  0  0  0  0  0  0  0  0
  -20.6990  -29.7670   21.6390 H   0  0  0  0  0  0  0  0  0  0  0  0
  -17.9140  -27.8110   22.7410 C   0  0  0  0  0  0  0  0  0  0  0  0
  -20.4420  -28.2290   23.0680 C   0  0  0  0  0  3  0  0  0  0  0  0
  -20.6450  -26.8040   22.5040 C   0  0  0  0  0  2  0  0  0  0  0  0
  -19.5880  -26.4080   21.4670 C   0  0  0  0  0  2  0  0  0  0  0  0
  -18.1860  -26.4730   22.0770 C   0  0  0  0  0  2  0  0  0  0  0  0
  -18.9710  -28.6420   23.1900 C   0  0  0  0  0  0  0  0  0  0  0  0
  -18.6590  -29.8910   23.7670 C   0  0  0  0  0  3  0  0  0  0  0  0
  -17.3230  -30.3120   23.9030 C   0  0  0  0  0  3  0  0  0  0  0  0
  -16.2760  -29.4780   23.4710 C   0  0  0  0  0  3  0  0  0  0  0  0
  -16.5760  -28.2310   22.8950 C   0  0  0  0  0  3  0  0  0  0  0  0
  -25.8040  -32.3700   23.6820 C   0  0  0  0  0  3  0  0  0  0  0  0
  -25.5440  -33.7600   24.0790 N   0  0  0  0  0  0  0  0  0  0  0  0
  -25.8610  -34.8390   23.3510 C   0  0  0  0  0  0  0  0  0  0  0  0
  -26.4750  -34.7700   22.2820 O   0  0  0  0  0  0  0  0  0  0  0  0
  -25.0180  -33.8970   24.9280 H   0  0  0  0  0  0  0  0  0  0  0  0
  -24.1510  -36.6700   23.1680 C   0  0  0  0  0  1  0  0  0  0  0  0
  -25.4240  -36.2110   23.8940 C   0  0  0  0  0  3  0  0  0  0  0  0
  -27.6170  -37.0240   24.6420 C   0  0  0  0  0  1  0  0  0  0  0  0
  -26.4660  -37.2540   23.7740 N   0  0  0  0  0  0  0  0  0  0  0  0
  -26.0790  -38.1700   23.9940 H   0  0  0  0  0  0  0  0  0  0  0  0
  -26.3670  -31.5450   24.9020 C   0  0  1  0  0  0  0  0  0  0  0  0
  -25.3320  -31.3100   26.0230 C   0  0  0  0  0  1  0  0  0  0  0  0
  -26.8810  -30.1630   24.4370 C   0  0  0  0  0  1  0  0  0  0  0  0
  -27.5720  -32.2900   25.5240 C   0  0  0  0  0  1  0  0  0  0  0  0
  -29.1970  -18.4220   20.6100 C   0  0  0  0  0  3  0  0  0  0  0  0
  -30.3550  -17.3340   20.8470 C   0  0  0  0  0  3  0  0  0  0  0  0
  -30.7350  -14.7820   20.3590 C   0  0  0  0  0  0  0  0  0  0  0  0
  -30.5110  -12.5300   19.3030 C   0  0  0  0  0  2  0  0  0  0  0  0
  -29.5760  -12.6290   18.0780 C   0  0  0  0  0  2  0  0  0  0  0  0
  -28.0990  -12.4990   18.4970 C   0  0  0  0  0  2  0  0  0  0  0  0
  -27.7390  -13.3710   19.7300 C   0  0  0  0  0  3  0  0  0  0  0  0
  -28.7900  -13.2320   20.8520 C   0  0  0  0  0  2  0  0  0  0  0  0
  -30.0970  -13.5720   20.2700 N   0  0  0  0  0  0  0  0  0  0  0  0
  -31.9040  -14.9130   19.9870 O   0  0  0  0  0  0  0  0  0  0  0  0
  -29.9740  -15.8740   20.7050 N   0  0  0  0  0  0  0  0  0  0  0  0
  -29.0230  -15.6420   20.9520 H   0  0  0  0  0  0  0  0  0  0  0  0
  -25.3450  -13.9870   20.4270 C   0  0  0  0  0  0  0  0  0  0  0  0
  -24.2710  -13.2230   20.7970 C   0  0  0  0  0  0  0  0  0  0  0  0
  -24.7270  -11.8700   20.7820 C   0  0  0  0  0  0  0  0  0  0  0  0
  -26.3860  -13.1000   20.2100 N   0  0  0  0  0  0  0  0  0  0  0  0
  -26.0200  -11.8200   20.4820 N   0  0  0  0  0  0  0  0  0  0  0  0
  -23.9900  -10.6130   20.9740 C   0  0  0  0  0  0  0  0  0  0  0  0
  -24.4040   -9.6560   21.9240 C   0  0  0  0  0  3  0  0  0  0  0  0
  -23.6710   -8.4640   22.1080 C   0  0  0  0  0  3  0  0  0  0  0  0
  -22.5050   -8.2220   21.3400 C   0  0  0  0  0  0  0  0  0  0  0  0
  -22.1090   -9.1700   20.3790 C   0  0  0  0  0  3  0  0  0  0  0  0
  -22.8450  -10.3530   20.1950 C   0  0  0  0  0  3  0  0  0  0  0  0
  -21.7430   -7.0820   21.4320 O   0  0  0  0  0  0  0  0  0  0  0  0
  -21.6640   -6.3610   22.5970 C   0  0  0  0  0  0  0  0  0  0  0  0
  -21.2080   -6.9370   23.8010 C   0  0  0  0  0  3  0  0  0  0  0  0
  -21.0780   -6.1400   24.9570 C   0  0  0  0  0  3  0  0  0  0  0  0
  -21.3910   -4.7700   24.9060 C   0  0  0  0  0  0  0  0  0  0  0  0
  -21.8390   -4.1920   23.7050 C   0  0  0  0  0  3  0  0  0  0  0  0
  -21.9710   -4.9850   22.5520 C   0  0  0  0  0  0  0  0  0  0  0  0
  -22.3820   -4.4190   21.3920 F   0  0  0  0  0  0  0  0  0  0  0  0
  -21.2580   -4.0020   26.0130 F   0  0  0  0  0  0  0  0  0  0  0  0
  -22.8760  -13.7130   21.0550 C   0  0  0  0  0  0  0  0  0  0  0  0
  -22.1380  -13.0350   21.9260 N   0  0  0  0  0  0  0  0  0  0  0  0
  -22.4470  -14.7330   20.5170 O   0  0  0  0  0  0  0  0  0  0  0  0
  -22.4970  -12.2070   22.3790 H   0  0  0  0  0  0  0  0  0  0  0  0
  -21.2010  -13.3470   22.1390 H   0  0  0  0  0  0  0  0  0  0  0  0
  -25.5200  -15.3550   20.2370 N   0  0  0  0  0  0  0  0  0  0  0  0
  -24.7520  -16.0120   20.3070 H   0  0  0  0  0  0  0  0  0  0  0  0
  -26.3770  -15.7830   19.9070 H   0  0  0  0  0  0  0  0  0  0  0  0
  1  8  1  0
  1  7  1  0
  2  4  1  0
  3  2  2  0
  5  7  2  0
  5  3  1  0
  6  4  2  0
  7  6  1  0
  8  9  1  0
 10  9  1  0
 11 12  1  0
 11 10  1  0
 12 14  1  0
 13 24  2  0
 14 19  1  0
 15 23  1  0
 15 25  1  0
 16 22  1  0
 16 18  1  0
 17 23  1  0
 18 17  1  0
 19 18  2  0
 20 21  1  0
 20 14  2  0
 21 16  2  0
 22 15  1  0
 23 13  1  0
 25 27  2  0
 26 25  1  0
 28 26  1  0
 29 38  2  0
 29 34  1  0
 30 26  1  0
 30 34  1  0
 31 30  1  0
 32 33  1  0
 32 31  1  0
 33 29  1  0
 34 35  2  0
 35 36  1  0
 37 36  2  0
 38 37  1  0
 39 13  1  0
 39 40  1  0
 39 49  1  0
 40 43  1  0
 41 45  1  0
 41 40  1  0
 42 41  2  0
 45 44  1  0
 47 45  1  0
 47 48  1  0
 47 46  1  0
 49 52  1  1
 49 50  1  0
 51 49  1  0
 53 54  2  0
 53  1  1  0
 55 63  1  0
 56 61  1  0
 57 58  1  0
 57 56  1  0
 59 58  1  0
 59 68  1  0
 59 60  1  0
 61 55  1  0
 61 60  1  0
 62 55  2  0
 63 54  1  0
 63 64  1  0
 65 66  2  0
 66 85  1  0
 67 66  1  0
 67 70  1  0
 68 65  1  0
 68 69  1  0
 69 67  2  0
 70 71  1  0
 71 72  2  0
 73 76  1  0
 73 72  1  0
 74 73  2  0
 75 74  1  0
 75 70  2  0
 76 77  1  0
 77 78  1  0
 78 79  2  0
 80 79  1  0
 80 84  1  0
 81 80  2  0
 82 77  2  0
 82 81  1  0
 83 82  1  0
 85 86  1  0
 86 89  1  0
 86 88  1  0
 87 85  2  0
 90 91  1  0
 90 65  1  0
 92 90  1  0
M  ISO  4  11 101  12 101  55 100  63 100
M  END
>  <TORSDO>  (16) 
F 23

>  <SCORE>  (16) 
-12.796

>  <name>  (16) 
16

>  <ligand_id>  (16) 
16

>  <original_smiles>  (16) 
[H]c1c([H])c([H])c(C([H])(C([H])([H])C([H])([H])N([H])C(=O)N2C([H])([H])C([H])([H])C([H])([H])C([H])(n3nc(-c4c([H])c([H])c(Oc5c([H])c([H])c(F)c([H])c5F)c([H])c4[H])c(C(=O)N([H])[H])c3N([H])[H])C2([H])[H])C([H])([H])C([H])([H])C([H])([H])C([H])([H])Oc2c([H])c([H])c3c(c2[H])C([H])([H])N(C(=O)C([H])(N([H])C(=O)C([H])(N([H])C([H])([H])[H])C([H])([H])[H])C(C([H])([H])[H])(C([H])([H])[H])C([H])([H])[H])C([H])(C(=O)N([H])C2([H])c4c([H])c([H])c([H])c([H])c4C([H])([H])C([H])([H])C2([H])[H])C3([H])[H])c([H])c1[H]

>  <smiles>  (16) 
[H]c1c([H])c([H])c(C([H])(C([H])([H])C([H])([H])N([H])C(=O)N2C([H])([H])C([H])([H])C([H])([H])C([H])(n3nc(-c4c([H])c([H])c(Oc5c([H])c([H])c(F)c([H])c5F)c([H])c4[H])c(C(=O)N([H])[H])c3N([H])[H])C2([H])[H])C([H])([H])C([H])([H])C([H])([H])C([H])([H])Oc2c([H])c([H])c3c(c2[H])C([H])([H])N(C(=O)C([H])(N([H])C(=O)C([H])(N([H])C([H])([H])[H])C([H])([H])[H])C(C([H])([H])[H])(C([H])([H])[H])C([H])([H])[H])C([H])(C(=O)N([H])C2([H])c4c([H])c([H])c([H])c([H])c4C([H])([H])C([H])([H])C2([H])[H])C3([H])[H])c([H])c1[H]

$$$$
17:0:0
     RDKit          3D

 91 99  0  0  1  0  0  0  0  0999 V2000
  -29.7810  -18.5990   21.0900 C   0  0  0  0  0  3  0  0  0  0  0  0
  -30.1500  -17.7090   20.1140 C   0  0  0  0  0  0  0  0  0  0  0  0
  -29.7750  -20.1390   21.0060 C   0  0  0  0  0  0  0  0  0  0  0  0
  -30.5060  -18.3620   18.7620 C   0  0  0  0  0  2  0  0  0  0  0  0
  -29.7850  -19.7790   18.5410 C   0  0  0  0  0  2  0  0  0  0  0  0
  -29.9480  -20.9040   19.6450 C   0  0  0  0  0  3  0  0  0  0  0  0
  -29.6180  -20.8090   22.0690 N   0  0  0  0  0  0  0  0  0  0  0  0
  -29.5270  -20.2140   22.8860 H   0  0  0  0  0  0  0  0  0  0  0  0
  -30.8120  -15.1150   20.0290 C   0  0  0  0  0  0  0  0  0  0  0  0
  -30.6610  -12.7420   19.2120 C   0  0  0  0  0  2  0  0  0  0  0  0
  -29.7320  -12.7180   17.9750 C   0  0  0  0  0  2  0  0  0  0  0  0
  -28.2640  -12.5360   18.4060 C   0  0  0  0  0  2  0  0  0  0  0  0
  -27.8690  -13.5030   19.5550 C   0  0  0  0  0  3  0  0  0  0  0  0
  -28.9220  -13.5260   20.6860 C   0  0  0  0  0  2  0  0  0  0  0  0
  -30.2210  -13.8610   20.0790 N   0  0  0  0  0  0  0  0  0  0  0  0
  -31.9840  -15.2080   19.6420 O   0  0  0  0  0  0  0  0  0  0  0  0
  -30.0120  -16.2380   20.2790 N   0  0  0  0  0  0  0  0  0  0  0  0
  -29.1490  -15.9730   20.7280 H   0  0  0  0  0  0  0  0  0  0  0  0
  -25.5120  -14.1370   20.3330 C   0  0  0  0  0  0  0  0  0  0  0  0
  -24.4380  -13.3870   20.7280 C   0  0  0  0  0  0  0  0  0  0  0  0
  -24.8750  -12.0260   20.6990 C   0  0  0  0  0  0  0  0  0  0  0  0
  -26.5310  -13.2350   20.0740 N   0  0  0  0  0  0  0  0  0  0  0  0
  -26.1560  -11.9600   20.3580 N   0  0  0  0  0  0  0  0  0  0  0  0
  -24.1230  -10.7810   20.9140 C   0  0  0  0  0  0  0  0  0  0  0  0
  -24.5320   -9.8290   21.8730 C   0  0  0  0  0  3  0  0  0  0  0  0
  -23.7820   -8.6490   22.0740 C   0  0  0  0  0  3  0  0  0  0  0  0
  -22.6100   -8.4160   21.3160 C   0  0  0  0  0  0  0  0  0  0  0  0
  -22.2210   -9.3560   20.3460 C   0  0  0  0  0  3  0  0  0  0  0  0
  -22.9710  -10.5280   20.1430 C   0  0  0  0  0  3  0  0  0  0  0  0
  -21.8340   -7.2880   21.4250 O   0  0  0  0  0  0  0  0  0  0  0  0
  -21.7570   -6.5760   22.5950 C   0  0  0  0  0  0  0  0  0  0  0  0
  -21.2530   -7.1480   23.7840 C   0  0  0  0  0  3  0  0  0  0  0  0
  -21.1230   -6.3590   24.9440 C   0  0  0  0  0  3  0  0  0  0  0  0
  -21.4940   -5.0000   24.9180 C   0  0  0  0  0  0  0  0  0  0  0  0
  -21.9910   -4.4300   23.7340 C   0  0  0  0  0  3  0  0  0  0  0  0
  -22.1200   -5.2150   22.5750 C   0  0  0  0  0  0  0  0  0  0  0  0
  -22.5830   -4.6520   21.4320 F   0  0  0  0  0  0  0  0  0  0  0  0
  -21.3620   -4.2420   26.0310 F   0  0  0  0  0  0  0  0  0  0  0  0
  -23.0560  -13.8970   21.0170 C   0  0  0  0  0  0  0  0  0  0  0  0
  -22.3230  -13.2270   21.9020 N   0  0  0  0  0  0  0  0  0  0  0  0
  -22.6300  -14.9230   20.4900 O   0  0  0  0  0  0  0  0  0  0  0  0
  -22.6810  -12.4040   22.3610 H   0  0  0  0  0  0  0  0  0  0  0  0
  -21.3920  -13.5460   22.1260 H   0  0  0  0  0  0  0  0  0  0  0  0
  -25.6990  -15.5050   20.1540 N   0  0  0  0  0  0  0  0  0  0  0  0
  -24.9450  -16.1680   20.2940 H   0  0  0  0  0  0  0  0  0  0  0  0
  -26.5520  -15.9360   19.8220 H   0  0  0  0  0  0  0  0  0  0  0  0
  -29.0420  -22.2810   19.3650 C   0  0  0  0  0  2  0  0  0  0  0  0
  -29.2910  -23.8160   19.8550 C   0  0  0  0  0  0  0  0  0  0  0  0
  -30.3070  -24.0850   20.5060 O   0  0  0  0  0  0  0  0  0  0  0  0
  -28.2380  -25.0090   19.4790 C   0  0  0  0  0  2  0  0  0  0  0  0
  -28.4230  -26.4610   19.9340 O   0  0  0  0  0  0  0  0  0  0  0  0
  -24.5260  -31.7430   23.1680 C   0  0  0  0  0  0  0  0  0  0  0  0
  -27.3150  -27.3690   19.8900 C   0  0  0  0  0  0  0  0  0  0  0  0
  -23.3910  -30.4090   21.4310 C   0  0  0  0  0  3  0  0  0  0  0  0
  -24.9110  -28.9840   19.9320 C   0  0  0  0  0  0  0  0  0  0  0  0
  -25.9300  -30.7900   21.3080 C   0  0  0  0  0  2  0  0  0  0  0  0
  -26.0610  -29.4470   20.5800 C   0  0  0  0  0  0  0  0  0  0  0  0
  -27.2620  -28.6550   20.5470 C   0  0  0  0  0  3  0  0  0  0  0  0
  -26.1360  -26.9980   19.2000 C   0  0  0  0  0  3  0  0  0  0  0  0
  -24.9570  -27.7740   19.2260 C   0  0  0  0  0  3  0  0  0  0  0  0
  -23.6440  -29.8210   20.0170 C   0  0  0  0  0  2  0  0  0  0  0  0
  -24.6350  -30.9990   22.0260 N   0  0  0  0  0  0  0  0  0  0  0  0
  -23.4270  -31.9570   23.6990 O   0  0  0  0  0  0  0  0  0  0  0  0
  -22.7400  -29.3230   22.3210 C   0  0  0  0  0  0  0  0  0  0  0  0
  -21.4180  -29.1220   22.1730 N   0  0  0  0  0  0  0  0  0  0  0  0
  -23.4250  -28.6630   23.1060 O   0  0  0  0  0  0  0  0  0  0  0  0
  -20.9220  -29.7060   21.5140 H   0  0  0  0  0  0  0  0  0  0  0  0
  -18.0600  -27.8380   22.6040 C   0  0  0  0  0  0  0  0  0  0  0  0
  -20.6180  -28.1170   22.8750 C   0  0  0  0  0  3  0  0  0  0  0  0
  -20.7360  -26.7350   22.1920 C   0  0  0  0  0  2  0  0  0  0  0  0
  -19.6320  -26.4750   21.1610 C   0  0  0  0  0  2  0  0  0  0  0  0
  -18.2530  -26.5480   21.8220 C   0  0  0  0  0  2  0  0  0  0  0  0
  -19.1720  -28.5830   23.0840 C   0  0  0  0  0  0  0  0  0  0  0  0
  -18.9390  -29.7910   23.7750 C   0  0  0  0  0  3  0  0  0  0  0  0
  -17.6300  -30.2580   23.9890 C   0  0  0  0  0  3  0  0  0  0  0  0
  -16.5320  -29.5110   23.5270 C   0  0  0  0  0  3  0  0  0  0  0  0
  -16.7490  -28.3010   22.8420 C   0  0  0  0  0  3  0  0  0  0  0  0
  -25.7770  -32.3800   23.8470 C   0  0  0  0  0  3  0  0  0  0  0  0
  -26.2230  -31.6190   25.1570 C   0  0  1  0  0  0  0  0  0  0  0  0
  -25.0740  -31.3890   26.1670 C   0  0  0  0  0  1  0  0  0  0  0  0
  -26.8260  -30.2390   24.8080 C   0  0  0  0  0  1  0  0  0  0  0  0
  -27.3320  -32.4200   25.8750 C   0  0  0  0  0  1  0  0  0  0  0  0
  -25.4520  -33.7820   24.1540 N   0  0  0  0  0  0  0  0  0  0  0  0
  -25.7790  -34.8280   23.3830 C   0  0  0  0  0  0  0  0  0  0  0  0
  -26.4530  -34.7150   22.3570 O   0  0  0  0  0  0  0  0  0  0  0  0
  -24.8490  -33.9410   24.9480 H   0  0  0  0  0  0  0  0  0  0  0  0
  -24.0200  -36.5940   23.0250 C   0  0  0  0  0  1  0  0  0  0  0  0
  -25.2820  -36.2220   23.8200 C   0  0  0  0  0  3  0  0  0  0  0  0
  -27.4070  -37.1710   24.6050 C   0  0  0  0  0  1  0  0  0  0  0  0
  -26.2980  -37.2860   23.6610 N   0  0  0  0  0  0  0  0  0  0  0  0
  -25.8780  -38.2050   23.7760 H   0  0  0  0  0  0  0  0  0  0  0  0
  2 17  1  0
  2  1  2  0
  3  1  1  0
  3  7  2  0
  4  2  1  0
  5  4  1  0
  5  6  1  0
  6 47  1  0
  6  3  1  0
  7  8  1  0
  9 15  1  0
  9 17  1  0
 10 15  1  0
 11 12  1  0
 11 10  1  0
 13 12  1  0
 13 22  1  0
 13 14  1  0
 15 14  1  0
 16  9  2  0
 17 18  1  0
 19 20  2  0
 20 39  1  0
 21 20  1  0
 21 24  1  0
 22 19  1  0
 22 23  1  0
 23 21  2  0
 24 25  1  0
 25 26  2  0
 27 30  1  0
 27 26  1  0
 28 27  2  0
 29 28  1  0
 29 24  2  0
 30 31  1  0
 31 32  1  0
 32 33  2  0
 34 33  1  0
 34 38  1  0
 35 34  2  0
 36 31  2  0
 36 35  1  0
 37 36  1  0
 39 40  1  0
 40 43  1  0
 40 42  1  0
 41 39  2  0
 44 45  1  0
 44 19  1  0
 46 44  1  0
 47 48  1  0
 48 49  2  0
 50 48  1  0
 50 51  1  0
 52 63  2  0
 53 51  1  0
 53 58  1  0
 54 62  1  0
 54 64  1  0
 55 61  1  0
 55 57  1  0
 56 62  1  0
 57 56  1  0
 58 57  2  0
 59 60  1  0
 59 53  2  0
 60 55  2  0
 61 54  1  0
 62 52  1  0
 64 66  2  0
 65 64  1  0
 67 65  1  0
 68 77  2  0
 68 73  1  0
 69 65  1  0
 69 73  1  0
 70 69  1  0
 71 72  1  0
 71 70  1  0
 72 68  1  0
 73 74  2  0
 74 75  1  0
 76 75  2  0
 77 76  1  0
 78 52  1  0
 78 83  1  0
 78 79  1  0
 79 82  1  1
 79 80  1  0
 81 79  1  0
 83 86  1  0
 84 88  1  0
 84 83  1  0
 85 84  2  0
 88 87  1  0
 90 91  1  0
 90 88  1  0
 90 89  1  0
M  ISO  4   9 100  17 100  50 101  51 101
M  END
>  <TORSDO>  (17) 
F 19

>  <SCORE>  (17) 
-13.912

>  <name>  (17) 
17

>  <ligand_id>  (17) 
17

>  <original_smiles>  (17) 
[H]N=C1C([H])=C(N([H])C(=O)N2C([H])([H])C([H])([H])C([H])([H])C([H])(n3nc(-c4c([H])c([H])c(Oc5c([H])c([H])c(F)c([H])c5F)c([H])c4[H])c(C(=O)N([H])[H])c3N([H])[H])C2([H])[H])C([H])([H])C([H])([H])C1([H])C([H])([H])C(=O)C([H])([H])Oc1c([H])c([H])c2c(c1[H])C([H])([H])N(C(=O)C([H])(N([H])C(=O)C([H])(N([H])C([H])([H])[H])C([H])([H])[H])C(C([H])([H])[H])(C([H])([H])[H])C([H])([H])[H])C([H])(C(=O)N([H])C1([H])c3c([H])c([H])c([H])c([H])c3C([H])([H])C([H])([H])C1([H])[H])C2([H])[H]

>  <smiles>  (17) 
[H]N=C1C([H])=C(N([H])C(=O)N2C([H])([H])C([H])([H])C([H])([H])C([H])(n3nc(-c4c([H])c([H])c(Oc5c([H])c([H])c(F)c([H])c5F)c([H])c4[H])c(C(=O)N([H])[H])c3N([H])[H])C2([H])[H])C([H])([H])C([H])([H])C1([H])C([H])([H])C(=O)C([H])([H])Oc1c([H])c([H])c2c(c1[H])C([H])([H])N(C(=O)C([H])(N([H])C(=O)C([H])(N([H])C([H])([H])[H])C([H])([H])[H])C(C([H])([H])[H])(C([H])([H])[H])C([H])([H])[H])C([H])(C(=O)N([H])C1([H])c3c([H])c([H])c([H])c([H])c3C([H])([H])C([H])([H])C1([H])[H])C2([H])[H]

$$$$
18:0:0
     RDKit          3D

 94101  0  0  1  0  0  0  0  0999 V2000
  -27.9260  -20.3450   20.6640 C   0  0  0  0  0  0  0  0  0  0  0  0
  -26.7470  -19.7670   20.3580 N   0  0  0  0  0  4  0  0  0  0  0  0
  -28.0010  -21.6350   21.0520 N   0  0  0  0  0  0  0  0  0  0  0  0
  -26.7130  -18.8030   20.0560 H   0  0  0  0  0  0  0  0  0  0  0  0
  -25.8550  -20.2270   20.4640 H   0  0  0  0  0  0  0  0  0  0  0  0
  -28.9090  -22.0050   21.3130 H   0  0  0  0  0  0  0  0  0  0  0  0
  -29.2030  -19.5440   20.6030 C   0  0  0  0  0  2  0  0  0  0  0  0
  -29.1070  -18.3740   19.5910 C   0  0  0  0  0  2  0  0  0  0  0  0
  -30.2250  -17.3240   19.7060 C   0  0  0  0  0  2  0  0  0  0  0  0
  -30.1710  -16.5410   21.0380 C   0  0  0  0  0  2  0  0  0  0  0  0
  -31.6220  -14.6650   20.2830 C   0  0  0  0  0  0  0  0  0  0  0  0
  -31.2130  -12.4880   19.2030 C   0  0  0  0  0  2  0  0  0  0  0  0
  -30.2960  -12.6480   17.9790 C   0  0  0  0  0  2  0  0  0  0  0  0
  -28.8130  -12.5740   18.3890 C   0  0  0  0  0  2  0  0  0  0  0  0
  -28.4920  -13.4990   19.5930 C   0  0  0  0  0  3  0  0  0  0  0  0
  -29.5260  -13.3120   20.7260 C   0  0  0  0  0  2  0  0  0  0  0  0
  -30.8670  -13.5400   20.1650 N   0  0  0  0  0  0  0  0  0  0  0  0
  -32.6840  -14.8320   19.6810 O   0  0  0  0  0  0  0  0  0  0  0  0
  -31.2460  -15.5580   21.2010 N   0  0  0  0  0  0  0  0  0  0  0  0
  -32.0570  -16.0020   21.6060 H   0  0  0  0  0  0  0  0  0  0  0  0
  -26.1270  -14.2320   20.2950 C   0  0  0  0  0  0  0  0  0  0  0  0
  -25.0260  -13.5160   20.6730 C   0  0  0  0  0  0  0  0  0  0  0  0
  -25.4210  -12.1410   20.6500 C   0  0  0  0  0  0  0  0  0  0  0  0
  -27.1280  -13.2990   20.0720 N   0  0  0  0  0  0  0  0  0  0  0  0
  -26.7050  -12.0370   20.3400 N   0  0  0  0  0  0  0  0  0  0  0  0
  -24.6350  -10.9170   20.8470 C   0  0  0  0  0  0  0  0  0  0  0  0
  -24.9630   -9.9820   21.8550 C   0  0  0  0  0  3  0  0  0  0  0  0
  -24.1810   -8.8200   22.0350 C   0  0  0  0  0  3  0  0  0  0  0  0
  -23.0600   -8.5860   21.2030 C   0  0  0  0  0  0  0  0  0  0  0  0
  -22.7520   -9.5080   20.1870 C   0  0  0  0  0  3  0  0  0  0  0  0
  -23.5340  -10.6600   20.0070 C   0  0  0  0  0  3  0  0  0  0  0  0
  -22.2560   -7.4740   21.2870 O   0  0  0  0  0  0  0  0  0  0  0  0
  -22.0130   -6.8520   22.4850 C   0  0  0  0  0  0  0  0  0  0  0  0
  -21.4200   -7.5300   23.5720 C   0  0  0  0  0  3  0  0  0  0  0  0
  -21.1190   -6.8320   24.7590 C   0  0  0  0  0  3  0  0  0  0  0  0
  -21.4120   -5.4590   24.8620 C   0  0  0  0  0  0  0  0  0  0  0  0
  -22.0010   -4.7810   23.7800 C   0  0  0  0  0  3  0  0  0  0  0  0
  -22.3000   -5.4760   22.5940 C   0  0  0  0  0  0  0  0  0  0  0  0
  -22.8460   -4.8140   21.5470 F   0  0  0  0  0  0  0  0  0  0  0  0
  -21.1190   -4.7870   26.0000 F   0  0  0  0  0  0  0  0  0  0  0  0
  -23.6530  -14.0620   20.9440 C   0  0  0  0  0  0  0  0  0  0  0  0
  -22.8970  -13.4120   21.8220 N   0  0  0  0  0  0  0  0  0  0  0  0
  -23.2630  -15.1010   20.4140 O   0  0  0  0  0  0  0  0  0  0  0  0
  -23.2290  -12.5690   22.2660 H   0  0  0  0  0  0  0  0  0  0  0  0
  -21.9820  -13.7640   22.0590 H   0  0  0  0  0  0  0  0  0  0  0  0
  -26.3500  -15.5930   20.1030 N   0  0  0  0  0  0  0  0  0  0  0  0
  -25.5700  -16.2430   20.1320 H   0  0  0  0  0  0  0  0  0  0  0  0
  -27.1660  -15.9680   19.6390 H   0  0  0  0  0  0  0  0  0  0  0  0
  -26.8960  -22.6000   21.0850 C   0  0  0  0  0  2  0  0  0  0  0  0
  -25.7070  -24.1570   19.5160 C   0  0  0  0  0  1  0  0  0  0  0  0
  -27.0890  -23.6810   20.0070 C   0  0  0  0  0  3  0  0  0  0  0  0
  -27.9960  -24.8310   20.5340 C   0  0  0  0  0  2  0  0  0  0  0  0
  -28.7330  -25.6740   19.4630 C   0  0  0  0  0  2  0  0  0  0  0  0
  -28.7290  -27.0780   19.7720 O   0  0  0  0  0  0  0  0  0  0  0  0
  -24.5470  -31.7240   23.1760 C   0  0  0  0  0  0  0  0  0  0  0  0
  -27.5100  -27.7290   19.7870 C   0  0  0  0  0  0  0  0  0  0  0  0
  -23.4430  -30.3460   21.4450 C   0  0  0  0  0  3  0  0  0  0  0  0
  -25.0040  -29.0320   19.9160 C   0  0  0  0  0  0  0  0  0  0  0  0
  -25.9340  -30.9060   21.2790 C   0  0  0  0  0  2  0  0  0  0  0  0
  -26.1190  -29.5920   20.5520 C   0  0  0  0  0  0  0  0  0  0  0  0
  -27.3700  -28.9380   20.5040 C   0  0  0  0  0  3  0  0  0  0  0  0
  -26.3890  -27.2250   19.0940 C   0  0  0  0  0  3  0  0  0  0  0  0
  -25.1330  -27.8440   19.1850 C   0  0  0  0  0  3  0  0  0  0  0  0
  -23.6950  -29.7810   20.0230 C   0  0  0  0  0  2  0  0  0  0  0  0
  -24.6580  -31.0010   22.0270 N   0  0  0  0  0  0  0  0  0  0  0  0
  -23.4490  -31.8820   23.7290 O   0  0  0  0  0  0  0  0  0  0  0  0
  -22.8780  -29.2140   22.3320 C   0  0  0  0  0  0  0  0  0  0  0  0
  -21.5760  -28.9240   22.1690 N   0  0  0  0  0  0  0  0  0  0  0  0
  -23.6040  -28.6060   23.1220 O   0  0  0  0  0  0  0  0  0  0  0  0
  -21.0500  -29.4770   21.5070 H   0  0  0  0  0  0  0  0  0  0  0  0
  -18.3130  -27.4110   22.5280 C   0  0  0  0  0  0  0  0  0  0  0  0
  -20.8340  -27.8750   22.8680 C   0  0  0  0  0  3  0  0  0  0  0  0
  -21.0730  -26.4940   22.2160 C   0  0  0  0  0  2  0  0  0  0  0  0
  -20.0210  -26.1370   21.1630 C   0  0  0  0  0  2  0  0  0  0  0  0
  -18.6210  -26.1240   21.7870 C   0  0  0  0  0  2  0  0  0  0  0  0
  -19.3530  -28.2430   23.0210 C   0  0  0  0  0  0  0  0  0  0  0  0
  -19.0130  -29.4490   23.6740 C   0  0  0  0  0  3  0  0  0  0  0  0
  -17.6660  -29.8210   23.8420 C   0  0  0  0  0  3  0  0  0  0  0  0
  -16.6410  -28.9870   23.3620 C   0  0  0  0  0  3  0  0  0  0  0  0
  -16.9660  -27.7850   22.7120 C   0  0  0  0  0  3  0  0  0  0  0  0
  -25.7860  -32.4060   23.8370 C   0  0  0  0  0  3  0  0  0  0  0  0
  -25.4090  -33.7880   24.1570 N   0  0  0  0  0  0  0  0  0  0  0  0
  -25.7200  -34.8540   23.4080 C   0  0  0  0  0  0  0  0  0  0  0  0
  -26.4300  -34.7800   22.3990 O   0  0  0  0  0  0  0  0  0  0  0  0
  -24.7810  -33.9180   24.9380 H   0  0  0  0  0  0  0  0  0  0  0  0
  -23.9340  -36.5720   22.9840 C   0  0  0  0  0  1  0  0  0  0  0  0
  -25.1580  -36.2190   23.8450 C   0  0  0  0  0  3  0  0  0  0  0  0
  -27.2160  -37.1890   24.7670 C   0  0  0  0  0  1  0  0  0  0  0  0
  -26.1510  -37.3140   23.7750 N   0  0  0  0  0  0  0  0  0  0  0  0
  -25.7030  -38.2170   23.9010 H   0  0  0  0  0  0  0  0  0  0  0  0
  -26.2950  -31.6510   25.1270 C   0  0  1  0  0  0  0  0  0  0  0  0
  -25.1780  -31.3580   26.1560 C   0  0  0  0  0  1  0  0  0  0  0  0
  -26.9520  -30.3040   24.7480 C   0  0  0  0  0  1  0  0  0  0  0  0
  -27.3900  -32.4910   25.8250 C   0  0  0  0  0  1  0  0  0  0  0  0
  1  3  1  0
  2  5  1  0
  2  1  2  0
  3 49  1  0
  3  6  1  0
  4  2  1  0
  7  1  1  0
  8  9  1  0
  8  7  1  0
  9 10  1  0
 10 19  1  0
 11 19  1  0
 12 17  1  0
 13 14  1  0
 13 12  1  0
 15 14  1  0
 15 24  1  0
 15 16  1  0
 17 11  1  0
 17 16  1  0
 18 11  2  0
 19 20  1  0
 21 22  2  0
 22 41  1  0
 23 22  1  0
 23 26  1  0
 24 21  1  0
 24 25  1  0
 25 23  2  0
 26 27  1  0
 27 28  2  0
 29 32  1  0
 29 28  1  0
 30 29  2  0
 31 30  1  0
 31 26  2  0
 32 33  1  0
 33 38  2  0
 33 34  1  0
 34 35  2  0
 35 36  1  0
 36 40  1  0
 37 36  2  0
 38 37  1  0
 39 38  1  0
 41 42  1  0
 42 45  1  0
 42 44  1  0
 43 41  2  0
 46 47  1  0
 46 21  1  0
 48 46  1  0
 51 50  1  0
 51 52  1  0
 51 49  1  0
 53 54  1  0
 53 52  1  0
 54 56  1  0
 55 66  2  0
 56 61  1  0
 57 65  1  0
 57 67  1  0
 58 64  1  0
 58 60  1  0
 59 65  1  0
 60 59  1  0
 61 60  2  0
 62 63  1  0
 62 56  2  0
 63 58  2  0
 64 57  1  0
 65 55  1  0
 67 69  2  0
 68 67  1  0
 70 68  1  0
 71 80  2  0
 71 76  1  0
 72 68  1  0
 72 76  1  0
 73 72  1  0
 74 75  1  0
 74 73  1  0
 75 71  1  0
 76 77  2  0
 77 78  1  0
 79 78  2  0
 80 79  1  0
 81 55  1  0
 81 82  1  0
 81 91  1  0
 82 85  1  0
 83 87  1  0
 83 82  1  0
 84 83  2  0
 87 86  1  0
 89 87  1  0
 89 90  1  0
 89 88  1  0
 91 94  1  1
 91 92  1  0
 93 91  1  0
M  ISO  4  11 100  19 100  53 101  54 101
M  END
>  <TORSDO>  (18) 
F 24

>  <SCORE>  (18) 
-10.522

>  <name>  (18) 
18

>  <ligand_id>  (18) 
18

>  <original_smiles>  (18) 
[H]c1c([H])c([H])c2c(c1[H])C([H])([H])C([H])([H])C([H])([H])C2([H])N([H])C(=O)C1([H])N(C(=O)C([H])(N([H])C(=O)C([H])(N([H])C([H])([H])[H])C([H])([H])[H])C(C([H])([H])[H])(C([H])([H])[H])C([H])([H])[H])C([H])([H])c2c([H])c(OC([H])([H])C([H])([H])C([H])(C([H])([H])[H])C([H])([H])[N+]([H])=C(N([H])[H])C([H])([H])C([H])([H])C([H])([H])C([H])([H])N([H])C(=O)N3C([H])([H])C([H])([H])C([H])([H])C([H])(n4nc(-c5c([H])c([H])c(Oc6c([H])c([H])c(F)c([H])c6F)c([H])c5[H])c(C(=O)N([H])[H])c4N([H])[H])C3([H])[H])c([H])c([H])c2C1([H])[H]

>  <smiles>  (18) 
[H]c1c([H])c([H])c2c(c1[H])C([H])([H])C([H])([H])C([H])([H])C2([H])N([H])C(=O)C1([H])N(C(=O)C([H])(N([H])C(=O)C([H])(N([H])C([H])([H])[H])C([H])([H])[H])C(C([H])([H])[H])(C([H])([H])[H])C([H])([H])[H])C([H])([H])c2c([H])c(OC([H])([H])C([H])([H])C([H])(C([H])([H])[H])C([H])([H])[N+]([H])=C(N([H])[H])C([H])([H])C([H])([H])C([H])([H])C([H])([H])N([H])C(=O)N3C([H])([H])C([H])([H])C([H])([H])C([H])(n4nc(-c5c([H])c([H])c(Oc6c([H])c([H])c(F)c([H])c6F)c([H])c5[H])c(C(=O)N([H])[H])c4N([H])[H])C3([H])[H])c([H])c([H])c2C1([H])[H]

$$$$
19:0:0
     RDKit          3D

 94102  0  0  1  0  0  0  0  0999 V2000
  -29.1410  -20.5120   20.4700 C   0  0  0  0  0  3  0  0  0  0  0  0
  -30.9960  -19.9960   21.9310 C   0  0  0  0  0  3  0  0  0  0  0  0
  -29.0870  -19.1630   20.0940 C   0  0  0  0  0  3  0  0  0  0  0  0
  -30.9460  -18.6330   21.5390 C   0  0  0  0  0  3  0  0  0  0  0  0
  -30.1000  -20.9620   21.4010 C   0  0  0  0  0  0  0  0  0  0  0  0
  -29.9840  -18.1890   20.6010 C   0  0  0  0  0  0  0  0  0  0  0  0
  -29.6520  -16.6270   18.6610 C   0  0  0  0  0  1  0  0  0  0  0  0
  -28.4320  -16.3840   20.9360 C   0  0  0  0  0  1  0  0  0  0  0  0
  -29.7530  -16.6950   20.2190 C   0  0  2  0  0  0  0  0  0  0  0  0
  -31.2340  -14.5870   20.1180 C   0  0  0  0  0  0  0  0  0  0  0  0
  -30.8490  -12.3510   19.1070 C   0  0  0  0  0  2  0  0  0  0  0  0
  -29.8840  -12.4380   17.9080 C   0  0  0  0  0  2  0  0  0  0  0  0
  -28.4190  -12.3330   18.3850 C   0  0  0  0  0  2  0  0  0  0  0  0
  -28.1020  -13.2650   19.5870 C   0  0  0  0  0  3  0  0  0  0  0  0
  -29.2000  -13.1390   20.6810 C   0  0  0  0  0  2  0  0  0  0  0  0
  -30.5000  -13.4300   20.0540 N   0  0  0  0  0  0  0  0  0  0  0  0
  -32.3480  -14.6680   19.5990 O   0  0  0  0  0  0  0  0  0  0  0  0
  -30.7360  -15.6930   20.7370 N   0  0  0  0  0  0  0  0  0  0  0  0
  -31.5080  -16.1890   21.1500 H   0  0  0  0  0  0  0  0  0  0  0  0
  -25.7420  -13.9760   20.3350 C   0  0  0  0  0  0  0  0  0  0  0  0
  -24.6610  -13.2500   20.7540 C   0  0  0  0  0  0  0  0  0  0  0  0
  -25.0650  -11.8830   20.7010 C   0  0  0  0  0  0  0  0  0  0  0  0
  -26.7550  -13.0520   20.1020 N   0  0  0  0  0  0  0  0  0  0  0  0
  -26.3450  -11.7880   20.3650 N   0  0  0  0  0  0  0  0  0  0  0  0
  -24.2880  -10.6560   20.8950 C   0  0  0  0  0  0  0  0  0  0  0  0
  -24.6710   -9.6830   21.8430 C   0  0  0  0  0  3  0  0  0  0  0  0
  -23.8940   -8.5180   22.0220 C   0  0  0  0  0  3  0  0  0  0  0  0
  -22.7230   -8.3190   21.2510 C   0  0  0  0  0  0  0  0  0  0  0  0
  -22.3630   -9.2820   20.2910 C   0  0  0  0  0  3  0  0  0  0  0  0
  -23.1390  -10.4380   20.1100 C   0  0  0  0  0  3  0  0  0  0  0  0
  -21.9220   -7.2050   21.3380 O   0  0  0  0  0  0  0  0  0  0  0  0
  -21.7870   -6.5110   22.5140 C   0  0  0  0  0  0  0  0  0  0  0  0
  -21.2830   -7.1200   23.6830 C   0  0  0  0  0  3  0  0  0  0  0  0
  -21.0920   -6.3530   24.8500 C   0  0  0  0  0  3  0  0  0  0  0  0
  -21.3970   -4.9780   24.8470 C   0  0  0  0  0  0  0  0  0  0  0  0
  -21.8930   -4.3690   23.6810 C   0  0  0  0  0  3  0  0  0  0  0  0
  -22.0850   -5.1330   22.5170 C   0  0  0  0  0  0  0  0  0  0  0  0
  -22.5430   -4.5360   21.3900 F   0  0  0  0  0  0  0  0  0  0  0  0
  -21.2080   -4.2400   25.9660 F   0  0  0  0  0  0  0  0  0  0  0  0
  -23.2980  -13.7930   21.0760 C   0  0  0  0  0  0  0  0  0  0  0  0
  -22.5680  -13.1260   21.9660 N   0  0  0  0  0  0  0  0  0  0  0  0
  -22.8930  -14.8450   20.5820 O   0  0  0  0  0  0  0  0  0  0  0  0
  -22.9100  -12.2810   22.3970 H   0  0  0  0  0  0  0  0  0  0  0  0
  -21.6550  -13.4750   22.2230 H   0  0  0  0  0  0  0  0  0  0  0  0
  -25.9160  -15.3360   20.1100 N   0  0  0  0  0  0  0  0  0  0  0  0
  -25.1520  -15.9930   20.2110 H   0  0  0  0  0  0  0  0  0  0  0  0
  -26.7610  -15.7580   19.7550 H   0  0  0  0  0  0  0  0  0  0  0  0
  -30.2080  -22.4470   21.7980 C   0  0  0  0  0  2  0  0  0  0  0  0
  -27.9560  -23.5550   22.4060 C   0  0  0  0  0  1  0  0  0  0  0  0
  -29.0540  -23.4090   21.3400 C   0  0  0  0  0  3  0  0  0  0  0  0
  -29.5130  -24.8130   20.8910 C   0  0  0  0  0  0  0  0  0  0  0  0
  -30.4540  -25.3890   21.4480 O   0  0  0  0  0  0  0  0  0  0  0  0
  -28.7040  -25.4710   19.7530 C   0  0  0  0  0  2  0  0  0  0  0  0
  -28.6500  -26.8950   19.9130 O   0  0  0  0  0  0  0  0  0  0  0  0
  -24.5500  -31.7240   23.1020 C   0  0  0  0  0  0  0  0  0  0  0  0
  -27.4190  -27.5200   19.9030 C   0  0  0  0  0  0  0  0  0  0  0  0
  -23.4130  -30.3370   21.3960 C   0  0  0  0  0  3  0  0  0  0  0  0
  -24.9430  -28.9070   19.9390 C   0  0  0  0  0  0  0  0  0  0  0  0
  -25.9230  -30.8070   21.2400 C   0  0  0  0  0  2  0  0  0  0  0  0
  -26.0730  -29.4660   20.5500 C   0  0  0  0  0  0  0  0  0  0  0  0
  -27.3090  -28.7830   20.5250 C   0  0  0  0  0  3  0  0  0  0  0  0
  -26.2710  -26.9720   19.2830 C   0  0  0  0  0  3  0  0  0  0  0  0
  -25.0350  -27.6510   19.3110 C   0  0  0  0  0  3  0  0  0  0  0  0
  -23.6650  -29.7130   19.9940 C   0  0  0  0  0  2  0  0  0  0  0  0
  -24.6450  -30.9650   21.9730 N   0  0  0  0  0  0  0  0  0  0  0  0
  -23.4560  -31.9400   23.6390 O   0  0  0  0  0  0  0  0  0  0  0  0
  -22.7970  -29.2530   22.3140 C   0  0  0  0  0  0  0  0  0  0  0  0
  -21.4770  -29.0460   22.1910 N   0  0  0  0  0  0  0  0  0  0  0  0
  -23.5030  -28.6030   23.0910 O   0  0  0  0  0  0  0  0  0  0  0  0
  -20.9640  -29.6350   21.5490 H   0  0  0  0  0  0  0  0  0  0  0  0
  -18.1400  -27.7440   22.6520 C   0  0  0  0  0  0  0  0  0  0  0  0
  -20.6940  -28.0450   22.9130 C   0  0  0  0  0  3  0  0  0  0  0  0
  -20.8220  -26.6430   22.2630 C   0  0  0  0  0  2  0  0  0  0  0  0
  -19.7170  -26.3390   21.2510 C   0  0  0  0  0  2  0  0  0  0  0  0
  -18.3370  -26.4310   21.9090 C   0  0  0  0  0  2  0  0  0  0  0  0
  -19.2460  -28.5090   23.1070 C   0  0  0  0  0  0  0  0  0  0  0  0
  -19.0120  -29.7400   23.7590 C   0  0  0  0  0  3  0  0  0  0  0  0
  -17.7000  -30.2020   23.9680 C   0  0  0  0  0  3  0  0  0  0  0  0
  -16.6060  -29.4390   23.5300 C   0  0  0  0  0  3  0  0  0  0  0  0
  -16.8280  -28.2120   22.8750 C   0  0  0  0  0  3  0  0  0  0  0  0
  -25.8070  -32.3800   23.7530 C   0  0  0  0  0  3  0  0  0  0  0  0
  -25.4500  -33.7580   24.1110 N   0  0  0  0  0  0  0  0  0  0  0  0
  -25.7530  -34.8370   23.3770 C   0  0  0  0  0  0  0  0  0  0  0  0
  -26.4320  -34.7770   22.3460 O   0  0  0  0  0  0  0  0  0  0  0  0
  -24.8460  -33.8790   24.9110 H   0  0  0  0  0  0  0  0  0  0  0  0
  -23.9640  -36.5740   23.0480 C   0  0  0  0  0  1  0  0  0  0  0  0
  -25.2160  -36.1970   23.8580 C   0  0  0  0  0  3  0  0  0  0  0  0
  -27.3120  -37.1470   24.7160 C   0  0  0  0  0  1  0  0  0  0  0  0
  -26.2110  -37.2870   23.7670 N   0  0  0  0  0  0  0  0  0  0  0  0
  -25.7720  -38.1900   23.9190 H   0  0  0  0  0  0  0  0  0  0  0  0
  -26.3350  -31.5910   25.0150 C   0  0  1  0  0  0  0  0  0  0  0  0
  -25.2380  -31.2850   26.0600 C   0  0  0  0  0  1  0  0  0  0  0  0
  -26.9730  -30.2470   24.5930 C   0  0  0  0  0  1  0  0  0  0  0  0
  -27.4520  -32.4020   25.7110 C   0  0  0  0  0  1  0  0  0  0  0  0
  1  5  1  0
  3  1  2  0
  3  6  1  0
  4  2  1  0
  5 48  1  0
  5  2  2  0
  6  4  2  0
  9  7  1  6
  9  6  1  0
  9 18  1  0
  9  8  1  0
 10 18  1  0
 11 16  1  0
 12 13  1  0
 12 11  1  0
 14 13  1  0
 14 23  1  0
 14 15  1  0
 16 10  1  0
 16 15  1  0
 17 10  2  0
 18 19  1  0
 20 21  2  0
 21 40  1  0
 22 21  1  0
 22 25  1  0
 23 20  1  0
 23 24  1  0
 24 22  2  0
 25 26  1  0
 26 27  2  0
 28 31  1  0
 28 27  1  0
 29 28  2  0
 30 29  1  0
 30 25  2  0
 31 32  1  0
 32 37  2  0
 32 33  1  0
 33 34  2  0
 35 34  1  0
 35 39  1  0
 36 35  2  0
 37 36  1  0
 38 37  1  0
 40 41  1  0
 41 44  1  0
 41 43  1  0
 42 40  2  0
 45 46  1  0
 45 20  1  0
 47 45  1  0
 50 48  1  0
 50 49  1  0
 51 50  1  0
 51 52  2  0
 53 54  1  0
 53 51  1  0
 55 66  2  0
 56 54  1  0
 56 61  1  0
 57 65  1  0
 57 67  1  0
 58 64  1  0
 58 60  1  0
 59 65  1  0
 60 59  1  0
 61 60  2  0
 62 63  1  0
 62 56  2  0
 63 58  2  0
 64 57  1  0
 65 55  1  0
 67 69  2  0
 68 67  1  0
 70 68  1  0
 71 80  2  0
 71 76  1  0
 72 68  1  0
 72 76  1  0
 73 72  1  0
 74 75  1  0
 74 73  1  0
 75 71  1  0
 76 77  2  0
 77 78  1  0
 79 78  2  0
 80 79  1  0
 81 55  1  0
 81 82  1  0
 81 91  1  0
 82 85  1  0
 83 87  1  0
 83 82  1  0
 84 83  2  0
 87 86  1  0
 89 87  1  0
 89 90  1  0
 89 88  1  0
 91 94  1  1
 91 92  1  0
 93 91  1  0
M  ISO  4  10 100  18 100  53 101  54 101
M  END
>  <TORSDO>  (19) 
F 21

>  <SCORE>  (19) 
-12.829

>  <name>  (19) 
19

>  <ligand_id>  (19) 
19

>  <original_smiles>  (19) 
[H]c1c([H])c([H])c2c(c1[H])C([H])([H])C([H])([H])C([H])([H])C2([H])N([H])C(=O)C1([H])N(C(=O)C([H])(N([H])C(=O)C([H])(N([H])C([H])([H])[H])C([H])([H])[H])C(C([H])([H])[H])(C([H])([H])[H])C([H])([H])[H])C([H])([H])c2c([H])c(OC([H])([H])C(=O)C([H])(C([H])([H])[H])C([H])([H])c3c([H])c([H])c(C(N([H])C(=O)N4C([H])([H])C([H])([H])C([H])([H])C([H])(n5nc(-c6c([H])c([H])c(Oc7c([H])c([H])c(F)c([H])c7F)c([H])c6[H])c(C(=O)N([H])[H])c5N([H])[H])C4([H])[H])(C([H])([H])[H])C([H])([H])[H])c([H])c3[H])c([H])c([H])c2C1([H])[H]

>  <smiles>  (19) 
[H]c1c([H])c([H])c2c(c1[H])C([H])([H])C([H])([H])C([H])([H])C2([H])N([H])C(=O)C1([H])N(C(=O)C([H])(N([H])C(=O)C([H])(N([H])C([H])([H])[H])C([H])([H])[H])C(C([H])([H])[H])(C([H])([H])[H])C([H])([H])[H])C([H])([H])c2c([H])c(OC([H])([H])C(=O)C([H])(C([H])([H])[H])C([H])([H])c3c([H])c([H])c(C(N([H])C(=O)N4C([H])([H])C([H])([H])C([H])([H])C([H])(n5nc(-c6c([H])c([H])c(Oc7c([H])c([H])c(F)c([H])c7F)c([H])c6[H])c(C(=O)N([H])[H])c5N([H])[H])C4([H])[H])(C([H])([H])[H])C([H])([H])[H])c([H])c3[H])c([H])c([H])c2C1([H])[H]

$$$$
20:0:0
     RDKit          3D

104112  0  0  1  0  0  0  0  0999 V2000
  -23.8390  -19.7090   18.3900 C   0  0  0  0  0  2  0  0  0  0  0  0
  -25.8250  -18.2240   18.5810 C   0  0  0  0  0  2  0  0  0  0  0  0
  -24.7370  -20.9120   18.7190 C   0  0  0  0  0  2  0  0  0  0  0  0
  -26.7210  -19.4470   18.9020 C   0  0  0  0  0  3  0  0  0  0  0  0
  -24.3630  -18.4100   19.0170 C   0  0  0  0  0  3  0  0  0  0  0  0
  -26.1540  -20.7000   18.3140 N   0  0  2  0  0  4  0  0  0  0  0  0
  -26.1550  -20.5550   17.3150 H   0  0  0  0  0  0  0  0  0  0  0  0
  -28.1260  -19.1340   18.3590 C   0  0  0  0  0  0  0  0  0  0  0  0
  -29.1170  -19.0070   19.2420 N   0  0  0  0  0  0  0  0  0  0  0  0
  -28.3080  -19.0160   17.1460 O   0  0  0  0  0  0  0  0  0  0  0  0
  -28.9380  -19.1220   20.2330 H   0  0  0  0  0  0  0  0  0  0  0  0
  -30.4990  -18.7160   18.8850 C   0  0  0  0  0  2  0  0  0  0  0  0
  -31.2830  -18.3700   20.1480 C   0  0  0  0  0  0  0  0  0  0  0  0
  -30.8490  -18.6580   21.2700 O   0  0  0  0  0  0  0  0  0  0  0  0
  -32.6020  -17.6250   19.9620 C   0  0  0  0  0  2  0  0  0  0  0  0
  -32.7330  -16.3520   20.8250 C   0  0  0  0  0  2  0  0  0  0  0  0
  -31.8240  -14.5130   19.3850 C   0  0  0  0  0  0  0  0  0  0  0  0
  -31.2860  -12.2390   18.6050 C   0  0  0  0  0  2  0  0  0  0  0  0
  -30.1540  -12.1790   17.5680 C   0  0  0  0  0  2  0  0  0  0  0  0
  -28.7830  -12.1140   18.2650 C   0  0  0  0  0  2  0  0  0  0  0  0
  -28.6170  -13.2180   19.3390 C   0  0  0  0  0  3  0  0  0  0  0  0
  -29.8350  -13.2570   20.2870 C   0  0  0  0  0  2  0  0  0  0  0  0
  -31.0670  -13.3930   19.4830 N   0  0  0  0  0  0  0  0  0  0  0  0
  -32.6100  -14.7330   18.4590 O   0  0  0  0  0  0  0  0  0  0  0  0
  -31.7910  -15.2830   20.4790 N   0  0  0  0  0  0  0  0  0  0  0  0
  -31.1490  -14.9880   21.2020 H   0  0  0  0  0  0  0  0  0  0  0  0
  -26.5980  -14.0060   20.7280 C   0  0  0  0  0  0  0  0  0  0  0  0
  -25.4910  -13.3480   21.1930 C   0  0  0  0  0  0  0  0  0  0  0  0
  -25.6510  -11.9870   20.7940 C   0  0  0  0  0  0  0  0  0  0  0  0
  -27.3660  -13.0540   20.0780 N   0  0  0  0  0  0  0  0  0  0  0  0
  -26.8100  -11.8190   20.1710 N   0  0  0  0  0  0  0  0  0  0  0  0
  -24.7400  -10.8410   20.9210 C   0  0  0  0  0  0  0  0  0  0  0  0
  -25.0810   -9.7100   21.6940 C   0  0  0  0  0  3  0  0  0  0  0  0
  -24.1810   -8.6290   21.8150 C   0  0  0  0  0  3  0  0  0  0  0  0
  -22.9260   -8.6750   21.1630 C   0  0  0  0  0  0  0  0  0  0  0  0
  -22.6020   -9.7940   20.3770 C   0  0  0  0  0  3  0  0  0  0  0  0
  -23.5000  -10.8680   20.2540 C   0  0  0  0  0  3  0  0  0  0  0  0
  -22.0000   -7.6600   21.2030 O   0  0  0  0  0  0  0  0  0  0  0  0
  -21.8320   -6.8830   22.3200 C   0  0  0  0  0  0  0  0  0  0  0  0
  -21.3770   -7.4220   23.5430 C   0  0  0  0  0  3  0  0  0  0  0  0
  -21.1520   -6.5740   24.6460 C   0  0  0  0  0  3  0  0  0  0  0  0
  -21.3710   -5.1890   24.5260 C   0  0  0  0  0  0  0  0  0  0  0  0
  -21.8180   -4.6500   23.3080 C   0  0  0  0  0  3  0  0  0  0  0  0
  -22.0450   -5.4950   22.2070 C   0  0  0  0  0  0  0  0  0  0  0  0
  -22.4560   -4.9660   21.0280 F   0  0  0  0  0  0  0  0  0  0  0  0
  -21.1470   -4.3730   25.5830 F   0  0  0  0  0  0  0  0  0  0  0  0
  -24.3120  -13.9630   21.8880 C   0  0  0  0  0  0  0  0  0  0  0  0
  -23.6310  -13.1950   22.7320 N   0  0  0  0  0  0  0  0  0  0  0  0
  -24.0180  -15.1450   21.7240 O   0  0  0  0  0  0  0  0  0  0  0  0
  -23.8840  -12.2290   22.8820 H   0  0  0  0  0  0  0  0  0  0  0  0
  -22.8420  -13.5780   23.2350 H   0  0  0  0  0  0  0  0  0  0  0  0
  -27.0100  -15.3290   20.7940 N   0  0  0  0  0  0  0  0  0  0  0  0
  -26.4330  -16.0450   21.2150 H   0  0  0  0  0  0  0  0  0  0  0  0
  -27.8550  -15.6700   20.3580 H   0  0  0  0  0  0  0  0  0  0  0  0
  -26.9680  -21.9320   18.5560 C   0  0  0  0  0  2  0  0  0  0  0  0
  -27.0150  -22.8470   17.3180 C   0  0  0  0  0  2  0  0  0  0  0  0
  -27.5370  -24.2630   17.5860 C   0  0  0  0  0  2  0  0  0  0  0  0
  -27.3940  -25.1120   16.3160 C   0  0  0  0  0  2  0  0  0  0  0  0
  -27.7540  -26.5920   16.5060 C   0  0  0  0  0  2  0  0  0  0  0  0
  -27.4270  -27.4110   15.2470 C   0  0  0  0  0  2  0  0  0  0  0  0
  -26.0630  -27.2010   14.8870 O   0  0  0  0  0  0  0  0  0  0  0  0
  -24.8080  -27.8370   21.8630 C   0  0  0  0  0  0  0  0  0  0  0  0
  -25.1530  -27.3780   15.8970 C   0  0  0  0  0  0  0  0  0  0  0  0
  -22.8110  -27.5770   20.4230 C   0  0  0  0  0  3  0  0  0  0  0  0
  -23.2280  -27.7720   17.9140 C   0  0  0  0  0  0  0  0  0  0  0  0
  -24.9530  -28.6300   19.5120 C   0  0  0  0  0  2  0  0  0  0  0  0
  -24.5710  -28.0780   18.1580 C   0  0  0  0  0  0  0  0  0  0  0  0
  -25.5390  -27.8800   17.1570 C   0  0  0  0  0  3  0  0  0  0  0  0
  -23.7970  -27.0770   15.6550 C   0  0  0  0  0  3  0  0  0  0  0  0
  -22.8330  -27.2620   16.6630 C   0  0  0  0  0  3  0  0  0  0  0  0
  -22.2580  -28.0280   19.0430 C   0  0  0  0  0  2  0  0  0  0  0  0
  -24.2350  -27.9930   20.6370 N   0  0  0  0  0  0  0  0  0  0  0  0
  -24.1600  -27.3980   22.8220 O   0  0  0  0  0  0  0  0  0  0  0  0
  -22.5880  -26.0550   20.5640 C   0  0  0  0  0  0  0  0  0  0  0  0
  -21.3150  -25.6310   20.5180 N   0  0  0  0  0  0  0  0  0  0  0  0
  -23.5440  -25.2830   20.6790 O   0  0  0  0  0  0  0  0  0  0  0  0
  -20.5870  -26.3270   20.4280 H   0  0  0  0  0  0  0  0  0  0  0  0
  -18.5250  -23.4360   19.8530 C   0  0  0  0  0  0  0  0  0  0  0  0
  -20.8690  -24.2400   20.5890 C   0  0  0  0  0  3  0  0  0  0  0  0
  -21.4140  -23.4170   19.4010 C   0  0  0  0  0  2  0  0  0  0  0  0
  -20.4520  -23.3640   18.2110 C   0  0  0  0  0  2  0  0  0  0  0  0
  -19.1130  -22.7490   18.6310 C   0  0  0  0  0  2  0  0  0  0  0  0
  -19.3470  -24.1480   20.7640 C   0  0  0  0  0  0  0  0  0  0  0  0
  -18.7480  -24.8000   21.8640 C   0  0  0  0  0  3  0  0  0  0  0  0
  -17.3560  -24.7460   22.0610 C   0  0  0  0  0  3  0  0  0  0  0  0
  -16.5470  -24.0260   21.1650 C   0  0  0  0  0  3  0  0  0  0  0  0
  -17.1310  -23.3680   20.0680 C   0  0  0  0  0  3  0  0  0  0  0  0
  -26.2980  -28.2270   22.1230 C   0  0  0  0  0  3  0  0  0  0  0  0
  -26.3650  -28.8530   23.4500 N   0  0  0  0  0  0  0  0  0  0  0  0
  -26.5780  -30.1600   23.6620 C   0  0  0  0  0  0  0  0  0  0  0  0
  -26.8130  -30.9570   22.7500 O   0  0  0  0  0  0  0  0  0  0  0  0
  -26.1290  -28.2680   24.2370 H   0  0  0  0  0  0  0  0  0  0  0  0
  -25.2240  -31.4580   25.3370 C   0  0  0  0  0  1  0  0  0  0  0  0
  -26.5200  -30.6600   25.1170 C   0  0  0  0  0  3  0  0  0  0  0  0
  -28.9290  -30.7310   25.5920 C   0  0  0  0  0  1  0  0  0  0  0  0
  -27.6830  -31.4880   25.5050 N   0  0  0  0  0  0  0  0  0  0  0  0
  -27.5220  -31.9380   26.4020 H   0  0  0  0  0  0  0  0  0  0  0  0
  -27.2860  -27.0000   22.0340 C   0  0  1  0  0  0  0  0  0  0  0  0
  -26.8600  -25.7960   22.9050 C   0  0  0  0  0  1  0  0  0  0  0  0
  -27.4130  -26.5080   20.5720 C   0  0  0  0  0  1  0  0  0  0  0  0
  -28.7020  -27.4330   22.4810 C   0  0  0  0  0  1  0  0  0  0  0  0
  -23.4800  -17.2170   18.6030 C   0  0  0  0  0  2  0  0  0  0  0  0
  -22.2020  -15.1360   19.3010 C   0  0  0  0  0  1  0  0  0  0  0  0
  -23.2140  -16.2020   19.7280 C   0  0  0  0  0  2  0  0  0  0  0  0
  1  3  1  0
  1  5  1  0
  2  4  1  0
  2  5  1  0
  4  8  1  0
  5102  1  0
  6 55  1  0
  6  3  1  0
  6  4  1  0
  6  7  1  6
  8  9  1  0
  9 11  1  0
 10  8  2  0
 12  9  1  0
 12 13  1  0
 13 14  2  0
 15 13  1  0
 15 16  1  0
 17 23  1  0
 17 25  1  0
 18 23  1  0
 19 20  1  0
 19 18  1  0
 21 20  1  0
 21 30  1  0
 21 22  1  0
 23 22  1  0
 24 17  2  0
 25 16  1  0
 25 26  1  0
 27 52  1  0
 27 28  2  0
 28 47  1  0
 29 32  1  0
 29 28  1  0
 30 31  1  0
 30 27  1  0
 31 29  2  0
 32 33  1  0
 33 34  2  0
 35 38  1  0
 35 34  1  0
 36 35  2  0
 37 36  1  0
 37 32  2  0
 38 39  1  0
 39 40  1  0
 40 41  2  0
 42 41  1  0
 42 46  1  0
 43 42  2  0
 44 39  2  0
 44 43  1  0
 45 44  1  0
 47 48  1  0
 48 50  1  0
 48 51  1  0
 49 47  2  0
 52 53  1  0
 54 52  1  0
 56 57  1  0
 56 55  1  0
 58 59  1  0
 58 57  1  0
 60 59  1  0
 61 60  1  0
 61 63  1  0
 62 73  2  0
 63 68  1  0
 64 74  1  0
 64 72  1  0
 65 67  1  0
 65 71  1  0
 66 72  1  0
 67 66  1  0
 68 67  2  0
 69 63  2  0
 69 70  1  0
 70 65  2  0
 71 64  1  0
 72 62  1  0
 74 76  2  0
 75 74  1  0
 77 75  1  0
 78 87  2  0
 78 83  1  0
 79 75  1  0
 79 83  1  0
 80 79  1  0
 81 82  1  0
 81 80  1  0
 82 78  1  0
 83 84  2  0
 84 85  1  0
 86 85  2  0
 87 86  1  0
 88 62  1  0
 88 89  1  0
 89 90  1  0
 89 92  1  0
 90 94  1  0
 91 90  2  0
 94 93  1  0
 94 96  1  0
 96 95  1  0
 96 97  1  0
 98 88  1  0
 98101  1  1
 98 99  1  0
100 98  1  0
102104  1  0
103104  1  0
M  ISO  4  17 100  25 100  60 101  61 101
M  END
>  <TORSDO>  (20) 
F 29

>  <SCORE>  (20) 
1.170

>  <name>  (20) 
20

>  <ligand_id>  (20) 
20

>  <original_smiles>  (20) 
[H]c1c([H])c([H])c2c(c1[H])C([H])([H])C([H])([H])C([H])([H])C2([H])N([H])C(=O)C1([H])N(C(=O)C([H])(N([H])C(=O)C([H])(N([H])C([H])([H])[H])C([H])([H])[H])C(C([H])([H])[H])(C([H])([H])[H])C([H])([H])[H])C([H])([H])c2c([H])c(OC([H])([H])C([H])([H])C([H])([H])C([H])([H])C([H])([H])C([H])([H])[N+]3([H])C([H])([H])C([H])([H])C([H])(C([H])([H])C([H])([H])C([H])([H])[H])C([H])([H])C3([H])C(=O)N([H])C([H])([H])C(=O)C([H])([H])C([H])([H])N([H])C(=O)N3C([H])([H])C([H])([H])C([H])([H])C([H])(n4nc(-c5c([H])c([H])c(Oc6c([H])c([H])c(F)c([H])c6F)c([H])c5[H])c(C(=O)N([H])[H])c4N([H])[H])C3([H])[H])c([H])c([H])c2C1([H])[H]

>  <smiles>  (20) 
[H]c1c([H])c([H])c2c(c1[H])C([H])([H])C([H])([H])C([H])([H])C2([H])N([H])C(=O)C1([H])N(C(=O)C([H])(N([H])C(=O)C([H])(N([H])C([H])([H])[H])C([H])([H])[H])C(C([H])([H])[H])(C([H])([H])[H])C([H])([H])[H])C([H])([H])c2c([H])c(OC([H])([H])C([H])([H])C([H])([H])C([H])([H])C([H])([H])C([H])([H])[N+]3([H])C([H])([H])C([H])([H])C([H])(C([H])([H])C([H])([H])C([H])([H])[H])C([H])([H])C3([H])C(=O)N([H])C([H])([H])C(=O)C([H])([H])C([H])([H])N([H])C(=O)N3C([H])([H])C([H])([H])C([H])([H])C([H])(n4nc(-c5c([H])c([H])c(Oc6c([H])c([H])c(F)c([H])c6F)c([H])c5[H])c(C(=O)N([H])[H])c4N([H])[H])C3([H])[H])c([H])c([H])c2C1([H])[H]

$$$$
21:0:0
     RDKit          3D

 92 99  0  0  1  0  0  0  0  0999 V2000
  -28.4540  -20.7880   20.8520 N   0  0  0  0  0  4  0  0  0  0  0  0
  -29.3750  -20.7460   20.4410 H   0  0  0  0  0  0  0  0  0  0  0  0
  -28.5620  -20.7070   21.8510 H   0  0  0  0  0  0  0  0  0  0  0  0
  -27.8380  -22.1040   20.5700 C   0  0  0  0  0  2  0  0  0  0  0  0
  -28.8760  -23.2140   20.3090 C   0  0  0  0  0  2  0  0  0  0  0  0
  -28.2690  -24.6260   20.4310 C   0  0  0  0  0  2  0  0  0  0  0  0
  -29.0600  -25.7110   19.6680 C   0  0  0  0  0  2  0  0  0  0  0  0
  -28.9320  -27.0060   20.2600 O   0  0  0  0  0  0  0  0  0  0  0  0
  -24.8580  -31.7680   23.5780 C   0  0  0  0  0  0  0  0  0  0  0  0
  -27.7210  -27.6640   20.2410 C   0  0  0  0  0  0  0  0  0  0  0  0
  -23.7490  -30.4960   21.7690 C   0  0  0  0  0  3  0  0  0  0  0  0
  -25.2910  -29.1120   20.2810 C   0  0  0  0  0  0  0  0  0  0  0  0
  -26.2720  -30.9140   21.7120 C   0  0  0  0  0  2  0  0  0  0  0  0
  -26.4090  -29.6060   20.9620 C   0  0  0  0  0  0  0  0  0  0  0  0
  -27.6230  -28.8870   20.9400 C   0  0  0  0  0  3  0  0  0  0  0  0
  -26.5820  -27.1840   19.5510 C   0  0  0  0  0  3  0  0  0  0  0  0
  -25.3700  -27.8990   19.5770 C   0  0  0  0  0  3  0  0  0  0  0  0
  -24.0290  -29.9420   20.3450 C   0  0  0  0  0  2  0  0  0  0  0  0
  -24.9760  -31.0680   22.4140 N   0  0  0  0  0  0  0  0  0  0  0  0
  -23.7510  -31.9750   24.0930 O   0  0  0  0  0  0  0  0  0  0  0  0
  -23.0800  -29.3830   22.6060 C   0  0  0  0  0  0  0  0  0  0  0  0
  -21.7720  -29.1730   22.3840 N   0  0  0  0  0  0  0  0  0  0  0  0
  -23.7350  -28.7160   23.4110 O   0  0  0  0  0  0  0  0  0  0  0  0
  -21.3060  -29.7660   21.7120 H   0  0  0  0  0  0  0  0  0  0  0  0
  -18.4180  -27.8460   22.5700 C   0  0  0  0  0  0  0  0  0  0  0  0
  -20.9430  -28.1560   23.0290 C   0  0  0  0  0  3  0  0  0  0  0  0
  -21.1310  -26.7770   22.3570 C   0  0  0  0  0  2  0  0  0  0  0  0
  -20.1080  -26.5000   21.2500 C   0  0  0  0  0  2  0  0  0  0  0  0
  -18.6840  -26.5570   21.8100 C   0  0  0  0  0  2  0  0  0  0  0  0
  -19.4810  -28.6040   23.1280 C   0  0  0  0  0  0  0  0  0  0  0  0
  -19.1820  -29.8140   23.7940 C   0  0  0  0  0  3  0  0  0  0  0  0
  -17.8540  -30.2650   23.9080 C   0  0  0  0  0  3  0  0  0  0  0  0
  -16.8050  -29.5010   23.3680 C   0  0  0  0  0  3  0  0  0  0  0  0
  -17.0870  -28.2920   22.7060 C   0  0  0  0  0  3  0  0  0  0  0  0
  -26.1060  -32.3610   24.3050 C   0  0  0  0  0  3  0  0  0  0  0  0
  -26.5310  -31.5380   25.5830 C   0  0  1  0  0  0  0  0  0  0  0  0
  -25.3620  -31.2550   26.5570 C   0  0  0  0  0  1  0  0  0  0  0  0
  -27.1460  -30.1790   25.1770 C   0  0  0  0  0  1  0  0  0  0  0  0
  -27.6270  -32.3040   26.3600 C   0  0  0  0  0  1  0  0  0  0  0  0
  -25.7910  -33.7490   24.6630 N   0  0  0  0  0  0  0  0  0  0  0  0
  -26.1930  -34.8220   23.9680 C   0  0  0  0  0  0  0  0  0  0  0  0
  -26.9390  -34.7450   22.9880 O   0  0  0  0  0  0  0  0  0  0  0  0
  -25.1410  -33.8850   25.4230 H   0  0  0  0  0  0  0  0  0  0  0  0
  -24.5130  -36.6440   23.5460 C   0  0  0  0  0  1  0  0  0  0  0  0
  -25.6870  -36.2000   24.4350 C   0  0  0  0  0  3  0  0  0  0  0  0
  -27.7630  -37.0290   25.4480 C   0  0  0  0  0  1  0  0  0  0  0  0
  -26.7350  -37.2430   24.4330 N   0  0  0  0  0  0  0  0  0  0  0  0
  -26.3290  -38.1620   24.5840 H   0  0  0  0  0  0  0  0  0  0  0  0
  -27.6740  -19.6320   20.3430 C   0  0  0  0  0  2  0  0  0  0  0  0
  -28.0680  -18.2620   20.9510 C   0  0  0  0  0  2  0  0  0  0  0  0
  -29.4640  -17.7480   20.5910 C   0  0  0  0  0  0  0  0  0  0  0  0
  -30.1830  -18.3570   19.7920 O   0  0  0  0  0  0  0  0  0  0  0  0
  -29.9290  -16.4600   21.2880 C   0  0  0  0  0  2  0  0  0  0  0  0
  -31.4560  -16.2040   21.2710 C   0  0  0  0  0  2  0  0  0  0  0  0
  -32.5500  -14.1920   20.3040 C   0  0  0  0  0  0  0  0  0  0  0  0
  -32.2660  -11.7470   20.2590 C   0  0  0  0  0  2  0  0  0  0  0  0
  -31.4810  -11.3420   18.9950 C   0  0  0  0  0  2  0  0  0  0  0  0
  -29.9630  -11.4100   19.2460 C   0  0  0  0  0  2  0  0  0  0  0  0
  -29.5240  -12.7440   19.9080 C   0  0  0  0  0  3  0  0  0  0  0  0
  -30.4280  -13.0730   21.1150 C   0  0  0  0  0  2  0  0  0  0  0  0
  -31.8250  -13.0940   20.6510 N   0  0  0  0  0  0  0  0  0  0  0  0
  -33.6990  -14.1330   19.8600 O   0  0  0  0  0  0  0  0  0  0  0  0
  -31.8700  -15.3340   20.1690 N   0  0  0  0  0  0  0  0  0  0  0  0
  -32.2480  -15.8870   19.4130 H   0  0  0  0  0  0  0  0  0  0  0  0
  -27.2140  -13.7690   20.3980 C   0  0  0  0  0  0  0  0  0  0  0  0
  -26.0090  -13.1990   20.7090 C   0  0  0  0  0  0  0  0  0  0  0  0
  -26.2410  -11.7900   20.7630 C   0  0  0  0  0  0  0  0  0  0  0  0
  -28.1120  -12.7190   20.2820 N   0  0  0  0  0  0  0  0  0  0  0  0
  -27.5240  -11.5270   20.5570 N   0  0  0  0  0  0  0  0  0  0  0  0
  -25.3050  -10.6730   20.9420 C   0  0  0  0  0  0  0  0  0  0  0  0
  -25.4440   -9.7570   22.0080 C   0  0  0  0  0  3  0  0  0  0  0  0
  -24.5230   -8.7000   22.1690 C   0  0  0  0  0  3  0  0  0  0  0  0
  -23.4450   -8.5530   21.2630 C   0  0  0  0  0  0  0  0  0  0  0  0
  -23.3230   -9.4550   20.1900 C   0  0  0  0  0  3  0  0  0  0  0  0
  -24.2460  -10.5020   20.0280 C   0  0  0  0  0  3  0  0  0  0  0  0
  -22.5170   -7.5420   21.3250 O   0  0  0  0  0  0  0  0  0  0  0  0
  -22.1250   -6.9980   22.5220 C   0  0  0  0  0  0  0  0  0  0  0  0
  -21.5550   -7.7850   23.5470 C   0  0  0  0  0  3  0  0  0  0  0  0
  -21.1020   -7.1740   24.7340 C   0  0  0  0  0  3  0  0  0  0  0  0
  -21.2100   -5.7800   24.8950 C   0  0  0  0  0  0  0  0  0  0  0  0
  -21.7730   -4.9940   23.8720 C   0  0  0  0  0  3  0  0  0  0  0  0
  -22.2260   -5.6030   22.6890 C   0  0  0  0  0  0  0  0  0  0  0  0
  -22.7470   -4.8390   21.6980 F   0  0  0  0  0  0  0  0  0  0  0  0
  -20.7690   -5.1910   26.0310 F   0  0  0  0  0  0  0  0  0  0  0  0
  -24.6930  -13.9090   20.8530 C   0  0  0  0  0  0  0  0  0  0  0  0
  -23.8060  -13.3890   21.6940 N   0  0  0  0  0  0  0  0  0  0  0  0
  -24.4630  -14.9580   20.2540 O   0  0  0  0  0  0  0  0  0  0  0  0
  -24.0050  -12.5380   22.2010 H   0  0  0  0  0  0  0  0  0  0  0  0
  -22.9140  -13.8450   21.8320 H   0  0  0  0  0  0  0  0  0  0  0  0
  -27.6150  -15.0840   20.1840 N   0  0  0  0  0  0  0  0  0  0  0  0
  -26.9450  -15.8430   20.1510 H   0  0  0  0  0  0  0  0  0  0  0  0
  -28.5310  -15.3430   19.8400 H   0  0  0  0  0  0  0  0  0  0  0  0
  1  3  1  0
  2  1  1  0
  4  1  1  0
  5  6  1  0
  5  4  1  0
  7  8  1  0
  7  6  1  0
  9 20  2  0
 10  8  1  0
 10 15  1  0
 11 19  1  0
 11 21  1  0
 12 18  1  0
 12 14  1  0
 13 19  1  0
 14 13  1  0
 15 14  2  0
 16 17  1  0
 16 10  2  0
 17 12  2  0
 18 11  1  0
 19  9  1  0
 21 23  2  0
 22 21  1  0
 24 22  1  0
 25 34  2  0
 25 30  1  0
 26 22  1  0
 26 30  1  0
 27 26  1  0
 28 29  1  0
 28 27  1  0
 29 25  1  0
 30 31  2  0
 31 32  1  0
 33 32  2  0
 34 33  1  0
 35  9  1  0
 35 40  1  0
 35 36  1  0
 36 39  1  1
 36 37  1  0
 38 36  1  0
 40 43  1  0
 41 45  1  0
 41 40  1  0
 42 41  2  0
 45 44  1  0
 47 45  1  0
 47 48  1  0
 47 46  1  0
 49  1  1  0
 49 50  1  0
 51 50  1  0
 51 53  1  0
 52 51  2  0
 54 53  1  0
 55 61  1  0
 56 61  1  0
 57 58  1  0
 57 56  1  0
 59 58  1  0
 59 68  1  0
 59 60  1  0
 61 60  1  0
 62 55  2  0
 63 55  1  0
 63 54  1  0
 64 63  1  0
 65 66  2  0
 66 67  1  0
 66 85  1  0
 67 70  1  0
 68 65  1  0
 68 69  1  0
 69 67  2  0
 70 71  1  0
 71 72  2  0
 73 76  1  0
 73 72  1  0
 74 73  2  0
 75 74  1  0
 75 70  2  0
 76 77  1  0
 77 82  2  0
 77 78  1  0
 78 79  2  0
 79 80  1  0
 80 84  1  0
 81 80  2  0
 82 81  1  0
 83 82  1  0
 85 86  1  0
 86 89  1  0
 86 88  1  0
 87 85  2  0
 90 65  1  0
 91 90  1  0
 92 90  1  0
M  ISO  4   7 101   8 101  55 100  63 100
M  END
>  <TORSDO>  (21) 
F 25

>  <SCORE>  (21) 
-9.596

>  <name>  (21) 
21

>  <ligand_id>  (21) 
21

>  <original_smiles>  (21) 
[H]c1c([H])c([H])c2c(c1[H])C([H])([H])C([H])([H])C([H])([H])C2([H])N([H])C(=O)C1([H])N(C(=O)C([H])(N([H])C(=O)C([H])(N([H])C([H])([H])[H])C([H])([H])[H])C(C([H])([H])[H])(C([H])([H])[H])C([H])([H])[H])C([H])([H])c2c([H])c(OC([H])([H])C([H])([H])C([H])([H])C([H])([H])[N+]([H])([H])C([H])([H])C([H])([H])C(=O)C([H])([H])C([H])([H])N([H])C(=O)N3C([H])([H])C([H])([H])C([H])([H])C([H])(n4nc(-c5c([H])c([H])c(Oc6c([H])c([H])c(F)c([H])c6F)c([H])c5[H])c(C(=O)N([H])[H])c4N([H])[H])C3([H])[H])c([H])c([H])c2C1([H])[H]

>  <smiles>  (21) 
[H]c1c([H])c([H])c2c(c1[H])C([H])([H])C([H])([H])C([H])([H])C2([H])N([H])C(=O)C1([H])N(C(=O)C([H])(N([H])C(=O)C([H])(N([H])C([H])([H])[H])C([H])([H])[H])C(C([H])([H])[H])(C([H])([H])[H])C([H])([H])[H])C([H])([H])c2c([H])c(OC([H])([H])C([H])([H])C([H])([H])C([H])([H])[N+]([H])([H])C([H])([H])C([H])([H])C(=O)C([H])([H])C([H])([H])N([H])C(=O)N3C([H])([H])C([H])([H])C([H])([H])C([H])(n4nc(-c5c([H])c([H])c(Oc6c([H])c([H])c(F)c([H])c6F)c([H])c5[H])c(C(=O)N([H])[H])c4N([H])[H])C3([H])[H])c([H])c([H])c2C1([H])[H]

$$$$
22:0:0
     RDKit          3D

 93101  0  0  1  0  0  0  0  0999 V2000
  -31.2830  -19.7290   21.0900 C   0  0  0  0  0  0  0  0  0  0  0  0
  -30.9290  -20.7530   20.2860 N   0  0  0  0  0  0  0  0  0  0  0  0
  -32.0100  -19.8500   22.0760 O   0  0  0  0  0  0  0  0  0  0  0  0
  -30.3490  -20.4800   19.5040 H   0  0  0  0  0  0  0  0  0  0  0  0
  -31.1860  -14.5400   20.6860 C   0  0  0  0  0  0  0  0  0  0  0  0
  -30.8260  -12.2230   19.8950 C   0  0  0  0  0  2  0  0  0  0  0  0
  -30.0310  -12.1880   18.5770 C   0  0  0  0  0  2  0  0  0  0  0  0
  -28.5210  -12.0860   18.8770 C   0  0  0  0  0  2  0  0  0  0  0  0
  -28.0440  -13.1480   19.8950 C   0  0  0  0  0  3  0  0  0  0  0  0
  -29.0010  -13.2720   21.1150 C   0  0  0  0  0  2  0  0  0  0  0  0
  -30.3910  -13.4210   20.6400 N   0  0  0  0  0  0  0  0  0  0  0  0
  -32.4040  -14.4710   20.5480 O   0  0  0  0  0  0  0  0  0  0  0  0
  -28.5960  -17.0580   20.1110 C   0  0  0  0  0  2  0  0  0  0  0  0
  -29.7260  -16.1410   19.5860 C   0  0  0  0  0  2  0  0  0  0  0  0
  -31.3360  -17.0230   21.1610 C   0  0  0  0  0  2  0  0  0  0  0  0
  -30.6600  -18.3730   20.6770 C   0  0  0  0  0  3  0  0  0  0  0  0
  -29.1320  -18.2510   20.9470 C   0  0  0  0  0  3  0  0  0  0  0  0
  -30.6120  -15.7840   20.6970 N   0  0  0  0  0  0  0  0  0  0  0  0
  -25.6370  -13.9370   20.2810 C   0  0  0  0  0  0  0  0  0  0  0  0
  -24.5010  -13.2570   20.5990 C   0  0  0  0  0  0  0  0  0  0  0  0
  -24.8940  -11.8920   20.7510 C   0  0  0  0  0  0  0  0  0  0  0  0
  -26.6550  -12.9910   20.2720 N   0  0  0  0  0  0  0  0  0  0  0  0
  -26.2050  -11.7600   20.6110 N   0  0  0  0  0  0  0  0  0  0  0  0
  -24.0910  -10.6880   20.9590 C   0  0  0  0  0  0  0  0  0  0  0  0
  -24.4790   -9.6980   21.8880 C   0  0  0  0  0  3  0  0  0  0  0  0
  -23.6820   -8.5540   22.0850 C   0  0  0  0  0  3  0  0  0  0  0  0
  -22.4810   -8.3920   21.3540 C   0  0  0  0  0  0  0  0  0  0  0  0
  -22.1130   -9.3680   20.4120 C   0  0  0  0  0  3  0  0  0  0  0  0
  -22.9110  -10.5040   20.2130 C   0  0  0  0  0  3  0  0  0  0  0  0
  -21.6550   -7.3040   21.4640 O   0  0  0  0  0  0  0  0  0  0  0  0
  -21.6740   -6.4990   22.5750 C   0  0  0  0  0  0  0  0  0  0  0  0
  -21.4700   -7.0130   23.8740 C   0  0  0  0  0  3  0  0  0  0  0  0
  -21.4340   -6.1420   24.9820 C   0  0  0  0  0  3  0  0  0  0  0  0
  -21.5940   -4.7560   24.7910 C   0  0  0  0  0  0  0  0  0  0  0  0
  -21.7890   -4.2410   23.4960 C   0  0  0  0  0  3  0  0  0  0  0  0
  -21.8270   -5.1110   22.3910 C   0  0  0  0  0  0  0  0  0  0  0  0
  -21.9950   -4.6070   21.1460 F   0  0  0  0  0  0  0  0  0  0  0  0
  -21.5430   -3.9170   25.8510 F   0  0  0  0  0  0  0  0  0  0  0  0
  -23.1110  -13.8190   20.6560 C   0  0  0  0  0  0  0  0  0  0  0  0
  -22.2800  -13.3070   21.5570 N   0  0  0  0  0  0  0  0  0  0  0  0
  -22.7720  -14.7620   19.9380 O   0  0  0  0  0  0  0  0  0  0  0  0
  -22.5640  -12.5540   22.1650 H   0  0  0  0  0  0  0  0  0  0  0  0
  -21.3440  -13.6750   21.6480 H   0  0  0  0  0  0  0  0  0  0  0  0
  -25.8730  -15.2710   19.9620 N   0  0  0  0  0  0  0  0  0  0  0  0
  -25.1300  -15.9570   19.8890 H   0  0  0  0  0  0  0  0  0  0  0  0
  -26.7720  -15.6410   19.6920 H   0  0  0  0  0  0  0  0  0  0  0  0
  -26.8310  -19.2780   20.3160 C   0  0  0  0  0  1  0  0  0  0  0  0
  -28.2800  -19.5340   20.7510 C   0  0  0  0  0  2  0  0  0  0  0  0
  -31.0930  -22.1990   20.4420 C   0  0  0  0  0  2  0  0  0  0  0  0
  -29.7480  -22.9080   20.1220 C   0  0  0  0  0  2  0  0  0  0  0  0
  -29.8080  -24.4570   20.1120 C   0  0  0  0  0  2  0  0  0  0  0  0
  -28.4310  -25.1310   19.8870 C   0  0  0  0  0  2  0  0  0  0  0  0
  -28.5490  -26.5600   19.7360 O   0  0  0  0  0  0  0  0  0  0  0  0
  -24.7110  -31.6330   22.9380 C   0  0  0  0  0  0  0  0  0  0  0  0
  -27.3700  -27.2860   19.7290 C   0  0  0  0  0  0  0  0  0  0  0  0
  -23.4980  -30.2340   21.3010 C   0  0  0  0  0  3  0  0  0  0  0  0
  -24.9480  -28.7600   19.8080 C   0  0  0  0  0  0  0  0  0  0  0  0
  -26.0080  -30.6560   21.0410 C   0  0  0  0  0  2  0  0  0  0  0  0
  -26.1100  -29.2960   20.3760 C   0  0  0  0  0  0  0  0  0  0  0  0
  -27.3230  -28.5690   20.3270 C   0  0  0  0  0  3  0  0  0  0  0  0
  -26.1870  -26.7770   19.1470 C   0  0  0  0  0  3  0  0  0  0  0  0
  -24.9850  -27.5020   19.1870 C   0  0  0  0  0  3  0  0  0  0  0  0
  -23.6850  -29.5880   19.9040 C   0  0  0  0  0  2  0  0  0  0  0  0
  -24.7600  -30.8570   21.8180 N   0  0  0  0  0  0  0  0  0  0  0  0
  -23.6370  -31.8710   23.5090 O   0  0  0  0  0  0  0  0  0  0  0  0
  -22.8960  -29.1780   22.2580 C   0  0  0  0  0  0  0  0  0  0  0  0
  -21.5660  -28.9980   22.1890 N   0  0  0  0  0  0  0  0  0  0  0  0
  -23.6200  -28.5300   23.0180 O   0  0  0  0  0  0  0  0  0  0  0  0
  -21.0440  -29.5730   21.5410 H   0  0  0  0  0  0  0  0  0  0  0  0
  -18.2330  -27.7170   22.7370 C   0  0  0  0  0  0  0  0  0  0  0  0
  -20.7870  -28.0340   22.9670 C   0  0  0  0  0  3  0  0  0  0  0  0
  -20.9150  -26.6100   22.3760 C   0  0  0  0  0  2  0  0  0  0  0  0
  -19.8030  -26.2690   21.3810 C   0  0  0  0  0  2  0  0  0  0  0  0
  -18.4290  -26.3770   22.0480 C   0  0  0  0  0  2  0  0  0  0  0  0
  -19.3400  -28.5020   23.1530 C   0  0  0  0  0  0  0  0  0  0  0  0
  -19.0990  -29.7550   23.7560 C   0  0  0  0  0  3  0  0  0  0  0  0
  -17.7850  -30.2230   23.9490 C   0  0  0  0  0  3  0  0  0  0  0  0
  -16.6930  -29.4330   23.5490 C   0  0  0  0  0  3  0  0  0  0  0  0
  -16.9180  -28.1820   22.9480 C   0  0  0  0  0  3  0  0  0  0  0  0
  -25.9970  -32.2860   23.5360 C   0  0  0  0  0  3  0  0  0  0  0  0
  -25.6460  -33.6470   23.9650 N   0  0  0  0  0  0  0  0  0  0  0  0
  -26.0200  -34.7650   23.3280 C   0  0  0  0  0  0  0  0  0  0  0  0
  -26.7700  -34.7560   22.3480 O   0  0  0  0  0  0  0  0  0  0  0  0
  -24.9930  -33.7280   24.7310 H   0  0  0  0  0  0  0  0  0  0  0  0
  -24.3290  -36.5880   22.9720 C   0  0  0  0  0  1  0  0  0  0  0  0
  -25.4810  -36.1040   23.8660 C   0  0  0  0  0  3  0  0  0  0  0  0
  -27.5080  -36.8960   25.0020 C   0  0  0  0  0  1  0  0  0  0  0  0
  -26.5150  -37.1570   23.9630 N   0  0  0  0  0  0  0  0  0  0  0  0
  -26.0910  -38.0630   24.1520 H   0  0  0  0  0  0  0  0  0  0  0  0
  -26.6060  -31.4640   24.7370 C   0  0  1  0  0  0  0  0  0  0  0  0
  -25.5830  -31.1280   25.8470 C   0  0  0  0  0  1  0  0  0  0  0  0
  -27.2080  -30.1330   24.2290 C   0  0  0  0  0  1  0  0  0  0  0  0
  -27.7700  -32.2580   25.3760 C   0  0  0  0  0  1  0  0  0  0  0  0
  1  3  2  0
  2 49  1  0
  2  1  1  0
  4  2  1  0
  5 18  1  0
  6 11  1  0
  7  8  1  0
  7  6  1  0
  9  8  1  0
  9 22  1  0
  9 10  1  0
 11  5  1  0
 11 10  1  0
 12  5  2  0
 13 17  1  0
 14 13  1  0
 14 18  1  0
 16 17  1  0
 16  1  1  0
 16 15  1  0
 17 48  1  0
 18 15  1  0
 19 20  2  0
 20 39  1  0
 20 21  1  0
 21 24  1  0
 22 19  1  0
 22 23  1  0
 23 21  2  0
 24 25  1  0
 25 26  2  0
 27 30  1  0
 27 26  1  0
 28 27  2  0
 29 28  1  0
 29 24  2  0
 30 31  1  0
 31 32  1  0
 32 33  2  0
 34 33  1  0
 34 38  1  0
 35 34  2  0
 36 31  2  0
 36 35  1  0
 37 36  1  0
 39 40  1  0
 40 43  1  0
 40 42  1  0
 41 39  2  0
 44 19  1  0
 45 44  1  0
 46 44  1  0
 47 48  1  0
 50 49  1  0
 51 50  1  0
 52 51  1  0
 53 52  1  0
 54 65  2  0
 55 53  1  0
 55 60  1  0
 56 64  1  0
 56 66  1  0
 57 63  1  0
 57 59  1  0
 58 64  1  0
 59 58  1  0
 60 59  2  0
 61 62  1  0
 61 55  2  0
 62 57  2  0
 63 56  1  0
 64 54  1  0
 66 68  2  0
 67 66  1  0
 69 67  1  0
 70 79  2  0
 70 75  1  0
 71 67  1  0
 71 75  1  0
 72 71  1  0
 73 74  1  0
 73 72  1  0
 74 70  1  0
 75 76  2  0
 76 77  1  0
 78 77  2  0
 79 78  1  0
 80 54  1  0
 80 81  1  0
 80 90  1  0
 81 84  1  0
 82 86  1  0
 82 81  1  0
 83 82  2  0
 86 85  1  0
 86 88  1  0
 88 89  1  0
 88 87  1  0
 90 93  1  1
 90 91  1  0
 92 90  1  0
M  ISO  4   5 100  18 100  52 101  53 101
M  END
>  <TORSDO>  (22) 
F 21

>  <SCORE>  (22) 
-11.535

>  <name>  (22) 
22

>  <ligand_id>  (22) 
22

>  <original_smiles>  (22) 
[H]c1c([H])c([H])c2c(c1[H])C([H])([H])C([H])([H])C([H])([H])C2([H])N([H])C(=O)C1([H])N(C(=O)C([H])(N([H])C(=O)C([H])(N([H])C([H])([H])[H])C([H])([H])[H])C(C([H])([H])[H])(C([H])([H])[H])C([H])([H])[H])C([H])([H])c2c([H])c(OC([H])([H])C([H])([H])C([H])([H])C([H])([H])N([H])C(=O)C3([H])C([H])([H])N(C(=O)N4C([H])([H])C([H])([H])C([H])([H])C([H])(n5nc(-c6c([H])c([H])c(Oc7c([H])c([H])c(F)c([H])c7F)c([H])c6[H])c(C(=O)N([H])[H])c5N([H])[H])C4([H])[H])C([H])([H])C([H])([H])C3([H])C([H])([H])C([H])([H])[H])c([H])c([H])c2C1([H])[H]

>  <smiles>  (22) 
[H]c1c([H])c([H])c2c(c1[H])C([H])([H])C([H])([H])C([H])([H])C2([H])N([H])C(=O)C1([H])N(C(=O)C([H])(N([H])C(=O)C([H])(N([H])C([H])([H])[H])C([H])([H])[H])C(C([H])([H])[H])(C([H])([H])[H])C([H])([H])[H])C([H])([H])c2c([H])c(OC([H])([H])C([H])([H])C([H])([H])C([H])([H])N([H])C(=O)C3([H])C([H])([H])N(C(=O)N4C([H])([H])C([H])([H])C([H])([H])C([H])(n5nc(-c6c([H])c([H])c(Oc7c([H])c([H])c(F)c([H])c7F)c([H])c6[H])c(C(=O)N([H])[H])c5N([H])[H])C4([H])[H])C([H])([H])C([H])([H])C3([H])C([H])([H])C([H])([H])[H])c([H])c([H])c2C1([H])[H]

$$$$
23:0:0
     RDKit          3D

 93101  0  0  1  0  0  0  0  0999 V2000
  -29.7210  -19.1840   21.2550 C   0  0  0  0  0  2  0  0  0  0  0  0
  -30.8200  -18.2350   21.7620 C   0  0  0  0  0  0  0  0  0  0  0  0
  -31.8290  -18.6710   22.3250 O   0  0  0  0  0  0  0  0  0  0  0  0
  -30.7750  -14.3610   18.7030 C   0  0  0  0  0  0  0  0  0  0  0  0
  -29.8430  -12.5230   17.3440 C   0  0  0  0  0  2  0  0  0  0  0  0
  -28.5260  -12.9030   16.6450 C   0  0  0  0  0  2  0  0  0  0  0  0
  -27.3280  -12.6380   17.5700 C   0  0  0  0  0  2  0  0  0  0  0  0
  -27.5180  -13.2690   18.9740 C   0  0  0  0  0  3  0  0  0  0  0  0
  -28.8990  -12.9020   19.5600 C   0  0  0  0  0  2  0  0  0  0  0  0
  -29.9520  -13.2840   18.5960 N   0  0  0  0  0  0  0  0  0  0  0  0
  -31.3470  -14.8680   17.7300 O   0  0  0  0  0  0  0  0  0  0  0  0
  -31.3260  -15.8790   22.6300 C   0  0  0  0  0  2  0  0  0  0  0  0
  -31.1560  -16.2930   20.1480 C   0  0  0  0  0  2  0  0  0  0  0  0
  -31.6840  -14.0410   20.9350 C   0  0  0  0  0  2  0  0  0  0  0  0
  -30.6300  -16.7230   21.5330 C   0  0  0  0  0  3  0  0  0  0  0  0
  -31.2230  -14.3630   22.3720 C   0  0  0  0  0  3  0  0  0  0  0  0
  -30.9490  -14.8510   19.9500 N   0  0  0  0  0  0  0  0  0  0  0  0
  -25.6550  -13.6920   20.7040 C   0  0  0  0  0  0  0  0  0  0  0  0
  -24.7370  -12.8560   21.2810 C   0  0  0  0  0  0  0  0  0  0  0  0
  -25.0050  -11.5550   20.7560 C   0  0  0  0  0  0  0  0  0  0  0  0
  -26.4310  -12.8940   19.8770 N   0  0  0  0  0  0  0  0  0  0  0  0
  -26.0610  -11.5900   19.9540 N   0  0  0  0  0  0  0  0  0  0  0  0
  -24.2800  -10.2880   20.9250 C   0  0  0  0  0  0  0  0  0  0  0  0
  -24.7760   -9.2600   21.7570 C   0  0  0  0  0  3  0  0  0  0  0  0
  -24.0520   -8.0580   21.9170 C   0  0  0  0  0  3  0  0  0  0  0  0
  -22.8200   -7.8770   21.2470 C   0  0  0  0  0  0  0  0  0  0  0  0
  -22.3430   -8.8940   20.4030 C   0  0  0  0  0  3  0  0  0  0  0  0
  -23.0650  -10.0880   20.2400 C   0  0  0  0  0  3  0  0  0  0  0  0
  -22.0610   -6.7320   21.3220 O   0  0  0  0  0  0  0  0  0  0  0  0
  -21.7890   -6.1290   22.5230 C   0  0  0  0  0  0  0  0  0  0  0  0
  -21.1970   -6.8340   23.5960 C   0  0  0  0  0  3  0  0  0  0  0  0
  -20.8710   -6.1570   24.7860 C   0  0  0  0  0  3  0  0  0  0  0  0
  -21.1230   -4.7780   24.9070 C   0  0  0  0  0  0  0  0  0  0  0  0
  -21.7070   -4.0720   23.8390 C   0  0  0  0  0  3  0  0  0  0  0  0
  -22.0360   -4.7470   22.6490 C   0  0  0  0  0  0  0  0  0  0  0  0
  -22.5780   -4.0590   21.6160 F   0  0  0  0  0  0  0  0  0  0  0  0
  -20.8020   -4.1240   26.0480 F   0  0  0  0  0  0  0  0  0  0  0  0
  -23.6140  -13.2530   22.1960 C   0  0  0  0  0  0  0  0  0  0  0  0
  -23.2490  -12.3850   23.1330 N   0  0  0  0  0  0  0  0  0  0  0  0
  -23.0850  -14.3600   22.1150 O   0  0  0  0  0  0  0  0  0  0  0  0
  -23.6970  -11.4840   23.2150 H   0  0  0  0  0  0  0  0  0  0  0  0
  -22.5110  -12.6240   23.7790 H   0  0  0  0  0  0  0  0  0  0  0  0
  -25.8810  -15.0620   20.7970 N   0  0  0  0  0  0  0  0  0  0  0  0
  -25.2920  -15.6700   21.3550 H   0  0  0  0  0  0  0  0  0  0  0  0
  -26.5900  -15.5640   20.2780 H   0  0  0  0  0  0  0  0  0  0  0  0
  -31.9600  -12.0570   23.3100 C   0  0  0  0  0  1  0  0  0  0  0  0
  -32.0350  -13.5870   23.4310 C   0  0  0  0  0  2  0  0  0  0  0  0
  -29.8330  -20.5940   21.8700 C   0  0  0  0  0  2  0  0  0  0  0  0
  -28.7520  -21.5960   21.4300 C   0  0  0  0  0  2  0  0  0  0  0  0
  -29.0150  -22.9680   22.0810 C   0  0  0  0  0  2  0  0  0  0  0  0
  -28.0250  -24.0860   21.7150 C   0  0  0  0  0  2  0  0  0  0  0  0
  -28.4830  -25.4230   22.3230 C   0  0  0  0  0  2  0  0  0  0  0  0
  -27.6780  -26.5070   21.8780 O   0  0  0  0  0  0  0  0  0  0  0  0
  -27.7180  -31.6600   26.7890 C   0  0  0  0  0  0  0  0  0  0  0  0
  -27.0080  -27.1560   22.8830 C   0  0  0  0  0  0  0  0  0  0  0  0
  -25.8200  -30.0770   26.8890 C   0  0  0  0  0  3  0  0  0  0  0  0
  -25.5760  -28.5040   24.8960 C   0  0  0  0  0  0  0  0  0  0  0  0
  -27.0040  -30.5500   24.6740 C   0  0  0  0  0  2  0  0  0  0  0  0
  -26.6510  -29.1390   24.2560 C   0  0  0  0  0  0  0  0  0  0  0  0
  -27.3710  -28.4680   23.2450 C   0  0  0  0  0  3  0  0  0  0  0  0
  -25.9340  -26.5210   23.5360 C   0  0  0  0  0  3  0  0  0  0  0  0
  -25.2140  -27.1920   24.5420 C   0  0  0  0  0  3  0  0  0  0  0  0
  -24.8510  -29.2990   25.9560 C   0  0  0  0  0  2  0  0  0  0  0  0
  -26.9040  -30.7830   26.1340 N   0  0  0  0  0  0  0  0  0  0  0  0
  -27.5470  -31.9180   27.9880 O   0  0  0  0  0  0  0  0  0  0  0  0
  -26.3540  -29.1020   27.9620 C   0  0  0  0  0  0  0  0  0  0  0  0
  -25.6220  -28.9830   29.0810 N   0  0  0  0  0  0  0  0  0  0  0  0
  -27.3860  -28.4530   27.7690 O   0  0  0  0  0  0  0  0  0  0  0  0
  -24.7950  -29.5570   29.1680 H   0  0  0  0  0  0  0  0  0  0  0  0
  -24.5560  -28.0730   32.4110 C   0  0  0  0  0  0  0  0  0  0  0  0
  -25.9090  -28.0970   30.2080 C   0  0  0  0  0  3  0  0  0  0  0  0
  -25.3420  -26.6810   29.9620 C   0  0  0  0  0  2  0  0  0  0  0  0
  -23.9360  -26.4850   30.5410 C   0  0  0  0  0  2  0  0  0  0  0  0
  -23.9370  -26.7340   32.0520 C   0  0  0  0  0  2  0  0  0  0  0  0
  -25.4700  -28.7210   31.5380 C   0  0  0  0  0  0  0  0  0  0  0  0
  -25.9870  -29.9840   31.9040 C   0  0  0  0  0  3  0  0  0  0  0  0
  -25.6100  -30.5920   33.1170 C   0  0  0  0  0  3  0  0  0  0  0  0
  -24.7160  -29.9390   33.9830 C   0  0  0  0  0  3  0  0  0  0  0  0
  -24.1940  -28.6810   33.6310 C   0  0  0  0  0  3  0  0  0  0  0  0
  -28.8810  -32.3990   26.0570 C   0  0  0  0  0  3  0  0  0  0  0  0
  -28.9390  -33.7680   26.5860 N   0  0  0  0  0  0  0  0  0  0  0  0
  -28.4120  -34.8410   25.9820 C   0  0  0  0  0  0  0  0  0  0  0  0
  -27.8810  -34.7890   24.8680 O   0  0  0  0  0  0  0  0  0  0  0  0
  -29.3140  -33.8770   27.5160 H   0  0  0  0  0  0  0  0  0  0  0  0
  -27.1390  -36.4640   27.4200 C   0  0  0  0  0  1  0  0  0  0  0  0
  -28.4850  -36.1850   26.7320 C   0  0  0  0  0  3  0  0  0  0  0  0
  -30.2230  -37.2690   25.3790 C   0  0  0  0  0  1  0  0  0  0  0  0
  -28.8460  -37.3260   25.8630 N   0  0  0  0  0  0  0  0  0  0  0  0
  -28.7170  -38.2070   26.3540 H   0  0  0  0  0  0  0  0  0  0  0  0
  -30.2760  -31.6780   26.2170 C   0  0  1  0  0  0  0  0  0  0  0  0
  -30.6330  -31.3340   27.6810 C   0  0  0  0  0  1  0  0  0  0  0  0
  -30.3030  -30.3650   25.4010 C   0  0  0  0  0  1  0  0  0  0  0  0
  -31.4000  -32.5770   25.6480 C   0  0  0  0  0  1  0  0  0  0  0  0
  1  2  1  0
  1 48  1  0
  2  3  2  0
  4 17  1  0
  5 10  1  0
  6  5  1  0
  6  7  1  0
  8  7  1  0
  8  9  1  0
  8 21  1  0
 10  4  1  0
 10  9  1  0
 11  4  2  0
 13 15  1  0
 14 16  1  0
 15  2  1  0
 15 12  1  0
 16 12  1  0
 16 47  1  0
 17 13  1  0
 17 14  1  0
 18 43  1  0
 18 19  2  0
 19 38  1  0
 20 23  1  0
 20 19  1  0
 21 22  1  0
 21 18  1  0
 22 20  2  0
 23 24  1  0
 24 25  2  0
 26 29  1  0
 26 25  1  0
 27 26  2  0
 28 27  1  0
 28 23  2  0
 29 30  1  0
 30 35  2  0
 30 31  1  0
 31 32  2  0
 32 33  1  0
 33 37  1  0
 34 33  2  0
 35 34  1  0
 36 35  1  0
 38 39  1  0
 39 41  1  0
 39 42  1  0
 40 38  2  0
 43 44  1  0
 45 43  1  0
 46 47  1  0
 49 48  1  0
 49 50  1  0
 51 50  1  0
 51 52  1  0
 53 52  1  0
 53 55  1  0
 54 65  2  0
 55 60  2  0
 55 61  1  0
 56 66  1  0
 57 63  1  0
 58 64  1  0
 59 58  1  0
 59 57  2  0
 60 59  1  0
 61 62  2  0
 62 57  1  0
 63 56  1  0
 64 54  1  0
 64 56  1  0
 66 67  1  0
 67 69  1  0
 68 66  2  0
 70 79  1  0
 71 67  1  0
 71 75  1  0
 72 71  1  0
 72 73  1  0
 73 74  1  0
 74 70  1  0
 75 76  1  0
 75 70  2  0
 76 77  2  0
 77 78  1  0
 79 78  2  0
 80 90  1  0
 80 81  1  0
 80 54  1  0
 81 84  1  0
 82 81  1  0
 82 86  1  0
 83 82  2  0
 86 85  1  0
 87 88  1  0
 88 89  1  0
 88 86  1  0
 90 91  1  1
 92 90  1  0
 93 90  1  0
M  ISO  4   4 100  17 100  52 101  53 101
M  END
>  <TORSDO>  (23) 
F 23

>  <SCORE>  (23) 
3.291

>  <name>  (23) 
23

>  <ligand_id>  (23) 
23

>  <original_smiles>  (23) 
[H]c1c([H])c([H])c2c(c1[H])C([H])([H])C([H])([H])C([H])([H])C2([H])N([H])C(=O)C1([H])N(C(=O)C([H])(N([H])C(=O)C([H])(N([H])C([H])([H])[H])C([H])([H])[H])C(C([H])([H])[H])(C([H])([H])[H])C([H])([H])[H])C([H])([H])c2c([H])c(OC([H])([H])C([H])([H])C([H])([H])C([H])([H])C([H])([H])C([H])([H])C(=O)C3([H])C([H])([H])N(C(=O)N4C([H])([H])C([H])([H])C([H])([H])C([H])(n5nc(-c6c([H])c([H])c(Oc7c([H])c([H])c(F)c([H])c7F)c([H])c6[H])c(C(=O)N([H])[H])c5N([H])[H])C4([H])[H])C([H])([H])C([H])(C([H])([H])C([H])([H])[H])C3([H])[H])c([H])c([H])c2C1([H])[H]

>  <smiles>  (23) 
[H]c1c([H])c([H])c2c(c1[H])C([H])([H])C([H])([H])C([H])([H])C2([H])N([H])C(=O)C1([H])N(C(=O)C([H])(N([H])C(=O)C([H])(N([H])C([H])([H])[H])C([H])([H])[H])C(C([H])([H])[H])(C([H])([H])[H])C([H])([H])[H])C([H])([H])c2c([H])c(OC([H])([H])C([H])([H])C([H])([H])C([H])([H])C([H])([H])C([H])([H])C(=O)C3([H])C([H])([H])N(C(=O)N4C([H])([H])C([H])([H])C([H])([H])C([H])(n5nc(-c6c([H])c([H])c(Oc7c([H])c([H])c(F)c([H])c7F)c([H])c6[H])c(C(=O)N([H])[H])c5N([H])[H])C4([H])[H])C([H])([H])C([H])(C([H])([H])C([H])([H])[H])C3([H])[H])c([H])c([H])c2C1([H])[H]

$$$$
24:0:0
     RDKit          3D

 92 99  0  0  1  0  0  0  0  0999 V2000
  -30.0020  -21.3830   21.3770 C   0  0  0  0  0  3  0  0  0  0  0  0
  -29.3040  -22.5350   21.2930 C   0  0  0  0  0  3  0  0  0  0  0  0
  -29.4770  -20.0860   20.9180 C   0  0  0  0  0  0  0  0  0  0  0  0
  -28.4660  -19.9760   20.2190 O   0  0  0  0  0  0  0  0  0  0  0  0
  -30.2230  -18.8300   21.3860 C   0  0  0  0  0  2  0  0  0  0  0  0
  -29.7750  -17.5120   20.7030 C   0  0  0  0  0  2  0  0  0  0  0  0
  -31.4010  -14.2030   20.0440 C   0  0  0  0  0  0  0  0  0  0  0  0
  -31.0870  -11.8870   19.2570 C   0  0  0  0  0  2  0  0  0  0  0  0
  -30.1530  -11.9080   18.0270 C   0  0  0  0  0  2  0  0  0  0  0  0
  -28.6720  -11.8750   18.4580 C   0  0  0  0  0  2  0  0  0  0  0  0
  -28.3450  -12.9180   19.5600 C   0  0  0  0  0  3  0  0  0  0  0  0
  -29.3840  -12.8400   20.7030 C   0  0  0  0  0  2  0  0  0  0  0  0
  -30.7230  -13.0250   20.1120 N   0  0  0  0  0  0  0  0  0  0  0  0
  -32.5250  -14.2900   19.5380 O   0  0  0  0  0  0  0  0  0  0  0  0
  -30.9340  -16.5740   20.3380 C   0  0  0  0  0  0  0  0  0  0  0  0
  -30.6680  -15.2600   20.4420 N   0  0  0  0  0  0  0  0  0  0  0  0
  -32.0060  -17.0500   19.9500 O   0  0  0  0  0  0  0  0  0  0  0  0
  -29.7550  -15.0250   20.7960 H   0  0  0  0  0  0  0  0  0  0  0  0
  -26.0160  -13.7280   20.3050 C   0  0  0  0  0  0  0  0  0  0  0  0
  -24.8940  -13.0480   20.6960 C   0  0  0  0  0  0  0  0  0  0  0  0
  -25.2410  -11.6620   20.6610 C   0  0  0  0  0  0  0  0  0  0  0  0
  -26.9810  -12.7620   20.0580 N   0  0  0  0  0  0  0  0  0  0  0  0
  -26.5170  -11.5140   20.3280 N   0  0  0  0  0  0  0  0  0  0  0  0
  -24.4180  -10.4640   20.8700 C   0  0  0  0  0  0  0  0  0  0  0  0
  -24.7440   -9.5070   21.8570 C   0  0  0  0  0  3  0  0  0  0  0  0
  -23.9270   -8.3720   22.0490 C   0  0  0  0  0  3  0  0  0  0  0  0
  -22.7720   -8.1870   21.2530 C   0  0  0  0  0  0  0  0  0  0  0  0
  -22.4640   -9.1310   20.2570 C   0  0  0  0  0  3  0  0  0  0  0  0
  -23.2810  -10.2580   20.0630 C   0  0  0  0  0  3  0  0  0  0  0  0
  -21.9340   -7.1020   21.3510 O   0  0  0  0  0  0  0  0  0  0  0  0
  -21.7230   -6.4600   22.5460 C   0  0  0  0  0  0  0  0  0  0  0  0
  -21.1900   -7.1320   23.6680 C   0  0  0  0  0  3  0  0  0  0  0  0
  -20.9250   -6.4190   24.8550 C   0  0  0  0  0  3  0  0  0  0  0  0
  -21.1830   -5.0370   24.9190 C   0  0  0  0  0  0  0  0  0  0  0  0
  -21.7110   -4.3660   23.8020 C   0  0  0  0  0  3  0  0  0  0  0  0
  -21.9790   -5.0760   22.6190 C   0  0  0  0  0  0  0  0  0  0  0  0
  -22.4660   -4.4210   21.5380 F   0  0  0  0  0  0  0  0  0  0  0  0
  -20.9210   -4.3510   26.0550 F   0  0  0  0  0  0  0  0  0  0  0  0
  -23.5460  -13.6390   20.9900 C   0  0  0  0  0  0  0  0  0  0  0  0
  -22.7850  -13.0200   21.8860 N   0  0  0  0  0  0  0  0  0  0  0  0
  -23.1780  -14.6870   20.4570 O   0  0  0  0  0  0  0  0  0  0  0  0
  -23.0940  -12.1730   22.3370 H   0  0  0  0  0  0  0  0  0  0  0  0
  -21.8810  -13.4030   22.1260 H   0  0  0  0  0  0  0  0  0  0  0  0
  -26.2900  -15.0800   20.1210 N   0  0  0  0  0  0  0  0  0  0  0  0
  -25.5750  -15.7890   20.2370 H   0  0  0  0  0  0  0  0  0  0  0  0
  -27.1520  -15.4480   19.7380 H   0  0  0  0  0  0  0  0  0  0  0  0
  -30.2350  -23.8050   23.2680 C   0  0  0  0  0  1  0  0  0  0  0  0
  -29.8410  -23.8750   21.7790 C   0  0  0  0  0  3  0  0  0  0  0  0
  -28.8850  -25.0720   21.5510 C   0  0  0  0  0  2  0  0  0  0  0  0
  -29.2730  -24.8570   18.9930 C   0  0  0  0  0  1  0  0  0  0  0  0
  -28.3510  -25.3400   20.1210 C   0  0  0  0  0  3  0  0  0  0  0  0
  -28.2900  -26.7640   20.0170 O   0  0  0  0  0  0  0  0  0  0  0  0
  -24.4990  -31.8410   23.2060 C   0  0  0  0  0  0  0  0  0  0  0  0
  -27.0830  -27.4220   20.0610 C   0  0  0  0  0  0  0  0  0  0  0  0
  -23.2650  -30.4710   21.5540 C   0  0  0  0  0  3  0  0  0  0  0  0
  -24.6910  -28.9270   20.1090 C   0  0  0  0  0  0  0  0  0  0  0  0
  -25.7890  -30.8110   21.3400 C   0  0  0  0  0  2  0  0  0  0  0  0
  -25.8550  -29.4450   20.6900 C   0  0  0  0  0  0  0  0  0  0  0  0
  -27.0510  -28.7000   20.6580 C   0  0  0  0  0  3  0  0  0  0  0  0
  -25.9020  -26.9080   19.4800 C   0  0  0  0  0  3  0  0  0  0  0  0
  -24.7080  -27.6570   19.5050 C   0  0  0  0  0  3  0  0  0  0  0  0
  -23.4560  -29.7970   20.1680 C   0  0  0  0  0  2  0  0  0  0  0  0
  -24.5360  -31.0550   22.0920 N   0  0  0  0  0  0  0  0  0  0  0  0
  -23.4260  -32.1190   23.7580 O   0  0  0  0  0  0  0  0  0  0  0  0
  -22.6080  -29.4490   22.5090 C   0  0  0  0  0  0  0  0  0  0  0  0
  -21.2820  -29.2820   22.3850 N   0  0  0  0  0  0  0  0  0  0  0  0
  -23.2890  -28.8070   23.3130 O   0  0  0  0  0  0  0  0  0  0  0  0
  -20.7940  -29.8520   21.7070 H   0  0  0  0  0  0  0  0  0  0  0  0
  -17.8930  -28.1490   22.9060 C   0  0  0  0  0  0  0  0  0  0  0  0
  -20.4590  -28.3460   23.1480 C   0  0  0  0  0  3  0  0  0  0  0  0
  -20.5230  -26.9260   22.5420 C   0  0  0  0  0  2  0  0  0  0  0  0
  -19.4010  -26.6480   21.5360 C   0  0  0  0  0  2  0  0  0  0  0  0
  -18.0310  -26.8090   22.2020 C   0  0  0  0  0  2  0  0  0  0  0  0
  -19.0330  -28.8780   23.3370 C   0  0  0  0  0  0  0  0  0  0  0  0
  -18.8500  -30.1340   23.9550 C   0  0  0  0  0  3  0  0  0  0  0  0
  -17.5600  -30.6600   24.1470 C   0  0  0  0  0  3  0  0  0  0  0  0
  -16.4340  -29.9280   23.7340 C   0  0  0  0  0  3  0  0  0  0  0  0
  -16.6010  -28.6740   23.1190 C   0  0  0  0  0  3  0  0  0  0  0  0
  -25.7990  -32.4480   23.8230 C   0  0  0  0  0  3  0  0  0  0  0  0
  -26.3070  -31.6650   25.0970 C   0  0  1  0  0  0  0  0  0  0  0  0
  -25.2090  -31.4260   26.1590 C   0  0  0  0  0  1  0  0  0  0  0  0
  -26.8840  -30.2880   24.6960 C   0  0  0  0  0  1  0  0  0  0  0  0
  -27.4590  -32.4490   25.7700 C   0  0  0  0  0  1  0  0  0  0  0  0
  -25.5170  -33.8520   24.1540 N   0  0  0  0  0  0  0  0  0  0  0  0
  -25.9050  -34.8980   23.4120 C   0  0  0  0  0  0  0  0  0  0  0  0
  -26.6060  -34.7810   22.4030 O   0  0  0  0  0  0  0  0  0  0  0  0
  -24.9020  -34.0180   24.9350 H   0  0  0  0  0  0  0  0  0  0  0  0
  -24.2460  -36.7430   23.0000 C   0  0  0  0  0  1  0  0  0  0  0  0
  -25.4390  -36.2960   23.8600 C   0  0  0  0  0  3  0  0  0  0  0  0
  -27.5590  -37.1130   24.7910 C   0  0  0  0  0  1  0  0  0  0  0  0
  -26.5060  -37.3190   23.8000 N   0  0  0  0  0  0  0  0  0  0  0  0
  -26.1210  -38.2490   23.9350 H   0  0  0  0  0  0  0  0  0  0  0  0
  2  1  2  0
  2 48  1  0
  3  1  1  0
  3  5  1  0
  4  3  2  0
  6  5  1  0
  7 13  1  0
  7 16  1  0
  8 13  1  0
  9 10  1  0
  9  8  1  0
 11 10  1  0
 11 22  1  0
 11 12  1  0
 13 12  1  0
 14  7  2  0
 15 16  1  0
 15  6  1  0
 16 18  1  0
 17 15  2  0
 19 20  2  0
 20 39  1  0
 21 20  1  0
 21 24  1  0
 22 19  1  0
 22 23  1  0
 23 21  2  0
 24 25  1  0
 25 26  2  0
 27 30  1  0
 27 26  1  0
 28 27  2  0
 29 28  1  0
 29 24  2  0
 30 31  1  0
 31 36  2  0
 31 32  1  0
 32 33  2  0
 33 34  1  0
 34 38  1  0
 35 34  2  0
 36 35  1  0
 37 36  1  0
 39 40  1  0
 40 43  1  0
 40 42  1  0
 41 39  2  0
 44 45  1  0
 44 19  1  0
 46 44  1  0
 48 47  1  0
 49 48  1  0
 51 50  1  0
 51 49  1  0
 52 54  1  0
 52 51  1  0
 53 64  2  0
 54 59  1  0
 55 63  1  0
 55 65  1  0
 56 62  1  0
 56 58  1  0
 57 63  1  0
 58 57  1  0
 59 58  2  0
 60 61  1  0
 60 54  2  0
 61 56  2  0
 62 55  1  0
 63 53  1  0
 65 67  2  0
 66 65  1  0
 68 66  1  0
 69 78  2  0
 69 74  1  0
 70 66  1  0
 70 74  1  0
 71 70  1  0
 72 73  1  0
 72 71  1  0
 73 69  1  0
 74 75  2  0
 75 76  1  0
 77 76  2  0
 78 77  1  0
 79 53  1  0
 79 84  1  0
 79 80  1  0
 80 83  1  1
 80 81  1  0
 82 80  1  0
 84 87  1  0
 85 89  1  0
 85 84  1  0
 86 85  2  0
 89 88  1  0
 91 89  1  0
 91 92  1  0
 91 90  1  0
M  ISO  4   7 100  16 100  51 101  52 101
M  END
>  <TORSDO>  (24) 
F 22

>  <SCORE>  (24) 
-12.222

>  <name>  (24) 
24

>  <ligand_id>  (24) 
24

>  <original_smiles>  (24) 
[H]C(C(=O)C([H])([H])C([H])([H])C(=O)N([H])C(=O)N1C([H])([H])C([H])([H])C([H])([H])C([H])(n2nc(-c3c([H])c([H])c(Oc4c([H])c([H])c(F)c([H])c4F)c([H])c3[H])c(C(=O)N([H])[H])c2N([H])[H])C1([H])[H])=C([H])C([H])(C([H])([H])[H])C([H])([H])C([H])(Oc1c([H])c([H])c2c(c1[H])C([H])([H])N(C(=O)C([H])(N([H])C(=O)C([H])(N([H])C([H])([H])[H])C([H])([H])[H])C(C([H])([H])[H])(C([H])([H])[H])C([H])([H])[H])C([H])(C(=O)N([H])C1([H])c3c([H])c([H])c([H])c([H])c3C([H])([H])C([H])([H])C1([H])[H])C2([H])[H])C([H])([H])[H]

>  <smiles>  (24) 
[H]C(C(=O)C([H])([H])C([H])([H])C(=O)N([H])C(=O)N1C([H])([H])C([H])([H])C([H])([H])C([H])(n2nc(-c3c([H])c([H])c(Oc4c([H])c([H])c(F)c([H])c4F)c([H])c3[H])c(C(=O)N([H])[H])c2N([H])[H])C1([H])[H])=C([H])C([H])(C([H])([H])[H])C([H])([H])C([H])(Oc1c([H])c([H])c2c(c1[H])C([H])([H])N(C(=O)C([H])(N([H])C(=O)C([H])(N([H])C([H])([H])[H])C([H])([H])[H])C(C([H])([H])[H])(C([H])([H])[H])C([H])([H])[H])C([H])(C(=O)N([H])C1([H])c3c([H])c([H])c([H])c([H])c3C([H])([H])C([H])([H])C1([H])[H])C2([H])[H])C([H])([H])[H]

$$$$
25:0:0
     RDKit          3D

 96103  0  0  1  0  0  0  0  0999 V2000
  -26.2630  -20.3500   17.1260 C   0  0  0  0  0  0  0  0  0  0  0  0
  -26.6840  -21.2400   18.0240 N   0  0  0  0  0  0  0  0  0  0  0  0
  -25.3100  -19.5940   17.3110 O   0  0  0  0  0  0  0  0  0  0  0  0
  -27.4570  -21.8160   17.7230 H   0  0  0  0  0  0  0  0  0  0  0  0
  -27.0570  -20.3140   15.8190 C   0  0  0  0  0  2  0  0  0  0  0  0
  -28.4650  -19.6720   15.9310 C   0  0  0  0  0  2  0  0  0  0  0  0
  -28.5870  -18.3500   16.7350 C   0  0  0  0  0  2  0  0  0  0  0  0
  -29.2750  -18.5330   18.1080 C   0  0  0  0  0  2  0  0  0  0  0  0
  -30.6540  -14.6890   21.0760 C   0  0  0  0  0  0  0  0  0  0  0  0
  -30.6120  -12.4330   20.1670 C   0  0  0  0  0  2  0  0  0  0  0  0
  -29.7620  -12.5580   18.8790 C   0  0  0  0  0  2  0  0  0  0  0  0
  -28.2740  -12.3330   19.2010 C   0  0  0  0  0  2  0  0  0  0  0  0
  -27.7750  -13.1960   20.3840 C   0  0  0  0  0  3  0  0  0  0  0  0
  -28.7550  -13.1370   21.5850 C   0  0  0  0  0  2  0  0  0  0  0  0
  -30.1100  -13.4420   21.1030 N   0  0  0  0  0  0  0  0  0  0  0  0
  -31.8670  -14.9100   21.0440 O   0  0  0  0  0  0  0  0  0  0  0  0
  -30.0030  -16.8830   19.9310 C   0  0  0  0  0  3  0  0  0  0  0  0
  -31.2060  -17.7230   20.3330 C   0  0  0  0  0  1  0  0  0  0  0  0
  -29.7390  -15.6580   20.4870 N   0  0  0  0  0  0  0  0  0  0  0  0
  -29.1390  -17.3350   18.9670 N   0  0  0  0  0  0  0  0  0  0  0  0
  -28.7890  -15.3640   20.3500 H   0  0  0  0  0  0  0  0  0  0  0  0
  -28.2990  -16.8110   18.7500 H   0  0  0  0  0  0  0  0  0  0  0  0
  -25.3150  -13.7140   20.9110 C   0  0  0  0  0  0  0  0  0  0  0  0
  -24.2450  -12.8920   21.1490 C   0  0  0  0  0  0  0  0  0  0  0  0
  -24.7530  -11.5610   21.1200 C   0  0  0  0  0  0  0  0  0  0  0  0
  -26.4030  -12.8670   20.7540 N   0  0  0  0  0  0  0  0  0  0  0  0
  -26.0650  -11.5680   20.9410 N   0  0  0  0  0  0  0  0  0  0  0  0
  -24.0570  -10.2730   21.2090 C   0  0  0  0  0  0  0  0  0  0  0  0
  -24.4550   -9.2850   22.1340 C   0  0  0  0  0  3  0  0  0  0  0  0
  -23.7580   -8.0620   22.2170 C   0  0  0  0  0  3  0  0  0  0  0  0
  -22.6490   -7.8190   21.3720 C   0  0  0  0  0  0  0  0  0  0  0  0
  -22.2720   -8.7980   20.4350 C   0  0  0  0  0  3  0  0  0  0  0  0
  -22.9700  -10.0130   20.3530 C   0  0  0  0  0  3  0  0  0  0  0  0
  -21.9290   -6.6470   21.3680 O   0  0  0  0  0  0  0  0  0  0  0  0
  -21.8260   -5.8610   22.4860 C   0  0  0  0  0  0  0  0  0  0  0  0
  -21.2780   -6.3440   23.6940 C   0  0  0  0  0  3  0  0  0  0  0  0
  -21.1160   -5.4750   24.7900 C   0  0  0  0  0  3  0  0  0  0  0  0
  -21.5060   -4.1270   24.6860 C   0  0  0  0  0  0  0  0  0  0  0  0
  -22.0510   -3.6440   23.4840 C   0  0  0  0  0  3  0  0  0  0  0  0
  -22.2070   -4.5070   22.3870 C   0  0  0  0  0  0  0  0  0  0  0  0
  -22.7130   -4.0300   21.2240 F   0  0  0  0  0  0  0  0  0  0  0  0
  -21.3460   -3.2910   25.7400 F   0  0  0  0  0  0  0  0  0  0  0  0
  -22.8190  -13.3180   21.3210 C   0  0  0  0  0  0  0  0  0  0  0  0
  -22.0610  -12.5790   22.1250 N   0  0  0  0  0  0  0  0  0  0  0  0
  -22.3850  -14.3350   20.7820 O   0  0  0  0  0  0  0  0  0  0  0  0
  -22.4320  -11.7590   22.5830 H   0  0  0  0  0  0  0  0  0  0  0  0
  -21.0950  -12.8290   22.2680 H   0  0  0  0  0  0  0  0  0  0  0  0
  -25.4500  -15.0930   20.8080 N   0  0  0  0  0  0  0  0  0  0  0  0
  -24.6590  -15.7030   20.9900 H   0  0  0  0  0  0  0  0  0  0  0  0
  -26.3300  -15.5840   20.8690 H   0  0  0  0  0  0  0  0  0  0  0  0
  -26.2050  -21.4710   19.3830 C   0  0  0  0  0  2  0  0  0  0  0  0
  -26.5180  -22.9350   19.7400 C   0  0  0  0  0  2  0  0  0  0  0  0
  -27.0360  -23.1740   21.1670 C   0  0  0  0  0  2  0  0  0  0  0  0
  -27.4620  -24.6390   21.4400 C   0  0  0  0  0  2  0  0  0  0  0  0
  -28.4550  -25.2570   20.3960 C   0  0  0  0  0  2  0  0  0  0  0  0
  -28.5890  -26.6770   20.4750 O   0  0  0  0  0  0  0  0  0  0  0  0
  -24.7720  -31.8870   23.3520 C   0  0  0  0  0  0  0  0  0  0  0  0
  -27.4390  -27.4230   20.3460 C   0  0  0  0  0  0  0  0  0  0  0  0
  -23.5860  -30.4790   21.7050 C   0  0  0  0  0  3  0  0  0  0  0  0
  -25.0550  -28.9360   20.3080 C   0  0  0  0  0  0  0  0  0  0  0  0
  -26.1210  -30.8200   21.5490 C   0  0  0  0  0  2  0  0  0  0  0  0
  -26.2080  -29.4540   20.9130 C   0  0  0  0  0  0  0  0  0  0  0  0
  -27.4050  -28.7060   20.9270 C   0  0  0  0  0  3  0  0  0  0  0  0
  -26.2750  -26.9320   19.7010 C   0  0  0  0  0  3  0  0  0  0  0  0
  -25.0820  -27.6690   19.7070 C   0  0  0  0  0  3  0  0  0  0  0  0
  -23.8150  -29.8020   20.3320 C   0  0  0  0  0  2  0  0  0  0  0  0
  -24.8430  -31.0780   22.2600 N   0  0  0  0  0  0  0  0  0  0  0  0
  -23.6840  -32.1710   23.8720 O   0  0  0  0  0  0  0  0  0  0  0  0
  -22.9200  -29.4580   22.6520 C   0  0  0  0  0  0  0  0  0  0  0  0
  -21.6020  -29.2570   22.4850 N   0  0  0  0  0  0  0  0  0  0  0  0
  -23.5840  -28.8510   23.4960 O   0  0  0  0  0  0  0  0  0  0  0  0
  -21.1250  -29.7940   21.7740 H   0  0  0  0  0  0  0  0  0  0  0  0
  -18.2270  -28.0370   22.8720 C   0  0  0  0  0  0  0  0  0  0  0  0
  -20.7700  -28.3200   23.2420 C   0  0  0  0  0  3  0  0  0  0  0  0
  -20.9070  -26.8820   22.6930 C   0  0  0  0  0  2  0  0  0  0  0  0
  -19.8460  -26.5310   21.6450 C   0  0  0  0  0  2  0  0  0  0  0  0
  -18.4400  -26.6760   22.2340 C   0  0  0  0  0  2  0  0  0  0  0  0
  -19.3220  -28.8160   23.3310 C   0  0  0  0  0  0  0  0  0  0  0  0
  -19.0720  -30.0920   23.8820 C   0  0  0  0  0  3  0  0  0  0  0  0
  -17.7570  -30.5840   23.9920 C   0  0  0  0  0  3  0  0  0  0  0  0
  -16.6760  -29.8000   23.5550 C   0  0  0  0  0  3  0  0  0  0  0  0
  -16.9120  -28.5290   22.9990 C   0  0  0  0  0  3  0  0  0  0  0  0
  -26.0510  -32.5150   23.9890 C   0  0  0  0  0  3  0  0  0  0  0  0
  -26.5420  -31.7530   25.2800 C   0  0  1  0  0  0  0  0  0  0  0  0
  -25.4290  -31.5210   26.3280 C   0  0  0  0  0  1  0  0  0  0  0  0
  -27.1300  -30.3730   24.9020 C   0  0  0  0  0  1  0  0  0  0  0  0
  -27.6790  -32.5520   25.9590 C   0  0  0  0  0  1  0  0  0  0  0  0
  -25.7490  -33.9190   24.2930 N   0  0  0  0  0  0  0  0  0  0  0  0
  -26.0990  -34.9580   23.5250 C   0  0  0  0  0  0  0  0  0  0  0  0
  -26.7850  -34.8350   22.5060 O   0  0  0  0  0  0  0  0  0  0  0  0
  -25.1660  -34.0950   25.0970 H   0  0  0  0  0  0  0  0  0  0  0  0
  -24.3910  -36.7480   23.1060 C   0  0  0  0  0  1  0  0  0  0  0  0
  -25.6120  -36.3540   23.9510 C   0  0  0  0  0  3  0  0  0  0  0  0
  -27.7260  -37.2350   24.8270 C   0  0  0  0  0  1  0  0  0  0  0  0
  -26.6520  -37.3980   23.8500 N   0  0  0  0  0  0  0  0  0  0  0  0
  -26.2510  -38.3230   23.9810 H   0  0  0  0  0  0  0  0  0  0  0  0
  1  3  2  0
  1  2  1  0
  2 51  1  0
  4  2  1  0
  5  6  1  0
  5  1  1  0
  6  7  1  0
  7  8  1  0
  8 20  1  0
  9 15  1  0
 10 15  1  0
 11 12  1  0
 11 10  1  0
 13 12  1  0
 13 26  1  0
 13 14  1  0
 15 14  1  0
 16  9  2  0
 17 18  1  0
 17 19  1  0
 19  9  1  0
 20 17  1  0
 21 19  1  0
 22 20  1  0
 23 24  2  0
 24 43  1  0
 25 24  1  0
 25 28  1  0
 26 23  1  0
 26 27  1  0
 27 25  2  0
 28 29  1  0
 29 30  2  0
 31 30  1  0
 32 31  2  0
 33 32  1  0
 33 28  2  0
 34 31  1  0
 34 35  1  0
 35 36  1  0
 36 37  2  0
 38 37  1  0
 38 42  1  0
 39 38  2  0
 40 35  2  0
 40 39  1  0
 41 40  1  0
 43 44  1  0
 44 47  1  0
 44 46  1  0
 45 43  2  0
 48 50  1  0
 48 23  1  0
 48 49  1  0
 51 52  1  0
 52 53  1  0
 53 54  1  0
 55 56  1  0
 55 54  1  0
 57 68  2  0
 58 56  1  0
 58 63  1  0
 59 67  1  0
 59 69  1  0
 60 66  1  0
 60 62  1  0
 61 67  1  0
 62 63  2  0
 62 61  1  0
 64 65  1  0
 64 58  2  0
 65 60  2  0
 66 59  1  0
 67 57  1  0
 69 71  2  0
 70 69  1  0
 72 70  1  0
 73 82  2  0
 73 78  1  0
 74 70  1  0
 74 78  1  0
 75 74  1  0
 76 77  1  0
 76 75  1  0
 77 73  1  0
 78 79  2  0
 79 80  1  0
 81 80  2  0
 82 81  1  0
 83 57  1  0
 83 88  1  0
 83 84  1  0
 84 87  1  1
 84 85  1  0
 86 84  1  0
 88 91  1  0
 89 93  1  0
 89 88  1  0
 90 89  2  0
 93 92  1  0
 95 93  1  0
 95 96  1  0
 95 94  1  0
M  ISO  4   9 100  19 100  55 101  56 101
M  END
>  <TORSDO>  (25) 
F 25

>  <SCORE>  (25) 
-9.046

>  <name>  (25) 
25

>  <ligand_id>  (25) 
25

>  <original_smiles>  (25) 
[H]c1c([H])c([H])c2c(c1[H])C([H])([H])C([H])([H])C([H])([H])C2([H])N([H])C(=O)C1([H])N(C(=O)C([H])(N([H])C(=O)C([H])(N([H])C([H])([H])[H])C([H])([H])[H])C(C([H])([H])[H])(C([H])([H])[H])C([H])([H])[H])C([H])([H])c2c([H])c(OC([H])([H])C([H])([H])C([H])([H])C([H])([H])C([H])([H])N([H])C(=O)C([H])([H])C([H])([H])C([H])([H])C([H])([H])[N+]([H])=C(N([H])C(=O)N3C([H])([H])C([H])([H])C([H])([H])C([H])(n4nc(-c5c([H])c([H])c(Oc6c([H])c([H])c(F)c([H])c6F)c([H])c5[H])c(C(=O)N([H])[H])c4N([H])[H])C3([H])[H])C([H])([H])[H])c([H])c([H])c2C1([H])[H]

>  <smiles>  (25) 
[H]c1c([H])c([H])c2c(c1[H])C([H])([H])C([H])([H])C([H])([H])C2([H])N([H])C(=O)C1([H])N(C(=O)C([H])(N([H])C(=O)C([H])(N([H])C([H])([H])[H])C([H])([H])[H])C(C([H])([H])[H])(C([H])([H])[H])C([H])([H])[H])C([H])([H])c2c([H])c(OC([H])([H])C([H])([H])C([H])([H])C([H])([H])C([H])([H])N([H])C(=O)C([H])([H])C([H])([H])C([H])([H])C([H])([H])[N+]([H])=C(N([H])C(=O)N3C([H])([H])C([H])([H])C([H])([H])C([H])(n4nc(-c5c([H])c([H])c(Oc6c([H])c([H])c(F)c([H])c6F)c([H])c5[H])c(C(=O)N([H])[H])c4N([H])[H])C3([H])[H])C([H])([H])[H])c([H])c([H])c2C1([H])[H]

$$$$
26:0:0
     RDKit          3D

 96104  0  0  1  0  0  0  0  0999 V2000
  -27.1020  -18.8470   20.4760 C   0  0  0  0  0  3  0  0  0  0  0  0
  -27.3390  -19.9140   19.5940 C   0  0  0  0  0  3  0  0  0  0  0  0
  -28.1290  -17.9360   20.7840 C   0  0  0  0  0  3  0  0  0  0  0  0
  -29.6400  -19.1530   19.3050 C   0  0  0  0  0  3  0  0  0  0  0  0
  -28.6070  -20.0720   18.9930 C   0  0  0  0  0  0  0  0  0  0  0  0
  -29.4220  -18.0960   20.2320 C   0  0  0  0  0  0  0  0  0  0  0  0
  -28.8150  -21.2080   17.9910 C   0  0  0  0  0  2  0  0  0  0  0  0
  -29.7660  -22.5760   20.0150 C   0  0  0  0  0  1  0  0  0  0  0  0
  -29.4900  -22.5200   18.5010 C   0  0  0  0  0  3  0  0  0  0  0  0
  -28.8510  -23.8270   17.9410 C   0  0  0  0  0  2  0  0  0  0  0  0
  -27.5280  -24.2990   18.5870 C   0  0  0  0  0  2  0  0  0  0  0  0
  -27.6900  -25.2920   19.7670 C   0  0  0  0  0  2  0  0  0  0  0  0
  -27.8950  -26.6710   19.3840 O   0  0  0  0  0  0  0  0  0  0  0  0
  -24.7560  -31.7150   23.3510 C   0  0  0  0  0  0  0  0  0  0  0  0
  -26.8070  -27.5020   19.5550 C   0  0  0  0  0  0  0  0  0  0  0  0
  -23.3290  -30.5890   21.6810 C   0  0  0  0  0  3  0  0  0  0  0  0
  -24.5450  -29.1570   19.9590 C   0  0  0  0  0  0  0  0  0  0  0  0
  -25.8490  -30.8130   21.2950 C   0  0  0  0  0  2  0  0  0  0  0  0
  -25.7850  -29.5260   20.4940 C   0  0  0  0  0  0  0  0  0  0  0  0
  -26.9260  -28.7090   20.2840 C   0  0  0  0  0  3  0  0  0  0  0  0
  -25.5480  -27.1550   19.0180 C   0  0  0  0  0  3  0  0  0  0  0  0
  -24.4230  -27.9740   19.2130 C   0  0  0  0  0  3  0  0  0  0  0  0
  -23.3770  -30.0820   20.2150 C   0  0  0  0  0  2  0  0  0  0  0  0
  -24.6690  -31.0460   22.1670 N   0  0  0  0  0  0  0  0  0  0  0  0
  -23.7430  -31.9780   24.0160 O   0  0  0  0  0  0  0  0  0  0  0  0
  -22.6930  -29.4950   22.5710 C   0  0  0  0  0  0  0  0  0  0  0  0
  -21.3640  -29.3320   22.4640 N   0  0  0  0  0  0  0  0  0  0  0  0
  -23.3900  -28.8040   23.3170 O   0  0  0  0  0  0  0  0  0  0  0  0
  -20.8650  -29.9510   21.8390 H   0  0  0  0  0  0  0  0  0  0  0  0
  -18.0120  -28.0240   22.8340 C   0  0  0  0  0  0  0  0  0  0  0  0
  -20.5550  -28.3420   23.1740 C   0  0  0  0  0  3  0  0  0  0  0  0
  -20.7100  -26.9400   22.5420 C   0  0  0  0  0  2  0  0  0  0  0  0
  -19.6400  -26.6270   21.4910 C   0  0  0  0  0  2  0  0  0  0  0  0
  -18.2410  -26.7080   22.1100 C   0  0  0  0  0  2  0  0  0  0  0  0
  -19.0990  -28.7990   23.3190 C   0  0  0  0  0  0  0  0  0  0  0  0
  -18.8310  -30.0290   23.9560 C   0  0  0  0  0  3  0  0  0  0  0  0
  -17.5100  -30.4890   24.1120 C   0  0  0  0  0  3  0  0  0  0  0  0
  -16.4370  -29.7100   23.6430 C   0  0  0  0  0  3  0  0  0  0  0  0
  -16.6890  -28.4790   23.0110 C   0  0  0  0  0  3  0  0  0  0  0  0
  -26.1260  -32.1960   23.9190 C   0  0  0  0  0  3  0  0  0  0  0  0
  -25.9440  -33.5700   24.4090 N   0  0  0  0  0  0  0  0  0  0  0  0
  -26.3070  -34.6700   23.7380 C   0  0  0  0  0  0  0  0  0  0  0  0
  -26.9000  -34.6290   22.6560 O   0  0  0  0  0  0  0  0  0  0  0  0
  -25.4180  -33.6790   25.2620 H   0  0  0  0  0  0  0  0  0  0  0  0
  -24.7000  -36.6050   23.6820 C   0  0  0  0  0  1  0  0  0  0  0  0
  -25.9540  -36.0340   24.3630 C   0  0  0  0  0  3  0  0  0  0  0  0
  -28.1980  -36.6730   25.1280 C   0  0  0  0  0  1  0  0  0  0  0  0
  -27.0540  -37.0180   24.2870 N   0  0  0  0  0  0  0  0  0  0  0  0
  -26.7330  -37.9450   24.5560 H   0  0  0  0  0  0  0  0  0  0  0  0
  -26.6820  -31.2690   25.0690 C   0  0  1  0  0  0  0  0  0  0  0  0
  -25.6630  -30.9980   26.2000 C   0  0  0  0  0  1  0  0  0  0  0  0
  -27.1270  -29.9050   24.4940 C   0  0  0  0  0  1  0  0  0  0  0  0
  -27.9420  -31.9100   25.6990 C   0  0  0  0  0  1  0  0  0  0  0  0
  -30.5330  -17.1580   20.7400 C   0  0  0  0  0  0  0  0  0  0  0  0
  -31.0280  -14.7670   19.8820 C   0  0  0  0  0  0  0  0  0  0  0  0
  -30.8020  -12.4690   18.9890 C   0  0  0  0  0  2  0  0  0  0  0  0
  -29.8040  -12.4770   17.8120 C   0  0  0  0  0  2  0  0  0  0  0  0
  -28.3440  -12.3720   18.3060 C   0  0  0  0  0  2  0  0  0  0  0  0
  -28.0270  -13.3550   19.4610 C   0  0  0  0  0  3  0  0  0  0  0  0
  -29.1200  -13.2720   20.5500 C   0  0  0  0  0  2  0  0  0  0  0  0
  -30.4180  -13.5520   19.9060 N   0  0  0  0  0  0  0  0  0  0  0  0
  -32.1000  -14.9770   19.3070 O   0  0  0  0  0  0  0  0  0  0  0  0
  -30.3110  -15.7300   20.4820 N   0  0  0  0  0  4  0  0  0  0  0  0
  -29.4510  -15.3840   20.8780 H   0  0  0  0  0  0  0  0  0  0  0  0
  -25.6970  -14.0410   20.3140 C   0  0  0  0  0  0  0  0  0  0  0  0
  -24.6190  -13.3020   20.7190 C   0  0  0  0  0  0  0  0  0  0  0  0
  -25.0220  -11.9340   20.6280 C   0  0  0  0  0  0  0  0  0  0  0  0
  -26.6930  -13.1240   20.0090 N   0  0  0  0  0  0  0  0  0  0  0  0
  -26.2910  -11.8490   20.2530 N   0  0  0  0  0  0  0  0  0  0  0  0
  -24.2570  -10.6940   20.8280 C   0  0  0  0  0  0  0  0  0  0  0  0
  -24.6760   -9.7100   21.7500 C   0  0  0  0  0  3  0  0  0  0  0  0
  -23.9180   -8.5340   21.9370 C   0  0  0  0  0  3  0  0  0  0  0  0
  -22.7250   -8.3380   21.2020 C   0  0  0  0  0  0  0  0  0  0  0  0
  -22.3240   -9.3080   20.2680 C   0  0  0  0  0  3  0  0  0  0  0  0
  -23.0820  -10.4780   20.0800 C   0  0  0  0  0  3  0  0  0  0  0  0
  -21.9380   -7.2160   21.2980 O   0  0  0  0  0  0  0  0  0  0  0  0
  -21.8410   -6.5020   22.4630 C   0  0  0  0  0  0  0  0  0  0  0  0
  -21.4100   -7.0990   23.6690 C   0  0  0  0  0  3  0  0  0  0  0  0
  -21.2640   -6.3140   24.8300 C   0  0  0  0  0  3  0  0  0  0  0  0
  -21.5340   -4.9330   24.7860 C   0  0  0  0  0  0  0  0  0  0  0  0
  -21.9560   -4.3370   23.5840 C   0  0  0  0  0  3  0  0  0  0  0  0
  -22.1070   -5.1190   22.4270 C   0  0  0  0  0  0  0  0  0  0  0  0
  -22.4970   -4.5350   21.2680 F   0  0  0  0  0  0  0  0  0  0  0  0
  -21.3840   -4.1770   25.8980 F   0  0  0  0  0  0  0  0  0  0  0  0
  -23.2590  -13.8250   21.0820 C   0  0  0  0  0  0  0  0  0  0  0  0
  -22.5610  -13.1380   21.9790 N   0  0  0  0  0  0  0  0  0  0  0  0
  -22.8270  -14.8730   20.6050 O   0  0  0  0  0  0  0  0  0  0  0  0
  -22.9230  -12.2850   22.3730 H   0  0  0  0  0  0  0  0  0  0  0  0
  -21.6530  -13.4720   22.2740 H   0  0  0  0  0  0  0  0  0  0  0  0
  -25.9100  -15.4080   20.1650 N   0  0  0  0  0  0  0  0  0  0  0  0
  -25.1810  -16.0930   20.3280 H   0  0  0  0  0  0  0  0  0  0  0  0
  -26.7520  -15.8140   19.7760 H   0  0  0  0  0  0  0  0  0  0  0  0
  -31.9950  -17.6470   20.5990 C   0  0  0  0  0  2  0  0  0  0  0  0
  -33.6850  -19.5470   20.6550 C   0  0  0  0  0  1  0  0  0  0  0  0
  -31.8250  -19.5540   22.3390 C   0  0  0  0  0  1  0  0  0  0  0  0
  -32.2220  -19.1500   20.9040 C   0  0  0  0  0  3  0  0  0  0  0  0
  1  3  1  0
  2  1  2  0
  4  6  1  0
  5  4  2  0
  5  2  1  0
  6 54  1  0
  6  3  2  0
  7  9  1  0
  7  5  1  0
  9  8  1  0
 10  9  1  0
 10 11  1  0
 11 12  1  0
 13 15  1  0
 13 12  1  0
 14 25  2  0
 15 20  1  0
 16 24  1  0
 16 26  1  0
 17 23  1  0
 17 19  1  0
 18 24  1  0
 19 18  1  0
 20 19  2  0
 21 22  1  0
 21 15  2  0
 22 17  2  0
 23 16  1  0
 24 14  1  0
 26 28  2  0
 27 26  1  0
 29 27  1  0
 30 39  2  0
 30 35  1  0
 31 27  1  0
 31 35  1  0
 32 31  1  0
 33 34  1  0
 33 32  1  0
 34 30  1  0
 35 36  2  0
 36 37  1  0
 38 37  2  0
 39 38  1  0
 40 14  1  0
 40 41  1  0
 40 50  1  0
 41 44  1  0
 42 46  1  0
 42 41  1  0
 43 42  2  0
 46 45  1  0
 48 46  1  0
 48 49  1  0
 48 47  1  0
 50 53  1  1
 50 51  1  0
 52 50  1  0
 55 61  1  0
 55 63  1  0
 56 61  1  0
 57 58  1  0
 57 56  1  0
 59 58  1  0
 59 68  1  0
 59 60  1  0
 61 60  1  0
 62 55  2  0
 63 54  2  0
 63 64  1  0
 65 66  2  0
 66 85  1  0
 67 66  1  0
 67 70  1  0
 68 69  1  0
 68 65  1  0
 69 67  2  0
 70 71  1  0
 71 72  2  0
 73 76  1  0
 73 72  1  0
 74 73  2  0
 75 74  1  0
 75 70  2  0
 76 77  1  0
 77 78  1  0
 78 79  2  0
 80 79  1  0
 80 84  1  0
 81 80  2  0
 82 77  2  0
 82 81  1  0
 83 82  1  0
 85 86  1  0
 86 89  1  0
 86 88  1  0
 87 85  2  0
 90 65  1  0
 90 91  1  0
 92 90  1  0
 93 54  1  0
 93 96  1  0
 94 96  1  0
 96 95  1  0
M  ISO  4  12 101  13 101  55 100  63 100
M  END
>  <TORSDO>  (26) 
F 24

>  <SCORE>  (26) 
-11.333

>  <name>  (26) 
26

>  <ligand_id>  (26) 
26

>  <original_smiles>  (26) 
[H]c1c([H])c([H])c2c(c1[H])C([H])([H])C([H])([H])C([H])([H])C2([H])N([H])C(=O)C1([H])N(C(=O)C([H])(N([H])C(=O)C([H])(N([H])C([H])([H])[H])C([H])([H])[H])C(C([H])([H])[H])(C([H])([H])[H])C([H])([H])[H])C([H])([H])c2c([H])c(OC([H])([H])C([H])([H])C([H])([H])C([H])(C([H])([H])[H])C([H])([H])c3c([H])c([H])c([H])c(C([H])(N([H])C(=O)N4C([H])([H])C([H])([H])C([H])([H])C([H])(n5nc(-c6c([H])c([H])c(Oc7c([H])c([H])c(F)c([H])c7F)c([H])c6[H])c(C(=O)N([H])[H])c5N([H])[H])C4([H])[H])C([H])([H])C([H])(C([H])([H])[H])C([H])([H])[H])c3[H])c([H])c([H])c2C1([H])[H]

>  <smiles>  (26) 
[H]c1c([H])c([H])c2c(c1[H])C([H])([H])C([H])([H])C([H])([H])C2([H])N([H])C(=O)C1([H])N(C(=O)C([H])(N([H])C(=O)C([H])(N([H])C([H])([H])[H])C([H])([H])[H])C(C([H])([H])[H])(C([H])([H])[H])C([H])([H])[H])C([H])([H])c2c([H])c(OC([H])([H])C([H])([H])C([H])([H])C([H])(C([H])([H])[H])C([H])([H])c3c([H])c([H])c([H])c(C([H])(N([H])C(=O)N4C([H])([H])C([H])([H])C([H])([H])C([H])(n5nc(-c6c([H])c([H])c(Oc7c([H])c([H])c(F)c([H])c7F)c([H])c6[H])c(C(=O)N([H])[H])c5N([H])[H])C4([H])[H])C([H])([H])C([H])(C([H])([H])[H])C([H])([H])[H])c3[H])c([H])c([H])c2C1([H])[H]

$$$$
27:0:0
     RDKit          3D

 98106  0  0  1  0  0  0  0  0999 V2000
  -29.6610  -21.5480   18.6380 C   0  0  0  0  0  2  0  0  0  0  0  0
  -30.2040  -20.7680   17.4230 C   0  0  0  0  0  2  0  0  0  0  0  0
  -31.4940  -19.9620   17.6800 C   0  0  0  0  0  2  0  0  0  0  0  0
  -31.1700  -19.2610   20.0620 C   0  0  0  0  0  0  0  0  0  0  0  0
  -31.4240  -18.9950   18.7760 N   0  0  0  0  0  0  0  0  0  0  0  0
  -30.7160  -20.3420   20.4410 O   0  0  0  0  0  0  0  0  0  0  0  0
  -31.7860  -18.0710   18.5770 H   0  0  0  0  0  0  0  0  0  0  0  0
  -31.3380  -18.6600   23.4900 C   0  0  0  0  0  2  0  0  0  0  0  0
  -32.2960  -18.7780   22.3060 C   0  0  0  0  0  2  0  0  0  0  0  0
  -30.5580  -17.3860   23.2040 C   0  0  0  0  0  2  0  0  0  0  0  0
  -31.5580  -18.1730   21.0880 C   0  0  0  0  0  3  0  0  0  0  0  0
  -30.3340  -17.4020   21.6850 C   0  0  0  0  0  3  0  0  0  0  0  0
  -30.5480  -15.2190   20.3040 C   0  0  0  0  0  0  0  0  0  0  0  0
  -30.4570  -12.9450   19.3420 C   0  0  0  0  0  2  0  0  0  0  0  0
  -29.5040  -12.8950   18.1350 C   0  0  0  0  0  2  0  0  0  0  0  0
  -28.0590  -12.6240   18.5950 C   0  0  0  0  0  2  0  0  0  0  0  0
  -27.6180  -13.5710   19.7430 C   0  0  0  0  0  3  0  0  0  0  0  0
  -28.6830  -13.6090   20.8610 C   0  0  0  0  0  2  0  0  0  0  0  0
  -29.9790  -13.9860   20.2620 N   0  0  0  0  0  0  0  0  0  0  0  0
  -31.5030  -15.5350   19.5910 O   0  0  0  0  0  0  0  0  0  0  0  0
  -30.0140  -16.0390   21.2180 N   0  0  0  0  0  0  0  0  0  0  0  0
  -29.2400  -15.6100   21.7060 H   0  0  0  0  0  0  0  0  0  0  0  0
  -25.2170  -14.0070   20.5700 C   0  0  0  0  0  0  0  0  0  0  0  0
  -24.2120  -13.1580   20.9510 C   0  0  0  0  0  0  0  0  0  0  0  0
  -24.7470  -11.8390   20.8410 C   0  0  0  0  0  0  0  0  0  0  0  0
  -26.3000  -13.1990   20.2610 N   0  0  0  0  0  0  0  0  0  0  0  0
  -26.0210  -11.8870   20.4760 N   0  0  0  0  0  0  0  0  0  0  0  0
  -24.1020  -10.5280   21.0100 C   0  0  0  0  0  0  0  0  0  0  0  0
  -24.5380   -9.6120   21.9920 C   0  0  0  0  0  3  0  0  0  0  0  0
  -23.8910   -8.3670   22.1460 C   0  0  0  0  0  3  0  0  0  0  0  0
  -22.7960   -8.0280   21.3160 C   0  0  0  0  0  0  0  0  0  0  0  0
  -22.3820   -8.9350   20.3250 C   0  0  0  0  0  3  0  0  0  0  0  0
  -23.0300  -10.1720   20.1690 C   0  0  0  0  0  3  0  0  0  0  0  0
  -22.1230   -6.8320   21.3770 O   0  0  0  0  0  0  0  0  0  0  0  0
  -21.9280   -6.1750   22.5660 C   0  0  0  0  0  0  0  0  0  0  0  0
  -21.2210   -6.7660   23.6360 C   0  0  0  0  0  3  0  0  0  0  0  0
  -20.9830   -6.0280   24.8140 C   0  0  0  0  0  3  0  0  0  0  0  0
  -21.4420   -4.7020   24.9200 C   0  0  0  0  0  0  0  0  0  0  0  0
  -22.1410   -4.1100   23.8530 C   0  0  0  0  0  3  0  0  0  0  0  0
  -22.3820   -4.8450   22.6790 C   0  0  0  0  0  0  0  0  0  0  0  0
  -23.0380   -4.2630   21.6460 F   0  0  0  0  0  0  0  0  0  0  0  0
  -21.2060   -3.9910   26.0490 F   0  0  0  0  0  0  0  0  0  0  0  0
  -22.8040  -13.5420   21.3050 C   0  0  0  0  0  0  0  0  0  0  0  0
  -22.1630  -12.7750   22.1820 N   0  0  0  0  0  0  0  0  0  0  0  0
  -22.2790  -14.5530   20.8420 O   0  0  0  0  0  0  0  0  0  0  0  0
  -22.6030  -11.9550   22.5750 H   0  0  0  0  0  0  0  0  0  0  0  0
  -21.2220  -13.0080   22.4620 H   0  0  0  0  0  0  0  0  0  0  0  0
  -25.2930  -15.3900   20.4450 N   0  0  0  0  0  0  0  0  0  0  0  0
  -24.4980  -15.9930   20.6240 H   0  0  0  0  0  0  0  0  0  0  0  0
  -26.1050  -15.8940   20.1080 H   0  0  0  0  0  0  0  0  0  0  0  0
  -28.7710  -22.7260   18.2080 C   0  0  0  0  0  2  0  0  0  0  0  0
  -28.2100  -23.5540   19.3960 C   0  0  0  0  0  3  0  0  0  0  0  0
  -28.4260  -25.0690   19.2030 C   0  0  0  0  0  0  0  0  0  0  0  0
  -28.4310  -25.5810   18.0780 O   0  0  0  0  0  0  0  0  0  0  0  0
  -28.6150  -25.9110   20.4740 C   0  0  0  0  0  2  0  0  0  0  0  0
  -28.6470  -27.3140   20.1890 O   0  0  0  0  0  0  0  0  0  0  0  0
  -24.7190  -32.1850   23.5410 C   0  0  0  0  0  0  0  0  0  0  0  0
  -27.4420  -27.9740   20.2390 C   0  0  0  0  0  0  0  0  0  0  0  0
  -23.5290  -30.8320   21.8460 C   0  0  0  0  0  3  0  0  0  0  0  0
  -25.0050  -29.4000   20.3380 C   0  0  0  0  0  0  0  0  0  0  0  0
  -26.0390  -31.2700   21.6360 C   0  0  0  0  0  2  0  0  0  0  0  0
  -26.1530  -29.9310   20.9400 C   0  0  0  0  0  0  0  0  0  0  0  0
  -27.3740  -29.2260   20.8860 C   0  0  0  0  0  3  0  0  0  0  0  0
  -26.2750  -27.4520   19.6370 C   0  0  0  0  0  3  0  0  0  0  0  0
  -25.0610  -28.1590   19.6830 C   0  0  0  0  0  3  0  0  0  0  0  0
  -23.7410  -30.2220   20.4340 C   0  0  0  0  0  2  0  0  0  0  0  0
  -24.7820  -31.4400   22.4000 N   0  0  0  0  0  0  0  0  0  0  0  0
  -23.6380  -32.4080   24.1010 O   0  0  0  0  0  0  0  0  0  0  0  0
  -22.9140  -29.7510   22.7630 C   0  0  0  0  0  0  0  0  0  0  0  0
  -21.6080  -29.4920   22.5860 N   0  0  0  0  0  0  0  0  0  0  0  0
  -23.6080  -29.1510   23.5870 O   0  0  0  0  0  0  0  0  0  0  0  0
  -21.1080  -30.0350   21.8960 H   0  0  0  0  0  0  0  0  0  0  0  0
  -18.3160  -28.0340   22.8800 C   0  0  0  0  0  0  0  0  0  0  0  0
  -20.8250  -28.4920   23.3070 C   0  0  0  0  0  3  0  0  0  0  0  0
  -21.0760  -27.0760   22.7390 C   0  0  0  0  0  2  0  0  0  0  0  0
  -20.0650  -26.6700   21.6620 C   0  0  0  0  0  2  0  0  0  0  0  0
  -18.6390  -26.7040   22.2200 C   0  0  0  0  0  2  0  0  0  0  0  0
  -19.3430  -28.8800   23.3760 C   0  0  0  0  0  0  0  0  0  0  0  0
  -18.9910  -30.1230   23.9460 C   0  0  0  0  0  3  0  0  0  0  0  0
  -17.6420  -30.5210   24.0290 C   0  0  0  0  0  3  0  0  0  0  0  0
  -16.6290  -29.6710   23.5510 C   0  0  0  0  0  3  0  0  0  0  0  0
  -16.9660  -28.4300   22.9800 C   0  0  0  0  0  3  0  0  0  0  0  0
  -25.9980  -32.8140   24.1770 C   0  0  0  0  0  3  0  0  0  0  0  0
  -26.4700  -32.0720   25.4890 C   0  0  1  0  0  0  0  0  0  0  0  0
  -25.3370  -31.8500   26.5170 C   0  0  0  0  0  1  0  0  0  0  0  0
  -27.0730  -30.6900   25.1450 C   0  0  0  0  0  1  0  0  0  0  0  0
  -27.5930  -32.8870   26.1750 C   0  0  0  0  0  1  0  0  0  0  0  0
  -25.7020  -34.2260   24.4540 N   0  0  0  0  0  0  0  0  0  0  0  0
  -26.0650  -35.2460   23.6630 C   0  0  0  0  0  0  0  0  0  0  0  0
  -26.7550  -35.0970   22.6500 O   0  0  0  0  0  0  0  0  0  0  0  0
  -25.0910  -34.4150   25.2340 H   0  0  0  0  0  0  0  0  0  0  0  0
  -24.3650  -37.0450   23.2150 C   0  0  0  0  0  1  0  0  0  0  0  0
  -25.5890  -36.6560   24.0590 C   0  0  0  0  0  3  0  0  0  0  0  0
  -27.7200  -37.5500   24.8930 C   0  0  0  0  0  1  0  0  0  0  0  0
  -26.6370  -37.6920   23.9240 N   0  0  0  0  0  0  0  0  0  0  0  0
  -26.2370  -38.6210   24.0300 H   0  0  0  0  0  0  0  0  0  0  0  0
  -26.1140  -23.7340   20.9460 C   0  0  0  0  0  1  0  0  0  0  0  0
  -26.7260  -23.1980   19.6420 C   0  0  0  0  0  2  0  0  0  0  0  0
  2  3  1  0
  2  1  1  0
  3  5  1  0
  4  6  2  0
  5  4  1  0
  7  5  1  0
  9  8  1  0
 10  8  1  0
 11  4  1  0
 11 12  1  0
 11  9  1  0
 12 21  1  0
 12 10  1  0
 13 21  1  0
 14 19  1  0
 15 16  1  0
 15 14  1  0
 17 16  1  0
 17 26  1  0
 17 18  1  0
 19 13  1  0
 19 18  1  0
 20 13  2  0
 21 22  1  0
 23 24  2  0
 24 43  1  0
 25 24  1  0
 25 28  1  0
 26 27  1  0
 26 23  1  0
 27 25  2  0
 28 29  1  0
 29 30  2  0
 31 34  1  0
 31 30  1  0
 32 31  2  0
 33 32  1  0
 33 28  2  0
 34 35  1  0
 35 40  2  0
 35 36  1  0
 36 37  2  0
 37 38  1  0
 38 42  1  0
 39 38  2  0
 40 39  1  0
 41 40  1  0
 43 44  1  0
 44 47  1  0
 44 46  1  0
 45 43  2  0
 48 23  1  0
 48 49  1  0
 50 48  1  0
 51  1  1  0
 52 51  1  0
 52 98  1  0
 53 52  1  0
 53 55  1  0
 54 53  2  0
 56 58  1  0
 56 55  1  0
 57 68  2  0
 58 63  1  0
 59 67  1  0
 59 69  1  0
 60 66  1  0
 60 62  1  0
 61 67  1  0
 62 61  1  0
 63 62  2  0
 64 65  1  0
 64 58  2  0
 65 60  2  0
 66 59  1  0
 67 57  1  0
 69 71  2  0
 70 69  1  0
 72 70  1  0
 73 82  2  0
 73 78  1  0
 74 70  1  0
 74 78  1  0
 75 74  1  0
 76 77  1  0
 76 75  1  0
 77 73  1  0
 78 79  2  0
 79 80  1  0
 81 80  2  0
 82 81  1  0
 83 57  1  0
 83 88  1  0
 83 84  1  0
 84 87  1  1
 84 85  1  0
 86 84  1  0
 88 91  1  0
 89 93  1  0
 89 88  1  0
 90 89  2  0
 93 92  1  0
 95 96  1  0
 95 93  1  0
 95 94  1  0
 98 97  1  0
M  ISO  4  13 100  21 100  55 101  56 101
M  END
>  <TORSDO>  (27) 
F 25

>  <SCORE>  (27) 
-10.956

>  <name>  (27) 
27

>  <ligand_id>  (27) 
27

>  <original_smiles>  (27) 
[H]c1c([H])c([H])c2c(c1[H])C([H])([H])C([H])([H])C([H])([H])C2([H])N([H])C(=O)C1([H])N(C(=O)C([H])(N([H])C(=O)C([H])(N([H])C([H])([H])[H])C([H])([H])[H])C(C([H])([H])[H])(C([H])([H])[H])C([H])([H])[H])C([H])([H])c2c([H])c(OC([H])([H])C(=O)C([H])(C([H])([H])C([H])([H])[H])C([H])([H])C([H])([H])C([H])([H])C([H])([H])N([H])C(=O)C3([H])C([H])([H])C([H])([H])C([H])([H])C3([H])N([H])C(=O)N3C([H])([H])C([H])([H])C([H])([H])C([H])(n4nc(-c5c([H])c([H])c(Oc6c([H])c([H])c(F)c([H])c6F)c([H])c5[H])c(C(=O)N([H])[H])c4N([H])[H])C3([H])[H])c([H])c([H])c2C1([H])[H]

>  <smiles>  (27) 
[H]c1c([H])c([H])c2c(c1[H])C([H])([H])C([H])([H])C([H])([H])C2([H])N([H])C(=O)C1([H])N(C(=O)C([H])(N([H])C(=O)C([H])(N([H])C([H])([H])[H])C([H])([H])[H])C(C([H])([H])[H])(C([H])([H])[H])C([H])([H])[H])C([H])([H])c2c([H])c(OC([H])([H])C(=O)C([H])(C([H])([H])C([H])([H])[H])C([H])([H])C([H])([H])C([H])([H])C([H])([H])N([H])C(=O)C3([H])C([H])([H])C([H])([H])C([H])([H])C3([H])N([H])C(=O)N3C([H])([H])C([H])([H])C([H])([H])C([H])(n4nc(-c5c([H])c([H])c(Oc6c([H])c([H])c(F)c([H])c6F)c([H])c5[H])c(C(=O)N([H])[H])c4N([H])[H])C3([H])[H])c([H])c([H])c2C1([H])[H]

$$$$
28:0:0
     RDKit          3D

 99 99  0  0  1  0  0  0  0  0999 V2000
  -28.7540  -23.2170   20.8480 C   0  0  0  0  0 15  0  0  0  0  0  0
  -29.9370  -25.8100   19.7870 C   0  0  0  0  0 15  0  0  0  0  0  0
  -26.5040  -25.0800   18.7370 C   0  0  0  0  0 15  0  0  0  0  0  0
  -30.5300  -23.9110   20.1780 C   0  0  0  0  0 15  0  0  0  0  0  0
  -26.8710  -23.4260   20.0080 C   0  0  0  0  0  1  0  0  0  0  0  0
  -28.2130  -26.4670   18.7980 C   0  0  0  0  0  1  0  0  0  0  0  0
  -34.9040  -21.1930   18.8050 C   0  0  0  0  0  0  0  0  0  0  0  0
  -37.1740  -20.3250   17.4340 C   0  0  0  0  0  2  0  0  0  0  0  0
  -37.5490  -20.7120   15.9600 C   0  0  0  0  0  2  0  0  0  0  0  0
  -36.8490  -19.8080   14.9420 C   0  0  0  0  0  2  0  0  0  0  0  0
  -35.4100  -19.5150   15.4040 C   0  0  0  0  0  3  0  0  0  0  0  0
  -35.2600  -19.1530   16.9160 C   0  0  0  0  0  2  0  0  0  0  0  0
  -35.6290  -20.3610   17.7410 N   0  0  0  0  0  0  0  0  0  0  0  0
  -35.8470  -21.3700   19.6150 O   0  0  0  0  0  0  0  0  0  0  0  0
  -32.3420  -22.9260   19.8580 C   0  0  0  0  0  2  0  0  0  0  0  0
  -33.4090  -21.9520   19.0100 N   0  0  0  0  0  0  0  0  0  0  0  0
  -33.0030  -23.2290   20.8530 O   0  0  0  0  0  1  0  0  0  0  0  0
  -33.9140  -22.2150   19.8460 H   0  0  0  0  0  0  0  0  0  0  0  0
  -33.4260  -18.8640   13.9820 C   0  0  0  0  0  0  0  0  0  0  0  0
  -33.1970  -17.8620   13.0860 C   0  0  0  0  0  0  0  0  0  0  0  0
  -34.3610  -17.0310   13.1100 C   0  0  0  0  0  0  0  0  0  0  0  0
  -34.6820  -18.6290   14.5040 N   0  0  0  0  0  0  0  0  0  0  0  0
  -35.2280  -17.4790   14.0180 N   0  0  0  0  0  0  0  0  0  0  0  0
  -34.7110  -15.8720   12.2730 C   0  0  0  0  0  0  0  0  0  0  0  0
  -35.1550  -14.6540   12.8360 C   0  0  0  0  0  3  0  0  0  0  0  0
  -35.4570  -13.5490   12.0090 C   0  0  0  0  0  3  0  0  0  0  0  0
  -35.3130  -13.6520   10.6060 C   0  0  0  0  0  0  0  0  0  0  0  0
  -34.8940  -14.8710   10.0470 C   0  0  0  0  0  3  0  0  0  0  0  0
  -34.5990  -15.9720   10.8700 C   0  0  0  0  0  3  0  0  0  0  0  0
  -35.6090  -12.6390    9.7250 O   0  0  0  0  0  0  0  0  0  0  0  0
  -35.6390  -11.3250   10.1200 C   0  0  0  0  0  0  0  0  0  0  0  0
  -34.4750  -10.6500   10.5470 C   0  0  0  0  0  3  0  0  0  0  0  0
  -34.5370   -9.2810   10.8770 C   0  0  0  0  0  3  0  0  0  0  0  0
  -35.7550   -8.5830   10.7720 C   0  0  0  0  0  0  0  0  0  0  0  0
  -36.9130   -9.2520   10.3440 C   0  0  0  0  0  3  0  0  0  0  0  0
  -36.8550  -10.6190   10.0150 C   0  0  0  0  0  0  0  0  0  0  0  0
  -37.9700  -11.2520    9.5800 F   0  0  0  0  0  0  0  0  0  0  0  0
  -35.8110   -7.2670   11.0840 F   0  0  0  0  0  0  0  0  0  0  0  0
  -32.0020  -17.7430   12.1870 C   0  0  0  0  0  0  0  0  0  0  0  0
  -31.5680  -16.5220   11.9000 N   0  0  0  0  0  0  0  0  0  0  0  0
  -31.4180  -18.7430   11.7720 O   0  0  0  0  0  0  0  0  0  0  0  0
  -32.0390  -15.7040   12.2570 H   0  0  0  0  0  0  0  0  0  0  0  0
  -30.7560  -16.4040   11.3110 H   0  0  0  0  0  0  0  0  0  0  0  0
  -32.6930  -19.9790   14.3770 N   0  0  0  0  0  0  0  0  0  0  0  0
  -31.7940  -20.2100   13.9700 H   0  0  0  0  0  0  0  0  0  0  0  0
  -33.0200  -20.6710   15.0400 H   0  0  0  0  0  0  0  0  0  0  0  0
  -28.4840  -27.1250   17.5030 N   0  0  0  0  0  4  0  0  0  0  0  0
  -28.7620  -26.4560   16.8040 H   0  0  0  0  0  0  0  0  0  0  0  0
  -29.2120  -27.8120   17.6030 H   0  0  0  0  0  0  0  0  0  0  0  0
  -27.6630  -27.5970   17.1640 H   0  0  0  0  0  0  0  0  0  0  0  0
  -26.3210  -22.0890   19.4370 C   0  0  0  0  0  2  0  0  0  0  0  0
  -27.1440  -22.5380   16.9950 C   0  0  0  0  0  1  0  0  0  0  0  0
  -26.0370  -20.4290   17.6000 C   0  0  0  0  0  1  0  0  0  0  0  0
  -26.0400  -21.9420   17.9120 C   0  0  1  0  0  0  0  0  0  0  0  0
  -24.6290  -22.4550   17.5470 C   0  0  0  0  0  2  0  0  0  0  0  0
  -23.3620  -24.6010   16.9780 C   0  0  0  0  0  1  0  0  0  0  0  0
  -24.1710  -23.8430   18.0720 C   0  0  0  0  0  3  0  0  0  0  0  0
  -23.7900  -24.0620   19.6630 C   0  0  0  0  0  1  0  0  0  0  0  0
  -21.7740  -24.4100   21.1530 O   0  0  0  0  0  1  0  0  0  0  0  0
  -13.7900  -25.2260   23.3170 C   0  0  0  0  0  0  0  0  0  0  0  0
  -20.0650  -24.8510   20.9290 C   0  0  0  0  0  0  0  0  0  0  0  0
  -14.5560  -23.8330   21.4580 C   0  0  0  0  0  3  0  0  0  0  0  0
  -16.9070  -24.4090   20.4170 C   0  0  0  0  0  0  0  0  0  0  0  0
  -15.9500  -25.9520   22.0410 C   0  0  0  0  0  2  0  0  0  0  0  0
  -17.2910  -25.3280   21.3930 C   0  0  0  0  0  0  0  0  0  0  0  0
  -18.8160  -25.5160   21.6500 C   0  0  0  0  0  3  0  0  0  0  0  0
  -19.3140  -24.3890   19.7570 C   0  0  0  0  0  3  0  0  0  0  0  0
  -17.9420  -24.0110   19.5880 C   0  0  0  0  0  3  0  0  0  0  0  0
  -15.4440  -23.9560   20.1870 C   0  0  0  0  0  2  0  0  0  0  0  0
  -14.7360  -25.0430   22.3210 N   0  0  0  0  0  0  0  0  0  0  0  0
  -12.8800  -24.4000   23.5290 O   0  0  0  0  0  0  0  0  0  0  0  0
  -14.8510  -22.5080   22.2190 C   0  0  0  0  0  0  0  0  0  0  0  0
  -13.8580  -21.9190   22.9170 N   0  0  0  0  0  0  0  0  0  0  0  0
  -15.9810  -22.0190   22.1610 O   0  0  0  0  0  0  0  0  0  0  0  0
  -12.9570  -22.3760   22.9410 H   0  0  0  0  0  0  0  0  0  0  0  0
  -12.1010  -19.5370   25.0460 C   0  0  0  0  0  0  0  0  0  0  0  0
  -13.9620  -20.6260   23.6110 C   0  0  0  0  0  3  0  0  0  0  0  0
  -13.7370  -19.4520   22.6290 C   0  0  0  0  0  2  0  0  0  0  0  0
  -12.2840  -18.9700   22.5870 C   0  0  0  0  0  2  0  0  0  0  0  0
  -11.8330  -18.4970   23.9720 C   0  0  0  0  0  2  0  0  0  0  0  0
  -13.0880  -20.5460   24.8700 C   0  0  0  0  0  0  0  0  0  0  0  0
  -13.2760  -21.5010   25.8940 C   0  0  0  0  0  3  0  0  0  0  0  0
  -12.4980  -21.4630   27.0680 C   0  0  0  0  0  3  0  0  0  0  0  0
  -11.5310  -20.4570   27.2400 C   0  0  0  0  0  3  0  0  0  0  0  0
  -11.3380  -19.4940   26.2340 C   0  0  0  0  0  3  0  0  0  0  0  0
  -13.7950  -26.4790   24.2390 C   0  0  0  0  0  3  0  0  0  0  0  0
  -13.4300  -26.0580   25.6110 N   0  0  0  0  0  0  0  0  0  0  0  0
  -12.1850  -25.9850   26.1060 C   0  0  0  0  0  0  0  0  0  0  0  0
  -11.1930  -26.3090   25.4500 O   0  0  0  0  0  0  0  0  0  0  0  0
  -14.1880  -25.7340   26.1920 H   0  0  0  0  0  0  0  0  0  0  0  0
  -11.5690  -24.0030   27.5390 C   0  0  0  0  0  1  0  0  0  0  0  0
  -12.0070  -25.4760   27.5560 C   0  0  0  0  0  3  0  0  0  0  0  0
  -11.5310  -27.6080   28.6820 C   0  0  0  0  0  1  0  0  0  0  0  0
  -11.0430  -26.2710   28.3530 N   0  0  0  0  0  0  0  0  0  0  0  0
  -10.8150  -25.7930   29.2210 H   0  0  0  0  0  0  0  0  0  0  0  0
  -15.1950  -27.2120   24.2760 C   0  0  1  0  0  0  0  0  0  0  0  0
  -16.3950  -26.2570   24.4780 C   0  0  0  0  0  1  0  0  0  0  0  0
  -15.4620  -28.0080   22.9810 C   0  0  0  0  0  1  0  0  0  0  0  0
  -15.2070  -28.2490   25.4250 C   0  0  0  0  0  1  0  0  0  0  0  0
  7 16  1  0
  7 14  2  0
  8 13  1  0
  9  8  1  0
 10 11  1  0
 10  9  1  0
 11 22  1  0
 11 12  1  0
 12 13  1  0
 13  7  1  0
 15 17  1  0
 16 18  1  0
 16 15  1  0
 19 44  1  0
 19 22  1  0
 20 21  1  0
 20 19  2  0
 21 23  2  0
 23 22  1  0
 24 25  1  0
 24 21  1  0
 26 25  2  0
 27 26  1  0
 28 27  2  0
 28 29  1  0
 29 24  2  0
 30 31  1  0
 30 27  1  0
 31 32  1  0
 32 33  2  0
 34 33  1  0
 34 38  1  0
 35 34  2  0
 36 31  2  0
 36 35  1  0
 37 36  1  0
 39 20  1  0
 40 39  1  0
 40 42  1  0
 41 39  2  0
 43 40  1  0
 44 46  1  0
 45 44  1  0
 47 49  1  0
 47  6  1  0
 48 47  1  0
 50 47  1  0
 51  5  1  0
 54 52  1  6
 53 54  1  0
 54 51  1  0
 55 54  1  0
 55 57  1  0
 56 57  1  0
 57 58  1  0
 60 71  2  0
 61 59  1  0
 61 66  1  0
 62 72  1  0
 62 70  1  0
 63 65  1  0
 64 70  1  0
 65 66  2  0
 65 64  1  0
 67 61  2  0
 68 67  1  0
 68 63  2  0
 69 63  1  0
 69 62  1  0
 70 60  1  0
 72 73  1  0
 73 75  1  0
 74 72  2  0
 76 85  1  0
 77 73  1  0
 77 81  1  0
 78 77  1  0
 79 78  1  0
 79 80  1  0
 80 76  1  0
 81 76  2  0
 81 82  1  0
 82 83  2  0
 83 84  1  0
 85 84  2  0
 86 60  1  0
 86 96  1  0
 86 87  1  0
 87 88  1  0
 87 90  1  0
 88 92  1  0
 89 88  2  0
 92 91  1  0
 92 94  1  0
 94 93  1  0
 94 95  1  0
 96 97  1  1
 96 99  1  0
 98 96  1  0
M  ISO  4   7 100  16 100  58 101  59 101
M  END
>  <TORSDO>  (28) 
F 22

>  <SCORE>  (28) 
-3.302

>  <name>  (28) 
28

>  <ligand_id>  (28) 
28

>  <original_smiles>  (28) 
[H]c1c([H])c([H])c2c(c1[H])C([H])([H])C([H])([H])C([H])([H])C2([H])N([H])C(=O)C1([H])N(C(=O)C([H])(N([H])C(=O)C([H])(N([H])C([H])([H])[H])C([H])([H])[H])C(C([H])([H])[H])(C([H])([H])[H])C([H])([H])[H])C([H])([H])c2c([H])c(OC([H])([H])C([H])(C([H])([H])[H])C([H])([H])C(C([H])([H])[H])(C([H])([H])[H])C([H])([H])C3([H])C([H])([H])C([H])(C(=O)N([H])C(=O)N4C([H])([H])C([H])([H])C([H])([H])C([H])(n5nc(-c6c([H])c([H])c(Oc7c([H])c([H])c(F)c([H])c7F)c([H])c6[H])c(C(=O)N([H])[H])c5N([H])[H])C4([H])[H])C([H])([H])C([H])([N+]([H])([H])[H])C3([H])[H])c([H])c([H])c2C1([H])[H]

>  <smiles>  (28) 
[H]c1c([H])c([H])c2c(c1[H])C([H])([H])C([H])([H])C([H])([H])C2([H])N([H])C(=O)C1([H])N(C(=O)C([H])(N([H])C(=O)C([H])(N([H])C([H])([H])[H])C([H])([H])[H])C(C([H])([H])[H])(C([H])([H])[H])C([H])([H])[H])C([H])([H])c2c([H])c(OC([H])([H])C([H])(C([H])([H])[H])C([H])([H])C(C([H])([H])[H])(C([H])([H])[H])C([H])([H])C3([H])C([H])([H])C([H])(C(=O)N([H])C(=O)N4C([H])([H])C([H])([H])C([H])([H])C([H])(n5nc(-c6c([H])c([H])c(Oc7c([H])c([H])c(F)c([H])c7F)c([H])c6[H])c(C(=O)N([H])[H])c5N([H])[H])C4([H])[H])C([H])([H])C([H])([N+]([H])([H])[H])C3([H])[H])c([H])c([H])c2C1([H])[H]

$$$$
29:0:0
     RDKit          3D

102110  0  0  1  0  0  0  0  0999 V2000
  -30.5570  -17.8600   23.5770 C   0  0  0  0  0  3  0  0  0  0  0  0
  -31.3640  -16.3670   21.5930 C   0  0  0  0  0  2  0  0  0  0  0  0
  -32.3550  -14.6040   22.9610 C   0  0  0  0  0  2  0  0  0  0  0  0
  -32.0570  -14.9950   21.4960 C   0  0  0  0  0  3  0  0  0  0  0  0
  -31.5990  -16.8380   23.0360 C   0  0  0  0  0  3  0  0  0  0  0  0
  -31.6340  -15.5770   23.7940 N   0  0  0  0  0  4  0  0  0  0  0  0
  -32.0700  -15.6760   24.6970 H   0  0  0  0  0  0  0  0  0  0  0  0
  -30.6940  -15.2380   23.9140 H   0  0  0  0  0  0  0  0  0  0  0  0
  -31.9150  -12.9260   20.2810 C   0  0  0  0  0  1  0  0  0  0  0  0
  -31.1620  -14.0510   20.8260 N   0  0  0  0  0  0  0  0  0  0  0  0
  -30.7190  -14.5290   20.0450 H   0  0  0  0  0  0  0  0  0  0  0  0
  -31.1780  -19.2820   23.7040 C   0  0  0  0  0  2  0  0  0  0  0  0
  -30.1690  -20.4230   23.9490 C   0  0  0  0  0  2  0  0  0  0  0  0
  -30.7140  -21.8010   23.5330 C   0  0  0  0  0  2  0  0  0  0  0  0
  -29.5990  -22.8530   23.3920 C   0  0  0  0  0  2  0  0  0  0  0  0
  -30.0430  -24.1090   22.6130 C   0  0  0  0  0  2  0  0  0  0  0  0
  -27.6720  -24.5280   21.7180 C   0  0  0  0  0  1  0  0  0  0  0  0
  -28.9280  -25.1560   22.3580 C   0  0  0  0  0  3  0  0  0  0  0  0
  -29.4840  -26.3850   21.5750 C   0  0  0  0  0  2  0  0  0  0  0  0
  -28.8470  -26.6130   20.3120 O   0  0  0  0  0  0  0  0  0  0  0  0
  -24.7490  -31.6200   23.3300 C   0  0  0  0  0  0  0  0  0  0  0  0
  -27.6790  -27.3390   20.3170 C   0  0  0  0  0  0  0  0  0  0  0  0
  -23.6610  -30.2040   21.6150 C   0  0  0  0  0  3  0  0  0  0  0  0
  -25.2290  -28.7420   20.2340 C   0  0  0  0  0  0  0  0  0  0  0  0
  -26.1750  -30.6590   21.5330 C   0  0  0  0  0  2  0  0  0  0  0  0
  -26.3360  -29.3000   20.8880 C   0  0  0  0  0  0  0  0  0  0  0  0
  -27.5620  -28.6030   20.9380 C   0  0  0  0  0  3  0  0  0  0  0  0
  -26.5690  -26.8060   19.6320 C   0  0  0  0  0  3  0  0  0  0  0  0
  -25.3400  -27.4900   19.6040 C   0  0  0  0  0  3  0  0  0  0  0  0
  -23.9530  -29.5520   20.2370 C   0  0  0  0  0  2  0  0  0  0  0  0
  -24.8760  -30.8430   22.2190 N   0  0  0  0  0  0  0  0  0  0  0  0
  -23.6370  -31.8480   23.8280 O   0  0  0  0  0  0  0  0  0  0  0  0
  -23.0070  -29.1470   22.5330 C   0  0  0  0  0  0  0  0  0  0  0  0
  -21.7230  -28.8480   22.2750 N   0  0  0  0  0  0  0  0  0  0  0  0
  -23.6540  -28.5980   23.4290 O   0  0  0  0  0  0  0  0  0  0  0  0
  -21.2620  -29.3470   21.5280 H   0  0  0  0  0  0  0  0  0  0  0  0
  -18.4410  -27.3490   22.4300 C   0  0  0  0  0  0  0  0  0  0  0  0
  -20.9130  -27.8560   22.9830 C   0  0  0  0  0  3  0  0  0  0  0  0
  -21.2130  -26.4280   22.4730 C   0  0  0  0  0  2  0  0  0  0  0  0
  -20.2720  -25.9750   21.3520 C   0  0  0  0  0  2  0  0  0  0  0  0
  -18.8180  -26.0050   21.8290 C   0  0  0  0  0  2  0  0  0  0  0  0
  -19.4260  -28.2250   22.9560 C   0  0  0  0  0  0  0  0  0  0  0  0
  -19.0260  -29.4780   23.4690 C   0  0  0  0  0  3  0  0  0  0  0  0
  -17.6720  -29.8590   23.4660 C   0  0  0  0  0  3  0  0  0  0  0  0
  -16.6970  -28.9810   22.9580 C   0  0  0  0  0  3  0  0  0  0  0  0
  -17.0820  -27.7290   22.4460 C   0  0  0  0  0  3  0  0  0  0  0  0
  -25.9880  -32.2820   24.0130 C   0  0  0  0  0  3  0  0  0  0  0  0
  -25.6560  -33.6900   24.2640 N   0  0  0  0  0  0  0  0  0  0  0  0
  -26.0490  -34.7130   23.4920 C   0  0  0  0  0  0  0  0  0  0  0  0
  -26.7980  -34.5700   22.5220 O   0  0  0  0  0  0  0  0  0  0  0  0
  -25.0030  -33.8740   25.0120 H   0  0  0  0  0  0  0  0  0  0  0  0
  -24.3520  -36.4780   22.9290 C   0  0  0  0  0  1  0  0  0  0  0  0
  -25.5250  -36.1150   23.8520 C   0  0  0  0  0  3  0  0  0  0  0  0
  -27.5850  -37.0420   24.8140 C   0  0  0  0  0  1  0  0  0  0  0  0
  -26.5620  -37.1660   23.7780 N   0  0  0  0  0  0  0  0  0  0  0  0
  -26.1450  -38.0900   23.8550 H   0  0  0  0  0  0  0  0  0  0  0  0
  -26.4200  -31.5620   25.3490 C   0  0  1  0  0  0  0  0  0  0  0  0
  -25.2530  -31.3370   26.3380 C   0  0  0  0  0  1  0  0  0  0  0  0
  -27.0530  -30.1840   25.0440 C   0  0  0  0  0  1  0  0  0  0  0  0
  -27.5020  -32.3990   26.0710 C   0  0  0  0  0  1  0  0  0  0  0  0
  -29.2290  -17.8430   22.7590 C   0  0  0  0  0  2  0  0  0  0  0  0
  -29.3620  -18.1520   21.2530 C   0  0  0  0  0  3  0  0  0  0  0  0
  -30.6110  -17.9300   20.8480 F   0  0  0  0  0  0  0  0  0  0  0  0
  -28.3760  -17.3740   20.3630 C   0  0  0  0  0  2  0  0  0  0  0  0
  -29.1270  -15.1020   19.7060 C   0  0  0  0  0  0  0  0  0  0  0  0
  -29.0190  -12.9470   18.5210 C   0  0  0  0  0  2  0  0  0  0  0  0
  -27.8310  -12.9760   17.5380 C   0  0  0  0  0  2  0  0  0  0  0  0
  -26.5330  -12.5360   18.2420 C   0  0  0  0  0  2  0  0  0  0  0  0
  -26.2990  -13.2760   19.5850 C   0  0  0  0  0  3  0  0  0  0  0  0
  -27.5780  -13.2550   20.4550 C   0  0  0  0  0  2  0  0  0  0  0  0
  -28.6860  -13.8170   19.6600 N   0  0  0  0  0  0  0  0  0  0  0  0
  -30.0030  -15.5390   18.9540 O   0  0  0  0  0  0  0  0  0  0  0  0
  -28.4360  -15.9160   20.5170 N   0  0  0  0  0  0  0  0  0  0  0  0
  -27.7480  -15.4850   21.1150 H   0  0  0  0  0  0  0  0  0  0  0  0
  -24.1080  -13.3920   20.9350 C   0  0  0  0  0  0  0  0  0  0  0  0
  -23.2590  -12.4170   21.3840 C   0  0  0  0  0  0  0  0  0  0  0  0
  -23.8360  -11.1750   20.9800 C   0  0  0  0  0  0  0  0  0  0  0  0
  -25.1470  -12.7290   20.2990 N   0  0  0  0  0  0  0  0  0  0  0  0
  -24.9990  -11.3810   20.3760 N   0  0  0  0  0  0  0  0  0  0  0  0
  -23.3220   -9.8020   21.0820 C   0  0  0  0  0  0  0  0  0  0  0  0
  -23.9730   -8.8260   21.8680 C   0  0  0  0  0  3  0  0  0  0  0  0
  -23.4480   -7.5190   21.9650 C   0  0  0  0  0  3  0  0  0  0  0  0
  -22.2610   -7.1780   21.2740 C   0  0  0  0  0  0  0  0  0  0  0  0
  -21.6300   -8.1470   20.4750 C   0  0  0  0  0  3  0  0  0  0  0  0
  -22.1560   -9.4470   20.3750 C   0  0  0  0  0  3  0  0  0  0  0  0
  -21.6930   -5.9260   21.2890 O   0  0  0  0  0  0  0  0  0  0  0  0
  -21.6840   -5.1530   22.4230 C   0  0  0  0  0  0  0  0  0  0  0  0
  -21.1240   -5.6150   23.6340 C   0  0  0  0  0  3  0  0  0  0  0  0
  -21.0740   -4.7630   24.7550 C   0  0  0  0  0  3  0  0  0  0  0  0
  -21.5720   -3.4490   24.6660 C   0  0  0  0  0  0  0  0  0  0  0  0
  -22.1240   -2.9860   23.4590 C   0  0  0  0  0  3  0  0  0  0  0  0
  -22.1770   -3.8350   22.3390 C   0  0  0  0  0  0  0  0  0  0  0  0
  -22.6910   -3.3780   21.1730 F   0  0  0  0  0  0  0  0  0  0  0  0
  -21.5150   -2.6270   25.7400 F   0  0  0  0  0  0  0  0  0  0  0  0
  -21.9370  -12.6240   22.0660 C   0  0  0  0  0  0  0  0  0  0  0  0
  -21.5550  -11.7110   22.9520 N   0  0  0  0  0  0  0  0  0  0  0  0
  -21.2580  -13.6280   21.8530 O   0  0  0  0  0  0  0  0  0  0  0  0
  -22.1230  -10.8980   23.1400 H   0  0  0  0  0  0  0  0  0  0  0  0
  -20.6830  -11.8260   23.4470 H   0  0  0  0  0  0  0  0  0  0  0  0
  -24.0770  -14.7820   20.9970 N   0  0  0  0  0  0  0  0  0  0  0  0
  -23.2990  -15.2870   21.4080 H   0  0  0  0  0  0  0  0  0  0  0  0
  -24.7670  -15.3910   20.5760 H   0  0  0  0  0  0  0  0  0  0  0  0
  1 61  1  0
  1 12  1  0
  2  5  1  0
  3  6  1  0
  4 10  1  0
  4  2  1  0
  4  3  1  0
  5  1  1  0
  5  6  1  0
  6  8  1  0
  6  7  1  0
  9 10  1  0
 11 10  1  0
 12 13  1  0
 14 13  1  0
 15 14  1  0
 16 15  1  0
 18 17  1  0
 18 16  1  0
 19 18  1  0
 20 22  1  0
 20 19  1  0
 21 32  2  0
 22 27  1  0
 23 31  1  0
 23 33  1  0
 24 30  1  0
 24 26  1  0
 25 31  1  0
 26 27  2  0
 26 25  1  0
 28 22  2  0
 29 28  1  0
 29 24  2  0
 30 23  1  0
 31 21  1  0
 33 35  2  0
 34 33  1  0
 36 34  1  0
 37 46  2  0
 37 42  1  0
 38 34  1  0
 39 38  1  0
 40 41  1  0
 40 39  1  0
 41 37  1  0
 42 38  1  0
 42 43  2  0
 44 43  1  0
 45 44  2  0
 46 45  1  0
 47 21  1  0
 47 48  1  0
 47 57  1  0
 48 51  1  0
 49 53  1  0
 49 48  1  0
 50 49  2  0
 53 52  1  0
 55 53  1  0
 55 56  1  0
 55 54  1  0
 57 60  1  1
 57 58  1  0
 59 57  1  0
 62 63  1  0
 62 61  1  0
 64 73  1  0
 64 62  1  0
 65 73  1  0
 66 71  1  0
 67 68  1  0
 67 66  1  0
 69 68  1  0
 69 78  1  0
 69 70  1  0
 71 65  1  0
 71 70  1  0
 72 65  2  0
 73 74  1  0
 75100  1  0
 75 76  2  0
 76 95  1  0
 77 80  1  0
 77 76  1  0
 78 79  1  0
 78 75  1  0
 79 77  2  0
 80 81  1  0
 81 82  2  0
 83 86  1  0
 83 82  1  0
 84 83  2  0
 85 84  1  0
 85 80  2  0
 86 87  1  0
 87 88  1  0
 88 89  2  0
 90 89  1  0
 90 94  1  0
 91 90  2  0
 92 87  2  0
 92 91  1  0
 93 92  1  0
 95 96  1  0
 96 98  1  0
 96 99  1  0
 97 95  2  0
100101  1  0
102100  1  0
M  ISO  4  19 101  20 101  65 100  73 100
M  END
>  <TORSDO>  (29) 
F 28

>  <SCORE>  (29) 
0.838

>  <name>  (29) 
29

>  <ligand_id>  (29) 
29

>  <original_smiles>  (29) 
[H]c1c([H])c([H])c2c(c1[H])C([H])([H])C([H])([H])C([H])([H])C2([H])N([H])C(=O)C1([H])N(C(=O)C([H])(N([H])C(=O)C([H])(N([H])C([H])([H])[H])C([H])([H])[H])C(C([H])([H])[H])(C([H])([H])[H])C([H])([H])[H])C([H])([H])c2c([H])c(OC([H])([H])C([H])(C([H])([H])[H])C([H])([H])C([H])([H])C([H])([H])C([H])([H])C([H])([H])C([H])(C([H])([H])C([H])(F)C([H])([H])N([H])C(=O)N3C([H])([H])C([H])([H])C([H])([H])C([H])(n4nc(-c5c([H])c([H])c(Oc6c([H])c([H])c(F)c([H])c6F)c([H])c5[H])c(C(=O)N([H])[H])c4N([H])[H])C3([H])[H])C3([H])C([H])([H])C([H])(N([H])C([H])([H])[H])C([H])([H])[N+]3([H])[H])c([H])c([H])c2C1([H])[H]

>  <smiles>  (29) 
[H]c1c([H])c([H])c2c(c1[H])C([H])([H])C([H])([H])C([H])([H])C2([H])N([H])C(=O)C1([H])N(C(=O)C([H])(N([H])C(=O)C([H])(N([H])C([H])([H])[H])C([H])([H])[H])C(C([H])([H])[H])(C([H])([H])[H])C([H])([H])[H])C([H])([H])c2c([H])c(OC([H])([H])C([H])(C([H])([H])[H])C([H])([H])C([H])([H])C([H])([H])C([H])([H])C([H])([H])C([H])(C([H])([H])C([H])(F)C([H])([H])N([H])C(=O)N3C([H])([H])C([H])([H])C([H])([H])C([H])(n4nc(-c5c([H])c([H])c(Oc6c([H])c([H])c(F)c([H])c6F)c([H])c5[H])c(C(=O)N([H])[H])c4N([H])[H])C3([H])[H])C3([H])C([H])([H])C([H])(N([H])C([H])([H])[H])C([H])([H])[N+]3([H])[H])c([H])c([H])c2C1([H])[H]

$$$$
30:0:0
     RDKit          3D

 96104  0  0  1  0  0  0  0  0999 V2000
  -29.6510  -19.4210   21.2650 C   0  0  0  0  0  2  0  0  0  0  0  0
  -31.3170  -20.1020   19.7420 C   0  0  0  0  0  2  0  0  0  0  0  0
  -29.9810  -20.5950   20.3130 C   0  0  0  0  0  3  0  0  0  0  0  0
  -30.0490  -18.1160   20.5140 C   0  0  0  0  0  3  0  0  0  0  0  0
  -31.1750  -18.5720   19.5400 C   0  0  0  0  0  3  0  0  0  0  0  0
  -30.0720  -22.0110   20.9510 C   0  0  0  0  0  0  0  0  0  0  0  0
  -29.4870  -23.0420   20.3030 N   0  0  0  0  0  0  0  0  0  0  0  0
  -30.6890  -22.1750   22.0050 O   0  0  0  0  0  0  0  0  0  0  0  0
  -28.9900  -22.8180   19.4510 H   0  0  0  0  0  0  0  0  0  0  0  0
  -29.5640  -24.4750   20.6610 C   0  0  0  0  0  2  0  0  0  0  0  0
  -28.3930  -25.3040   20.0640 C   0  0  0  0  0  2  0  0  0  0  0  0
  -28.4660  -26.7260   20.3260 O   0  0  0  0  0  0  0  0  0  0  0  0
  -24.5920  -31.9560   23.2550 C   0  0  0  0  0  0  0  0  0  0  0  0
  -27.2900  -27.4650   20.2600 C   0  0  0  0  0  0  0  0  0  0  0  0
  -23.4090  -30.5320   21.6150 C   0  0  0  0  0  3  0  0  0  0  0  0
  -24.8870  -28.9830   20.2220 C   0  0  0  0  0  0  0  0  0  0  0  0
  -25.9390  -30.8920   21.4450 C   0  0  0  0  0  2  0  0  0  0  0  0
  -26.0370  -29.5120   20.8190 C   0  0  0  0  0  0  0  0  0  0  0  0
  -27.2400  -28.7620   20.8320 C   0  0  0  0  0  3  0  0  0  0  0  0
  -26.1180  -26.9650   19.6440 C   0  0  0  0  0  3  0  0  0  0  0  0
  -24.9230  -27.7110   19.6300 C   0  0  0  0  0  3  0  0  0  0  0  0
  -23.6380  -29.8370   20.2460 C   0  0  0  0  0  2  0  0  0  0  0  0
  -24.6630  -31.1430   22.1620 N   0  0  0  0  0  0  0  0  0  0  0  0
  -23.5020  -32.2310   23.7780 O   0  0  0  0  0  0  0  0  0  0  0  0
  -22.7490  -29.5210   22.5800 C   0  0  0  0  0  0  0  0  0  0  0  0
  -21.4240  -29.3450   22.4500 N   0  0  0  0  0  0  0  0  0  0  0  0
  -23.4280  -28.8980   23.4020 O   0  0  0  0  0  0  0  0  0  0  0  0
  -20.9380  -29.8930   21.7530 H   0  0  0  0  0  0  0  0  0  0  0  0
  -18.0410  -28.1870   22.9610 C   0  0  0  0  0  0  0  0  0  0  0  0
  -20.6020  -28.4170   23.2260 C   0  0  0  0  0  3  0  0  0  0  0  0
  -20.6900  -26.9850   22.6490 C   0  0  0  0  0  2  0  0  0  0  0  0
  -19.5810  -26.6740   21.6390 C   0  0  0  0  0  2  0  0  0  0  0  0
  -18.2020  -26.8350   22.2850 C   0  0  0  0  0  2  0  0  0  0  0  0
  -19.1700  -28.9360   23.3900 C   0  0  0  0  0  0  0  0  0  0  0  0
  -18.9650  -30.2020   23.9800 C   0  0  0  0  0  3  0  0  0  0  0  0
  -17.6650  -30.7180   24.1460 C   0  0  0  0  0  3  0  0  0  0  0  0
  -16.5530  -29.9640   23.7350 C   0  0  0  0  0  3  0  0  0  0  0  0
  -16.7410  -28.7000   23.1490 C   0  0  0  0  0  3  0  0  0  0  0  0
  -25.8690  -32.6010   23.8830 C   0  0  0  0  0  3  0  0  0  0  0  0
  -25.5530  -34.0010   24.1880 N   0  0  0  0  0  0  0  0  0  0  0  0
  -25.9010  -35.0420   23.4200 C   0  0  0  0  0  0  0  0  0  0  0  0
  -26.5900  -34.9250   22.4030 O   0  0  0  0  0  0  0  0  0  0  0  0
  -24.9460  -34.1680   24.9770 H   0  0  0  0  0  0  0  0  0  0  0  0
  -24.1860  -36.8300   22.9980 C   0  0  0  0  0  1  0  0  0  0  0  0
  -25.4040  -36.4360   23.8490 C   0  0  0  0  0  3  0  0  0  0  0  0
  -27.5160  -37.3260   24.7300 C   0  0  0  0  0  1  0  0  0  0  0  0
  -26.4410  -37.4860   23.7520 N   0  0  0  0  0  0  0  0  0  0  0  0
  -26.0350  -38.4080   23.8780 H   0  0  0  0  0  0  0  0  0  0  0  0
  -26.3720  -31.8480   25.1750 C   0  0  1  0  0  0  0  0  0  0  0  0
  -25.2660  -31.6210   26.2310 C   0  0  0  0  0  1  0  0  0  0  0  0
  -26.9640  -30.4680   24.8050 C   0  0  0  0  0  1  0  0  0  0  0  0
  -27.5120  -32.6550   25.8400 C   0  0  0  0  0  1  0  0  0  0  0  0
  -30.4440  -16.9330   21.4650 C   0  0  0  0  0  2  0  0  0  0  0  0
  -30.7110  -14.5930   20.4870 C   0  0  0  0  0  0  0  0  0  0  0  0
  -30.4180  -12.4810   19.2360 C   0  0  0  0  0  2  0  0  0  0  0  0
  -29.4570  -12.7060   18.0480 C   0  0  0  0  0  2  0  0  0  0  0  0
  -27.9850  -12.5550   18.4880 C   0  0  0  0  0  2  0  0  0  0  0  0
  -27.6570  -13.3520   19.7800 C   0  0  0  0  0  3  0  0  0  0  0  0
  -28.7220  -13.0880   20.8690 C   0  0  0  0  0  2  0  0  0  0  0  0
  -30.0400  -13.4230   20.3020 N   0  0  0  0  0  0  0  0  0  0  0  0
  -31.8330  -14.8040   20.0220 O   0  0  0  0  0  0  0  0  0  0  0  0
  -29.9940  -15.5860   21.0510 N   0  0  0  0  0  0  0  0  0  0  0  0
  -29.0630  -15.3250   21.3430 H   0  0  0  0  0  0  0  0  0  0  0  0
  -25.2520  -13.9490   20.4820 C   0  0  0  0  0  0  0  0  0  0  0  0
  -24.1870  -13.1720   20.8470 C   0  0  0  0  0  0  0  0  0  0  0  0
  -24.6550  -11.8230   20.8190 C   0  0  0  0  0  0  0  0  0  0  0  0
  -26.3040  -13.0730   20.2550 N   0  0  0  0  0  0  0  0  0  0  0  0
  -25.9450  -11.7890   20.5150 N   0  0  0  0  0  0  0  0  0  0  0  0
  -23.9330  -10.5570   21.0070 C   0  0  0  0  0  0  0  0  0  0  0  0
  -24.3710   -9.5900   21.9390 C   0  0  0  0  0  3  0  0  0  0  0  0
  -23.6510   -8.3890   22.1160 C   0  0  0  0  0  3  0  0  0  0  0  0
  -22.4810   -8.1450   21.3590 C   0  0  0  0  0  0  0  0  0  0  0  0
  -22.0620   -9.1010   20.4150 C   0  0  0  0  0  3  0  0  0  0  0  0
  -22.7830  -10.2940   20.2380 C   0  0  0  0  0  3  0  0  0  0  0  0
  -21.7340   -6.9950   21.4430 O   0  0  0  0  0  0  0  0  0  0  0  0
  -21.6830   -6.2510   22.5940 C   0  0  0  0  0  0  0  0  0  0  0  0
  -21.2480   -6.8020   23.8190 C   0  0  0  0  0  3  0  0  0  0  0  0
  -21.1470   -5.9840   24.9630 C   0  0  0  0  0  3  0  0  0  0  0  0
  -21.4720   -4.6160   24.8820 C   0  0  0  0  0  0  0  0  0  0  0  0
  -21.9020   -4.0660   23.6630 C   0  0  0  0  0  3  0  0  0  0  0  0
  -22.0050   -4.8800   22.5220 C   0  0  0  0  0  0  0  0  0  0  0  0
  -22.3990   -4.3390   21.3430 F   0  0  0  0  0  0  0  0  0  0  0  0
  -21.3690   -3.8300   25.9790 F   0  0  0  0  0  0  0  0  0  0  0  0
  -22.7860  -13.6440   21.1160 C   0  0  0  0  0  0  0  0  0  0  0  0
  -22.0570  -12.9470   21.9810 N   0  0  0  0  0  0  0  0  0  0  0  0
  -22.3460  -14.6660   20.5920 O   0  0  0  0  0  0  0  0  0  0  0  0
  -22.4240  -12.1210   22.4290 H   0  0  0  0  0  0  0  0  0  0  0  0
  -21.1160  -13.2470   22.1990 H   0  0  0  0  0  0  0  0  0  0  0  0
  -25.4090  -15.3210   20.3050 N   0  0  0  0  0  0  0  0  0  0  0  0
  -24.6340  -15.9670   20.4110 H   0  0  0  0  0  0  0  0  0  0  0  0
  -26.2580  -15.7710   19.9860 H   0  0  0  0  0  0  0  0  0  0  0  0
  -30.9010  -18.2560   18.0500 C   0  0  0  0  0  2  0  0  0  0  0  0
  -31.0730  -16.8350   17.7160 N   0  0  0  0  0  4  0  0  0  0  0  0
  -31.9830  -16.5130   18.0020 H   0  0  0  0  0  0  0  0  0  0  0  0
  -30.9980  -16.7180   16.7200 H   0  0  0  0  0  0  0  0  0  0  0  0
  -30.3650  -16.2770   18.1540 H   0  0  0  0  0  0  0  0  0  0  0  0
  2  3  1  0
  3  6  1  0
  3  1  1  0
  4  1  1  0
  4 53  1  0
  5 92  1  0
  5  2  1  0
  5  4  1  0
  6  8  2  0
  7 10  1  0
  7  6  1  0
  9  7  1  0
 11 12  1  0
 11 10  1  0
 13 24  2  0
 14 12  1  0
 14 19  1  0
 15 23  1  0
 15 25  1  0
 16 22  1  0
 16 18  1  0
 17 23  1  0
 18 19  2  0
 18 17  1  0
 20 14  2  0
 21 20  1  0
 21 16  2  0
 22 15  1  0
 23 13  1  0
 25 27  2  0
 26 25  1  0
 28 26  1  0
 29 38  2  0
 29 34  1  0
 30 26  1  0
 30 34  1  0
 31 30  1  0
 32 33  1  0
 32 31  1  0
 33 29  1  0
 34 35  2  0
 35 36  1  0
 37 36  2  0
 38 37  1  0
 39 13  1  0
 39 40  1  0
 39 49  1  0
 40 43  1  0
 41 45  1  0
 41 40  1  0
 42 41  2  0
 45 44  1  0
 47 45  1  0
 47 48  1  0
 47 46  1  0
 49 52  1  1
 49 50  1  0
 51 49  1  0
 54 62  1  0
 55 60  1  0
 56 57  1  0
 56 55  1  0
 58 57  1  0
 58 67  1  0
 58 59  1  0
 60 54  1  0
 60 59  1  0
 61 54  2  0
 62 63  1  0
 62 53  1  0
 64 65  2  0
 65 84  1  0
 66 65  1  0
 66 69  1  0
 67 64  1  0
 67 68  1  0
 68 66  2  0
 69 70  1  0
 70 71  2  0
 72 75  1  0
 72 71  1  0
 73 72  2  0
 74 73  1  0
 74 69  2  0
 75 76  1  0
 76 77  1  0
 77 78  2  0
 79 78  1  0
 79 83  1  0
 80 79  2  0
 81 76  2  0
 81 80  1  0
 82 81  1  0
 84 85  1  0
 85 88  1  0
 85 87  1  0
 86 84  2  0
 89 90  1  0
 89 64  1  0
 91 89  1  0
 93 94  1  0
 93 92  1  0
 93 96  1  0
 95 93  1  0
M  ISO  4  11 101  12 101  54 100  62 100
M  END
>  <TORSDO>  (30) 
F 22

>  <SCORE>  (30) 
-13.529

>  <name>  (30) 
30

>  <ligand_id>  (30) 
30

>  <original_smiles>  (30) 
[H]c1c([H])c([H])c2c(c1[H])C([H])([H])C([H])([H])C([H])([H])C2([H])N([H])C(=O)C1([H])N(C(=O)C([H])(N([H])C(=O)C([H])(N([H])C([H])([H])[H])C([H])([H])[H])C(C([H])([H])[H])(C([H])([H])[H])C([H])([H])[H])C([H])([H])c2c([H])c(OC([H])([H])C([H])([H])N([H])C(=O)C3([H])C([H])([H])C([H])(C([H])([H])N([H])C(=O)N4C([H])([H])C([H])([H])C([H])([H])C([H])(n5nc(-c6c([H])c([H])c(Oc7c([H])c([H])c(F)c([H])c7F)c([H])c6[H])c(C(=O)N([H])[H])c5N([H])[H])C4([H])[H])C([H])(C([H])([H])[N+]([H])([H])[H])C3([H])[H])c([H])c([H])c2C1([H])[H]

>  <smiles>  (30) 
[H]c1c([H])c([H])c2c(c1[H])C([H])([H])C([H])([H])C([H])([H])C2([H])N([H])C(=O)C1([H])N(C(=O)C([H])(N([H])C(=O)C([H])(N([H])C([H])([H])[H])C([H])([H])[H])C(C([H])([H])[H])(C([H])([H])[H])C([H])([H])[H])C([H])([H])c2c([H])c(OC([H])([H])C([H])([H])N([H])C(=O)C3([H])C([H])([H])C([H])(C([H])([H])N([H])C(=O)N4C([H])([H])C([H])([H])C([H])([H])C([H])(n5nc(-c6c([H])c([H])c(Oc7c([H])c([H])c(F)c([H])c7F)c([H])c6[H])c(C(=O)N([H])[H])c5N([H])[H])C4([H])[H])C([H])(C([H])([H])[N+]([H])([H])[H])C3([H])[H])c([H])c([H])c2C1([H])[H]

$$$$
31:0:0
     RDKit          3D

 92100  0  0  1  0  0  0  0  0999 V2000
  -30.8230  -19.4820   20.5660 C   0  0  0  0  0  2  0  0  0  0  0  0
  -31.3400  -18.4840   21.6060 C   0  0  0  0  0  0  0  0  0  0  0  0
  -32.0970  -18.8460   22.5110 O   0  0  0  0  0  0  0  0  0  0  0  0
  -31.0470  -14.4180   18.8190 C   0  0  0  0  0  0  0  0  0  0  0  0
  -30.2180  -12.5370   17.4540 C   0  0  0  0  0  2  0  0  0  0  0  0
  -28.9610  -12.8910   16.6390 C   0  0  0  0  0  2  0  0  0  0  0  0
  -27.6890  -12.6570   17.4740 C   0  0  0  0  0  2  0  0  0  0  0  0
  -27.7700  -13.3360   18.8630 C   0  0  0  0  0  3  0  0  0  0  0  0
  -29.0950  -12.9890   19.5690 C   0  0  0  0  0  2  0  0  0  0  0  0
  -30.2260  -13.3390   18.6860 N   0  0  0  0  0  0  0  0  0  0  0  0
  -31.7000  -14.8770   17.8720 O   0  0  0  0  0  0  0  0  0  0  0  0
  -31.2820  -16.1680   22.6980 C   0  0  0  0  0  2  0  0  0  0  0  0
  -31.4850  -16.3980   20.1730 C   0  0  0  0  0  2  0  0  0  0  0  0
  -31.5990  -14.1840   21.1920 C   0  0  0  0  0  2  0  0  0  0  0  0
  -30.9000  -17.0170   21.4620 C   0  0  0  0  0  3  0  0  0  0  0  0
  -30.9460  -14.6810   22.4940 C   0  0  0  0  0  3  0  0  0  0  0  0
  -31.3830  -13.8360   23.6990 C   0  0  0  0  0  1  0  0  0  0  0  0
  -31.1220  -14.9780   20.0470 N   0  0  0  0  0  0  0  0  0  0  0  0
  -25.7380  -13.8200   20.3730 C   0  0  0  0  0  0  0  0  0  0  0  0
  -24.8000  -12.9970   20.9370 C   0  0  0  0  0  0  0  0  0  0  0  0
  -25.1630  -11.6690   20.5570 C   0  0  0  0  0  0  0  0  0  0  0  0
  -26.6160  -12.9890   19.6940 N   0  0  0  0  0  0  0  0  0  0  0  0
  -26.2890  -11.6820   19.8550 N   0  0  0  0  0  0  0  0  0  0  0  0
  -24.4730  -10.3900   20.7690 C   0  0  0  0  0  0  0  0  0  0  0  0
  -24.8910   -9.4800   21.7650 C   0  0  0  0  0  3  0  0  0  0  0  0
  -24.2000   -8.2650   21.9630 C   0  0  0  0  0  3  0  0  0  0  0  0
  -23.0760   -7.9510   21.1620 C   0  0  0  0  0  0  0  0  0  0  0  0
  -22.6770   -8.8490   20.1570 C   0  0  0  0  0  3  0  0  0  0  0  0
  -23.3700  -10.0560   19.9580 C   0  0  0  0  0  3  0  0  0  0  0  0
  -22.3600   -6.7840   21.2640 O   0  0  0  0  0  0  0  0  0  0  0  0
  -21.8940   -6.3280   22.4720 C   0  0  0  0  0  0  0  0  0  0  0  0
  -21.1150   -7.1410   23.3250 C   0  0  0  0  0  3  0  0  0  0  0  0
  -20.5980   -6.6110   24.5230 C   0  0  0  0  0  3  0  0  0  0  0  0
  -20.8480   -5.2690   24.8660 C   0  0  0  0  0  0  0  0  0  0  0  0
  -21.6180   -4.4570   24.0150 C   0  0  0  0  0  3  0  0  0  0  0  0
  -22.1360   -4.9840   22.8200 C   0  0  0  0  0  0  0  0  0  0  0  0
  -22.8590   -4.1910   21.9930 F   0  0  0  0  0  0  0  0  0  0  0  0
  -20.3450   -4.7560   26.0130 F   0  0  0  0  0  0  0  0  0  0  0  0
  -23.5810  -13.4200   21.7050 C   0  0  0  0  0  0  0  0  0  0  0  0
  -23.1680  -12.6260   22.6870 N   0  0  0  0  0  0  0  0  0  0  0  0
  -23.0120  -14.4850   21.4670 O   0  0  0  0  0  0  0  0  0  0  0  0
  -23.6450  -11.7610   22.8950 H   0  0  0  0  0  0  0  0  0  0  0  0
  -22.3640  -12.8870   23.2410 H   0  0  0  0  0  0  0  0  0  0  0  0
  -25.9090  -15.2020   20.3660 N   0  0  0  0  0  0  0  0  0  0  0  0
  -25.2540  -15.8350   20.8130 H   0  0  0  0  0  0  0  0  0  0  0  0
  -26.6510  -15.6810   19.8730 H   0  0  0  0  0  0  0  0  0  0  0  0
  -30.4220  -20.8270   21.1960 C   0  0  0  0  0  2  0  0  0  0  0  0
  -29.9920  -21.8900   20.1740 C   0  0  0  0  0  2  0  0  0  0  0  0
  -29.6190  -23.2000   20.8850 C   0  0  0  0  0  2  0  0  0  0  0  0
  -29.3200  -24.3790   19.9470 C   0  0  0  0  0  2  0  0  0  0  0  0
  -28.9650  -25.6360   20.7540 C   0  0  0  0  0  2  0  0  0  0  0  0
  -28.9810  -26.8010   19.9340 O   0  0  0  0  0  0  0  0  0  0  0  0
  -24.7550  -31.6340   22.9860 C   0  0  0  0  0  0  0  0  0  0  0  0
  -27.7780  -27.4540   19.9160 C   0  0  0  0  0  0  0  0  0  0  0  0
  -23.6960  -30.1850   21.2830 C   0  0  0  0  0  3  0  0  0  0  0  0
  -25.2890  -28.7690   19.8840 C   0  0  0  0  0  0  0  0  0  0  0  0
  -26.1930  -30.7210   21.1670 C   0  0  0  0  0  2  0  0  0  0  0  0
  -26.3890  -29.3680   20.5130 C   0  0  0  0  0  0  0  0  0  0  0  0
  -27.6390  -28.7170   20.5290 C   0  0  0  0  0  3  0  0  0  0  0  0
  -26.6660  -26.8550   19.2920 C   0  0  0  0  0  3  0  0  0  0  0  0
  -25.4210  -27.5090   19.2710 C   0  0  0  0  0  3  0  0  0  0  0  0
  -23.9910  -29.5420   19.9000 C   0  0  0  0  0  2  0  0  0  0  0  0
  -24.8970  -30.8610   21.8720 N   0  0  0  0  0  0  0  0  0  0  0  0
  -23.6430  -31.8230   23.4970 O   0  0  0  0  0  0  0  0  0  0  0  0
  -23.0840  -29.1070   22.2060 C   0  0  0  0  0  0  0  0  0  0  0  0
  -21.7710  -28.8680   22.0580 N   0  0  0  0  0  0  0  0  0  0  0  0
  -23.7880  -28.4890   23.0100 O   0  0  0  0  0  0  0  0  0  0  0  0
  -21.2630  -29.4230   21.3830 H   0  0  0  0  0  0  0  0  0  0  0  0
  -18.4290  -27.5930   22.5610 C   0  0  0  0  0  0  0  0  0  0  0  0
  -20.9890  -27.8740   22.7900 C   0  0  0  0  0  3  0  0  0  0  0  0
  -21.0970  -26.4820   22.1250 C   0  0  0  0  0  2  0  0  0  0  0  0
  -19.9750  -26.2040   21.1200 C   0  0  0  0  0  2  0  0  0  0  0  0
  -18.6080  -26.2890   21.8040 C   0  0  0  0  0  2  0  0  0  0  0  0
  -19.5470  -28.3450   23.0120 C   0  0  0  0  0  0  0  0  0  0  0  0
  -19.3240  -29.5680   23.6790 C   0  0  0  0  0  3  0  0  0  0  0  0
  -18.0170  -30.0390   23.9050 C   0  0  0  0  0  3  0  0  0  0  0  0
  -16.9140  -29.2820   23.4710 C   0  0  0  0  0  3  0  0  0  0  0  0
  -17.1220  -28.0620   22.8060 C   0  0  0  0  0  3  0  0  0  0  0  0
  -25.9770  -32.3350   23.6570 C   0  0  0  0  0  3  0  0  0  0  0  0
  -26.5750  -31.5180   24.8670 C   0  0  1  0  0  0  0  0  0  0  0  0
  -25.5050  -30.9850   25.8470 C   0  0  0  0  0  1  0  0  0  0  0  0
  -27.3900  -30.3100   24.3540 C   0  0  0  0  0  1  0  0  0  0  0  0
  -27.5560  -32.4070   25.6680 C   0  0  0  0  0  1  0  0  0  0  0  0
  -25.5390  -33.6660   24.0970 N   0  0  0  0  0  0  0  0  0  0  0  0
  -25.7550  -34.8000   23.4180 C   0  0  0  0  0  0  0  0  0  0  0  0
  -26.4190  -34.8420   22.3790 O   0  0  0  0  0  0  0  0  0  0  0  0
  -24.9450  -33.7000   24.9130 H   0  0  0  0  0  0  0  0  0  0  0  0
  -23.8570  -36.4320   23.2020 C   0  0  0  0  0  1  0  0  0  0  0  0
  -25.1380  -36.0940   23.9810 C   0  0  0  0  0  3  0  0  0  0  0  0
  -27.1970  -37.1070   24.8540 C   0  0  0  0  0  1  0  0  0  0  0  0
  -26.0600  -37.2510   23.9470 N   0  0  0  0  0  0  0  0  0  0  0  0
  -25.5720  -38.1100   24.1870 H   0  0  0  0  0  0  0  0  0  0  0  0
  1 47  1  0
  1  2  1  0
  2  3  2  0
  4 18  1  0
  5 10  1  0
  6  5  1  0
  6  7  1  0
  8  7  1  0
  8  9  1  0
  8 22  1  0
 10  4  1  0
 10  9  1  0
 11  4  2  0
 13 15  1  0
 14 16  1  0
 15  2  1  0
 15 12  1  0
 16 12  1  0
 16 17  1  0
 18 13  1  0
 18 14  1  0
 19 20  2  0
 20 39  1  0
 21 24  1  0
 21 20  1  0
 22 23  1  0
 22 19  1  0
 23 21  2  0
 24 25  1  0
 25 26  2  0
 27 30  1  0
 27 26  1  0
 28 27  2  0
 29 28  1  0
 29 24  2  0
 30 31  1  0
 31 36  2  0
 31 32  1  0
 32 33  2  0
 33 34  1  0
 34 38  1  0
 35 34  2  0
 36 35  1  0
 37 36  1  0
 39 40  1  0
 40 42  1  0
 40 43  1  0
 41 39  2  0
 44 19  1  0
 44 45  1  0
 46 44  1  0
 48 49  1  0
 48 47  1  0
 50 51  1  0
 50 49  1  0
 52 51  1  0
 53 64  2  0
 54 52  1  0
 54 59  1  0
 55 63  1  0
 55 65  1  0
 56 62  1  0
 56 58  1  0
 57 63  1  0
 58 59  2  0
 58 57  1  0
 60 54  2  0
 61 60  1  0
 61 56  2  0
 62 55  1  0
 63 53  1  0
 65 67  2  0
 66 65  1  0
 68 66  1  0
 69 78  2  0
 69 74  1  0
 70 66  1  0
 70 74  1  0
 71 70  1  0
 72 73  1  0
 72 71  1  0
 73 69  1  0
 74 75  2  0
 75 76  1  0
 77 76  2  0
 78 77  1  0
 79 53  1  0
 79 84  1  0
 79 80  1  0
 80 83  1  1
 80 81  1  0
 82 80  1  0
 84 87  1  0
 85 89  1  0
 85 84  1  0
 86 85  2  0
 89 88  1  0
 91 89  1  0
 91 92  1  0
 91 90  1  0
M  ISO  4   4 100  18 100  51 101  52 101
M  END
>  <TORSDO>  (31) 
F 22

>  <SCORE>  (31) 
-0.885

>  <name>  (31) 
31

>  <ligand_id>  (31) 
31

>  <original_smiles>  (31) 
[H]c1c([H])c([H])c2c(c1[H])C([H])([H])C([H])([H])C([H])([H])C2([H])N([H])C(=O)C1([H])N(C(=O)C([H])(N([H])C(=O)C([H])(N([H])C([H])([H])[H])C([H])([H])[H])C(C([H])([H])[H])(C([H])([H])[H])C([H])([H])[H])C([H])([H])c2c([H])c(OC([H])([H])C([H])([H])C([H])([H])C([H])([H])C([H])([H])C([H])([H])C(=O)C3([H])C([H])([H])N(C(=O)N4C([H])([H])C([H])([H])C([H])([H])C([H])(n5nc(-c6c([H])c([H])c(Oc7c([H])c([H])c(F)c([H])c7F)c([H])c6[H])c(C(=O)N([H])[H])c5N([H])[H])C4([H])[H])C([H])([H])C([H])(C([H])([H])[H])C3([H])[H])c([H])c([H])c2C1([H])[H]

>  <smiles>  (31) 
[H]c1c([H])c([H])c2c(c1[H])C([H])([H])C([H])([H])C([H])([H])C2([H])N([H])C(=O)C1([H])N(C(=O)C([H])(N([H])C(=O)C([H])(N([H])C([H])([H])[H])C([H])([H])[H])C(C([H])([H])[H])(C([H])([H])[H])C([H])([H])[H])C([H])([H])c2c([H])c(OC([H])([H])C([H])([H])C([H])([H])C([H])([H])C([H])([H])C([H])([H])C(=O)C3([H])C([H])([H])N(C(=O)N4C([H])([H])C([H])([H])C([H])([H])C([H])(n5nc(-c6c([H])c([H])c(Oc7c([H])c([H])c(F)c([H])c7F)c([H])c6[H])c(C(=O)N([H])[H])c5N([H])[H])C4([H])[H])C([H])([H])C([H])(C([H])([H])[H])C3([H])[H])c([H])c([H])c2C1([H])[H]

$$$$
32:0:0
     RDKit          3D

 95104  0  0  1  0  0  0  0  0999 V2000
  -30.3410  -19.7550   20.8080 C   0  0  0  0  0  0  0  0  0  0  0  0
  -30.9920  -20.9310   20.7480 N   0  0  0  0  0  0  0  0  0  0  0  0
  -29.1500  -19.6440   20.5150 O   0  0  0  0  0  0  0  0  0  0  0  0
  -31.9550  -20.9160   21.0550 H   0  0  0  0  0  0  0  0  0  0  0  0
  -30.7350  -14.5700   20.3510 C   0  0  0  0  0  0  0  0  0  0  0  0
  -30.4000  -12.3770   19.2770 C   0  0  0  0  0  2  0  0  0  0  0  0
  -29.4860  -12.5690   18.0480 C   0  0  0  0  0  2  0  0  0  0  0  0
  -28.0010  -12.4710   18.4570 C   0  0  0  0  0  2  0  0  0  0  0  0
  -27.6560  -13.3090   19.7170 C   0  0  0  0  0  3  0  0  0  0  0  0
  -28.7050  -13.1310   20.8350 C   0  0  0  0  0  2  0  0  0  0  0  0
  -30.0280  -13.4080   20.2590 N   0  0  0  0  0  0  0  0  0  0  0  0
  -31.9250  -14.6240   20.0350 O   0  0  0  0  0  0  0  0  0  0  0  0
  -30.5440  -17.4190   22.0520 C   0  0  0  0  0  2  0  0  0  0  0  0
  -31.9060  -17.9340   19.9240 C   0  0  0  0  0  2  0  0  0  0  0  0
  -29.4890  -16.4850   21.4090 C   0  0  0  0  0  2  0  0  0  0  0  0
  -29.9220  -16.4410   18.9830 C   0  0  0  0  0  2  0  0  0  0  0  0
  -31.2020  -18.5180   21.1670 C   0  0  0  0  0  3  0  0  0  0  0  0
  -31.0060  -17.5280   18.7260 C   0  0  0  0  0  3  0  0  0  0  0  0
  -29.9950  -15.7110   20.2640 N   0  0  0  0  0  0  0  0  0  0  0  0
  -25.2520  -13.9000   20.4140 C   0  0  0  0  0  0  0  0  0  0  0  0
  -24.1850  -13.1270   20.7820 C   0  0  0  0  0  0  0  0  0  0  0  0
  -24.6580  -11.7770   20.7740 C   0  0  0  0  0  0  0  0  0  0  0  0
  -26.3050  -13.0260   20.1960 N   0  0  0  0  0  0  0  0  0  0  0  0
  -25.9520  -11.7440   20.4750 N   0  0  0  0  0  0  0  0  0  0  0  0
  -23.9400  -10.5120   20.9750 C   0  0  0  0  0  0  0  0  0  0  0  0
  -24.3720   -9.5600   21.9250 C   0  0  0  0  0  3  0  0  0  0  0  0
  -23.6570   -8.3580   22.1150 C   0  0  0  0  0  3  0  0  0  0  0  0
  -22.4910   -8.1020   21.3540 C   0  0  0  0  0  0  0  0  0  0  0  0
  -22.0760   -9.0430   20.3970 C   0  0  0  0  0  3  0  0  0  0  0  0
  -22.7930  -10.2350   20.2050 C   0  0  0  0  0  3  0  0  0  0  0  0
  -21.7450   -6.9510   21.4500 O   0  0  0  0  0  0  0  0  0  0  0  0
  -21.6950   -6.2200   22.6090 C   0  0  0  0  0  0  0  0  0  0  0  0
  -21.2620   -6.7850   23.8290 C   0  0  0  0  0  3  0  0  0  0  0  0
  -21.1590   -5.9800   24.9800 C   0  0  0  0  0  3  0  0  0  0  0  0
  -21.4770   -4.6100   24.9150 C   0  0  0  0  0  0  0  0  0  0  0  0
  -21.9030   -4.0460   23.7010 C   0  0  0  0  0  3  0  0  0  0  0  0
  -22.0080   -4.8480   22.5510 C   0  0  0  0  0  0  0  0  0  0  0  0
  -22.3980   -4.2930   21.3780 F   0  0  0  0  0  0  0  0  0  0  0  0
  -21.3720   -3.8360   26.0200 F   0  0  0  0  0  0  0  0  0  0  0  0
  -22.7820  -13.5980   21.0260 C   0  0  0  0  0  0  0  0  0  0  0  0
  -22.0400  -12.9160   21.8950 N   0  0  0  0  0  0  0  0  0  0  0  0
  -22.3440  -14.6090   20.4810 O   0  0  0  0  0  0  0  0  0  0  0  0
  -22.4010  -12.1030   22.3710 H   0  0  0  0  0  0  0  0  0  0  0  0
  -21.0970  -13.2230   22.0910 H   0  0  0  0  0  0  0  0  0  0  0  0
  -25.4120  -15.2710   20.2260 N   0  0  0  0  0  0  0  0  0  0  0  0
  -24.6480  -15.9270   20.3480 H   0  0  0  0  0  0  0  0  0  0  0  0
  -26.2800  -15.7140   19.9510 H   0  0  0  0  0  0  0  0  0  0  0  0
  -31.4150  -17.5470   16.1140 C   0  0  0  0  0  2  0  0  0  0  0  0
  -32.5770  -18.2780   16.7480 C   0  0  0  0  0  2  0  0  0  0  0  0
  -31.8650  -17.1870   17.5150 C   0  0  0  0  0  3  0  0  0  0  0  0
  -30.5880  -22.1470   20.0320 C   0  0  0  0  0  2  0  0  0  0  0  0
  -29.7130  -23.1200   20.8590 C   0  0  0  0  0  2  0  0  0  0  0  0
  -29.7390  -24.5940   20.3570 C   0  0  0  0  0  2  0  0  0  0  0  0
  -28.3590  -25.2970   20.3440 C   0  0  0  0  0  2  0  0  0  0  0  0
  -28.4640  -26.7310   20.2360 O   0  0  0  0  0  0  0  0  0  0  0  0
  -24.5940  -31.9220   23.2470 C   0  0  0  0  0  0  0  0  0  0  0  0
  -27.2820  -27.4530   20.2210 C   0  0  0  0  0  0  0  0  0  0  0  0
  -23.4090  -30.5120   21.5980 C   0  0  0  0  0  3  0  0  0  0  0  0
  -24.8800  -28.9670   20.2000 C   0  0  0  0  0  0  0  0  0  0  0  0
  -25.9360  -30.8700   21.4250 C   0  0  0  0  0  2  0  0  0  0  0  0
  -26.0320  -29.4920   20.7970 C   0  0  0  0  0  0  0  0  0  0  0  0
  -27.2340  -28.7450   20.8020 C   0  0  0  0  0  3  0  0  0  0  0  0
  -26.1070  -26.9490   19.6170 C   0  0  0  0  0  3  0  0  0  0  0  0
  -24.9140  -27.6950   19.6060 C   0  0  0  0  0  3  0  0  0  0  0  0
  -23.6380  -29.8270   20.2240 C   0  0  0  0  0  2  0  0  0  0  0  0
  -24.6650  -31.1170   22.1500 N   0  0  0  0  0  0  0  0  0  0  0  0
  -23.5060  -32.1940   23.7740 O   0  0  0  0  0  0  0  0  0  0  0  0
  -22.7450  -29.4950   22.5550 C   0  0  0  0  0  0  0  0  0  0  0  0
  -21.4220  -29.3160   22.4180 N   0  0  0  0  0  0  0  0  0  0  0  0
  -23.4200  -28.8700   23.3780 O   0  0  0  0  0  0  0  0  0  0  0  0
  -20.9390  -29.8740   21.7280 H   0  0  0  0  0  0  0  0  0  0  0  0
  -18.0380  -28.1320   22.8910 C   0  0  0  0  0  0  0  0  0  0  0  0
  -20.5950  -28.3800   23.1810 C   0  0  0  0  0  3  0  0  0  0  0  0
  -20.6970  -26.9490   22.6040 C   0  0  0  0  0  2  0  0  0  0  0  0
  -19.6010  -26.6300   21.5830 C   0  0  0  0  0  2  0  0  0  0  0  0
  -18.2140  -26.7800   22.2180 C   0  0  0  0  0  2  0  0  0  0  0  0
  -19.1580  -28.8890   23.3290 C   0  0  0  0  0  0  0  0  0  0  0  0
  -18.9400  -30.1530   23.9180 C   0  0  0  0  0  3  0  0  0  0  0  0
  -17.6370  -30.6620   24.0710 C   0  0  0  0  0  3  0  0  0  0  0  0
  -16.5320  -29.9020   23.6500 C   0  0  0  0  0  3  0  0  0  0  0  0
  -16.7340  -28.6390   23.0660 C   0  0  0  0  0  3  0  0  0  0  0  0
  -25.8720  -32.5590   23.8800 C   0  0  0  0  0  3  0  0  0  0  0  0
  -25.5590  -33.9590   24.1940 N   0  0  0  0  0  0  0  0  0  0  0  0
  -25.9010  -35.0050   23.4300 C   0  0  0  0  0  0  0  0  0  0  0  0
  -26.5840  -34.8930   22.4080 O   0  0  0  0  0  0  0  0  0  0  0  0
  -24.9580  -34.1200   24.9890 H   0  0  0  0  0  0  0  0  0  0  0  0
  -24.1810  -36.7950   23.0290 C   0  0  0  0  0  1  0  0  0  0  0  0
  -25.4050  -36.3960   23.8680 C   0  0  0  0  0  3  0  0  0  0  0  0
  -27.5300  -37.2820   24.7260 C   0  0  0  0  0  1  0  0  0  0  0  0
  -26.4400  -37.4500   23.7680 N   0  0  0  0  0  0  0  0  0  0  0  0
  -26.0320  -38.3700   23.9100 H   0  0  0  0  0  0  0  0  0  0  0  0
  -26.3710  -31.7970   25.1680 C   0  0  1  0  0  0  0  0  0  0  0  0
  -25.2640  -31.5720   26.2240 C   0  0  0  0  0  1  0  0  0  0  0  0
  -26.9560  -30.4170   24.7900 C   0  0  0  0  0  1  0  0  0  0  0  0
  -27.5140  -32.5940   25.8390 C   0  0  0  0  0  1  0  0  0  0  0  0
  2  1  1  0
  2  4  1  0
  3  1  2  0
  6 11  1  0
  7  8  1  0
  7  6  1  0
  9  8  1  0
  9 23  1  0
  9 10  1  0
 11  5  1  0
 11 10  1  0
 12  5  2  0
 14 17  1  0
 15 13  1  0
 16 19  1  0
 17  1  1  0
 17 13  1  0
 18 50  1  0
 18 16  1  0
 18 14  1  0
 19  5  1  0
 19 15  1  0
 20 21  2  0
 21 40  1  0
 22 21  1  0
 22 25  1  0
 23 20  1  0
 23 24  1  0
 24 22  2  0
 25 26  1  0
 26 27  2  0
 28 31  1  0
 28 27  1  0
 29 28  2  0
 30 29  1  0
 30 25  2  0
 31 32  1  0
 32 33  1  0
 33 34  2  0
 35 34  1  0
 35 39  1  0
 36 35  2  0
 37 32  2  0
 37 36  1  0
 38 37  1  0
 40 41  1  0
 41 44  1  0
 41 43  1  0
 42 40  2  0
 45 46  1  0
 45 20  1  0
 47 45  1  0
 48 49  1  0
 48 50  1  0
 49 50  1  0
 51  2  1  0
 51 52  1  0
 53 52  1  0
 54 53  1  0
 55 54  1  0
 56 67  2  0
 57 55  1  0
 57 62  1  0
 58 66  1  0
 58 68  1  0
 59 65  1  0
 59 61  1  0
 60 66  1  0
 61 62  2  0
 61 60  1  0
 63 57  2  0
 64 63  1  0
 64 59  2  0
 65 58  1  0
 66 56  1  0
 68 70  2  0
 69 68  1  0
 71 69  1  0
 72 81  2  0
 72 77  1  0
 73 69  1  0
 73 77  1  0
 74 73  1  0
 75 76  1  0
 75 74  1  0
 76 72  1  0
 77 78  2  0
 78 79  1  0
 80 79  2  0
 81 80  1  0
 82 56  1  0
 82 83  1  0
 82 92  1  0
 83 86  1  0
 84 88  1  0
 84 83  1  0
 85 84  2  0
 88 87  1  0
 90 88  1  0
 90 91  1  0
 90 89  1  0
 92 95  1  1
 92 93  1  0
 94 92  1  0
M  ISO  4   5 100  19 100  54 101  55 101
M  END
>  <TORSDO>  (32) 
F 21

>  <SCORE>  (32) 
-13.727

>  <name>  (32) 
32

>  <ligand_id>  (32) 
32

>  <original_smiles>  (32) 
[H]c1c([H])c([H])c2c(c1[H])C([H])([H])C([H])([H])C([H])([H])C2([H])N([H])C(=O)C1([H])N(C(=O)C([H])(N([H])C(=O)C([H])(N([H])C([H])([H])[H])C([H])([H])[H])C(C([H])([H])[H])(C([H])([H])[H])C([H])([H])[H])C([H])([H])c2c([H])c(OC([H])([H])C([H])([H])C([H])([H])C([H])([H])N([H])C(=O)C3([H])C([H])([H])C([H])([H])N(C(=O)N4C([H])([H])C([H])([H])C([H])([H])C([H])(n5nc(-c6c([H])c([H])c(Oc7c([H])c([H])c(F)c([H])c7F)c([H])c6[H])c(C(=O)N([H])[H])c5N([H])[H])C4([H])[H])C([H])([H])C([H])(C4([H])C([H])([H])C4([H])[H])C3([H])[H])c([H])c([H])c2C1([H])[H]

>  <smiles>  (32) 
[H]c1c([H])c([H])c2c(c1[H])C([H])([H])C([H])([H])C([H])([H])C2([H])N([H])C(=O)C1([H])N(C(=O)C([H])(N([H])C(=O)C([H])(N([H])C([H])([H])[H])C([H])([H])[H])C(C([H])([H])[H])(C([H])([H])[H])C([H])([H])[H])C([H])([H])c2c([H])c(OC([H])([H])C([H])([H])C([H])([H])C([H])([H])N([H])C(=O)C3([H])C([H])([H])C([H])([H])N(C(=O)N4C([H])([H])C([H])([H])C([H])([H])C([H])(n5nc(-c6c([H])c([H])c(Oc7c([H])c([H])c(F)c([H])c7F)c([H])c6[H])c(C(=O)N([H])[H])c5N([H])[H])C4([H])[H])C([H])([H])C([H])(C4([H])C([H])([H])C4([H])[H])C3([H])[H])c([H])c([H])c2C1([H])[H]

$$$$
33:0:0
     RDKit          3D

 97105  0  0  1  0  0  0  0  0999 V2000
  -29.7720  -18.0950   20.0300 C   0  0  0  0  0  2  0  0  0  0  0  0
  -29.4970  -20.0560   21.4580 C   0  0  0  0  0  2  0  0  0  0  0  0
  -29.3620  -19.5750   19.9980 C   0  0  0  0  0  3  0  0  0  0  0  0
  -30.7660  -17.9620   21.1900 C   0  0  0  0  0  3  0  0  0  0  0  0
  -30.2720  -18.9730   22.2450 C   0  0  0  0  0  3  0  0  0  0  0  0
  -27.9550  -19.7800   19.4150 C   0  0  0  0  0  0  0  0  0  0  0  0
  -27.0440  -18.9780   19.6350 O   0  0  0  0  0  0  0  0  0  0  0  0
  -27.7220  -20.9910   18.5090 C   0  0  0  0  0  2  0  0  0  0  0  0
  -26.5830  -21.9180   18.9880 C   0  0  0  0  0  2  0  0  0  0  0  0
  -27.0590  -23.0480   19.9230 C   0  0  0  0  0  2  0  0  0  0  0  0
  -27.9350  -24.0900   19.1990 C   0  0  0  0  0  2  0  0  0  0  0  0
  -28.2680  -25.3220   20.0620 C   0  0  0  0  0  2  0  0  0  0  0  0
  -28.2290  -26.5230   19.2920 O   0  0  0  0  0  0  0  0  0  0  0  0
  -24.7510  -31.3500   23.1620 C   0  0  0  0  0  0  0  0  0  0  0  0
  -27.0820  -27.2610   19.4470 C   0  0  0  0  0  0  0  0  0  0  0  0
  -23.4180  -30.2170   21.4110 C   0  0  0  0  0  3  0  0  0  0  0  0
  -24.7440  -28.8110   19.7520 C   0  0  0  0  0  0  0  0  0  0  0  0
  -25.9410  -30.5110   21.1440 C   0  0  0  0  0  2  0  0  0  0  0  0
  -25.9440  -29.2290   20.3400 C   0  0  0  0  0  0  0  0  0  0  0  0
  -27.1180  -28.4640   20.1830 C   0  0  0  0  0  3  0  0  0  0  0  0
  -25.8640  -26.8420   18.8680 C   0  0  0  0  0  3  0  0  0  0  0  0
  -24.6950  -27.6120   19.0200 C   0  0  0  0  0  3  0  0  0  0  0  0
  -23.5390  -29.6990   19.9530 C   0  0  0  0  0  2  0  0  0  0  0  0
  -24.7260  -30.6990   21.9660 N   0  0  0  0  0  0  0  0  0  0  0  0
  -23.7070  -31.5940   23.7820 O   0  0  0  0  0  0  0  0  0  0  0  0
  -22.7600  -29.1140   22.2700 C   0  0  0  0  0  0  0  0  0  0  0  0
  -21.4310  -28.9790   22.1490 N   0  0  0  0  0  0  0  0  0  0  0  0
  -23.4420  -28.3850   22.9940 O   0  0  0  0  0  0  0  0  0  0  0  0
  -20.9430  -29.6150   21.5340 H   0  0  0  0  0  0  0  0  0  0  0  0
  -18.0440  -27.7820   22.5350 C   0  0  0  0  0  0  0  0  0  0  0  0
  -20.6030  -27.9820   22.8290 C   0  0  0  0  0  3  0  0  0  0  0  0
  -20.6900  -26.6120   22.1210 C   0  0  0  0  0  2  0  0  0  0  0  0
  -19.5870  -26.4020   21.0780 C   0  0  0  0  0  2  0  0  0  0  0  0
  -18.2080  -26.4970   21.7370 C   0  0  0  0  0  2  0  0  0  0  0  0
  -19.1710  -28.4840   23.0360 C   0  0  0  0  0  0  0  0  0  0  0  0
  -18.9690  -29.6860   23.7440 C   0  0  0  0  0  3  0  0  0  0  0  0
  -17.6710  -30.1870   23.9550 C   0  0  0  0  0  3  0  0  0  0  0  0
  -16.5570  -29.4790   23.4750 C   0  0  0  0  0  3  0  0  0  0  0  0
  -16.7430  -28.2760   22.7720 C   0  0  0  0  0  3  0  0  0  0  0  0
  -26.0900  -31.8400   23.7970 C   0  0  0  0  0  3  0  0  0  0  0  0
  -26.6150  -30.9000   24.9500 C   0  0  1  0  0  0  0  0  0  0  0  0
  -25.5480  -30.5790   26.0210 C   0  0  0  0  0  1  0  0  0  0  0  0
  -27.1250  -29.5590   24.3700 C   0  0  0  0  0  1  0  0  0  0  0  0
  -27.8220  -31.5610   25.6580 C   0  0  0  0  0  1  0  0  0  0  0  0
  -25.8670  -33.2020   24.2970 N   0  0  0  0  0  0  0  0  0  0  0  0
  -26.2700  -34.3180   23.6750 C   0  0  0  0  0  0  0  0  0  0  0  0
  -26.9420  -34.3010   22.6380 O   0  0  0  0  0  0  0  0  0  0  0  0
  -25.2680  -33.2930   25.1050 H   0  0  0  0  0  0  0  0  0  0  0  0
  -24.6720  -36.2520   23.5260 C   0  0  0  0  0  1  0  0  0  0  0  0
  -25.8630  -35.6650   24.2980 C   0  0  0  0  0  3  0  0  0  0  0  0
  -28.0250  -36.2920   25.2780 C   0  0  0  0  0  1  0  0  0  0  0  0
  -26.9650  -36.6500   24.3390 N   0  0  0  0  0  0  0  0  0  0  0  0
  -26.6160  -37.5710   24.5900 H   0  0  0  0  0  0  0  0  0  0  0  0
  -30.8490  -16.5170   21.7250 C   0  0  0  0  0  2  0  0  0  0  0  0
  -32.4930  -14.7480   20.8070 C   0  0  0  0  0  0  0  0  0  0  0  0
  -32.1000  -12.3950   20.1690 C   0  0  0  0  0  2  0  0  0  0  0  0
  -31.3120  -12.3060   18.8470 C   0  0  0  0  0  2  0  0  0  0  0  0
  -29.7910  -12.3790   19.1040 C   0  0  0  0  0  2  0  0  0  0  0  0
  -29.4070  -13.5510   20.0460 C   0  0  0  0  0  3  0  0  0  0  0  0
  -30.3010  -13.5140   21.3040 C   0  0  0  0  0  2  0  0  0  0  0  0
  -31.7030  -13.6340   20.8710 N   0  0  0  0  0  0  0  0  0  0  0  0
  -33.6080  -14.7280   20.2830 O   0  0  0  0  0  0  0  0  0  0  0  0
  -32.1380  -15.8920   21.4230 N   0  0  0  0  0  0  0  0  0  0  0  0
  -32.9030  -16.5510   21.4230 H   0  0  0  0  0  0  0  0  0  0  0  0
  -27.0850  -14.5590   20.5410 C   0  0  0  0  0  0  0  0  0  0  0  0
  -25.8720  -13.9750   20.8040 C   0  0  0  0  0  0  0  0  0  0  0  0
  -26.1030  -12.5670   20.7810 C   0  0  0  0  0  0  0  0  0  0  0  0
  -27.9850  -13.5150   20.3890 N   0  0  0  0  0  0  0  0  0  0  0  0
  -27.3880  -12.3110   20.5850 N   0  0  0  0  0  0  0  0  0  0  0  0
  -25.1620  -11.4420   20.8780 C   0  0  0  0  0  0  0  0  0  0  0  0
  -25.3770  -10.3770   21.7790 C   0  0  0  0  0  3  0  0  0  0  0  0
  -24.4540   -9.3120   21.8630 C   0  0  0  0  0  3  0  0  0  0  0  0
  -23.2990   -9.3120   21.0440 C   0  0  0  0  0  0  0  0  0  0  0  0
  -23.1010  -10.3640   20.1340 C   0  0  0  0  0  3  0  0  0  0  0  0
  -24.0260  -11.4180   20.0480 C   0  0  0  0  0  3  0  0  0  0  0  0
  -22.3560   -8.3120   21.0400 O   0  0  0  0  0  0  0  0  0  0  0  0
  -22.0760   -7.5850   22.1690 C   0  0  0  0  0  0  0  0  0  0  0  0
  -21.6290   -8.2010   23.3580 C   0  0  0  0  0  3  0  0  0  0  0  0
  -21.2840   -7.4120   24.4730 C   0  0  0  0  0  3  0  0  0  0  0  0
  -21.3770   -6.0090   24.3990 C   0  0  0  0  0  0  0  0  0  0  0  0
  -21.8180   -5.3930   23.2140 C   0  0  0  0  0  3  0  0  0  0  0  0
  -22.1640   -6.1800   22.1020 C   0  0  0  0  0  0  0  0  0  0  0  0
  -22.5680   -5.5810   20.9550 F   0  0  0  0  0  0  0  0  0  0  0  0
  -21.0370   -5.2490   25.4660 F   0  0  0  0  0  0  0  0  0  0  0  0
  -24.5550  -14.6790   20.9680 C   0  0  0  0  0  0  0  0  0  0  0  0
  -23.6640  -14.1270   21.7830 N   0  0  0  0  0  0  0  0  0  0  0  0
  -24.3250  -15.7500   20.4090 O   0  0  0  0  0  0  0  0  0  0  0  0
  -23.8540  -13.2490   22.2480 H   0  0  0  0  0  0  0  0  0  0  0  0
  -22.7780  -14.5830   21.9390 H   0  0  0  0  0  0  0  0  0  0  0  0
  -27.4920  -15.8810   20.3970 N   0  0  0  0  0  0  0  0  0  0  0  0
  -26.8350  -16.6540   20.3870 H   0  0  0  0  0  0  0  0  0  0  0  0
  -28.4120  -16.1430   20.0690 H   0  0  0  0  0  0  0  0  0  0  0  0
  -31.4280  -19.5380   23.1100 C   0  0  0  0  0  2  0  0  0  0  0  0
  -30.9660  -20.4360   24.1820 N   0  0  0  0  0  4  0  0  0  0  0  0
  -30.3710  -21.1620   23.8270 H   0  0  0  0  0  0  0  0  0  0  0  0
  -31.7600  -20.8660   24.6240 H   0  0  0  0  0  0  0  0  0  0  0  0
  -30.4620  -19.9210   24.8830 H   0  0  0  0  0  0  0  0  0  0  0  0
  1  4  1  0
  2  5  1  0
  3  6  1  0
  3  1  1  0
  3  2  1  0
  4 54  1  0
  4  5  1  0
  5 93  1  0
  6  7  2  0
  8  9  1  0
  8  6  1  0
  9 10  1  0
 11 10  1  0
 11 12  1  0
 13 15  1  0
 13 12  1  0
 14 25  2  0
 15 20  1  0
 16 24  1  0
 16 26  1  0
 17 23  1  0
 17 19  1  0
 18 24  1  0
 19 18  1  0
 20 19  2  0
 21 22  1  0
 21 15  2  0
 22 17  2  0
 23 16  1  0
 24 14  1  0
 26 28  2  0
 27 26  1  0
 29 27  1  0
 30 39  2  0
 30 35  1  0
 31 27  1  0
 31 35  1  0
 32 31  1  0
 33 34  1  0
 33 32  1  0
 34 30  1  0
 35 36  2  0
 36 37  1  0
 38 37  2  0
 39 38  1  0
 40 14  1  0
 40 45  1  0
 40 41  1  0
 41 44  1  1
 41 42  1  0
 43 41  1  0
 45 48  1  0
 46 45  1  0
 46 50  1  0
 47 46  2  0
 50 49  1  0
 50 52  1  0
 52 53  1  0
 52 51  1  0
 55 61  1  0
 55 63  1  0
 56 61  1  0
 57 58  1  0
 57 56  1  0
 59 58  1  0
 59 68  1  0
 59 60  1  0
 61 60  1  0
 62 55  2  0
 63 64  1  0
 63 54  1  0
 65 66  2  0
 66 85  1  0
 67 66  1  0
 67 70  1  0
 68 65  1  0
 68 69  1  0
 69 67  2  0
 70 71  1  0
 71 72  2  0
 73 72  1  0
 74 73  2  0
 75 74  1  0
 75 70  2  0
 76 73  1  0
 76 77  1  0
 77 78  1  0
 78 79  2  0
 80 79  1  0
 80 84  1  0
 81 80  2  0
 82 77  2  0
 82 81  1  0
 83 82  1  0
 85 86  1  0
 86 89  1  0
 86 88  1  0
 87 85  2  0
 90 65  1  0
 91 90  1  0
 92 90  1  0
 93 94  1  0
 94 96  1  0
 94 97  1  0
 95 94  1  0
M  ISO  4  12 101  13 101  55 100  63 100
M  END
>  <TORSDO>  (33) 
F 25

>  <SCORE>  (33) 
-9.006

>  <name>  (33) 
33

>  <ligand_id>  (33) 
33

>  <original_smiles>  (33) 
[H]c1c([H])c([H])c2c(c1[H])C([H])([H])C([H])([H])C([H])([H])C2([H])N([H])C(=O)C1([H])N(C(=O)C([H])(N([H])C(=O)C([H])(N([H])C([H])([H])[H])C([H])([H])[H])C(C([H])([H])[H])(C([H])([H])[H])C([H])([H])[H])C([H])([H])c2c([H])c(OC([H])([H])C([H])([H])C([H])([H])C([H])([H])C([H])([H])C(=O)C3([H])C([H])([H])C([H])(C([H])([H])N([H])C(=O)N4C([H])([H])C([H])([H])C([H])([H])C([H])(n5nc(-c6c([H])c([H])c(Oc7c([H])c([H])c(F)c([H])c7F)c([H])c6[H])c(C(=O)N([H])[H])c5N([H])[H])C4([H])[H])C([H])(C([H])([H])[N+]([H])([H])[H])C3([H])[H])c([H])c([H])c2C1([H])[H]

>  <smiles>  (33) 
[H]c1c([H])c([H])c2c(c1[H])C([H])([H])C([H])([H])C([H])([H])C2([H])N([H])C(=O)C1([H])N(C(=O)C([H])(N([H])C(=O)C([H])(N([H])C([H])([H])[H])C([H])([H])[H])C(C([H])([H])[H])(C([H])([H])[H])C([H])([H])[H])C([H])([H])c2c([H])c(OC([H])([H])C([H])([H])C([H])([H])C([H])([H])C([H])([H])C(=O)C3([H])C([H])([H])C([H])(C([H])([H])N([H])C(=O)N4C([H])([H])C([H])([H])C([H])([H])C([H])(n5nc(-c6c([H])c([H])c(Oc7c([H])c([H])c(F)c([H])c7F)c([H])c6[H])c(C(=O)N([H])[H])c5N([H])[H])C4([H])[H])C([H])(C([H])([H])[N+]([H])([H])[H])C3([H])[H])c([H])c([H])c2C1([H])[H]

$$$$
34:0:0
     RDKit          3D

 96104  0  0  1  0  0  0  0  0999 V2000
  -25.5000  -22.6790   18.9220 C   0  0  0  0  0  2  0  0  0  0  0  0
  -26.1020  -21.7640   21.2240 C   0  0  0  0  0  2  0  0  0  0  0  0
  -25.8190  -23.9990   19.6550 C   0  0  0  0  0  2  0  0  0  0  0  0
  -27.2060  -22.8390   21.4220 C   0  0  0  0  0  2  0  0  0  0  0  0
  -25.8690  -21.4010   19.7330 C   0  0  0  0  0  3  0  0  0  0  0  0
  -27.1950  -23.9640   20.3500 C   0  0  0  0  0  3  0  0  0  0  0  0
  -27.0340  -20.6010   19.1050 C   0  0  0  0  0  0  0  0  0  0  0  0
  -27.9060  -20.0310   19.9460 N   0  0  0  0  0  0  0  0  0  0  0  0
  -27.1480  -20.5210   17.8810 O   0  0  0  0  0  0  0  0  0  0  0  0
  -27.7000  -20.1700   20.9270 H   0  0  0  0  0  0  0  0  0  0  0  0
  -29.1830  -19.4050   19.6320 C   0  0  0  0  0  2  0  0  0  0  0  0
  -29.2050  -17.9430   20.1070 C   0  0  0  0  0  2  0  0  0  0  0  0
  -30.5980  -17.2820   20.0260 C   0  0  0  0  0  2  0  0  0  0  0  0
  -31.2100  -14.8640   19.9230 C   0  0  0  0  0  0  0  0  0  0  0  0
  -30.9270  -12.5810   19.0450 C   0  0  0  0  0  2  0  0  0  0  0  0
  -29.9680  -12.6360   17.8370 C   0  0  0  0  0  2  0  0  0  0  0  0
  -28.5000  -12.5520   18.2990 C   0  0  0  0  0  2  0  0  0  0  0  0
  -28.1730  -13.5420   19.4460 C   0  0  0  0  0  3  0  0  0  0  0  0
  -29.2370  -13.4390   20.5630 C   0  0  0  0  0  2  0  0  0  0  0  0
  -30.5640  -13.6710   19.9610 N   0  0  0  0  0  0  0  0  0  0  0  0
  -32.2860  -15.0460   19.3470 O   0  0  0  0  0  0  0  0  0  0  0  0
  -30.4970  -15.8800   20.4270 N   0  0  0  0  0  0  0  0  0  0  0  0
  -29.6660  -15.6170   20.9310 H   0  0  0  0  0  0  0  0  0  0  0  0
  -25.8320  -14.2650   20.2510 C   0  0  0  0  0  0  0  0  0  0  0  0
  -24.7390  -13.5420   20.6440 C   0  0  0  0  0  0  0  0  0  0  0  0
  -25.1280  -12.1690   20.5790 C   0  0  0  0  0  0  0  0  0  0  0  0
  -26.8220  -13.3340   19.9680 N   0  0  0  0  0  0  0  0  0  0  0  0
  -26.4020  -12.0690   20.2210 N   0  0  0  0  0  0  0  0  0  0  0  0
  -24.3490  -10.9410   20.7810 C   0  0  0  0  0  0  0  0  0  0  0  0
  -24.7040   -9.9930   21.7660 C   0  0  0  0  0  3  0  0  0  0  0  0
  -23.9280   -8.8290   21.9520 C   0  0  0  0  0  3  0  0  0  0  0  0
  -22.7810   -8.6060   21.1550 C   0  0  0  0  0  0  0  0  0  0  0  0
  -22.4430   -9.5420   20.1620 C   0  0  0  0  0  3  0  0  0  0  0  0
  -23.2200  -10.6980   19.9730 C   0  0  0  0  0  3  0  0  0  0  0  0
  -21.9820   -7.4930   21.2480 O   0  0  0  0  0  0  0  0  0  0  0  0
  -21.7600   -6.8650   22.4470 C   0  0  0  0  0  0  0  0  0  0  0  0
  -21.1950   -7.5430   23.5480 C   0  0  0  0  0  3  0  0  0  0  0  0
  -20.9230   -6.8440   24.7410 C   0  0  0  0  0  3  0  0  0  0  0  0
  -21.2030   -5.4670   24.8290 C   0  0  0  0  0  0  0  0  0  0  0  0
  -21.7590   -4.7880   23.7320 C   0  0  0  0  0  3  0  0  0  0  0  0
  -22.0350   -5.4860   22.5420 C   0  0  0  0  0  0  0  0  0  0  0  0
  -22.5540   -4.8240   21.4800 F   0  0  0  0  0  0  0  0  0  0  0  0
  -20.9310   -4.7920   25.9720 F   0  0  0  0  0  0  0  0  0  0  0  0
  -23.3790  -14.0820   20.9810 C   0  0  0  0  0  0  0  0  0  0  0  0
  -22.6630  -13.4180   21.8830 N   0  0  0  0  0  0  0  0  0  0  0  0
  -22.9630  -15.1280   20.4810 O   0  0  0  0  0  0  0  0  0  0  0  0
  -23.0140  -12.5690   22.3030 H   0  0  0  0  0  0  0  0  0  0  0  0
  -21.7530  -13.7620   22.1560 H   0  0  0  0  0  0  0  0  0  0  0  0
  -26.0650  -15.6300   20.1010 N   0  0  0  0  0  0  0  0  0  0  0  0
  -25.3560  -16.3240   20.3080 H   0  0  0  0  0  0  0  0  0  0  0  0
  -26.9470  -16.0310   19.8180 H   0  0  0  0  0  0  0  0  0  0  0  0
  -28.3950  -23.8510   19.3660 C   0  0  0  0  0  2  0  0  0  0  0  0
  -28.6030  -25.0550   18.4410 C   0  0  0  0  0  0  0  0  0  0  0  0
  -28.5410  -24.9200   17.2130 O   0  0  0  0  0  0  0  0  0  0  0  0
  -28.9100  -26.4130   19.0870 C   0  0  0  0  0  2  0  0  0  0  0  0
  -28.5620  -27.4930   18.2150 O   0  0  0  0  0  0  0  0  0  0  0  0
  -24.5090  -31.2680   22.6470 C   0  0  0  0  0  0  0  0  0  0  0  0
  -27.3150  -28.0060   18.4690 C   0  0  0  0  0  0  0  0  0  0  0  0
  -23.3050  -30.0200   20.8850 C   0  0  0  0  0  3  0  0  0  0  0  0
  -24.7560  -29.0380   19.0320 C   0  0  0  0  0  0  0  0  0  0  0  0
  -25.6990  -30.8280   20.5030 C   0  0  0  0  0  2  0  0  0  0  0  0
  -25.8920  -29.6350   19.5950 C   0  0  0  0  0  0  0  0  0  0  0  0
  -27.1770  -29.1230   19.3160 C   0  0  0  0  0  3  0  0  0  0  0  0
  -26.1690  -27.4270   17.8880 C   0  0  0  0  0  3  0  0  0  0  0  0
  -24.8870  -27.9290   18.1760 C   0  0  0  0  0  3  0  0  0  0  0  0
  -23.4220  -29.6540   19.3820 C   0  0  0  0  0  2  0  0  0  0  0  0
  -24.5290  -30.7100   21.4050 N   0  0  0  0  0  0  0  0  0  0  0  0
  -23.4830  -31.2530   23.3420 O   0  0  0  0  0  0  0  0  0  0  0  0
  -22.9390  -28.7460   21.6720 C   0  0  0  0  0  0  0  0  0  0  0  0
  -21.6570  -28.3530   21.6070 N   0  0  0  0  0  0  0  0  0  0  0  0
  -23.7970  -28.1200   22.3010 O   0  0  0  0  0  0  0  0  0  0  0  0
  -21.0140  -28.9250   21.0780 H   0  0  0  0  0  0  0  0  0  0  0  0
  -18.6140  -26.4470   22.0320 C   0  0  0  0  0  0  0  0  0  0  0  0
  -21.0900  -27.1590   22.2350 C   0  0  0  0  0  3  0  0  0  0  0  0
  -21.4190  -25.8880   21.4130 C   0  0  0  0  0  2  0  0  0  0  0  0
  -20.3200  -25.5150   20.4130 C   0  0  0  0  0  2  0  0  0  0  0  0
  -18.9920  -25.2780   21.1400 C   0  0  0  0  0  2  0  0  0  0  0  0
  -19.5990  -27.3350   22.5360 C   0  0  0  0  0  0  0  0  0  0  0  0
  -19.1920  -28.4240   23.3360 C   0  0  0  0  0  3  0  0  0  0  0  0
  -17.8330  -28.6250   23.6450 C   0  0  0  0  0  3  0  0  0  0  0  0
  -16.8640  -27.7320   23.1580 C   0  0  0  0  0  3  0  0  0  0  0  0
  -17.2550  -26.6470   22.3530 C   0  0  0  0  0  3  0  0  0  0  0  0
  -25.7690  -31.9720   23.2460 C   0  0  0  0  0  3  0  0  0  0  0  0
  -25.3220  -33.2260   23.8690 N   0  0  0  0  0  0  0  0  0  0  0  0
  -25.4350  -34.4360   23.3020 C   0  0  0  0  0  0  0  0  0  0  0  0
  -26.0040  -34.6210   22.2230 O   0  0  0  0  0  0  0  0  0  0  0  0
  -24.8020  -33.1440   24.7310 H   0  0  0  0  0  0  0  0  0  0  0  0
  -23.4700  -35.9980   23.4220 C   0  0  0  0  0  1  0  0  0  0  0  0
  -24.8220  -35.6300   24.0560 C   0  0  0  0  0  3  0  0  0  0  0  0
  -26.8960  -36.6370   24.8980 C   0  0  0  0  0  1  0  0  0  0  0  0
  -25.6960  -36.8210   24.0850 N   0  0  0  0  0  0  0  0  0  0  0  0
  -25.1940  -37.6290   24.4450 H   0  0  0  0  0  0  0  0  0  0  0  0
  -26.5450  -31.0760   24.2890 C   0  0  1  0  0  0  0  0  0  0  0  0
  -25.6430  -30.4880   25.3980 C   0  0  0  0  0  1  0  0  0  0  0  0
  -27.2450  -29.8960   23.5760 C   0  0  0  0  0  1  0  0  0  0  0  0
  -27.6610  -31.9050   24.9690 C   0  0  0  0  0  1  0  0  0  0  0  0
  1  3  1  0
  1  5  1  0
  2  4  1  0
  3  6  1  0
  5  7  1  0
  5  2  1  0
  6 52  1  0
  6  4  1  0
  7  8  1  0
  8 10  1  0
  9  7  2  0
 11  8  1  0
 11 12  1  0
 13 12  1  0
 13 22  1  0
 14 20  1  0
 14 22  1  0
 15 20  1  0
 16 17  1  0
 16 15  1  0
 18 17  1  0
 18 27  1  0
 18 19  1  0
 20 19  1  0
 21 14  2  0
 22 23  1  0
 24 25  2  0
 25 44  1  0
 26 25  1  0
 26 29  1  0
 27 28  1  0
 27 24  1  0
 28 26  2  0
 29 30  1  0
 30 31  2  0
 32 35  1  0
 32 31  1  0
 33 32  2  0
 34 33  1  0
 34 29  2  0
 35 36  1  0
 36 41  2  0
 36 37  1  0
 37 38  2  0
 38 39  1  0
 39 43  1  0
 40 39  2  0
 41 40  1  0
 42 41  1  0
 44 45  1  0
 45 48  1  0
 45 47  1  0
 46 44  2  0
 49 24  1  0
 49 50  1  0
 51 49  1  0
 53 55  1  0
 53 52  1  0
 54 53  2  0
 56 58  1  0
 56 55  1  0
 57 68  2  0
 58 63  1  0
 59 67  1  0
 59 69  1  0
 60 66  1  0
 60 62  1  0
 61 67  1  0
 62 61  1  0
 63 62  2  0
 64 65  1  0
 64 58  2  0
 65 60  2  0
 66 59  1  0
 67 57  1  0
 69 71  2  0
 70 69  1  0
 72 70  1  0
 73 82  2  0
 73 78  1  0
 74 70  1  0
 74 78  1  0
 75 74  1  0
 76 77  1  0
 76 75  1  0
 77 73  1  0
 78 79  2  0
 79 80  1  0
 81 80  2  0
 82 81  1  0
 83 57  1  0
 83 84  1  0
 83 93  1  0
 84 87  1  0
 85 84  1  0
 85 89  1  0
 86 85  2  0
 89 88  1  0
 89 91  1  0
 91 92  1  0
 91 90  1  0
 93 96  1  1
 93 94  1  0
 95 93  1  0
M  ISO  4  14 100  22 100  55 101  56 101
M  END
>  <TORSDO>  (34) 
F 23

>  <SCORE>  (34) 
-6.124

>  <name>  (34) 
34

>  <ligand_id>  (34) 
34

>  <original_smiles>  (34) 
[H]c1c([H])c([H])c2c(c1[H])C([H])([H])C([H])([H])C([H])([H])C2([H])N([H])C(=O)C1([H])N(C(=O)C([H])(N([H])C(=O)C([H])(N([H])C([H])([H])[H])C([H])([H])[H])C(C([H])([H])[H])(C([H])([H])[H])C([H])([H])[H])C([H])([H])c2c([H])c(OC([H])([H])C(=O)C([H])([H])C3([H])C([H])([H])C([H])([H])C([H])(C(=O)N([H])C([H])([H])C([H])([H])C([H])([H])N([H])C(=O)N4C([H])([H])C([H])([H])C([H])([H])C([H])(n5nc(-c6c([H])c([H])c(Oc7c([H])c([H])c(F)c([H])c7F)c([H])c6[H])c(C(=O)N([H])[H])c5N([H])[H])C4([H])[H])C([H])([H])C3([H])[H])c([H])c([H])c2C1([H])[H]

>  <smiles>  (34) 
[H]c1c([H])c([H])c2c(c1[H])C([H])([H])C([H])([H])C([H])([H])C2([H])N([H])C(=O)C1([H])N(C(=O)C([H])(N([H])C(=O)C([H])(N([H])C([H])([H])[H])C([H])([H])[H])C(C([H])([H])[H])(C([H])([H])[H])C([H])([H])[H])C([H])([H])c2c([H])c(OC([H])([H])C(=O)C([H])([H])C3([H])C([H])([H])C([H])([H])C([H])(C(=O)N([H])C([H])([H])C([H])([H])C([H])([H])N([H])C(=O)N4C([H])([H])C([H])([H])C([H])([H])C([H])(n5nc(-c6c([H])c([H])c(Oc7c([H])c([H])c(F)c([H])c7F)c([H])c6[H])c(C(=O)N([H])[H])c5N([H])[H])C4([H])[H])C([H])([H])C3([H])[H])c([H])c([H])c2C1([H])[H]

$$$$
36:0:0
     RDKit          3D

102110  0  0  1  0  0  0  0  0999 V2000
  -28.7170  -19.3950   19.7120 C   0  0  0  0  0  3  0  0  0  0  0  0
  -27.6780  -20.0680   20.5240 N   0  0  0  0  0  4  0  0  0  0  0  0
  -26.8120  -19.5900   20.3270 H   0  0  0  0  0  0  0  0  0  0  0  0
  -27.8570  -19.9010   21.5010 H   0  0  0  0  0  0  0  0  0  0  0  0
  -27.4630  -21.5150   20.2760 C   0  0  0  0  0  2  0  0  0  0  0  0
  -28.6100  -22.4200   20.7870 C   0  0  0  0  0  2  0  0  0  0  0  0
  -28.2560  -23.9270   20.7500 C   0  0  0  0  0  2  0  0  0  0  0  0
  -29.3920  -24.8290   21.2710 C   0  0  0  0  0  2  0  0  0  0  0  0
  -28.9810  -26.2930   21.5310 C   0  0  0  0  0  2  0  0  0  0  0  0
  -28.6670  -26.9520   20.3060 O   0  0  0  0  0  0  0  0  0  0  0  0
  -24.6470  -32.0430   23.2990 C   0  0  0  0  0  0  0  0  0  0  0  0
  -27.4930  -27.6630   20.3280 C   0  0  0  0  0  0  0  0  0  0  0  0
  -23.5220  -30.5930   21.6390 C   0  0  0  0  0  3  0  0  0  0  0  0
  -25.0570  -29.0780   20.2750 C   0  0  0  0  0  0  0  0  0  0  0  0
  -26.0380  -31.0210   21.5040 C   0  0  0  0  0  2  0  0  0  0  0  0
  -26.1800  -29.6430   20.8910 C   0  0  0  0  0  0  0  0  0  0  0  0
  -27.4050  -28.9400   20.9260 C   0  0  0  0  0  3  0  0  0  0  0  0
  -26.3580  -27.1030   19.7120 C   0  0  0  0  0  3  0  0  0  0  0  0
  -25.1360  -27.8020   19.6880 C   0  0  0  0  0  3  0  0  0  0  0  0
  -23.7900  -29.9040   20.2740 C   0  0  0  0  0  2  0  0  0  0  0  0
  -24.7520  -31.2350   22.2060 N   0  0  0  0  0  0  0  0  0  0  0  0
  -23.5450  -32.2910   23.8090 O   0  0  0  0  0  0  0  0  0  0  0  0
  -22.8720  -29.5670   22.5930 C   0  0  0  0  0  0  0  0  0  0  0  0
  -21.5640  -29.3260   22.4110 N   0  0  0  0  0  0  0  0  0  0  0  0
  -23.5430  -28.9880   23.4510 O   0  0  0  0  0  0  0  0  0  0  0  0
  -21.0840  -29.8420   21.6850 H   0  0  0  0  0  0  0  0  0  0  0  0
  -18.2280  -27.9860   22.7760 C   0  0  0  0  0  0  0  0  0  0  0  0
  -20.7550  -28.3730   23.1680 C   0  0  0  0  0  3  0  0  0  0  0  0
  -20.9550  -26.9350   22.6370 C   0  0  0  0  0  2  0  0  0  0  0  0
  -19.9220  -26.5330   21.5800 C   0  0  0  0  0  2  0  0  0  0  0  0
  -18.5040  -26.6290   22.1490 C   0  0  0  0  0  2  0  0  0  0  0  0
  -19.2870  -28.8090   23.2410 C   0  0  0  0  0  0  0  0  0  0  0  0
  -18.9810  -30.0760   23.7860 C   0  0  0  0  0  3  0  0  0  0  0  0
  -17.6480  -30.5210   23.8690 C   0  0  0  0  0  3  0  0  0  0  0  0
  -16.6030  -29.6960   23.4210 C   0  0  0  0  0  3  0  0  0  0  0  0
  -16.8930  -28.4290   22.8810 C   0  0  0  0  0  3  0  0  0  0  0  0
  -25.8980  -32.7140   23.9440 C   0  0  0  0  0  3  0  0  0  0  0  0
  -25.5570  -34.1170   24.2160 N   0  0  0  0  0  0  0  0  0  0  0  0
  -25.9050  -35.1480   23.4350 C   0  0  0  0  0  0  0  0  0  0  0  0
  -26.6180  -35.0200   22.4370 O   0  0  0  0  0  0  0  0  0  0  0  0
  -24.9220  -34.2850   24.9820 H   0  0  0  0  0  0  0  0  0  0  0  0
  -24.1650  -36.8990   22.9530 C   0  0  0  0  0  1  0  0  0  0  0  0
  -25.3800  -36.5420   23.8250 C   0  0  0  0  0  3  0  0  0  0  0  0
  -27.4690  -37.4850   24.7060 C   0  0  0  0  0  1  0  0  0  0  0  0
  -26.4000  -37.6060   23.7170 N   0  0  0  0  0  0  0  0  0  0  0  0
  -25.9770  -38.5250   23.8200 H   0  0  0  0  0  0  0  0  0  0  0  0
  -26.3840  -31.9900   25.2600 C   0  0  1  0  0  0  0  0  0  0  0  0
  -25.2560  -31.7580   26.2930 C   0  0  0  0  0  1  0  0  0  0  0  0
  -27.0070  -30.6140   24.9280 C   0  0  0  0  0  1  0  0  0  0  0  0
  -27.4980  -32.8230   25.9370 C   0  0  0  0  0  1  0  0  0  0  0  0
  -28.0080  -18.2060   19.0500 C   0  0  0  0  0  0  0  0  0  0  0  0
  -27.6710  -17.2050   19.6880 O   0  0  0  0  0  0  0  0  0  0  0  0
  -27.0060  -17.0670   16.9760 C   0  0  0  0  0  1  0  0  0  0  0  0
  -27.6910  -18.3180   17.5570 C   0  0  0  0  0  2  0  0  0  0  0  0
  -29.8890  -18.9110   20.6050 C   0  0  0  0  0  2  0  0  0  0  0  0
  -31.7870  -19.2020   18.9450 C   0  0  0  0  0  2  0  0  0  0  0  0
  -33.1150  -18.6620   18.4000 C   0  0  0  0  0  2  0  0  0  0  0  0
  -33.4660  -17.2330   20.3590 C   0  0  0  0  0  2  0  0  0  0  0  0
  -31.0630  -18.1950   19.8730 C   0  0  0  0  0  3  0  0  0  0  0  0
  -32.0420  -17.5460   20.9050 C   0  0  0  0  0  3  0  0  0  0  0  0
  -34.0080  -18.3150   19.5170 N   0  0  0  0  0  4  0  0  0  0  0  0
  -34.1830  -19.1300   20.0820 H   0  0  0  0  0  0  0  0  0  0  0  0
  -34.8950  -18.0180   19.1400 H   0  0  0  0  0  0  0  0  0  0  0  0
  -31.4670  -16.3300   21.7020 C   0  0  0  0  0  2  0  0  0  0  0  0
  -31.1880  -14.3930   20.0650 C   0  0  0  0  0  0  0  0  0  0  0  0
  -30.7900  -12.2360   18.9320 C   0  0  0  0  0  2  0  0  0  0  0  0
  -29.8390  -12.3880   17.7320 C   0  0  0  0  0  2  0  0  0  0  0  0
  -28.3680  -12.2970   18.1830 C   0  0  0  0  0  2  0  0  0  0  0  0
  -28.0550  -13.2020   19.4040 C   0  0  0  0  0  3  0  0  0  0  0  0
  -29.1130  -13.0140   20.5100 C   0  0  0  0  0  2  0  0  0  0  0  0
  -30.4420  -13.2650   19.9220 N   0  0  0  0  0  0  0  0  0  0  0  0
  -32.2240  -14.5900   19.4280 O   0  0  0  0  0  0  0  0  0  0  0  0
  -30.7440  -15.2660   20.9820 N   0  0  0  0  0  0  0  0  0  0  0  0
  -29.8380  -15.0270   21.3600 H   0  0  0  0  0  0  0  0  0  0  0  0
  -25.6880  -13.8880   20.1500 C   0  0  0  0  0  0  0  0  0  0  0  0
  -24.6040  -13.1500   20.5450 C   0  0  0  0  0  0  0  0  0  0  0  0
  -25.0240  -11.7860   20.5210 C   0  0  0  0  0  0  0  0  0  0  0  0
  -26.7010  -12.9730   19.9080 N   0  0  0  0  0  0  0  0  0  0  0  0
  -26.3050  -11.7030   20.1840 N   0  0  0  0  0  0  0  0  0  0  0  0
  -24.2650  -10.5470   20.7390 C   0  0  0  0  0  0  0  0  0  0  0  0
  -24.6480   -9.6090   21.7200 C   0  0  0  0  0  3  0  0  0  0  0  0
  -23.8910   -8.4350   21.9250 C   0  0  0  0  0  3  0  0  0  0  0  0
  -22.7350   -8.1920   21.1470 C   0  0  0  0  0  0  0  0  0  0  0  0
  -22.3690   -9.1190   20.1550 C   0  0  0  0  0  3  0  0  0  0  0  0
  -23.1270  -10.2840   19.9490 C   0  0  0  0  0  3  0  0  0  0  0  0
  -21.9550   -7.0650   21.2560 O   0  0  0  0  0  0  0  0  0  0  0  0
  -21.8080   -6.4040   22.4490 C   0  0  0  0  0  0  0  0  0  0  0  0
  -21.3070   -7.0490   23.6000 C   0  0  0  0  0  3  0  0  0  0  0  0
  -21.1040   -6.3160   24.7870 C   0  0  0  0  0  3  0  0  0  0  0  0
  -21.3930   -4.9380   24.8220 C   0  0  0  0  0  0  0  0  0  0  0  0
  -21.8860   -4.2930   23.6750 C   0  0  0  0  0  3  0  0  0  0  0  0
  -22.0900   -5.0240   22.4910 C   0  0  0  0  0  0  0  0  0  0  0  0
  -22.5440   -4.3900   21.3840 F   0  0  0  0  0  0  0  0  0  0  0  0
  -21.1900   -4.2330   25.9600 F   0  0  0  0  0  0  0  0  0  0  0  0
  -23.2290  -13.6730   20.8420 C   0  0  0  0  0  0  0  0  0  0  0  0
  -22.5060  -13.0160   21.7440 N   0  0  0  0  0  0  0  0  0  0  0  0
  -22.8030  -14.6950   20.3100 O   0  0  0  0  0  0  0  0  0  0  0  0
  -22.8600  -12.1890   22.2000 H   0  0  0  0  0  0  0  0  0  0  0  0
  -21.5810  -13.3490   21.9770 H   0  0  0  0  0  0  0  0  0  0  0  0
  -25.8900  -15.2520   19.9650 N   0  0  0  0  0  0  0  0  0  0  0  0
  -25.1540  -15.9370   20.0840 H   0  0  0  0  0  0  0  0  0  0  0  0
  -26.7720  -15.6740   19.6800 H   0  0  0  0  0  0  0  0  0  0  0  0
  1  2  1  0
  1 55  1  0
  2  4  1  0
  3  2  1  0
  5  2  1  0
  5  6  1  0
  7  6  1  0
  7  8  1  0
  8  9  1  0
 10 12  1  0
 10  9  1  0
 11 22  2  0
 12 17  1  0
 13 21  1  0
 13 23  1  0
 14 16  1  0
 15 21  1  0
 16 17  2  0
 16 15  1  0
 18 12  2  0
 19 18  1  0
 19 14  2  0
 20 14  1  0
 20 13  1  0
 21 11  1  0
 23 25  2  0
 24 23  1  0
 26 24  1  0
 27 36  2  0
 27 32  1  0
 28 24  1  0
 28 32  1  0
 29 28  1  0
 30 31  1  0
 30 29  1  0
 31 27  1  0
 32 33  2  0
 33 34  1  0
 35 34  2  0
 36 35  1  0
 37 11  1  0
 37 38  1  0
 37 47  1  0
 38 41  1  0
 39 43  1  0
 39 38  1  0
 40 39  2  0
 43 42  1  0
 45 46  1  0
 45 43  1  0
 45 44  1  0
 47 50  1  1
 47 48  1  0
 49 47  1  0
 51 52  2  0
 51  1  1  0
 53 54  1  0
 54 51  1  0
 56 59  1  0
 57 56  1  0
 57 61  1  0
 58 60  1  0
 59 55  1  0
 59 60  1  0
 60 64  1  0
 61 62  1  0
 61 58  1  0
 63 61  1  0
 65 73  1  0
 66 71  1  0
 67 68  1  0
 67 66  1  0
 69 68  1  0
 69 78  1  0
 69 70  1  0
 71 65  1  0
 71 70  1  0
 72 65  2  0
 73 74  1  0
 73 64  1  0
 75 76  2  0
 76 95  1  0
 77 76  1  0
 77 80  1  0
 78 75  1  0
 78 79  1  0
 79 77  2  0
 80 81  1  0
 81 82  2  0
 83 86  1  0
 83 82  1  0
 84 83  2  0
 85 84  1  0
 85 80  2  0
 86 87  1  0
 87 92  2  0
 87 88  1  0
 88 89  2  0
 89 90  1  0
 90 94  1  0
 91 90  2  0
 92 91  1  0
 93 92  1  0
 95 96  1  0
 96 99  1  0
 96 98  1  0
 97 95  2  0
100101  1  0
100 75  1  0
102100  1  0
M  ISO  4   9 101  10 101  65 100  73 100
M  END
>  <TORSDO>  (35) 
F 27

>  <SCORE>  (35) 
-7.538

>  <name>  (35) 
36

>  <ligand_id>  (35) 
36

>  <original_smiles>  (35) 
[H]c1c([H])c([H])c2c(c1[H])C([H])([H])C([H])([H])C([H])([H])C2([H])N([H])C(=O)C1([H])N(C(=O)C([H])(N([H])C(=O)C([H])(N([H])C([H])([H])[H])C([H])([H])[H])C(C([H])([H])[H])(C([H])([H])[H])C([H])([H])[H])C([H])([H])c2c([H])c(OC([H])([H])C([H])([H])C([H])([H])C([H])([H])C([H])([H])[N+]([H])([H])C([H])(C(=O)C([H])([H])C([H])([H])[H])C([H])([H])C3([H])C([H])([H])C([H])([H])[N+]([H])([H])C([H])([H])C3([H])C([H])([H])N([H])C(=O)N3C([H])([H])C([H])([H])C([H])([H])C([H])(n4nc(-c5c([H])c([H])c(Oc6c([H])c([H])c(F)c([H])c6F)c([H])c5[H])c(C(=O)N([H])[H])c4N([H])[H])C3([H])[H])c([H])c([H])c2C1([H])[H]

>  <smiles>  (35) 
[H]c1c([H])c([H])c2c(c1[H])C([H])([H])C([H])([H])C([H])([H])C2([H])N([H])C(=O)C1([H])N(C(=O)C([H])(N([H])C(=O)C([H])(N([H])C([H])([H])[H])C([H])([H])[H])C(C([H])([H])[H])(C([H])([H])[H])C([H])([H])[H])C([H])([H])c2c([H])c(OC([H])([H])C([H])([H])C([H])([H])C([H])([H])C([H])([H])[N+]([H])([H])C([H])(C(=O)C([H])([H])C([H])([H])[H])C([H])([H])C3([H])C([H])([H])C([H])([H])[N+]([H])([H])C([H])([H])C3([H])C([H])([H])N([H])C(=O)N3C([H])([H])C([H])([H])C([H])([H])C([H])(n4nc(-c5c([H])c([H])c(Oc6c([H])c([H])c(F)c([H])c6F)c([H])c5[H])c(C(=O)N([H])[H])c4N([H])[H])C3([H])[H])c([H])c([H])c2C1([H])[H]

$$$$
37:0:0
     RDKit          3D

 94102  0  0  1  0  0  0  0  0999 V2000
  -26.7580  -20.9040   20.0350 C   0  0  0  0  0  2  0  0  0  0  0  0
  -27.6030  -19.7730   19.4100 C   0  0  0  0  0  2  0  0  0  0  0  0
  -28.2530  -18.7600   20.3650 C   0  0  0  0  0  0  0  0  0  0  0  0
  -27.7960  -18.5470   21.4910 O   0  0  0  0  0  0  0  0  0  0  0  0
  -31.2630  -14.7450   19.8170 C   0  0  0  0  0  0  0  0  0  0  0  0
  -30.9190  -12.4910   18.9190 C   0  0  0  0  0  2  0  0  0  0  0  0
  -29.9330  -12.5940   17.7390 C   0  0  0  0  0  2  0  0  0  0  0  0
  -28.4740  -12.5190   18.2330 C   0  0  0  0  0  2  0  0  0  0  0  0
  -28.1870  -13.4500   19.4440 C   0  0  0  0  0  3  0  0  0  0  0  0
  -29.2930  -13.3370   20.5160 C   0  0  0  0  0  2  0  0  0  0  0  0
  -30.5810  -13.5720   19.8540 N   0  0  0  0  0  0  0  0  0  0  0  0
  -32.4580  -14.7890   19.5230 O   0  0  0  0  0  0  0  0  0  0  0  0
  -29.3690  -17.5740   18.3960 C   0  0  0  0  0  2  0  0  0  0  0  0
  -29.9020  -16.7160   20.5730 C   0  0  0  0  0  2  0  0  0  0  0  0
  -29.5090  -18.0250   19.8480 C   0  0  0  0  0  3  0  0  0  0  0  0
  -30.4400  -16.4960   18.2290 C   0  0  0  0  0  3  0  0  0  0  0  0
  -30.4840  -15.8270   19.5500 N   0  0  0  0  0  0  0  0  0  0  0  0
  -25.8680  -14.1230   20.3290 C   0  0  0  0  0  0  0  0  0  0  0  0
  -24.7920  -13.3780   20.7340 C   0  0  0  0  0  0  0  0  0  0  0  0
  -25.1960  -12.0130   20.6280 C   0  0  0  0  0  0  0  0  0  0  0  0
  -26.8590  -13.2100   20.0030 N   0  0  0  0  0  0  0  0  0  0  0  0
  -26.4620  -11.9340   20.2400 N   0  0  0  0  0  0  0  0  0  0  0  0
  -24.4310  -10.7730   20.8150 C   0  0  0  0  0  0  0  0  0  0  0  0
  -24.8080   -9.8100   21.7770 C   0  0  0  0  0  3  0  0  0  0  0  0
  -24.0440   -8.6360   21.9500 C   0  0  0  0  0  3  0  0  0  0  0  0
  -22.8910   -8.4150   21.1600 C   0  0  0  0  0  0  0  0  0  0  0  0
  -22.5330   -9.3670   20.1890 C   0  0  0  0  0  3  0  0  0  0  0  0
  -23.2970  -10.5320   20.0140 C   0  0  0  0  0  3  0  0  0  0  0  0
  -22.1040   -7.2910   21.2430 O   0  0  0  0  0  0  0  0  0  0  0  0
  -21.8970   -6.6440   22.4340 C   0  0  0  0  0  0  0  0  0  0  0  0
  -21.3210   -7.2950   23.5470 C   0  0  0  0  0  3  0  0  0  0  0  0
  -21.0620   -6.5730   24.7290 C   0  0  0  0  0  3  0  0  0  0  0  0
  -21.3690   -5.2000   24.7980 C   0  0  0  0  0  0  0  0  0  0  0  0
  -21.9370   -4.5490   23.6880 C   0  0  0  0  0  3  0  0  0  0  0  0
  -22.1980   -5.2690   22.5100 C   0  0  0  0  0  0  0  0  0  0  0  0
  -22.7250   -4.6310   21.4370 F   0  0  0  0  0  0  0  0  0  0  0  0
  -21.1140   -4.5050   25.9310 F   0  0  0  0  0  0  0  0  0  0  0  0
  -23.4350  -13.8990   21.1080 C   0  0  0  0  0  0  0  0  0  0  0  0
  -22.7380  -13.2080   22.0030 N   0  0  0  0  0  0  0  0  0  0  0  0
  -23.0040  -14.9520   20.6420 O   0  0  0  0  0  0  0  0  0  0  0  0
  -23.0990  -12.3550   22.4030 H   0  0  0  0  0  0  0  0  0  0  0  0
  -21.8300  -13.5400   22.2940 H   0  0  0  0  0  0  0  0  0  0  0  0
  -26.0810  -15.4910   20.1900 N   0  0  0  0  0  0  0  0  0  0  0  0
  -25.3590  -16.1740   20.3910 H   0  0  0  0  0  0  0  0  0  0  0  0
  -26.9430  -15.9030   19.8630 H   0  0  0  0  0  0  0  0  0  0  0  0
  -31.7380  -17.7330   16.3500 C   0  0  0  0  0  1  0  0  0  0  0  0
  -31.7940  -17.0950   17.7480 C   0  0  0  0  0  2  0  0  0  0  0  0
  -27.5500  -22.1800   20.3860 C   0  0  0  0  0  2  0  0  0  0  0  0
  -26.6910  -23.4580   20.2420 C   0  0  0  0  0  2  0  0  0  0  0  0
  -27.6920  -24.7850   22.1690 C   0  0  0  0  0  1  0  0  0  0  0  0
  -27.3620  -24.7900   20.6670 C   0  0  0  0  0  3  0  0  0  0  0  0
  -28.5940  -25.1830   19.8170 C   0  0  0  0  0  2  0  0  0  0  0  0
  -28.2970  -25.9000   18.4820 C   0  0  0  0  0  2  0  0  0  0  0  0
  -28.1610  -27.3150   18.6660 O   0  0  0  0  0  0  0  0  0  0  0  0
  -24.3680  -31.6160   22.8550 C   0  0  0  0  0  0  0  0  0  0  0  0
  -26.9260  -27.8870   18.8870 C   0  0  0  0  0  0  0  0  0  0  0  0
  -23.0810  -30.4060   21.1220 C   0  0  0  0  0  3  0  0  0  0  0  0
  -24.4640  -29.2030   19.3520 C   0  0  0  0  0  0  0  0  0  0  0  0
  -25.5520  -30.9610   20.7600 C   0  0  0  0  0  2  0  0  0  0  0  0
  -25.6440  -29.7120   19.9080 C   0  0  0  0  0  0  0  0  0  0  0  0
  -26.8740  -29.0640   19.6660 C   0  0  0  0  0  3  0  0  0  0  0  0
  -25.7230  -27.3840   18.3380 C   0  0  0  0  0  3  0  0  0  0  0  0
  -24.4990  -28.0380   18.5670 C   0  0  0  0  0  3  0  0  0  0  0  0
  -23.1870  -29.9580   19.6410 C   0  0  0  0  0  2  0  0  0  0  0  0
  -24.3570  -31.0010   21.6380 N   0  0  0  0  0  0  0  0  0  0  0  0
  -23.3320  -31.7280   23.5240 O   0  0  0  0  0  0  0  0  0  0  0  0
  -22.5810  -29.2070   21.9600 C   0  0  0  0  0  0  0  0  0  0  0  0
  -21.2660  -28.9430   21.9010 N   0  0  0  0  0  0  0  0  0  0  0  0
  -23.3700  -28.5230   22.6200 O   0  0  0  0  0  0  0  0  0  0  0  0
  -20.6850  -29.5570   21.3480 H   0  0  0  0  0  0  0  0  0  0  0  0
  -18.0380  -27.4020   22.4000 C   0  0  0  0  0  0  0  0  0  0  0  0
  -20.5800  -27.8420   22.5750 C   0  0  0  0  0  3  0  0  0  0  0  0
  -20.7580  -26.5150   21.8010 C   0  0  0  0  0  2  0  0  0  0  0  0
  -19.6240  -26.2360   20.8090 C   0  0  0  0  0  2  0  0  0  0  0  0
  -18.2790  -26.1750   21.5360 C   0  0  0  0  0  2  0  0  0  0  0  0
  -19.1180  -28.1930   22.8740 C   0  0  0  0  0  0  0  0  0  0  0  0
  -18.8350  -29.3450   23.6410 C   0  0  0  0  0  3  0  0  0  0  0  0
  -17.5090  -29.7050   23.9400 C   0  0  0  0  0  3  0  0  0  0  0  0
  -16.4450  -28.9070   23.4840 C   0  0  0  0  0  3  0  0  0  0  0  0
  -16.7120  -27.7580   22.7190 C   0  0  0  0  0  3  0  0  0  0  0  0
  -25.6730  -32.2260   23.4530 C   0  0  0  0  0  3  0  0  0  0  0  0
  -25.3440  -33.5650   23.9610 N   0  0  0  0  0  0  0  0  0  0  0  0
  -25.6110  -34.7100   23.3180 C   0  0  0  0  0  0  0  0  0  0  0  0
  -26.2350  -34.7500   22.2540 O   0  0  0  0  0  0  0  0  0  0  0  0
  -24.7850  -33.6040   24.8010 H   0  0  0  0  0  0  0  0  0  0  0  0
  -23.8210  -36.4740   23.2540 C   0  0  0  0  0  1  0  0  0  0  0  0
  -25.1070  -36.0160   23.9600 C   0  0  0  0  0  3  0  0  0  0  0  0
  -27.2490  -36.8640   24.8100 C   0  0  0  0  0  1  0  0  0  0  0  0
  -26.1060  -37.1070   23.9340 N   0  0  0  0  0  0  0  0  0  0  0  0
  -25.6800  -37.9900   24.2040 H   0  0  0  0  0  0  0  0  0  0  0  0
  -26.3120  -31.3400   24.5910 C   0  0  1  0  0  0  0  0  0  0  0  0
  -25.3170  -30.9470   25.7070 C   0  0  0  0  0  1  0  0  0  0  0  0
  -26.9000  -30.0360   24.0010 C   0  0  0  0  0  1  0  0  0  0  0  0
  -27.4890  -32.0990   25.2490 C   0  0  0  0  0  1  0  0  0  0  0  0
  1 48  1  0
  2  1  1  0
  2  3  1  0
  3  4  2  0
  5 11  1  0
  6 11  1  0
  7  8  1  0
  7  6  1  0
  9  8  1  0
  9 21  1  0
  9 10  1  0
 11 10  1  0
 12  5  2  0
 13 15  1  0
 15  3  1  0
 15 14  1  0
 16 47  1  0
 16 13  1  0
 16 17  1  0
 17  5  1  0
 17 14  1  0
 18 19  2  0
 19 38  1  0
 20 19  1  0
 20 23  1  0
 21 22  1  0
 21 18  1  0
 22 20  2  0
 23 24  1  0
 24 25  2  0
 26 29  1  0
 26 25  1  0
 27 26  2  0
 28 27  1  0
 28 23  2  0
 29 30  1  0
 30 35  2  0
 30 31  1  0
 31 32  2  0
 32 33  1  0
 33 37  1  0
 34 33  2  0
 35 34  1  0
 36 35  1  0
 38 39  1  0
 39 42  1  0
 39 41  1  0
 40 38  2  0
 43 18  1  0
 43 44  1  0
 45 43  1  0
 46 47  1  0
 49 48  1  0
 49 51  1  0
 51 50  1  0
 52 51  1  0
 53 54  1  0
 53 52  1  0
 54 56  1  0
 55 66  2  0
 56 61  1  0
 57 65  1  0
 57 67  1  0
 58 64  1  0
 58 60  1  0
 59 65  1  0
 60 59  1  0
 61 60  2  0
 62 63  1  0
 62 56  2  0
 63 58  2  0
 64 57  1  0
 65 55  1  0
 67 69  2  0
 68 67  1  0
 70 68  1  0
 71 80  2  0
 71 76  1  0
 72 68  1  0
 72 76  1  0
 73 72  1  0
 74 75  1  0
 74 73  1  0
 75 71  1  0
 76 77  2  0
 77 78  1  0
 79 78  2  0
 80 79  1  0
 81 55  1  0
 81 82  1  0
 81 91  1  0
 82 85  1  0
 83 87  1  0
 83 82  1  0
 84 83  2  0
 87 86  1  0
 89 87  1  0
 89 90  1  0
 89 88  1  0
 91 94  1  1
 91 92  1  0
 93 91  1  0
M  ISO  4   5 100  17 100  53 101  54 101
M  END
>  <TORSDO>  (36) 
F 24

>  <SCORE>  (36) 
-8.572

>  <name>  (36) 
37

>  <ligand_id>  (36) 
37

>  <original_smiles>  (36) 
[H]c1c([H])c([H])c2c(c1[H])C([H])([H])C([H])([H])C([H])([H])C2([H])N([H])C(=O)C1([H])N(C(=O)C([H])(N([H])C(=O)C([H])(N([H])C([H])([H])[H])C([H])([H])[H])C(C([H])([H])[H])(C([H])([H])[H])C([H])([H])[H])C([H])([H])c2c([H])c(OC([H])([H])C([H])([H])C([H])(C([H])([H])[H])C([H])([H])C([H])([H])C([H])([H])C([H])([H])C(=O)C3([H])C([H])([H])N(C(=O)N4C([H])([H])C([H])([H])C([H])([H])C([H])(n5nc(-c6c([H])c([H])c(Oc7c([H])c([H])c(F)c([H])c7F)c([H])c6[H])c(C(=O)N([H])[H])c5N([H])[H])C4([H])[H])C([H])(C([H])([H])C([H])([H])[H])C3([H])[H])c([H])c([H])c2C1([H])[H]

>  <smiles>  (36) 
[H]c1c([H])c([H])c2c(c1[H])C([H])([H])C([H])([H])C([H])([H])C2([H])N([H])C(=O)C1([H])N(C(=O)C([H])(N([H])C(=O)C([H])(N([H])C([H])([H])[H])C([H])([H])[H])C(C([H])([H])[H])(C([H])([H])[H])C([H])([H])[H])C([H])([H])c2c([H])c(OC([H])([H])C([H])([H])C([H])(C([H])([H])[H])C([H])([H])C([H])([H])C([H])([H])C([H])([H])C(=O)C3([H])C([H])([H])N(C(=O)N4C([H])([H])C([H])([H])C([H])([H])C([H])(n5nc(-c6c([H])c([H])c(Oc7c([H])c([H])c(F)c([H])c7F)c([H])c6[H])c(C(=O)N([H])[H])c5N([H])[H])C4([H])[H])C([H])(C([H])([H])C([H])([H])[H])C3([H])[H])c([H])c([H])c2C1([H])[H]

$$$$
38:0:0
     RDKit          3D

 88 95  0  0  1  0  0  0  0  0999 V2000
  -29.1710  -21.9590   20.2980 C   0  0  0  0  0  0  0  0  0  0  0  0
  -29.5040  -22.1710   19.1300 O   0  0  0  0  0  0  0  0  0  0  0  0
  -28.7290  -20.5520   20.7520 C   0  0  0  0  0  2  0  0  0  0  0  0
  -29.7960  -19.4390   20.5550 C   0  0  0  0  0  2  0  0  0  0  0  0
  -29.2900  -17.9970   20.8440 C   0  0  0  0  0  2  0  0  0  0  0  0
  -30.4150  -16.9310   20.7720 C   0  0  0  0  0  2  0  0  0  0  0  0
  -30.6520  -14.4730   20.4530 C   0  0  0  0  0  0  0  0  0  0  0  0
  -30.3400  -12.3020   19.3340 C   0  0  0  0  0  2  0  0  0  0  0  0
  -29.4040  -12.5050   18.1240 C   0  0  0  0  0  2  0  0  0  0  0  0
  -27.9290  -12.3790   18.5510 C   0  0  0  0  0  2  0  0  0  0  0  0
  -27.5930  -13.2250   19.8100 C   0  0  0  0  0  3  0  0  0  0  0  0
  -28.6460  -13.0130   20.9210 C   0  0  0  0  0  2  0  0  0  0  0  0
  -29.9690  -13.3000   20.3490 N   0  0  0  0  0  0  0  0  0  0  0  0
  -31.7940  -14.6200   20.0100 O   0  0  0  0  0  0  0  0  0  0  0  0
  -29.9470  -15.5360   20.8860 N   0  0  0  0  0  0  0  0  0  0  0  0
  -29.0070  -15.3690   21.2160 H   0  0  0  0  0  0  0  0  0  0  0  0
  -25.1930  -13.8420   20.5020 C   0  0  0  0  0  0  0  0  0  0  0  0
  -24.1210  -13.0740   20.8730 C   0  0  0  0  0  0  0  0  0  0  0  0
  -24.5820  -11.7220   20.8590 C   0  0  0  0  0  0  0  0  0  0  0  0
  -26.2380  -12.9560   20.2850 N   0  0  0  0  0  0  0  0  0  0  0  0
  -25.8720  -11.6770   20.5570 N   0  0  0  0  0  0  0  0  0  0  0  0
  -23.8530  -10.4620   21.0590 C   0  0  0  0  0  0  0  0  0  0  0  0
  -24.2950   -9.4910   21.9850 C   0  0  0  0  0  3  0  0  0  0  0  0
  -23.5650   -8.2970   22.1720 C   0  0  0  0  0  3  0  0  0  0  0  0
  -22.3820   -8.0650   21.4320 C   0  0  0  0  0  0  0  0  0  0  0  0
  -21.9600   -9.0230   20.4940 C   0  0  0  0  0  3  0  0  0  0  0  0
  -22.6890  -10.2090   20.3050 C   0  0  0  0  0  3  0  0  0  0  0  0
  -21.6230   -6.9230   21.5280 O   0  0  0  0  0  0  0  0  0  0  0  0
  -21.6030   -6.1670   22.6730 C   0  0  0  0  0  0  0  0  0  0  0  0
  -21.2300   -6.7150   23.9210 C   0  0  0  0  0  3  0  0  0  0  0  0
  -21.1560   -5.8860   25.0580 C   0  0  0  0  0  3  0  0  0  0  0  0
  -21.4440   -4.5120   24.9500 C   0  0  0  0  0  0  0  0  0  0  0  0
  -21.8100   -3.9660   23.7070 C   0  0  0  0  0  3  0  0  0  0  0  0
  -21.8860   -4.7910   22.5710 C   0  0  0  0  0  0  0  0  0  0  0  0
  -22.2180   -4.2560   21.3720 F   0  0  0  0  0  0  0  0  0  0  0  0
  -21.3660   -3.7140   26.0390 F   0  0  0  0  0  0  0  0  0  0  0  0
  -22.7240  -13.5560   21.1350 C   0  0  0  0  0  0  0  0  0  0  0  0
  -21.9930  -12.8710   22.0070 N   0  0  0  0  0  0  0  0  0  0  0  0
  -22.2880  -14.5760   20.6030 O   0  0  0  0  0  0  0  0  0  0  0  0
  -22.3600  -12.0460   22.4610 H   0  0  0  0  0  0  0  0  0  0  0  0
  -21.0550  -13.1740   22.2260 H   0  0  0  0  0  0  0  0  0  0  0  0
  -25.3610  -15.2090   20.3110 N   0  0  0  0  0  0  0  0  0  0  0  0
  -24.5940  -15.8660   20.4080 H   0  0  0  0  0  0  0  0  0  0  0  0
  -26.2130  -15.6420   19.9750 H   0  0  0  0  0  0  0  0  0  0  0  0
  -29.1780  -23.0820   21.3520 C   0  0  0  0  0  2  0  0  0  0  0  0
  -29.4330  -24.5360   20.8500 C   0  0  0  0  0  2  0  0  0  0  0  0
  -28.2150  -25.2360   20.2050 C   0  0  0  0  0  2  0  0  0  0  0  0
  -28.3730  -26.6690   20.1740 O   0  0  0  0  0  0  0  0  0  0  0  0
  -24.5960  -31.8790   23.2350 C   0  0  0  0  0  0  0  0  0  0  0  0
  -27.2100  -27.4170   20.1440 C   0  0  0  0  0  0  0  0  0  0  0  0
  -23.3770  -30.4790   21.6020 C   0  0  0  0  0  3  0  0  0  0  0  0
  -24.8200  -28.9410   20.1660 C   0  0  0  0  0  0  0  0  0  0  0  0
  -25.9050  -30.8310   21.3890 C   0  0  0  0  0  2  0  0  0  0  0  0
  -25.9840  -29.4600   20.7440 C   0  0  0  0  0  0  0  0  0  0  0  0
  -27.1830  -28.7090   20.7250 C   0  0  0  0  0  3  0  0  0  0  0  0
  -26.0240  -26.9210   19.5510 C   0  0  0  0  0  3  0  0  0  0  0  0
  -24.8360  -27.6720   19.5640 C   0  0  0  0  0  3  0  0  0  0  0  0
  -23.5770  -29.8010   20.2210 C   0  0  0  0  0  2  0  0  0  0  0  0
  -24.6450  -31.0780   22.1330 N   0  0  0  0  0  0  0  0  0  0  0  0
  -23.5180  -32.1530   23.7810 O   0  0  0  0  0  0  0  0  0  0  0  0
  -22.7300  -29.4590   22.5650 C   0  0  0  0  0  0  0  0  0  0  0  0
  -21.4050  -29.2770   22.4430 N   0  0  0  0  0  0  0  0  0  0  0  0
  -23.4160  -28.8350   23.3790 O   0  0  0  0  0  0  0  0  0  0  0  0
  -20.9120  -29.8340   21.7600 H   0  0  0  0  0  0  0  0  0  0  0  0
  -18.0340  -28.0730   22.9430 C   0  0  0  0  0  0  0  0  0  0  0  0
  -20.5910  -28.3400   23.2170 C   0  0  0  0  0  3  0  0  0  0  0  0
  -20.6980  -26.9060   22.6490 C   0  0  0  0  0  2  0  0  0  0  0  0
  -19.5980  -26.5750   21.6340 C   0  0  0  0  0  2  0  0  0  0  0  0
  -18.2150  -26.7210   22.2750 C   0  0  0  0  0  2  0  0  0  0  0  0
  -19.1500  -28.8400   23.3710 C   0  0  0  0  0  0  0  0  0  0  0  0
  -18.9270  -30.1070   23.9540 C   0  0  0  0  0  3  0  0  0  0  0  0
  -17.6210  -30.6070   24.1140 C   0  0  0  0  0  3  0  0  0  0  0  0
  -16.5190  -29.8360   23.7020 C   0  0  0  0  0  3  0  0  0  0  0  0
  -16.7260  -28.5710   23.1230 C   0  0  0  0  0  3  0  0  0  0  0  0
  -25.8870  -32.5070   23.8490 C   0  0  0  0  0  3  0  0  0  0  0  0
  -25.5810  -33.9040   24.1840 N   0  0  0  0  0  0  0  0  0  0  0  0
  -25.9110  -34.9580   23.4240 C   0  0  0  0  0  0  0  0  0  0  0  0
  -26.5730  -34.8550   22.3880 O   0  0  0  0  0  0  0  0  0  0  0  0
  -24.9920  -34.0570   24.9890 H   0  0  0  0  0  0  0  0  0  0  0  0
  -24.1800  -36.7520   23.0850 C   0  0  0  0  0  1  0  0  0  0  0  0
  -25.4260  -36.3450   23.8870 C   0  0  0  0  0  3  0  0  0  0  0  0
  -27.5690  -37.2260   24.7010 C   0  0  0  0  0  1  0  0  0  0  0  0
  -26.4590  -37.3980   23.7680 N   0  0  0  0  0  0  0  0  0  0  0  0
  -26.0540  -38.3180   23.9220 H   0  0  0  0  0  0  0  0  0  0  0  0
  -26.4140  -31.7310   25.1160 C   0  0  1  0  0  0  0  0  0  0  0  0
  -25.3320  -31.4910   26.1950 C   0  0  0  0  0  1  0  0  0  0  0  0
  -26.9910  -30.3540   24.7120 C   0  0  0  0  0  1  0  0  0  0  0  0
  -27.5730  -32.5210   25.7710 C   0  0  0  0  0  1  0  0  0  0  0  0
  1  3  1  0
  1 45  1  0
  2  1  2  0
  4  3  1  0
  4  5  1  0
  6  5  1  0
  6 15  1  0
  7 15  1  0
  8 13  1  0
  9 10  1  0
  9  8  1  0
 11 10  1  0
 11 20  1  0
 11 12  1  0
 13  7  1  0
 13 12  1  0
 14  7  2  0
 15 16  1  0
 17 18  2  0
 18 37  1  0
 19 18  1  0
 19 22  1  0
 20 17  1  0
 20 21  1  0
 21 19  2  0
 22 23  1  0
 23 24  2  0
 25 28  1  0
 25 24  1  0
 26 25  2  0
 27 26  1  0
 27 22  2  0
 28 29  1  0
 29 30  1  0
 30 31  2  0
 32 31  1  0
 32 36  1  0
 33 32  2  0
 34 29  2  0
 34 33  1  0
 35 34  1  0
 37 38  1  0
 38 41  1  0
 38 40  1  0
 39 37  2  0
 42 43  1  0
 42 17  1  0
 44 42  1  0
 46 45  1  0
 47 46  1  0
 48 47  1  0
 49 60  2  0
 50 48  1  0
 50 55  1  0
 51 59  1  0
 51 61  1  0
 52 58  1  0
 52 54  1  0
 53 59  1  0
 54 53  1  0
 55 54  2  0
 56 57  1  0
 56 50  2  0
 57 52  2  0
 58 51  1  0
 59 49  1  0
 61 63  2  0
 62 61  1  0
 64 62  1  0
 65 74  2  0
 65 70  1  0
 66 62  1  0
 66 70  1  0
 67 66  1  0
 68 69  1  0
 68 67  1  0
 69 65  1  0
 70 71  2  0
 71 72  1  0
 73 72  2  0
 74 73  1  0
 75 49  1  0
 75 76  1  0
 75 85  1  0
 76 79  1  0
 77 81  1  0
 77 76  1  0
 78 77  2  0
 81 80  1  0
 83 81  1  0
 83 84  1  0
 83 82  1  0
 85 88  1  1
 85 86  1  0
 87 85  1  0
M  ISO  4   7 100  15 100  47 101  48 101
M  END
>  <TORSDO>  (37) 
F 23

>  <SCORE>  (37) 
-12.649

>  <name>  (37) 
38

>  <ligand_id>  (37) 
38

>  <original_smiles>  (37) 
[H]c1c([H])c([H])c2c(c1[H])C([H])([H])C([H])([H])C([H])([H])C2([H])N([H])C(=O)C1([H])N(C(=O)C([H])(N([H])C(=O)C([H])(N([H])C([H])([H])[H])C([H])([H])[H])C(C([H])([H])[H])(C([H])([H])[H])C([H])([H])[H])C([H])([H])c2c([H])c(OC([H])([H])C([H])([H])C([H])([H])C(=O)C([H])([H])C([H])([H])C([H])([H])C([H])([H])N([H])C(=O)N3C([H])([H])C([H])([H])C([H])([H])C([H])(n4nc(-c5c([H])c([H])c(Oc6c([H])c([H])c(F)c([H])c6F)c([H])c5[H])c(C(=O)N([H])[H])c4N([H])[H])C3([H])[H])c([H])c([H])c2C1([H])[H]

>  <smiles>  (37) 
[H]c1c([H])c([H])c2c(c1[H])C([H])([H])C([H])([H])C([H])([H])C2([H])N([H])C(=O)C1([H])N(C(=O)C([H])(N([H])C(=O)C([H])(N([H])C([H])([H])[H])C([H])([H])[H])C(C([H])([H])[H])(C([H])([H])[H])C([H])([H])[H])C([H])([H])c2c([H])c(OC([H])([H])C([H])([H])C([H])([H])C(=O)C([H])([H])C([H])([H])C([H])([H])C([H])([H])N([H])C(=O)N3C([H])([H])C([H])([H])C([H])([H])C([H])(n4nc(-c5c([H])c([H])c(Oc6c([H])c([H])c(F)c([H])c6F)c([H])c5[H])c(C(=O)N([H])[H])c4N([H])[H])C3([H])[H])c([H])c([H])c2C1([H])[H]

$$$$
39:0:0
     RDKit          3D

 93101  0  0  1  0  0  0  0  0999 V2000
  -31.9550  -22.4340   18.8680 C   0  0  0  0  0  1  0  0  0  0  0  0
  -30.8500  -22.5430   19.9350 C   0  0  0  0  0  3  0  0  0  0  0  0
  -30.7190  -21.3040   20.8780 C   0  0  0  0  0  2  0  0  0  0  0  0
  -31.6230  -20.0590   20.6390 C   0  0  0  0  0  2  0  0  0  0  0  0
  -31.1540  -19.0990   19.5340 C   0  0  0  0  0  0  0  0  0  0  0  0
  -30.5520  -19.5010   18.5350 O   0  0  0  0  0  0  0  0  0  0  0  0
  -31.4360  -17.5970   19.7310 C   0  0  0  0  0  2  0  0  0  0  0  0
  -30.9300  -14.3250   19.9770 C   0  0  0  0  0  0  0  0  0  0  0  0
  -30.6080  -12.1170   18.9200 C   0  0  0  0  0  2  0  0  0  0  0  0
  -29.6080  -12.2790   17.7520 C   0  0  0  0  0  2  0  0  0  0  0  0
  -28.1450  -12.1970   18.2460 C   0  0  0  0  0  2  0  0  0  0  0  0
  -27.8810  -13.0880   19.4900 C   0  0  0  0  0  3  0  0  0  0  0  0
  -28.9760  -12.8100   20.5470 C   0  0  0  0  0  2  0  0  0  0  0  0
  -30.2720  -13.1310   19.9320 N   0  0  0  0  0  0  0  0  0  0  0  0
  -32.0380  -14.4780   19.4580 O   0  0  0  0  0  0  0  0  0  0  0  0
  -29.1320  -17.1570   20.6720 C   0  0  0  0  0  0  0  0  0  0  0  0
  -29.2900  -15.8000   21.3470 C   0  0  0  0  0  2  0  0  0  0  0  0
  -30.1460  -16.7620   19.5920 C   0  0  0  0  0  3  0  0  0  0  0  0
  -30.1500  -15.4100   20.2090 N   0  0  0  0  0  0  0  0  0  0  0  0
  -28.4660  -18.1680   20.9030 O   0  0  0  0  0  0  0  0  0  0  0  0
  -25.5380  -13.8180   20.2790 C   0  0  0  0  0  0  0  0  0  0  0  0
  -24.4500  -13.0940   20.6940 C   0  0  0  0  0  0  0  0  0  0  0  0
  -24.8480  -11.7230   20.6520 C   0  0  0  0  0  0  0  0  0  0  0  0
  -26.5340  -12.8860   20.0210 N   0  0  0  0  0  0  0  0  0  0  0  0
  -26.1210  -11.6230   20.2950 N   0  0  0  0  0  0  0  0  0  0  0  0
  -24.0760  -10.4950   20.8770 C   0  0  0  0  0  0  0  0  0  0  0  0
  -24.5100   -9.5080   21.7890 C   0  0  0  0  0  3  0  0  0  0  0  0
  -23.7430   -8.3430   22.0020 C   0  0  0  0  0  3  0  0  0  0  0  0
  -22.5280   -8.1560   21.3000 C   0  0  0  0  0  0  0  0  0  0  0  0
  -22.1090   -9.1330   20.3790 C   0  0  0  0  0  3  0  0  0  0  0  0
  -22.8770  -10.2900   20.1650 C   0  0  0  0  0  3  0  0  0  0  0  0
  -21.7270   -7.0450   21.4250 O   0  0  0  0  0  0  0  0  0  0  0  0
  -21.7030   -6.3030   22.5790 C   0  0  0  0  0  0  0  0  0  0  0  0
  -21.3690   -6.8760   23.8250 C   0  0  0  0  0  3  0  0  0  0  0  0
  -21.2910   -6.0630   24.9730 C   0  0  0  0  0  3  0  0  0  0  0  0
  -21.5310   -4.6790   24.8740 C   0  0  0  0  0  0  0  0  0  0  0  0
  -21.8580   -4.1060   23.6320 C   0  0  0  0  0  3  0  0  0  0  0  0
  -21.9400   -4.9180   22.4870 C   0  0  0  0  0  0  0  0  0  0  0  0
  -22.2340   -4.3590   21.2880 F   0  0  0  0  0  0  0  0  0  0  0  0
  -21.4470   -3.8960   25.9750 F   0  0  0  0  0  0  0  0  0  0  0  0
  -23.0890  -13.6350   21.0210 C   0  0  0  0  0  0  0  0  0  0  0  0
  -22.3760  -12.9840   21.9350 N   0  0  0  0  0  0  0  0  0  0  0  0
  -22.6640  -14.6660   20.5020 O   0  0  0  0  0  0  0  0  0  0  0  0
  -22.7290  -12.1470   22.3720 H   0  0  0  0  0  0  0  0  0  0  0  0
  -21.4620  -13.3260   22.1990 H   0  0  0  0  0  0  0  0  0  0  0  0
  -25.7610  -15.1760   20.0830 N   0  0  0  0  0  0  0  0  0  0  0  0
  -25.0280  -15.8670   20.1990 H   0  0  0  0  0  0  0  0  0  0  0  0
  -26.6010  -15.5570   19.6670 H   0  0  0  0  0  0  0  0  0  0  0  0
  -29.4930  -22.9620   19.3040 C   0  0  0  0  0  2  0  0  0  0  0  0
  -27.2790  -23.5380   20.4390 C   0  0  0  0  0  1  0  0  0  0  0  0
  -28.6950  -24.0410   20.1000 C   0  0  0  0  0  3  0  0  0  0  0  0
  -28.6640  -25.3990   19.3480 C   0  0  0  0  0  2  0  0  0  0  0  0
  -28.4110  -26.5190   20.2090 O   0  0  0  0  0  0  0  0  0  0  0  0
  -24.5350  -31.6880   23.1900 C   0  0  0  0  0  0  0  0  0  0  0  0
  -27.2120  -27.2060   20.1690 C   0  0  0  0  0  0  0  0  0  0  0  0
  -23.3520  -30.2910   21.5270 C   0  0  0  0  0  3  0  0  0  0  0  0
  -24.8200  -28.7290   20.1430 C   0  0  0  0  0  0  0  0  0  0  0  0
  -25.8850  -30.6170   21.3880 C   0  0  0  0  0  2  0  0  0  0  0  0
  -25.9680  -29.2440   20.7560 C   0  0  0  0  0  0  0  0  0  0  0  0
  -27.1610  -28.4870   20.7680 C   0  0  0  0  0  3  0  0  0  0  0  0
  -26.0360  -26.7010   19.5690 C   0  0  0  0  0  3  0  0  0  0  0  0
  -24.8460  -27.4520   19.5550 C   0  0  0  0  0  3  0  0  0  0  0  0
  -23.5850  -29.6010   20.1570 C   0  0  0  0  0  2  0  0  0  0  0  0
  -24.6090  -30.8820   22.0930 N   0  0  0  0  0  0  0  0  0  0  0  0
  -23.4460  -31.9770   23.7030 O   0  0  0  0  0  0  0  0  0  0  0  0
  -22.6670  -29.2820   22.4770 C   0  0  0  0  0  0  0  0  0  0  0  0
  -21.3430  -29.1160   22.3200 N   0  0  0  0  0  0  0  0  0  0  0  0
  -23.3260  -28.6490   23.3060 O   0  0  0  0  0  0  0  0  0  0  0  0
  -20.8740  -29.6830   21.6260 H   0  0  0  0  0  0  0  0  0  0  0  0
  -17.9450  -27.9630   22.7400 C   0  0  0  0  0  0  0  0  0  0  0  0
  -20.4980  -28.1920   23.0760 C   0  0  0  0  0  3  0  0  0  0  0  0
  -20.5960  -26.7570   22.5090 C   0  0  0  0  0  2  0  0  0  0  0  0
  -19.5170  -26.4410   21.4680 C   0  0  0  0  0  2  0  0  0  0  0  0
  -18.1210  -26.6070   22.0770 C   0  0  0  0  0  2  0  0  0  0  0  0
  -19.0620  -28.7140   23.1950 C   0  0  0  0  0  0  0  0  0  0  0  0
  -18.8440  -29.9830   23.7740 C   0  0  0  0  0  3  0  0  0  0  0  0
  -17.5430  -30.5020   23.9010 C   0  0  0  0  0  3  0  0  0  0  0  0
  -16.4400  -29.7480   23.4640 C   0  0  0  0  0  3  0  0  0  0  0  0
  -16.6410  -28.4790   22.8920 C   0  0  0  0  0  3  0  0  0  0  0  0
  -25.8150  -32.3050   23.8370 C   0  0  0  0  0  3  0  0  0  0  0  0
  -25.5130  -33.7060   24.1600 N   0  0  0  0  0  0  0  0  0  0  0  0
  -25.8650  -34.7540   23.4010 C   0  0  0  0  0  0  0  0  0  0  0  0
  -26.5490  -34.6430   22.3800 O   0  0  0  0  0  0  0  0  0  0  0  0
  -24.9050  -33.8680   24.9490 H   0  0  0  0  0  0  0  0  0  0  0  0
  -24.1480  -36.5540   23.0300 C   0  0  0  0  0  1  0  0  0  0  0  0
  -25.3820  -36.1470   23.8480 C   0  0  0  0  0  3  0  0  0  0  0  0
  -27.5180  -37.0250   24.6830 C   0  0  0  0  0  1  0  0  0  0  0  0
  -26.4210  -37.1930   23.7340 N   0  0  0  0  0  0  0  0  0  0  0  0
  -26.0170  -38.1160   23.8730 H   0  0  0  0  0  0  0  0  0  0  0  0
  -26.3020  -31.5290   25.1230 C   0  0  1  0  0  0  0  0  0  0  0  0
  -25.1880  -31.3030   26.1720 C   0  0  0  0  0  1  0  0  0  0  0  0
  -26.8770  -30.1450   24.7390 C   0  0  0  0  0  1  0  0  0  0  0  0
  -27.4450  -32.3150   25.8070 C   0  0  0  0  0  1  0  0  0  0  0  0
  2  1  1  0
  2  3  1  0
  4  3  1  0
  5  7  1  0
  5  4  1  0
  6  5  2  0
  8 19  1  0
  9 14  1  0
 10 11  1  0
 10  9  1  0
 12 11  1  0
 12 24  1  0
 12 13  1  0
 14  8  1  0
 14 13  1  0
 15  8  2  0
 16 20  2  0
 16 17  1  0
 18  7  1  0
 18 19  1  0
 18 16  1  0
 19 17  1  0
 21 22  2  0
 22 41  1  0
 23 22  1  0
 23 26  1  0
 24 21  1  0
 24 25  1  0
 25 23  2  0
 26 27  1  0
 27 28  2  0
 29 32  1  0
 29 28  1  0
 30 29  2  0
 31 30  1  0
 31 26  2  0
 32 33  1  0
 33 34  1  0
 34 35  2  0
 36 35  1  0
 36 40  1  0
 37 36  2  0
 38 33  2  0
 38 37  1  0
 39 38  1  0
 41 42  1  0
 42 45  1  0
 42 44  1  0
 43 41  2  0
 46 47  1  0
 46 21  1  0
 48 46  1  0
 49  2  1  0
 49 51  1  0
 51 50  1  0
 52 51  1  0
 52 53  1  0
 54 65  2  0
 55 53  1  0
 55 60  1  0
 56 64  1  0
 56 66  1  0
 57 63  1  0
 57 59  1  0
 58 64  1  0
 59 60  2  0
 59 58  1  0
 61 55  2  0
 62 61  1  0
 62 57  2  0
 63 56  1  0
 64 54  1  0
 66 68  2  0
 67 66  1  0
 69 67  1  0
 70 79  2  0
 70 75  1  0
 71 67  1  0
 71 75  1  0
 72 71  1  0
 73 74  1  0
 73 72  1  0
 74 70  1  0
 75 76  2  0
 76 77  1  0
 78 77  2  0
 79 78  1  0
 80 54  1  0
 80 81  1  0
 80 90  1  0
 81 84  1  0
 82 86  1  0
 82 81  1  0
 83 82  2  0
 86 85  1  0
 88 86  1  0
 88 89  1  0
 88 87  1  0
 90 93  1  1
 90 91  1  0
 92 90  1  0
M  ISO  4   8 100  19 100  52 101  53 101
M  END
>  <TORSDO>  (38) 
F 23

>  <SCORE>  (38) 
-12.480

>  <name>  (38) 
39

>  <ligand_id>  (38) 
39

>  <original_smiles>  (38) 
[H]c1c([H])c([H])c2c(c1[H])C([H])([H])C([H])([H])C([H])([H])C2([H])N([H])C(=O)C1([H])N(C(=O)C([H])(N([H])C(=O)C([H])(N([H])C([H])([H])[H])C([H])([H])[H])C(C([H])([H])[H])(C([H])([H])[H])C([H])([H])[H])C([H])([H])c2c([H])c(OC([H])([H])C([H])(C([H])([H])[H])C([H])([H])C([H])(C([H])([H])[H])C([H])([H])C([H])([H])C(=O)C([H])([H])C3([H])C(=O)C([H])([H])N3C(=O)N3C([H])([H])C([H])([H])C([H])([H])C([H])(n4nc(-c5c([H])c([H])c(Oc6c([H])c([H])c(F)c([H])c6F)c([H])c5[H])c(C(=O)N([H])[H])c4N([H])[H])C3([H])[H])c([H])c([H])c2C1([H])[H]

>  <smiles>  (38) 
[H]c1c([H])c([H])c2c(c1[H])C([H])([H])C([H])([H])C([H])([H])C2([H])N([H])C(=O)C1([H])N(C(=O)C([H])(N([H])C(=O)C([H])(N([H])C([H])([H])[H])C([H])([H])[H])C(C([H])([H])[H])(C([H])([H])[H])C([H])([H])[H])C([H])([H])c2c([H])c(OC([H])([H])C([H])(C([H])([H])[H])C([H])([H])C([H])(C([H])([H])[H])C([H])([H])C([H])([H])C(=O)C([H])([H])C3([H])C(=O)C([H])([H])N3C(=O)N3C([H])([H])C([H])([H])C([H])([H])C([H])(n4nc(-c5c([H])c([H])c(Oc6c([H])c([H])c(F)c([H])c6F)c([H])c5[H])c(C(=O)N([H])[H])c4N([H])[H])C3([H])[H])c([H])c([H])c2C1([H])[H]

$$$$
40:0:0
     RDKit          3D

 94102  0  0  1  0  0  0  0  0999 V2000
  -29.2710  -19.0670   20.7600 N   0  0  0  0  0  4  0  0  0  0  0  0
  -29.2350  -19.2580   21.7480 H   0  0  0  0  0  0  0  0  0  0  0  0
  -28.3320  -18.8230   20.4820 H   0  0  0  0  0  0  0  0  0  0  0  0
  -30.5490  -14.5590   20.0130 C   0  0  0  0  0  0  0  0  0  0  0  0
  -30.1020  -12.5120   18.7060 C   0  0  0  0  0  2  0  0  0  0  0  0
  -29.0560  -12.7740   17.6020 C   0  0  0  0  0  2  0  0  0  0  0  0
  -27.6300  -12.5930   18.1560 C   0  0  0  0  0  2  0  0  0  0  0  0
  -27.4080  -13.3630   19.4850 C   0  0  0  0  0  3  0  0  0  0  0  0
  -28.5460  -13.0860   20.4870 C   0  0  0  0  0  2  0  0  0  0  0  0
  -29.8210  -13.4200   19.8370 N   0  0  0  0  0  0  0  0  0  0  0  0
  -31.5140  -14.8200   19.2890 O   0  0  0  0  0  0  0  0  0  0  0  0
  -32.2760  -16.6840   21.5700 C   0  0  0  0  0  2  0  0  0  0  0  0
  -31.3240  -15.5860   22.0840 C   0  0  0  0  0  2  0  0  0  0  0  0
  -29.4110  -16.5460   21.0500 C   0  0  0  0  0  2  0  0  0  0  0  0
  -31.5870  -18.0110   21.1360 C   0  0  0  0  0  3  0  0  0  0  0  0
  -30.1360  -17.8470   20.5290 C   0  0  0  0  0  3  0  0  0  0  0  0
  -30.2710  -15.3400   21.0970 N   0  0  0  0  0  0  0  0  0  0  0  0
  -25.0690  -13.9390   20.3780 C   0  0  0  0  0  0  0  0  0  0  0  0
  -24.0410  -13.1520   20.8280 C   0  0  0  0  0  0  0  0  0  0  0  0
  -24.5120  -11.8070   20.7480 C   0  0  0  0  0  0  0  0  0  0  0  0
  -26.0980  -13.0690   20.0600 N   0  0  0  0  0  0  0  0  0  0  0  0
  -25.7730  -11.7810   20.3310 N   0  0  0  0  0  0  0  0  0  0  0  0
  -23.8150  -10.5340   20.9820 C   0  0  0  0  0  0  0  0  0  0  0  0
  -24.2980   -9.5850   21.9090 C   0  0  0  0  0  3  0  0  0  0  0  0
  -23.6010   -8.3760   22.1300 C   0  0  0  0  0  3  0  0  0  0  0  0
  -22.4060   -8.1100   21.4210 C   0  0  0  0  0  0  0  0  0  0  0  0
  -21.9400   -9.0480   20.4820 C   0  0  0  0  0  3  0  0  0  0  0  0
  -22.6380  -10.2490   20.2600 C   0  0  0  0  0  3  0  0  0  0  0  0
  -21.6740   -6.9550   21.5540 O   0  0  0  0  0  0  0  0  0  0  0  0
  -21.6450   -6.2510   22.7300 C   0  0  0  0  0  0  0  0  0  0  0  0
  -21.2110   -6.8360   23.9400 C   0  0  0  0  0  3  0  0  0  0  0  0
  -21.1290   -6.0560   25.1100 C   0  0  0  0  0  3  0  0  0  0  0  0
  -21.4670   -4.6890   25.0730 C   0  0  0  0  0  0  0  0  0  0  0  0
  -21.8960   -4.1050   23.8690 C   0  0  0  0  0  3  0  0  0  0  0  0
  -21.9790   -4.8820   22.7000 C   0  0  0  0  0  0  0  0  0  0  0  0
  -22.3660   -4.3050   21.5370 F   0  0  0  0  0  0  0  0  0  0  0  0
  -21.3840   -3.9360   26.1970 F   0  0  0  0  0  0  0  0  0  0  0  0
  -22.6630  -13.6120   21.2130 C   0  0  0  0  0  0  0  0  0  0  0  0
  -22.0110  -12.9010   22.1280 N   0  0  0  0  0  0  0  0  0  0  0  0
  -22.1730  -14.6340   20.7400 O   0  0  0  0  0  0  0  0  0  0  0  0
  -22.4110  -12.0720   22.5380 H   0  0  0  0  0  0  0  0  0  0  0  0
  -21.0910  -13.1940   22.4260 H   0  0  0  0  0  0  0  0  0  0  0  0
  -25.2120  -15.3110   20.1950 N   0  0  0  0  0  0  0  0  0  0  0  0
  -24.4530  -15.9630   20.3680 H   0  0  0  0  0  0  0  0  0  0  0  0
  -26.0040  -15.7430   19.7360 H   0  0  0  0  0  0  0  0  0  0  0  0
  -32.5600  -18.7600   20.1880 C   0  0  0  0  0  0  0  0  0  0  0  0
  -33.8890  -19.2500   20.7480 C   0  0  0  0  0  1  0  0  0  0  0  0
  -32.2930  -18.9720   19.0010 O   0  0  0  0  0  0  0  0  0  0  0  0
  -29.5730  -20.3440   20.0260 C   0  0  0  0  0  2  0  0  0  0  0  0
  -28.9400  -21.6350   20.6360 C   0  0  0  0  0  2  0  0  0  0  0  0
  -29.1330  -22.9240   19.7710 C   0  0  0  0  0  2  0  0  0  0  0  0
  -28.8150  -24.2900   20.4760 C   0  0  0  0  0  2  0  0  0  0  0  0
  -28.2490  -25.4080   19.5420 C   0  0  0  0  0  2  0  0  0  0  0  0
  -28.1680  -26.7180   20.1740 O   0  0  0  0  0  0  0  0  0  0  0  0
  -24.5200  -32.0000   23.3540 C   0  0  0  0  0  0  0  0  0  0  0  0
  -27.0020  -27.4830   20.1660 C   0  0  0  0  0  0  0  0  0  0  0  0
  -23.2580  -30.6470   21.7210 C   0  0  0  0  0  3  0  0  0  0  0  0
  -24.6500  -29.0950   20.2530 C   0  0  0  0  0  0  0  0  0  0  0  0
  -25.7970  -30.9270   21.4980 C   0  0  0  0  0  2  0  0  0  0  0  0
  -25.8340  -29.5590   20.8380 C   0  0  0  0  0  0  0  0  0  0  0  0
  -27.0060  -28.7570   20.8000 C   0  0  0  0  0  3  0  0  0  0  0  0
  -25.7910  -27.0600   19.5630 C   0  0  0  0  0  3  0  0  0  0  0  0
  -24.6260  -27.8460   19.6190 C   0  0  0  0  0  3  0  0  0  0  0  0
  -23.4290  -29.9830   20.3320 C   0  0  0  0  0  2  0  0  0  0  0  0
  -24.5440  -31.2060   22.2490 N   0  0  0  0  0  0  0  0  0  0  0  0
  -23.4530  -32.2920   23.9120 O   0  0  0  0  0  0  0  0  0  0  0  0
  -22.5960  -29.6270   22.6750 C   0  0  0  0  0  0  0  0  0  0  0  0
  -21.2710  -29.4470   22.5400 N   0  0  0  0  0  0  0  0  0  0  0  0
  -23.2700  -29.0020   23.4960 O   0  0  0  0  0  0  0  0  0  0  0  0
  -20.7840  -30.0020   21.8510 H   0  0  0  0  0  0  0  0  0  0  0  0
  -17.9030  -28.2240   22.9890 C   0  0  0  0  0  0  0  0  0  0  0  0
  -20.4500  -28.5130   23.3100 C   0  0  0  0  0  3  0  0  0  0  0  0
  -20.5810  -27.0740   22.7610 C   0  0  0  0  0  2  0  0  0  0  0  0
  -19.5070  -26.7210   21.7290 C   0  0  0  0  0  2  0  0  0  0  0  0
  -18.1090  -26.8660   22.3380 C   0  0  0  0  0  2  0  0  0  0  0  0
  -19.0040  -29.0050   23.4290 C   0  0  0  0  0  0  0  0  0  0  0  0
  -18.7580  -30.2770   23.9890 C   0  0  0  0  0  3  0  0  0  0  0  0
  -17.4450  -30.7640   24.1210 C   0  0  0  0  0  3  0  0  0  0  0  0
  -16.3590  -29.9810   23.6960 C   0  0  0  0  0  3  0  0  0  0  0  0
  -16.5880  -28.7120   23.1350 C   0  0  0  0  0  3  0  0  0  0  0  0
  -25.8270  -32.5970   23.9610 C   0  0  0  0  0  3  0  0  0  0  0  0
  -25.5530  -33.9970   24.3120 N   0  0  0  0  0  0  0  0  0  0  0  0
  -25.8930  -35.0500   23.5580 C   0  0  0  0  0  0  0  0  0  0  0  0
  -26.5410  -34.9470   22.5120 O   0  0  0  0  0  0  0  0  0  0  0  0
  -24.9720  -34.1510   25.1220 H   0  0  0  0  0  0  0  0  0  0  0  0
  -24.1920  -36.8820   23.2580 C   0  0  0  0  0  1  0  0  0  0  0  0
  -25.4410  -36.4440   24.0390 C   0  0  0  0  0  3  0  0  0  0  0  0
  -27.6050  -37.2800   24.8410 C   0  0  0  0  0  1  0  0  0  0  0  0
  -26.4910  -37.4780   23.9170 N   0  0  0  0  0  0  0  0  0  0  0  0
  -26.1040  -38.4030   24.0800 H   0  0  0  0  0  0  0  0  0  0  0  0
  -26.3520  -31.7990   25.2170 C   0  0  1  0  0  0  0  0  0  0  0  0
  -25.2690  -31.5600   26.2940 C   0  0  0  0  0  1  0  0  0  0  0  0
  -26.9170  -30.4200   24.8010 C   0  0  0  0  0  1  0  0  0  0  0  0
  -27.5220  -32.5690   25.8750 C   0  0  0  0  0  1  0  0  0  0  0  0
  1  2  1  0
  3  1  1  0
  4 17  1  0
  5 10  1  0
  6  7  1  0
  6  5  1  0
  8  7  1  0
  8 21  1  0
  8  9  1  0
 10  4  1  0
 10  9  1  0
 11  4  2  0
 12 13  1  0
 14 17  1  0
 15 46  1  0
 15 12  1  0
 16  1  1  0
 16 14  1  0
 16 15  1  0
 17 13  1  0
 18 19  2  0
 19 38  1  0
 20 19  1  0
 20 23  1  0
 21 22  1  0
 21 18  1  0
 22 20  2  0
 23 24  1  0
 24 25  2  0
 26 29  1  0
 26 25  1  0
 27 26  2  0
 28 27  1  0
 28 23  2  0
 29 30  1  0
 30 31  1  0
 31 32  2  0
 33 32  1  0
 33 37  1  0
 34 33  2  0
 35 30  2  0
 35 34  1  0
 36 35  1  0
 38 39  1  0
 39 42  1  0
 39 41  1  0
 40 38  2  0
 43 44  1  0
 43 18  1  0
 45 43  1  0
 46 47  1  0
 48 46  2  0
 49 50  1  0
 49  1  1  0
 51 52  1  0
 51 50  1  0
 53 54  1  0
 53 52  1  0
 55 66  2  0
 56 54  1  0
 56 61  1  0
 57 65  1  0
 57 67  1  0
 58 64  1  0
 58 60  1  0
 59 65  1  0
 60 59  1  0
 61 60  2  0
 62 63  1  0
 62 56  2  0
 63 58  2  0
 64 57  1  0
 65 55  1  0
 67 69  2  0
 68 67  1  0
 70 68  1  0
 71 80  2  0
 71 76  1  0
 72 68  1  0
 72 76  1  0
 73 72  1  0
 74 75  1  0
 74 73  1  0
 75 71  1  0
 76 77  2  0
 77 78  1  0
 79 78  2  0
 80 79  1  0
 81 55  1  0
 81 82  1  0
 81 91  1  0
 82 85  1  0
 83 87  1  0
 83 82  1  0
 84 83  2  0
 87 86  1  0
 89 87  1  0
 89 90  1  0
 89 88  1  0
 91 94  1  1
 91 92  1  0
 93 91  1  0
M  ISO  4   4 100  17 100  53 101  54 101
M  END
>  <TORSDO>  (39) 
F 22

>  <SCORE>  (39) 
-11.650

>  <name>  (39) 
40

>  <ligand_id>  (39) 
40

>  <original_smiles>  (39) 
[H]c1c([H])c([H])c2c(c1[H])C([H])([H])C([H])([H])C([H])([H])C2([H])N([H])C(=O)C1([H])N(C(=O)C([H])(N([H])C(=O)C([H])(N([H])C([H])([H])[H])C([H])([H])[H])C(C([H])([H])[H])(C([H])([H])[H])C([H])([H])[H])C([H])([H])c2c([H])c(OC([H])([H])C([H])([H])C([H])([H])C([H])([H])C([H])([H])[N+]([H])([H])C3([H])C([H])([H])N(C(=O)N4C([H])([H])C([H])([H])C([H])([H])C([H])(n5nc(-c6c([H])c([H])c(Oc7c([H])c([H])c(F)c([H])c7F)c([H])c6[H])c(C(=O)N([H])[H])c5N([H])[H])C4([H])[H])C([H])([H])C([H])([H])C3([H])C(=O)C([H])([H])[H])c([H])c([H])c2C1([H])[H]

>  <smiles>  (39) 
[H]c1c([H])c([H])c2c(c1[H])C([H])([H])C([H])([H])C([H])([H])C2([H])N([H])C(=O)C1([H])N(C(=O)C([H])(N([H])C(=O)C([H])(N([H])C([H])([H])[H])C([H])([H])[H])C(C([H])([H])[H])(C([H])([H])[H])C([H])([H])[H])C([H])([H])c2c([H])c(OC([H])([H])C([H])([H])C([H])([H])C([H])([H])C([H])([H])[N+]([H])([H])C3([H])C([H])([H])N(C(=O)N4C([H])([H])C([H])([H])C([H])([H])C([H])(n5nc(-c6c([H])c([H])c(Oc7c([H])c([H])c(F)c([H])c7F)c([H])c6[H])c(C(=O)N([H])[H])c5N([H])[H])C4([H])[H])C([H])([H])C([H])([H])C3([H])C(=O)C([H])([H])[H])c([H])c([H])c2C1([H])[H]

$$$$
41:0:0
     RDKit          3D

 96104  0  0  1  0  0  0  0  0999 V2000
  -30.4670  -19.8810   20.0910 N   0  0  0  0  0  4  0  0  0  0  0  0
  -30.0700  -19.5420   19.2280 H   0  0  0  0  0  0  0  0  0  0  0  0
  -29.7580  -19.8100   20.8020 H   0  0  0  0  0  0  0  0  0  0  0  0
  -30.7880  -21.3200   19.9400 C   0  0  0  0  0  2  0  0  0  0  0  0
  -29.5320  -22.1740   19.6550 C   0  0  0  0  0  2  0  0  0  0  0  0
  -29.8160  -23.6930   19.6570 C   0  0  0  0  0  2  0  0  0  0  0  0
  -28.5900  -24.5520   19.2810 C   0  0  0  0  0  2  0  0  0  0  0  0
  -28.9080  -26.0560   19.1080 C   0  0  0  0  0  2  0  0  0  0  0  0
  -28.5710  -26.8500   20.2510 O   0  0  0  0  0  0  0  0  0  0  0  0
  -24.6070  -31.9300   23.2740 C   0  0  0  0  0  0  0  0  0  0  0  0
  -27.3630  -27.5180   20.2430 C   0  0  0  0  0  0  0  0  0  0  0  0
  -23.4430  -30.5080   21.6180 C   0  0  0  0  0  3  0  0  0  0  0  0
  -24.9360  -28.9770   20.2280 C   0  0  0  0  0  0  0  0  0  0  0  0
  -25.9650  -30.8940   21.4600 C   0  0  0  0  0  2  0  0  0  0  0  0
  -26.0740  -29.5170   20.8380 C   0  0  0  0  0  0  0  0  0  0  0  0
  -27.2840  -28.7860   20.8600 C   0  0  0  0  0  3  0  0  0  0  0  0
  -26.2010  -26.9820   19.6420 C   0  0  0  0  0  3  0  0  0  0  0  0
  -24.9910  -27.7040   19.6340 C   0  0  0  0  0  3  0  0  0  0  0  0
  -23.6830  -29.8230   20.2460 C   0  0  0  0  0  2  0  0  0  0  0  0
  -24.6890  -31.1260   22.1770 N   0  0  0  0  0  0  0  0  0  0  0  0
  -23.5150  -32.1920   23.7980 O   0  0  0  0  0  0  0  0  0  0  0  0
  -22.7880  -29.4830   22.5730 C   0  0  0  0  0  0  0  0  0  0  0  0
  -21.4630  -29.3040   22.4400 N   0  0  0  0  0  0  0  0  0  0  0  0
  -23.4680  -28.8530   23.3870 O   0  0  0  0  0  0  0  0  0  0  0  0
  -20.9770  -29.8640   21.7530 H   0  0  0  0  0  0  0  0  0  0  0  0
  -18.0820  -28.1340   22.9330 C   0  0  0  0  0  0  0  0  0  0  0  0
  -20.6420  -28.3660   23.2050 C   0  0  0  0  0  3  0  0  0  0  0  0
  -20.7320  -26.9400   22.6140 C   0  0  0  0  0  2  0  0  0  0  0  0
  -19.6260  -26.6370   21.6000 C   0  0  0  0  0  2  0  0  0  0  0  0
  -18.2460  -26.7880   22.2470 C   0  0  0  0  0  2  0  0  0  0  0  0
  -19.2080  -28.8800   23.3700 C   0  0  0  0  0  0  0  0  0  0  0  0
  -19.0010  -30.1410   23.9720 C   0  0  0  0  0  3  0  0  0  0  0  0
  -17.7020  -30.6530   24.1440 C   0  0  0  0  0  3  0  0  0  0  0  0
  -16.5900  -29.9020   23.7250 C   0  0  0  0  0  3  0  0  0  0  0  0
  -16.7810  -28.6440   23.1250 C   0  0  0  0  0  3  0  0  0  0  0  0
  -25.8780  -32.5760   23.9120 C   0  0  0  0  0  3  0  0  0  0  0  0
  -26.3800  -31.8200   25.2020 C   0  0  1  0  0  0  0  0  0  0  0  0
  -25.2730  -31.5840   26.2540 C   0  0  0  0  0  1  0  0  0  0  0  0
  -26.9790  -30.4440   24.8280 C   0  0  0  0  0  1  0  0  0  0  0  0
  -27.5130  -32.6280   25.8770 C   0  0  0  0  0  1  0  0  0  0  0  0
  -25.5530  -33.9750   24.2220 N   0  0  0  0  0  0  0  0  0  0  0  0
  -25.8870  -35.0220   23.4540 C   0  0  0  0  0  0  0  0  0  0  0  0
  -26.5730  -34.9110   22.4340 O   0  0  0  0  0  0  0  0  0  0  0  0
  -24.9460  -34.1330   25.0130 H   0  0  0  0  0  0  0  0  0  0  0  0
  -24.1450  -36.7900   23.0560 C   0  0  0  0  0  1  0  0  0  0  0  0
  -25.3800  -36.4100   23.8880 C   0  0  0  0  0  3  0  0  0  0  0  0
  -27.4960  -37.3250   24.7300 C   0  0  0  0  0  1  0  0  0  0  0  0
  -26.4030  -37.4710   23.7730 N   0  0  0  0  0  0  0  0  0  0  0  0
  -25.9860  -38.3890   23.9070 H   0  0  0  0  0  0  0  0  0  0  0  0
  -31.6240  -19.0170   20.4740 C   0  0  0  0  0  3  0  0  0  0  0  0
  -31.2790  -17.5740   21.0150 C   0  0  0  0  0  3  0  0  0  0  0  0
  -29.9170  -16.7910   21.1620 C   0  0  0  0  0  3  0  0  0  0  0  0
  -30.6630  -14.4660   20.3530 C   0  0  0  0  0  0  0  0  0  0  0  0
  -30.3380  -12.3790   19.0770 C   0  0  0  0  0  2  0  0  0  0  0  0
  -29.3370  -12.6490   17.9340 C   0  0  0  0  0  2  0  0  0  0  0  0
  -27.8780  -12.5020   18.4120 C   0  0  0  0  0  2  0  0  0  0  0  0
  -27.6040  -13.2680   19.7320 C   0  0  0  0  0  3  0  0  0  0  0  0
  -28.6980  -12.9470   20.7770 C   0  0  0  0  0  2  0  0  0  0  0  0
  -30.0130  -13.2840   20.1900 N   0  0  0  0  0  0  0  0  0  0  0  0
  -31.6970  -14.7660   19.7460 O   0  0  0  0  0  0  0  0  0  0  0  0
  -30.0000  -15.3250   21.1410 N   0  0  0  0  0  0  0  0  0  0  0  0
  -29.2410  -14.8820   21.6360 H   0  0  0  0  0  0  0  0  0  0  0  0
  -25.2290  -13.8790   20.5250 C   0  0  0  0  0  0  0  0  0  0  0  0
  -24.1700  -13.1050   20.9200 C   0  0  0  0  0  0  0  0  0  0  0  0
  -24.6230  -11.7520   20.8450 C   0  0  0  0  0  0  0  0  0  0  0  0
  -26.2630  -12.9980   20.2450 N   0  0  0  0  0  0  0  0  0  0  0  0
  -25.9010  -11.7120   20.4900 N   0  0  0  0  0  0  0  0  0  0  0  0
  -23.9000  -10.4900   21.0400 C   0  0  0  0  0  0  0  0  0  0  0  0
  -24.3670   -9.5010   21.9350 C   0  0  0  0  0  3  0  0  0  0  0  0
  -23.6450   -8.3030   22.1170 C   0  0  0  0  0  3  0  0  0  0  0  0
  -22.4420   -8.0830   21.4040 C   0  0  0  0  0  0  0  0  0  0  0  0
  -21.9940   -9.0620   20.4990 C   0  0  0  0  0  3  0  0  0  0  0  0
  -22.7160  -10.2520   20.3140 C   0  0  0  0  0  3  0  0  0  0  0  0
  -21.6870   -6.9390   21.4970 O   0  0  0  0  0  0  0  0  0  0  0  0
  -21.6770   -6.1730   22.6360 C   0  0  0  0  0  0  0  0  0  0  0  0
  -21.3050   -6.7080   23.8880 C   0  0  0  0  0  3  0  0  0  0  0  0
  -21.2420   -5.8710   25.0210 C   0  0  0  0  0  3  0  0  0  0  0  0
  -21.5410   -4.5010   24.9000 C   0  0  0  0  0  0  0  0  0  0  0  0
  -21.9050   -3.9650   23.6510 C   0  0  0  0  0  3  0  0  0  0  0  0
  -21.9700   -4.7990   22.5220 C   0  0  0  0  0  0  0  0  0  0  0  0
  -22.3010   -4.2750   21.3180 F   0  0  0  0  0  0  0  0  0  0  0  0
  -21.4720   -3.6940   25.9850 F   0  0  0  0  0  0  0  0  0  0  0  0
  -22.7840  -13.5840   21.2520 C   0  0  0  0  0  0  0  0  0  0  0  0
  -22.0830  -12.8790   22.1340 N   0  0  0  0  0  0  0  0  0  0  0  0
  -22.3290  -14.6180   20.7650 O   0  0  0  0  0  0  0  0  0  0  0  0
  -22.4620  -12.0450   22.5550 H   0  0  0  0  0  0  0  0  0  0  0  0
  -21.1550  -13.1840   22.3920 H   0  0  0  0  0  0  0  0  0  0  0  0
  -25.3910  -15.2520   20.3670 N   0  0  0  0  0  0  0  0  0  0  0  0
  -24.6330  -15.9030   20.5270 H   0  0  0  0  0  0  0  0  0  0  0  0
  -26.2270  -15.7070   20.0170 H   0  0  0  0  0  0  0  0  0  0  0  0
  -26.7410  -18.2640   18.5680 C   0  0  0  0  0  3  0  0  0  0  0  0
  -26.7830  -18.6530   19.9200 C   0  0  0  0  0  3  0  0  0  0  0  0
  -27.7100  -17.3800   18.0580 C   0  0  0  0  0  3  0  0  0  0  0  0
  -27.8030  -18.1630   20.7610 C   0  0  0  0  0  3  0  0  0  0  0  0
  -28.7340  -16.8990   18.8970 C   0  0  0  0  0  3  0  0  0  0  0  0
  -28.7930  -17.2950   20.2520 C   0  0  0  0  0  0  0  0  0  0  0  0
  1 50  1  0
  1  3  1  0
  2  1  1  0
  4  1  1  0
  5  6  1  0
  5  4  1  0
  7  6  1  0
  8  7  1  0
  8  9  1  0
 10 21  2  0
 11  9  1  0
 11 16  1  0
 12 20  1  0
 12 22  1  0
 13 19  1  0
 13 15  1  0
 14 20  1  0
 15 16  2  0
 15 14  1  0
 17 11  2  0
 18 17  1  0
 18 13  2  0
 19 12  1  0
 20 10  1  0
 22 24  2  0
 23 22  1  0
 25 23  1  0
 26 35  2  0
 26 31  1  0
 27 23  1  0
 27 31  1  0
 28 27  1  0
 29 30  1  0
 29 28  1  0
 30 26  1  0
 31 32  2  0
 32 33  1  0
 34 33  2  0
 35 34  1  0
 36 10  1  0
 36 41  1  0
 36 37  1  0
 37 40  1  1
 37 38  1  0
 39 37  1  0
 41 44  1  0
 42 46  1  0
 42 41  1  0
 43 42  2  0
 46 45  1  0
 48 46  1  0
 48 49  1  0
 48 47  1  0
 50 51  2  0
 52 51  1  0
 53 61  1  0
 54 59  1  0
 55 56  1  0
 55 54  1  0
 57 56  1  0
 57 66  1  0
 57 58  1  0
 59 53  1  0
 59 58  1  0
 60 53  2  0
 61 52  1  0
 61 62  1  0
 63 64  2  0
 64 83  1  0
 65 64  1  0
 65 68  1  0
 66 67  1  0
 66 63  1  0
 67 65  2  0
 68 69  1  0
 69 70  2  0
 71 74  1  0
 71 70  1  0
 72 71  2  0
 73 72  1  0
 73 68  2  0
 74 75  1  0
 75 76  1  0
 76 77  2  0
 78 77  1  0
 78 82  1  0
 79 78  2  0
 80 75  2  0
 80 79  1  0
 81 80  1  0
 83 84  1  0
 84 87  1  0
 84 86  1  0
 85 83  2  0
 88 63  1  0
 88 89  1  0
 90 88  1  0
 91 92  1  0
 92 94  2  0
 93 91  2  0
 93 95  1  0
 95 96  2  0
 96 94  1  0
 96 52  1  0
M  ISO  4   8 101   9 101  53 100  61 100
M  END
>  <TORSDO>  (40) 
F 25

>  <SCORE>  (40) 
-11.410

>  <name>  (40) 
41

>  <ligand_id>  (40) 
41

>  <original_smiles>  (40) 
[H]c1c([H])c([H])c(C([H])(N([H])C(=O)N2C([H])([H])C([H])([H])C([H])([H])C([H])(n3nc(-c4c([H])c([H])c(Oc5c([H])c([H])c(F)c([H])c5F)c([H])c4[H])c(C(=O)N([H])[H])c3N([H])[H])C2([H])[H])C([H])([H])C([H])([H])[N+]([H])([H])C([H])([H])C([H])([H])C([H])([H])C([H])([H])C([H])([H])Oc2c([H])c([H])c3c(c2[H])C([H])([H])N(C(=O)C([H])(N([H])C(=O)C([H])(N([H])C([H])([H])[H])C([H])([H])[H])C(C([H])([H])[H])(C([H])([H])[H])C([H])([H])[H])C([H])(C(=O)N([H])C2([H])c4c([H])c([H])c([H])c([H])c4C([H])([H])C([H])([H])C2([H])[H])C3([H])[H])c([H])c1[H]

>  <smiles>  (40) 
[H]c1c([H])c([H])c(C([H])(N([H])C(=O)N2C([H])([H])C([H])([H])C([H])([H])C([H])(n3nc(-c4c([H])c([H])c(Oc5c([H])c([H])c(F)c([H])c5F)c([H])c4[H])c(C(=O)N([H])[H])c3N([H])[H])C2([H])[H])C([H])([H])C([H])([H])[N+]([H])([H])C([H])([H])C([H])([H])C([H])([H])C([H])([H])C([H])([H])Oc2c([H])c([H])c3c(c2[H])C([H])([H])N(C(=O)C([H])(N([H])C(=O)C([H])(N([H])C([H])([H])[H])C([H])([H])[H])C(C([H])([H])[H])(C([H])([H])[H])C([H])([H])[H])C([H])(C(=O)N([H])C2([H])c4c([H])c([H])c([H])c([H])c4C([H])([H])C([H])([H])C2([H])[H])C3([H])[H])c([H])c1[H]

$$$$
43:0:0
     RDKit          3D

 95103  0  0  1  0  0  0  0  0999 V2000
  -29.3650  -20.3160   21.3040 C   0  0  0  0  0  2  0  0  0  0  0  0
  -26.9210  -20.6230   20.7960 C   0  0  0  0  0  2  0  0  0  0  0  0
  -29.6610  -21.5500   20.4290 C   0  0  0  0  0  2  0  0  0  0  0  0
  -27.2690  -21.8930   19.9790 C   0  0  0  0  0  2  0  0  0  0  0  0
  -28.0710  -19.5870   20.8860 C   0  0  0  0  0  3  0  0  0  0  0  0
  -28.5310  -22.5190   20.4480 N   0  0  2  0  0  4  0  0  0  0  0  0
  -28.3670  -22.7680   21.4110 H   0  0  0  0  0  0  0  0  0  0  0  0
  -28.2390  -18.7490   19.5970 C   0  0  0  0  0  0  0  0  0  0  0  0
  -28.9640  -17.6200   19.5950 N   0  0  0  0  0  0  0  0  0  0  0  0
  -27.6620  -19.0960   18.5690 O   0  0  0  0  0  0  0  0  0  0  0  0
  -28.9140  -17.0750   18.7380 H   0  0  0  0  0  0  0  0  0  0  0  0
  -29.8970  -17.1050   20.5940 C   0  0  0  0  0  2  0  0  0  0  0  0
  -31.2610  -16.8140   19.9430 C   0  0  0  0  0  2  0  0  0  0  0  0
  -32.5440  -14.7830   20.3100 C   0  0  0  0  0  0  0  0  0  0  0  0
  -32.1120  -12.3750   19.9800 C   0  0  0  0  0  2  0  0  0  0  0  0
  -31.3120  -12.1150   18.6900 C   0  0  0  0  0  2  0  0  0  0  0  0
  -29.7990  -12.2240   18.9580 C   0  0  0  0  0  2  0  0  0  0  0  0
  -29.4240  -13.5240   19.7120 C   0  0  0  0  0  3  0  0  0  0  0  0
  -30.3350  -13.7290   20.9430 C   0  0  0  0  0  2  0  0  0  0  0  0
  -31.7390  -13.7020   20.4920 N   0  0  0  0  0  0  0  0  0  0  0  0
  -33.6680  -14.7180   19.8080 O   0  0  0  0  0  0  0  0  0  0  0  0
  -32.0950  -15.9530   20.7790 N   0  0  0  0  0  0  0  0  0  0  0  0
  -32.8580  -16.4890   21.1700 H   0  0  0  0  0  0  0  0  0  0  0  0
  -27.1510  -14.6210   20.2140 C   0  0  0  0  0  0  0  0  0  0  0  0
  -25.9240  -14.0870   20.5070 C   0  0  0  0  0  0  0  0  0  0  0  0
  -26.1050  -12.6700   20.5280 C   0  0  0  0  0  0  0  0  0  0  0  0
  -28.0110  -13.5420   20.0790 N   0  0  0  0  0  0  0  0  0  0  0  0
  -27.3800  -12.3660   20.3240 N   0  0  0  0  0  0  0  0  0  0  0  0
  -25.1300  -11.5810   20.6700 C   0  0  0  0  0  0  0  0  0  0  0  0
  -25.3380  -10.5190   21.5770 C   0  0  0  0  0  3  0  0  0  0  0  0
  -24.3790   -9.4920   21.7090 C   0  0  0  0  0  3  0  0  0  0  0  0
  -23.1970   -9.5220   20.9330 C   0  0  0  0  0  0  0  0  0  0  0  0
  -23.0070  -10.5680   20.0120 C   0  0  0  0  0  3  0  0  0  0  0  0
  -23.9640  -11.5870   19.8780 C   0  0  0  0  0  3  0  0  0  0  0  0
  -22.2220   -8.5540   20.9750 O   0  0  0  0  0  0  0  0  0  0  0  0
  -22.0120   -7.7940   22.0980 C   0  0  0  0  0  0  0  0  0  0  0  0
  -21.7240   -8.3790   23.3510 C   0  0  0  0  0  3  0  0  0  0  0  0
  -21.4440   -7.5580   24.4630 C   0  0  0  0  0  3  0  0  0  0  0  0
  -21.4440   -6.1570   24.3230 C   0  0  0  0  0  0  0  0  0  0  0  0
  -21.7260   -5.5740   23.0760 C   0  0  0  0  0  3  0  0  0  0  0  0
  -22.0060   -6.3910   21.9660 C   0  0  0  0  0  0  0  0  0  0  0  0
  -22.2560   -5.8240   20.7610 F   0  0  0  0  0  0  0  0  0  0  0  0
  -21.1690   -5.3700   25.3890 F   0  0  0  0  0  0  0  0  0  0  0  0
  -24.6320  -14.8380   20.6530 C   0  0  0  0  0  0  0  0  0  0  0  0
  -23.7080  -14.3220   21.4560 N   0  0  0  0  0  0  0  0  0  0  0  0
  -24.4540  -15.9160   20.0870 O   0  0  0  0  0  0  0  0  0  0  0  0
  -23.8610  -13.4460   21.9350 H   0  0  0  0  0  0  0  0  0  0  0  0
  -22.8330  -14.8090   21.5900 H   0  0  0  0  0  0  0  0  0  0  0  0
  -27.6030  -15.9240   20.0180 N   0  0  0  0  0  0  0  0  0  0  0  0
  -26.8820  -16.6270   19.8870 H   0  0  0  0  0  0  0  0  0  0  0  0
  -28.3670  -16.0450   19.3650 H   0  0  0  0  0  0  0  0  0  0  0  0
  -28.8640  -23.7920   19.7490 C   0  0  0  0  0  2  0  0  0  0  0  0
  -29.5610  -24.7970   20.6910 C   0  0  0  0  0  2  0  0  0  0  0  0
  -30.1960  -26.0120   19.9830 C   0  0  0  0  0  2  0  0  0  0  0  0
  -29.8270  -27.2370   20.6210 O   0  0  0  0  0  0  0  0  0  0  0  0
  -25.0250  -31.7090   23.3260 C   0  0  0  0  0  0  0  0  0  0  0  0
  -28.5470  -27.7370   20.4980 C   0  0  0  0  0  0  0  0  0  0  0  0
  -24.2020  -30.2260   21.5250 C   0  0  0  0  0  3  0  0  0  0  0  0
  -25.9900  -28.9270   20.2590 C   0  0  0  0  0  0  0  0  0  0  0  0
  -26.6670  -30.9010   21.6340 C   0  0  0  0  0  2  0  0  0  0  0  0
  -26.9960  -29.5720   20.9880 C   0  0  0  0  0  0  0  0  0  0  0  0
  -28.2730  -28.9830   21.1040 C   0  0  0  0  0  3  0  0  0  0  0  0
  -27.5140  -27.0940   19.7750 C   0  0  0  0  0  3  0  0  0  0  0  0
  -26.2440  -27.6870   19.6510 C   0  0  0  0  0  3  0  0  0  0  0  0
  -24.6540  -29.6250   20.1670 C   0  0  0  0  0  2  0  0  0  0  0  0
  -25.3080  -30.9610   22.2230 N   0  0  0  0  0  0  0  0  0  0  0  0
  -23.8630  -31.8290   23.7380 O   0  0  0  0  0  0  0  0  0  0  0  0
  -23.5790  -29.1000   22.3810 C   0  0  0  0  0  0  0  0  0  0  0  0
  -22.2880  -28.8170   22.1440 N   0  0  0  0  0  0  0  0  0  0  0  0
  -24.2550  -28.4870   23.2110 O   0  0  0  0  0  0  0  0  0  0  0  0
  -21.8000  -29.3710   21.4530 H   0  0  0  0  0  0  0  0  0  0  0  0
  -18.9770  -27.3950   22.3990 C   0  0  0  0  0  0  0  0  0  0  0  0
  -21.5020  -27.7720   22.8000 C   0  0  0  0  0  3  0  0  0  0  0  0
  -21.7130  -26.4040   22.1130 C   0  0  0  0  0  2  0  0  0  0  0  0
  -20.6710  -26.1040   21.0300 C   0  0  0  0  0  2  0  0  0  0  0  0
  -19.2600  -26.1170   21.6250 C   0  0  0  0  0  2  0  0  0  0  0  0
  -20.0310  -28.1790   22.9370 C   0  0  0  0  0  0  0  0  0  0  0  0
  -19.7150  -29.3760   23.6170 C   0  0  0  0  0  3  0  0  0  0  0  0
  -18.3780  -29.7880   23.7670 C   0  0  0  0  0  3  0  0  0  0  0  0
  -17.3380  -28.9990   23.2460 C   0  0  0  0  0  3  0  0  0  0  0  0
  -17.6380  -27.8030   22.5680 C   0  0  0  0  0  3  0  0  0  0  0  0
  -26.1410  -32.4700   24.1080 C   0  0  0  0  0  3  0  0  0  0  0  0
  -25.6750  -33.8460   24.3170 N   0  0  0  0  0  0  0  0  0  0  0  0
  -26.0340  -34.8930   23.5610 C   0  0  0  0  0  0  0  0  0  0  0  0
  -26.8590  -34.8070   22.6470 O   0  0  0  0  0  0  0  0  0  0  0  0
  -24.9550  -33.9800   25.0100 H   0  0  0  0  0  0  0  0  0  0  0  0
  -24.2350  -36.5060   22.8620 C   0  0  0  0  0  1  0  0  0  0  0  0
  -25.3710  -36.2500   23.8660 C   0  0  0  0  0  3  0  0  0  0  0  0
  -27.2850  -37.3470   24.9390 C   0  0  0  0  0  1  0  0  0  0  0  0
  -26.3180  -37.3850   23.8460 N   0  0  0  0  0  0  0  0  0  0  0  0
  -25.8210  -38.2700   23.8920 H   0  0  0  0  0  0  0  0  0  0  0  0
  -26.5100  -31.7900   25.4830 C   0  0  1  0  0  0  0  0  0  0  0  0
  -25.2820  -31.4750   26.3690 C   0  0  0  0  0  1  0  0  0  0  0  0
  -27.2740  -30.4670   25.2460 C   0  0  0  0  0  1  0  0  0  0  0  0
  -27.4580  -32.7120   26.2870 C   0  0  0  0  0  1  0  0  0  0  0  0
  2  5  1  0
  3  6  1  0
  3  1  1  0
  4  6  1  0
  4  2  1  0
  5  8  1  0
  5  1  1  0
  6  7  1  1
  9  8  1  0
  9 12  1  0
 10  8  2  0
 11  9  1  0
 13 12  1  0
 13 22  1  0
 14 20  1  0
 14 22  1  0
 15 20  1  0
 16 17  1  0
 16 15  1  0
 18 17  1  0
 18 27  1  0
 18 19  1  0
 20 19  1  0
 21 14  2  0
 22 23  1  0
 24 25  2  0
 25 26  1  0
 25 44  1  0
 26 29  1  0
 27 24  1  0
 27 28  1  0
 28 26  2  0
 29 30  1  0
 30 31  2  0
 32 35  1  0
 32 31  1  0
 33 32  2  0
 34 33  1  0
 34 29  2  0
 35 36  1  0
 36 37  1  0
 37 38  2  0
 39 38  1  0
 39 43  1  0
 40 39  2  0
 41 36  2  0
 41 40  1  0
 42 41  1  0
 44 45  1  0
 45 48  1  0
 45 47  1  0
 46 44  2  0
 49 24  1  0
 50 49  1  0
 51 49  1  0
 52  6  1  0
 52 53  1  0
 54 55  1  0
 54 53  1  0
 56 67  2  0
 57 55  1  0
 57 62  1  0
 58 66  1  0
 58 68  1  0
 59 61  1  0
 60 66  1  0
 61 62  2  0
 61 60  1  0
 63 57  2  0
 64 63  1  0
 64 59  2  0
 65 59  1  0
 65 58  1  0
 66 56  1  0
 68 70  2  0
 69 68  1  0
 71 69  1  0
 72 81  2  0
 72 77  1  0
 73 69  1  0
 73 77  1  0
 74 73  1  0
 75 76  1  0
 75 74  1  0
 76 72  1  0
 77 78  2  0
 78 79  1  0
 80 79  2  0
 81 80  1  0
 82 56  1  0
 82 83  1  0
 82 92  1  0
 83 86  1  0
 84 88  1  0
 84 83  1  0
 85 84  2  0
 88 87  1  0
 90 88  1  0
 90 91  1  0
 90 89  1  0
 92 95  1  1
 92 93  1  0
 94 92  1  0
M  ISO  4  14 100  22 100  54 101  55 101
M  END
>  <TORSDO>  (41) 
F 22

>  <SCORE>  (41) 
-8.146

>  <name>  (41) 
43

>  <ligand_id>  (41) 
43

>  <original_smiles>  (41) 
[H]c1c([H])c([H])c2c(c1[H])C([H])([H])C([H])([H])C([H])([H])C2([H])N([H])C(=O)C1([H])N(C(=O)C([H])(N([H])C(=O)C([H])(N([H])C([H])([H])[H])C([H])([H])[H])C(C([H])([H])[H])(C([H])([H])[H])C([H])([H])[H])C([H])([H])c2c([H])c(OC([H])([H])C([H])([H])C([H])([H])[N+]3([H])C([H])([H])C([H])([H])C([H])(C(=O)N([H])C([H])([H])C([H])([H])N([H])C(=O)N4C([H])([H])C([H])([H])C([H])([H])C([H])(n5nc(-c6c([H])c([H])c(Oc7c([H])c([H])c(F)c([H])c7F)c([H])c6[H])c(C(=O)N([H])[H])c5N([H])[H])C4([H])[H])C([H])([H])C3([H])[H])c([H])c([H])c2C1([H])[H]

>  <smiles>  (41) 
[H]c1c([H])c([H])c2c(c1[H])C([H])([H])C([H])([H])C([H])([H])C2([H])N([H])C(=O)C1([H])N(C(=O)C([H])(N([H])C(=O)C([H])(N([H])C([H])([H])[H])C([H])([H])[H])C(C([H])([H])[H])(C([H])([H])[H])C([H])([H])[H])C([H])([H])c2c([H])c(OC([H])([H])C([H])([H])C([H])([H])[N+]3([H])C([H])([H])C([H])([H])C([H])(C(=O)N([H])C([H])([H])C([H])([H])N([H])C(=O)N4C([H])([H])C([H])([H])C([H])([H])C([H])(n5nc(-c6c([H])c([H])c(Oc7c([H])c([H])c(F)c([H])c7F)c([H])c6[H])c(C(=O)N([H])[H])c5N([H])[H])C4([H])[H])C([H])([H])C3([H])[H])c([H])c([H])c2C1([H])[H]

$$$$
44:0:0
     RDKit          3D

 92100  0  0  1  0  0  0  0  0999 V2000
  -28.4610  -21.9680   22.3240 C   0  0  0  0  0  2  0  0  0  0  0  0
  -28.3890  -20.6460   21.5310 C   0  0  0  0  0  2  0  0  0  0  0  0
  -29.7240  -20.0760   21.0400 C   0  0  0  0  0  0  0  0  0  0  0  0
  -30.7400  -20.7690   20.9260 O   0  0  0  0  0  0  0  0  0  0  0  0
  -31.3950  -14.7790   19.7720 C   0  0  0  0  0  0  0  0  0  0  0  0
  -31.1330  -12.4600   18.9660 C   0  0  0  0  0  2  0  0  0  0  0  0
  -30.1470  -12.4800   17.7800 C   0  0  0  0  0  2  0  0  0  0  0  0
  -28.6860  -12.3750   18.2720 C   0  0  0  0  0  2  0  0  0  0  0  0
  -28.3740  -13.3830   19.4120 C   0  0  0  0  0  3  0  0  0  0  0  0
  -29.4680  -13.2950   20.4980 C   0  0  0  0  0  2  0  0  0  0  0  0
  -30.7670  -13.5700   19.8590 N   0  0  0  0  0  0  0  0  0  0  0  0
  -32.4590  -14.9290   19.1620 O   0  0  0  0  0  0  0  0  0  0  0  0
  -30.3100  -18.2590   19.3460 C   0  0  0  0  0  2  0  0  0  0  0  0
  -30.5300  -17.7520   21.7590 C   0  0  0  0  0  2  0  0  0  0  0  0
  -30.1540  -16.7610   19.0250 C   0  0  0  0  0  2  0  0  0  0  0  0
  -30.3560  -16.2460   21.4920 C   0  0  0  0  0  2  0  0  0  0  0  0
  -29.7380  -18.5730   20.7330 C   0  0  0  0  0  3  0  0  0  0  0  0
  -30.6270  -15.8530   20.0940 N   0  0  0  0  0  0  0  0  0  0  0  0
  -26.0780  -14.1190   20.3230 C   0  0  0  0  0  0  0  0  0  0  0  0
  -24.9870  -13.4020   20.7330 C   0  0  0  0  0  0  0  0  0  0  0  0
  -25.3450  -12.0270   20.5960 C   0  0  0  0  0  0  0  0  0  0  0  0
  -27.0380  -13.1820   19.9680 N   0  0  0  0  0  0  0  0  0  0  0  0
  -26.6010  -11.9150   20.1840 N   0  0  0  0  0  0  0  0  0  0  0  0
  -24.5450  -10.8080   20.7740 C   0  0  0  0  0  0  0  0  0  0  0  0
  -24.8960   -9.8290   21.7290 C   0  0  0  0  0  3  0  0  0  0  0  0
  -24.1030   -8.6740   21.8930 C   0  0  0  0  0  3  0  0  0  0  0  0
  -22.9460   -8.4910   21.0990 C   0  0  0  0  0  0  0  0  0  0  0  0
  -22.6140   -9.4570   20.1340 C   0  0  0  0  0  3  0  0  0  0  0  0
  -23.4070  -10.6040   19.9680 C   0  0  0  0  0  3  0  0  0  0  0  0
  -22.1300   -7.3890   21.1720 O   0  0  0  0  0  0  0  0  0  0  0  0
  -21.8720   -6.7600   22.3640 C   0  0  0  0  0  0  0  0  0  0  0  0
  -21.3240   -7.4510   23.4670 C   0  0  0  0  0  3  0  0  0  0  0  0
  -21.0110   -6.7530   24.6500 C   0  0  0  0  0  3  0  0  0  0  0  0
  -21.2370   -5.3660   24.7310 C   0  0  0  0  0  0  0  0  0  0  0  0
  -21.7780   -4.6750   23.6320 C   0  0  0  0  0  3  0  0  0  0  0  0
  -22.0930   -5.3710   22.4530 C   0  0  0  0  0  0  0  0  0  0  0  0
  -22.5940   -4.6970   21.3890 F   0  0  0  0  0  0  0  0  0  0  0  0
  -20.9270   -4.6930   25.8640 F   0  0  0  0  0  0  0  0  0  0  0  0
  -23.6510  -13.9580   21.1370 C   0  0  0  0  0  0  0  0  0  0  0  0
  -22.9520  -13.2860   22.0460 N   0  0  0  0  0  0  0  0  0  0  0  0
  -23.2370  -15.0250   20.6810 O   0  0  0  0  0  0  0  0  0  0  0  0
  -23.2960  -12.4210   22.4360 H   0  0  0  0  0  0  0  0  0  0  0  0
  -22.0610  -13.6430   22.3600 H   0  0  0  0  0  0  0  0  0  0  0  0
  -26.3240  -15.4850   20.2080 N   0  0  0  0  0  0  0  0  0  0  0  0
  -25.6070  -16.1700   20.4160 H   0  0  0  0  0  0  0  0  0  0  0  0
  -27.1660  -15.8940   19.8260 H   0  0  0  0  0  0  0  0  0  0  0  0
  -28.4420  -23.2300   21.4420 C   0  0  0  0  0  2  0  0  0  0  0  0
  -29.8190  -23.9160   21.3210 C   0  0  0  0  0  2  0  0  0  0  0  0
  -29.6030  -24.7350   18.8990 C   0  0  0  0  0  1  0  0  0  0  0  0
  -29.8660  -25.1330   20.3630 C   0  0  0  0  0  3  0  0  0  0  0  0
  -28.9450  -26.2720   20.8490 C   0  0  0  0  0  2  0  0  0  0  0  0
  -28.9280  -27.3950   19.9660 O   0  0  0  0  0  0  0  0  0  0  0  0
  -24.7810  -31.9950   23.4400 C   0  0  0  0  0  0  0  0  0  0  0  0
  -27.7260  -28.0550   20.0030 C   0  0  0  0  0  0  0  0  0  0  0  0
  -23.6700  -30.6610   21.6780 C   0  0  0  0  0  3  0  0  0  0  0  0
  -25.2280  -29.3520   20.1400 C   0  0  0  0  0  0  0  0  0  0  0  0
  -26.1650  -31.2150   21.5260 C   0  0  0  0  0  2  0  0  0  0  0  0
  -26.3470  -29.9230   20.7580 C   0  0  0  0  0  0  0  0  0  0  0  0
  -27.6040  -29.2880   20.6750 C   0  0  0  0  0  3  0  0  0  0  0  0
  -26.5900  -27.4810   19.3920 C   0  0  0  0  0  3  0  0  0  0  0  0
  -25.3420  -28.1270   19.4550 C   0  0  0  0  0  3  0  0  0  0  0  0
  -23.9230  -30.1060   20.2510 C   0  0  0  0  0  2  0  0  0  0  0  0
  -24.8890  -31.2990   22.2740 N   0  0  0  0  0  0  0  0  0  0  0  0
  -23.6860  -32.1470   23.9960 O   0  0  0  0  0  0  0  0  0  0  0  0
  -23.0900  -29.5240   22.5480 C   0  0  0  0  0  0  0  0  0  0  0  0
  -21.7950  -29.2230   22.3560 N   0  0  0  0  0  0  0  0  0  0  0  0
  -23.8020  -28.9130   23.3510 O   0  0  0  0  0  0  0  0  0  0  0  0
  -21.2700  -29.7760   21.6920 H   0  0  0  0  0  0  0  0  0  0  0  0
  -18.5700  -27.6260   22.5760 C   0  0  0  0  0  0  0  0  0  0  0  0
  -21.0560  -28.1610   23.0330 C   0  0  0  0  0  3  0  0  0  0  0  0
  -21.3660  -26.7850   22.3990 C   0  0  0  0  0  2  0  0  0  0  0  0
  -20.3770  -26.3890   21.3010 C   0  0  0  0  0  2  0  0  0  0  0  0
  -18.9490  -26.3450   21.8510 C   0  0  0  0  0  2  0  0  0  0  0  0
  -19.5620  -28.4890   23.1180 C   0  0  0  0  0  0  0  0  0  0  0  0
  -19.1580  -29.6880   23.7440 C   0  0  0  0  0  3  0  0  0  0  0  0
  -17.7950  -30.0260   23.8420 C   0  0  0  0  0  3  0  0  0  0  0  0
  -16.8180  -29.1600   23.3230 C   0  0  0  0  0  3  0  0  0  0  0  0
  -17.2070  -27.9630   22.6960 C   0  0  0  0  0  3  0  0  0  0  0  0
  -26.0240  -32.6560   24.1150 C   0  0  0  0  0  3  0  0  0  0  0  0
  -26.5080  -31.8940   25.4100 C   0  0  1  0  0  0  0  0  0  0  0  0
  -25.3760  -31.6130   26.4240 C   0  0  0  0  0  1  0  0  0  0  0  0
  -27.1580  -30.5400   25.0400 C   0  0  0  0  0  1  0  0  0  0  0  0
  -27.5970  -32.7220   26.1310 C   0  0  0  0  0  1  0  0  0  0  0  0
  -25.6670  -34.0420   24.4380 N   0  0  0  0  0  0  0  0  0  0  0  0
  -26.0030  -35.1070   23.6970 C   0  0  0  0  0  0  0  0  0  0  0  0
  -26.7220  -35.0250   22.6960 O   0  0  0  0  0  0  0  0  0  0  0  0
  -25.0440  -34.1770   25.2200 H   0  0  0  0  0  0  0  0  0  0  0  0
  -24.2410  -36.8470   23.2670 C   0  0  0  0  0  1  0  0  0  0  0  0
  -25.4550  -36.4780   24.1350 C   0  0  0  0  0  3  0  0  0  0  0  0
  -27.5240  -37.4220   25.0620 C   0  0  0  0  0  1  0  0  0  0  0  0
  -26.4600  -37.5610   24.0710 N   0  0  0  0  0  0  0  0  0  0  0  0
  -26.0200  -38.4680   24.2050 H   0  0  0  0  0  0  0  0  0  0  0  0
  2  1  1  0
  3  2  1  0
  4  3  2  0
  5 11  1  0
  5 18  1  0
  6 11  1  0
  7  8  1  0
  7  6  1  0
  9  8  1  0
  9 22  1  0
  9 10  1  0
 11 10  1  0
 12  5  2  0
 13 17  1  0
 15 13  1  0
 15 18  1  0
 16 14  1  0
 17  3  1  0
 17 14  1  0
 18 16  1  0
 19 20  2  0
 20 39  1  0
 21 20  1  0
 21 24  1  0
 22 23  1  0
 22 19  1  0
 23 21  2  0
 24 25  1  0
 25 26  2  0
 27 30  1  0
 27 26  1  0
 28 27  2  0
 29 28  1  0
 29 24  2  0
 30 31  1  0
 31 36  2  0
 31 32  1  0
 32 33  2  0
 33 34  1  0
 34 38  1  0
 35 34  2  0
 36 35  1  0
 37 36  1  0
 39 40  1  0
 40 43  1  0
 40 42  1  0
 41 39  2  0
 44 19  1  0
 44 45  1  0
 46 44  1  0
 47  1  1  0
 48 47  1  0
 50 49  1  0
 50 51  1  0
 50 48  1  0
 52 54  1  0
 52 51  1  0
 53 64  2  0
 54 59  1  0
 55 63  1  0
 55 65  1  0
 56 62  1  0
 56 58  1  0
 57 63  1  0
 58 57  1  0
 59 58  2  0
 60 61  1  0
 60 54  2  0
 61 56  2  0
 62 55  1  0
 63 53  1  0
 65 67  2  0
 66 65  1  0
 68 66  1  0
 69 78  2  0
 69 74  1  0
 70 66  1  0
 70 74  1  0
 71 70  1  0
 72 73  1  0
 72 71  1  0
 73 69  1  0
 74 75  2  0
 75 76  1  0
 77 76  2  0
 78 77  1  0
 79 53  1  0
 79 84  1  0
 79 80  1  0
 80 83  1  1
 80 81  1  0
 82 80  1  0
 84 87  1  0
 85 89  1  0
 85 84  1  0
 86 85  2  0
 89 88  1  0
 91 89  1  0
 91 92  1  0
 91 90  1  0
M  ISO  4   5 100  18 100  51 101  52 101
M  END
>  <TORSDO>  (42) 
F 22

>  <SCORE>  (42) 
-10.928

>  <name>  (42) 
44

>  <ligand_id>  (42) 
44

>  <original_smiles>  (42) 
[H]c1c([H])c([H])c2c(c1[H])C([H])([H])C([H])([H])C([H])([H])C2([H])N([H])C(=O)C1([H])N(C(=O)C([H])(N([H])C(=O)C([H])(N([H])C([H])([H])[H])C([H])([H])[H])C(C([H])([H])[H])(C([H])([H])[H])C([H])([H])[H])C([H])([H])c2c([H])c(OC([H])([H])C([H])(C([H])([H])[H])C([H])([H])C([H])([H])C([H])([H])C([H])([H])C(=O)C3([H])C([H])([H])C([H])([H])N(C(=O)N4C([H])([H])C([H])([H])C([H])([H])C([H])(n5nc(-c6c([H])c([H])c(Oc7c([H])c([H])c(F)c([H])c7F)c([H])c6[H])c(C(=O)N([H])[H])c5N([H])[H])C4([H])[H])C([H])([H])C3([H])[H])c([H])c([H])c2C1([H])[H]

>  <smiles>  (42) 
[H]c1c([H])c([H])c2c(c1[H])C([H])([H])C([H])([H])C([H])([H])C2([H])N([H])C(=O)C1([H])N(C(=O)C([H])(N([H])C(=O)C([H])(N([H])C([H])([H])[H])C([H])([H])[H])C(C([H])([H])[H])(C([H])([H])[H])C([H])([H])[H])C([H])([H])c2c([H])c(OC([H])([H])C([H])(C([H])([H])[H])C([H])([H])C([H])([H])C([H])([H])C([H])([H])C(=O)C3([H])C([H])([H])C([H])([H])N(C(=O)N4C([H])([H])C([H])([H])C([H])([H])C([H])(n5nc(-c6c([H])c([H])c(Oc7c([H])c([H])c(F)c([H])c7F)c([H])c6[H])c(C(=O)N([H])[H])c5N([H])[H])C4([H])[H])C([H])([H])C3([H])[H])c([H])c([H])c2C1([H])[H]

$$$$
45:0:0
     RDKit          3D

 94102  0  0  1  0  0  0  0  0999 V2000
  -29.1900  -21.8120   21.6440 C   0  0  0  0  0  2  0  0  0  0  0  0
  -30.7620  -22.8270   23.1720 C   0  0  0  0  0  2  0  0  0  0  0  0
  -30.1330  -20.6940   22.1610 C   0  0  0  0  0  3  0  0  0  0  0  0
  -29.8470  -23.1650   21.9910 C   0  0  0  0  0  3  0  0  0  0  0  0
  -31.3040  -21.4290   22.8590 C   0  0  0  0  0  3  0  0  0  0  0  0
  -30.6060  -19.7030   21.0730 C   0  0  0  0  0  0  0  0  0  0  0  0
  -30.3170  -18.4070   21.2620 N   0  0  0  0  0  0  0  0  0  0  0  0
  -31.2410  -20.0990   20.0920 O   0  0  0  0  0  0  0  0  0  0  0  0
  -29.7630  -18.1740   22.0740 H   0  0  0  0  0  0  0  0  0  0  0  0
  -30.8010  -17.3030   20.4310 C   0  0  0  0  0  2  0  0  0  0  0  0
  -30.3440  -15.9310   20.9880 C   0  0  0  0  0  2  0  0  0  0  0  0
  -30.9600  -14.7290   20.2400 C   0  0  0  0  0  0  0  0  0  0  0  0
  -30.6050  -12.5580   19.1110 C   0  0  0  0  0  2  0  0  0  0  0  0
  -29.6430  -12.7520   17.9220 C   0  0  0  0  0  2  0  0  0  0  0  0
  -28.1770  -12.6410   18.3830 C   0  0  0  0  0  2  0  0  0  0  0  0
  -27.8740  -13.5030   19.6360 C   0  0  0  0  0  3  0  0  0  0  0  0
  -28.9510  -13.2960   20.7270 C   0  0  0  0  0  2  0  0  0  0  0  0
  -30.2660  -13.5650   20.1260 N   0  0  0  0  0  0  0  0  0  0  0  0
  -32.0540  -14.8850   19.6890 O   0  0  0  0  0  0  0  0  0  0  0  0
  -25.4910  -14.1390   20.3730 C   0  0  0  0  0  0  0  0  0  0  0  0
  -24.4240  -13.3800   20.7640 C   0  0  0  0  0  0  0  0  0  0  0  0
  -24.8720  -12.0230   20.7370 C   0  0  0  0  0  0  0  0  0  0  0  0
  -26.5260  -13.2480   20.1370 N   0  0  0  0  0  0  0  0  0  0  0  0
  -26.1570  -11.9710   20.4120 N   0  0  0  0  0  0  0  0  0  0  0  0
  -24.1330  -10.7690   20.9470 C   0  0  0  0  0  0  0  0  0  0  0  0
  -24.5510   -9.8210   21.9070 C   0  0  0  0  0  3  0  0  0  0  0  0
  -23.8190   -8.6300   22.1040 C   0  0  0  0  0  3  0  0  0  0  0  0
  -22.6540   -8.3800   21.3380 C   0  0  0  0  0  0  0  0  0  0  0  0
  -22.2560   -9.3140   20.3650 C   0  0  0  0  0  3  0  0  0  0  0  0
  -22.9890  -10.4970   20.1680 C   0  0  0  0  0  3  0  0  0  0  0  0
  -21.8900   -7.2420   21.4460 O   0  0  0  0  0  0  0  0  0  0  0  0
  -21.7910   -6.5510   22.6260 C   0  0  0  0  0  0  0  0  0  0  0  0
  -21.3130   -7.1620   23.8080 C   0  0  0  0  0  3  0  0  0  0  0  0
  -21.1600   -6.3950   24.9800 C   0  0  0  0  0  3  0  0  0  0  0  0
  -21.4750   -5.0230   24.9740 C   0  0  0  0  0  0  0  0  0  0  0  0
  -21.9450   -4.4140   23.7970 C   0  0  0  0  0  3  0  0  0  0  0  0
  -22.1010   -5.1760   22.6260 C   0  0  0  0  0  0  0  0  0  0  0  0
  -22.5350   -4.5800   21.4910 F   0  0  0  0  0  0  0  0  0  0  0  0
  -21.3170   -4.2850   26.0980 F   0  0  0  0  0  0  0  0  0  0  0  0
  -23.0350  -13.8700   21.0560 C   0  0  0  0  0  0  0  0  0  0  0  0
  -22.3210  -13.1900   21.9470 N   0  0  0  0  0  0  0  0  0  0  0  0
  -22.5930  -14.8900   20.5310 O   0  0  0  0  0  0  0  0  0  0  0  0
  -22.6930  -12.3610   22.3900 H   0  0  0  0  0  0  0  0  0  0  0  0
  -21.3910  -13.5010   22.1890 H   0  0  0  0  0  0  0  0  0  0  0  0
  -25.6710  -15.5070   20.1820 N   0  0  0  0  0  0  0  0  0  0  0  0
  -24.9210  -16.1780   20.2910 H   0  0  0  0  0  0  0  0  0  0  0  0
  -26.5260  -15.9220   19.8320 H   0  0  0  0  0  0  0  0  0  0  0  0
  -32.9280  -21.4200   24.8720 C   0  0  0  0  0  1  0  0  0  0  0  0
  -31.8430  -20.6660   24.0890 C   0  0  0  0  0  2  0  0  0  0  0  0
  -28.8970  -24.3410   22.3280 C   0  0  0  0  0  2  0  0  0  0  0  0
  -26.5410  -24.6430   21.5010 C   0  0  0  0  0  1  0  0  0  0  0  0
  -28.0240  -24.8750   21.1600 C   0  0  0  0  0  3  0  0  0  0  0  0
  -28.3330  -26.3640   20.8240 C   0  0  0  0  0  2  0  0  0  0  0  0
  -27.7700  -26.7960   19.5740 O   0  0  0  0  0  0  0  0  0  0  0  0
  -24.4440  -31.9910   23.1430 C   0  0  0  0  0  0  0  0  0  0  0  0
  -26.6700  -27.6130   19.6880 C   0  0  0  0  0  0  0  0  0  0  0  0
  -23.0580  -30.6990   21.5470 C   0  0  0  0  0  3  0  0  0  0  0  0
  -24.3380  -29.1850   19.9450 C   0  0  0  0  0  0  0  0  0  0  0  0
  -25.5700  -30.9910   21.1590 C   0  0  0  0  0  2  0  0  0  0  0  0
  -25.5580  -29.6470   20.4620 C   0  0  0  0  0  0  0  0  0  0  0  0
  -26.7260  -28.8630   20.3430 C   0  0  0  0  0  3  0  0  0  0  0  0
  -25.4520  -27.1810   19.1330 C   0  0  0  0  0  3  0  0  0  0  0  0
  -24.2800  -27.9470   19.2770 C   0  0  0  0  0  3  0  0  0  0  0  0
  -23.1290  -30.0700   20.1310 C   0  0  0  0  0  2  0  0  0  0  0  0
  -24.3790  -31.2400   22.0050 N   0  0  0  0  0  0  0  0  0  0  0  0
  -23.4210  -32.2730   23.7830 O   0  0  0  0  0  0  0  0  0  0  0  0
  -22.4530  -29.6600   22.5160 C   0  0  0  0  0  0  0  0  0  0  0  0
  -21.1230  -29.4800   22.4390 N   0  0  0  0  0  0  0  0  0  0  0  0
  -23.1710  -29.0220   23.2910 O   0  0  0  0  0  0  0  0  0  0  0  0
  -20.6060  -30.0510   21.7870 H   0  0  0  0  0  0  0  0  0  0  0  0
  -17.7890  -28.1970   22.9690 C   0  0  0  0  0  0  0  0  0  0  0  0
  -20.3400  -28.5250   23.2210 C   0  0  0  0  0  3  0  0  0  0  0  0
  -20.4760  -27.0920   22.6540 C   0  0  0  0  0  2  0  0  0  0  0  0
  -19.3760  -26.7330   21.6500 C   0  0  0  0  0  2  0  0  0  0  0  0
  -17.9970  -26.8460   22.3060 C   0  0  0  0  0  2  0  0  0  0  0  0
  -18.8910  -28.9910   23.3850 C   0  0  0  0  0  0  0  0  0  0  0  0
  -18.6430  -30.2550   23.9640 C   0  0  0  0  0  3  0  0  0  0  0  0
  -17.3260  -30.7220   24.1370 C   0  0  0  0  0  3  0  0  0  0  0  0
  -16.2390  -29.9230   23.7400 C   0  0  0  0  0  3  0  0  0  0  0  0
  -16.4720  -28.6640   23.1600 C   0  0  0  0  0  3  0  0  0  0  0  0
  -25.8030  -32.5470   23.6790 C   0  0  0  0  0  3  0  0  0  0  0  0
  -26.3980  -31.6970   24.8680 C   0  0  1  0  0  0  0  0  0  0  0  0
  -25.3910  -31.4440   26.0160 C   0  0  0  0  0  1  0  0  0  0  0  0
  -26.8910  -30.3190   24.3640 C   0  0  0  0  0  1  0  0  0  0  0  0
  -27.6330  -32.4160   25.4630 C   0  0  0  0  0  1  0  0  0  0  0  0
  -25.5760  -33.9350   24.0930 N   0  0  0  0  0  0  0  0  0  0  0  0
  -25.9030  -35.0090   23.3620 C   0  0  0  0  0  0  0  0  0  0  0  0
  -26.5020  -34.9300   22.2860 O   0  0  0  0  0  0  0  0  0  0  0  0
  -25.0320  -34.0720   24.9320 H   0  0  0  0  0  0  0  0  0  0  0  0
  -24.2350  -36.8850   23.2030 C   0  0  0  0  0  1  0  0  0  0  0  0
  -25.5050  -36.3900   23.9130 C   0  0  0  0  0  3  0  0  0  0  0  0
  -27.7250  -37.1520   24.6410 C   0  0  0  0  0  1  0  0  0  0  0  0
  -26.5730  -37.4060   23.7800 N   0  0  0  0  0  0  0  0  0  0  0  0
  -26.2150  -38.3330   23.9910 H   0  0  0  0  0  0  0  0  0  0  0  0
  1  4  1  0
  1  3  1  0
  3  6  1  0
  3  5  1  0
  4 50  1  0
  4  2  1  0
  5  2  1  0
  5 49  1  0
  6  7  1  0
  7  9  1  0
  8  6  2  0
 10 11  1  0
 10  7  1  0
 12 11  1  0
 13 18  1  0
 14 15  1  0
 14 13  1  0
 16 15  1  0
 16 23  1  0
 16 17  1  0
 18 12  1  0
 18 17  1  0
 19 12  2  0
 20 21  2  0
 21 40  1  0
 22 21  1  0
 22 25  1  0
 23 20  1  0
 23 24  1  0
 24 22  2  0
 25 26  1  0
 26 27  2  0
 28 31  1  0
 28 27  1  0
 29 28  2  0
 30 29  1  0
 30 25  2  0
 31 32  1  0
 32 33  1  0
 33 34  2  0
 35 34  1  0
 35 39  1  0
 36 35  2  0
 37 32  2  0
 37 36  1  0
 38 37  1  0
 40 41  1  0
 41 44  1  0
 41 43  1  0
 42 40  2  0
 45 46  1  0
 45 20  1  0
 47 45  1  0
 49 48  1  0
 52 51  1  0
 52 50  1  0
 53 52  1  0
 54 56  1  0
 54 53  1  0
 55 66  2  0
 56 61  1  0
 57 65  1  0
 57 67  1  0
 58 64  1  0
 58 60  1  0
 59 65  1  0
 60 59  1  0
 61 60  2  0
 62 63  1  0
 62 56  2  0
 63 58  2  0
 64 57  1  0
 65 55  1  0
 67 69  2  0
 68 67  1  0
 70 68  1  0
 71 80  2  0
 71 76  1  0
 72 68  1  0
 72 76  1  0
 73 72  1  0
 74 75  1  0
 74 73  1  0
 75 71  1  0
 76 77  2  0
 77 78  1  0
 79 78  2  0
 80 79  1  0
 81 55  1  0
 81 86  1  0
 81 82  1  0
 82 85  1  1
 82 83  1  0
 84 82  1  0
 86 89  1  0
 87 91  1  0
 87 86  1  0
 88 87  2  0
 91 90  1  0
 93 91  1  0
 93 94  1  0
 93 92  1  0
M  ISO  4  11 100  12 100  53 101  54 101
M  END
>  <TORSDO>  (43) 
F 23

>  <SCORE>  (43) 
-11.255

>  <name>  (43) 
45

>  <ligand_id>  (43) 
45

>  <original_smiles>  (43) 
[H]c1c([H])c([H])c2c(c1[H])C([H])([H])C([H])([H])C([H])([H])C2([H])N([H])C(=O)C1([H])N(C(=O)C([H])(N([H])C(=O)C([H])(N([H])C([H])([H])[H])C([H])([H])[H])C(C([H])([H])[H])(C([H])([H])[H])C([H])([H])[H])C([H])([H])c2c([H])c(OC([H])([H])C([H])(C([H])([H])[H])C([H])([H])C3([H])C([H])([H])C([H])(C(=O)N([H])C([H])([H])C([H])([H])C(=O)N4C([H])([H])C([H])([H])C([H])([H])C([H])(n5nc(-c6c([H])c([H])c(Oc7c([H])c([H])c(F)c([H])c7F)c([H])c6[H])c(C(=O)N([H])[H])c5N([H])[H])C4([H])[H])C([H])(C([H])([H])C([H])([H])[H])C3([H])[H])c([H])c([H])c2C1([H])[H]

>  <smiles>  (43) 
[H]c1c([H])c([H])c2c(c1[H])C([H])([H])C([H])([H])C([H])([H])C2([H])N([H])C(=O)C1([H])N(C(=O)C([H])(N([H])C(=O)C([H])(N([H])C([H])([H])[H])C([H])([H])[H])C(C([H])([H])[H])(C([H])([H])[H])C([H])([H])[H])C([H])([H])c2c([H])c(OC([H])([H])C([H])(C([H])([H])[H])C([H])([H])C3([H])C([H])([H])C([H])(C(=O)N([H])C([H])([H])C([H])([H])C(=O)N4C([H])([H])C([H])([H])C([H])([H])C([H])(n5nc(-c6c([H])c([H])c(Oc7c([H])c([H])c(F)c([H])c7F)c([H])c6[H])c(C(=O)N([H])[H])c5N([H])[H])C4([H])[H])C([H])(C([H])([H])C([H])([H])[H])C3([H])[H])c([H])c([H])c2C1([H])[H]

$$$$
46:0:0
     RDKit          3D

 97105  0  0  1  0  0  0  0  0999 V2000
  -30.9710  -20.4240   23.1490 C   0  0  0  0  0  2  0  0  0  0  0  0
  -29.8770  -21.4170   22.7340 C   0  0  0  0  0  2  0  0  0  0  0  0
  -30.3780  -22.8430   22.4580 C   0  0  0  0  0  2  0  0  0  0  0  0
  -29.3190  -23.6160   21.6550 C   0  0  0  0  0  2  0  0  0  0  0  0
  -29.6440  -25.9890   22.5120 C   0  0  0  0  0  1  0  0  0  0  0  0
  -30.9700  -25.1990   20.5140 C   0  0  0  0  0  1  0  0  0  0  0  0
  -29.6250  -25.0850   21.2600 C   0  0  1  0  0  0  0  0  0  0  0  0
  -28.4760  -25.5100   20.3160 C   0  0  0  0  0  2  0  0  0  0  0  0
  -28.5500  -26.8850   19.9550 O   0  0  0  0  0  0  0  0  0  0  0  0
  -24.5930  -31.7860   23.1900 C   0  0  0  0  0  0  0  0  0  0  0  0
  -27.3490  -27.5500   19.9630 C   0  0  0  0  0  0  0  0  0  0  0  0
  -23.4130  -30.4000   21.5120 C   0  0  0  0  0  3  0  0  0  0  0  0
  -24.9010  -28.9500   20.0340 C   0  0  0  0  0  0  0  0  0  0  0  0
  -25.9210  -30.8500   21.3040 C   0  0  0  0  0  2  0  0  0  0  0  0
  -26.0430  -29.5020   20.6260 C   0  0  0  0  0  0  0  0  0  0  0  0
  -27.2700  -28.8090   20.5870 C   0  0  0  0  0  3  0  0  0  0  0  0
  -26.1890  -27.0020   19.3640 C   0  0  0  0  0  3  0  0  0  0  0  0
  -24.9660  -27.6970   19.4020 C   0  0  0  0  0  3  0  0  0  0  0  0
  -23.6320  -29.7670   20.1110 C   0  0  0  0  0  2  0  0  0  0  0  0
  -24.6600  -31.0240   22.0620 N   0  0  0  0  0  0  0  0  0  0  0  0
  -23.5100  -32.0110   23.7460 O   0  0  0  0  0  0  0  0  0  0  0  0
  -22.8010  -29.3310   22.4440 C   0  0  0  0  0  0  0  0  0  0  0  0
  -21.4900  -29.0880   22.2900 N   0  0  0  0  0  0  0  0  0  0  0  0
  -23.4990  -28.7260   23.2630 O   0  0  0  0  0  0  0  0  0  0  0  0
  -20.9850  -29.6330   21.6040 H   0  0  0  0  0  0  0  0  0  0  0  0
  -18.1710  -27.7200   22.6880 C   0  0  0  0  0  0  0  0  0  0  0  0
  -20.7040  -28.0990   23.0280 C   0  0  0  0  0  3  0  0  0  0  0  0
  -20.8920  -26.6830   22.4370 C   0  0  0  0  0  2  0  0  0  0  0  0
  -19.8330  -26.3210   21.3910 C   0  0  0  0  0  2  0  0  0  0  0  0
  -18.4300  -26.3890   22.0040 C   0  0  0  0  0  2  0  0  0  0  0  0
  -19.2390  -28.5310   23.1550 C   0  0  0  0  0  0  0  0  0  0  0  0
  -18.9460  -29.7760   23.7530 C   0  0  0  0  0  3  0  0  0  0  0  0
  -17.6140  -30.2110   23.8930 C   0  0  0  0  0  3  0  0  0  0  0  0
  -16.5590  -29.3970   23.4460 C   0  0  0  0  0  3  0  0  0  0  0  0
  -16.8380  -28.1550   22.8470 C   0  0  0  0  0  3  0  0  0  0  0  0
  -25.8670  -32.4300   23.8200 C   0  0  0  0  0  3  0  0  0  0  0  0
  -25.5400  -33.8200   24.1590 N   0  0  0  0  0  0  0  0  0  0  0  0
  -25.8960  -34.8840   23.4270 C   0  0  0  0  0  0  0  0  0  0  0  0
  -26.6090  -34.8000   22.4230 O   0  0  0  0  0  0  0  0  0  0  0  0
  -24.9120  -33.9600   24.9370 H   0  0  0  0  0  0  0  0  0  0  0  0
  -24.1960  -36.6860   23.0030 C   0  0  0  0  0  1  0  0  0  0  0  0
  -25.3820  -36.2620   23.8840 C   0  0  0  0  0  3  0  0  0  0  0  0
  -27.4590  -37.1230   24.8710 C   0  0  0  0  0  1  0  0  0  0  0  0
  -26.4200  -37.3140   23.8630 N   0  0  0  0  0  0  0  0  0  0  0  0
  -26.0050  -38.2300   24.0100 H   0  0  0  0  0  0  0  0  0  0  0  0
  -26.3970  -31.6540   25.0880 C   0  0  1  0  0  0  0  0  0  0  0  0
  -25.3020  -31.3730   26.1420 C   0  0  0  0  0  1  0  0  0  0  0  0
  -27.0220  -30.3010   24.6750 C   0  0  0  0  0  1  0  0  0  0  0  0
  -27.5170  -32.4710   25.7740 C   0  0  0  0  0  1  0  0  0  0  0  0
  -30.4270  -18.9830   23.1860 C   0  0  0  0  0  2  0  0  0  0  0  0
  -31.4550  -17.9810   22.8260 N   0  0  0  0  0  4  0  0  0  0  0  0
  -32.0910  -18.3700   22.1490 H   0  0  0  0  0  0  0  0  0  0  0  0
  -31.9960  -17.8120   23.6600 H   0  0  0  0  0  0  0  0  0  0  0  0
  -31.0300  -14.3570   19.4870 C   0  0  0  0  0  0  0  0  0  0  0  0
  -30.3640  -12.3450   18.2360 C   0  0  0  0  0  2  0  0  0  0  0  0
  -29.2470  -12.6080   17.2140 C   0  0  0  0  0  2  0  0  0  0  0  0
  -27.8650  -12.4750   17.8760 C   0  0  0  0  0  2  0  0  0  0  0  0
  -27.7550  -13.3110   19.1740 C   0  0  0  0  0  3  0  0  0  0  0  0
  -28.9600  -13.0590   20.1060 C   0  0  0  0  0  2  0  0  0  0  0  0
  -30.2190  -13.2760   19.3640 N   0  0  0  0  0  0  0  0  0  0  0  0
  -31.7710  -14.7590   18.5840 O   0  0  0  0  0  0  0  0  0  0  0  0
  -31.7050  -15.4790   22.9160 C   0  0  0  0  0  2  0  0  0  0  0  0
  -31.4080  -14.3390   21.9360 C   0  0  0  0  0  2  0  0  0  0  0  0
  -31.0410  -16.4500   20.8120 C   0  0  0  0  0  3  0  0  0  0  0  0
  -30.9420  -16.6720   22.3420 C   0  0  0  0  0  3  0  0  0  0  0  0
  -31.0150  -14.9880   20.6790 N   0  0  0  0  0  0  0  0  0  0  0  0
  -25.5570  -13.9680   20.3520 C   0  0  0  0  0  0  0  0  0  0  0  0
  -24.5180  -13.2170   20.8340 C   0  0  0  0  0  0  0  0  0  0  0  0
  -24.8770  -11.8530   20.6060 C   0  0  0  0  0  0  0  0  0  0  0  0
  -26.4870  -13.0630   19.8610 N   0  0  0  0  0  0  0  0  0  0  0  0
  -26.0880  -11.7810   20.0670 N   0  0  0  0  0  0  0  0  0  0  0  0
  -24.1150  -10.6160   20.8170 C   0  0  0  0  0  0  0  0  0  0  0  0
  -24.5490   -9.6270   21.7270 C   0  0  0  0  0  3  0  0  0  0  0  0
  -23.7900   -8.4520   21.9240 C   0  0  0  0  0  3  0  0  0  0  0  0
  -22.5830   -8.2600   21.2110 C   0  0  0  0  0  0  0  0  0  0  0  0
  -22.1670   -9.2380   20.2890 C   0  0  0  0  0  3  0  0  0  0  0  0
  -22.9260  -10.4020   20.0910 C   0  0  0  0  0  3  0  0  0  0  0  0
  -21.7930   -7.1410   21.3180 O   0  0  0  0  0  0  0  0  0  0  0  0
  -21.6400   -6.4790   22.5100 C   0  0  0  0  0  0  0  0  0  0  0  0
  -21.1930   -7.1380   23.6760 C   0  0  0  0  0  3  0  0  0  0  0  0
  -20.9840   -6.4070   24.8630 C   0  0  0  0  0  3  0  0  0  0  0  0
  -21.2110   -5.0180   24.8840 C   0  0  0  0  0  0  0  0  0  0  0  0
  -21.6500   -4.3580   23.7210 C   0  0  0  0  0  3  0  0  0  0  0  0
  -21.8610   -5.0870   22.5380 C   0  0  0  0  0  0  0  0  0  0  0  0
  -22.2640   -4.4430   21.4160 F   0  0  0  0  0  0  0  0  0  0  0  0
  -21.0010   -4.3130   26.0200 F   0  0  0  0  0  0  0  0  0  0  0  0
  -23.2240  -13.7330   21.3980 C   0  0  0  0  0  0  0  0  0  0  0  0
  -22.6480  -13.0250   22.3630 N   0  0  0  0  0  0  0  0  0  0  0  0
  -22.7410  -14.7980   21.0160 O   0  0  0  0  0  0  0  0  0  0  0  0
  -23.0560  -12.1630   22.6930 H   0  0  0  0  0  0  0  0  0  0  0  0
  -21.7880  -13.3510   22.7790 H   0  0  0  0  0  0  0  0  0  0  0  0
  -25.7870  -15.3390   20.2790 N   0  0  0  0  0  0  0  0  0  0  0  0
  -25.1260  -16.0210   20.6360 H   0  0  0  0  0  0  0  0  0  0  0  0
  -26.6790  -15.7490   20.0180 H   0  0  0  0  0  0  0  0  0  0  0  0
  -29.8460  -17.0800   20.0550 C   0  0  0  0  0  0  0  0  0  0  0  0
  -30.1170  -18.2900   19.1730 C   0  0  0  0  0  1  0  0  0  0  0  0
  -28.6980  -16.6360   20.1330 O   0  0  0  0  0  0  0  0  0  0  0  0
  1 50  1  0
  2  1  1  0
  3  2  1  0
  4  3  1  0
  7  6  1  6
  7  4  1  0
  7  5  1  0
  8  7  1  0
  9 11  1  0
  9  8  1  0
 10 21  2  0
 11 16  1  0
 12 20  1  0
 12 22  1  0
 13 19  1  0
 13 15  1  0
 14 20  1  0
 15 14  1  0
 16 15  2  0
 17 18  1  0
 17 11  2  0
 18 13  2  0
 19 12  1  0
 20 10  1  0
 22 24  2  0
 23 22  1  0
 25 23  1  0
 26 35  2  0
 26 31  1  0
 27 23  1  0
 27 31  1  0
 28 27  1  0
 29 30  1  0
 29 28  1  0
 30 26  1  0
 31 32  2  0
 32 33  1  0
 34 33  2  0
 35 34  1  0
 36 10  1  0
 36 37  1  0
 36 46  1  0
 37 40  1  0
 38 42  1  0
 38 37  1  0
 39 38  2  0
 42 41  1  0
 44 42  1  0
 44 45  1  0
 44 43  1  0
 46 49  1  1
 46 47  1  0
 48 46  1  0
 51 50  1  0
 51 53  1  0
 52 51  1  0
 54 66  1  0
 55 60  1  0
 56 57  1  0
 56 55  1  0
 58 57  1  0
 58 70  1  0
 58 59  1  0
 60 54  1  0
 60 59  1  0
 61 54  2  0
 63 62  1  0
 64 95  1  0
 64 65  1  0
 65 51  1  0
 65 62  1  0
 66 64  1  0
 66 63  1  0
 67 68  2  0
 68 87  1  0
 69 72  1  0
 69 68  1  0
 70 71  1  0
 70 67  1  0
 71 69  2  0
 72 73  1  0
 73 74  2  0
 75 78  1  0
 75 74  1  0
 76 75  2  0
 77 76  1  0
 77 72  2  0
 78 79  1  0
 79 84  2  0
 79 80  1  0
 80 81  2  0
 81 82  1  0
 82 86  1  0
 83 82  2  0
 84 83  1  0
 85 84  1  0
 87 88  1  0
 88 90  1  0
 88 91  1  0
 89 87  2  0
 92 67  1  0
 92 93  1  0
 94 92  1  0
 95 97  2  0
 96 95  1  0
M  ISO  4   8 101   9 101  54 100  66 100
M  END
>  <TORSDO>  (44) 
F 24

>  <SCORE>  (44) 
-8.428

>  <name>  (44) 
46

>  <ligand_id>  (44) 
46

>  <original_smiles>  (44) 
[H]c1c([H])c([H])c2c(c1[H])C([H])([H])C([H])([H])C([H])([H])C2([H])N([H])C(=O)C1([H])N(C(=O)C([H])(N([H])C(=O)C([H])(N([H])C([H])([H])[H])C([H])([H])[H])C(C([H])([H])[H])(C([H])([H])[H])C([H])([H])[H])C([H])([H])c2c([H])c(OC([H])([H])C(C([H])([H])[H])(C([H])([H])[H])C([H])([H])C([H])([H])C([H])([H])C([H])([H])C([H])([H])[N+]([H])([H])C3([H])C([H])(C(=O)C([H])([H])[H])N(C(=O)N4C([H])([H])C([H])([H])C([H])([H])C([H])(n5nc(-c6c([H])c([H])c(Oc7c([H])c([H])c(F)c([H])c7F)c([H])c6[H])c(C(=O)N([H])[H])c5N([H])[H])C4([H])[H])C([H])([H])C3([H])[H])c([H])c([H])c2C1([H])[H]

>  <smiles>  (44) 
[H]c1c([H])c([H])c2c(c1[H])C([H])([H])C([H])([H])C([H])([H])C2([H])N([H])C(=O)C1([H])N(C(=O)C([H])(N([H])C(=O)C([H])(N([H])C([H])([H])[H])C([H])([H])[H])C(C([H])([H])[H])(C([H])([H])[H])C([H])([H])[H])C([H])([H])c2c([H])c(OC([H])([H])C(C([H])([H])[H])(C([H])([H])[H])C([H])([H])C([H])([H])C([H])([H])C([H])([H])C([H])([H])[N+]([H])([H])C3([H])C([H])(C(=O)C([H])([H])[H])N(C(=O)N4C([H])([H])C([H])([H])C([H])([H])C([H])(n5nc(-c6c([H])c([H])c(Oc7c([H])c([H])c(F)c([H])c7F)c([H])c6[H])c(C(=O)N([H])[H])c5N([H])[H])C4([H])[H])C([H])([H])C3([H])[H])c([H])c([H])c2C1([H])[H]

$$$$
47:0:0
     RDKit          3D

 95102  0  0  1  0  0  0  0  0999 V2000
  -28.7420  -19.8540   20.4070 C   0  0  0  0  0  0  0  0  0  0  0  0
  -27.5850  -20.3660   20.9000 N   0  0  0  0  0  4  0  0  0  0  0  0
  -29.6310  -20.5570   19.6750 N   0  0  0  0  0  0  0  0  0  0  0  0
  -27.0130  -19.7210   21.4420 H   0  0  0  0  0  0  0  0  0  0  0  0
  -27.2880  -21.3260   20.7790 H   0  0  0  0  0  0  0  0  0  0  0  0
  -30.4460  -20.0750   19.3330 H   0  0  0  0  0  0  0  0  0  0  0  0
  -29.0380  -18.3770   20.7160 C   0  0  0  0  0  0  0  0  0  0  0  0
  -28.5970  -17.9130   21.7760 O   0  0  0  0  0  0  0  0  0  0  0  0
  -29.8720  -17.5080   19.7600 C   0  0  0  0  0  2  0  0  0  0  0  0
  -30.3030  -16.1650   20.3830 C   0  0  0  0  0  2  0  0  0  0  0  0
  -31.1160  -15.2630   19.4320 C   0  0  0  0  0  2  0  0  0  0  0  0
  -31.6970  -12.8370   19.4500 C   0  0  0  0  0  0  0  0  0  0  0  0
  -31.3720  -10.3910   19.3260 C   0  0  0  0  0  2  0  0  0  0  0  0
  -30.3490  -10.0290   18.2310 C   0  0  0  0  0  2  0  0  0  0  0  0
  -28.9060  -10.1130   18.7690 C   0  0  0  0  0  2  0  0  0  0  0  0
  -28.6270  -11.4480   19.5050 C   0  0  0  0  0  3  0  0  0  0  0  0
  -29.7350  -11.7160   20.5450 C   0  0  0  0  0  2  0  0  0  0  0  0
  -31.0440  -11.7200   19.8550 N   0  0  0  0  0  0  0  0  0  0  0  0
  -32.6120  -12.8450   18.6200 O   0  0  0  0  0  0  0  0  0  0  0  0
  -31.2390  -13.9460   20.0390 N   0  0  0  0  0  0  0  0  0  0  0  0
  -30.6220  -13.7650   20.8180 H   0  0  0  0  0  0  0  0  0  0  0  0
  -26.5130  -12.5280   20.5170 C   0  0  0  0  0  0  0  0  0  0  0  0
  -25.3440  -11.9860   20.9770 C   0  0  0  0  0  0  0  0  0  0  0  0
  -25.4790  -10.5700   20.8300 C   0  0  0  0  0  0  0  0  0  0  0  0
  -27.3010  -11.4560   20.1230 N   0  0  0  0  0  0  0  0  0  0  0  0
  -26.6830  -10.2710   20.3640 N   0  0  0  0  0  0  0  0  0  0  0  0
  -24.5130   -9.4870   21.0500 C   0  0  0  0  0  0  0  0  0  0  0  0
  -24.5890   -8.6490   22.1850 C   0  0  0  0  0  3  0  0  0  0  0  0
  -23.6370   -7.6260   22.3830 C   0  0  0  0  0  3  0  0  0  0  0  0
  -22.5960   -7.4320   21.4450 C   0  0  0  0  0  0  0  0  0  0  0  0
  -22.5380   -8.2540   20.3060 C   0  0  0  0  0  3  0  0  0  0  0  0
  -23.4890   -9.2690   20.1060 C   0  0  0  0  0  3  0  0  0  0  0  0
  -21.6450   -6.4460   21.5430 O   0  0  0  0  0  0  0  0  0  0  0  0
  -20.9930   -6.1880   22.7220 C   0  0  0  0  0  0  0  0  0  0  0  0
  -20.1910   -7.1620   23.3560 C   0  0  0  0  0  3  0  0  0  0  0  0
  -19.4810   -6.8340   24.5300 C   0  0  0  0  0  3  0  0  0  0  0  0
  -19.5650   -5.5340   25.0630 C   0  0  0  0  0  0  0  0  0  0  0  0
  -20.3570   -4.5620   24.4300 C   0  0  0  0  0  3  0  0  0  0  0  0
  -21.0670   -4.8870   23.2590 C   0  0  0  0  0  0  0  0  0  0  0  0
  -21.8130   -3.9400   22.6410 F   0  0  0  0  0  0  0  0  0  0  0  0
  -18.8780   -5.2160   26.1860 F   0  0  0  0  0  0  0  0  0  0  0  0
  -24.1260  -12.7350   21.4350 C   0  0  0  0  0  0  0  0  0  0  0  0
  -23.3890  -12.1810   22.3930 N   0  0  0  0  0  0  0  0  0  0  0  0
  -23.8480  -13.8410   20.9760 O   0  0  0  0  0  0  0  0  0  0  0  0
  -23.6270  -11.2790   22.7790 H   0  0  0  0  0  0  0  0  0  0  0  0
  -22.5770  -12.6690   22.7430 H   0  0  0  0  0  0  0  0  0  0  0  0
  -26.9680  -13.8370   20.3810 N   0  0  0  0  0  0  0  0  0  0  0  0
  -26.3900  -14.6400   20.5970 H   0  0  0  0  0  0  0  0  0  0  0  0
  -27.8400  -14.0790   19.9290 H   0  0  0  0  0  0  0  0  0  0  0  0
  -29.5340  -21.9790   19.3330 C   0  0  0  0  0  2  0  0  0  0  0  0
  -30.2340  -22.8760   20.3720 C   0  0  0  0  0  2  0  0  0  0  0  0
  -31.7400  -23.0880   20.1080 C   0  0  0  0  0  2  0  0  0  0  0  0
  -32.3280  -24.1840   21.0110 C   0  0  0  0  0  2  0  0  0  0  0  0
  -33.3400  -25.0990   20.2860 C   0  0  0  0  0  2  0  0  0  0  0  0
  -32.9540  -26.4710   20.3750 O   0  0  0  0  0  0  0  0  0  0  0  0
  -26.7930  -29.0610   22.7530 C   0  0  0  0  0  0  0  0  0  0  0  0
  -31.6610  -26.8140   20.0320 C   0  0  0  0  0  0  0  0  0  0  0  0
  -26.7490  -28.1010   20.4940 C   0  0  0  0  0  3  0  0  0  0  0  0
  -29.0030  -27.5680   19.4410 C   0  0  0  0  0  0  0  0  0  0  0  0
  -28.9000  -29.1020   21.4170 C   0  0  0  0  0  2  0  0  0  0  0  0
  -29.6560  -28.1140   20.5540 C   0  0  0  0  0  0  0  0  0  0  0  0
  -30.9800  -27.7390   20.8510 C   0  0  0  0  0  3  0  0  0  0  0  0
  -30.9870  -26.2750   18.9070 C   0  0  0  0  0  3  0  0  0  0  0  0
  -29.6620  -26.6420   18.6170 C   0  0  0  0  0  3  0  0  0  0  0  0
  -27.5860  -28.0260   19.1890 C   0  0  0  0  0  2  0  0  0  0  0  0
  -27.4760  -28.7520   21.6180 N   0  0  0  0  0  0  0  0  0  0  0  0
  -25.5750  -28.8500   22.8500 O   0  0  0  0  0  0  0  0  0  0  0  0
  -26.2420  -26.6840   20.8340 C   0  0  0  0  0  0  0  0  0  0  0  0
  -25.4430  -26.1890   19.8970 N   0  0  0  0  0  0  0  0  0  0  0  0
  -26.5910  -26.0760   21.8450 O   0  0  0  0  0  0  0  0  0  0  0  0
  -25.1980  -26.8470   19.1700 H   0  0  0  0  0  0  0  0  0  0  0  0
  -23.5330  -23.5850   18.0210 C   0  0  0  0  0  0  0  0  0  0  0  0
  -25.0310  -24.8450   19.5890 C   0  0  0  0  0  3  0  0  0  0  0  0
  -25.9970  -23.6580   19.6470 C   0  0  0  0  0  2  0  0  0  0  0  0
  -26.0660  -23.0230   18.2420 C   0  0  0  0  0  2  0  0  0  0  0  0
  -24.6710  -22.6050   17.7230 C   0  0  0  0  0  2  0  0  0  0  0  0
  -23.6640  -24.5970   19.0020 C   0  0  0  0  0  0  0  0  0  0  0  0
  -22.5940  -25.4740   19.2690 C   0  0  0  0  0  3  0  0  0  0  0  0
  -21.4060  -25.3770   18.5220 C   0  0  0  0  0  3  0  0  0  0  0  0
  -21.2820  -24.3950   17.5220 C   0  0  0  0  0  3  0  0  0  0  0  0
  -22.3360  -23.4940   17.2830 C   0  0  0  0  0  3  0  0  0  0  0  0
  -27.5070  -29.7120   23.9740 C   0  0  0  0  0  3  0  0  0  0  0  0
  -27.6310  -28.7350   25.2050 C   0  0  1  0  0  0  0  0  0  0  0  0
  -26.3080  -28.0230   25.5740 C   0  0  0  0  0  1  0  0  0  0  0  0
  -28.6920  -27.6460   24.9290 C   0  0  0  0  0  1  0  0  0  0  0  0
  -28.1140  -29.5220   26.4450 C   0  0  0  0  0  1  0  0  0  0  0  0
  -26.7470  -30.9160   24.3350 N   0  0  0  0  0  0  0  0  0  0  0  0
  -27.0950  -32.1620   23.9880 C   0  0  0  0  0  0  0  0  0  0  0  0
  -28.1420  -32.4240   23.3890 O   0  0  0  0  0  0  0  0  0  0  0  0
  -25.8530  -30.7710   24.7800 H   0  0  0  0  0  0  0  0  0  0  0  0
  -25.3120  -33.7130   23.1350 C   0  0  0  0  0  1  0  0  0  0  0  0
  -26.1280  -33.2980   24.3690 C   0  0  0  0  0  3  0  0  0  0  0  0
  -27.3790  -34.2340   26.2630 C   0  0  0  0  0  1  0  0  0  0  0  0
  -26.8090  -34.4810   24.9400 N   0  0  0  0  0  0  0  0  0  0  0  0
  -26.1670  -35.2670   25.0140 H   0  0  0  0  0  0  0  0  0  0  0  0
  1  7  1  0
  1  2  2  0
  2  4  1  0
  3  1  1  0
  5  2  1  0
  6  3  1  0
  7  8  2  0
  9 10  1  0
  9  7  1  0
 11 20  1  0
 11 10  1  0
 12 18  1  0
 12 20  1  0
 13 18  1  0
 14 15  1  0
 14 13  1  0
 16 15  1  0
 16 25  1  0
 16 17  1  0
 18 17  1  0
 19 12  2  0
 20 21  1  0
 22 23  2  0
 23 42  1  0
 24 23  1  0
 24 27  1  0
 25 26  1  0
 25 22  1  0
 26 24  2  0
 27 28  1  0
 28 29  2  0
 30 33  1  0
 30 29  1  0
 31 30  2  0
 32 31  1  0
 32 27  2  0
 33 34  1  0
 34 39  2  0
 34 35  1  0
 35 36  2  0
 36 37  1  0
 37 41  1  0
 38 37  2  0
 39 38  1  0
 40 39  1  0
 42 43  1  0
 43 46  1  0
 43 45  1  0
 44 42  2  0
 47 22  1  0
 47 48  1  0
 49 47  1  0
 50  3  1  0
 50 51  1  0
 52 51  1  0
 52 53  1  0
 54 55  1  0
 54 53  1  0
 56 67  2  0
 57 55  1  0
 57 62  1  0
 58 68  1  0
 58 66  1  0
 59 61  1  0
 60 66  1  0
 61 62  2  0
 61 60  1  0
 63 57  2  0
 64 63  1  0
 64 59  2  0
 65 59  1  0
 65 58  1  0
 66 56  1  0
 68 70  2  0
 69 68  1  0
 71 69  1  0
 72 77  1  0
 73 74  1  0
 73 69  1  0
 75 74  1  0
 76 72  1  0
 76 75  1  0
 77 78  2  0
 77 73  1  0
 79 78  1  0
 80 79  2  0
 81 80  1  0
 81 72  2  0
 82 56  1  0
 82 87  1  0
 82 83  1  0
 83 84  1  1
 83 86  1  0
 85 83  1  0
 87 90  1  0
 88 87  1  0
 88 92  1  0
 89 88  2  0
 92 91  1  0
 92 94  1  0
 94 95  1  0
 94 93  1  0
M  ISO  4  12 100  20 100  54 101  55 101
M  END
>  <TORSDO>  (45) 
F 25

>  <SCORE>  (45) 
-2.545

>  <name>  (45) 
47

>  <ligand_id>  (45) 
47

>  <original_smiles>  (45) 
[H]c1c([H])c([H])c2c(c1[H])C([H])([H])C([H])([H])C([H])([H])C2([H])N([H])C(=O)C1([H])N(C(=O)C([H])(N([H])C(=O)C([H])(N([H])C([H])([H])[H])C([H])([H])[H])C(C([H])([H])[H])(C([H])([H])[H])C([H])([H])[H])C([H])([H])c2c([H])c(OC([H])([H])C([H])([H])C([H])([H])C([H])([H])C([H])([H])[N+]([H])=C(C(=O)C([H])([H])C([H])([H])C([H])([H])N([H])C(=O)N3C([H])([H])C([H])([H])C([H])([H])C([H])(n4nc(-c5c([H])c([H])c(Oc6c([H])c([H])c(F)c([H])c6F)c([H])c5[H])c(C(=O)N([H])[H])c4N([H])[H])C3([H])[H])N([H])[H])c([H])c([H])c2C1([H])[H]

>  <smiles>  (45) 
[H]c1c([H])c([H])c2c(c1[H])C([H])([H])C([H])([H])C([H])([H])C2([H])N([H])C(=O)C1([H])N(C(=O)C([H])(N([H])C(=O)C([H])(N([H])C([H])([H])[H])C([H])([H])[H])C(C([H])([H])[H])(C([H])([H])[H])C([H])([H])[H])C([H])([H])c2c([H])c(OC([H])([H])C([H])([H])C([H])([H])C([H])([H])C([H])([H])[N+]([H])=C(C(=O)C([H])([H])C([H])([H])C([H])([H])N([H])C(=O)N3C([H])([H])C([H])([H])C([H])([H])C([H])(n4nc(-c5c([H])c([H])c(Oc6c([H])c([H])c(F)c([H])c6F)c([H])c5[H])c(C(=O)N([H])[H])c4N([H])[H])C3([H])[H])N([H])[H])c([H])c([H])c2C1([H])[H]

$$$$
48:0:0
     RDKit          3D

 93101  0  0  1  0  0  0  0  0999 V2000
  -30.4920  -22.2270   20.9550 C   0  0  0  0  0  0  0  0  0  0  0  0
  -31.6580  -22.5560   21.1830 O   0  0  0  0  0  0  0  0  0  0  0  0
  -29.6350  -21.5760   22.0500 C   0  0  0  0  0  2  0  0  0  0  0  0
  -31.0350  -19.6390   23.0850 C   0  0  0  0  0  2  0  0  0  0  0  0
  -29.8250  -19.1200   21.0650 C   0  0  0  0  0  2  0  0  0  0  0  0
  -29.7970  -20.0500   22.2800 C   0  0  0  0  0  3  0  0  0  0  0  0
  -31.2690  -18.1480   22.7790 C   0  0  0  0  0  3  0  0  0  0  0  0
  -30.2800  -17.7790   21.6560 C   0  0  0  0  0  3  0  0  0  0  0  0
  -31.1220  -17.2540   24.0170 C   0  0  0  0  0  1  0  0  0  0  0  0
  -30.8950  -16.8500   20.6030 C   0  0  0  0  0  2  0  0  0  0  0  0
  -31.1630  -14.4640   20.1800 C   0  0  0  0  0  0  0  0  0  0  0  0
  -30.6660  -12.4150   18.9300 C   0  0  0  0  0  2  0  0  0  0  0  0
  -29.6870  -12.7590   17.7910 C   0  0  0  0  0  2  0  0  0  0  0  0
  -28.2280  -12.6810   18.2820 C   0  0  0  0  0  2  0  0  0  0  0  0
  -27.9970  -13.4530   19.6070 C   0  0  0  0  0  3  0  0  0  0  0  0
  -29.0890  -13.0990   20.6470 C   0  0  0  0  0  2  0  0  0  0  0  0
  -30.4100  -13.3460   20.0360 N   0  0  0  0  0  0  0  0  0  0  0  0
  -32.2330  -14.6540   19.5910 O   0  0  0  0  0  0  0  0  0  0  0  0
  -30.5840  -15.4500   20.8600 N   0  0  0  0  0  0  0  0  0  0  0  0
  -29.7280  -15.2350   21.3470 H   0  0  0  0  0  0  0  0  0  0  0  0
  -25.6470  -14.1280   20.4220 C   0  0  0  0  0  0  0  0  0  0  0  0
  -24.5680  -13.3810   20.8210 C   0  0  0  0  0  0  0  0  0  0  0  0
  -24.9800  -12.0170   20.7390 C   0  0  0  0  0  0  0  0  0  0  0  0
  -26.6520  -13.2160   20.1330 N   0  0  0  0  0  0  0  0  0  0  0  0
  -26.2540  -11.9410   20.3780 N   0  0  0  0  0  0  0  0  0  0  0  0
  -24.2200  -10.7740   20.9290 C   0  0  0  0  0  0  0  0  0  0  0  0
  -24.6250   -9.8010   21.8680 C   0  0  0  0  0  3  0  0  0  0  0  0
  -23.8720   -8.6200   22.0470 C   0  0  0  0  0  3  0  0  0  0  0  0
  -22.6970   -8.4070   21.2850 C   0  0  0  0  0  0  0  0  0  0  0  0
  -22.3120   -9.3690   20.3340 C   0  0  0  0  0  3  0  0  0  0  0  0
  -23.0660  -10.5400   20.1550 C   0  0  0  0  0  3  0  0  0  0  0  0
  -21.9150   -7.2810   21.3750 O   0  0  0  0  0  0  0  0  0  0  0  0
  -21.7910   -6.5820   22.5490 C   0  0  0  0  0  0  0  0  0  0  0  0
  -21.3410   -7.1960   23.7380 C   0  0  0  0  0  3  0  0  0  0  0  0
  -21.1590   -6.4250   24.9020 C   0  0  0  0  0  3  0  0  0  0  0  0
  -21.4170   -5.0410   24.8810 C   0  0  0  0  0  0  0  0  0  0  0  0
  -21.8600   -4.4270   23.6970 C   0  0  0  0  0  3  0  0  0  0  0  0
  -22.0440   -5.1950   22.5340 C   0  0  0  0  0  0  0  0  0  0  0  0
  -22.4500   -4.5940   21.3900 F   0  0  0  0  0  0  0  0  0  0  0  0
  -21.2340   -4.3000   25.9980 F   0  0  0  0  0  0  0  0  0  0  0  0
  -23.2010  -13.8960   21.1670 C   0  0  0  0  0  0  0  0  0  0  0  0
  -22.4970  -13.2180   22.0680 N   0  0  0  0  0  0  0  0  0  0  0  0
  -22.7630  -14.9340   20.6720 O   0  0  0  0  0  0  0  0  0  0  0  0
  -22.8650  -12.3810   22.4950 H   0  0  0  0  0  0  0  0  0  0  0  0
  -21.5780  -13.5450   22.3350 H   0  0  0  0  0  0  0  0  0  0  0  0
  -25.8550  -15.4960   20.2670 N   0  0  0  0  0  0  0  0  0  0  0  0
  -25.1270  -16.1850   20.4170 H   0  0  0  0  0  0  0  0  0  0  0  0
  -26.7110  -15.9000   19.9100 H   0  0  0  0  0  0  0  0  0  0  0  0
  -29.8880  -22.4510   19.5590 C   0  0  0  0  0  2  0  0  0  0  0  0
  -28.4090  -22.8970   19.5200 C   0  0  0  0  0  2  0  0  0  0  0  0
  -28.1100  -24.2550   20.1920 C   0  0  0  0  0  2  0  0  0  0  0  0
  -28.4670  -25.4590   19.3010 C   0  0  0  0  0  2  0  0  0  0  0  0
  -28.3240  -26.6970   19.9930 O   0  0  0  0  0  0  0  0  0  0  0  0
  -24.5550  -31.7860   23.1820 C   0  0  0  0  0  0  0  0  0  0  0  0
  -27.1150  -27.3610   20.0130 C   0  0  0  0  0  0  0  0  0  0  0  0
  -23.3060  -30.4050   21.5530 C   0  0  0  0  0  3  0  0  0  0  0  0
  -24.7180  -28.8630   20.0950 C   0  0  0  0  0  0  0  0  0  0  0  0
  -25.8270  -30.7510   21.3060 C   0  0  0  0  0  2  0  0  0  0  0  0
  -25.8870  -29.3810   20.6620 C   0  0  0  0  0  0  0  0  0  0  0  0
  -27.0840  -28.6340   20.6260 C   0  0  0  0  0  3  0  0  0  0  0  0
  -25.9230  -26.8480   19.4520 C   0  0  0  0  0  3  0  0  0  0  0  0
  -24.7270  -27.5920   19.4930 C   0  0  0  0  0  3  0  0  0  0  0  0
  -23.4830  -29.7300   20.1650 C   0  0  0  0  0  2  0  0  0  0  0  0
  -24.5820  -30.9950   22.0720 N   0  0  0  0  0  0  0  0  0  0  0  0
  -23.4880  -32.0620   23.7450 O   0  0  0  0  0  0  0  0  0  0  0  0
  -22.6640  -29.3840   22.5190 C   0  0  0  0  0  0  0  0  0  0  0  0
  -21.3440  -29.1760   22.3820 N   0  0  0  0  0  0  0  0  0  0  0  0
  -23.3500  -28.7810   23.3490 O   0  0  0  0  0  0  0  0  0  0  0  0
  -20.8480  -29.7200   21.6890 H   0  0  0  0  0  0  0  0  0  0  0  0
  -17.9970  -27.8820   22.8050 C   0  0  0  0  0  0  0  0  0  0  0  0
  -20.5350  -28.2320   23.1530 C   0  0  0  0  0  3  0  0  0  0  0  0
  -20.7010  -26.7880   22.6230 C   0  0  0  0  0  2  0  0  0  0  0  0
  -19.6450  -26.4020   21.5830 C   0  0  0  0  0  2  0  0  0  0  0  0
  -18.2380  -26.5200   22.1780 C   0  0  0  0  0  2  0  0  0  0  0  0
  -19.0760  -28.6920   23.2490 C   0  0  0  0  0  0  0  0  0  0  0  0
  -18.7980  -29.9660   23.7910 C   0  0  0  0  0  3  0  0  0  0  0  0
  -17.4730  -30.4300   23.8950 C   0  0  0  0  0  3  0  0  0  0  0  0
  -16.4070  -29.6170   23.4700 C   0  0  0  0  0  3  0  0  0  0  0  0
  -16.6700  -28.3440   22.9320 C   0  0  0  0  0  3  0  0  0  0  0  0
  -25.8590  -32.3990   23.7820 C   0  0  0  0  0  3  0  0  0  0  0  0
  -25.5640  -33.7920   24.1400 N   0  0  0  0  0  0  0  0  0  0  0  0
  -25.8920  -34.8560   23.3950 C   0  0  0  0  0  0  0  0  0  0  0  0
  -26.5450  -34.7680   22.3510 O   0  0  0  0  0  0  0  0  0  0  0  0
  -24.9780  -33.9350   24.9490 H   0  0  0  0  0  0  0  0  0  0  0  0
  -24.1690  -36.6670   23.1000 C   0  0  0  0  0  1  0  0  0  0  0  0
  -25.4200  -36.2400   23.8840 C   0  0  0  0  0  3  0  0  0  0  0  0
  -27.5790  -37.0950   24.6870 C   0  0  0  0  0  1  0  0  0  0  0  0
  -26.4580  -37.2880   23.7710 N   0  0  0  0  0  0  0  0  0  0  0  0
  -26.0620  -38.2090   23.9410 H   0  0  0  0  0  0  0  0  0  0  0  0
  -26.4020  -31.6030   25.0310 C   0  0  1  0  0  0  0  0  0  0  0  0
  -25.3340  -31.3420   26.1190 C   0  0  0  0  0  1  0  0  0  0  0  0
  -26.9750  -30.2340   24.5970 C   0  0  0  0  0  1  0  0  0  0  0  0
  -27.5640  -32.3810   25.6900 C   0  0  0  0  0  1  0  0  0  0  0  0
  1  2  2  0
  1  3  1  0
  5  8  1  0
  5  6  1  0
  6  3  1  0
  6  4  1  0
  7  4  1  0
  7  9  1  0
  8 10  1  0
  8  7  1  0
 10 19  1  0
 11 19  1  0
 12 17  1  0
 13 14  1  0
 13 12  1  0
 15 14  1  0
 15 24  1  0
 15 16  1  0
 17 11  1  0
 17 16  1  0
 18 11  2  0
 19 20  1  0
 21 22  2  0
 22 41  1  0
 23 22  1  0
 23 26  1  0
 24 25  1  0
 24 21  1  0
 25 23  2  0
 26 27  1  0
 27 28  2  0
 29 32  1  0
 29 28  1  0
 30 29  2  0
 31 30  1  0
 31 26  2  0
 32 33  1  0
 33 34  1  0
 34 35  2  0
 36 35  1  0
 36 40  1  0
 37 36  2  0
 38 33  2  0
 38 37  1  0
 39 38  1  0
 41 42  1  0
 42 45  1  0
 42 44  1  0
 43 41  2  0
 46 47  1  0
 46 21  1  0
 48 46  1  0
 49  1  1  0
 50 49  1  0
 50 51  1  0
 52 53  1  0
 52 51  1  0
 53 55  1  0
 54 65  2  0
 55 60  1  0
 56 64  1  0
 56 66  1  0
 57 63  1  0
 57 59  1  0
 58 64  1  0
 59 58  1  0
 60 59  2  0
 61 62  1  0
 61 55  2  0
 62 57  2  0
 63 56  1  0
 64 54  1  0
 66 68  2  0
 67 66  1  0
 69 67  1  0
 70 79  2  0
 70 75  1  0
 71 67  1  0
 71 75  1  0
 72 71  1  0
 73 74  1  0
 73 72  1  0
 74 70  1  0
 75 76  2  0
 76 77  1  0
 78 77  2  0
 79 78  1  0
 80 54  1  0
 80 81  1  0
 80 90  1  0
 81 84  1  0
 82 86  1  0
 82 81  1  0
 83 82  2  0
 86 85  1  0
 88 86  1  0
 88 89  1  0
 88 87  1  0
 90 93  1  1
 90 91  1  0
 92 90  1  0
M  ISO  4  11 100  19 100  52 101  53 101
M  END
>  <TORSDO>  (46) 
F 23

>  <SCORE>  (46) 
-10.279

>  <name>  (46) 
48

>  <ligand_id>  (46) 
48

>  <original_smiles>  (46) 
[H]c1c([H])c([H])c2c(c1[H])C([H])([H])C([H])([H])C([H])([H])C2([H])N([H])C(=O)C1([H])N(C(=O)C([H])(N([H])C(=O)C([H])(N([H])C([H])([H])[H])C([H])([H])[H])C(C([H])([H])[H])(C([H])([H])[H])C([H])([H])[H])C([H])([H])c2c([H])c(OC([H])([H])C([H])([H])C([H])([H])C([H])([H])C(=O)C([H])([H])C3([H])C([H])([H])C([H])(C([H])([H])[H])C([H])(C([H])([H])N([H])C(=O)N4C([H])([H])C([H])([H])C([H])([H])C([H])(n5nc(-c6c([H])c([H])c(Oc7c([H])c([H])c(F)c([H])c7F)c([H])c6[H])c(C(=O)N([H])[H])c5N([H])[H])C4([H])[H])C3([H])[H])c([H])c([H])c2C1([H])[H]

>  <smiles>  (46) 
[H]c1c([H])c([H])c2c(c1[H])C([H])([H])C([H])([H])C([H])([H])C2([H])N([H])C(=O)C1([H])N(C(=O)C([H])(N([H])C(=O)C([H])(N([H])C([H])([H])[H])C([H])([H])[H])C(C([H])([H])[H])(C([H])([H])[H])C([H])([H])[H])C([H])([H])c2c([H])c(OC([H])([H])C([H])([H])C([H])([H])C([H])([H])C(=O)C([H])([H])C3([H])C([H])([H])C([H])(C([H])([H])[H])C([H])(C([H])([H])N([H])C(=O)N4C([H])([H])C([H])([H])C([H])([H])C([H])(n5nc(-c6c([H])c([H])c(Oc7c([H])c([H])c(F)c([H])c7F)c([H])c6[H])c(C(=O)N([H])[H])c5N([H])[H])C4([H])[H])C3([H])[H])c([H])c([H])c2C1([H])[H]

$$$$
49:0:0
     RDKit          3D

 97105  0  0  1  0  0  0  0  0999 V2000
  -28.5100  -20.4140   17.8940 C   0  0  0  0  0  1  0  0  0  0  0  0
  -29.3780  -20.4170   19.1680 C   0  0  0  0  0  3  0  0  0  0  0  0
  -29.3180  -21.7880   19.9360 C   0  0  0  0  0  0  0  0  0  0  0  0
  -29.1870  -22.9500   19.2420 N   0  0  0  0  0  0  0  0  0  0  0  0
  -29.4430  -21.8050   21.1590 O   0  0  0  0  0  0  0  0  0  0  0  0
  -29.0900  -22.8640   18.2380 H   0  0  0  0  0  0  0  0  0  0  0  0
  -29.3140  -24.3390   19.7740 C   0  0  0  0  0  2  0  0  0  0  0  0
  -28.1890  -25.3270   19.3180 C   0  0  0  0  0  2  0  0  0  0  0  0
  -28.3110  -26.7210   19.7550 O   0  0  0  0  0  0  0  0  0  0  0  0
  -24.5820  -31.8340   23.1590 C   0  0  0  0  0  0  0  0  0  0  0  0
  -27.1570  -27.5090   19.7810 C   0  0  0  0  0  0  0  0  0  0  0  0
  -23.3320  -30.4650   21.5260 C   0  0  0  0  0  3  0  0  0  0  0  0
  -24.7500  -29.0240   19.9710 C   0  0  0  0  0  0  0  0  0  0  0  0
  -25.8510  -30.8740   21.2300 C   0  0  0  0  0  2  0  0  0  0  0  0
  -25.9340  -29.5290   20.5230 C   0  0  0  0  0  0  0  0  0  0  0  0
  -27.1400  -28.7810   20.4240 C   0  0  0  0  0  3  0  0  0  0  0  0
  -25.9490  -27.0580   19.1930 C   0  0  0  0  0  3  0  0  0  0  0  0
  -24.7590  -27.7930   19.3040 C   0  0  0  0  0  3  0  0  0  0  0  0
  -23.4920  -29.8490   20.1150 C   0  0  0  0  0  2  0  0  0  0  0  0
  -24.6080  -31.0730   22.0270 N   0  0  0  0  0  0  0  0  0  0  0  0
  -23.5210  -32.0600   23.7580 O   0  0  0  0  0  0  0  0  0  0  0  0
  -22.7500  -29.3890   22.4750 C   0  0  0  0  0  0  0  0  0  0  0  0
  -21.4350  -29.1410   22.3680 N   0  0  0  0  0  0  0  0  0  0  0  0
  -23.4800  -28.7830   23.2650 O   0  0  0  0  0  0  0  0  0  0  0  0
  -20.9080  -29.6860   21.7010 H   0  0  0  0  0  0  0  0  0  0  0  0
  -18.1400  -27.7520   22.8820 C   0  0  0  0  0  0  0  0  0  0  0  0
  -20.6790  -28.1520   23.1370 C   0  0  0  0  0  3  0  0  0  0  0  0
  -20.8500  -26.7330   22.5420 C   0  0  0  0  0  2  0  0  0  0  0  0
  -19.7620  -26.3650   21.5250 C   0  0  0  0  0  2  0  0  0  0  0  0
  -18.3830  -26.4240   22.1880 C   0  0  0  0  0  2  0  0  0  0  0  0
  -19.2160  -28.5720   23.3130 C   0  0  0  0  0  0  0  0  0  0  0  0
  -18.9280  -29.8140   23.9170 C   0  0  0  0  0  3  0  0  0  0  0  0
  -17.5980  -30.2350   24.1000 C   0  0  0  0  0  3  0  0  0  0  0  0
  -16.5370  -29.4100   23.6910 C   0  0  0  0  0  3  0  0  0  0  0  0
  -16.8100  -28.1730   23.0830 C   0  0  0  0  0  3  0  0  0  0  0  0
  -25.8760  -32.4740   23.7460 C   0  0  0  0  0  3  0  0  0  0  0  0
  -25.5620  -33.8660   24.1000 N   0  0  0  0  0  0  0  0  0  0  0  0
  -25.8460  -34.9300   23.3370 C   0  0  0  0  0  0  0  0  0  0  0  0
  -26.4720  -34.8440   22.2770 O   0  0  0  0  0  0  0  0  0  0  0  0
  -24.9910  -34.0090   24.9200 H   0  0  0  0  0  0  0  0  0  0  0  0
  -24.0720  -36.6970   23.0850 C   0  0  0  0  0  1  0  0  0  0  0  0
  -25.3610  -36.3080   23.8270 C   0  0  0  0  0  3  0  0  0  0  0  0
  -27.5180  -37.2270   24.5540 C   0  0  0  0  0  1  0  0  0  0  0  0
  -26.3680  -37.3800   23.6660 N   0  0  0  0  0  0  0  0  0  0  0  0
  -25.9540  -38.2910   23.8360 H   0  0  0  0  0  0  0  0  0  0  0  0
  -26.4470  -31.7010   24.9970 C   0  0  1  0  0  0  0  0  0  0  0  0
  -25.3930  -31.4370   26.0970 C   0  0  0  0  0  1  0  0  0  0  0  0
  -27.0340  -30.3330   24.5770 C   0  0  0  0  0  1  0  0  0  0  0  0
  -27.6100  -32.5060   25.6260 C   0  0  0  0  0  1  0  0  0  0  0  0
  -29.0790  -19.1310   20.0400 C   0  0  0  0  0  3  0  0  0  0  0  0
  -29.7840  -17.7990   19.5860 C   0  0  0  0  0  3  0  0  0  0  0  0
  -30.7350  -14.6140   19.2530 C   0  0  0  0  0  0  0  0  0  0  0  0
  -30.1600  -12.5210   18.0700 C   0  0  0  0  0  2  0  0  0  0  0  0
  -29.0260  -12.7620   17.0580 C   0  0  0  0  0  2  0  0  0  0  0  0
  -27.6600  -12.5880   17.7390 C   0  0  0  0  0  2  0  0  0  0  0  0
  -27.5560  -13.3910   19.0600 C   0  0  0  0  0  3  0  0  0  0  0  0
  -28.7840  -13.1580   19.9680 C   0  0  0  0  0  2  0  0  0  0  0  0
  -29.9960  -13.4680   19.1860 N   0  0  0  0  0  0  0  0  0  0  0  0
  -31.6630  -14.8440   18.4710 O   0  0  0  0  0  0  0  0  0  0  0  0
  -31.8690  -16.7760   22.0010 C   0  0  0  0  0  2  0  0  0  0  0  0
  -29.3140  -16.7990   21.9550 C   0  0  0  0  0  2  0  0  0  0  0  0
  -31.6140  -15.4010   21.3590 C   0  0  0  0  0  2  0  0  0  0  0  0
  -30.5880  -17.3830   22.6120 C   0  0  0  0  0  3  0  0  0  0  0  0
  -29.5130  -16.4990   20.4500 C   0  0  0  0  0  3  0  0  0  0  0  0
  -30.5460  -15.4170   20.3340 N   0  0  0  0  0  0  0  0  0  0  0  0
  -25.3230  -13.9890   20.1850 C   0  0  0  0  0  0  0  0  0  0  0  0
  -24.3260  -13.2130   20.7110 C   0  0  0  0  0  0  0  0  0  0  0  0
  -24.7670  -11.8610   20.5720 C   0  0  0  0  0  0  0  0  0  0  0  0
  -26.3060  -13.1090   19.7600 N   0  0  0  0  0  0  0  0  0  0  0  0
  -25.9860  -11.8230   20.0510 N   0  0  0  0  0  0  0  0  0  0  0  0
  -24.0730  -10.5970   20.8540 C   0  0  0  0  0  0  0  0  0  0  0  0
  -24.5790   -9.6690   21.7910 C   0  0  0  0  0  3  0  0  0  0  0  0
  -23.8840   -8.4700   22.0590 C   0  0  0  0  0  3  0  0  0  0  0  0
  -22.6690   -8.1900   21.3880 C   0  0  0  0  0  0  0  0  0  0  0  0
  -22.1780   -9.1070   20.4380 C   0  0  0  0  0  3  0  0  0  0  0  0
  -22.8760  -10.2980   20.1710 C   0  0  0  0  0  3  0  0  0  0  0  0
  -21.9400   -7.0400   21.5670 O   0  0  0  0  0  0  0  0  0  0  0  0
  -21.8720   -6.4100   22.7850 C   0  0  0  0  0  0  0  0  0  0  0  0
  -21.3930   -7.0660   23.9400 C   0  0  0  0  0  3  0  0  0  0  0  0
  -21.2780   -6.3600   25.1540 C   0  0  0  0  0  3  0  0  0  0  0  0
  -21.6280   -4.9970   25.2130 C   0  0  0  0  0  0  0  0  0  0  0  0
  -22.1020   -4.3410   24.0640 C   0  0  0  0  0  3  0  0  0  0  0  0
  -22.2200   -5.0450   22.8530 C   0  0  0  0  0  0  0  0  0  0  0  0
  -22.6540   -4.3990   21.7420 F   0  0  0  0  0  0  0  0  0  0  0  0
  -21.5090   -4.3160   26.3780 F   0  0  0  0  0  0  0  0  0  0  0  0
  -23.0000  -13.6880   21.2320 C   0  0  0  0  0  0  0  0  0  0  0  0
  -22.4500  -12.9910   22.2210 N   0  0  0  0  0  0  0  0  0  0  0  0
  -22.4720  -14.7130   20.8010 O   0  0  0  0  0  0  0  0  0  0  0  0
  -22.8920  -12.1600   22.5860 H   0  0  0  0  0  0  0  0  0  0  0  0
  -21.5760  -13.2940   22.6210 H   0  0  0  0  0  0  0  0  0  0  0  0
  -25.4730  -15.3630   20.0130 N   0  0  0  0  0  0  0  0  0  0  0  0
  -24.7360  -16.0230   20.2380 H   0  0  0  0  0  0  0  0  0  0  0  0
  -26.2560  -15.7990   19.5470 H   0  0  0  0  0  0  0  0  0  0  0  0
  -30.5710  -17.2370   24.0820 N   0  0  0  0  0  4  0  0  0  0  0  0
  -30.5860  -16.2710   24.3600 H   0  0  0  0  0  0  0  0  0  0  0  0
  -29.7540  -17.6790   24.4720 H   0  0  0  0  0  0  0  0  0  0  0  0
  -31.3760  -17.6860   24.4810 H   0  0  0  0  0  0  0  0  0  0  0  0
  2  1  1  0
  2  3  1  0
  2 50  1  0
  3  5  2  0
  4  7  1  0
  4  3  1  0
  6  4  1  0
  8  9  1  0
  8  7  1  0
  9 11  1  0
 10 21  2  0
 11 16  1  0
 12 20  1  0
 12 22  1  0
 13 19  1  0
 13 15  1  0
 14 20  1  0
 15 14  1  0
 16 15  2  0
 17 18  1  0
 17 11  2  0
 18 13  2  0
 19 12  1  0
 20 10  1  0
 22 24  2  0
 23 22  1  0
 25 23  1  0
 26 35  2  0
 26 31  1  0
 27 23  1  0
 27 31  1  0
 28 27  1  0
 29 30  1  0
 29 28  1  0
 30 26  1  0
 31 32  2  0
 32 33  1  0
 34 33  2  0
 35 34  1  0
 36 10  1  0
 36 37  1  0
 36 46  1  0
 37 40  1  0
 38 42  1  0
 38 37  1  0
 39 38  2  0
 42 41  1  0
 44 42  1  0
 44 45  1  0
 44 43  1  0
 46 49  1  1
 46 47  1  0
 48 46  1  0
 51 50  2  0
 52 65  1  0
 53 58  1  0
 54 55  1  0
 54 53  1  0
 56 55  1  0
 56 69  1  0
 56 57  1  0
 58 52  1  0
 58 57  1  0
 59 52  2  0
 60 63  1  0
 61 63  1  0
 62 60  1  0
 63 94  1  0
 64 51  1  0
 64 61  1  0
 65 64  1  0
 65 62  1  0
 66 67  2  0
 67 86  1  0
 68 67  1  0
 68 71  1  0
 69 70  1  0
 69 66  1  0
 70 68  2  0
 71 72  1  0
 72 73  2  0
 74 77  1  0
 74 73  1  0
 75 74  2  0
 76 75  1  0
 76 71  2  0
 77 78  1  0
 78 83  2  0
 78 79  1  0
 79 80  2  0
 80 81  1  0
 81 85  1  0
 82 81  2  0
 83 82  1  0
 84 83  1  0
 86 87  1  0
 87 89  1  0
 87 90  1  0
 88 86  2  0
 91 66  1  0
 91 92  1  0
 93 91  1  0
 94 95  1  0
 94 96  1  0
 94 97  1  0
M  ISO  4   8 101   9 101  52 100  65 100
M  END
>  <TORSDO>  (47) 
F 22

>  <SCORE>  (47) 
-8.835

>  <name>  (47) 
49

>  <ligand_id>  (47) 
49

>  <original_smiles>  (47) 
[H]c1c([H])c([H])c2c(c1[H])C([H])([H])C([H])([H])C([H])([H])C2([H])N([H])C(=O)C1([H])N(C(=O)C([H])(N([H])C(=O)C([H])(N([H])C([H])([H])[H])C([H])([H])[H])C(C([H])([H])[H])(C([H])([H])[H])C([H])([H])[H])C([H])([H])c2c([H])c(OC([H])([H])C([H])([H])N([H])C(=O)C([H])(C([H])([H])[H])C([H])([H])C([H])([H])C3([H])N(C(=O)N4C([H])([H])C([H])([H])C([H])([H])C([H])(n5nc(-c6c([H])c([H])c(Oc7c([H])c([H])c(F)c([H])c7F)c([H])c6[H])c(C(=O)N([H])[H])c5N([H])[H])C4([H])[H])C([H])([H])C([H])([H])C([H])([N+]([H])([H])[H])C3([H])[H])c([H])c([H])c2C1([H])[H]

>  <smiles>  (47) 
[H]c1c([H])c([H])c2c(c1[H])C([H])([H])C([H])([H])C([H])([H])C2([H])N([H])C(=O)C1([H])N(C(=O)C([H])(N([H])C(=O)C([H])(N([H])C([H])([H])[H])C([H])([H])[H])C(C([H])([H])[H])(C([H])([H])[H])C([H])([H])[H])C([H])([H])c2c([H])c(OC([H])([H])C([H])([H])N([H])C(=O)C([H])(C([H])([H])[H])C([H])([H])C([H])([H])C3([H])N(C(=O)N4C([H])([H])C([H])([H])C([H])([H])C([H])(n5nc(-c6c([H])c([H])c(Oc7c([H])c([H])c(F)c([H])c7F)c([H])c6[H])c(C(=O)N([H])[H])c5N([H])[H])C4([H])[H])C([H])([H])C([H])([H])C([H])([N+]([H])([H])[H])C3([H])[H])c([H])c([H])c2C1([H])[H]

$$$$
50:0:0
     RDKit          3D

 92100  0  0  1  0  0  0  0  0999 V2000
  -31.2140  -21.9880   17.9430 C   0  0  0  0  0  2  0  0  0  0  0  0
  -30.0150  -21.0470   17.7380 C   0  0  0  0  0  2  0  0  0  0  0  0
  -30.7560  -23.3750   18.4050 C   0  0  0  0  0  2  0  0  0  0  0  0
  -28.7590  -22.3280   19.5680 C   0  0  0  0  0  2  0  0  0  0  0  0
  -29.0910  -20.9390   18.9720 C   0  0  0  0  0  3  0  0  0  0  0  0
  -29.9770  -23.2710   19.7260 C   0  0  0  0  0  3  0  0  0  0  0  0
  -29.5860  -19.9100   20.0070 C   0  0  0  0  0  0  0  0  0  0  0  0
  -28.7620  -18.8790   20.2520 N   0  0  0  0  0  0  0  0  0  0  0  0
  -30.6930  -20.0150   20.5370 O   0  0  0  0  0  0  0  0  0  0  0  0
  -27.8680  -18.8910   19.7780 H   0  0  0  0  0  0  0  0  0  0  0  0
  -29.0510  -17.7150   21.0860 C   0  0  0  0  0  2  0  0  0  0  0  0
  -29.8250  -16.6420   20.3010 C   0  0  0  0  0  2  0  0  0  0  0  0
  -30.2720  -15.4520   21.1730 C   0  0  0  0  0  2  0  0  0  0  0  0
  -30.8010  -14.2870   20.3130 C   0  0  0  0  0  0  0  0  0  0  0  0
  -30.4020  -12.1920   19.0720 C   0  0  0  0  0  2  0  0  0  0  0  0
  -29.4260  -12.4500   17.9040 C   0  0  0  0  0  2  0  0  0  0  0  0
  -27.9600  -12.3510   18.3730 C   0  0  0  0  0  2  0  0  0  0  0  0
  -27.6870  -13.1790   19.6570 C   0  0  0  0  0  3  0  0  0  0  0  0
  -28.7580  -12.8580   20.7230 C   0  0  0  0  0  2  0  0  0  0  0  0
  -30.0810  -13.1460   20.1450 N   0  0  0  0  0  0  0  0  0  0  0  0
  -31.8730  -14.4730   19.7300 O   0  0  0  0  0  0  0  0  0  0  0  0
  -25.3170  -13.8560   20.4230 C   0  0  0  0  0  0  0  0  0  0  0  0
  -24.2370  -13.1110   20.8160 C   0  0  0  0  0  0  0  0  0  0  0  0
  -24.6630  -11.7500   20.7770 C   0  0  0  0  0  0  0  0  0  0  0  0
  -26.3330  -12.9480   20.1660 N   0  0  0  0  0  0  0  0  0  0  0  0
  -25.9440  -11.6770   20.4390 N   0  0  0  0  0  0  0  0  0  0  0  0
  -23.9120  -10.5070   20.9890 C   0  0  0  0  0  0  0  0  0  0  0  0
  -24.3500   -9.5250   21.9050 C   0  0  0  0  0  3  0  0  0  0  0  0
  -23.6010   -8.3470   22.1030 C   0  0  0  0  0  3  0  0  0  0  0  0
  -22.3990   -8.1400   21.3870 C   0  0  0  0  0  0  0  0  0  0  0  0
  -21.9810   -9.1090   20.4570 C   0  0  0  0  0  3  0  0  0  0  0  0
  -22.7300  -10.2810   20.2570 C   0  0  0  0  0  3  0  0  0  0  0  0
  -21.6170   -7.0150   21.4970 O   0  0  0  0  0  0  0  0  0  0  0  0
  -21.5930   -6.2630   22.6450 C   0  0  0  0  0  0  0  0  0  0  0  0
  -21.2380   -6.8190   23.8920 C   0  0  0  0  0  3  0  0  0  0  0  0
  -21.1610   -5.9970   25.0340 C   0  0  0  0  0  3  0  0  0  0  0  0
  -21.4280   -4.6190   24.9280 C   0  0  0  0  0  0  0  0  0  0  0  0
  -21.7750   -4.0620   23.6850 C   0  0  0  0  0  3  0  0  0  0  0  0
  -21.8550   -4.8820   22.5460 C   0  0  0  0  0  0  0  0  0  0  0  0
  -22.1680   -4.3340   21.3460 F   0  0  0  0  0  0  0  0  0  0  0  0
  -21.3470   -3.8270   26.0240 F   0  0  0  0  0  0  0  0  0  0  0  0
  -22.8580  -13.6220   21.1220 C   0  0  0  0  0  0  0  0  0  0  0  0
  -22.1380  -12.9490   22.0110 N   0  0  0  0  0  0  0  0  0  0  0  0
  -22.4310  -14.6520   20.6050 O   0  0  0  0  0  0  0  0  0  0  0  0
  -22.4940  -12.1090   22.4470 H   0  0  0  0  0  0  0  0  0  0  0  0
  -21.2130  -13.2720   22.2550 H   0  0  0  0  0  0  0  0  0  0  0  0
  -25.5110  -15.2240   20.2520 N   0  0  0  0  0  0  0  0  0  0  0  0
  -24.7870  -15.9040   20.4500 H   0  0  0  0  0  0  0  0  0  0  0  0
  -26.3770  -15.6480   19.9470 H   0  0  0  0  0  0  0  0  0  0  0  0
  -29.6160  -24.6630   20.2900 C   0  0  0  0  0  2  0  0  0  0  0  0
  -28.4720  -25.4020   19.5790 C   0  0  0  0  0  2  0  0  0  0  0  0
  -28.3760  -26.7000   20.1550 O   0  0  0  0  0  0  0  0  0  0  0  0
  -24.5320  -31.8150   23.2050 C   0  0  0  0  0  0  0  0  0  0  0  0
  -27.1720  -27.3720   20.1320 C   0  0  0  0  0  0  0  0  0  0  0  0
  -23.3240  -30.4180   21.5590 C   0  0  0  0  0  3  0  0  0  0  0  0
  -24.7760  -28.8730   20.1480 C   0  0  0  0  0  0  0  0  0  0  0  0
  -25.8500  -30.7700   21.3680 C   0  0  0  0  0  2  0  0  0  0  0  0
  -25.9320  -29.3970   20.7380 C   0  0  0  0  0  0  0  0  0  0  0  0
  -27.1280  -28.6490   20.7360 C   0  0  0  0  0  3  0  0  0  0  0  0
  -25.9930  -26.8590   19.5410 C   0  0  0  0  0  3  0  0  0  0  0  0
  -24.7990  -27.6020   19.5520 C   0  0  0  0  0  3  0  0  0  0  0  0
  -23.5350  -29.7330   20.1830 C   0  0  0  0  0  2  0  0  0  0  0  0
  -24.5870  -31.0120   22.1040 N   0  0  0  0  0  0  0  0  0  0  0  0
  -23.4500  -32.0950   23.7380 O   0  0  0  0  0  0  0  0  0  0  0  0
  -22.6620  -29.4020   22.5160 C   0  0  0  0  0  0  0  0  0  0  0  0
  -21.3350  -29.2360   22.3880 N   0  0  0  0  0  0  0  0  0  0  0  0
  -23.3380  -28.7640   23.3280 O   0  0  0  0  0  0  0  0  0  0  0  0
  -20.8500  -29.8030   21.7080 H   0  0  0  0  0  0  0  0  0  0  0  0
  -17.9450  -28.0990   22.8870 C   0  0  0  0  0  0  0  0  0  0  0  0
  -20.5060  -28.3080   23.1570 C   0  0  0  0  0  3  0  0  0  0  0  0
  -20.5830  -26.8780   22.5720 C   0  0  0  0  0  2  0  0  0  0  0  0
  -19.4740  -26.5830   21.5570 C   0  0  0  0  0  2  0  0  0  0  0  0
  -18.0960  -26.7500   22.2050 C   0  0  0  0  0  2  0  0  0  0  0  0
  -19.0780  -28.8370   23.3200 C   0  0  0  0  0  0  0  0  0  0  0  0
  -18.8830  -30.1030   23.9140 C   0  0  0  0  0  3  0  0  0  0  0  0
  -17.5880  -30.6300   24.0790 C   0  0  0  0  0  3  0  0  0  0  0  0
  -16.4700  -29.8860   23.6640 C   0  0  0  0  0  3  0  0  0  0  0  0
  -16.6490  -28.6230   23.0730 C   0  0  0  0  0  3  0  0  0  0  0  0
  -25.8200  -32.4360   23.8300 C   0  0  0  0  0  3  0  0  0  0  0  0
  -25.5160  -33.8310   24.1720 N   0  0  0  0  0  0  0  0  0  0  0  0
  -25.8490  -34.8870   23.4180 C   0  0  0  0  0  0  0  0  0  0  0  0
  -26.5180  -34.7890   22.3850 O   0  0  0  0  0  0  0  0  0  0  0  0
  -24.9220  -33.9820   24.9740 H   0  0  0  0  0  0  0  0  0  0  0  0
  -24.1220  -36.6800   23.0780 C   0  0  0  0  0  1  0  0  0  0  0  0
  -25.3630  -36.2720   23.8850 C   0  0  0  0  0  3  0  0  0  0  0  0
  -27.5010  -37.1480   24.7160 C   0  0  0  0  0  1  0  0  0  0  0  0
  -26.3960  -37.3250   23.7780 N   0  0  0  0  0  0  0  0  0  0  0  0
  -25.9900  -38.2430   23.9390 H   0  0  0  0  0  0  0  0  0  0  0  0
  -26.3400  -31.6490   25.0940 C   0  0  1  0  0  0  0  0  0  0  0  0
  -25.2470  -31.4010   26.1610 C   0  0  0  0  0  1  0  0  0  0  0  0
  -26.9180  -30.2770   24.6780 C   0  0  0  0  0  1  0  0  0  0  0  0
  -27.4920  -32.4330   25.7630 C   0  0  0  0  0  1  0  0  0  0  0  0
  1  3  1  0
  2  1  1  0
  2  5  1  0
  3  6  1  0
  4  6  1  0
  5  4  1  0
  5  7  1  0
  6 50  1  0
  7  8  1  0
  7  9  2  0
  8 11  1  0
 10  8  1  0
 12 11  1  0
 12 13  1  0
 14 13  1  0
 15 20  1  0
 16 17  1  0
 16 15  1  0
 18 17  1  0
 18 25  1  0
 18 19  1  0
 20 14  1  0
 20 19  1  0
 21 14  2  0
 22 23  2  0
 23 42  1  0
 24 23  1  0
 24 27  1  0
 25 22  1  0
 25 26  1  0
 26 24  2  0
 27 28  1  0
 28 29  2  0
 30 33  1  0
 30 29  1  0
 31 30  2  0
 32 31  1  0
 32 27  2  0
 33 34  1  0
 34 35  1  0
 35 36  2  0
 37 36  1  0
 37 41  1  0
 38 37  2  0
 39 34  2  0
 39 38  1  0
 40 39  1  0
 42 43  1  0
 43 46  1  0
 43 45  1  0
 44 42  2  0
 47 22  1  0
 47 48  1  0
 49 47  1  0
 51 52  1  0
 51 50  1  0
 53 64  2  0
 54 52  1  0
 54 59  1  0
 55 63  1  0
 55 65  1  0
 56 62  1  0
 56 58  1  0
 57 63  1  0
 58 57  1  0
 59 58  2  0
 60 61  1  0
 60 54  2  0
 61 56  2  0
 62 55  1  0
 63 53  1  0
 65 67  2  0
 66 65  1  0
 68 66  1  0
 69 78  2  0
 69 74  1  0
 70 66  1  0
 70 74  1  0
 71 70  1  0
 72 73  1  0
 72 71  1  0
 73 69  1  0
 74 75  2  0
 75 76  1  0
 77 76  2  0
 78 77  1  0
 79 53  1  0
 79 80  1  0
 79 89  1  0
 80 83  1  0
 81 85  1  0
 81 80  1  0
 82 81  2  0
 85 84  1  0
 87 85  1  0
 87 88  1  0
 87 86  1  0
 89 92  1  1
 89 90  1  0
 91 89  1  0
M  ISO  4  13 100  14 100  51 101  52 101
M  END
>  <TORSDO>  (48) 
F 22

>  <SCORE>  (48) 
-12.999

>  <name>  (48) 
50

>  <ligand_id>  (48) 
50

>  <original_smiles>  (48) 
[H]c1c([H])c([H])c2c(c1[H])C([H])([H])C([H])([H])C([H])([H])C2([H])N([H])C(=O)C1([H])N(C(=O)C([H])(N([H])C(=O)C([H])(N([H])C([H])([H])[H])C([H])([H])[H])C(C([H])([H])[H])(C([H])([H])[H])C([H])([H])[H])C([H])([H])c2c([H])c(OC([H])([H])C([H])([H])C3([H])C([H])([H])C([H])([H])C([H])([H])C([H])(C(=O)N([H])C([H])([H])C([H])([H])C([H])([H])C(=O)N4C([H])([H])C([H])([H])C([H])([H])C([H])(n5nc(-c6c([H])c([H])c(Oc7c([H])c([H])c(F)c([H])c7F)c([H])c6[H])c(C(=O)N([H])[H])c5N([H])[H])C4([H])[H])C3([H])[H])c([H])c([H])c2C1([H])[H]

>  <smiles>  (48) 
[H]c1c([H])c([H])c2c(c1[H])C([H])([H])C([H])([H])C([H])([H])C2([H])N([H])C(=O)C1([H])N(C(=O)C([H])(N([H])C(=O)C([H])(N([H])C([H])([H])[H])C([H])([H])[H])C(C([H])([H])[H])(C([H])([H])[H])C([H])([H])[H])C([H])([H])c2c([H])c(OC([H])([H])C([H])([H])C3([H])C([H])([H])C([H])([H])C([H])([H])C([H])(C(=O)N([H])C([H])([H])C([H])([H])C([H])([H])C(=O)N4C([H])([H])C([H])([H])C([H])([H])C([H])(n5nc(-c6c([H])c([H])c(Oc7c([H])c([H])c(F)c([H])c7F)c([H])c6[H])c(C(=O)N([H])[H])c5N([H])[H])C4([H])[H])C3([H])[H])c([H])c([H])c2C1([H])[H]

$$$$
51:0:0
     RDKit          3D

 96100  0  0  1  0  0  0  0  0999 V2000
  -31.2670  -16.8280   22.7800 C   0  0  0  0  0  0  0  0  0  0  0  0
  -32.4940  -16.7560   22.6780 O   0  0  0  0  0  0  0  0  0  0  0  0
  -30.9640  -14.5540   19.3860 C   0  0  0  0  0  3  0  0  0  0  0  0
  -31.2340  -11.7860   17.7010 C   0  0  0  0  0  3  0  0  0  0  0  0
  -29.5930  -10.8590   17.3000 C   0  0  0  0  0  3  0  0  0  0  0  0
  -27.8820  -11.5940   17.8450 C   0  0  0  0  0  2  0  0  0  0  0  0
  -28.1710  -13.1560   18.9770 C   0  0  0  0  0  2  0  0  0  0  0  0
  -30.5260  -13.1570   19.1200 C   0  0  0  0  0  2  0  0  0  0  0  0
  -31.3980  -13.4210   18.4340 N   0  0  0  0  0  2  0  0  0  0  0  0
  -31.6750  -15.4920   19.0070 O   0  0  0  0  0  0  0  0  0  0  0  0
  -31.1010  -14.1000   22.9760 C   0  0  0  0  0  2  0  0  0  0  0  0
  -30.3710  -12.7440   22.4630 C   0  0  0  0  0  2  0  0  0  0  0  0
  -29.5270  -15.5310   21.5400 C   0  0  0  0  0  2  0  0  0  0  0  0
  -30.3800  -15.5280   22.8090 C   0  0  0  0  0  3  0  0  0  0  0  0
  -29.4310  -12.8450   21.1880 C   0  0  0  0  0  2  0  0  0  0  0  0
  -29.9830  -14.4510   20.7060 N   0  0  0  0  0  2  0  0  0  0  0  0
  -26.2070  -13.9270   20.5470 C   0  0  0  0  0  0  0  0  0  0  0  0
  -25.1290  -13.2420   21.0630 C   0  0  0  0  0  0  0  0  0  0  0  0
  -25.2950  -11.8770   20.7190 C   0  0  0  0  0  0  0  0  0  0  0  0
  -27.0140  -12.9950   19.9300 N   0  0  0  0  0  0  0  0  0  0  0  0
  -26.4330  -11.7860   20.1070 N   0  0  0  0  0  0  0  0  0  0  0  0
  -24.4500  -10.6690   20.8620 C   0  0  0  0  0  0  0  0  0  0  0  0
  -24.8900   -9.5120   21.5530 C   0  0  0  0  0  3  0  0  0  0  0  0
  -24.0360   -8.3970   21.7110 C   0  0  0  0  0  3  0  0  0  0  0  0
  -22.7260   -8.4240   21.1720 C   0  0  0  0  0  0  0  0  0  0  0  0
  -22.3120   -9.5550   20.4460 C   0  0  0  0  0  3  0  0  0  0  0  0
  -23.1630  -10.6610   20.2890 C   0  0  0  0  0  3  0  0  0  0  0  0
  -21.8260   -7.3850   21.2670 O   0  0  0  0  0  0  0  0  0  0  0  0
  -21.7490   -6.5870   22.3820 C   0  0  0  0  0  0  0  0  0  0  0  0
  -21.5820   -7.1280   23.6770 C   0  0  0  0  0  3  0  0  0  0  0  0
  -21.4490   -6.2710   24.7880 C   0  0  0  0  0  3  0  0  0  0  0  0
  -21.4590   -4.8740   24.6060 C   0  0  0  0  0  0  0  0  0  0  0  0
  -21.6120   -4.3330   23.3180 C   0  0  0  0  0  3  0  0  0  0  0  0
  -21.7530   -5.1870   22.2090 C   0  0  0  0  0  0  0  0  0  0  0  0
  -21.8800   -4.6600   20.9680 F   0  0  0  0  0  0  0  0  0  0  0  0
  -21.3240   -4.0500   25.6710 F   0  0  0  0  0  0  0  0  0  0  0  0
  -23.9370  -13.8200   21.7460 C   0  0  0  0  0  0  0  0  0  0  0  0
  -23.3550  -13.0770   22.6800 N   0  0  0  0  0  0  0  0  0  0  0  0
  -23.5420  -14.9510   21.4830 O   0  0  0  0  0  0  0  0  0  0  0  0
  -23.7040  -12.1570   22.9050 H   0  0  0  0  0  0  0  0  0  0  0  0
  -22.5560  -13.4360   23.1810 H   0  0  0  0  0  0  0  0  0  0  0  0
  -26.5470  -15.2700   20.5110 N   0  0  0  0  0  0  0  0  0  0  0  0
  -25.9600  -15.9880   20.9210 H   0  0  0  0  0  0  0  0  0  0  0  0
  -27.3650  -15.6460   20.0490 H   0  0  0  0  0  0  0  0  0  0  0  0
  -28.7330   -9.8970   20.0150 C   0  0  0  0  0  1  0  0  0  0  0  0
  -30.7890  -10.5170   19.9950 C   0  0  0  0  0  1  0  0  0  0  0  0
  -28.9590  -13.1180   17.1300 C   0  0  0  0  0 15  0  0  0  0  0  0
  -29.3940  -11.3780   19.6650 C   0  0  0  0  0  2  0  0  0  0  0  0
  -30.5530  -18.2230   22.8990 C   0  0  0  0  0  3  0  0  0  0  0  0
  -31.1030  -19.4580   22.0750 C   0  0  0  0  0  3  0  0  0  0  0  0
  -30.2180  -20.7710   22.1580 C   0  0  0  0  0  3  0  0  0  0  0  0
  -30.6590  -22.0570   21.3460 C   0  0  0  0  0  3  0  0  0  0  0  0
  -29.7420  -23.3440   21.4730 C   0  0  0  0  0  2  0  0  0  0  0  0
  -30.0450  -24.5960   20.5420 C   0  0  0  0  0  3  0  0  0  0  0  0
  -29.0910  -25.8480   20.7160 C   0  0  0  0  0  3  0  0  0  0  0  0
  -29.0960  -26.9220   19.7090 O   0  0  0  0  0  0  0  0  0  0  0  0
  -24.5910  -31.2110   23.1350 C   0  0  0  0  0  0  0  0  0  0  0  0
  -27.8830  -27.5990   19.6440 C   0  0  0  0  0  0  0  0  0  0  0  0
  -23.6080  -29.8280   21.3360 C   0  0  0  0  0  3  0  0  0  0  0  0
  -25.2800  -28.7380   19.7330 C   0  0  0  0  0  0  0  0  0  0  0  0
  -26.0320  -30.6290   21.1790 C   0  0  0  0  0  2  0  0  0  0  0  0
  -26.3430  -29.3690   20.3930 C   0  0  0  0  0  0  0  0  0  0  0  0
  -27.6480  -28.8120   20.3420 C   0  0  0  0  0  3  0  0  0  0  0  0
  -26.8080  -27.0130   18.9390 C   0  0  0  0  0  3  0  0  0  0  0  0
  -25.5120  -27.5690   18.9880 C   0  0  0  0  0  3  0  0  0  0  0  0
  -23.9040  -29.3590   19.8840 C   0  0  0  0  0  2  0  0  0  0  0  0
  -24.7610  -30.5670   21.9450 N   0  0  0  0  0  0  0  0  0  0  0  0
  -23.4900  -31.2300   23.7050 O   0  0  0  0  0  0  0  0  0  0  0  0
  -23.1520  -28.6080   22.1710 C   0  0  0  0  0  0  0  0  0  0  0  0
  -21.9110  -28.1500   21.9400 N   0  0  0  0  0  0  0  0  0  0  0  0
  -23.9170  -28.0790   22.9830 O   0  0  0  0  0  0  0  0  0  0  0  0
  -21.3440  -28.6450   21.2660 H   0  0  0  0  0  0  0  0  0  0  0  0
  -18.9030  -26.1470   22.0460 C   0  0  0  0  0  0  0  0  0  0  0  0
  -21.2890  -26.9880   22.5770 C   0  0  0  0  0  3  0  0  0  0  0  0
  -21.7860  -25.6720   21.9360 C   0  0  0  0  0  2  0  0  0  0  0  0
  -20.8830  -25.1730   20.8040 C   0  0  0  0  0  2  0  0  0  0  0  0
  -19.4600  -24.9340   21.3180 C   0  0  0  0  0  2  0  0  0  0  0  0
  -19.7620  -27.1190   22.6230 C   0  0  0  0  0  0  0  0  0  0  0  0
  -19.1930  -28.2440   23.2570 C   0  0  0  0  0  3  0  0  0  0  0  0
  -17.7960  -28.4050   23.3230 C   0  0  0  0  0  3  0  0  0  0  0  0
  -16.9510  -27.4310   22.7630 C   0  0  0  0  0  3  0  0  0  0  0  0
  -17.5040  -26.3040   22.1310 C   0  0  0  0  0  3  0  0  0  0  0  0
  -25.7640  -31.9740   23.8270 C   0  0  0  0  0  3  0  0  0  0  0  0
  -25.3010  -33.3400   24.1080 N   0  0  0  0  0  0  0  0  0  0  0  0
  -25.6160  -34.4160   23.3740 C   0  0  0  0  0  0  0  0  0  0  0  0
  -26.3940  -34.3690   22.4160 O   0  0  0  0  0  0  0  0  0  0  0  0
  -24.6150  -33.4430   24.8410 H   0  0  0  0  0  0  0  0  0  0  0  0
  -23.7890  -36.0530   22.8170 C   0  0  0  0  0  1  0  0  0  0  0  0
  -24.9630  -35.7560   23.7620 C   0  0  0  0  0  3  0  0  0  0  0  0
  -26.9220  -36.8120   24.8040 C   0  0  0  0  0  1  0  0  0  0  0  0
  -25.9080  -36.8950   23.7550 N   0  0  0  0  0  0  0  0  0  0  0  0
  -25.4110  -37.7740   23.8650 H   0  0  0  0  0  0  0  0  0  0  0  0
  -26.2670  -31.2720   25.1480 C   0  0  1  0  0  0  0  0  0  0  0  0
  -25.1300  -30.9290   26.1390 C   0  0  0  0  0  1  0  0  0  0  0  0
  -27.0170  -29.9610   24.8140 C   0  0  0  0  0  1  0  0  0  0  0  0
  -27.2770  -32.1890   25.8770 C   0  0  0  0  0  1  0  0  0  0  0  0
  1 49  1  0
  2  1  2  0
  4  9  1  0
  5  4  2  0
  5  6  1  0
  6  7  1  0
  7 20  1  0
  8  3  1  0
  9  8  1  0
 10  3  2  0
 12 11  1  0
 13 14  1  0
 14  1  1  0
 14 11  1  0
 15 12  1  0
 16 15  1  0
 16 13  1  0
 17 18  2  0
 18 37  1  0
 19 22  1  0
 19 18  1  0
 20 21  1  0
 20 17  1  0
 21 19  2  0
 22 23  1  0
 23 24  2  0
 25 28  1  0
 25 24  1  0
 26 25  2  0
 27 26  1  0
 27 22  2  0
 28 29  1  0
 29 30  1  0
 30 31  2  0
 32 31  1  0
 32 36  1  0
 33 32  2  0
 34 29  2  0
 34 33  1  0
 35 34  1  0
 37 38  1  0
 38 40  1  0
 38 41  1  0
 39 37  2  0
 42 17  1  0
 42 43  1  0
 44 42  1  0
 48 46  1  0
 48 45  1  0
 50 51  1  0
 50 49  2  0
 52 53  1  0
 52 51  2  0
 54 55  2  0
 54 53  1  0
 56 55  1  0
 57 68  2  0
 58 56  1  0
 58 63  1  0
 59 67  1  0
 59 69  1  0
 60 66  1  0
 60 62  1  0
 61 67  1  0
 62 61  1  0
 63 62  2  0
 64 65  1  0
 64 58  2  0
 65 60  2  0
 66 59  1  0
 67 57  1  0
 69 71  2  0
 70 69  1  0
 72 70  1  0
 73 82  2  0
 73 78  1  0
 74 70  1  0
 74 78  1  0
 75 74  1  0
 76 77  1  0
 76 75  1  0
 77 73  1  0
 78 79  2  0
 79 80  1  0
 81 80  2  0
 82 81  1  0
 83 57  1  0
 83 84  1  0
 83 93  1  0
 84 87  1  0
 85 89  1  0
 85 84  1  0
 86 85  2  0
 89 88  1  0
 91 89  1  0
 91 92  1  0
 91 90  1  0
 93 96  1  1
 93 94  1  0
 95 93  1  0
M  ISO  4   3 100  16 100  55 101  56 101
M  END
>  <TORSDO>  (49) 
F 24

>  <SCORE>  (49) 
1.158

>  <name>  (49) 
51

>  <ligand_id>  (49) 
51

>  <original_smiles>  (49) 
[H]c1c([H])c([H])c2c(c1[H])C([H])([H])C([H])([H])C([H])([H])C2([H])N([H])C(=O)C1([H])N(C(=O)C([H])(N([H])C(=O)C([H])(N([H])C([H])([H])[H])C([H])([H])[H])C(C([H])([H])[H])(C([H])([H])[H])C([H])([H])[H])C([H])([H])c2c([H])c(OC([H])([H])C([H])([H])C([H])([H])C([H])([H])C([H])([H])C([H])([H])C([H])([H])C(=O)C3([H])C([H])([H])N(C(=O)N4C([H])([H])C([H])([H])C([H])([H])C([H])(n5nc(-c6c([H])c([H])c(Oc7c([H])c([H])c(F)c([H])c7F)c([H])c6[H])c(C(=O)N([H])[H])c5N([H])[H])C4([H])[H])C([H])(C(C([H])([H])[H])(C([H])([H])[H])C([H])([H])[H])C([H])([H])C3([H])[H])c([H])c([H])c2C1([H])[H]

>  <smiles>  (49) 
[H]c1c([H])c([H])c2c(c1[H])C([H])([H])C([H])([H])C([H])([H])C2([H])N([H])C(=O)C1([H])N(C(=O)C([H])(N([H])C(=O)C([H])(N([H])C([H])([H])[H])C([H])([H])[H])C(C([H])([H])[H])(C([H])([H])[H])C([H])([H])[H])C([H])([H])c2c([H])c(OC([H])([H])C([H])([H])C([H])([H])C([H])([H])C([H])([H])C([H])([H])C([H])([H])C(=O)C3([H])C([H])([H])N(C(=O)N4C([H])([H])C([H])([H])C([H])([H])C([H])(n5nc(-c6c([H])c([H])c(Oc7c([H])c([H])c(F)c([H])c7F)c([H])c6[H])c(C(=O)N([H])[H])c5N([H])[H])C4([H])[H])C([H])(C(C([H])([H])[H])(C([H])([H])[H])C([H])([H])[H])C([H])([H])C3([H])[H])c([H])c([H])c2C1([H])[H]

$$$$
52:0:0
     RDKit          3D

 92100  0  0  1  0  0  0  0  0999 V2000
  -30.1930  -22.4610   20.4740 C   0  0  0  0  0  2  0  0  0  0  0  0
  -31.4720  -23.5390   18.5300 C   0  0  0  0  0  1  0  0  0  0  0  0
  -30.1630  -23.5200   19.3460 C   0  0  0  0  0  3  0  0  0  0  0  0
  -29.8660  -24.9180   19.9090 C   0  0  0  0  0  0  0  0  0  0  0  0
  -30.7210  -25.5330   20.5580 O   0  0  0  0  0  0  0  0  0  0  0  0
  -28.4770  -25.5100   19.6400 C   0  0  0  0  0  2  0  0  0  0  0  0
  -28.4120  -26.8310   20.1750 O   0  0  0  0  0  0  0  0  0  0  0  0
  -24.5820  -31.9390   23.2550 C   0  0  0  0  0  0  0  0  0  0  0  0
  -27.2070  -27.4960   20.1700 C   0  0  0  0  0  0  0  0  0  0  0  0
  -23.3620  -30.5290   21.6300 C   0  0  0  0  0  3  0  0  0  0  0  0
  -24.8020  -28.9820   20.2030 C   0  0  0  0  0  0  0  0  0  0  0  0
  -25.8830  -30.8910   21.4060 C   0  0  0  0  0  2  0  0  0  0  0  0
  -25.9610  -29.5160   20.7760 C   0  0  0  0  0  0  0  0  0  0  0  0
  -27.1630  -28.7780   20.7560 C   0  0  0  0  0  3  0  0  0  0  0  0
  -26.0240  -26.9640   19.6030 C   0  0  0  0  0  3  0  0  0  0  0  0
  -24.8260  -27.7050   19.6170 C   0  0  0  0  0  3  0  0  0  0  0  0
  -23.5580  -29.8400   20.2530 C   0  0  0  0  0  2  0  0  0  0  0  0
  -24.6280  -31.1340   22.1560 N   0  0  0  0  0  0  0  0  0  0  0  0
  -23.5060  -32.2170   23.8010 O   0  0  0  0  0  0  0  0  0  0  0  0
  -22.7170  -29.5150   22.6000 C   0  0  0  0  0  0  0  0  0  0  0  0
  -21.3930  -29.3280   22.4750 N   0  0  0  0  0  0  0  0  0  0  0  0
  -23.4020  -28.8990   23.4210 O   0  0  0  0  0  0  0  0  0  0  0  0
  -20.9030  -29.8780   21.7810 H   0  0  0  0  0  0  0  0  0  0  0  0
  -18.0210  -28.1270   22.9680 C   0  0  0  0  0  0  0  0  0  0  0  0
  -20.5760  -28.3960   23.2520 C   0  0  0  0  0  3  0  0  0  0  0  0
  -20.6870  -26.9590   22.6900 C   0  0  0  0  0  2  0  0  0  0  0  0
  -19.5900  -26.6220   21.6750 C   0  0  0  0  0  2  0  0  0  0  0  0
  -18.2050  -26.7700   22.3100 C   0  0  0  0  0  2  0  0  0  0  0  0
  -19.1350  -28.8980   23.3960 C   0  0  0  0  0  0  0  0  0  0  0  0
  -18.9080  -30.1680   23.9680 C   0  0  0  0  0  3  0  0  0  0  0  0
  -17.6010  -30.6680   24.1190 C   0  0  0  0  0  3  0  0  0  0  0  0
  -16.5020  -29.8930   23.7080 C   0  0  0  0  0  3  0  0  0  0  0  0
  -16.7130  -28.6260   23.1400 C   0  0  0  0  0  3  0  0  0  0  0  0
  -25.8750  -32.5680   23.8640 C   0  0  0  0  0  3  0  0  0  0  0  0
  -25.5750  -33.9690   24.1850 N   0  0  0  0  0  0  0  0  0  0  0  0
  -25.9120  -35.0140   23.4170 C   0  0  0  0  0  0  0  0  0  0  0  0
  -26.5820  -34.9000   22.3870 O   0  0  0  0  0  0  0  0  0  0  0  0
  -24.9810  -34.1330   24.9850 H   0  0  0  0  0  0  0  0  0  0  0  0
  -24.1970  -36.8140   23.0430 C   0  0  0  0  0  1  0  0  0  0  0  0
  -25.4300  -36.4080   23.8640 C   0  0  0  0  0  3  0  0  0  0  0  0
  -27.5680  -37.2830   24.6970 C   0  0  0  0  0  1  0  0  0  0  0  0
  -26.4710  -37.4540   23.7490 N   0  0  0  0  0  0  0  0  0  0  0  0
  -26.0710  -38.3770   23.8870 H   0  0  0  0  0  0  0  0  0  0  0  0
  -26.4000  -31.8020   25.1390 C   0  0  1  0  0  0  0  0  0  0  0  0
  -25.3120  -31.5720   26.2160 C   0  0  0  0  0  1  0  0  0  0  0  0
  -26.9750  -30.4210   24.7470 C   0  0  0  0  0  1  0  0  0  0  0  0
  -27.5580  -32.5940   25.7890 C   0  0  0  0  0  1  0  0  0  0  0  0
  -30.2360  -21.0110   19.9470 C   0  0  0  0  0  2  0  0  0  0  0  0
  -30.3360  -19.9330   21.0340 C   0  0  0  0  0  0  0  0  0  0  0  0
  -30.1890  -20.2060   22.2280 O   0  0  0  0  0  0  0  0  0  0  0  0
  -30.7470  -14.4900   20.0940 C   0  0  0  0  0  0  0  0  0  0  0  0
  -30.3340  -12.3720   18.9270 C   0  0  0  0  0  2  0  0  0  0  0  0
  -29.3400  -12.6470   17.7800 C   0  0  0  0  0  2  0  0  0  0  0  0
  -27.8890  -12.5250   18.2820 C   0  0  0  0  0  2  0  0  0  0  0  0
  -27.6290  -13.3160   19.5910 C   0  0  0  0  0  3  0  0  0  0  0  0
  -28.7420  -13.0670   20.6370 C   0  0  0  0  0  2  0  0  0  0  0  0
  -30.0370  -13.3370   19.9930 N   0  0  0  0  0  0  0  0  0  0  0  0
  -31.8920  -14.6210   19.6480 O   0  0  0  0  0  0  0  0  0  0  0  0
  -31.0560  -17.4880   21.6430 C   0  0  0  0  0  2  0  0  0  0  0  0
  -29.4390  -17.9550   19.7240 C   0  0  0  0  0  2  0  0  0  0  0  0
  -30.1710  -16.2180   21.7090 C   0  0  0  0  0  2  0  0  0  0  0  0
  -29.6930  -16.5060   19.2760 C   0  0  0  0  0  2  0  0  0  0  0  0
  -30.6240  -18.4990   20.5440 C   0  0  0  0  0  3  0  0  0  0  0  0
  -30.0140  -15.5860   20.3890 N   0  0  0  0  0  0  0  0  0  0  0  0
  -25.2680  -13.9250   20.4090 C   0  0  0  0  0  0  0  0  0  0  0  0
  -24.2150  -13.1520   20.8130 C   0  0  0  0  0  0  0  0  0  0  0  0
  -24.6680  -11.7990   20.7470 C   0  0  0  0  0  0  0  0  0  0  0  0
  -26.3000  -13.0430   20.1290 N   0  0  0  0  0  0  0  0  0  0  0  0
  -25.9440  -11.7580   20.3870 N   0  0  0  0  0  0  0  0  0  0  0  0
  -23.9460  -10.5370   20.9530 C   0  0  0  0  0  0  0  0  0  0  0  0
  -24.4080   -9.5650   21.8690 C   0  0  0  0  0  3  0  0  0  0  0  0
  -23.6870   -8.3670   22.0650 C   0  0  0  0  0  3  0  0  0  0  0  0
  -22.4940   -8.1320   21.3440 C   0  0  0  0  0  0  0  0  0  0  0  0
  -22.0510   -9.0920   20.4170 C   0  0  0  0  0  3  0  0  0  0  0  0
  -22.7710  -10.2820   20.2200 C   0  0  0  0  0  3  0  0  0  0  0  0
  -21.7430   -6.9860   21.4490 O   0  0  0  0  0  0  0  0  0  0  0  0
  -21.7160   -6.2470   22.6030 C   0  0  0  0  0  0  0  0  0  0  0  0
  -21.3190   -6.8060   23.8360 C   0  0  0  0  0  3  0  0  0  0  0  0
  -21.2390   -5.9950   24.9850 C   0  0  0  0  0  3  0  0  0  0  0  0
  -21.5460   -4.6230   24.9020 C   0  0  0  0  0  0  0  0  0  0  0  0
  -21.9360   -4.0620   23.6730 C   0  0  0  0  0  3  0  0  0  0  0  0
  -22.0180   -4.8720   22.5260 C   0  0  0  0  0  0  0  0  0  0  0  0
  -22.3750   -4.3240   21.3390 F   0  0  0  0  0  0  0  0  0  0  0  0
  -21.4630   -3.8400   26.0020 F   0  0  0  0  0  0  0  0  0  0  0  0
  -22.8310  -13.6290   21.1500 C   0  0  0  0  0  0  0  0  0  0  0  0
  -22.1410  -12.9230   22.0390 N   0  0  0  0  0  0  0  0  0  0  0  0
  -22.3720  -14.6610   20.6600 O   0  0  0  0  0  0  0  0  0  0  0  0
  -22.5240  -12.0870   22.4550 H   0  0  0  0  0  0  0  0  0  0  0  0
  -21.2170  -13.2260   22.3120 H   0  0  0  0  0  0  0  0  0  0  0  0
  -25.4300  -15.2970   20.2400 N   0  0  0  0  0  0  0  0  0  0  0  0
  -24.6750  -15.9580   20.3950 H   0  0  0  0  0  0  0  0  0  0  0  0
  -26.2820  -15.7390   19.9180 H   0  0  0  0  0  0  0  0  0  0  0  0
  3  2  1  0
  3  4  1  0
  3  1  1  0
  4  5  2  0
  6  4  1  0
  6  7  1  0
  8 19  2  0
  9  7  1  0
  9 14  1  0
 10 18  1  0
 10 20  1  0
 11 17  1  0
 11 13  1  0
 12 18  1  0
 13 12  1  0
 14 13  2  0
 15 16  1  0
 15  9  2  0
 16 11  2  0
 17 10  1  0
 18  8  1  0
 20 22  2  0
 21 20  1  0
 23 21  1  0
 24 33  2  0
 24 29  1  0
 25 21  1  0
 25 29  1  0
 26 25  1  0
 27 28  1  0
 27 26  1  0
 28 24  1  0
 29 30  2  0
 30 31  1  0
 32 31  2  0
 33 32  1  0
 34  8  1  0
 34 35  1  0
 34 44  1  0
 35 38  1  0
 36 40  1  0
 36 35  1  0
 37 36  2  0
 40 39  1  0
 42 40  1  0
 42 43  1  0
 42 41  1  0
 44 47  1  1
 44 45  1  0
 46 44  1  0
 48  1  1  0
 48 49  1  0
 49 50  2  0
 51 64  1  0
 52 57  1  0
 53 54  1  0
 53 52  1  0
 55 54  1  0
 55 68  1  0
 55 56  1  0
 57 51  1  0
 57 56  1  0
 58 51  2  0
 59 61  1  0
 60 63  1  0
 62 60  1  0
 62 64  1  0
 63 49  1  0
 63 59  1  0
 64 61  1  0
 65 66  2  0
 66 85  1  0
 67 66  1  0
 67 70  1  0
 68 69  1  0
 68 65  1  0
 69 67  2  0
 70 71  1  0
 71 72  2  0
 73 76  1  0
 73 72  1  0
 74 73  2  0
 75 74  1  0
 75 70  2  0
 76 77  1  0
 77 78  1  0
 78 79  2  0
 80 79  1  0
 80 84  1  0
 81 80  2  0
 82 77  2  0
 82 81  1  0
 83 82  1  0
 85 86  1  0
 86 89  1  0
 86 88  1  0
 87 85  2  0
 90 91  1  0
 90 65  1  0
 92 90  1  0
M  ISO  4   6 101   7 101  51 100  64 100
M  END
>  <TORSDO>  (50) 
F 21

>  <SCORE>  (50) 
-13.429

>  <name>  (50) 
52

>  <ligand_id>  (50) 
52

>  <original_smiles>  (50) 
[H]c1c([H])c([H])c2c(c1[H])C([H])([H])C([H])([H])C([H])([H])C2([H])N([H])C(=O)C1([H])N(C(=O)C([H])(N([H])C(=O)C([H])(N([H])C([H])([H])[H])C([H])([H])[H])C(C([H])([H])[H])(C([H])([H])[H])C([H])([H])[H])C([H])([H])c2c([H])c(OC([H])([H])C(=O)C([H])(C([H])([H])[H])C([H])([H])C([H])([H])C(=O)C3([H])C([H])([H])C([H])([H])N(C(=O)N4C([H])([H])C([H])([H])C([H])([H])C([H])(n5nc(-c6c([H])c([H])c(Oc7c([H])c([H])c(F)c([H])c7F)c([H])c6[H])c(C(=O)N([H])[H])c5N([H])[H])C4([H])[H])C([H])([H])C3([H])[H])c([H])c([H])c2C1([H])[H]

>  <smiles>  (50) 
[H]c1c([H])c([H])c2c(c1[H])C([H])([H])C([H])([H])C([H])([H])C2([H])N([H])C(=O)C1([H])N(C(=O)C([H])(N([H])C(=O)C([H])(N([H])C([H])([H])[H])C([H])([H])[H])C(C([H])([H])[H])(C([H])([H])[H])C([H])([H])[H])C([H])([H])c2c([H])c(OC([H])([H])C(=O)C([H])(C([H])([H])[H])C([H])([H])C([H])([H])C(=O)C3([H])C([H])([H])C([H])([H])N(C(=O)N4C([H])([H])C([H])([H])C([H])([H])C([H])(n5nc(-c6c([H])c([H])c(Oc7c([H])c([H])c(F)c([H])c7F)c([H])c6[H])c(C(=O)N([H])[H])c5N([H])[H])C4([H])[H])C([H])([H])C3([H])[H])c([H])c([H])c2C1([H])[H]

$$$$
53:0:0
     RDKit          3D

 94102  0  0  1  0  0  0  0  0999 V2000
  -28.1870  -19.6480   18.6860 C   0  0  0  0  0  2  0  0  0  0  0  0
  -29.3490  -19.2580   19.5180 N   0  0  0  0  0  4  0  0  0  0  0  0
  -30.1870  -19.3520   18.9650 H   0  0  0  0  0  0  0  0  0  0  0  0
  -29.4310  -19.9040   20.2880 H   0  0  0  0  0  0  0  0  0  0  0  0
  -31.1170  -14.8300   20.9290 C   0  0  0  0  0  0  0  0  0  0  0  0
  -30.9910  -12.5840   19.9410 C   0  0  0  0  0  2  0  0  0  0  0  0
  -30.1180  -12.6390   18.6700 C   0  0  0  0  0  2  0  0  0  0  0  0
  -28.6190  -12.5020   19.0110 C   0  0  0  0  0  2  0  0  0  0  0  0
  -28.1700  -13.3920   20.2050 C   0  0  0  0  0  3  0  0  0  0  0  0
  -29.1720  -13.2580   21.3750 C   0  0  0  0  0  2  0  0  0  0  0  0
  -30.4960  -13.6220   20.8550 N   0  0  0  0  0  0  0  0  0  0  0  0
  -32.3000  -14.9770   20.6190 O   0  0  0  0  0  0  0  0  0  0  0  0
  -29.0300  -17.8300   21.5670 C   0  0  0  0  0  2  0  0  0  0  0  0
  -29.3710  -16.3720   21.9010 C   0  0  0  0  0  2  0  0  0  0  0  0
  -30.5320  -17.0340   19.9160 C   0  0  0  0  0  3  0  0  0  0  0  0
  -29.2590  -17.8860   20.0670 C   0  0  0  0  0  3  0  0  0  0  0  0
  -30.3070  -15.9170   20.8550 N   0  0  0  0  0  0  0  0  0  0  0  0
  -25.7290  -13.9510   20.8090 C   0  0  0  0  0  0  0  0  0  0  0  0
  -24.6590  -13.1520   21.1110 C   0  0  0  0  0  0  0  0  0  0  0  0
  -25.1460  -11.8100   21.0710 C   0  0  0  0  0  0  0  0  0  0  0  0
  -26.8010  -13.0910   20.6140 N   0  0  0  0  0  0  0  0  0  0  0  0
  -26.4500  -11.7990   20.8280 N   0  0  0  0  0  0  0  0  0  0  0  0
  -24.4350  -10.5310   21.1950 C   0  0  0  0  0  0  0  0  0  0  0  0
  -24.8030   -9.5760   22.1690 C   0  0  0  0  0  3  0  0  0  0  0  0
  -24.0930   -8.3600   22.2810 C   0  0  0  0  0  3  0  0  0  0  0  0
  -23.0040   -8.0930   21.4190 C   0  0  0  0  0  0  0  0  0  0  0  0
  -22.6580   -9.0370   20.4360 C   0  0  0  0  0  3  0  0  0  0  0  0
  -23.3690  -10.2440   20.3210 C   0  0  0  0  0  3  0  0  0  0  0  0
  -22.2730   -6.9300   21.4400 O   0  0  0  0  0  0  0  0  0  0  0  0
  -22.0530   -6.2380   22.6030 C   0  0  0  0  0  0  0  0  0  0  0  0
  -21.3910   -6.8250   23.7050 C   0  0  0  0  0  3  0  0  0  0  0  0
  -21.1230   -6.0560   24.8560 C   0  0  0  0  0  3  0  0  0  0  0  0
  -21.5070   -4.7030   24.9050 C   0  0  0  0  0  0  0  0  0  0  0  0
  -22.1620   -4.1160   23.8080 C   0  0  0  0  0  3  0  0  0  0  0  0
  -22.4310   -4.8810   22.6590 C   0  0  0  0  0  0  0  0  0  0  0  0
  -23.0430   -4.3050   21.5960 F   0  0  0  0  0  0  0  0  0  0  0  0
  -21.2440   -3.9630   26.0070 F   0  0  0  0  0  0  0  0  0  0  0  0
  -23.2430  -13.5970   21.3270 C   0  0  0  0  0  0  0  0  0  0  0  0
  -22.4930  -12.8780   22.1560 N   0  0  0  0  0  0  0  0  0  0  0  0
  -22.8050  -14.6180   20.7990 O   0  0  0  0  0  0  0  0  0  0  0  0
  -22.8570  -12.0510   22.6050 H   0  0  0  0  0  0  0  0  0  0  0  0
  -21.5420  -13.1620   22.3460 H   0  0  0  0  0  0  0  0  0  0  0  0
  -25.8750  -15.3270   20.6650 N   0  0  0  0  0  0  0  0  0  0  0  0
  -25.0820  -15.9570   20.7350 H   0  0  0  0  0  0  0  0  0  0  0  0
  -26.7200  -15.7880   20.3650 H   0  0  0  0  0  0  0  0  0  0  0  0
  -30.8260  -16.6090   18.4480 C   0  0  0  0  0  0  0  0  0  0  0  0
  -29.6750  -16.1440   17.5640 C   0  0  0  0  0  1  0  0  0  0  0  0
  -31.9580  -16.6460   17.9660 O   0  0  0  0  0  0  0  0  0  0  0  0
  -28.3310  -21.0670   18.1270 C   0  0  0  0  0  2  0  0  0  0  0  0
  -28.2670  -22.1430   19.2160 C   0  0  0  0  0  2  0  0  0  0  0  0
  -28.4720  -23.5410   18.6370 C   0  0  0  0  0  2  0  0  0  0  0  0
  -28.3970  -24.6170   19.7180 C   0  0  0  0  0  2  0  0  0  0  0  0
  -28.7180  -26.0020   19.1530 C   0  0  0  0  0  2  0  0  0  0  0  0
  -28.4980  -26.9930   20.1440 O   0  0  0  0  0  0  0  0  0  0  0  0
  -24.6350  -31.9620   23.3950 C   0  0  0  0  0  0  0  0  0  0  0  0
  -27.2810  -27.6330   20.1780 C   0  0  0  0  0  0  0  0  0  0  0  0
  -23.4210  -30.6030   21.7200 C   0  0  0  0  0  3  0  0  0  0  0  0
  -24.8680  -29.1020   20.2570 C   0  0  0  0  0  0  0  0  0  0  0  0
  -25.9430  -30.9710   21.5230 C   0  0  0  0  0  2  0  0  0  0  0  0
  -26.0230  -29.6170   20.8570 C   0  0  0  0  0  0  0  0  0  0  0  0
  -27.2250  -28.8830   20.8270 C   0  0  0  0  0  3  0  0  0  0  0  0
  -26.1010  -27.1150   19.5900 C   0  0  0  0  0  3  0  0  0  0  0  0
  -24.8980  -27.8440   19.6300 C   0  0  0  0  0  3  0  0  0  0  0  0
  -23.6260  -29.9580   20.3230 C   0  0  0  0  0  2  0  0  0  0  0  0
  -24.6850  -31.1910   22.2710 N   0  0  0  0  0  0  0  0  0  0  0  0
  -23.5570  -32.2210   23.9450 O   0  0  0  0  0  0  0  0  0  0  0  0
  -22.7740  -29.5570   22.6550 C   0  0  0  0  0  0  0  0  0  0  0  0
  -21.4520  -29.3650   22.5120 N   0  0  0  0  0  0  0  0  0  0  0  0
  -23.4570  -28.9220   23.4630 O   0  0  0  0  0  0  0  0  0  0  0  0
  -20.9630  -29.9310   21.8310 H   0  0  0  0  0  0  0  0  0  0  0  0
  -18.0890  -28.1190   22.9350 C   0  0  0  0  0  0  0  0  0  0  0  0
  -20.6370  -28.4080   23.2580 C   0  0  0  0  0  3  0  0  0  0  0  0
  -20.7710  -26.9850   22.6660 C   0  0  0  0  0  2  0  0  0  0  0  0
  -19.6920  -26.6600   21.6290 C   0  0  0  0  0  2  0  0  0  0  0  0
  -18.2960  -26.7790   22.2480 C   0  0  0  0  0  2  0  0  0  0  0  0
  -19.1890  -28.8900   23.3950 C   0  0  0  0  0  0  0  0  0  0  0  0
  -18.9440  -30.1440   23.9940 C   0  0  0  0  0  3  0  0  0  0  0  0
  -17.6300  -30.6280   24.1400 C   0  0  0  0  0  3  0  0  0  0  0  0
  -16.5440  -29.8540   23.6960 C   0  0  0  0  0  3  0  0  0  0  0  0
  -16.7740  -28.6010   23.1010 C   0  0  0  0  0  3  0  0  0  0  0  0
  -25.9270  -32.5710   24.0260 C   0  0  0  0  0  3  0  0  0  0  0  0
  -25.6390  -33.9750   24.3450 N   0  0  0  0  0  0  0  0  0  0  0  0
  -26.0060  -35.0180   23.5880 C   0  0  0  0  0  0  0  0  0  0  0  0
  -26.6930  -34.8980   22.5700 O   0  0  0  0  0  0  0  0  0  0  0  0
  -25.0320  -34.1440   25.1340 H   0  0  0  0  0  0  0  0  0  0  0  0
  -24.3240  -36.8430   23.1820 C   0  0  0  0  0  1  0  0  0  0  0  0
  -25.5330  -36.4150   24.0300 C   0  0  0  0  0  3  0  0  0  0  0  0
  -27.6590  -37.2580   24.9230 C   0  0  0  0  0  1  0  0  0  0  0  0
  -26.5890  -37.4470   23.9470 N   0  0  0  0  0  0  0  0  0  0  0  0
  -26.1980  -38.3760   24.0820 H   0  0  0  0  0  0  0  0  0  0  0  0
  -26.4220  -31.7930   25.3060 C   0  0  1  0  0  0  0  0  0  0  0  0
  -25.3150  -31.5690   26.3630 C   0  0  0  0  0  1  0  0  0  0  0  0
  -26.9890  -30.4080   24.9160 C   0  0  0  0  0  1  0  0  0  0  0  0
  -27.5780  -32.5700   25.9770 C   0  0  0  0  0  1  0  0  0  0  0  0
  1  2  1  0
  2  4  1  0
  3  2  1  0
  6 11  1  0
  7  8  1  0
  7  6  1  0
  9  8  1  0
  9 21  1  0
  9 10  1  0
 11  5  1  0
 11 10  1  0
 12  5  2  0
 13 14  1  0
 15 46  1  0
 15 16  1  0
 15 17  1  0
 16  2  1  0
 16 13  1  0
 17  5  1  0
 17 14  1  0
 18 19  2  0
 19 38  1  0
 20 19  1  0
 20 23  1  0
 21 18  1  0
 21 22  1  0
 22 20  2  0
 23 24  1  0
 24 25  2  0
 26 29  1  0
 26 25  1  0
 27 26  2  0
 28 27  1  0
 28 23  2  0
 29 30  1  0
 30 35  2  0
 30 31  1  0
 31 32  2  0
 32 33  1  0
 33 37  1  0
 34 33  2  0
 35 34  1  0
 36 35  1  0
 38 39  1  0
 39 42  1  0
 39 41  1  0
 40 38  2  0
 43 44  1  0
 43 18  1  0
 45 43  1  0
 47 46  1  0
 48 46  2  0
 49  1  1  0
 49 50  1  0
 51 50  1  0
 51 52  1  0
 53 52  1  0
 53 54  1  0
 54 56  1  0
 55 66  2  0
 56 61  1  0
 57 65  1  0
 57 67  1  0
 58 64  1  0
 58 60  1  0
 59 65  1  0
 60 59  1  0
 61 60  2  0
 62 63  1  0
 62 56  2  0
 63 58  2  0
 64 57  1  0
 65 55  1  0
 67 69  2  0
 68 67  1  0
 70 68  1  0
 71 80  2  0
 71 76  1  0
 72 68  1  0
 72 76  1  0
 73 72  1  0
 74 75  1  0
 74 73  1  0
 75 71  1  0
 76 77  2  0
 77 78  1  0
 79 78  2  0
 80 79  1  0
 81 55  1  0
 81 82  1  0
 81 91  1  0
 82 85  1  0
 83 87  1  0
 83 82  1  0
 84 83  2  0
 87 86  1  0
 89 87  1  0
 89 90  1  0
 89 88  1  0
 91 94  1  1
 91 92  1  0
 93 91  1  0
M  ISO  4   5 100  17 100  53 101  54 101
M  END
>  <TORSDO>  (51) 
F 23

>  <SCORE>  (51) 
-9.333

>  <name>  (51) 
53

>  <ligand_id>  (51) 
53

>  <original_smiles>  (51) 
[H]c1c([H])c([H])c2c(c1[H])C([H])([H])C([H])([H])C([H])([H])C2([H])N([H])C(=O)C1([H])N(C(=O)C([H])(N([H])C(=O)C([H])(N([H])C([H])([H])[H])C([H])([H])[H])C(C([H])([H])[H])(C([H])([H])[H])C([H])([H])[H])C([H])([H])c2c([H])c(OC([H])([H])C([H])([H])C([H])([H])C([H])([H])C([H])([H])C([H])([H])[N+]([H])([H])C3([H])C([H])(C(=O)C([H])([H])[H])N(C(=O)N4C([H])([H])C([H])([H])C([H])([H])C([H])(n5nc(-c6c([H])c([H])c(Oc7c([H])c([H])c(F)c([H])c7F)c([H])c6[H])c(C(=O)N([H])[H])c5N([H])[H])C4([H])[H])C([H])([H])C3([H])[H])c([H])c([H])c2C1([H])[H]

>  <smiles>  (51) 
[H]c1c([H])c([H])c2c(c1[H])C([H])([H])C([H])([H])C([H])([H])C2([H])N([H])C(=O)C1([H])N(C(=O)C([H])(N([H])C(=O)C([H])(N([H])C([H])([H])[H])C([H])([H])[H])C(C([H])([H])[H])(C([H])([H])[H])C([H])([H])[H])C([H])([H])c2c([H])c(OC([H])([H])C([H])([H])C([H])([H])C([H])([H])C([H])([H])C([H])([H])[N+]([H])([H])C3([H])C([H])(C(=O)C([H])([H])[H])N(C(=O)N4C([H])([H])C([H])([H])C([H])([H])C([H])(n5nc(-c6c([H])c([H])c(Oc7c([H])c([H])c(F)c([H])c7F)c([H])c6[H])c(C(=O)N([H])[H])c5N([H])[H])C4([H])[H])C([H])([H])C3([H])[H])c([H])c([H])c2C1([H])[H]

$$$$
54:0:0
     RDKit          3D

 98106  0  0  1  0  0  0  0  0999 V2000
  -29.3940  -20.2630   21.9300 C   0  0  0  0  0  2  0  0  0  0  0  0
  -30.2220  -19.3250   21.1370 N   0  0  0  0  0  4  0  0  0  0  0  0
  -30.1210  -19.5930   20.1710 H   0  0  0  0  0  0  0  0  0  0  0  0
  -31.1920  -19.4530   21.3830 H   0  0  0  0  0  0  0  0  0  0  0  0
  -31.0350  -14.5980   20.0570 C   0  0  0  0  0  0  0  0  0  0  0  0
  -30.6300  -12.4860   18.8480 C   0  0  0  0  0  2  0  0  0  0  0  0
  -29.6240  -12.7160   17.7010 C   0  0  0  0  0  2  0  0  0  0  0  0
  -28.1760  -12.5640   18.2050 C   0  0  0  0  0  2  0  0  0  0  0  0
  -27.9130  -13.3730   19.5020 C   0  0  0  0  0  3  0  0  0  0  0  0
  -29.0250  -13.1210   20.5410 C   0  0  0  0  0  2  0  0  0  0  0  0
  -30.3190  -13.4460   19.9220 N   0  0  0  0  0  0  0  0  0  0  0  0
  -32.0730  -14.8000   19.4180 O   0  0  0  0  0  0  0  0  0  0  0  0
  -30.3700  -17.2120   22.5400 C   0  0  0  0  0  2  0  0  0  0  0  0
  -30.4020  -15.7180   22.1870 C   0  0  0  0  0  2  0  0  0  0  0  0
  -30.4930  -16.9990   20.1590 C   0  0  0  0  0  3  0  0  0  0  0  0
  -29.8710  -17.8830   21.2640 C   0  0  0  0  0  3  0  0  0  0  0  0
  -30.4630  -15.6350   20.7170 N   0  0  0  0  0  0  0  0  0  0  0  0
  -25.5730  -13.9890   20.3740 C   0  0  0  0  0  0  0  0  0  0  0  0
  -24.5210  -13.2160   20.7900 C   0  0  0  0  0  0  0  0  0  0  0  0
  -24.9650  -11.8620   20.6910 C   0  0  0  0  0  0  0  0  0  0  0  0
  -26.5900  -13.1030   20.0530 N   0  0  0  0  0  0  0  0  0  0  0  0
  -26.2310  -11.8180   20.3000 N   0  0  0  0  0  0  0  0  0  0  0  0
  -24.2410  -10.6000   20.8910 C   0  0  0  0  0  0  0  0  0  0  0  0
  -24.6480   -9.6610   21.8640 C   0  0  0  0  0  3  0  0  0  0  0  0
  -23.9260   -8.4630   22.0490 C   0  0  0  0  0  3  0  0  0  0  0  0
  -22.7820   -8.1940   21.2600 C   0  0  0  0  0  0  0  0  0  0  0  0
  -22.3950   -9.1220   20.2770 C   0  0  0  0  0  3  0  0  0  0  0  0
  -23.1170  -10.3120   20.0910 C   0  0  0  0  0  3  0  0  0  0  0  0
  -22.0340   -7.0460   21.3520 O   0  0  0  0  0  0  0  0  0  0  0  0
  -21.8530   -6.3980   22.5480 C   0  0  0  0  0  0  0  0  0  0  0  0
  -21.2800   -7.0430   23.6660 C   0  0  0  0  0  3  0  0  0  0  0  0
  -21.0490   -6.3200   24.8540 C   0  0  0  0  0  3  0  0  0  0  0  0
  -21.3820   -4.9540   24.9220 C   0  0  0  0  0  0  0  0  0  0  0  0
  -21.9480   -4.3100   23.8080 C   0  0  0  0  0  3  0  0  0  0  0  0
  -22.1800   -5.0300   22.6230 C   0  0  0  0  0  0  0  0  0  0  0  0
  -22.7060   -4.3990   21.5460 F   0  0  0  0  0  0  0  0  0  0  0  0
  -21.1530   -4.2560   26.0590 F   0  0  0  0  0  0  0  0  0  0  0  0
  -23.1480  -13.6970   21.1630 C   0  0  0  0  0  0  0  0  0  0  0  0
  -22.4790  -12.9940   22.0700 N   0  0  0  0  0  0  0  0  0  0  0  0
  -22.6790  -14.7270   20.6830 O   0  0  0  0  0  0  0  0  0  0  0  0
  -22.8710  -12.1600   22.4800 H   0  0  0  0  0  0  0  0  0  0  0  0
  -21.5590  -13.2950   22.3610 H   0  0  0  0  0  0  0  0  0  0  0  0
  -25.7450  -15.3620   20.2210 N   0  0  0  0  0  0  0  0  0  0  0  0
  -24.9950  -16.0240   20.3810 H   0  0  0  0  0  0  0  0  0  0  0  0
  -26.5740  -15.7890   19.8150 H   0  0  0  0  0  0  0  0  0  0  0  0
  -29.6620  -17.0930   18.8600 C   0  0  0  0  0  0  0  0  0  0  0  0
  -30.2710  -17.5300   17.7660 N   0  0  0  0  0  0  0  0  0  0  0  0
  -28.4730  -16.7880   18.8460 O   0  0  0  0  0  0  0  0  0  0  0  0
  -31.2570  -17.7530   17.7650 H   0  0  0  0  0  0  0  0  0  0  0  0
  -29.7540  -17.6190   16.9020 H   0  0  0  0  0  0  0  0  0  0  0  0
  -29.8360  -21.7330   21.7360 C   0  0  0  0  0  2  0  0  0  0  0  0
  -28.9610  -22.7380   22.5110 C   0  0  0  0  0  2  0  0  0  0  0  0
  -29.4130  -24.2120   22.3940 C   0  0  0  0  0  2  0  0  0  0  0  0
  -29.1210  -24.8690   21.0280 C   0  0  0  0  0  2  0  0  0  0  0  0
  -29.1720  -26.4180   21.0090 C   0  0  0  0  0  3  0  0  0  0  0  0
  -31.0040  -27.3630   22.5730 C   0  0  0  0  0  1  0  0  0  0  0  0
  -30.5830  -27.0260   21.1340 C   0  0  0  0  0  2  0  0  0  0  0  0
  -28.6410  -26.8300   19.7450 O   0  0  0  0  0  0  0  0  0  0  0  0
  -24.7370  -31.7590   23.0900 C   0  0  0  0  0  0  0  0  0  0  0  0
  -27.4680  -27.5430   19.8100 C   0  0  0  0  0  0  0  0  0  0  0  0
  -23.5410  -30.3690   21.4270 C   0  0  0  0  0  3  0  0  0  0  0  0
  -25.0180  -28.9360   19.9160 C   0  0  0  0  0  0  0  0  0  0  0  0
  -26.0430  -30.8330   21.1850 C   0  0  0  0  0  2  0  0  0  0  0  0
  -26.1640  -29.4890   20.5030 C   0  0  0  0  0  0  0  0  0  0  0  0
  -27.3920  -28.7950   20.4570 C   0  0  0  0  0  3  0  0  0  0  0  0
  -26.3150  -27.0030   19.2060 C   0  0  0  0  0  3  0  0  0  0  0  0
  -25.0860  -27.6890   19.2670 C   0  0  0  0  0  3  0  0  0  0  0  0
  -23.7420  -29.7410   20.0200 C   0  0  0  0  0  2  0  0  0  0  0  0
  -24.7930  -31.0010   21.9590 N   0  0  0  0  0  0  0  0  0  0  0  0
  -23.6620  -31.9730   23.6660 O   0  0  0  0  0  0  0  0  0  0  0  0
  -22.9530  -29.2930   22.3680 C   0  0  0  0  0  0  0  0  0  0  0  0
  -21.6380  -29.0470   22.2460 N   0  0  0  0  0  0  0  0  0  0  0  0
  -23.6750  -28.6840   23.1610 O   0  0  0  0  0  0  0  0  0  0  0  0
  -21.1130  -29.5950   21.5790 H   0  0  0  0  0  0  0  0  0  0  0  0
  -18.3380  -27.6580   22.7160 C   0  0  0  0  0  0  0  0  0  0  0  0
  -20.8770  -28.0520   22.9990 C   0  0  0  0  0  3  0  0  0  0  0  0
  -21.0600  -26.6400   22.3960 C   0  0  0  0  0  2  0  0  0  0  0  0
  -19.9790  -26.2750   21.3750 C   0  0  0  0  0  2  0  0  0  0  0  0
  -18.5910  -26.3320   22.0190 C   0  0  0  0  0  2  0  0  0  0  0  0
  -19.4120  -28.4730   23.1630 C   0  0  0  0  0  0  0  0  0  0  0  0
  -19.1240  -29.7120   23.7750 C   0  0  0  0  0  3  0  0  0  0  0  0
  -17.7930  -30.1380   23.9460 C   0  0  0  0  0  3  0  0  0  0  0  0
  -16.7330  -29.3200   23.5170 C   0  0  0  0  0  3  0  0  0  0  0  0
  -17.0070  -28.0820   22.9070 C   0  0  0  0  0  3  0  0  0  0  0  0
  -26.0160  -32.4130   23.6980 C   0  0  0  0  0  3  0  0  0  0  0  0
  -25.6690  -33.7880   24.0810 N   0  0  0  0  0  0  0  0  0  0  0  0
  -25.9640  -34.8760   23.3580 C   0  0  0  0  0  0  0  0  0  0  0  0
  -26.6280  -34.8290   22.3190 O   0  0  0  0  0  0  0  0  0  0  0  0
  -25.0720  -33.8950   24.8880 H   0  0  0  0  0  0  0  0  0  0  0  0
  -24.1890  -36.6330   23.0680 C   0  0  0  0  0  1  0  0  0  0  0  0
  -25.4380  -36.2310   23.8670 C   0  0  0  0  0  3  0  0  0  0  0  0
  -27.5460  -37.1400   24.7400 C   0  0  0  0  0  1  0  0  0  0  0  0
  -26.4420  -37.3140   23.8000 N   0  0  0  0  0  0  0  0  0  0  0  0
  -26.0110  -38.2170   23.9810 H   0  0  0  0  0  0  0  0  0  0  0  0
  -26.5960  -31.6170   24.9320 C   0  0  1  0  0  0  0  0  0  0  0  0
  -25.5420  -31.2990   26.0170 C   0  0  0  0  0  1  0  0  0  0  0  0
  -27.2220  -30.2780   24.4720 C   0  0  0  0  0  1  0  0  0  0  0  0
  -27.7310  -32.4330   25.5950 C   0  0  0  0  0  1  0  0  0  0  0  0
  2  4  1  0
  2  1  1  0
  3  2  1  0
  5 17  1  0
  6 11  1  0
  7  8  1  0
  7  6  1  0
  9  8  1  0
  9 21  1  0
  9 10  1  0
 11  5  1  0
 11 10  1  0
 12  5  2  0
 14 13  1  0
 15 46  1  0
 15 17  1  0
 15 16  1  0
 16  2  1  0
 16 13  1  0
 17 14  1  0
 18 19  2  0
 19 38  1  0
 20 19  1  0
 20 23  1  0
 21 22  1  0
 21 18  1  0
 22 20  2  0
 23 24  1  0
 24 25  2  0
 26 29  1  0
 26 25  1  0
 27 26  2  0
 28 27  1  0
 28 23  2  0
 29 30  1  0
 30 35  2  0
 30 31  1  0
 31 32  2  0
 32 33  1  0
 33 37  1  0
 34 33  2  0
 35 34  1  0
 36 35  1  0
 38 39  1  0
 39 42  1  0
 39 41  1  0
 40 38  2  0
 43 18  1  0
 43 44  1  0
 45 43  1  0
 47 46  1  0
 48 46  2  0
 49 47  1  0
 50 47  1  0
 51  1  1  0
 51 52  1  0
 53 52  1  0
 54 53  1  0
 55 54  1  0
 55 57  1  0
 57 56  1  0
 58 60  1  0
 58 55  1  0
 59 70  2  0
 60 65  1  0
 61 69  1  0
 61 71  1  0
 62 68  1  0
 62 64  1  0
 63 69  1  0
 64 63  1  0
 65 64  2  0
 66 67  1  0
 66 60  2  0
 67 62  2  0
 68 61  1  0
 69 59  1  0
 71 73  2  0
 72 71  1  0
 74 72  1  0
 75 84  2  0
 75 80  1  0
 76 72  1  0
 76 80  1  0
 77 76  1  0
 78 79  1  0
 78 77  1  0
 79 75  1  0
 80 81  2  0
 81 82  1  0
 83 82  2  0
 84 83  1  0
 85 59  1  0
 85 86  1  0
 85 95  1  0
 86 89  1  0
 87 91  1  0
 87 86  1  0
 88 87  2  0
 91 90  1  0
 93 91  1  0
 93 94  1  0
 93 92  1  0
 95 98  1  1
 95 96  1  0
 97 95  1  0
M  ISO  4   5 100  17 100  55 101  58 101
M  END
>  <TORSDO>  (52) 
F 24

>  <SCORE>  (52) 
-11.154

>  <name>  (52) 
54

>  <ligand_id>  (52) 
54

>  <original_smiles>  (52) 
[H]c1c([H])c([H])c2c(c1[H])C([H])([H])C([H])([H])C([H])([H])C2([H])N([H])C(=O)C1([H])N(C(=O)C([H])(N([H])C(=O)C([H])(N([H])C([H])([H])[H])C([H])([H])[H])C(C([H])([H])[H])(C([H])([H])[H])C([H])([H])[H])C([H])([H])c2c([H])c(OC([H])(C([H])([H])C([H])([H])[H])C([H])([H])C([H])([H])C([H])([H])C([H])([H])C([H])([H])[N+]([H])([H])C3([H])C([H])(C(=O)N([H])[H])N(C(=O)N4C([H])([H])C([H])([H])C([H])([H])C([H])(n5nc(-c6c([H])c([H])c(Oc7c([H])c([H])c(F)c([H])c7F)c([H])c6[H])c(C(=O)N([H])[H])c5N([H])[H])C4([H])[H])C([H])([H])C3([H])[H])c([H])c([H])c2C1([H])[H]

>  <smiles>  (52) 
[H]c1c([H])c([H])c2c(c1[H])C([H])([H])C([H])([H])C([H])([H])C2([H])N([H])C(=O)C1([H])N(C(=O)C([H])(N([H])C(=O)C([H])(N([H])C([H])([H])[H])C([H])([H])[H])C(C([H])([H])[H])(C([H])([H])[H])C([H])([H])[H])C([H])([H])c2c([H])c(OC([H])(C([H])([H])C([H])([H])[H])C([H])([H])C([H])([H])C([H])([H])C([H])([H])C([H])([H])[N+]([H])([H])C3([H])C([H])(C(=O)N([H])[H])N(C(=O)N4C([H])([H])C([H])([H])C([H])([H])C([H])(n5nc(-c6c([H])c([H])c(Oc7c([H])c([H])c(F)c([H])c7F)c([H])c6[H])c(C(=O)N([H])[H])c5N([H])[H])C4([H])[H])C([H])([H])C3([H])[H])c([H])c([H])c2C1([H])[H]

$$$$
55:0:0
     RDKit          3D

101 96  0  0  1  0  0  0  0  0999 V2000
  -19.6570  -28.7860   22.9180 C   0  0  0  0  0 15  0  0  0  0  0  0
  -21.9870  -25.3570   21.8320 C   0  0  0  0  0 15  0  0  0  0  0  0
  -22.0940  -29.7920   24.1960 C   0  0  0  0  0 15  0  0  0  0  0  0
  -23.8060  -26.9380   22.3280 C   0  0  0  0  0 15  0  0  0  0  0  0
  -19.4360  -26.5210   22.0100 C   0  0  0  0  0  1  0  0  0  0  0  0
  -23.6970  -28.6460   23.4200 N   0  0  0  0  0  2  0  0  0  0  0  0
  -23.3660  -28.9850   22.5340 H   0  0  0  0  0  0  0  0  0  0  0  0
  -25.5780  -26.8300   21.2370 C   0  0  0  0  0  2  0  0  0  0  0  0
  -26.8680  -27.5830   20.4800 N   0  0  0  0  0  2  0  0  0  0  0  0
  -25.8030  -25.6270   21.1210 O   0  0  0  0  0  1  0  0  0  0  0  0
  -26.6390  -28.5680   20.4920 H   0  0  0  0  0  0  0  0  0  0  0  0
  -28.6920  -27.4820   19.7640 C   0  0  0  0  0 15  0  0  0  0  0  0
  -30.2210  -28.0480   18.3360 C   0  0  0  0  0 15  0  0  0  0  0  0
  -32.2650  -27.8850   17.6320 C   0  0  0  0  0 15  0  0  0  0  0  0
  -35.2750  -28.5930   15.8580 C   0  0  0  0  0  0  0  0  0  0  0  0
  -37.0120  -29.3400   13.7850 C   0  0  0  0  0  2  0  0  0  0  0  0
  -36.5450  -30.4640   12.7880 C   0  0  0  0  0  2  0  0  0  0  0  0
  -35.3810  -29.9830   11.9030 C   0  0  0  0  0  2  0  0  0  0  0  0
  -34.4760  -29.0650   12.7400 C   0  0  0  0  0  3  0  0  0  0  0  0
  -35.2260  -27.9150   13.3910 C   0  0  0  0  0  2  0  0  0  0  0  0
  -35.8200  -28.6080   14.4860 N   0  0  0  0  0  0  0  0  0  0  0  0
  -36.3390  -28.8900   16.4970 O   0  0  0  0  0  0  0  0  0  0  0  0
  -33.6890  -28.3560   16.3750 N   0  0  0  0  0  2  0  0  0  0  0  0
  -33.2010  -28.3280   15.4830 H   0  0  0  0  0  0  0  0  0  0  0  0
  -32.1650  -28.1490   12.6680 C   0  0  0  0  0  0  0  0  0  0  0  0
  -31.4170  -27.6530   11.6460 C   0  0  0  0  0  0  0  0  0  0  0  0
  -32.2500  -27.7080   10.4850 C   0  0  0  0  0  0  0  0  0  0  0  0
  -33.3570  -28.5060   12.0800 N   0  0  0  0  0  0  0  0  0  0  0  0
  -33.4550  -28.1590   10.7850 N   0  0  0  0  0  0  0  0  0  0  0  0
  -31.9480  -27.4420    9.0850 C   0  0  0  0  0  0  0  0  0  0  0  0
  -32.7610  -26.5960    8.3000 C   0  0  0  0  0  3  0  0  0  0  0  0
  -32.4340  -26.3540    6.9510 C   0  0  0  0  0  3  0  0  0  0  0  0
  -31.2850  -26.9560    6.3850 C   0  0  0  0  0  0  0  0  0  0  0  0
  -30.5000  -27.8210    7.1650 C   0  0  0  0  0  3  0  0  0  0  0  0
  -30.8300  -28.0680    8.5060 C   0  0  0  0  0  3  0  0  0  0  0  0
  -30.8950  -26.7910    5.0790 O   0  0  0  0  0  0  0  0  0  0  0  0
  -31.3090  -25.7110    4.3430 C   0  0  0  0  0  0  0  0  0  0  0  0
  -31.0470  -24.3840    4.7500 C   0  0  0  0  0  3  0  0  0  0  0  0
  -31.4270  -23.3090    3.9230 C   0  0  0  0  0  3  0  0  0  0  0  0
  -32.0580  -23.5550    2.6900 C   0  0  0  0  0  0  0  0  0  0  0  0
  -32.3140  -24.8760    2.2820 C   0  0  0  0  0  3  0  0  0  0  0  0
  -31.9380  -25.9510    3.1060 C   0  0  0  0  0  0  0  0  0  0  0  0
  -32.1690  -27.2220    2.6990 F   0  0  0  0  0  0  0  0  0  0  0  0
  -32.4150  -22.5220    1.8920 F   0  0  0  0  0  0  0  0  0  0  0  0
  -29.9740  -27.2740   11.7270 C   0  0  0  0  0  0  0  0  0  0  0  0
  -29.5580  -26.2920   10.9370 N   0  0  0  0  0  0  0  0  0  0  0  0
  -29.2190  -27.8200   12.5300 O   0  0  0  0  0  0  0  0  0  0  0  0
  -30.1890  -25.8380   10.2940 H   0  0  0  0  0  0  0  0  0  0  0  0
  -28.5940  -25.9910   10.9750 H   0  0  0  0  0  0  0  0  0  0  0  0
  -31.9330  -28.3570   14.0270 N   0  0  0  0  0  0  0  0  0  0  0  0
  -30.9620  -28.2510   14.3000 H   0  0  0  0  0  0  0  0  0  0  0  0
  -32.3150  -29.2110   14.4140 H   0  0  0  0  0  0  0  0  0  0  0  0
  -18.4910  -26.5000   20.7590 C   0  0  0  0  0  2  0  0  0  0  0  0
  -16.3630  -27.6710   19.9430 C   0  0  0  0  0  1  0  0  0  0  0  0
  -17.0520  -26.9360   21.0950 C   0  0  0  0  0  3  0  0  0  0  0  0
  -16.3350  -25.8590   21.4230 F   0  0  0  0  0  0  0  0  0  0  0  0
  -25.0090  -29.5330   23.1760 C   0  0  0  0  0  2  0  0  0  0  0  0
  -25.3190  -31.0490   23.8890 C   0  0  0  0  0  2  0  0  0  0  0  0
  -25.7770  -32.4920   23.2480 C   0  0  0  0  0  2  0  0  0  0  0  0
  -25.4930  -34.0290   23.8300 C   0  0  0  0  0  2  0  0  0  0  0  0
  -26.1720  -34.9130   24.8870 O   0  0  0  0  0  0  0  0  0  0  0  0
  -32.4920  -34.1340   26.8770 C   0  0  0  0  0  0  0  0  0  0  0  0
  -26.7030  -34.1770   25.8950 C   0  0  0  0  0  0  0  0  0  0  0  0
  -31.1100  -32.0990   26.8220 C   0  0  0  0  0  3  0  0  0  0  0  0
  -28.5920  -32.4040   26.8550 C   0  0  0  0  0  0  0  0  0  0  0  0
  -30.1010  -34.2570   27.6330 C   0  0  0  0  0  2  0  0  0  0  0  0
  -28.7880  -33.7830   27.0350 C   0  0  0  0  0  0  0  0  0  0  0  0
  -27.8180  -34.6910   26.5800 C   0  0  0  0  0  3  0  0  0  0  0  0
  -26.4090  -32.8050   25.8980 C   0  0  0  0  0  3  0  0  0  0  0  0
  -27.3960  -31.9040   26.3130 C   0  0  0  0  0  3  0  0  0  0  0  0
  -29.7400  -31.5240   27.2800 C   0  0  0  0  0  2  0  0  0  0  0  0
  -31.2850  -33.5420   27.1140 N   0  0  0  0  0  0  0  0  0  0  0  0
  -33.4540  -33.5000   26.4130 O   0  0  0  0  0  0  0  0  0  0  0  0
  -31.0850  -31.9370   25.3540 C   0  0  0  0  0  0  0  0  0  0  0  0
  -30.8700  -30.6880   24.9330 N   0  0  0  0  0  0  0  0  0  0  0  0
  -31.1510  -32.9150   24.6140 O   0  0  0  0  0  0  0  0  0  0  0  0
  -30.8780  -29.9760   25.6530 H   0  0  0  0  0  0  0  0  0  0  0  0
  -31.6380  -28.3740   21.8570 C   0  0  0  0  0  2  0  0  0  0  0  0
  -30.5940  -30.1840   23.5520 C   0  0  0  0  0  2  0  0  0  0  0  0
  -29.0940  -30.2430   23.2530 C   0  0  0  0  0  2  0  0  0  0  0  0
  -28.5560  -28.9920   22.8530 C   0  0  0  0  0  2  0  0  0  0  0  0
  -29.7620  -28.2920   22.9680 C   0  0  0  0  0  1  0  0  0  0  0  0
  -32.0870  -29.2510   22.1620 C   0  0  0  0  0  2  0  0  0  0  0  0
  -33.6720  -29.1690   22.4010 C   0  0  0  0  0  2  0  0  0  0  0  0
  -34.4290  -27.9980   22.6350 C   0  0  0  0  0  2  0  0  0  0  0  0
  -33.8360  -26.9350   22.0040 C   0  0  0  0  0  2  0  0  0  0  0  0
  -32.5910  -27.2580   21.3300 C   0  0  0  0  0  2  0  0  0  0  0  0
  -32.7160  -35.6320   27.2120 C   0  0  0  0  0  3  0  0  0  0  0  0
  -32.6740  -36.5870   25.9580 C   0  0  1  0  0  0  0  0  0  0  0  0
  -33.6660  -36.1980   24.8390 C   0  0  0  0  0  1  0  0  0  0  0  0
  -31.2560  -36.6190   25.3420 C   0  0  0  0  0  1  0  0  0  0  0  0
  -32.9980  -38.0320   26.4080 C   0  0  0  0  0  1  0  0  0  0  0  0
  -34.0100  -35.7160   27.8910 N   0  0  0  0  0  0  0  0  0  0  0  0
  -34.1490  -35.7890   29.2210 C   0  0  0  0  0  0  0  0  0  0  0  0
  -33.1880  -35.8790   29.9920 O   0  0  0  0  0  0  0  0  0  0  0  0
  -34.8370  -35.5920   27.3260 H   0  0  0  0  0  0  0  0  0  0  0  0
  -35.8930  -34.3680   30.3420 C   0  0  0  0  0  1  0  0  0  0  0  0
  -35.5810  -35.7650   29.7840 C   0  0  0  0  0  3  0  0  0  0  0  0
  -35.7910  -38.1520   30.3150 C   0  0  0  0  0  1  0  0  0  0  0  0
  -35.8150  -36.7840   30.8290 N   0  0  0  0  0  0  0  0  0  0  0  0
  -36.7100  -36.6340   31.2840 H   0  0  0  0  0  0  0  0  0  0  0  0
  7  6  1  0
  9 11  1  0
  9  8  1  0
 10  8  1  0
 15 23  1  0
 15 22  2  0
 16 21  1  0
 17 16  1  0
 18 17  1  0
 19 18  1  0
 19 20  1  0
 20 21  1  0
 21 15  1  0
 24 23  1  0
 25 50  1  0
 26 45  1  0
 26 25  2  0
 27 29  2  0
 27 26  1  0
 28 25  1  0
 28 19  1  0
 29 28  1  0
 30 27  1  0
 31 30  2  0
 32 31  1  0
 33 32  2  0
 33 34  1  0
 34 35  2  0
 35 30  1  0
 36 33  1  0
 37 38  1  0
 37 36  1  0
 39 38  2  0
 40 39  1  0
 41 40  2  0
 41 42  1  0
 42 37  2  0
 43 42  1  0
 44 40  1  0
 45 47  2  0
 46 49  1  0
 46 45  1  0
 48 46  1  0
 50 51  1  0
 50 52  1  0
 53 55  1  0
 53  5  1  0
 55 54  1  0
 55 56  1  0
 57  6  1  0
 57 58  1  0
 59 60  1  0
 59 58  1  0
 60 61  1  0
 61 63  1  0
 62 72  1  0
 63 69  2  0
 63 68  1  0
 64 74  1  0
 64 72  1  0
 64 71  1  0
 65 67  1  0
 65 71  1  0
 67 66  1  0
 68 67  2  0
 69 70  1  0
 70 65  2  0
 72 66  1  0
 73 62  2  0
 75 74  1  0
 75 77  1  0
 76 74  2  0
 78 83  1  0
 79 75  1  0
 80 79  1  0
 81 82  1  0
 81 80  1  0
 83 84  1  0
 84 85  1  0
 86 85  1  0
 87 78  1  0
 87 86  1  0
 88 62  1  0
 88 93  1  0
 89 92  1  1
 89 88  1  0
 90 89  1  0
 91 89  1  0
 93 94  1  0
 94 98  1  0
 94 95  2  0
 96 93  1  0
 98 97  1  0
 98100  1  0
 99100  1  0
100101  1  0
M  ISO  4  15 100  23 100  60 101  61 101
M  END
>  <TORSDO>  (53) 
F 26

>  <SCORE>  (53) 
-3.045

>  <name>  (53) 
55

>  <ligand_id>  (53) 
55

>  <original_smiles>  (53) 
[H]c1c([H])c([H])c2c(c1[H])C([H])([H])C([H])([H])C([H])([H])C2([H])N([H])C(=O)C1([H])N(C(=O)C([H])(N([H])C(=O)C([H])(N([H])C([H])([H])[H])C([H])([H])[H])C(C([H])([H])[H])(C([H])([H])[H])C([H])([H])[H])C([H])([H])c2c([H])c(OC([H])([H])C([H])([H])C([H])([H])C([H])([H])[N+]3([H])C([H])([H])C([H])([H])C([H])(C([H])([H])C([H])(F)C([H])([H])[H])C([H])([H])C3([H])C(=O)N([H])C([H])([H])C([H])([H])C([H])([H])N([H])C(=O)N3C([H])([H])C([H])([H])C([H])([H])C([H])(n4nc(-c5c([H])c([H])c(Oc6c([H])c([H])c(F)c([H])c6F)c([H])c5[H])c(C(=O)N([H])[H])c4N([H])[H])C3([H])[H])c([H])c([H])c2C1([H])[H]

>  <smiles>  (53) 
[H]c1c([H])c([H])c2c(c1[H])C([H])([H])C([H])([H])C([H])([H])C2([H])N([H])C(=O)C1([H])N(C(=O)C([H])(N([H])C(=O)C([H])(N([H])C([H])([H])[H])C([H])([H])[H])C(C([H])([H])[H])(C([H])([H])[H])C([H])([H])[H])C([H])([H])c2c([H])c(OC([H])([H])C([H])([H])C([H])([H])C([H])([H])[N+]3([H])C([H])([H])C([H])([H])C([H])(C([H])([H])C([H])(F)C([H])([H])[H])C([H])([H])C3([H])C(=O)N([H])C([H])([H])C([H])([H])C([H])([H])N([H])C(=O)N3C([H])([H])C([H])([H])C([H])([H])C([H])(n4nc(-c5c([H])c([H])c(Oc6c([H])c([H])c(F)c([H])c6F)c([H])c5[H])c(C(=O)N([H])[H])c4N([H])[H])C3([H])[H])c([H])c([H])c2C1([H])[H]

$$$$
56:0:0
     RDKit          3D

 95103  0  0  1  0  0  0  0  0999 V2000
  -32.0110  -25.4840   17.3480 C   0  0  0  0  0  2  0  0  0  0  0  0
  -30.6660  -24.7850   17.3500 C   0  0  0  0  0  3  0  0  0  0  0  0
  -31.6840  -24.4880   18.4320 C   0  0  0  0  0  3  0  0  0  0  0  0
  -29.3840  -25.5150   17.7070 C   0  0  0  0  0  2  0  0  0  0  0  0
  -28.5630  -24.7350   18.7370 C   0  0  0  0  0  0  0  0  0  0  0  0
  -28.1260  -23.6120   18.4670 O   0  0  0  0  0  0  0  0  0  0  0  0
  -28.3320  -25.3490   20.1250 C   0  0  0  0  0  2  0  0  0  0  0  0
  -28.4050  -26.7770   20.1070 O   0  0  0  0  0  0  0  0  0  0  0  0
  -24.5890  -31.8760   23.2320 C   0  0  0  0  0  0  0  0  0  0  0  0
  -27.2140  -27.4640   20.1110 C   0  0  0  0  0  0  0  0  0  0  0  0
  -23.3700  -30.4780   21.5960 C   0  0  0  0  0  3  0  0  0  0  0  0
  -24.8110  -28.9490   20.1560 C   0  0  0  0  0  0  0  0  0  0  0  0
  -25.8910  -30.8480   21.3740 C   0  0  0  0  0  2  0  0  0  0  0  0
  -25.9720  -29.4800   20.7300 C   0  0  0  0  0  0  0  0  0  0  0  0
  -27.1760  -28.7460   20.7020 C   0  0  0  0  0  3  0  0  0  0  0  0
  -26.0310  -26.9410   19.5380 C   0  0  0  0  0  3  0  0  0  0  0  0
  -24.8330  -27.6790   19.5590 C   0  0  0  0  0  3  0  0  0  0  0  0
  -23.5660  -29.8040   20.2120 C   0  0  0  0  0  2  0  0  0  0  0  0
  -24.6360  -31.0800   22.1250 N   0  0  0  0  0  0  0  0  0  0  0  0
  -23.5130  -32.1460   23.7810 O   0  0  0  0  0  0  0  0  0  0  0  0
  -22.7300  -29.4510   22.5570 C   0  0  0  0  0  0  0  0  0  0  0  0
  -21.4040  -29.2690   22.4400 N   0  0  0  0  0  0  0  0  0  0  0  0
  -23.4210  -28.8220   23.3630 O   0  0  0  0  0  0  0  0  0  0  0  0
  -20.9080  -29.8290   21.7620 H   0  0  0  0  0  0  0  0  0  0  0  0
  -18.0340  -28.0750   22.9560 C   0  0  0  0  0  0  0  0  0  0  0  0
  -20.5930  -28.3290   23.2130 C   0  0  0  0  0  3  0  0  0  0  0  0
  -20.6910  -26.8990   22.6330 C   0  0  0  0  0  2  0  0  0  0  0  0
  -19.5820  -26.5800   21.6250 C   0  0  0  0  0  2  0  0  0  0  0  0
  -18.2050  -26.7250   22.2780 C   0  0  0  0  0  2  0  0  0  0  0  0
  -19.1570  -28.8340   23.3820 C   0  0  0  0  0  0  0  0  0  0  0  0
  -18.9440  -30.0980   23.9740 C   0  0  0  0  0  3  0  0  0  0  0  0
  -17.6400  -30.6020   24.1460 C   0  0  0  0  0  3  0  0  0  0  0  0
  -16.5330  -29.8400   23.7380 C   0  0  0  0  0  3  0  0  0  0  0  0
  -16.7310  -28.5780   23.1490 C   0  0  0  0  0  3  0  0  0  0  0  0
  -25.8820  -32.5030   23.8420 C   0  0  0  0  0  3  0  0  0  0  0  0
  -26.4140  -31.7260   25.1070 C   0  0  1  0  0  0  0  0  0  0  0  0
  -25.3340  -31.4840   26.1870 C   0  0  0  0  0  1  0  0  0  0  0  0
  -26.9920  -30.3500   24.6980 C   0  0  0  0  0  1  0  0  0  0  0  0
  -27.5720  -32.5170   25.7600 C   0  0  0  0  0  1  0  0  0  0  0  0
  -25.5770  -33.9000   24.1770 N   0  0  0  0  0  0  0  0  0  0  0  0
  -25.9070  -34.9540   23.4190 C   0  0  0  0  0  0  0  0  0  0  0  0
  -26.5720  -34.8510   22.3840 O   0  0  0  0  0  0  0  0  0  0  0  0
  -24.9840  -34.0540   24.9800 H   0  0  0  0  0  0  0  0  0  0  0  0
  -24.1780  -36.7460   23.0710 C   0  0  0  0  0  1  0  0  0  0  0  0
  -25.4210  -36.3410   23.8800 C   0  0  0  0  0  3  0  0  0  0  0  0
  -27.5610  -37.2170   24.7050 C   0  0  0  0  0  1  0  0  0  0  0  0
  -26.4530  -37.3920   23.7680 N   0  0  0  0  0  0  0  0  0  0  0  0
  -26.0490  -38.3120   23.9230 H   0  0  0  0  0  0  0  0  0  0  0  0
  -32.3540  -23.1330   18.4940 C   0  0  0  0  0  2  0  0  0  0  0  0
  -31.8390  -20.7850   19.0590 C   0  0  0  0  0  0  0  0  0  0  0  0
  -31.4680  -22.0610   18.9280 N   0  0  0  0  0  0  0  0  0  0  0  0
  -33.0010  -20.4150   18.8790 O   0  0  0  0  0  0  0  0  0  0  0  0
  -30.4930  -22.2890   19.0780 H   0  0  0  0  0  0  0  0  0  0  0  0
  -30.7480  -19.7680   19.4050 C   0  0  0  0  0  2  0  0  0  0  0  0
  -31.1290  -18.8350   20.5720 C   0  0  0  0  0  2  0  0  0  0  0  0
  -30.2740  -17.5590   20.6100 C   0  0  0  0  0  2  0  0  0  0  0  0
  -30.7010  -16.5880   21.7290 C   0  0  0  0  0  2  0  0  0  0  0  0
  -30.7140  -14.3750   20.6130 C   0  0  0  0  0  0  0  0  0  0  0  0
  -30.3520  -12.2990   19.3440 C   0  0  0  0  0  2  0  0  0  0  0  0
  -29.4060  -12.5570   18.1550 C   0  0  0  0  0  2  0  0  0  0  0  0
  -27.9350  -12.4180   18.5890 C   0  0  0  0  0  2  0  0  0  0  0  0
  -27.6120  -13.2280   19.8730 C   0  0  0  0  0  3  0  0  0  0  0  0
  -28.6630  -12.9500   20.9710 C   0  0  0  0  0  2  0  0  0  0  0  0
  -30.0000  -13.2380   20.4170 N   0  0  0  0  0  0  0  0  0  0  0  0
  -31.7570  -14.6350   20.0050 O   0  0  0  0  0  0  0  0  0  0  0  0
  -30.1870  -15.2420   21.4860 N   0  0  0  0  0  0  0  0  0  0  0  0
  -29.3470  -14.9570   21.9680 H   0  0  0  0  0  0  0  0  0  0  0  0
  -25.2080  -13.8370   20.5670 C   0  0  0  0  0  0  0  0  0  0  0  0
  -24.1400  -13.0630   20.9360 C   0  0  0  0  0  0  0  0  0  0  0  0
  -24.6030  -11.7120   20.9120 C   0  0  0  0  0  0  0  0  0  0  0  0
  -26.2560  -12.9560   20.3460 N   0  0  0  0  0  0  0  0  0  0  0  0
  -25.8940  -11.6740   20.6050 N   0  0  0  0  0  0  0  0  0  0  0  0
  -23.8800  -10.4490   21.1050 C   0  0  0  0  0  0  0  0  0  0  0  0
  -24.3330   -9.4680   22.0140 C   0  0  0  0  0  3  0  0  0  0  0  0
  -23.6110   -8.2700   22.1940 C   0  0  0  0  0  3  0  0  0  0  0  0
  -22.4180   -8.0430   21.4650 C   0  0  0  0  0  0  0  0  0  0  0  0
  -21.9840   -9.0120   20.5430 C   0  0  0  0  0  3  0  0  0  0  0  0
  -22.7080  -10.2020   20.3610 C   0  0  0  0  0  3  0  0  0  0  0  0
  -21.6640   -6.8980   21.5560 O   0  0  0  0  0  0  0  0  0  0  0  0
  -21.6670   -6.1230   22.6880 C   0  0  0  0  0  0  0  0  0  0  0  0
  -21.3140   -6.6480   23.9510 C   0  0  0  0  0  3  0  0  0  0  0  0
  -21.2630   -5.8010   25.0750 C   0  0  0  0  0  3  0  0  0  0  0  0
  -21.5520   -4.4300   24.9400 C   0  0  0  0  0  0  0  0  0  0  0  0
  -21.8980   -3.9050   23.6820 C   0  0  0  0  0  3  0  0  0  0  0  0
  -21.9520   -4.7490   22.5590 C   0  0  0  0  0  0  0  0  0  0  0  0
  -22.2650   -4.2330   21.3460 F   0  0  0  0  0  0  0  0  0  0  0  0
  -21.4970   -3.6140   26.0190 F   0  0  0  0  0  0  0  0  0  0  0  0
  -22.7410  -13.5380   21.2080 C   0  0  0  0  0  0  0  0  0  0  0  0
  -22.0160  -12.8430   22.0770 N   0  0  0  0  0  0  0  0  0  0  0  0
  -22.2990  -14.5600   20.6850 O   0  0  0  0  0  0  0  0  0  0  0  0
  -22.3870  -12.0160   22.5220 H   0  0  0  0  0  0  0  0  0  0  0  0
  -21.0780  -13.1430   22.3040 H   0  0  0  0  0  0  0  0  0  0  0  0
  -25.3700  -15.2060   20.3850 N   0  0  0  0  0  0  0  0  0  0  0  0
  -24.6030  -15.8630   20.4920 H   0  0  0  0  0  0  0  0  0  0  0  0
  -26.2270  -15.6470   20.0730 H   0  0  0  0  0  0  0  0  0  0  0  0
  1  2  1  0
  1  3  1  0
  2  4  1  0
  2  3  1  0
  3 49  1  0
  4  5  1  0
  5  7  1  0
  6  5  2  0
  8 10  1  0
  8  7  1  0
  9 20  2  0
 10 15  1  0
 11 19  1  0
 11 21  1  0
 12 18  1  0
 12 14  1  0
 13 19  1  0
 14 13  1  0
 15 14  2  0
 16 17  1  0
 16 10  2  0
 17 12  2  0
 18 11  1  0
 19  9  1  0
 21 23  2  0
 22 21  1  0
 24 22  1  0
 25 34  2  0
 25 30  1  0
 26 22  1  0
 26 30  1  0
 27 26  1  0
 28 29  1  0
 28 27  1  0
 29 25  1  0
 30 31  2  0
 31 32  1  0
 33 32  2  0
 34 33  1  0
 35  9  1  0
 35 40  1  0
 35 36  1  0
 36 39  1  1
 36 37  1  0
 38 36  1  0
 40 43  1  0
 41 45  1  0
 41 40  1  0
 42 41  2  0
 45 44  1  0
 47 45  1  0
 47 48  1  0
 47 46  1  0
 49 51  1  0
 50 54  1  0
 51 50  1  0
 51 53  1  0
 52 50  2  0
 54 55  1  0
 55 56  1  0
 56 57  1  0
 58 66  1  0
 59 64  1  0
 60 61  1  0
 60 59  1  0
 62 61  1  0
 62 71  1  0
 62 63  1  0
 64 58  1  0
 64 63  1  0
 65 58  2  0
 66 57  1  0
 66 67  1  0
 68 69  2  0
 69 88  1  0
 70 69  1  0
 70 73  1  0
 71 68  1  0
 71 72  1  0
 72 70  2  0
 73 74  1  0
 74 75  2  0
 76 79  1  0
 76 75  1  0
 77 76  2  0
 78 77  1  0
 78 73  2  0
 79 80  1  0
 80 81  1  0
 81 82  2  0
 83 82  1  0
 83 87  1  0
 84 83  2  0
 85 80  2  0
 85 84  1  0
 86 85  1  0
 88 89  1  0
 89 92  1  0
 89 91  1  0
 90 88  2  0
 93 94  1  0
 93 68  1  0
 95 93  1  0
M  ISO  4   7 101   8 101  58 100  66 100
M  END
>  <TORSDO>  (54) 
F 25

>  <SCORE>  (54) 
-12.067

>  <name>  (54) 
56

>  <ligand_id>  (54) 
56

>  <original_smiles>  (54) 
[H]c1c([H])c([H])c2c(c1[H])C([H])([H])C([H])([H])C([H])([H])C2([H])N([H])C(=O)C1([H])N(C(=O)C([H])(N([H])C(=O)C([H])(N([H])C([H])([H])[H])C([H])([H])[H])C(C([H])([H])[H])(C([H])([H])[H])C([H])([H])[H])C([H])([H])c2c([H])c(OC([H])([H])C(=O)C([H])([H])C3([H])C([H])([H])C3([H])C([H])([H])N([H])C(=O)C([H])([H])C([H])([H])C([H])([H])C([H])([H])N([H])C(=O)N3C([H])([H])C([H])([H])C([H])([H])C([H])(n4nc(-c5c([H])c([H])c(Oc6c([H])c([H])c(F)c([H])c6F)c([H])c5[H])c(C(=O)N([H])[H])c4N([H])[H])C3([H])[H])c([H])c([H])c2C1([H])[H]

>  <smiles>  (54) 
[H]c1c([H])c([H])c2c(c1[H])C([H])([H])C([H])([H])C([H])([H])C2([H])N([H])C(=O)C1([H])N(C(=O)C([H])(N([H])C(=O)C([H])(N([H])C([H])([H])[H])C([H])([H])[H])C(C([H])([H])[H])(C([H])([H])[H])C([H])([H])[H])C([H])([H])c2c([H])c(OC([H])([H])C(=O)C([H])([H])C3([H])C([H])([H])C3([H])C([H])([H])N([H])C(=O)C([H])([H])C([H])([H])C([H])([H])C([H])([H])N([H])C(=O)N3C([H])([H])C([H])([H])C([H])([H])C([H])(n4nc(-c5c([H])c([H])c(Oc6c([H])c([H])c(F)c([H])c6F)c([H])c5[H])c(C(=O)N([H])[H])c4N([H])[H])C3([H])[H])c([H])c([H])c2C1([H])[H]

$$$$
57:0:0
     RDKit          3D

 99 97  0  0  1  0  0  0  0  0999 V2000
  -25.1440  -14.0030   23.3790 C   0  0  0  0  0  0  0  0  0  0  0  0
  -25.2650  -15.3930   22.7250 N   0  0  0  0  0  0  0  0  0  0  0  0
  -25.4200  -14.0430   24.5780 O   0  0  0  0  0  0  0  0  0  0  0  0
  -25.0020  -15.2590   21.7520 H   0  0  0  0  0  0  0  0  0  0  0  0
  -29.1380  -12.6030   20.4390 C   0  0  2  0  0  0  0  0  0  0  0  0
  -30.0740  -11.4640   19.7850 C   0  0  0  0  0  1  0  0  0  0  0  0
  -29.3700  -12.0140   18.1470 C   0  0  0  0  0  1  0  0  0  0  0  0
  -28.1770  -13.2760   18.1620 C   0  0  0  0  0  2  0  0  0  0  0  0
  -27.6330  -14.1320   19.6100 C   0  0  0  0  0  2  0  0  0  0  0  0
  -28.5290  -13.6640   21.2870 C   0  0  0  0  0  1  0  0  0  0  0  0
  -29.7060  -12.3730   21.2270 N   0  0  0  0  0  1  0  0  0  0  0  0
  -30.1090  -13.6290   19.8430 O   0  0  0  0  0  1  0  0  0  0  0  0
  -23.1510  -11.6050   21.2090 C   0  0  0  0  0 15  0  0  0  0  0  0
  -26.8020  -11.5220   22.2510 C   0  0  0  0  0 15  0  0  0  0  0  0
  -24.7800  -12.2130   22.8400 C   0  0  0  0  0  1  0  0  0  0  0  0
  -24.0540  -11.4090   19.0680 C   0  0  0  0  0  1  0  0  0  0  0  0
  -26.3150  -11.0750   19.1070 C   0  0  0  0  0  1  0  0  0  0  0  0
  -27.6560  -11.5770   20.4970 N   0  0  0  0  0 15  0  0  0  0  0  0
  -25.1780  -14.5630   19.9880 C   0  0  0  0  0  3  0  0  0  0  0  0
  -24.3210  -13.7150   20.5800 C   0  0  0  0  0  3  0  0  0  0  0  0
  -25.2130  -12.4670   20.6540 C   0  0  0  0  0  2  0  0  0  0  0  0
  -26.2650  -13.8510   19.7410 N   0  0  0  0  0  0  0  0  0  0  0  0
  -26.0640  -13.3250   20.8170 N   0  0  0  0  0  2  0  0  0  0  0  0
  -24.9930  -10.2850   21.0480 C   0  0  0  0  0  2  0  0  0  0  0  0
  -24.7080   -9.4880   22.2740 C   0  0  0  0  0  2  0  0  0  0  0  0
  -23.7440   -8.3960   22.5050 C   0  0  0  0  0  3  0  0  0  0  0  0
  -22.7220   -8.0440   21.5670 C   0  0  0  0  0  0  0  0  0  0  0  0
  -22.8370   -8.7230   20.3910 C   0  0  0  0  0  2  0  0  0  0  0  0
  -24.1260   -9.3160   20.2260 C   0  0  0  0  0  2  0  0  0  0  0  0
  -21.7650   -7.0430   21.5920 O   0  0  0  0  0  0  0  0  0  0  0  0
  -21.7250   -6.1280   22.6040 C   0  0  0  0  0  0  0  0  0  0  0  0
  -21.4080   -6.5690   23.9010 C   0  0  0  0  0  3  0  0  0  0  0  0
  -21.3560   -5.6530   24.9630 C   0  0  0  0  0  3  0  0  0  0  0  0
  -21.5980   -4.2890   24.7270 C   0  0  0  0  0  0  0  0  0  0  0  0
  -21.8710   -3.8340   23.4240 C   0  0  0  0  0  3  0  0  0  0  0  0
  -21.9300   -4.7490   22.3570 C   0  0  0  0  0  0  0  0  0  0  0  0
  -22.1780   -4.2920   21.1040 F   0  0  0  0  0  0  0  0  0  0  0  0
  -21.5590   -3.4170   25.7600 F   0  0  0  0  0  0  0  0  0  0  0  0
  -22.8830  -14.1850   21.0200 C   0  0  0  0  0  0  0  0  0  0  0  0
  -22.2940  -13.8440   22.1900 N   0  0  0  0  0  0  0  0  0  0  0  0
  -22.2390  -14.9030   20.2910 O   0  0  0  0  0  0  0  0  0  0  0  0
  -22.7360  -13.2000   22.8280 H   0  0  0  0  0  0  0  0  0  0  0  0
  -21.3830  -14.2140   22.4180 H   0  0  0  0  0  0  0  0  0  0  0  0
  -25.2140  -15.9110   19.8750 N   0  0  0  0  0  0  0  0  0  0  0  0
  -24.3880  -16.4900   19.9620 H   0  0  0  0  0  0  0  0  0  0  0  0
  -25.9860  -16.3940   19.4370 H   0  0  0  0  0  0  0  0  0  0  0  0
  -23.2090  -11.6450   16.5840 C   0  0  0  0  0  1  0  0  0  0  0  0
  -23.1500  -10.8510   17.9040 C   0  0  0  0  0  2  0  0  0  0  0  0
  -26.6710   -9.6210   18.6000 C   0  0  0  0  0  2  0  0  0  0  0  0
  -28.0840   -9.2430   18.5580 N   0  0  0  0  0  4  0  0  0  0  0  0
  -28.6120   -9.8570   17.9650 H   0  0  0  0  0  0  0  0  0  0  0  0
  -28.1620   -8.3090   18.1910 H   0  0  0  0  0  0  0  0  0  0  0  0
  -28.4650   -9.2380   19.4890 H   0  0  0  0  0  0  0  0  0  0  0  0
  -26.0400  -16.9560   22.7710 C   0  0  0  0  0  2  0  0  0  0  0  0
  -25.6940  -18.7760   22.3520 C   0  0  0  0  0  2  0  0  0  0  0  0
  -26.5700  -20.3140   21.6460 C   0  0  0  0  0  2  0  0  0  0  0  0
  -26.6090  -22.2150   21.7820 C   0  0  0  0  0  2  0  0  0  0  0  0
  -26.9740  -23.7620   20.7330 C   0  0  0  0  0  2  0  0  0  0  0  0
  -27.5420  -25.4010   20.7970 O   0  0  0  0  0  0  0  0  0  0  0  0
  -24.6640  -31.8210   23.1740 C   0  0  0  0  0  0  0  0  0  0  0  0
  -26.8930  -26.7090   20.4240 C   0  0  0  0  0  0  0  0  0  0  0  0
  -23.4700  -30.4510   21.5190 C   0  0  0  0  0  3  0  0  0  0  0  0
  -24.8910  -28.8340   20.0920 C   0  0  0  0  0  0  0  0  0  0  0  0
  -26.0410  -30.5720   21.4330 C   0  0  0  0  0  2  0  0  0  0  0  0
  -26.0560  -29.1470   20.8000 C   0  0  0  0  0  0  0  0  0  0  0  0
  -27.0740  -28.0960   20.9420 C   0  0  0  0  0  3  0  0  0  0  0  0
  -25.8220  -26.6280   19.5230 C   0  0  0  0  0  3  0  0  0  0  0  0
  -24.8250  -27.6180   19.3980 C   0  0  0  0  0  3  0  0  0  0  0  0
  -23.7100  -29.8000   20.1270 C   0  0  0  0  0  2  0  0  0  0  0  0
  -24.7480  -30.9820   22.0920 N   0  0  0  0  0  0  0  0  0  0  0  0
  -23.5710  -32.1250   23.6810 O   0  0  0  0  0  0  0  0  0  0  0  0
  -22.7630  -29.4450   22.4670 C   0  0  0  0  0  0  0  0  0  0  0  0
  -21.4300  -29.3050   22.3460 N   0  0  0  0  0  0  0  0  0  0  0  0
  -23.4190  -28.8010   23.2900 O   0  0  0  0  0  0  0  0  0  0  0  0
  -20.9520  -29.8770   21.6640 H   0  0  0  0  0  0  0  0  0  0  0  0
  -18.0320  -28.1400   22.8460 C   0  0  0  0  0  0  0  0  0  0  0  0
  -20.5950  -28.3760   23.1150 C   0  0  0  0  0  3  0  0  0  0  0  0
  -20.6790  -26.9420   22.5390 C   0  0  0  0  0  2  0  0  0  0  0  0
  -19.5770  -26.6370   21.5200 C   0  0  0  0  0  2  0  0  0  0  0  0
  -18.1950  -26.7930   22.1610 C   0  0  0  0  0  2  0  0  0  0  0  0
  -19.1590  -28.8890   23.2800 C   0  0  0  0  0  0  0  0  0  0  0  0
  -18.9500  -30.1480   23.8850 C   0  0  0  0  0  3  0  0  0  0  0  0
  -17.6490  -30.6600   24.0550 C   0  0  0  0  0  3  0  0  0  0  0  0
  -16.5380  -29.9080   23.6350 C   0  0  0  0  0  3  0  0  0  0  0  0
  -16.7300  -28.6500   23.0360 C   0  0  0  0  0  3  0  0  0  0  0  0
  -25.9340  -32.4540   23.8170 C   0  0  0  0  0  3  0  0  0  0  0  0
  -26.4580  -31.6520   25.0730 C   0  0  1  0  0  0  0  0  0  0  0  0
  -25.3690  -31.3810   26.1380 C   0  0  0  0  0  1  0  0  0  0  0  0
  -27.0490  -30.2850   24.6560 C   0  0  0  0  0  1  0  0  0  0  0  0
  -27.6060  -32.4340   25.7520 C   0  0  0  0  0  1  0  0  0  0  0  0
  -25.6010  -33.8370   24.2060 N   0  0  0  0  0  0  0  0  0  0  0  0
  -25.9120  -34.9320   23.5000 C   0  0  0  0  0  0  0  0  0  0  0  0
  -26.5720  -34.8860   22.4590 O   0  0  0  0  0  0  0  0  0  0  0  0
  -25.0120  -33.9450   25.0180 H   0  0  0  0  0  0  0  0  0  0  0  0
  -24.1500  -36.7180   23.2640 C   0  0  0  0  0  1  0  0  0  0  0  0
  -25.4140  -36.2940   24.0290 C   0  0  0  0  0  3  0  0  0  0  0  0
  -27.5570  -37.1750   24.8460 C   0  0  0  0  0  1  0  0  0  0  0  0
  -26.4280  -37.3680   23.9410 N   0  0  0  0  0  0  0  0  0  0  0  0
  -26.0120  -38.2740   24.1420 H   0  0  0  0  0  0  0  0  0  0  0  0
  1  3  2  0
  2 54  1  0
  2  1  1  0
  4  2  1  0
  5 11  1  0
  5 10  1  6
  6  5  1  0
  7  8  1  0
  8  9  1  0
  9 22  1  0
 12  5  1  0
 15  1  1  0
 19 44  1  0
 19 20  1  0
 20 21  1  0
 20 39  1  0
 21 23  1  0
 22 19  1  0
 22 23  1  0
 24 25  1  0
 25 26  1  0
 27 30  1  0
 27 26  2  0
 28 27  1  0
 29 28  1  0
 29 24  1  0
 30 31  1  0
 31 32  1  0
 32 33  2  0
 34 33  1  0
 34 38  1  0
 35 34  2  0
 36 31  2  0
 36 35  1  0
 37 36  1  0
 39 40  1  0
 40 43  1  0
 40 42  1  0
 41 39  2  0
 44 45  1  0
 46 44  1  0
 47 48  1  0
 48 16  1  0
 49 17  1  0
 50 49  1  0
 50 53  1  0
 51 50  1  0
 52 50  1  0
 55 54  1  0
 56 57  1  0
 56 55  1  0
 58 59  1  0
 58 57  1  0
 60 71  2  0
 61 59  1  0
 61 66  1  0
 62 70  1  0
 62 72  1  0
 63 69  1  0
 63 65  1  0
 64 70  1  0
 65 66  2  0
 65 64  1  0
 67 61  2  0
 68 67  1  0
 68 63  2  0
 69 62  1  0
 70 60  1  0
 72 74  2  0
 73 72  1  0
 75 73  1  0
 76 85  2  0
 76 81  1  0
 77 73  1  0
 77 81  1  0
 78 77  1  0
 79 80  1  0
 79 78  1  0
 80 76  1  0
 81 82  2  0
 82 83  1  0
 84 83  2  0
 85 84  1  0
 86 60  1  0
 86 91  1  0
 86 87  1  0
 87 90  1  1
 87 88  1  0
 89 87  1  0
 91 94  1  0
 92 96  1  0
 92 91  1  0
 93 92  2  0
 96 95  1  0
 98 96  1  0
 98 99  1  0
 98 97  1  0
M  ISO  4   5 100  18 100  58 101  59 101
M  END
>  <TORSDO>  (55) 
F 24

>  <SCORE>  (55) 
39.965

>  <name>  (55) 
57

>  <ligand_id>  (55) 
57

>  <original_smiles>  (55) 
[H]c1c([H])c([H])c2c(c1[H])C([H])([H])C([H])([H])C([H])([H])C2([H])N([H])C(=O)C1([H])N(C(=O)C([H])(N([H])C(=O)C([H])(N([H])C([H])([H])[H])C([H])([H])[H])C(C([H])([H])[H])(C([H])([H])[H])C([H])([H])[H])C([H])([H])c2c([H])c(OC([H])([H])C([H])([H])C([H])([H])C([H])([H])C([H])([H])N([H])C(=O)C3([H])C([H])([H])N(C(=O)N4C([H])([H])C([H])([H])C([H])([H])C([H])(n5nc(-c6c([H])c([H])c(Oc7c([H])c([H])c(F)c([H])c7F)c([H])c6[H])c(C(=O)N([H])[H])c5N([H])[H])C4([H])[H])C([H])(C([H])([H])[N+]([H])([H])[H])C([H])(C([H])([H])C([H])([H])[H])C3([H])[H])c([H])c([H])c2C1([H])[H]

>  <smiles>  (55) 
[H]c1c([H])c([H])c2c(c1[H])C([H])([H])C([H])([H])C([H])([H])C2([H])N([H])C(=O)C1([H])N(C(=O)C([H])(N([H])C(=O)C([H])(N([H])C([H])([H])[H])C([H])([H])[H])C(C([H])([H])[H])(C([H])([H])[H])C([H])([H])[H])C([H])([H])c2c([H])c(OC([H])([H])C([H])([H])C([H])([H])C([H])([H])C([H])([H])N([H])C(=O)C3([H])C([H])([H])N(C(=O)N4C([H])([H])C([H])([H])C([H])([H])C([H])(n5nc(-c6c([H])c([H])c(Oc7c([H])c([H])c(F)c([H])c7F)c([H])c6[H])c(C(=O)N([H])[H])c5N([H])[H])C4([H])[H])C([H])(C([H])([H])[N+]([H])([H])[H])C([H])(C([H])([H])C([H])([H])[H])C3([H])[H])c([H])c([H])c2C1([H])[H]

$$$$
58:0:0
     RDKit          3D

 97105  0  0  1  0  0  0  0  0999 V2000
  -33.4660  -20.7640   20.5040 C   0  0  0  0  0  0  0  0  0  0  0  0
  -33.3940  -21.9110   21.1850 N   0  0  0  0  0  0  0  0  0  0  0  0
  -34.0820  -20.6680   19.4380 O   0  0  0  0  0  0  0  0  0  0  0  0
  -32.8910  -21.9070   22.0630 H   0  0  0  0  0  0  0  0  0  0  0  0
  -32.7230  -19.6910   21.1500 C   0  0  0  0  0  3  0  0  0  0  0  0
  -32.2130  -18.6380   20.4750 C   0  0  0  0  0  0  0  0  0  0  0  0
  -30.2990  -14.2580   19.4640 C   0  0  0  0  0  0  0  0  0  0  0  0
  -29.6370  -12.3210   18.0920 C   0  0  0  0  0  2  0  0  0  0  0  0
  -28.4890  -12.6630   17.1260 C   0  0  0  0  0  2  0  0  0  0  0  0
  -27.1280  -12.4750   17.8180 C   0  0  0  0  0  2  0  0  0  0  0  0
  -27.0580  -13.1820   19.1960 C   0  0  0  0  0  3  0  0  0  0  0  0
  -28.2940  -12.8400   20.0570 C   0  0  0  0  0  2  0  0  0  0  0  0
  -29.5090  -13.1670   19.2870 N   0  0  0  0  0  0  0  0  0  0  0  0
  -31.1550  -14.5990   18.6410 O   0  0  0  0  0  0  0  0  0  0  0  0
  -30.0450  -17.2940   20.4060 C   0  0  0  0  0  2  0  0  0  0  0  0
  -32.2540  -16.1950   21.1300 C   0  0  0  0  0  2  0  0  0  0  0  0
  -29.3370  -16.0020   20.8680 C   0  0  0  0  0  2  0  0  0  0  0  0
  -31.4120  -14.9650   21.5280 C   0  0  0  0  0  2  0  0  0  0  0  0
  -31.4180  -17.4940   21.0990 C   0  0  0  0  0  3  0  0  0  0  0  0
  -30.2220  -14.8470   20.6790 N   0  0  0  0  0  0  0  0  0  0  0  0
  -24.8270  -13.7150   20.3680 C   0  0  0  0  0  0  0  0  0  0  0  0
  -23.8440  -12.9070   20.8720 C   0  0  0  0  0  0  0  0  0  0  0  0
  -24.2900  -11.5660   20.6670 C   0  0  0  0  0  0  0  0  0  0  0  0
  -25.8130  -12.8630   19.8940 N   0  0  0  0  0  0  0  0  0  0  0  0
  -25.5010  -11.5620   20.1270 N   0  0  0  0  0  0  0  0  0  0  0  0
  -23.6110  -10.2850   20.9020 C   0  0  0  0  0  0  0  0  0  0  0  0
  -24.1910   -9.2780   21.7060 C   0  0  0  0  0  3  0  0  0  0  0  0
  -23.5110   -8.0620   21.9320 C   0  0  0  0  0  3  0  0  0  0  0  0
  -22.2380   -7.8440   21.3560 C   0  0  0  0  0  0  0  0  0  0  0  0
  -21.6750   -8.8400   20.5390 C   0  0  0  0  0  3  0  0  0  0  0  0
  -22.3550  -10.0470   20.3100 C   0  0  0  0  0  3  0  0  0  0  0  0
  -21.5160   -6.6830   21.4990 O   0  0  0  0  0  0  0  0  0  0  0  0
  -21.6680   -5.8730   22.5950 C   0  0  0  0  0  0  0  0  0  0  0  0
  -21.4500   -6.3450   23.9080 C   0  0  0  0  0  3  0  0  0  0  0  0
  -21.5470   -5.4600   25.0000 C   0  0  0  0  0  3  0  0  0  0  0  0
  -21.8530   -4.1030   24.7820 C   0  0  0  0  0  0  0  0  0  0  0  0
  -22.0640   -3.6290   23.4750 C   0  0  0  0  0  3  0  0  0  0  0  0
  -21.9690   -4.5120   22.3850 C   0  0  0  0  0  0  0  0  0  0  0  0
  -22.1530   -4.0460   21.1260 F   0  0  0  0  0  0  0  0  0  0  0  0
  -21.9400   -3.2500   25.8290 F   0  0  0  0  0  0  0  0  0  0  0  0
  -22.5200  -13.3480   21.4290 C   0  0  0  0  0  0  0  0  0  0  0  0
  -21.9880  -12.6140   22.4000 N   0  0  0  0  0  0  0  0  0  0  0  0
  -21.9720  -14.3770   21.0370 O   0  0  0  0  0  0  0  0  0  0  0  0
  -22.4490  -11.7820   22.7370 H   0  0  0  0  0  0  0  0  0  0  0  0
  -21.1080  -12.8890   22.8120 H   0  0  0  0  0  0  0  0  0  0  0  0
  -24.9570  -15.0970   20.2550 N   0  0  0  0  0  0  0  0  0  0  0  0
  -24.2250  -15.7350   20.5480 H   0  0  0  0  0  0  0  0  0  0  0  0
  -25.7380  -15.5650   19.8120 H   0  0  0  0  0  0  0  0  0  0  0  0
  -32.3360  -18.4580   19.1470 O   0  0  0  0  0  0  0  0  0  0  0  0
  -32.8440  -19.1920   18.8130 H   0  0  0  0  0  0  0  0  0  0  0  0
  -33.9100  -23.1960   20.7200 C   0  0  0  0  0  2  0  0  0  0  0  0
  -33.0200  -23.8100   19.6180 C   0  0  0  0  0  2  0  0  0  0  0  0
  -31.5330  -23.8480   20.0030 C   0  0  0  0  0  2  0  0  0  0  0  0
  -30.7080  -24.8750   19.2120 C   0  0  0  0  0  2  0  0  0  0  0  0
  -29.3400  -25.0930   19.8760 C   0  0  0  0  0  2  0  0  0  0  0  0
  -28.7280  -26.4780   19.6500 C   0  0  0  0  0  2  0  0  0  0  0  0
  -27.7380  -26.4840   18.6150 O   0  0  0  0  0  0  0  0  0  0  0  0
  -24.6260  -31.1690   22.9510 C   0  0  0  0  0  0  0  0  0  0  0  0
  -26.6690  -27.3260   18.8380 C   0  0  0  0  0  0  0  0  0  0  0  0
  -23.1880  -30.2480   21.1540 C   0  0  0  0  0  3  0  0  0  0  0  0
  -24.3990  -28.9410   19.3280 C   0  0  0  0  0  0  0  0  0  0  0  0
  -25.7080  -30.4670   20.8240 C   0  0  0  0  0  2  0  0  0  0  0  0
  -25.6270  -29.2610   19.9150 C   0  0  0  0  0  0  0  0  0  0  0  0
  -26.7610  -28.4710   19.6630 C   0  0  0  0  0  3  0  0  0  0  0  0
  -25.4290  -27.0210   18.2370 C   0  0  0  0  0  3  0  0  0  0  0  0
  -24.2920  -27.8210   18.4810 C   0  0  0  0  0  3  0  0  0  0  0  0
  -23.2390  -29.8550   19.6520 C   0  0  0  0  0  2  0  0  0  0  0  0
  -24.5300  -30.6260   21.7030 N   0  0  0  0  0  0  0  0  0  0  0  0
  -23.6140  -31.4030   23.6250 O   0  0  0  0  0  0  0  0  0  0  0  0
  -22.5080  -29.1030   21.9360 C   0  0  0  0  0  0  0  0  0  0  0  0
  -21.1670  -29.0700   21.8950 N   0  0  0  0  0  0  0  0  0  0  0  0
  -23.1790  -28.2580   22.5350 O   0  0  0  0  0  0  0  0  0  0  0  0
  -20.6910  -29.8030   21.3890 H   0  0  0  0  0  0  0  0  0  0  0  0
  -17.7300  -28.1150   22.4480 C   0  0  0  0  0  0  0  0  0  0  0  0
  -20.3120  -28.0630   22.5210 C   0  0  0  0  0  3  0  0  0  0  0  0
  -20.2100  -26.7950   21.6410 C   0  0  0  0  0  2  0  0  0  0  0  0
  -19.0060  -26.8140   20.6920 C   0  0  0  0  0  2  0  0  0  0  0  0
  -17.7020  -26.9410   21.4830 C   0  0  0  0  0  2  0  0  0  0  0  0
  -18.9550  -28.6510   22.9230 C   0  0  0  0  0  0  0  0  0  0  0  0
  -18.9260  -29.7660   23.7880 C   0  0  0  0  0  3  0  0  0  0  0  0
  -17.7020  -30.3380   24.1820 C   0  0  0  0  0  3  0  0  0  0  0  0
  -16.4910  -29.7930   23.7230 C   0  0  0  0  0  3  0  0  0  0  0  0
  -16.5060  -28.6810   22.8620 C   0  0  0  0  0  3  0  0  0  0  0  0
  -26.0060  -31.5440   23.5800 C   0  0  0  0  0  3  0  0  0  0  0  0
  -25.8700  -32.8780   24.1790 N   0  0  0  0  0  0  0  0  0  0  0  0
  -26.3120  -34.0110   23.6180 C   0  0  0  0  0  0  0  0  0  0  0  0
  -26.9490  -34.0320   22.5610 O   0  0  0  0  0  0  0  0  0  0  0  0
  -25.3100  -32.9410   25.0170 H   0  0  0  0  0  0  0  0  0  0  0  0
  -24.8000  -36.0190   23.6680 C   0  0  0  0  0  1  0  0  0  0  0  0
  -25.9970  -35.3320   24.3450 C   0  0  0  0  0  3  0  0  0  0  0  0
  -28.2260  -35.8010   25.2590 C   0  0  0  0  0  1  0  0  0  0  0  0
  -27.1440  -36.2640   24.3960 N   0  0  0  0  0  0  0  0  0  0  0  0
  -26.8480  -37.1810   24.7230 H   0  0  0  0  0  0  0  0  0  0  0  0
  -26.5090  -30.4970   24.6490 C   0  0  1  0  0  0  0  0  0  0  0  0
  -25.4620  -30.1700   25.7390 C   0  0  0  0  0  1  0  0  0  0  0  0
  -26.9100  -29.1710   23.9620 C   0  0  0  0  0  1  0  0  0  0  0  0
  -27.7780  -31.0340   25.3530 C   0  0  0  0  0  1  0  0  0  0  0  0
  1  5  1  0
  1  2  1  0
  2  4  1  0
  3  1  2  0
  6  5  2  0
  7 20  1  0
  8 13  1  0
  9 10  1  0
  9  8  1  0
 11 10  1  0
 11 24  1  0
 11 12  1  0
 13  7  1  0
 13 12  1  0
 14  7  2  0
 15 17  1  0
 15 19  1  0
 16 18  1  0
 19  6  1  0
 19 16  1  0
 20 17  1  0
 20 18  1  0
 21 22  2  0
 22 41  1  0
 23 22  1  0
 23 26  1  0
 24 25  1  0
 24 21  1  0
 25 23  2  0
 26 27  1  0
 27 28  2  0
 29 32  1  0
 29 28  1  0
 30 29  2  0
 31 30  1  0
 31 26  2  0
 32 33  1  0
 33 34  1  0
 34 35  2  0
 36 35  1  0
 36 40  1  0
 37 36  2  0
 38 33  2  0
 38 37  1  0
 39 38  1  0
 41 42  1  0
 42 44  1  0
 42 45  1  0
 43 41  2  0
 46 21  1  0
 46 47  1  0
 48 46  1  0
 49  6  1  0
 50 49  1  0
 51  2  1  0
 52 53  1  0
 52 51  1  0
 54 55  1  0
 54 53  1  0
 56 55  1  0
 57 59  1  0
 57 56  1  0
 58 69  2  0
 59 64  1  0
 60 68  1  0
 60 70  1  0
 61 67  1  0
 61 63  1  0
 62 68  1  0
 63 62  1  0
 64 63  2  0
 65 66  1  0
 65 59  2  0
 66 61  2  0
 67 60  1  0
 68 58  1  0
 70 72  2  0
 71 70  1  0
 73 71  1  0
 74 83  2  0
 74 79  1  0
 75 71  1  0
 75 79  1  0
 76 75  1  0
 77 78  1  0
 77 76  1  0
 78 74  1  0
 79 80  2  0
 80 81  1  0
 82 81  2  0
 83 82  1  0
 84 58  1  0
 84 85  1  0
 84 94  1  0
 85 88  1  0
 86 85  1  0
 86 90  1  0
 87 86  2  0
 90 89  1  0
 90 92  1  0
 92 93  1  0
 92 91  1  0
 94 97  1  1
 94 95  1  0
 96 94  1  0
M  ISO  4   7 100  20 100  56 101  57 101
M  END
>  <TORSDO>  (56) 
F 24

>  <SCORE>  (56) 
-8.312

>  <name>  (56) 
58

>  <ligand_id>  (56) 
58

>  <original_smiles>  (56) 
[H]OC(=C([H])C(=O)N([H])C([H])([H])C([H])([H])C([H])([H])C([H])([H])C([H])([H])C([H])([H])Oc1c([H])c([H])c2c(c1[H])C([H])([H])N(C(=O)C([H])(N([H])C(=O)C([H])(N([H])C([H])([H])[H])C([H])([H])[H])C(C([H])([H])[H])(C([H])([H])[H])C([H])([H])[H])C([H])(C(=O)N([H])C1([H])c3c([H])c([H])c([H])c([H])c3C([H])([H])C([H])([H])C1([H])[H])C2([H])[H])C1([H])C([H])([H])C([H])([H])N(C(=O)N2C([H])([H])C([H])([H])C([H])([H])C([H])(n3nc(-c4c([H])c([H])c(Oc5c([H])c([H])c(F)c([H])c5F)c([H])c4[H])c(C(=O)N([H])[H])c3N([H])[H])C2([H])[H])C([H])([H])C1([H])[H]

>  <smiles>  (56) 
[H]OC(=C([H])C(=O)N([H])C([H])([H])C([H])([H])C([H])([H])C([H])([H])C([H])([H])C([H])([H])Oc1c([H])c([H])c2c(c1[H])C([H])([H])N(C(=O)C([H])(N([H])C(=O)C([H])(N([H])C([H])([H])[H])C([H])([H])[H])C(C([H])([H])[H])(C([H])([H])[H])C([H])([H])[H])C([H])(C(=O)N([H])C1([H])c3c([H])c([H])c([H])c([H])c3C([H])([H])C([H])([H])C1([H])[H])C2([H])[H])C1([H])C([H])([H])C([H])([H])N(C(=O)N2C([H])([H])C([H])([H])C([H])([H])C([H])(n3nc(-c4c([H])c([H])c(Oc5c([H])c([H])c(F)c([H])c5F)c([H])c4[H])c(C(=O)N([H])[H])c3N([H])[H])C2([H])[H])C([H])([H])C1([H])[H]

$$$$
59:0:0
     RDKit          3D

 96103  0  0  1  0  0  0  0  0999 V2000
  -32.5840  -22.7210   21.0690 C   0  0  0  0  0  0  0  0  0  0  0  0
  -33.5920  -21.9030   20.7200 N   0  0  0  0  0  4  0  0  0  0  0  0
  -31.5930  -22.3160   21.8880 N   0  0  0  0  0  0  0  0  0  0  0  0
  -34.3320  -22.2240   20.1080 H   0  0  0  0  0  0  0  0  0  0  0  0
  -33.6700  -20.9550   21.0570 H   0  0  0  0  0  0  0  0  0  0  0  0
  -30.8310  -22.9650   22.0650 H   0  0  0  0  0  0  0  0  0  0  0  0
  -31.4990  -21.0120   22.5670 C   0  0  0  0  0  2  0  0  0  0  0  0
  -30.9700  -19.8950   21.6470 C   0  0  0  0  0  2  0  0  0  0  0  0
  -31.3130  -18.4950   22.1900 C   0  0  0  0  0  2  0  0  0  0  0  0
  -30.7260  -17.3330   21.3670 C   0  0  0  0  0  2  0  0  0  0  0  0
  -31.2520  -15.9650   21.8430 C   0  0  0  0  0  2  0  0  0  0  0  0
  -30.7590  -14.1660   20.1610 C   0  0  0  0  0  0  0  0  0  0  0  0
  -30.2590  -12.1160   18.8740 C   0  0  0  0  0  2  0  0  0  0  0  0
  -29.2240  -12.3550   17.7620 C   0  0  0  0  0  2  0  0  0  0  0  0
  -27.7920  -12.2140   18.3070 C   0  0  0  0  0  2  0  0  0  0  0  0
  -27.5690  -13.0480   19.5950 C   0  0  0  0  0  3  0  0  0  0  0  0
  -28.6970  -12.7880   20.6170 C   0  0  0  0  0  2  0  0  0  0  0  0
  -29.9960  -13.0600   19.9710 N   0  0  0  0  0  0  0  0  0  0  0  0
  -31.6890  -14.4900   19.4130 O   0  0  0  0  0  0  0  0  0  0  0  0
  -30.4960  -14.8420   21.2880 N   0  0  0  0  0  0  0  0  0  0  0  0
  -29.7450  -14.4760   21.8560 H   0  0  0  0  0  0  0  0  0  0  0  0
  -25.2420  -13.6910   20.4940 C   0  0  0  0  0  0  0  0  0  0  0  0
  -24.1900  -12.9320   20.9360 C   0  0  0  0  0  0  0  0  0  0  0  0
  -24.6210  -11.5730   20.8480 C   0  0  0  0  0  0  0  0  0  0  0  0
  -26.2480  -12.7930   20.1700 N   0  0  0  0  0  0  0  0  0  0  0  0
  -25.8800  -11.5140   20.4380 N   0  0  0  0  0  0  0  0  0  0  0  0
  -23.8870  -10.3220   21.0800 C   0  0  0  0  0  0  0  0  0  0  0  0
  -24.3370   -9.3650   22.0170 C   0  0  0  0  0  3  0  0  0  0  0  0
  -23.6060   -8.1780   22.2340 C   0  0  0  0  0  3  0  0  0  0  0  0
  -22.4120   -7.9380   21.5140 C   0  0  0  0  0  0  0  0  0  0  0  0
  -21.9800   -8.8830   20.5680 C   0  0  0  0  0  3  0  0  0  0  0  0
  -22.7110  -10.0630   20.3490 C   0  0  0  0  0  3  0  0  0  0  0  0
  -21.6490   -6.8010   21.6400 O   0  0  0  0  0  0  0  0  0  0  0  0
  -21.5940   -6.0980   22.8170 C   0  0  0  0  0  0  0  0  0  0  0  0
  -21.1420   -6.6890   24.0170 C   0  0  0  0  0  3  0  0  0  0  0  0
  -21.0340   -5.9120   25.1880 C   0  0  0  0  0  3  0  0  0  0  0  0
  -21.3710   -4.5450   25.1600 C   0  0  0  0  0  0  0  0  0  0  0  0
  -21.8160   -3.9540   23.9640 C   0  0  0  0  0  3  0  0  0  0  0  0
  -21.9250   -4.7280   22.7970 C   0  0  0  0  0  0  0  0  0  0  0  0
  -22.3350   -4.1490   21.6430 F   0  0  0  0  0  0  0  0  0  0  0  0
  -21.2600   -3.7970   26.2820 F   0  0  0  0  0  0  0  0  0  0  0  0
  -22.8280  -13.4310   21.3280 C   0  0  0  0  0  0  0  0  0  0  0  0
  -22.1580  -12.7320   22.2390 N   0  0  0  0  0  0  0  0  0  0  0  0
  -22.3710  -14.4740   20.8630 O   0  0  0  0  0  0  0  0  0  0  0  0
  -22.5430  -11.8880   22.6350 H   0  0  0  0  0  0  0  0  0  0  0  0
  -21.2490  -13.0470   22.5440 H   0  0  0  0  0  0  0  0  0  0  0  0
  -25.4200  -15.0600   20.3240 N   0  0  0  0  0  0  0  0  0  0  0  0
  -24.6790  -15.7300   20.5020 H   0  0  0  0  0  0  0  0  0  0  0  0
  -26.2630  -15.4860   19.9590 H   0  0  0  0  0  0  0  0  0  0  0  0
  -32.5610  -24.1150   20.5150 C   0  0  0  0  0  2  0  0  0  0  0  0
  -31.8130  -24.1580   19.1670 C   0  0  0  0  0  2  0  0  0  0  0  0
  -30.3230  -23.7430   19.1840 C   0  0  0  0  0  2  0  0  0  0  0  0
  -29.4450  -24.5870   20.1110 C   0  0  0  0  0  0  0  0  0  0  0  0
  -29.6130  -24.5530   21.3350 O   0  0  0  0  0  0  0  0  0  0  0  0
  -28.3140  -25.4060   19.4830 C   0  0  0  0  0  2  0  0  0  0  0  0
  -28.3200  -26.7200   20.0410 O   0  0  0  0  0  0  0  0  0  0  0  0
  -24.6650  -31.7950   23.3800 C   0  0  0  0  0  0  0  0  0  0  0  0
  -27.1460  -27.4390   20.0560 C   0  0  0  0  0  0  0  0  0  0  0  0
  -23.4040  -30.5220   21.6750 C   0  0  0  0  0  3  0  0  0  0  0  0
  -24.7960  -29.0090   20.1680 C   0  0  0  0  0  0  0  0  0  0  0  0
  -25.9380  -30.8050   21.4820 C   0  0  0  0  0  2  0  0  0  0  0  0
  -25.9710  -29.4660   20.7740 C   0  0  0  0  0  0  0  0  0  0  0  0
  -27.1440  -28.6840   20.7220 C   0  0  0  0  0  3  0  0  0  0  0  0
  -25.9510  -26.9970   19.4410 C   0  0  0  0  0  3  0  0  0  0  0  0
  -24.7770  -27.7710   19.5030 C   0  0  0  0  0  3  0  0  0  0  0  0
  -23.5830  -29.9060   20.2620 C   0  0  0  0  0  2  0  0  0  0  0  0
  -24.6880  -31.0510   22.2380 N   0  0  0  0  0  0  0  0  0  0  0  0
  -23.5970  -32.0780   23.9380 O   0  0  0  0  0  0  0  0  0  0  0  0
  -22.7220  -29.4750   22.5850 C   0  0  0  0  0  0  0  0  0  0  0  0
  -21.3940  -29.3360   22.4430 N   0  0  0  0  0  0  0  0  0  0  0  0
  -23.3850  -28.7950   23.3740 O   0  0  0  0  0  0  0  0  0  0  0  0
  -20.9230  -29.9390   21.7830 H   0  0  0  0  0  0  0  0  0  0  0  0
  -17.9870  -28.2080   22.8580 C   0  0  0  0  0  0  0  0  0  0  0  0
  -20.5470  -28.3870   23.1660 C   0  0  0  0  0  3  0  0  0  0  0  0
  -20.6190  -26.9790   22.5320 C   0  0  0  0  0  2  0  0  0  0  0  0
  -19.5200  -26.7270   21.4940 C   0  0  0  0  0  2  0  0  0  0  0  0
  -18.1360  -26.8830   22.1310 C   0  0  0  0  0  2  0  0  0  0  0  0
  -19.1200  -28.9210   23.3300 C   0  0  0  0  0  0  0  0  0  0  0  0
  -18.9280  -30.1660   23.9690 C   0  0  0  0  0  3  0  0  0  0  0  0
  -17.6350  -30.6960   24.1390 C   0  0  0  0  0  3  0  0  0  0  0  0
  -16.5160  -29.9780   23.6840 C   0  0  0  0  0  3  0  0  0  0  0  0
  -16.6930  -28.7360   23.0480 C   0  0  0  0  0  3  0  0  0  0  0  0
  -25.9770  -32.3450   24.0240 C   0  0  0  0  0  3  0  0  0  0  0  0
  -26.4640  -31.5010   25.2640 C   0  0  1  0  0  0  0  0  0  0  0  0
  -25.3630  -31.2600   26.3240 C   0  0  0  0  0  1  0  0  0  0  0  0
  -26.9910  -30.1200   24.8100 C   0  0  0  0  0  1  0  0  0  0  0  0
  -27.6450  -32.2190   25.9570 C   0  0  0  0  0  1  0  0  0  0  0  0
  -25.7270  -33.7400   24.4090 N   0  0  0  0  0  0  0  0  0  0  0  0
  -26.1150  -34.8060   23.6970 C   0  0  0  0  0  0  0  0  0  0  0  0
  -26.7940  -34.7150   22.6700 O   0  0  0  0  0  0  0  0  0  0  0  0
  -25.1290  -33.8890   25.2090 H   0  0  0  0  0  0  0  0  0  0  0  0
  -24.4880  -36.6960   23.3780 C   0  0  0  0  0  1  0  0  0  0  0  0
  -25.6830  -36.1950   24.2050 C   0  0  0  0  0  3  0  0  0  0  0  0
  -27.8290  -36.9360   25.1390 C   0  0  0  0  0  1  0  0  0  0  0  0
  -26.7690  -37.1980   24.1690 N   0  0  0  0  0  0  0  0  0  0  0  0
  -26.4050  -38.1310   24.3430 H   0  0  0  0  0  0  0  0  0  0  0  0
  1  3  1  0
  2  5  1  0
  2  1  2  0
  3  6  1  0
  3  7  1  0
  4  2  1  0
  8  9  1  0
  8  7  1  0
 10 11  1  0
 10  9  1  0
 12 20  1  0
 13 18  1  0
 14 15  1  0
 14 13  1  0
 16 15  1  0
 16 25  1  0
 16 17  1  0
 18 12  1  0
 18 17  1  0
 19 12  2  0
 20 11  1  0
 20 21  1  0
 22 23  2  0
 23 42  1  0
 24 23  1  0
 24 27  1  0
 25 26  1  0
 25 22  1  0
 26 24  2  0
 27 28  1  0
 28 29  2  0
 30 33  1  0
 30 29  1  0
 31 30  2  0
 32 31  1  0
 32 27  2  0
 33 34  1  0
 34 35  1  0
 35 36  2  0
 37 36  1  0
 37 41  1  0
 38 37  2  0
 39 34  2  0
 39 38  1  0
 40 39  1  0
 42 43  1  0
 43 46  1  0
 43 45  1  0
 44 42  2  0
 47 22  1  0
 47 48  1  0
 49 47  1  0
 50  1  1  0
 51 52  1  0
 51 50  1  0
 52 53  1  0
 53 54  2  0
 55 56  1  0
 55 53  1  0
 56 58  1  0
 57 68  2  0
 58 63  1  0
 59 67  1  0
 59 69  1  0
 60 66  1  0
 60 62  1  0
 61 67  1  0
 62 61  1  0
 63 62  2  0
 64 65  1  0
 64 58  2  0
 65 60  2  0
 66 59  1  0
 67 57  1  0
 69 71  2  0
 70 69  1  0
 72 70  1  0
 73 82  2  0
 73 78  1  0
 74 70  1  0
 74 78  1  0
 75 74  1  0
 76 77  1  0
 76 75  1  0
 77 73  1  0
 78 79  2  0
 79 80  1  0
 81 80  2  0
 82 81  1  0
 83 57  1  0
 83 88  1  0
 83 84  1  0
 84 87  1  1
 84 85  1  0
 86 84  1  0
 88 91  1  0
 89 93  1  0
 89 88  1  0
 90 89  2  0
 93 92  1  0
 95 93  1  0
 95 96  1  0
 95 94  1  0
M  ISO  4  12 100  20 100  55 101  56 101
M  END
>  <TORSDO>  (57) 
F 26

>  <SCORE>  (57) 
-10.864

>  <name>  (57) 
59

>  <ligand_id>  (57) 
59

>  <original_smiles>  (57) 
[H]c1c([H])c([H])c2c(c1[H])C([H])([H])C([H])([H])C([H])([H])C2([H])N([H])C(=O)C1([H])N(C(=O)C([H])(N([H])C(=O)C([H])(N([H])C([H])([H])[H])C([H])([H])[H])C(C([H])([H])[H])(C([H])([H])[H])C([H])([H])[H])C([H])([H])c2c([H])c(OC([H])([H])C(=O)C([H])([H])C([H])([H])C([H])([H])C(N([H])[H])=[N+]([H])C([H])([H])C([H])([H])C([H])([H])C([H])([H])C([H])([H])N([H])C(=O)N3C([H])([H])C([H])([H])C([H])([H])C([H])(n4nc(-c5c([H])c([H])c(Oc6c([H])c([H])c(F)c([H])c6F)c([H])c5[H])c(C(=O)N([H])[H])c4N([H])[H])C3([H])[H])c([H])c([H])c2C1([H])[H]

>  <smiles>  (57) 
[H]c1c([H])c([H])c2c(c1[H])C([H])([H])C([H])([H])C([H])([H])C2([H])N([H])C(=O)C1([H])N(C(=O)C([H])(N([H])C(=O)C([H])(N([H])C([H])([H])[H])C([H])([H])[H])C(C([H])([H])[H])(C([H])([H])[H])C([H])([H])[H])C([H])([H])c2c([H])c(OC([H])([H])C(=O)C([H])([H])C([H])([H])C([H])([H])C(N([H])[H])=[N+]([H])C([H])([H])C([H])([H])C([H])([H])C([H])([H])C([H])([H])N([H])C(=O)N3C([H])([H])C([H])([H])C([H])([H])C([H])(n4nc(-c5c([H])c([H])c(Oc6c([H])c([H])c(F)c([H])c6F)c([H])c5[H])c(C(=O)N([H])[H])c4N([H])[H])C3([H])[H])c([H])c([H])c2C1([H])[H]

$$$$
60:0:0
     RDKit          3D

100108  0  0  1  0  0  0  0  0999 V2000
  -29.4860  -19.1010   20.7320 C   0  0  0  0  0  2  0  0  0  0  0  0
  -31.9150  -19.0690   21.5410 C   0  0  0  0  0  2  0  0  0  0  0  0
  -30.7510  -21.2790   21.3070 C   0  0  0  0  0  2  0  0  0  0  0  0
  -30.5860  -18.2240   21.4780 C   0  0  0  0  0  3  0  0  0  0  0  0
  -29.4030  -20.5680   21.3670 C   0  0  0  0  0  3  0  0  0  0  0  0
  -31.7990  -20.4920   22.0890 C   0  0  0  0  0  3  0  0  0  0  0  0
  -30.6650  -14.5580   20.0590 C   0  0  0  0  0  0  0  0  0  0  0  0
  -30.1570  -12.4160   18.9140 C   0  0  0  0  0  2  0  0  0  0  0  0
  -29.1570  -12.6350   17.7670 C   0  0  0  0  0  2  0  0  0  0  0  0
  -27.7230  -12.4840   18.3010 C   0  0  0  0  0  2  0  0  0  0  0  0
  -27.4770  -13.3160   19.5890 C   0  0  0  0  0  3  0  0  0  0  0  0
  -28.6130  -13.1570   20.6230 C   0  0  0  0  0  2  0  0  0  0  0  0
  -29.8770  -13.4430   19.9430 N   0  0  0  0  0  0  0  0  0  0  0  0
  -31.7620  -14.5500   19.4920 O   0  0  0  0  0  0  0  0  0  0  0  0
  -31.0040  -16.7490   21.0370 C   0  0  0  0  0  0  0  0  0  0  0  0
  -30.1890  -15.7110   20.6480 N   0  0  0  0  0  0  0  0  0  0  0  0
  -32.2170  -16.5270   21.1660 O   0  0  0  0  0  0  0  0  0  0  0  0
  -29.1950  -15.7950   20.7850 H   0  0  0  0  0  0  0  0  0  0  0  0
  -25.1430  -13.8840   20.4810 C   0  0  0  0  0  0  0  0  0  0  0  0
  -24.1020  -13.0950   20.8970 C   0  0  0  0  0  0  0  0  0  0  0  0
  -24.5650  -11.7480   20.8070 C   0  0  0  0  0  0  0  0  0  0  0  0
  -26.1700  -13.0140   20.1620 N   0  0  0  0  0  0  0  0  0  0  0  0
  -25.8320  -11.7230   20.4170 N   0  0  0  0  0  0  0  0  0  0  0  0
  -23.8500  -10.4800   21.0060 C   0  0  0  0  0  0  0  0  0  0  0  0
  -24.3230   -9.5000   21.9080 C   0  0  0  0  0  3  0  0  0  0  0  0
  -23.6040   -8.3010   22.1000 C   0  0  0  0  0  3  0  0  0  0  0  0
  -22.4020   -8.0710   21.3900 C   0  0  0  0  0  0  0  0  0  0  0  0
  -21.9480   -9.0410   20.4770 C   0  0  0  0  0  3  0  0  0  0  0  0
  -22.6670  -10.2320   20.2830 C   0  0  0  0  0  3  0  0  0  0  0  0
  -21.6510   -6.9250   21.4940 O   0  0  0  0  0  0  0  0  0  0  0  0
  -21.6390   -6.1730   22.6420 C   0  0  0  0  0  0  0  0  0  0  0  0
  -21.2410   -6.7140   23.8850 C   0  0  0  0  0  3  0  0  0  0  0  0
  -21.1780   -5.8880   25.0250 C   0  0  0  0  0  3  0  0  0  0  0  0
  -21.5060   -4.5230   24.9240 C   0  0  0  0  0  0  0  0  0  0  0  0
  -21.8980   -3.9810   23.6880 C   0  0  0  0  0  3  0  0  0  0  0  0
  -21.9620   -4.8030   22.5500 C   0  0  0  0  0  0  0  0  0  0  0  0
  -22.3200   -4.2710   21.3570 F   0  0  0  0  0  0  0  0  0  0  0  0
  -21.4380   -3.7290   26.0180 F   0  0  0  0  0  0  0  0  0  0  0  0
  -22.7280  -13.5680   21.2670 C   0  0  0  0  0  0  0  0  0  0  0  0
  -22.0520  -12.8430   22.1510 N   0  0  0  0  0  0  0  0  0  0  0  0
  -22.2630  -14.6090   20.8070 O   0  0  0  0  0  0  0  0  0  0  0  0
  -22.4420  -12.0000   22.5410 H   0  0  0  0  0  0  0  0  0  0  0  0
  -21.1320  -13.1390   22.4410 H   0  0  0  0  0  0  0  0  0  0  0  0
  -25.2930  -15.2550   20.3310 N   0  0  0  0  0  0  0  0  0  0  0  0
  -24.5280  -15.9040   20.4840 H   0  0  0  0  0  0  0  0  0  0  0  0
  -26.1210  -15.7020   19.9580 H   0  0  0  0  0  0  0  0  0  0  0  0
  -33.0990  -21.1840   22.0640 N   0  0  0  0  0  4  0  0  0  0  0  0
  -33.4570  -21.2540   21.1280 H   0  0  0  0  0  0  0  0  0  0  0  0
  -33.7720  -20.6880   22.6260 H   0  0  0  0  0  0  0  0  0  0  0  0
  -33.0050  -22.1160   22.4340 H   0  0  0  0  0  0  0  0  0  0  0  0
  -28.1970  -21.5810   21.1960 C   0  0  0  0  0  2  0  0  0  0  0  0
  -27.9580  -22.5580   19.9760 C   0  0  0  0  0  3  0  0  0  0  0  0
  -27.9640  -21.8120   18.7070 N   0  0  0  0  0  4  0  0  0  0  0  0
  -27.6470  -22.4130   17.9660 H   0  0  0  0  0  0  0  0  0  0  0  0
  -27.3080  -21.0540   18.7670 H   0  0  0  0  0  0  0  0  0  0  0  0
  -28.8780  -21.4560   18.4730 H   0  0  0  0  0  0  0  0  0  0  0  0
  -30.0910  -24.0560   19.5490 C   0  0  0  0  0  1  0  0  0  0  0  0
  -28.5750  -24.0280   19.8060 C   0  0  0  0  0  3  0  0  0  0  0  0
  -28.1380  -25.1850   20.7940 C   0  0  0  0  0  2  0  0  0  0  0  0
  -28.3610  -26.5580   20.3060 O   0  0  0  0  0  0  0  0  0  0  0  0
  -24.6260  -31.9220   23.2380 C   0  0  0  0  0  0  0  0  0  0  0  0
  -27.2440  -27.3810   20.2380 C   0  0  0  0  0  0  0  0  0  0  0  0
  -23.4220  -30.5050   21.6070 C   0  0  0  0  0  3  0  0  0  0  0  0
  -24.8780  -28.9490   20.1890 C   0  0  0  0  0  0  0  0  0  0  0  0
  -25.9570  -30.8410   21.4160 C   0  0  0  0  0  2  0  0  0  0  0  0
  -26.0380  -29.4600   20.7870 C   0  0  0  0  0  0  0  0  0  0  0  0
  -27.2260  -28.6850   20.8060 C   0  0  0  0  0  3  0  0  0  0  0  0
  -26.0780  -26.9160   19.5980 C   0  0  0  0  0  3  0  0  0  0  0  0
  -24.8940  -27.6800   19.5840 C   0  0  0  0  0  3  0  0  0  0  0  0
  -23.6390  -29.8170   20.2330 C   0  0  0  0  0  2  0  0  0  0  0  0
  -24.6870  -31.1050   22.1450 N   0  0  0  0  0  0  0  0  0  0  0  0
  -23.5430  -32.2030   23.7720 O   0  0  0  0  0  0  0  0  0  0  0  0
  -22.7670  -29.4930   22.5760 C   0  0  0  0  0  0  0  0  0  0  0  0
  -21.4450  -29.2980   22.4380 N   0  0  0  0  0  0  0  0  0  0  0  0
  -23.4450  -28.8820   23.4070 O   0  0  0  0  0  0  0  0  0  0  0  0
  -20.9550  -29.8400   21.7390 H   0  0  0  0  0  0  0  0  0  0  0  0
  -18.0840  -28.0550   22.9170 C   0  0  0  0  0  0  0  0  0  0  0  0
  -20.6330  -28.3590   23.2150 C   0  0  0  0  0  3  0  0  0  0  0  0
  -20.7680  -26.9180   22.6690 C   0  0  0  0  0  2  0  0  0  0  0  0
  -19.6830  -26.5550   21.6500 C   0  0  0  0  0  2  0  0  0  0  0  0
  -18.2930  -26.6930   22.2760 C   0  0  0  0  0  2  0  0  0  0  0  0
  -19.1860  -28.8430   23.3460 C   0  0  0  0  0  0  0  0  0  0  0  0
  -18.9420  -30.1140   23.9060 C   0  0  0  0  0  3  0  0  0  0  0  0
  -17.6280  -30.6000   24.0430 C   0  0  0  0  0  3  0  0  0  0  0  0
  -16.5410  -29.8090   23.6310 C   0  0  0  0  0  3  0  0  0  0  0  0
  -16.7680  -28.5390   23.0730 C   0  0  0  0  0  3  0  0  0  0  0  0
  -25.9080  -32.5610   23.8520 C   0  0  0  0  0  3  0  0  0  0  0  0
  -25.5920  -33.9570   24.1840 N   0  0  0  0  0  0  0  0  0  0  0  0
  -25.9120  -35.0110   23.4220 C   0  0  0  0  0  0  0  0  0  0  0  0
  -26.5770  -34.9110   22.3880 O   0  0  0  0  0  0  0  0  0  0  0  0
  -25.0000  -34.1040   24.9880 H   0  0  0  0  0  0  0  0  0  0  0  0
  -24.1700  -36.7920   23.0720 C   0  0  0  0  0  1  0  0  0  0  0  0
  -25.4160  -36.3940   23.8790 C   0  0  0  0  0  3  0  0  0  0  0  0
  -27.5450  -37.2950   24.7040 C   0  0  0  0  0  1  0  0  0  0  0  0
  -26.4400  -37.4540   23.7640 N   0  0  0  0  0  0  0  0  0  0  0  0
  -26.0260  -38.3710   23.9130 H   0  0  0  0  0  0  0  0  0  0  0  0
  -26.4380  -31.7920   25.1250 C   0  0  1  0  0  0  0  0  0  0  0  0
  -25.3530  -31.5410   26.1990 C   0  0  0  0  0  1  0  0  0  0  0  0
  -27.0340  -30.4210   24.7270 C   0  0  0  0  0  1  0  0  0  0  0  0
  -27.5840  -32.5960   25.7830 C   0  0  0  0  0  1  0  0  0  0  0  0
  1  5  1  0
  1  4  1  0
  2  6  1  0
  3  5  1  0
  3  6  1  0
  4 15  1  0
  4  2  1  0
  5 51  1  0
  6 47  1  0
  7 16  1  0
  8 13  1  0
  9 10  1  0
  9  8  1  0
 11 10  1  0
 11 22  1  0
 11 12  1  0
 13  7  1  0
 13 12  1  0
 14  7  2  0
 15 17  2  0
 16 18  1  0
 16 15  1  0
 19 20  2  0
 20 39  1  0
 21 20  1  0
 21 24  1  0
 22 23  1  0
 22 19  1  0
 23 21  2  0
 24 25  1  0
 25 26  2  0
 27 30  1  0
 27 26  1  0
 28 27  2  0
 29 28  1  0
 29 24  2  0
 30 31  1  0
 31 32  1  0
 32 33  2  0
 34 33  1  0
 34 38  1  0
 35 34  2  0
 36 31  2  0
 36 35  1  0
 37 36  1  0
 39 40  1  0
 40 43  1  0
 40 42  1  0
 41 39  2  0
 44 19  1  0
 44 45  1  0
 46 44  1  0
 47 50  1  0
 47 49  1  0
 48 47  1  0
 52 51  1  0
 53 55  1  0
 53 52  1  0
 54 53  1  0
 56 53  1  0
 58 57  1  0
 58 52  1  0
 58 59  1  0
 60 59  1  0
 61 72  2  0
 62 60  1  0
 62 67  1  0
 63 71  1  0
 63 73  1  0
 64 70  1  0
 64 66  1  0
 65 71  1  0
 66 67  2  0
 66 65  1  0
 68 62  2  0
 69 68  1  0
 69 64  2  0
 70 63  1  0
 71 61  1  0
 73 75  2  0
 74 73  1  0
 76 74  1  0
 77 86  2  0
 77 82  1  0
 78 74  1  0
 78 82  1  0
 79 78  1  0
 80 81  1  0
 80 79  1  0
 81 77  1  0
 82 83  2  0
 83 84  1  0
 85 84  2  0
 86 85  1  0
 87 61  1  0
 87 88  1  0
 87 97  1  0
 88 91  1  0
 89 93  1  0
 89 88  1  0
 90 89  2  0
 93 92  1  0
 95 93  1  0
 95 96  1  0
 95 94  1  0
 97100  1  1
 97 98  1  0
 99 97  1  0
M  ISO  4   7 100  16 100  59 101  60 101
M  END
>  <TORSDO>  (58) 
F 22

>  <SCORE>  (58) 
-13.832

>  <name>  (58) 
60

>  <ligand_id>  (58) 
60

>  <original_smiles>  (58) 
[H]c1c([H])c([H])c2c(c1[H])C([H])([H])C([H])([H])C([H])([H])C2([H])N([H])C(=O)C1([H])N(C(=O)C([H])(N([H])C(=O)C([H])(N([H])C([H])([H])[H])C([H])([H])[H])C(C([H])([H])[H])(C([H])([H])[H])C([H])([H])[H])C([H])([H])c2c([H])c(OC([H])([H])C([H])(C([H])([H])[H])C([H])(C([H])([H])C3([H])C([H])([H])C([H])(C(=O)N([H])C(=O)N4C([H])([H])C([H])([H])C([H])([H])C([H])(n5nc(-c6c([H])c([H])c(Oc7c([H])c([H])c(F)c([H])c7F)c([H])c6[H])c(C(=O)N([H])[H])c5N([H])[H])C4([H])[H])C([H])([H])C([H])([N+]([H])([H])[H])C3([H])[H])[N+]([H])([H])[H])c([H])c([H])c2C1([H])[H]

>  <smiles>  (58) 
[H]c1c([H])c([H])c2c(c1[H])C([H])([H])C([H])([H])C([H])([H])C2([H])N([H])C(=O)C1([H])N(C(=O)C([H])(N([H])C(=O)C([H])(N([H])C([H])([H])[H])C([H])([H])[H])C(C([H])([H])[H])(C([H])([H])[H])C([H])([H])[H])C([H])([H])c2c([H])c(OC([H])([H])C([H])(C([H])([H])[H])C([H])(C([H])([H])C3([H])C([H])([H])C([H])(C(=O)N([H])C(=O)N4C([H])([H])C([H])([H])C([H])([H])C([H])(n5nc(-c6c([H])c([H])c(Oc7c([H])c([H])c(F)c([H])c7F)c([H])c6[H])c(C(=O)N([H])[H])c5N([H])[H])C4([H])[H])C([H])([H])C([H])([N+]([H])([H])[H])C3([H])[H])[N+]([H])([H])[H])c([H])c([H])c2C1([H])[H]

$$$$
61:0:0
     RDKit          3D

 96104  0  0  1  0  0  0  0  0999 V2000
  -29.5360  -21.8230   22.3310 C   0  0  0  0  0  2  0  0  0  0  0  0
  -30.4940  -19.5750   21.6090 C   0  0  0  0  0  3  0  0  0  0  0  0
  -31.0480  -17.8380   23.2350 C   0  0  0  0  0  3  0  0  0  0  0  0
  -30.1220  -19.9730   23.9830 C   0  0  0  0  0  3  0  0  0  0  0  0
  -30.9980  -18.2830   21.8910 C   0  0  0  0  0  0  0  0  0  0  0  0
  -30.0530  -20.4240   22.6470 C   0  0  0  0  0  0  0  0  0  0  0  0
  -30.6080  -18.6840   24.2720 C   0  0  0  0  0  0  0  0  0  0  0  0
  -30.6650  -18.2590   25.5550 F   0  0  0  0  0  0  0  0  0  0  0  0
  -31.6090  -15.2360   19.8320 C   0  0  0  0  0  0  0  0  0  0  0  0
  -31.0860  -13.1420   18.6510 C   0  0  0  0  0  2  0  0  0  0  0  0
  -30.0950  -13.4460   17.5090 C   0  0  0  0  0  2  0  0  0  0  0  0
  -28.6480  -13.3540   18.0280 C   0  0  0  0  0  2  0  0  0  0  0  0
  -28.4270  -14.1830   19.3220 C   0  0  0  0  0  3  0  0  0  0  0  0
  -29.5340  -13.8800   20.3630 C   0  0  0  0  0  2  0  0  0  0  0  0
  -30.8460  -14.1110   19.7320 N   0  0  0  0  0  0  0  0  0  0  0  0
  -32.6290  -15.3880   19.1510 O   0  0  0  0  0  0  0  0  0  0  0  0
  -31.5800  -17.4560   20.7760 C   0  0  0  0  0  0  0  0  0  0  0  0
  -31.1620  -16.1790   20.6860 N   0  0  0  0  0  0  0  0  0  0  0  0
  -32.3590  -18.0110   19.9890 O   0  0  0  0  0  0  0  0  0  0  0  0
  -30.4190  -15.9090   21.3050 H   0  0  0  0  0  0  0  0  0  0  0  0
  -26.1040  -14.8800   20.1960 C   0  0  0  0  0  0  0  0  0  0  0  0
  -25.0280  -14.1450   20.6190 C   0  0  0  0  0  0  0  0  0  0  0  0
  -25.4230  -12.7760   20.5230 C   0  0  0  0  0  0  0  0  0  0  0  0
  -27.0930  -13.9590   19.8790 N   0  0  0  0  0  0  0  0  0  0  0  0
  -26.6880  -12.6870   20.1320 N   0  0  0  0  0  0  0  0  0  0  0  0
  -24.6570  -11.5390   20.7280 C   0  0  0  0  0  0  0  0  0  0  0  0
  -25.0960  -10.5350   21.6230 C   0  0  0  0  0  3  0  0  0  0  0  0
  -24.3280   -9.3670   21.8190 C   0  0  0  0  0  3  0  0  0  0  0  0
  -23.1080   -9.1950   21.1240 C   0  0  0  0  0  0  0  0  0  0  0  0
  -22.6900  -10.1830   20.2150 C   0  0  0  0  0  3  0  0  0  0  0  0
  -23.4570  -11.3410   20.0150 C   0  0  0  0  0  3  0  0  0  0  0  0
  -22.3140   -8.0780   21.2280 O   0  0  0  0  0  0  0  0  0  0  0  0
  -22.2070   -7.3750   22.4020 C   0  0  0  0  0  0  0  0  0  0  0  0
  -21.8050   -7.9910   23.6070 C   0  0  0  0  0  3  0  0  0  0  0  0
  -21.6450   -7.2190   24.7760 C   0  0  0  0  0  3  0  0  0  0  0  0
  -21.8760   -5.8310   24.7380 C   0  0  0  0  0  0  0  0  0  0  0  0
  -22.2710   -5.2130   23.5390 C   0  0  0  0  0  3  0  0  0  0  0  0
  -22.4290   -5.9830   22.3720 C   0  0  0  0  0  0  0  0  0  0  0  0
  -22.7870   -5.3800   21.2120 F   0  0  0  0  0  0  0  0  0  0  0  0
  -21.7170   -5.0850   25.8580 F   0  0  0  0  0  0  0  0  0  0  0  0
  -23.6720  -14.6710   20.9970 C   0  0  0  0  0  0  0  0  0  0  0  0
  -22.9830  -13.9980   21.9120 N   0  0  0  0  0  0  0  0  0  0  0  0
  -23.2320  -15.7150   20.5130 O   0  0  0  0  0  0  0  0  0  0  0  0
  -23.3510  -13.1580   22.3310 H   0  0  0  0  0  0  0  0  0  0  0  0
  -22.0780  -14.3360   22.2100 H   0  0  0  0  0  0  0  0  0  0  0  0
  -26.3220  -16.2460   20.0370 N   0  0  0  0  0  0  0  0  0  0  0  0
  -25.5950  -16.9370   20.2020 H   0  0  0  0  0  0  0  0  0  0  0  0
  -27.1740  -16.6430   19.6590 H   0  0  0  0  0  0  0  0  0  0  0  0
  -28.0050  -21.8670   22.1490 C   0  0  0  0  0  2  0  0  0  0  0  0
  -25.8860  -23.2300   22.0030 C   0  0  0  0  0  1  0  0  0  0  0  0
  -27.4260  -23.2850   21.9540 C   0  0  0  0  0  3  0  0  0  0  0  0
  -27.9380  -23.9240   20.6380 C   0  0  0  0  0  2  0  0  0  0  0  0
  -28.5340  -25.3340   20.7220 C   0  0  0  0  0  0  0  0  0  0  0  0
  -28.7250  -25.9190   21.7940 O   0  0  0  0  0  0  0  0  0  0  0  0
  -28.9360  -25.9630   19.3770 C   0  0  0  0  0  2  0  0  0  0  0  0
  -28.7700  -27.3800   19.3960 O   0  0  0  0  0  0  0  0  0  0  0  0
  -24.3400  -31.6030   23.0230 C   0  0  0  0  0  0  0  0  0  0  0  0
  -27.4960  -27.8950   19.4710 C   0  0  0  0  0  0  0  0  0  0  0  0
  -23.3430  -30.2780   21.2180 C   0  0  0  0  0  3  0  0  0  0  0  0
  -24.9470  -29.0830   19.6540 C   0  0  0  0  0  0  0  0  0  0  0  0
  -25.7940  -30.9800   21.0750 C   0  0  0  0  0  2  0  0  0  0  0  0
  -26.0390  -29.6900   20.2920 C   0  0  0  0  0  0  0  0  0  0  0  0
  -27.3150  -29.1000   20.1880 C   0  0  0  0  0  3  0  0  0  0  0  0
  -26.3800  -27.2870   18.8490 C   0  0  0  0  0  3  0  0  0  0  0  0
  -25.1080  -27.8800   18.9370 C   0  0  0  0  0  3  0  0  0  0  0  0
  -23.6140  -29.7790   19.7790 C   0  0  0  0  0  2  0  0  0  0  0  0
  -24.5240  -30.9650   21.8330 N   0  0  0  0  0  0  0  0  0  0  0  0
  -23.2010  -31.6790   23.5050 O   0  0  0  0  0  0  0  0  0  0  0  0
  -22.8240  -29.0910   22.0610 C   0  0  0  0  0  0  0  0  0  0  0  0
  -21.5210  -28.8010   21.9420 N   0  0  0  0  0  0  0  0  0  0  0  0
  -23.5870  -28.4480   22.7890 O   0  0  0  0  0  0  0  0  0  0  0  0
  -20.9610  -29.3780   21.3300 H   0  0  0  0  0  0  0  0  0  0  0  0
  -18.2910  -27.2510   22.3510 C   0  0  0  0  0  0  0  0  0  0  0  0
  -20.8170  -27.7130   22.6180 C   0  0  0  0  0  3  0  0  0  0  0  0
  -21.0420  -26.3730   21.8830 C   0  0  0  0  0  2  0  0  0  0  0  0
  -19.9530  -26.0670   20.8510 C   0  0  0  0  0  2  0  0  0  0  0  0
  -18.5780  -26.0090   21.5230 C   0  0  0  0  0  2  0  0  0  0  0  0
  -19.3440  -28.0610   22.8510 C   0  0  0  0  0  0  0  0  0  0  0  0
  -19.0250  -29.2270   23.5800 C   0  0  0  0  0  3  0  0  0  0  0  0
  -17.6830  -29.5820   23.8160 C   0  0  0  0  0  3  0  0  0  0  0  0
  -16.6440  -28.7670   23.3350 C   0  0  0  0  0  3  0  0  0  0  0  0
  -16.9490  -27.6030   22.6060 C   0  0  0  0  0  3  0  0  0  0  0  0
  -25.4850  -32.2760   23.8340 C   0  0  0  0  0  0  0  0  0  0  0  0
  -25.2820  -33.6920   24.0860 N   0  0  0  0  0  4  0  0  0  0  0  0
  -25.6440  -34.7570   23.3810 C   0  0  0  0  0  0  0  0  0  0  0  0
  -26.3720  -34.7040   22.3910 O   0  0  0  0  0  0  0  0  0  0  0  0
  -24.6580  -33.8800   24.8600 H   0  0  0  0  0  0  0  0  0  0  0  0
  -23.8380  -36.4840   23.0180 C   0  0  0  0  0  1  0  0  0  0  0  0
  -25.0510  -36.0940   23.8790 C   0  0  0  0  0  3  0  0  0  0  0  0
  -27.0450  -37.0200   24.9520 C   0  0  0  0  0  1  0  0  0  0  0  0
  -26.0250  -37.1990   23.9210 N   0  0  0  0  0  0  0  0  0  0  0  0
  -25.5620  -38.0870   24.0890 H   0  0  0  0  0  0  0  0  0  0  0  0
  -26.2380  -31.4330   24.9470 C   0  0  1  0  0  0  0  0  0  0  0  0
  -25.2720  -30.9250   26.0620 C   0  0  0  0  0  1  0  0  0  0  0  0
  -26.9250  -30.1790   24.3760 C   0  0  0  0  0  1  0  0  0  0  0  0
  -27.3320  -32.2890   25.6240 C   0  0  0  0  0  1  0  0  0  0  0  0
  1  6  1  0
  2  5  2  0
  2  6  1  0
  3  7  2  0
  4  7  1  0
  5  3  1  0
  6  4  2  0
  7  8  1  0
  9 18  1  0
 10 15  1  0
 11 12  1  0
 11 10  1  0
 13 12  1  0
 13 24  1  0
 13 14  1  0
 15  9  1  0
 15 14  1  0
 16  9  2  0
 17  5  1  0
 18 17  1  0
 18 20  1  0
 19 17  2  0
 21 22  2  0
 22 41  1  0
 23 22  1  0
 23 26  1  0
 24 25  1  0
 24 21  1  0
 25 23  2  0
 26 27  1  0
 27 28  2  0
 29 32  1  0
 29 28  1  0
 30 29  2  0
 31 30  1  0
 31 26  2  0
 32 33  1  0
 33 34  1  0
 34 35  2  0
 36 35  1  0
 36 40  1  0
 37 36  2  0
 38 33  2  0
 38 37  1  0
 39 38  1  0
 41 42  1  0
 42 45  1  0
 42 44  1  0
 43 41  2  0
 46 21  1  0
 46 47  1  0
 48 46  1  0
 49  1  1  0
 51 50  1  0
 51 49  1  0
 52 53  1  0
 52 51  1  0
 53 54  2  0
 55 56  1  0
 55 53  1  0
 56 58  1  0
 57 68  2  0
 57 83  1  0
 58 63  1  0
 59 67  1  0
 59 69  1  0
 60 66  1  0
 60 62  1  0
 61 67  1  0
 62 61  1  0
 63 62  2  0
 64 65  1  0
 64 58  2  0
 65 60  2  0
 66 59  1  0
 67 57  1  0
 69 71  2  0
 70 69  1  0
 72 70  1  0
 73 82  2  0
 73 78  1  0
 74 70  1  0
 74 78  1  0
 75 74  1  0
 76 77  1  0
 76 75  1  0
 77 73  1  0
 78 79  2  0
 79 80  1  0
 81 80  2  0
 82 81  1  0
 83 84  2  3
 83 93  1  0
 84 87  1  0
 85 89  1  0
 85 84  1  0
 86 85  2  0
 89 88  1  0
 89 91  1  0
 91 92  1  0
 91 90  1  0
 93 96  1  1
 93 94  1  0
 95 93  1  0
M  ISO  4   9 100  18 100  55 101  56 101
M  END
>  <TORSDO>  (59) 
F 22

>  <SCORE>  (59) 
-5.780

>  <name>  (59) 
61

>  <ligand_id>  (59) 
61

>  <original_smiles>  (59) 
[H]c1c([H])c([H])c2c(c1[H])C([H])([H])C([H])([H])C([H])([H])C2([H])N([H])C(=O)C1([H])N(C(=O)C([H])(N([H])C(=O)C([H])(N([H])C([H])([H])[H])C([H])([H])[H])C(C([H])([H])[H])(C([H])([H])[H])C([H])([H])[H])C([H])([H])c2c([H])c(OC([H])([H])C(=O)C([H])([H])C([H])(C([H])([H])[H])C([H])([H])C([H])([H])c3c([H])c(F)c([H])c(C(=O)N([H])C(=O)N4C([H])([H])C([H])([H])C([H])([H])C([H])(n5nc(-c6c([H])c([H])c(Oc7c([H])c([H])c(F)c([H])c7F)c([H])c6[H])c(C(=O)N([H])[H])c5N([H])[H])C4([H])[H])c3[H])c([H])c([H])c2C1([H])[H]

>  <smiles>  (59) 
[H]c1c([H])c([H])c2c(c1[H])C([H])([H])C([H])([H])C([H])([H])C2([H])N([H])C(=O)C1([H])N(C(=O)C([H])(N([H])C(=O)C([H])(N([H])C([H])([H])[H])C([H])([H])[H])C(C([H])([H])[H])(C([H])([H])[H])C([H])([H])[H])C([H])([H])c2c([H])c(OC([H])([H])C(=O)C([H])([H])C([H])(C([H])([H])[H])C([H])([H])C([H])([H])c3c([H])c(F)c([H])c(C(=O)N([H])C(=O)N4C([H])([H])C([H])([H])C([H])([H])C([H])(n5nc(-c6c([H])c([H])c(Oc7c([H])c([H])c(F)c([H])c7F)c([H])c6[H])c(C(=O)N([H])[H])c5N([H])[H])C4([H])[H])c3[H])c([H])c([H])c2C1([H])[H]

$$$$
62:0:0
     RDKit          3D

 97104  0  0  1  0  0  0  0  0999 V2000
  -24.7640  -14.8610   19.2510 N   0  0  0  0  0  4  0  0  0  0  0  0
  -24.1590  -15.1400   20.0160 H   0  0  0  0  0  0  0  0  0  0  0  0
  -24.1640  -14.8450   18.4420 H   0  0  0  0  0  0  0  0  0  0  0  0
  -25.3610   -9.9980   19.4210 C   0  0  0  0  0  2  0  0  0  0  0  0
  -24.5580  -11.6360   18.9960 C   0  0  0  0  0  3  0  0  0  0  0  0
  -27.6650  -10.4760   21.9650 C   0  0  0  0  0  2  0  0  0  0  0  0
  -26.6880   -9.4700   20.6720 C   0  0  0  0  0  3  0  0  0  0  0  0
  -27.6740  -12.3850   22.1000 C   0  0  0  0  0  2  0  0  0  0  0  0
  -25.0970  -13.2510   19.6510 C   0  0  0  0  0  3  0  0  0  0  0  0
  -30.4270  -13.4090   20.8830 C   0  0  0  0  0  0  0  0  0  0  0  0
  -30.9750  -12.2350   18.5960 C   0  0  0  0  0  2  0  0  0  0  0  0
  -29.8150  -12.2670   17.4640 C   0  0  0  0  0  2  0  0  0  0  0  0
  -28.3050  -12.4070   17.9380 C   0  0  0  0  0  2  0  0  0  0  0  0
  -28.3940  -13.0700   19.2810 C   0  0  0  0  0  3  0  0  0  0  0  0
  -29.2750  -11.8910   19.8710 C   0  0  0  0  0  2  0  0  0  0  0  0
  -30.4820  -12.4270   19.9720 N   0  0  0  0  0  0  0  0  0  0  0  0
  -31.3310  -14.2600   20.5920 O   0  0  0  0  0  0  0  0  0  0  0  0
  -29.2670  -13.2400   21.9140 N   0  0  0  0  0  0  0  0  0  0  0  0
  -29.3460  -13.9690   22.6100 H   0  0  0  0  0  0  0  0  0  0  0  0
  -26.5410  -14.0280   21.3760 C   0  0  0  0  0  0  0  0  0  0  0  0
  -25.3300  -13.2120   21.9030 C   0  0  0  0  0  0  0  0  0  0  0  0
  -25.2590  -11.8500   21.1540 C   0  0  0  0  0  0  0  0  0  0  0  0
  -27.2810  -13.2350   20.0930 N   0  0  0  0  0  0  0  0  0  0  0  0
  -26.4840  -11.9100   19.9660 N   0  0  0  0  0  0  0  0  0  0  0  0
  -24.2130  -10.7090   21.4840 C   0  0  0  0  0  0  0  0  0  0  0  0
  -24.4410   -9.6550   22.4240 C   0  0  0  0  0  3  0  0  0  0  0  0
  -23.6670   -8.4700   22.4980 C   0  0  0  0  0  3  0  0  0  0  0  0
  -22.4530   -8.3840   21.7930 C   0  0  0  0  0  0  0  0  0  0  0  0
  -22.0890   -9.4900   21.0020 C   0  0  0  0  0  3  0  0  0  0  0  0
  -22.9360  -10.6170   20.8640 C   0  0  0  0  0  3  0  0  0  0  0  0
  -21.5800   -7.3130   21.8640 O   0  0  0  0  0  0  0  0  0  0  0  0
  -21.5330   -6.4660   22.9510 C   0  0  0  0  0  0  0  0  0  0  0  0
  -21.2820   -6.9350   24.2630 C   0  0  0  0  0  3  0  0  0  0  0  0
  -21.1900   -6.0260   25.3370 C   0  0  0  0  0  3  0  0  0  0  0  0
  -21.3250   -4.6440   25.1070 C   0  0  0  0  0  0  0  0  0  0  0  0
  -21.5560   -4.1710   23.8030 C   0  0  0  0  0  3  0  0  0  0  0  0
  -21.6550   -5.0770   22.7310 C   0  0  0  0  0  0  0  0  0  0  0  0
  -21.8490   -4.6050   21.4760 F   0  0  0  0  0  0  0  0  0  0  0  0
  -21.2280   -3.7690   26.1360 F   0  0  0  0  0  0  0  0  0  0  0  0
  -23.9840  -13.7780   22.3650 C   0  0  0  0  0  0  0  0  0  0  0  0
  -23.2260  -13.0560   23.1850 N   0  0  0  0  0  0  0  0  0  0  0  0
  -23.5380  -14.8200   21.8760 O   0  0  0  0  0  0  0  0  0  0  0  0
  -23.5450  -12.1800   23.5660 H   0  0  0  0  0  0  0  0  0  0  0  0
  -22.3140  -13.3950   23.4600 H   0  0  0  0  0  0  0  0  0  0  0  0
  -26.9110  -15.2940   21.6960 N   0  0  0  0  0  0  0  0  0  0  0  0
  -26.5480  -15.7670   22.5140 H   0  0  0  0  0  0  0  0  0  0  0  0
  -27.7920  -15.6950   21.3980 H   0  0  0  0  0  0  0  0  0  0  0  0
  -28.3880   -7.5150   20.7720 C   0  0  0  0  0  1  0  0  0  0  0  0
  -27.6430   -8.5350   19.9000 C   0  0  0  0  0  2  0  0  0  0  0  0
  -25.7730  -16.1810   19.0420 C   0  0  0  0  0  2  0  0  0  0  0  0
  -25.5370  -17.9330   19.3820 C   0  0  0  0  0  2  0  0  0  0  0  0
  -26.6320  -19.3240   19.7100 C   0  0  0  0  0  2  0  0  0  0  0  0
  -26.5720  -21.0840   19.3540 C   0  0  0  0  0  2  0  0  0  0  0  0
  -27.2510  -22.4980   20.1260 C   0  0  0  0  0  0  0  0  0  0  0  0
  -27.5390  -22.3460   21.3180 O   0  0  0  0  0  0  0  0  0  0  0  0
  -27.5730  -24.0830   19.4720 C   0  0  0  0  0  2  0  0  0  0  0  0
  -27.9530  -25.5320   20.1880 O   0  0  0  0  0  0  0  0  0  0  0  0
  -24.5610  -31.6330   23.1240 C   0  0  0  0  0  0  0  0  0  0  0  0
  -27.1420  -26.7560   20.1280 C   0  0  0  0  0  0  0  0  0  0  0  0
  -23.4640  -30.2110   21.4640 C   0  0  0  0  0  3  0  0  0  0  0  0
  -24.9620  -28.6830   20.0730 C   0  0  0  0  0  0  0  0  0  0  0  0
  -26.0400  -30.4470   21.4260 C   0  0  0  0  0  2  0  0  0  0  0  0
  -26.1320  -29.0510   20.7450 C   0  0  0  0  0  0  0  0  0  0  0  0
  -27.2450  -28.0920   20.7650 C   0  0  0  0  0  3  0  0  0  0  0  0
  -25.9670  -26.5800   19.4000 C   0  0  0  0  0  3  0  0  0  0  0  0
  -24.9040  -27.4770   19.3890 C   0  0  0  0  0  3  0  0  0  0  0  0
  -23.7510  -29.5910   20.0840 C   0  0  0  0  0  2  0  0  0  0  0  0
  -24.7100  -30.7920   22.0550 N   0  0  0  0  0  0  0  0  0  0  0  0
  -23.4420  -31.8990   23.5930 O   0  0  0  0  0  0  0  0  0  0  0  0
  -22.7790  -29.1700   22.3900 C   0  0  0  0  0  0  0  0  0  0  0  0
  -21.4520  -28.9990   22.2490 N   0  0  0  0  0  0  0  0  0  0  0  0
  -23.4430  -28.5310   23.2090 O   0  0  0  0  0  0  0  0  0  0  0  0
  -20.9710  -29.5680   21.5690 H   0  0  0  0  0  0  0  0  0  0  0  0
  -18.0600  -27.8180   22.7520 C   0  0  0  0  0  0  0  0  0  0  0  0
  -20.6260  -28.0500   23.0020 C   0  0  0  0  0  3  0  0  0  0  0  0
  -20.7080  -26.6320   22.3860 C   0  0  0  0  0  2  0  0  0  0  0  0
  -19.5920  -26.3490   21.3760 C   0  0  0  0  0  2  0  0  0  0  0  0
  -18.2190  -26.4880   22.0370 C   0  0  0  0  0  2  0  0  0  0  0  0
  -19.1910  -28.5600   23.1930 C   0  0  0  0  0  0  0  0  0  0  0  0
  -18.9880  -29.8050   23.8270 C   0  0  0  0  0  3  0  0  0  0  0  0
  -17.6880  -30.3100   24.0230 C   0  0  0  0  0  3  0  0  0  0  0  0
  -16.5730  -29.5670   23.5970 C   0  0  0  0  0  3  0  0  0  0  0  0
  -16.7600  -28.3230   22.9690 C   0  0  0  0  0  3  0  0  0  0  0  0
  -25.7850  -32.3200   23.7930 C   0  0  0  0  0  3  0  0  0  0  0  0
  -25.4150  -33.7180   24.0780 N   0  0  0  0  0  0  0  0  0  0  0  0
  -25.7550  -34.7710   23.3240 C   0  0  0  0  0  0  0  0  0  0  0  0
  -26.4790  -34.6700   22.3320 O   0  0  0  0  0  0  0  0  0  0  0  0
  -24.7770  -33.8730   24.8450 H   0  0  0  0  0  0  0  0  0  0  0  0
  -23.9990  -36.5170   22.8660 C   0  0  0  0  0  1  0  0  0  0  0  0
  -25.2120  -36.1540   23.7380 C   0  0  0  0  0  3  0  0  0  0  0  0
  -27.2740  -37.1190   24.6570 C   0  0  0  0  0  1  0  0  0  0  0  0
  -26.2180  -37.2350   23.6540 N   0  0  0  0  0  0  0  0  0  0  0  0
  -25.7790  -38.1450   23.7610 H   0  0  0  0  0  0  0  0  0  0  0  0
  -26.2440  -31.5990   25.1200 C   0  0  1  0  0  0  0  0  0  0  0  0
  -25.0970  -31.3710   26.1340 C   0  0  0  0  0  1  0  0  0  0  0  0
  -26.8720  -30.2190   24.8180 C   0  0  0  0  0  1  0  0  0  0  0  0
  -27.3460  -32.4360   25.8130 C   0  0  0  0  0  1  0  0  0  0  0  0
  1  9  1  0
  1  2  1  0
  3  1  1  0
  5  4  1  0
  5  9  2  0
  6  8  1  0
  7  4  1  0
  7  6  1  0
 10 18  1  0
 11 16  1  0
 12 13  1  0
 12 11  1  0
 14 13  1  0
 14 15  1  0
 14 23  1  0
 15 16  1  0
 16 10  1  0
 17 10  2  0
 18  8  1  0
 18 19  1  0
 20 45  1  0
 20 21  2  0
 21 40  1  0
 22 25  1  0
 22 21  1  0
 23 20  1  0
 24 23  1  0
 24 22  2  0
 25 26  1  0
 26 27  2  0
 28 31  1  0
 28 27  1  0
 29 28  2  0
 30 29  1  0
 30 25  2  0
 31 32  1  0
 32 33  1  0
 33 34  2  0
 35 34  1  0
 35 39  1  0
 36 35  2  0
 37 32  2  0
 37 36  1  0
 38 37  1  0
 40 41  1  0
 41 44  1  0
 41 43  1  0
 42 40  2  0
 45 46  1  0
 47 45  1  0
 49  7  1  0
 49 48  1  0
 50  1  1  0
 50 51  1  0
 51 52  1  0
 53 52  1  0
 53 54  1  0
 54 55  2  0
 56 54  1  0
 56 57  1  0
 58 69  2  0
 59 57  1  0
 59 64  1  0
 60 68  1  0
 60 70  1  0
 61 67  1  0
 61 63  1  0
 62 68  1  0
 63 64  2  0
 63 62  1  0
 65 59  2  0
 66 65  1  0
 66 61  2  0
 67 60  1  0
 68 58  1  0
 70 72  2  0
 71 70  1  0
 73 71  1  0
 74 83  2  0
 74 79  1  0
 75 71  1  0
 75 79  1  0
 76 75  1  0
 77 78  1  0
 77 76  1  0
 78 74  1  0
 79 80  2  0
 80 81  1  0
 82 81  2  0
 83 82  1  0
 84 58  1  0
 84 85  1  0
 84 94  1  0
 85 88  1  0
 86 90  1  0
 86 85  1  0
 87 86  2  0
 90 89  1  0
 92 90  1  0
 92 93  1  0
 92 91  1  0
 94 97  1  1
 94 95  1  0
 96 94  1  0
M  ISO  4  10 100  18 100  56 101  57 101
M  END
>  <TORSDO>  (60) 
F 24

>  <SCORE>  (60) 
-1.021

>  <name>  (60) 
62

>  <ligand_id>  (60) 
62

>  <original_smiles>  (60) 
[H]c1c([H])c([H])c2c(c1[H])C([H])([H])C([H])([H])C([H])([H])C2([H])N([H])C(=O)C1([H])N(C(=O)C([H])(N([H])C(=O)C([H])(N([H])C([H])([H])[H])C([H])([H])[H])C(C([H])([H])[H])(C([H])([H])[H])C([H])([H])[H])C([H])([H])c2c([H])c(OC([H])([H])C(=O)C([H])([H])C([H])([H])C([H])([H])C([H])([H])[N+]([H])([H])C3([H])C([H])([H])C([H])([H])C([H])(C([H])([H])C([H])([H])[H])C([H])([H])C3([H])N([H])C(=O)N3C([H])([H])C([H])([H])C([H])([H])C([H])(n4nc(-c5c([H])c([H])c(Oc6c([H])c([H])c(F)c([H])c6F)c([H])c5[H])c(C(=O)N([H])[H])c4N([H])[H])C3([H])[H])c([H])c([H])c2C1([H])[H]

>  <smiles>  (60) 
[H]c1c([H])c([H])c2c(c1[H])C([H])([H])C([H])([H])C([H])([H])C2([H])N([H])C(=O)C1([H])N(C(=O)C([H])(N([H])C(=O)C([H])(N([H])C([H])([H])[H])C([H])([H])[H])C(C([H])([H])[H])(C([H])([H])[H])C([H])([H])[H])C([H])([H])c2c([H])c(OC([H])([H])C(=O)C([H])([H])C([H])([H])C([H])([H])C([H])([H])[N+]([H])([H])C3([H])C([H])([H])C([H])([H])C([H])(C([H])([H])C([H])([H])[H])C([H])([H])C3([H])N([H])C(=O)N3C([H])([H])C([H])([H])C([H])([H])C([H])(n4nc(-c5c([H])c([H])c(Oc6c([H])c([H])c(F)c([H])c6F)c([H])c5[H])c(C(=O)N([H])[H])c4N([H])[H])C3([H])[H])c([H])c([H])c2C1([H])[H]

$$$$
63:0:0
     RDKit          3D

 99107  0  0  1  0  0  0  0  0999 V2000
  -29.2270  -20.3640   21.9810 C   0  0  0  0  0  3  0  0  0  0  0  0
  -30.7190  -21.4910   20.4140 C   0  0  0  0  0  3  0  0  0  0  0  0
  -29.9170  -19.1580   21.7780 C   0  0  0  0  0  3  0  0  0  0  0  0
  -31.4260  -20.2870   20.2290 C   0  0  0  0  0  3  0  0  0  0  0  0
  -29.6070  -21.5290   21.2800 C   0  0  0  0  0  0  0  0  0  0  0  0
  -31.0090  -19.1150   20.8920 C   0  0  0  0  0  0  0  0  0  0  0  0
  -28.8120  -22.8060   21.4670 C   0  0  0  0  0  2  0  0  0  0  0  0
  -27.5840  -22.8710   20.5260 C   0  0  0  0  0  2  0  0  0  0  0  0
  -25.4430  -23.9210   19.7540 C   0  0  0  0  0  1  0  0  0  0  0  0
  -26.1280  -24.2410   22.0990 C   0  0  0  0  0  1  0  0  0  0  0  0
  -26.6790  -24.1200   20.6590 C   0  0  1  0  0  0  0  0  0  0  0  0
  -27.4390  -25.4340   20.3070 C   0  0  0  0  0  2  0  0  0  0  0  0
  -27.8190  -25.6880   18.8140 C   0  0  0  0  0  2  0  0  0  0  0  0
  -27.8290  -27.0820   18.4620 O   0  0  0  0  0  0  0  0  0  0  0  0
  -24.4800  -31.3970   22.9460 C   0  0  0  0  0  0  0  0  0  0  0  0
  -26.6620  -27.7770   18.6910 C   0  0  0  0  0  0  0  0  0  0  0  0
  -23.0430  -30.2830   21.2660 C   0  0  0  0  0  3  0  0  0  0  0  0
  -24.2720  -29.1240   19.3560 C   0  0  0  0  0  0  0  0  0  0  0  0
  -25.4940  -30.8000   20.7530 C   0  0  0  0  0  2  0  0  0  0  0  0
  -25.4990  -29.5880   19.8480 C   0  0  0  0  0  0  0  0  0  0  0  0
  -26.6980  -28.9230   19.5090 C   0  0  0  0  0  3  0  0  0  0  0  0
  -25.4210  -27.3380   18.1790 C   0  0  0  0  0  3  0  0  0  0  0  0
  -24.2270  -27.9950   18.5190 C   0  0  0  0  0  3  0  0  0  0  0  0
  -23.0330  -29.8880   19.7660 C   0  0  0  0  0  2  0  0  0  0  0  0
  -24.3670  -30.8300   21.7120 N   0  0  0  0  0  0  0  0  0  0  0  0
  -23.4970  -31.5080   23.6900 O   0  0  0  0  0  0  0  0  0  0  0  0
  -22.5670  -29.0690   22.0940 C   0  0  0  0  0  0  0  0  0  0  0  0
  -21.2610  -28.7680   22.0150 N   0  0  0  0  0  0  0  0  0  0  0  0
  -23.3640  -28.4090   22.7670 O   0  0  0  0  0  0  0  0  0  0  0  0
  -20.6670  -29.3610   21.4530 H   0  0  0  0  0  0  0  0  0  0  0  0
  -18.0970  -27.0750   22.3980 C   0  0  0  0  0  0  0  0  0  0  0  0
  -20.5990  -27.6450   22.6780 C   0  0  0  0  0  3  0  0  0  0  0  0
  -20.8800  -26.3170   21.9400 C   0  0  0  0  0  2  0  0  0  0  0  0
  -19.8090  -25.9630   20.9040 C   0  0  0  0  0  2  0  0  0  0  0  0
  -18.4360  -25.8460   21.5710 C   0  0  0  0  0  2  0  0  0  0  0  0
  -19.1110  -27.9290   22.9040 C   0  0  0  0  0  0  0  0  0  0  0  0
  -18.7380  -29.0770   23.6360 C   0  0  0  0  0  3  0  0  0  0  0  0
  -17.3820  -29.3750   23.8660 C   0  0  0  0  0  3  0  0  0  0  0  0
  -16.3810  -28.5180   23.3770 C   0  0  0  0  0  3  0  0  0  0  0  0
  -16.7400  -27.3680   22.6500 C   0  0  0  0  0  3  0  0  0  0  0  0
  -25.8410  -31.9510   23.4710 C   0  0  0  0  0  3  0  0  0  0  0  0
  -25.5940  -33.3020   23.9930 N   0  0  0  0  0  0  0  0  0  0  0  0
  -25.8870  -34.4350   23.3400 C   0  0  0  0  0  0  0  0  0  0  0  0
  -26.4670  -34.4500   22.2510 O   0  0  0  0  0  0  0  0  0  0  0  0
  -25.0780  -33.3660   24.8590 H   0  0  0  0  0  0  0  0  0  0  0  0
  -24.1890  -36.2890   23.3350 C   0  0  0  0  0  1  0  0  0  0  0  0
  -25.4710  -35.7610   24.0010 C   0  0  0  0  0  3  0  0  0  0  0  0
  -27.6790  -36.4910   24.7910 C   0  0  0  0  0  1  0  0  0  0  0  0
  -26.5230  -36.8000   23.9530 N   0  0  0  0  0  0  0  0  0  0  0  0
  -26.1520  -37.7020   24.2410 H   0  0  0  0  0  0  0  0  0  0  0  0
  -26.5000  -31.0370   24.5750 C   0  0  1  0  0  0  0  0  0  0  0  0
  -25.5420  -30.6720   25.7320 C   0  0  0  0  0  1  0  0  0  0  0  0
  -27.0190  -29.7180   23.9550 C   0  0  0  0  0  1  0  0  0  0  0  0
  -27.7270  -31.7570   25.1850 C   0  0  0  0  0  1  0  0  0  0  0  0
  -31.6540  -17.7800   20.5800 C   0  0  0  0  0  2  0  0  0  0  0  0
  -30.9090  -17.0470   19.4450 C   0  0  0  0  0  3  0  0  0  0  0  0
  -31.2530  -14.5970   18.9120 C   0  0  0  0  0  0  0  0  0  0  0  0
  -30.9740  -12.1980   18.4360 C   0  0  0  0  0  2  0  0  0  0  0  0
  -29.8770  -11.9940   17.3760 C   0  0  0  0  0  2  0  0  0  0  0  0
  -28.4880  -11.9050   18.0350 C   0  0  0  0  0  2  0  0  0  0  0  0
  -28.2300  -13.0720   19.0260 C   0  0  0  0  0  3  0  0  0  0  0  0
  -29.4210  -13.2390   19.9950 C   0  0  0  0  0  2  0  0  0  0  0  0
  -30.6570  -13.4130   19.2010 N   0  0  0  0  0  0  0  0  0  0  0  0
  -32.0810  -14.7280   18.0060 O   0  0  0  0  0  0  0  0  0  0  0  0
  -30.8650  -15.6070   19.7010 N   0  0  0  0  0  0  0  0  0  0  0  0
  -30.2720  -15.3220   20.4640 H   0  0  0  0  0  0  0  0  0  0  0  0
  -26.1180  -13.8400   20.2930 C   0  0  0  0  0  0  0  0  0  0  0  0
  -25.0520  -13.1430   20.7980 C   0  0  0  0  0  0  0  0  0  0  0  0
  -25.3110  -11.7670   20.5120 C   0  0  0  0  0  0  0  0  0  0  0  0
  -26.9690  -12.8890   19.7470 N   0  0  0  0  0  0  0  0  0  0  0  0
  -26.4920  -11.6310   19.9240 N   0  0  0  0  0  0  0  0  0  0  0  0
  -24.4750  -10.5770   20.7150 C   0  0  0  0  0  0  0  0  0  0  0  0
  -24.8580   -9.5470   21.6030 C   0  0  0  0  0  3  0  0  0  0  0  0
  -24.0290   -8.4220   21.7950 C   0  0  0  0  0  3  0  0  0  0  0  0
  -22.8010   -8.3160   21.0990 C   0  0  0  0  0  0  0  0  0  0  0  0
  -22.4360   -9.3330   20.1980 C   0  0  0  0  0  3  0  0  0  0  0  0
  -23.2650  -10.4500   20.0040 C   0  0  0  0  0  3  0  0  0  0  0  0
  -21.9460   -7.2480   21.2010 O   0  0  0  0  0  0  0  0  0  0  0  0
  -21.6990   -6.6360   22.4040 C   0  0  0  0  0  0  0  0  0  0  0  0
  -21.1570   -7.3410   23.5010 C   0  0  0  0  0  3  0  0  0  0  0  0
  -20.8560   -6.6580   24.6960 C   0  0  0  0  0  3  0  0  0  0  0  0
  -21.0830   -5.2720   24.7930 C   0  0  0  0  0  0  0  0  0  0  0  0
  -21.6150   -4.5680   23.7000 C   0  0  0  0  0  3  0  0  0  0  0  0
  -21.9200   -5.2470   22.5070 C   0  0  0  0  0  0  0  0  0  0  0  0
  -22.4140   -4.5590   21.4490 F   0  0  0  0  0  0  0  0  0  0  0  0
  -20.7850   -4.6140   25.9390 F   0  0  0  0  0  0  0  0  0  0  0  0
  -23.8200  -13.7250   21.4260 C   0  0  0  0  0  0  0  0  0  0  0  0
  -23.2110  -13.0080   22.3630 N   0  0  0  0  0  0  0  0  0  0  0  0
  -23.4150  -14.8470   21.1220 O   0  0  0  0  0  0  0  0  0  0  0  0
  -23.5500  -12.0930   22.6230 H   0  0  0  0  0  0  0  0  0  0  0  0
  -22.3910  -13.3760   22.8230 H   0  0  0  0  0  0  0  0  0  0  0  0
  -26.4230  -15.1960   20.2420 N   0  0  0  0  0  0  0  0  0  0  0  0
  -25.7910  -15.9050   20.5980 H   0  0  0  0  0  0  0  0  0  0  0  0
  -27.2530  -15.5860   19.8110 H   0  0  0  0  0  0  0  0  0  0  0  0
  -31.3590  -17.4940   18.0420 C   0  0  0  0  0  0  0  0  0  0  0  0
  -30.5040  -18.2160   17.3240 N   0  0  0  0  0  0  0  0  0  0  0  0
  -32.4820  -17.2240   17.6220 O   0  0  0  0  0  0  0  0  0  0  0  0
  -29.5930  -18.4450   17.6980 H   0  0  0  0  0  0  0  0  0  0  0  0
  -30.7650  -18.5690   16.4150 H   0  0  0  0  0  0  0  0  0  0  0  0
  2  5  1  0
  3  1  1  0
  4  2  2  0
  4  6  1  0
  5  7  1  0
  5  1  2  0
  6  3  2  0
  8 11  1  0
  8  7  1  0
 11  9  1  6
 11 10  1  0
 12 11  1  0
 13 12  1  0
 14 16  1  0
 14 13  1  0
 15 26  2  0
 16 21  1  0
 17 25  1  0
 17 27  1  0
 18 24  1  0
 18 20  1  0
 19 25  1  0
 20 19  1  0
 21 20  2  0
 22 23  1  0
 22 16  2  0
 23 18  2  0
 24 17  1  0
 25 15  1  0
 27 29  2  0
 28 27  1  0
 30 28  1  0
 31 40  2  0
 31 36  1  0
 32 28  1  0
 32 36  1  0
 33 32  1  0
 34 35  1  0
 34 33  1  0
 35 31  1  0
 36 37  2  0
 37 38  1  0
 39 38  2  0
 40 39  1  0
 41 15  1  0
 41 42  1  0
 41 51  1  0
 42 45  1  0
 43 42  1  0
 43 47  1  0
 44 43  2  0
 47 46  1  0
 49 47  1  0
 49 50  1  0
 49 48  1  0
 51 54  1  1
 51 52  1  0
 53 51  1  0
 55  6  1  0
 56 65  1  0
 56 55  1  0
 57 63  1  0
 57 65  1  0
 58 63  1  0
 59 60  1  0
 59 58  1  0
 61 60  1  0
 61 70  1  0
 61 62  1  0
 63 62  1  0
 64 57  2  0
 65 66  1  0
 67 68  2  0
 68 87  1  0
 69 72  1  0
 69 68  1  0
 70 71  1  0
 70 67  1  0
 71 69  2  0
 72 73  1  0
 73 74  2  0
 75 78  1  0
 75 74  1  0
 76 75  2  0
 77 76  1  0
 77 72  2  0
 78 79  1  0
 79 84  2  0
 79 80  1  0
 80 81  2  0
 81 82  1  0
 82 86  1  0
 83 82  2  0
 84 83  1  0
 85 84  1  0
 87 88  1  0
 88 90  1  0
 88 91  1  0
 89 87  2  0
 92 67  1  0
 92 93  1  0
 94 92  1  0
 95 56  1  0
 96 98  1  0
 96 95  1  0
 97 95  2  0
 99 96  1  0
M  ISO  4  13 101  14 101  57 100  65 100
M  END
>  <TORSDO>  (61) 
F 24

>  <SCORE>  (61) 
-8.924

>  <name>  (61) 
63

>  <ligand_id>  (61) 
63

>  <original_smiles>  (61) 
[H]c1c([H])c([H])c2c(c1[H])C([H])([H])C([H])([H])C([H])([H])C2([H])N([H])C(=O)C1([H])N(C(=O)C([H])(N([H])C(=O)C([H])(N([H])C([H])([H])[H])C([H])([H])[H])C(C([H])([H])[H])(C([H])([H])[H])C([H])([H])[H])C([H])([H])c2c([H])c(OC([H])([H])C([H])([H])C(C([H])([H])[H])(C([H])([H])[H])C([H])([H])C([H])([H])c3c([H])c([H])c(C([H])([H])C([H])(C(=O)N([H])[H])N([H])C(=O)N4C([H])([H])C([H])([H])C([H])([H])C([H])(n5nc(-c6c([H])c([H])c(Oc7c([H])c([H])c(F)c([H])c7F)c([H])c6[H])c(C(=O)N([H])[H])c5N([H])[H])C4([H])[H])c([H])c3[H])c([H])c([H])c2C1([H])[H]

>  <smiles>  (61) 
[H]c1c([H])c([H])c2c(c1[H])C([H])([H])C([H])([H])C([H])([H])C2([H])N([H])C(=O)C1([H])N(C(=O)C([H])(N([H])C(=O)C([H])(N([H])C([H])([H])[H])C([H])([H])[H])C(C([H])([H])[H])(C([H])([H])[H])C([H])([H])[H])C([H])([H])c2c([H])c(OC([H])([H])C([H])([H])C(C([H])([H])[H])(C([H])([H])[H])C([H])([H])C([H])([H])c3c([H])c([H])c(C([H])([H])C([H])(C(=O)N([H])[H])N([H])C(=O)N4C([H])([H])C([H])([H])C([H])([H])C([H])(n5nc(-c6c([H])c([H])c(Oc7c([H])c([H])c(F)c([H])c7F)c([H])c6[H])c(C(=O)N([H])[H])c5N([H])[H])C4([H])[H])c([H])c3[H])c([H])c([H])c2C1([H])[H]

$$$$
64:0:0
     RDKit          3D

 95103  0  0  1  0  0  0  0  0999 V2000
  -29.4170  -18.0830   20.2940 C   0  0  0  0  0  2  0  0  0  0  0  0
  -30.5450  -20.0780   21.4910 C   0  0  0  0  0  2  0  0  0  0  0  0
  -31.7770  -17.8180   21.2310 C   0  0  0  0  0  2  0  0  0  0  0  0
  -29.5410  -19.6390   20.3860 C   0  0  0  0  0  3  0  0  0  0  0  0
  -30.3170  -17.2950   21.2790 C   0  0  0  0  0  3  0  0  0  0  0  0
  -31.9040  -19.3550   21.4380 C   0  0  0  0  0  3  0  0  0  0  0  0
  -30.9130  -14.8220   20.7510 C   0  0  0  0  0  0  0  0  0  0  0  0
  -30.8270  -12.4950   19.9230 C   0  0  0  0  0  2  0  0  0  0  0  0
  -29.9810  -12.4660   18.6300 C   0  0  0  0  0  2  0  0  0  0  0  0
  -28.4760  -12.3260   18.9410 C   0  0  0  0  0  2  0  0  0  0  0  0
  -28.0000  -13.3150   20.0360 C   0  0  0  0  0  3  0  0  0  0  0  0
  -28.9620  -13.2980   21.2480 C   0  0  0  0  0  2  0  0  0  0  0  0
  -30.3170  -13.5940   20.7530 N   0  0  0  0  0  0  0  0  0  0  0  0
  -32.0480  -15.0120   20.3100 O   0  0  0  0  0  0  0  0  0  0  0  0
  -30.1290  -15.8320   21.1850 N   0  0  0  0  0  0  0  0  0  0  0  0
  -29.2060  -15.5270   21.4630 H   0  0  0  0  0  0  0  0  0  0  0  0
  -25.5680  -13.9470   20.5850 C   0  0  0  0  0  0  0  0  0  0  0  0
  -24.4730  -13.1950   20.9020 C   0  0  0  0  0  0  0  0  0  0  0  0
  -24.9220  -11.8380   20.9140 C   0  0  0  0  0  0  0  0  0  0  0  0
  -26.6200  -13.0600   20.4330 N   0  0  0  0  0  0  0  0  0  0  0  0
  -26.2280  -11.7830   20.6840 N   0  0  0  0  0  0  0  0  0  0  0  0
  -24.1740  -10.5870   21.0760 C   0  0  0  0  0  0  0  0  0  0  0  0
  -24.5480   -9.6160   22.0310 C   0  0  0  0  0  3  0  0  0  0  0  0
  -23.8020   -8.4280   22.1760 C   0  0  0  0  0  3  0  0  0  0  0  0
  -22.6630   -8.1990   21.3690 C   0  0  0  0  0  0  0  0  0  0  0  0
  -22.3050   -9.1600   20.4060 C   0  0  0  0  0  3  0  0  0  0  0  0
  -23.0530  -10.3410   20.2590 C   0  0  0  0  0  3  0  0  0  0  0  0
  -21.8940   -7.0640   21.4240 O   0  0  0  0  0  0  0  0  0  0  0  0
  -21.7990   -6.3120   22.5680 C   0  0  0  0  0  0  0  0  0  0  0  0
  -21.3110   -6.8550   23.7770 C   0  0  0  0  0  3  0  0  0  0  0  0
  -21.1700   -6.0320   24.9120 C   0  0  0  0  0  3  0  0  0  0  0  0
  -21.5030   -4.6670   24.8370 C   0  0  0  0  0  0  0  0  0  0  0  0
  -21.9810   -4.1220   23.6330 C   0  0  0  0  0  3  0  0  0  0  0  0
  -22.1270   -4.9430   22.5000 C   0  0  0  0  0  0  0  0  0  0  0  0
  -22.5710   -4.4100   21.3360 F   0  0  0  0  0  0  0  0  0  0  0  0
  -21.3540   -3.8710   25.9230 F   0  0  0  0  0  0  0  0  0  0  0  0
  -23.0680  -13.6870   21.0920 C   0  0  0  0  0  0  0  0  0  0  0  0
  -22.2830  -13.0110   21.9250 N   0  0  0  0  0  0  0  0  0  0  0  0
  -22.6730  -14.7100   20.5370 O   0  0  0  0  0  0  0  0  0  0  0  0
  -22.6120  -12.1830   22.4020 H   0  0  0  0  0  0  0  0  0  0  0  0
  -21.3370  -13.3230   22.0840 H   0  0  0  0  0  0  0  0  0  0  0  0
  -25.7520  -15.3140   20.3850 N   0  0  0  0  0  0  0  0  0  0  0  0
  -24.9770  -15.9630   20.4070 H   0  0  0  0  0  0  0  0  0  0  0  0
  -26.6150  -15.7310   20.0550 H   0  0  0  0  0  0  0  0  0  0  0  0
  -32.7380  -19.7410   22.5970 N   0  0  0  0  0  4  0  0  0  0  0  0
  -32.4210  -19.3470   23.4630 H   0  0  0  0  0  0  0  0  0  0  0  0
  -32.7210  -20.7370   22.7180 H   0  0  0  0  0  0  0  0  0  0  0  0
  -33.6990  -19.4750   22.4580 H   0  0  0  0  0  0  0  0  0  0  0  0
  -28.1450  -20.2950   20.5670 C   0  0  0  0  0  2  0  0  0  0  0  0
  -28.1270  -21.8200   20.9060 C   0  0  0  0  0  2  0  0  0  0  0  0
  -27.8590  -22.3020   18.3740 C   0  0  0  0  0  1  0  0  0  0  0  0
  -27.7140  -22.8410   19.8100 C   0  0  0  0  0  3  0  0  0  0  0  0
  -28.4280  -24.2240   20.0100 C   0  0  0  0  0  2  0  0  0  0  0  0
  -27.7250  -25.3870   19.2710 C   0  0  0  0  0  2  0  0  0  0  0  0
  -28.1010  -26.7670   19.6010 O   0  0  0  0  0  0  0  0  0  0  0  0
  -24.6690  -31.8540   23.3150 C   0  0  0  0  0  0  0  0  0  0  0  0
  -27.0460  -27.6700   19.6480 C   0  0  0  0  0  0  0  0  0  0  0  0
  -23.3770  -30.6510   21.5870 C   0  0  0  0  0  3  0  0  0  0  0  0
  -24.7300  -29.2820   19.9290 C   0  0  0  0  0  0  0  0  0  0  0  0
  -25.9120  -30.9600   21.3420 C   0  0  0  0  0  2  0  0  0  0  0  0
  -25.9300  -29.6730   20.5450 C   0  0  0  0  0  0  0  0  0  0  0  0
  -27.0940  -28.8700   20.4110 C   0  0  0  0  0  3  0  0  0  0  0  0
  -25.8530  -27.3900   18.9470 C   0  0  0  0  0  3  0  0  0  0  0  0
  -24.6910  -28.1400   19.1220 C   0  0  0  0  0  3  0  0  0  0  0  0
  -23.5130  -30.1500   20.1290 C   0  0  0  0  0  2  0  0  0  0  0  0
  -24.6720  -31.1680   22.1350 N   0  0  0  0  0  0  0  0  0  0  0  0
  -23.6080  -32.0760   23.9200 O   0  0  0  0  0  0  0  0  0  0  0  0
  -22.7500  -29.5320   22.4560 C   0  0  0  0  0  0  0  0  0  0  0  0
  -21.4250  -29.3680   22.3430 N   0  0  0  0  0  0  0  0  0  0  0  0
  -23.4530  -28.8360   23.1890 O   0  0  0  0  0  0  0  0  0  0  0  0
  -20.9180  -29.9990   21.7360 H   0  0  0  0  0  0  0  0  0  0  0  0
  -18.0810  -28.0490   22.7430 C   0  0  0  0  0  0  0  0  0  0  0  0
  -20.6330  -28.3560   23.0400 C   0  0  0  0  0  3  0  0  0  0  0  0
  -20.7770  -26.9750   22.3660 C   0  0  0  0  0  2  0  0  0  0  0  0
  -19.6840  -26.6970   21.3270 C   0  0  0  0  0  2  0  0  0  0  0  0
  -18.3020  -26.7560   21.9780 C   0  0  0  0  0  2  0  0  0  0  0  0
  -19.1800  -28.8090   23.2300 C   0  0  0  0  0  0  0  0  0  0  0  0
  -18.9230  -30.0180   23.9130 C   0  0  0  0  0  3  0  0  0  0  0  0
  -17.6020  -30.4690   24.1070 C   0  0  0  0  0  3  0  0  0  0  0  0
  -16.5260  -29.7050   23.6320 C   0  0  0  0  0  3  0  0  0  0  0  0
  -16.7630  -28.4980   22.9550 C   0  0  0  0  0  3  0  0  0  0  0  0
  -25.9840  -32.4030   23.9370 C   0  0  0  0  0  3  0  0  0  0  0  0
  -25.7190  -33.7820   24.3740 N   0  0  0  0  0  0  0  0  0  0  0  0
  -26.0750  -34.8780   23.6930 C   0  0  0  0  0  0  0  0  0  0  0  0
  -26.7290  -34.8400   22.6500 O   0  0  0  0  0  0  0  0  0  0  0  0
  -25.1470  -33.8920   25.2000 H   0  0  0  0  0  0  0  0  0  0  0  0
  -24.4020  -36.7490   23.4870 C   0  0  0  0  0  1  0  0  0  0  0  0
  -25.6290  -36.2410   24.2620 C   0  0  0  0  0  3  0  0  0  0  0  0
  -27.7850  -36.9890   25.1700 C   0  0  0  0  0  1  0  0  0  0  0  0
  -26.6960  -37.2640   24.2370 N   0  0  0  0  0  0  0  0  0  0  0  0
  -26.3140  -38.1800   24.4600 H   0  0  0  0  0  0  0  0  0  0  0  0
  -26.5160  -31.5310   25.1400 C   0  0  1  0  0  0  0  0  0  0  0  0
  -25.4470  -31.2510   26.2230 C   0  0  0  0  0  1  0  0  0  0  0  0
  -27.0500  -30.1710   24.6370 C   0  0  0  0  0  1  0  0  0  0  0  0
  -27.7030  -32.2480   25.8230 C   0  0  0  0  0  1  0  0  0  0  0  0
  1  4  1  0
  1  5  1  0
  3  5  1  0
  3  6  1  0
  4 49  1  0
  4  2  1  0
  5 15  1  0
  6  2  1  0
  6 45  1  0
  7 13  1  0
  7 15  1  0
  8 13  1  0
  9 10  1  0
  9  8  1  0
 11 10  1  0
 11 20  1  0
 11 12  1  0
 13 12  1  0
 14  7  2  0
 15 16  1  0
 17 18  2  0
 18 19  1  0
 18 37  1  0
 19 22  1  0
 20 17  1  0
 20 21  1  0
 21 19  2  0
 22 23  1  0
 23 24  2  0
 25 28  1  0
 25 24  1  0
 26 25  2  0
 27 26  1  0
 27 22  2  0
 28 29  1  0
 29 30  1  0
 30 31  2  0
 32 31  1  0
 32 36  1  0
 33 32  2  0
 34 29  2  0
 34 33  1  0
 35 34  1  0
 37 38  1  0
 38 41  1  0
 38 40  1  0
 39 37  2  0
 42 43  1  0
 42 17  1  0
 44 42  1  0
 45 47  1  0
 45 46  1  0
 48 45  1  0
 49 50  1  0
 52 51  1  0
 52 53  1  0
 52 50  1  0
 54 55  1  0
 54 53  1  0
 55 57  1  0
 56 67  2  0
 57 62  1  0
 58 66  1  0
 58 68  1  0
 59 65  1  0
 59 61  1  0
 60 66  1  0
 61 60  1  0
 62 61  2  0
 63 64  1  0
 63 57  2  0
 64 59  2  0
 65 58  1  0
 66 56  1  0
 68 70  2  0
 69 68  1  0
 71 69  1  0
 72 81  2  0
 72 77  1  0
 73 69  1  0
 73 77  1  0
 74 73  1  0
 75 76  1  0
 75 74  1  0
 76 72  1  0
 77 78  2  0
 78 79  1  0
 80 79  2  0
 81 80  1  0
 82 56  1  0
 82 83  1  0
 82 92  1  0
 83 86  1  0
 84 88  1  0
 84 83  1  0
 85 84  2  0
 88 87  1  0
 90 88  1  0
 90 91  1  0
 90 89  1  0
 92 95  1  1
 92 93  1  0
 94 92  1  0
M  ISO  4   7 100  15 100  54 101  55 101
M  END
>  <TORSDO>  (62) 
F 22

>  <SCORE>  (62) 
-13.021

>  <name>  (62) 
64

>  <ligand_id>  (62) 
64

>  <original_smiles>  (62) 
[H]c1c([H])c([H])c2c(c1[H])C([H])([H])C([H])([H])C([H])([H])C2([H])N([H])C(=O)C1([H])N(C(=O)C([H])(N([H])C(=O)C([H])(N([H])C([H])([H])[H])C([H])([H])[H])C(C([H])([H])[H])(C([H])([H])[H])C([H])([H])[H])C([H])([H])c2c([H])c(OC([H])([H])C([H])([H])C([H])(C([H])([H])[H])C([H])([H])C([H])([H])C3([H])C([H])([H])C([H])(N([H])C(=O)N4C([H])([H])C([H])([H])C([H])([H])C([H])(n5nc(-c6c([H])c([H])c(Oc7c([H])c([H])c(F)c([H])c7F)c([H])c6[H])c(C(=O)N([H])[H])c5N([H])[H])C4([H])[H])C([H])([H])C([H])([N+]([H])([H])[H])C3([H])[H])c([H])c([H])c2C1([H])[H]

>  <smiles>  (62) 
[H]c1c([H])c([H])c2c(c1[H])C([H])([H])C([H])([H])C([H])([H])C2([H])N([H])C(=O)C1([H])N(C(=O)C([H])(N([H])C(=O)C([H])(N([H])C([H])([H])[H])C([H])([H])[H])C(C([H])([H])[H])(C([H])([H])[H])C([H])([H])[H])C([H])([H])c2c([H])c(OC([H])([H])C([H])([H])C([H])(C([H])([H])[H])C([H])([H])C([H])([H])C3([H])C([H])([H])C([H])(N([H])C(=O)N4C([H])([H])C([H])([H])C([H])([H])C([H])(n5nc(-c6c([H])c([H])c(Oc7c([H])c([H])c(F)c([H])c7F)c([H])c6[H])c(C(=O)N([H])[H])c5N([H])[H])C4([H])[H])C([H])([H])C([H])([N+]([H])([H])[H])C3([H])[H])c([H])c([H])c2C1([H])[H]

$$$$
65:0:0
     RDKit          3D

103111  0  0  1  0  0  0  0  0999 V2000
  -32.0250  -17.8190   22.1040 C   0  0  0  0  0  2  0  0  0  0  0  0
  -29.8570  -17.6330   23.4070 C   0  0  0  0  0  2  0  0  0  0  0  0
  -32.6660  -19.1950   22.3920 C   0  0  0  0  0  2  0  0  0  0  0  0
  -31.5040  -19.3070   24.5300 C   0  0  0  0  0  2  0  0  0  0  0  0
  -30.4820  -17.8330   22.0040 C   0  0  0  0  0  3  0  0  0  0  0  0
  -30.0340  -18.8460   24.3500 C   0  0  0  0  0  3  0  0  0  0  0  0
  -31.9200  -20.0450   23.3340 N   0  0  0  0  0  0  0  0  0  0  0  0
  -29.4120  -18.5960   25.6610 N   0  0  0  0  0  4  0  0  0  0  0  0
  -29.9030  -17.8810   26.1680 H   0  0  0  0  0  0  0  0  0  0  0  0
  -28.4550  -18.3140   25.5470 H   0  0  0  0  0  0  0  0  0  0  0  0
  -29.4190  -19.4360   26.2120 H   0  0  0  0  0  0  0  0  0  0  0  0
  -32.6900  -21.2520   23.6600 C   0  0  0  0  0  2  0  0  0  0  0  0
  -32.7280  -22.2360   22.4710 C   0  0  0  0  0  2  0  0  0  0  0  0
  -31.3600  -22.8850   22.1940 C   0  0  0  0  0  2  0  0  0  0  0  0
  -31.3930  -23.8490   20.9970 C   0  0  0  0  0  2  0  0  0  0  0  0
  -30.1620  -24.7710   20.9230 C   0  0  0  0  0  2  0  0  0  0  0  0
  -30.2470  -25.7460   19.7370 C   0  0  0  0  0  2  0  0  0  0  0  0
  -29.6260  -27.9730   18.7410 C   0  0  0  0  0  1  0  0  0  0  0  0
  -29.2660  -26.9310   19.8150 C   0  0  0  0  0  3  0  0  0  0  0  0
  -27.9450  -26.4290   19.6050 O   0  0  0  0  0  0  0  0  0  0  0  0
  -24.5960  -31.6690   23.1640 C   0  0  0  0  0  0  0  0  0  0  0  0
  -26.8540  -27.2570   19.7780 C   0  0  0  0  0  0  0  0  0  0  0  0
  -23.2330  -30.4190   21.5160 C   0  0  0  0  0  3  0  0  0  0  0  0
  -24.5290  -28.8580   19.9710 C   0  0  0  0  0  0  0  0  0  0  0  0
  -25.7580  -30.6450   21.2150 C   0  0  0  0  0  2  0  0  0  0  0  0
  -25.7330  -29.2980   20.5300 C   0  0  0  0  0  0  0  0  0  0  0  0
  -26.8930  -28.5030   20.4480 C   0  0  0  0  0  3  0  0  0  0  0  0
  -25.6280  -26.8190   19.2350 C   0  0  0  0  0  3  0  0  0  0  0  0
  -24.4650  -27.6080   19.3270 C   0  0  0  0  0  3  0  0  0  0  0  0
  -23.3410  -29.7840   20.1020 C   0  0  0  0  0  2  0  0  0  0  0  0
  -24.5500  -30.9210   22.0250 N   0  0  0  0  0  0  0  0  0  0  0  0
  -23.5590  -31.9810   23.7650 O   0  0  0  0  0  0  0  0  0  0  0  0
  -22.5620  -29.3990   22.4620 C   0  0  0  0  0  0  0  0  0  0  0  0
  -21.2250  -29.3000   22.3800 N   0  0  0  0  0  0  0  0  0  0  0  0
  -23.2380  -28.7000   23.2210 O   0  0  0  0  0  0  0  0  0  0  0  0
  -20.7430  -29.9130   21.7380 H   0  0  0  0  0  0  0  0  0  0  0  0
  -17.8090  -28.2710   22.9370 C   0  0  0  0  0  0  0  0  0  0  0  0
  -20.3820  -28.3810   23.1450 C   0  0  0  0  0  3  0  0  0  0  0  0
  -20.3930  -26.9670   22.5190 C   0  0  0  0  0  2  0  0  0  0  0  0
  -19.2500  -26.7390   21.5270 C   0  0  0  0  0  2  0  0  0  0  0  0
  -17.8940  -26.9380   22.2120 C   0  0  0  0  0  2  0  0  0  0  0  0
  -18.9790  -28.9560   23.3600 C   0  0  0  0  0  0  0  0  0  0  0  0
  -18.8460  -30.2100   23.9960 C   0  0  0  0  0  3  0  0  0  0  0  0
  -17.5760  -30.7760   24.2120 C   0  0  0  0  0  3  0  0  0  0  0  0
  -16.4200  -30.0870   23.8070 C   0  0  0  0  0  3  0  0  0  0  0  0
  -16.5380  -28.8350   23.1750 C   0  0  0  0  0  3  0  0  0  0  0  0
  -25.9450  -32.1890   23.7490 C   0  0  0  0  0  3  0  0  0  0  0  0
  -26.5210  -31.2730   24.8970 C   0  0  1  0  0  0  0  0  0  0  0  0
  -25.5040  -30.9720   26.0230 C   0  0  0  0  0  1  0  0  0  0  0  0
  -27.0040  -29.9210   24.3220 C   0  0  0  0  0  1  0  0  0  0  0  0
  -27.7550  -31.9490   25.5390 C   0  0  0  0  0  1  0  0  0  0  0  0
  -25.7180  -33.5560   24.2360 N   0  0  0  0  0  0  0  0  0  0  0  0
  -26.0630  -34.6670   23.5700 C   0  0  0  0  0  0  0  0  0  0  0  0
  -26.6770  -34.6440   22.5000 O   0  0  0  0  0  0  0  0  0  0  0  0
  -25.1700  -33.6510   25.0780 H   0  0  0  0  0  0  0  0  0  0  0  0
  -24.4030  -36.5530   23.4910 C   0  0  0  0  0  1  0  0  0  0  0  0
  -25.6620  -36.0180   24.1910 C   0  0  0  0  0  3  0  0  0  0  0  0
  -27.8730  -36.7240   24.9930 C   0  0  0  0  0  1  0  0  0  0  0  0
  -26.7340  -37.0350   24.1320 N   0  0  0  0  0  0  0  0  0  0  0  0
  -26.3790  -37.9490   24.3970 H   0  0  0  0  0  0  0  0  0  0  0  0
  -29.9650  -16.8290   20.9400 C   0  0  0  0  0  3  0  0  0  0  0  0
  -30.6500  -14.4560   21.2870 C   0  0  0  0  0  0  0  0  0  0  0  0
  -30.6350  -12.1720   20.3880 C   0  0  0  0  0  2  0  0  0  0  0  0
  -29.8770  -12.1980   19.0450 C   0  0  0  0  0  2  0  0  0  0  0  0
  -28.3600  -12.0240   19.2630 C   0  0  0  0  0  2  0  0  0  0  0  0
  -27.7950  -12.9480   20.3770 C   0  0  0  0  0  3  0  0  0  0  0  0
  -28.6890  -12.9090   21.6390 C   0  0  0  0  0  2  0  0  0  0  0  0
  -30.0680  -13.2290   21.2360 N   0  0  0  0  0  0  0  0  0  0  0  0
  -31.8220  -14.6660   20.9690 O   0  0  0  0  0  0  0  0  0  0  0  0
  -29.7920  -15.4700   21.4760 N   0  0  0  0  0  0  0  0  0  0  0  0
  -28.8610  -15.2060   21.7530 H   0  0  0  0  0  0  0  0  0  0  0  0
  -25.2920  -13.4560   20.7130 C   0  0  0  0  0  0  0  0  0  0  0  0
  -24.2240  -12.6480   20.9890 C   0  0  0  0  0  0  0  0  0  0  0  0
  -24.7510  -11.3260   21.1130 C   0  0  0  0  0  0  0  0  0  0  0  0
  -26.4030  -12.6260   20.6860 N   0  0  0  0  0  0  0  0  0  0  0  0
  -26.0720  -11.3430   20.9830 N   0  0  0  0  0  0  0  0  0  0  0  0
  -24.0680  -10.0380   21.2930 C   0  0  0  0  0  0  0  0  0  0  0  0
  -24.4220   -9.1570   22.3390 C   0  0  0  0  0  3  0  0  0  0  0  0
  -23.7420   -7.9310   22.5030 C   0  0  0  0  0  3  0  0  0  0  0  0
  -22.6930   -7.5770   21.6200 C   0  0  0  0  0  0  0  0  0  0  0  0
  -22.3610   -8.4480   20.5670 C   0  0  0  0  0  3  0  0  0  0  0  0
  -23.0430   -9.6650   20.4020 C   0  0  0  0  0  3  0  0  0  0  0  0
  -21.9910   -6.3990   21.6880 O   0  0  0  0  0  0  0  0  0  0  0  0
  -21.8300   -5.7230   22.8720 C   0  0  0  0  0  0  0  0  0  0  0  0
  -21.2160   -6.3220   23.9930 C   0  0  0  0  0  3  0  0  0  0  0  0
  -21.0100   -5.5700   25.1670 C   0  0  0  0  0  3  0  0  0  0  0  0
  -21.4040   -4.2190   25.2170 C   0  0  0  0  0  0  0  0  0  0  0  0
  -22.0090   -3.6200   24.0980 C   0  0  0  0  0  3  0  0  0  0  0  0
  -22.2190   -4.3690   22.9280 C   0  0  0  0  0  0  0  0  0  0  0  0
  -22.7850   -3.7810   21.8470 F   0  0  0  0  0  0  0  0  0  0  0  0
  -21.1960   -3.4950   26.3400 F   0  0  0  0  0  0  0  0  0  0  0  0
  -22.7800  -13.0580   21.0380 C   0  0  0  0  0  0  0  0  0  0  0  0
  -21.9770  -12.3840   21.8550 N   0  0  0  0  0  0  0  0  0  0  0  0
  -22.3650  -14.0150   20.3870 O   0  0  0  0  0  0  0  0  0  0  0  0
  -22.3190  -11.6120   22.4070 H   0  0  0  0  0  0  0  0  0  0  0  0
  -21.0040  -12.6460   21.9290 H   0  0  0  0  0  0  0  0  0  0  0  0
  -25.4090  -14.8210   20.4670 N   0  0  0  0  0  0  0  0  0  0  0  0
  -24.5960  -15.4250   20.4140 H   0  0  0  0  0  0  0  0  0  0  0  0
  -26.2680  -15.2850   20.2030 H   0  0  0  0  0  0  0  0  0  0  0  0
  -28.6510  -17.2980   20.2620 C   0  0  0  0  0  2  0  0  0  0  0  0
  -26.9600  -16.9620   18.3900 C   0  0  0  0  0  1  0  0  0  0  0  0
  -29.3770  -17.3270   17.8050 C   0  0  0  0  0  1  0  0  0  0  0  0
  -28.4110  -16.7300   18.8430 C   0  0  0  0  0  3  0  0  0  0  0  0
  1  3  1  0
  2  6  1  0
  3  7  1  0
  5 61  1  0
  5  1  1  0
  5  2  1  0
  6  4  1  0
  6  8  1  0
  7 12  1  0
  7  4  1  0
  8  9  1  0
  8 11  1  0
 10  8  1  0
 13 12  1  0
 14 13  1  0
 15 14  1  0
 16 15  1  0
 17 19  1  0
 17 16  1  0
 19 18  1  0
 20 22  1  0
 20 19  1  0
 21 32  2  0
 22 27  1  0
 23 31  1  0
 23 33  1  0
 24 30  1  0
 24 26  1  0
 25 31  1  0
 26 25  1  0
 27 26  2  0
 28 29  1  0
 28 22  2  0
 29 24  2  0
 30 23  1  0
 31 21  1  0
 33 35  2  0
 34 33  1  0
 36 34  1  0
 37 46  2  0
 37 42  1  0
 38 34  1  0
 38 42  1  0
 39 38  1  0
 40 41  1  0
 40 39  1  0
 41 37  1  0
 42 43  2  0
 43 44  1  0
 45 44  2  0
 46 45  1  0
 47 21  1  0
 47 52  1  0
 47 48  1  0
 48 51  1  1
 48 49  1  0
 50 48  1  0
 52 55  1  0
 53 57  1  0
 53 52  1  0
 54 53  2  0
 57 56  1  0
 59 57  1  0
 59 60  1  0
 59 58  1  0
 61100  1  0
 61 70  1  0
 62 70  1  0
 63 68  1  0
 64 65  1  0
 64 63  1  0
 66 65  1  0
 66 75  1  0
 66 67  1  0
 68 62  1  0
 68 67  1  0
 69 62  2  0
 70 71  1  0
 72 73  2  0
 73 92  1  0
 73 74  1  0
 74 77  1  0
 75 72  1  0
 75 76  1  0
 76 74  2  0
 77 78  1  0
 78 79  2  0
 80 83  1  0
 80 79  1  0
 81 80  2  0
 82 81  1  0
 82 77  2  0
 83 84  1  0
 84 89  2  0
 84 85  1  0
 85 86  2  0
 86 87  1  0
 87 91  1  0
 88 87  2  0
 89 88  1  0
 90 89  1  0
 92 93  1  0
 93 96  1  0
 93 95  1  0
 94 92  2  0
 97 72  1  0
 98 97  1  0
 99 97  1  0
101103  1  0
102103  1  0
103100  1  0
M  ISO  4  19 101  20 101  62 100  70 100
M  END
>  <TORSDO>  (63) 
F 27

>  <SCORE>  (63) 
-2.614

>  <name>  (63) 
65

>  <ligand_id>  (63) 
65

>  <original_smiles>  (63) 
[H]c1c([H])c([H])c2c(c1[H])C([H])([H])C([H])([H])C([H])([H])C2([H])N([H])C(=O)C1([H])N(C(=O)C([H])(N([H])C(=O)C([H])(N([H])C([H])([H])[H])C([H])([H])[H])C(C([H])([H])[H])(C([H])([H])[H])C([H])([H])[H])C([H])([H])c2c([H])c(OC([H])(C([H])([H])[H])C([H])([H])C([H])([H])C([H])([H])C([H])([H])C([H])([H])C([H])([H])N3C([H])([H])C([H])([H])C([H])(C([H])(N([H])C(=O)N4C([H])([H])C([H])([H])C([H])([H])C([H])(n5nc(-c6c([H])c([H])c(Oc7c([H])c([H])c(F)c([H])c7F)c([H])c6[H])c(C(=O)N([H])[H])c5N([H])[H])C4([H])[H])C([H])([H])C([H])(C([H])([H])[H])C([H])([H])[H])C([H])([H])C([H])([N+]([H])([H])[H])C3([H])[H])c([H])c([H])c2C1([H])[H]

>  <smiles>  (63) 
[H]c1c([H])c([H])c2c(c1[H])C([H])([H])C([H])([H])C([H])([H])C2([H])N([H])C(=O)C1([H])N(C(=O)C([H])(N([H])C(=O)C([H])(N([H])C([H])([H])[H])C([H])([H])[H])C(C([H])([H])[H])(C([H])([H])[H])C([H])([H])[H])C([H])([H])c2c([H])c(OC([H])(C([H])([H])[H])C([H])([H])C([H])([H])C([H])([H])C([H])([H])C([H])([H])C([H])([H])N3C([H])([H])C([H])([H])C([H])(C([H])(N([H])C(=O)N4C([H])([H])C([H])([H])C([H])([H])C([H])(n5nc(-c6c([H])c([H])c(Oc7c([H])c([H])c(F)c([H])c7F)c([H])c6[H])c(C(=O)N([H])[H])c5N([H])[H])C4([H])[H])C([H])([H])C([H])(C([H])([H])[H])C([H])([H])[H])C([H])([H])C([H])([N+]([H])([H])[H])C3([H])[H])c([H])c([H])c2C1([H])[H]

$$$$
66:0:0
     RDKit          3D

 99107  0  0  1  0  0  0  0  0999 V2000
  -29.7370  -20.7660   20.5760 C   0  0  0  0  0  3  0  0  0  0  0  0
  -27.8470  -21.5300   18.8850 C   0  0  0  0  0  0  0  0  0  0  0  0
  -28.3730  -21.8270   17.5000 C   0  0  0  0  0  2  0  0  0  0  0  0
  -29.2030  -19.6700   18.3000 C   0  0  0  0  0  2  0  0  0  0  0  0
  -28.6060  -20.3820   19.5460 C   0  0  0  0  0  3  0  0  0  0  0  0
  -28.7900  -20.4360   17.0220 C   0  0  0  0  0  3  0  0  0  0  0  0
  -26.8550  -22.0800   19.3640 O   0  0  0  0  0  0  0  0  0  0  0  0
  -29.8770  -20.4540   16.0200 N   0  0  0  0  0  4  0  0  0  0  0  0
  -30.7650  -20.6450   16.4470 H   0  0  0  0  0  0  0  0  0  0  0  0
  -29.7190  -21.1420   15.3060 H   0  0  0  0  0  0  0  0  0  0  0  0
  -29.9470  -19.5580   15.5680 H   0  0  0  0  0  0  0  0  0  0  0  0
  -29.3380  -21.5270   21.8110 N   0  0  0  0  0  4  0  0  0  0  0  0
  -28.7680  -20.8990   22.3560 H   0  0  0  0  0  0  0  0  0  0  0  0
  -30.1830  -21.6480   22.3470 H   0  0  0  0  0  0  0  0  0  0  0  0
  -28.6230  -22.8570   21.8350 C   0  0  0  0  0  2  0  0  0  0  0  0
  -29.1600  -24.1050   21.0310 C   0  0  0  0  0  2  0  0  0  0  0  0
  -28.2870  -25.3960   21.2820 C   0  0  0  0  0  2  0  0  0  0  0  0
  -28.5010  -26.5710   20.4450 O   0  0  0  0  0  0  0  0  0  0  0  0
  -24.6200  -31.8690   23.2630 C   0  0  0  0  0  0  0  0  0  0  0  0
  -27.3800  -27.3840   20.3320 C   0  0  0  0  0  0  0  0  0  0  0  0
  -23.4760  -30.4440   21.5970 C   0  0  0  0  0  3  0  0  0  0  0  0
  -24.9880  -28.9070   20.2230 C   0  0  0  0  0  0  0  0  0  0  0  0
  -26.0080  -30.8150   21.4750 C   0  0  0  0  0  2  0  0  0  0  0  0
  -26.1250  -29.4390   20.8470 C   0  0  0  0  0  0  0  0  0  0  0  0
  -27.3300  -28.6870   20.8960 C   0  0  0  0  0  3  0  0  0  0  0  0
  -26.2310  -26.8860   19.6840 C   0  0  0  0  0  3  0  0  0  0  0  0
  -25.0370  -27.6340   19.6350 C   0  0  0  0  0  3  0  0  0  0  0  0
  -23.7340  -29.7570   20.2280 C   0  0  0  0  0  2  0  0  0  0  0  0
  -24.7170  -31.0580   22.1710 N   0  0  0  0  0  0  0  0  0  0  0  0
  -23.5200  -32.1350   23.7670 O   0  0  0  0  0  0  0  0  0  0  0  0
  -22.8020  -29.4250   22.5460 C   0  0  0  0  0  0  0  0  0  0  0  0
  -21.4770  -29.2540   22.4010 N   0  0  0  0  0  0  0  0  0  0  0  0
  -23.4690  -28.7940   23.3690 O   0  0  0  0  0  0  0  0  0  0  0  0
  -21.0020  -29.8130   21.7080 H   0  0  0  0  0  0  0  0  0  0  0  0
  -18.0810  -28.1160   22.8970 C   0  0  0  0  0  0  0  0  0  0  0  0
  -20.6450  -28.3180   23.1580 C   0  0  0  0  0  3  0  0  0  0  0  0
  -20.7190  -26.8960   22.5540 C   0  0  0  0  0  2  0  0  0  0  0  0
  -19.6040  -26.6130   21.5410 C   0  0  0  0  0  2  0  0  0  0  0  0
  -18.2290  -26.7770   22.1930 C   0  0  0  0  0  2  0  0  0  0  0  0
  -19.2180  -28.8490   23.3350 C   0  0  0  0  0  0  0  0  0  0  0  0
  -19.0270  -30.1050   23.9510 C   0  0  0  0  0  3  0  0  0  0  0  0
  -17.7350  -30.6270   24.1340 C   0  0  0  0  0  3  0  0  0  0  0  0
  -16.6130  -29.8940   23.7110 C   0  0  0  0  0  3  0  0  0  0  0  0
  -16.7880  -28.6400   23.0970 C   0  0  0  0  0  3  0  0  0  0  0  0
  -25.8810  -32.5150   23.9150 C   0  0  0  0  0  3  0  0  0  0  0  0
  -26.3650  -31.7640   25.2150 C   0  0  1  0  0  0  0  0  0  0  0  0
  -25.2400  -31.5290   26.2500 C   0  0  0  0  0  1  0  0  0  0  0  0
  -26.9670  -30.3860   24.8560 C   0  0  0  0  0  1  0  0  0  0  0  0
  -27.4910  -32.5720   25.8990 C   0  0  0  0  0  1  0  0  0  0  0  0
  -25.5550  -33.9160   24.2170 N   0  0  0  0  0  0  0  0  0  0  0  0
  -25.9080  -34.9590   23.4530 C   0  0  0  0  0  0  0  0  0  0  0  0
  -26.6090  -34.8450   22.4440 O   0  0  0  0  0  0  0  0  0  0  0  0
  -24.9350  -34.0810   24.9960 H   0  0  0  0  0  0  0  0  0  0  0  0
  -24.1850  -36.7390   23.0140 C   0  0  0  0  0  1  0  0  0  0  0  0
  -25.3990  -36.3520   23.8730 C   0  0  0  0  0  3  0  0  0  0  0  0
  -27.4970  -37.2570   24.7730 C   0  0  0  0  0  1  0  0  0  0  0  0
  -26.4320  -37.4090   23.7840 N   0  0  0  0  0  0  0  0  0  0  0  0
  -26.0170  -38.3290   23.9020 H   0  0  0  0  0  0  0  0  0  0  0  0
  -30.5880  -19.4900   20.9890 C   0  0  0  0  0  3  0  0  0  0  0  0
  -29.8580  -18.1120   21.1920 C   0  0  0  0  0  3  0  0  0  0  0  0
  -30.7870  -16.8680   21.4100 C   0  0  0  0  0  2  0  0  0  0  0  0
  -30.7280  -14.5310   20.4030 C   0  0  0  0  0  0  0  0  0  0  0  0
  -30.3570  -12.4030   19.1810 C   0  0  0  0  0  2  0  0  0  0  0  0
  -29.3960  -12.5950   17.9930 C   0  0  0  0  0  2  0  0  0  0  0  0
  -27.9310  -12.4450   18.4460 C   0  0  0  0  0  2  0  0  0  0  0  0
  -27.6110  -13.2780   19.7170 C   0  0  0  0  0  3  0  0  0  0  0  0
  -28.6860  -13.0870   20.8120 C   0  0  0  0  0  2  0  0  0  0  0  0
  -30.0020  -13.3870   20.2250 N   0  0  0  0  0  0  0  0  0  0  0  0
  -31.8220  -14.6890   19.8590 O   0  0  0  0  0  0  0  0  0  0  0  0
  -30.1700  -15.5380   21.1260 N   0  0  0  0  0  0  0  0  0  0  0  0
  -29.2740  -15.3500   21.5490 H   0  0  0  0  0  0  0  0  0  0  0  0
  -25.2190  -13.8700   20.4500 C   0  0  0  0  0  0  0  0  0  0  0  0
  -24.1560  -13.0940   20.8260 C   0  0  0  0  0  0  0  0  0  0  0  0
  -24.6180  -11.7440   20.7880 C   0  0  0  0  0  0  0  0  0  0  0  0
  -26.2650  -12.9920   20.2100 N   0  0  0  0  0  0  0  0  0  0  0  0
  -25.9080  -11.7080   20.4750 N   0  0  0  0  0  0  0  0  0  0  0  0
  -23.8900  -10.4820   20.9820 C   0  0  0  0  0  0  0  0  0  0  0  0
  -24.3190   -9.5210   21.9250 C   0  0  0  0  0  3  0  0  0  0  0  0
  -23.5900   -8.3260   22.1110 C   0  0  0  0  0  3  0  0  0  0  0  0
  -22.4210   -8.0790   21.3510 C   0  0  0  0  0  0  0  0  0  0  0  0
  -22.0120   -9.0290   20.3960 C   0  0  0  0  0  3  0  0  0  0  0  0
  -22.7400  -10.2160   20.2110 C   0  0  0  0  0  3  0  0  0  0  0  0
  -21.6640   -6.9360   21.4440 O   0  0  0  0  0  0  0  0  0  0  0  0
  -21.6000   -6.2080   22.6070 C   0  0  0  0  0  0  0  0  0  0  0  0
  -21.1370   -6.7750   23.8150 C   0  0  0  0  0  3  0  0  0  0  0  0
  -21.0230   -5.9740   24.9690 C   0  0  0  0  0  3  0  0  0  0  0  0
  -21.3580   -4.6080   24.9140 C   0  0  0  0  0  0  0  0  0  0  0  0
  -21.8150   -4.0400   23.7110 C   0  0  0  0  0  3  0  0  0  0  0  0
  -21.9340   -4.8390   22.5610 C   0  0  0  0  0  0  0  0  0  0  0  0
  -22.3520   -4.2830   21.3970 F   0  0  0  0  0  0  0  0  0  0  0  0
  -21.2360   -3.8370   26.0200 F   0  0  0  0  0  0  0  0  0  0  0  0
  -22.7610  -13.5690   21.1130 C   0  0  0  0  0  0  0  0  0  0  0  0
  -22.0400  -12.8730   21.9840 N   0  0  0  0  0  0  0  0  0  0  0  0
  -22.3170  -14.5970   20.6010 O   0  0  0  0  0  0  0  0  0  0  0  0
  -22.4080  -12.0460   22.4270 H   0  0  0  0  0  0  0  0  0  0  0  0
  -21.1040  -13.1770   22.2160 H   0  0  0  0  0  0  0  0  0  0  0  0
  -25.3730  -15.2410   20.2730 N   0  0  0  0  0  0  0  0  0  0  0  0
  -24.5990  -15.8830   20.4190 H   0  0  0  0  0  0  0  0  0  0  0  0
  -26.2190  -15.6990   19.9540 H   0  0  0  0  0  0  0  0  0  0  0  0
  1 59  1  0
  1 12  1  0
  2  7  2  0
  2  5  1  0
  3  2  1  0
  4  5  1  0
  5  1  1  0
  6  8  1  0
  6  3  1  0
  6  4  1  0
  8  9  1  0
 10  8  1  0
 11  8  1  0
 12 15  1  0
 12 14  1  0
 12 13  1  0
 16 17  1  0
 16 15  1  0
 18 17  1  0
 19 30  2  0
 20 18  1  0
 20 25  1  0
 21 29  1  0
 21 31  1  0
 22 28  1  0
 22 24  1  0
 23 29  1  0
 24 25  2  0
 24 23  1  0
 26 20  2  0
 27 26  1  0
 27 22  2  0
 28 21  1  0
 29 19  1  0
 31 33  2  0
 32 31  1  0
 34 32  1  0
 35 44  2  0
 35 40  1  0
 36 32  1  0
 36 40  1  0
 37 36  1  0
 38 39  1  0
 38 37  1  0
 39 35  1  0
 40 41  2  0
 41 42  1  0
 43 42  2  0
 44 43  1  0
 45 19  1  0
 45 50  1  0
 45 46  1  0
 46 49  1  1
 46 47  1  0
 48 46  1  0
 50 53  1  0
 51 55  1  0
 51 50  1  0
 52 51  2  0
 55 54  1  0
 57 55  1  0
 57 58  1  0
 57 56  1  0
 59 60  2  0
 60 61  1  0
 62 70  1  0
 63 68  1  0
 64 65  1  0
 64 63  1  0
 66 65  1  0
 66 75  1  0
 66 67  1  0
 68 62  1  0
 68 67  1  0
 69 62  2  0
 70 61  1  0
 70 71  1  0
 72 73  2  0
 73 92  1  0
 74 73  1  0
 74 77  1  0
 75 72  1  0
 75 76  1  0
 76 74  2  0
 77 78  1  0
 78 79  2  0
 80 83  1  0
 80 79  1  0
 81 80  2  0
 82 81  1  0
 82 77  2  0
 83 84  1  0
 84 85  1  0
 85 86  2  0
 87 86  1  0
 87 91  1  0
 88 87  2  0
 89 84  2  0
 89 88  1  0
 90 89  1  0
 92 93  1  0
 93 96  1  0
 93 95  1  0
 94 92  2  0
 97 98  1  0
 97 72  1  0
 99 97  1  0
M  ISO  4  17 101  18 101  62 100  70 100
M  END
>  <TORSDO>  (64) 
F 25

>  <SCORE>  (64) 
-12.696

>  <name>  (64) 
66

>  <ligand_id>  (64) 
66

>  <original_smiles>  (64) 
[H]c1c([H])c([H])c2c(c1[H])C([H])([H])C([H])([H])C([H])([H])C2([H])N([H])C(=O)C1([H])N(C(=O)C([H])(N([H])C(=O)C([H])(N([H])C([H])([H])[H])C([H])([H])[H])C(C([H])([H])[H])(C([H])([H])[H])C([H])([H])[H])C([H])([H])c2c([H])c(OC([H])([H])C([H])([H])C([H])([H])[N+]([H])([H])C([H])(C([H])([H])C([H])([H])C([H])([H])N([H])C(=O)N3C([H])([H])C([H])([H])C([H])([H])C([H])(n4nc(-c5c([H])c([H])c(Oc6c([H])c([H])c(F)c([H])c6F)c([H])c5[H])c(C(=O)N([H])[H])c4N([H])[H])C3([H])[H])C3([H])C(=O)C([H])([H])C([H])([N+]([H])([H])[H])C3([H])[H])c([H])c([H])c2C1([H])[H]

>  <smiles>  (64) 
[H]c1c([H])c([H])c2c(c1[H])C([H])([H])C([H])([H])C([H])([H])C2([H])N([H])C(=O)C1([H])N(C(=O)C([H])(N([H])C(=O)C([H])(N([H])C([H])([H])[H])C([H])([H])[H])C(C([H])([H])[H])(C([H])([H])[H])C([H])([H])[H])C([H])([H])c2c([H])c(OC([H])([H])C([H])([H])C([H])([H])[N+]([H])([H])C([H])(C([H])([H])C([H])([H])C([H])([H])N([H])C(=O)N3C([H])([H])C([H])([H])C([H])([H])C([H])(n4nc(-c5c([H])c([H])c(Oc6c([H])c([H])c(F)c([H])c6F)c([H])c5[H])c(C(=O)N([H])[H])c4N([H])[H])C3([H])[H])C3([H])C(=O)C([H])([H])C([H])([N+]([H])([H])[H])C3([H])[H])c([H])c([H])c2C1([H])[H]

$$$$
67:0:0
     RDKit          3D

 97105  0  0  1  0  0  0  0  0999 V2000
  -28.5850  -18.2330   21.5520 C   0  0  0  0  0  2  0  0  0  0  0  0
  -29.3030  -17.6270   19.2310 C   0  0  0  0  0  2  0  0  0  0  0  0
  -28.8690  -19.7200   21.2370 C   0  0  0  0  0  2  0  0  0  0  0  0
  -29.6280  -19.1090   18.9650 C   0  0  0  0  0  2  0  0  0  0  0  0
  -29.4540  -17.2590   20.7220 C   0  0  0  0  0  3  0  0  0  0  0  0
  -28.7740  -20.0140   19.7810 N   0  0  2  0  0  4  0  0  0  0  0  0
  -27.8130  -19.8380   19.5240 H   0  0  0  0  0  0  0  0  0  0  0  0
  -30.9300  -17.1980   21.1750 C   0  0  0  0  0  0  0  0  0  0  0  0
  -31.3140  -17.7740   22.1950 O   0  0  0  0  0  0  0  0  0  0  0  0
  -31.9050  -16.3660   20.3180 C   0  0  0  0  0  3  0  0  0  0  0  0
  -33.0700  -18.4150   19.2160 C   0  0  0  0  0  1  0  0  0  0  0  0
  -33.2280  -17.1140   20.0210 C   0  0  0  0  0  2  0  0  0  0  0  0
  -32.2120  -15.0010   20.9760 C   0  0  0  0  0  2  0  0  0  0  0  0
  -31.2360  -13.1210   19.6710 C   0  0  0  0  0  0  0  0  0  0  0  0
  -30.7590  -10.7470   19.2510 C   0  0  0  0  0  2  0  0  0  0  0  0
  -29.7630  -10.4700   18.1170 C   0  0  0  0  0  2  0  0  0  0  0  0
  -28.3210  -10.5160   18.6440 C   0  0  0  0  0  2  0  0  0  0  0  0
  -28.0270  -11.8090   19.4440 C   0  0  0  0  0  3  0  0  0  0  0  0
  -29.1160  -12.0690   20.5080 C   0  0  0  0  0  2  0  0  0  0  0  0
  -30.4430  -12.0430   19.8620 N   0  0  0  0  0  0  0  0  0  0  0  0
  -32.0760  -13.2160   18.7710 O   0  0  0  0  0  0  0  0  0  0  0  0
  -31.2140  -13.9680   20.7020 N   0  0  0  0  0  0  0  0  0  0  0  0
  -30.5640  -13.7410   21.4450 H   0  0  0  0  0  0  0  0  0  0  0  0
  -25.8560  -12.8140   20.4010 C   0  0  0  0  0  0  0  0  0  0  0  0
  -24.6940  -12.2340   20.8350 C   0  0  0  0  0  0  0  0  0  0  0  0
  -24.8830  -10.8250   20.7010 C   0  0  0  0  0  0  0  0  0  0  0  0
  -26.6910  -11.7680   20.0360 N   0  0  0  0  0  0  0  0  0  0  0  0
  -26.1100  -10.5620   20.2710 N   0  0  0  0  0  0  0  0  0  0  0  0
  -23.9470   -9.7100   20.9050 C   0  0  0  0  0  0  0  0  0  0  0  0
  -24.1850   -8.7120   21.8760 C   0  0  0  0  0  3  0  0  0  0  0  0
  -23.2620   -7.6620   22.0650 C   0  0  0  0  0  3  0  0  0  0  0  0
  -22.0850   -7.6000   21.2820 C   0  0  0  0  0  0  0  0  0  0  0  0
  -21.8620   -8.5840   20.3010 C   0  0  0  0  0  3  0  0  0  0  0  0
  -22.7850   -9.6260   20.1100 C   0  0  0  0  0  3  0  0  0  0  0  0
  -21.1450   -6.6030   21.3780 O   0  0  0  0  0  0  0  0  0  0  0  0
  -20.8910   -5.9660   22.5670 C   0  0  0  0  0  0  0  0  0  0  0  0
  -20.4170   -6.6620   23.6990 C   0  0  0  0  0  3  0  0  0  0  0  0
  -20.1010   -5.9580   24.8780 C   0  0  0  0  0  3  0  0  0  0  0  0
  -20.2500   -4.5590   24.9240 C   0  0  0  0  0  0  0  0  0  0  0  0
  -20.7170   -3.8630   23.7960 C   0  0  0  0  0  3  0  0  0  0  0  0
  -21.0330   -4.5650   22.6190 C   0  0  0  0  0  0  0  0  0  0  0  0
  -21.4630   -3.8860   21.5280 F   0  0  0  0  0  0  0  0  0  0  0  0
  -19.9410   -3.8810   26.0550 F   0  0  0  0  0  0  0  0  0  0  0  0
  -23.4420  -12.9460   21.2600 C   0  0  0  0  0  0  0  0  0  0  0  0
  -22.6680  -12.3440   22.1560 N   0  0  0  0  0  0  0  0  0  0  0  0
  -23.1680  -14.0670   20.8330 O   0  0  0  0  0  0  0  0  0  0  0  0
  -22.9020  -11.4330   22.5220 H   0  0  0  0  0  0  0  0  0  0  0  0
  -21.8270  -12.8020   22.4820 H   0  0  0  0  0  0  0  0  0  0  0  0
  -26.2660  -14.1370   20.2650 N   0  0  0  0  0  0  0  0  0  0  0  0
  -25.6420  -14.9150   20.4480 H   0  0  0  0  0  0  0  0  0  0  0  0
  -27.1400  -14.4200   19.8410 H   0  0  0  0  0  0  0  0  0  0  0  0
  -29.0290  -21.4470   19.4830 C   0  0  0  0  0  2  0  0  0  0  0  0
  -28.6860  -21.8330   18.0240 C   0  0  0  0  0  2  0  0  0  0  0  0
  -29.6060  -22.9220   17.4410 C   0  0  0  0  0  2  0  0  0  0  0  0
  -28.8990  -23.7520   16.3590 C   0  0  0  0  0  2  0  0  0  0  0  0
  -29.6470  -25.0380   15.9620 C   0  0  0  0  0  2  0  0  0  0  0  0
  -28.8340  -25.8770   15.1410 O   0  0  0  0  0  0  0  0  0  0  0  0
  -25.5010  -27.4550   21.2210 C   0  0  0  0  0  0  0  0  0  0  0  0
  -27.7020  -26.3470   15.7550 C   0  0  0  0  0  0  0  0  0  0  0  0
  -24.0950  -27.4480   19.1850 C   0  0  0  0  0  3  0  0  0  0  0  0
  -25.3570  -27.3220   16.9720 C   0  0  0  0  0  0  0  0  0  0  0  0
  -26.5900  -27.9800   19.0450 C   0  0  0  0  0  2  0  0  0  0  0  0
  -26.5780  -27.3820   17.6550 C   0  0  0  0  0  0  0  0  0  0  0  0
  -27.7570  -26.8950   17.0530 C   0  0  0  0  0  3  0  0  0  0  0  0
  -26.4710  -26.3040   15.0680 C   0  0  0  0  0  3  0  0  0  0  0  0
  -25.2940  -26.7770   15.6780 C   0  0  0  0  0  3  0  0  0  0  0  0
  -24.1440  -27.8670   17.6900 C   0  0  0  0  0  2  0  0  0  0  0  0
  -25.4200  -27.5970   19.8680 N   0  0  0  0  0  0  0  0  0  0  0  0
  -24.4890  -27.2440   21.9050 O   0  0  0  0  0  0  0  0  0  0  0  0
  -23.5200  -26.0170   19.2740 C   0  0  0  0  0  0  0  0  0  0  0  0
  -22.2080  -25.8870   19.0220 N   0  0  0  0  0  0  0  0  0  0  0  0
  -24.2480  -25.0570   19.5360 O   0  0  0  0  0  0  0  0  0  0  0  0
  -21.6790  -26.7240   18.8190 H   0  0  0  0  0  0  0  0  0  0  0  0
  -18.9670  -24.4420   18.3410 C   0  0  0  0  0  0  0  0  0  0  0  0
  -21.4560  -24.6330   19.0080 C   0  0  0  0  0  3  0  0  0  0  0  0
  -21.7570  -23.8150   17.7300 C   0  0  0  0  0  2  0  0  0  0  0  0
  -20.7630  -24.0860   16.5960 C   0  0  0  0  0  2  0  0  0  0  0  0
  -19.3360  -23.7530   17.0400 C   0  0  0  0  0  2  0  0  0  0  0  0
  -19.9630  -24.8710   19.2580 C   0  0  0  0  0  0  0  0  0  0  0  0
  -19.5680  -25.5410   20.4370 C   0  0  0  0  0  3  0  0  0  0  0  0
  -18.2070  -25.7800   20.7080 C   0  0  0  0  0  3  0  0  0  0  0  0
  -17.2240  -25.3420   19.8030 C   0  0  0  0  0  3  0  0  0  0  0  0
  -17.6050  -24.6690   18.6280 C   0  0  0  0  0  3  0  0  0  0  0  0
  -26.8610  -27.5730   21.9770 C   0  0  0  0  0  3  0  0  0  0  0  0
  -27.5850  -26.1860   22.1810 C   0  0  1  0  0  0  0  0  0  0  0  0
  -26.6810  -25.0970   22.8010 C   0  0  0  0  0  1  0  0  0  0  0  0
  -28.1130  -25.6460   20.8310 C   0  0  0  0  0  1  0  0  0  0  0  0
  -28.8180  -26.3660   23.0970 C   0  0  0  0  0  1  0  0  0  0  0  0
  -26.5940  -28.2180   23.2690 N   0  0  0  0  0  0  0  0  0  0  0  0
  -26.9170  -29.4840   23.5670 C   0  0  0  0  0  0  0  0  0  0  0  0
  -27.5410  -30.2160   22.7940 O   0  0  0  0  0  0  0  0  0  0  0  0
  -26.0390  -27.6950   23.9300 H   0  0  0  0  0  0  0  0  0  0  0  0
  -25.2550  -30.9450   24.7640 C   0  0  0  0  0  1  0  0  0  0  0  0
  -26.4730  -30.0250   24.9400 C   0  0  0  0  0  3  0  0  0  0  0  0
  -28.6240  -29.8780   26.1130 C   0  0  0  0  0  1  0  0  0  0  0  0
  -27.5420  -30.7490   25.6610 N   0  0  0  0  0  0  0  0  0  0  0  0
  -27.1660  -31.2310   26.4740 H   0  0  0  0  0  0  0  0  0  0  0  0
  2  5  1  0
  3  1  1  0
  4  2  1  0
  4  6  1  0
  5  8  1  0
  5  1  1  0
  6  3  1  0
  6  7  1  6
  8  9  2  0
 10 12  1  0
 10 13  1  0
 10  8  1  0
 11 12  1  0
 14 20  1  0
 14 22  1  0
 15 20  1  0
 16 17  1  0
 16 15  1  0
 18 17  1  0
 18 27  1  0
 18 19  1  0
 20 19  1  0
 21 14  2  0
 22 13  1  0
 22 23  1  0
 24 25  2  0
 25 44  1  0
 26 25  1  0
 26 29  1  0
 27 28  1  0
 27 24  1  0
 28 26  2  0
 29 30  1  0
 30 31  2  0
 32 35  1  0
 32 31  1  0
 33 32  2  0
 34 33  1  0
 34 29  2  0
 35 36  1  0
 36 41  2  0
 36 37  1  0
 37 38  2  0
 38 39  1  0
 39 43  1  0
 40 39  2  0
 41 40  1  0
 42 41  1  0
 44 45  1  0
 45 48  1  0
 45 47  1  0
 46 44  2  0
 49 24  1  0
 49 50  1  0
 51 49  1  0
 52  6  1  0
 53 52  1  0
 54 53  1  0
 55 54  1  0
 56 55  1  0
 57 59  1  0
 57 56  1  0
 58 69  2  0
 59 64  1  0
 60 70  1  0
 60 68  1  0
 61 63  1  0
 61 67  1  0
 62 68  1  0
 63 62  1  0
 64 63  2  0
 65 66  1  0
 65 59  2  0
 66 61  2  0
 67 60  1  0
 68 58  1  0
 70 72  2  0
 71 70  1  0
 73 71  1  0
 74 83  2  0
 74 79  1  0
 75 71  1  0
 75 79  1  0
 76 75  1  0
 77 78  1  0
 77 76  1  0
 78 74  1  0
 79 80  2  0
 80 81  1  0
 82 81  2  0
 83 82  1  0
 84 58  1  0
 84 85  1  0
 84 89  1  0
 85 86  1  1
 85 88  1  0
 87 85  1  0
 89 90  1  0
 89 92  1  0
 90 94  1  0
 91 90  2  0
 94 93  1  0
 94 96  1  0
 96 95  1  0
 96 97  1  0
M  ISO  4  14 100  22 100  56 101  57 101
M  END
>  <TORSDO>  (65) 
F 25

>  <SCORE>  (65) 
-4.939

>  <name>  (65) 
67

>  <ligand_id>  (65) 
67

>  <original_smiles>  (65) 
[H]c1c([H])c([H])c2c(c1[H])C([H])([H])C([H])([H])C([H])([H])C2([H])N([H])C(=O)C1([H])N(C(=O)C([H])(N([H])C(=O)C([H])(N([H])C([H])([H])[H])C([H])([H])[H])C(C([H])([H])[H])(C([H])([H])[H])C([H])([H])[H])C([H])([H])c2c([H])c(OC([H])([H])C([H])([H])C([H])([H])C([H])([H])C([H])([H])[N+]3([H])C([H])([H])C([H])([H])C([H])(C(=O)C([H])(C([H])([H])N([H])C(=O)N4C([H])([H])C([H])([H])C([H])([H])C([H])(n5nc(-c6c([H])c([H])c(Oc7c([H])c([H])c(F)c([H])c7F)c([H])c6[H])c(C(=O)N([H])[H])c5N([H])[H])C4([H])[H])C([H])([H])C([H])([H])[H])C([H])([H])C3([H])[H])c([H])c([H])c2C1([H])[H]

>  <smiles>  (65) 
[H]c1c([H])c([H])c2c(c1[H])C([H])([H])C([H])([H])C([H])([H])C2([H])N([H])C(=O)C1([H])N(C(=O)C([H])(N([H])C(=O)C([H])(N([H])C([H])([H])[H])C([H])([H])[H])C(C([H])([H])[H])(C([H])([H])[H])C([H])([H])[H])C([H])([H])c2c([H])c(OC([H])([H])C([H])([H])C([H])([H])C([H])([H])C([H])([H])[N+]3([H])C([H])([H])C([H])([H])C([H])(C(=O)C([H])(C([H])([H])N([H])C(=O)N4C([H])([H])C([H])([H])C([H])([H])C([H])(n5nc(-c6c([H])c([H])c(Oc7c([H])c([H])c(F)c([H])c7F)c([H])c6[H])c(C(=O)N([H])[H])c5N([H])[H])C4([H])[H])C([H])([H])C([H])([H])[H])C([H])([H])C3([H])[H])c([H])c([H])c2C1([H])[H]

$$$$
68:0:0
     RDKit          3D

 96104  0  0  1  0  0  0  0  0999 V2000
  -26.9510  -20.5980   20.0240 C   0  0  0  0  0  2  0  0  0  0  0  0
  -27.8050  -18.2600   20.3680 C   0  0  0  0  0  1  0  0  0  0  0  0
  -28.0490  -19.5780   19.6070 C   0  0  0  0  0  3  0  0  0  0  0  0
  -29.5680  -21.3790   20.6380 C   0  0  0  0  0  1  0  0  0  0  0  0
  -29.5020  -20.1110   19.7660 C   0  0  0  0  0  3  0  0  0  0  0  0
  -30.4070  -17.7030   20.2350 C   0  0  0  0  0  3  0  0  0  0  0  0
  -30.5660  -19.0500   20.1140 C   0  0  0  0  0  3  0  0  0  0  0  0
  -32.3070  -14.6500   18.9860 C   0  0  0  0  0  0  0  0  0  0  0  0
  -31.7170  -12.2920   18.4990 C   0  0  0  0  0  2  0  0  0  0  0  0
  -30.6480  -12.1670   17.3940 C   0  0  0  0  0  2  0  0  0  0  0  0
  -29.2370  -12.2360   18.0050 C   0  0  0  0  0  2  0  0  0  0  0  0
  -29.0750  -13.4270   18.9830 C   0  0  0  0  0  3  0  0  0  0  0  0
  -30.2450  -13.5040   19.9780 C   0  0  0  0  0  2  0  0  0  0  0  0
  -31.4900  -13.5760   19.2030 N   0  0  0  0  0  0  0  0  0  0  0  0
  -33.3890  -14.4560   18.4190 O   0  0  0  0  0  0  0  0  0  0  0  0
  -32.8760  -17.2030   20.8250 C   0  0  0  0  0  2  0  0  0  0  0  0
  -33.5490  -17.5640   19.4950 C   0  0  0  0  0  2  0  0  0  0  0  0
  -31.5100  -16.6200   20.4120 C   0  0  0  0  0  3  0  0  0  0  0  0
  -32.5480  -17.0700   18.4380 C   0  0  0  0  0  3  0  0  0  0  0  0
  -33.1480  -16.8540   17.0300 C   0  0  0  0  0  1  0  0  0  0  0  0
  -31.8360  -15.9430   19.1200 N   0  0  0  0  0  0  0  0  0  0  0  0
  -27.0560  -14.4170   20.2100 C   0  0  0  0  0  0  0  0  0  0  0  0
  -25.9100  -13.8510   20.6970 C   0  0  0  0  0  0  0  0  0  0  0  0
  -26.0130  -12.4540   20.4210 C   0  0  0  0  0  0  0  0  0  0  0  0
  -27.7970  -13.3740   19.6830 N   0  0  0  0  0  0  0  0  0  0  0  0
  -27.1850  -12.1780   19.8640 N   0  0  0  0  0  0  0  0  0  0  0  0
  -25.0380  -11.3700   20.6010 C   0  0  0  0  0  0  0  0  0  0  0  0
  -25.3060  -10.2700   21.4440 C   0  0  0  0  0  3  0  0  0  0  0  0
  -24.3440   -9.2530   21.6210 C   0  0  0  0  0  3  0  0  0  0  0  0
  -23.1000   -9.3310   20.9520 C   0  0  0  0  0  0  0  0  0  0  0  0
  -22.8460  -10.4160   20.0950 C   0  0  0  0  0  3  0  0  0  0  0  0
  -23.8050  -11.4270   19.9170 C   0  0  0  0  0  3  0  0  0  0  0  0
  -22.1170   -8.3750   21.0410 O   0  0  0  0  0  0  0  0  0  0  0  0
  -21.9070   -7.6630   22.1950 C   0  0  0  0  0  0  0  0  0  0  0  0
  -21.5800   -8.2980   23.4130 C   0  0  0  0  0  3  0  0  0  0  0  0
  -21.3040   -7.5260   24.5590 C   0  0  0  0  0  3  0  0  0  0  0  0
  -21.3440   -6.1210   24.4860 C   0  0  0  0  0  0  0  0  0  0  0  0
  -21.6630   -5.4860   23.2730 C   0  0  0  0  0  3  0  0  0  0  0  0
  -21.9400   -6.2560   22.1300 C   0  0  0  0  0  0  0  0  0  0  0  0
  -22.2280   -5.6400   20.9580 F   0  0  0  0  0  0  0  0  0  0  0  0
  -21.0700   -5.3770   25.5840 F   0  0  0  0  0  0  0  0  0  0  0  0
  -24.7400  -14.5770   21.2920 C   0  0  0  0  0  0  0  0  0  0  0  0
  -24.0500  -13.9560   22.2440 N   0  0  0  0  0  0  0  0  0  0  0  0
  -24.4570  -15.7230   20.9460 O   0  0  0  0  0  0  0  0  0  0  0  0
  -24.2840  -13.0200   22.5370 H   0  0  0  0  0  0  0  0  0  0  0  0
  -23.2780  -14.4280   22.6920 H   0  0  0  0  0  0  0  0  0  0  0  0
  -27.5230  -15.7230   20.1440 N   0  0  0  0  0  0  0  0  0  0  0  0
  -26.9980  -16.5090   20.5100 H   0  0  0  0  0  0  0  0  0  0  0  0
  -28.3900  -16.0030   19.7020 H   0  0  0  0  0  0  0  0  0  0  0  0
  -27.1320  -22.0100   19.4750 C   0  0  0  0  0  0  0  0  0  0  0  0
  -27.2730  -22.2070   18.2660 O   0  0  0  0  0  0  0  0  0  0  0  0
  -27.0740  -23.1640   20.4780 C   0  0  0  0  0  2  0  0  0  0  0  0
  -28.0080  -24.3370   20.1250 C   0  0  0  0  0  2  0  0  0  0  0  0
  -27.9730  -25.4380   21.1940 C   0  0  0  0  0  2  0  0  0  0  0  0
  -28.7180  -26.7140   20.7630 C   0  0  0  0  0  2  0  0  0  0  0  0
  -28.1850  -27.2100   19.5330 O   0  0  0  0  0  0  0  0  0  0  0  0
  -24.6870  -32.0300   23.3870 C   0  0  0  0  0  0  0  0  0  0  0  0
  -27.0460  -27.9590   19.6880 C   0  0  0  0  0  0  0  0  0  0  0  0
  -23.3400  -30.8070   21.7040 C   0  0  0  0  0  3  0  0  0  0  0  0
  -24.6690  -29.4250   20.0230 C   0  0  0  0  0  0  0  0  0  0  0  0
  -25.8410  -31.1960   21.3520 C   0  0  0  0  0  2  0  0  0  0  0  0
  -25.8650  -29.8980   20.5750 C   0  0  0  0  0  0  0  0  0  0  0  0
  -27.0620  -29.1700   20.4120 C   0  0  0  0  0  3  0  0  0  0  0  0
  -25.8430  -27.4910   19.1270 C   0  0  0  0  0  3  0  0  0  0  0  0
  -24.6470  -28.2200   19.2950 C   0  0  0  0  0  3  0  0  0  0  0  0
  -23.4340  -30.2670   20.2510 C   0  0  0  0  0  2  0  0  0  0  0  0
  -24.6440  -31.3520   22.2080 N   0  0  0  0  0  0  0  0  0  0  0  0
  -23.6560  -32.2440   24.0390 O   0  0  0  0  0  0  0  0  0  0  0  0
  -22.7540  -29.6980   22.6070 C   0  0  0  0  0  0  0  0  0  0  0  0
  -21.4350  -29.4760   22.4910 N   0  0  0  0  0  0  0  0  0  0  0  0
  -23.4820  -29.0450   23.3610 O   0  0  0  0  0  0  0  0  0  0  0  0
  -20.9140  -30.0560   21.8490 H   0  0  0  0  0  0  0  0  0  0  0  0
  -18.1390  -28.0440   22.8680 C   0  0  0  0  0  0  0  0  0  0  0  0
  -20.6690  -28.4560   23.2060 C   0  0  0  0  0  3  0  0  0  0  0  0
  -20.8830  -27.0620   22.5800 C   0  0  0  0  0  2  0  0  0  0  0  0
  -19.8260  -26.7110   21.5290 C   0  0  0  0  0  2  0  0  0  0  0  0
  -18.4220  -26.7410   22.1370 C   0  0  0  0  0  2  0  0  0  0  0  0
  -19.1970  -28.8590   23.3540 C   0  0  0  0  0  0  0  0  0  0  0  0
  -18.8810  -30.0810   23.9890 C   0  0  0  0  0  3  0  0  0  0  0  0
  -17.5430  -30.4890   24.1430 C   0  0  0  0  0  3  0  0  0  0  0  0
  -16.5030  -29.6710   23.6730 C   0  0  0  0  0  3  0  0  0  0  0  0
  -16.8010  -28.4470   23.0430 C   0  0  0  0  0  3  0  0  0  0  0  0
  -26.0300  -32.5840   23.9690 C   0  0  0  0  0  3  0  0  0  0  0  0
  -25.8030  -33.9820   24.3550 N   0  0  0  0  0  0  0  0  0  0  0  0
  -26.1700  -35.0420   23.6240 C   0  0  0  0  0  0  0  0  0  0  0  0
  -26.8060  -34.9440   22.5730 O   0  0  0  0  0  0  0  0  0  0  0  0
  -25.2430  -34.1400   25.1790 H   0  0  0  0  0  0  0  0  0  0  0  0
  -24.5160  -36.9180   23.3890 C   0  0  0  0  0  1  0  0  0  0  0  0
  -25.7640  -36.4350   24.1430 C   0  0  0  0  0  3  0  0  0  0  0  0
  -27.9640  -37.1940   24.9230 C   0  0  0  0  0  1  0  0  0  0  0  0
  -26.8390  -37.4430   24.0270 N   0  0  0  0  0  0  0  0  0  0  0  0
  -26.4820  -38.3770   24.2120 H   0  0  0  0  0  0  0  0  0  0  0  0
  -26.5760  -31.7470   25.1890 C   0  0  1  0  0  0  0  0  0  0  0  0
  -25.5250  -31.5170   26.3000 C   0  0  0  0  0  1  0  0  0  0  0  0
  -27.0820  -30.3630   24.7190 C   0  0  0  0  0  1  0  0  0  0  0  0
  -27.7930  -32.4670   25.8180 C   0  0  0  0  0  1  0  0  0  0  0  0
  3  5  1  0
  3  1  1  0
  3  2  1  0
  5  7  1  0
  5  4  1  0
  7  6  2  0
  8 21  1  0
  8 14  1  0
  9 14  1  0
 10 11  1  0
 10  9  1  0
 12 11  1  0
 12 25  1  0
 12 13  1  0
 14 13  1  0
 15  8  2  0
 17 16  1  0
 18  6  1  0
 18 16  1  0
 19 20  1  0
 19 21  1  0
 19 17  1  0
 21 18  1  0
 22 23  2  0
 23 42  1  0
 24 27  1  0
 24 23  1  0
 25 26  1  0
 25 22  1  0
 26 24  2  0
 27 28  1  0
 28 29  2  0
 30 33  1  0
 30 29  1  0
 31 30  2  0
 32 31  1  0
 32 27  2  0
 33 34  1  0
 34 35  1  0
 35 36  2  0
 37 36  1  0
 37 41  1  0
 38 37  2  0
 39 34  2  0
 39 38  1  0
 40 39  1  0
 42 43  1  0
 43 45  1  0
 43 46  1  0
 44 42  2  0
 47 22  1  0
 47 48  1  0
 49 47  1  0
 50  1  1  0
 50 52  1  0
 51 50  2  0
 53 52  1  0
 53 54  1  0
 55 54  1  0
 56 58  1  0
 56 55  1  0
 57 68  2  0
 58 63  1  0
 59 67  1  0
 59 69  1  0
 60 66  1  0
 60 62  1  0
 61 67  1  0
 62 61  1  0
 63 62  2  0
 64 65  1  0
 64 58  2  0
 65 60  2  0
 66 59  1  0
 67 57  1  0
 69 71  2  0
 70 69  1  0
 72 70  1  0
 73 82  2  0
 73 78  1  0
 74 70  1  0
 74 78  1  0
 75 74  1  0
 76 77  1  0
 76 75  1  0
 77 73  1  0
 78 79  2  0
 79 80  1  0
 81 80  2  0
 82 81  1  0
 83 57  1  0
 83 84  1  0
 83 93  1  0
 84 87  1  0
 85 89  1  0
 85 84  1  0
 86 85  2  0
 89 88  1  0
 91 89  1  0
 91 92  1  0
 91 90  1  0
 93 96  1  1
 93 94  1  0
 95 93  1  0
M  ISO  4   8 100  21 100  55 101  56 101
M  END
>  <TORSDO>  (66) 
F 24

>  <SCORE>  (66) 
-9.044

>  <name>  (66) 
68

>  <ligand_id>  (66) 
68

>  <original_smiles>  (66) 
[H]C(=C([H])C([H])(C([H])([H])[H])C([H])(C([H])([H])[H])C([H])([H])C(=O)C([H])([H])C([H])([H])C([H])([H])C([H])([H])Oc1c([H])c([H])c2c(c1[H])C([H])([H])N(C(=O)C([H])(N([H])C(=O)C([H])(N([H])C([H])([H])[H])C([H])([H])[H])C(C([H])([H])[H])(C([H])([H])[H])C([H])([H])[H])C([H])(C(=O)N([H])C1([H])c3c([H])c([H])c([H])c([H])c3C([H])([H])C([H])([H])C1([H])[H])C2([H])[H])C1([H])N(C(=O)N2C([H])([H])C([H])([H])C([H])([H])C([H])(n3nc(-c4c([H])c([H])c(Oc5c([H])c([H])c(F)c([H])c5F)c([H])c4[H])c(C(=O)N([H])[H])c3N([H])[H])C2([H])[H])C([H])(C([H])([H])[H])C([H])([H])C1([H])[H]

>  <smiles>  (66) 
[H]C(=C([H])C([H])(C([H])([H])[H])C([H])(C([H])([H])[H])C([H])([H])C(=O)C([H])([H])C([H])([H])C([H])([H])C([H])([H])Oc1c([H])c([H])c2c(c1[H])C([H])([H])N(C(=O)C([H])(N([H])C(=O)C([H])(N([H])C([H])([H])[H])C([H])([H])[H])C(C([H])([H])[H])(C([H])([H])[H])C([H])([H])[H])C([H])(C(=O)N([H])C1([H])c3c([H])c([H])c([H])c([H])c3C([H])([H])C([H])([H])C1([H])[H])C2([H])[H])C1([H])N(C(=O)N2C([H])([H])C([H])([H])C([H])([H])C([H])(n3nc(-c4c([H])c([H])c(Oc5c([H])c([H])c(F)c([H])c5F)c([H])c4[H])c(C(=O)N([H])[H])c3N([H])[H])C2([H])[H])C([H])(C([H])([H])[H])C([H])([H])C1([H])[H]

$$$$
69:0:0
     RDKit          3D

 99107  0  0  1  0  0  0  0  0999 V2000
  -27.4670  -20.3180   16.0270 C   0  0  0  0  0  1  0  0  0  0  0  0
  -27.8970  -20.2770   17.5050 C   0  0  0  0  0  3  0  0  0  0  0  0
  -28.0850  -21.7100   18.0500 C   0  0  0  0  0  0  0  0  0  0  0  0
  -27.2590  -22.2190   18.8100 O   0  0  0  0  0  0  0  0  0  0  0  0
  -29.3430  -22.4820   17.6270 C   0  0  0  0  0  2  0  0  0  0  0  0
  -29.0520  -23.7740   16.8310 C   0  0  0  0  0  2  0  0  0  0  0  0
  -28.6160  -24.9950   17.6690 C   0  0  0  0  0  2  0  0  0  0  0  0
  -29.7640  -25.7070   18.4100 C   0  0  0  0  0  2  0  0  0  0  0  0
  -29.3180  -27.0110   19.0960 C   0  0  0  0  0  2  0  0  0  0  0  0
  -28.4930  -26.7230   20.2250 O   0  0  0  0  0  0  0  0  0  0  0  0
  -24.5870  -31.8530   23.2590 C   0  0  0  0  0  0  0  0  0  0  0  0
  -27.3210  -27.4330   20.2510 C   0  0  0  0  0  0  0  0  0  0  0  0
  -23.4160  -30.4290   21.6070 C   0  0  0  0  0  3  0  0  0  0  0  0
  -24.9060  -28.8850   20.2280 C   0  0  0  0  0  0  0  0  0  0  0  0
  -25.9390  -30.8070   21.4540 C   0  0  0  0  0  2  0  0  0  0  0  0
  -26.0480  -29.4310   20.8330 C   0  0  0  0  0  0  0  0  0  0  0  0
  -27.2580  -28.7100   20.8480 C   0  0  0  0  0  3  0  0  0  0  0  0
  -26.1640  -26.8830   19.6670 C   0  0  0  0  0  3  0  0  0  0  0  0
  -24.9570  -27.6060   19.6480 C   0  0  0  0  0  3  0  0  0  0  0  0
  -23.6540  -29.7290   20.2410 C   0  0  0  0  0  2  0  0  0  0  0  0
  -24.6630  -31.0440   22.1660 N   0  0  0  0  0  0  0  0  0  0  0  0
  -23.4950  -32.1260   23.7780 O   0  0  0  0  0  0  0  0  0  0  0  0
  -22.7510  -29.4160   22.5650 C   0  0  0  0  0  0  0  0  0  0  0  0
  -21.4250  -29.2480   22.4300 N   0  0  0  0  0  0  0  0  0  0  0  0
  -23.4230  -28.7850   23.3850 O   0  0  0  0  0  0  0  0  0  0  0  0
  -20.9440  -29.8100   21.7410 H   0  0  0  0  0  0  0  0  0  0  0  0
  -18.0310  -28.1180   22.9290 C   0  0  0  0  0  0  0  0  0  0  0  0
  -20.5940  -28.3180   23.1940 C   0  0  0  0  0  3  0  0  0  0  0  0
  -20.6640  -26.8920   22.6020 C   0  0  0  0  0  2  0  0  0  0  0  0
  -19.5520  -26.6030   21.5890 C   0  0  0  0  0  2  0  0  0  0  0  0
  -18.1760  -26.7720   22.2410 C   0  0  0  0  0  2  0  0  0  0  0  0
  -19.1680  -28.8520   23.3630 C   0  0  0  0  0  0  0  0  0  0  0  0
  -18.9800  -30.1140   23.9660 C   0  0  0  0  0  3  0  0  0  0  0  0
  -17.6870  -30.6430   24.1400 C   0  0  0  0  0  3  0  0  0  0  0  0
  -16.5650  -29.9060   23.7240 C   0  0  0  0  0  3  0  0  0  0  0  0
  -16.7370  -28.6450   23.1250 C   0  0  0  0  0  3  0  0  0  0  0  0
  -25.8600  -32.4910   23.8990 C   0  0  0  0  0  3  0  0  0  0  0  0
  -26.3490  -31.7390   25.1980 C   0  0  1  0  0  0  0  0  0  0  0  0
  -25.2330  -31.5180   26.2440 C   0  0  0  0  0  1  0  0  0  0  0  0
  -26.9410  -30.3570   24.8390 C   0  0  0  0  0  1  0  0  0  0  0  0
  -27.4880  -32.5410   25.8710 C   0  0  0  0  0  1  0  0  0  0  0  0
  -25.5480  -33.8950   24.1960 N   0  0  0  0  0  0  0  0  0  0  0  0
  -25.9020  -34.9310   23.4250 C   0  0  0  0  0  0  0  0  0  0  0  0
  -26.5960  -34.8060   22.4110 O   0  0  0  0  0  0  0  0  0  0  0  0
  -24.9360  -34.0670   24.9800 H   0  0  0  0  0  0  0  0  0  0  0  0
  -24.1920  -36.7200   22.9850 C   0  0  0  0  0  1  0  0  0  0  0  0
  -25.4070  -36.3280   23.8410 C   0  0  0  0  0  3  0  0  0  0  0  0
  -27.5180  -37.2220   24.7220 C   0  0  0  0  0  1  0  0  0  0  0  0
  -26.4470  -37.3770   23.7390 N   0  0  0  0  0  0  0  0  0  0  0  0
  -26.0400  -38.3010   23.8560 H   0  0  0  0  0  0  0  0  0  0  0  0
  -26.8980  -19.4090   18.3240 C   0  0  0  0  0  2  0  0  0  0  0  0
  -27.3590  -18.9730   19.7390 C   0  0  0  0  0  2  0  0  0  0  0  0
  -30.8910  -14.5330   20.3610 C   0  0  0  0  0  0  0  0  0  0  0  0
  -30.6100  -12.3200   19.3410 C   0  0  0  0  0  2  0  0  0  0  0  0
  -29.6420  -12.4340   18.1440 C   0  0  0  0  0  2  0  0  0  0  0  0
  -28.1710  -12.3330   18.6010 C   0  0  0  0  0  2  0  0  0  0  0  0
  -27.8400  -13.2080   19.8380 C   0  0  0  0  0  3  0  0  0  0  0  0
  -28.9220  -13.0680   20.9320 C   0  0  0  0  0  2  0  0  0  0  0  0
  -30.2280  -13.3480   20.3170 N   0  0  0  0  0  0  0  0  0  0  0  0
  -32.0890  -14.6400   20.0930 O   0  0  0  0  0  0  0  0  0  0  0  0
  -29.8860  -16.1730   18.8910 C   0  0  0  0  0  2  0  0  0  0  0  0
  -28.5930  -17.0000   18.7700 C   0  0  0  0  0  2  0  0  0  0  0  0
  -28.7550  -17.5050   21.1540 C   0  0  0  0  0  2  0  0  0  0  0  0
  -30.0830  -16.7050   21.2620 C   0  0  0  0  0  3  0  0  0  0  0  0
  -30.0930  -15.6300   20.2470 N   0  0  0  0  0  0  0  0  0  0  0  0
  -28.5470  -18.0720   19.7940 N   0  0  2  0  0  4  0  0  0  0  0  0
  -29.3450  -18.6580   19.5970 H   0  0  0  0  0  0  0  0  0  0  0  0
  -25.4550  -13.8000   20.5970 C   0  0  0  0  0  0  0  0  0  0  0  0
  -24.3990  -13.0200   20.9780 C   0  0  0  0  0  0  0  0  0  0  0  0
  -24.8700  -11.6730   20.9420 C   0  0  0  0  0  0  0  0  0  0  0  0
  -26.5030  -12.9280   20.3490 N   0  0  0  0  0  0  0  0  0  0  0  0
  -26.1570  -11.6450   20.6210 N   0  0  0  0  0  0  0  0  0  0  0  0
  -24.1570  -10.4070   21.1360 C   0  0  0  0  0  0  0  0  0  0  0  0
  -24.5810   -9.4680   22.1010 C   0  0  0  0  0  3  0  0  0  0  0  0
  -23.8740   -8.2610   22.2830 C   0  0  0  0  0  3  0  0  0  0  0  0
  -22.7280   -7.9860   21.5010 C   0  0  0  0  0  0  0  0  0  0  0  0
  -22.3230   -8.9140   20.5250 C   0  0  0  0  0  3  0  0  0  0  0  0
  -23.0310  -10.1130   20.3420 C   0  0  0  0  0  3  0  0  0  0  0  0
  -21.9920   -6.8300   21.5890 O   0  0  0  0  0  0  0  0  0  0  0  0
  -21.8750   -6.1420   22.7690 C   0  0  0  0  0  0  0  0  0  0  0  0
  -21.3230   -6.7360   23.9260 C   0  0  0  0  0  3  0  0  0  0  0  0
  -21.1600   -5.9730   25.0980 C   0  0  0  0  0  3  0  0  0  0  0  0
  -21.5370   -4.6160   25.1140 C   0  0  0  0  0  0  0  0  0  0  0  0
  -22.0790   -4.0210   23.9610 C   0  0  0  0  0  3  0  0  0  0  0  0
  -22.2450   -4.7830   22.7910 C   0  0  0  0  0  0  0  0  0  0  0  0
  -22.7480   -4.2020   21.6750 F   0  0  0  0  0  0  0  0  0  0  0  0
  -21.3710   -3.8780   26.2370 F   0  0  0  0  0  0  0  0  0  0  0  0
  -22.9990  -13.4860   21.2620 C   0  0  0  0  0  0  0  0  0  0  0  0
  -22.2890  -12.7850   22.1360 N   0  0  0  0  0  0  0  0  0  0  0  0
  -22.5470  -14.5070   20.7440 O   0  0  0  0  0  0  0  0  0  0  0  0
  -22.6670  -11.9610   22.5820 H   0  0  0  0  0  0  0  0  0  0  0  0
  -21.3530  -13.0840   22.3690 H   0  0  0  0  0  0  0  0  0  0  0  0
  -25.5980  -15.1730   20.4120 N   0  0  0  0  0  0  0  0  0  0  0  0
  -24.8110  -15.8010   20.5310 H   0  0  0  0  0  0  0  0  0  0  0  0
  -26.3890  -15.5980   19.9550 H   0  0  0  0  0  0  0  0  0  0  0  0
  -31.3620  -17.6090   21.2310 C   0  0  0  0  0  2  0  0  0  0  0  0
  -31.0370  -18.6380   23.5420 C   0  0  0  0  0  1  0  0  0  0  0  0
  -32.5260  -19.7910   21.8380 C   0  0  0  0  0  1  0  0  0  0  0  0
  -31.2770  -18.9190   22.0490 C   0  0  0  0  0  3  0  0  0  0  0  0
  2  1  1  0
  2  3  1  0
  2 51  1  0
  3  4  2  0
  5  3  1  0
  6  5  1  0
  6  7  1  0
  7  8  1  0
  8  9  1  0
  9 10  1  0
 10 12  1  0
 11 22  2  0
 12 17  1  0
 13 21  1  0
 13 23  1  0
 14 20  1  0
 14 16  1  0
 15 21  1  0
 16 17  2  0
 16 15  1  0
 18 12  2  0
 19 18  1  0
 19 14  2  0
 20 13  1  0
 21 11  1  0
 23 25  2  0
 24 23  1  0
 26 24  1  0
 27 36  2  0
 27 32  1  0
 28 24  1  0
 28 32  1  0
 29 28  1  0
 30 31  1  0
 30 29  1  0
 31 27  1  0
 32 33  2  0
 33 34  1  0
 35 34  2  0
 36 35  1  0
 37 11  1  0
 37 42  1  0
 37 38  1  0
 38 41  1  1
 38 39  1  0
 40 38  1  0
 42 45  1  0
 43 47  1  0
 43 42  1  0
 44 43  2  0
 47 46  1  0
 49 47  1  0
 49 50  1  0
 49 48  1  0
 51 52  1  0
 52 66  1  0
 54 59  1  0
 55 56  1  0
 55 54  1  0
 57 56  1  0
 57 71  1  0
 57 58  1  0
 59 53  1  0
 59 58  1  0
 60 53  2  0
 61 65  1  0
 62 61  1  0
 62 66  1  0
 63 64  1  0
 64 96  1  0
 65 53  1  0
 65 64  1  0
 66 63  1  0
 66 67  1  6
 68 69  2  0
 69 88  1  0
 70 69  1  0
 70 73  1  0
 71 68  1  0
 71 72  1  0
 72 70  2  0
 73 74  1  0
 74 75  2  0
 76 79  1  0
 76 75  1  0
 77 76  2  0
 78 77  1  0
 78 73  2  0
 79 80  1  0
 80 85  2  0
 80 81  1  0
 81 82  2  0
 82 83  1  0
 83 87  1  0
 84 83  2  0
 85 84  1  0
 86 85  1  0
 88 89  1  0
 89 92  1  0
 89 91  1  0
 90 88  2  0
 93 94  1  0
 93 68  1  0
 95 93  1  0
 96 99  1  0
 98 99  1  0
 99 97  1  0
M  ISO  4   9 101  10 101  53 100  65 100
M  END
>  <TORSDO>  (67) 
F 26

>  <SCORE>  (67) 
-10.566

>  <name>  (67) 
69

>  <ligand_id>  (67) 
69

>  <original_smiles>  (67) 
[H]c1c([H])c([H])c2c(c1[H])C([H])([H])C([H])([H])C([H])([H])C2([H])N([H])C(=O)C1([H])N(C(=O)C([H])(N([H])C(=O)C([H])(N([H])C([H])([H])[H])C([H])([H])[H])C(C([H])([H])[H])(C([H])([H])[H])C([H])([H])[H])C([H])([H])c2c([H])c(OC([H])([H])C([H])([H])C([H])([H])C([H])([H])C([H])([H])C(=O)C([H])(C([H])([H])[H])C([H])([H])C([H])([H])[N+]3([H])C([H])([H])C([H])([H])N(C(=O)N4C([H])([H])C([H])([H])C([H])([H])C([H])(n5nc(-c6c([H])c([H])c(Oc7c([H])c([H])c(F)c([H])c7F)c([H])c6[H])c(C(=O)N([H])[H])c5N([H])[H])C4([H])[H])C([H])(C([H])([H])C([H])(C([H])([H])[H])C([H])([H])[H])C3([H])[H])c([H])c([H])c2C1([H])[H]

>  <smiles>  (67) 
[H]c1c([H])c([H])c2c(c1[H])C([H])([H])C([H])([H])C([H])([H])C2([H])N([H])C(=O)C1([H])N(C(=O)C([H])(N([H])C(=O)C([H])(N([H])C([H])([H])[H])C([H])([H])[H])C(C([H])([H])[H])(C([H])([H])[H])C([H])([H])[H])C([H])([H])c2c([H])c(OC([H])([H])C([H])([H])C([H])([H])C([H])([H])C([H])([H])C(=O)C([H])(C([H])([H])[H])C([H])([H])C([H])([H])[N+]3([H])C([H])([H])C([H])([H])N(C(=O)N4C([H])([H])C([H])([H])C([H])([H])C([H])(n5nc(-c6c([H])c([H])c(Oc7c([H])c([H])c(F)c([H])c7F)c([H])c6[H])c(C(=O)N([H])[H])c5N([H])[H])C4([H])[H])C([H])(C([H])([H])C([H])(C([H])([H])[H])C([H])([H])[H])C3([H])[H])c([H])c([H])c2C1([H])[H]

$$$$
70:0:0
     RDKit          3D

 98106  0  0  1  0  0  0  0  0999 V2000
  -29.4370  -18.8440   22.4960 C   0  0  0  0  0  3  0  0  0  0  0  0
  -31.3730  -17.3690   22.6300 C   0  0  0  0  0  3  0  0  0  0  0  0
  -30.1220  -17.5510   20.5460 C   0  0  0  0  0  3  0  0  0  0  0  0
  -30.5070  -18.3020   23.2390 C   0  0  0  0  0  0  0  0  0  0  0  0
  -29.2460  -18.4770   21.1480 C   0  0  0  0  0  0  0  0  0  0  0  0
  -31.1790  -16.9780   21.2880 C   0  0  0  0  0  0  0  0  0  0  0  0
  -32.5380  -16.4690   19.2470 C   0  0  0  0  0  1  0  0  0  0  0  0
  -32.1420  -15.9820   20.6520 C   0  0  0  0  0  3  0  0  0  0  0  0
  -32.0040  -13.6500   19.7720 C   0  0  0  0  0  0  0  0  0  0  0  0
  -31.1290  -11.8030   18.4050 C   0  0  0  0  0  2  0  0  0  0  0  0
  -30.0370  -12.3610   17.4690 C   0  0  0  0  0  2  0  0  0  0  0  0
  -28.6640  -12.3690   18.1690 C   0  0  0  0  0  2  0  0  0  0  0  0
  -28.7160  -13.0080   19.5840 C   0  0  0  0  0  3  0  0  0  0  0  0
  -29.8920  -12.4270   20.4010 C   0  0  0  0  0  2  0  0  0  0  0  0
  -31.1290  -12.6220   19.6250 N   0  0  0  0  0  0  0  0  0  0  0  0
  -33.0250  -13.7750   19.0880 O   0  0  0  0  0  0  0  0  0  0  0  0
  -31.5920  -14.6250   20.5930 N   0  0  0  0  0  0  0  0  0  0  0  0
  -30.7620  -14.4430   21.1350 H   0  0  0  0  0  0  0  0  0  0  0  0
  -26.7200  -13.7920   21.0100 C   0  0  0  0  0  0  0  0  0  0  0  0
  -25.5700  -13.1600   21.3980 C   0  0  0  0  0  0  0  0  0  0  0  0
  -25.6490  -11.8360   20.8660 C   0  0  0  0  0  0  0  0  0  0  0  0
  -27.4420  -12.8570   20.2840 N   0  0  0  0  0  0  0  0  0  0  0  0
  -26.8080  -11.6560   20.2470 N   0  0  0  0  0  0  0  0  0  0  0  0
  -24.6640  -10.7470   20.8620 C   0  0  0  0  0  0  0  0  0  0  0  0
  -24.9200   -9.5170   21.5090 C   0  0  0  0  0  3  0  0  0  0  0  0
  -23.9490   -8.4920   21.5060 C   0  0  0  0  0  3  0  0  0  0  0  0
  -22.7090   -8.6910   20.8550 C   0  0  0  0  0  0  0  0  0  0  0  0
  -22.4690   -9.9070   20.1920 C   0  0  0  0  0  3  0  0  0  0  0  0
  -23.4370  -10.9250   20.1920 C   0  0  0  0  0  3  0  0  0  0  0  0
  -21.7180   -7.7430   20.7790 O   0  0  0  0  0  0  0  0  0  0  0  0
  -21.4010   -6.9430   21.8480 C   0  0  0  0  0  0  0  0  0  0  0  0
  -20.9860   -7.4840   23.0860 C   0  0  0  0  0  3  0  0  0  0  0  0
  -20.6050   -6.6260   24.1360 C   0  0  0  0  0  3  0  0  0  0  0  0
  -20.6300   -5.2300   23.9510 C   0  0  0  0  0  0  0  0  0  0  0  0
  -21.0370   -4.6910   22.7180 C   0  0  0  0  0  3  0  0  0  0  0  0
  -21.4200   -5.5450   21.6690 C   0  0  0  0  0  0  0  0  0  0  0  0
  -21.7910   -5.0210   20.4770 F   0  0  0  0  0  0  0  0  0  0  0  0
  -20.2550   -4.4060   24.9570 F   0  0  0  0  0  0  0  0  0  0  0  0
  -24.4160  -13.7750   22.1360 C   0  0  0  0  0  0  0  0  0  0  0  0
  -23.6750  -12.9720   22.8930 N   0  0  0  0  0  0  0  0  0  0  0  0
  -24.1930  -14.9830   22.0840 O   0  0  0  0  0  0  0  0  0  0  0  0
  -23.8710  -11.9840   22.9520 H   0  0  0  0  0  0  0  0  0  0  0  0
  -22.9030  -13.3510   23.4210 H   0  0  0  0  0  0  0  0  0  0  0  0
  -27.2010  -15.0860   21.1910 N   0  0  0  0  0  0  0  0  0  0  0  0
  -26.6600  -15.7960   21.6710 H   0  0  0  0  0  0  0  0  0  0  0  0
  -28.0500  -15.4460   20.7770 H   0  0  0  0  0  0  0  0  0  0  0  0
  -30.7000  -18.6980   24.6960 C   0  0  0  0  0  2  0  0  0  0  0  0
  -30.2490  -20.1380   25.0370 C   0  0  0  0  0  2  0  0  0  0  0  0
  -30.8690  -21.2620   24.1960 C   0  0  0  0  0  0  0  0  0  0  0  0
  -30.1800  -22.4090   24.1660 N   0  0  0  0  0  0  0  0  0  0  0  0
  -31.9470  -21.1160   23.6180 O   0  0  0  0  0  0  0  0  0  0  0  0
  -29.3170  -22.4330   24.6940 H   0  0  0  0  0  0  0  0  0  0  0  0
  -30.5680  -23.6650   23.5200 C   0  0  0  0  0  2  0  0  0  0  0  0
  -29.4820  -24.1430   22.5360 C   0  0  0  0  0  2  0  0  0  0  0  0
  -29.7230  -25.4900   22.1170 O   0  0  0  0  0  0  0  0  0  0  0  0
  -25.0870  -30.6300   23.6770 C   0  0  0  0  0  0  0  0  0  0  0  0
  -28.5910  -26.1640   21.7260 C   0  0  0  0  0  0  0  0  0  0  0  0
  -24.4140  -29.0950   21.8580 C   0  0  0  0  0  3  0  0  0  0  0  0
  -26.2430  -27.5450   20.9830 C   0  0  0  0  0  0  0  0  0  0  0  0
  -26.8850  -29.5560   22.3260 C   0  0  0  0  0  2  0  0  0  0  0  0
  -27.1800  -28.1590   21.8240 C   0  0  0  0  0  0  0  0  0  0  0  0
  -28.3620  -27.4770   22.1880 C   0  0  0  0  0  3  0  0  0  0  0  0
  -27.6410  -25.5570   20.8770 C   0  0  0  0  0  3  0  0  0  0  0  0
  -26.4690  -26.2420   20.5040 C   0  0  0  0  0  3  0  0  0  0  0  0
  -25.0110  -28.3510   20.6330 C   0  0  0  0  0  2  0  0  0  0  0  0
  -25.4630  -29.7790   22.6820 N   0  0  0  0  0  0  0  0  0  0  0  0
  -23.8930  -30.8840   23.8860 O   0  0  0  0  0  0  0  0  0  0  0  0
  -23.5530  -28.0980   22.6680 C   0  0  0  0  0  0  0  0  0  0  0  0
  -22.3040  -27.8880   22.2230 N   0  0  0  0  0  0  0  0  0  0  0  0
  -24.0170  -27.5150   23.6520 O   0  0  0  0  0  0  0  0  0  0  0  0
  -21.9950  -28.4130   21.4160 H   0  0  0  0  0  0  0  0  0  0  0  0
  -18.8490  -26.8390   22.0770 C   0  0  0  0  0  0  0  0  0  0  0  0
  -21.3270  -26.9680   22.8030 C   0  0  0  0  0  3  0  0  0  0  0  0
  -21.4710  -25.5500   22.2000 C   0  0  0  0  0  2  0  0  0  0  0  0
  -20.5530  -25.3110   20.9970 C   0  0  0  0  0  2  0  0  0  0  0  0
  -19.0860  -25.5030   21.3940 C   0  0  0  0  0  2  0  0  0  0  0  0
  -19.9050  -27.5340   22.7270 C   0  0  0  0  0  0  0  0  0  0  0  0
  -19.6390  -28.7880   23.3150 C   0  0  0  0  0  3  0  0  0  0  0  0
  -18.3480  -29.3470   23.2680 C   0  0  0  0  0  3  0  0  0  0  0  0
  -17.3030  -28.6480   22.6380 C   0  0  0  0  0  3  0  0  0  0  0  0
  -17.5530  -27.3970   22.0480 C   0  0  0  0  0  3  0  0  0  0  0  0
  -26.1390  -31.3460   24.5820 C   0  0  0  0  0  3  0  0  0  0  0  0
  -25.7800  -32.7690   24.6360 N   0  0  0  0  0  0  0  0  0  0  0  0
  -26.3610  -33.7280   23.9030 C   0  0  0  0  0  0  0  0  0  0  0  0
  -27.3170  -33.5110   23.1520 O   0  0  0  0  0  0  0  0  0  0  0  0
  -24.9680  -33.0090   25.1870 H   0  0  0  0  0  0  0  0  0  0  0  0
  -24.8460  -35.4310   22.8400 C   0  0  0  0  0  1  0  0  0  0  0  0
  -25.7920  -35.1550   24.0200 C   0  0  0  0  0  3  0  0  0  0  0  0
  -27.5870  -36.2000   25.3290 C   0  0  0  0  0  1  0  0  0  0  0  0
  -26.8350  -36.2010   24.0760 N   0  0  0  0  0  0  0  0  0  0  0  0
  -26.4280  -37.1240   23.9530 H   0  0  0  0  0  0  0  0  0  0  0  0
  -26.2270  -30.7370   26.0350 C   0  0  1  0  0  0  0  0  0  0  0  0
  -24.8570  -30.6140   26.7420 C   0  0  0  0  0  1  0  0  0  0  0  0
  -26.8700  -29.3310   25.9960 C   0  0  0  0  0  1  0  0  0  0  0  0
  -27.1430  -31.6160   26.9180 C   0  0  0  0  0  1  0  0  0  0  0  0
  -28.1030  -19.0830   20.3490 C   0  0  0  0  0  2  0  0  0  0  0  0
  -27.2930  -18.0330   19.5770 C   0  0  0  0  0  2  0  0  0  0  0  0
  -27.2460  -18.3260   18.2740 F   0  0  0  0  0  0  0  0  0  0  0  0
  1  4  1  0
  2  4  2  0
  3  5  1  0
  3  6  2  0
  4 47  1  0
  5  1  2  0
  6  2  1  0
  8  7  1  0
  8  6  1  0
  9 17  1  0
 10 15  1  0
 11 12  1  0
 11 10  1  0
 13 12  1  0
 13 22  1  0
 13 14  1  0
 15  9  1  0
 15 14  1  0
 16  9  2  0
 17  8  1  0
 17 18  1  0
 19 44  1  0
 19 20  2  0
 20 39  1  0
 21 20  1  0
 22 19  1  0
 23 22  1  0
 23 21  2  0
 24 21  1  0
 24 25  1  0
 26 25  2  0
 27 26  1  0
 28 29  1  0
 28 27  2  0
 29 24  2  0
 30 27  1  0
 30 31  1  0
 31 32  1  0
 32 33  2  0
 34 33  1  0
 34 38  1  0
 35 34  2  0
 36 31  2  0
 36 35  1  0
 37 36  1  0
 39 40  1  0
 40 42  1  0
 40 43  1  0
 41 39  2  0
 44 45  1  0
 46 44  1  0
 47 48  1  0
 49 48  1  0
 50 49  1  0
 50 52  1  0
 51 49  2  0
 53 50  1  0
 54 53  1  0
 55 54  1  0
 56 67  2  0
 57 55  1  0
 57 62  1  0
 58 68  1  0
 58 66  1  0
 59 61  1  0
 60 66  1  0
 61 62  2  0
 61 60  1  0
 63 57  2  0
 64 63  1  0
 64 59  2  0
 65 59  1  0
 65 58  1  0
 66 56  1  0
 68 70  2  0
 69 68  1  0
 71 69  1  0
 72 77  1  0
 73 69  1  0
 74 73  1  0
 75 76  1  0
 75 74  1  0
 76 72  1  0
 77 73  1  0
 77 78  2  0
 79 78  1  0
 80 79  2  0
 81 72  2  0
 81 80  1  0
 82 56  1  0
 82 83  1  0
 82 92  1  0
 83 86  1  0
 84 88  1  0
 84 83  1  0
 85 84  2  0
 88 87  1  0
 88 90  1  0
 90 89  1  0
 91 90  1  0
 92 93  1  1
 92 95  1  0
 94 92  1  0
 96  5  1  0
 97 96  1  0
 98 97  1  0
M  ISO  4   9 100  17 100  54 101  55 101
M  END
>  <TORSDO>  (68) 
F 24

>  <SCORE>  (68) 
-2.795

>  <name>  (68) 
70

>  <ligand_id>  (68) 
70

>  <original_smiles>  (68) 
[H]c1c([H])c([H])c2c(c1[H])C([H])([H])C([H])([H])C([H])([H])C2([H])N([H])C(=O)C1([H])N(C(=O)C([H])(N([H])C(=O)C([H])(N([H])C([H])([H])[H])C([H])([H])[H])C(C([H])([H])[H])(C([H])([H])[H])C([H])([H])[H])C([H])([H])c2c([H])c(OC([H])([H])C([H])([H])N([H])C(=O)C([H])([H])C([H])([H])c3c([H])c(C([H])([H])C([H])([H])F)c([H])c(C([H])(N([H])C(=O)N4C([H])([H])C([H])([H])C([H])([H])C([H])(n5nc(-c6c([H])c([H])c(Oc7c([H])c([H])c(F)c([H])c7F)c([H])c6[H])c(C(=O)N([H])[H])c5N([H])[H])C4([H])[H])C([H])([H])[H])c3[H])c([H])c([H])c2C1([H])[H]

>  <smiles>  (68) 
[H]c1c([H])c([H])c2c(c1[H])C([H])([H])C([H])([H])C([H])([H])C2([H])N([H])C(=O)C1([H])N(C(=O)C([H])(N([H])C(=O)C([H])(N([H])C([H])([H])[H])C([H])([H])[H])C(C([H])([H])[H])(C([H])([H])[H])C([H])([H])[H])C([H])([H])c2c([H])c(OC([H])([H])C([H])([H])N([H])C(=O)C([H])([H])C([H])([H])c3c([H])c(C([H])([H])C([H])([H])F)c([H])c(C([H])(N([H])C(=O)N4C([H])([H])C([H])([H])C([H])([H])C([H])(n5nc(-c6c([H])c([H])c(Oc7c([H])c([H])c(F)c([H])c7F)c([H])c6[H])c(C(=O)N([H])[H])c5N([H])[H])C4([H])[H])C([H])([H])[H])c3[H])c([H])c([H])c2C1([H])[H]

$$$$
71:0:0
     RDKit          3D

 99107  0  0  1  0  0  0  0  0999 V2000
  -29.5420  -19.3440   20.1610 N   0  0  0  0  0  4  0  0  0  0  0  0
  -30.1950  -19.5330   19.4200 H   0  0  0  0  0  0  0  0  0  0  0  0
  -29.9530  -19.6840   21.0160 H   0  0  0  0  0  0  0  0  0  0  0  0
  -30.8900  -14.5310   20.2360 C   0  0  0  0  0  0  0  0  0  0  0  0
  -30.5610  -12.4220   19.0030 C   0  0  0  0  0  2  0  0  0  0  0  0
  -29.5760  -12.6530   17.8340 C   0  0  0  0  0  2  0  0  0  0  0  0
  -28.1130  -12.5070   18.3050 C   0  0  0  0  0  2  0  0  0  0  0  0
  -27.8190  -13.2880   19.6120 C   0  0  0  0  0  3  0  0  0  0  0  0
  -28.9110  -12.9770   20.6620 C   0  0  0  0  0  2  0  0  0  0  0  0
  -30.2000  -13.3650   20.0750 N   0  0  0  0  0  0  0  0  0  0  0  0
  -32.0330  -14.6660   19.7880 O   0  0  0  0  0  0  0  0  0  0  0  0
  -28.9950  -17.4070   21.6700 C   0  0  0  0  0  2  0  0  0  0  0  0
  -29.2210  -15.8950   21.5900 C   0  0  0  0  0  2  0  0  0  0  0  0
  -30.5000  -16.9710   19.8660 C   0  0  0  0  0  3  0  0  0  0  0  0
  -29.3120  -17.8770   20.2620 C   0  0  0  0  0  3  0  0  0  0  0  0
  -30.1740  -15.6640   20.4890 N   0  0  0  0  0  0  0  0  0  0  0  0
  -25.4290  -13.8760   20.3710 C   0  0  0  0  0  0  0  0  0  0  0  0
  -24.3780  -13.0920   20.7650 C   0  0  0  0  0  0  0  0  0  0  0  0
  -24.8540  -11.7450   20.7220 C   0  0  0  0  0  0  0  0  0  0  0  0
  -26.4780  -13.0050   20.1180 N   0  0  0  0  0  0  0  0  0  0  0  0
  -26.1370  -11.7200   20.3860 N   0  0  0  0  0  0  0  0  0  0  0  0
  -24.1480  -10.4750   20.9240 C   0  0  0  0  0  0  0  0  0  0  0  0
  -24.5800   -9.5350   21.8860 C   0  0  0  0  0  3  0  0  0  0  0  0
  -23.8740   -8.3280   22.0750 C   0  0  0  0  0  3  0  0  0  0  0  0
  -22.7230   -8.0510   21.2990 C   0  0  0  0  0  0  0  0  0  0  0  0
  -22.3110   -8.9790   20.3270 C   0  0  0  0  0  3  0  0  0  0  0  0
  -23.0180  -10.1780   20.1370 C   0  0  0  0  0  3  0  0  0  0  0  0
  -21.9900   -6.8930   21.3930 O   0  0  0  0  0  0  0  0  0  0  0  0
  -21.8770   -6.2090   22.5760 C   0  0  0  0  0  0  0  0  0  0  0  0
  -21.3490   -6.8130   23.7380 C   0  0  0  0  0  3  0  0  0  0  0  0
  -21.1820   -6.0530   24.9130 C   0  0  0  0  0  3  0  0  0  0  0  0
  -21.5360   -4.6910   24.9270 C   0  0  0  0  0  0  0  0  0  0  0  0
  -22.0580   -4.0860   23.7700 C   0  0  0  0  0  3  0  0  0  0  0  0
  -22.2240   -4.8430   22.5970 C   0  0  0  0  0  0  0  0  0  0  0  0
  -22.7050   -4.2500   21.4780 F   0  0  0  0  0  0  0  0  0  0  0  0
  -21.3700   -3.9590   26.0540 F   0  0  0  0  0  0  0  0  0  0  0  0
  -22.9810  -13.5530   21.0640 C   0  0  0  0  0  0  0  0  0  0  0  0
  -22.2830  -12.8520   21.9510 N   0  0  0  0  0  0  0  0  0  0  0  0
  -22.5160  -14.5680   20.5480 O   0  0  0  0  0  0  0  0  0  0  0  0
  -22.6710  -12.0290   22.3860 H   0  0  0  0  0  0  0  0  0  0  0  0
  -21.3470  -13.1440   22.1970 H   0  0  0  0  0  0  0  0  0  0  0  0
  -25.5710  -15.2480   20.1810 N   0  0  0  0  0  0  0  0  0  0  0  0
  -24.7800  -15.8790   20.2650 H   0  0  0  0  0  0  0  0  0  0  0  0
  -26.3660  -15.6700   19.7180 H   0  0  0  0  0  0  0  0  0  0  0  0
  -30.6490  -16.8830   18.3210 C   0  0  0  0  0  0  0  0  0  0  0  0
  -29.8800  -16.2210   17.6210 O   0  0  0  0  0  0  0  0  0  0  0  0
  -31.7980  -17.6730   17.6800 C   0  0  0  0  0  2  0  0  0  0  0  0
  -32.2100  -17.2250   16.2550 C   0  0  0  0  0  2  0  0  0  0  0  0
  -33.1510  -16.0890   16.2350 N   0  0  0  0  0  4  0  0  0  0  0  0
  -33.9860  -16.3030   16.7520 H   0  0  0  0  0  0  0  0  0  0  0  0
  -33.4280  -15.8980   15.2880 H   0  0  0  0  0  0  0  0  0  0  0  0
  -32.7400  -15.2510   16.6060 H   0  0  0  0  0  0  0  0  0  0  0  0
  -28.3200  -20.1250   19.8540 C   0  0  0  0  0  2  0  0  0  0  0  0
  -28.6030  -21.6280   19.6400 C   0  0  0  0  0  2  0  0  0  0  0  0
  -28.4160  -22.4980   20.8950 C   0  0  0  0  0  2  0  0  0  0  0  0
  -28.8090  -23.9610   20.6320 C   0  0  0  0  0  2  0  0  0  0  0  0
  -28.4480  -24.9170   21.7840 C   0  0  0  0  0  2  0  0  0  0  0  0
  -28.9970  -26.3340   21.5540 C   0  0  0  0  0  2  0  0  0  0  0  0
  -28.5520  -26.8080   20.2880 O   0  0  0  0  0  0  0  0  0  0  0  0
  -24.5370  -31.8770   23.2620 C   0  0  0  0  0  0  0  0  0  0  0  0
  -27.3710  -27.5000   20.3080 C   0  0  0  0  0  0  0  0  0  0  0  0
  -23.4110  -30.4450   21.5860 C   0  0  0  0  0  3  0  0  0  0  0  0
  -24.9410  -28.9230   20.2290 C   0  0  0  0  0  0  0  0  0  0  0  0
  -25.9300  -30.8580   21.4700 C   0  0  0  0  0  2  0  0  0  0  0  0
  -26.0610  -29.4830   20.8560 C   0  0  0  0  0  0  0  0  0  0  0  0
  -27.2780  -28.7750   20.9030 C   0  0  0  0  0  3  0  0  0  0  0  0
  -26.2430  -26.9450   19.6720 C   0  0  0  0  0  3  0  0  0  0  0  0
  -25.0240  -27.6480   19.6370 C   0  0  0  0  0  3  0  0  0  0  0  0
  -23.6800  -29.7560   20.2210 C   0  0  0  0  0  2  0  0  0  0  0  0
  -24.6410  -31.0740   22.1660 N   0  0  0  0  0  0  0  0  0  0  0  0
  -23.4330  -32.1310   23.7660 O   0  0  0  0  0  0  0  0  0  0  0  0
  -22.7440  -29.4190   22.5310 C   0  0  0  0  0  0  0  0  0  0  0  0
  -21.4250  -29.2280   22.3670 N   0  0  0  0  0  0  0  0  0  0  0  0
  -23.4110  -28.7990   23.3620 O   0  0  0  0  0  0  0  0  0  0  0  0
  -20.9480  -29.7840   21.6710 H   0  0  0  0  0  0  0  0  0  0  0  0
  -18.0440  -28.0300   22.7840 C   0  0  0  0  0  0  0  0  0  0  0  0
  -20.5940  -28.2840   23.1140 C   0  0  0  0  0  3  0  0  0  0  0  0
  -20.7100  -26.8580   22.5300 C   0  0  0  0  0  2  0  0  0  0  0  0
  -19.6310  -26.5420   21.4890 C   0  0  0  0  0  2  0  0  0  0  0  0
  -18.2360  -26.6840   22.1060 C   0  0  0  0  0  2  0  0  0  0  0  0
  -19.1520  -28.7900   23.2430 C   0  0  0  0  0  0  0  0  0  0  0  0
  -18.9220  -30.0500   23.8340 C   0  0  0  0  0  3  0  0  0  0  0  0
  -17.6140  -30.5520   23.9730 C   0  0  0  0  0  3  0  0  0  0  0  0
  -16.5190  -29.7880   23.5330 C   0  0  0  0  0  3  0  0  0  0  0  0
  -16.7350  -28.5300   22.9430 C   0  0  0  0  0  3  0  0  0  0  0  0
  -25.7910  -32.5320   23.9220 C   0  0  0  0  0  3  0  0  0  0  0  0
  -26.2750  -31.7770   25.2200 C   0  0  1  0  0  0  0  0  0  0  0  0
  -25.1510  -31.5290   26.2520 C   0  0  0  0  0  1  0  0  0  0  0  0
  -26.8920  -30.4070   24.8530 C   0  0  0  0  0  1  0  0  0  0  0  0
  -27.3900  -32.5930   25.9160 C   0  0  0  0  0  1  0  0  0  0  0  0
  -25.4540  -33.9280   24.2250 N   0  0  0  0  0  0  0  0  0  0  0  0
  -25.7980  -34.9750   23.4630 C   0  0  0  0  0  0  0  0  0  0  0  0
  -26.5030  -34.8690   22.4570 O   0  0  0  0  0  0  0  0  0  0  0  0
  -24.8310  -34.0840   25.0040 H   0  0  0  0  0  0  0  0  0  0  0  0
  -24.0570  -36.7370   23.0300 C   0  0  0  0  0  1  0  0  0  0  0  0
  -25.2760  -36.3620   23.8870 C   0  0  0  0  0  3  0  0  0  0  0  0
  -27.3700  -37.2920   24.7730 C   0  0  0  0  0  1  0  0  0  0  0  0
  -26.2960  -37.4280   23.7920 N   0  0  0  0  0  0  0  0  0  0  0  0
  -25.8720  -38.3430   23.9110 H   0  0  0  0  0  0  0  0  0  0  0  0
  1  3  1  0
  2  1  1  0
  4 16  1  0
  5 10  1  0
  6  7  1  0
  6  5  1  0
  8  7  1  0
  8 20  1  0
  8  9  1  0
 10  4  1  0
 10  9  1  0
 11  4  2  0
 13 12  1  0
 14 45  1  0
 14 15  1  0
 14 16  1  0
 15  1  1  0
 15 12  1  0
 16 13  1  0
 17 18  2  0
 18 37  1  0
 19 18  1  0
 19 22  1  0
 20 17  1  0
 20 21  1  0
 21 19  2  0
 22 23  1  0
 23 24  2  0
 25 28  1  0
 25 24  1  0
 26 25  2  0
 27 26  1  0
 27 22  2  0
 28 29  1  0
 29 34  2  0
 29 30  1  0
 30 31  2  0
 31 32  1  0
 32 36  1  0
 33 32  2  0
 34 33  1  0
 35 34  1  0
 37 38  1  0
 38 41  1  0
 38 40  1  0
 39 37  2  0
 42 43  1  0
 42 17  1  0
 44 42  1  0
 46 45  2  0
 47 45  1  0
 48 47  1  0
 49 48  1  0
 49 52  1  0
 49 50  1  0
 51 49  1  0
 53  1  1  0
 54 53  1  0
 54 55  1  0
 56 55  1  0
 56 57  1  0
 58 57  1  0
 59 61  1  0
 59 58  1  0
 60 71  2  0
 61 66  1  0
 62 70  1  0
 62 72  1  0
 63 65  1  0
 64 70  1  0
 65 66  2  0
 65 64  1  0
 67 61  2  0
 68 67  1  0
 68 63  2  0
 69 63  1  0
 69 62  1  0
 70 60  1  0
 72 74  2  0
 73 72  1  0
 75 73  1  0
 76 85  2  0
 76 81  1  0
 77 73  1  0
 77 81  1  0
 78 77  1  0
 79 80  1  0
 79 78  1  0
 80 76  1  0
 81 82  2  0
 82 83  1  0
 84 83  2  0
 85 84  1  0
 86 60  1  0
 86 91  1  0
 86 87  1  0
 87 90  1  1
 87 88  1  0
 89 87  1  0
 91 94  1  0
 92 96  1  0
 92 91  1  0
 93 92  2  0
 96 95  1  0
 98 96  1  0
 98 99  1  0
 98 97  1  0
M  ISO  4   4 100  16 100  58 101  59 101
M  END
>  <TORSDO>  (69) 
F 26

>  <SCORE>  (69) 
-10.147

>  <name>  (69) 
71

>  <ligand_id>  (69) 
71

>  <original_smiles>  (69) 
[H]c1c([H])c([H])c2c(c1[H])C([H])([H])C([H])([H])C([H])([H])C2([H])N([H])C(=O)C1([H])N(C(=O)C([H])(N([H])C(=O)C([H])(N([H])C([H])([H])[H])C([H])([H])[H])C(C([H])([H])[H])(C([H])([H])[H])C([H])([H])[H])C([H])([H])c2c([H])c(OC([H])([H])C([H])([H])C([H])([H])C([H])([H])C([H])([H])C([H])([H])[N+]([H])([H])C3([H])C([H])(C(=O)C([H])([H])C([H])([H])[N+]([H])([H])[H])N(C(=O)N4C([H])([H])C([H])([H])C([H])([H])C([H])(n5nc(-c6c([H])c([H])c(Oc7c([H])c([H])c(F)c([H])c7F)c([H])c6[H])c(C(=O)N([H])[H])c5N([H])[H])C4([H])[H])C([H])([H])C3([H])[H])c([H])c([H])c2C1([H])[H]

>  <smiles>  (69) 
[H]c1c([H])c([H])c2c(c1[H])C([H])([H])C([H])([H])C([H])([H])C2([H])N([H])C(=O)C1([H])N(C(=O)C([H])(N([H])C(=O)C([H])(N([H])C([H])([H])[H])C([H])([H])[H])C(C([H])([H])[H])(C([H])([H])[H])C([H])([H])[H])C([H])([H])c2c([H])c(OC([H])([H])C([H])([H])C([H])([H])C([H])([H])C([H])([H])C([H])([H])[N+]([H])([H])C3([H])C([H])(C(=O)C([H])([H])C([H])([H])[N+]([H])([H])[H])N(C(=O)N4C([H])([H])C([H])([H])C([H])([H])C([H])(n5nc(-c6c([H])c([H])c(Oc7c([H])c([H])c(F)c([H])c7F)c([H])c6[H])c(C(=O)N([H])[H])c5N([H])[H])C4([H])[H])C([H])([H])C3([H])[H])c([H])c([H])c2C1([H])[H]

$$$$
72:0:0
     RDKit          3D

 98106  0  0  1  0  0  0  0  0999 V2000
  -29.1610  -20.5600   22.1580 C   0  0  0  0  0  1  0  0  0  0  0  0
  -29.9650  -20.6410   20.8470 C   0  0  0  0  0  3  0  0  0  0  0  0
  -31.2650  -21.4880   21.0320 C   0  0  0  0  0  3  0  0  0  0  0  0
  -33.7160  -21.5020   21.8830 C   0  0  0  0  0  1  0  0  0  0  0  0
  -32.5090  -20.6620   21.4610 C   0  0  0  0  0  2  0  0  0  0  0  0
  -31.5590  -22.4870   19.8780 C   0  0  0  0  0  2  0  0  0  0  0  0
  -31.6760  -23.9490   20.3830 C   0  0  0  0  0  2  0  0  0  0  0  0
  -32.5570  -24.9000   19.5570 C   0  0  0  0  0  2  0  0  0  0  0  0
  -32.1180  -25.0720   18.0930 C   0  0  0  0  0  2  0  0  0  0  0  0
  -31.6780  -26.4080   17.8720 O   0  0  0  0  0  0  0  0  0  0  0  0
  -25.7220  -27.8170   21.4710 C   0  0  0  0  0  0  0  0  0  0  0  0
  -30.3210  -26.6310   17.8080 C   0  0  0  0  0  0  0  0  0  0  0  0
  -25.4210  -27.3730   19.0560 C   0  0  0  0  0  3  0  0  0  0  0  0
  -27.5690  -27.2630   17.6820 C   0  0  0  0  0  0  0  0  0  0  0  0
  -27.6150  -28.3400   19.9360 C   0  0  0  0  0  2  0  0  0  0  0  0
  -28.3200  -27.6220   18.8080 C   0  0  0  0  0  0  0  0  0  0  0  0
  -29.6960  -27.3200   18.8670 C   0  0  0  0  0  3  0  0  0  0  0  0
  -29.5530  -26.2610   16.6810 C   0  0  0  0  0  3  0  0  0  0  0  0
  -28.1840  -26.5880   16.6120 C   0  0  0  0  0  3  0  0  0  0  0  0
  -26.1040  -27.6350   17.6850 C   0  0  0  0  0  2  0  0  0  0  0  0
  -26.2560  -27.8230   20.2180 N   0  0  0  0  0  0  0  0  0  0  0  0
  -24.5420  -27.4890   21.6650 O   0  0  0  0  0  0  0  0  0  0  0  0
  -25.0350  -25.8780   19.1180 C   0  0  0  0  0  0  0  0  0  0  0  0
  -24.0480  -25.4830   18.2980 N   0  0  0  0  0  0  0  0  0  0  0  0
  -25.6380  -25.1000   19.8610 O   0  0  0  0  0  0  0  0  0  0  0  0
  -23.6010  -26.1850   17.7220 H   0  0  0  0  0  0  0  0  0  0  0  0
  -21.7580  -23.4110   16.4320 C   0  0  0  0  0  0  0  0  0  0  0  0
  -23.5530  -24.1170   18.1480 C   0  0  0  0  0  3  0  0  0  0  0  0
  -24.5380  -23.2550   17.3260 C   0  0  0  0  0  2  0  0  0  0  0  0
  -24.2070  -23.2180   15.8320 C   0  0  0  0  0  2  0  0  0  0  0  0
  -22.7950  -22.6720   15.6050 C   0  0  0  0  0  2  0  0  0  0  0  0
  -22.1140  -24.1010   17.6190 C   0  0  0  0  0  0  0  0  0  0  0  0
  -21.1150  -24.8020   18.3320 C   0  0  0  0  0  3  0  0  0  0  0  0
  -19.7810  -24.8110   17.8790 C   0  0  0  0  0  3  0  0  0  0  0  0
  -19.4310  -24.1120   16.7100 C   0  0  0  0  0  3  0  0  0  0  0  0
  -20.4160  -23.4140   15.9920 C   0  0  0  0  0  3  0  0  0  0  0  0
  -26.5580  -28.2400   22.7220 C   0  0  0  0  0  3  0  0  0  0  0  0
  -27.0640  -27.0110   23.5740 C   0  0  1  0  0  0  0  0  0  0  0  0
  -25.9420  -26.0200   23.9620 C   0  0  0  0  0  1  0  0  0  0  0  0
  -28.1470  -26.2240   22.8000 C   0  0  0  0  0  1  0  0  0  0  0  0
  -27.7340  -27.5120   24.8760 C   0  0  0  0  0  1  0  0  0  0  0  0
  -25.7190  -29.1300   23.5350 N   0  0  0  0  0  0  0  0  0  0  0  0
  -25.8630  -30.4600   23.5960 C   0  0  0  0  0  0  0  0  0  0  0  0
  -26.7720  -31.0610   23.0150 O   0  0  0  0  0  0  0  0  0  0  0  0
  -24.9240  -28.7110   23.9960 H   0  0  0  0  0  0  0  0  0  0  0  0
  -23.7870  -31.8700   23.4970 C   0  0  0  0  0  1  0  0  0  0  0  0
  -24.8370  -31.2490   24.4310 C   0  0  0  0  0  3  0  0  0  0  0  0
  -26.2510  -31.7750   26.3680 C   0  0  0  0  0  1  0  0  0  0  0  0
  -25.4450  -32.3040   25.2720 N   0  0  0  0  0  0  0  0  0  0  0  0
  -24.7280  -32.9040   25.6710 H   0  0  0  0  0  0  0  0  0  0  0  0
  -30.0490  -19.2370   20.1840 C   0  0  0  0  0  2  0  0  0  0  0  0
  -31.4620  -18.6740   19.9560 C   0  0  0  0  0  2  0  0  0  0  0  0
  -32.1110  -13.0270   18.2740 C   0  0  0  0  0  0  0  0  0  0  0  0
  -31.2030  -10.7760   17.7370 C   0  0  0  0  0  2  0  0  0  0  0  0
  -29.9790  -10.7990   16.8020 C   0  0  0  0  0  2  0  0  0  0  0  0
  -28.6710  -10.9770   17.5940 C   0  0  0  0  0  2  0  0  0  0  0  0
  -28.7690  -12.1480   18.6080 C   0  0  0  0  0  3  0  0  0  0  0  0
  -30.0640  -12.0450   19.4380 C   0  0  0  0  0  2  0  0  0  0  0  0
  -31.2310  -12.0140   18.5430 N   0  0  0  0  0  0  0  0  0  0  0  0
  -32.8490  -12.9600   17.2800 O   0  0  0  0  0  0  0  0  0  0  0  0
  -32.5570  -15.4040   18.3690 C   0  0  0  0  0  2  0  0  0  0  0  0
  -32.1320  -14.2000   20.5220 C   0  0  0  0  0  2  0  0  0  0  0  0
  -32.7350  -16.6970   19.1910 C   0  0  0  0  0  2  0  0  0  0  0  0
  -31.2630  -16.5640   21.1750 C   0  0  0  0  0  2  0  0  0  0  0  0
  -30.9660  -15.0500   21.1110 C   0  0  0  0  0  3  0  0  0  0  0  0
  -32.0940  -14.1680   19.0420 N   0  0  0  0  0  0  0  0  0  0  0  0
  -31.4930  -17.1890   19.8510 N   0  0  1  0  0  4  0  0  0  0  0  0
  -30.7170  -16.9320   19.2630 H   0  0  0  0  0  0  0  0  0  0  0  0
  -27.0490  -13.3030   20.1460 C   0  0  0  0  0  0  0  0  0  0  0  0
  -25.9220  -12.8330   20.7740 C   0  0  0  0  0  0  0  0  0  0  0  0
  -25.8540  -11.4430   20.4620 C   0  0  0  0  0  0  0  0  0  0  0  0
  -27.5950  -12.2120   19.4770 N   0  0  0  0  0  0  0  0  0  0  0  0
  -26.8960  -11.0760   19.7230 N   0  0  0  0  0  0  0  0  0  0  0  0
  -24.8170  -10.4530   20.7710 C   0  0  0  0  0  0  0  0  0  0  0  0
  -25.0640   -9.3850   21.6620 C   0  0  0  0  0  3  0  0  0  0  0  0
  -24.0510   -8.4460   21.9560 C   0  0  0  0  0  3  0  0  0  0  0  0
  -22.7710   -8.5810   21.3700 C   0  0  0  0  0  0  0  0  0  0  0  0
  -22.5370   -9.6310   20.4620 C   0  0  0  0  0  3  0  0  0  0  0  0
  -23.5500  -10.5610   20.1640 C   0  0  0  0  0  3  0  0  0  0  0  0
  -21.7340   -7.7050   21.5800 O   0  0  0  0  0  0  0  0  0  0  0  0
  -21.5570   -7.0680   22.7830 C   0  0  0  0  0  0  0  0  0  0  0  0
  -21.3500   -7.7810   23.9860 C   0  0  0  0  0  3  0  0  0  0  0  0
  -21.1010   -7.0830   25.1850 C   0  0  0  0  0  3  0  0  0  0  0  0
  -21.0490   -5.6760   25.1840 C   0  0  0  0  0  0  0  0  0  0  0  0
  -21.2470   -4.9650   23.9880 C   0  0  0  0  0  3  0  0  0  0  0  0
  -21.4930   -5.6600   22.7920 C   0  0  0  0  0  0  0  0  0  0  0  0
  -21.6610   -4.9680   21.6380 F   0  0  0  0  0  0  0  0  0  0  0  0
  -20.7990   -5.0100   26.3340 F   0  0  0  0  0  0  0  0  0  0  0  0
  -24.9160  -13.6480   21.5390 C   0  0  0  0  0  0  0  0  0  0  0  0
  -24.2470  -13.0440   22.5190 N   0  0  0  0  0  0  0  0  0  0  0  0
  -24.7490  -14.8410   21.3020 O   0  0  0  0  0  0  0  0  0  0  0  0
  -24.3890  -12.0660   22.7140 H   0  0  0  0  0  0  0  0  0  0  0  0
  -23.5850  -13.5600   23.0800 H   0  0  0  0  0  0  0  0  0  0  0  0
  -27.6430  -14.5580   20.0780 N   0  0  0  0  0  0  0  0  0  0  0  0
  -27.2450  -15.3770   20.5290 H   0  0  0  0  0  0  0  0  0  0  0  0
  -28.4700  -14.7700   19.5360 H   0  0  0  0  0  0  0  0  0  0  0  0
  -31.4970  -14.5660   23.6320 C   0  0  0  0  0  1  0  0  0  0  0  0
  -30.4720  -14.5150   22.4820 C   0  0  0  0  0  2  0  0  0  0  0  0
  2  3  1  0
  2  1  1  0
  3  6  1  0
  3  5  1  0
  5  4  1  0
  6  7  1  0
  8  7  1  0
  9  8  1  0
 10  9  1  0
 11 22  2  0
 12 10  1  0
 12 17  1  0
 13 23  1  0
 13 21  1  0
 14 20  1  0
 14 16  1  0
 15 21  1  0
 16 17  2  0
 16 15  1  0
 18 12  2  0
 19 18  1  0
 19 14  2  0
 20 13  1  0
 21 11  1  0
 23 25  2  0
 24 23  1  0
 26 24  1  0
 27 32  1  0
 28 24  1  0
 29 28  1  0
 30 29  1  0
 31 30  1  0
 31 27  1  0
 32 28  1  0
 32 33  2  0
 34 33  1  0
 35 34  2  0
 36 27  2  0
 36 35  1  0
 37 11  1  0
 37 42  1  0
 37 38  1  0
 38 39  1  1
 38 41  1  0
 40 38  1  0
 42 43  1  0
 42 45  1  0
 43 47  1  0
 44 43  2  0
 47 46  1  0
 47 49  1  0
 49 50  1  0
 49 48  1  0
 51  2  1  0
 52 51  1  0
 53 59  1  0
 53 66  1  0
 54 59  1  0
 55 56  1  0
 55 54  1  0
 57 56  1  0
 57 58  1  0
 57 72  1  0
 59 58  1  0
 60 53  2  0
 61 66  1  0
 61 63  1  0
 62 65  1  0
 63 67  1  0
 65 64  1  0
 65 98  1  0
 66 62  1  0
 67 52  1  0
 67 64  1  0
 67 68  1  6
 69 70  2  0
 70 89  1  0
 71 74  1  0
 71 70  1  0
 72 73  1  0
 72 69  1  0
 73 71  2  0
 74 75  1  0
 75 76  2  0
 77 80  1  0
 77 76  1  0
 78 77  2  0
 79 78  1  0
 79 74  2  0
 80 81  1  0
 81 86  2  0
 81 82  1  0
 82 83  2  0
 84 83  1  0
 84 88  1  0
 85 84  2  0
 86 85  1  0
 87 86  1  0
 89 90  1  0
 90 92  1  0
 90 93  1  0
 91 89  2  0
 94 69  1  0
 94 95  1  0
 96 94  1  0
 98 97  1  0
M  ISO  4   9 101  10 101  53 100  66 100
M  END
>  <TORSDO>  (70) 
F 25

>  <SCORE>  (70) 
2.961

>  <name>  (70) 
72

>  <ligand_id>  (70) 
72

>  <original_smiles>  (70) 
[H]c1c([H])c([H])c2c(c1[H])C([H])([H])C([H])([H])C([H])([H])C2([H])N([H])C(=O)C1([H])N(C(=O)C([H])(N([H])C(=O)C([H])(N([H])C([H])([H])[H])C([H])([H])[H])C(C([H])([H])[H])(C([H])([H])[H])C([H])([H])[H])C([H])([H])c2c([H])c(OC([H])([H])C([H])([H])C([H])([H])C([H])([H])C([H])(C([H])([H])C([H])([H])[H])C([H])(C([H])([H])[H])C([H])([H])C([H])([H])[N+]3([H])C([H])([H])C([H])([H])N(C(=O)N4C([H])([H])C([H])([H])C([H])([H])C([H])(n5nc(-c6c([H])c([H])c(Oc7c([H])c([H])c(F)c([H])c7F)c([H])c6[H])c(C(=O)N([H])[H])c5N([H])[H])C4([H])[H])C([H])([H])C([H])(C([H])([H])C([H])([H])[H])C3([H])[H])c([H])c([H])c2C1([H])[H]

>  <smiles>  (70) 
[H]c1c([H])c([H])c2c(c1[H])C([H])([H])C([H])([H])C([H])([H])C2([H])N([H])C(=O)C1([H])N(C(=O)C([H])(N([H])C(=O)C([H])(N([H])C([H])([H])[H])C([H])([H])[H])C(C([H])([H])[H])(C([H])([H])[H])C([H])([H])[H])C([H])([H])c2c([H])c(OC([H])([H])C([H])([H])C([H])([H])C([H])([H])C([H])(C([H])([H])C([H])([H])[H])C([H])(C([H])([H])[H])C([H])([H])C([H])([H])[N+]3([H])C([H])([H])C([H])([H])N(C(=O)N4C([H])([H])C([H])([H])C([H])([H])C([H])(n5nc(-c6c([H])c([H])c(Oc7c([H])c([H])c(F)c([H])c7F)c([H])c6[H])c(C(=O)N([H])[H])c5N([H])[H])C4([H])[H])C([H])([H])C([H])(C([H])([H])C([H])([H])[H])C3([H])[H])c([H])c([H])c2C1([H])[H]

$$$$
73:0:0
     RDKit          3D

 98106  0  0  1  0  0  0  0  0999 V2000
  -31.5170  -22.9820   23.9620 C   0  0  0  0  0  2  0  0  0  0  0  0
  -29.6630  -21.6930   25.1480 C   0  0  0  0  0  2  0  0  0  0  0  0
  -30.6470  -24.1760   24.4300 C   0  0  0  0  0  2  0  0  0  0  0  0
  -28.6350  -22.6430   24.4990 C   0  0  0  0  0  2  0  0  0  0  0  0
  -30.9740  -21.5820   24.3430 C   0  0  0  0  0  3  0  0  0  0  0  0
  -29.1780  -24.0010   24.2270 N   0  0  2  0  0  4  0  0  0  0  0  0
  -28.7770  -24.5670   24.9610 H   0  0  0  0  0  0  0  0  0  0  0  0
  -30.8330  -20.6850   23.0990 C   0  0  0  0  0  0  0  0  0  0  0  0
  -31.6500  -19.6260   23.0250 N   0  0  0  0  0  0  0  0  0  0  0  0
  -30.0280  -20.9580   22.2070 O   0  0  0  0  0  0  0  0  0  0  0  0
  -32.3230  -19.5010   23.7730 H   0  0  0  0  0  0  0  0  0  0  0  0
  -31.7780  -18.7390   21.8740 C   0  0  0  0  0  2  0  0  0  0  0  0
  -30.9390  -17.4480   22.0050 C   0  0  0  0  0  2  0  0  0  0  0  0
  -31.2240  -16.5270   20.8030 C   0  0  0  0  0  2  0  0  0  0  0  0
  -31.1830  -14.1530   20.1350 C   0  0  0  0  0  0  0  0  0  0  0  0
  -30.6630  -12.0540   18.9580 C   0  0  0  0  0  2  0  0  0  0  0  0
  -29.7240  -12.3570   17.7740 C   0  0  0  0  0  2  0  0  0  0  0  0
  -28.2540  -12.3040   18.2320 C   0  0  0  0  0  2  0  0  0  0  0  0
  -27.9980  -13.1350   19.5200 C   0  0  0  0  0  3  0  0  0  0  0  0
  -29.0650  -12.8490   20.6020 C   0  0  0  0  0  2  0  0  0  0  0  0
  -30.4010  -13.0460   20.0130 N   0  0  0  0  0  0  0  0  0  0  0  0
  -32.2320  -14.2960   19.5000 O   0  0  0  0  0  0  0  0  0  0  0  0
  -30.7190  -15.1480   20.9130 N   0  0  0  0  0  0  0  0  0  0  0  0
  -29.8880  -14.9750   21.4560 H   0  0  0  0  0  0  0  0  0  0  0  0
  -25.6300  -13.8660   20.2280 C   0  0  0  0  0  0  0  0  0  0  0  0
  -24.5380  -13.1500   20.6460 C   0  0  0  0  0  0  0  0  0  0  0  0
  -24.9480  -11.7820   20.6650 C   0  0  0  0  0  0  0  0  0  0  0  0
  -26.6390  -12.9350   20.0210 N   0  0  0  0  0  0  0  0  0  0  0  0
  -26.2290  -11.6790   20.3380 N   0  0  0  0  0  0  0  0  0  0  0  0
  -24.1790  -10.5580   20.9160 C   0  0  0  0  0  0  0  0  0  0  0  0
  -24.5390   -9.6600   21.9460 C   0  0  0  0  0  3  0  0  0  0  0  0
  -23.7670   -8.5010   22.1860 C   0  0  0  0  0  3  0  0  0  0  0  0
  -22.6240   -8.2330   21.3970 C   0  0  0  0  0  0  0  0  0  0  0  0
  -22.2840   -9.1180   20.3590 C   0  0  0  0  0  3  0  0  0  0  0  0
  -23.0550  -10.2680   20.1170 C   0  0  0  0  0  3  0  0  0  0  0  0
  -21.8350   -7.1150   21.5370 O   0  0  0  0  0  0  0  0  0  0  0  0
  -21.6330   -6.5230   22.7590 C   0  0  0  0  0  0  0  0  0  0  0  0
  -21.0820   -7.2340   23.8480 C   0  0  0  0  0  3  0  0  0  0  0  0
  -20.8330   -6.5700   25.0650 C   0  0  0  0  0  3  0  0  0  0  0  0
  -21.1200   -5.1970   25.1910 C   0  0  0  0  0  0  0  0  0  0  0  0
  -21.6570   -4.4880   24.1050 C   0  0  0  0  0  3  0  0  0  0  0  0
  -21.9130   -5.1490   22.8900 C   0  0  0  0  0  0  0  0  0  0  0  0
  -22.4140   -4.4560   21.8380 F   0  0  0  0  0  0  0  0  0  0  0  0
  -20.8710   -4.5560   26.3570 F   0  0  0  0  0  0  0  0  0  0  0  0
  -23.1680  -13.6950   20.9220 C   0  0  0  0  0  0  0  0  0  0  0  0
  -22.4380  -13.0750   21.8460 N   0  0  0  0  0  0  0  0  0  0  0  0
  -22.7490  -14.7030   20.3530 O   0  0  0  0  0  0  0  0  0  0  0  0
  -22.7920  -12.2630   22.3300 H   0  0  0  0  0  0  0  0  0  0  0  0
  -21.5180  -13.4200   22.0740 H   0  0  0  0  0  0  0  0  0  0  0  0
  -25.8410  -15.2190   19.9910 N   0  0  0  0  0  0  0  0  0  0  0  0
  -25.0970  -15.9040   20.0740 H   0  0  0  0  0  0  0  0  0  0  0  0
  -26.7090  -15.6200   19.6610 H   0  0  0  0  0  0  0  0  0  0  0  0
  -28.6340  -24.6720   23.0180 C   0  0  0  0  0  2  0  0  0  0  0  0
  -29.2490  -24.2240   21.6770 C   0  0  0  0  0  2  0  0  0  0  0  0
  -28.7420  -25.1100   20.5350 C   0  0  0  0  0  2  0  0  0  0  0  0
  -29.1690  -24.6330   19.1340 C   0  0  0  0  0  2  0  0  0  0  0  0
  -29.8710  -25.7050   18.2700 C   0  0  0  0  0  2  0  0  0  0  0  0
  -29.5490  -27.0490   18.6320 O   0  0  0  0  0  0  0  0  0  0  0  0
  -24.8280  -30.3050   22.7900 C   0  0  0  0  0  0  0  0  0  0  0  0
  -28.2300  -27.4260   18.7560 C   0  0  0  0  0  0  0  0  0  0  0  0
  -23.8790  -29.0870   20.8520 C   0  0  0  0  0  3  0  0  0  0  0  0
  -25.5650  -28.2840   19.1130 C   0  0  0  0  0  0  0  0  0  0  0  0
  -26.2470  -30.0370   20.7590 C   0  0  0  0  0  2  0  0  0  0  0  0
  -26.6010  -28.9030   19.8220 C   0  0  0  0  0  0  0  0  0  0  0  0
  -27.9320  -28.4750   19.6500 C   0  0  0  0  0  3  0  0  0  0  0  0
  -27.1760  -26.8330   18.0240 C   0  0  0  0  0  3  0  0  0  0  0  0
  -25.8480  -27.2460   18.2090 C   0  0  0  0  0  3  0  0  0  0  0  0
  -24.1650  -28.7960   19.3550 C   0  0  0  0  0  2  0  0  0  0  0  0
  -25.0010  -29.8130   21.5290 N   0  0  0  0  0  0  0  0  0  0  0  0
  -23.7380  -30.2050   23.3670 O   0  0  0  0  0  0  0  0  0  0  0  0
  -23.5080  -27.7580   21.5440 C   0  0  0  0  0  0  0  0  0  0  0  0
  -22.2380  -27.3430   21.3980 N   0  0  0  0  0  0  0  0  0  0  0  0
  -24.3540  -27.1140   22.1690 O   0  0  0  0  0  0  0  0  0  0  0  0
  -21.6000  -27.9350   20.8790 H   0  0  0  0  0  0  0  0  0  0  0  0
  -19.2040  -25.3970   21.6220 C   0  0  0  0  0  0  0  0  0  0  0  0
  -21.6740  -26.0990   21.9230 C   0  0  0  0  0  3  0  0  0  0  0  0
  -22.0200  -24.9000   21.0070 C   0  0  0  0  0  2  0  0  0  0  0  0
  -20.9420  -24.6120   19.9560 C   0  0  0  0  0  2  0  0  0  0  0  0
  -19.6020  -24.3140   20.6340 C   0  0  0  0  0  2  0  0  0  0  0  0
  -20.1790  -26.2430   22.2170 C   0  0  0  0  0  0  0  0  0  0  0  0
  -19.7540  -27.2570   23.1040 C   0  0  0  0  0  3  0  0  0  0  0  0
  -18.3910  -27.4290   23.4020 C   0  0  0  0  0  3  0  0  0  0  0  0
  -17.4330  -26.5750   22.8260 C   0  0  0  0  0  3  0  0  0  0  0  0
  -17.8410  -25.5610   21.9410 C   0  0  0  0  0  3  0  0  0  0  0  0
  -25.9770  -31.0320   23.5560 C   0  0  0  0  0  3  0  0  0  0  0  0
  -26.6350  -30.1390   24.6800 C   0  0  1  0  0  0  0  0  0  0  0  0
  -25.6130  -29.5130   25.6560 C   0  0  0  0  0  1  0  0  0  0  0  0
  -27.4490  -28.9810   24.0540 C   0  0  0  0  0  1  0  0  0  0  0  0
  -27.6340  -30.9700   25.5100 C   0  0  0  0  0  1  0  0  0  0  0  0
  -25.4230  -32.2630   24.1300 N   0  0  0  0  0  0  0  0  0  0  0  0
  -25.6000  -33.4860   23.6070 C   0  0  0  0  0  0  0  0  0  0  0  0
  -26.3230  -33.6960   22.6290 O   0  0  0  0  0  0  0  0  0  0  0  0
  -24.7770  -32.1550   24.8960 H   0  0  0  0  0  0  0  0  0  0  0  0
  -23.6180  -35.0230   23.4500 C   0  0  0  0  0  1  0  0  0  0  0  0
  -24.8610  -34.6570   24.2770 C   0  0  0  0  0  3  0  0  0  0  0  0
  -26.7680  -35.6860   25.4330 C   0  0  0  0  0  1  0  0  0  0  0  0
  -25.7080  -35.8570   24.4420 N   0  0  0  0  0  0  0  0  0  0  0  0
  -25.1450  -36.6570   24.7140 H   0  0  0  0  0  0  0  0  0  0  0  0
  1  5  1  0
  1  3  1  0
  4  2  1  0
  5  8  1  0
  5  2  1  0
  6  3  1  0
  6  4  1  0
  6  7  1  1
  9  8  1  0
  9 11  1  0
 10  8  2  0
 12 13  1  0
 12  9  1  0
 14 23  1  0
 14 13  1  0
 15 23  1  0
 16 21  1  0
 17 18  1  0
 17 16  1  0
 19 18  1  0
 19 28  1  0
 19 20  1  0
 21 15  1  0
 21 20  1  0
 22 15  2  0
 23 24  1  0
 25 26  2  0
 26 27  1  0
 26 45  1  0
 27 30  1  0
 28 25  1  0
 28 29  1  0
 29 27  2  0
 30 31  1  0
 31 32  2  0
 33 36  1  0
 33 32  1  0
 34 33  2  0
 35 34  1  0
 35 30  2  0
 36 37  1  0
 37 42  2  0
 37 38  1  0
 38 39  2  0
 39 40  1  0
 40 44  1  0
 41 40  2  0
 42 41  1  0
 43 42  1  0
 45 46  1  0
 46 49  1  0
 46 48  1  0
 47 45  2  0
 50 51  1  0
 50 25  1  0
 52 50  1  0
 53  6  1  0
 54 53  1  0
 55 54  1  0
 56 55  1  0
 57 58  1  0
 57 56  1  0
 58 60  1  0
 59 70  2  0
 60 65  1  0
 61 69  1  0
 61 71  1  0
 62 68  1  0
 62 64  1  0
 63 69  1  0
 64 63  1  0
 65 64  2  0
 66 67  1  0
 66 60  2  0
 67 62  2  0
 68 61  1  0
 69 59  1  0
 71 73  2  0
 72 71  1  0
 74 72  1  0
 75 84  2  0
 75 80  1  0
 76 72  1  0
 76 80  1  0
 77 76  1  0
 78 79  1  0
 78 77  1  0
 79 75  1  0
 80 81  2  0
 81 82  1  0
 83 82  2  0
 84 83  1  0
 85 59  1  0
 85 90  1  0
 85 86  1  0
 86 89  1  1
 86 87  1  0
 88 86  1  0
 90 93  1  0
 91 90  1  0
 91 95  1  0
 92 91  2  0
 95 94  1  0
 95 97  1  0
 97 98  1  0
 97 96  1  0
M  ISO  4  15 100  23 100  57 101  58 101
M  END
>  <TORSDO>  (71) 
F 25

>  <SCORE>  (71) 
-1.778

>  <name>  (71) 
73

>  <ligand_id>  (71) 
73

>  <original_smiles>  (71) 
[H]c1c([H])c([H])c2c(c1[H])C([H])([H])C([H])([H])C([H])([H])C2([H])N([H])C(=O)C1([H])N(C(=O)C([H])(N([H])C(=O)C([H])(N([H])C([H])([H])[H])C([H])([H])[H])C(C([H])([H])[H])(C([H])([H])[H])C([H])([H])[H])C([H])([H])c2c([H])c(OC([H])([H])C([H])([H])C([H])([H])C([H])([H])C([H])([H])[N+]3([H])C([H])([H])C([H])([H])C([H])(C(=O)N([H])C([H])([H])C([H])([H])C([H])([H])N([H])C(=O)N4C([H])([H])C([H])([H])C([H])([H])C([H])(n5nc(-c6c([H])c([H])c(Oc7c([H])c([H])c(F)c([H])c7F)c([H])c6[H])c(C(=O)N([H])[H])c5N([H])[H])C4([H])[H])C([H])([H])C3([H])[H])c([H])c([H])c2C1([H])[H]

>  <smiles>  (71) 
[H]c1c([H])c([H])c2c(c1[H])C([H])([H])C([H])([H])C([H])([H])C2([H])N([H])C(=O)C1([H])N(C(=O)C([H])(N([H])C(=O)C([H])(N([H])C([H])([H])[H])C([H])([H])[H])C(C([H])([H])[H])(C([H])([H])[H])C([H])([H])[H])C([H])([H])c2c([H])c(OC([H])([H])C([H])([H])C([H])([H])C([H])([H])C([H])([H])[N+]3([H])C([H])([H])C([H])([H])C([H])(C(=O)N([H])C([H])([H])C([H])([H])C([H])([H])N([H])C(=O)N4C([H])([H])C([H])([H])C([H])([H])C([H])(n5nc(-c6c([H])c([H])c(Oc7c([H])c([H])c(F)c([H])c7F)c([H])c6[H])c(C(=O)N([H])[H])c5N([H])[H])C4([H])[H])C([H])([H])C3([H])[H])c([H])c([H])c2C1([H])[H]

$$$$
74:0:0
     RDKit          3D

100108  0  0  1  0  0  0  0  0999 V2000
  -30.2320  -21.9870   17.9610 C   0  0  0  0  0  2  0  0  0  0  0  0
  -31.0050  -23.2140   18.4860 C   0  0  0  0  0  2  0  0  0  0  0  0
  -29.6240  -23.2390   20.5620 C   0  0  0  0  0  2  0  0  0  0  0  0
  -29.4730  -21.1760   19.0500 C   0  0  0  0  0  3  0  0  0  0  0  0
  -30.1670  -24.1140   19.4190 C   0  0  0  0  0  3  0  0  0  0  0  0
  -28.7070  -22.1220   20.0150 C   0  0  0  0  0  3  0  0  0  0  0  0
  -30.3420  -20.1160   19.7750 C   0  0  0  0  0  0  0  0  0  0  0  0
  -29.8720  -18.8600   19.7510 N   0  0  0  0  0  0  0  0  0  0  0  0
  -31.4020  -20.4230   20.3260 O   0  0  0  0  0  0  0  0  0  0  0  0
  -29.0030  -18.7190   19.2470 H   0  0  0  0  0  0  0  0  0  0  0  0
  -30.6080  -17.6490   20.0990 C   0  0  0  0  0  2  0  0  0  0  0  0
  -30.2990  -17.0440   21.4930 C   0  0  0  0  0  2  0  0  0  0  0  0
  -30.7660  -14.6720   20.8160 C   0  0  0  0  0  0  0  0  0  0  0  0
  -30.5800  -12.5650   19.5520 C   0  0  0  0  0  2  0  0  0  0  0  0
  -29.6820  -12.7910   18.3180 C   0  0  0  0  0  2  0  0  0  0  0  0
  -28.1920  -12.6270   18.6780 C   0  0  0  0  0  2  0  0  0  0  0  0
  -27.7940  -13.4240   19.9470 C   0  0  0  0  0  3  0  0  0  0  0  0
  -28.7900  -13.1420   21.0910 C   0  0  0  0  0  2  0  0  0  0  0  0
  -30.1380  -13.4890   20.6060 N   0  0  0  0  0  0  0  0  0  0  0  0
  -31.8930  -14.9270   20.3740 O   0  0  0  0  0  0  0  0  0  0  0  0
  -30.0030  -15.6100   21.4000 N   0  0  0  0  0  0  0  0  0  0  0  0
  -29.0780  -15.3220   21.6850 H   0  0  0  0  0  0  0  0  0  0  0  0
  -25.3630  -14.0230   20.5390 C   0  0  0  0  0  0  0  0  0  0  0  0
  -24.2800  -13.2450   20.8480 C   0  0  0  0  0  0  0  0  0  0  0  0
  -24.7480  -11.8950   20.8320 C   0  0  0  0  0  0  0  0  0  0  0  0
  -26.4190  -13.1450   20.3500 N   0  0  0  0  0  0  0  0  0  0  0  0
  -26.0490  -11.8600   20.5820 N   0  0  0  0  0  0  0  0  0  0  0  0
  -24.0230  -10.6300   20.9910 C   0  0  0  0  0  0  0  0  0  0  0  0
  -24.4300   -9.6600   21.9320 C   0  0  0  0  0  3  0  0  0  0  0  0
  -23.7060   -8.4550   22.0780 C   0  0  0  0  0  3  0  0  0  0  0  0
  -22.5630   -8.2150   21.2810 C   0  0  0  0  0  0  0  0  0  0  0  0
  -22.1750   -9.1760   20.3300 C   0  0  0  0  0  3  0  0  0  0  0  0
  -22.8970  -10.3710   20.1830 C   0  0  0  0  0  3  0  0  0  0  0  0
  -21.8120   -7.0640   21.3350 O   0  0  0  0  0  0  0  0  0  0  0  0
  -21.7350   -6.3090   22.4760 C   0  0  0  0  0  0  0  0  0  0  0  0
  -21.2790   -6.8490   23.6980 C   0  0  0  0  0  3  0  0  0  0  0  0
  -21.1500   -6.0200   24.8300 C   0  0  0  0  0  3  0  0  0  0  0  0
  -21.4660   -4.6510   24.7400 C   0  0  0  0  0  0  0  0  0  0  0  0
  -21.9150   -4.1100   23.5230 C   0  0  0  0  0  3  0  0  0  0  0  0
  -22.0490   -4.9360   22.3930 C   0  0  0  0  0  0  0  0  0  0  0  0
  -22.4620   -4.4060   21.2150 F   0  0  0  0  0  0  0  0  0  0  0  0
  -21.3350   -3.8500   25.8260 F   0  0  0  0  0  0  0  0  0  0  0  0
  -22.8690  -13.7150   21.0580 C   0  0  0  0  0  0  0  0  0  0  0  0
  -22.1080  -13.0170   21.8930 N   0  0  0  0  0  0  0  0  0  0  0  0
  -22.4480  -14.7330   20.5110 O   0  0  0  0  0  0  0  0  0  0  0  0
  -22.4600  -12.1910   22.3500 H   0  0  0  0  0  0  0  0  0  0  0  0
  -21.1590  -13.3130   22.0730 H   0  0  0  0  0  0  0  0  0  0  0  0
  -25.5380  -15.3960   20.3930 N   0  0  0  0  0  0  0  0  0  0  0  0
  -24.7910  -16.0620   20.5580 H   0  0  0  0  0  0  0  0  0  0  0  0
  -26.4310  -15.8400   20.2130 H   0  0  0  0  0  0  0  0  0  0  0  0
  -31.0220  -25.3210   19.8700 C   0  0  0  0  0  2  0  0  0  0  0  0
  -31.3990  -27.4910   21.0920 C   0  0  0  0  0  1  0  0  0  0  0  0
  -30.5480  -26.2060   21.0500 C   0  0  0  0  0  3  0  0  0  0  0  0
  -29.0560  -26.5760   21.0660 C   0  0  0  0  0  2  0  0  0  0  0  0
  -28.6600  -27.0530   19.7900 O   0  0  0  0  0  0  0  0  0  0  0  0
  -24.5490  -31.7970   23.1010 C   0  0  0  0  0  0  0  0  0  0  0  0
  -27.4600  -27.6990   19.8350 C   0  0  0  0  0  0  0  0  0  0  0  0
  -23.4250  -30.3860   21.3990 C   0  0  0  0  0  3  0  0  0  0  0  0
  -24.9710  -29.0000   19.9190 C   0  0  0  0  0  0  0  0  0  0  0  0
  -25.9170  -30.9230   21.2160 C   0  0  0  0  0  2  0  0  0  0  0  0
  -26.0880  -29.5880   20.5270 C   0  0  0  0  0  0  0  0  0  0  0  0
  -27.3350  -28.9390   20.4940 C   0  0  0  0  0  3  0  0  0  0  0  0
  -26.3420  -27.1130   19.2180 C   0  0  0  0  0  3  0  0  0  0  0  0
  -25.0900  -27.7580   19.2640 C   0  0  0  0  0  3  0  0  0  0  0  0
  -23.6740  -29.7690   19.9940 C   0  0  0  0  0  2  0  0  0  0  0  0
  -24.6470  -31.0480   21.9660 N   0  0  0  0  0  0  0  0  0  0  0  0
  -23.4550  -31.9860   23.6490 O   0  0  0  0  0  0  0  0  0  0  0  0
  -22.8410  -29.2930   22.3210 C   0  0  0  0  0  0  0  0  0  0  0  0
  -21.5260  -29.0580   22.2030 N   0  0  0  0  0  0  0  0  0  0  0  0
  -23.5670  -28.6590   23.0920 O   0  0  0  0  0  0  0  0  0  0  0  0
  -21.0030  -29.6320   21.5580 H   0  0  0  0  0  0  0  0  0  0  0  0
  -18.2160  -27.6870   22.6720 C   0  0  0  0  0  0  0  0  0  0  0  0
  -20.7630  -28.0480   22.9350 C   0  0  0  0  0  3  0  0  0  0  0  0
  -20.9230  -26.6520   22.2900 C   0  0  0  0  0  2  0  0  0  0  0  0
  -19.8250  -26.3250   21.2720 C   0  0  0  0  0  2  0  0  0  0  0  0
  -18.4440  -26.3780   21.9360 C   0  0  0  0  0  2  0  0  0  0  0  0
  -19.3040  -28.4790   23.1250 C   0  0  0  0  0  0  0  0  0  0  0  0
  -19.0400  -29.7010   23.7790 C   0  0  0  0  0  3  0  0  0  0  0  0
  -17.7160  -30.1380   23.9800 C   0  0  0  0  0  3  0  0  0  0  0  0
  -16.6420  -29.3460   23.5390 C   0  0  0  0  0  3  0  0  0  0  0  0
  -16.8920  -28.1240   22.8920 C   0  0  0  0  0  3  0  0  0  0  0  0
  -25.8030  -32.4720   23.7480 C   0  0  0  0  0  3  0  0  0  0  0  0
  -26.3660  -31.6840   24.9940 C   0  0  1  0  0  0  0  0  0  0  0  0
  -25.2910  -31.3450   26.0530 C   0  0  0  0  0  1  0  0  0  0  0  0
  -27.0220  -30.3590   24.5410 C   0  0  0  0  0  1  0  0  0  0  0  0
  -27.4790  -32.5140   25.6810 C   0  0  0  0  0  1  0  0  0  0  0  0
  -25.4210  -33.8380   24.1250 N   0  0  0  0  0  0  0  0  0  0  0  0
  -25.7010  -34.9320   23.4040 C   0  0  0  0  0  0  0  0  0  0  0  0
  -26.3780  -34.9020   22.3730 O   0  0  0  0  0  0  0  0  0  0  0  0
  -24.8140  -33.9350   24.9270 H   0  0  0  0  0  0  0  0  0  0  0  0
  -23.8780  -36.6360   23.0990 C   0  0  0  0  0  1  0  0  0  0  0  0
  -25.1350  -36.2740   23.9060 C   0  0  0  0  0  3  0  0  0  0  0  0
  -27.2120  -37.2380   24.7850 C   0  0  0  0  0  1  0  0  0  0  0  0
  -26.1100  -37.3850   23.8380 N   0  0  0  0  0  0  0  0  0  0  0  0
  -25.6530  -38.2750   24.0210 H   0  0  0  0  0  0  0  0  0  0  0  0
  -27.9720  -21.3670   21.1500 C   0  0  0  0  0  2  0  0  0  0  0  0
  -27.0320  -22.2240   21.8920 N   0  0  0  0  0  4  0  0  0  0  0  0
  -27.5060  -22.9890   22.3360 H   0  0  0  0  0  0  0  0  0  0  0  0
  -26.5820  -21.6830   22.6090 H   0  0  0  0  0  0  0  0  0  0  0  0
  -26.3200  -22.5890   21.2850 H   0  0  0  0  0  0  0  0  0  0  0  0
  1  2  1  0
  1  4  1  0
  2  5  1  0
  4  7  1  0
  4  6  1  0
  5 51  1  0
  5  3  1  0
  6  3  1  0
  6 96  1  0
  7  9  2  0
  8  7  1  0
  8 11  1  0
 10  8  1  0
 11 12  1  0
 13 21  1  0
 14 19  1  0
 15 16  1  0
 15 14  1  0
 17 16  1  0
 17 26  1  0
 17 18  1  0
 19 13  1  0
 19 18  1  0
 20 13  2  0
 21 12  1  0
 21 22  1  0
 23 24  2  0
 24 43  1  0
 25 24  1  0
 25 28  1  0
 26 23  1  0
 26 27  1  0
 27 25  2  0
 28 29  1  0
 29 30  2  0
 31 34  1  0
 31 30  1  0
 32 31  2  0
 33 32  1  0
 33 28  2  0
 34 35  1  0
 35 36  1  0
 36 37  2  0
 38 37  1  0
 38 42  1  0
 39 38  2  0
 40 35  2  0
 40 39  1  0
 41 40  1  0
 43 44  1  0
 44 47  1  0
 44 46  1  0
 45 43  2  0
 48 23  1  0
 48 49  1  0
 50 48  1  0
 51 53  1  0
 53 54  1  0
 53 52  1  0
 55 57  1  0
 55 54  1  0
 56 67  2  0
 57 62  1  0
 58 66  1  0
 58 68  1  0
 59 65  1  0
 59 61  1  0
 60 66  1  0
 61 60  1  0
 62 61  2  0
 63 64  1  0
 63 57  2  0
 64 59  2  0
 65 58  1  0
 66 56  1  0
 68 70  2  0
 69 68  1  0
 71 69  1  0
 72 81  2  0
 72 77  1  0
 73 69  1  0
 73 77  1  0
 74 73  1  0
 75 76  1  0
 75 74  1  0
 76 72  1  0
 77 78  2  0
 78 79  1  0
 80 79  2  0
 81 80  1  0
 82 56  1  0
 82 87  1  0
 82 83  1  0
 83 86  1  1
 83 84  1  0
 85 83  1  0
 87 90  1  0
 88 92  1  0
 88 87  1  0
 89 88  2  0
 92 91  1  0
 94 92  1  0
 94 95  1  0
 94 93  1  0
 96 97  1  0
 97 98  1  0
 97 99  1  0
100 97  1  0
M  ISO  4  13 100  21 100  54 101  55 101
M  END
>  <TORSDO>  (72) 
F 24

>  <SCORE>  (72) 
-12.438

>  <name>  (72) 
74

>  <ligand_id>  (72) 
74

>  <original_smiles>  (72) 
[H]c1c([H])c([H])c2c(c1[H])C([H])([H])C([H])([H])C([H])([H])C2([H])N([H])C(=O)C1([H])N(C(=O)C([H])(N([H])C(=O)C([H])(N([H])C([H])([H])[H])C([H])([H])[H])C(C([H])([H])[H])(C([H])([H])[H])C([H])([H])[H])C([H])([H])c2c([H])c(OC([H])([H])C([H])(C([H])([H])[H])C([H])([H])C3([H])C([H])([H])C([H])([H])C([H])(C(=O)N([H])C([H])([H])C([H])([H])N([H])C(=O)N4C([H])([H])C([H])([H])C([H])([H])C([H])(n5nc(-c6c([H])c([H])c(Oc7c([H])c([H])c(F)c([H])c7F)c([H])c6[H])c(C(=O)N([H])[H])c5N([H])[H])C4([H])[H])C([H])(C([H])([H])[N+]([H])([H])[H])C3([H])[H])c([H])c([H])c2C1([H])[H]

>  <smiles>  (72) 
[H]c1c([H])c([H])c2c(c1[H])C([H])([H])C([H])([H])C([H])([H])C2([H])N([H])C(=O)C1([H])N(C(=O)C([H])(N([H])C(=O)C([H])(N([H])C([H])([H])[H])C([H])([H])[H])C(C([H])([H])[H])(C([H])([H])[H])C([H])([H])[H])C([H])([H])c2c([H])c(OC([H])([H])C([H])(C([H])([H])[H])C([H])([H])C3([H])C([H])([H])C([H])([H])C([H])(C(=O)N([H])C([H])([H])C([H])([H])N([H])C(=O)N4C([H])([H])C([H])([H])C([H])([H])C([H])(n5nc(-c6c([H])c([H])c(Oc7c([H])c([H])c(F)c([H])c7F)c([H])c6[H])c(C(=O)N([H])[H])c5N([H])[H])C4([H])[H])C([H])(C([H])([H])[N+]([H])([H])[H])C3([H])[H])c([H])c([H])c2C1([H])[H]

$$$$
75:0:0
     RDKit          3D

 97105  0  0  1  0  0  0  0  0999 V2000
  -28.2950  -20.5330   20.3440 C   0  0  0  0  0  0  0  0  0  0  0  0
  -27.5060  -21.5340   20.7500 N   0  0  0  0  0  0  0  0  0  0  0  0
  -28.6560  -20.4010   19.1730 O   0  0  0  0  0  0  0  0  0  0  0  0
  -27.2490  -21.5360   21.7290 H   0  0  0  0  0  0  0  0  0  0  0  0
  -29.2190  -18.1740   20.9260 C   0  0  0  0  0  2  0  0  0  0  0  0
  -29.9220  -20.1230   22.2510 C   0  0  0  0  0  2  0  0  0  0  0  0
  -30.6250  -17.9410   21.5140 C   0  0  0  0  0  3  0  0  0  0  0  0
  -28.7390  -19.5530   21.4440 C   0  0  0  0  0  3  0  0  0  0  0  0
  -31.1610  -19.3660   21.7680 C   0  0  0  0  0  3  0  0  0  0  0  0
  -31.7390  -14.7770   19.8500 C   0  0  0  0  0  0  0  0  0  0  0  0
  -31.3150  -12.5640   18.8580 C   0  0  0  0  0  2  0  0  0  0  0  0
  -30.2780  -12.7070   17.7270 C   0  0  0  0  0  2  0  0  0  0  0  0
  -28.8470  -12.6060   18.2880 C   0  0  0  0  0  2  0  0  0  0  0  0
  -28.6180  -13.5300   19.5140 C   0  0  0  0  0  3  0  0  0  0  0  0
  -29.7600  -13.3650   20.5460 C   0  0  0  0  0  2  0  0  0  0  0  0
  -31.0420  -13.6080   19.8570 N   0  0  0  0  0  0  0  0  0  0  0  0
  -32.7660  -14.9240   19.1790 O   0  0  0  0  0  0  0  0  0  0  0  0
  -31.5110  -17.0660   20.6090 C   0  0  0  0  0  0  0  0  0  0  0  0
  -31.1730  -15.7640   20.5660 N   0  0  0  0  0  0  0  0  0  0  0  0
  -32.4490  -17.5760   19.9850 O   0  0  0  0  0  0  0  0  0  0  0  0
  -30.3620  -15.5000   21.1010 H   0  0  0  0  0  0  0  0  0  0  0  0
  -26.3780  -14.2210   20.5800 C   0  0  0  0  0  0  0  0  0  0  0  0
  -25.2940  -13.4890   20.9870 C   0  0  0  0  0  0  0  0  0  0  0  0
  -25.6240  -12.1230   20.7350 C   0  0  0  0  0  0  0  0  0  0  0  0
  -27.3070  -13.3000   20.1180 N   0  0  0  0  0  0  0  0  0  0  0  0
  -26.8610  -12.0260   20.2640 N   0  0  0  0  0  0  0  0  0  0  0  0
  -24.8130  -10.9060   20.8640 C   0  0  0  0  0  0  0  0  0  0  0  0
  -25.1520   -9.8890   21.7830 C   0  0  0  0  0  3  0  0  0  0  0  0
  -24.3500   -8.7320   21.9010 C   0  0  0  0  0  3  0  0  0  0  0  0
  -23.1940   -8.5870   21.0990 C   0  0  0  0  0  0  0  0  0  0  0  0
  -22.8730   -9.5920   20.1690 C   0  0  0  0  0  3  0  0  0  0  0  0
  -23.6750  -10.7400   20.0500 C   0  0  0  0  0  3  0  0  0  0  0  0
  -22.3660   -7.4910   21.1300 O   0  0  0  0  0  0  0  0  0  0  0  0
  -22.0910   -6.8300   22.3000 C   0  0  0  0  0  0  0  0  0  0  0  0
  -21.4980   -7.4830   23.4020 C   0  0  0  0  0  3  0  0  0  0  0  0
  -21.1680   -6.7500   24.5590 C   0  0  0  0  0  3  0  0  0  0  0  0
  -21.4190   -5.3660   24.6130 C   0  0  0  0  0  0  0  0  0  0  0  0
  -22.0030   -4.7130   23.5140 C   0  0  0  0  0  3  0  0  0  0  0  0
  -22.3360   -5.4430   22.3590 C   0  0  0  0  0  0  0  0  0  0  0  0
  -22.8790   -4.8050   21.2950 F   0  0  0  0  0  0  0  0  0  0  0  0
  -21.0940   -4.6600   25.7220 F   0  0  0  0  0  0  0  0  0  0  0  0
  -23.9870  -14.0310   21.4890 C   0  0  0  0  0  0  0  0  0  0  0  0
  -23.3270  -13.3090   22.3870 N   0  0  0  0  0  0  0  0  0  0  0  0
  -23.5670  -15.1270   21.1210 O   0  0  0  0  0  0  0  0  0  0  0  0
  -23.6780  -12.4170   22.7050 H   0  0  0  0  0  0  0  0  0  0  0  0
  -22.4530  -13.6500   22.7620 H   0  0  0  0  0  0  0  0  0  0  0  0
  -26.6470  -15.5850   20.5510 N   0  0  0  0  0  0  0  0  0  0  0  0
  -25.9530  -16.2710   20.8240 H   0  0  0  0  0  0  0  0  0  0  0  0
  -27.4780  -15.9980   20.1490 H   0  0  0  0  0  0  0  0  0  0  0  0
  -32.9550  -20.8440   22.8530 C   0  0  0  0  0  1  0  0  0  0  0  0
  -32.3530  -19.4360   22.7440 C   0  0  0  0  0  2  0  0  0  0  0  0
  -27.0090  -22.6480   19.9490 C   0  0  0  0  0  2  0  0  0  0  0  0
  -27.8630  -23.9190   20.1410 C   0  0  0  0  0  2  0  0  0  0  0  0
  -29.0610  -24.0080   19.1780 C   0  0  0  0  0  2  0  0  0  0  0  0
  -30.2500  -24.8370   19.7050 C   0  0  0  0  0  2  0  0  0  0  0  0
  -29.8910  -26.2580   20.1690 C   0  0  0  0  0  2  0  0  0  0  0  0
  -29.3910  -27.0110   19.0710 O   0  0  0  0  0  0  0  0  0  0  0  0
  -25.9220  -30.8280   23.9760 C   0  0  0  0  0  0  0  0  0  0  0  0
  -28.2960  -27.7670   19.3940 C   0  0  0  0  0  0  0  0  0  0  0  0
  -24.6380  -30.2350   21.9460 C   0  0  0  0  0  3  0  0  0  0  0  0
  -25.9980  -29.2690   20.0170 C   0  0  0  0  0  0  0  0  0  0  0  0
  -27.1790  -30.4880   21.8550 C   0  0  0  0  0  2  0  0  0  0  0  0
  -27.1790  -29.4620   20.7460 C   0  0  0  0  0  0  0  0  0  0  0  0
  -28.3310  -28.7100   20.4430 C   0  0  0  0  0  3  0  0  0  0  0  0
  -27.1090  -27.5840   18.6590 C   0  0  0  0  0  3  0  0  0  0  0  0
  -25.9540  -28.3240   18.9730 C   0  0  0  0  0  3  0  0  0  0  0  0
  -24.8090  -30.1140   20.4080 C   0  0  0  0  0  2  0  0  0  0  0  0
  -25.9310  -30.5070   22.6520 N   0  0  0  0  0  0  0  0  0  0  0  0
  -24.8580  -30.9440   24.5990 O   0  0  0  0  0  0  0  0  0  0  0  0
  -23.9170  -28.9670   22.4600 C   0  0  0  0  0  0  0  0  0  0  0  0
  -22.5960  -28.8970   22.2290 N   0  0  0  0  0  0  0  0  0  0  0  0
  -24.5440  -28.0660   23.0220 O   0  0  0  0  0  0  0  0  0  0  0  0
  -22.1550  -29.6800   21.7680 H   0  0  0  0  0  0  0  0  0  0  0  0
  -19.1870  -27.7170   22.0640 C   0  0  0  0  0  0  0  0  0  0  0  0
  -21.7170  -27.7840   22.5850 C   0  0  0  0  0  3  0  0  0  0  0  0
  -21.8550  -26.6210   21.5760 C   0  0  0  0  0  2  0  0  0  0  0  0
  -20.8320  -26.6850   20.4380 C   0  0  0  0  0  2  0  0  0  0  0  0
  -19.4050  -26.6580   20.9960 C   0  0  0  0  0  2  0  0  0  0  0  0
  -20.2750  -28.2570   22.7990 C   0  0  0  0  0  0  0  0  0  0  0  0
  -20.0230  -29.2660   23.7550 C   0  0  0  0  0  3  0  0  0  0  0  0
  -18.7140  -29.7290   23.9840 C   0  0  0  0  0  3  0  0  0  0  0  0
  -17.6390  -29.1790   23.2640 C   0  0  0  0  0  3  0  0  0  0  0  0
  -17.8760  -28.1730   22.3090 C   0  0  0  0  0  3  0  0  0  0  0  0
  -27.2460  -31.0910   24.7630 C   0  0  0  0  0  3  0  0  0  0  0  0
  -27.0470  -32.3010   25.5720 N   0  0  0  0  0  0  0  0  0  0  0  0
  -27.5210  -33.5130   25.2540 C   0  0  0  0  0  0  0  0  0  0  0  0
  -28.2420  -33.7150   24.2740 O   0  0  0  0  0  0  0  0  0  0  0  0
  -26.4230  -32.2220   26.3620 H   0  0  0  0  0  0  0  0  0  0  0  0
  -26.0120  -35.5090   25.5080 C   0  0  0  0  0  1  0  0  0  0  0  0
  -27.1310  -34.6900   26.1710 C   0  0  0  0  0  3  0  0  0  0  0  0
  -29.2580  -34.9380   27.3720 C   0  0  0  0  0  1  0  0  0  0  0  0
  -28.2670  -35.5750   26.5080 N   0  0  0  0  0  0  0  0  0  0  0  0
  -27.9410  -36.4210   26.9670 H   0  0  0  0  0  0  0  0  0  0  0  0
  -27.6820  -29.8780   25.6720 C   0  0  1  0  0  0  0  0  0  0  0  0
  -26.5560  -29.3620   26.5980 C   0  0  0  0  0  1  0  0  0  0  0  0
  -28.1600  -28.6910   24.8030 C   0  0  0  0  0  1  0  0  0  0  0  0
  -28.8810  -30.2880   26.5570 C   0  0  0  0  0  1  0  0  0  0  0  0
  1  2  1  0
  2  4  1  0
  3  1  2  0
  5  8  1  0
  5  7  1  0
  7 18  1  0
  7  9  1  0
  8  1  1  0
  8  6  1  0
  9  6  1  0
  9 51  1  0
 10 16  1  0
 10 19  1  0
 11 16  1  0
 12 13  1  0
 12 11  1  0
 14 13  1  0
 14 25  1  0
 14 15  1  0
 16 15  1  0
 17 10  2  0
 19 18  1  0
 19 21  1  0
 20 18  2  0
 22 23  2  0
 23 42  1  0
 24 27  1  0
 24 23  1  0
 25 26  1  0
 25 22  1  0
 26 24  2  0
 27 28  1  0
 28 29  2  0
 30 33  1  0
 30 29  1  0
 31 30  2  0
 32 31  1  0
 32 27  2  0
 33 34  1  0
 34 39  2  0
 34 35  1  0
 35 36  2  0
 36 37  1  0
 37 41  1  0
 38 37  2  0
 39 38  1  0
 40 39  1  0
 42 43  1  0
 43 45  1  0
 43 46  1  0
 44 42  2  0
 47 22  1  0
 47 48  1  0
 49 47  1  0
 51 50  1  0
 52 53  1  0
 52  2  1  0
 54 55  1  0
 54 53  1  0
 55 56  1  0
 57 59  1  0
 57 56  1  0
 58 69  2  0
 59 64  1  0
 60 70  1  0
 60 68  1  0
 61 67  1  0
 61 63  1  0
 62 68  1  0
 63 62  1  0
 64 63  2  0
 65 66  1  0
 65 59  2  0
 66 61  2  0
 67 60  1  0
 68 58  1  0
 70 72  2  0
 71 70  1  0
 73 71  1  0
 74 83  2  0
 74 79  1  0
 75 71  1  0
 75 79  1  0
 76 75  1  0
 77 78  1  0
 77 76  1  0
 78 74  1  0
 79 80  2  0
 80 81  1  0
 82 81  2  0
 83 82  1  0
 84 58  1  0
 84 85  1  0
 84 94  1  0
 85 88  1  0
 86 85  1  0
 86 90  1  0
 87 86  2  0
 90 89  1  0
 90 92  1  0
 92 93  1  0
 92 91  1  0
 94 97  1  1
 94 95  1  0
 96 94  1  0
M  ISO  4  10 100  19 100  56 101  57 101
M  END
>  <TORSDO>  (73) 
F 23

>  <SCORE>  (73) 
-6.968

>  <name>  (73) 
75

>  <ligand_id>  (73) 
75

>  <original_smiles>  (73) 
[H]c1c([H])c([H])c2c(c1[H])C([H])([H])C([H])([H])C([H])([H])C2([H])N([H])C(=O)C1([H])N(C(=O)C([H])(N([H])C(=O)C([H])(N([H])C([H])([H])[H])C([H])([H])[H])C(C([H])([H])[H])(C([H])([H])[H])C([H])([H])[H])C([H])([H])c2c([H])c(OC([H])([H])C([H])([H])C([H])([H])C([H])([H])C([H])([H])N([H])C(=O)C3([H])C([H])([H])C([H])(C(=O)N([H])C(=O)N4C([H])([H])C([H])([H])C([H])([H])C([H])(n5nc(-c6c([H])c([H])c(Oc7c([H])c([H])c(F)c([H])c7F)c([H])c6[H])c(C(=O)N([H])[H])c5N([H])[H])C4([H])[H])C([H])(C([H])([H])C([H])([H])[H])C3([H])[H])c([H])c([H])c2C1([H])[H]

>  <smiles>  (73) 
[H]c1c([H])c([H])c2c(c1[H])C([H])([H])C([H])([H])C([H])([H])C2([H])N([H])C(=O)C1([H])N(C(=O)C([H])(N([H])C(=O)C([H])(N([H])C([H])([H])[H])C([H])([H])[H])C(C([H])([H])[H])(C([H])([H])[H])C([H])([H])[H])C([H])([H])c2c([H])c(OC([H])([H])C([H])([H])C([H])([H])C([H])([H])C([H])([H])N([H])C(=O)C3([H])C([H])([H])C([H])(C(=O)N([H])C(=O)N4C([H])([H])C([H])([H])C([H])([H])C([H])(n5nc(-c6c([H])c([H])c(Oc7c([H])c([H])c(F)c([H])c7F)c([H])c6[H])c(C(=O)N([H])[H])c5N([H])[H])C4([H])[H])C([H])(C([H])([H])C([H])([H])[H])C3([H])[H])c([H])c([H])c2C1([H])[H]

$$$$
76:0:0
     RDKit          3D

 98106  0  0  1  0  0  0  0  0999 V2000
  -30.4240  -22.6970   17.8390 C   0  0  0  0  0  2  0  0  0  0  0  0
  -27.9340  -21.9540   17.8170 C   0  0  0  0  0  1  0  0  0  0  0  0
  -29.3690  -21.6470   18.3010 C   0  0  0  0  0  3  0  0  0  0  0  0
  -29.7580  -20.2200   17.8480 C   0  0  0  0  0  2  0  0  0  0  0  0
  -30.9640  -19.5890   18.5900 C   0  0  0  0  0  2  0  0  0  0  0  0
  -30.7730  -14.4070   20.1700 C   0  0  0  0  0  0  0  0  0  0  0  0
  -30.3630  -12.2840   19.0040 C   0  0  0  0  0  2  0  0  0  0  0  0
  -29.3790  -12.5260   17.8440 C   0  0  0  0  0  2  0  0  0  0  0  0
  -27.9230  -12.3840   18.3310 C   0  0  0  0  0  2  0  0  0  0  0  0
  -27.6350  -13.1960   19.6210 C   0  0  0  0  0  3  0  0  0  0  0  0
  -28.7450  -12.9890   20.6810 C   0  0  0  0  0  2  0  0  0  0  0  0
  -30.0470  -13.2640   20.0490 N   0  0  0  0  0  0  0  0  0  0  0  0
  -31.9040  -14.5520   19.7010 O   0  0  0  0  0  0  0  0  0  0  0  0
  -29.3700  -16.3220   19.6820 C   0  0  0  0  0  2  0  0  0  0  0  0
  -30.5920  -16.1320   21.8800 C   0  0  0  0  0  2  0  0  0  0  0  0
  -30.2520  -17.2520   18.8390 C   0  0  0  0  0  2  0  0  0  0  0  0
  -31.3970  -18.3510   20.7200 C   0  0  0  0  0  2  0  0  0  0  0  0
  -30.6430  -17.6880   21.9050 C   0  0  0  0  0  3  0  0  0  0  0  0
  -31.2680  -18.1410   23.2360 C   0  0  0  0  0  1  0  0  0  0  0  0
  -30.1110  -15.4860   20.6430 N   0  0  0  0  0  0  0  0  0  0  0  0
  -30.5230  -18.5270   19.5340 N   0  0  1  0  0  4  0  0  0  0  0  0
  -29.6450  -18.8660   19.8940 H   0  0  0  0  0  0  0  0  0  0  0  0
  -25.2810  -13.8380   20.4160 C   0  0  0  0  0  0  0  0  0  0  0  0
  -24.2170  -13.0730   20.8180 C   0  0  0  0  0  0  0  0  0  0  0  0
  -24.6660  -11.7190   20.7680 C   0  0  0  0  0  0  0  0  0  0  0  0
  -26.3050  -12.9410   20.1520 N   0  0  0  0  0  0  0  0  0  0  0  0
  -25.9450  -11.6650   20.4220 N   0  0  0  0  0  0  0  0  0  0  0  0
  -23.9400  -10.4630   20.9790 C   0  0  0  0  0  0  0  0  0  0  0  0
  -24.3980   -9.4940   21.8970 C   0  0  0  0  0  3  0  0  0  0  0  0
  -23.6730   -8.3010   22.0930 C   0  0  0  0  0  3  0  0  0  0  0  0
  -22.4760   -8.0720   21.3720 C   0  0  0  0  0  0  0  0  0  0  0  0
  -22.0410   -9.0290   20.4400 C   0  0  0  0  0  3  0  0  0  0  0  0
  -22.7670  -10.2150   20.2420 C   0  0  0  0  0  3  0  0  0  0  0  0
  -21.7200   -6.9300   21.4790 O   0  0  0  0  0  0  0  0  0  0  0  0
  -21.6960   -6.1910   22.6340 C   0  0  0  0  0  0  0  0  0  0  0  0
  -21.2990   -6.7490   23.8700 C   0  0  0  0  0  3  0  0  0  0  0  0
  -21.2220   -5.9350   25.0170 C   0  0  0  0  0  3  0  0  0  0  0  0
  -21.5310   -4.5630   24.9310 C   0  0  0  0  0  0  0  0  0  0  0  0
  -21.9210   -4.0070   23.7010 C   0  0  0  0  0  3  0  0  0  0  0  0
  -22.0000   -4.8180   22.5560 C   0  0  0  0  0  0  0  0  0  0  0  0
  -22.3570   -4.2680   21.3690 F   0  0  0  0  0  0  0  0  0  0  0  0
  -21.4490   -3.7800   26.0330 F   0  0  0  0  0  0  0  0  0  0  0  0
  -22.8330  -13.5660   21.1330 C   0  0  0  0  0  0  0  0  0  0  0  0
  -22.1290  -12.8730   22.0210 N   0  0  0  0  0  0  0  0  0  0  0  0
  -22.3880  -14.5950   20.6280 O   0  0  0  0  0  0  0  0  0  0  0  0
  -22.5020  -12.0410   22.4530 H   0  0  0  0  0  0  0  0  0  0  0  0
  -21.2010  -13.1810   22.2740 H   0  0  0  0  0  0  0  0  0  0  0  0
  -25.4500  -15.2090   20.2340 N   0  0  0  0  0  0  0  0  0  0  0  0
  -24.6900  -15.8680   20.3720 H   0  0  0  0  0  0  0  0  0  0  0  0
  -26.3000  -15.6460   19.8990 H   0  0  0  0  0  0  0  0  0  0  0  0
  -29.9860  -24.1880   17.8900 C   0  0  0  0  0  3  0  0  0  0  0  0
  -32.4110  -24.9560   17.5540 C   0  0  0  0  0  1  0  0  0  0  0  0
  -30.9420  -25.1640   17.1480 C   0  0  0  0  0  3  0  0  0  0  0  0
  -29.4250  -25.7510   15.1480 C   0  0  0  0  0  1  0  0  0  0  0  0
  -30.7720  -25.1720   15.6110 C   0  0  0  0  0  2  0  0  0  0  0  0
  -29.6880  -24.7170   19.3220 C   0  0  0  0  0  2  0  0  0  0  0  0
  -28.3380  -25.4460   19.3980 C   0  0  0  0  0  2  0  0  0  0  0  0
  -28.3650  -26.6690   20.1390 O   0  0  0  0  0  0  0  0  0  0  0  0
  -24.5660  -31.8450   23.2550 C   0  0  0  0  0  0  0  0  0  0  0  0
  -27.1830  -27.3930   20.1560 C   0  0  0  0  0  0  0  0  0  0  0  0
  -23.3520  -30.4530   21.6130 C   0  0  0  0  0  3  0  0  0  0  0  0
  -24.7950  -28.9180   20.1890 C   0  0  0  0  0  0  0  0  0  0  0  0
  -25.8820  -30.7970   21.4200 C   0  0  0  0  0  2  0  0  0  0  0  0
  -25.9600  -29.4280   20.7750 C   0  0  0  0  0  0  0  0  0  0  0  0
  -27.1570  -28.6720   20.7600 C   0  0  0  0  0  3  0  0  0  0  0  0
  -25.9830  -26.9000   19.5810 C   0  0  0  0  0  3  0  0  0  0  0  0
  -24.8000  -27.6490   19.5980 C   0  0  0  0  0  3  0  0  0  0  0  0
  -23.5590  -29.7870   20.2320 C   0  0  0  0  0  2  0  0  0  0  0  0
  -24.6180  -31.0450   22.1540 N   0  0  0  0  0  0  0  0  0  0  0  0
  -23.4870  -32.1230   23.7960 O   0  0  0  0  0  0  0  0  0  0  0  0
  -22.6980  -29.4270   22.5680 C   0  0  0  0  0  0  0  0  0  0  0  0
  -21.3750  -29.2470   22.4400 N   0  0  0  0  0  0  0  0  0  0  0  0
  -23.3800  -28.7990   23.3830 O   0  0  0  0  0  0  0  0  0  0  0  0
  -20.8820  -29.8060   21.7580 H   0  0  0  0  0  0  0  0  0  0  0  0
  -17.9990  -28.0610   22.9270 C   0  0  0  0  0  0  0  0  0  0  0  0
  -20.5560  -28.3110   23.2080 C   0  0  0  0  0  3  0  0  0  0  0  0
  -20.6570  -26.8790   22.6360 C   0  0  0  0  0  2  0  0  0  0  0  0
  -19.5580  -26.5580   21.6180 C   0  0  0  0  0  2  0  0  0  0  0  0
  -18.1740  -26.7090   22.2560 C   0  0  0  0  0  2  0  0  0  0  0  0
  -19.1170  -28.8200   23.3610 C   0  0  0  0  0  0  0  0  0  0  0  0
  -18.9000  -30.0870   23.9440 C   0  0  0  0  0  3  0  0  0  0  0  0
  -17.5970  -30.5940   24.1000 C   0  0  0  0  0  3  0  0  0  0  0  0
  -16.4930  -29.8310   23.6850 C   0  0  0  0  0  3  0  0  0  0  0  0
  -16.6940  -28.5670   23.1030 C   0  0  0  0  0  3  0  0  0  0  0  0
  -25.8590  -32.4670   23.8710 C   0  0  0  0  0  3  0  0  0  0  0  0
  -25.5590  -33.8650   24.2000 N   0  0  0  0  0  0  0  0  0  0  0  0
  -25.8920  -34.9140   23.4360 C   0  0  0  0  0  0  0  0  0  0  0  0
  -26.5570  -34.8060   22.4020 O   0  0  0  0  0  0  0  0  0  0  0  0
  -24.9700  -34.0270   25.0030 H   0  0  0  0  0  0  0  0  0  0  0  0
  -24.1690  -36.7090   23.0830 C   0  0  0  0  0  1  0  0  0  0  0  0
  -25.4090  -36.3020   23.8920 C   0  0  0  0  0  3  0  0  0  0  0  0
  -27.5460  -37.1810   24.7230 C   0  0  0  0  0  1  0  0  0  0  0  0
  -26.4440  -37.3510   23.7790 N   0  0  0  0  0  0  0  0  0  0  0  0
  -26.0400  -38.2720   23.9260 H   0  0  0  0  0  0  0  0  0  0  0  0
  -26.3800  -31.6890   25.1410 C   0  0  1  0  0  0  0  0  0  0  0  0
  -25.2890  -31.4520   26.2110 C   0  0  0  0  0  1  0  0  0  0  0  0
  -26.9570  -30.3090   24.7440 C   0  0  0  0  0  1  0  0  0  0  0  0
  -27.5340  -32.4780   25.8030 C   0  0  0  0  0  1  0  0  0  0  0  0
  1  3  1  0
  3  2  1  0
  4  3  1  0
  4  5  1  0
  5 21  1  0
  6 20  1  0
  7 12  1  0
  8  9  1  0
  8  7  1  0
 10  9  1  0
 10 26  1  0
 10 11  1  0
 12  6  1  0
 12 11  1  0
 13  6  2  0
 14 20  1  0
 15 18  1  0
 16 21  1  0
 16 14  1  0
 17 18  1  0
 18 19  1  0
 20 15  1  0
 21 22  1  1
 21 17  1  0
 23 24  2  0
 24 43  1  0
 25 24  1  0
 25 28  1  0
 26 23  1  0
 26 27  1  0
 27 25  2  0
 28 29  1  0
 29 30  2  0
 31 34  1  0
 31 30  1  0
 32 31  2  0
 33 32  1  0
 33 28  2  0
 34 35  1  0
 35 36  1  0
 36 37  2  0
 38 37  1  0
 38 42  1  0
 39 38  2  0
 40 35  2  0
 40 39  1  0
 41 40  1  0
 43 44  1  0
 44 47  1  0
 44 46  1  0
 45 43  2  0
 48 49  1  0
 48 23  1  0
 50 48  1  0
 51  1  1  0
 51 56  1  0
 53 52  1  0
 53 51  1  0
 54 55  1  0
 55 53  1  0
 56 57  1  0
 57 58  1  0
 58 60  1  0
 59 70  2  0
 60 65  1  0
 61 69  1  0
 61 71  1  0
 62 68  1  0
 62 64  1  0
 63 69  1  0
 64 63  1  0
 65 64  2  0
 66 67  1  0
 66 60  2  0
 67 62  2  0
 68 61  1  0
 69 59  1  0
 71 73  2  0
 72 71  1  0
 74 72  1  0
 75 84  2  0
 75 80  1  0
 76 72  1  0
 76 80  1  0
 77 76  1  0
 78 79  1  0
 78 77  1  0
 79 75  1  0
 80 81  2  0
 81 82  1  0
 83 82  2  0
 84 83  1  0
 85 59  1  0
 85 86  1  0
 85 95  1  0
 86 89  1  0
 87 91  1  0
 87 86  1  0
 88 87  2  0
 91 90  1  0
 93 91  1  0
 93 94  1  0
 93 92  1  0
 95 98  1  1
 95 96  1  0
 97 95  1  0
M  ISO  4   6 100  20 100  57 101  58 101
M  END
>  <TORSDO>  (74) 
F 24

>  <SCORE>  (74) 
-12.224

>  <name>  (74) 
76

>  <ligand_id>  (74) 
76

>  <original_smiles>  (74) 
[H]c1c([H])c([H])c2c(c1[H])C([H])([H])C([H])([H])C([H])([H])C2([H])N([H])C(=O)C1([H])N(C(=O)C([H])(N([H])C(=O)C([H])(N([H])C([H])([H])[H])C([H])([H])[H])C(C([H])([H])[H])(C([H])([H])[H])C([H])([H])[H])C([H])([H])c2c([H])c(OC([H])([H])C([H])([H])C([H])(C([H])([H])C([H])(C([H])([H])[H])C([H])([H])C([H])([H])[N+]3([H])C([H])([H])C([H])([H])N(C(=O)N4C([H])([H])C([H])([H])C([H])([H])C([H])(n5nc(-c6c([H])c([H])c(Oc7c([H])c([H])c(F)c([H])c7F)c([H])c6[H])c(C(=O)N([H])[H])c5N([H])[H])C4([H])[H])C([H])([H])C([H])(C([H])([H])[H])C3([H])[H])C([H])(C([H])([H])[H])C([H])([H])C([H])([H])[H])c([H])c([H])c2C1([H])[H]

>  <smiles>  (74) 
[H]c1c([H])c([H])c2c(c1[H])C([H])([H])C([H])([H])C([H])([H])C2([H])N([H])C(=O)C1([H])N(C(=O)C([H])(N([H])C(=O)C([H])(N([H])C([H])([H])[H])C([H])([H])[H])C(C([H])([H])[H])(C([H])([H])[H])C([H])([H])[H])C([H])([H])c2c([H])c(OC([H])([H])C([H])([H])C([H])(C([H])([H])C([H])(C([H])([H])[H])C([H])([H])C([H])([H])[N+]3([H])C([H])([H])C([H])([H])N(C(=O)N4C([H])([H])C([H])([H])C([H])([H])C([H])(n5nc(-c6c([H])c([H])c(Oc7c([H])c([H])c(F)c([H])c7F)c([H])c6[H])c(C(=O)N([H])[H])c5N([H])[H])C4([H])[H])C([H])([H])C([H])(C([H])([H])[H])C3([H])[H])C([H])(C([H])([H])[H])C([H])([H])C([H])([H])[H])c([H])c([H])c2C1([H])[H]

$$$$
77:0:0
     RDKit          3D

101103  0  0  1  0  0  0  0  0999 V2000
  -27.3270  -12.6160   18.5220 C   0  0  0  0  0 15  0  0  0  0  0  0
  -28.5580   -9.7380   21.1500 C   0  0  0  0  0 15  0  0  0  0  0  0
  -27.5040  -14.5450   19.5060 C   0  0  0  0  0 15  0  0  0  0  0  0
  -28.5340  -13.5780   22.7720 C   0  0  0  0  0 15  0  0  0  0  0  0
  -28.0080  -10.6210   18.9960 C   0  0  0  0  0  1  0  0  0  0  0  0
  -28.8110  -11.3230   22.9140 C   0  0  0  0  0  1  0  0  0  0  0  0
  -28.1270  -14.8940   21.3180 N   0  0  0  0  0  2  0  0  0  0  0  0
  -29.0200  -14.5430   20.9480 H   0  0  0  0  0  0  0  0  0  0  0  0
  -29.1010  -10.7620   17.8020 C   0  0  0  0  0  0  0  0  0  0  0  0
  -30.1190  -11.6880   17.9420 N   0  0  0  0  0  0  0  0  0  0  0  0
  -29.0480  -10.0160   16.8240 O   0  0  0  0  0  0  0  0  0  0  0  0
  -29.9650  -12.2920   18.7470 H   0  0  0  0  0  0  0  0  0  0  0  0
  -31.5370  -11.7620   17.4220 C   0  0  0  0  0  2  0  0  0  0  0  0
  -32.8130  -12.5260   18.1510 C   0  0  0  0  0  2  0  0  0  0  0  0
  -33.8770  -12.0470   20.5290 C   0  0  0  0  0  0  0  0  0  0  0  0
  -33.4500   -9.7220   20.8170 C   0  0  0  0  0  2  0  0  0  0  0  0
  -32.5120   -9.3750   19.6520 C   0  0  0  0  0  2  0  0  0  0  0  0
  -31.1190   -9.6410   20.1970 C   0  0  0  0  0  2  0  0  0  0  0  0
  -30.9040  -11.1070   20.7260 C   0  0  0  0  0  3  0  0  0  0  0  0
  -31.9070  -11.3940   21.8070 C   0  0  0  0  0  2  0  0  0  0  0  0
  -33.1880  -11.1130   21.1900 N   0  0  0  0  0  0  0  0  0  0  0  0
  -35.1070  -12.0470   20.5560 O   0  0  0  0  0  0  0  0  0  0  0  0
  -33.1280  -12.7760   19.6260 N   0  0  0  0  0  0  0  0  0  0  0  0
  -33.4440  -13.7350   19.6840 H   0  0  0  0  0  0  0  0  0  0  0  0
  -28.9530  -12.8390   20.6940 C   0  0  0  0  0  3  0  0  0  0  0  0
  -27.2760  -12.7460   20.9490 C   0  0  0  0  0  0  0  0  0  0  0  0
  -26.9380  -11.4870   21.0370 C   0  0  0  0  0  0  0  0  0  0  0  0
  -29.6180  -11.8940   20.7980 N   0  0  0  0  0  0  0  0  0  0  0  0
  -28.1640  -12.0820   20.8810 N   0  0  1  0  0  4  0  0  0  0  0  0
  -25.9720  -10.3150   21.1840 C   0  0  0  0  0  0  0  0  0  0  0  0
  -25.9900   -9.2910   22.1830 C   0  0  0  0  0  3  0  0  0  0  0  0
  -24.9900   -8.3070   22.2810 C   0  0  0  0  0  3  0  0  0  0  0  0
  -23.9080   -8.3430   21.3820 C   0  0  0  0  0  0  0  0  0  0  0  0
  -23.9010   -9.3090   20.3610 C   0  0  0  0  0  3  0  0  0  0  0  0
  -24.9200  -10.2700   20.2590 C   0  0  0  0  0  3  0  0  0  0  0  0
  -22.8530   -7.4660   21.4090 O   0  0  0  0  0  0  0  0  0  0  0  0
  -22.3660   -6.9550   22.5860 C   0  0  0  0  0  0  0  0  0  0  0  0
  -21.7220   -7.7570   23.5550 C   0  0  0  0  0  3  0  0  0  0  0  0
  -21.1740   -7.1620   24.7090 C   0  0  0  0  0  3  0  0  0  0  0  0
  -21.2580   -5.7690   24.8920 C   0  0  0  0  0  0  0  0  0  0  0  0
  -21.8920   -4.9670   23.9280 C   0  0  0  0  0  3  0  0  0  0  0  0
  -22.4410   -5.5600   22.7760 C   0  0  0  0  0  0  0  0  0  0  0  0
  -23.0340   -4.7830   21.8380 F   0  0  0  0  0  0  0  0  0  0  0  0
  -20.7220   -5.1960   25.9960 F   0  0  0  0  0  0  0  0  0  0  0  0
  -25.9320  -13.5620   21.0270 C   0  0  0  0  0  0  0  0  0  0  0  0
  -25.0360  -13.2080   21.9420 N   0  0  0  0  0  0  0  0  0  0  0  0
  -25.5840  -14.4350   20.2520 O   0  0  0  0  0  0  0  0  0  0  0  0
  -25.2110  -12.4750   22.6140 H   0  0  0  0  0  0  0  0  0  0  0  0
  -24.1480  -13.6870   21.9620 H   0  0  0  0  0  0  0  0  0  0  0  0
  -30.1500  -13.6760   20.4340 N   0  0  0  0  0  0  0  0  0  0  0  0
  -30.1840  -14.5380   19.9030 H   0  0  0  0  0  0  0  0  0  0  0  0
  -31.0680  -13.2440   20.4840 H   0  0  0  0  0  0  0  0  0  0  0  0
  -27.2320  -10.0920   24.6030 C   0  0  0  0  0  1  0  0  0  0  0  0
  -28.5480  -10.8590   24.3680 C   0  0  0  0  0  2  0  0  0  0  0  0
  -28.6040  -16.4340   21.4200 C   0  0  0  0  0  2  0  0  0  0  0  0
  -29.5710  -17.3400   20.3060 C   0  0  0  0  0  2  0  0  0  0  0  0
  -29.3130  -18.9250   19.6470 C   0  0  0  0  0  3  0  0  0  0  0  0
  -30.3630  -19.9620   18.7420 C   0  0  0  0  0  3  0  0  0  0  0  0
  -30.1220  -21.5610   18.1170 C   0  0  0  0  0  3  0  0  0  0  0  0
  -31.1440  -22.9450   18.2580 C   0  0  0  0  0  3  0  0  0  0  0  0
  -31.1660  -24.4630   17.7650 O   0  0  0  0  0  0  0  0  0  0  0  0
  -26.1130  -27.7940   21.8900 C   0  0  0  0  0  0  0  0  0  0  0  0
  -30.0820  -25.3780   17.9100 C   0  0  0  0  0  0  0  0  0  0  0  0
  -25.5910  -27.2400   19.5510 C   0  0  0  0  0  3  0  0  0  0  0  0
  -27.5830  -26.7830   18.0070 C   0  0  0  0  0  0  0  0  0  0  0  0
  -28.0000  -27.8570   20.2100 C   0  0  0  0  0  2  0  0  0  0  0  0
  -28.4970  -26.9730   19.0530 C   0  0  0  0  0  0  0  0  0  0  0  0
  -29.7720  -26.2960   18.9960 C   0  0  0  0  0  3  0  0  0  0  0  0
  -29.1770  -25.3510   16.8450 C   0  0  0  0  0  3  0  0  0  0  0  0
  -27.9440  -26.0170   16.8910 C   0  0  0  0  0  3  0  0  0  0  0  0
  -26.1990  -27.3900   18.1310 C   0  0  0  0  0  2  0  0  0  0  0  0
  -26.5730  -27.6310   20.6120 N   0  0  0  0  0  0  0  0  0  0  0  0
  -24.9160  -27.6370   22.1740 O   0  0  0  0  0  0  0  0  0  0  0  0
  -25.0390  -25.8030   19.7330 C   0  0  0  0  0  0  0  0  0  0  0  0
  -23.8940  -25.5020   19.0950 N   0  0  0  0  0  0  0  0  0  0  0  0
  -25.6480  -24.9820   20.4230 O   0  0  0  0  0  0  0  0  0  0  0  0
  -23.4470  -26.2320   18.5580 H   0  0  0  0  0  0  0  0  0  0  0  0
  -20.9420  -23.7250   17.9800 C   0  0  0  0  0  0  0  0  0  0  0  0
  -23.2230  -24.2000   19.1030 C   0  0  0  0  0  3  0  0  0  0  0  0
  -23.8280  -23.2570   18.0380 C   0  0  0  0  0  2  0  0  0  0  0  0
  -23.0840  -23.3030   16.6980 C   0  0  0  0  0  2  0  0  0  0  0  0
  -21.6150  -22.9140   16.8840 C   0  0  0  0  0  2  0  0  0  0  0  0
  -21.6990  -24.3400   19.0120 C   0  0  0  0  0  0  0  0  0  0  0  0
  -21.0280  -25.1080   19.9880 C   0  0  0  0  0  3  0  0  0  0  0  0
  -19.6300  -25.2660   19.9430 C   0  0  0  0  0  3  0  0  0  0  0  0
  -18.8840  -24.6440   18.9270 C   0  0  0  0  0  3  0  0  0  0  0  0
  -19.5390  -23.8710   17.9520 C   0  0  0  0  0  3  0  0  0  0  0  0
  -27.0660  -28.2090   23.0510 C   0  0  0  0  0  3  0  0  0  0  0  0
  -27.3990  -27.0200   24.0340 C   0  0  1  0  0  0  0  0  0  0  0  0
  -26.1450  -26.3150   24.6030 C   0  0  0  0  0  1  0  0  0  0  0  0
  -28.2620  -25.9480   23.3310 C   0  0  0  0  0  1  0  0  0  0  0  0
  -28.2310  -27.5460   25.2270 C   0  0  0  0  0  1  0  0  0  0  0  0
  -26.4210  -29.3130   23.7820 N   0  0  0  0  0  0  0  0  0  0  0  0
  -26.7550  -30.6050   23.6670 C   0  0  0  0  0  0  0  0  0  0  0  0
  -27.6970  -30.9910   22.9700 O   0  0  0  0  0  0  0  0  0  0  0  0
  -25.6060  -29.0750   24.3300 H   0  0  0  0  0  0  0  0  0  0  0  0
  -24.9480  -32.3490   23.4900 C   0  0  0  0  0  1  0  0  0  0  0  0
  -25.9120  -31.6330   24.4500 C   0  0  0  0  0  3  0  0  0  0  0  0
  -27.4670  -32.0710   26.2990 C   0  0  0  0  0  1  0  0  0  0  0  0
  -26.7260  -32.6330   25.1740 N   0  0  0  0  0  0  0  0  0  0  0  0
  -26.1410  -33.3880   25.5240 H   0  0  0  0  0  0  0  0  0  0  0  0
  6 54  1  0
  7 55  1  0
  8  7  1  0
  9 10  1  0
  9  5  1  0
 10 12  1  0
 11  9  2  0
 13 10  1  0
 13 14  1  0
 14 23  1  0
 15 22  2  0
 15 21  1  0
 16 21  1  0
 17 18  1  0
 17 16  1  0
 19 18  1  0
 19 20  1  0
 21 20  1  0
 23 24  1  0
 23 15  1  0
 25 50  1  0
 25 28  1  0
 29 25  1  6
 26 45  1  0
 26 27  2  0
 27 30  1  0
 28 19  1  0
 28 29  1  0
 29 26  1  0
 29 27  1  0
 30 31  1  0
 31 32  2  0
 33 36  1  0
 33 32  1  0
 34 33  2  0
 35 34  1  0
 35 30  2  0
 36 37  1  0
 37 42  2  0
 37 38  1  0
 38 39  2  0
 39 40  1  0
 40 44  1  0
 41 40  2  0
 42 41  1  0
 43 42  1  0
 45 46  1  0
 46 49  1  0
 46 48  1  0
 47 45  2  0
 50 52  1  0
 51 50  1  0
 54 53  1  0
 56 55  1  0
 57 56  1  0
 58 57  2  0
 59 60  2  0
 59 58  1  0
 61 63  1  0
 61 60  1  0
 62 73  2  0
 63 68  1  0
 64 74  1  0
 64 72  1  0
 65 71  1  0
 65 67  1  0
 66 72  1  0
 67 66  1  0
 68 67  2  0
 69 70  1  0
 69 63  2  0
 70 65  2  0
 71 64  1  0
 72 62  1  0
 74 76  2  0
 75 74  1  0
 77 75  1  0
 78 83  1  0
 79 75  1  0
 80 79  1  0
 81 82  1  0
 81 80  1  0
 82 78  1  0
 83 79  1  0
 83 84  2  0
 85 84  1  0
 86 85  2  0
 87 78  2  0
 87 86  1  0
 88 62  1  0
 88 93  1  0
 88 89  1  0
 89 90  1  1
 89 92  1  0
 91 89  1  0
 93 96  1  0
 94 93  1  0
 94 98  1  0
 95 94  2  0
 98 97  1  0
 98100  1  0
100101  1  0
100 99  1  0
M  ISO  4  15 100  23 100  60 101  61 101
M  END
>  <TORSDO>  (75) 
F 26

>  <SCORE>  (75) 
-3.012

>  <name>  (75) 
77

>  <ligand_id>  (75) 
77

>  <original_smiles>  (75) 
[H]c1c([H])c([H])c2c(c1[H])C([H])([H])C([H])([H])C([H])([H])C2([H])N([H])C(=O)C1([H])N(C(=O)C([H])(N([H])C(=O)C([H])(N([H])C([H])([H])[H])C([H])([H])[H])C(C([H])([H])[H])(C([H])([H])[H])C([H])([H])[H])C([H])([H])c2c([H])c(OC([H])([H])C([H])([H])C([H])([H])C([H])([H])C([H])([H])C([H])([H])[N+]3([H])C([H])([H])C([H])([H])C([H])(C(=O)N([H])C([H])([H])C([H])([H])N([H])C(=O)N4C([H])([H])C([H])([H])C([H])([H])C([H])(n5nc(-c6c([H])c([H])c(Oc7c([H])c([H])c(F)c([H])c7F)c([H])c6[H])c(C(=O)N([H])[H])c5N([H])[H])C4([H])[H])C([H])([H])C([H])(C([H])([H])C([H])([H])[H])C3([H])[H])c([H])c([H])c2C1([H])[H]

>  <smiles>  (75) 
[H]c1c([H])c([H])c2c(c1[H])C([H])([H])C([H])([H])C([H])([H])C2([H])N([H])C(=O)C1([H])N(C(=O)C([H])(N([H])C(=O)C([H])(N([H])C([H])([H])[H])C([H])([H])[H])C(C([H])([H])[H])(C([H])([H])[H])C([H])([H])[H])C([H])([H])c2c([H])c(OC([H])([H])C([H])([H])C([H])([H])C([H])([H])C([H])([H])C([H])([H])[N+]3([H])C([H])([H])C([H])([H])C([H])(C(=O)N([H])C([H])([H])C([H])([H])N([H])C(=O)N4C([H])([H])C([H])([H])C([H])([H])C([H])(n5nc(-c6c([H])c([H])c(Oc7c([H])c([H])c(F)c([H])c7F)c([H])c6[H])c(C(=O)N([H])[H])c5N([H])[H])C4([H])[H])C([H])([H])C([H])(C([H])([H])C([H])([H])[H])C3([H])[H])c([H])c([H])c2C1([H])[H]

$$$$
78:0:0
     RDKit          3D

 96104  0  0  1  0  0  0  0  0999 V2000
  -30.1420  -20.7440   20.7940 C   0  0  0  0  0  0  0  0  0  0  0  0
  -30.7170  -21.1410   21.8090 O   0  0  0  0  0  0  0  0  0  0  0  0
  -30.5580  -19.4400   20.1070 C   0  0  0  0  0  2  0  0  0  0  0  0
  -31.0770  -14.2780   19.2820 C   0  0  0  0  0  0  0  0  0  0  0  0
  -30.4410  -12.2210   18.0530 C   0  0  0  0  0  2  0  0  0  0  0  0
  -29.2830  -12.4840   17.0680 C   0  0  0  0  0  2  0  0  0  0  0  0
  -27.9200  -12.3080   17.7630 C   0  0  0  0  0  2  0  0  0  0  0  0
  -27.8570  -13.0590   19.1130 C   0  0  0  0  0  3  0  0  0  0  0  0
  -29.1080  -12.7450   19.9710 C   0  0  0  0  0  2  0  0  0  0  0  0
  -30.3000  -13.1450   19.2060 N   0  0  0  0  0  0  0  0  0  0  0  0
  -32.0190  -14.4060   18.4880 O   0  0  0  0  0  0  0  0  0  0  0  0
  -31.7540  -17.4800   21.2720 C   0  0  0  0  0  2  0  0  0  0  0  0
  -29.3540  -17.2100   20.4610 C   0  0  0  0  0  2  0  0  0  0  0  0
  -31.9890  -16.2720   20.3380 C   0  0  0  0  0  2  0  0  0  0  0  0
  -30.4100  -18.1880   21.0140 C   0  0  0  0  0  3  0  0  0  0  0  0
  -29.6100  -15.7260   20.8320 C   0  0  0  0  0  3  0  0  0  0  0  0
  -30.8930  -15.2560   20.2430 N   0  0  0  0  0  0  0  0  0  0  0  0
  -25.6870  -13.6450   20.3710 C   0  0  0  0  0  0  0  0  0  0  0  0
  -24.6960  -12.8580   20.8910 C   0  0  0  0  0  0  0  0  0  0  0  0
  -25.0990  -11.5100   20.6520 C   0  0  0  0  0  0  0  0  0  0  0  0
  -26.6260  -12.7720   19.8450 N   0  0  0  0  0  0  0  0  0  0  0  0
  -26.2920  -11.4780   20.0750 N   0  0  0  0  0  0  0  0  0  0  0  0
  -24.3990  -10.2430   20.8890 C   0  0  0  0  0  0  0  0  0  0  0  0
  -24.8510   -9.3190   21.8550 C   0  0  0  0  0  3  0  0  0  0  0  0
  -24.1450   -8.1170   22.0760 C   0  0  0  0  0  3  0  0  0  0  0  0
  -22.9790   -7.8330   21.3270 C   0  0  0  0  0  0  0  0  0  0  0  0
  -22.5490   -8.7480   20.3490 C   0  0  0  0  0  3  0  0  0  0  0  0
  -23.2550   -9.9400   20.1280 C   0  0  0  0  0  3  0  0  0  0  0  0
  -22.2480   -6.6780   21.4470 O   0  0  0  0  0  0  0  0  0  0  0  0
  -22.0120   -6.1020   22.6680 C   0  0  0  0  0  0  0  0  0  0  0  0
  -21.3990   -6.8160   23.7200 C   0  0  0  0  0  3  0  0  0  0  0  0
  -21.1210   -6.1680   24.9410 C   0  0  0  0  0  3  0  0  0  0  0  0
  -21.4370   -4.8050   25.1020 C   0  0  0  0  0  0  0  0  0  0  0  0
  -22.0360   -4.0910   24.0490 C   0  0  0  0  0  3  0  0  0  0  0  0
  -22.3220   -4.7380   22.8350 C   0  0  0  0  0  0  0  0  0  0  0  0
  -22.8830   -4.0430   21.8160 F   0  0  0  0  0  0  0  0  0  0  0  0
  -21.1630   -4.1750   26.2680 F   0  0  0  0  0  0  0  0  0  0  0  0
  -23.3990  -13.3290   21.4880 C   0  0  0  0  0  0  0  0  0  0  0  0
  -22.9010  -12.6240   22.4980 N   0  0  0  0  0  0  0  0  0  0  0  0
  -22.8470  -14.3540   21.0900 O   0  0  0  0  0  0  0  0  0  0  0  0
  -23.3620  -11.7910   22.8330 H   0  0  0  0  0  0  0  0  0  0  0  0
  -22.0380  -12.9160   22.9370 H   0  0  0  0  0  0  0  0  0  0  0  0
  -25.8630  -15.0260   20.2910 N   0  0  0  0  0  0  0  0  0  0  0  0
  -25.0420  -15.6050   20.4420 H   0  0  0  0  0  0  0  0  0  0  0  0
  -26.4940  -15.4350   19.6130 H   0  0  0  0  0  0  0  0  0  0  0  0
  -29.5050  -15.4130   22.3560 C   0  0  0  0  0  2  0  0  0  0  0  0
  -28.1210  -15.1290   22.7780 N   0  0  0  0  0  4  0  0  0  0  0  0
  -27.5680  -15.9700   22.7890 H   0  0  0  0  0  0  0  0  0  0  0  0
  -28.1280  -14.7590   23.7120 H   0  0  0  0  0  0  0  0  0  0  0  0
  -27.6840  -14.4570   22.1680 H   0  0  0  0  0  0  0  0  0  0  0  0
  -28.9580  -21.4860   20.1670 C   0  0  0  0  0  2  0  0  0  0  0  0
  -28.5890  -22.8300   20.8430 C   0  0  0  0  0  2  0  0  0  0  0  0
  -28.4680  -23.9930   19.8560 C   0  0  0  0  0  0  0  0  0  0  0  0
  -28.1730  -23.8010   18.6700 O   0  0  0  0  0  0  0  0  0  0  0  0
  -28.6900  -25.4020   20.4250 C   0  0  0  0  0  2  0  0  0  0  0  0
  -28.4970  -26.4010   19.4220 O   0  0  0  0  0  0  0  0  0  0  0  0
  -24.8400  -31.4190   22.8880 C   0  0  0  0  0  0  0  0  0  0  0  0
  -27.3300  -27.1130   19.5400 C   0  0  0  0  0  0  0  0  0  0  0  0
  -23.5620  -30.1280   21.2000 C   0  0  0  0  0  3  0  0  0  0  0  0
  -24.9500  -28.6280   19.6810 C   0  0  0  0  0  0  0  0  0  0  0  0
  -26.0860  -30.4540   20.9630 C   0  0  0  0  0  2  0  0  0  0  0  0
  -26.1290  -29.1140   20.2620 C   0  0  0  0  0  0  0  0  0  0  0  0
  -27.3190  -28.3670   20.1880 C   0  0  0  0  0  3  0  0  0  0  0  0
  -26.1340  -26.6210   18.9800 C   0  0  0  0  0  3  0  0  0  0  0  0
  -24.9460  -27.3730   19.0430 C   0  0  0  0  0  3  0  0  0  0  0  0
  -23.7270  -29.5080   19.7850 C   0  0  0  0  0  2  0  0  0  0  0  0
  -24.8480  -30.6810   21.7400 N   0  0  0  0  0  0  0  0  0  0  0  0
  -23.7800  -31.6860   23.4690 O   0  0  0  0  0  0  0  0  0  0  0  0
  -22.9160  -29.0750   22.1260 C   0  0  0  0  0  0  0  0  0  0  0  0
  -21.5800  -28.9500   22.0460 N   0  0  0  0  0  0  0  0  0  0  0  0
  -23.6100  -28.3760   22.8710 O   0  0  0  0  0  0  0  0  0  0  0  0
  -21.0830  -29.5610   21.4120 H   0  0  0  0  0  0  0  0  0  0  0  0
  -18.1800  -27.9120   22.6690 C   0  0  0  0  0  0  0  0  0  0  0  0
  -20.7610  -28.0050   22.8020 C   0  0  0  0  0  3  0  0  0  0  0  0
  -20.7440  -26.6140   22.1220 C   0  0  0  0  0  2  0  0  0  0  0  0
  -19.5670  -26.4230   21.1600 C   0  0  0  0  0  2  0  0  0  0  0  0
  -18.2350  -26.6090   21.8920 C   0  0  0  0  0  2  0  0  0  0  0  0
  -19.3640  -28.5760   23.0840 C   0  0  0  0  0  0  0  0  0  0  0  0
  -19.2510  -29.8040   23.7690 C   0  0  0  0  0  3  0  0  0  0  0  0
  -17.9890  -30.3610   24.0500 C   0  0  0  0  0  3  0  0  0  0  0  0
  -16.8200  -29.6880   23.6530 C   0  0  0  0  0  3  0  0  0  0  0  0
  -16.9200  -28.4660   22.9660 C   0  0  0  0  0  3  0  0  0  0  0  0
  -26.1570  -31.9860   23.5100 C   0  0  0  0  0  3  0  0  0  0  0  0
  -26.7660  -31.0650   24.6380 C   0  0  1  0  0  0  0  0  0  0  0  0
  -25.7420  -30.6390   25.7160 C   0  0  0  0  0  1  0  0  0  0  0  0
  -27.3630  -29.7780   24.0250 C   0  0  0  0  0  1  0  0  0  0  0  0
  -27.9280  -31.8040   25.3450 C   0  0  0  0  0  1  0  0  0  0  0  0
  -25.8570  -33.3240   24.0360 N   0  0  0  0  0  0  0  0  0  0  0  0
  -26.1130  -34.4700   23.3890 C   0  0  0  0  0  0  0  0  0  0  0  0
  -26.7010  -34.5100   22.3040 O   0  0  0  0  0  0  0  0  0  0  0  0
  -25.3180  -33.3620   24.8890 H   0  0  0  0  0  0  0  0  0  0  0  0
  -24.3280  -36.2410   23.4070 C   0  0  0  0  0  1  0  0  0  0  0  0
  -25.6440  -35.7770   24.0510 C   0  0  0  0  0  3  0  0  0  0  0  0
  -27.8240  -36.6210   24.8080 C   0  0  0  0  0  1  0  0  0  0  0  0
  -26.6470  -36.8630   23.9780 N   0  0  0  0  0  0  0  0  0  0  0  0
  -26.2380  -37.7490   24.2630 H   0  0  0  0  0  0  0  0  0  0  0  0
  1  2  2  0
  3  1  1  0
  4 17  1  0
  5 10  1  0
  6  7  1  0
  6  5  1  0
  8  7  1  0
  8 21  1  0
  8  9  1  0
 10  4  1  0
 10  9  1  0
 11  4  2  0
 13 16  1  0
 13 15  1  0
 14 12  1  0
 15  3  1  0
 15 12  1  0
 16 46  1  0
 17 14  1  0
 17 16  1  0
 18 19  2  0
 19 38  1  0
 20 23  1  0
 20 19  1  0
 21 22  1  0
 21 18  1  0
 22 20  2  0
 23 24  1  0
 24 25  2  0
 26 29  1  0
 26 25  1  0
 27 26  2  0
 28 27  1  0
 28 23  2  0
 29 30  1  0
 30 35  2  0
 30 31  1  0
 31 32  2  0
 32 33  1  0
 33 37  1  0
 34 33  2  0
 35 34  1  0
 36 35  1  0
 38 39  1  0
 39 41  1  0
 39 42  1  0
 40 38  2  0
 43 18  1  0
 43 44  1  0
 45 43  1  0
 46 47  1  0
 47 48  1  0
 47 49  1  0
 50 47  1  0
 51  1  1  0
 51 52  1  0
 53 55  1  0
 53 52  1  0
 54 53  2  0
 56 58  1  0
 56 55  1  0
 57 68  2  0
 58 63  1  0
 59 67  1  0
 59 69  1  0
 60 66  1  0
 60 62  1  0
 61 67  1  0
 62 61  1  0
 63 62  2  0
 64 65  1  0
 64 58  2  0
 65 60  2  0
 66 59  1  0
 67 57  1  0
 69 71  2  0
 70 69  1  0
 72 70  1  0
 73 82  2  0
 73 78  1  0
 74 70  1  0
 74 78  1  0
 75 74  1  0
 76 77  1  0
 76 75  1  0
 77 73  1  0
 78 79  2  0
 79 80  1  0
 81 80  2  0
 82 81  1  0
 83 57  1  0
 83 88  1  0
 83 84  1  0
 84 87  1  1
 84 85  1  0
 86 84  1  0
 88 91  1  0
 89 88  1  0
 89 93  1  0
 90 89  2  0
 93 92  1  0
 95 93  1  0
 95 96  1  0
 95 94  1  0
M  ISO  4   4 100  17 100  55 101  56 101
M  END
>  <TORSDO>  (76) 
F 23

>  <SCORE>  (76) 
-4.942

>  <name>  (76) 
78

>  <ligand_id>  (76) 
78

>  <original_smiles>  (76) 
[H]c1c([H])c([H])c2c(c1[H])C([H])([H])C([H])([H])C([H])([H])C2([H])N([H])C(=O)C1([H])N(C(=O)C([H])(N([H])C(=O)C([H])(N([H])C([H])([H])[H])C([H])([H])[H])C(C([H])([H])[H])(C([H])([H])[H])C([H])([H])[H])C([H])([H])c2c([H])c(OC([H])([H])C(=O)C([H])([H])C([H])([H])C(=O)C([H])([H])C3([H])C([H])([H])C([H])([H])N(C(=O)N4C([H])([H])C([H])([H])C([H])([H])C([H])(n5nc(-c6c([H])c([H])c(Oc7c([H])c([H])c(F)c([H])c7F)c([H])c6[H])c(C(=O)N([H])[H])c5N([H])[H])C4([H])[H])C([H])(C([H])([H])[N+]([H])([H])[H])C3([H])[H])c([H])c([H])c2C1([H])[H]

>  <smiles>  (76) 
[H]c1c([H])c([H])c2c(c1[H])C([H])([H])C([H])([H])C([H])([H])C2([H])N([H])C(=O)C1([H])N(C(=O)C([H])(N([H])C(=O)C([H])(N([H])C([H])([H])[H])C([H])([H])[H])C(C([H])([H])[H])(C([H])([H])[H])C([H])([H])[H])C([H])([H])c2c([H])c(OC([H])([H])C(=O)C([H])([H])C([H])([H])C(=O)C([H])([H])C3([H])C([H])([H])C([H])([H])N(C(=O)N4C([H])([H])C([H])([H])C([H])([H])C([H])(n5nc(-c6c([H])c([H])c(Oc7c([H])c([H])c(F)c([H])c7F)c([H])c6[H])c(C(=O)N([H])[H])c5N([H])[H])C4([H])[H])C([H])(C([H])([H])[N+]([H])([H])[H])C3([H])[H])c([H])c([H])c2C1([H])[H]

$$$$
79:0:0
     RDKit          3D

101 97  0  0  1  0  0  0  0  0999 V2000
  -23.8460  -10.6690   22.1570 C   0  0  0  0  0  2  0  0  0  0  0  0
  -24.9020  -10.6030   18.5710 C   0  0  0  0  0  1  0  0  0  0  0  0
  -26.6020   -9.7530   18.7120 C   0  0  0  0  0  2  0  0  0  0  0  0
  -27.3840   -9.8880   21.7130 C   0  0  0  0  0  1  0  0  0  0  0  0
  -23.5370  -11.0500   20.0570 C   0  0  0  0  0  1  0  0  0  0  0  0
  -25.7270  -10.4320   22.8540 C   0  0  0  0  0  1  0  0  0  0  0  0
  -25.7240   -9.8190   24.2710 C   0  0  0  0  0  1  0  0  0  0  0  0
  -22.9090  -10.3020   22.9390 N   0  0  0  0  0  0  0  0  0  0  0  0
  -27.7770  -10.0320   19.9290 N   0  0  1  0  0  4  0  0  0  0  0  0
  -23.2420  -10.0140   23.8560 H   0  0  0  0  0  0  0  0  0  0  0  0
  -27.4070  -10.9890   19.8850 H   0  0  0  0  0  0  0  0  0  0  0  0
  -29.1810  -10.7760   19.1680 C   0  0  0  0  0  1  0  0  0  0  0  0
  -30.1720  -12.4930   19.3330 C   0  0  0  0  0  1  0  0  0  0  0  0
  -31.7820  -12.1090   17.1300 C   0  0  0  0  0  1  0  0  0  0  0  0
  -31.5240  -11.9310   18.6450 C   0  0  0  0  0  2  0  0  0  0  0  0
  -29.0500  -15.8980   19.3400 C   0  0  0  0  0  1  0  0  0  0  0  0
  -29.7130  -18.6450   20.8660 C   0  0  0  0  0  1  0  0  0  0  0  0
  -29.0530  -18.5680   19.4880 C   0  0  0  0  0  1  0  0  0  0  0  0
  -28.2420  -21.1200   19.5210 C   0  0  0  0  0 15  0  0  0  0  0  0
  -28.2210  -23.4770   19.7270 O   0  0  0  0  0 15  0  0  0  0  0  0
  -24.8710  -31.2210   22.7260 C   0  0  0  0  0  0  0  0  0  0  0  0
  -27.4180  -25.1910   19.8020 C   0  0  0  0  0  3  0  0  0  0  0  0
  -23.8070  -29.7770   21.0680 C   0  0  0  0  0  3  0  0  0  0  0  0
  -25.2960  -27.9120   19.7650 C   0  0  0  0  0  0  0  0  0  0  0  0
  -26.4090  -29.5870   21.1820 C   0  0  0  0  0  2  0  0  0  0  0  0
  -26.4800  -28.0450   20.4900 C   0  0  0  0  0  0  0  0  0  0  0  0
  -27.4770  -26.7550   20.4510 C   0  0  0  0  0  3  0  0  0  0  0  0
  -26.2030  -25.5580   19.0590 C   0  0  0  0  0  3  0  0  0  0  0  0
  -25.2590  -26.6980   19.0340 C   0  0  0  0  0  3  0  0  0  0  0  0
  -24.1470  -28.9980   19.7460 C   0  0  0  0  0  2  0  0  0  0  0  0
  -25.0730  -30.2590   21.7120 N   0  0  0  0  0  0  0  0  0  0  0  0
  -23.7320  -31.5620   23.1150 O   0  0  0  0  0  0  0  0  0  0  0  0
  -22.9530  -28.9000   22.0330 C   0  0  0  0  0  0  0  0  0  0  0  0
  -21.6040  -28.9170   21.9460 N   0  0  0  0  0  0  0  0  0  0  0  0
  -23.5350  -28.1890   22.8530 O   0  0  0  0  0  0  0  0  0  0  0  0
  -21.1730  -29.5370   21.2750 H   0  0  0  0  0  0  0  0  0  0  0  0
  -18.1160  -28.0830   22.6680 C   0  0  0  0  0  0  0  0  0  0  0  0
  -20.7070  -28.0130   22.6910 C   0  0  0  0  0  3  0  0  0  0  0  0
  -20.5600  -26.6600   21.9540 C   0  0  0  0  0  2  0  0  0  0  0  0
  -19.3480  -26.6130   21.0180 C   0  0  0  0  0  2  0  0  0  0  0  0
  -18.0560  -26.8320   21.8090 C   0  0  0  0  0  2  0  0  0  0  0  0
  -19.3590  -28.6490   23.0660 C   0  0  0  0  0  0  0  0  0  0  0  0
  -19.3510  -29.8240   23.8490 C   0  0  0  0  0  3  0  0  0  0  0  0
  -18.1380  -30.4340   24.2230 C   0  0  0  0  0  3  0  0  0  0  0  0
  -16.9140  -29.8650   23.8310 C   0  0  0  0  0  3  0  0  0  0  0  0
  -16.9050  -28.6900   23.0610 C   0  0  0  0  0  3  0  0  0  0  0  0
  -26.0310  -31.9620   23.4710 C   0  0  0  0  0  3  0  0  0  0  0  0
  -25.5710  -33.3020   23.9350 N   0  0  0  0  0  0  0  0  0  0  0  0
  -25.8740  -34.4870   23.3780 C   0  0  0  0  0  0  0  0  0  0  0  0
  -26.5980  -34.5740   22.3850 O   0  0  0  0  0  0  0  0  0  0  0  0
  -24.9200  -33.3000   24.7050 H   0  0  0  0  0  0  0  0  0  0  0  0
  -24.0540  -36.2390   23.2260 C   0  0  0  0  0  1  0  0  0  0  0  0
  -25.2940  -35.7780   24.0130 C   0  0  0  0  0  3  0  0  0  0  0  0
  -27.3380  -36.6790   25.0460 C   0  0  0  0  0  1  0  0  0  0  0  0
  -26.2620  -36.8990   24.0840 N   0  0  0  0  0  0  0  0  0  0  0  0
  -25.7910  -37.7660   24.3300 H   0  0  0  0  0  0  0  0  0  0  0  0
  -26.5560  -31.1610   24.7290 C   0  0  1  0  0  0  0  0  0  0  0  0
  -25.4530  -30.7900   25.7510 C   0  0  0  0  0  1  0  0  0  0  0  0
  -27.2410  -29.8480   24.3050 C   0  0  0  0  0  1  0  0  0  0  0  0
  -27.6350  -31.9870   25.4690 C   0  0  0  0  0  1  0  0  0  0  0  0
  -23.4970  -12.3960   19.3250 C   0  0  0  0  0  3  0  0  0  0  0  0
  -26.9660  -13.6710   21.8380 C   0  0  0  0  0  3  0  0  0  0  0  0
  -29.9910  -14.7730   21.2610 C   0  0  0  0  0  1  0  0  0  0  0  0
  -30.3080  -14.8450   19.2260 C   0  0  0  0  0  2  0  0  0  0  0  0
  -28.8160  -13.9250   18.4620 C   0  0  0  0  0  2  0  0  0  0  0  0
  -27.7990  -13.3000   19.6510 C   0  0  0  0  0  3  0  0  0  0  0  0
  -28.2070  -12.7730   21.5770 C   0  0  0  0  0  2  0  0  0  0  0  0
  -28.4960  -13.9410   21.7980 N   0  0  2  0  0  4  0  0  0  0  0  0
  -27.5220  -14.8340   22.2380 O   0  0  0  0  0  0  0  0  0  0  0  0
  -24.7860  -13.1480   19.6270 N   0  0  0  0  0  2  0  0  0  0  0  0
  -25.1140  -13.5940   18.7820 H   0  0  0  0  0  0  0  0  0  0  0  0
  -25.2360  -14.8020   20.8780 C   0  0  0  0  0  2  0  0  0  0  0  0
  -24.5680  -13.3530   21.7520 C   0  0  0  0  0  2  0  0  0  0  0  0
  -25.5580  -11.6850   21.0870 C   0  0  0  0  0  1  0  0  0  0  0  0
  -26.6890  -14.0940   19.6300 N   0  0  0  0  0  2  0  0  0  0  0  0
  -26.7240  -12.2780   19.9220 N   0  0  0  0  0  0  0  0  0  0  0  0
  -25.0470   -9.4930   21.0470 C   0  0  0  0  0  2  0  0  0  0  0  0
  -25.0330   -8.4440   22.1020 C   0  0  0  0  0  2  0  0  0  0  0  0
  -24.0530   -7.4630   22.4440 C   0  0  0  0  0  3  0  0  0  0  0  0
  -22.9010   -7.2810   21.6640 C   0  0  0  0  0  0  0  0  0  0  0  0
  -22.8020   -8.0730   20.5610 C   0  0  0  0  0  2  0  0  0  0  0  0
  -23.9950   -8.7310   20.2330 C   0  0  0  0  0  2  0  0  0  0  0  0
  -22.0400   -6.2220   21.7110 O   0  0  0  0  0  0  0  0  0  0  0  0
  -21.8790   -5.5520   22.8790 C   0  0  0  0  0  0  0  0  0  0  0  0
  -21.1510   -6.1600   23.9160 C   0  0  0  0  0  3  0  0  0  0  0  0
  -20.9130   -5.4530   25.1030 C   0  0  0  0  0  3  0  0  0  0  0  0
  -21.4030   -4.1420   25.2470 C   0  0  0  0  0  0  0  0  0  0  0  0
  -22.1400   -3.5380   24.2110 C   0  0  0  0  0  3  0  0  0  0  0  0
  -22.3800   -4.2430   23.0210 C   0  0  0  0  0  0  0  0  0  0  0  0
  -23.0770   -3.6570   22.0140 F   0  0  0  0  0  0  0  0  0  0  0  0
  -21.1540   -3.4600   26.3860 F   0  0  0  0  0  0  0  0  0  0  0  0
  -22.9430  -13.6420   21.6330 C   0  0  0  0  0  0  0  0  0  0  0  0
  -21.8750  -12.9490   22.0400 N   0  0  0  0  0  0  0  0  0  0  0  0
  -22.5290  -14.5430   20.9080 O   0  0  0  0  0  0  0  0  0  0  0  0
  -21.9780  -12.0550   22.5270 H   0  0  0  0  0  0  0  0  0  0  0  0
  -20.9510  -13.2990   21.8470 H   0  0  0  0  0  0  0  0  0  0  0  0
  -24.8190  -16.0150   20.5560 N   0  0  0  0  0  0  0  0  0  0  0  0
  -23.8080  -16.0910   20.6310 H   0  0  0  0  0  0  0  0  0  0  0  0
  -25.1520  -16.3820   19.6730 H   0  0  0  0  0  0  0  0  0  0  0  0
  -22.3900  -14.2620   17.9010 C   0  0  0  0  0  1  0  0  0  0  0  0
  -22.1590  -13.0300   18.7980 C   0  0  0  0  0  2  0  0  0  0  0  0
  1  8  2  0
  2  3  1  0
  3  9  1  0
  6  7  1  0
  8 10  1  0
  9  4  1  0
  9 11  1  1
 12  9  1  0
 14 15  1  0
 15 13  1  0
 18 17  1  0
 21 32  2  0
 22 27  1  0
 23 31  1  0
 23 33  1  0
 24 26  1  0
 25 31  1  0
 26 25  1  0
 27 26  2  0
 28 22  2  0
 29 28  1  0
 29 24  2  0
 30 24  1  0
 30 23  1  0
 31 21  1  0
 33 35  2  0
 34 33  1  0
 36 34  1  0
 37 46  2  0
 37 42  1  0
 38 34  1  0
 38 42  1  0
 39 38  1  0
 40 41  1  0
 40 39  1  0
 41 37  1  0
 42 43  2  0
 43 44  1  0
 45 44  2  0
 46 45  1  0
 47 21  1  0
 47 48  1  0
 47 57  1  0
 48 51  1  0
 49 48  1  0
 49 53  1  0
 50 49  2  0
 53 52  1  0
 53 55  1  0
 55 56  1  0
 55 54  1  0
 57 60  1  1
 57 58  1  0
 59 57  1  0
 61 70  1  0
 61  5  1  0
 62 67  1  0
 62 69  1  0
 64 16  1  0
 65 64  1  0
 66 65  1  0
 66 76  1  0
 67 68  1  0
 68 63  1  6
 68 62  1  0
 68 69  1  0
 71 70  1  0
 72 73  1  0
 75 66  1  0
 75 76  1  0
 76 74  1  0
 77 78  1  0
 78 79  1  0
 80 83  1  0
 80 79  2  0
 81 80  1  0
 82 81  1  0
 82 77  1  0
 83 84  1  0
 84 89  2  0
 84 85  1  0
 85 86  2  0
 86 87  1  0
 87 91  1  0
 88 87  2  0
 89 88  1  0
 90 89  1  0
 92 73  1  0
 92 93  1  0
 93 95  1  0
 94 92  2  0
 96 93  1  0
 97 98  1  0
 97 72  1  0
 99 97  1  0
100101  1  0
101 61  1  0
M  ISO  4  19 101  20 101  62 100  70 100
M  END
>  <TORSDO>  (77) 
F 24

>  <SCORE>  (77) 
7.639

>  <name>  (77) 
79

>  <ligand_id>  (77) 
79

>  <original_smiles>  (77) 
[H]N=C1C([H])(C([H])(N([H])C(=O)N2C([H])([H])C([H])([H])C([H])([H])C([H])(n3nc(-c4c([H])c([H])c(Oc5c([H])c([H])c(F)c([H])c5F)c([H])c4[H])c(C(=O)N([H])[H])c3N([H])[H])C2([H])[H])C([H])([H])C([H])([H])[H])C([H])([H])C([H])([H])[N+]([H])(C([H])([H])C([H])(C([H])([H])C([H])([H])[H])C([H])([H])C([H])(C([H])([H])[H])C([H])([H])Oc2c([H])c([H])c3c(c2[H])C([H])([H])N(C(=O)C([H])(N([H])C(=O)C([H])(N([H])C([H])([H])[H])C([H])([H])[H])C(C([H])([H])[H])(C([H])([H])[H])C([H])([H])[H])C([H])(C(=O)N([H])C2([H])c4c([H])c([H])c([H])c([H])c4C([H])([H])C([H])([H])C2([H])[H])C3([H])[H])C([H])([H])C1([H])C([H])([H])[H]

>  <smiles>  (77) 
[H]N=C1C([H])(C([H])(N([H])C(=O)N2C([H])([H])C([H])([H])C([H])([H])C([H])(n3nc(-c4c([H])c([H])c(Oc5c([H])c([H])c(F)c([H])c5F)c([H])c4[H])c(C(=O)N([H])[H])c3N([H])[H])C2([H])[H])C([H])([H])C([H])([H])[H])C([H])([H])C([H])([H])[N+]([H])(C([H])([H])C([H])(C([H])([H])C([H])([H])[H])C([H])([H])C([H])(C([H])([H])[H])C([H])([H])Oc2c([H])c([H])c3c(c2[H])C([H])([H])N(C(=O)C([H])(N([H])C(=O)C([H])(N([H])C([H])([H])[H])C([H])([H])[H])C(C([H])([H])[H])(C([H])([H])[H])C([H])([H])[H])C([H])(C(=O)N([H])C2([H])c4c([H])c([H])c([H])c([H])c4C([H])([H])C([H])([H])C2([H])[H])C3([H])[H])C([H])([H])C1([H])C([H])([H])[H]

$$$$
80:0:0
     RDKit          3D

 97105  0  0  1  0  0  0  0  0999 V2000
  -27.1930  -21.1260   19.4800 C   0  0  0  0  0  2  0  0  0  0  0  0
  -29.1880  -22.4570   18.6950 C   0  0  0  0  0  2  0  0  0  0  0  0
  -29.4770  -19.9570   18.9400 C   0  0  0  0  0  3  0  0  0  0  0  0
  -27.7130  -22.1090   18.4040 C   0  0  0  0  0  3  0  0  0  0  0  0
  -28.2700  -20.0920   19.9260 C   0  0  0  0  0  3  0  0  0  0  0  0
  -28.7510  -20.3750   21.3660 C   0  0  0  0  0  1  0  0  0  0  0  0
  -30.0730  -21.2720   18.5850 N   0  0  0  0  0  4  0  0  0  0  0  0
  -30.8760  -21.4280   19.1730 H   0  0  0  0  0  0  0  0  0  0  0  0
  -30.4120  -21.2130   17.6390 H   0  0  0  0  0  0  0  0  0  0  0  0
  -29.1450  -19.2220   17.6160 C   0  0  0  0  0  0  0  0  0  0  0  0
  -28.6930  -19.7910   16.6210 O   0  0  0  0  0  0  0  0  0  0  0  0
  -29.4080  -17.7120   17.5390 C   0  0  0  0  0  2  0  0  0  0  0  0
  -30.3520  -17.3250   16.3760 C   0  0  0  0  0  2  0  0  0  0  0  0
  -31.7190  -16.7840   16.8280 C   0  0  0  0  0  2  0  0  0  0  0  0
  -32.6110  -15.6890   18.9040 C   0  0  0  0  0  0  0  0  0  0  0  0
  -33.0660  -14.3170   20.9090 C   0  0  0  0  0  2  0  0  0  0  0  0
  -32.7170  -12.8430   20.6300 C   0  0  0  0  0  2  0  0  0  0  0  0
  -31.2190  -12.5710   20.8810 C   0  0  0  0  0  2  0  0  0  0  0  0
  -30.2930  -13.6160   20.2060 C   0  0  0  0  0  3  0  0  0  0  0  0
  -30.7820  -15.0480   20.5110 C   0  0  0  0  0  2  0  0  0  0  0  0
  -32.1890  -15.1580   20.0790 N   0  0  0  0  0  0  0  0  0  0  0  0
  -33.7670  -15.5880   18.4810 O   0  0  0  0  0  0  0  0  0  0  0  0
  -31.6570  -16.3280   18.2150 N   0  0  0  0  0  0  0  0  0  0  0  0
  -30.7670  -16.4090   18.6840 H   0  0  0  0  0  0  0  0  0  0  0  0
  -27.9130  -14.3710   20.8370 C   0  0  0  0  0  0  0  0  0  0  0  0
  -26.7740  -13.6700   21.1230 C   0  0  0  0  0  0  0  0  0  0  0  0
  -27.1280  -12.2880   21.0340 C   0  0  0  0  0  0  0  0  0  0  0  0
  -28.8990  -13.4250   20.6060 N   0  0  0  0  0  0  0  0  0  0  0  0
  -28.4240  -12.1620   20.7760 N   0  0  0  0  0  0  0  0  0  0  0  0
  -26.2970  -11.0800   21.1230 C   0  0  0  0  0  0  0  0  0  0  0  0
  -26.1910  -10.3400   22.3230 C   0  0  0  0  0  3  0  0  0  0  0  0
  -25.3700   -9.1940   22.3870 C   0  0  0  0  0  3  0  0  0  0  0  0
  -24.6410   -8.7780   21.2480 C   0  0  0  0  0  0  0  0  0  0  0  0
  -24.7670   -9.5040   20.0510 C   0  0  0  0  0  3  0  0  0  0  0  0
  -25.5890  -10.6410   19.9850 C   0  0  0  0  0  3  0  0  0  0  0  0
  -23.8390   -7.6620   21.2100 O   0  0  0  0  0  0  0  0  0  0  0  0
  -22.8440   -7.4610   22.1320 C   0  0  0  0  0  0  0  0  0  0  0  0
  -21.7650   -8.3610   22.2710 C   0  0  0  0  0  3  0  0  0  0  0  0
  -20.7270   -8.0800   23.1820 C   0  0  0  0  0  3  0  0  0  0  0  0
  -20.7630   -6.9000   23.9490 C   0  0  0  0  0  0  0  0  0  0  0  0
  -21.8360   -6.0000   23.8110 C   0  0  0  0  0  3  0  0  0  0  0  0
  -22.8730   -6.2810   22.9020 C   0  0  0  0  0  0  0  0  0  0  0  0
  -23.8920   -5.4010   22.7560 F   0  0  0  0  0  0  0  0  0  0  0  0
  -19.7630   -6.6250   24.8190 F   0  0  0  0  0  0  0  0  0  0  0  0
  -25.4070  -14.2420   21.3670 C   0  0  0  0  0  0  0  0  0  0  0  0
  -24.6020  -13.5870   22.1960 N   0  0  0  0  0  0  0  0  0  0  0  0
  -25.0630  -15.3100   20.8580 O   0  0  0  0  0  0  0  0  0  0  0  0
  -24.8900  -12.7220   22.6300 H   0  0  0  0  0  0  0  0  0  0  0  0
  -23.6880  -13.9600   22.4060 H   0  0  0  0  0  0  0  0  0  0  0  0
  -28.1890  -15.7290   20.7300 N   0  0  0  0  0  0  0  0  0  0  0  0
  -27.4450  -16.4160   20.7360 H   0  0  0  0  0  0  0  0  0  0  0  0
  -29.0510  -16.0910   20.3430 H   0  0  0  0  0  0  0  0  0  0  0  0
  -26.8230  -23.3550   18.2100 C   0  0  0  0  0  2  0  0  0  0  0  0
  -27.3450  -24.2620   17.0710 C   0  0  0  0  0  2  0  0  0  0  0  0
  -26.6740  -25.6430   16.9910 C   0  0  0  0  0  2  0  0  0  0  0  0
  -27.2800  -26.6730   17.9480 C   0  0  0  0  0  2  0  0  0  0  0  0
  -26.8490  -27.9850   17.5920 O   0  0  0  0  0  0  0  0  0  0  0  0
  -24.8950  -28.6020   24.3670 C   0  0  0  0  0  0  0  0  0  0  0  0
  -25.9250  -28.4900   18.4670 C   0  0  0  0  0  0  0  0  0  0  0  0
  -23.1750  -29.2140   22.6940 C   0  0  0  0  0  3  0  0  0  0  0  0
  -24.0010  -29.4310   20.2940 C   0  0  0  0  0  0  0  0  0  0  0  0
  -25.6630  -29.4700   22.1650 C   0  0  0  0  0  2  0  0  0  0  0  0
  -25.3170  -29.2060   20.7160 C   0  0  0  0  0  0  0  0  0  0  0  0
  -26.2880  -28.7450   19.8030 C   0  0  0  0  0  3  0  0  0  0  0  0
  -24.5960  -28.7110   18.0490 C   0  0  0  0  0  3  0  0  0  0  0  0
  -23.6310  -29.1810   18.9590 C   0  0  0  0  0  3  0  0  0  0  0  0
  -23.0310  -29.9440   21.3320 C   0  0  0  0  0  2  0  0  0  0  0  0
  -24.6060  -29.0530   23.1140 N   0  0  0  0  0  0  0  0  0  0  0  0
  -23.9960  -28.3660   25.1850 O   0  0  0  0  0  0  0  0  0  0  0  0
  -22.4080  -27.8750   22.6150 C   0  0  0  0  0  0  0  0  0  0  0  0
  -21.1090  -27.9510   22.2830 N   0  0  0  0  0  0  0  0  0  0  0  0
  -22.9830  -26.8030   22.8200 O   0  0  0  0  0  0  0  0  0  0  0  0
  -20.7110  -28.8660   22.1240 H   0  0  0  0  0  0  0  0  0  0  0  0
  -17.8730  -26.9840   21.0140 C   0  0  0  0  0  0  0  0  0  0  0  0
  -20.1990  -26.8180   22.1240 C   0  0  0  0  0  3  0  0  0  0  0  0
  -20.6010  -25.9370   20.9210 C   0  0  0  0  0  2  0  0  0  0  0  0
  -19.8870  -26.3180   19.6210 C   0  0  0  0  0  2  0  0  0  0  0  0
  -18.3680  -26.2210   19.7970 C   0  0  0  0  0  2  0  0  0  0  0  0
  -18.7380  -27.2750   22.1010 C   0  0  0  0  0  0  0  0  0  0  0  0
  -18.2380  -28.0110   23.1980 C   0  0  0  0  0  3  0  0  0  0  0  0
  -16.9000  -28.4500   23.2190 C   0  0  0  0  0  3  0  0  0  0  0  0
  -16.0440  -28.1450   22.1490 C   0  0  0  0  0  3  0  0  0  0  0  0
  -16.5290  -27.4080   21.0510 C   0  0  0  0  0  3  0  0  0  0  0  0
  -26.3660  -28.3900   24.8420 C   0  0  0  0  0  3  0  0  0  0  0  0
  -26.5140  -29.0670   26.1360 N   0  0  0  0  0  0  0  0  0  0  0  0
  -27.2710  -30.1540   26.3430 C   0  0  0  0  0  0  0  0  0  0  0  0
  -27.9840  -30.6510   25.4670 O   0  0  0  0  0  0  0  0  0  0  0  0
  -25.9170  -28.7480   26.8850 H   0  0  0  0  0  0  0  0  0  0  0  0
  -26.4130  -32.0860   27.7010 C   0  0  0  0  0  1  0  0  0  0  0  0
  -27.2320  -30.7870   27.7470 C   0  0  0  0  0  3  0  0  0  0  0  0
  -29.3210  -29.8510   28.6330 C   0  0  0  0  0  1  0  0  0  0  0  0
  -28.5730  -31.0620   28.3060 N   0  0  0  0  0  0  0  0  0  0  0  0
  -28.5030  -31.6280   29.1460 H   0  0  0  0  0  0  0  0  0  0  0  0
  -26.7700  -26.8700   24.9560 C   0  0  1  0  0  0  0  0  0  0  0  0
  -25.7850  -26.0300   25.8000 C   0  0  0  0  0  1  0  0  0  0  0  0
  -26.8610  -26.2240   23.5540 C   0  0  0  0  0  1  0  0  0  0  0  0
  -28.1730  -26.7440   25.5980 C   0  0  0  0  0  1  0  0  0  0  0  0
  1  5  1  0
  3 10  1  0
  3  5  1  0
  4 53  1  0
  4  2  1  0
  4  1  1  0
  5  6  1  0
  7  2  1  0
  7  3  1  0
  7  8  1  0
  9  7  1  0
 11 10  2  0
 12 10  1  0
 13 14  1  0
 13 12  1  0
 14 23  1  0
 15 21  1  0
 17 18  1  0
 17 16  1  0
 19 20  1  0
 19 28  1  0
 19 18  1  0
 21 20  1  0
 21 16  1  0
 22 15  2  0
 23 24  1  0
 23 15  1  0
 25 26  2  0
 26 45  1  0
 27 26  1  0
 27 30  1  0
 28 29  1  0
 28 25  1  0
 29 27  2  0
 30 31  1  0
 31 32  2  0
 33 32  1  0
 34 33  2  0
 35 34  1  0
 35 30  2  0
 36 33  1  0
 36 37  1  0
 37 38  2  0
 37 42  1  0
 38 39  1  0
 39 40  2  0
 40 44  1  0
 41 40  1  0
 42 41  2  0
 43 42  1  0
 45 46  1  0
 46 49  1  0
 46 48  1  0
 47 45  2  0
 50 51  1  0
 50 25  1  0
 52 50  1  0
 54 53  1  0
 55 54  1  0
 55 56  1  0
 57 56  1  0
 57 59  1  0
 58 69  2  0
 59 64  1  0
 60 70  1  0
 60 68  1  0
 61 63  1  0
 61 67  1  0
 62 68  1  0
 63 62  1  0
 64 63  2  0
 65 59  2  0
 65 66  1  0
 66 61  2  0
 67 60  1  0
 68 58  1  0
 70 72  2  0
 71 70  1  0
 73 71  1  0
 74 83  2  0
 74 79  1  0
 75 71  1  0
 76 75  1  0
 77 78  1  0
 77 76  1  0
 78 74  1  0
 79 75  1  0
 79 80  2  0
 80 81  1  0
 82 81  2  0
 83 82  1  0
 84 58  1  0
 84 94  1  0
 84 85  1  0
 85 86  1  0
 85 88  1  0
 86 90  1  0
 87 86  2  0
 90 89  1  0
 90 92  1  0
 92 91  1  0
 92 93  1  0
 94 97  1  1
 94 95  1  0
 96 94  1  0
M  ISO  4  15 100  23 100  56 101  57 101
M  END
>  <TORSDO>  (78) 
F 24

>  <SCORE>  (78) 
-2.891

>  <name>  (78) 
80

>  <ligand_id>  (78) 
80

>  <original_smiles>  (78) 
[H]c1c([H])c([H])c2c(c1[H])C([H])([H])C([H])([H])C([H])([H])C2([H])N([H])C(=O)C1([H])N(C(=O)C([H])(N([H])C(=O)C([H])(N([H])C([H])([H])[H])C([H])([H])[H])C(C([H])([H])[H])(C([H])([H])[H])C([H])([H])[H])C([H])([H])c2c([H])c(OC([H])([H])C([H])([H])C([H])([H])C([H])([H])C3([H])C([H])([H])C([H])(C([H])([H])[H])C([H])(C(=O)C([H])([H])C([H])([H])C([H])([H])N([H])C(=O)N4C([H])([H])C([H])([H])C([H])([H])C([H])(n5nc(-c6c([H])c([H])c(Oc7c([H])c([H])c(F)c([H])c7F)c([H])c6[H])c(C(=O)N([H])[H])c5N([H])[H])C4([H])[H])[N+]([H])([H])C3([H])[H])c([H])c([H])c2C1([H])[H]

>  <smiles>  (78) 
[H]c1c([H])c([H])c2c(c1[H])C([H])([H])C([H])([H])C([H])([H])C2([H])N([H])C(=O)C1([H])N(C(=O)C([H])(N([H])C(=O)C([H])(N([H])C([H])([H])[H])C([H])([H])[H])C(C([H])([H])[H])(C([H])([H])[H])C([H])([H])[H])C([H])([H])c2c([H])c(OC([H])([H])C([H])([H])C([H])([H])C([H])([H])C3([H])C([H])([H])C([H])(C([H])([H])[H])C([H])(C(=O)C([H])([H])C([H])([H])C([H])([H])N([H])C(=O)N4C([H])([H])C([H])([H])C([H])([H])C([H])(n5nc(-c6c([H])c([H])c(Oc7c([H])c([H])c(F)c([H])c7F)c([H])c6[H])c(C(=O)N([H])[H])c5N([H])[H])C4([H])[H])[N+]([H])([H])C3([H])[H])c([H])c([H])c2C1([H])[H]

$$$$
81:0:0
     RDKit          3D

 91 99  0  0  1  0  0  0  0  0999 V2000
  -29.5670  -21.6710   20.8880 C   0  0  0  0  0  2  0  0  0  0  0  0
  -30.1510  -20.3130   21.3710 C   0  0  0  0  0  2  0  0  0  0  0  0
  -29.4950  -19.0480   20.7830 C   0  0  0  0  0  0  0  0  0  0  0  0
  -28.2680  -18.9280   20.7910 O   0  0  0  0  0  0  0  0  0  0  0  0
  -31.3260  -14.4710   20.0110 C   0  0  0  0  0  0  0  0  0  0  0  0
  -31.0340  -12.1180   19.3740 C   0  0  0  0  0  2  0  0  0  0  0  0
  -30.1110  -12.0680   18.1380 C   0  0  0  0  0  2  0  0  0  0  0  0
  -28.6300  -12.0270   18.5680 C   0  0  0  0  0  2  0  0  0  0  0  0
  -28.2740  -13.1100   19.6240 C   0  0  0  0  0  3  0  0  0  0  0  0
  -29.3190  -13.1410   20.7630 C   0  0  0  0  0  2  0  0  0  0  0  0
  -30.6460  -13.3020   20.1540 N   0  0  0  0  0  0  0  0  0  0  0  0
  -32.5300  -14.5000   19.7370 O   0  0  0  0  0  0  0  0  0  0  0  0
  -31.4520  -17.1890   17.9890 C   0  0  0  0  0  2  0  0  0  0  0  0
  -30.6990  -18.3030   18.7170 C   0  0  0  0  0  2  0  0  0  0  0  0
  -30.6830  -15.8720   18.1270 C   0  0  0  0  0  2  0  0  0  0  0  0
  -29.8550  -16.4920   20.3690 C   0  0  0  0  0  2  0  0  0  0  0  0
  -30.4160  -17.9510   20.1940 C   0  0  0  0  0  3  0  0  0  0  0  0
  -30.5540  -15.4850   19.5400 N   0  0  0  0  0  0  0  0  0  0  0  0
  -25.9610  -13.8950   20.4270 C   0  0  0  0  0  0  0  0  0  0  0  0
  -24.8360  -13.2050   20.7920 C   0  0  0  0  0  0  0  0  0  0  0  0
  -25.1740  -11.8200   20.6950 C   0  0  0  0  0  0  0  0  0  0  0  0
  -26.9170  -12.9360   20.1350 N   0  0  0  0  0  0  0  0  0  0  0  0
  -26.4490  -11.6800   20.3540 N   0  0  0  0  0  0  0  0  0  0  0  0
  -24.3430  -10.6210   20.8510 C   0  0  0  0  0  0  0  0  0  0  0  0
  -24.6880   -9.5950   21.7600 C   0  0  0  0  0  3  0  0  0  0  0  0
  -23.8620   -8.4600   21.9050 C   0  0  0  0  0  3  0  0  0  0  0  0
  -22.6770   -8.3430   21.1410 C   0  0  0  0  0  0  0  0  0  0  0  0
  -22.3510   -9.3530   20.2190 C   0  0  0  0  0  3  0  0  0  0  0  0
  -23.1770  -10.4800   20.0730 C   0  0  0  0  0  3  0  0  0  0  0  0
  -21.8270   -7.2640   21.1990 O   0  0  0  0  0  0  0  0  0  0  0  0
  -21.6560   -6.5430   22.3530 C   0  0  0  0  0  0  0  0  0  0  0  0
  -21.1840   -7.1400   23.5430 C   0  0  0  0  0  3  0  0  0  0  0  0
  -20.9560   -6.3500   24.6860 C   0  0  0  0  0  3  0  0  0  0  0  0
  -21.1910   -4.9620   24.6410 C   0  0  0  0  0  0  0  0  0  0  0  0
  -21.6580   -4.3650   23.4570 C   0  0  0  0  0  3  0  0  0  0  0  0
  -21.8870   -5.1530   22.3150 C   0  0  0  0  0  0  0  0  0  0  0  0
  -22.3160   -4.5690   21.1700 F   0  0  0  0  0  0  0  0  0  0  0  0
  -20.9650   -4.2000   25.7360 F   0  0  0  0  0  0  0  0  0  0  0  0
  -23.4940  -13.7920   21.1200 C   0  0  0  0  0  0  0  0  0  0  0  0
  -22.7420  -13.1430   22.0040 N   0  0  0  0  0  0  0  0  0  0  0  0
  -23.1220  -14.8550   20.6260 O   0  0  0  0  0  0  0  0  0  0  0  0
  -23.0590  -12.2820   22.4240 H   0  0  0  0  0  0  0  0  0  0  0  0
  -21.8400  -13.5150   22.2670 H   0  0  0  0  0  0  0  0  0  0  0  0
  -26.2440  -15.2510   20.3000 N   0  0  0  0  0  0  0  0  0  0  0  0
  -25.5420  -15.9680   20.4580 H   0  0  0  0  0  0  0  0  0  0  0  0
  -27.1290  -15.6270   19.9840 H   0  0  0  0  0  0  0  0  0  0  0  0
  -29.1270  -22.5840   22.0570 C   0  0  0  0  0  2  0  0  0  0  0  0
  -28.7060  -24.0340   21.6950 C   0  0  0  0  0  2  0  0  0  0  0  0
  -29.8690  -25.0520   21.5780 C   0  0  0  0  0  2  0  0  0  0  0  0
  -29.4290  -26.5390   21.5370 C   0  0  0  0  0  2  0  0  0  0  0  0
  -28.9350  -26.9160   20.2490 O   0  0  0  0  0  0  0  0  0  0  0  0
  -24.7520  -31.8300   23.3180 C   0  0  0  0  0  0  0  0  0  0  0  0
  -27.7620  -27.6360   20.2470 C   0  0  0  0  0  0  0  0  0  0  0  0
  -23.6890  -30.4020   21.5990 C   0  0  0  0  0  3  0  0  0  0  0  0
  -25.2860  -28.9940   20.1900 C   0  0  0  0  0  0  0  0  0  0  0  0
  -26.1910  -30.9170   21.5020 C   0  0  0  0  0  2  0  0  0  0  0  0
  -26.3830  -29.5680   20.8420 C   0  0  0  0  0  0  0  0  0  0  0  0
  -27.6260  -28.8960   20.8780 C   0  0  0  0  0  3  0  0  0  0  0  0
  -26.6570  -27.0800   19.5760 C   0  0  0  0  0  3  0  0  0  0  0  0
  -25.4150  -27.7450   19.5530 C   0  0  0  0  0  3  0  0  0  0  0  0
  -23.9880  -29.7730   20.2110 C   0  0  0  0  0  2  0  0  0  0  0  0
  -24.8930  -31.0650   22.1990 N   0  0  0  0  0  0  0  0  0  0  0  0
  -23.6400  -32.0240   23.8260 O   0  0  0  0  0  0  0  0  0  0  0  0
  -23.0680  -29.3200   22.5100 C   0  0  0  0  0  0  0  0  0  0  0  0
  -21.7710  -29.0400   22.3080 N   0  0  0  0  0  0  0  0  0  0  0  0
  -23.7530  -28.7370   23.3550 O   0  0  0  0  0  0  0  0  0  0  0  0
  -21.2790  -29.5670   21.5990 H   0  0  0  0  0  0  0  0  0  0  0  0
  -18.4720  -27.5940   22.6050 C   0  0  0  0  0  0  0  0  0  0  0  0
  -20.9860  -28.0330   23.0200 C   0  0  0  0  0  3  0  0  0  0  0  0
  -21.2250  -26.6240   22.4310 C   0  0  0  0  0  2  0  0  0  0  0  0
  -20.2050  -26.2390   21.3540 C   0  0  0  0  0  2  0  0  0  0  0  0
  -18.7830  -26.2720   21.9230 C   0  0  0  0  0  2  0  0  0  0  0  0
  -19.5070  -28.4280   23.1060 C   0  0  0  0  0  0  0  0  0  0  0  0
  -19.1660  -29.6620   23.7010 C   0  0  0  0  0  3  0  0  0  0  0  0
  -17.8230  -30.0660   23.7990 C   0  0  0  0  0  3  0  0  0  0  0  0
  -16.8010  -29.2300   23.3170 C   0  0  0  0  0  3  0  0  0  0  0  0
  -17.1260  -27.9960   22.7250 C   0  0  0  0  0  3  0  0  0  0  0  0
  -25.9780  -32.5170   23.9990 C   0  0  0  0  0  3  0  0  0  0  0  0
  -26.4380  -31.7940   25.3240 C   0  0  1  0  0  0  0  0  0  0  0  0
  -25.2860  -31.5320   26.3220 C   0  0  0  0  0  1  0  0  0  0  0  0
  -27.1020  -30.4340   24.9990 C   0  0  0  0  0  1  0  0  0  0  0  0
  -27.5120  -32.6480   26.0390 C   0  0  0  0  0  1  0  0  0  0  0  0
  -25.6090  -33.9120   24.2680 N   0  0  0  0  0  0  0  0  0  0  0  0
  -25.9570  -34.9510   23.4960 C   0  0  0  0  0  0  0  0  0  0  0  0
  -26.6920  -34.8380   22.5110 O   0  0  0  0  0  0  0  0  0  0  0  0
  -24.9630  -34.0700   25.0260 H   0  0  0  0  0  0  0  0  0  0  0  0
  -24.2000  -36.6730   22.9820 C   0  0  0  0  0  1  0  0  0  0  0  0
  -25.4020  -36.3360   23.8790 C   0  0  0  0  0  3  0  0  0  0  0  0
  -27.4490  -37.3200   24.8110 C   0  0  0  0  0  1  0  0  0  0  0  0
  -26.4070  -37.4180   23.7920 N   0  0  0  0  0  0  0  0  0  0  0  0
  -25.9650  -38.3280   23.8790 H   0  0  0  0  0  0  0  0  0  0  0  0
  1  2  1  0
  1 47  1  0
  3  4  2  0
  3  2  1  0
  5 11  1  0
  6 11  1  0
  7  8  1  0
  7  6  1  0
  9  8  1  0
  9 22  1  0
  9 10  1  0
 11 10  1  0
 12  5  2  0
 13 15  1  0
 13 14  1  0
 14 17  1  0
 15 18  1  0
 17 16  1  0
 17  3  1  0
 18  5  1  0
 18 16  1  0
 19 20  2  0
 20 39  1  0
 21 20  1  0
 21 24  1  0
 22 23  1  0
 22 19  1  0
 23 21  2  0
 24 25  1  0
 25 26  2  0
 27 30  1  0
 27 26  1  0
 28 27  2  0
 29 28  1  0
 29 24  2  0
 30 31  1  0
 31 32  1  0
 32 33  2  0
 34 33  1  0
 34 38  1  0
 35 34  2  0
 36 31  2  0
 36 35  1  0
 37 36  1  0
 39 40  1  0
 40 43  1  0
 40 42  1  0
 41 39  2  0
 44 19  1  0
 44 45  1  0
 46 44  1  0
 48 47  1  0
 49 48  1  0
 50 49  1  0
 51 50  1  0
 52 63  2  0
 53 51  1  0
 53 58  1  0
 54 62  1  0
 54 64  1  0
 55 61  1  0
 55 57  1  0
 56 62  1  0
 57 58  2  0
 57 56  1  0
 59 53  2  0
 60 59  1  0
 60 55  2  0
 61 54  1  0
 62 52  1  0
 64 66  2  0
 65 64  1  0
 67 65  1  0
 68 77  2  0
 68 73  1  0
 69 65  1  0
 69 73  1  0
 70 69  1  0
 71 72  1  0
 71 70  1  0
 72 68  1  0
 73 74  2  0
 74 75  1  0
 76 75  2  0
 77 76  1  0
 78 52  1  0
 78 83  1  0
 78 79  1  0
 79 82  1  1
 79 80  1  0
 81 79  1  0
 83 86  1  0
 84 88  1  0
 84 83  1  0
 85 84  2  0
 88 87  1  0
 90 91  1  0
 90 88  1  0
 90 89  1  0
M  ISO  4   5 100  18 100  50 101  51 101
M  END
>  <TORSDO>  (79) 
F 22

>  <SCORE>  (79) 
-12.012

>  <name>  (79) 
81

>  <ligand_id>  (79) 
81

>  <original_smiles>  (79) 
[H]c1c([H])c([H])c2c(c1[H])C([H])([H])C([H])([H])C([H])([H])C2([H])N([H])C(=O)C1([H])N(C(=O)C([H])(N([H])C(=O)C([H])(N([H])C([H])([H])[H])C([H])([H])[H])C(C([H])([H])[H])(C([H])([H])[H])C([H])([H])[H])C([H])([H])c2c([H])c(OC([H])([H])C([H])([H])C([H])([H])C([H])([H])C([H])([H])C([H])([H])C(=O)C3([H])C([H])([H])N(C(=O)N4C([H])([H])C([H])([H])C([H])([H])C([H])(n5nc(-c6c([H])c([H])c(Oc7c([H])c([H])c(F)c([H])c7F)c([H])c6[H])c(C(=O)N([H])[H])c5N([H])[H])C4([H])[H])C([H])([H])C([H])([H])C3([H])[H])c([H])c([H])c2C1([H])[H]

>  <smiles>  (79) 
[H]c1c([H])c([H])c2c(c1[H])C([H])([H])C([H])([H])C([H])([H])C2([H])N([H])C(=O)C1([H])N(C(=O)C([H])(N([H])C(=O)C([H])(N([H])C([H])([H])[H])C([H])([H])[H])C(C([H])([H])[H])(C([H])([H])[H])C([H])([H])[H])C([H])([H])c2c([H])c(OC([H])([H])C([H])([H])C([H])([H])C([H])([H])C([H])([H])C([H])([H])C(=O)C3([H])C([H])([H])N(C(=O)N4C([H])([H])C([H])([H])C([H])([H])C([H])(n5nc(-c6c([H])c([H])c(Oc7c([H])c([H])c(F)c([H])c7F)c([H])c6[H])c(C(=O)N([H])[H])c5N([H])[H])C4([H])[H])C([H])([H])C([H])([H])C3([H])[H])c([H])c([H])c2C1([H])[H]

$$$$
82:0:0
     RDKit          3D

 98109  0  0  1  0  0  0  0  0999 V2000
  -27.8750  -20.8910   17.2710 C   0  0  0  0  0  0  0  0  0  0  0  0
  -28.5510  -21.9830   17.6600 N   0  0  0  0  0  0  0  0  0  0  0  0
  -27.1420  -20.9100   16.2800 O   0  0  0  0  0  0  0  0  0  0  0  0
  -29.1350  -21.8760   18.4780 H   0  0  0  0  0  0  0  0  0  0  0  0
  -26.6350  -19.3220   18.8130 C   0  0  0  0  0  1  0  0  0  0  0  0
  -28.0060  -19.6090   18.1490 C   0  0  1  0  0  0  0  0  0  0  0  0
  -29.4560  -17.4250   17.7900 C   0  0  0  0  0  1  0  0  0  0  0  0
  -28.3880  -18.3940   17.2460 C   0  0  0  0  0  2  0  0  0  0  0  0
  -29.0560  -19.8410   19.2710 C   0  0  0  0  0  2  0  0  0  0  0  0
  -30.1330  -20.9080   18.9810 C   0  0  0  0  0  2  0  0  0  0  0  0
  -33.1830  -21.5950   14.9460 C   0  0  0  0  0  0  0  0  0  0  0  0
  -32.7970  -23.1790   13.0970 C   0  0  0  0  0  2  0  0  0  0  0  0
  -32.5330  -24.5940   13.6420 C   0  0  0  0  0  2  0  0  0  0  0  0
  -31.0280  -24.7980   13.8990 C   0  0  0  0  0  2  0  0  0  0  0  0
  -30.4010  -23.6250   14.6930 C   0  0  0  0  0  3  0  0  0  0  0  0
  -30.8250  -22.2530   14.1010 C   0  0  0  0  0  2  0  0  0  0  0  0
  -32.2950  -22.2180   14.1050 N   0  0  0  0  0  0  0  0  0  0  0  0
  -34.3710  -21.5570   14.6110 O   0  0  0  0  0  0  0  0  0  0  0  0
  -32.4410  -19.9060   18.9070 C   0  0  0  0  0  2  0  0  0  0  0  0
  -33.5240  -19.4060   17.9670 C   0  0  0  0  0  2  0  0  0  0  0  0
  -31.7290  -21.5080   17.0750 C   0  0  0  0  0  2  0  0  0  0  0  0
  -31.2660  -20.4100   18.0660 C   0  0  0  0  0  3  0  0  0  0  0  0
  -33.9770  -20.5100   16.9990 C   0  0  0  0  0  3  0  0  0  0  0  0
  -34.8140  -21.5920   17.7230 C   0  0  0  0  0  1  0  0  0  0  0  0
  -32.8600  -21.1090   16.1980 N   0  0  0  0  0  0  0  0  0  0  0  0
  -28.1470  -23.7740   15.9190 C   0  0  2  0  0  0  0  0  0  0  0  0
  -26.8740  -23.9970   15.4750 C   0  0  0  0  0  3  0  0  0  0  0  0
  -26.9760  -24.1340   14.0560 C   0  0  0  0  0  0  0  0  0  0  0  0
  -28.9510  -23.7550   14.7920 N   0  0  0  0  0  4  0  0  0  0  0  0
  -28.2240  -23.9260   13.6590 N   0  0  0  0  0  0  0  0  0  0  0  0
  -25.9680  -24.5160   13.0610 C   0  0  0  0  0  0  0  0  0  0  0  0
  -25.1820  -23.5460   12.3980 C   0  0  0  0  0  3  0  0  0  0  0  0
  -24.2070  -23.9380   11.4580 C   0  0  0  0  0  3  0  0  0  0  0  0
  -24.0070  -25.3100   11.1740 C   0  0  0  0  0  0  0  0  0  0  0  0
  -24.8080  -26.2700   11.8160 C   0  0  0  0  0  3  0  0  0  0  0  0
  -25.7820  -25.8780   12.7500 C   0  0  0  0  0  3  0  0  0  0  0  0
  -23.0960  -25.7840   10.2590 O   0  0  0  0  0  0  0  0  0  0  0  0
  -21.7460  -25.6280   10.4420 C   0  0  0  0  0  0  0  0  0  0  0  0
  -21.0540  -26.2840   11.4850 C   0  0  0  0  0  3  0  0  0  0  0  0
  -19.6550  -26.1460   11.5960 C   0  0  0  0  0  3  0  0  0  0  0  0
  -18.9470  -25.3650   10.6620 C   0  0  0  0  0  0  0  0  0  0  0  0
  -19.6340  -24.7180    9.6210 C   0  0  0  0  0  3  0  0  0  0  0  0
  -21.0290  -24.8500    9.5110 C   0  0  0  0  0  0  0  0  0  0  0  0
  -21.6840  -24.2400    8.4940 F   0  0  0  0  0  0  0  0  0  0  0  0
  -17.6040  -25.2410   10.7630 F   0  0  0  0  0  0  0  0  0  0  0  0
  -25.6480  -24.1770   16.3220 C   0  0  0  0  0  0  0  0  0  0  0  0
  -24.4830  -23.8060   15.8050 N   0  0  0  0  0  0  0  0  0  0  0  0
  -25.7240  -24.6060   17.4730 O   0  0  0  0  0  0  0  0  0  0  0  0
  -24.4230  -23.4280   14.8720 H   0  0  0  0  0  0  0  0  0  0  0  0
  -23.6390  -23.8950   16.3550 H   0  0  0  0  0  0  0  0  0  0  0  0
  -28.6880  -23.6220   17.1900 N   0  0  0  0  0  0  0  0  0  0  0  0
  -28.1120  -23.6930   18.0200 H   0  0  0  0  0  0  0  0  0  0  0  0
  -29.6770  -23.5540   17.3890 H   0  0  0  0  0  0  0  0  0  0  0  0
  -28.3450  -23.3440   17.1690 C   0  0  2  0  0  0  0  0  0  0  0  0
  -29.1700  -23.6690   15.9070 C   0  0  2  0  0  0  0  0  0  0  0  0
  -29.5360  -25.1670   15.8390 C   0  0  0  0  0  2  0  0  0  0  0  0
  -28.6960  -25.9990   14.8350 C   0  0  0  0  0  2  0  0  0  0  0  0
  -29.0420  -27.3920   14.8000 O   0  0  0  0  0  0  0  0  0  0  0  0
  -34.5850  -31.7090   15.6210 C   0  0  0  0  0  0  0  0  0  0  0  0
  -29.9960  -27.8440   15.6870 C   0  0  0  0  0  0  0  0  0  0  0  0
  -34.2760  -30.0210   17.4040 C   0  0  0  0  0  3  0  0  0  0  0  0
  -32.0470  -28.7880   17.3860 C   0  0  0  0  0  0  0  0  0  0  0  0
  -32.2730  -30.9150   16.0830 C   0  0  0  0  0  2  0  0  0  0  0  0
  -31.6030  -29.5780   16.3180 C   0  0  0  0  0  0  0  0  0  0  0  0
  -30.5730  -29.1120   15.4730 C   0  0  0  0  0  3  0  0  0  0  0  0
  -30.4300  -27.0710   16.7890 C   0  0  0  0  0  3  0  0  0  0  0  0
  -31.4590  -27.5340   17.6270 C   0  0  0  0  0  3  0  0  0  0  0  0
  -33.1550  -29.3500   18.2420 C   0  0  0  0  0  2  0  0  0  0  0  0
  -33.7360  -30.9020   16.3180 N   0  0  0  0  0  0  0  0  0  0  0  0
  -35.7910  -31.7610   15.8990 O   0  0  0  0  0  0  0  0  0  0  0  0
  -35.2260  -28.9210   16.8810 C   0  0  0  0  0  0  0  0  0  0  0  0
  -36.1630  -28.4840   17.7380 N   0  0  0  0  0  0  0  0  0  0  0  0
  -35.0940  -28.4590   15.7450 O   0  0  0  0  0  0  0  0  0  0  0  0
  -36.2050  -28.9140   18.6500 H   0  0  0  0  0  0  0  0  0  0  0  0
  -39.1260  -26.8790   19.0410 C   0  0  0  0  0  0  0  0  0  0  0  0
  -37.1420  -27.4290   17.4790 C   0  0  0  0  0  3  0  0  0  0  0  0
  -36.5810  -26.0420   17.8730 C   0  0  0  0  0  2  0  0  0  0  0  0
  -36.9410  -25.6290   19.3030 C   0  0  0  0  0  2  0  0  0  0  0  0
  -38.4610  -25.5860   19.4820 C   0  0  0  0  0  2  0  0  0  0  0  0
  -38.4990  -27.7530   18.1130 C   0  0  0  0  0  0  0  0  0  0  0  0
  -39.1430  -28.9590   17.7640 C   0  0  0  0  0  3  0  0  0  0  0  0
  -40.3900  -29.2970   18.3210 C   0  0  0  0  0  3  0  0  0  0  0  0
  -41.0150  -28.4220   19.2270 C   0  0  0  0  0  3  0  0  0  0  0  0
  -40.3870  -27.2150   19.5790 C   0  0  0  0  0  3  0  0  0  0  0  0
  -34.0790  -32.6230   14.4610 C   0  0  0  0  0  3  0  0  0  0  0  0
  -34.1900  -34.0160   14.9150 N   0  0  0  0  0  0  0  0  0  0  0  0
  -33.1760  -34.7360   15.4100 C   0  0  0  0  0  0  0  0  0  0  0  0
  -32.0170  -34.3140   15.4640 O   0  0  0  0  0  0  0  0  0  0  0  0
  -35.1210  -34.4060   14.9490 H   0  0  0  0  0  0  0  0  0  0  0  0
  -33.5970  -36.1260   17.4640 C   0  0  0  0  0  1  0  0  0  0  0  0
  -33.4970  -36.1520   15.9300 C   0  0  0  0  0  3  0  0  0  0  0  0
  -32.5670  -37.4840   14.0890 C   0  0  0  0  0  1  0  0  0  0  0  0
  -32.5070  -37.1680   15.5140 N   0  0  0  0  0  0  0  0  0  0  0  0
  -32.6290  -38.0290   16.0390 H   0  0  0  0  0  0  0  0  0  0  0  0
  -34.8690  -32.4120   13.1100 C   0  0  1  0  0  0  0  0  0  0  0  0
  -36.4060  -32.4730   13.2730 C   0  0  0  0  0  1  0  0  0  0  0  0
  -34.5160  -31.0490   12.4670 C   0  0  0  0  0  1  0  0  0  0  0  0
  -34.4540  -33.4960   12.0880 C   0  0  0  0  0  1  0  0  0  0  0  0
  1  2  1  0
  1  6  1  0
  2  4  1  0
  3  1  2  0
  6  5  1  1
  6  9  1  0
  8  7  1  0
  8  6  1  0
 10  9  1  0
 11 25  1  0
 12 13  1  0
 12 17  1  0
 13 14  1  0
 15 14  1  0
 15 29  1  0
 16 17  1  0
 16 15  1  0
 17 11  1  0
 18 11  2  0
 20 19  1  0
 22 21  1  0
 22 19  1  0
 22 10  1  0
 23 24  1  0
 23 20  1  0
 25 23  1  0
 25 21  1  0
 26 29  1  0
 26 54  1  0
 26 27  1  1
 27 46  1  0
 28 27  1  0
 29 55  1  0
 30 28  2  0
 30 29  1  0
 31 28  1  0
 32 31  2  0
 33 32  1  0
 34 33  2  0
 34 35  1  0
 35 36  2  0
 36 31  1  0
 37 38  1  0
 37 34  1  0
 38 39  1  0
 39 40  2  0
 41 45  1  0
 41 40  1  0
 42 41  2  0
 43 42  1  0
 43 38  2  0
 44 43  1  0
 46 48  2  0
 47 46  1  0
 47 50  1  0
 49 47  1  0
 51 53  1  0
 54 51  1  0
 54  2  1  0
 54 52  1  1
 55 56  1  1
 55 26  1  0
 55 51  1  0
 57 56  1  0
 58 57  1  0
 58 60  1  0
 59 70  2  0
 59 69  1  0
 60 66  1  0
 61 71  1  0
 61 68  1  0
 62 67  1  0
 62 68  1  0
 63 69  1  0
 63 64  1  0
 64 62  2  0
 65 60  2  0
 65 64  1  0
 66 67  2  0
 69 61  1  0
 71 72  1  0
 72 74  1  0
 73 71  2  0
 75 79  1  0
 75 84  1  0
 76 72  1  0
 76 77  1  0
 76 80  1  0
 77 78  1  0
 78 79  1  0
 80 75  2  0
 81 80  1  0
 81 82  2  0
 82 83  1  0
 83 84  2  0
 85 86  1  0
 85 59  1  0
 86 89  1  0
 86 87  1  0
 87 88  2  0
 87 91  1  0
 91 90  1  0
 92 93  1  0
 93 91  1  0
 93 94  1  0
 95 96  1  1
 95 85  1  0
 97 95  1  0
 98 95  1  0
M  ISO  4  11 100  25 100  57 101  58 101
M  END
>  <TORSDO>  (80) 
F 24

>  <SCORE>  (80) 
5.151

>  <name>  (80) 
82

>  <ligand_id>  (80) 
82

>  <original_smiles>  (80) 
[H]c1c([H])c([H])c2c(c1[H])C([H])([H])C([H])([H])C([H])([H])C2([H])N([H])C(=O)C1([H])N(C(=O)C([H])(N([H])C(=O)C([H])(N([H])C([H])([H])[H])C([H])([H])[H])C(C([H])([H])[H])(C([H])([H])[H])C([H])([H])[H])C([H])([H])c2c([H])c(OC([H])([H])C([H])([H])C([H])([H])C([H])([H])N([H])C(=O)C(C([H])([H])[H])(C([H])([H])C([H])([H])[H])C([H])([H])C([H])([H])C3([H])C([H])([H])N(C(=O)N4C([H])([H])C([H])([H])C([H])([H])C([H])(n5nc(-c6c([H])c([H])c(Oc7c([H])c([H])c(F)c([H])c7F)c([H])c6[H])c(C(=O)N([H])[H])c5N([H])[H])C4([H])[H])C([H])(C([H])([H])[H])C([H])([H])C3([H])[H])c([H])c([H])c2C1([H])[H]

>  <smiles>  (80) 
[H]c1c([H])c([H])c2c(c1[H])C([H])([H])C([H])([H])C([H])([H])C2([H])N([H])C(=O)C1([H])N(C(=O)C([H])(N([H])C(=O)C([H])(N([H])C([H])([H])[H])C([H])([H])[H])C(C([H])([H])[H])(C([H])([H])[H])C([H])([H])[H])C([H])([H])c2c([H])c(OC([H])([H])C([H])([H])C([H])([H])C([H])([H])N([H])C(=O)C(C([H])([H])[H])(C([H])([H])C([H])([H])[H])C([H])([H])C([H])([H])C3([H])C([H])([H])N(C(=O)N4C([H])([H])C([H])([H])C([H])([H])C([H])(n5nc(-c6c([H])c([H])c(Oc7c([H])c([H])c(F)c([H])c7F)c([H])c6[H])c(C(=O)N([H])[H])c5N([H])[H])C4([H])[H])C([H])(C([H])([H])[H])C([H])([H])C3([H])[H])c([H])c([H])c2C1([H])[H]

$$$$
83:0:0
     RDKit          3D

 98106  0  0  1  0  0  0  0  0999 V2000
  -26.1470  -21.2980   20.2970 C   0  0  0  0  0  2  0  0  0  0  0  0
  -27.3980  -22.0590   20.7490 C   0  0  0  0  0  2  0  0  0  0  0  0
  -28.1630  -20.0430   19.7440 C   0  0  0  0  0  3  0  0  0  0  0  0
  -26.6540  -20.1320   19.4280 C   0  0  0  0  0  3  0  0  0  0  0  0
  -28.5330  -21.4460   20.0290 N   0  0  2  0  0  4  0  0  0  0  0  0
  -28.5750  -21.8370   19.0960 H   0  0  0  0  0  0  0  0  0  0  0  0
  -28.9790  -19.6040   18.5130 C   0  0  0  0  0  0  0  0  0  0  0  0
  -29.3220  -20.4150   17.6470 O   0  0  0  0  0  0  0  0  0  0  0  0
  -29.3370  -18.1230   18.3520 C   0  0  0  0  0  2  0  0  0  0  0  0
  -30.8420  -17.8440   18.5780 C   0  0  0  0  0  2  0  0  0  0  0  0
  -31.2440  -17.6510   20.0580 C   0  0  0  0  0  2  0  0  0  0  0  0
  -31.6530  -15.2300   20.4260 C   0  0  0  0  0  0  0  0  0  0  0  0
  -31.6250  -12.7780   20.2440 C   0  0  0  0  0  2  0  0  0  0  0  0
  -30.8560  -12.3690   18.9720 C   0  0  0  0  0  2  0  0  0  0  0  0
  -29.3450  -12.2630   19.2530 C   0  0  0  0  0  2  0  0  0  0  0  0
  -28.7820  -13.5030   19.9990 C   0  0  0  0  0  3  0  0  0  0  0  0
  -29.6750  -13.8750   21.2040 C   0  0  0  0  0  2  0  0  0  0  0  0
  -31.0560  -14.0470   20.7200 N   0  0  0  0  0  0  0  0  0  0  0  0
  -32.7930  -15.3150   19.9630 O   0  0  0  0  0  0  0  0  0  0  0  0
  -30.8810  -16.3190   20.5510 N   0  0  0  0  0  0  0  0  0  0  0  0
  -29.9690  -16.1900   20.9610 H   0  0  0  0  0  0  0  0  0  0  0  0
  -26.3890  -14.2360   20.5940 C   0  0  0  0  0  0  0  0  0  0  0  0
  -25.2570  -13.5200   20.8880 C   0  0  0  0  0  0  0  0  0  0  0  0
  -25.6390  -12.1450   20.8410 C   0  0  0  0  0  0  0  0  0  0  0  0
  -27.3900  -13.2980   20.3960 N   0  0  0  0  0  0  0  0  0  0  0  0
  -26.9390  -12.0340   20.5990 N   0  0  0  0  0  0  0  0  0  0  0  0
  -24.8290  -10.9240   20.9610 C   0  0  0  0  0  0  0  0  0  0  0  0
  -25.0700   -9.9760   21.9790 C   0  0  0  0  0  3  0  0  0  0  0  0
  -24.2670   -8.8200   22.0840 C   0  0  0  0  0  3  0  0  0  0  0  0
  -23.2080   -8.6050   21.1700 C   0  0  0  0  0  0  0  0  0  0  0  0
  -22.9870   -9.5420   20.1450 C   0  0  0  0  0  3  0  0  0  0  0  0
  -23.7900  -10.6900   20.0390 C   0  0  0  0  0  3  0  0  0  0  0  0
  -22.3920   -7.4990   21.1790 O   0  0  0  0  0  0  0  0  0  0  0  0
  -22.0180   -6.8920   22.3510 C   0  0  0  0  0  0  0  0  0  0  0  0
  -21.3160   -7.5890   23.3600 C   0  0  0  0  0  3  0  0  0  0  0  0
  -20.8890   -6.9090   24.5180 C   0  0  0  0  0  3  0  0  0  0  0  0
  -21.1500   -5.5330   24.6650 C   0  0  0  0  0  0  0  0  0  0  0  0
  -21.8430   -4.8370   23.6590 C   0  0  0  0  0  3  0  0  0  0  0  0
  -22.2730   -5.5140   22.5040 C   0  0  0  0  0  0  0  0  0  0  0  0
  -22.9210   -4.8330   21.5280 F   0  0  0  0  0  0  0  0  0  0  0  0
  -20.7330   -4.8790   25.7730 F   0  0  0  0  0  0  0  0  0  0  0  0
  -23.8790  -14.0770   21.1000 C   0  0  0  0  0  0  0  0  0  0  0  0
  -23.0730  -13.4170   21.9240 N   0  0  0  0  0  0  0  0  0  0  0  0
  -23.5260  -15.1310   20.5730 O   0  0  0  0  0  0  0  0  0  0  0  0
  -23.3700  -12.5660   22.3790 H   0  0  0  0  0  0  0  0  0  0  0  0
  -22.1450  -13.7720   22.1080 H   0  0  0  0  0  0  0  0  0  0  0  0
  -26.6430  -15.5940   20.4610 N   0  0  0  0  0  0  0  0  0  0  0  0
  -25.8940  -16.2760   20.4920 H   0  0  0  0  0  0  0  0  0  0  0  0
  -27.5180  -15.9710   20.1250 H   0  0  0  0  0  0  0  0  0  0  0  0
  -24.4880  -18.8660   18.9190 C   0  0  0  0  0  1  0  0  0  0  0  0
  -25.8580  -18.8240   19.6100 C   0  0  0  0  0  2  0  0  0  0  0  0
  -29.8710  -21.6970   20.6180 C   0  0  0  0  0  2  0  0  0  0  0  0
  -30.2790  -23.1880   20.4990 C   0  0  0  0  0  2  0  0  0  0  0  0
  -30.2190  -23.8350   19.0880 C   0  0  0  0  0  2  0  0  0  0  0  0
  -28.8600  -24.4490   18.6680 C   0  0  0  0  0  2  0  0  0  0  0  0
  -28.9610  -25.6390   17.6880 C   0  0  0  0  0  2  0  0  0  0  0  0
  -27.5700  -26.0980   17.1860 C   0  0  0  0  0  2  0  0  0  0  0  0
  -27.4510  -27.5230   17.2100 O   0  0  0  0  0  0  0  0  0  0  0  0
  -24.4710  -31.0530   22.5880 C   0  0  0  0  0  0  0  0  0  0  0  0
  -26.2870  -28.0820   17.6960 C   0  0  0  0  0  0  0  0  0  0  0  0
  -22.8980  -30.1750   20.8940 C   0  0  0  0  0  3  0  0  0  0  0  0
  -23.9590  -29.2910   18.7590 C   0  0  0  0  0  0  0  0  0  0  0  0
  -25.3010  -30.7750   20.2590 C   0  0  0  0  0  2  0  0  0  0  0  0
  -25.2240  -29.6960   19.2010 C   0  0  0  0  0  0  0  0  0  0  0  0
  -26.3880  -29.1000   18.6700 C   0  0  0  0  0  3  0  0  0  0  0  0
  -24.9990  -27.7000   17.2460 C   0  0  0  0  0  3  0  0  0  0  0  0
  -23.8380  -28.2860   17.7830 C   0  0  0  0  0  3  0  0  0  0  0  0
  -22.7740  -30.0050   19.3580 C   0  0  0  0  0  2  0  0  0  0  0  0
  -24.2560  -30.6630   21.3010 N   0  0  0  0  0  0  0  0  0  0  0  0
  -23.5530  -31.0470   23.4210 O   0  0  0  0  0  0  0  0  0  0  0  0
  -22.4910  -28.8520   21.5770 C   0  0  0  0  0  0  0  0  0  0  0  0
  -21.1820  -28.5480   21.5580 N   0  0  0  0  0  0  0  0  0  0  0  0
  -23.3420  -28.1180   22.0890 O   0  0  0  0  0  0  0  0  0  0  0  0
  -20.5460  -29.2050   21.1290 H   0  0  0  0  0  0  0  0  0  0  0  0
  -18.0840  -26.7100   21.8430 C   0  0  0  0  0  0  0  0  0  0  0  0
  -20.5780  -27.3380   22.1150 C   0  0  0  0  0  3  0  0  0  0  0  0
  -20.8790  -26.1080   21.2290 C   0  0  0  0  0  2  0  0  0  0  0  0
  -19.7880  -25.8310   20.1900 C   0  0  0  0  0  2  0  0  0  0  0  0
  -18.4400  -25.5910   20.8790 C   0  0  0  0  0  2  0  0  0  0  0  0
  -19.0880  -27.5370   22.4130 C   0  0  0  0  0  0  0  0  0  0  0  0
  -18.7020  -28.5810   23.2820 C   0  0  0  0  0  3  0  0  0  0  0  0
  -17.3460  -28.8020   23.5860 C   0  0  0  0  0  3  0  0  0  0  0  0
  -16.3580  -27.9710   23.0310 C   0  0  0  0  0  3  0  0  0  0  0  0
  -16.7280  -26.9260   22.1660 C   0  0  0  0  0  3  0  0  0  0  0  0
  -25.8710  -31.5480   23.0690 C   0  0  0  0  0  3  0  0  0  0  0  0
  -26.6350  -30.4900   23.9550 C   0  0  1  0  0  0  0  0  0  0  0  0
  -25.7930  -29.9520   25.1350 C   0  0  0  0  0  1  0  0  0  0  0  0
  -27.0880  -29.2820   23.1010 C   0  0  0  0  0  1  0  0  0  0  0  0
  -27.9190  -31.1220   24.5380 C   0  0  0  0  0  1  0  0  0  0  0  0
  -25.6630  -32.7970   23.8110 N   0  0  0  0  0  0  0  0  0  0  0  0
  -25.9780  -34.0150   23.3530 C   0  0  0  0  0  0  0  0  0  0  0  0
  -26.5420  -34.2000   22.2690 O   0  0  0  0  0  0  0  0  0  0  0  0
  -25.1450  -32.7310   24.6740 H   0  0  0  0  0  0  0  0  0  0  0  0
  -24.3540  -35.9050   23.6780 C   0  0  0  0  0  1  0  0  0  0  0  0
  -25.6110  -35.2200   24.2370 C   0  0  0  0  0  3  0  0  0  0  0  0
  -27.8440  -35.7050   25.1380 C   0  0  0  0  0  1  0  0  0  0  0  0
  -26.7050  -36.2090   24.3730 N   0  0  0  0  0  0  0  0  0  0  0  0
  -26.3680  -37.0550   24.8270 H   0  0  0  0  0  0  0  0  0  0  0  0
  1  2  1  0
  3  7  1  0
  3  5  1  0
  4 51  1  0
  4  3  1  0
  4  1  1  0
  5 52  1  0
  5  2  1  0
  5  6  1  6
  8  7  2  0
  9  7  1  0
  9 10  1  0
 10 11  1  0
 11 20  1  0
 12 20  1  0
 12 18  1  0
 13 18  1  0
 14 15  1  0
 14 13  1  0
 16 15  1  0
 16 25  1  0
 16 17  1  0
 18 17  1  0
 19 12  2  0
 20 21  1  0
 22 23  2  0
 23 42  1  0
 24 23  1  0
 24 27  1  0
 25 22  1  0
 25 26  1  0
 26 24  2  0
 27 28  1  0
 28 29  2  0
 30 33  1  0
 30 29  1  0
 31 30  2  0
 32 31  1  0
 32 27  2  0
 33 34  1  0
 34 39  2  0
 34 35  1  0
 35 36  2  0
 36 37  1  0
 37 41  1  0
 38 37  2  0
 39 38  1  0
 40 39  1  0
 42 43  1  0
 43 46  1  0
 43 45  1  0
 44 42  2  0
 47 48  1  0
 47 22  1  0
 49 47  1  0
 50 51  1  0
 53 52  1  0
 54 53  1  0
 55 54  1  0
 56 55  1  0
 57 58  1  0
 57 56  1  0
 58 60  1  0
 59 70  2  0
 60 65  1  0
 61 69  1  0
 61 71  1  0
 62 64  1  0
 62 68  1  0
 63 69  1  0
 64 63  1  0
 65 64  2  0
 66 60  2  0
 66 67  1  0
 67 62  2  0
 68 61  1  0
 69 59  1  0
 71 73  2  0
 72 71  1  0
 74 72  1  0
 75 84  2  0
 75 80  1  0
 76 72  1  0
 76 80  1  0
 77 76  1  0
 78 79  1  0
 78 77  1  0
 79 75  1  0
 80 81  2  0
 81 82  1  0
 83 82  2  0
 84 83  1  0
 85 59  1  0
 85 90  1  0
 85 86  1  0
 86 89  1  1
 86 87  1  0
 88 86  1  0
 90 93  1  0
 91 90  1  0
 91 95  1  0
 92 91  2  0
 95 94  1  0
 95 97  1  0
 97 98  1  0
 97 96  1  0
M  ISO  4  12 100  20 100  57 101  58 101
M  END
>  <TORSDO>  (81) 
F 27

>  <SCORE>  (81) 
-4.485

>  <name>  (81) 
83

>  <ligand_id>  (81) 
83

>  <original_smiles>  (81) 
[H]c1c([H])c([H])c2c(c1[H])C([H])([H])C([H])([H])C([H])([H])C2([H])N([H])C(=O)C1([H])N(C(=O)C([H])(N([H])C(=O)C([H])(N([H])C([H])([H])[H])C([H])([H])[H])C(C([H])([H])[H])(C([H])([H])[H])C([H])([H])[H])C([H])([H])c2c([H])c(OC([H])([H])C([H])([H])C([H])([H])C([H])([H])C([H])([H])C([H])([H])[N+]3([H])C([H])([H])C([H])([H])C([H])(C([H])([H])C([H])([H])[H])C3([H])C(=O)C([H])([H])C([H])([H])C([H])([H])N([H])C(=O)N3C([H])([H])C([H])([H])C([H])([H])C([H])(n4nc(-c5c([H])c([H])c(Oc6c([H])c([H])c(F)c([H])c6F)c([H])c5[H])c(C(=O)N([H])[H])c4N([H])[H])C3([H])[H])c([H])c([H])c2C1([H])[H]

>  <smiles>  (81) 
[H]c1c([H])c([H])c2c(c1[H])C([H])([H])C([H])([H])C([H])([H])C2([H])N([H])C(=O)C1([H])N(C(=O)C([H])(N([H])C(=O)C([H])(N([H])C([H])([H])[H])C([H])([H])[H])C(C([H])([H])[H])(C([H])([H])[H])C([H])([H])[H])C([H])([H])c2c([H])c(OC([H])([H])C([H])([H])C([H])([H])C([H])([H])C([H])([H])C([H])([H])[N+]3([H])C([H])([H])C([H])([H])C([H])(C([H])([H])C([H])([H])[H])C3([H])C(=O)C([H])([H])C([H])([H])C([H])([H])N([H])C(=O)N3C([H])([H])C([H])([H])C([H])([H])C([H])(n4nc(-c5c([H])c([H])c(Oc6c([H])c([H])c(F)c([H])c6F)c([H])c5[H])c(C(=O)N([H])[H])c4N([H])[H])C3([H])[H])c([H])c([H])c2C1([H])[H]

$$$$
84:0:0
     RDKit          3D

 97106  0  0  1  0  0  0  0  0999 V2000
  -31.6960  -20.8270   19.8960 C   0  0  0  0  0  0  0  0  0  0  0  0
  -31.7440  -21.1460   21.1950 N   0  0  0  0  0  0  0  0  0  0  0  0
  -31.7970  -21.6870   19.0190 O   0  0  0  0  0  0  0  0  0  0  0  0
  -31.6810  -20.3890   21.8640 H   0  0  0  0  0  0  0  0  0  0  0  0
  -30.9290  -19.1300   18.1200 C   0  0  0  0  0  2  0  0  0  0  0  0
  -30.6480  -18.5050   20.4790 C   0  0  0  0  0  2  0  0  0  0  0  0
  -31.5500  -19.3340   19.5190 C   0  0  0  0  0  3  0  0  0  0  0  0
  -29.4720  -18.7190   18.3680 C   0  0  0  0  0  3  0  0  0  0  0  0
  -29.5580  -17.8330   19.6220 C   0  0  0  0  0  3  0  0  0  0  0  0
  -27.9510  -20.6540   17.3970 C   0  0  0  0  0  2  0  0  0  0  0  0
  -27.0760  -19.8190   18.3070 C   0  0  0  0  0  2  0  0  0  0  0  0
  -28.5580  -19.9200   18.5690 C   0  0  0  0  0  3  0  0  0  0  0  0
  -29.9210  -16.3890   19.2230 C   0  0  0  0  0  2  0  0  0  0  0  0
  -30.7060  -14.3550   20.2950 C   0  0  0  0  0  0  0  0  0  0  0  0
  -30.3800  -12.1750   19.2600 C   0  0  0  0  0  2  0  0  0  0  0  0
  -29.4530  -12.4130   18.0490 C   0  0  0  0  0  2  0  0  0  0  0  0
  -27.9740  -12.3170   18.4700 C   0  0  0  0  0  2  0  0  0  0  0  0
  -27.6460  -13.1650   19.7270 C   0  0  0  0  0  3  0  0  0  0  0  0
  -28.6960  -12.9430   20.8440 C   0  0  0  0  0  2  0  0  0  0  0  0
  -30.0340  -13.1780   20.2760 N   0  0  0  0  0  0  0  0  0  0  0  0
  -31.8800  -14.4800   19.9400 O   0  0  0  0  0  0  0  0  0  0  0  0
  -29.8930  -15.4190   20.3230 N   0  0  0  0  0  0  0  0  0  0  0  0
  -28.9810  -15.2460   20.7190 H   0  0  0  0  0  0  0  0  0  0  0  0
  -25.2570  -13.8290   20.4190 C   0  0  0  0  0  0  0  0  0  0  0  0
  -24.1750  -13.0790   20.7950 C   0  0  0  0  0  0  0  0  0  0  0  0
  -24.6130  -11.7200   20.7840 C   0  0  0  0  0  0  0  0  0  0  0  0
  -26.2870  -12.9240   20.2030 N   0  0  0  0  0  0  0  0  0  0  0  0
  -25.9020  -11.6530   20.4780 N   0  0  0  0  0  0  0  0  0  0  0  0
  -23.8640  -10.4730   20.9860 C   0  0  0  0  0  0  0  0  0  0  0  0
  -24.2840   -9.5070   21.9270 C   0  0  0  0  0  3  0  0  0  0  0  0
  -23.5410   -8.3220   22.1180 C   0  0  0  0  0  3  0  0  0  0  0  0
  -22.3630   -8.0960   21.3660 C   0  0  0  0  0  0  0  0  0  0  0  0
  -21.9610   -9.0510   20.4140 C   0  0  0  0  0  3  0  0  0  0  0  0
  -22.7060  -10.2260   20.2220 C   0  0  0  0  0  3  0  0  0  0  0  0
  -21.5910   -6.9630   21.4650 O   0  0  0  0  0  0  0  0  0  0  0  0
  -21.5340   -6.2290   22.6220 C   0  0  0  0  0  0  0  0  0  0  0  0
  -21.1270   -6.7990   23.8480 C   0  0  0  0  0  3  0  0  0  0  0  0
  -21.0180   -5.9910   24.9980 C   0  0  0  0  0  3  0  0  0  0  0  0
  -21.3060   -4.6150   24.9220 C   0  0  0  0  0  0  0  0  0  0  0  0
  -21.7070   -4.0450   23.7000 C   0  0  0  0  0  3  0  0  0  0  0  0
  -21.8170   -4.8500   22.5530 C   0  0  0  0  0  0  0  0  0  0  0  0
  -22.1830   -4.2920   21.3740 F   0  0  0  0  0  0  0  0  0  0  0  0
  -21.1920   -3.8370   26.0230 F   0  0  0  0  0  0  0  0  0  0  0  0
  -22.7850  -13.5830   21.0560 C   0  0  0  0  0  0  0  0  0  0  0  0
  -22.0420  -12.9120   21.9310 N   0  0  0  0  0  0  0  0  0  0  0  0
  -22.3660  -14.6080   20.5210 O   0  0  0  0  0  0  0  0  0  0  0  0
  -22.3930  -12.0870   22.3930 H   0  0  0  0  0  0  0  0  0  0  0  0
  -21.1070  -13.2330   22.1390 H   0  0  0  0  0  0  0  0  0  0  0  0
  -25.4440  -15.1930   20.2230 N   0  0  0  0  0  0  0  0  0  0  0  0
  -24.6840  -15.8570   20.3230 H   0  0  0  0  0  0  0  0  0  0  0  0
  -26.2960  -15.6200   19.8830 H   0  0  0  0  0  0  0  0  0  0  0  0
  -31.9050  -22.5010   21.7170 C   0  0  0  0  0  2  0  0  0  0  0  0
  -30.5510  -23.2020   21.9620 C   0  0  0  0  0  2  0  0  0  0  0  0
  -30.4290  -24.5630   21.2520 C   0  0  0  0  0  2  0  0  0  0  0  0
  -29.2520  -25.4020   21.7840 C   0  0  0  0  0  2  0  0  0  0  0  0
  -29.0830  -26.7670   21.0940 C   0  0  0  0  0  2  0  0  0  0  0  0
  -28.1590  -26.6720   20.0020 O   0  0  0  0  0  0  0  0  0  0  0  0
  -24.4950  -31.8870   23.1920 C   0  0  0  0  0  0  0  0  0  0  0  0
  -27.0270  -27.4580   20.0480 C   0  0  0  0  0  0  0  0  0  0  0  0
  -23.2290  -30.5220   21.5580 C   0  0  0  0  0  3  0  0  0  0  0  0
  -24.6320  -28.9680   20.0970 C   0  0  0  0  0  0  0  0  0  0  0  0
  -25.7490  -30.8550   21.3050 C   0  0  0  0  0  2  0  0  0  0  0  0
  -25.8020  -29.4880   20.6600 C   0  0  0  0  0  0  0  0  0  0  0  0
  -27.0000  -28.7500   20.6240 C   0  0  0  0  0  3  0  0  0  0  0  0
  -25.8440  -26.9520   19.4680 C   0  0  0  0  0  3  0  0  0  0  0  0
  -24.6450  -27.6960   19.4940 C   0  0  0  0  0  3  0  0  0  0  0  0
  -23.3980  -29.8390   20.1720 C   0  0  0  0  0  2  0  0  0  0  0  0
  -24.5110  -31.1010   22.0780 N   0  0  0  0  0  0  0  0  0  0  0  0
  -23.4330  -32.1740   23.7570 O   0  0  0  0  0  0  0  0  0  0  0  0
  -22.5760  -29.5080   22.5240 C   0  0  0  0  0  0  0  0  0  0  0  0
  -21.2470  -29.3530   22.4160 N   0  0  0  0  0  0  0  0  0  0  0  0
  -23.2610  -28.8650   23.3240 O   0  0  0  0  0  0  0  0  0  0  0  0
  -20.7570  -29.9210   21.7390 H   0  0  0  0  0  0  0  0  0  0  0  0
  -17.8610  -28.2180   22.9460 C   0  0  0  0  0  0  0  0  0  0  0  0
  -20.4250  -28.4250   23.1920 C   0  0  0  0  0  3  0  0  0  0  0  0
  -20.4950  -26.9960   22.6050 C   0  0  0  0  0  2  0  0  0  0  0  0
  -19.3760  -26.6990   21.6020 C   0  0  0  0  0  2  0  0  0  0  0  0
  -18.0050  -26.8690   22.2630 C   0  0  0  0  0  2  0  0  0  0  0  0
  -18.9980  -28.9570   23.3670 C   0  0  0  0  0  0  0  0  0  0  0  0
  -18.8110  -30.2210   23.9660 C   0  0  0  0  0  3  0  0  0  0  0  0
  -17.5180  -30.7480   24.1470 C   0  0  0  0  0  3  0  0  0  0  0  0
  -16.3950  -30.0050   23.7430 C   0  0  0  0  0  3  0  0  0  0  0  0
  -16.5670  -28.7430   23.1490 C   0  0  0  0  0  3  0  0  0  0  0  0
  -25.8090  -32.4820   23.7930 C   0  0  0  0  0  3  0  0  0  0  0  0
  -25.5370  -33.8820   24.1440 N   0  0  0  0  0  0  0  0  0  0  0  0
  -25.8890  -34.9340   23.3940 C   0  0  0  0  0  0  0  0  0  0  0  0
  -26.5480  -34.8270   22.3550 O   0  0  0  0  0  0  0  0  0  0  0  0
  -24.9550  -34.0420   24.9530 H   0  0  0  0  0  0  0  0  0  0  0  0
  -24.2090  -36.7750   23.0640 C   0  0  0  0  0  1  0  0  0  0  0  0
  -25.4390  -36.3280   23.8710 C   0  0  0  0  0  3  0  0  0  0  0  0
  -27.5960  -37.1450   24.7130 C   0  0  0  0  0  1  0  0  0  0  0  0
  -26.5000  -37.3550   23.7710 N   0  0  0  0  0  0  0  0  0  0  0  0
  -26.1170  -38.2820   23.9320 H   0  0  0  0  0  0  0  0  0  0  0  0
  -26.3380  -31.6840   25.0470 C   0  0  1  0  0  0  0  0  0  0  0  0
  -25.2650  -31.4530   26.1350 C   0  0  0  0  0  1  0  0  0  0  0  0
  -26.8840  -30.3030   24.6180 C   0  0  0  0  0  1  0  0  0  0  0  0
  -27.5210  -32.4470   25.6930 C   0  0  0  0  0  1  0  0  0  0  0  0
  1  2  1  0
  2 52  1  0
  2  4  1  0
  3  1  2  0
  5  8  1  0
  5  7  1  0
  7  1  1  0
  7  6  1  0
  8 12  1  0
  8  9  1  0
  9 13  1  0
  9  6  1  0
 10 11  1  0
 10 12  1  0
 11 12  1  0
 13 22  1  0
 14 22  1  0
 15 20  1  0
 16 17  1  0
 16 15  1  0
 18 17  1  0
 18 27  1  0
 18 19  1  0
 20 14  1  0
 20 19  1  0
 21 14  2  0
 22 23  1  0
 24 25  2  0
 25 44  1  0
 26 25  1  0
 26 29  1  0
 27 24  1  0
 27 28  1  0
 28 26  2  0
 29 30  1  0
 30 31  2  0
 32 35  1  0
 32 31  1  0
 33 32  2  0
 34 33  1  0
 34 29  2  0
 35 36  1  0
 36 37  1  0
 37 38  2  0
 39 38  1  0
 39 43  1  0
 40 39  2  0
 41 36  2  0
 41 40  1  0
 42 41  1  0
 44 45  1  0
 45 48  1  0
 45 47  1  0
 46 44  2  0
 49 50  1  0
 49 24  1  0
 51 49  1  0
 52 53  1  0
 54 55  1  0
 54 53  1  0
 56 55  1  0
 57 59  1  0
 57 56  1  0
 58 69  2  0
 59 64  1  0
 60 68  1  0
 60 70  1  0
 61 67  1  0
 61 63  1  0
 62 68  1  0
 63 62  1  0
 64 63  2  0
 65 66  1  0
 65 59  2  0
 66 61  2  0
 67 60  1  0
 68 58  1  0
 70 72  2  0
 71 70  1  0
 73 71  1  0
 74 83  2  0
 74 79  1  0
 75 71  1  0
 75 79  1  0
 76 75  1  0
 77 78  1  0
 77 76  1  0
 78 74  1  0
 79 80  2  0
 80 81  1  0
 82 81  2  0
 83 82  1  0
 84 58  1  0
 84 85  1  0
 84 94  1  0
 85 88  1  0
 86 90  1  0
 86 85  1  0
 87 86  2  0
 90 89  1  0
 92 90  1  0
 92 93  1  0
 92 91  1  0
 94 97  1  1
 94 95  1  0
 96 94  1  0
M  ISO  4  14 100  22 100  56 101  57 101
M  END
>  <TORSDO>  (82) 
F 24

>  <SCORE>  (82) 
-12.241

>  <name>  (82) 
84

>  <ligand_id>  (82) 
84

>  <original_smiles>  (82) 
[H]c1c([H])c([H])c2c(c1[H])C([H])([H])C([H])([H])C([H])([H])C2([H])N([H])C(=O)C1([H])N(C(=O)C([H])(N([H])C(=O)C([H])(N([H])C([H])([H])[H])C([H])([H])[H])C(C([H])([H])[H])(C([H])([H])[H])C([H])([H])[H])C([H])([H])c2c([H])c(OC([H])([H])C([H])([H])C([H])([H])C([H])([H])C([H])([H])N([H])C(=O)C3([H])C([H])([H])C([H])(C([H])([H])N([H])C(=O)N4C([H])([H])C([H])([H])C([H])([H])C([H])(n5nc(-c6c([H])c([H])c(Oc7c([H])c([H])c(F)c([H])c7F)c([H])c6[H])c(C(=O)N([H])[H])c5N([H])[H])C4([H])[H])C([H])(C4([H])C([H])([H])C4([H])[H])C3([H])[H])c([H])c([H])c2C1([H])[H]

>  <smiles>  (82) 
[H]c1c([H])c([H])c2c(c1[H])C([H])([H])C([H])([H])C([H])([H])C2([H])N([H])C(=O)C1([H])N(C(=O)C([H])(N([H])C(=O)C([H])(N([H])C([H])([H])[H])C([H])([H])[H])C(C([H])([H])[H])(C([H])([H])[H])C([H])([H])[H])C([H])([H])c2c([H])c(OC([H])([H])C([H])([H])C([H])([H])C([H])([H])C([H])([H])N([H])C(=O)C3([H])C([H])([H])C([H])(C([H])([H])N([H])C(=O)N4C([H])([H])C([H])([H])C([H])([H])C([H])(n5nc(-c6c([H])c([H])c(Oc7c([H])c([H])c(F)c([H])c7F)c([H])c6[H])c(C(=O)N([H])[H])c5N([H])[H])C4([H])[H])C([H])(C4([H])C([H])([H])C4([H])[H])C3([H])[H])c([H])c([H])c2C1([H])[H]

$$$$
85:0:0
     RDKit          3D

104109  0  0  1  0  0  0  0  0999 V2000
  -25.5670  -12.8410   23.6120 C   0  0  0  0  0  2  0  0  0  0  0  0
  -24.3180  -13.7250   23.7370 C   0  0  0  0  0  2  0  0  0  0  0  0
  -25.2420  -16.0830   22.7690 C   0  0  0  0  0  2  0  0  0  0  0  0
  -26.1260  -12.6730   21.9900 C   0  0  0  0  0  3  0  0  0  0  0  0
  -24.6000  -15.2440   23.9490 C   0  0  0  0  0  3  0  0  0  0  0  0
  -26.4540  -15.5620   21.8970 C   0  0  0  0  0  3  0  0  0  0  0  0
  -25.8860  -14.2330   21.3980 N   0  0  0  0  0  4  0  0  0  0  0  0
  -24.9160  -14.3330   21.1430 H   0  0  0  0  0  0  0  0  0  0  0  0
  -26.3610  -14.1360   20.4960 H   0  0  0  0  0  0  0  0  0  0  0  0
  -23.3330  -15.8720   24.3940 N   0  0  0  0  0  4  0  0  0  0  0  0
  -22.5930  -15.7700   23.7190 H   0  0  0  0  0  0  0  0  0  0  0  0
  -23.4510  -16.8510   24.5830 H   0  0  0  0  0  0  0  0  0  0  0  0
  -23.0170  -15.4400   25.2450 H   0  0  0  0  0  0  0  0  0  0  0  0
  -26.2950  -10.4300   20.3290 C   0  0  0  0  0  3  0  0  0  0  0  0
  -25.9790  -11.9000   21.6300 O   0  0  0  0  0  0  0  0  0  0  0  0
  -27.3970  -10.2140   19.0330 C   0  0  0  0  0  2  0  0  0  0  0  0
  -29.0870  -10.3560   18.7870 C   0  0  0  0  0  2  0  0  0  0  0  0
  -30.3640  -11.3530   19.2580 C   0  0  0  0  0  2  0  0  0  0  0  0
  -31.7320  -10.9050   21.7020 C   0  0  0  0  0  0  0  0  0  0  0  0
  -31.2580   -8.5850   22.1130 C   0  0  0  0  0  2  0  0  0  0  0  0
  -30.5420   -8.2090   20.8090 C   0  0  0  0  0  2  0  0  0  0  0  0
  -29.1090   -8.6820   20.9740 C   0  0  0  0  0  2  0  0  0  0  0  0
  -29.0830  -10.1630   21.5470 C   0  0  0  0  0  3  0  0  0  0  0  0
  -29.6650  -10.2620   22.8650 C   0  0  0  0  0  2  0  0  0  0  0  0
  -30.9960   -9.9980   22.3920 N   0  0  0  0  0  0  0  0  0  0  0  0
  -32.8190  -11.2070   22.1820 O   0  0  0  0  0  0  0  0  0  0  0  0
  -31.5090  -11.0010   20.2990 N   0  0  0  0  0  0  0  0  0  0  0  0
  -32.4020  -11.1680   19.8560 H   0  0  0  0  0  0  0  0  0  0  0  0
  -26.7570  -12.2490   20.0300 C   0  0  0  0  0  3  0  0  0  0  0  0
  -24.7480  -11.5840   20.0610 C   0  0  0  0  0  2  0  0  0  0  0  0
  -24.5070   -9.7880   21.3510 C   0  0  0  0  0  1  0  0  0  0  0  0
  -27.9900  -10.7560   21.5320 N   0  0  0  0  0  1  0  0  0  0  0  0
  -26.4250   -9.2470   22.2690 N   0  0  0  0  0 15  0  0  0  0  0  0
  -23.5690   -8.8400   21.4830 C   0  0  0  0  0  0  0  0  0  0  0  0
  -23.5530   -8.1300   22.6810 C   0  0  0  0  0  3  0  0  0  0  0  0
  -22.5630   -7.1700   22.8210 C   0  0  0  0  0  3  0  0  0  0  0  0
  -21.6570   -6.9690   21.7510 C   0  0  0  0  0  0  0  0  0  0  0  0
  -21.7880   -7.6400   20.5250 C   0  0  0  0  0  3  0  0  0  0  0  0
  -22.7760   -8.5960   20.3740 C   0  0  0  0  0  3  0  0  0  0  0  0
  -20.6100   -6.1130   21.8210 O   0  0  0  0  0  0  0  0  0  0  0  0
  -20.0580   -5.8220   23.0300 C   0  0  0  0  0  0  0  0  0  0  0  0
  -19.5740   -6.8230   23.9030 C   0  0  0  0  0  3  0  0  0  0  0  0
  -18.9460   -6.4440   25.1030 C   0  0  0  0  0  3  0  0  0  0  0  0
  -18.8000   -5.0800   25.4180 C   0  0  0  0  0  0  0  0  0  0  0  0
  -19.2980   -4.0910   24.5510 C   0  0  0  0  0  3  0  0  0  0  0  0
  -19.9300   -4.4670   23.3570 C   0  0  0  0  0  0  0  0  0  0  0  0
  -20.3990   -3.5260   22.5000 F   0  0  0  0  0  0  0  0  0  0  0  0
  -18.1750   -4.7110   26.5590 F   0  0  0  0  0  0  0  0  0  0  0  0
  -23.5680  -12.3410   19.8650 C   0  0  0  0  0  0  0  0  0  0  0  0
  -22.5290  -11.9950   20.6130 N   0  0  0  0  0  0  0  0  0  0  0  0
  -23.6480  -13.3050   19.1470 O   0  0  0  0  0  0  0  0  0  0  0  0
  -22.5140  -11.1510   21.1630 H   0  0  0  0  0  0  0  0  0  0  0  0
  -21.6750  -12.5370   20.5350 H   0  0  0  0  0  0  0  0  0  0  0  0
  -27.3720  -13.3570   19.6030 N   0  0  0  0  0  0  0  0  0  0  0  0
  -27.0390  -13.7820   18.7420 H   0  0  0  0  0  0  0  0  0  0  0  0
  -28.3830  -13.4060   19.6370 H   0  0  0  0  0  0  0  0  0  0  0  0
  -26.8900  -16.8650   20.8750 C   0  0  0  0  0  2  0  0  0  0  0  0
  -27.0810  -17.1950   18.3310 C   0  0  0  0  0  1  0  0  0  0  0  0
  -27.9600  -17.1630   19.5970 C   0  0  0  0  0  3  0  0  0  0  0  0
  -28.9390  -18.5320   19.4600 C   0  0  0  0  0  3  0  0  0  0  0  0
  -29.7370  -19.0030   18.0540 C   0  0  0  0  0  3  0  0  0  0  0  0
  -30.8440  -20.2560   17.8520 C   0  0  0  0  0  3  0  0  0  0  0  0
  -31.6400  -20.5330   16.4000 C   0  0  0  0  0  3  0  0  0  0  0  0
  -32.6870  -21.6160   15.9510 O   0  0  0  0  0  0  0  0  0  0  0  0
  -31.1270  -28.3740   14.0700 C   0  0  0  0  0  0  0  0  0  0  0  0
  -32.3970  -22.4850   14.8680 C   0  0  0  0  0  0  0  0  0  0  0  0
  -30.0000  -26.5360   12.8820 C   0  0  0  0  0  3  0  0  0  0  0  0
  -31.1210  -24.2420   13.0060 C   0  0  0  0  0  0  0  0  0  0  0  0
  -32.4200  -26.2480   13.6940 C   0  0  0  0  0  2  0  0  0  0  0  0
  -32.1430  -24.7500   13.8210 C   0  0  0  0  0  0  0  0  0  0  0  0
  -32.8060  -23.8720   14.7450 C   0  0  0  0  0  3  0  0  0  0  0  0
  -31.5280  -22.0100   13.8720 C   0  0  0  0  0  3  0  0  0  0  0  0
  -30.8480  -22.8780   13.0070 C   0  0  0  0  0  3  0  0  0  0  0  0
  -30.3400  -25.2150   12.1460 C   0  0  0  0  0  2  0  0  0  0  0  0
  -31.1970  -27.0970   13.5870 N   0  0  0  0  0  0  0  0  0  0  0  0
  -30.1160  -29.0690   13.9260 O   0  0  0  0  0  0  0  0  0  0  0  0
  -28.7870  -26.3170   13.8210 C   0  0  0  0  0  0  0  0  0  0  0  0
  -27.5680  -26.3180   13.2540 N   0  0  0  0  0  0  0  0  0  0  0  0
  -28.9530  -26.1460   15.0320 O   0  0  0  0  0  0  0  0  0  0  0  0
  -27.5070  -26.4780   12.2570 H   0  0  0  0  0  0  0  0  0  0  0  0
  -23.9810  -26.1180   12.8090 C   0  0  0  0  0  0  0  0  0  0  0  0
  -26.3000  -26.1040   13.9560 C   0  0  0  0  0  3  0  0  0  0  0  0
  -26.0450  -24.5990   14.2070 C   0  0  0  0  0  2  0  0  0  0  0  0
  -25.2170  -23.9330   13.1020 C   0  0  0  0  0  2  0  0  0  0  0  0
  -23.8520  -24.6130   12.9700 C   0  0  0  0  0  2  0  0  0  0  0  0
  -25.1340  -26.8160   13.2580 C   0  0  0  0  0  0  0  0  0  0  0  0
  -25.2110  -28.2110   13.0520 C   0  0  0  0  0  3  0  0  0  0  0  0
  -24.1640  -28.9040   12.4140 C   0  0  0  0  0  3  0  0  0  0  0  0
  -23.0220  -28.2090   11.9810 C   0  0  0  0  0  3  0  0  0  0  0  0
  -22.9290  -26.8210   12.1840 C   0  0  0  0  0  3  0  0  0  0  0  0
  -32.3410  -29.0190   14.8070 C   0  0  0  0  0  3  0  0  0  0  0  0
  -32.2190  -28.9530   16.3790 C   0  0  1  0  0  0  0  0  0  0  0  0
  -30.8750  -29.4840   16.9250 C   0  0  0  0  0  1  0  0  0  0  0  0
  -32.3900  -27.5010   16.8830 C   0  0  0  0  0  1  0  0  0  0  0  0
  -33.3560  -29.7810   17.0260 C   0  0  0  0  0  1  0  0  0  0  0  0
  -32.4370  -30.4170   14.3580 N   0  0  0  0  0  0  0  0  0  0  0  0
  -33.2900  -30.8640   13.4260 C   0  0  0  0  0  0  0  0  0  0  0  0
  -34.1380  -30.1410   12.8950 O   0  0  0  0  0  0  0  0  0  0  0  0
  -31.7370  -31.0540   14.7080 H   0  0  0  0  0  0  0  0  0  0  0  0
  -32.4130  -32.4680   11.6960 C   0  0  0  0  0  1  0  0  0  0  0  0
  -33.1860  -32.3470   13.0190 C   0  0  0  0  0  3  0  0  0  0  0  0
  -35.1910  -33.1770   14.1650 C   0  0  0  0  0  1  0  0  0  0  0  0
  -34.4970  -33.0180   12.8900 N   0  0  0  0  0  0  0  0  0  0  0  0
  -34.3900  -33.9390   12.4730 H   0  0  0  0  0  0  0  0  0  0  0  0
  1  2  1  0
  2  5  1  0
  3  5  1  0
  4 15  1  0
  4  1  1  0
  5 10  1  0
  6 57  1  0
  6  3  1  0
  7  6  1  0
  7  4  1  0
  8  7  1  0
  9  7  1  0
 10 12  1  0
 10 13  1  0
 11 10  1  0
 14 16  1  0
 17 16  1  0
 17 18  1  0
 18 27  1  0
 19 26  2  0
 19 25  1  0
 20 25  1  0
 21 22  1  0
 21 20  1  0
 22 23  1  0
 23 32  1  0
 23 24  1  0
 25 24  1  0
 27 19  1  0
 28 27  1  0
 29 14  1  0
 29 15  1  0
 30 14  1  0
 31 34  1  0
 34 35  1  0
 35 36  2  0
 37 40  1  0
 37 36  1  0
 38 37  2  0
 39 38  1  0
 39 34  2  0
 40 41  1  0
 41 46  2  0
 41 42  1  0
 42 43  2  0
 43 44  1  0
 44 48  1  0
 45 44  2  0
 46 45  1  0
 47 46  1  0
 49 30  1  0
 49 50  1  0
 50 52  1  0
 51 49  2  0
 53 50  1  0
 54 56  1  0
 54 29  1  0
 55 54  1  0
 59 58  1  0
 59 57  1  0
 60 59  1  0
 61 60  2  0
 62 61  1  0
 63 62  2  0
 64 63  1  0
 66 64  1  0
 67 75  1  0
 67 77  1  0
 68 73  2  0
 68 70  1  0
 69 70  1  0
 70 71  2  0
 71 66  1  0
 72 66  2  0
 73 72  1  0
 74 67  1  0
 74 68  1  0
 75 69  1  0
 75 65  1  0
 76 65  2  0
 77 79  2  0
 78 77  1  0
 80 78  1  0
 81 85  1  0
 81 86  1  0
 82 78  1  0
 82 83  1  0
 84 83  1  0
 85 84  1  0
 86 82  1  0
 87 86  2  0
 88 87  1  0
 89 90  1  0
 89 88  2  0
 90 81  2  0
 91 65  1  0
 91 92  1  0
 92 94  1  1
 92 93  1  0
 92 95  1  0
 96 99  1  0
 96 91  1  0
 97 96  1  0
 98 97  2  0
101100  1  0
101 97  1  0
103101  1  0
103102  1  0
104103  1  0
M  ISO  4  19 100  27 100  63 101  64 101
M  END
>  <TORSDO>  (83) 
F 27

>  <SCORE>  (83) 
20.466

>  <name>  (83) 
85

>  <ligand_id>  (83) 
85

>  <original_smiles>  (83) 
[H]c1c([H])c([H])c2c(c1[H])C([H])([H])C([H])([H])C([H])([H])C2([H])N([H])C(=O)C1([H])N(C(=O)C([H])(N([H])C(=O)C([H])(N([H])C([H])([H])[H])C([H])([H])[H])C(C([H])([H])[H])(C([H])([H])[H])C([H])([H])[H])C([H])([H])c2c([H])c(OC([H])([H])C([H])([H])C([H])([H])C([H])([H])C([H])(C([H])([H])[H])C([H])([H])C3([H])C([H])([H])C([H])([N+]([H])([H])[H])C([H])([H])C([H])([H])C([H])(C(=O)C([H])([H])C([H])([H])C([H])([H])N([H])C(=O)N4C([H])([H])C([H])([H])C([H])([H])C([H])(n5nc(-c6c([H])c([H])c(Oc7c([H])c([H])c(F)c([H])c7F)c([H])c6[H])c(C(=O)N([H])[H])c5N([H])[H])C4([H])[H])[N+]3([H])[H])c([H])c([H])c2C1([H])[H]

>  <smiles>  (83) 
[H]c1c([H])c([H])c2c(c1[H])C([H])([H])C([H])([H])C([H])([H])C2([H])N([H])C(=O)C1([H])N(C(=O)C([H])(N([H])C(=O)C([H])(N([H])C([H])([H])[H])C([H])([H])[H])C(C([H])([H])[H])(C([H])([H])[H])C([H])([H])[H])C([H])([H])c2c([H])c(OC([H])([H])C([H])([H])C([H])([H])C([H])([H])C([H])(C([H])([H])[H])C([H])([H])C3([H])C([H])([H])C([H])([N+]([H])([H])[H])C([H])([H])C([H])([H])C([H])(C(=O)C([H])([H])C([H])([H])C([H])([H])N([H])C(=O)N4C([H])([H])C([H])([H])C([H])([H])C([H])(n5nc(-c6c([H])c([H])c(Oc7c([H])c([H])c(F)c([H])c7F)c([H])c6[H])c(C(=O)N([H])[H])c5N([H])[H])C4([H])[H])[N+]3([H])[H])c([H])c([H])c2C1([H])[H]

$$$$
86:0:0
     RDKit          3D

105113  0  0  1  0  0  0  0  0999 V2000
  -35.6330  -18.7660   19.2960 C   0  0  0  0  0  2  0  0  0  0  0  0
  -36.3710  -21.1770   19.3860 C   0  0  0  0  0  2  0  0  0  0  0  0
  -34.4820  -18.7710   20.3260 C   0  0  0  0  0  2  0  0  0  0  0  0
  -34.7740  -20.9750   21.4130 C   0  0  0  0  0  2  0  0  0  0  0  0
  -36.8300  -19.7050   19.6240 C   0  0  0  0  0  3  0  0  0  0  0  0
  -35.7050  -21.8870   20.5860 C   0  0  0  0  0  3  0  0  0  0  0  0
  -33.8970  -20.1210   20.5660 N   0  0  2  0  0  4  0  0  0  0  0  0
  -33.8360  -20.5610   19.6620 H   0  0  0  0  0  0  0  0  0  0  0  0
  -38.5750  -20.5770   18.0160 C   0  0  0  0  0  1  0  0  0  0  0  0
  -37.9870  -18.1570   17.9420 C   0  0  0  0  0  1  0  0  0  0  0  0
  -38.1900  -19.3590   18.9010 C   0  0  2  0  0  0  0  0  0  0  0  0
  -39.3360  -19.0060   19.9570 C   0  0  0  0  0  3  0  0  0  0  0  0
  -41.5600  -19.6150   18.6710 C   0  0  0  0  0  1  0  0  0  0  0  0
  -40.6310  -19.8660   19.8700 C   0  0  0  0  0  2  0  0  0  0  0  0
  -39.7170  -17.4970   20.1030 C   0  0  0  0  0  2  0  0  0  0  0  0
  -38.7480  -16.6200   20.9280 C   0  0  0  0  0  2  0  0  0  0  0  0
  -38.8460  -15.1200   20.5900 C   0  0  0  0  0  2  0  0  0  0  0  0
  -37.4860  -14.4730   20.2630 C   0  0  0  0  0  2  0  0  0  0  0  0
  -36.8060  -13.4480   18.0780 C   0  0  0  0  0  0  0  0  0  0  0  0
  -35.7730  -11.2280   18.3170 C   0  0  0  0  0  2  0  0  0  0  0  0
  -34.5550  -10.9590   17.4220 C   0  0  0  0  0  2  0  0  0  0  0  0
  -33.2670  -11.4570   18.0990 C   0  0  0  0  0  2  0  0  0  0  0  0
  -33.3870  -12.9240   18.5780 C   0  0  0  0  0  3  0  0  0  0  0  0
  -34.6830  -13.1540   19.3860 C   0  0  0  0  0  2  0  0  0  0  0  0
  -35.8510  -12.6610   18.6300 N   0  0  0  0  0  0  0  0  0  0  0  0
  -37.3910  -13.1830   17.0270 O   0  0  0  0  0  0  0  0  0  0  0  0
  -37.2160  -14.4930   18.8180 N   0  0  0  0  0  0  0  0  0  0  0  0
  -37.8170  -15.1190   18.3070 H   0  0  0  0  0  0  0  0  0  0  0  0
  -32.0390  -14.4030   20.2050 C   0  0  0  0  0  0  0  0  0  0  0  0
  -30.7250  -14.3770   20.5910 C   0  0  0  0  0  0  0  0  0  0  0  0
  -30.1370  -13.2660   19.9150 C   0  0  0  0  0  0  0  0  0  0  0  0
  -32.2040  -13.3330   19.3370 N   0  0  0  0  0  0  0  0  0  0  0  0
  -31.0560  -12.6160   19.2090 N   0  0  0  0  0  0  0  0  0  0  0  0
  -28.7410  -12.8140   19.8570 C   0  0  0  0  0  0  0  0  0  0  0  0
  -28.3700  -11.5190   20.2790 C   0  0  0  0  0  3  0  0  0  0  0  0
  -27.0200  -11.1080   20.2300 C   0  0  0  0  0  3  0  0  0  0  0  0
  -26.0230  -11.9980   19.7600 C   0  0  0  0  0  0  0  0  0  0  0  0
  -26.4010  -13.2780   19.3210 C   0  0  0  0  0  3  0  0  0  0  0  0
  -27.7460  -13.6840   19.3660 C   0  0  0  0  0  3  0  0  0  0  0  0
  -24.6920  -11.6770   19.6520 O   0  0  0  0  0  0  0  0  0  0  0  0
  -24.0630  -10.8890   20.5810 C   0  0  0  0  0  0  0  0  0  0  0  0
  -24.1000  -11.1880   21.9610 C   0  0  0  0  0  3  0  0  0  0  0  0
  -23.3810  -10.3910   22.8730 C   0  0  0  0  0  3  0  0  0  0  0  0
  -22.6170   -9.3020   22.4090 C   0  0  0  0  0  0  0  0  0  0  0  0
  -22.5740   -9.0070   21.0350 C   0  0  0  0  0  3  0  0  0  0  0  0
  -23.2940   -9.8000   20.1250 C   0  0  0  0  0  0  0  0  0  0  0  0
  -23.2320   -9.5240   18.7990 F   0  0  0  0  0  0  0  0  0  0  0  0
  -21.9190   -8.5420   23.2840 F   0  0  0  0  0  0  0  0  0  0  0  0
  -30.0270  -15.3820   21.4610 C   0  0  0  0  0  0  0  0  0  0  0  0
  -29.0070  -14.9510   22.1950 N   0  0  0  0  0  0  0  0  0  0  0  0
  -30.4180  -16.5460   21.5330 O   0  0  0  0  0  0  0  0  0  0  0  0
  -28.7000  -13.9910   22.1500 H   0  0  0  0  0  0  0  0  0  0  0  0
  -28.5220  -15.5930   22.8050 H   0  0  0  0  0  0  0  0  0  0  0  0
  -33.0990  -15.2530   20.5020 N   0  0  0  0  0  0  0  0  0  0  0  0
  -32.9840  -16.0730   21.0870 H   0  0  0  0  0  0  0  0  0  0  0  0
  -34.0300  -15.1710   20.1120 H   0  0  0  0  0  0  0  0  0  0  0  0
  -35.6680  -23.9660   19.0300 C   0  0  0  0  0  1  0  0  0  0  0  0
  -34.9850  -23.1930   20.1690 C   0  0  0  0  0  2  0  0  0  0  0  0
  -32.4980  -20.0570   21.0640 C   0  0  0  0  0  2  0  0  0  0  0  0
  -31.9250  -21.4590   21.3500 C   0  0  0  0  0  2  0  0  0  0  0  0
  -30.4230  -21.5560   21.0490 C   0  0  0  0  0  2  0  0  0  0  0  0
  -29.8300  -22.9010   21.4910 C   0  0  0  0  0  2  0  0  0  0  0  0
  -28.7380  -23.3990   20.5380 C   0  0  0  0  0  2  0  0  0  0  0  0
  -28.3020  -24.8320   20.8490 C   0  0  0  0  0  2  0  0  0  0  0  0
  -27.8490  -25.4080   19.6370 O   0  0  0  0  0  0  0  0  0  0  0  0
  -25.0560  -30.9580   23.0800 C   0  0  0  0  0  0  0  0  0  0  0  0
  -26.8030  -26.2740   19.7740 C   0  0  0  0  0  0  0  0  0  0  0  0
  -23.5620  -29.8270   21.4620 C   0  0  0  0  0  3  0  0  0  0  0  0
  -24.6770  -28.1080   19.9450 C   0  0  0  0  0  0  0  0  0  0  0  0
  -26.0970  -29.7790   21.1530 C   0  0  0  0  0  2  0  0  0  0  0  0
  -25.9270  -28.4310   20.4870 C   0  0  0  0  0  0  0  0  0  0  0  0
  -26.9970  -27.5190   20.4030 C   0  0  0  0  0  3  0  0  0  0  0  0
  -25.5420  -25.9450   19.2390 C   0  0  0  0  0  3  0  0  0  0  0  0
  -24.4740  -26.8600   19.3240 C   0  0  0  0  0  3  0  0  0  0  0  0
  -23.5950  -29.1550   20.0620 C   0  0  0  0  0  2  0  0  0  0  0  0
  -24.9280  -30.1960   21.9570 N   0  0  0  0  0  0  0  0  0  0  0  0
  -24.0610  -31.3890   23.6800 O   0  0  0  0  0  0  0  0  0  0  0  0
  -22.7910  -28.9010   22.4290 C   0  0  0  0  0  0  0  0  0  0  0  0
  -21.4530  -28.9180   22.3310 N   0  0  0  0  0  0  0  0  0  0  0  0
  -23.3940  -28.1710   23.2210 O   0  0  0  0  0  0  0  0  0  0  0  0
  -21.0360  -29.5520   21.6640 H   0  0  0  0  0  0  0  0  0  0  0  0
  -17.9520  -28.2250   22.8820 C   0  0  0  0  0  0  0  0  0  0  0  0
  -20.5230  -28.1020   23.1100 C   0  0  0  0  0  3  0  0  0  0  0  0
  -20.4060  -26.6760   22.5240 C   0  0  0  0  0  2  0  0  0  0  0  0
  -19.2520  -26.5270   21.5270 C   0  0  0  0  0  2  0  0  0  0  0  0
  -17.9170  -26.8700   22.1950 C   0  0  0  0  0  2  0  0  0  0  0  0
  -19.1770  -28.8100   23.2970 C   0  0  0  0  0  0  0  0  0  0  0  0
  -19.1560  -30.0870   23.8970 C   0  0  0  0  0  3  0  0  0  0  0  0
  -17.9440  -30.7750   24.0870 C   0  0  0  0  0  3  0  0  0  0  0  0
  -16.7320  -30.1840   23.6890 C   0  0  0  0  0  3  0  0  0  0  0  0
  -16.7370  -28.9100   23.0930 C   0  0  0  0  0  3  0  0  0  0  0  0
  -26.4570  -31.3440   23.6530 C   0  0  0  0  0  3  0  0  0  0  0  0
  -26.3500  -32.6970   24.2120 N   0  0  0  0  0  0  0  0  0  0  0  0
  -26.8760  -33.7950   23.6510 C   0  0  0  0  0  0  0  0  0  0  0  0
  -27.5720  -33.7580   22.6330 O   0  0  0  0  0  0  0  0  0  0  0  0
  -25.7520  -32.8070   25.0180 H   0  0  0  0  0  0  0  0  0  0  0  0
  -25.5120  -35.9010   23.5200 C   0  0  0  0  0  1  0  0  0  0  0  0
  -26.5820  -35.1470   24.3270 C   0  0  0  0  0  3  0  0  0  0  0  0
  -28.7330  -35.4810   25.4630 C   0  0  0  0  0  1  0  0  0  0  0  0
  -27.7810  -36.0000   24.4850 N   0  0  0  0  0  0  0  0  0  0  0  0
  -27.5200  -36.9410   24.7640 H   0  0  0  0  0  0  0  0  0  0  0  0
  -26.9860  -30.3300   24.7410 C   0  0  1  0  0  0  0  0  0  0  0  0
  -25.9720  -30.0450   25.8730 C   0  0  0  0  0  1  0  0  0  0  0  0
  -27.3580  -28.9790   24.0870 C   0  0  0  0  0  1  0  0  0  0  0  0
  -28.2770  -30.8840   25.3890 C   0  0  0  0  0  1  0  0  0  0  0  0
  1  5  1  0
  1  3  1  0
  2  5  1  0
  2  6  1  0
  3  7  1  0
  5 11  1  0
  6 58  1  0
  6  4  1  0
  7 59  1  0
  7  4  1  0
  7  8  1  6
 11  9  1  6
 10 11  1  0
 11 12  1  0
 12 14  1  0
 12 15  1  0
 13 14  1  0
 15 16  1  0
 17 16  1  0
 18 17  1  0
 19 25  1  0
 19 27  1  0
 20 25  1  0
 21 22  1  0
 21 20  1  0
 23 22  1  0
 23 32  1  0
 23 24  1  0
 25 24  1  0
 26 19  2  0
 27 18  1  0
 28 27  1  0
 29 54  1  0
 29 30  2  0
 30 49  1  0
 31 30  1  0
 32 29  1  0
 33 32  1  0
 33 31  2  0
 34 31  1  0
 34 35  1  0
 36 35  2  0
 37 36  1  0
 38 39  1  0
 38 37  2  0
 39 34  2  0
 40 37  1  0
 40 41  1  0
 41 42  1  0
 42 43  2  0
 44 43  1  0
 44 48  1  0
 45 44  2  0
 46 41  2  0
 46 45  1  0
 47 46  1  0
 49 51  2  0
 49 50  1  0
 50 53  1  0
 52 50  1  0
 54 55  1  0
 56 54  1  0
 57 58  1  0
 59 60  1  0
 61 60  1  0
 61 62  1  0
 63 64  1  0
 63 62  1  0
 65 67  1  0
 65 64  1  0
 66 77  2  0
 67 72  1  0
 68 76  1  0
 68 78  1  0
 69 75  1  0
 69 71  1  0
 70 76  1  0
 71 70  1  0
 72 71  2  0
 73 74  1  0
 73 67  2  0
 74 69  2  0
 75 68  1  0
 76 66  1  0
 78 80  2  0
 79 78  1  0
 81 79  1  0
 82 91  2  0
 82 87  1  0
 83 79  1  0
 83 87  1  0
 84 83  1  0
 85 86  1  0
 85 84  1  0
 86 82  1  0
 87 88  2  0
 88 89  1  0
 90 89  2  0
 91 90  1  0
 92 66  1  0
 92 93  1  0
 92102  1  0
 93 96  1  0
 94 93  1  0
 94 98  1  0
 95 94  2  0
 98 97  1  0
 98100  1  0
100101  1  0
100 99  1  0
102105  1  1
102103  1  0
104102  1  0
M  ISO  4  19 100  27 100  64 101  65 101
M  END
>  <TORSDO>  (84) 
F 30

>  <SCORE>  (84) 
-3.512

>  <name>  (84) 
86

>  <ligand_id>  (84) 
86

>  <original_smiles>  (84) 
[H]c1c([H])c([H])c2c(c1[H])C([H])([H])C([H])([H])C([H])([H])C2([H])N([H])C(=O)C1([H])N(C(=O)C([H])(N([H])C(=O)C([H])(N([H])C([H])([H])[H])C([H])([H])[H])C(C([H])([H])[H])(C([H])([H])[H])C([H])([H])[H])C([H])([H])c2c([H])c(OC([H])([H])C([H])([H])C([H])([H])C([H])([H])C([H])([H])C([H])([H])[N+]3([H])C([H])([H])C([H])([H])C([H])(C(C([H])([H])[H])(C([H])([H])[H])C([H])(C([H])([H])C([H])([H])[H])C([H])([H])C([H])([H])C([H])([H])C([H])([H])N([H])C(=O)N4C([H])([H])C([H])([H])C([H])([H])C([H])(n5nc(-c6c([H])c([H])c(Oc7c([H])c([H])c(F)c([H])c7F)c([H])c6[H])c(C(=O)N([H])[H])c5N([H])[H])C4([H])[H])C([H])([H])C([H])(C([H])([H])C([H])([H])[H])C3([H])[H])c([H])c([H])c2C1([H])[H]

>  <smiles>  (84) 
[H]c1c([H])c([H])c2c(c1[H])C([H])([H])C([H])([H])C([H])([H])C2([H])N([H])C(=O)C1([H])N(C(=O)C([H])(N([H])C(=O)C([H])(N([H])C([H])([H])[H])C([H])([H])[H])C(C([H])([H])[H])(C([H])([H])[H])C([H])([H])[H])C([H])([H])c2c([H])c(OC([H])([H])C([H])([H])C([H])([H])C([H])([H])C([H])([H])C([H])([H])[N+]3([H])C([H])([H])C([H])([H])C([H])(C(C([H])([H])[H])(C([H])([H])[H])C([H])(C([H])([H])C([H])([H])[H])C([H])([H])C([H])([H])C([H])([H])C([H])([H])N([H])C(=O)N4C([H])([H])C([H])([H])C([H])([H])C([H])(n5nc(-c6c([H])c([H])c(Oc7c([H])c([H])c(F)c([H])c7F)c([H])c6[H])c(C(=O)N([H])[H])c5N([H])[H])C4([H])[H])C([H])([H])C([H])(C([H])([H])C([H])([H])[H])C3([H])[H])c([H])c([H])c2C1([H])[H]

$$$$
87:0:0
     RDKit          3D

 90 97  0  0  1  0  0  0  0  0999 V2000
  -29.5300  -21.9220   20.7970 C   0  0  0  0  0  0  0  0  0  0  0  0
  -30.6610  -22.0970   20.3330 O   0  0  0  0  0  0  0  0  0  0  0  0
  -28.6230  -23.1130   21.1240 C   0  0  0  0  0  2  0  0  0  0  0  0
  -29.0070  -24.4330   20.4070 C   0  0  0  0  0  2  0  0  0  0  0  0
  -28.3700  -25.6590   21.0750 C   0  0  0  0  0  2  0  0  0  0  0  0
  -28.4560  -26.8020   20.2220 O   0  0  0  0  0  0  0  0  0  0  0  0
  -24.5700  -31.9140   23.2400 C   0  0  0  0  0  0  0  0  0  0  0  0
  -27.2960  -27.5310   20.1880 C   0  0  0  0  0  0  0  0  0  0  0  0
  -23.3940  -30.5020   21.5830 C   0  0  0  0  0  3  0  0  0  0  0  0
  -24.8810  -28.9820   20.1740 C   0  0  0  0  0  0  0  0  0  0  0  0
  -25.9130  -30.8980   21.4070 C   0  0  0  0  0  2  0  0  0  0  0  0
  -26.0230  -29.5310   20.7680 C   0  0  0  0  0  0  0  0  0  0  0  0
  -27.2400  -28.8140   20.7700 C   0  0  0  0  0  3  0  0  0  0  0  0
  -26.1430  -26.9860   19.5880 C   0  0  0  0  0  3  0  0  0  0  0  0
  -24.9330  -27.7060   19.5810 C   0  0  0  0  0  3  0  0  0  0  0  0
  -23.6230  -29.8210   20.2060 C   0  0  0  0  0  2  0  0  0  0  0  0
  -24.6430  -31.1190   22.1360 N   0  0  0  0  0  0  0  0  0  0  0  0
  -23.4820  -32.1760   23.7700 O   0  0  0  0  0  0  0  0  0  0  0  0
  -22.7440  -29.4730   22.5370 C   0  0  0  0  0  0  0  0  0  0  0  0
  -21.4190  -29.2930   22.4070 N   0  0  0  0  0  0  0  0  0  0  0  0
  -23.4280  -28.8410   23.3470 O   0  0  0  0  0  0  0  0  0  0  0  0
  -20.9300  -29.8560   21.7260 H   0  0  0  0  0  0  0  0  0  0  0  0
  -18.0410  -28.1150   22.9070 C   0  0  0  0  0  0  0  0  0  0  0  0
  -20.6020  -28.3510   23.1700 C   0  0  0  0  0  3  0  0  0  0  0  0
  -20.6910  -26.9260   22.5750 C   0  0  0  0  0  2  0  0  0  0  0  0
  -19.5830  -26.6240   21.5620 C   0  0  0  0  0  2  0  0  0  0  0  0
  -18.2040  -26.7730   22.2140 C   0  0  0  0  0  2  0  0  0  0  0  0
  -19.1680  -28.8640   23.3410 C   0  0  0  0  0  0  0  0  0  0  0  0
  -18.9620  -30.1210   23.9480 C   0  0  0  0  0  3  0  0  0  0  0  0
  -17.6630  -30.6320   24.1250 C   0  0  0  0  0  3  0  0  0  0  0  0
  -16.5510  -29.8810   23.7060 C   0  0  0  0  0  3  0  0  0  0  0  0
  -16.7420  -28.6240   23.1030 C   0  0  0  0  0  3  0  0  0  0  0  0
  -25.8460  -32.5540   23.8730 C   0  0  0  0  0  3  0  0  0  0  0  0
  -26.3500  -31.7930   25.1600 C   0  0  1  0  0  0  0  0  0  0  0  0
  -25.2430  -31.5560   26.2140 C   0  0  0  0  0  1  0  0  0  0  0  0
  -26.9480  -30.4180   24.7780 C   0  0  0  0  0  1  0  0  0  0  0  0
  -27.4880  -32.5970   25.8320 C   0  0  0  0  0  1  0  0  0  0  0  0
  -25.5290  -33.9530   24.1870 N   0  0  0  0  0  0  0  0  0  0  0  0
  -25.8720  -34.9990   23.4240 C   0  0  0  0  0  0  0  0  0  0  0  0
  -26.5590  -34.8890   22.4040 O   0  0  0  0  0  0  0  0  0  0  0  0
  -24.9240  -34.1140   24.9790 H   0  0  0  0  0  0  0  0  0  0  0  0
  -24.1510  -36.7840   23.0130 C   0  0  0  0  0  1  0  0  0  0  0  0
  -25.3720  -36.3900   23.8580 C   0  0  0  0  0  3  0  0  0  0  0  0
  -27.4830  -37.2840   24.7370 C   0  0  0  0  0  1  0  0  0  0  0  0
  -26.4070  -37.4430   23.7620 N   0  0  0  0  0  0  0  0  0  0  0  0
  -25.9960  -38.3640   23.8910 H   0  0  0  0  0  0  0  0  0  0  0  0
  -28.9730  -20.5080   21.0600 C   0  0  0  0  0  2  0  0  0  0  0  0
  -31.0230  -19.3940   22.1340 C   0  0  0  0  0  1  0  0  0  0  0  0
  -30.0230  -19.3650   20.9550 C   0  0  0  0  0  3  0  0  0  0  0  0
  -29.3830  -17.9500   20.7860 C   0  0  0  0  0  2  0  0  0  0  0  0
  -30.7160  -14.4870   20.0670 C   0  0  0  0  0  0  0  0  0  0  0  0
  -30.3020  -12.3210   18.9920 C   0  0  0  0  0  2  0  0  0  0  0  0
  -29.3240  -12.5670   17.8270 C   0  0  0  0  0  2  0  0  0  0  0  0
  -27.8640  -12.4680   18.3200 C   0  0  0  0  0  2  0  0  0  0  0  0
  -27.6020  -13.2960   19.6070 C   0  0  0  0  0  3  0  0  0  0  0  0
  -28.7080  -13.0650   20.6630 C   0  0  0  0  0  2  0  0  0  0  0  0
  -30.0080  -13.3280   20.0240 N   0  0  0  0  0  0  0  0  0  0  0  0
  -31.8530  -14.5620   19.5910 O   0  0  0  0  0  0  0  0  0  0  0  0
  -30.3700  -16.8670   20.3030 C   0  0  0  0  0  0  0  0  0  0  0  0
  -30.0230  -15.5710   20.4760 N   0  0  0  0  0  0  0  0  0  0  0  0
  -31.4120  -17.2360   19.7470 O   0  0  0  0  0  0  0  0  0  0  0  0
  -29.1140  -15.3910   20.8740 H   0  0  0  0  0  0  0  0  0  0  0  0
  -25.2540  -13.9120   20.4590 C   0  0  0  0  0  0  0  0  0  0  0  0
  -24.1970  -13.1430   20.8650 C   0  0  0  0  0  0  0  0  0  0  0  0
  -24.6360  -11.7870   20.7740 C   0  0  0  0  0  0  0  0  0  0  0  0
  -26.2730  -13.0250   20.1500 N   0  0  0  0  0  0  0  0  0  0  0  0
  -25.9080  -11.7400   20.3980 N   0  0  0  0  0  0  0  0  0  0  0  0
  -23.9020  -10.5300   20.9690 C   0  0  0  0  0  0  0  0  0  0  0  0
  -24.3430   -9.5500   21.8870 C   0  0  0  0  0  3  0  0  0  0  0  0
  -23.6100   -8.3590   22.0720 C   0  0  0  0  0  3  0  0  0  0  0  0
  -22.4200   -8.1370   21.3380 C   0  0  0  0  0  0  0  0  0  0  0  0
  -21.9990   -9.1030   20.4070 C   0  0  0  0  0  3  0  0  0  0  0  0
  -22.7330  -10.2860   20.2200 C   0  0  0  0  0  3  0  0  0  0  0  0
  -21.6610   -6.9980   21.4300 O   0  0  0  0  0  0  0  0  0  0  0  0
  -21.5950   -6.2640   22.5880 C   0  0  0  0  0  0  0  0  0  0  0  0
  -21.1350   -6.8260   23.8000 C   0  0  0  0  0  3  0  0  0  0  0  0
  -21.0200   -6.0220   24.9490 C   0  0  0  0  0  3  0  0  0  0  0  0
  -21.3520   -4.6550   24.8910 C   0  0  0  0  0  0  0  0  0  0  0  0
  -21.8060   -4.0920   23.6850 C   0  0  0  0  0  3  0  0  0  0  0  0
  -21.9230   -4.8940   22.5360 C   0  0  0  0  0  0  0  0  0  0  0  0
  -22.3400   -4.3430   21.3710 F   0  0  0  0  0  0  0  0  0  0  0  0
  -21.2350   -3.8800   25.9920 F   0  0  0  0  0  0  0  0  0  0  0  0
  -22.8230  -13.6290   21.2290 C   0  0  0  0  0  0  0  0  0  0  0  0
  -22.1370  -12.9150   22.1130 N   0  0  0  0  0  0  0  0  0  0  0  0
  -22.3710  -14.6740   20.7630 O   0  0  0  0  0  0  0  0  0  0  0  0
  -22.5210  -12.0700   22.5090 H   0  0  0  0  0  0  0  0  0  0  0  0
  -21.2160  -13.2160   22.3970 H   0  0  0  0  0  0  0  0  0  0  0  0
  -25.4310  -15.2850   20.3050 N   0  0  0  0  0  0  0  0  0  0  0  0
  -24.6770  -15.9470   20.4630 H   0  0  0  0  0  0  0  0  0  0  0  0
  -26.2590  -15.7140   19.9180 H   0  0  0  0  0  0  0  0  0  0  0  0
  1 47  1  0
  1  3  1  0
  2  1  2  0
  4  5  1  0
  4  3  1  0
  6  5  1  0
  7 18  2  0
  8  6  1  0
  8 13  1  0
  9 17  1  0
  9 19  1  0
 10 16  1  0
 10 12  1  0
 11 17  1  0
 12 13  2  0
 12 11  1  0
 14  8  2  0
 15 14  1  0
 15 10  2  0
 16  9  1  0
 17  7  1  0
 19 21  2  0
 20 19  1  0
 22 20  1  0
 23 32  2  0
 23 28  1  0
 24 20  1  0
 24 28  1  0
 25 24  1  0
 26 27  1  0
 26 25  1  0
 27 23  1  0
 28 29  2  0
 29 30  1  0
 31 30  2  0
 32 31  1  0
 33  7  1  0
 33 38  1  0
 33 34  1  0
 34 37  1  1
 34 35  1  0
 36 34  1  0
 38 41  1  0
 39 43  1  0
 39 38  1  0
 40 39  2  0
 43 42  1  0
 45 43  1  0
 45 46  1  0
 45 44  1  0
 49 47  1  0
 49 48  1  0
 50 49  1  0
 51 60  1  0
 52 57  1  0
 53 54  1  0
 53 52  1  0
 55 54  1  0
 55 66  1  0
 55 56  1  0
 57 51  1  0
 57 56  1  0
 58 51  2  0
 59 60  1  0
 59 50  1  0
 60 62  1  0
 61 59  2  0
 63 64  2  0
 64 83  1  0
 65 64  1  0
 65 68  1  0
 66 67  1  0
 66 63  1  0
 67 65  2  0
 68 69  1  0
 69 70  2  0
 71 74  1  0
 71 70  1  0
 72 71  2  0
 73 72  1  0
 73 68  2  0
 74 75  1  0
 75 76  1  0
 76 77  2  0
 78 77  1  0
 78 82  1  0
 79 78  2  0
 80 75  2  0
 80 79  1  0
 81 80  1  0
 83 84  1  0
 84 87  1  0
 84 86  1  0
 85 83  2  0
 88 63  1  0
 88 89  1  0
 90 88  1  0
M  ISO  4   5 101   6 101  51 100  60 100
M  END
>  <TORSDO>  (85) 
F 22

>  <SCORE>  (85) 
-13.060

>  <name>  (85) 
87

>  <ligand_id>  (85) 
87

>  <original_smiles>  (85) 
[H]c1c([H])c([H])c2c(c1[H])C([H])([H])C([H])([H])C([H])([H])C2([H])N([H])C(=O)C1([H])N(C(=O)C([H])(N([H])C(=O)C([H])(N([H])C([H])([H])[H])C([H])([H])[H])C(C([H])([H])[H])(C([H])([H])[H])C([H])([H])[H])C([H])([H])c2c([H])c(OC([H])([H])C([H])([H])C([H])([H])C(=O)C([H])([H])C([H])(C([H])([H])[H])C([H])([H])C(=O)N([H])C(=O)N3C([H])([H])C([H])([H])C([H])([H])C([H])(n4nc(-c5c([H])c([H])c(Oc6c([H])c([H])c(F)c([H])c6F)c([H])c5[H])c(C(=O)N([H])[H])c4N([H])[H])C3([H])[H])c([H])c([H])c2C1([H])[H]

>  <smiles>  (85) 
[H]c1c([H])c([H])c2c(c1[H])C([H])([H])C([H])([H])C([H])([H])C2([H])N([H])C(=O)C1([H])N(C(=O)C([H])(N([H])C(=O)C([H])(N([H])C([H])([H])[H])C([H])([H])[H])C(C([H])([H])[H])(C([H])([H])[H])C([H])([H])[H])C([H])([H])c2c([H])c(OC([H])([H])C([H])([H])C([H])([H])C(=O)C([H])([H])C([H])(C([H])([H])[H])C([H])([H])C(=O)N([H])C(=O)N3C([H])([H])C([H])([H])C([H])([H])C([H])(n4nc(-c5c([H])c([H])c(Oc6c([H])c([H])c(F)c([H])c6F)c([H])c5[H])c(C(=O)N([H])[H])c4N([H])[H])C3([H])[H])c([H])c([H])c2C1([H])[H]

$$$$
88:0:0
     RDKit          3D

100108  0  0  1  0  0  0  0  0999 V2000
  -32.1880  -20.4040   21.1210 C   0  0  0  0  0  0  0  0  0  0  0  0
  -32.7070  -21.2490   20.2210 N   0  0  0  0  0  0  0  0  0  0  0  0
  -31.8200  -20.7600   22.2420 O   0  0  0  0  0  0  0  0  0  0  0  0
  -32.9740  -20.8510   19.3310 H   0  0  0  0  0  0  0  0  0  0  0  0
  -32.1480  -18.9280   20.6960 C   0  0  0  0  0  2  0  0  0  0  0  0
  -30.9920  -14.2020   20.9720 C   0  0  0  0  0  0  0  0  0  0  0  0
  -30.8480  -11.7890   20.4500 C   0  0  0  0  0  2  0  0  0  0  0  0
  -30.1520  -11.5790   19.0900 C   0  0  0  0  0  2  0  0  0  0  0  0
  -28.6260  -11.4780   19.2790 C   0  0  0  0  0  2  0  0  0  0  0  0
  -28.0650  -12.6140   20.1760 C   0  0  0  0  0  3  0  0  0  0  0  0
  -28.9070  -12.7680   21.4700 C   0  0  0  0  0  2  0  0  0  0  0  0
  -30.2910  -13.0220   21.0530 N   0  0  0  0  0  0  0  0  0  0  0  0
  -32.1990  -14.1410   20.7050 O   0  0  0  0  0  0  0  0  0  0  0  0
  -29.6980  -18.2340   20.3380 C   0  0  0  0  0  2  0  0  0  0  0  0
  -31.4120  -16.5670   21.1890 C   0  0  0  0  0  2  0  0  0  0  0  0
  -29.0450  -15.8270   20.6910 C   0  0  0  0  0  2  0  0  0  0  0  0
  -30.9590  -18.0500   21.1820 C   0  0  0  0  0  3  0  0  0  0  0  0
  -28.6170  -17.3060   20.8910 C   0  0  0  0  0  3  0  0  0  0  0  0
  -30.4150  -15.4500   21.1450 N   0  0  0  0  0  0  0  0  0  0  0  0
  -25.6460  -13.3680   20.6100 C   0  0  0  0  0  0  0  0  0  0  0  0
  -24.4890  -12.6670   20.8090 C   0  0  0  0  0  0  0  0  0  0  0  0
  -24.8550  -11.2870   20.7560 C   0  0  0  0  0  0  0  0  0  0  0  0
  -26.6470  -12.4220   20.4640 N   0  0  0  0  0  0  0  0  0  0  0  0
  -26.1670  -11.1610   20.6040 N   0  0  0  0  0  0  0  0  0  0  0  0
  -24.0240  -10.0780   20.7800 C   0  0  0  0  0  0  0  0  0  0  0  0
  -24.4760   -8.8820   21.3770 C   0  0  0  0  0  3  0  0  0  0  0  0
  -23.6490   -7.7390   21.4020 C   0  0  0  0  0  3  0  0  0  0  0  0
  -22.3570   -7.7840   20.8300 C   0  0  0  0  0  0  0  0  0  0  0  0
  -21.9210   -8.9690   20.2130 C   0  0  0  0  0  3  0  0  0  0  0  0
  -22.7470  -10.1050   20.1840 C   0  0  0  0  0  3  0  0  0  0  0  0
  -21.4960   -6.7140   20.7840 O   0  0  0  0  0  0  0  0  0  0  0  0
  -21.6640   -5.6220   21.5960 C   0  0  0  0  0  0  0  0  0  0  0  0
  -21.6320   -5.7280   23.0030 C   0  0  0  0  0  3  0  0  0  0  0  0
  -21.7400   -4.5710   23.8000 C   0  0  0  0  0  3  0  0  0  0  0  0
  -21.8680   -3.3070   23.1930 C   0  0  0  0  0  0  0  0  0  0  0  0
  -21.8930   -3.1990   21.7910 C   0  0  0  0  0  3  0  0  0  0  0  0
  -21.7880   -4.3530   20.9970 C   0  0  0  0  0  0  0  0  0  0  0  0
  -21.7940   -4.2410   19.6460 F   0  0  0  0  0  0  0  0  0  0  0  0
  -21.9630   -2.1940   23.9590 F   0  0  0  0  0  0  0  0  0  0  0  0
  -23.1090  -13.2410   20.9340 C   0  0  0  0  0  0  0  0  0  0  0  0
  -22.2460  -12.6040   21.7170 N   0  0  0  0  0  0  0  0  0  0  0  0
  -22.8020  -14.2930   20.3720 O   0  0  0  0  0  0  0  0  0  0  0  0
  -22.5050  -11.7580   22.2030 H   0  0  0  0  0  0  0  0  0  0  0  0
  -21.3130  -12.9760   21.8360 H   0  0  0  0  0  0  0  0  0  0  0  0
  -25.9210  -14.7240   20.5010 N   0  0  0  0  0  0  0  0  0  0  0  0
  -25.1270  -15.3410   20.3610 H   0  0  0  0  0  0  0  0  0  0  0  0
  -26.7280  -15.0010   19.9590 H   0  0  0  0  0  0  0  0  0  0  0  0
  -27.2150  -17.5760   20.2870 C   0  0  0  0  0  2  0  0  0  0  0  0
  -26.8920  -19.0080   20.1470 N   0  0  0  0  0  4  0  0  0  0  0  0
  -25.9660  -19.1080   19.7680 H   0  0  0  0  0  0  0  0  0  0  0  0
  -27.5290  -19.4650   19.5230 H   0  0  0  0  0  0  0  0  0  0  0  0
  -26.9100  -19.4740   21.0360 H   0  0  0  0  0  0  0  0  0  0  0  0
  -33.1160  -22.6340   20.4560 C   0  0  0  0  0  2  0  0  0  0  0  0
  -31.9570  -23.6450   20.4040 C   0  0  0  0  0  2  0  0  0  0  0  0
  -31.2040  -23.7060   19.0600 C   0  0  0  0  0  2  0  0  0  0  0  0
  -30.3970  -25.0110   18.9050 C   0  0  0  0  0  2  0  0  0  0  0  0
  -29.2010  -24.8900   17.9380 C   0  0  0  0  0  2  0  0  0  0  0  0
  -28.9370  -27.3790   17.3280 C   0  0  0  0  0  1  0  0  0  0  0  0
  -28.2660  -26.1200   17.9030 C   0  0  0  0  0  3  0  0  0  0  0  0
  -27.8200  -26.3610   19.2380 O   0  0  0  0  0  0  0  0  0  0  0  0
  -24.7190  -31.4970   23.0300 C   0  0  0  0  0  0  0  0  0  0  0  0
  -26.7250  -27.1720   19.3820 C   0  0  0  0  0  0  0  0  0  0  0  0
  -23.2680  -30.3540   21.3810 C   0  0  0  0  0  3  0  0  0  0  0  0
  -24.4690  -28.8290   19.7220 C   0  0  0  0  0  0  0  0  0  0  0  0
  -25.7910  -30.5190   21.0090 C   0  0  0  0  0  2  0  0  0  0  0  0
  -25.7040  -29.2060   20.2620 C   0  0  0  0  0  0  0  0  0  0  0  0
  -26.8340  -28.3760   20.1050 C   0  0  0  0  0  3  0  0  0  0  0  0
  -25.4760  -26.7900   18.8480 C   0  0  0  0  0  3  0  0  0  0  0  0
  -24.3460  -27.6160   19.0190 C   0  0  0  0  0  3  0  0  0  0  0  0
  -23.3100  -29.7760   19.9410 C   0  0  0  0  0  2  0  0  0  0  0  0
  -24.6150  -30.7960   21.8650 N   0  0  0  0  0  0  0  0  0  0  0  0
  -23.7110  -31.8140   23.6750 O   0  0  0  0  0  0  0  0  0  0  0  0
  -22.5980  -29.3150   22.3060 C   0  0  0  0  0  0  0  0  0  0  0  0
  -21.2580  -29.2350   22.2410 N   0  0  0  0  0  0  0  0  0  0  0  0
  -23.2750  -28.5860   23.0360 O   0  0  0  0  0  0  0  0  0  0  0  0
  -20.7770  -29.8670   21.6170 H   0  0  0  0  0  0  0  0  0  0  0  0
  -17.8400  -28.2150   22.7990 C   0  0  0  0  0  0  0  0  0  0  0  0
  -20.4160  -28.3060   22.9900 C   0  0  0  0  0  3  0  0  0  0  0  0
  -20.4120  -26.9060   22.3340 C   0  0  0  0  0  2  0  0  0  0  0  0
  -19.2590  -26.7070   21.3440 C   0  0  0  0  0  2  0  0  0  0  0  0
  -17.9110  -26.8970   22.0460 C   0  0  0  0  0  2  0  0  0  0  0  0
  -19.0160  -28.8830   23.2280 C   0  0  0  0  0  0  0  0  0  0  0  0
  -18.8970  -30.1230   23.8930 C   0  0  0  0  0  3  0  0  0  0  0  0
  -17.6330  -30.6910   24.1350 C   0  0  0  0  0  3  0  0  0  0  0  0
  -16.4700  -30.0170   23.7200 C   0  0  0  0  0  3  0  0  0  0  0  0
  -16.5750  -28.7810   23.0580 C   0  0  0  0  0  3  0  0  0  0  0  0
  -26.1010  -31.9530   23.5920 C   0  0  0  0  0  3  0  0  0  0  0  0
  -26.6710  -30.9870   24.7040 C   0  0  1  0  0  0  0  0  0  0  0  0
  -25.6720  -30.7050   25.8500 C   0  0  0  0  0  1  0  0  0  0  0  0
  -27.0810  -29.6280   24.0900 C   0  0  0  0  0  1  0  0  0  0  0  0
  -27.9500  -31.5970   25.3220 C   0  0  0  0  0  1  0  0  0  0  0  0
  -25.9350  -33.3140   24.1170 N   0  0  0  0  0  0  0  0  0  0  0  0
  -26.2890  -34.4290   23.4630 C   0  0  0  0  0  0  0  0  0  0  0  0
  -26.8590  -34.4130   22.3700 O   0  0  0  0  0  0  0  0  0  0  0  0
  -25.4170  -33.4060   24.9790 H   0  0  0  0  0  0  0  0  0  0  0  0
  -24.6850  -36.3670   23.4920 C   0  0  0  0  0  1  0  0  0  0  0  0
  -25.9530  -35.7780   24.1300 C   0  0  0  0  0  3  0  0  0  0  0  0
  -28.2080  -36.4050   24.8700 C   0  0  0  0  0  1  0  0  0  0  0  0
  -27.0530  -36.7640   24.0510 N   0  0  0  0  0  0  0  0  0  0  0  0
  -26.7320  -37.6850   24.3360 H   0  0  0  0  0  0  0  0  0  0  0  0
  1  3  2  0
  2 53  1  0
  2  1  1  0
  4  2  1  0
  5  1  1  0
  6 12  1  0
  6 19  1  0
  7 12  1  0
  8  9  1  0
  8  7  1  0
 10  9  1  0
 10 23  1  0
 10 11  1  0
 12 11  1  0
 13  6  2  0
 14 18  1  0
 14 17  1  0
 16 18  1  0
 16 19  1  0
 17  5  1  0
 17 15  1  0
 18 48  1  0
 19 15  1  0
 20 21  2  0
 21 40  1  0
 22 25  1  0
 22 21  1  0
 23 24  1  0
 23 20  1  0
 24 22  2  0
 25 26  1  0
 26 27  2  0
 28 27  1  0
 29 28  2  0
 30 29  1  0
 30 25  2  0
 31 28  1  0
 31 32  1  0
 32 33  1  0
 33 34  2  0
 35 34  1  0
 35 39  1  0
 36 35  2  0
 37 32  2  0
 37 36  1  0
 38 37  1  0
 40 41  1  0
 41 44  1  0
 41 43  1  0
 42 40  2  0
 45 20  1  0
 46 45  1  0
 47 45  1  0
 49 48  1  0
 49 52  1  0
 50 49  1  0
 51 49  1  0
 54 53  1  0
 55 54  1  0
 56 55  1  0
 57 56  1  0
 59 58  1  0
 59 57  1  0
 59 60  1  0
 60 62  1  0
 61 72  2  0
 62 67  1  0
 63 71  1  0
 63 73  1  0
 64 70  1  0
 64 66  1  0
 65 71  1  0
 66 65  1  0
 67 66  2  0
 68 69  1  0
 68 62  2  0
 69 64  2  0
 70 63  1  0
 71 61  1  0
 73 75  2  0
 74 73  1  0
 76 74  1  0
 77 86  2  0
 77 82  1  0
 78 74  1  0
 78 82  1  0
 79 78  1  0
 80 81  1  0
 80 79  1  0
 81 77  1  0
 82 83  2  0
 83 84  1  0
 85 84  2  0
 86 85  1  0
 87 61  1  0
 87 92  1  0
 87 88  1  0
 88 91  1  1
 88 89  1  0
 90 88  1  0
 92 95  1  0
 93 92  1  0
 93 97  1  0
 94 93  2  0
 97 96  1  0
 99 97  1  0
 99100  1  0
 99 98  1  0
M  ISO  4   6 100  19 100  59 101  60 101
M  END
>  <TORSDO>  (86) 
F 25

>  <SCORE>  (86) 
-10.281

>  <name>  (86) 
88

>  <ligand_id>  (86) 
88

>  <original_smiles>  (86) 
[H]c1c([H])c([H])c2c(c1[H])C([H])([H])C([H])([H])C([H])([H])C2([H])N([H])C(=O)C1([H])N(C(=O)C([H])(N([H])C(=O)C([H])(N([H])C([H])([H])[H])C([H])([H])[H])C(C([H])([H])[H])(C([H])([H])[H])C([H])([H])[H])C([H])([H])c2c([H])c(OC([H])(C([H])([H])[H])C([H])([H])C([H])([H])C([H])([H])C([H])([H])C([H])([H])N([H])C(=O)C([H])([H])C3([H])C([H])([H])N(C(=O)N4C([H])([H])C([H])([H])C([H])([H])C([H])(n5nc(-c6c([H])c([H])c(Oc7c([H])c([H])c(F)c([H])c7F)c([H])c6[H])c(C(=O)N([H])[H])c5N([H])[H])C4([H])[H])C([H])([H])C([H])(C([H])([H])[N+]([H])([H])[H])C3([H])[H])c([H])c([H])c2C1([H])[H]

>  <smiles>  (86) 
[H]c1c([H])c([H])c2c(c1[H])C([H])([H])C([H])([H])C([H])([H])C2([H])N([H])C(=O)C1([H])N(C(=O)C([H])(N([H])C(=O)C([H])(N([H])C([H])([H])[H])C([H])([H])[H])C(C([H])([H])[H])(C([H])([H])[H])C([H])([H])[H])C([H])([H])c2c([H])c(OC([H])(C([H])([H])[H])C([H])([H])C([H])([H])C([H])([H])C([H])([H])C([H])([H])N([H])C(=O)C([H])([H])C3([H])C([H])([H])N(C(=O)N4C([H])([H])C([H])([H])C([H])([H])C([H])(n5nc(-c6c([H])c([H])c(Oc7c([H])c([H])c(F)c([H])c7F)c([H])c6[H])c(C(=O)N([H])[H])c5N([H])[H])C4([H])[H])C([H])([H])C([H])(C([H])([H])[N+]([H])([H])[H])C3([H])[H])c([H])c([H])c2C1([H])[H]

$$$$
89:0:0
     RDKit          3D

 99108  0  0  1  0  0  0  0  0999 V2000
  -27.2170  -18.6790   20.1230 C   0  0  0  0  0  3  0  0  0  0  0  0
  -27.9730  -17.5460   20.5080 C   0  0  0  0  0  3  0  0  0  0  0  0
  -29.9300  -18.3920   19.2960 C   0  0  0  0  0  3  0  0  0  0  0  0
  -29.1860  -19.5380   18.9850 C   0  0  0  0  0  0  0  0  0  0  0  0
  -27.8560  -19.6810   19.3740 C   0  0  0  0  0  0  0  0  0  0  0  0
  -29.3360  -17.4080   20.1230 C   0  0  0  0  0  0  0  0  0  0  0  0
  -29.6330  -20.7610   18.3230 C   0  0  0  0  0  0  0  0  0  0  0  0
  -27.2890  -21.0180   18.9480 C   0  0  0  0  0  2  0  0  0  0  0  0
  -28.5630  -21.8260   18.6010 C   0  0  0  0  0  3  0  0  0  0  0  0
  -30.6900  -20.9500   17.7100 O   0  0  0  0  0  0  0  0  0  0  0  0
  -28.4540  -22.9620   17.5570 C   0  0  0  0  0  2  0  0  0  0  0  0
  -28.9660  -24.2760   18.1760 C   0  0  0  0  0  2  0  0  0  0  0  0
  -28.9250  -25.5140   17.2710 C   0  0  0  0  0  2  0  0  0  0  0  0
  -28.9910  -26.6690   18.1070 O   0  0  0  0  0  0  0  0  0  0  0  0
  -25.6080  -30.2640   23.2550 C   0  0  0  0  0  0  0  0  0  0  0  0
  -27.8140  -27.2620   18.5190 C   0  0  0  0  0  0  0  0  0  0  0  0
  -24.2300  -29.6230   21.3060 C   0  0  0  0  0  3  0  0  0  0  0  0
  -25.5020  -28.6810   19.3150 C   0  0  0  0  0  0  0  0  0  0  0  0
  -26.7600  -29.9490   21.0690 C   0  0  0  0  0  2  0  0  0  0  0  0
  -26.7230  -28.9200   19.9580 C   0  0  0  0  0  0  0  0  0  0  0  0
  -27.8780  -28.2120   19.5630 C   0  0  0  0  0  3  0  0  0  0  0  0
  -26.5540  -26.9920   17.9280 C   0  0  0  0  0  3  0  0  0  0  0  0
  -25.4070  -27.7080   18.3100 C   0  0  0  0  0  3  0  0  0  0  0  0
  -24.3210  -29.5090   19.7620 C   0  0  0  0  0  2  0  0  0  0  0  0
  -25.5550  -29.9370   21.9340 N   0  0  0  0  0  0  0  0  0  0  0  0
  -24.5790  -30.3520   23.9370 O   0  0  0  0  0  0  0  0  0  0  0  0
  -23.5770  -28.3370   21.8560 C   0  0  0  0  0  0  0  0  0  0  0  0
  -22.2570  -28.2090   21.6630 N   0  0  0  0  0  0  0  0  0  0  0  0
  -24.2590  -27.4760   22.4200 O   0  0  0  0  0  0  0  0  0  0  0  0
  -21.7670  -28.9640   21.2030 H   0  0  0  0  0  0  0  0  0  0  0  0
  -18.9140  -26.8410   21.5650 C   0  0  0  0  0  0  0  0  0  0  0  0
  -21.4390  -27.0650   22.0640 C   0  0  0  0  0  3  0  0  0  0  0  0
  -21.6340  -25.8770   21.0930 C   0  0  0  0  0  2  0  0  0  0  0  0
  -20.5970  -25.8380   19.9650 C   0  0  0  0  0  2  0  0  0  0  0  0
  -19.1830  -25.7490   20.5430 C   0  0  0  0  0  2  0  0  0  0  0  0
  -19.9750  -27.4670   22.2690 C   0  0  0  0  0  0  0  0  0  0  0  0
  -19.6740  -28.4950   23.1900 C   0  0  0  0  0  3  0  0  0  0  0  0
  -18.3430  -28.8920   23.4140 C   0  0  0  0  0  3  0  0  0  0  0  0
  -17.2950  -28.2640   22.7210 C   0  0  0  0  0  3  0  0  0  0  0  0
  -17.5810  -27.2370   21.8030 C   0  0  0  0  0  3  0  0  0  0  0  0
  -26.9650  -30.5690   23.9630 C   0  0  0  0  0  3  0  0  0  0  0  0
  -27.5110  -29.3610   24.8200 C   0  0  1  0  0  0  0  0  0  0  0  0
  -26.4640  -28.7690   25.7930 C   0  0  0  0  0  1  0  0  0  0  0  0
  -28.0040  -28.2180   23.9010 C   0  0  0  0  0  1  0  0  0  0  0  0
  -28.7360  -29.8170   25.6500 C   0  0  0  0  0  1  0  0  0  0  0  0
  -26.7660  -31.7580   24.8030 N   0  0  0  0  0  0  0  0  0  0  0  0
  -27.1880  -32.9900   24.4890 C   0  0  0  0  0  0  0  0  0  0  0  0
  -27.8580  -33.2320   23.4810 O   0  0  0  0  0  0  0  0  0  0  0  0
  -26.1800  -31.6430   25.6180 H   0  0  0  0  0  0  0  0  0  0  0  0
  -25.6260  -34.9260   24.8560 C   0  0  0  0  0  1  0  0  0  0  0  0
  -26.8040  -34.1330   25.4450 C   0  0  0  0  0  3  0  0  0  0  0  0
  -28.9700  -34.4400   26.5590 C   0  0  0  0  0  1  0  0  0  0  0  0
  -27.9240  -35.0520   25.7430 N   0  0  0  0  0  0  0  0  0  0  0  0
  -27.5890  -35.8800   26.2320 H   0  0  0  0  0  0  0  0  0  0  0  0
  -30.1860  -16.2550   20.6530 C   0  0  0  0  0  3  0  0  0  0  0  0
  -31.2640  -14.2600   19.5800 C   0  0  0  0  0  0  0  0  0  0  0  0
  -30.9610  -11.9340   18.8580 C   0  0  0  0  0  2  0  0  0  0  0  0
  -29.9240  -11.9140   17.7150 C   0  0  0  0  0  2  0  0  0  0  0  0
  -28.4900  -11.8460   18.2760 C   0  0  0  0  0  2  0  0  0  0  0  0
  -28.2260  -12.8790   19.4050 C   0  0  0  0  0  3  0  0  0  0  0  0
  -29.3660  -12.8590   20.4480 C   0  0  0  0  0  2  0  0  0  0  0  0
  -30.6300  -13.0710   19.7280 N   0  0  0  0  0  0  0  0  0  0  0  0
  -32.3770  -14.3740   19.0620 O   0  0  0  0  0  0  0  0  0  0  0  0
  -30.4390  -15.3160   19.5610 N   0  0  0  0  0  0  0  0  0  0  0  0
  -30.4920  -15.8120   18.6850 H   0  0  0  0  0  0  0  0  0  0  0  0
  -25.9840  -13.6160   20.4290 C   0  0  0  0  0  0  0  0  0  0  0  0
  -24.9030  -12.9050   20.8760 C   0  0  0  0  0  0  0  0  0  0  0  0
  -25.2410  -11.5270   20.7060 C   0  0  0  0  0  0  0  0  0  0  0  0
  -26.9190  -12.6780   20.0230 N   0  0  0  0  0  0  0  0  0  0  0  0
  -26.4790  -11.4110   20.2410 N   0  0  0  0  0  0  0  0  0  0  0  0
  -24.4340  -10.3160   20.8970 C   0  0  0  0  0  0  0  0  0  0  0  0
  -24.6900   -9.4160   21.9560 C   0  0  0  0  0  3  0  0  0  0  0  0
  -23.8930   -8.2640   22.1250 C   0  0  0  0  0  3  0  0  0  0  0  0
  -22.8220   -8.0030   21.2370 C   0  0  0  0  0  0  0  0  0  0  0  0
  -22.5860   -8.8880   20.1700 C   0  0  0  0  0  3  0  0  0  0  0  0
  -23.3850  -10.0310   19.9980 C   0  0  0  0  0  3  0  0  0  0  0  0
  -22.0100   -6.8980   21.3130 O   0  0  0  0  0  0  0  0  0  0  0  0
  -21.5220   -6.4450   22.5140 C   0  0  0  0  0  0  0  0  0  0  0  0
  -20.6860   -7.2420   23.3250 C   0  0  0  0  0  3  0  0  0  0  0  0
  -20.1490   -6.7140   24.5160 C   0  0  0  0  0  3  0  0  0  0  0  0
  -20.4340   -5.3870   24.8920 C   0  0  0  0  0  0  0  0  0  0  0  0
  -21.2630   -4.5900   24.0830 C   0  0  0  0  0  3  0  0  0  0  0  0
  -21.8020   -5.1160   22.8960 C   0  0  0  0  0  0  0  0  0  0  0  0
  -22.5820   -4.3360   22.1090 F   0  0  0  0  0  0  0  0  0  0  0  0
  -19.9130   -4.8780   26.0320 F   0  0  0  0  0  0  0  0  0  0  0  0
  -23.5940  -13.4660   21.3510 C   0  0  0  0  0  0  0  0  0  0  0  0
  -22.9210  -12.7720   22.2600 N   0  0  0  0  0  0  0  0  0  0  0  0
  -23.1830  -14.5550   20.9510 O   0  0  0  0  0  0  0  0  0  0  0  0
  -23.2720  -11.8920   22.6130 H   0  0  0  0  0  0  0  0  0  0  0  0
  -22.0440  -13.1280   22.6170 H   0  0  0  0  0  0  0  0  0  0  0  0
  -26.2370  -14.9800   20.3130 N   0  0  0  0  0  0  0  0  0  0  0  0
  -25.5450  -15.6820   20.5460 H   0  0  0  0  0  0  0  0  0  0  0  0
  -27.0880  -15.3770   19.9320 H   0  0  0  0  0  0  0  0  0  0  0  0
  -31.5090  -16.7780   21.2860 C   0  0  0  0  0  2  0  0  0  0  0  0
  -31.4220  -18.1820   21.9440 C   0  0  0  0  0  2  0  0  0  0  0  0
  -32.6990  -18.9110   21.8870 N   0  0  0  0  0  4  0  0  0  0  0  0
  -33.4330  -18.4050   22.3560 H   0  0  0  0  0  0  0  0  0  0  0  0
  -32.5940  -19.8060   22.3320 H   0  0  0  0  0  0  0  0  0  0  0  0
  -32.9740  -19.0750   20.9350 H   0  0  0  0  0  0  0  0  0  0  0  0
  1  2  1  0
  3  6  1  0
  4  3  2  0
  4  5  1  0
  5  1  2  0
  6  2  2  0
  6 55  1  0
  7  9  1  0
  7  4  1  0
  8  5  1  0
  9 11  1  0
  9  8  1  0
 10  7  2  0
 11 12  1  0
 13 14  1  0
 13 12  1  0
 14 16  1  0
 15 26  2  0
 16 21  1  0
 17 27  1  0
 17 25  1  0
 18 24  1  0
 18 20  1  0
 19 25  1  0
 20 19  1  0
 21 20  2  0
 22 23  1  0
 22 16  2  0
 23 18  2  0
 24 17  1  0
 25 15  1  0
 27 29  2  0
 28 27  1  0
 30 28  1  0
 31 40  2  0
 31 36  1  0
 32 28  1  0
 32 36  1  0
 33 32  1  0
 34 35  1  0
 34 33  1  0
 35 31  1  0
 36 37  2  0
 37 38  1  0
 39 38  2  0
 40 39  1  0
 41 15  1  0
 41 46  1  0
 41 42  1  0
 42 45  1  1
 42 43  1  0
 44 42  1  0
 46 49  1  0
 47 46  1  0
 47 51  1  0
 48 47  2  0
 51 50  1  0
 51 53  1  0
 53 54  1  0
 53 52  1  0
 55 94  1  0
 56 62  1  0
 57 62  1  0
 58 59  1  0
 58 57  1  0
 60 59  1  0
 60 69  1  0
 60 61  1  0
 62 61  1  0
 63 56  2  0
 64 56  1  0
 64 55  1  0
 65 64  1  0
 66 67  2  0
 67 86  1  0
 68 67  1  0
 68 71  1  0
 69 70  1  0
 69 66  1  0
 70 68  2  0
 71 72  1  0
 72 73  2  0
 74 77  1  0
 74 73  1  0
 75 74  2  0
 76 75  1  0
 76 71  2  0
 77 78  1  0
 78 83  2  0
 78 79  1  0
 79 80  2  0
 80 81  1  0
 81 85  1  0
 82 81  2  0
 83 82  1  0
 84 83  1  0
 86 87  1  0
 87 89  1  0
 87 90  1  0
 88 86  2  0
 91 66  1  0
 91 92  1  0
 93 91  1  0
 94 95  1  0
 96 95  1  0
 96 98  1  0
 96 97  1  0
 99 96  1  0
M  ISO  4  13 101  14 101  56 100  64 100
M  END
>  <TORSDO>  (87) 
F 23

>  <SCORE>  (87) 
-8.367

>  <name>  (87) 
89

>  <ligand_id>  (87) 
89

>  <original_smiles>  (87) 
[H]c1c([H])c([H])c2c(c1[H])C([H])([H])C([H])([H])C([H])([H])C2([H])N([H])C(=O)C1([H])N(C(=O)C([H])(N([H])C(=O)C([H])(N([H])C([H])([H])[H])C([H])([H])[H])C(C([H])([H])[H])(C([H])([H])[H])C([H])([H])[H])C([H])([H])c2c([H])c(OC([H])([H])C([H])([H])C([H])([H])C3([H])C(=O)c4c([H])c(C([H])(N([H])C(=O)N5C([H])([H])C([H])([H])C([H])([H])C([H])(n6nc(-c7c([H])c([H])c(Oc8c([H])c([H])c(F)c([H])c8F)c([H])c7[H])c(C(=O)N([H])[H])c6N([H])[H])C5([H])[H])C([H])([H])C([H])([H])[N+]([H])([H])[H])c([H])c([H])c4C3([H])[H])c([H])c([H])c2C1([H])[H]

>  <smiles>  (87) 
[H]c1c([H])c([H])c2c(c1[H])C([H])([H])C([H])([H])C([H])([H])C2([H])N([H])C(=O)C1([H])N(C(=O)C([H])(N([H])C(=O)C([H])(N([H])C([H])([H])[H])C([H])([H])[H])C(C([H])([H])[H])(C([H])([H])[H])C([H])([H])[H])C([H])([H])c2c([H])c(OC([H])([H])C([H])([H])C([H])([H])C3([H])C(=O)c4c([H])c(C([H])(N([H])C(=O)N5C([H])([H])C([H])([H])C([H])([H])C([H])(n6nc(-c7c([H])c([H])c(Oc8c([H])c([H])c(F)c([H])c8F)c([H])c7[H])c(C(=O)N([H])[H])c6N([H])[H])C5([H])[H])C([H])([H])C([H])([H])[N+]([H])([H])[H])c([H])c([H])c4C3([H])[H])c([H])c([H])c2C1([H])[H]

$$$$
90:0:0
     RDKit          3D

 95103  0  0  1  0  0  0  0  0999 V2000
  -29.9540  -20.3790   20.5980 C   0  0  0  0  0  2  0  0  0  0  0  0
  -30.1330  -21.8880   20.8280 C   0  0  0  0  0  2  0  0  0  0  0  0
  -29.9740  -21.4760   23.3150 C   0  0  0  0  0  2  0  0  0  0  0  0
  -30.4600  -19.5660   21.8130 C   0  0  0  0  0  3  0  0  0  0  0  0
  -29.4330  -22.3190   22.1380 C   0  0  0  0  0  3  0  0  0  0  0  0
  -29.8100  -20.0250   23.0610 N   0  0  0  0  0  4  0  0  0  0  0  0
  -28.8280  -19.8020   23.0080 H   0  0  0  0  0  0  0  0  0  0  0  0
  -30.1880  -19.5150   23.8420 H   0  0  0  0  0  0  0  0  0  0  0  0
  -30.1720  -18.0610   21.6710 C   0  0  0  0  0  0  0  0  0  0  0  0
  -29.3270  -17.6030   20.8960 O   0  0  0  0  0  0  0  0  0  0  0  0
  -30.9380  -17.1140   22.6020 C   0  0  0  0  0  2  0  0  0  0  0  0
  -31.8130  -16.0810   21.8590 C   0  0  0  0  0  2  0  0  0  0  0  0
  -31.2640  -14.3360   20.1510 C   0  0  0  0  0  0  0  0  0  0  0  0
  -30.7610  -12.2770   18.8910 C   0  0  0  0  0  2  0  0  0  0  0  0
  -29.7810  -12.5080   17.7290 C   0  0  0  0  0  2  0  0  0  0  0  0
  -28.3240  -12.4170   18.2170 C   0  0  0  0  0  2  0  0  0  0  0  0
  -28.0650  -13.2930   19.4700 C   0  0  0  0  0  3  0  0  0  0  0  0
  -29.1410  -13.0380   20.5490 C   0  0  0  0  0  2  0  0  0  0  0  0
  -30.4740  -13.2520   19.9510 N   0  0  0  0  0  0  0  0  0  0  0  0
  -32.2040  -14.6470   19.4120 O   0  0  0  0  0  0  0  0  0  0  0  0
  -31.0310  -14.9760   21.3040 N   0  0  0  0  0  0  0  0  0  0  0  0
  -30.2800  -14.6060   21.8670 H   0  0  0  0  0  0  0  0  0  0  0  0
  -25.7200  -14.0100   20.2640 C   0  0  0  0  0  0  0  0  0  0  0  0
  -24.6320  -13.2860   20.6730 C   0  0  0  0  0  0  0  0  0  0  0  0
  -25.0310  -11.9140   20.6260 C   0  0  0  0  0  0  0  0  0  0  0  0
  -26.7160  -13.0830   19.9970 N   0  0  0  0  0  0  0  0  0  0  0  0
  -26.3050  -11.8180   20.2700 N   0  0  0  0  0  0  0  0  0  0  0  0
  -24.2580  -10.6850   20.8460 C   0  0  0  0  0  0  0  0  0  0  0  0
  -24.6530   -9.7250   21.8040 C   0  0  0  0  0  3  0  0  0  0  0  0
  -23.8830   -8.5600   22.0090 C   0  0  0  0  0  3  0  0  0  0  0  0
  -22.7030   -8.3470   21.2570 C   0  0  0  0  0  0  0  0  0  0  0  0
  -22.3270   -9.2950   20.2890 C   0  0  0  0  0  3  0  0  0  0  0  0
  -23.0970  -10.4510   20.0820 C   0  0  0  0  0  3  0  0  0  0  0  0
  -21.9070   -7.2330   21.3700 O   0  0  0  0  0  0  0  0  0  0  0  0
  -21.7810   -6.5550   22.5560 C   0  0  0  0  0  0  0  0  0  0  0  0
  -21.3310   -7.1920   23.7330 C   0  0  0  0  0  3  0  0  0  0  0  0
  -21.1490   -6.4430   24.9130 C   0  0  0  0  0  3  0  0  0  0  0  0
  -21.4060   -5.0600   24.9160 C   0  0  0  0  0  0  0  0  0  0  0  0
  -21.8500   -4.4230   23.7440 C   0  0  0  0  0  3  0  0  0  0  0  0
  -22.0330   -5.1680   22.5660 C   0  0  0  0  0  0  0  0  0  0  0  0
  -22.4390   -4.5470   21.4330 F   0  0  0  0  0  0  0  0  0  0  0  0
  -21.2250   -4.3380   26.0470 F   0  0  0  0  0  0  0  0  0  0  0  0
  -23.2680  -13.8240   21.0000 C   0  0  0  0  0  0  0  0  0  0  0  0
  -22.5490  -13.1650   21.9020 N   0  0  0  0  0  0  0  0  0  0  0  0
  -22.8520  -14.8620   20.4880 O   0  0  0  0  0  0  0  0  0  0  0  0
  -22.9000  -12.3250   22.3380 H   0  0  0  0  0  0  0  0  0  0  0  0
  -21.6350  -13.5070   22.1610 H   0  0  0  0  0  0  0  0  0  0  0  0
  -25.9400  -15.3710   20.0820 N   0  0  0  0  0  0  0  0  0  0  0  0
  -25.2140  -16.0650   20.2280 H   0  0  0  0  0  0  0  0  0  0  0  0
  -26.8150  -15.7730   19.7650 H   0  0  0  0  0  0  0  0  0  0  0  0
  -29.5690  -23.8380   22.4120 C   0  0  0  0  0  2  0  0  0  0  0  0
  -28.8740  -24.7350   21.3800 C   0  0  0  0  0  0  0  0  0  0  0  0
  -28.0670  -24.2710   20.5670 O   0  0  0  0  0  0  0  0  0  0  0  0
  -29.2140  -26.2310   21.4090 C   0  0  0  0  0  2  0  0  0  0  0  0
  -28.8490  -26.8430   20.1710 O   0  0  0  0  0  0  0  0  0  0  0  0
  -24.8030  -31.7530   23.3600 C   0  0  0  0  0  0  0  0  0  0  0  0
  -27.6660  -27.5330   20.2070 C   0  0  0  0  0  0  0  0  0  0  0  0
  -23.6900  -30.4020   21.6090 C   0  0  0  0  0  3  0  0  0  0  0  0
  -25.2330  -28.9540   20.1860 C   0  0  0  0  0  0  0  0  0  0  0  0
  -26.2090  -30.8260   21.5280 C   0  0  0  0  0  2  0  0  0  0  0  0
  -26.3490  -29.4830   20.8470 C   0  0  0  0  0  0  0  0  0  0  0  0
  -27.5690  -28.7750   20.8660 C   0  0  0  0  0  3  0  0  0  0  0  0
  -26.5430  -27.0090   19.5380 C   0  0  0  0  0  3  0  0  0  0  0  0
  -25.3220  -27.7100   19.5330 C   0  0  0  0  0  3  0  0  0  0  0  0
  -23.9690  -29.7800   20.2140 C   0  0  0  0  0  2  0  0  0  0  0  0
  -24.9160  -31.0060   22.2260 N   0  0  0  0  0  0  0  0  0  0  0  0
  -23.6960  -31.9810   23.8670 O   0  0  0  0  0  0  0  0  0  0  0  0
  -23.0250  -29.3280   22.5000 C   0  0  0  0  0  0  0  0  0  0  0  0
  -21.7100  -29.1280   22.3100 N   0  0  0  0  0  0  0  0  0  0  0  0
  -23.6890  -28.6800   23.3130 O   0  0  0  0  0  0  0  0  0  0  0  0
  -21.2380  -29.7040   21.6280 H   0  0  0  0  0  0  0  0  0  0  0  0
  -18.3450  -27.8540   22.6120 C   0  0  0  0  0  0  0  0  0  0  0  0
  -20.8830  -28.1440   23.0070 C   0  0  0  0  0  3  0  0  0  0  0  0
  -21.0390  -26.7410   22.3760 C   0  0  0  0  0  2  0  0  0  0  0  0
  -19.9870  -26.4420   21.3030 C   0  0  0  0  0  2  0  0  0  0  0  0
  -18.5760  -26.5370   21.8910 C   0  0  0  0  0  2  0  0  0  0  0  0
  -19.4290  -28.6160   23.1220 C   0  0  0  0  0  0  0  0  0  0  0  0
  -19.1620  -29.8500   23.7530 C   0  0  0  0  0  3  0  0  0  0  0  0
  -17.8420  -30.3230   23.8810 C   0  0  0  0  0  3  0  0  0  0  0  0
  -16.7710  -29.5560   23.3900 C   0  0  0  0  0  3  0  0  0  0  0  0
  -17.0230  -28.3240   22.7610 C   0  0  0  0  0  3  0  0  0  0  0  0
  -26.0520  -32.3790   24.0570 C   0  0  0  0  0  3  0  0  0  0  0  0
  -25.7030  -33.7540   24.4350 N   0  0  0  0  0  0  0  0  0  0  0  0
  -26.0410  -34.8440   23.7320 C   0  0  0  0  0  0  0  0  0  0  0  0
  -26.7500  -34.7980   22.7230 O   0  0  0  0  0  0  0  0  0  0  0  0
  -25.0790  -33.8640   25.2200 H   0  0  0  0  0  0  0  0  0  0  0  0
  -24.2870  -36.6120   23.3910 C   0  0  0  0  0  1  0  0  0  0  0  0
  -25.5070  -36.2020   24.2280 C   0  0  0  0  0  3  0  0  0  0  0  0
  -27.5930  -37.0940   25.1680 C   0  0  0  0  0  1  0  0  0  0  0  0
  -26.5190  -37.2790   24.1950 N   0  0  0  0  0  0  0  0  0  0  0  0
  -26.0890  -38.1840   24.3660 H   0  0  0  0  0  0  0  0  0  0  0  0
  -26.5400  -31.5590   25.3130 C   0  0  1  0  0  0  0  0  0  0  0  0
  -25.4140  -31.2500   26.3270 C   0  0  0  0  0  1  0  0  0  0  0  0
  -27.1660  -30.2130   24.8770 C   0  0  0  0  0  1  0  0  0  0  0  0
  -27.6480  -32.3430   26.0530 C   0  0  0  0  0  1  0  0  0  0  0  0
  1  2  1  0
  1  4  1  0
  2  5  1  0
  4  9  1  0
  4  6  1  0
  5 51  1  0
  5  3  1  0
  6  3  1  0
  6  8  1  0
  7  6  1  0
  9 11  1  0
 10  9  2  0
 12 11  1  0
 13 21  1  0
 14 19  1  0
 15 16  1  0
 15 14  1  0
 17 16  1  0
 17 26  1  0
 17 18  1  0
 19 13  1  0
 19 18  1  0
 20 13  2  0
 21 12  1  0
 21 22  1  0
 23 24  2  0
 24 43  1  0
 25 24  1  0
 25 28  1  0
 26 23  1  0
 26 27  1  0
 27 25  2  0
 28 29  1  0
 29 30  2  0
 31 34  1  0
 31 30  1  0
 32 31  2  0
 33 32  1  0
 33 28  2  0
 34 35  1  0
 35 40  2  0
 35 36  1  0
 36 37  2  0
 37 38  1  0
 38 42  1  0
 39 38  2  0
 40 39  1  0
 41 40  1  0
 43 44  1  0
 44 47  1  0
 44 46  1  0
 45 43  2  0
 48 49  1  0
 48 23  1  0
 50 48  1  0
 52 54  1  0
 52 51  1  0
 53 52  2  0
 55 57  1  0
 55 54  1  0
 56 67  2  0
 57 62  1  0
 58 66  1  0
 58 68  1  0
 59 65  1  0
 59 61  1  0
 60 66  1  0
 61 62  2  0
 61 60  1  0
 63 57  2  0
 64 63  1  0
 64 59  2  0
 65 58  1  0
 66 56  1  0
 68 70  2  0
 69 68  1  0
 71 69  1  0
 72 81  2  0
 72 77  1  0
 73 69  1  0
 73 77  1  0
 74 73  1  0
 75 76  1  0
 75 74  1  0
 76 72  1  0
 77 78  2  0
 78 79  1  0
 80 79  2  0
 81 80  1  0
 82 56  1  0
 82 83  1  0
 82 92  1  0
 83 86  1  0
 84 88  1  0
 84 83  1  0
 85 84  2  0
 88 87  1  0
 90 88  1  0
 90 91  1  0
 90 89  1  0
 92 95  1  1
 92 93  1  0
 94 92  1  0
M  ISO  4  13 100  21 100  54 101  55 101
M  END
>  <TORSDO>  (88) 
F 22

>  <SCORE>  (88) 
-11.146

>  <name>  (88) 
90

>  <ligand_id>  (88) 
90

>  <original_smiles>  (88) 
[H]c1c([H])c([H])c2c(c1[H])C([H])([H])C([H])([H])C([H])([H])C2([H])N([H])C(=O)C1([H])N(C(=O)C([H])(N([H])C(=O)C([H])(N([H])C([H])([H])[H])C([H])([H])[H])C(C([H])([H])[H])(C([H])([H])[H])C([H])([H])[H])C([H])([H])c2c([H])c(OC([H])([H])C(=O)C([H])([H])C3([H])C([H])([H])C([H])([H])C([H])(C(=O)C([H])([H])C([H])([H])N([H])C(=O)N4C([H])([H])C([H])([H])C([H])([H])C([H])(n5nc(-c6c([H])c([H])c(Oc7c([H])c([H])c(F)c([H])c7F)c([H])c6[H])c(C(=O)N([H])[H])c5N([H])[H])C4([H])[H])[N+]([H])([H])C3([H])[H])c([H])c([H])c2C1([H])[H]

>  <smiles>  (88) 
[H]c1c([H])c([H])c2c(c1[H])C([H])([H])C([H])([H])C([H])([H])C2([H])N([H])C(=O)C1([H])N(C(=O)C([H])(N([H])C(=O)C([H])(N([H])C([H])([H])[H])C([H])([H])[H])C(C([H])([H])[H])(C([H])([H])[H])C([H])([H])[H])C([H])([H])c2c([H])c(OC([H])([H])C(=O)C([H])([H])C3([H])C([H])([H])C([H])([H])C([H])(C(=O)C([H])([H])C([H])([H])N([H])C(=O)N4C([H])([H])C([H])([H])C([H])([H])C([H])(n5nc(-c6c([H])c([H])c(Oc7c([H])c([H])c(F)c([H])c7F)c([H])c6[H])c(C(=O)N([H])[H])c5N([H])[H])C4([H])[H])[N+]([H])([H])C3([H])[H])c([H])c([H])c2C1([H])[H]

$$$$
91:0:0
     RDKit          3D

 91 98  0  0  1  0  0  0  0  0999 V2000
  -30.5960  -21.6850   20.6010 C   0  0  0  0  0  0  0  0  0  0  0  0
  -29.3230  -21.3570   20.2540 N   0  0  0  0  0  0  0  0  0  0  0  0
  -31.1310  -22.7210   20.1900 O   0  0  0  0  0  0  0  0  0  0  0  0
  -31.3940  -20.7940   21.5730 C   0  0  0  0  0  2  0  0  0  0  0  0
  -33.4500  -20.6770   23.1400 C   0  0  0  0  0  1  0  0  0  0  0  0
  -32.6800  -21.4840   22.0870 C   0  0  0  0  0  2  0  0  0  0  0  0
  -28.7700  -19.9380   20.5010 C   0  0  0  0  0  2  0  0  0  0  0  0
  -29.4150  -18.5810   19.8470 C   0  0  0  0  0  2  0  0  0  0  0  0
  -29.7670  -17.2950   20.7830 C   0  0  0  0  0  2  0  0  0  0  0  0
  -30.4290  -14.7620   20.1420 C   0  0  0  0  0  0  0  0  0  0  0  0
  -30.3080  -12.4770   19.1160 C   0  0  0  0  0  2  0  0  0  0  0  0
  -29.3200  -12.5040   17.9290 C   0  0  0  0  0  2  0  0  0  0  0  0
  -27.8710  -12.2820   18.4160 C   0  0  0  0  0  2  0  0  0  0  0  0
  -27.5080  -13.1670   19.6380 C   0  0  0  0  0  3  0  0  0  0  0  0
  -28.6060  -13.1020   20.7190 C   0  0  0  0  0  2  0  0  0  0  0  0
  -29.8640  -13.5080   20.0780 N   0  0  0  0  0  0  0  0  0  0  0  0
  -31.6170  -14.9240   19.8430 O   0  0  0  0  0  0  0  0  0  0  0  0
  -29.5720  -15.8320   20.3540 N   0  0  0  0  0  0  0  0  0  0  0  0
  -28.6150  -15.5200   20.4360 H   0  0  0  0  0  0  0  0  0  0  0  0
  -25.1310  -13.7010   20.4510 C   0  0  0  0  0  0  0  0  0  0  0  0
  -24.1010  -12.9000   20.8650 C   0  0  0  0  0  0  0  0  0  0  0  0
  -24.6040  -11.5620   20.8270 C   0  0  0  0  0  0  0  0  0  0  0  0
  -26.1890  -12.8480   20.1790 N   0  0  0  0  0  0  0  0  0  0  0  0
  -25.8820  -11.5580   20.4690 N   0  0  0  0  0  0  0  0  0  0  0  0
  -23.9230  -10.2810   21.0520 C   0  0  0  0  0  0  0  0  0  0  0  0
  -24.3710   -9.3640   22.0300 C   0  0  0  0  0  3  0  0  0  0  0  0
  -23.6830   -8.1480   22.2380 C   0  0  0  0  0  3  0  0  0  0  0  0
  -22.5340   -7.8410   21.4710 C   0  0  0  0  0  0  0  0  0  0  0  0
  -22.1060   -8.7480   20.4840 C   0  0  0  0  0  3  0  0  0  0  0  0
  -22.7950   -9.9540   20.2740 C   0  0  0  0  0  3  0  0  0  0  0  0
  -21.8210   -6.6720   21.5840 O   0  0  0  0  0  0  0  0  0  0  0  0
  -21.7450   -5.9900   22.7720 C   0  0  0  0  0  0  0  0  0  0  0  0
  -21.2130   -6.5830   23.9390 C   0  0  0  0  0  3  0  0  0  0  0  0
  -21.0860   -5.8240   25.1190 C   0  0  0  0  0  3  0  0  0  0  0  0
  -21.4840   -4.4730   25.1340 C   0  0  0  0  0  0  0  0  0  0  0  0
  -22.0140   -3.8820   23.9720 C   0  0  0  0  0  3  0  0  0  0  0  0
  -22.1400   -4.6370   22.7940 C   0  0  0  0  0  0  0  0  0  0  0  0
  -22.6290   -4.0570   21.6720 F   0  0  0  0  0  0  0  0  0  0  0  0
  -21.3580   -3.7420   26.2650 F   0  0  0  0  0  0  0  0  0  0  0  0
  -22.7020  -13.3400   21.1800 C   0  0  0  0  0  0  0  0  0  0  0  0
  -22.0180  -12.6360   22.0740 N   0  0  0  0  0  0  0  0  0  0  0  0
  -22.2210  -14.3460   20.6620 O   0  0  0  0  0  0  0  0  0  0  0  0
  -22.4170  -11.8280   22.5260 H   0  0  0  0  0  0  0  0  0  0  0  0
  -21.0760  -12.9160   22.3080 H   0  0  0  0  0  0  0  0  0  0  0  0
  -25.2480  -15.0740   20.2580 N   0  0  0  0  0  0  0  0  0  0  0  0
  -24.4610  -15.7030   20.3840 H   0  0  0  0  0  0  0  0  0  0  0  0
  -26.0540  -15.5290   19.8500 H   0  0  0  0  0  0  0  0  0  0  0  0
  -28.5130  -22.4530   19.5540 C   0  0  0  0  0  2  0  0  0  0  0  0
  -27.8680  -23.7680   20.2820 C   0  0  0  0  0  2  0  0  0  0  0  0
  -28.6180  -25.1020   20.8050 C   0  0  0  0  0  2  0  0  0  0  0  0
  -28.4920  -26.5010   20.2790 O   0  0  0  0  0  0  0  0  0  0  0  0
  -24.6270  -31.8940   23.3000 C   0  0  0  0  0  0  0  0  0  0  0  0
  -27.3340  -27.2960   20.3560 C   0  0  0  0  0  0  0  0  0  0  0  0
  -23.4710  -30.4760   21.6390 C   0  0  0  0  0  3  0  0  0  0  0  0
  -24.9640  -28.9060   20.2760 C   0  0  0  0  0  0  0  0  0  0  0  0
  -26.0130  -30.8000   21.5180 C   0  0  0  0  0  2  0  0  0  0  0  0
  -26.1160  -29.4090   20.8950 C   0  0  0  0  0  0  0  0  0  0  0  0
  -27.3080  -28.6170   20.9160 C   0  0  0  0  0  3  0  0  0  0  0  0
  -26.1570  -26.8450   19.7300 C   0  0  0  0  0  3  0  0  0  0  0  0
  -24.9880  -27.6320   19.6870 C   0  0  0  0  0  3  0  0  0  0  0  0
  -23.7250  -29.7800   20.2750 C   0  0  0  0  0  2  0  0  0  0  0  0
  -24.7200  -31.0790   22.2080 N   0  0  0  0  0  0  0  0  0  0  0  0
  -23.5280  -32.1690   23.8070 O   0  0  0  0  0  0  0  0  0  0  0  0
  -22.7890  -29.4670   22.5940 C   0  0  0  0  0  0  0  0  0  0  0  0
  -21.4670  -29.2820   22.4360 N   0  0  0  0  0  0  0  0  0  0  0  0
  -23.4500  -28.8500   23.4320 O   0  0  0  0  0  0  0  0  0  0  0  0
  -20.9930  -29.8330   21.7340 H   0  0  0  0  0  0  0  0  0  0  0  0
  -18.0820  -28.0880   22.8810 C   0  0  0  0  0  0  0  0  0  0  0  0
  -20.6350  -28.3460   23.1930 C   0  0  0  0  0  3  0  0  0  0  0  0
  -20.7470  -26.9150   22.6180 C   0  0  0  0  0  2  0  0  0  0  0  0
  -19.6620  -26.5920   21.5860 C   0  0  0  0  0  2  0  0  0  0  0  0
  -18.2690  -26.7390   22.2080 C   0  0  0  0  0  2  0  0  0  0  0  0
  -19.1930  -28.8490   23.3300 C   0  0  0  0  0  0  0  0  0  0  0  0
  -18.9660  -30.1100   23.9210 C   0  0  0  0  0  3  0  0  0  0  0  0
  -17.6590  -30.6130   24.0660 C   0  0  0  0  0  3  0  0  0  0  0  0
  -16.5620  -29.8490   23.6330 C   0  0  0  0  0  3  0  0  0  0  0  0
  -16.7730  -28.5890   23.0470 C   0  0  0  0  0  3  0  0  0  0  0  0
  -25.8880  -32.5390   23.9490 C   0  0  0  0  0  3  0  0  0  0  0  0
  -25.5680  -33.9440   24.2460 N   0  0  0  0  0  0  0  0  0  0  0  0
  -25.9140  -34.9840   23.4770 C   0  0  0  0  0  0  0  0  0  0  0  0
  -26.6070  -34.8660   22.4630 O   0  0  0  0  0  0  0  0  0  0  0  0
  -24.9550  -34.1100   25.0310 H   0  0  0  0  0  0  0  0  0  0  0  0
  -24.1870  -36.7680   23.0630 C   0  0  0  0  0  1  0  0  0  0  0  0
  -25.4150  -36.3790   23.9020 C   0  0  0  0  0  3  0  0  0  0  0  0
  -27.5290  -37.2930   24.7580 C   0  0  0  0  0  1  0  0  0  0  0  0
  -26.4460  -37.4340   23.7870 N   0  0  0  0  0  0  0  0  0  0  0  0
  -26.0330  -38.3560   23.9050 H   0  0  0  0  0  0  0  0  0  0  0  0
  -26.3650  -31.7930   25.2550 C   0  0  1  0  0  0  0  0  0  0  0  0
  -25.2390  -31.5720   26.2920 C   0  0  0  0  0  1  0  0  0  0  0  0
  -26.9660  -30.4110   24.9090 C   0  0  0  0  0  1  0  0  0  0  0  0
  -27.4880  -32.6050   25.9420 C   0  0  0  0  0  1  0  0  0  0  0  0
  1  4  1  0
  2  7  1  0
  2  1  1  0
  3  1  2  0
  4  6  1  0
  6  5  1  0
  8  7  1  0
  8  9  1  0
 10 18  1  0
 11 16  1  0
 12 13  1  0
 12 11  1  0
 14 13  1  0
 14 23  1  0
 14 15  1  0
 16 10  1  0
 16 15  1  0
 17 10  2  0
 18 19  1  0
 18  9  1  0
 20 21  2  0
 21 40  1  0
 22 21  1  0
 22 25  1  0
 23 20  1  0
 23 24  1  0
 24 22  2  0
 25 26  1  0
 26 27  2  0
 28 31  1  0
 28 27  1  0
 29 28  2  0
 30 29  1  0
 30 25  2  0
 31 32  1  0
 32 37  2  0
 32 33  1  0
 33 34  2  0
 34 35  1  0
 35 39  1  0
 36 35  2  0
 37 36  1  0
 38 37  1  0
 40 41  1  0
 41 44  1  0
 41 43  1  0
 42 40  2  0
 45 46  1  0
 45 20  1  0
 47 45  1  0
 48  2  1  0
 48 49  1  0
 49 50  1  0
 51 53  1  0
 51 50  1  0
 52 63  2  0
 53 58  1  0
 54 62  1  0
 54 64  1  0
 55 57  1  0
 56 62  1  0
 57 58  2  0
 57 56  1  0
 59 53  2  0
 60 59  1  0
 60 55  2  0
 61 55  1  0
 61 54  1  0
 62 52  1  0
 64 66  2  0
 65 64  1  0
 67 65  1  0
 68 77  2  0
 68 73  1  0
 69 65  1  0
 69 73  1  0
 70 69  1  0
 71 72  1  0
 71 70  1  0
 72 68  1  0
 73 74  2  0
 74 75  1  0
 76 75  2  0
 77 76  1  0
 78 52  1  0
 78 79  1  0
 78 88  1  0
 79 82  1  0
 80 84  1  0
 80 79  1  0
 81 80  2  0
 84 83  1  0
 86 84  1  0
 86 87  1  0
 86 85  1  0
 88 91  1  1
 88 89  1  0
 90 88  1  0
M  ISO  4  10 100  18 100  50 101  51 101
M  END
>  <TORSDO>  (89) 
F 24

>  <SCORE>  (89) 
-12.212

>  <name>  (89) 
91

>  <ligand_id>  (89) 
91

>  <original_smiles>  (89) 
[H]c1c([H])c([H])c2c(c1[H])C([H])([H])C([H])([H])C([H])([H])C2([H])N([H])C(=O)C1([H])N(C(=O)C([H])(N([H])C(=O)C([H])(N([H])C([H])([H])[H])C([H])([H])[H])C(C([H])([H])[H])(C([H])([H])[H])C([H])([H])[H])C([H])([H])c2c([H])c(OC([H])([H])C([H])([H])C([H])([H])N(C(=O)C([H])([H])C([H])([H])C([H])([H])[H])C([H])([H])C([H])([H])C([H])([H])N([H])C(=O)N3C([H])([H])C([H])([H])C([H])([H])C([H])(n4nc(-c5c([H])c([H])c(Oc6c([H])c([H])c(F)c([H])c6F)c([H])c5[H])c(C(=O)N([H])[H])c4N([H])[H])C3([H])[H])c([H])c([H])c2C1([H])[H]

>  <smiles>  (89) 
[H]c1c([H])c([H])c2c(c1[H])C([H])([H])C([H])([H])C([H])([H])C2([H])N([H])C(=O)C1([H])N(C(=O)C([H])(N([H])C(=O)C([H])(N([H])C([H])([H])[H])C([H])([H])[H])C(C([H])([H])[H])(C([H])([H])[H])C([H])([H])[H])C([H])([H])c2c([H])c(OC([H])([H])C([H])([H])C([H])([H])N(C(=O)C([H])([H])C([H])([H])C([H])([H])[H])C([H])([H])C([H])([H])C([H])([H])N([H])C(=O)N3C([H])([H])C([H])([H])C([H])([H])C([H])(n4nc(-c5c([H])c([H])c(Oc6c([H])c([H])c(F)c([H])c6F)c([H])c5[H])c(C(=O)N([H])[H])c4N([H])[H])C3([H])[H])c([H])c([H])c2C1([H])[H]

$$$$
92:0:0
     RDKit          3D

 95103  0  0  1  0  0  0  0  0999 V2000
  -31.1760  -23.2370   19.5530 C   0  0  0  0  0  3  0  0  0  0  0  0
  -32.8680  -23.4400   17.4890 C   0  0  0  0  0  1  0  0  0  0  0  0
  -32.6320  -23.4140   19.0220 C   0  0  0  0  0  2  0  0  0  0  0  0
  -30.9710  -21.9700   20.4570 C   0  0  0  0  0  2  0  0  0  0  0  0
  -31.2240  -20.3310   18.4040 C   0  0  0  0  0  1  0  0  0  0  0  0
  -31.4780  -20.5790   19.9050 C   0  0  0  0  0  3  0  0  0  0  0  0
  -30.9960  -19.3820   20.7730 C   0  0  0  0  0  2  0  0  0  0  0  0
  -30.8710  -14.5650   20.5720 C   0  0  0  0  0  0  0  0  0  0  0  0
  -30.4810  -12.3740   19.5380 C   0  0  0  0  0  2  0  0  0  0  0  0
  -29.5830  -12.5310   18.3000 C   0  0  0  0  0  2  0  0  0  0  0  0
  -28.1070  -12.4020   18.7200 C   0  0  0  0  0  2  0  0  0  0  0  0
  -27.7300  -13.3040   19.9260 C   0  0  0  0  0  3  0  0  0  0  0  0
  -28.7770  -13.2060   21.0620 C   0  0  0  0  0  2  0  0  0  0  0  0
  -30.1090  -13.4350   20.4880 N   0  0  0  0  0  0  0  0  0  0  0  0
  -32.0660  -14.5620   20.2900 O   0  0  0  0  0  0  0  0  0  0  0  0
  -30.3870  -17.4720   19.0910 C   0  0  0  0  0  2  0  0  0  0  0  0
  -31.0230  -16.8760   21.3500 C   0  0  0  0  0  2  0  0  0  0  0  0
  -31.2690  -17.9370   20.2570 C   0  0  0  0  0  3  0  0  0  0  0  0
  -29.5030  -16.3590   19.6480 C   0  0  0  0  0  3  0  0  0  0  0  0
  -30.2440  -15.7550   20.7710 N   0  0  0  0  0  0  0  0  0  0  0  0
  -25.3300  -13.9100   20.6170 C   0  0  0  0  0  0  0  0  0  0  0  0
  -24.2530  -13.1400   20.9540 C   0  0  0  0  0  0  0  0  0  0  0  0
  -24.7140  -11.7950   20.9350 C   0  0  0  0  0  0  0  0  0  0  0  0
  -26.3780  -13.0280   20.3980 N   0  0  0  0  0  0  0  0  0  0  0  0
  -26.0110  -11.7520   20.6530 N   0  0  0  0  0  0  0  0  0  0  0  0
  -23.9770  -10.5410   21.1050 C   0  0  0  0  0  0  0  0  0  0  0  0
  -24.3840   -9.5730   22.0470 C   0  0  0  0  0  3  0  0  0  0  0  0
  -23.6480   -8.3810   22.2040 C   0  0  0  0  0  3  0  0  0  0  0  0
  -22.4940   -8.1490   21.4210 C   0  0  0  0  0  0  0  0  0  0  0  0
  -22.1060   -9.1060   20.4650 C   0  0  0  0  0  3  0  0  0  0  0  0
  -22.8440  -10.2900   20.3060 C   0  0  0  0  0  3  0  0  0  0  0  0
  -21.7290   -7.0100   21.4950 O   0  0  0  0  0  0  0  0  0  0  0  0
  -21.6440   -6.2710   22.6450 C   0  0  0  0  0  0  0  0  0  0  0  0
  -21.1740   -6.8290   23.8540 C   0  0  0  0  0  3  0  0  0  0  0  0
  -21.0290   -6.0100   24.9960 C   0  0  0  0  0  3  0  0  0  0  0  0
  -21.3520   -4.6410   24.9280 C   0  0  0  0  0  0  0  0  0  0  0  0
  -21.8210   -4.0880   23.7240 C   0  0  0  0  0  3  0  0  0  0  0  0
  -21.9630   -4.9000   22.5890 C   0  0  0  0  0  0  0  0  0  0  0  0
  -22.3920   -4.3600   21.4220 F   0  0  0  0  0  0  0  0  0  0  0  0
  -21.2110   -3.8500   26.0190 F   0  0  0  0  0  0  0  0  0  0  0  0
  -22.8540  -13.6330   21.1850 C   0  0  0  0  0  0  0  0  0  0  0  0
  -22.0990  -12.9450   22.0350 N   0  0  0  0  0  0  0  0  0  0  0  0
  -22.4410  -14.6650   20.6560 O   0  0  0  0  0  0  0  0  0  0  0  0
  -22.4470  -12.1180   22.4970 H   0  0  0  0  0  0  0  0  0  0  0  0
  -21.1560  -13.2540   22.2290 H   0  0  0  0  0  0  0  0  0  0  0  0
  -25.4680  -15.2740   20.4670 N   0  0  0  0  0  0  0  0  0  0  0  0
  -24.6970  -15.9140   20.6140 H   0  0  0  0  0  0  0  0  0  0  0  0
  -26.3190  -15.7420   20.1820 H   0  0  0  0  0  0  0  0  0  0  0  0
  -27.2590  -17.2900   18.8810 C   0  0  0  0  0  1  0  0  0  0  0  0
  -28.1600  -16.9640   20.0900 C   0  0  0  0  0  2  0  0  0  0  0  0
  -30.7650  -24.5490   20.3070 C   0  0  0  0  0  2  0  0  0  0  0  0
  -31.0810  -27.0810   19.8130 C   0  0  0  0  0  1  0  0  0  0  0  0
  -30.4040  -25.7500   19.3750 C   0  0  0  0  0  3  0  0  0  0  0  0
  -28.8710  -25.9400   19.1730 C   0  0  0  0  0  2  0  0  0  0  0  0
  -28.4160  -26.7800   20.2270 O   0  0  0  0  0  0  0  0  0  0  0  0
  -24.5410  -31.8510   23.2350 C   0  0  0  0  0  0  0  0  0  0  0  0
  -27.2260  -27.4600   20.1310 C   0  0  0  0  0  0  0  0  0  0  0  0
  -23.3390  -30.4540   21.5770 C   0  0  0  0  0  3  0  0  0  0  0  0
  -24.8030  -28.9160   20.1530 C   0  0  0  0  0  0  0  0  0  0  0  0
  -25.8560  -30.8290   21.3830 C   0  0  0  0  0  2  0  0  0  0  0  0
  -25.9490  -29.4570   20.7470 C   0  0  0  0  0  0  0  0  0  0  0  0
  -27.1540  -28.7280   20.7450 C   0  0  0  0  0  3  0  0  0  0  0  0
  -26.0710  -26.9320   19.5100 C   0  0  0  0  0  3  0  0  0  0  0  0
  -24.8570  -27.6510   19.5340 C   0  0  0  0  0  3  0  0  0  0  0  0
  -23.5520  -29.7650   20.2000 C   0  0  0  0  0  2  0  0  0  0  0  0
  -24.5970  -31.0590   22.1270 N   0  0  0  0  0  0  0  0  0  0  0  0
  -23.4590  -32.1240   23.7730 O   0  0  0  0  0  0  0  0  0  0  0  0
  -22.6800  -29.4380   22.5370 C   0  0  0  0  0  0  0  0  0  0  0  0
  -21.3560  -29.2650   22.4050 N   0  0  0  0  0  0  0  0  0  0  0  0
  -23.3570  -28.8080   23.3530 O   0  0  0  0  0  0  0  0  0  0  0  0
  -20.8730  -29.8260   21.7170 H   0  0  0  0  0  0  0  0  0  0  0  0
  -17.9720  -28.0930   22.8790 C   0  0  0  0  0  0  0  0  0  0  0  0
  -20.5310  -28.3270   23.1640 C   0  0  0  0  0  3  0  0  0  0  0  0
  -20.6240  -26.9010   22.5730 C   0  0  0  0  0  2  0  0  0  0  0  0
  -19.5230  -26.5970   21.5520 C   0  0  0  0  0  2  0  0  0  0  0  0
  -18.1400  -26.7470   22.1920 C   0  0  0  0  0  2  0  0  0  0  0  0
  -19.0940  -28.8410   23.3200 C   0  0  0  0  0  0  0  0  0  0  0  0
  -18.8830  -30.1010   23.9210 C   0  0  0  0  0  3  0  0  0  0  0  0
  -17.5830  -30.6120   24.0840 C   0  0  0  0  0  3  0  0  0  0  0  0
  -16.4750  -29.8590   23.6600 C   0  0  0  0  0  3  0  0  0  0  0  0
  -16.6700  -28.6010   23.0640 C   0  0  0  0  0  3  0  0  0  0  0  0
  -25.8280  -32.4760   23.8640 C   0  0  0  0  0  3  0  0  0  0  0  0
  -25.5270  -33.8760   24.1930 N   0  0  0  0  0  0  0  0  0  0  0  0
  -25.8840  -34.9260   23.4410 C   0  0  0  0  0  0  0  0  0  0  0  0
  -26.5700  -34.8160   22.4200 O   0  0  0  0  0  0  0  0  0  0  0  0
  -24.9230  -34.0360   24.9850 H   0  0  0  0  0  0  0  0  0  0  0  0
  -24.1900  -36.7400   23.0470 C   0  0  0  0  0  1  0  0  0  0  0  0
  -25.4030  -36.3180   23.8890 C   0  0  0  0  0  3  0  0  0  0  0  0
  -27.5280  -37.1710   24.7780 C   0  0  0  0  0  1  0  0  0  0  0  0
  -26.4530  -37.3580   23.8070 N   0  0  0  0  0  0  0  0  0  0  0  0
  -26.0560  -38.2830   23.9460 H   0  0  0  0  0  0  0  0  0  0  0  0
  -26.3350  -31.6980   25.1410 C   0  0  1  0  0  0  0  0  0  0  0  0
  -25.2360  -31.4670   26.2030 C   0  0  0  0  0  1  0  0  0  0  0  0
  -26.9090  -30.3180   24.7430 C   0  0  0  0  0  1  0  0  0  0  0  0
  -27.4910  -32.4810   25.8090 C   0  0  0  0  0  1  0  0  0  0  0  0
  1  3  1  0
  1 51  1  0
  1  4  1  0
  2  3  1  0
  6  5  1  0
  6  4  1  0
  6  7  1  0
  8 20  1  0
  9 14  1  0
 10 11  1  0
 10  9  1  0
 12 11  1  0
 12 24  1  0
 12 13  1  0
 14  8  1  0
 14 13  1  0
 15  8  2  0
 16 19  1  0
 16 18  1  0
 18  7  1  0
 18 17  1  0
 19 50  1  0
 19 20  1  0
 20 17  1  0
 21 22  2  0
 22 41  1  0
 23 22  1  0
 23 26  1  0
 24 21  1  0
 24 25  1  0
 25 23  2  0
 26 27  1  0
 27 28  2  0
 29 32  1  0
 29 28  1  0
 30 29  2  0
 31 30  1  0
 31 26  2  0
 32 33  1  0
 33 34  1  0
 34 35  2  0
 36 35  1  0
 36 40  1  0
 37 36  2  0
 38 33  2  0
 38 37  1  0
 39 38  1  0
 41 42  1  0
 42 45  1  0
 42 44  1  0
 43 41  2  0
 46 47  1  0
 46 21  1  0
 48 46  1  0
 49 50  1  0
 53 52  1  0
 53 51  1  0
 54 53  1  0
 54 55  1  0
 56 67  2  0
 57 55  1  0
 57 62  1  0
 58 66  1  0
 58 68  1  0
 59 65  1  0
 59 61  1  0
 60 66  1  0
 61 60  1  0
 62 61  2  0
 63 64  1  0
 63 57  2  0
 64 59  2  0
 65 58  1  0
 66 56  1  0
 68 70  2  0
 69 68  1  0
 71 69  1  0
 72 81  2  0
 72 77  1  0
 73 69  1  0
 73 77  1  0
 74 73  1  0
 75 76  1  0
 75 74  1  0
 76 72  1  0
 77 78  2  0
 78 79  1  0
 80 79  2  0
 81 80  1  0
 82 56  1  0
 82 83  1  0
 82 92  1  0
 83 86  1  0
 84 88  1  0
 84 83  1  0
 85 84  2  0
 88 87  1  0
 90 88  1  0
 90 91  1  0
 90 89  1  0
 92 95  1  1
 92 93  1  0
 94 92  1  0
M  ISO  4   8 100  20 100  54 101  55 101
M  END
>  <TORSDO>  (90) 
F 24

>  <SCORE>  (90) 
-12.703

>  <name>  (90) 
92

>  <ligand_id>  (90) 
92

>  <original_smiles>  (90) 
[H]c1c([H])c([H])c2c(c1[H])C([H])([H])C([H])([H])C([H])([H])C2([H])N([H])C(=O)C1([H])N(C(=O)C([H])(N([H])C(=O)C([H])(N([H])C([H])([H])[H])C([H])([H])[H])C(C([H])([H])[H])(C([H])([H])[H])C([H])([H])[H])C([H])([H])c2c([H])c(OC([H])([H])C([H])(C([H])([H])[H])C([H])([H])C([H])(C([H])([H])C([H])([H])[H])C([H])([H])C([H])(C([H])([H])[H])C([H])([H])C3([H])C([H])([H])N(C(=O)N4C([H])([H])C([H])([H])C([H])([H])C([H])(n5nc(-c6c([H])c([H])c(Oc7c([H])c([H])c(F)c([H])c7F)c([H])c6[H])c(C(=O)N([H])[H])c5N([H])[H])C4([H])[H])C([H])(C([H])([H])C([H])([H])[H])C3([H])[H])c([H])c([H])c2C1([H])[H]

>  <smiles>  (90) 
[H]c1c([H])c([H])c2c(c1[H])C([H])([H])C([H])([H])C([H])([H])C2([H])N([H])C(=O)C1([H])N(C(=O)C([H])(N([H])C(=O)C([H])(N([H])C([H])([H])[H])C([H])([H])[H])C(C([H])([H])[H])(C([H])([H])[H])C([H])([H])[H])C([H])([H])c2c([H])c(OC([H])([H])C([H])(C([H])([H])[H])C([H])([H])C([H])(C([H])([H])C([H])([H])[H])C([H])([H])C([H])(C([H])([H])[H])C([H])([H])C3([H])C([H])([H])N(C(=O)N4C([H])([H])C([H])([H])C([H])([H])C([H])(n5nc(-c6c([H])c([H])c(Oc7c([H])c([H])c(F)c([H])c7F)c([H])c6[H])c(C(=O)N([H])[H])c5N([H])[H])C4([H])[H])C([H])(C([H])([H])C([H])([H])[H])C3([H])[H])c([H])c([H])c2C1([H])[H]

$$$$
93:0:0
     RDKit          3D

 99100  0  0  1  0  0  0  0  0999 V2000
  -24.5810  -25.5350   25.7630 C   0  0  0  0  0  2  0  0  0  0  0  0
  -25.1550  -23.9180   23.7680 C   0  0  0  0  0  2  0  0  0  0  0  0
  -25.6250  -26.4310   25.0000 C   0  0  0  0  0  2  0  0  0  0  0  0
  -25.5640  -25.0790   22.7930 C   0  0  0  0  0  2  0  0  0  0  0  0
  -24.4160  -24.1480   25.1160 C   0  0  0  0  0  3  0  0  0  0  0  0
  -25.1800  -26.7390   23.6270 N   0  0  1  0  0  4  0  0  0  0  0  0
  -25.8870  -27.3110   23.1860 H   0  0  0  0  0  0  0  0  0  0  0  0
  -24.7010  -23.0850   26.1350 N   0  0  0  0  0  4  0  0  0  0  0  0
  -23.9230  -23.0170   26.7590 H   0  0  0  0  0  0  0  0  0  0  0  0
  -25.4760  -23.3240   26.7310 H   0  0  0  0  0  0  0  0  0  0  0  0
  -24.8640  -22.1710   25.7410 H   0  0  0  0  0  0  0  0  0  0  0  0
  -27.1990  -24.0020   22.0280 C   0  0  0  0  0  2  0  0  0  0  0  0
  -28.1780  -24.7470   21.9110 O   0  0  0  0  0  0  0  0  0  0  0  0
  -27.7940  -22.1730   21.5090 C   0  0  0  0  0 15  0  0  0  0  0  0
  -29.4200  -20.8950   21.2820 C   0  0  0  0  0  1  0  0  0  0  0  0
  -31.1810  -17.9210   21.1610 C   0  0  0  0  0  0  0  0  0  0  0  0
  -32.0200  -15.3370   20.6220 C   0  0  0  0  0  2  0  0  0  0  0  0
  -31.5830  -14.6000   19.3090 C   0  0  0  0  0  2  0  0  0  0  0  0
  -30.1270  -14.1180   19.3860 C   0  0  0  0  0  2  0  0  0  0  0  0
  -29.2880  -15.2060   20.0880 C   0  0  0  0  0  3  0  0  0  0  0  0
  -29.8430  -15.6850   21.4270 C   0  0  0  0  0  2  0  0  0  0  0  0
  -31.0250  -16.4550   21.0980 N   0  0  0  0  0  0  0  0  0  0  0  0
  -32.4330  -18.0670   21.0960 O   0  0  0  0  0  0  0  0  0  0  0  0
  -30.0680  -19.1180   21.1270 N   0  0  0  0  0  0  0  0  0  0  0  0
  -30.7390  -19.5040   20.4700 H   0  0  0  0  0  0  0  0  0  0  0  0
  -26.8360  -15.7240   20.2690 C   0  0  0  0  0  0  0  0  0  0  0  0
  -25.7460  -14.9460   20.4570 C   0  0  0  0  0  0  0  0  0  0  0  0
  -26.2310  -13.6040   20.6040 C   0  0  0  0  0  0  0  0  0  0  0  0
  -27.9110  -14.8650   20.2670 N   0  0  0  0  0  0  0  0  0  0  0  0
  -27.5520  -13.5870   20.5470 N   0  0  0  0  0  0  0  0  0  0  0  0
  -25.5150  -12.3390   20.7130 C   0  0  0  0  0  0  0  0  0  0  0  0
  -25.6940  -11.4800   21.8200 C   0  0  0  0  0  3  0  0  0  0  0  0
  -24.9680  -10.2760   21.9070 C   0  0  0  0  0  3  0  0  0  0  0  0
  -24.0600   -9.9180   20.8820 C   0  0  0  0  0  0  0  0  0  0  0  0
  -23.9020  -10.7710   19.7750 C   0  0  0  0  0  3  0  0  0  0  0  0
  -24.6280  -11.9680   19.6860 C   0  0  0  0  0  3  0  0  0  0  0  0
  -23.3290   -8.7570   20.8690 O   0  0  0  0  0  0  0  0  0  0  0  0
  -22.7510   -8.2580   22.0100 C   0  0  0  0  0  0  0  0  0  0  0  0
  -21.8810   -9.0300   22.8090 C   0  0  0  0  0  3  0  0  0  0  0  0
  -21.2610   -8.4510   23.9330 C   0  0  0  0  0  3  0  0  0  0  0  0
  -21.4980   -7.0990   24.2520 C   0  0  0  0  0  0  0  0  0  0  0  0
  -22.3650   -6.3300   23.4560 C   0  0  0  0  0  3  0  0  0  0  0  0
  -22.9880   -6.9070   22.3340 C   0  0  0  0  0  0  0  0  0  0  0  0
  -23.8020   -6.1510   21.5590 F   0  0  0  0  0  0  0  0  0  0  0  0
  -20.8960   -6.5450   25.3300 F   0  0  0  0  0  0  0  0  0  0  0  0
  -24.3150  -15.3970   20.4210 C   0  0  0  0  0  0  0  0  0  0  0  0
  -23.4490  -14.7600   21.1890 N   0  0  0  0  0  0  0  0  0  0  0  0
  -23.9830  -16.3670   19.7330 O   0  0  0  0  0  0  0  0  0  0  0  0
  -23.7410  -13.9840   21.7660 H   0  0  0  0  0  0  0  0  0  0  0  0
  -22.4820  -15.0510   21.2070 H   0  0  0  0  0  0  0  0  0  0  0  0
  -27.0120  -17.0980   20.0790 N   0  0  0  0  0  0  0  0  0  0  0  0
  -26.2200  -17.7350   20.0350 H   0  0  0  0  0  0  0  0  0  0  0  0
  -27.9070  -17.5680   19.9920 H   0  0  0  0  0  0  0  0  0  0  0  0
  -23.7790  -27.9250   24.0760 C   0  0  0  0  0  2  0  0  0  0  0  0
  -22.8660  -29.8910   23.9630 C   0  0  0  0  0 15  0  0  0  0  0  0
  -21.7960  -30.9310   22.3970 C   0  0  0  0  0 15  0  0  0  0  0  0
  -21.1920  -30.0100   20.5670 C   0  0  0  0  0 15  0  0  0  0  0  0
  -22.2240  -28.4420   19.5810 C   0  0  0  0  0 15  0  0  0  0  0  0
  -23.9760  -27.7820   19.6470 O   0  0  0  0  0  1  0  0  0  0  0  0
  -25.5960  -31.6770   23.1120 C   0  0  0  0  0  0  0  0  0  0  0  0
  -25.2700  -27.8760   18.9690 C   0  0  0  0  0  3  0  0  0  0  0  0
  -24.0490  -30.4530   21.5870 C   0  0  0  0  0  3  0  0  0  0  0  0
  -24.6100  -30.2870   19.1230 C   0  0  0  0  0  3  0  0  0  0  0  0
  -26.3270  -30.9320   20.8350 C   0  0  0  0  0  2  0  0  0  0  0  0
  -25.8400  -30.0260   19.7140 C   0  0  0  0  0  3  0  0  0  0  0  0
  -26.2990  -28.7250   19.4970 C   0  0  0  0  0  2  0  0  0  0  0  0
  -24.8160  -28.2700   17.7620 C   0  0  0  0  0  2  0  0  0  0  0  0
  -24.2030  -29.5260   17.9670 C   0  0  0  0  0  2  0  0  0  0  0  0
  -23.7350  -30.9960   20.0930 C   0  0  0  0  0  2  0  0  0  0  0  0
  -25.3450  -31.0290   21.9370 N   0  0  0  0  0  0  0  0  0  0  0  0
  -24.7490  -31.9980   23.9570 O   0  0  0  0  0  0  0  0  0  0  0  0
  -23.9380  -28.7440   22.0220 C   0  0  0  0  0  3  0  0  0  0  0  0
  -22.6910  -27.7600   21.9300 N   0  0  0  0  0  0  0  0  0  0  0  0
  -24.8650  -28.3870   22.6910 O   0  0  0  0  0  0  0  0  0  0  0  0
  -23.0520  -26.8370   21.6580 H   0  0  0  0  0  0  0  0  0  0  0  0
  -18.2320  -28.1010   22.7860 C   0  0  0  0  0  0  0  0  0  0  0  0
  -20.9640  -27.6010   22.5070 C   0  0  0  0  0  3  0  0  0  0  0  0
  -20.5200  -26.4020   21.7740 C   0  0  0  0  0  2  0  0  0  0  0  0
  -19.2220  -26.6300   21.0520 C   0  0  0  0  0  2  0  0  0  0  0  0
  -18.1110  -26.7970   22.0580 C   0  0  0  0  0  2  0  0  0  0  0  0
  -19.5590  -28.5660   23.0920 C   0  0  0  0  0  0  0  0  0  0  0  0
  -19.3760  -29.7340   23.9940 C   0  0  0  0  0  3  0  0  0  0  0  0
  -18.1770  -30.5060   24.1620 C   0  0  0  0  0  3  0  0  0  0  0  0
  -16.9550  -29.9550   23.7790 C   0  0  0  0  0  3  0  0  0  0  0  0
  -16.9910  -28.6970   23.1690 C   0  0  0  0  0  3  0  0  0  0  0  0
  -27.0530  -32.0650   23.4210 C   0  0  0  0  0  3  0  0  0  0  0  0
  -27.7500  -31.0050   24.3510 C   0  0  1  0  0  0  0  0  0  0  0  0
  -26.9560  -30.6220   25.6190 C   0  0  0  0  0  1  0  0  0  0  0  0
  -28.0850  -29.6940   23.6260 C   0  0  0  0  0  1  0  0  0  0  0  0
  -29.1090  -31.5930   24.7700 C   0  0  0  0  0  1  0  0  0  0  0  0
  -27.0210  -33.3900   24.0390 N   0  0  0  0  0  0  0  0  0  0  0  0
  -27.2060  -34.5500   23.3880 C   0  0  0  0  0  0  0  0  0  0  0  0
  -27.4580  -34.6000   22.1820 O   0  0  0  0  0  0  0  0  0  0  0  0
  -26.7120  -33.4380   24.9980 H   0  0  0  0  0  0  0  0  0  0  0  0
  -25.7250  -36.5150   23.9660 C   0  0  0  0  0  1  0  0  0  0  0  0
  -27.0950  -35.8560   24.1900 C   0  0  0  0  0  3  0  0  0  0  0  0
  -29.4890  -36.3830   24.3340 C   0  0  0  0  0  1  0  0  0  0  0  0
  -28.1680  -36.8150   23.8860 N   0  0  0  0  0  0  0  0  0  0  0  0
  -27.9700  -37.7350   24.2890 H   0  0  0  0  0  0  0  0  0  0  0  0
  2  5  1  0
  3  1  1  0
  4  6  1  0
  4  2  1  0
  5  1  1  0
  5  8  1  0
  6 54  1  0
  6  3  1  0
  6  7  1  6
  8 10  1  0
  8  9  1  0
 11  8  1  0
 13 12  2  0
 17 22  1  0
 18 19  1  0
 18 17  1  0
 20 19  1  0
 20 29  1  0
 20 21  1  0
 22 16  1  0
 22 21  1  0
 23 16  2  0
 24 16  1  0
 24 15  1  0
 25 24  1  0
 26 27  2  0
 27 28  1  0
 28 31  1  0
 29 26  1  0
 29 30  1  0
 30 28  2  0
 31 32  1  0
 32 33  2  0
 34 33  1  0
 35 34  2  0
 36 35  1  0
 36 31  2  0
 37 34  1  0
 37 38  1  0
 38 43  2  0
 38 39  1  0
 39 40  2  0
 40 41  1  0
 41 45  1  0
 42 41  2  0
 43 42  1  0
 44 43  1  0
 46 27  1  0
 46 47  1  0
 47 50  1  0
 47 49  1  0
 48 46  2  0
 51 26  1  0
 52 51  1  0
 53 51  1  0
 60 71  2  0
 61 66  1  0
 61 59  1  0
 62 70  1  0
 62 72  1  0
 63 68  1  0
 63 65  1  0
 63 69  1  0
 64 70  1  0
 65 66  1  0
 65 64  1  0
 67 68  1  0
 67 61  1  0
 69 62  1  0
 70 60  1  0
 72 74  1  0
 73 72  1  0
 74 54  1  0
 75 73  1  0
 76 81  2  0
 76 85  1  0
 77 73  1  0
 77 81  1  0
 78 77  1  0
 79 78  1  0
 79 80  1  0
 80 76  1  0
 81 82  1  0
 82 83  2  0
 84 83  1  0
 85 84  2  0
 86 60  1  0
 86 91  1  0
 86 87  1  0
 87 90  1  1
 87 88  1  0
 89 87  1  0
 91 94  1  0
 92 91  1  0
 92 96  1  0
 93 92  2  0
 96 95  1  0
 98 96  1  0
 98 99  1  0
 98 97  1  0
M  ISO  4  16 100  24 100  58 101  59 101
M  END
>  <TORSDO>  (91) 
F 25

>  <SCORE>  (91) 
5.854

>  <name>  (91) 
93

>  <ligand_id>  (91) 
93

>  <original_smiles>  (91) 
[H]c1c([H])c([H])c2c(c1[H])C([H])([H])C([H])([H])C([H])([H])C2([H])N([H])C(=O)C1([H])N(C(=O)C([H])(N([H])C(=O)C([H])(N([H])C([H])([H])[H])C([H])([H])[H])C(C([H])([H])[H])(C([H])([H])[H])C([H])([H])[H])C([H])([H])c2c([H])c(OC([H])([H])C([H])([H])C([H])([H])C([H])([H])C([H])([H])[N+]3([H])C([H])([H])C([H])([H])C([H])([N+]([H])([H])[H])C([H])([H])C3([H])C(=O)C([H])([H])C([H])([H])N([H])C(=O)N3C([H])([H])C([H])([H])C([H])([H])C([H])(n4nc(-c5c([H])c([H])c(Oc6c([H])c([H])c(F)c([H])c6F)c([H])c5[H])c(C(=O)N([H])[H])c4N([H])[H])C3([H])[H])c([H])c([H])c2C1([H])[H]

>  <smiles>  (91) 
[H]c1c([H])c([H])c2c(c1[H])C([H])([H])C([H])([H])C([H])([H])C2([H])N([H])C(=O)C1([H])N(C(=O)C([H])(N([H])C(=O)C([H])(N([H])C([H])([H])[H])C([H])([H])[H])C(C([H])([H])[H])(C([H])([H])[H])C([H])([H])[H])C([H])([H])c2c([H])c(OC([H])([H])C([H])([H])C([H])([H])C([H])([H])C([H])([H])[N+]3([H])C([H])([H])C([H])([H])C([H])([N+]([H])([H])[H])C([H])([H])C3([H])C(=O)C([H])([H])C([H])([H])N([H])C(=O)N3C([H])([H])C([H])([H])C([H])([H])C([H])(n4nc(-c5c([H])c([H])c(Oc6c([H])c([H])c(F)c([H])c6F)c([H])c5[H])c(C(=O)N([H])[H])c4N([H])[H])C3([H])[H])c([H])c([H])c2C1([H])[H]

$$$$
94:0:0
     RDKit          3D

 99107  0  0  1  0  0  0  0  0999 V2000
  -29.5270  -18.8660   20.9080 C   0  0  0  0  0  2  0  0  0  0  0  0
  -28.3550  -16.7200   20.2480 C   0  0  0  0  0  2  0  0  0  0  0  0
  -27.0390  -18.8780   20.3900 C   0  0  0  0  0  2  0  0  0  0  0  0
  -29.6760  -17.5220   20.1600 C   0  0  0  0  0  3  0  0  0  0  0  0
  -28.3520  -19.6940   20.3410 C   0  0  0  0  0  3  0  0  0  0  0  0
  -27.1940  -17.5370   19.6480 C   0  0  0  0  0  3  0  0  0  0  0  0
  -31.4720  -14.3590   20.8880 C   0  0  0  0  0  0  0  0  0  0  0  0
  -31.2710  -11.9180   20.6200 C   0  0  0  0  0  2  0  0  0  0  0  0
  -30.5320  -11.6180   19.2990 C   0  0  0  0  0  2  0  0  0  0  0  0
  -29.0010  -11.6510   19.4890 C   0  0  0  0  0  2  0  0  0  0  0  0
  -28.5180  -12.9170   20.2440 C   0  0  0  0  0  3  0  0  0  0  0  0
  -29.3670  -13.1300   21.5190 C   0  0  0  0  0  2  0  0  0  0  0  0
  -30.7860  -13.2100   21.1150 N   0  0  0  0  0  0  0  0  0  0  0  0
  -32.6710  -14.3850   20.5810 O   0  0  0  0  0  0  0  0  0  0  0  0
  -30.9180  -16.7080   20.5740 C   0  0  0  0  0  0  0  0  0  0  0  0
  -30.6620  -15.4240   20.8500 N   0  0  0  0  0  0  0  0  0  0  0  0
  -32.0400  -17.2250   20.5910 O   0  0  0  0  0  0  0  0  0  0  0  0
  -29.6880  -15.1970   20.9520 H   0  0  0  0  0  0  0  0  0  0  0  0
  -26.1520  -13.8710   20.6010 C   0  0  0  0  0  0  0  0  0  0  0  0
  -24.9520  -13.2640   20.8530 C   0  0  0  0  0  0  0  0  0  0  0  0
  -25.2260  -11.8650   20.9300 C   0  0  0  0  0  0  0  0  0  0  0  0
  -27.0910  -12.8520   20.5420 N   0  0  0  0  0  0  0  0  0  0  0  0
  -26.5280  -11.6430   20.7950 N   0  0  0  0  0  0  0  0  0  0  0  0
  -24.3200  -10.7190   21.0650 C   0  0  0  0  0  0  0  0  0  0  0  0
  -24.6260   -9.6340   21.9150 C   0  0  0  0  0  3  0  0  0  0  0  0
  -23.7320   -8.5490   22.0400 C   0  0  0  0  0  3  0  0  0  0  0  0
  -22.5180   -8.5450   21.3130 C   0  0  0  0  0  0  0  0  0  0  0  0
  -22.2280   -9.6180   20.4520 C   0  0  0  0  0  3  0  0  0  0  0  0
  -23.1220  -10.6930   20.3250 C   0  0  0  0  0  3  0  0  0  0  0  0
  -21.5990   -7.5240   21.3540 O   0  0  0  0  0  0  0  0  0  0  0  0
  -21.5640   -6.6290   22.3920 C   0  0  0  0  0  0  0  0  0  0  0  0
  -21.4260   -7.0450   23.7340 C   0  0  0  0  0  3  0  0  0  0  0  0
  -21.3250   -6.0880   24.7640 C   0  0  0  0  0  3  0  0  0  0  0  0
  -21.3530   -4.7160   24.4540 C   0  0  0  0  0  0  0  0  0  0  0  0
  -21.4870   -4.2980   23.1190 C   0  0  0  0  0  3  0  0  0  0  0  0
  -21.5890   -5.2520   22.0910 C   0  0  0  0  0  0  0  0  0  0  0  0
  -21.6960   -4.8440   20.8030 F   0  0  0  0  0  0  0  0  0  0  0  0
  -21.2490   -3.7950   25.4410 F   0  0  0  0  0  0  0  0  0  0  0  0
  -23.6090  -13.9330   20.9180 C   0  0  0  0  0  0  0  0  0  0  0  0
  -22.7030  -13.4080   21.7340 N   0  0  0  0  0  0  0  0  0  0  0  0
  -23.3780  -14.9600   20.2830 O   0  0  0  0  0  0  0  0  0  0  0  0
  -22.8960  -12.5700   22.2640 H   0  0  0  0  0  0  0  0  0  0  0  0
  -21.7990  -13.8510   21.8290 H   0  0  0  0  0  0  0  0  0  0  0  0
  -26.5130  -15.1990   20.4030 N   0  0  0  0  0  0  0  0  0  0  0  0
  -25.7400  -15.7650   20.0660 H   0  0  0  0  0  0  0  0  0  0  0  0
  -27.3390  -15.3450   19.8390 H   0  0  0  0  0  0  0  0  0  0  0  0
  -25.9370  -16.7660   19.6220 N   0  0  0  0  0  4  0  0  0  0  0  0
  -25.6470  -16.4910   20.5430 H   0  0  0  0  0  0  0  0  0  0  0  0
  -26.0610  -15.9450   19.0530 H   0  0  0  0  0  0  0  0  0  0  0  0
  -25.2020  -17.3120   19.2080 H   0  0  0  0  0  0  0  0  0  0  0  0
  -28.2340  -21.0490   21.0600 C   0  0  0  0  0  2  0  0  0  0  0  0
  -27.2550  -22.0250   20.3800 C   0  0  0  0  0  2  0  0  0  0  0  0
  -27.1790  -23.4000   21.0600 C   0  0  0  0  0  3  0  0  0  0  0  0
  -26.1190  -24.0320   20.5560 F   0  0  0  0  0  0  0  0  0  0  0  0
  -28.4230  -24.2760   20.8260 C   0  0  0  0  0  2  0  0  0  0  0  0
  -29.0490  -25.4080   23.0210 C   0  0  0  0  0  1  0  0  0  0  0  0
  -28.4290  -25.5960   21.6270 C   0  0  0  0  0  3  0  0  0  0  0  0
  -29.1710  -26.7040   20.8510 C   0  0  0  0  0  2  0  0  0  0  0  0
  -28.4440  -27.0700   19.6800 O   0  0  0  0  0  0  0  0  0  0  0  0
  -24.6170  -31.8240   23.4010 C   0  0  0  0  0  0  0  0  0  0  0  0
  -27.2810  -27.7830   19.8530 C   0  0  0  0  0  0  0  0  0  0  0  0
  -23.3940  -30.5480   21.6660 C   0  0  0  0  0  3  0  0  0  0  0  0
  -24.8420  -29.1800   20.0750 C   0  0  0  0  0  0  0  0  0  0  0  0
  -25.8980  -30.9940   21.4350 C   0  0  0  0  0  2  0  0  0  0  0  0
  -25.9970  -29.6870   20.6810 C   0  0  0  0  0  0  0  0  0  0  0  0
  -27.2190  -28.9940   20.5810 C   0  0  0  0  0  3  0  0  0  0  0  0
  -26.1150  -27.2860   19.2400 C   0  0  0  0  0  3  0  0  0  0  0  0
  -24.8910  -27.9730   19.3550 C   0  0  0  0  0  3  0  0  0  0  0  0
  -23.5790  -29.9960   20.2260 C   0  0  0  0  0  2  0  0  0  0  0  0
  -24.6550  -31.1320   22.2270 N   0  0  0  0  0  0  0  0  0  0  0  0
  -23.5450  -32.0240   23.9890 O   0  0  0  0  0  0  0  0  0  0  0  0
  -22.7930  -29.4320   22.5460 C   0  0  0  0  0  0  0  0  0  0  0  0
  -21.4840  -29.1820   22.3770 N   0  0  0  0  0  0  0  0  0  0  0  0
  -23.4980  -28.7980   23.3350 O   0  0  0  0  0  0  0  0  0  0  0  0
  -20.9770  -29.7540   21.7170 H   0  0  0  0  0  0  0  0  0  0  0  0
  -18.2080  -27.6820   22.6240 C   0  0  0  0  0  0  0  0  0  0  0  0
  -20.7110  -28.1510   23.0650 C   0  0  0  0  0  3  0  0  0  0  0  0
  -20.9750  -26.7560   22.4520 C   0  0  0  0  0  2  0  0  0  0  0  0
  -19.9690  -26.3740   21.3620 C   0  0  0  0  0  2  0  0  0  0  0  0
  -18.5440  -26.3780   21.9220 C   0  0  0  0  0  2  0  0  0  0  0  0
  -19.2250  -28.5230   23.1470 C   0  0  0  0  0  0  0  0  0  0  0  0
  -18.8610  -29.7420   23.7600 C   0  0  0  0  0  3  0  0  0  0  0  0
  -17.5090  -30.1220   23.8560 C   0  0  0  0  0  3  0  0  0  0  0  0
  -16.5050  -29.2790   23.3490 C   0  0  0  0  0  3  0  0  0  0  0  0
  -16.8540  -28.0610   22.7400 C   0  0  0  0  0  3  0  0  0  0  0  0
  -25.9090  -32.4200   24.0450 C   0  0  0  0  0  3  0  0  0  0  0  0
  -26.3870  -31.6350   25.3280 C   0  0  1  0  0  0  0  0  0  0  0  0
  -25.2700  -31.4280   26.3760 C   0  0  0  0  0  1  0  0  0  0  0  0
  -26.9350  -30.2420   24.9380 C   0  0  0  0  0  1  0  0  0  0  0  0
  -27.5490  -32.3970   26.0060 C   0  0  0  0  0  1  0  0  0  0  0  0
  -25.6320  -33.8260   24.3670 N   0  0  0  0  0  0  0  0  0  0  0  0
  -26.0350  -34.8680   23.6270 C   0  0  0  0  0  0  0  0  0  0  0  0
  -26.7480  -34.7450   22.6280 O   0  0  0  0  0  0  0  0  0  0  0  0
  -25.0070  -34.0020   25.1400 H   0  0  0  0  0  0  0  0  0  0  0  0
  -24.3920  -36.7190   23.1880 C   0  0  0  0  0  1  0  0  0  0  0  0
  -25.5710  -36.2700   24.0640 C   0  0  0  0  0  3  0  0  0  0  0  0
  -27.6880  -37.0740   25.0150 C   0  0  0  0  0  1  0  0  0  0  0  0
  -26.6450  -37.2870   24.0140 N   0  0  0  0  0  0  0  0  0  0  0  0
  -26.2640  -38.2200   24.1440 H   0  0  0  0  0  0  0  0  0  0  0  0
  4  2  1  0
  4 15  1  0
  4  1  1  0
  5  3  1  0
  5  1  1  0
  5 51  1  0
  6 47  1  0
  6  2  1  0
  6  3  1  0
  7 13  1  0
  8 13  1  0
  9 10  1  0
  9  8  1  0
 11 10  1  0
 11 22  1  0
 11 12  1  0
 13 12  1  0
 14  7  2  0
 15 17  2  0
 15 16  1  0
 16  7  1  0
 16 18  1  0
 19 20  2  0
 20 39  1  0
 20 21  1  0
 21 24  1  0
 22 19  1  0
 22 23  1  0
 23 21  2  0
 24 25  1  0
 25 26  2  0
 27 30  1  0
 27 26  1  0
 28 27  2  0
 29 28  1  0
 29 24  2  0
 30 31  1  0
 31 32  1  0
 32 33  2  0
 34 33  1  0
 34 38  1  0
 35 34  2  0
 36 31  2  0
 36 35  1  0
 37 36  1  0
 39 40  1  0
 40 43  1  0
 40 42  1  0
 41 39  2  0
 44 19  1  0
 45 44  1  0
 46 44  1  0
 47 48  1  0
 49 47  1  0
 50 47  1  0
 52 51  1  0
 52 53  1  0
 53 54  1  0
 55 53  1  0
 55 57  1  0
 57 56  1  0
 58 57  1  0
 59 61  1  0
 59 58  1  0
 60 71  2  0
 61 66  1  0
 62 70  1  0
 62 72  1  0
 63 69  1  0
 63 65  1  0
 64 70  1  0
 65 64  1  0
 66 65  2  0
 67 68  1  0
 67 61  2  0
 68 63  2  0
 69 62  1  0
 70 60  1  0
 72 74  2  0
 73 72  1  0
 75 73  1  0
 76 85  2  0
 76 81  1  0
 77 73  1  0
 77 81  1  0
 78 77  1  0
 79 80  1  0
 79 78  1  0
 80 76  1  0
 81 82  2  0
 82 83  1  0
 84 83  2  0
 85 84  1  0
 86 60  1  0
 86 91  1  0
 86 87  1  0
 87 90  1  1
 87 88  1  0
 89 87  1  0
 91 94  1  0
 92 96  1  0
 92 91  1  0
 93 92  2  0
 96 95  1  0
 98 96  1  0
 98 99  1  0
 98 97  1  0
M  ISO  4   7 100  16 100  58 101  59 101
M  END
>  <TORSDO>  (92) 
F 23

>  <SCORE>  (92) 
-11.711

>  <name>  (92) 
94

>  <ligand_id>  (92) 
94

>  <original_smiles>  (92) 
[H]c1c([H])c([H])c2c(c1[H])C([H])([H])C([H])([H])C([H])([H])C2([H])N([H])C(=O)C1([H])N(C(=O)C([H])(N([H])C(=O)C([H])(N([H])C([H])([H])[H])C([H])([H])[H])C(C([H])([H])[H])(C([H])([H])[H])C([H])([H])[H])C([H])([H])c2c([H])c(OC([H])([H])C([H])(C([H])([H])[H])C([H])([H])C([H])(F)C([H])([H])C([H])([H])C3([H])C([H])([H])C([H])(C(=O)N([H])C(=O)N4C([H])([H])C([H])([H])C([H])([H])C([H])(n5nc(-c6c([H])c([H])c(Oc7c([H])c([H])c(F)c([H])c7F)c([H])c6[H])c(C(=O)N([H])[H])c5N([H])[H])C4([H])[H])C([H])([H])C([H])([N+]([H])([H])[H])C3([H])[H])c([H])c([H])c2C1([H])[H]

>  <smiles>  (92) 
[H]c1c([H])c([H])c2c(c1[H])C([H])([H])C([H])([H])C([H])([H])C2([H])N([H])C(=O)C1([H])N(C(=O)C([H])(N([H])C(=O)C([H])(N([H])C([H])([H])[H])C([H])([H])[H])C(C([H])([H])[H])(C([H])([H])[H])C([H])([H])[H])C([H])([H])c2c([H])c(OC([H])([H])C([H])(C([H])([H])[H])C([H])([H])C([H])(F)C([H])([H])C([H])([H])C3([H])C([H])([H])C([H])(C(=O)N([H])C(=O)N4C([H])([H])C([H])([H])C([H])([H])C([H])(n5nc(-c6c([H])c([H])c(Oc7c([H])c([H])c(F)c([H])c7F)c([H])c6[H])c(C(=O)N([H])[H])c5N([H])[H])C4([H])[H])C([H])([H])C([H])([N+]([H])([H])[H])C3([H])[H])c([H])c([H])c2C1([H])[H]

$$$$
95:0:0
     RDKit          3D

102110  0  0  1  0  0  0  0  0999 V2000
  -27.6630  -21.9280   21.4130 C   0  0  0  0  0  2  0  0  0  0  0  0
  -27.2610  -23.3490   21.8660 C   0  0  0  0  0  2  0  0  0  0  0  0
  -26.9690  -24.4150   19.6200 C   0  0  0  0  0  2  0  0  0  0  0  0
  -28.6180  -21.8450   20.1680 C   0  0  0  0  0  3  0  0  0  0  0  0
  -27.7620  -23.6690   18.5150 C   0  0  0  0  0  3  0  0  0  0  0  0
  -27.9220  -22.1300   18.7800 C   0  0  0  0  0  3  0  0  0  0  0  0
  -27.2320  -24.0080   17.1070 C   0  0  0  0  0  1  0  0  0  0  0  0
  -27.7500  -24.3230   20.8740 N   0  0  1  0  0  4  0  0  0  0  0  0
  -28.5450  -23.8130   20.5250 H   0  0  0  0  0  0  0  0  0  0  0  0
  -29.5190  -20.5950   20.2610 C   0  0  0  0  0  0  0  0  0  0  0  0
  -30.4130  -20.4240   19.2770 N   0  0  0  0  0  0  0  0  0  0  0  0
  -29.5150  -19.9020   21.2770 O   0  0  0  0  0  0  0  0  0  0  0  0
  -30.3440  -21.0250   18.4640 H   0  0  0  0  0  0  0  0  0  0  0  0
  -31.6380  -19.6350   19.3910 C   0  0  0  0  0  2  0  0  0  0  0  0
  -31.3480  -18.1450   19.6090 C   0  0  0  0  0  2  0  0  0  0  0  0
  -32.6190  -17.2840   19.7200 C   0  0  0  0  0  2  0  0  0  0  0  0
  -32.4760  -16.1770   20.7850 C   0  0  0  0  0  2  0  0  0  0  0  0
  -31.5480  -14.3620   19.3540 C   0  0  0  0  0  0  0  0  0  0  0  0
  -30.9310  -12.1300   18.5220 C   0  0  0  0  0  2  0  0  0  0  0  0
  -29.8660  -12.1610   17.4160 C   0  0  0  0  0  2  0  0  0  0  0  0
  -28.4570  -12.1530   18.0340 C   0  0  0  0  0  2  0  0  0  0  0  0
  -28.2840  -13.2400   19.1240 C   0  0  0  0  0  3  0  0  0  0  0  0
  -29.4490  -13.2030   20.1380 C   0  0  0  0  0  2  0  0  0  0  0  0
  -30.7270  -13.2850   19.4060 N   0  0  0  0  0  0  0  0  0  0  0  0
  -32.3970  -14.5300   18.4750 O   0  0  0  0  0  0  0  0  0  0  0  0
  -31.4990  -15.1470   20.4360 N   0  0  0  0  0  0  0  0  0  0  0  0
  -30.7980  -14.9190   21.1260 H   0  0  0  0  0  0  0  0  0  0  0  0
  -26.1310  -14.1160   20.2340 C   0  0  0  0  0  0  0  0  0  0  0  0
  -25.0190  -13.4710   20.7110 C   0  0  0  0  0  0  0  0  0  0  0  0
  -25.2600  -12.0760   20.5180 C   0  0  0  0  0  0  0  0  0  0  0  0
  -26.9860  -13.1220   19.7880 N   0  0  0  0  0  0  0  0  0  0  0  0
  -26.4710  -11.8840   20.0100 N   0  0  0  0  0  0  0  0  0  0  0  0
  -24.3850  -10.9150   20.7310 C   0  0  0  0  0  0  0  0  0  0  0  0
  -24.7700   -9.8460   21.5690 C   0  0  0  0  0  3  0  0  0  0  0  0
  -23.9040   -8.7500   21.7740 C   0  0  0  0  0  3  0  0  0  0  0  0
  -22.6390   -8.7170   21.1410 C   0  0  0  0  0  0  0  0  0  0  0  0
  -22.2710   -9.7740   20.2910 C   0  0  0  0  0  3  0  0  0  0  0  0
  -23.1350  -10.8620   20.0840 C   0  0  0  0  0  3  0  0  0  0  0  0
  -21.7430   -7.6820   21.2600 O   0  0  0  0  0  0  0  0  0  0  0  0
  -21.5980   -6.9860   22.4320 C   0  0  0  0  0  0  0  0  0  0  0  0
  -21.2980   -7.6330   23.6500 C   0  0  0  0  0  3  0  0  0  0  0  0
  -21.0920   -6.8730   24.8190 C   0  0  0  0  0  3  0  0  0  0  0  0
  -21.1750   -5.4690   24.7710 C   0  0  0  0  0  0  0  0  0  0  0  0
  -21.4700   -4.8220   23.5580 C   0  0  0  0  0  3  0  0  0  0  0  0
  -21.6790   -5.5790   22.3910 C   0  0  0  0  0  0  0  0  0  0  0  0
  -21.9420   -4.9500   21.2200 F   0  0  0  0  0  0  0  0  0  0  0  0
  -20.9680   -4.7370   25.8910 F   0  0  0  0  0  0  0  0  0  0  0  0
  -23.7670  -14.1150   21.2290 C   0  0  0  0  0  0  0  0  0  0  0  0
  -23.0890  -13.4630   22.1700 N   0  0  0  0  0  0  0  0  0  0  0  0
  -23.4060  -15.2210   20.8370 O   0  0  0  0  0  0  0  0  0  0  0  0
  -23.3960  -12.5610   22.5040 H   0  0  0  0  0  0  0  0  0  0  0  0
  -22.2520  -13.8710   22.5600 H   0  0  0  0  0  0  0  0  0  0  0  0
  -26.4700  -15.4600   20.1210 N   0  0  0  0  0  0  0  0  0  0  0  0
  -25.8350  -16.2000   20.3900 H   0  0  0  0  0  0  0  0  0  0  0  0
  -27.3230  -15.8020   19.6940 H   0  0  0  0  0  0  0  0  0  0  0  0
  -26.6000  -21.3510   18.5050 C   0  0  0  0  0  2  0  0  0  0  0  0
  -25.5330  -19.1910   17.5850 C   0  0  0  0  0  1  0  0  0  0  0  0
  -26.7960  -19.8730   18.1260 C   0  0  0  0  0  2  0  0  0  0  0  0
  -28.4310  -25.5340   21.3640 C   0  0  0  0  0  2  0  0  0  0  0  0
  -29.9710  -25.3360   21.4070 C   0  0  0  0  0  2  0  0  0  0  0  0
  -30.8110  -26.2890   20.5280 C   0  0  0  0  0  2  0  0  0  0  0  0
  -30.5190  -27.6650   20.7450 O   0  0  0  0  0  0  0  0  0  0  0  0
  -25.4350  -31.4720   23.8670 C   0  0  0  0  0  0  0  0  0  0  0  0
  -29.2170  -28.0960   20.6480 C   0  0  0  0  0  0  0  0  0  0  0  0
  -24.7010  -30.0560   21.9800 C   0  0  0  0  0  3  0  0  0  0  0  0
  -26.5550  -29.0260   20.5760 C   0  0  0  0  0  0  0  0  0  0  0  0
  -27.0960  -30.9370   22.0910 C   0  0  0  0  0  2  0  0  0  0  0  0
  -27.5170  -29.6940   21.3470 C   0  0  0  0  0  0  0  0  0  0  0  0
  -28.8430  -29.2240   21.3990 C   0  0  0  0  0  3  0  0  0  0  0  0
  -28.2560  -27.4800   19.8160 C   0  0  0  0  0  3  0  0  0  0  0  0
  -26.9200  -27.9080   19.8140 C   0  0  0  0  0  3  0  0  0  0  0  0
  -25.1590  -29.5980   20.5740 C   0  0  0  0  0  2  0  0  0  0  0  0
  -25.7530  -30.8350   22.7070 N   0  0  0  0  0  0  0  0  0  0  0  0
  -24.2770  -31.4600   24.3090 O   0  0  0  0  0  0  0  0  0  0  0  0
  -24.2020  -28.8210   22.7620 C   0  0  0  0  0  0  0  0  0  0  0  0
  -23.1990  -28.1280   22.2040 N   0  0  0  0  0  0  0  0  0  0  0  0
  -24.7360  -28.4900   23.8230 O   0  0  0  0  0  0  0  0  0  0  0  0
  -22.8080  -28.4790   21.3410 H   0  0  0  0  0  0  0  0  0  0  0  0
  -20.8250  -25.4940   21.4840 C   0  0  0  0  0  0  0  0  0  0  0  0
  -22.5890  -26.9080   22.7390 C   0  0  0  0  0  3  0  0  0  0  0  0
  -23.5270  -25.6900   22.5750 C   0  0  0  0  0  2  0  0  0  0  0  0
  -23.2740  -24.9030   21.2860 C   0  0  0  0  0  2  0  0  0  0  0  0
  -21.8340  -24.3860   21.2490 C   0  0  0  0  0  2  0  0  0  0  0  0
  -21.1820  -26.6850   22.1690 C   0  0  0  0  0  0  0  0  0  0  0  0
  -20.2110  -27.6980   22.3290 C   0  0  0  0  0  3  0  0  0  0  0  0
  -18.9040  -27.5280   21.8350 C   0  0  0  0  0  3  0  0  0  0  0  0
  -18.5540  -26.3440   21.1650 C   0  0  0  0  0  3  0  0  0  0  0  0
  -19.5140  -25.3320   20.9900 C   0  0  0  0  0  3  0  0  0  0  0  0
  -26.5010  -32.2730   24.6780 C   0  0  0  0  0  3  0  0  0  0  0  0
  -26.8170  -31.6360   26.0870 C   0  0  1  0  0  0  0  0  0  0  0  0
  -25.5540  -31.2590   26.8990 C   0  0  0  0  0  1  0  0  0  0  0  0
  -27.6760  -30.3570   25.9300 C   0  0  0  0  0  1  0  0  0  0  0  0
  -27.6450  -32.6290   26.9350 C   0  0  0  0  0  1  0  0  0  0  0  0
  -26.0030  -33.6470   24.8210 N   0  0  0  0  0  0  0  0  0  0  0  0
  -26.3800  -34.6790   24.0550 C   0  0  0  0  0  0  0  0  0  0  0  0
  -27.2540  -34.5890   23.1890 O   0  0  0  0  0  0  0  0  0  0  0  0
  -25.2420  -33.7810   25.4710 H   0  0  0  0  0  0  0  0  0  0  0  0
  -24.5810  -36.2430   23.2360 C   0  0  0  0  0  1  0  0  0  0  0  0
  -25.6790  -36.0300   24.2900 C   0  0  0  0  0  3  0  0  0  0  0  0
  -27.5680  -37.1690   25.3730 C   0  0  0  0  0  1  0  0  0  0  0  0
  -26.6040  -37.1820   24.2750 N   0  0  0  0  0  0  0  0  0  0  0  0
  -26.0880  -38.0580   24.3120 H   0  0  0  0  0  0  0  0  0  0  0  0
  1  2  1  0
  3  8  1  0
  4 10  1  0
  4  1  1  0
  5  7  1  0
  5  6  1  0
  5  3  1  0
  6 56  1  0
  6  4  1  0
  8 59  1  0
  8  2  1  0
  8  9  1  6
 10 12  2  0
 11 14  1  0
 11 10  1  0
 13 11  1  0
 14 15  1  0
 15 16  1  0
 16 17  1  0
 18 24  1  0
 18 26  1  0
 19 24  1  0
 20 21  1  0
 20 19  1  0
 22 21  1  0
 22 31  1  0
 22 23  1  0
 24 23  1  0
 25 18  2  0
 26 17  1  0
 26 27  1  0
 28 29  2  0
 29 48  1  0
 30 29  1  0
 30 33  1  0
 31 32  1  0
 31 28  1  0
 32 30  2  0
 33 34  1  0
 34 35  2  0
 36 39  1  0
 36 35  1  0
 37 36  2  0
 38 37  1  0
 38 33  2  0
 39 40  1  0
 40 41  1  0
 41 42  2  0
 43 42  1  0
 43 47  1  0
 44 43  2  0
 45 40  2  0
 45 44  1  0
 46 45  1  0
 48 49  1  0
 49 51  1  0
 49 52  1  0
 50 48  2  0
 53 28  1  0
 53 54  1  0
 55 53  1  0
 57 58  1  0
 58 56  1  0
 59 60  1  0
 61 62  1  0
 61 60  1  0
 63 74  2  0
 64 62  1  0
 64 69  1  0
 65 73  1  0
 65 75  1  0
 66 68  1  0
 67 73  1  0
 68 69  2  0
 68 67  1  0
 70 64  2  0
 71 70  1  0
 71 66  2  0
 72 66  1  0
 72 65  1  0
 73 63  1  0
 75 77  2  0
 76 75  1  0
 78 76  1  0
 79 84  1  0
 80 76  1  0
 81 80  1  0
 82 81  1  0
 83 82  1  0
 83 79  1  0
 84 85  2  0
 84 80  1  0
 86 85  1  0
 87 86  2  0
 88 87  1  0
 88 79  2  0
 89 63  1  0
 89 94  1  0
 89 90  1  0
 90 91  1  1
 90 93  1  0
 92 90  1  0
 94 97  1  0
 95 99  1  0
 95 94  1  0
 96 95  2  0
 99 98  1  0
101 99  1  0
101102  1  0
101100  1  0
M  ISO  4  18 100  26 100  61 101  62 101
M  END
>  <TORSDO>  (93) 
F 26

>  <SCORE>  (93) 
-7.278

>  <name>  (93) 
95

>  <ligand_id>  (93) 
95

>  <original_smiles>  (93) 
[H]c1c([H])c([H])c2c(c1[H])C([H])([H])C([H])([H])C([H])([H])C2([H])N([H])C(=O)C1([H])N(C(=O)C([H])(N([H])C(=O)C([H])(N([H])C([H])([H])[H])C([H])([H])[H])C(C([H])([H])[H])(C([H])([H])[H])C([H])([H])[H])C([H])([H])c2c([H])c(OC([H])([H])C([H])([H])C([H])([H])[N+]3([H])C([H])([H])C([H])([H])C([H])(C(=O)N([H])C([H])([H])C([H])([H])C([H])([H])C([H])([H])N([H])C(=O)N4C([H])([H])C([H])([H])C([H])([H])C([H])(n5nc(-c6c([H])c([H])c(Oc7c([H])c([H])c(F)c([H])c7F)c([H])c6[H])c(C(=O)N([H])[H])c5N([H])[H])C4([H])[H])C([H])(C([H])([H])C([H])([H])C([H])([H])[H])C([H])(C([H])([H])[H])C3([H])[H])c([H])c([H])c2C1([H])[H]

>  <smiles>  (93) 
[H]c1c([H])c([H])c2c(c1[H])C([H])([H])C([H])([H])C([H])([H])C2([H])N([H])C(=O)C1([H])N(C(=O)C([H])(N([H])C(=O)C([H])(N([H])C([H])([H])[H])C([H])([H])[H])C(C([H])([H])[H])(C([H])([H])[H])C([H])([H])[H])C([H])([H])c2c([H])c(OC([H])([H])C([H])([H])C([H])([H])[N+]3([H])C([H])([H])C([H])([H])C([H])(C(=O)N([H])C([H])([H])C([H])([H])C([H])([H])C([H])([H])N([H])C(=O)N4C([H])([H])C([H])([H])C([H])([H])C([H])(n5nc(-c6c([H])c([H])c(Oc7c([H])c([H])c(F)c([H])c7F)c([H])c6[H])c(C(=O)N([H])[H])c5N([H])[H])C4([H])[H])C([H])(C([H])([H])C([H])([H])C([H])([H])[H])C([H])(C([H])([H])[H])C3([H])[H])c([H])c([H])c2C1([H])[H]

$$$$
96:0:0
     RDKit          3D

 93 93  0  0  1  0  0  0  0  0999 V2000
  -23.8520  -24.2230   18.5180 N   0  0  0  0  0  4  0  0  0  0  0  0
  -23.2290  -24.8990   18.1090 H   0  0  0  0  0  0  0  0  0  0  0  0
  -24.5170  -24.7220   19.0850 H   0  0  0  0  0  0  0  0  0  0  0  0
  -24.5860  -23.5560   17.4250 C   0  0  0  0  0  2  0  0  0  0  0  0
  -26.0880  -23.9580   17.3430 C   0  0  0  0  0  3  0  0  0  0  0  0
  -26.8460  -24.1350   18.6890 C   0  0  0  0  0  3  0  0  0  0  0  0
  -28.3310  -24.5480   18.5920 C   0  0  0  0  0  2  0  0  0  0  0  0
  -28.6680  -26.0310   18.2660 C   0  0  0  0  0  2  0  0  0  0  0  0
  -28.7520  -26.9290   19.4010 O   0  0  0  0  0  0  0  0  0  0  0  0
  -24.8690  -30.5640   24.2270 C   0  0  0  0  0  0  0  0  0  0  0  0
  -27.7650  -27.8740   19.6260 C   0  0  0  0  0  0  0  0  0  0  0  0
  -24.1040  -30.5580   21.8890 C   0  0  0  0  0  3  0  0  0  0  0  0
  -25.7400  -29.7960   20.1290 C   0  0  0  0  0  0  0  0  0  0  0  0
  -26.5880  -30.2570   22.4400 C   0  0  0  0  0  2  0  0  0  0  0  0
  -26.6930  -29.5150   21.1170 C   0  0  0  0  0  0  0  0  0  0  0  0
  -27.6990  -28.5470   20.8720 C   0  0  0  0  0  3  0  0  0  0  0  0
  -26.8000  -28.1980   18.6510 C   0  0  0  0  0  3  0  0  0  0  0  0
  -25.7780  -29.1280   18.8980 C   0  0  0  0  0  3  0  0  0  0  0  0
  -24.6750  -30.8130   20.4740 C   0  0  0  0  0  2  0  0  0  0  0  0
  -25.1970  -30.4870   22.9090 N   0  0  0  0  0  0  0  0  0  0  0  0
  -23.7140  -30.8250   24.5900 O   0  0  0  0  0  0  0  0  0  0  0  0
  -23.3270  -29.2220   21.9040 C   0  0  0  0  0  0  0  0  0  0  0  0
  -22.1720  -29.1070   21.3040 N   0  0  0  0  0  0  0  0  0  0  0  0
  -23.7820  -28.2030   22.3900 O   0  0  0  0  0  0  0  0  0  0  0  0
  -21.7770  -29.9160   20.8490 H   0  0  0  0  0  0  0  0  0  0  0  0
  -18.4330  -29.5430   22.0150 C   0  0  0  0  0  2  0  0  0  0  0  0
  -21.2180  -28.0160   21.5290 C   0  0  0  0  0  3  0  0  0  0  0  0
  -20.2800  -26.7840   20.3720 C   0  0  0  0  0  1  0  0  0  0  0  0
  -18.2080  -27.1810   20.0450 C   0  0  0  0  0  3  0  0  0  0  0  0
  -17.5120  -28.7400   20.9050 C   0  0  0  0  0  2  0  0  0  0  0  0
  -20.4240  -29.0820   22.3280 C   0  0  0  0  0  2  0  0  0  0  0  0
  -20.9880  -29.5360   23.8350 C   0  0  0  0  0  2  0  0  0  0  0  0
  -20.0790  -30.2250   24.9110 C   0  0  0  0  0  3  0  0  0  0  0  0
  -18.5960  -30.5810   24.6960 C   0  0  0  0  0  3  0  0  0  0  0  0
  -17.7630  -30.3030   23.3670 C   0  0  0  0  0  2  0  0  0  0  0  0
  -25.9340  -30.3190   25.3360 C   0  0  0  0  0  3  0  0  0  0  0  0
  -25.5250  -29.1880   26.3580 C   0  0  1  0  0  0  0  0  0  0  0  0
  -24.0860  -29.3390   26.9050 C   0  0  0  0  0  1  0  0  0  0  0  0
  -25.6400  -27.7870   25.7160 C   0  0  0  0  0  1  0  0  0  0  0  0
  -26.5070  -29.1930   27.5530 C   0  0  0  0  0  1  0  0  0  0  0  0
  -26.1320  -31.5940   26.0330 N   0  0  0  0  0  0  0  0  0  0  0  0
  -27.1100  -32.4650   25.7550 C   0  0  0  0  0  0  0  0  0  0  0  0
  -27.9970  -32.2350   24.9270 O   0  0  0  0  0  0  0  0  0  0  0  0
  -25.4130  -31.8670   26.6880 H   0  0  0  0  0  0  0  0  0  0  0  0
  -26.5170  -34.9020   25.6210 C   0  0  0  0  0  1  0  0  0  0  0  0
  -27.1100  -33.8030   26.5170 C   0  0  0  0  0  3  0  0  0  0  0  0
  -28.9790  -33.3350   28.0380 C   0  0  0  0  0  1  0  0  0  0  0  0
  -28.4520  -34.2070   26.9890 N   0  0  0  0  0  0  0  0  0  0  0  0
  -28.4390  -35.1580   27.3470 H   0  0  0  0  0  0  0  0  0  0  0  0
  -23.0330  -23.3730   19.4060 C   0  0  0  0  0  1  0  0  0  0  0  0
  -17.2750  -26.7430   21.2600 C   0  0  0  0  0  2  0  0  0  0  0  0
  -18.4670  -27.9570   18.4670 C   0  0  0  0  0  1  0  0  0  0  0  0
  -18.5830  -25.4130   21.5010 C   0  0  0  0  0  1  0  0  0  0  0  0
  -20.1430  -26.6730   18.2070 C   0  0  0  0  0 15  0  0  0  0  0  0
  -20.7990  -25.1350   19.3650 C   0  0  0  0  0 15  0  0  0  0  0  0
  -24.8470  -21.2230   19.7450 C   0  0  0  0  0 15  0  0  0  0  0  0
  -26.6820  -19.0980   19.4030 C   0  0  0  0  0 15  0  0  0  0  0  0
  -28.6030  -17.3180   19.5420 C   0  0  0  0  0  2  0  0  0  0  0  0
  -30.3350  -14.7140   19.0600 C   0  0  0  0  0  2  0  0  0  0  0  0
  -30.0810  -13.3290   18.2350 C   0  0  0  0  0  2  0  0  0  0  0  0
  -28.9680  -12.4750   18.8380 C   0  0  0  0  0  2  0  0  0  0  0  0
  -28.0690  -13.5070   19.4990 C   0  0  0  0  0  3  0  0  0  0  0  0
  -28.7150  -14.5100   20.4790 C   0  0  0  0  0  2  0  0  0  0  0  0
  -29.0840  -15.7000   19.6290 N   0  0  0  0  0  0  0  0  0  0  0  0
  -29.9160  -17.4330   19.3840 O   0  0  0  0  0  1  0  0  0  0  0  0
  -25.8760  -13.9700   20.4290 C   0  0  0  0  0  0  0  0  0  0  0  0
  -24.8840  -13.1870   20.8990 C   0  0  0  0  0  0  0  0  0  0  0  0
  -25.3550  -11.8390   20.7940 C   0  0  0  0  0  0  0  0  0  0  0  0
  -26.8620  -13.0870   20.0660 N   0  0  0  0  0  0  0  0  0  0  0  0
  -26.6020  -11.7980   20.3440 N   0  0  0  0  0  0  0  0  0  0  0  0
  -24.6530  -10.5840   21.0160 C   0  0  0  0  0  0  0  0  0  0  0  0
  -25.0300   -9.6970   22.0470 C   0  0  0  0  0  3  0  0  0  0  0  0
  -24.3080   -8.5050   22.2500 C   0  0  0  0  0  3  0  0  0  0  0  0
  -23.2020   -8.1990   21.4200 C   0  0  0  0  0  0  0  0  0  0  0  0
  -22.8530   -9.0740   20.3780 C   0  0  0  0  0  3  0  0  0  0  0  0
  -23.5750  -10.2580   20.1730 C   0  0  0  0  0  3  0  0  0  0  0  0
  -22.4530   -7.0550   21.5300 O   0  0  0  0  0  0  0  0  0  0  0  0
  -22.0680   -6.5660   22.7510 C   0  0  0  0  0  0  0  0  0  0  0  0
  -21.2710   -7.3200   23.6390 C   0  0  0  0  0  3  0  0  0  0  0  0
  -20.8450   -6.7520   24.8560 C   0  0  0  0  0  3  0  0  0  0  0  0
  -21.2020   -5.4280   25.1770 C   0  0  0  0  0  0  0  0  0  0  0  0
  -21.9900   -4.6750   24.2910 C   0  0  0  0  0  3  0  0  0  0  0  0
  -22.4220   -5.2430   23.0790 C   0  0  0  0  0  0  0  0  0  0  0  0
  -23.1650   -4.5080   22.2180 F   0  0  0  0  0  0  0  0  0  0  0  0
  -20.7820   -4.8780   26.3390 F   0  0  0  0  0  0  0  0  0  0  0  0
  -23.5370  -13.6820   21.2970 C   0  0  0  0  0  0  0  0  0  0  0  0
  -22.8860  -12.9990   22.2260 N   0  0  0  0  0  0  0  0  0  0  0  0
  -23.0820  -14.7240   20.8230 O   0  0  0  0  0  0  0  0  0  0  0  0
  -23.2770  -12.1630   22.6340 H   0  0  0  0  0  0  0  0  0  0  0  0
  -21.9800  -13.3180   22.5360 H   0  0  0  0  0  0  0  0  0  0  0  0
  -26.0130  -15.3490   20.2490 N   0  0  0  0  0  0  0  0  0  0  0  0
  -25.2070  -15.9580   20.3460 H   0  0  0  0  0  0  0  0  0  0  0  0
  -26.7370  -15.7410   19.6630 H   0  0  0  0  0  0  0  0  0  0  0  0
  1  3  1  0
  1 50  1  0
  2  1  1  0
  4  1  1  0
  5  4  1  0
  5  6  2  0
  7  6  1  0
  8  7  1  0
  8  9  1  0
  9 11  1  0
 10 21  2  0
 11 16  1  0
 12 22  1  0
 12 20  1  0
 13 19  1  0
 13 15  1  0
 14 20  1  0
 15 14  1  0
 16 15  2  0
 17 18  1  0
 17 11  2  0
 18 13  2  0
 19 12  1  0
 20 10  1  0
 22 24  2  0
 23 27  1  0
 23 22  1  0
 25 23  1  0
 26 35  1  0
 27 28  1  0
 27 31  1  0
 29 52  1  0
 29 30  1  0
 29 51  1  0
 30 26  1  0
 31 32  1  0
 32 33  1  0
 34 33  2  0
 35 34  1  0
 36 10  1  0
 36 41  1  0
 36 37  1  0
 37 38  1  1
 37 40  1  0
 39 37  1  0
 41 44  1  0
 42 41  1  0
 42 46  1  0
 43 42  2  0
 46 45  1  0
 46 48  1  0
 48 49  1  0
 48 47  1  0
 51 53  1  0
 58 64  1  0
 59 64  1  0
 60 61  1  0
 60 59  1  0
 62 61  1  0
 62 69  1  0
 62 63  1  0
 64 63  1  0
 65 58  1  0
 66 67  2  0
 67 86  1  0
 68 67  1  0
 68 71  1  0
 69 70  1  0
 69 66  1  0
 70 68  2  0
 71 72  1  0
 72 73  2  0
 74 77  1  0
 74 73  1  0
 75 74  2  0
 76 75  1  0
 76 71  2  0
 77 78  1  0
 78 83  2  0
 78 79  1  0
 79 80  2  0
 80 81  1  0
 81 85  1  0
 82 81  2  0
 83 82  1  0
 84 83  1  0
 86 87  1  0
 87 90  1  0
 87 89  1  0
 88 86  2  0
 91 92  1  0
 91 66  1  0
 93 91  1  0
M  ISO  4   8 101   9 101  57 100  58 100
M  END
>  <TORSDO>  (94) 
F 25

>  <SCORE>  (94) 
-2.413

>  <name>  (94) 
96

>  <ligand_id>  (94) 
96

>  <original_smiles>  (94) 
[H]c1c([H])c([H])c2c(c1[H])C([H])([H])C([H])([H])C([H])([H])C2([H])N([H])C(=O)C1([H])N(C(=O)C([H])(N([H])C(=O)C([H])(N([H])C([H])([H])[H])C([H])([H])[H])C(C([H])([H])[H])(C([H])([H])[H])C([H])([H])[H])C([H])([H])c2c([H])c(OC([H])([H])C([H])([H])C([H])([H])C([H])([H])C([H])([H])[N+]([H])([H])C([H])(C([H])([H])C([H])([H])C(=O)N3C([H])([H])C([H])([H])C([H])([H])C([H])(n4nc(-c5c([H])c([H])c(Oc6c([H])c([H])c(F)c([H])c6F)c([H])c5[H])c(C(=O)N([H])[H])c4N([H])[H])C3([H])[H])C3([H])C([H])([H])C([H])([H])C([H])([H])C3([H])[H])c([H])c([H])c2C1([H])[H]

>  <smiles>  (94) 
[H]c1c([H])c([H])c2c(c1[H])C([H])([H])C([H])([H])C([H])([H])C2([H])N([H])C(=O)C1([H])N(C(=O)C([H])(N([H])C(=O)C([H])(N([H])C([H])([H])[H])C([H])([H])[H])C(C([H])([H])[H])(C([H])([H])[H])C([H])([H])[H])C([H])([H])c2c([H])c(OC([H])([H])C([H])([H])C([H])([H])C([H])([H])C([H])([H])[N+]([H])([H])C([H])(C([H])([H])C([H])([H])C(=O)N3C([H])([H])C([H])([H])C([H])([H])C([H])(n4nc(-c5c([H])c([H])c(Oc6c([H])c([H])c(F)c([H])c6F)c([H])c5[H])c(C(=O)N([H])[H])c4N([H])[H])C3([H])[H])C3([H])C([H])([H])C([H])([H])C([H])([H])C3([H])[H])c([H])c([H])c2C1([H])[H]

$$$$
97:0:0
     RDKit          3D

 97104  0  0  1  0  0  0  0  0999 V2000
  -27.9150  -21.8920   16.9140 C   0  0  0  0  0  2  0  0  0  0  0  0
  -27.3990  -22.5310   18.1440 N   0  0  0  0  0  4  0  0  0  0  0  0
  -27.0840  -21.8120   18.7780 H   0  0  0  0  0  0  0  0  0  0  0  0
  -26.5850  -23.0710   17.8950 H   0  0  0  0  0  0  0  0  0  0  0  0
  -28.3510  -23.4350   18.8260 C   0  0  0  0  0  2  0  0  0  0  0  0
  -28.1020  -23.4760   20.3470 C   0  0  0  0  0  2  0  0  0  0  0  0
  -29.0640  -24.4230   21.0950 C   0  0  0  0  0  2  0  0  0  0  0  0
  -28.4670  -25.8120   21.3680 C   0  0  0  0  0  2  0  0  0  0  0  0
  -28.3650  -26.5480   20.1540 O   0  0  0  0  0  0  0  0  0  0  0  0
  -24.5700  -31.7410   23.1820 C   0  0  0  0  0  0  0  0  0  0  0  0
  -27.2380  -27.3210   20.1190 C   0  0  0  0  0  0  0  0  0  0  0  0
  -23.3870  -30.3640   21.5040 C   0  0  0  0  0  3  0  0  0  0  0  0
  -24.8580  -28.8250   20.0960 C   0  0  0  0  0  0  0  0  0  0  0  0
  -25.9200  -30.6980   21.3690 C   0  0  0  0  0  2  0  0  0  0  0  0
  -26.0030  -29.3350   20.7220 C   0  0  0  0  0  0  0  0  0  0  0  0
  -27.1980  -28.5880   20.7390 C   0  0  0  0  0  3  0  0  0  0  0  0
  -26.0830  -26.8190   19.4880 C   0  0  0  0  0  3  0  0  0  0  0  0
  -24.8850  -27.5610   19.4840 C   0  0  0  0  0  3  0  0  0  0  0  0
  -23.6200  -29.6940   20.1240 C   0  0  0  0  0  2  0  0  0  0  0  0
  -24.6430  -30.9500   22.0760 N   0  0  0  0  0  0  0  0  0  0  0  0
  -23.4800  -32.0210   23.7010 O   0  0  0  0  0  0  0  0  0  0  0  0
  -22.7070  -29.3390   22.4380 C   0  0  0  0  0  0  0  0  0  0  0  0
  -21.3760  -29.2070   22.3140 N   0  0  0  0  0  0  0  0  0  0  0  0
  -23.3720  -28.6700   23.2320 O   0  0  0  0  0  0  0  0  0  0  0  0
  -20.9020  -29.7970   21.6460 H   0  0  0  0  0  0  0  0  0  0  0  0
  -17.9590  -28.1710   22.8460 C   0  0  0  0  0  0  0  0  0  0  0  0
  -20.5310  -28.2840   23.0690 C   0  0  0  0  0  3  0  0  0  0  0  0
  -20.5460  -26.8730   22.4380 C   0  0  0  0  0  2  0  0  0  0  0  0
  -19.4080  -26.6480   21.4360 C   0  0  0  0  0  2  0  0  0  0  0  0
  -18.0490  -26.8410   22.1160 C   0  0  0  0  0  2  0  0  0  0  0  0
  -19.1260  -28.8550   23.2780 C   0  0  0  0  0  0  0  0  0  0  0  0
  -18.9870  -30.1050   23.9200 C   0  0  0  0  0  3  0  0  0  0  0  0
  -17.7150  -30.6690   24.1330 C   0  0  0  0  0  3  0  0  0  0  0  0
  -16.5620  -29.9790   23.7160 C   0  0  0  0  0  3  0  0  0  0  0  0
  -16.6860  -28.7320   23.0770 C   0  0  0  0  0  3  0  0  0  0  0  0
  -25.8470  -32.3530   23.8350 C   0  0  0  0  0  3  0  0  0  0  0  0
  -26.3500  -31.5530   25.0990 C   0  0  1  0  0  0  0  0  0  0  0  0
  -25.2490  -31.2950   26.1530 C   0  0  0  0  0  1  0  0  0  0  0  0
  -26.9310  -30.1830   24.6780 C   0  0  0  0  0  1  0  0  0  0  0  0
  -27.4930  -32.3330   25.7890 C   0  0  0  0  0  1  0  0  0  0  0  0
  -25.5370  -33.7440   24.1880 N   0  0  0  0  0  0  0  0  0  0  0  0
  -25.8800  -34.8110   23.4520 C   0  0  0  0  0  0  0  0  0  0  0  0
  -26.5620  -34.7280   22.4270 O   0  0  0  0  0  0  0  0  0  0  0  0
  -24.9230  -33.8820   24.9780 H   0  0  0  0  0  0  0  0  0  0  0  0
  -24.1470  -36.6080   23.1280 C   0  0  0  0  0  1  0  0  0  0  0  0
  -25.3870  -36.1910   23.9340 C   0  0  0  0  0  3  0  0  0  0  0  0
  -27.5160  -37.0680   24.7840 C   0  0  0  0  0  1  0  0  0  0  0  0
  -26.4180  -37.2470   23.8380 N   0  0  0  0  0  0  0  0  0  0  0  0
  -26.0080  -38.1640   24.0000 H   0  0  0  0  0  0  0  0  0  0  0  0
  -28.4250  -20.4560   17.1630 C   0  0  0  0  0  2  0  0  0  0  0  0
  -29.8920  -20.4190   17.6400 C   0  0  0  0  0  2  0  0  0  0  0  0
  -30.5050  -19.0220   17.9430 C   0  0  0  0  0  2  0  0  0  0  0  0
  -30.0080  -18.2070   19.1930 C   0  0  0  0  0  3  0  0  0  0  0  0
  -31.3180  -14.6710   19.7730 C   0  0  0  0  0  0  0  0  0  0  0  0
  -30.9390  -12.4020   18.9550 C   0  0  0  0  0  2  0  0  0  0  0  0
  -29.9450  -12.4220   17.7760 C   0  0  0  0  0  2  0  0  0  0  0  0
  -28.5020  -12.3170   18.2950 C   0  0  0  0  0  2  0  0  0  0  0  0
  -28.1890  -13.3110   19.4470 C   0  0  0  0  0  3  0  0  0  0  0  0
  -29.3100  -13.3000   20.5120 C   0  0  0  0  0  2  0  0  0  0  0  0
  -30.5940  -13.5240   19.8250 N   0  0  0  0  0  0  0  0  0  0  0  0
  -32.5280  -14.6750   19.5400 O   0  0  0  0  0  0  0  0  0  0  0  0
  -31.0070  -17.0800   19.5780 C   0  0  0  0  0  0  0  0  0  0  0  0
  -30.5780  -15.7890   19.6100 N   0  0  0  0  0  0  0  0  0  0  0  0
  -32.1510  -17.4300   19.8800 O   0  0  0  0  0  0  0  0  0  0  0  0
  -29.6110  -15.6440   19.3740 H   0  0  0  0  0  0  0  0  0  0  0  0
  -25.8720  -13.9850   20.3470 C   0  0  0  0  0  0  0  0  0  0  0  0
  -24.8030  -13.2460   20.7620 C   0  0  0  0  0  0  0  0  0  0  0  0
  -25.2130  -11.8790   20.6800 C   0  0  0  0  0  0  0  0  0  0  0  0
  -26.8700  -13.0760   20.0300 N   0  0  0  0  0  0  0  0  0  0  0  0
  -26.4820  -11.8030   20.2920 N   0  0  0  0  0  0  0  0  0  0  0  0
  -24.4520  -10.6440   20.8830 C   0  0  0  0  0  0  0  0  0  0  0  0
  -24.8230   -9.7070   21.8730 C   0  0  0  0  0  3  0  0  0  0  0  0
  -24.0700   -8.5260   22.0570 C   0  0  0  0  0  3  0  0  0  0  0  0
  -22.9310   -8.2810   21.2520 C   0  0  0  0  0  0  0  0  0  0  0  0
  -22.5830   -9.2090   20.2570 C   0  0  0  0  0  3  0  0  0  0  0  0
  -23.3320  -10.3780   20.0730 C   0  0  0  0  0  3  0  0  0  0  0  0
  -22.1570   -7.1520   21.3470 O   0  0  0  0  0  0  0  0  0  0  0  0
  -21.9390   -6.5250   22.5490 C   0  0  0  0  0  0  0  0  0  0  0  0
  -21.3460   -7.1990   23.6380 C   0  0  0  0  0  3  0  0  0  0  0  0
  -21.0760   -6.5000   24.8330 C   0  0  0  0  0  3  0  0  0  0  0  0
  -21.3960   -5.1340   24.9340 C   0  0  0  0  0  0  0  0  0  0  0  0
  -21.9780   -4.4600   23.8480 C   0  0  0  0  0  3  0  0  0  0  0  0
  -22.2490   -5.1560   22.6550 C   0  0  0  0  0  0  0  0  0  0  0  0
  -22.7980   -4.5000   21.6020 F   0  0  0  0  0  0  0  0  0  0  0  0
  -21.1290   -4.4580   26.0750 F   0  0  0  0  0  0  0  0  0  0  0  0
  -23.4380  -13.7690   21.1150 C   0  0  0  0  0  0  0  0  0  0  0  0
  -22.7360  -13.1090   22.0240 N   0  0  0  0  0  0  0  0  0  0  0  0
  -23.0110  -14.8060   20.6160 O   0  0  0  0  0  0  0  0  0  0  0  0
  -23.0980  -12.2790   22.4660 H   0  0  0  0  0  0  0  0  0  0  0  0
  -21.8220  -13.4430   22.2880 H   0  0  0  0  0  0  0  0  0  0  0  0
  -26.0630  -15.3560   20.1990 N   0  0  0  0  0  0  0  0  0  0  0  0
  -25.2950  -16.0010   20.3480 H   0  0  0  0  0  0  0  0  0  0  0  0
  -26.8800  -15.7990   19.8060 H   0  0  0  0  0  0  0  0  0  0  0  0
  -28.0330  -16.9190   18.0450 C   0  0  0  0  0  1  0  0  0  0  0  0
  -28.5090  -17.7630   19.2540 C   0  0  0  0  0  3  0  0  0  0  0  0
  -27.7630  -19.4230   21.0620 C   0  0  0  0  0  1  0  0  0  0  0  0
  -27.5640  -18.9290   19.6200 C   0  0  0  0  0  2  0  0  0  0  0  0
  1 50  1  0
  1  2  1  0
  2  3  1  0
  2  5  1  0
  4  2  1  0
  5  6  1  0
  6  7  1  0
  7  8  1  0
  9  8  1  0
 10 21  2  0
 11  9  1  0
 11 16  1  0
 12 20  1  0
 12 22  1  0
 13 19  1  0
 13 15  1  0
 14 20  1  0
 15 16  2  0
 15 14  1  0
 17 11  2  0
 18 17  1  0
 18 13  2  0
 19 12  1  0
 20 10  1  0
 22 24  2  0
 23 22  1  0
 25 23  1  0
 26 35  2  0
 26 31  1  0
 27 23  1  0
 27 31  1  0
 28 27  1  0
 29 30  1  0
 29 28  1  0
 30 26  1  0
 31 32  2  0
 32 33  1  0
 34 33  2  0
 35 34  1  0
 36 10  1  0
 36 41  1  0
 36 37  1  0
 37 40  1  1
 37 38  1  0
 39 37  1  0
 41 44  1  0
 42 46  1  0
 42 41  1  0
 43 42  2  0
 46 45  1  0
 48 46  1  0
 48 49  1  0
 48 47  1  0
 50 51  1  0
 51 52  1  0
 53 52  1  0
 53 95  1  0
 53 62  1  0
 54 60  1  0
 55 60  1  0
 56 57  1  0
 56 55  1  0
 58 57  1  0
 58 69  1  0
 58 59  1  0
 60 59  1  0
 61 54  2  0
 62 63  1  0
 62 64  2  0
 63 54  1  0
 65 63  1  0
 66 67  2  0
 67 86  1  0
 68 67  1  0
 68 71  1  0
 69 70  1  0
 69 66  1  0
 70 68  2  0
 71 72  1  0
 72 73  2  0
 74 77  1  0
 74 73  1  0
 75 74  2  0
 76 75  1  0
 76 71  2  0
 77 78  1  0
 78 83  2  0
 78 79  1  0
 79 80  2  0
 80 81  1  0
 81 85  1  0
 82 81  2  0
 83 82  1  0
 84 83  1  0
 86 87  1  0
 87 90  1  0
 87 89  1  0
 88 86  2  0
 91 66  1  0
 91 92  1  0
 93 91  1  0
 95 94  1  0
 95 97  1  0
 97 96  1  0
M  ISO  4   8 101   9 101  54 100  63 100
M  END
>  <TORSDO>  (95) 
F 27

>  <SCORE>  (95) 
-9.547

>  <name>  (95) 
97

>  <ligand_id>  (95) 
97

>  <original_smiles>  (95) 
[H]c1c([H])c([H])c2c(c1[H])C([H])([H])C([H])([H])C([H])([H])C2([H])N([H])C(=O)C1([H])N(C(=O)C([H])(N([H])C(=O)C([H])(N([H])C([H])([H])[H])C([H])([H])[H])C(C([H])([H])[H])(C([H])([H])[H])C([H])([H])[H])C([H])([H])c2c([H])c(OC([H])([H])C([H])([H])C([H])([H])C([H])([H])[N+]([H])([H])C([H])([H])C([H])([H])C([H])([H])C([H])([H])C([H])(C(=O)N([H])C(=O)N3C([H])([H])C([H])([H])C([H])([H])C([H])(n4nc(-c5c([H])c([H])c(Oc6c([H])c([H])c(F)c([H])c6F)c([H])c5[H])c(C(=O)N([H])[H])c4N([H])[H])C3([H])[H])C([H])(C([H])([H])[H])C([H])([H])C([H])([H])[H])c([H])c([H])c2C1([H])[H]

>  <smiles>  (95) 
[H]c1c([H])c([H])c2c(c1[H])C([H])([H])C([H])([H])C([H])([H])C2([H])N([H])C(=O)C1([H])N(C(=O)C([H])(N([H])C(=O)C([H])(N([H])C([H])([H])[H])C([H])([H])[H])C(C([H])([H])[H])(C([H])([H])[H])C([H])([H])[H])C([H])([H])c2c([H])c(OC([H])([H])C([H])([H])C([H])([H])C([H])([H])[N+]([H])([H])C([H])([H])C([H])([H])C([H])([H])C([H])([H])C([H])(C(=O)N([H])C(=O)N3C([H])([H])C([H])([H])C([H])([H])C([H])(n4nc(-c5c([H])c([H])c(Oc6c([H])c([H])c(F)c([H])c6F)c([H])c5[H])c(C(=O)N([H])[H])c4N([H])[H])C3([H])[H])C([H])(C([H])([H])[H])C([H])([H])C([H])([H])[H])c([H])c([H])c2C1([H])[H]

$$$$
98:0:0
     RDKit          3D

 99107  0  0  1  0  0  0  0  0999 V2000
  -29.9110  -16.9690   18.5940 C   0  0  0  0  0  2  0  0  0  0  0  0
  -28.4070  -19.4090   19.3240 C   0  0  0  0  0  2  0  0  0  0  0  0
  -29.4270  -17.9010   20.9840 C   0  0  0  0  0  2  0  0  0  0  0  0
  -30.1800  -18.2480   17.7550 C   0  0  0  0  0  3  0  0  0  0  0  0
  -29.1250  -19.3870   17.9530 C   0  0  0  0  0  3  0  0  0  0  0  0
  -30.3100  -16.9890   20.1080 C   0  0  0  0  0  3  0  0  0  0  0  0
  -29.3420  -19.2960   20.4810 N   0  0  2  0  0  4  0  0  0  0  0  0
  -30.2670  -19.5400   20.1620 H   0  0  0  0  0  0  0  0  0  0  0  0
  -31.0050  -14.6090   20.3520 C   0  0  0  0  0  0  0  0  0  0  0  0
  -30.6210  -12.5740   19.0530 C   0  0  0  0  0  2  0  0  0  0  0  0
  -29.6730  -12.9550   17.8950 C   0  0  0  0  0  2  0  0  0  0  0  0
  -28.1960  -12.8690   18.3320 C   0  0  0  0  0  2  0  0  0  0  0  0
  -27.9190  -13.5770   19.6850 C   0  0  0  0  0  3  0  0  0  0  0  0
  -28.9780  -13.1750   20.7450 C   0  0  0  0  0  2  0  0  0  0  0  0
  -30.3140  -13.4560   20.1860 N   0  0  0  0  0  0  0  0  0  0  0  0
  -32.1530  -14.8000   19.9500 O   0  0  0  0  0  0  0  0  0  0  0  0
  -30.2030  -15.6360   20.6580 N   0  0  0  0  0  0  0  0  0  0  0  0
  -29.3030  -15.3650   21.0210 H   0  0  0  0  0  0  0  0  0  0  0  0
  -25.5220  -14.2270   20.3610 C   0  0  0  0  0  0  0  0  0  0  0  0
  -24.4400  -13.4660   20.7190 C   0  0  0  0  0  0  0  0  0  0  0  0
  -24.8900  -12.1100   20.7030 C   0  0  0  0  0  0  0  0  0  0  0  0
  -26.5590  -13.3290   20.1520 N   0  0  0  0  0  0  0  0  0  0  0  0
  -26.1820  -12.0540   20.4110 N   0  0  0  0  0  0  0  0  0  0  0  0
  -24.1530  -10.8550   20.8980 C   0  0  0  0  0  0  0  0  0  0  0  0
  -24.5640   -9.9010   21.8540 C   0  0  0  0  0  3  0  0  0  0  0  0
  -23.8280   -8.7100   22.0360 C   0  0  0  0  0  3  0  0  0  0  0  0
  -22.6700   -8.4650   21.2610 C   0  0  0  0  0  0  0  0  0  0  0  0
  -22.2810   -9.4080   20.2930 C   0  0  0  0  0  3  0  0  0  0  0  0
  -23.0170  -10.5890   20.1080 C   0  0  0  0  0  3  0  0  0  0  0  0
  -21.9100   -7.3230   21.3510 O   0  0  0  0  0  0  0  0  0  0  0  0
  -21.8320   -6.6010   22.5120 C   0  0  0  0  0  0  0  0  0  0  0  0
  -21.3900   -7.1810   23.7230 C   0  0  0  0  0  3  0  0  0  0  0  0
  -21.2580   -6.3840   24.8770 C   0  0  0  0  0  3  0  0  0  0  0  0
  -21.5620   -5.0110   24.8220 C   0  0  0  0  0  0  0  0  0  0  0  0
  -21.9970   -4.4310   23.6180 C   0  0  0  0  0  3  0  0  0  0  0  0
  -22.1280   -5.2250   22.4660 C   0  0  0  0  0  0  0  0  0  0  0  0
  -22.5280   -4.6580   21.3020 F   0  0  0  0  0  0  0  0  0  0  0  0
  -21.4280   -4.2430   25.9300 F   0  0  0  0  0  0  0  0  0  0  0  0
  -23.0450  -13.9540   20.9750 C   0  0  0  0  0  0  0  0  0  0  0  0
  -22.3110  -13.2750   21.8520 N   0  0  0  0  0  0  0  0  0  0  0  0
  -22.6130  -14.9690   20.4320 O   0  0  0  0  0  0  0  0  0  0  0  0
  -22.6740  -12.4550   22.3150 H   0  0  0  0  0  0  0  0  0  0  0  0
  -21.3720  -13.5770   22.0660 H   0  0  0  0  0  0  0  0  0  0  0  0
  -25.7120  -15.5930   20.1900 N   0  0  0  0  0  0  0  0  0  0  0  0
  -24.9680  -16.2640   20.3360 H   0  0  0  0  0  0  0  0  0  0  0  0
  -26.5970  -16.0220   19.9670 H   0  0  0  0  0  0  0  0  0  0  0  0
  -31.6420  -18.7050   17.8190 C   0  0  0  0  0  3  0  0  0  0  0  0
  -32.0740  -19.7870   17.3300 N   0  0  0  0  0  0  0  0  0  0  0  0
  -31.3430  -20.3260   16.8790 H   0  0  0  0  0  0  0  0  0  0  0  0
  -27.1780  -18.2060   16.6560 C   0  0  0  0  0  1  0  0  0  0  0  0
  -28.0970  -19.4350   16.7910 C   0  0  0  0  0  2  0  0  0  0  0  0
  -29.0480  -20.2840   21.5540 C   0  0  0  0  0  2  0  0  0  0  0  0
  -29.4930  -21.6990   21.1370 C   0  0  0  0  0  2  0  0  0  0  0  0
  -29.0060  -22.8060   22.0860 C   0  0  0  0  0  2  0  0  0  0  0  0
  -29.4410  -24.1930   21.5790 C   0  0  0  0  0  2  0  0  0  0  0  0
  -29.2190  -25.3570   23.8540 C   0  0  0  0  0  1  0  0  0  0  0  0
  -28.8800  -25.4040   22.3560 C   0  0  0  0  0  3  0  0  0  0  0  0
  -29.3910  -26.7190   21.7270 C   0  0  0  0  0  2  0  0  0  0  0  0
  -28.7540  -26.9300   20.4710 O   0  0  0  0  0  0  0  0  0  0  0  0
  -24.5620  -32.0020   23.2840 C   0  0  0  0  0  0  0  0  0  0  0  0
  -27.5610  -27.6120   20.4870 C   0  0  0  0  0  0  0  0  0  0  0  0
  -23.5050  -30.4980   21.6270 C   0  0  0  0  0  3  0  0  0  0  0  0
  -25.0990  -28.9830   20.3360 C   0  0  0  0  0  0  0  0  0  0  0  0
  -26.0160  -30.9660   21.5510 C   0  0  0  0  0  2  0  0  0  0  0  0
  -26.1940  -29.5800   20.9740 C   0  0  0  0  0  0  0  0  0  0  0  0
  -27.4250  -28.8950   21.0630 C   0  0  0  0  0  3  0  0  0  0  0  0
  -26.4570  -27.0250   19.8420 C   0  0  0  0  0  3  0  0  0  0  0  0
  -25.2210  -27.6990   19.7760 C   0  0  0  0  0  3  0  0  0  0  0  0
  -23.8170  -29.7800   20.2860 C   0  0  0  0  0  2  0  0  0  0  0  0
  -24.7090  -31.1730   22.2120 N   0  0  0  0  0  0  0  0  0  0  0  0
  -23.4440  -32.2430   23.7580 O   0  0  0  0  0  0  0  0  0  0  0  0
  -22.8470  -29.4800   22.5850 C   0  0  0  0  0  0  0  0  0  0  0  0
  -21.5270  -29.2910   22.4360 N   0  0  0  0  0  0  0  0  0  0  0  0
  -23.5230  -28.8640   23.4120 O   0  0  0  0  0  0  0  0  0  0  0  0
  -21.0490  -29.8410   21.7380 H   0  0  0  0  0  0  0  0  0  0  0  0
  -18.1370  -28.1490   22.9380 C   0  0  0  0  0  0  0  0  0  0  0  0
  -20.7010  -28.3530   23.1950 C   0  0  0  0  0  3  0  0  0  0  0  0
  -20.7770  -26.9340   22.5890 C   0  0  0  0  0  2  0  0  0  0  0  0
  -19.6610  -26.6480   21.5800 C   0  0  0  0  0  2  0  0  0  0  0  0
  -18.2830  -26.8090   22.2330 C   0  0  0  0  0  2  0  0  0  0  0  0
  -19.2720  -28.8810   23.3740 C   0  0  0  0  0  0  0  0  0  0  0  0
  -19.0820  -30.1390   23.9880 C   0  0  0  0  0  3  0  0  0  0  0  0
  -17.7890  -30.6640   24.1690 C   0  0  0  0  0  3  0  0  0  0  0  0
  -16.6670  -29.9270   23.7570 C   0  0  0  0  0  3  0  0  0  0  0  0
  -16.8430  -28.6720   23.1470 C   0  0  0  0  0  3  0  0  0  0  0  0
  -25.7880  -32.7020   23.9510 C   0  0  0  0  0  3  0  0  0  0  0  0
  -26.2870  -31.9760   25.2590 C   0  0  1  0  0  0  0  0  0  0  0  0
  -25.1580  -31.6900   26.2770 C   0  0  0  0  0  1  0  0  0  0  0  0
  -26.9630  -30.6290   24.9120 C   0  0  0  0  0  1  0  0  0  0  0  0
  -27.3650  -32.8370   25.9600 C   0  0  0  0  0  1  0  0  0  0  0  0
  -25.3990  -34.0890   24.2410 N   0  0  0  0  0  0  0  0  0  0  0  0
  -25.7120  -35.1420   23.4740 C   0  0  0  0  0  0  0  0  0  0  0  0
  -26.4320  -35.0530   22.4740 O   0  0  0  0  0  0  0  0  0  0  0  0
  -24.7650  -34.2270   25.0140 H   0  0  0  0  0  0  0  0  0  0  0  0
  -23.9080  -36.8330   23.0230 C   0  0  0  0  0  1  0  0  0  0  0  0
  -25.1410  -36.5120   23.8820 C   0  0  0  0  0  3  0  0  0  0  0  0
  -27.1970  -37.5230   24.7620 C   0  0  0  0  0  1  0  0  0  0  0  0
  -26.1220  -37.6150   23.7780 N   0  0  0  0  0  0  0  0  0  0  0  0
  -25.6660  -38.5160   23.8940 H   0  0  0  0  0  0  0  0  0  0  0  0
  1  6  1  0
  2  7  1  0
  4 47  1  0
  4  5  1  0
  4  1  1  0
  5 51  1  0
  5  2  1  0
  6 17  1  0
  6  3  1  0
  7  3  1  0
  7 52  1  0
  7  8  1  6
  9 17  1  0
 10 15  1  0
 11 12  1  0
 11 10  1  0
 13 12  1  0
 13 22  1  0
 13 14  1  0
 15  9  1  0
 15 14  1  0
 16  9  2  0
 17 18  1  0
 19 20  2  0
 20 39  1  0
 21 20  1  0
 21 24  1  0
 22 19  1  0
 22 23  1  0
 23 21  2  0
 24 25  1  0
 25 26  2  0
 27 30  1  0
 27 26  1  0
 28 27  2  0
 29 28  1  0
 29 24  2  0
 30 31  1  0
 31 32  1  0
 32 33  2  0
 34 33  1  0
 34 38  1  0
 35 34  2  0
 36 31  2  0
 36 35  1  0
 37 36  1  0
 39 40  1  0
 40 43  1  0
 40 42  1  0
 41 39  2  0
 44 45  1  0
 44 19  1  0
 46 44  1  0
 48 47  2  0
 49 48  1  0
 50 51  1  0
 53 52  1  0
 53 54  1  0
 55 54  1  0
 55 57  1  0
 57 56  1  0
 58 57  1  0
 59 61  1  0
 59 58  1  0
 60 71  2  0
 61 66  1  0
 62 70  1  0
 62 72  1  0
 63 65  1  0
 64 70  1  0
 65 66  2  0
 65 64  1  0
 67 61  2  0
 68 67  1  0
 68 63  2  0
 69 63  1  0
 69 62  1  0
 70 60  1  0
 72 74  2  0
 73 72  1  0
 75 73  1  0
 76 85  2  0
 76 81  1  0
 77 73  1  0
 77 81  1  0
 78 77  1  0
 79 80  1  0
 79 78  1  0
 80 76  1  0
 81 82  2  0
 82 83  1  0
 84 83  2  0
 85 84  1  0
 86 60  1  0
 86 91  1  0
 86 87  1  0
 87 90  1  1
 87 88  1  0
 89 87  1  0
 91 94  1  0
 92 96  1  0
 92 91  1  0
 93 92  2  0
 96 95  1  0
 98 96  1  0
 98 99  1  0
 98 97  1  0
M  ISO  4   9 100  17 100  58 101  59 101
M  END
>  <TORSDO>  (96) 
F 24

>  <SCORE>  (96) 
-11.045

>  <name>  (96) 
98

>  <ligand_id>  (96) 
98

>  <original_smiles>  (96) 
[H]N=C([H])C1([H])C([H])([H])C([H])(N([H])C(=O)N2C([H])([H])C([H])([H])C([H])([H])C([H])(n3nc(-c4c([H])c([H])c(Oc5c([H])c([H])c(F)c([H])c5F)c([H])c4[H])c(C(=O)N([H])[H])c3N([H])[H])C2([H])[H])C([H])([H])[N+]([H])(C([H])([H])C([H])([H])C([H])([H])C([H])([H])C([H])(C([H])([H])[H])C([H])([H])Oc2c([H])c([H])c3c(c2[H])C([H])([H])N(C(=O)C([H])(N([H])C(=O)C([H])(N([H])C([H])([H])[H])C([H])([H])[H])C(C([H])([H])[H])(C([H])([H])[H])C([H])([H])[H])C([H])(C(=O)N([H])C2([H])c4c([H])c([H])c([H])c([H])c4C([H])([H])C([H])([H])C2([H])[H])C3([H])[H])C([H])([H])C1([H])C([H])([H])C([H])([H])[H]

>  <smiles>  (96) 
[H]N=C([H])C1([H])C([H])([H])C([H])(N([H])C(=O)N2C([H])([H])C([H])([H])C([H])([H])C([H])(n3nc(-c4c([H])c([H])c(Oc5c([H])c([H])c(F)c([H])c5F)c([H])c4[H])c(C(=O)N([H])[H])c3N([H])[H])C2([H])[H])C([H])([H])[N+]([H])(C([H])([H])C([H])([H])C([H])([H])C([H])([H])C([H])(C([H])([H])[H])C([H])([H])Oc2c([H])c([H])c3c(c2[H])C([H])([H])N(C(=O)C([H])(N([H])C(=O)C([H])(N([H])C([H])([H])[H])C([H])([H])[H])C(C([H])([H])[H])(C([H])([H])[H])C([H])([H])[H])C([H])(C(=O)N([H])C2([H])c4c([H])c([H])c([H])c([H])c4C([H])([H])C([H])([H])C2([H])[H])C3([H])[H])C([H])([H])C1([H])C([H])([H])C([H])([H])[H]

$$$$
