0:0:0
     RDKit          3D

 85 92  0  0  1  0  0  0  0  0999 V2000
  -28.7620  -22.7880   20.5970 C   0  0  0  0  0  2  0  0  0  0  0  0
  -28.9600  -21.1980   19.9150 C   0  0  0  0  0  0  0  0  0  0  0  0
  -28.9380  -21.1750   18.6830 O   0  0  0  0  0  0  0  0  0  0  0  0
  -29.1860  -19.6300   20.6430 C   0  0  0  0  0  2  0  0  0  0  0  0
  -29.8830  -18.1020   20.0150 C   0  0  0  0  0  2  0  0  0  0  0  0
  -30.4300  -15.2340   20.2390 C   0  0  0  0  0  0  0  0  0  0  0  0
  -30.3650  -12.8030   19.3570 C   0  0  0  0  0  2  0  0  0  0  0  0
  -29.4320  -12.6430   18.1300 C   0  0  0  0  0  2  0  0  0  0  0  0
  -27.9840  -12.3900   18.5790 C   0  0  0  0  0  2  0  0  0  0  0  0
  -27.5570  -13.3410   19.7250 C   0  0  0  0  0  3  0  0  0  0  0  0
  -28.6160  -13.4540   20.8440 C   0  0  0  0  0  2  0  0  0  0  0  0
  -29.8530  -13.9360   20.2110 N   0  0  0  0  0  0  0  0  0  0  0  0
  -31.6310  -15.2420   19.9380 O   0  0  0  0  0  0  0  0  0  0  0  0
  -29.6780  -16.4950   20.3960 N   0  0  0  0  0  0  0  0  0  0  0  0
  -28.7280  -16.2970   20.6790 H   0  0  0  0  0  0  0  0  0  0  0  0
  -25.1900  -13.9060   20.4890 C   0  0  0  0  0  0  0  0  0  0  0  0
  -24.1310  -13.1300   20.8690 C   0  0  0  0  0  0  0  0  0  0  0  0
  -24.5970  -11.7790   20.8420 C   0  0  0  0  0  0  0  0  0  0  0  0
  -26.2310  -13.0290   20.2420 N   0  0  0  0  0  0  0  0  0  0  0  0
  -25.8860  -11.7440   20.5230 N   0  0  0  0  0  0  0  0  0  0  0  0
  -23.8710  -10.5180   21.0420 C   0  0  0  0  0  0  0  0  0  0  0  0
  -24.3180   -9.5450   21.9610 C   0  0  0  0  0  3  0  0  0  0  0  0
  -23.5890   -8.3500   22.1510 C   0  0  0  0  0  3  0  0  0  0  0  0
  -22.3990   -8.1210   21.4200 C   0  0  0  0  0  0  0  0  0  0  0  0
  -21.9710   -9.0830   20.4880 C   0  0  0  0  0  3  0  0  0  0  0  0
  -22.7000  -10.2680   20.2970 C   0  0  0  0  0  3  0  0  0  0  0  0
  -21.6410   -6.9800   21.5200 O   0  0  0  0  0  0  0  0  0  0  0  0
  -21.6270   -6.2220   22.6640 C   0  0  0  0  0  0  0  0  0  0  0  0
  -21.2630   -6.7670   23.9150 C   0  0  0  0  0  3  0  0  0  0  0  0
  -21.1950   -5.9360   25.0510 C   0  0  0  0  0  3  0  0  0  0  0  0
  -21.4810   -4.5630   24.9390 C   0  0  0  0  0  0  0  0  0  0  0  0
  -21.8390   -4.0180   23.6930 C   0  0  0  0  0  3  0  0  0  0  0  0
  -21.9080   -4.8450   22.5580 C   0  0  0  0  0  0  0  0  0  0  0  0
  -22.2320   -4.3100   21.3570 F   0  0  0  0  0  0  0  0  0  0  0  0
  -21.4100   -3.7630   26.0290 F   0  0  0  0  0  0  0  0  0  0  0  0
  -22.7340  -13.6080   21.1430 C   0  0  0  0  0  0  0  0  0  0  0  0
  -22.0110  -12.9200   22.0180 N   0  0  0  0  0  0  0  0  0  0  0  0
  -22.2950  -14.6290   20.6140 O   0  0  0  0  0  0  0  0  0  0  0  0
  -22.3810  -12.0950   22.4680 H   0  0  0  0  0  0  0  0  0  0  0  0
  -21.0740  -13.2230   22.2450 H   0  0  0  0  0  0  0  0  0  0  0  0
  -25.3480  -15.2750   20.3020 N   0  0  0  0  0  0  0  0  0  0  0  0
  -24.5760  -15.9250   20.4090 H   0  0  0  0  0  0  0  0  0  0  0  0
  -26.1800  -15.7100   19.9260 H   0  0  0  0  0  0  0  0  0  0  0  0
  -28.0590  -24.3070   19.9580 C   0  0  0  0  0  2  0  0  0  0  0  0
  -28.1940  -25.9030   20.3170 O   0  0  0  0  0  0  0  0  0  0  0  0
  -24.6280  -31.8490   23.2070 C   0  0  0  0  0  0  0  0  0  0  0  0
  -27.1760  -26.9790   20.2100 C   0  0  0  0  0  0  0  0  0  0  0  0
  -23.4260  -30.4410   21.5840 C   0  0  0  0  0  3  0  0  0  0  0  0
  -24.8690  -28.8330   20.1600 C   0  0  0  0  0  0  0  0  0  0  0  0
  -25.9880  -30.6620   21.4210 C   0  0  0  0  0  2  0  0  0  0  0  0
  -26.0560  -29.2510   20.7740 C   0  0  0  0  0  0  0  0  0  0  0  0
  -27.2020  -28.3420   20.7780 C   0  0  0  0  0  3  0  0  0  0  0  0
  -25.9620  -26.7090   19.5370 C   0  0  0  0  0  3  0  0  0  0  0  0
  -24.8450  -27.5830   19.5220 C   0  0  0  0  0  3  0  0  0  0  0  0
  -23.6460  -29.7490   20.2100 C   0  0  0  0  0  2  0  0  0  0  0  0
  -24.7030  -31.0120   22.1230 N   0  0  0  0  0  0  0  0  0  0  0  0
  -23.5420  -32.1410   23.7330 O   0  0  0  0  0  0  0  0  0  0  0  0
  -22.7400  -29.4500   22.5600 C   0  0  0  0  0  0  0  0  0  0  0  0
  -21.4090  -29.2850   22.4450 N   0  0  0  0  0  0  0  0  0  0  0  0
  -23.4110  -28.8310   23.3880 O   0  0  0  0  0  0  0  0  0  0  0  0
  -20.9200  -29.8370   21.7530 H   0  0  0  0  0  0  0  0  0  0  0  0
  -18.0320  -28.0720   22.9730 C   0  0  0  0  0  0  0  0  0  0  0  0
  -20.5910  -28.3540   23.2280 C   0  0  0  0  0  3  0  0  0  0  0  0
  -20.6980  -26.9150   22.6700 C   0  0  0  0  0  2  0  0  0  0  0  0
  -19.5950  -26.5760   21.6620 C   0  0  0  0  0  2  0  0  0  0  0  0
  -18.2140  -26.7180   22.3080 C   0  0  0  0  0  2  0  0  0  0  0  0
  -19.1470  -28.8470   23.3910 C   0  0  0  0  0  0  0  0  0  0  0  0
  -18.9190  -30.1110   23.9770 C   0  0  0  0  0  3  0  0  0  0  0  0
  -17.6110  -30.6020   24.1470 C   0  0  0  0  0  3  0  0  0  0  0  0
  -16.5120  -29.8250   23.7420 C   0  0  0  0  0  3  0  0  0  0  0  0
  -16.7220  -28.5630   23.1620 C   0  0  0  0  0  3  0  0  0  0  0  0
  -25.9030  -32.4970   23.8270 C   0  0  0  0  0  3  0  0  0  0  0  0
  -26.4240  -31.7340   25.1090 C   0  0  1  0  0  0  0  0  0  0  0  0
  -25.3340  -31.5040   26.1830 C   0  0  0  0  0  1  0  0  0  0  0  0
  -27.0060  -30.3530   24.7320 C   0  0  0  0  0  1  0  0  0  0  0  0
  -27.5760  -32.5330   25.7610 C   0  0  0  0  0  1  0  0  0  0  0  0
  -25.5820  -33.8940   24.1660 N   0  0  0  0  0  0  0  0  0  0  0  0
  -25.9000  -34.9590   23.4150 C   0  0  0  0  0  0  0  0  0  0  0  0
  -26.5550  -34.8670   22.3750 O   0  0  0  0  0  0  0  0  0  0  0  0
  -24.9970  -34.0390   24.9740 H   0  0  0  0  0  0  0  0  0  0  0  0
  -24.1520  -36.7470   23.1150 C   0  0  0  0  0  1  0  0  0  0  0  0
  -25.4150  -36.3430   23.8930 C   0  0  0  0  0  3  0  0  0  0  0  0
  -27.5640  -37.2390   24.6770 C   0  0  0  0  0  1  0  0  0  0  0  0
  -26.4380  -37.4050   23.7610 N   0  0  0  0  0  0  0  0  0  0  0  0
  -26.0290  -38.3210   23.9230 H   0  0  0  0  0  0  0  0  0  0  0  0
  2  1  1  0
  2  4  1  0
  3  2  2  0
  5 14  1  0
  5  4  1  0
  6 14  1  0
  7 12  1  0
  8  9  1  0
  8  7  1  0
 10  9  1  0
 10 19  1  0
 10 11  1  0
 12  6  1  0
 12 11  1  0
 13  6  2  0
 14 15  1  0
 16 17  2  0
 17 36  1  0
 18 17  1  0
 18 21  1  0
 19 16  1  0
 19 20  1  0
 20 18  2  0
 21 22  1  0
 22 23  2  0
 24 27  1  0
 24 23  1  0
 25 24  2  0
 26 25  1  0
 26 21  2  0
 27 28  1  0
 28 29  1  0
 29 30  2  0
 31 30  1  0
 31 35  1  0
 32 31  2  0
 33 28  2  0
 33 32  1  0
 34 33  1  0
 36 37  1  0
 37 40  1  0
 37 39  1  0
 38 36  2  0
 41 42  1  0
 41 16  1  0
 43 41  1  0
 44 45  1  0
 44  1  1  0
 46 57  2  0
 47 45  1  0
 47 52  1  0
 48 56  1  0
 48 58  1  0
 49 55  1  0
 49 51  1  0
 50 56  1  0
 51 52  2  0
 51 50  1  0
 53 47  2  0
 54 53  1  0
 54 49  2  0
 55 48  1  0
 56 46  1  0
 58 60  2  0
 59 58  1  0
 61 59  1  0
 62 71  2  0
 62 67  1  0
 63 59  1  0
 63 67  1  0
 64 63  1  0
 65 66  1  0
 65 64  1  0
 66 62  1  0
 67 68  2  0
 68 69  1  0
 70 69  2  0
 71 70  1  0
 72 46  1  0
 72 77  1  0
 72 73  1  0
 73 76  1  1
 73 74  1  0
 75 73  1  0
 77 80  1  0
 78 82  1  0
 78 77  1  0
 79 78  2  0
 82 81  1  0
 84 82  1  0
 84 85  1  0
 84 83  1  0
M  ISO  4   6 100  14 100  44 101  45 101
M  END
>  <TORSDO>  (1) 
F 20

>  <SCORE>  (1) 
-15.550

>  <name>  (1) 
0

>  <ligand_id>  (1) 
0

>  <original_smiles>  (1) 
[H]c1c([H])c([H])c2c(c1[H])C([H])([H])C([H])([H])C([H])([H])C2([H])N([H])C(=O)C1([H])N(C(=O)C([H])(N([H])C(=O)C([H])(N([H])C([H])([H])[H])C([H])([H])[H])C(C([H])([H])[H])(C([H])([H])[H])C([H])([H])[H])C([H])([H])c2c([H])c(OC([H])([H])C([H])([H])C(=O)C([H])([H])C([H])([H])N([H])C(=O)N3C([H])([H])C([H])([H])C([H])([H])C([H])(n4nc(-c5c([H])c([H])c(Oc6c([H])c([H])c(F)c([H])c6F)c([H])c5[H])c(C(=O)N([H])[H])c4N([H])[H])C3([H])[H])c([H])c([H])c2C1([H])[H]

>  <smiles>  (1) 
[H]c1c([H])c([H])c2c(c1[H])C([H])([H])C([H])([H])C([H])([H])C2([H])N([H])C(=O)C1([H])N(C(=O)C([H])(N([H])C(=O)C([H])(N([H])C([H])([H])[H])C([H])([H])[H])C(C([H])([H])[H])(C([H])([H])[H])C([H])([H])[H])C([H])([H])c2c([H])c(OC([H])([H])C([H])([H])C(=O)C([H])([H])C([H])([H])N([H])C(=O)N3C([H])([H])C([H])([H])C([H])([H])C([H])(n4nc(-c5c([H])c([H])c(Oc6c([H])c([H])c(F)c([H])c6F)c([H])c5[H])c(C(=O)N([H])[H])c4N([H])[H])C3([H])[H])c([H])c([H])c2C1([H])[H]

$$$$
1:0:0
     RDKit          3D

 94102  0  0  1  0  0  0  0  0999 V2000
  -29.7570  -21.8480   21.4890 C   0  0  0  0  0  2  0  0  0  0  0  0
  -28.2610  -23.1490   19.3350 C   0  0  0  0  0  2  0  0  0  0  0  0
  -29.0320  -23.2050   21.7460 C   0  0  0  0  0  3  0  0  0  0  0  0
  -29.0930  -21.0150   20.3690 C   0  0  0  0  0  3  0  0  0  0  0  0
  -28.8480  -24.0680   20.4460 C   0  0  0  0  0  3  0  0  0  0  0  0
  -29.0100  -21.8700   19.1560 N   0  0  0  0  0  4  0  0  0  0  0  0
  -29.9480  -22.0530   18.8370 H   0  0  0  0  0  0  0  0  0  0  0  0
  -28.5680  -21.3280   18.4290 H   0  0  0  0  0  0  0  0  0  0  0  0
  -29.7650  -23.9500   22.8740 C   0  0  0  0  0  0  0  0  0  0  0  0
  -29.7710  -23.3110   24.2550 C   0  0  0  0  0  1  0  0  0  0  0  0
  -30.3540  -25.0150   22.6730 O   0  0  0  0  0  0  0  0  0  0  0  0
  -29.9040  -19.7180   20.0100 C   0  0  0  0  0  0  0  0  0  0  0  0
  -30.7100  -19.7070   19.0740 O   0  0  0  0  0  0  0  0  0  0  0  0
  -29.7050  -18.4210   20.8500 C   0  0  0  0  0  3  0  0  0  0  0  0
  -30.5280  -17.1620   20.3880 C   0  0  0  0  0  3  0  0  0  0  0  0
  -30.1850  -15.7940   21.0860 C   0  0  0  0  0  2  0  0  0  0  0  0
  -30.9110  -14.5400   20.4950 C   0  0  0  0  0  0  0  0  0  0  0  0
  -30.6570  -12.3520   19.3590 C   0  0  0  0  0  2  0  0  0  0  0  0
  -29.7140  -12.5350   18.1520 C   0  0  0  0  0  2  0  0  0  0  0  0
  -28.2390  -12.3780   18.5790 C   0  0  0  0  0  2  0  0  0  0  0  0
  -27.8920  -13.2170   19.8380 C   0  0  0  0  0  3  0  0  0  0  0  0
  -28.9510  -13.0230   20.9470 C   0  0  0  0  0  2  0  0  0  0  0  0
  -30.2670  -13.3410   20.3790 N   0  0  0  0  0  0  0  0  0  0  0  0
  -32.0440  -14.7020   20.0320 O   0  0  0  0  0  0  0  0  0  0  0  0
  -25.4880  -13.8050   20.5400 C   0  0  0  0  0  0  0  0  0  0  0  0
  -24.4260  -13.0270   20.9110 C   0  0  0  0  0  0  0  0  0  0  0  0
  -24.8990  -11.6780   20.8930 C   0  0  0  0  0  0  0  0  0  0  0  0
  -26.5420  -12.9320   20.3180 N   0  0  0  0  0  0  0  0  0  0  0  0
  -26.1910  -11.6490   20.5890 N   0  0  0  0  0  0  0  0  0  0  0  0
  -24.1840  -10.4110   21.0910 C   0  0  0  0  0  0  0  0  0  0  0  0
  -24.5920   -9.4770   22.0700 C   0  0  0  0  0  3  0  0  0  0  0  0
  -23.8760   -8.2750   22.2530 C   0  0  0  0  0  3  0  0  0  0  0  0
  -22.7380   -7.9970   21.4580 C   0  0  0  0  0  0  0  0  0  0  0  0
  -22.3510   -8.9190   20.4690 C   0  0  0  0  0  3  0  0  0  0  0  0
  -23.0680  -10.1130   20.2840 C   0  0  0  0  0  3  0  0  0  0  0  0
  -21.9970   -6.8440   21.5470 O   0  0  0  0  0  0  0  0  0  0  0  0
  -21.8930   -6.1460   22.7240 C   0  0  0  0  0  0  0  0  0  0  0  0
  -21.3090   -6.7120   23.8780 C   0  0  0  0  0  3  0  0  0  0  0  0
  -21.1590   -5.9360   25.0450 C   0  0  0  0  0  3  0  0  0  0  0  0
  -21.5830   -4.5940   25.0580 C   0  0  0  0  0  0  0  0  0  0  0  0
  -22.1600   -4.0270   23.9080 C   0  0  0  0  0  3  0  0  0  0  0  0
  -22.3120   -4.8000   22.7440 C   0  0  0  0  0  0  0  0  0  0  0  0
  -22.8500   -4.2420   21.6320 F   0  0  0  0  0  0  0  0  0  0  0  0
  -21.4320   -3.8460   26.1750 F   0  0  0  0  0  0  0  0  0  0  0  0
  -23.0230  -13.4930   21.1770 C   0  0  0  0  0  0  0  0  0  0  0  0
  -22.2970  -12.7910   22.0390 N   0  0  0  0  0  0  0  0  0  0  0  0
  -22.5800  -14.5150   20.6550 O   0  0  0  0  0  0  0  0  0  0  0  0
  -22.6680  -11.9630   22.4820 H   0  0  0  0  0  0  0  0  0  0  0  0
  -21.3560  -13.0860   22.2600 H   0  0  0  0  0  0  0  0  0  0  0  0
  -25.6410  -15.1770   20.3520 N   0  0  0  0  0  0  0  0  0  0  0  0
  -24.8690  -15.8260   20.4530 H   0  0  0  0  0  0  0  0  0  0  0  0
  -26.4920  -15.6190   20.0290 H   0  0  0  0  0  0  0  0  0  0  0  0
  -27.9500  -25.3400   20.7050 C   0  0  0  0  0  2  0  0  0  0  0  0
  -28.0660  -26.4780   19.8110 O   0  0  0  0  0  0  0  0  0  0  0  0
  -24.4890  -31.6700   23.1990 C   0  0  0  0  0  0  0  0  0  0  0  0
  -26.9560  -27.3040   19.8500 C   0  0  0  0  0  0  0  0  0  0  0  0
  -23.2040  -30.3390   21.5590 C   0  0  0  0  0  3  0  0  0  0  0  0
  -24.5850  -28.8500   20.0090 C   0  0  0  0  0  0  0  0  0  0  0  0
  -25.7250  -30.6840   21.2680 C   0  0  0  0  0  2  0  0  0  0  0  0
  -25.7740  -29.3360   20.5690 C   0  0  0  0  0  0  0  0  0  0  0  0
  -26.9670  -28.5720   20.4850 C   0  0  0  0  0  3  0  0  0  0  0  0
  -25.7530  -26.8480   19.2710 C   0  0  0  0  0  3  0  0  0  0  0  0
  -24.5710  -27.6080   19.3540 C   0  0  0  0  0  3  0  0  0  0  0  0
  -23.3500  -29.7140   20.1460 C   0  0  0  0  0  2  0  0  0  0  0  0
  -24.4940  -30.9110   22.0660 N   0  0  0  0  0  0  0  0  0  0  0  0
  -23.4350  -31.9280   23.7950 O   0  0  0  0  0  0  0  0  0  0  0  0
  -22.5850  -29.2860   22.5080 C   0  0  0  0  0  0  0  0  0  0  0  0
  -21.2630  -29.0830   22.3970 N   0  0  0  0  0  0  0  0  0  0  0  0
  -23.2920  -28.6570   23.2990 O   0  0  0  0  0  0  0  0  0  0  0  0
  -20.7500  -29.6440   21.7310 H   0  0  0  0  0  0  0  0  0  0  0  0
  -17.9280  -27.7710   22.8780 C   0  0  0  0  0  0  0  0  0  0  0  0
  -20.4750  -28.1130   23.1600 C   0  0  0  0  0  3  0  0  0  0  0  0
  -20.6270  -26.6900   22.5760 C   0  0  0  0  0  2  0  0  0  0  0  0
  -19.5400  -26.3370   21.5550 C   0  0  0  0  0  2  0  0  0  0  0  0
  -18.1520  -26.4320   22.1960 C   0  0  0  0  0  2  0  0  0  0  0  0
  -19.0190  -28.5670   23.3170 C   0  0  0  0  0  0  0  0  0  0  0  0
  -18.7560  -29.8190   23.9130 C   0  0  0  0  0  3  0  0  0  0  0  0
  -17.4350  -30.2760   24.0770 C   0  0  0  0  0  3  0  0  0  0  0  0
  -16.3590  -29.4770   23.6560 C   0  0  0  0  0  3  0  0  0  0  0  0
  -16.6050  -28.2270   23.0620 C   0  0  0  0  0  3  0  0  0  0  0  0
  -25.8050  -32.2700   23.7860 C   0  0  0  0  0  3  0  0  0  0  0  0
  -25.5340  -33.6710   24.1390 N   0  0  0  0  0  0  0  0  0  0  0  0
  -25.8990  -34.7260   23.3980 C   0  0  0  0  0  0  0  0  0  0  0  0
  -26.5700  -34.6200   22.3670 O   0  0  0  0  0  0  0  0  0  0  0  0
  -24.9410  -33.8290   24.9400 H   0  0  0  0  0  0  0  0  0  0  0  0
  -24.2600  -36.5970   23.0260 C   0  0  0  0  0  1  0  0  0  0  0  0
  -25.4490  -36.1190   23.8760 C   0  0  0  0  0  3  0  0  0  0  0  0
  -27.5690  -36.9030   24.8350 C   0  0  0  0  0  1  0  0  0  0  0  0
  -26.5260  -37.1310   23.8380 N   0  0  0  0  0  0  0  0  0  0  0  0
  -26.1490  -38.0640   23.9830 H   0  0  0  0  0  0  0  0  0  0  0  0
  -26.3480  -31.4740   25.0370 C   0  0  1  0  0  0  0  0  0  0  0  0
  -25.2840  -31.2390   26.1340 C   0  0  0  0  0  1  0  0  0  0  0  0
  -26.8970  -30.0930   24.6090 C   0  0  0  0  0  1  0  0  0  0  0  0
  -27.5300  -32.2420   25.6740 C   0  0  0  0  0  1  0  0  0  0  0  0
  1  3  1  0
  2  5  1  0
  3  9  1  0
  4 12  1  0
  4  1  1  0
  5 53  1  0
  5  3  1  0
  6  2  1  0
  6  4  1  0
  7  6  1  0
  8  6  1  0
  9 10  1  0
 11  9  2  0
 12 14  1  0
 13 12  2  0
 15 14  2  0
 15 16  1  0
 17 16  1  0
 18 23  1  0
 19 20  1  0
 19 18  1  0
 21 20  1  0
 21 28  1  0
 21 22  1  0
 23 17  1  0
 23 22  1  0
 24 17  2  0
 25 26  2  0
 26 45  1  0
 27 26  1  0
 27 30  1  0
 28 25  1  0
 28 29  1  0
 29 27  2  0
 30 31  1  0
 31 32  2  0
 33 36  1  0
 33 32  1  0
 34 33  2  0
 35 34  1  0
 35 30  2  0
 36 37  1  0
 37 42  2  0
 37 38  1  0
 38 39  2  0
 39 40  1  0
 40 44  1  0
 41 40  2  0
 42 41  1  0
 43 42  1  0
 45 46  1  0
 46 49  1  0
 46 48  1  0
 47 45  2  0
 50 51  1  0
 50 25  1  0
 52 50  1  0
 54 56  1  0
 54 53  1  0
 55 66  2  0
 56 61  1  0
 57 65  1  0
 57 67  1  0
 58 64  1  0
 58 60  1  0
 59 65  1  0
 60 59  1  0
 61 60  2  0
 62 63  1  0
 62 56  2  0
 63 58  2  0
 64 57  1  0
 65 55  1  0
 67 69  2  0
 68 67  1  0
 70 68  1  0
 71 80  2  0
 71 76  1  0
 72 68  1  0
 72 76  1  0
 73 72  1  0
 74 75  1  0
 74 73  1  0
 75 71  1  0
 76 77  2  0
 77 78  1  0
 79 78  2  0
 80 79  1  0
 81 55  1  0
 81 82  1  0
 81 91  1  0
 82 85  1  0
 83 87  1  0
 83 82  1  0
 84 83  2  0
 87 86  1  0
 89 87  1  0
 89 90  1  0
 89 88  1  0
 91 94  1  1
 91 92  1  0
 93 91  1  0
M  ISO  4  16 100  17 100  53 101  54 101
M  END
>  <TORSDO>  (2) 
F 22

>  <SCORE>  (2) 
-12.218

>  <name>  (2) 
1

>  <ligand_id>  (2) 
1

>  <original_smiles>  (2) 
[H]c1c([H])c([H])c2c(c1[H])C([H])([H])C([H])([H])C([H])([H])C2([H])N([H])C(=O)C1([H])N(C(=O)C([H])(N([H])C(=O)C([H])(N([H])C([H])([H])[H])C([H])([H])[H])C(C([H])([H])[H])(C([H])([H])[H])C([H])([H])[H])C([H])([H])c2c([H])c(OC([H])([H])C3([H])C([H])(C(=O)C([H])([H])[H])C([H])([H])C([H])(C(=O)C([H])([H])C([H])([H])C([H])([H])C(=O)N4C([H])([H])C([H])([H])C([H])([H])C([H])(n5nc(-c6c([H])c([H])c(Oc7c([H])c([H])c(F)c([H])c7F)c([H])c6[H])c(C(=O)N([H])[H])c5N([H])[H])C4([H])[H])[N+]([H])([H])C3([H])[H])c([H])c([H])c2C1([H])[H]

>  <smiles>  (2) 
[H]c1c([H])c([H])c2c(c1[H])C([H])([H])C([H])([H])C([H])([H])C2([H])N([H])C(=O)C1([H])N(C(=O)C([H])(N([H])C(=O)C([H])(N([H])C([H])([H])[H])C([H])([H])[H])C(C([H])([H])[H])(C([H])([H])[H])C([H])([H])[H])C([H])([H])c2c([H])c(OC([H])([H])C3([H])C([H])(C(=O)C([H])([H])[H])C([H])([H])C([H])(C(=O)C([H])([H])C([H])([H])C([H])([H])C(=O)N4C([H])([H])C([H])([H])C([H])([H])C([H])(n5nc(-c6c([H])c([H])c(Oc7c([H])c([H])c(F)c([H])c7F)c([H])c6[H])c(C(=O)N([H])[H])c5N([H])[H])C4([H])[H])[N+]([H])([H])C3([H])[H])c([H])c([H])c2C1([H])[H]

$$$$
2:0:0
     RDKit          3D

 94101  0  0  1  0  0  0  0  0999 V2000
  -29.8220  -23.0550   20.2850 C   0  0  0  0  0  3  0  0  0  0  0  0
  -30.5940  -23.3730   21.5720 C   0  0  0  0  0  0  0  0  0  0  0  0
  -31.5730  -24.2710   21.5200 N   0  0  0  0  0  0  0  0  0  0  0  0
  -30.3020  -22.8060   22.6250 O   0  0  0  0  0  0  0  0  0  0  0  0
  -31.8210  -24.7190   20.6460 H   0  0  0  0  0  0  0  0  0  0  0  0
  -32.0760  -24.5240   22.3580 H   0  0  0  0  0  0  0  0  0  0  0  0
  -28.8910  -21.9250   20.5750 N   0  0  0  0  0  4  0  0  0  0  0  0
  -29.0040  -21.7900   21.5720 H   0  0  0  0  0  0  0  0  0  0  0  0
  -27.9470  -22.2290   20.4130 H   0  0  0  0  0  0  0  0  0  0  0  0
  -29.1020  -20.6050   19.8920 C   0  0  0  0  0  3  0  0  0  0  0  0
  -29.8180  -19.5130   20.7600 C   0  0  0  0  0  3  0  0  0  0  0  0
  -29.7280  -18.0420   20.2200 C   0  0  0  0  0  2  0  0  0  0  0  0
  -30.3490  -16.9520   21.1570 C   0  0  0  0  0  2  0  0  0  0  0  0
  -30.6460  -14.5320   20.3940 C   0  0  0  0  0  0  0  0  0  0  0  0
  -30.3670  -12.3540   19.2540 C   0  0  0  0  0  2  0  0  0  0  0  0
  -29.4160  -12.5270   18.0510 C   0  0  0  0  0  2  0  0  0  0  0  0
  -27.9440  -12.3740   18.4870 C   0  0  0  0  0  2  0  0  0  0  0  0
  -27.6020  -13.2240   19.7390 C   0  0  0  0  0  3  0  0  0  0  0  0
  -28.6640  -13.0320   20.8460 C   0  0  0  0  0  2  0  0  0  0  0  0
  -29.9790  -13.3490   20.2670 N   0  0  0  0  0  0  0  0  0  0  0  0
  -31.7920  -14.7010   19.9740 O   0  0  0  0  0  0  0  0  0  0  0  0
  -29.9140  -15.5630   20.8730 N   0  0  0  0  0  0  0  0  0  0  0  0
  -28.9670  -15.3290   21.1260 H   0  0  0  0  0  0  0  0  0  0  0  0
  -25.2060  -13.8330   20.4510 C   0  0  0  0  0  0  0  0  0  0  0  0
  -24.1380  -13.0600   20.8220 C   0  0  0  0  0  0  0  0  0  0  0  0
  -24.6040  -11.7090   20.8010 C   0  0  0  0  0  0  0  0  0  0  0  0
  -26.2510  -12.9510   20.2250 N   0  0  0  0  0  0  0  0  0  0  0  0
  -25.8950  -11.6710   20.4980 N   0  0  0  0  0  0  0  0  0  0  0  0
  -23.8810  -10.4460   21.0020 C   0  0  0  0  0  0  0  0  0  0  0  0
  -24.3230   -9.4850   21.9360 C   0  0  0  0  0  3  0  0  0  0  0  0
  -23.6040   -8.2850   22.1230 C   0  0  0  0  0  3  0  0  0  0  0  0
  -22.4290   -8.0380   21.3730 C   0  0  0  0  0  0  0  0  0  0  0  0
  -22.0050   -8.9900   20.4300 C   0  0  0  0  0  3  0  0  0  0  0  0
  -22.7240  -10.1820   20.2430 C   0  0  0  0  0  3  0  0  0  0  0  0
  -21.6800   -6.8910   21.4690 O   0  0  0  0  0  0  0  0  0  0  0  0
  -21.6500   -6.1440   22.6190 C   0  0  0  0  0  0  0  0  0  0  0  0
  -21.2420   -6.6950   23.8520 C   0  0  0  0  0  3  0  0  0  0  0  0
  -21.1570   -5.8760   24.9950 C   0  0  0  0  0  3  0  0  0  0  0  0
  -21.4700   -4.5060   24.9060 C   0  0  0  0  0  0  0  0  0  0  0  0
  -21.8700   -3.9540   23.6760 C   0  0  0  0  0  3  0  0  0  0  0  0
  -21.9560   -4.7710   22.5340 C   0  0  0  0  0  0  0  0  0  0  0  0
  -22.3220   -4.2300   21.3470 F   0  0  0  0  0  0  0  0  0  0  0  0
  -21.3800   -3.7170   26.0010 F   0  0  0  0  0  0  0  0  0  0  0  0
  -22.7390  -13.5340   21.0860 C   0  0  0  0  0  0  0  0  0  0  0  0
  -22.0150  -12.8420   21.9580 N   0  0  0  0  0  0  0  0  0  0  0  0
  -22.2970  -14.5510   20.5540 O   0  0  0  0  0  0  0  0  0  0  0  0
  -22.3900  -12.0230   22.4120 H   0  0  0  0  0  0  0  0  0  0  0  0
  -21.0730  -13.1380   22.1760 H   0  0  0  0  0  0  0  0  0  0  0  0
  -25.3670  -15.2040   20.2630 N   0  0  0  0  0  0  0  0  0  0  0  0
  -24.6000  -15.8610   20.3610 H   0  0  0  0  0  0  0  0  0  0  0  0
  -26.2130  -15.6350   19.9080 H   0  0  0  0  0  0  0  0  0  0  0  0
  -29.1600  -24.3500   19.6660 C   0  0  0  0  0  2  0  0  0  0  0  0
  -28.2950  -25.3120   20.5470 C   0  0  0  0  0  2  0  0  0  0  0  0
  -28.3160  -26.6740   20.0490 O   0  0  0  0  0  0  0  0  0  0  0  0
  -24.5530  -31.8660   23.2160 C   0  0  0  0  0  0  0  0  0  0  0  0
  -27.1420  -27.4070   20.0950 C   0  0  0  0  0  0  0  0  0  0  0  0
  -23.3180  -30.4730   21.5850 C   0  0  0  0  0  3  0  0  0  0  0  0
  -24.7490  -28.9310   20.1380 C   0  0  0  0  0  0  0  0  0  0  0  0
  -25.8430  -30.8230   21.3530 C   0  0  0  0  0  2  0  0  0  0  0  0
  -25.9180  -29.4520   20.7050 C   0  0  0  0  0  0  0  0  0  0  0  0
  -27.1180  -28.7010   20.6720 C   0  0  0  0  0  3  0  0  0  0  0  0
  -25.9520  -26.9040   19.5210 C   0  0  0  0  0  3  0  0  0  0  0  0
  -24.7630  -27.6590   19.5410 C   0  0  0  0  0  3  0  0  0  0  0  0
  -23.5060  -29.7940   20.2030 C   0  0  0  0  0  2  0  0  0  0  0  0
  -24.5900  -31.0700   22.1090 N   0  0  0  0  0  0  0  0  0  0  0  0
  -23.4800  -32.1410   23.7720 O   0  0  0  0  0  0  0  0  0  0  0  0
  -22.6770  -29.4540   22.5540 C   0  0  0  0  0  0  0  0  0  0  0  0
  -21.3520  -29.2720   22.4410 N   0  0  0  0  0  0  0  0  0  0  0  0
  -23.3690  -28.8280   23.3620 O   0  0  0  0  0  0  0  0  0  0  0  0
  -20.8540  -29.8330   21.7640 H   0  0  0  0  0  0  0  0  0  0  0  0
  -17.9850  -28.0640   22.9600 C   0  0  0  0  0  0  0  0  0  0  0  0
  -20.5430  -28.3310   23.2180 C   0  0  0  0  0  3  0  0  0  0  0  0
  -20.6460  -26.9000   22.6450 C   0  0  0  0  0  2  0  0  0  0  0  0
  -19.5410  -26.5710   21.6350 C   0  0  0  0  0  2  0  0  0  0  0  0
  -18.1620  -26.7140   22.2870 C   0  0  0  0  0  2  0  0  0  0  0  0
  -19.1030  -28.8300   23.3830 C   0  0  0  0  0  0  0  0  0  0  0  0
  -18.8850  -30.0940   23.9740 C   0  0  0  0  0  3  0  0  0  0  0  0
  -17.5800  -30.5920   24.1460 C   0  0  0  0  0  3  0  0  0  0  0  0
  -16.4760  -29.8240   23.7400 C   0  0  0  0  0  3  0  0  0  0  0  0
  -16.6790  -28.5610   23.1530 C   0  0  0  0  0  3  0  0  0  0  0  0
  -25.8490  -32.4910   23.8200 C   0  0  0  0  0  3  0  0  0  0  0  0
  -25.5500  -33.8880   24.1600 N   0  0  0  0  0  0  0  0  0  0  0  0
  -25.8830  -34.9440   23.4050 C   0  0  0  0  0  0  0  0  0  0  0  0
  -26.5460  -34.8440   22.3700 O   0  0  0  0  0  0  0  0  0  0  0  0
  -24.9540  -34.0410   24.9610 H   0  0  0  0  0  0  0  0  0  0  0  0
  -24.1640  -36.7500   23.0700 C   0  0  0  0  0  1  0  0  0  0  0  0
  -25.4050  -36.3320   23.8760 C   0  0  0  0  0  3  0  0  0  0  0  0
  -27.5480  -37.1940   24.7070 C   0  0  0  0  0  1  0  0  0  0  0  0
  -26.4440  -37.3790   23.7690 N   0  0  0  0  0  0  0  0  0  0  0  0
  -26.0430  -38.2990   23.9290 H   0  0  0  0  0  0  0  0  0  0  0  0
  -26.3860  -31.7130   25.0840 C   0  0  1  0  0  0  0  0  0  0  0  0
  -25.3130  -31.4760   26.1710 C   0  0  0  0  0  1  0  0  0  0  0  0
  -26.9560  -30.3350   24.6750 C   0  0  0  0  0  1  0  0  0  0  0  0
  -27.5500  -32.5020   25.7290 C   0  0  0  0  0  1  0  0  0  0  0  0
  1 52  1  0
  1  7  1  0
  1  2  1  0
  2  4  2  0
  3  2  1  0
  3  6  1  0
  5  3  1  0
  7  8  1  0
  9  7  1  0
 10  7  1  0
 10 11  2  0
 12 11  1  0
 12 13  1  0
 14 22  1  0
 15 20  1  0
 16 17  1  0
 16 15  1  0
 18 17  1  0
 18 27  1  0
 18 19  1  0
 20 14  1  0
 20 19  1  0
 21 14  2  0
 22 23  1  0
 22 13  1  0
 24 25  2  0
 25 44  1  0
 26 25  1  0
 26 29  1  0
 27 24  1  0
 27 28  1  0
 28 26  2  0
 29 30  1  0
 30 31  2  0
 32 35  1  0
 32 31  1  0
 33 32  2  0
 34 33  1  0
 34 29  2  0
 35 36  1  0
 36 37  1  0
 37 38  2  0
 39 38  1  0
 39 43  1  0
 40 39  2  0
 41 36  2  0
 41 40  1  0
 42 41  1  0
 44 45  1  0
 45 48  1  0
 45 47  1  0
 46 44  2  0
 49 50  1  0
 49 24  1  0
 51 49  1  0
 52 53  1  0
 54 56  1  0
 54 53  1  0
 55 66  2  0
 56 61  1  0
 57 65  1  0
 57 67  1  0
 58 64  1  0
 58 60  1  0
 59 65  1  0
 60 59  1  0
 61 60  2  0
 62 63  1  0
 62 56  2  0
 63 58  2  0
 64 57  1  0
 65 55  1  0
 67 69  2  0
 68 67  1  0
 70 68  1  0
 71 80  2  0
 71 76  1  0
 72 68  1  0
 72 76  1  0
 73 72  1  0
 74 75  1  0
 74 73  1  0
 75 71  1  0
 76 77  2  0
 77 78  1  0
 79 78  2  0
 80 79  1  0
 81 55  1  0
 81 82  1  0
 81 91  1  0
 82 85  1  0
 83 87  1  0
 83 82  1  0
 84 83  2  0
 87 86  1  0
 89 87  1  0
 89 90  1  0
 89 88  1  0
 91 94  1  1
 91 92  1  0
 93 91  1  0
M  ISO  4  14 100  22 100  53 101  54 101
M  END
>  <TORSDO>  (3) 
F 24

>  <SCORE>  (3) 
-12.395

>  <name>  (3) 
2

>  <ligand_id>  (3) 
2

>  <original_smiles>  (3) 
[H]c1c([H])c([H])c2c(c1[H])C([H])([H])C([H])([H])C([H])([H])C2([H])N([H])C(=O)C1([H])N(C(=O)C([H])(N([H])C(=O)C([H])(N([H])C([H])([H])[H])C([H])([H])[H])C(C([H])([H])[H])(C([H])([H])[H])C([H])([H])[H])C([H])([H])c2c([H])c(OC([H])([H])C([H])([H])C([H])(C(=O)N([H])[H])[N+]([H])([H])C([H])([H])C([H])([H])C([H])([H])C([H])([H])N([H])C(=O)N3C([H])([H])C([H])([H])C([H])([H])C([H])(n4nc(-c5c([H])c([H])c(Oc6c([H])c([H])c(F)c([H])c6F)c([H])c5[H])c(C(=O)N([H])[H])c4N([H])[H])C3([H])[H])c([H])c([H])c2C1([H])[H]

>  <smiles>  (3) 
[H]c1c([H])c([H])c2c(c1[H])C([H])([H])C([H])([H])C([H])([H])C2([H])N([H])C(=O)C1([H])N(C(=O)C([H])(N([H])C(=O)C([H])(N([H])C([H])([H])[H])C([H])([H])[H])C(C([H])([H])[H])(C([H])([H])[H])C([H])([H])[H])C([H])([H])c2c([H])c(OC([H])([H])C([H])([H])C([H])(C(=O)N([H])[H])[N+]([H])([H])C([H])([H])C([H])([H])C([H])([H])C([H])([H])N([H])C(=O)N3C([H])([H])C([H])([H])C([H])([H])C([H])(n4nc(-c5c([H])c([H])c(Oc6c([H])c([H])c(F)c([H])c6F)c([H])c5[H])c(C(=O)N([H])[H])c4N([H])[H])C3([H])[H])c([H])c([H])c2C1([H])[H]

$$$$
3:0:0
     RDKit          3D

 98106  0  0  1  0  0  0  0  0999 V2000
  -29.8920  -23.5800   23.7020 C   0  0  0  0  0  0  0  0  0  0  0  0
  -28.3740  -22.1720   22.2720 C   0  0  0  0  0  2  0  0  0  0  0  0
  -28.0240  -23.3490   21.3440 C   0  0  0  0  0  2  0  0  0  0  0  0
  -29.0140  -24.7820   23.2980 C   0  0  0  0  0  3  0  0  0  0  0  0
  -29.7930  -22.2990   22.8590 C   0  0  0  0  0  3  0  0  0  0  0  0
  -28.5380  -24.7400   21.8140 C   0  0  0  0  0  3  0  0  0  0  0  0
  -30.6290  -23.6650   24.6900 O   0  0  0  0  0  0  0  0  0  0  0  0
  -30.1320  -21.1880   23.7740 N   0  0  0  0  0  4  0  0  0  0  0  0
  -29.5900  -21.3030   24.6150 H   0  0  0  0  0  0  0  0  0  0  0  0
  -31.0950  -21.3290   24.0430 H   0  0  0  0  0  0  0  0  0  0  0  0
  -29.9400  -19.8120   23.2640 C   0  0  0  0  0  2  0  0  0  0  0  0
  -30.9960  -19.4040   22.2180 C   0  0  0  0  0  2  0  0  0  0  0  0
  -30.9130  -17.9110   21.8430 C   0  0  0  0  0  2  0  0  0  0  0  0
  -32.0100  -17.4900   20.8520 C   0  0  0  0  0  2  0  0  0  0  0  0
  -32.4060  -16.0090   20.9680 C   0  0  0  0  0  2  0  0  0  0  0  0
  -31.3760  -14.3540   19.4360 C   0  0  0  0  0  0  0  0  0  0  0  0
  -30.7930  -12.1290   18.5550 C   0  0  0  0  0  2  0  0  0  0  0  0
  -29.7250  -12.1580   17.4510 C   0  0  0  0  0  2  0  0  0  0  0  0
  -28.3150  -12.1290   18.0650 C   0  0  0  0  0  2  0  0  0  0  0  0
  -28.1310  -13.1940   19.1760 C   0  0  0  0  0  3  0  0  0  0  0  0
  -29.2950  -13.1510   20.1920 C   0  0  0  0  0  2  0  0  0  0  0  0
  -30.5730  -13.2630   19.4640 N   0  0  0  0  0  0  0  0  0  0  0  0
  -32.2170  -14.5620   18.5570 O   0  0  0  0  0  0  0  0  0  0  0  0
  -31.3480  -15.0880   20.5550 N   0  0  0  0  0  0  0  0  0  0  0  0
  -30.6650  -14.8230   21.2490 H   0  0  0  0  0  0  0  0  0  0  0  0
  -25.9640  -14.0280   20.2950 C   0  0  0  0  0  0  0  0  0  0  0  0
  -24.8620  -13.3650   20.7620 C   0  0  0  0  0  0  0  0  0  0  0  0
  -25.1180  -11.9750   20.5500 C   0  0  0  0  0  0  0  0  0  0  0  0
  -26.8330  -13.0500   19.8350 N   0  0  0  0  0  0  0  0  0  0  0  0
  -26.3330  -11.8050   20.0420 N   0  0  0  0  0  0  0  0  0  0  0  0
  -24.2570  -10.8020   20.7460 C   0  0  0  0  0  0  0  0  0  0  0  0
  -24.6440   -9.7330   21.5840 C   0  0  0  0  0  3  0  0  0  0  0  0
  -23.7900   -8.6250   21.7720 C   0  0  0  0  0  3  0  0  0  0  0  0
  -22.5330   -8.5790   21.1220 C   0  0  0  0  0  0  0  0  0  0  0  0
  -22.1620   -9.6350   20.2700 C   0  0  0  0  0  3  0  0  0  0  0  0
  -23.0160  -10.7350   20.0800 C   0  0  0  0  0  3  0  0  0  0  0  0
  -21.6500   -7.5320   21.2250 O   0  0  0  0  0  0  0  0  0  0  0  0
  -21.5500   -6.7850   22.3710 C   0  0  0  0  0  0  0  0  0  0  0  0
  -21.2460   -7.3710   23.6190 C   0  0  0  0  0  3  0  0  0  0  0  0
  -21.0840   -6.5570   24.7590 C   0  0  0  0  0  3  0  0  0  0  0  0
  -21.2170   -5.1600   24.6500 C   0  0  0  0  0  0  0  0  0  0  0  0
  -21.5140   -4.5740   23.4070 C   0  0  0  0  0  3  0  0  0  0  0  0
  -21.6770   -5.3850   22.2710 C   0  0  0  0  0  0  0  0  0  0  0  0
  -21.9430   -4.8130   21.0710 F   0  0  0  0  0  0  0  0  0  0  0  0
  -21.0540   -4.3770   25.7420 F   0  0  0  0  0  0  0  0  0  0  0  0
  -23.5990  -13.9840   21.2860 C   0  0  0  0  0  0  0  0  0  0  0  0
  -22.9330  -13.3210   22.2250 N   0  0  0  0  0  0  0  0  0  0  0  0
  -23.2200  -15.0890   20.8990 O   0  0  0  0  0  0  0  0  0  0  0  0
  -23.2540  -12.4230   22.5590 H   0  0  0  0  0  0  0  0  0  0  0  0
  -22.0900  -13.7150   22.6160 H   0  0  0  0  0  0  0  0  0  0  0  0
  -26.2950  -15.3780   20.2070 N   0  0  0  0  0  0  0  0  0  0  0  0
  -25.6580  -16.1140   20.4930 H   0  0  0  0  0  0  0  0  0  0  0  0
  -27.1520  -15.7310   19.7990 H   0  0  0  0  0  0  0  0  0  0  0  0
  -27.3380  -26.4290   24.3470 C   0  0  0  0  0  1  0  0  0  0  0  0
  -27.8380  -24.9780   24.2870 C   0  0  0  0  0  2  0  0  0  0  0  0
  -29.5900  -25.3210   20.8410 C   0  0  0  0  0  2  0  0  0  0  0  0
  -29.8790  -26.8220   21.0610 C   0  0  0  0  0  2  0  0  0  0  0  0
  -29.4980  -27.5690   19.9080 O   0  0  0  0  0  0  0  0  0  0  0  0
  -24.7150  -31.5350   23.3990 C   0  0  0  0  0  0  0  0  0  0  0  0
  -28.2330  -28.0970   19.9610 C   0  0  0  0  0  0  0  0  0  0  0  0
  -23.8560  -30.2470   21.4680 C   0  0  0  0  0  3  0  0  0  0  0  0
  -25.6290  -29.1810   19.9750 C   0  0  0  0  0  0  0  0  0  0  0  0
  -26.2940  -31.0070   21.5500 C   0  0  0  0  0  2  0  0  0  0  0  0
  -26.6400  -29.7760   20.7400 C   0  0  0  0  0  0  0  0  0  0  0  0
  -27.9420  -29.2370   20.7420 C   0  0  0  0  0  3  0  0  0  0  0  0
  -27.2140  -27.5100   19.1860 C   0  0  0  0  0  3  0  0  0  0  0  0
  -25.9090  -28.0410   19.1970 C   0  0  0  0  0  3  0  0  0  0  0  0
  -24.2630  -29.8250   20.0290 C   0  0  0  0  0  2  0  0  0  0  0  0
  -24.9680  -30.9370   22.2010 N   0  0  0  0  0  0  0  0  0  0  0  0
  -23.5720  -31.5580   23.8760 O   0  0  0  0  0  0  0  0  0  0  0  0
  -23.3130  -29.0050   22.2090 C   0  0  0  0  0  0  0  0  0  0  0  0
  -22.0250  -28.6940   21.9880 N   0  0  0  0  0  0  0  0  0  0  0  0
  -24.0470  -28.3310   22.9370 O   0  0  0  0  0  0  0  0  0  0  0  0
  -21.4910  -29.3020   21.3840 H   0  0  0  0  0  0  0  0  0  0  0  0
  -18.7980  -27.0820   22.1570 C   0  0  0  0  0  0  0  0  0  0  0  0
  -21.3100  -27.5470   22.5460 C   0  0  0  0  0  3  0  0  0  0  0  0
  -21.5720  -26.2720   21.7130 C   0  0  0  0  0  2  0  0  0  0  0  0
  -20.5190  -26.0340   20.6250 C   0  0  0  0  0  2  0  0  0  0  0  0
  -19.1240  -25.9100   21.2450 C   0  0  0  0  0  2  0  0  0  0  0  0
  -19.8240  -27.8590   22.7540 C   0  0  0  0  0  0  0  0  0  0  0  0
  -19.4670  -28.9590   23.5640 C   0  0  0  0  0  3  0  0  0  0  0  0
  -18.1150  -29.2840   23.7820 C   0  0  0  0  0  3  0  0  0  0  0  0
  -17.1020  -28.5010   23.2010 C   0  0  0  0  0  3  0  0  0  0  0  0
  -17.4440  -27.4010   22.3940 C   0  0  0  0  0  3  0  0  0  0  0  0
  -25.8440  -32.2390   24.2170 C   0  0  0  0  0  3  0  0  0  0  0  0
  -26.2930  -31.4210   25.4880 C   0  0  1  0  0  0  0  0  0  0  0  0
  -25.1170  -30.9800   26.3910 C   0  0  0  0  0  1  0  0  0  0  0  0
  -27.0700  -30.1520   25.0710 C   0  0  0  0  0  1  0  0  0  0  0  0
  -27.2620  -32.2710   26.3430 C   0  0  0  0  0  1  0  0  0  0  0  0
  -25.3480  -33.5680   24.5970 N   0  0  0  0  0  0  0  0  0  0  0  0
  -25.6670  -34.7060   23.9680 C   0  0  0  0  0  0  0  0  0  0  0  0
  -26.4760  -34.7530   23.0360 O   0  0  0  0  0  0  0  0  0  0  0  0
  -24.6360  -33.5960   25.3130 H   0  0  0  0  0  0  0  0  0  0  0  0
  -23.8270  -36.3520   23.4940 C   0  0  0  0  0  1  0  0  0  0  0  0
  -24.9800  -35.9980   24.4470 C   0  0  0  0  0  3  0  0  0  0  0  0
  -26.8830  -37.0000   25.6310 C   0  0  0  0  0  1  0  0  0  0  0  0
  -25.9020  -37.1490   24.5600 N   0  0  0  0  0  0  0  0  0  0  0  0
  -25.3860  -38.0100   24.7210 H   0  0  0  0  0  0  0  0  0  0  0  0
  1  7  2  0
  2  5  1  0
  3  6  1  0
  3  2  1  0
  4  1  1  0
  4 55  1  0
  5  1  1  0
  5  8  1  0
  6 56  1  0
  6  4  1  0
  8 10  1  0
  8  9  1  0
 11  8  1  0
 12 11  1  0
 13 12  1  0
 14 15  1  0
 14 13  1  0
 16 22  1  0
 16 24  1  0
 17 22  1  0
 18 19  1  0
 18 17  1  0
 20 19  1  0
 20 29  1  0
 20 21  1  0
 22 21  1  0
 23 16  2  0
 24 15  1  0
 24 25  1  0
 26 27  2  0
 27 46  1  0
 28 31  1  0
 28 27  1  0
 29 30  1  0
 29 26  1  0
 30 28  2  0
 31 32  1  0
 32 33  2  0
 34 37  1  0
 34 33  1  0
 35 34  2  0
 36 35  1  0
 36 31  2  0
 37 38  1  0
 38 39  1  0
 39 40  2  0
 41 40  1  0
 41 45  1  0
 42 41  2  0
 43 38  2  0
 43 42  1  0
 44 43  1  0
 46 47  1  0
 47 49  1  0
 47 50  1  0
 48 46  2  0
 51 26  1  0
 51 52  1  0
 53 51  1  0
 55 54  1  0
 56 57  1  0
 58 60  1  0
 58 57  1  0
 59 70  2  0
 60 65  1  0
 61 69  1  0
 61 71  1  0
 62 68  1  0
 62 64  1  0
 63 69  1  0
 64 65  2  0
 64 63  1  0
 66 67  1  0
 66 60  2  0
 67 62  2  0
 68 61  1  0
 69 59  1  0
 71 73  2  0
 72 71  1  0
 74 72  1  0
 75 84  2  0
 75 80  1  0
 76 72  1  0
 76 80  1  0
 77 76  1  0
 78 79  1  0
 78 77  1  0
 79 75  1  0
 80 81  2  0
 81 82  1  0
 83 82  2  0
 84 83  1  0
 85 59  1  0
 85 90  1  0
 85 86  1  0
 86 89  1  1
 86 87  1  0
 88 86  1  0
 90 93  1  0
 91 95  1  0
 91 90  1  0
 92 91  2  0
 95 94  1  0
 95 97  1  0
 97 98  1  0
 97 96  1  0
M  ISO  4  16 100  24 100  57 101  58 101
M  END
>  <TORSDO>  (4) 
F 25

>  <SCORE>  (4) 
-5.947

>  <name>  (4) 
3

>  <ligand_id>  (4) 
3

>  <original_smiles>  (4) 
[H]c1c([H])c([H])c2c(c1[H])C([H])([H])C([H])([H])C([H])([H])C2([H])N([H])C(=O)C1([H])N(C(=O)C([H])(N([H])C(=O)C([H])(N([H])C([H])([H])[H])C([H])([H])[H])C(C([H])([H])[H])(C([H])([H])[H])C([H])([H])[H])C([H])([H])c2c([H])c(OC([H])([H])C([H])([H])C3([H])C([H])([H])C([H])([H])C([H])([N+]([H])([H])C([H])([H])C([H])([H])C([H])([H])C([H])([H])C([H])([H])N([H])C(=O)N4C([H])([H])C([H])([H])C([H])([H])C([H])(n5nc(-c6c([H])c([H])c(Oc7c([H])c([H])c(F)c([H])c7F)c([H])c6[H])c(C(=O)N([H])[H])c5N([H])[H])C4([H])[H])C(=O)C3([H])C([H])([H])C([H])([H])[H])c([H])c([H])c2C1([H])[H]

>  <smiles>  (4) 
[H]c1c([H])c([H])c2c(c1[H])C([H])([H])C([H])([H])C([H])([H])C2([H])N([H])C(=O)C1([H])N(C(=O)C([H])(N([H])C(=O)C([H])(N([H])C([H])([H])[H])C([H])([H])[H])C(C([H])([H])[H])(C([H])([H])[H])C([H])([H])[H])C([H])([H])c2c([H])c(OC([H])([H])C([H])([H])C3([H])C([H])([H])C([H])([H])C([H])([N+]([H])([H])C([H])([H])C([H])([H])C([H])([H])C([H])([H])C([H])([H])N([H])C(=O)N4C([H])([H])C([H])([H])C([H])([H])C([H])(n5nc(-c6c([H])c([H])c(Oc7c([H])c([H])c(F)c([H])c7F)c([H])c6[H])c(C(=O)N([H])[H])c5N([H])[H])C4([H])[H])C(=O)C3([H])C([H])([H])C([H])([H])[H])c([H])c([H])c2C1([H])[H]

$$$$
4:0:0
     RDKit          3D

 95103  0  0  1  0  0  0  0  0999 V2000
  -29.0710  -16.1330   20.1560 C   0  0  0  0  0  0  0  0  0  0  0  0
  -28.5950  -18.3600   19.0010 C   0  0  0  0  0  2  0  0  0  0  0  0
  -30.9280  -17.3450   18.9210 C   0  0  0  0  0  2  0  0  0  0  0  0
  -27.9970  -16.9830   19.4180 C   0  0  0  0  0  3  0  0  0  0  0  0
  -30.4080  -15.9040   19.4140 C   0  0  0  0  0  3  0  0  0  0  0  0
  -29.8840  -18.2960   18.1490 C   0  0  0  0  0  3  0  0  0  0  0  0
  -28.8790  -15.6870   21.2940 O   0  0  0  0  0  0  0  0  0  0  0  0
  -31.8970  -13.8830   20.3040 C   0  0  0  0  0  0  0  0  0  0  0  0
  -31.7650  -11.4060   20.5170 C   0  0  0  0  0  2  0  0  0  0  0  0
  -31.1090  -10.8000   19.2600 C   0  0  0  0  0  2  0  0  0  0  0  0
  -29.5870  -10.7350   19.4480 C   0  0  0  0  0  2  0  0  0  0  0  0
  -28.9980  -12.0800   19.9500 C   0  0  0  0  0  3  0  0  0  0  0  0
  -29.8030  -12.6740   21.1240 C   0  0  0  0  0  2  0  0  0  0  0  0
  -31.2080  -12.7660   20.7120 N   0  0  0  0  0  0  0  0  0  0  0  0
  -33.0900  -13.7970   20.0100 O   0  0  0  0  0  0  0  0  0  0  0  0
  -31.3460  -15.1380   20.3310 N   0  0  0  0  0  0  0  0  0  0  0  0
  -32.0610  -15.7730   20.6490 H   0  0  0  0  0  0  0  0  0  0  0  0
  -26.6070  -12.9530   20.2640 C   0  0  0  0  0  0  0  0  0  0  0  0
  -25.4310  -12.3240   20.5800 C   0  0  0  0  0  0  0  0  0  0  0  0
  -25.7580  -10.9470   20.7620 C   0  0  0  0  0  0  0  0  0  0  0  0
  -27.5770  -11.9660   20.2720 N   0  0  0  0  0  0  0  0  0  0  0  0
  -27.0660  -10.7620   20.6360 N   0  0  0  0  0  0  0  0  0  0  0  0
  -24.8890   -9.7850   20.9960 C   0  0  0  0  0  0  0  0  0  0  0  0
  -25.1870   -8.8270   21.9900 C   0  0  0  0  0  3  0  0  0  0  0  0
  -24.3270   -7.7310   22.2080 C   0  0  0  0  0  3  0  0  0  0  0  0
  -23.1520   -7.5850   21.4350 C   0  0  0  0  0  0  0  0  0  0  0  0
  -22.8710   -8.5260   20.4300 C   0  0  0  0  0  3  0  0  0  0  0  0
  -23.7300   -9.6150   20.2110 C   0  0  0  0  0  3  0  0  0  0  0  0
  -22.2720   -6.5350   21.5570 O   0  0  0  0  0  0  0  0  0  0  0  0
  -22.0300   -5.9330   22.7640 C   0  0  0  0  0  0  0  0  0  0  0  0
  -21.5190   -6.6550   23.8630 C   0  0  0  0  0  3  0  0  0  0  0  0
  -21.2230   -5.9850   25.0660 C   0  0  0  0  0  3  0  0  0  0  0  0
  -21.4280   -4.5970   25.1670 C   0  0  0  0  0  0  0  0  0  0  0  0
  -21.9290   -3.8750   24.0700 C   0  0  0  0  0  3  0  0  0  0  0  0
  -22.2280   -4.5430   22.8690 C   0  0  0  0  0  0  0  0  0  0  0  0
  -22.6950   -3.8390   21.8100 F   0  0  0  0  0  0  0  0  0  0  0  0
  -21.1350   -3.9520   26.3200 F   0  0  0  0  0  0  0  0  0  0  0  0
  -24.0660  -12.9510   20.6040 C   0  0  0  0  0  0  0  0  0  0  0  0
  -23.2070  -12.5270   21.5280 N   0  0  0  0  0  0  0  0  0  0  0  0
  -23.7660  -13.8510   19.8230 O   0  0  0  0  0  0  0  0  0  0  0  0
  -23.4530  -11.7920   22.1720 H   0  0  0  0  0  0  0  0  0  0  0  0
  -22.2890  -12.9470   21.5930 H   0  0  0  0  0  0  0  0  0  0  0  0
  -26.9180  -14.2690   19.9430 N   0  0  0  0  0  2  0  0  0  0  0  0
  -26.1890  -14.9710   19.8920 H   0  0  0  0  0  0  0  0  0  0  0  0
  -27.7770  -14.5640   19.5080 H   0  0  0  0  0  0  0  0  0  0  0  0
  -25.8070  -15.7820   20.1400 C   0  0  0  0  0  2  0  0  0  0  0  0
  -25.6830  -18.0800   19.2800 C   0  0  0  0  0  1  0  0  0  0  0  0
  -26.6680  -17.6850   21.5440 C   0  0  0  0  0  1  0  0  0  0  0  0
  -26.5770  -17.1240   20.1050 C   0  0  2  0  0  0  0  0  0  0  0  0
  -30.3890  -19.7640   17.6820 C   0  0  0  0  0  2  0  0  0  0  0  0
  -29.3700  -20.9300   17.2890 C   0  0  0  0  0  0  0  0  0  0  0  0
  -28.1560  -20.7050   17.3270 O   0  0  0  0  0  0  0  0  0  0  0  0
  -29.8660  -22.3670   16.8010 C   0  0  0  0  0  3  0  0  0  0  0  0
  -28.9380  -23.6300   17.1790 C   0  0  0  0  0  3  0  0  0  0  0  0
  -29.3460  -25.0620   17.0160 O   0  0  0  0  0  0  0  0  0  0  0  0
  -27.4180  -28.8760   22.8660 C   0  0  0  0  0  0  0  0  0  0  0  0
  -28.5050  -26.0310   17.5990 C   0  0  0  0  0  0  0  0  0  0  0  0
  -25.7630  -28.7260   21.0420 C   0  0  0  0  0  3  0  0  0  0  0  0
  -26.6440  -27.8490   18.8030 C   0  0  0  0  0  0  0  0  0  0  0  0
  -28.2740  -28.6160   20.5270 C   0  0  0  0  0  2  0  0  0  0  0  0
  -27.9440  -27.7470   19.3150 C   0  0  0  0  0  0  0  0  0  0  0  0
  -28.8820  -26.8530   18.7110 C   0  0  0  0  0  3  0  0  0  0  0  0
  -27.2070  -26.2260   17.0770 C   0  0  0  0  0  3  0  0  0  0  0  0
  -26.2800  -27.0970   17.6760 C   0  0  0  0  0  3  0  0  0  0  0  0
  -25.6790  -28.7920   19.4940 C   0  0  0  0  0  2  0  0  0  0  0  0
  -27.1780  -28.7210   21.5320 N   0  0  0  0  0  0  0  0  0  0  0  0
  -26.4920  -29.0490   23.6700 O   0  0  0  0  0  0  0  0  0  0  0  0
  -24.9390  -27.5130   21.5360 C   0  0  0  0  0  0  0  0  0  0  0  0
  -23.6050  -27.5860   21.3900 N   0  0  0  0  0  0  0  0  0  0  0  0
  -25.5000  -26.5250   22.0150 O   0  0  0  0  0  0  0  0  0  0  0  0
  -23.2150  -28.4370   21.0140 H   0  0  0  0  0  0  0  0  0  0  0  0
  -20.1140  -26.6520   21.2340 C   0  0  0  0  0  0  0  0  0  0  0  0
  -22.6460  -26.5340   21.7370 C   0  0  0  0  0  3  0  0  0  0  0  0
  -22.6910  -25.3780   20.7120 C   0  0  0  0  0  2  0  0  0  0  0  0
  -21.6740  -25.5430   19.5810 C   0  0  0  0  0  2  0  0  0  0  0  0
  -20.2550  -25.5940   20.1510 C   0  0  0  0  0  2  0  0  0  0  0  0
  -21.2430  -27.1070   21.9680 C   0  0  0  0  0  0  0  0  0  0  0  0
  -21.0690  -28.1180   22.9380 C   0  0  0  0  0  3  0  0  0  0  0  0
  -19.8000  -28.6770   23.1750 C   0  0  0  0  0  3  0  0  0  0  0  0
  -18.6830  -28.2130   22.4570 C   0  0  0  0  0  3  0  0  0  0  0  0
  -18.8380  -27.1960   21.4980 C   0  0  0  0  0  3  0  0  0  0  0  0
  -28.8670  -28.8660   23.4420 C   0  0  0  0  0  3  0  0  0  0  0  0
  -28.9710  -29.9560   24.4190 N   0  0  0  0  0  0  0  0  0  0  0  0
  -29.6800  -31.0750   24.2330 C   0  0  0  0  0  0  0  0  0  0  0  0
  -30.3810  -31.2680   23.2360 O   0  0  0  0  0  0  0  0  0  0  0  0
  -28.3900  -29.8830   25.2420 H   0  0  0  0  0  0  0  0  0  0  0  0
  -28.6700  -33.2890   24.8610 C   0  0  0  0  0  1  0  0  0  0  0  0
  -29.6000  -32.1560   25.3260 C   0  0  0  0  0  3  0  0  0  0  0  0
  -31.7600  -31.7700   26.4300 C   0  0  0  0  0  1  0  0  0  0  0  0
  -30.9170  -32.7170   25.7000 N   0  0  0  0  0  0  0  0  0  0  0  0
  -30.8090  -33.5510   26.2730 H   0  0  0  0  0  0  0  0  0  0  0  0
  -29.2560  -27.4870   24.1060 C   0  0  1  0  0  0  0  0  0  0  0  0
  -28.2400  -27.0060   25.1710 C   0  0  0  0  0  1  0  0  0  0  0  0
  -29.3860  -26.3820   23.0360 C   0  0  0  0  0  1  0  0  0  0  0  0
  -30.6440  -27.6020   24.7820 C   0  0  0  0  0  1  0  0  0  0  0  0
  1  7  2  0
  2  4  1  0
  3  5  1  0
  4 49  1  0
  4  1  1  0
  5  1  1  0
  5 16  1  0
  6 50  1  0
  6  3  1  0
  6  2  1  0
  8 16  1  0
  8 14  1  0
  9 14  1  0
 10 11  1  0
 10  9  1  0
 12 11  1  0
 12 21  1  0
 12 13  1  0
 14 13  1  0
 15  8  2  0
 16 17  1  0
 18 21  1  0
 18 19  2  0
 19 38  1  0
 19 20  1  0
 20 23  1  0
 21 22  1  0
 22 20  2  0
 23 24  1  0
 24 25  2  0
 26 29  1  0
 26 25  1  0
 27 26  2  0
 28 27  1  0
 28 23  2  0
 29 30  1  0
 30 35  2  0
 30 31  1  0
 31 32  2  0
 32 33  1  0
 33 37  1  0
 34 33  2  0
 35 34  1  0
 36 35  1  0
 38 39  1  0
 39 42  1  0
 39 41  1  0
 40 38  2  0
 43 18  1  0
 44 46  1  0
 45 43  1  0
 49 47  1  6
 49 46  1  0
 49 48  1  0
 51 52  2  0
 51 50  1  0
 53 54  2  0
 53 51  1  0
 55 54  1  0
 55 57  1  0
 56 67  2  0
 57 62  1  0
 58 66  1  0
 58 68  1  0
 59 61  1  0
 59 65  1  0
 60 66  1  0
 61 60  1  0
 62 61  2  0
 63 57  2  0
 63 64  1  0
 64 59  2  0
 65 58  1  0
 66 56  1  0
 68 70  2  0
 69 68  1  0
 71 69  1  0
 72 81  2  0
 72 77  1  0
 73 69  1  0
 73 77  1  0
 74 73  1  0
 75 76  1  0
 75 74  1  0
 76 72  1  0
 77 78  2  0
 78 79  1  0
 80 79  2  0
 81 80  1  0
 82 56  1  0
 82 92  1  0
 82 83  1  0
 83 86  1  0
 84 83  1  0
 84 88  1  0
 85 84  2  0
 88 87  1  0
 88 90  1  0
 90 91  1  0
 90 89  1  0
 92 95  1  1
 92 93  1  0
 94 92  1  0
M  ISO  4   8 100  16 100  54 101  55 101
M  END
>  <TORSDO>  (5) 
F 21

>  <SCORE>  (5) 
-5.862

>  <name>  (5) 
4

>  <ligand_id>  (5) 
4

>  <original_smiles>  (5) 
[H]c1c([H])c([H])c2c(c1[H])C([H])([H])C([H])([H])C([H])([H])C2([H])N([H])C(=O)C1([H])N(C(=O)C([H])(N([H])C(=O)C([H])(N([H])C([H])([H])[H])C([H])([H])[H])C(C([H])([H])[H])(C([H])([H])[H])C([H])([H])[H])C([H])([H])c2c([H])c(OC([H])([H])C([H])([H])C(=O)C([H])([H])C3([H])C([H])([H])C([H])(N([H])C(=O)N4C([H])([H])C([H])([H])C([H])([H])C([H])(n5nc(-c6c([H])c([H])c(Oc7c([H])c([H])c(F)c([H])c7F)c([H])c6[H])c(C(=O)N([H])[H])c5N([H])[H])C4([H])[H])C(=O)C([H])(C(C([H])([H])[H])(C([H])([H])[H])C([H])([H])[H])C3([H])[H])c([H])c([H])c2C1([H])[H]

>  <smiles>  (5) 
[H]c1c([H])c([H])c2c(c1[H])C([H])([H])C([H])([H])C([H])([H])C2([H])N([H])C(=O)C1([H])N(C(=O)C([H])(N([H])C(=O)C([H])(N([H])C([H])([H])[H])C([H])([H])[H])C(C([H])([H])[H])(C([H])([H])[H])C([H])([H])[H])C([H])([H])c2c([H])c(OC([H])([H])C([H])([H])C(=O)C([H])([H])C3([H])C([H])([H])C([H])(N([H])C(=O)N4C([H])([H])C([H])([H])C([H])([H])C([H])(n5nc(-c6c([H])c([H])c(Oc7c([H])c([H])c(F)c([H])c7F)c([H])c6[H])c(C(=O)N([H])[H])c5N([H])[H])C4([H])[H])C(=O)C([H])(C(C([H])([H])[H])(C([H])([H])[H])C([H])([H])[H])C3([H])[H])c([H])c([H])c2C1([H])[H]

$$$$
5:0:0
     RDKit          3D

 91 99  0  0  1  0  0  0  0  0999 V2000
  -27.9470  -20.8790   19.3660 C   0  0  0  0  0  2  0  0  0  0  0  0
  -29.5590  -21.2080   21.1490 C   0  0  0  0  0  2  0  0  0  0  0  0
  -28.0250  -22.4260   19.0010 C   0  0  0  0  0  2  0  0  0  0  0  0
  -29.6270  -22.7790   20.7970 C   0  0  0  0  0  2  0  0  0  0  0  0
  -29.2330  -20.2010   19.9740 C   0  0  0  0  0  3  0  0  0  0  0  0
  -28.3590  -23.4610   20.1430 C   0  0  0  0  0  3  0  0  0  0  0  0
  -29.0620  -18.6070   20.3090 C   0  0  0  0  0  0  0  0  0  0  0  0
  -27.9350  -18.2310   20.6430 O   0  0  0  0  0  0  0  0  0  0  0  0
  -30.2420  -17.4690   20.2330 C   0  0  0  0  0  3  0  0  0  0  0  0
  -30.5940  -14.8160   20.0560 C   0  0  0  0  0  0  0  0  0  0  0  0
  -30.3570  -12.5260   19.0570 C   0  0  0  0  0  2  0  0  0  0  0  0
  -29.3670  -12.5800   17.8730 C   0  0  0  0  0  2  0  0  0  0  0  0
  -27.9190  -12.4010   18.3690 C   0  0  0  0  0  2  0  0  0  0  0  0
  -27.5960  -13.2900   19.6000 C   0  0  0  0  0  3  0  0  0  0  0  0
  -28.7030  -13.2180   20.6730 C   0  0  0  0  0  2  0  0  0  0  0  0
  -29.9640  -13.5870   20.0190 N   0  0  0  0  0  0  0  0  0  0  0  0
  -31.7610  -14.8980   19.6630 O   0  0  0  0  0  0  0  0  0  0  0  0
  -29.8590  -15.9700   20.3440 N   0  0  0  0  0  0  0  0  0  0  0  0
  -28.8980  -15.8120   20.6120 H   0  0  0  0  0  0  0  0  0  0  0  0
  -25.2530  -13.8750   20.4580 C   0  0  0  0  0  0  0  0  0  0  0  0
  -24.2010  -13.1000   20.8630 C   0  0  0  0  0  0  0  0  0  0  0  0
  -24.6530  -11.7470   20.7810 C   0  0  0  0  0  0  0  0  0  0  0  0
  -26.2770  -12.9960   20.1520 N   0  0  0  0  0  0  0  0  0  0  0  0
  -25.9270  -11.7090   20.4090 N   0  0  0  0  0  0  0  0  0  0  0  0
  -23.9270  -10.4860   20.9780 C   0  0  0  0  0  0  0  0  0  0  0  0
  -24.3750   -9.5100   21.8960 C   0  0  0  0  0  3  0  0  0  0  0  0
  -23.6480   -8.3140   22.0810 C   0  0  0  0  0  3  0  0  0  0  0  0
  -22.4590   -8.0860   21.3490 C   0  0  0  0  0  0  0  0  0  0  0  0
  -22.0300   -9.0490   20.4200 C   0  0  0  0  0  3  0  0  0  0  0  0
  -22.7570  -10.2360   20.2330 C   0  0  0  0  0  3  0  0  0  0  0  0
  -21.7010   -6.9430   21.4470 O   0  0  0  0  0  0  0  0  0  0  0  0
  -21.6450   -6.2120   22.6060 C   0  0  0  0  0  0  0  0  0  0  0  0
  -21.1860   -6.7720   23.8190 C   0  0  0  0  0  3  0  0  0  0  0  0
  -21.0790   -5.9660   24.9700 C   0  0  0  0  0  3  0  0  0  0  0  0
  -21.4230   -4.6010   24.9090 C   0  0  0  0  0  0  0  0  0  0  0  0
  -21.8740   -4.0410   23.7020 C   0  0  0  0  0  3  0  0  0  0  0  0
  -21.9830   -4.8440   22.5520 C   0  0  0  0  0  0  0  0  0  0  0  0
  -22.3990   -4.2950   21.3860 F   0  0  0  0  0  0  0  0  0  0  0  0
  -21.3130   -3.8240   26.0130 F   0  0  0  0  0  0  0  0  0  0  0  0
  -22.8220  -13.5790   21.2090 C   0  0  0  0  0  0  0  0  0  0  0  0
  -22.1270  -12.8670   22.0890 N   0  0  0  0  0  0  0  0  0  0  0  0
  -22.3720  -14.6220   20.7370 O   0  0  0  0  0  0  0  0  0  0  0  0
  -22.5050  -12.0210   22.4910 H   0  0  0  0  0  0  0  0  0  0  0  0
  -21.2040  -13.1700   22.3630 H   0  0  0  0  0  0  0  0  0  0  0  0
  -25.4160  -15.2490   20.3040 N   0  0  0  0  0  0  0  0  0  0  0  0
  -24.6610  -15.9030   20.4820 H   0  0  0  0  0  0  0  0  0  0  0  0
  -26.2540  -15.7040   19.9640 H   0  0  0  0  0  0  0  0  0  0  0  0
  -30.9340  -17.6470   22.7240 C   0  0  0  0  0  1  0  0  0  0  0  0
  -31.3610  -17.7870   21.2530 C   0  0  0  0  0  2  0  0  0  0  0  0
  -28.4500  -25.0190   19.5790 C   0  0  0  0  0  2  0  0  0  0  0  0
  -28.3140  -26.3460   20.3070 O   0  0  0  0  0  0  0  0  0  0  0  0
  -24.5990  -31.8910   23.2190 C   0  0  0  0  0  0  0  0  0  0  0  0
  -27.2140  -27.2430   20.1990 C   0  0  0  0  0  0  0  0  0  0  0  0
  -23.4090  -30.4920   21.5720 C   0  0  0  0  0  3  0  0  0  0  0  0
  -24.8650  -28.9250   20.1580 C   0  0  0  0  0  0  0  0  0  0  0  0
  -25.9560  -30.7810   21.4160 C   0  0  0  0  0  2  0  0  0  0  0  0
  -26.0340  -29.3940   20.7690 C   0  0  0  0  0  0  0  0  0  0  0  0
  -27.2050  -28.5630   20.7800 C   0  0  0  0  0  3  0  0  0  0  0  0
  -26.0140  -26.8480   19.5640 C   0  0  0  0  0  3  0  0  0  0  0  0
  -24.8630  -27.6630   19.5440 C   0  0  0  0  0  3  0  0  0  0  0  0
  -23.6350  -29.8130   20.1950 C   0  0  0  0  0  2  0  0  0  0  0  0
  -24.6740  -31.0750   22.1240 N   0  0  0  0  0  0  0  0  0  0  0  0
  -23.5100  -32.1730   23.7420 O   0  0  0  0  0  0  0  0  0  0  0  0
  -22.7300  -29.4830   22.5320 C   0  0  0  0  0  0  0  0  0  0  0  0
  -21.4010  -29.3200   22.4050 N   0  0  0  0  0  0  0  0  0  0  0  0
  -23.3990  -28.8490   23.3520 O   0  0  0  0  0  0  0  0  0  0  0  0
  -20.9190  -29.8810   21.7180 H   0  0  0  0  0  0  0  0  0  0  0  0
  -18.0070  -28.1730   22.9240 C   0  0  0  0  0  0  0  0  0  0  0  0
  -20.5720  -28.3880   23.1740 C   0  0  0  0  0  3  0  0  0  0  0  0
  -20.6460  -26.9620   22.5810 C   0  0  0  0  0  2  0  0  0  0  0  0
  -19.5290  -26.6680   21.5730 C   0  0  0  0  0  2  0  0  0  0  0  0
  -18.1560  -26.8290   22.2310 C   0  0  0  0  0  2  0  0  0  0  0  0
  -19.1430  -28.9120   23.3530 C   0  0  0  0  0  0  0  0  0  0  0  0
  -18.9490  -30.1710   23.9620 C   0  0  0  0  0  3  0  0  0  0  0  0
  -17.6540  -30.6910   24.1470 C   0  0  0  0  0  3  0  0  0  0  0  0
  -16.5340  -29.9490   23.7350 C   0  0  0  0  0  3  0  0  0  0  0  0
  -16.7110  -28.6920   23.1300 C   0  0  0  0  0  3  0  0  0  0  0  0
  -25.8750  -32.5250   23.8520 C   0  0  0  0  0  3  0  0  0  0  0  0
  -26.3690  -31.7640   25.1440 C   0  0  1  0  0  0  0  0  0  0  0  0
  -25.2600  -31.5430   26.1990 C   0  0  0  0  0  1  0  0  0  0  0  0
  -26.9510  -30.3810   24.7760 C   0  0  0  0  0  1  0  0  0  0  0  0
  -27.5130  -32.5610   25.8160 C   0  0  0  0  0  1  0  0  0  0  0  0
  -25.5660  -33.9280   24.1680 N   0  0  0  0  0  0  0  0  0  0  0  0
  -25.9040  -34.9750   23.4050 C   0  0  0  0  0  0  0  0  0  0  0  0
  -26.5760  -34.8630   22.3760 O   0  0  0  0  0  0  0  0  0  0  0  0
  -24.9720  -34.0900   24.9690 H   0  0  0  0  0  0  0  0  0  0  0  0
  -24.1840  -36.7740   23.0310 C   0  0  0  0  0  1  0  0  0  0  0  0
  -25.4190  -36.3680   23.8520 C   0  0  0  0  0  3  0  0  0  0  0  0
  -27.5490  -37.2540   24.6920 C   0  0  0  0  0  1  0  0  0  0  0  0
  -26.4550  -37.4180   23.7400 N   0  0  0  0  0  0  0  0  0  0  0  0
  -26.0500  -38.3410   23.8770 H   0  0  0  0  0  0  0  0  0  0  0  0
  1  5  1  0
  3  1  1  0
  3  6  1  0
  4  2  1  0
  5  7  1  0
  5  2  1  0
  6 50  1  0
  6  4  1  0
  7  8  2  0
  9  7  1  0
  9 18  1  0
  9 49  1  0
 10 18  1  0
 11 16  1  0
 12 13  1  0
 12 11  1  0
 14 13  1  0
 14 23  1  0
 14 15  1  0
 16 10  1  0
 16 15  1  0
 17 10  2  0
 18 19  1  0
 20 21  2  0
 21 40  1  0
 22 21  1  0
 22 25  1  0
 23 24  1  0
 23 20  1  0
 24 22  2  0
 25 26  1  0
 26 27  2  0
 28 31  1  0
 28 27  1  0
 29 28  2  0
 30 29  1  0
 30 25  2  0
 31 32  1  0
 32 33  1  0
 33 34  2  0
 35 34  1  0
 35 39  1  0
 36 35  2  0
 37 32  2  0
 37 36  1  0
 38 37  1  0
 40 41  1  0
 41 44  1  0
 41 43  1  0
 42 40  2  0
 45 20  1  0
 45 46  1  0
 47 45  1  0
 49 48  1  0
 50 51  1  0
 52 63  2  0
 53 51  1  0
 53 58  1  0
 54 62  1  0
 54 64  1  0
 55 61  1  0
 55 57  1  0
 56 62  1  0
 57 58  2  0
 57 56  1  0
 59 53  2  0
 60 59  1  0
 60 55  2  0
 61 54  1  0
 62 52  1  0
 64 66  2  0
 65 64  1  0
 67 65  1  0
 68 77  2  0
 68 73  1  0
 69 65  1  0
 69 73  1  0
 70 69  1  0
 71 72  1  0
 71 70  1  0
 72 68  1  0
 73 74  2  0
 74 75  1  0
 76 75  2  0
 77 76  1  0
 78 52  1  0
 78 83  1  0
 78 79  1  0
 79 82  1  1
 79 80  1  0
 81 79  1  0
 83 86  1  0
 84 88  1  0
 84 83  1  0
 85 84  2  0
 88 87  1  0
 90 88  1  0
 90 91  1  0
 90 89  1  0
M  ISO  4  10 100  18 100  50 101  51 101
M  END
>  <TORSDO>  (6) 
F 20

>  <SCORE>  (6) 
-13.925

>  <name>  (6) 
5

>  <ligand_id>  (6) 
5

>  <original_smiles>  (6) 
[H]c1c([H])c([H])c2c(c1[H])C([H])([H])C([H])([H])C([H])([H])C2([H])N([H])C(=O)C1([H])N(C(=O)C([H])(N([H])C(=O)C([H])(N([H])C([H])([H])[H])C([H])([H])[H])C(C([H])([H])[H])(C([H])([H])[H])C([H])([H])[H])C([H])([H])c2c([H])c(OC([H])([H])C3([H])C([H])([H])C([H])([H])C([H])(C(=O)C([H])(N([H])C(=O)N4C([H])([H])C([H])([H])C([H])([H])C([H])(n5nc(-c6c([H])c([H])c(Oc7c([H])c([H])c(F)c([H])c7F)c([H])c6[H])c(C(=O)N([H])[H])c5N([H])[H])C4([H])[H])C([H])([H])C([H])([H])[H])C([H])([H])C3([H])[H])c([H])c([H])c2C1([H])[H]

>  <smiles>  (6) 
[H]c1c([H])c([H])c2c(c1[H])C([H])([H])C([H])([H])C([H])([H])C2([H])N([H])C(=O)C1([H])N(C(=O)C([H])(N([H])C(=O)C([H])(N([H])C([H])([H])[H])C([H])([H])[H])C(C([H])([H])[H])(C([H])([H])[H])C([H])([H])[H])C([H])([H])c2c([H])c(OC([H])([H])C3([H])C([H])([H])C([H])([H])C([H])(C(=O)C([H])(N([H])C(=O)N4C([H])([H])C([H])([H])C([H])([H])C([H])(n5nc(-c6c([H])c([H])c(Oc7c([H])c([H])c(F)c([H])c7F)c([H])c6[H])c(C(=O)N([H])[H])c5N([H])[H])C4([H])[H])C([H])([H])C([H])([H])[H])C([H])([H])C3([H])[H])c([H])c([H])c2C1([H])[H]

$$$$
6:0:0
     RDKit          3D

 91 99  0  0  1  0  0  0  0  0999 V2000
  -28.9960  -21.0740   19.1800 C   0  0  0  0  0  2  0  0  0  0  0  0
  -30.6650  -21.4090   21.1170 C   0  0  0  0  0  2  0  0  0  0  0  0
  -27.9960  -22.0080   19.9150 C   0  0  0  0  0  2  0  0  0  0  0  0
  -30.1740  -22.8590   20.9480 C   0  0  0  0  0  2  0  0  0  0  0  0
  -30.1350  -20.4340   20.0280 C   0  0  0  0  0  3  0  0  0  0  0  0
  -28.6350  -22.9410   20.9740 C   0  0  0  0  0  3  0  0  0  0  0  0
  -29.7960  -19.0540   20.6500 C   0  0  0  0  0  0  0  0  0  0  0  0
  -30.6420  -18.0310   20.4110 N   0  0  0  0  0  0  0  0  0  0  0  0
  -28.8410  -18.9470   21.4220 O   0  0  0  0  0  0  0  0  0  0  0  0
  -31.3450  -18.1880   19.7000 H   0  0  0  0  0  0  0  0  0  0  0  0
  -30.9230  -16.9290   21.3520 C   0  0  0  0  0  2  0  0  0  0  0  0
  -30.1540  -15.5910   21.1450 C   0  0  0  0  0  2  0  0  0  0  0  0
  -30.8190  -14.4820   20.2840 C   0  0  0  0  0  0  0  0  0  0  0  0
  -30.5090  -12.3580   19.0400 C   0  0  0  0  0  2  0  0  0  0  0  0
  -29.5260  -12.5810   17.8700 C   0  0  0  0  0  2  0  0  0  0  0  0
  -28.0630  -12.4400   18.3360 C   0  0  0  0  0  2  0  0  0  0  0  0
  -27.7670  -13.2530   19.6250 C   0  0  0  0  0  3  0  0  0  0  0  0
  -28.8470  -12.9830   20.6950 C   0  0  0  0  0  2  0  0  0  0  0  0
  -30.1580  -13.3060   20.1090 N   0  0  0  0  0  0  0  0  0  0  0  0
  -31.8970  -14.7150   19.7230 O   0  0  0  0  0  0  0  0  0  0  0  0
  -25.3930  -13.8810   20.3980 C   0  0  0  0  0  0  0  0  0  0  0  0
  -24.3270  -13.1150   20.7960 C   0  0  0  0  0  0  0  0  0  0  0  0
  -24.7780  -11.7610   20.7500 C   0  0  0  0  0  0  0  0  0  0  0  0
  -26.4230  -12.9910   20.1340 N   0  0  0  0  0  0  0  0  0  0  0  0
  -26.0580  -11.7110   20.4020 N   0  0  0  0  0  0  0  0  0  0  0  0
  -24.0490  -10.5030   20.9540 C   0  0  0  0  0  0  0  0  0  0  0  0
  -24.4820   -9.5440   21.8960 C   0  0  0  0  0  3  0  0  0  0  0  0
  -23.7540   -8.3500   22.0880 C   0  0  0  0  0  3  0  0  0  0  0  0
  -22.5810   -8.1070   21.3360 C   0  0  0  0  0  0  0  0  0  0  0  0
  -22.1670   -9.0530   20.3830 C   0  0  0  0  0  3  0  0  0  0  0  0
  -22.8950  -10.2390   20.1890 C   0  0  0  0  0  3  0  0  0  0  0  0
  -21.8260   -6.9630   21.4350 O   0  0  0  0  0  0  0  0  0  0  0  0
  -21.7550   -6.2460   22.6020 C   0  0  0  0  0  0  0  0  0  0  0  0
  -21.2870   -6.8210   23.8040 C   0  0  0  0  0  3  0  0  0  0  0  0
  -21.1680   -6.0290   24.9630 C   0  0  0  0  0  3  0  0  0  0  0  0
  -21.5030   -4.6630   24.9220 C   0  0  0  0  0  0  0  0  0  0  0  0
  -21.9640   -4.0860   23.7240 C   0  0  0  0  0  3  0  0  0  0  0  0
  -22.0860   -4.8750   22.5680 C   0  0  0  0  0  0  0  0  0  0  0  0
  -22.5100   -4.3120   21.4110 F   0  0  0  0  0  0  0  0  0  0  0  0
  -21.3810   -3.8990   26.0320 F   0  0  0  0  0  0  0  0  0  0  0  0
  -22.9420  -13.6030   21.1070 C   0  0  0  0  0  0  0  0  0  0  0  0
  -22.2290  -12.9100   21.9880 N   0  0  0  0  0  0  0  0  0  0  0  0
  -22.4970  -14.6340   20.6040 O   0  0  0  0  0  0  0  0  0  0  0  0
  -22.6000  -12.0780   22.4230 H   0  0  0  0  0  0  0  0  0  0  0  0
  -21.3000  -13.2220   22.2320 H   0  0  0  0  0  0  0  0  0  0  0  0
  -25.5650  -15.2500   20.2230 N   0  0  0  0  0  0  0  0  0  0  0  0
  -24.8100  -15.9130   20.3650 H   0  0  0  0  0  0  0  0  0  0  0  0
  -26.4150  -15.6860   19.8860 H   0  0  0  0  0  0  0  0  0  0  0  0
  -28.0900  -24.4010   21.0120 C   0  0  0  0  0  2  0  0  0  0  0  0
  -28.5670  -25.3630   19.8920 C   0  0  0  0  0  2  0  0  0  0  0  0
  -28.4630  -26.7480   20.2510 O   0  0  0  0  0  0  0  0  0  0  0  0
  -24.5320  -31.8640   23.1930 C   0  0  0  0  0  0  0  0  0  0  0  0
  -27.2580  -27.4150   20.2050 C   0  0  0  0  0  0  0  0  0  0  0  0
  -23.3630  -30.4470   21.5350 C   0  0  0  0  0  3  0  0  0  0  0  0
  -24.8510  -28.9010   20.1520 C   0  0  0  0  0  0  0  0  0  0  0  0
  -25.8870  -30.8210   21.3790 C   0  0  0  0  0  2  0  0  0  0  0  0
  -25.9910  -29.4420   20.7580 C   0  0  0  0  0  0  0  0  0  0  0  0
  -27.1940  -28.7060   20.7790 C   0  0  0  0  0  3  0  0  0  0  0  0
  -26.0970  -26.8830   19.6000 C   0  0  0  0  0  3  0  0  0  0  0  0
  -24.8990  -27.6230   19.5700 C   0  0  0  0  0  3  0  0  0  0  0  0
  -23.6030  -29.7580   20.1630 C   0  0  0  0  0  2  0  0  0  0  0  0
  -24.6110  -31.0610   22.0960 N   0  0  0  0  0  0  0  0  0  0  0  0
  -23.4390  -32.1340   23.7120 O   0  0  0  0  0  0  0  0  0  0  0  0
  -22.6990  -29.4300   22.4910 C   0  0  0  0  0  0  0  0  0  0  0  0
  -21.3730  -29.2570   22.3510 N   0  0  0  0  0  0  0  0  0  0  0  0
  -23.3720  -28.8020   23.3120 O   0  0  0  0  0  0  0  0  0  0  0  0
  -20.8940  -29.8180   21.6600 H   0  0  0  0  0  0  0  0  0  0  0  0
  -17.9830  -28.1140   22.8350 C   0  0  0  0  0  0  0  0  0  0  0  0
  -20.5430  -28.3250   23.1120 C   0  0  0  0  0  3  0  0  0  0  0  0
  -20.6220  -26.8980   22.5220 C   0  0  0  0  0  2  0  0  0  0  0  0
  -19.5180  -26.6060   21.5020 C   0  0  0  0  0  2  0  0  0  0  0  0
  -18.1360  -26.7700   22.1430 C   0  0  0  0  0  2  0  0  0  0  0  0
  -19.1130  -28.8520   23.2750 C   0  0  0  0  0  0  0  0  0  0  0  0
  -18.9140  -30.1130   23.8770 C   0  0  0  0  0  3  0  0  0  0  0  0
  -17.6180  -30.6360   24.0440 C   0  0  0  0  0  3  0  0  0  0  0  0
  -16.5010  -29.8940   23.6220 C   0  0  0  0  0  3  0  0  0  0  0  0
  -16.6850  -28.6340   23.0230 C   0  0  0  0  0  3  0  0  0  0  0  0
  -25.8040  -32.5030   23.8350 C   0  0  0  0  0  3  0  0  0  0  0  0
  -25.4800  -33.8970   24.1640 N   0  0  0  0  0  0  0  0  0  0  0  0
  -25.8180  -34.9560   23.4140 C   0  0  0  0  0  0  0  0  0  0  0  0
  -26.5060  -34.8590   22.3950 O   0  0  0  0  0  0  0  0  0  0  0  0
  -24.8760  -34.0430   24.9590 H   0  0  0  0  0  0  0  0  0  0  0  0
  -24.0910  -36.7410   23.0230 C   0  0  0  0  0  1  0  0  0  0  0  0
  -25.3120  -36.3390   23.8650 C   0  0  0  0  0  3  0  0  0  0  0  0
  -27.4180  -37.2350   24.7540 C   0  0  0  0  0  1  0  0  0  0  0  0
  -26.3410  -37.3980   23.7830 N   0  0  0  0  0  0  0  0  0  0  0  0
  -25.9250  -38.3160   23.9220 H   0  0  0  0  0  0  0  0  0  0  0  0
  -26.3090  -31.7300   25.1130 C   0  0  1  0  0  0  0  0  0  0  0  0
  -25.2060  -31.4740   26.1660 C   0  0  0  0  0  1  0  0  0  0  0  0
  -26.9090  -30.3610   24.7140 C   0  0  0  0  0  1  0  0  0  0  0  0
  -27.4410  -32.5320   25.7980 C   0  0  0  0  0  1  0  0  0  0  0  0
  1  3  1  0
  1  5  1  0
  3  6  1  0
  4  6  1  0
  4  2  1  0
  5  7  1  0
  5  2  1  0
  6 49  1  0
  7  9  2  0
  8  7  1  0
  8 11  1  0
 10  8  1  0
 12 11  1  0
 13 12  1  0
 14 19  1  0
 15 16  1  0
 15 14  1  0
 17 16  1  0
 17 24  1  0
 17 18  1  0
 19 13  1  0
 19 18  1  0
 20 13  2  0
 21 22  2  0
 22 41  1  0
 23 22  1  0
 23 26  1  0
 24 21  1  0
 24 25  1  0
 25 23  2  0
 26 27  1  0
 27 28  2  0
 29 32  1  0
 29 28  1  0
 30 29  2  0
 31 30  1  0
 31 26  2  0
 32 33  1  0
 33 34  1  0
 34 35  2  0
 36 35  1  0
 36 40  1  0
 37 36  2  0
 38 33  2  0
 38 37  1  0
 39 38  1  0
 41 42  1  0
 42 45  1  0
 42 44  1  0
 43 41  2  0
 46 47  1  0
 46 21  1  0
 48 46  1  0
 50 51  1  0
 50 49  1  0
 52 63  2  0
 53 51  1  0
 53 58  1  0
 54 62  1  0
 54 64  1  0
 55 61  1  0
 55 57  1  0
 56 62  1  0
 57 58  2  0
 57 56  1  0
 59 53  2  0
 60 59  1  0
 60 55  2  0
 61 54  1  0
 62 52  1  0
 64 66  2  0
 65 64  1  0
 67 65  1  0
 68 77  2  0
 68 73  1  0
 69 65  1  0
 69 73  1  0
 70 69  1  0
 71 72  1  0
 71 70  1  0
 72 68  1  0
 73 74  2  0
 74 75  1  0
 76 75  2  0
 77 76  1  0
 78 52  1  0
 78 79  1  0
 78 88  1  0
 79 82  1  0
 80 84  1  0
 80 79  1  0
 81 80  2  0
 84 83  1  0
 86 84  1  0
 86 87  1  0
 86 85  1  0
 88 91  1  1
 88 89  1  0
 90 88  1  0
M  ISO  4  12 100  13 100  50 101  51 101
M  END
>  <TORSDO>  (7) 
F 21

>  <SCORE>  (7) 
-13.146

>  <name>  (7) 
6

>  <ligand_id>  (7) 
6

>  <original_smiles>  (7) 
[H]c1c([H])c([H])c2c(c1[H])C([H])([H])C([H])([H])C([H])([H])C2([H])N([H])C(=O)C1([H])N(C(=O)C([H])(N([H])C(=O)C([H])(N([H])C([H])([H])[H])C([H])([H])[H])C(C([H])([H])[H])(C([H])([H])[H])C([H])([H])[H])C([H])([H])c2c([H])c(OC([H])([H])C([H])([H])C3([H])C([H])([H])C([H])([H])C([H])(C(=O)N([H])C([H])([H])C([H])([H])C(=O)N4C([H])([H])C([H])([H])C([H])([H])C([H])(n5nc(-c6c([H])c([H])c(Oc7c([H])c([H])c(F)c([H])c7F)c([H])c6[H])c(C(=O)N([H])[H])c5N([H])[H])C4([H])[H])C([H])([H])C3([H])[H])c([H])c([H])c2C1([H])[H]

>  <smiles>  (7) 
[H]c1c([H])c([H])c2c(c1[H])C([H])([H])C([H])([H])C([H])([H])C2([H])N([H])C(=O)C1([H])N(C(=O)C([H])(N([H])C(=O)C([H])(N([H])C([H])([H])[H])C([H])([H])[H])C(C([H])([H])[H])(C([H])([H])[H])C([H])([H])[H])C([H])([H])c2c([H])c(OC([H])([H])C([H])([H])C3([H])C([H])([H])C([H])([H])C([H])(C(=O)N([H])C([H])([H])C([H])([H])C(=O)N4C([H])([H])C([H])([H])C([H])([H])C([H])(n5nc(-c6c([H])c([H])c(Oc7c([H])c([H])c(F)c([H])c7F)c([H])c6[H])c(C(=O)N([H])[H])c5N([H])[H])C4([H])[H])C([H])([H])C3([H])[H])c([H])c([H])c2C1([H])[H]

$$$$
8:0:0
     RDKit          3D

 88 95  0  0  1  0  0  0  0  0999 V2000
  -27.2750  -22.1870   21.1440 C   0  0  0  0  0  1  0  0  0  0  0  0
  -28.7570  -22.4630   20.8180 C   0  0  0  0  0  3  0  0  0  0  0  0
  -29.3380  -21.1950   20.0650 C   0  0  0  0  0  0  0  0  0  0  0  0
  -29.4730  -21.2180   18.8370 O   0  0  0  0  0  0  0  0  0  0  0  0
  -29.7530  -19.8980   20.8680 C   0  0  0  0  0  2  0  0  0  0  0  0
  -29.5230  -18.4420   20.2370 C   0  0  0  0  0  3  0  0  0  0  0  0
  -30.3630  -17.2400   20.8670 C   0  0  0  0  0  3  0  0  0  0  0  0
  -30.6400  -14.7110   20.3370 C   0  0  0  0  0  0  0  0  0  0  0  0
  -30.3850  -12.4850   19.2580 C   0  0  0  0  0  2  0  0  0  0  0  0
  -29.4400  -12.6250   18.0450 C   0  0  0  0  0  2  0  0  0  0  0  0
  -27.9670  -12.4730   18.4770 C   0  0  0  0  0  2  0  0  0  0  0  0
  -27.6120  -13.3280   19.7240 C   0  0  0  0  0  3  0  0  0  0  0  0
  -28.6800  -13.1810   20.8310 C   0  0  0  0  0  2  0  0  0  0  0  0
  -29.9840  -13.5110   20.2390 N   0  0  0  0  0  0  0  0  0  0  0  0
  -31.8170  -14.8230   19.9920 O   0  0  0  0  0  0  0  0  0  0  0  0
  -29.8960  -15.8190   20.6480 N   0  0  0  0  0  0  0  0  0  0  0  0
  -28.9240  -15.6370   20.8430 H   0  0  0  0  0  0  0  0  0  0  0  0
  -25.2140  -13.9220   20.4320 C   0  0  0  0  0  0  0  0  0  0  0  0
  -24.1490  -13.1460   20.8050 C   0  0  0  0  0  0  0  0  0  0  0  0
  -24.6170  -11.7980   20.7840 C   0  0  0  0  0  0  0  0  0  0  0  0
  -26.2650  -13.0430   20.2090 N   0  0  0  0  0  0  0  0  0  0  0  0
  -25.9090  -11.7600   20.4790 N   0  0  0  0  0  0  0  0  0  0  0  0
  -23.8910  -10.5360   20.9820 C   0  0  0  0  0  0  0  0  0  0  0  0
  -24.3240   -9.5770   21.9240 C   0  0  0  0  0  3  0  0  0  0  0  0
  -23.6030   -8.3760   22.1060 C   0  0  0  0  0  3  0  0  0  0  0  0
  -22.4320   -8.1320   21.3520 C   0  0  0  0  0  0  0  0  0  0  0  0
  -22.0170   -9.0800   20.4010 C   0  0  0  0  0  3  0  0  0  0  0  0
  -22.7390  -10.2700   20.2150 C   0  0  0  0  0  3  0  0  0  0  0  0
  -21.6740   -6.9910   21.4510 O   0  0  0  0  0  0  0  0  0  0  0  0
  -21.6310   -6.2530   22.6060 C   0  0  0  0  0  0  0  0  0  0  0  0
  -21.2030   -6.8100   23.8320 C   0  0  0  0  0  3  0  0  0  0  0  0
  -21.1070   -5.9970   24.9790 C   0  0  0  0  0  3  0  0  0  0  0  0
  -21.4290   -4.6290   24.9010 C   0  0  0  0  0  0  0  0  0  0  0  0
  -21.8480   -4.0710   23.6820 C   0  0  0  0  0  3  0  0  0  0  0  0
  -21.9460   -4.8810   22.5370 C   0  0  0  0  0  0  0  0  0  0  0  0
  -22.3310   -4.3330   21.3600 F   0  0  0  0  0  0  0  0  0  0  0  0
  -21.3290   -3.8460   26.0020 F   0  0  0  0  0  0  0  0  0  0  0  0
  -22.7500  -13.6210   21.0650 C   0  0  0  0  0  0  0  0  0  0  0  0
  -22.0180  -12.9310   21.9330 N   0  0  0  0  0  0  0  0  0  0  0  0
  -22.3140  -14.6420   20.5380 O   0  0  0  0  0  0  0  0  0  0  0  0
  -22.3820  -12.1040   22.3810 H   0  0  0  0  0  0  0  0  0  0  0  0
  -21.0800  -13.2370   22.1470 H   0  0  0  0  0  0  0  0  0  0  0  0
  -25.3680  -15.2910   20.2420 N   0  0  0  0  0  0  0  0  0  0  0  0
  -24.5890  -15.9350   20.3280 H   0  0  0  0  0  0  0  0  0  0  0  0
  -26.1990  -15.7270   19.8630 H   0  0  0  0  0  0  0  0  0  0  0  0
  -28.9420  -23.9160   20.1480 C   0  0  0  0  0  3  0  0  0  0  0  0
  -28.1190  -25.1500   20.7460 C   0  0  0  0  0  3  0  0  0  0  0  0
  -28.3390  -26.5260   20.2350 O   0  0  0  0  0  0  0  0  0  0  0  0
  -24.5990  -31.9040   23.2770 C   0  0  0  0  0  0  0  0  0  0  0  0
  -27.2250  -27.3780   20.2110 C   0  0  0  0  0  0  0  0  0  0  0  0
  -23.3990  -30.5030   21.6360 C   0  0  0  0  0  3  0  0  0  0  0  0
  -24.8560  -28.9690   20.2000 C   0  0  0  0  0  0  0  0  0  0  0  0
  -25.9350  -30.8420   21.4440 C   0  0  0  0  0  2  0  0  0  0  0  0
  -26.0210  -29.4660   20.7980 C   0  0  0  0  0  0  0  0  0  0  0  0
  -27.2130  -28.6810   20.7940 C   0  0  0  0  0  3  0  0  0  0  0  0
  -26.0430  -26.9380   19.5790 C   0  0  0  0  0  3  0  0  0  0  0  0
  -24.8680  -27.7110   19.5800 C   0  0  0  0  0  3  0  0  0  0  0  0
  -23.6130  -29.8340   20.2520 C   0  0  0  0  0  2  0  0  0  0  0  0
  -24.6640  -31.1000   22.1760 N   0  0  0  0  0  0  0  0  0  0  0  0
  -23.5140  -32.1750   23.8130 O   0  0  0  0  0  0  0  0  0  0  0  0
  -22.7470  -29.4790   22.5940 C   0  0  0  0  0  0  0  0  0  0  0  0
  -21.4230  -29.2900   22.4650 N   0  0  0  0  0  0  0  0  0  0  0  0
  -23.4300  -28.8600   23.4130 O   0  0  0  0  0  0  0  0  0  0  0  0
  -20.9340  -29.8420   21.7750 H   0  0  0  0  0  0  0  0  0  0  0  0
  -18.0560  -28.0560   22.9500 C   0  0  0  0  0  0  0  0  0  0  0  0
  -20.6090  -28.3470   23.2340 C   0  0  0  0  0  3  0  0  0  0  0  0
  -20.7340  -26.9140   22.6650 C   0  0  0  0  0  2  0  0  0  0  0  0
  -19.6420  -26.5740   21.6470 C   0  0  0  0  0  2  0  0  0  0  0  0
  -18.2540  -26.7070   22.2810 C   0  0  0  0  0  2  0  0  0  0  0  0
  -19.1630  -28.8340   23.3820 C   0  0  0  0  0  0  0  0  0  0  0  0
  -18.9250  -30.0970   23.9680 C   0  0  0  0  0  3  0  0  0  0  0  0
  -17.6120  -30.5800   24.1290 C   0  0  0  0  0  3  0  0  0  0  0  0
  -16.5200  -29.8000   23.7080 C   0  0  0  0  0  3  0  0  0  0  0  0
  -16.7440  -28.5410   23.1230 C   0  0  0  0  0  3  0  0  0  0  0  0
  -25.8800  -32.5410   23.8990 C   0  0  0  0  0  3  0  0  0  0  0  0
  -26.3890  -31.7820   25.1860 C   0  0  1  0  0  0  0  0  0  0  0  0
  -25.2920  -31.5550   26.2520 C   0  0  0  0  0  1  0  0  0  0  0  0
  -26.9740  -30.4000   24.8130 C   0  0  0  0  0  1  0  0  0  0  0  0
  -27.5370  -32.5810   25.8440 C   0  0  0  0  0  1  0  0  0  0  0  0
  -25.5710  -33.9420   24.2130 N   0  0  0  0  0  0  0  0  0  0  0  0
  -25.9050  -34.9870   23.4440 C   0  0  0  0  0  0  0  0  0  0  0  0
  -26.5780  -34.8730   22.4160 O   0  0  0  0  0  0  0  0  0  0  0  0
  -24.9820  -34.1040   25.0170 H   0  0  0  0  0  0  0  0  0  0  0  0
  -24.1830  -36.7810   23.0630 C   0  0  0  0  0  1  0  0  0  0  0  0
  -25.4160  -36.3800   23.8860 C   0  0  0  0  0  3  0  0  0  0  0  0
  -27.5460  -37.2710   24.7240 C   0  0  0  0  0  1  0  0  0  0  0  0
  -26.4520  -37.4320   23.7720 N   0  0  0  0  0  0  0  0  0  0  0  0
  -26.0440  -38.3520   23.9080 H   0  0  0  0  0  0  0  0  0  0  0  0
  2  1  1  0
  3  2  1  0
  3  5  1  0
  4  3  2  0
  6  7  2  0
  6  5  1  0
  8 16  1  0
  9 14  1  0
 10 11  1  0
 10  9  1  0
 12 11  1  0
 12 21  1  0
 12 13  1  0
 14  8  1  0
 14 13  1  0
 15  8  2  0
 16 17  1  0
 16  7  1  0
 18 19  2  0
 19 38  1  0
 20 19  1  0
 20 23  1  0
 21 18  1  0
 21 22  1  0
 22 20  2  0
 23 24  1  0
 24 25  2  0
 26 29  1  0
 26 25  1  0
 27 26  2  0
 28 27  1  0
 28 23  2  0
 29 30  1  0
 30 31  1  0
 31 32  2  0
 33 32  1  0
 33 37  1  0
 34 33  2  0
 35 30  2  0
 35 34  1  0
 36 35  1  0
 38 39  1  0
 39 42  1  0
 39 41  1  0
 40 38  2  0
 43 44  1  0
 43 18  1  0
 45 43  1  0
 46 47  2  0
 46  2  1  0
 48 47  1  0
 49 60  2  0
 50 48  1  0
 50 55  1  0
 51 59  1  0
 51 61  1  0
 52 58  1  0
 52 54  1  0
 53 59  1  0
 54 53  1  0
 55 54  2  0
 56 57  1  0
 56 50  2  0
 57 52  2  0
 58 51  1  0
 59 49  1  0
 61 63  2  0
 62 61  1  0
 64 62  1  0
 65 74  2  0
 65 70  1  0
 66 62  1  0
 66 70  1  0
 67 66  1  0
 68 69  1  0
 68 67  1  0
 69 65  1  0
 70 71  2  0
 71 72  1  0
 73 72  2  0
 74 73  1  0
 75 49  1  0
 75 80  1  0
 75 76  1  0
 76 79  1  1
 76 77  1  0
 78 76  1  0
 80 83  1  0
 81 85  1  0
 81 80  1  0
 82 81  2  0
 85 84  1  0
 87 85  1  0
 87 88  1  0
 87 86  1  0
M  ISO  4   8 100  16 100  47 101  48 101
M  END
>  <TORSDO>  (8) 
F 22

>  <SCORE>  (8) 
-12.894

>  <name>  (8) 
8

>  <ligand_id>  (8) 
8

>  <original_smiles>  (8) 
[H]c1c([H])c([H])c2c(c1[H])C([H])([H])C([H])([H])C([H])([H])C2([H])N([H])C(=O)C1([H])N(C(=O)C([H])(N([H])C(=O)C([H])(N([H])C([H])([H])[H])C([H])([H])[H])C(C([H])([H])[H])(C([H])([H])[H])C([H])([H])[H])C([H])([H])c2c([H])c(OC([H])([H])C([H])([H])C([H])(C(=O)C([H])([H])C([H])([H])C([H])([H])N([H])C(=O)N3C([H])([H])C([H])([H])C([H])([H])C([H])(n4nc(-c5c([H])c([H])c(Oc6c([H])c([H])c(F)c([H])c6F)c([H])c5[H])c(C(=O)N([H])[H])c4N([H])[H])C3([H])[H])C([H])([H])[H])c([H])c([H])c2C1([H])[H]

>  <smiles>  (8) 
[H]c1c([H])c([H])c2c(c1[H])C([H])([H])C([H])([H])C([H])([H])C2([H])N([H])C(=O)C1([H])N(C(=O)C([H])(N([H])C(=O)C([H])(N([H])C([H])([H])[H])C([H])([H])[H])C(C([H])([H])[H])(C([H])([H])[H])C([H])([H])[H])C([H])([H])c2c([H])c(OC([H])([H])C([H])([H])C([H])(C(=O)C([H])([H])C([H])([H])C([H])([H])N([H])C(=O)N3C([H])([H])C([H])([H])C([H])([H])C([H])(n4nc(-c5c([H])c([H])c(Oc6c([H])c([H])c(F)c([H])c6F)c([H])c5[H])c(C(=O)N([H])[H])c4N([H])[H])C3([H])[H])C([H])([H])[H])c([H])c([H])c2C1([H])[H]

$$$$
9:0:0
     RDKit          3D

 98106  0  0  1  0  0  0  0  0999 V2000
  -29.2270  -21.0890   18.6860 C   0  0  0  0  0  2  0  0  0  0  0  0
  -29.3190  -19.6260   19.1190 C   0  0  0  0  0  2  0  0  0  0  0  0
  -31.5360  -21.4920   19.6680 C   0  0  0  0  0  2  0  0  0  0  0  0
  -30.0740  -22.0130   19.5740 C   0  0  0  0  0  3  0  0  0  0  0  0
  -31.7030  -19.9520   19.9060 C   0  0  0  0  0  3  0  0  0  0  0  0
  -30.7630  -19.0590   19.0110 C   0  0  2  0  0  0  0  0  0  0  0  0
  -33.1850  -19.5310   19.8030 C   0  0  0  0  0  1  0  0  0  0  0  0
  -29.9740  -23.4670   19.0330 C   0  0  0  0  0  2  0  0  0  0  0  0
  -30.6190  -25.0530   20.9390 C   0  0  0  0  0  1  0  0  0  0  0  0
  -29.4770  -24.5400   20.0360 C   0  0  0  0  0  3  0  0  0  0  0  0
  -28.7930  -25.6960   19.2760 C   0  0  0  0  0  2  0  0  0  0  0  0
  -28.4290  -26.7080   20.2110 O   0  0  0  0  0  0  0  0  0  0  0  0
  -24.6110  -31.8380   23.2010 C   0  0  0  0  0  0  0  0  0  0  0  0
  -27.2160  -27.3560   20.1620 C   0  0  0  0  0  0  0  0  0  0  0  0
  -23.3850  -30.4280   21.5770 C   0  0  0  0  0  3  0  0  0  0  0  0
  -24.8180  -28.8600   20.1710 C   0  0  0  0  0  0  0  0  0  0  0  0
  -25.9100  -30.7670   21.3690 C   0  0  0  0  0  2  0  0  0  0  0  0
  -25.9770  -29.3850   20.7530 C   0  0  0  0  0  0  0  0  0  0  0  0
  -27.1690  -28.6360   20.7530 C   0  0  0  0  0  3  0  0  0  0  0  0
  -26.0320  -26.8270   19.5930 C   0  0  0  0  0  3  0  0  0  0  0  0
  -24.8400  -27.5780   19.5920 C   0  0  0  0  0  3  0  0  0  0  0  0
  -23.5810  -29.7260   20.2040 C   0  0  0  0  0  2  0  0  0  0  0  0
  -24.6550  -31.0260   22.1060 N   0  0  0  0  0  0  0  0  0  0  0  0
  -23.5340  -32.1250   23.7400 O   0  0  0  0  0  0  0  0  0  0  0  0
  -22.7280  -29.4260   22.5530 C   0  0  0  0  0  0  0  0  0  0  0  0
  -21.4060  -29.2460   22.4240 N   0  0  0  0  0  0  0  0  0  0  0  0
  -23.4060  -28.8160   23.3860 O   0  0  0  0  0  0  0  0  0  0  0  0
  -20.9200  -29.7940   21.7270 H   0  0  0  0  0  0  0  0  0  0  0  0
  -18.0270  -28.0510   22.9000 C   0  0  0  0  0  0  0  0  0  0  0  0
  -20.5810  -28.3230   23.2030 C   0  0  0  0  0  3  0  0  0  0  0  0
  -20.6970  -26.8780   22.6660 C   0  0  0  0  0  2  0  0  0  0  0  0
  -19.6100  -26.5260   21.6450 C   0  0  0  0  0  2  0  0  0  0  0  0
  -18.2180  -26.6840   22.2640 C   0  0  0  0  0  2  0  0  0  0  0  0
  -19.1380  -28.8250   23.3280 C   0  0  0  0  0  0  0  0  0  0  0  0
  -18.9090  -30.1030   23.8820 C   0  0  0  0  0  3  0  0  0  0  0  0
  -17.6010  -30.6070   24.0140 C   0  0  0  0  0  3  0  0  0  0  0  0
  -16.5040  -29.8310   23.6000 C   0  0  0  0  0  3  0  0  0  0  0  0
  -16.7180  -28.5540   23.0490 C   0  0  0  0  0  3  0  0  0  0  0  0
  -25.9060  -32.4590   23.8120 C   0  0  0  0  0  3  0  0  0  0  0  0
  -26.4440  -31.6730   25.0710 C   0  0  1  0  0  0  0  0  0  0  0  0
  -25.3660  -31.4190   26.1490 C   0  0  0  0  0  1  0  0  0  0  0  0
  -27.0250  -30.3050   24.6460 C   0  0  0  0  0  1  0  0  0  0  0  0
  -27.6050  -32.4580   25.7250 C   0  0  0  0  0  1  0  0  0  0  0  0
  -25.6050  -33.8540   24.1610 N   0  0  0  0  0  0  0  0  0  0  0  0
  -25.9270  -34.9130   23.4050 C   0  0  0  0  0  0  0  0  0  0  0  0
  -26.5800  -34.8180   22.3640 O   0  0  0  0  0  0  0  0  0  0  0  0
  -25.0230  -34.0050   24.9720 H   0  0  0  0  0  0  0  0  0  0  0  0
  -24.1950  -36.7090   23.0930 C   0  0  0  0  0  1  0  0  0  0  0  0
  -25.4470  -36.2980   23.8840 C   0  0  0  0  0  3  0  0  0  0  0  0
  -27.5900  -37.1740   24.6970 C   0  0  0  0  0  1  0  0  0  0  0  0
  -26.4780  -37.3520   23.7670 N   0  0  0  0  0  0  0  0  0  0  0  0
  -26.0750  -38.2730   23.9220 H   0  0  0  0  0  0  0  0  0  0  0  0
  -31.2960  -19.1930   17.5420 C   0  0  0  0  0  2  0  0  0  0  0  0
  -30.4510  -18.6310   16.3840 C   0  0  0  0  0  2  0  0  0  0  0  0
  -31.0390  -19.0280   15.0920 N   0  0  0  0  0  4  0  0  0  0  0  0
  -30.9980  -20.0260   14.9900 H   0  0  0  0  0  0  0  0  0  0  0  0
  -30.5380  -18.6130   14.3250 H   0  0  0  0  0  0  0  0  0  0  0  0
  -32.0000  -18.7410   15.0360 H   0  0  0  0  0  0  0  0  0  0  0  0
  -30.7390  -17.5200   19.3870 C   0  0  0  0  0  2  0  0  0  0  0  0
  -30.0230  -17.7730   21.8910 C   0  0  0  0  0  1  0  0  0  0  0  0
  -30.8770  -16.9960   20.8630 C   0  0  0  0  0  3  0  0  0  0  0  0
  -30.4880  -15.4870   21.0870 C   0  0  0  0  0  2  0  0  0  0  0  0
  -31.0940  -14.3590   20.2170 C   0  0  0  0  0  0  0  0  0  0  0  0
  -30.6860  -12.2740   18.9370 C   0  0  0  0  0  2  0  0  0  0  0  0
  -29.7220  -12.5830   17.7740 C   0  0  0  0  0  2  0  0  0  0  0  0
  -28.2490  -12.5100   18.2230 C   0  0  0  0  0  2  0  0  0  0  0  0
  -27.9830  -13.2650   19.5530 C   0  0  0  0  0  3  0  0  0  0  0  0
  -29.0540  -12.9210   20.6110 C   0  0  0  0  0  2  0  0  0  0  0  0
  -30.3770  -13.2120   20.0260 N   0  0  0  0  0  0  0  0  0  0  0  0
  -32.1880  -14.5470   19.6770 O   0  0  0  0  0  0  0  0  0  0  0  0
  -25.6070  -13.9450   20.2640 C   0  0  0  0  0  0  0  0  0  0  0  0
  -24.5160  -13.2090   20.6490 C   0  0  0  0  0  0  0  0  0  0  0  0
  -24.9380  -11.8450   20.6320 C   0  0  0  0  0  0  0  0  0  0  0  0
  -26.6250  -13.0310   20.0420 N   0  0  0  0  0  0  0  0  0  0  0  0
  -26.2250  -11.7610   20.3140 N   0  0  0  0  0  0  0  0  0  0  0  0
  -24.1760  -10.6080   20.8470 C   0  0  0  0  0  0  0  0  0  0  0  0
  -24.5600   -9.6600   21.8220 C   0  0  0  0  0  3  0  0  0  0  0  0
  -23.8040   -8.4840   22.0180 C   0  0  0  0  0  3  0  0  0  0  0  0
  -22.6460   -8.2510   21.2390 C   0  0  0  0  0  0  0  0  0  0  0  0
  -22.2770   -9.1870   20.2560 C   0  0  0  0  0  3  0  0  0  0  0  0
  -23.0360  -10.3540   20.0570 C   0  0  0  0  0  3  0  0  0  0  0  0
  -21.8640   -7.1260   21.3430 O   0  0  0  0  0  0  0  0  0  0  0  0
  -21.7240   -6.4530   22.5320 C   0  0  0  0  0  0  0  0  0  0  0  0
  -21.2130   -7.0840   23.6850 C   0  0  0  0  0  3  0  0  0  0  0  0
  -21.0150   -6.3400   24.8660 C   0  0  0  0  0  3  0  0  0  0  0  0
  -21.3220   -4.9660   24.8900 C   0  0  0  0  0  0  0  0  0  0  0  0
  -21.8270   -4.3340   23.7400 C   0  0  0  0  0  3  0  0  0  0  0  0
  -22.0230   -5.0760   22.5600 C   0  0  0  0  0  0  0  0  0  0  0  0
  -22.4890   -4.4570   21.4490 F   0  0  0  0  0  0  0  0  0  0  0  0
  -21.1250   -4.2470   26.0180 F   0  0  0  0  0  0  0  0  0  0  0  0
  -23.1390  -13.7370   20.9350 C   0  0  0  0  0  0  0  0  0  0  0  0
  -22.4040  -13.0830   21.8290 N   0  0  0  0  0  0  0  0  0  0  0  0
  -22.7260  -14.7680   20.4110 O   0  0  0  0  0  0  0  0  0  0  0  0
  -22.7440  -12.2430   22.2680 H   0  0  0  0  0  0  0  0  0  0  0  0
  -21.4870  -13.4350   22.0680 H   0  0  0  0  0  0  0  0  0  0  0  0
  -25.8140  -15.3070   20.0660 N   0  0  0  0  0  0  0  0  0  0  0  0
  -25.0890  -16.0080   20.1750 H   0  0  0  0  0  0  0  0  0  0  0  0
  -26.6930  -15.7050   19.7630 H   0  0  0  0  0  0  0  0  0  0  0  0
  1  2  1  0
  1  4  1  0
  3  5  1  0
  4  8  1  0
  4  3  1  0
  5  7  1  0
  6 53  1  6
  6  2  1  0
  6 59  1  0
  6  5  1  0
  8 10  1  0
 10  9  1  0
 11 10  1  0
 11 12  1  0
 13 24  2  0
 14 12  1  0
 14 19  1  0
 15 23  1  0
 15 25  1  0
 16 22  1  0
 16 18  1  0
 17 23  1  0
 18 19  2  0
 18 17  1  0
 20 14  2  0
 21 20  1  0
 21 16  2  0
 22 15  1  0
 23 13  1  0
 25 27  2  0
 26 25  1  0
 28 26  1  0
 29 38  2  0
 29 34  1  0
 30 26  1  0
 30 34  1  0
 31 30  1  0
 32 33  1  0
 32 31  1  0
 33 29  1  0
 34 35  2  0
 35 36  1  0
 37 36  2  0
 38 37  1  0
 39 13  1  0
 39 44  1  0
 39 40  1  0
 40 43  1  1
 40 41  1  0
 42 40  1  0
 44 47  1  0
 45 49  1  0
 45 44  1  0
 46 45  2  0
 49 48  1  0
 51 49  1  0
 51 52  1  0
 51 50  1  0
 54 53  1  0
 55 54  1  0
 56 55  1  0
 57 55  1  0
 58 55  1  0
 59 61  1  0
 61 62  1  0
 61 60  1  0
 63 62  1  0
 64 69  1  0
 65 66  1  0
 65 64  1  0
 67 66  1  0
 67 74  1  0
 67 68  1  0
 69 63  1  0
 69 68  1  0
 70 63  2  0
 71 72  2  0
 72 91  1  0
 73 72  1  0
 73 76  1  0
 74 71  1  0
 74 75  1  0
 75 73  2  0
 76 77  1  0
 77 78  2  0
 79 82  1  0
 79 78  1  0
 80 79  2  0
 81 80  1  0
 81 76  2  0
 82 83  1  0
 83 88  2  0
 83 84  1  0
 84 85  2  0
 85 86  1  0
 86 90  1  0
 87 86  2  0
 88 87  1  0
 89 88  1  0
 91 92  1  0
 92 95  1  0
 92 94  1  0
 93 91  2  0
 96 97  1  0
 96 71  1  0
 98 96  1  0
M  ISO  4  11 101  12 101  62 100  63 100
M  END
>  <TORSDO>  (9) 
F 25

>  <SCORE>  (9) 
-12.163

>  <name>  (9) 
9

>  <ligand_id>  (9) 
9

>  <original_smiles>  (9) 
[H]c1c([H])c([H])c2c(c1[H])C([H])([H])C([H])([H])C([H])([H])C2([H])N([H])C(=O)C1([H])N(C(=O)C([H])(N([H])C(=O)C([H])(N([H])C([H])([H])[H])C([H])([H])[H])C(C([H])([H])[H])(C([H])([H])[H])C([H])([H])[H])C([H])([H])c2c([H])c(OC([H])([H])C([H])(C([H])([H])[H])C([H])([H])C3([H])C([H])([H])C([H])([H])C(C([H])([H])C([H])(C([H])([H])[H])C([H])([H])C(=O)N4C([H])([H])C([H])([H])C([H])([H])C([H])(n5nc(-c6c([H])c([H])c(Oc7c([H])c([H])c(F)c([H])c7F)c([H])c6[H])c(C(=O)N([H])[H])c5N([H])[H])C4([H])[H])(C([H])([H])C([H])([H])[N+]([H])([H])[H])C([H])(C([H])([H])[H])C3([H])[H])c([H])c([H])c2C1([H])[H]

>  <smiles>  (9) 
[H]c1c([H])c([H])c2c(c1[H])C([H])([H])C([H])([H])C([H])([H])C2([H])N([H])C(=O)C1([H])N(C(=O)C([H])(N([H])C(=O)C([H])(N([H])C([H])([H])[H])C([H])([H])[H])C(C([H])([H])[H])(C([H])([H])[H])C([H])([H])[H])C([H])([H])c2c([H])c(OC([H])([H])C([H])(C([H])([H])[H])C([H])([H])C3([H])C([H])([H])C([H])([H])C(C([H])([H])C([H])(C([H])([H])[H])C([H])([H])C(=O)N4C([H])([H])C([H])([H])C([H])([H])C([H])(n5nc(-c6c([H])c([H])c(Oc7c([H])c([H])c(F)c([H])c7F)c([H])c6[H])c(C(=O)N([H])[H])c5N([H])[H])C4([H])[H])(C([H])([H])C([H])([H])[N+]([H])([H])[H])C([H])(C([H])([H])[H])C3([H])[H])c([H])c([H])c2C1([H])[H]

$$$$
10:0:0
     RDKit          3D

 96103  0  0  1  0  0  0  0  0999 V2000
  -31.5450  -20.0800   20.9310 C   0  0  0  0  0  2  0  0  0  0  0  0
  -33.1210  -18.1230   21.2970 C   0  0  0  0  0  1  0  0  0  0  0  0
  -32.2160  -19.3150   23.2690 C   0  0  0  0  0  1  0  0  0  0  0  0
  -31.8600  -18.8410   21.8370 C   0  0  1  0  0  0  0  0  0  0  0  0
  -30.6840  -17.8210   21.8910 C   0  0  0  0  0  0  0  0  0  0  0  0
  -30.1790  -17.5190   22.9760 O   0  0  0  0  0  0  0  0  0  0  0  0
  -30.1470  -17.2030   20.5800 C   0  0  0  0  0  3  0  0  0  0  0  0
  -30.7410  -14.7770   20.3230 C   0  0  0  0  0  0  0  0  0  0  0  0
  -30.4910  -12.6710   19.0850 C   0  0  0  0  0  2  0  0  0  0  0  0
  -29.5340  -12.9440   17.9050 C   0  0  0  0  0  2  0  0  0  0  0  0
  -28.0630  -12.7700   18.3340 C   0  0  0  0  0  2  0  0  0  0  0  0
  -27.7280  -13.5200   19.6510 C   0  0  0  0  0  3  0  0  0  0  0  0
  -28.7950  -13.2340   20.7330 C   0  0  0  0  0  2  0  0  0  0  0  0
  -30.1140  -13.5820   20.1750 N   0  0  0  0  0  0  0  0  0  0  0  0
  -31.8690  -15.0150   19.8830 O   0  0  0  0  0  0  0  0  0  0  0  0
  -29.9410  -15.7590   20.7610 N   0  0  0  0  0  0  0  0  0  0  0  0
  -29.0560  -15.4750   21.1500 H   0  0  0  0  0  0  0  0  0  0  0  0
  -25.3040  -14.0680   20.3220 C   0  0  0  0  0  0  0  0  0  0  0  0
  -24.2550  -13.2690   20.6930 C   0  0  0  0  0  0  0  0  0  0  0  0
  -24.7600  -11.9320   20.6890 C   0  0  0  0  0  0  0  0  0  0  0  0
  -26.3770  -13.2150   20.1170 N   0  0  0  0  0  0  0  0  0  0  0  0
  -26.0540  -11.9270   20.3930 N   0  0  0  0  0  0  0  0  0  0  0  0
  -24.0740  -10.6510   20.8920 C   0  0  0  0  0  0  0  0  0  0  0  0
  -24.4820   -9.7490   21.9010 C   0  0  0  0  0  3  0  0  0  0  0  0
  -23.7960   -8.5300   22.0890 C   0  0  0  0  0  3  0  0  0  0  0  0
  -22.6890   -8.2040   21.2680 C   0  0  0  0  0  0  0  0  0  0  0  0
  -22.3050   -9.0940   20.2500 C   0  0  0  0  0  3  0  0  0  0  0  0
  -22.9910  -10.3040   20.0610 C   0  0  0  0  0  3  0  0  0  0  0  0
  -21.9790   -7.0320   21.3620 O   0  0  0  0  0  0  0  0  0  0  0  0
  -21.8310   -6.3740   22.5560 C   0  0  0  0  0  0  0  0  0  0  0  0
  -21.2280   -6.9900   23.6750 C   0  0  0  0  0  3  0  0  0  0  0  0
  -21.0320   -6.2550   24.8620 C   0  0  0  0  0  3  0  0  0  0  0  0
  -21.4270   -4.9050   24.9280 C   0  0  0  0  0  0  0  0  0  0  0  0
  -22.0230   -4.2900   23.8140 C   0  0  0  0  0  3  0  0  0  0  0  0
  -22.2210   -5.0220   22.6300 C   0  0  0  0  0  0  0  0  0  0  0  0
  -22.7760   -4.4170   21.5520 F   0  0  0  0  0  0  0  0  0  0  0  0
  -21.2320   -4.1970   26.0660 F   0  0  0  0  0  0  0  0  0  0  0  0
  -22.8410  -13.7040   20.9460 C   0  0  0  0  0  0  0  0  0  0  0  0
  -22.1280  -12.9970   21.8140 N   0  0  0  0  0  0  0  0  0  0  0  0
  -22.3760  -14.7080   20.4100 O   0  0  0  0  0  0  0  0  0  0  0  0
  -22.5160  -12.1850   22.2720 H   0  0  0  0  0  0  0  0  0  0  0  0
  -21.1780  -13.2710   22.0260 H   0  0  0  0  0  0  0  0  0  0  0  0
  -25.4250  -15.4400   20.1220 N   0  0  0  0  0  0  0  0  0  0  0  0
  -24.6320  -16.0650   20.2050 H   0  0  0  0  0  0  0  0  0  0  0  0
  -26.2520  -15.8930   19.7590 H   0  0  0  0  0  0  0  0  0  0  0  0
  -28.7760  -17.8450   20.2540 C   0  0  0  0  0  2  0  0  0  0  0  0
  -27.0270  -18.3750   18.4700 C   0  0  0  0  0  1  0  0  0  0  0  0
  -28.3350  -17.6400   18.7930 C   0  0  0  0  0  2  0  0  0  0  0  0
  -30.4250  -21.0540   21.4010 C   0  0  0  0  0  2  0  0  0  0  0  0
  -30.4340  -22.3470   20.6650 N   0  0  0  0  0  4  0  0  0  0  0  0
  -31.3210  -22.7970   20.8230 H   0  0  0  0  0  0  0  0  0  0  0  0
  -30.3510  -22.1660   19.6770 H   0  0  0  0  0  0  0  0  0  0  0  0
  -29.3530  -23.2850   21.0640 C   0  0  0  0  0  2  0  0  0  0  0  0
  -29.5030  -24.7120   20.4720 C   0  0  0  0  0  2  0  0  0  0  0  0
  -28.2710  -25.5930   20.7650 C   0  0  0  0  0  2  0  0  0  0  0  0
  -28.3950  -26.9250   20.2400 O   0  0  0  0  0  0  0  0  0  0  0  0
  -24.5350  -32.0280   23.3670 C   0  0  0  0  0  0  0  0  0  0  0  0
  -27.2210  -27.6490   20.2440 C   0  0  0  0  0  0  0  0  0  0  0  0
  -23.3380  -30.6220   21.7230 C   0  0  0  0  0  3  0  0  0  0  0  0
  -24.8040  -29.1190   20.2770 C   0  0  0  0  0  0  0  0  0  0  0  0
  -25.8570  -31.0210   21.5080 C   0  0  0  0  0  2  0  0  0  0  0  0
  -25.9580  -29.6550   20.8610 C   0  0  0  0  0  0  0  0  0  0  0  0
  -27.1710  -28.9290   20.8400 C   0  0  0  0  0  3  0  0  0  0  0  0
  -26.0510  -27.1310   19.6430 C   0  0  0  0  0  3  0  0  0  0  0  0
  -24.8450  -27.8550   19.6630 C   0  0  0  0  0  3  0  0  0  0  0  0
  -23.5470  -29.9570   20.3360 C   0  0  0  0  0  2  0  0  0  0  0  0
  -24.5950  -31.2380   22.2580 N   0  0  0  0  0  0  0  0  0  0  0  0
  -23.4540  -32.2800   23.9170 O   0  0  0  0  0  0  0  0  0  0  0  0
  -22.7070  -29.5840   22.6800 C   0  0  0  0  0  0  0  0  0  0  0  0
  -21.3900  -29.3650   22.5420 N   0  0  0  0  0  0  0  0  0  0  0  0
  -23.4020  -28.9780   23.4990 O   0  0  0  0  0  0  0  0  0  0  0  0
  -20.8890  -29.9060   21.8500 H   0  0  0  0  0  0  0  0  0  0  0  0
  -18.0490  -28.0650   22.9940 C   0  0  0  0  0  0  0  0  0  0  0  0
  -20.5930  -28.4080   23.3080 C   0  0  0  0  0  3  0  0  0  0  0  0
  -20.7530  -26.9760   22.7470 C   0  0  0  0  0  2  0  0  0  0  0  0
  -19.6810  -26.6100   21.7170 C   0  0  0  0  0  2  0  0  0  0  0  0
  -18.2830  -26.7170   22.3350 C   0  0  0  0  0  2  0  0  0  0  0  0
  -19.1350  -28.8660   23.4380 C   0  0  0  0  0  0  0  0  0  0  0  0
  -18.8660  -30.1280   24.0100 C   0  0  0  0  0  3  0  0  0  0  0  0
  -17.5420  -30.5880   24.1500 C   0  0  0  0  0  3  0  0  0  0  0  0
  -16.4710  -29.7830   23.7240 C   0  0  0  0  0  3  0  0  0  0  0  0
  -16.7250  -28.5240   23.1510 C   0  0  0  0  0  3  0  0  0  0  0  0
  -25.8160  -32.6730   23.9830 C   0  0  0  0  0  3  0  0  0  0  0  0
  -26.3220  -31.9320   25.2800 C   0  0  1  0  0  0  0  0  0  0  0  0
  -25.2180  -31.7120   26.3400 C   0  0  0  0  0  1  0  0  0  0  0  0
  -26.9160  -30.5510   24.9190 C   0  0  0  0  0  1  0  0  0  0  0  0
  -27.4620  -32.7460   25.9380 C   0  0  0  0  0  1  0  0  0  0  0  0
  -25.5090  -34.0790   24.2740 N   0  0  0  0  0  0  0  0  0  0  0  0
  -25.8740  -35.1120   23.5010 C   0  0  0  0  0  0  0  0  0  0  0  0
  -26.5760  -34.9800   22.4950 O   0  0  0  0  0  0  0  0  0  0  0  0
  -24.8920  -34.2570   25.0530 H   0  0  0  0  0  0  0  0  0  0  0  0
  -24.1900  -36.9170   23.0290 C   0  0  0  0  0  1  0  0  0  0  0  0
  -25.3830  -36.5140   23.9090 C   0  0  0  0  0  3  0  0  0  0  0  0
  -27.4820  -37.3860   24.8350 C   0  0  0  0  0  1  0  0  0  0  0  0
  -26.4330  -37.5520   23.8330 N   0  0  0  0  0  0  0  0  0  0  0  0
  -26.0320  -38.4790   23.9440 H   0  0  0  0  0  0  0  0  0  0  0  0
  1 49  1  0
  1  4  1  0
  4  2  1  6
  4  5  1  0
  4  3  1  0
  5  6  2  0
  7 46  1  0
  7 16  1  0
  7  5  1  0
  8 16  1  0
  9 14  1  0
 10 11  1  0
 10  9  1  0
 12 11  1  0
 12 21  1  0
 12 13  1  0
 14  8  1  0
 14 13  1  0
 15  8  2  0
 16 17  1  0
 18 19  2  0
 19 38  1  0
 20 19  1  0
 20 23  1  0
 21 18  1  0
 21 22  1  0
 22 20  2  0
 23 24  1  0
 24 25  2  0
 26 29  1  0
 26 25  1  0
 27 26  2  0
 28 27  1  0
 28 23  2  0
 29 30  1  0
 30 35  2  0
 30 31  1  0
 31 32  2  0
 32 33  1  0
 33 37  1  0
 34 33  2  0
 35 34  1  0
 36 35  1  0
 38 39  1  0
 39 42  1  0
 39 41  1  0
 40 38  2  0
 43 44  1  0
 43 18  1  0
 45 43  1  0
 47 48  1  0
 48 46  1  0
 50 51  1  0
 50 53  1  0
 50 49  1  0
 52 50  1  0
 54 55  1  0
 54 53  1  0
 56 58  1  0
 56 55  1  0
 57 68  2  0
 58 63  1  0
 59 67  1  0
 59 69  1  0
 60 66  1  0
 60 62  1  0
 61 67  1  0
 62 61  1  0
 63 62  2  0
 64 65  1  0
 64 58  2  0
 65 60  2  0
 66 59  1  0
 67 57  1  0
 69 71  2  0
 70 69  1  0
 72 70  1  0
 73 82  2  0
 73 78  1  0
 74 70  1  0
 74 78  1  0
 75 74  1  0
 76 77  1  0
 76 75  1  0
 77 73  1  0
 78 79  2  0
 79 80  1  0
 81 80  2  0
 82 81  1  0
 83 57  1  0
 83 88  1  0
 83 84  1  0
 84 87  1  1
 84 85  1  0
 86 84  1  0
 88 91  1  0
 89 93  1  0
 89 88  1  0
 90 89  2  0
 93 92  1  0
 95 93  1  0
 95 96  1  0
 95 94  1  0
M  ISO  4   8 100  16 100  55 101  56 101
M  END
>  <TORSDO>  (10) 
F 26

>  <SCORE>  (10) 
-10.583

>  <name>  (10) 
10

>  <ligand_id>  (10) 
10

>  <original_smiles>  (10) 
[H]c1c([H])c([H])c2c(c1[H])C([H])([H])C([H])([H])C([H])([H])C2([H])N([H])C(=O)C1([H])N(C(=O)C([H])(N([H])C(=O)C([H])(N([H])C([H])([H])[H])C([H])([H])[H])C(C([H])([H])[H])(C([H])([H])[H])C([H])([H])[H])C([H])([H])c2c([H])c(OC([H])([H])C([H])([H])C([H])([H])[N+]([H])([H])C([H])([H])C([H])([H])C(C(=O)C([H])(N([H])C(=O)N3C([H])([H])C([H])([H])C([H])([H])C([H])(n4nc(-c5c([H])c([H])c(Oc6c([H])c([H])c(F)c([H])c6F)c([H])c5[H])c(C(=O)N([H])[H])c4N([H])[H])C3([H])[H])C([H])([H])C([H])([H])C([H])([H])[H])(C([H])([H])[H])C([H])([H])[H])c([H])c([H])c2C1([H])[H]

>  <smiles>  (10) 
[H]c1c([H])c([H])c2c(c1[H])C([H])([H])C([H])([H])C([H])([H])C2([H])N([H])C(=O)C1([H])N(C(=O)C([H])(N([H])C(=O)C([H])(N([H])C([H])([H])[H])C([H])([H])[H])C(C([H])([H])[H])(C([H])([H])[H])C([H])([H])[H])C([H])([H])c2c([H])c(OC([H])([H])C([H])([H])C([H])([H])[N+]([H])([H])C([H])([H])C([H])([H])C(C(=O)C([H])(N([H])C(=O)N3C([H])([H])C([H])([H])C([H])([H])C([H])(n4nc(-c5c([H])c([H])c(Oc6c([H])c([H])c(F)c([H])c6F)c([H])c5[H])c(C(=O)N([H])[H])c4N([H])[H])C3([H])[H])C([H])([H])C([H])([H])C([H])([H])[H])(C([H])([H])[H])C([H])([H])[H])c([H])c([H])c2C1([H])[H]

$$$$
11:0:0
     RDKit          3D

 88 95  0  0  1  0  0  0  0  0999 V2000
  -28.6270  -21.8810   20.0870 C   0  0  0  0  0  2  0  0  0  0  0  0
  -30.0980  -20.6830   21.8560 C   0  0  0  0  0  1  0  0  0  0  0  0
  -29.6280  -20.5680   20.3970 C   0  0  0  0  0  3  0  0  0  0  0  0
  -29.2400  -18.9530   20.0930 C   0  0  0  0  0  3  0  0  0  0  0  0
  -27.4370  -18.9730   18.2390 C   0  0  0  0  0  1  0  0  0  0  0  0
  -28.9200  -18.8050   18.5860 C   0  0  0  0  0  2  0  0  0  0  0  0
  -30.2380  -17.6690   20.5120 C   0  0  0  0  0  2  0  0  0  0  0  0
  -30.5980  -14.9780   20.3540 C   0  0  0  0  0  0  0  0  0  0  0  0
  -30.4560  -12.6480   19.4060 C   0  0  0  0  0  2  0  0  0  0  0  0
  -29.5260  -12.6360   18.1730 C   0  0  0  0  0  2  0  0  0  0  0  0
  -28.0550  -12.4530   18.5930 C   0  0  0  0  0  2  0  0  0  0  0  0
  -27.6530  -13.3540   19.7930 C   0  0  0  0  0  3  0  0  0  0  0  0
  -28.7100  -13.3380   20.9160 C   0  0  0  0  0  2  0  0  0  0  0  0
  -29.9850  -13.7320   20.3040 N   0  0  0  0  0  0  0  0  0  0  0  0
  -31.8090  -15.0400   20.1260 O   0  0  0  0  0  0  0  0  0  0  0  0
  -29.8280  -16.1580   20.4460 N   0  0  0  0  0  0  0  0  0  0  0  0
  -28.8350  -15.9870   20.5070 H   0  0  0  0  0  0  0  0  0  0  0  0
  -25.2620  -13.9170   20.5130 C   0  0  0  0  0  0  0  0  0  0  0  0
  -24.2020  -13.1360   20.8780 C   0  0  0  0  0  0  0  0  0  0  0  0
  -24.6750  -11.7880   20.8500 C   0  0  0  0  0  0  0  0  0  0  0  0
  -26.3150  -13.0470   20.2840 N   0  0  0  0  0  0  0  0  0  0  0  0
  -25.9700  -11.7600   20.5510 N   0  0  0  0  0  0  0  0  0  0  0  0
  -23.9550  -10.5220   21.0360 C   0  0  0  0  0  0  0  0  0  0  0  0
  -24.3790   -9.5600   21.9790 C   0  0  0  0  0  3  0  0  0  0  0  0
  -23.6570   -8.3580   22.1530 C   0  0  0  0  0  3  0  0  0  0  0  0
  -22.4940   -8.1130   21.3850 C   0  0  0  0  0  0  0  0  0  0  0  0
  -22.0880   -9.0640   20.4320 C   0  0  0  0  0  3  0  0  0  0  0  0
  -22.8100  -10.2560   20.2570 C   0  0  0  0  0  3  0  0  0  0  0  0
  -21.7420   -6.9660   21.4680 O   0  0  0  0  0  0  0  0  0  0  0  0
  -21.6710   -6.2340   22.6260 C   0  0  0  0  0  0  0  0  0  0  0  0
  -21.1840   -6.7900   23.8290 C   0  0  0  0  0  3  0  0  0  0  0  0
  -21.0640   -5.9840   24.9780 C   0  0  0  0  0  3  0  0  0  0  0  0
  -21.4190   -4.6220   24.9240 C   0  0  0  0  0  0  0  0  0  0  0  0
  -21.8970   -4.0660   23.7250 C   0  0  0  0  0  3  0  0  0  0  0  0
  -22.0190   -4.8690   22.5770 C   0  0  0  0  0  0  0  0  0  0  0  0
  -22.4620   -4.3230   21.4190 F   0  0  0  0  0  0  0  0  0  0  0  0
  -21.2960   -3.8460   26.0250 F   0  0  0  0  0  0  0  0  0  0  0  0
  -22.7990  -13.6030   21.1390 C   0  0  0  0  0  0  0  0  0  0  0  0
  -22.0700  -12.9050   22.0010 N   0  0  0  0  0  0  0  0  0  0  0  0
  -22.3610  -14.6250   20.6130 O   0  0  0  0  0  0  0  0  0  0  0  0
  -22.4380  -12.0770   22.4460 H   0  0  0  0  0  0  0  0  0  0  0  0
  -21.1300  -13.2040   22.2220 H   0  0  0  0  0  0  0  0  0  0  0  0
  -25.4090  -15.2880   20.3320 N   0  0  0  0  0  0  0  0  0  0  0  0
  -24.6220  -15.9200   20.4270 H   0  0  0  0  0  0  0  0  0  0  0  0
  -26.2400  -15.7430   19.9790 H   0  0  0  0  0  0  0  0  0  0  0  0
  -29.0220  -23.4970   20.3180 C   0  0  0  0  0  3  0  0  0  0  0  0
  -28.0010  -24.7850   20.0190 C   0  0  0  0  0  3  0  0  0  0  0  0
  -28.2630  -26.2890   20.2720 O   0  0  0  0  0  0  0  0  0  0  0  0
  -24.6200  -31.9300   23.2820 C   0  0  0  0  0  0  0  0  0  0  0  0
  -27.1980  -27.2530   20.2220 C   0  0  0  0  0  0  0  0  0  0  0  0
  -23.4150  -30.5370   21.6450 C   0  0  0  0  0  3  0  0  0  0  0  0
  -24.8600  -28.9720   20.2110 C   0  0  0  0  0  0  0  0  0  0  0  0
  -25.9670  -30.8140   21.4690 C   0  0  0  0  0  2  0  0  0  0  0  0
  -26.0410  -29.4270   20.8130 C   0  0  0  0  0  0  0  0  0  0  0  0
  -27.2120  -28.5820   20.8010 C   0  0  0  0  0  3  0  0  0  0  0  0
  -25.9890  -26.8940   19.5870 C   0  0  0  0  0  3  0  0  0  0  0  0
  -24.8460  -27.7190   19.5840 C   0  0  0  0  0  3  0  0  0  0  0  0
  -23.6330  -29.8670   20.2630 C   0  0  0  0  0  2  0  0  0  0  0  0
  -24.6880  -31.1130   22.1880 N   0  0  0  0  0  0  0  0  0  0  0  0
  -23.5360  -32.2120   23.8140 O   0  0  0  0  0  0  0  0  0  0  0  0
  -22.7390  -29.5260   22.6060 C   0  0  0  0  0  0  0  0  0  0  0  0
  -21.4140  -29.3460   22.4730 N   0  0  0  0  0  0  0  0  0  0  0  0
  -23.4130  -28.9060   23.4340 O   0  0  0  0  0  0  0  0  0  0  0  0
  -20.9270  -29.8950   21.7770 H   0  0  0  0  0  0  0  0  0  0  0  0
  -18.0360  -28.1310   22.9610 C   0  0  0  0  0  0  0  0  0  0  0  0
  -20.5930  -28.4080   23.2440 C   0  0  0  0  0  3  0  0  0  0  0  0
  -20.7070  -26.9740   22.6770 C   0  0  0  0  0  2  0  0  0  0  0  0
  -19.6130  -26.6390   21.6600 C   0  0  0  0  0  2  0  0  0  0  0  0
  -18.2250  -26.7790   22.2940 C   0  0  0  0  0  2  0  0  0  0  0  0
  -19.1480  -28.9020   23.3950 C   0  0  0  0  0  0  0  0  0  0  0  0
  -18.9160  -30.1660   23.9780 C   0  0  0  0  0  3  0  0  0  0  0  0
  -17.6050  -30.6560   24.1420 C   0  0  0  0  0  3  0  0  0  0  0  0
  -16.5090  -29.8810   23.7260 C   0  0  0  0  0  3  0  0  0  0  0  0
  -16.7260  -28.6220   23.1370 C   0  0  0  0  0  3  0  0  0  0  0  0
  -25.9000  -32.5650   23.9050 C   0  0  0  0  0  3  0  0  0  0  0  0
  -26.3990  -31.8080   25.1960 C   0  0  1  0  0  0  0  0  0  0  0  0
  -25.2960  -31.5910   26.2600 C   0  0  0  0  0  1  0  0  0  0  0  0
  -26.9790  -30.4220   24.8350 C   0  0  0  0  0  1  0  0  0  0  0  0
  -27.5480  -32.6040   25.8590 C   0  0  0  0  0  1  0  0  0  0  0  0
  -25.5940  -33.9700   24.2190 N   0  0  0  0  0  0  0  0  0  0  0  0
  -25.9230  -35.0150   23.4480 C   0  0  0  0  0  0  0  0  0  0  0  0
  -26.5820  -34.8980   22.4120 O   0  0  0  0  0  0  0  0  0  0  0  0
  -25.0070  -34.1340   25.0240 H   0  0  0  0  0  0  0  0  0  0  0  0
  -24.1990  -36.8140   23.0920 C   0  0  0  0  0  1  0  0  0  0  0  0
  -25.4470  -36.4100   23.8960 C   0  0  0  0  0  3  0  0  0  0  0  0
  -27.5880  -37.2990   24.7040 C   0  0  0  0  0  1  0  0  0  0  0  0
  -26.4820  -37.4580   23.7640 N   0  0  0  0  0  0  0  0  0  0  0  0
  -26.0790  -38.3820   23.9010 H   0  0  0  0  0  0  0  0  0  0  0  0
  1 46  1  0
  1  3  1  0
  3  2  1  0
  4  6  1  0
  4  3  1  0
  4  7  1  0
  5  6  1  0
  8 16  1  0
  9 14  1  0
 10 11  1  0
 10  9  1  0
 12 11  1  0
 12 21  1  0
 12 13  1  0
 14  8  1  0
 14 13  1  0
 15  8  2  0
 16 17  1  0
 16  7  1  0
 18 19  2  0
 19 38  1  0
 20 19  1  0
 20 23  1  0
 21 18  1  0
 21 22  1  0
 22 20  2  0
 23 24  1  0
 24 25  2  0
 26 29  1  0
 26 25  1  0
 27 26  2  0
 28 27  1  0
 28 23  2  0
 29 30  1  0
 30 31  1  0
 31 32  2  0
 33 32  1  0
 33 37  1  0
 34 33  2  0
 35 30  2  0
 35 34  1  0
 36 35  1  0
 38 39  1  0
 39 42  1  0
 39 41  1  0
 40 38  2  0
 43 44  1  0
 43 18  1  0
 45 43  1  0
 47 48  1  0
 47 46  2  0
 49 60  2  0
 50 48  1  0
 50 55  1  0
 51 59  1  0
 51 61  1  0
 52 58  1  0
 52 54  1  0
 53 59  1  0
 54 53  1  0
 55 54  2  0
 56 50  2  0
 57 56  1  0
 57 52  2  0
 58 51  1  0
 59 49  1  0
 61 63  2  0
 62 61  1  0
 64 62  1  0
 65 74  2  0
 65 70  1  0
 66 62  1  0
 66 70  1  0
 67 66  1  0
 68 69  1  0
 68 67  1  0
 69 65  1  0
 70 71  2  0
 71 72  1  0
 73 72  2  0
 74 73  1  0
 75 49  1  0
 75 80  1  0
 75 76  1  0
 76 79  1  1
 76 77  1  0
 78 76  1  0
 80 83  1  0
 81 85  1  0
 81 80  1  0
 82 81  2  0
 85 84  1  0
 87 85  1  0
 87 88  1  0
 87 86  1  0
M  ISO  4   8 100  16 100  47 101  48 101
M  END
>  <TORSDO>  (11) 
F 22

>  <SCORE>  (11) 
-12.992

>  <name>  (11) 
11

>  <ligand_id>  (11) 
11

>  <original_smiles>  (11) 
[H]c1c([H])c([H])c2c(c1[H])C([H])([H])C([H])([H])C([H])([H])C2([H])N([H])C(=O)C1([H])N(C(=O)C([H])(N([H])C(=O)C([H])(N([H])C([H])([H])[H])C([H])([H])[H])C(C([H])([H])[H])(C([H])([H])[H])C([H])([H])[H])C([H])([H])c2c([H])c(OC([H])([H])C([H])([H])C([H])([H])C([H])(C([H])([H])[H])C([H])(C([H])([H])N([H])C(=O)N3C([H])([H])C([H])([H])C([H])([H])C([H])(n4nc(-c5c([H])c([H])c(Oc6c([H])c([H])c(F)c([H])c6F)c([H])c5[H])c(C(=O)N([H])[H])c4N([H])[H])C3([H])[H])C([H])([H])C([H])([H])[H])c([H])c([H])c2C1([H])[H]

>  <smiles>  (11) 
[H]c1c([H])c([H])c2c(c1[H])C([H])([H])C([H])([H])C([H])([H])C2([H])N([H])C(=O)C1([H])N(C(=O)C([H])(N([H])C(=O)C([H])(N([H])C([H])([H])[H])C([H])([H])[H])C(C([H])([H])[H])(C([H])([H])[H])C([H])([H])[H])C([H])([H])c2c([H])c(OC([H])([H])C([H])([H])C([H])([H])C([H])(C([H])([H])[H])C([H])(C([H])([H])N([H])C(=O)N3C([H])([H])C([H])([H])C([H])([H])C([H])(n4nc(-c5c([H])c([H])c(Oc6c([H])c([H])c(F)c([H])c6F)c([H])c5[H])c(C(=O)N([H])[H])c4N([H])[H])C3([H])[H])C([H])([H])C([H])([H])[H])c([H])c([H])c2C1([H])[H]

$$$$
12:0:0
     RDKit          3D

 89 96  0  0  1  0  0  0  0  0999 V2000
  -28.6550  -22.3430   20.2750 C   0  0  0  0  0  0  0  0  0  0  0  0
  -27.4580  -22.1250   20.0690 O   0  0  0  0  0  0  0  0  0  0  0  0
  -29.1320  -23.8560   20.3550 C   0  0  0  0  0  3  0  0  0  0  0  0
  -28.0410  -24.9810   20.0300 C   0  0  0  0  0  3  0  0  0  0  0  0
  -28.3010  -26.4400   20.2000 O   0  0  0  0  0  0  0  0  0  0  0  0
  -24.6040  -31.8650   23.2400 C   0  0  0  0  0  0  0  0  0  0  0  0
  -27.1890  -27.3060   20.1520 C   0  0  0  0  0  0  0  0  0  0  0  0
  -23.3890  -30.4770   21.6020 C   0  0  0  0  0  3  0  0  0  0  0  0
  -24.8280  -28.9300   20.1650 C   0  0  0  0  0  0  0  0  0  0  0  0
  -25.9320  -30.7860   21.4120 C   0  0  0  0  0  2  0  0  0  0  0  0
  -26.0040  -29.4120   20.7550 C   0  0  0  0  0  0  0  0  0  0  0  0
  -27.1890  -28.6130   20.7360 C   0  0  0  0  0  3  0  0  0  0  0  0
  -25.9840  -26.8840   19.5390 C   0  0  0  0  0  3  0  0  0  0  0  0
  -24.8210  -27.6700   19.5550 C   0  0  0  0  0  3  0  0  0  0  0  0
  -23.5940  -29.8060   20.2200 C   0  0  0  0  0  2  0  0  0  0  0  0
  -24.6610  -31.0610   22.1400 N   0  0  0  0  0  0  0  0  0  0  0  0
  -23.5250  -32.1460   23.7810 O   0  0  0  0  0  0  0  0  0  0  0  0
  -22.7260  -29.4590   22.5620 C   0  0  0  0  0  0  0  0  0  0  0  0
  -21.4010  -29.2800   22.4320 N   0  0  0  0  0  0  0  0  0  0  0  0
  -23.4050  -28.8340   23.3800 O   0  0  0  0  0  0  0  0  0  0  0  0
  -20.9130  -29.8360   21.7440 H   0  0  0  0  0  0  0  0  0  0  0  0
  -18.0250  -28.0700   22.9200 C   0  0  0  0  0  0  0  0  0  0  0  0
  -20.5810  -28.3420   23.2030 C   0  0  0  0  0  3  0  0  0  0  0  0
  -20.6910  -26.9070   22.6360 C   0  0  0  0  0  2  0  0  0  0  0  0
  -19.5960  -26.5750   21.6180 C   0  0  0  0  0  2  0  0  0  0  0  0
  -18.2110  -26.7170   22.2520 C   0  0  0  0  0  2  0  0  0  0  0  0
  -19.1380  -28.8390   23.3510 C   0  0  0  0  0  0  0  0  0  0  0  0
  -18.9110  -30.1050   23.9350 C   0  0  0  0  0  3  0  0  0  0  0  0
  -17.6030  -30.6010   24.0920 C   0  0  0  0  0  3  0  0  0  0  0  0
  -16.5050  -29.8290   23.6780 C   0  0  0  0  0  3  0  0  0  0  0  0
  -16.7160  -28.5660   23.0960 C   0  0  0  0  0  3  0  0  0  0  0  0
  -25.8930  -32.4920   23.8590 C   0  0  0  0  0  3  0  0  0  0  0  0
  -25.5890  -33.8890   24.1970 N   0  0  0  0  0  0  0  0  0  0  0  0
  -25.9080  -34.9450   23.4360 C   0  0  0  0  0  0  0  0  0  0  0  0
  -26.5630  -34.8440   22.3950 O   0  0  0  0  0  0  0  0  0  0  0  0
  -25.0060  -34.0420   25.0070 H   0  0  0  0  0  0  0  0  0  0  0  0
  -24.1720  -36.7370   23.1190 C   0  0  0  0  0  1  0  0  0  0  0  0
  -25.4290  -36.3320   23.9040 C   0  0  0  0  0  3  0  0  0  0  0  0
  -27.5790  -37.2160   24.6950 C   0  0  0  0  0  1  0  0  0  0  0  0
  -26.4590  -37.3860   23.7730 N   0  0  0  0  0  0  0  0  0  0  0  0
  -26.0540  -38.3050   23.9290 H   0  0  0  0  0  0  0  0  0  0  0  0
  -26.4090  -31.7140   25.1320 C   0  0  1  0  0  0  0  0  0  0  0  0
  -25.3200  -31.4800   26.2040 C   0  0  0  0  0  1  0  0  0  0  0  0
  -26.9860  -30.3340   24.7400 C   0  0  0  0  0  1  0  0  0  0  0  0
  -27.5630  -32.5020   25.7940 C   0  0  0  0  0  1  0  0  0  0  0  0
  -29.6460  -21.0940   20.4200 C   0  0  0  0  0  3  0  0  0  0  0  0
  -31.8970  -22.0670   21.2900 C   0  0  0  0  0  1  0  0  0  0  0  0
  -30.6270  -21.2630   21.6060 C   0  0  0  0  0  2  0  0  0  0  0  0
  -28.9560  -19.6430   20.5310 C   0  0  0  0  0  2  0  0  0  0  0  0
  -29.6680  -18.2960   20.0200 C   0  0  0  0  0  2  0  0  0  0  0  0
  -30.1680  -17.1750   21.0400 C   0  0  0  0  0  2  0  0  0  0  0  0
  -30.5920  -14.6500   20.4430 C   0  0  0  0  0  0  0  0  0  0  0  0
  -30.3720  -12.4110   19.3730 C   0  0  0  0  0  2  0  0  0  0  0  0
  -29.4410  -12.5270   18.1460 C   0  0  0  0  0  2  0  0  0  0  0  0
  -27.9630  -12.3780   18.5610 C   0  0  0  0  0  2  0  0  0  0  0  0
  -27.5940  -13.2510   19.7900 C   0  0  0  0  0  3  0  0  0  0  0  0
  -28.6410  -13.1060   20.9160 C   0  0  0  0  0  2  0  0  0  0  0  0
  -29.9530  -13.4420   20.3420 N   0  0  0  0  0  0  0  0  0  0  0  0
  -31.7710  -14.7850   20.1040 O   0  0  0  0  0  0  0  0  0  0  0  0
  -29.8130  -15.7320   20.7630 N   0  0  0  0  0  0  0  0  0  0  0  0
  -28.8480  -15.4950   20.9400 H   0  0  0  0  0  0  0  0  0  0  0  0
  -25.1980  -13.8670   20.4800 C   0  0  0  0  0  0  0  0  0  0  0  0
  -24.1240  -13.1020   20.8460 C   0  0  0  0  0  0  0  0  0  0  0  0
  -24.5800  -11.7480   20.8330 C   0  0  0  0  0  0  0  0  0  0  0  0
  -26.2400  -12.9790   20.2640 N   0  0  0  0  0  0  0  0  0  0  0  0
  -25.8740  -11.7010   20.5370 N   0  0  0  0  0  0  0  0  0  0  0  0
  -23.8470  -10.4920   21.0280 C   0  0  0  0  0  0  0  0  0  0  0  0
  -24.2730   -9.5240   21.9640 C   0  0  0  0  0  3  0  0  0  0  0  0
  -23.5390   -8.3320   22.1460 C   0  0  0  0  0  3  0  0  0  0  0  0
  -22.3650   -8.0990   21.3900 C   0  0  0  0  0  0  0  0  0  0  0  0
  -21.9590   -9.0550   20.4420 C   0  0  0  0  0  3  0  0  0  0  0  0
  -22.6940  -10.2390   20.2590 C   0  0  0  0  0  3  0  0  0  0  0  0
  -21.6030   -6.9600   21.4820 O   0  0  0  0  0  0  0  0  0  0  0  0
  -21.5580   -6.2130   22.6320 C   0  0  0  0  0  0  0  0  0  0  0  0
  -21.1520   -6.7690   23.8660 C   0  0  0  0  0  3  0  0  0  0  0  0
  -21.0540   -5.9490   25.0080 C   0  0  0  0  0  3  0  0  0  0  0  0
  -21.3510   -4.5760   24.9170 C   0  0  0  0  0  0  0  0  0  0  0  0
  -21.7520   -4.0210   23.6910 C   0  0  0  0  0  3  0  0  0  0  0  0
  -21.8520   -4.8370   22.5500 C   0  0  0  0  0  0  0  0  0  0  0  0
  -22.2170   -4.2920   21.3650 F   0  0  0  0  0  0  0  0  0  0  0  0
  -21.2480   -3.7890   26.0140 F   0  0  0  0  0  0  0  0  0  0  0  0
  -22.7260  -13.5880   21.0980 C   0  0  0  0  0  0  0  0  0  0  0  0
  -21.9860  -12.9060   21.9650 N   0  0  0  0  0  0  0  0  0  0  0  0
  -22.2980  -14.6100   20.5640 O   0  0  0  0  0  0  0  0  0  0  0  0
  -22.3440  -12.0820   22.4240 H   0  0  0  0  0  0  0  0  0  0  0  0
  -21.0460  -13.2140   22.1730 H   0  0  0  0  0  0  0  0  0  0  0  0
  -25.3700  -15.2360   20.2910 N   0  0  0  0  0  0  0  0  0  0  0  0
  -24.6020  -15.8930   20.3830 H   0  0  0  0  0  0  0  0  0  0  0  0
  -26.2130  -15.6670   19.9350 H   0  0  0  0  0  0  0  0  0  0  0  0
  1  3  1  0
  1 46  1  0
  2  1  2  0
  4  5  1  0
  4  3  2  0
  6 17  2  0
  7  5  1  0
  7 12  1  0
  8 16  1  0
  8 18  1  0
  9 15  1  0
  9 11  1  0
 10 16  1  0
 11 10  1  0
 12 11  2  0
 13 14  1  0
 13  7  2  0
 14  9  2  0
 15  8  1  0
 16  6  1  0
 18 20  2  0
 19 18  1  0
 21 19  1  0
 22 31  2  0
 22 27  1  0
 23 19  1  0
 23 27  1  0
 24 23  1  0
 25 26  1  0
 25 24  1  0
 26 22  1  0
 27 28  2  0
 28 29  1  0
 30 29  2  0
 31 30  1  0
 32  6  1  0
 32 33  1  0
 32 42  1  0
 33 36  1  0
 34 38  1  0
 34 33  1  0
 35 34  2  0
 38 37  1  0
 40 38  1  0
 40 41  1  0
 40 39  1  0
 42 45  1  1
 42 43  1  0
 44 42  1  0
 46 49  1  0
 46 48  1  0
 47 48  1  0
 50 49  1  0
 50 51  1  0
 52 60  1  0
 53 58  1  0
 54 55  1  0
 54 53  1  0
 56 55  1  0
 56 65  1  0
 56 57  1  0
 58 52  1  0
 58 57  1  0
 59 52  2  0
 60 61  1  0
 60 51  1  0
 62 63  2  0
 63 82  1  0
 64 63  1  0
 64 67  1  0
 65 62  1  0
 65 66  1  0
 66 64  2  0
 67 68  1  0
 68 69  2  0
 70 73  1  0
 70 69  1  0
 71 70  2  0
 72 71  1  0
 72 67  2  0
 73 74  1  0
 74 75  1  0
 75 76  2  0
 77 76  1  0
 77 81  1  0
 78 77  2  0
 79 74  2  0
 79 78  1  0
 80 79  1  0
 82 83  1  0
 83 86  1  0
 83 85  1  0
 84 82  2  0
 87 88  1  0
 87 62  1  0
 89 87  1  0
M  ISO  4   4 101   5 101  52 100  60 100
M  END
>  <TORSDO>  (12) 
F 23

>  <SCORE>  (12) 
-12.653

>  <name>  (12) 
12

>  <ligand_id>  (12) 
12

>  <original_smiles>  (12) 
[H]c1c([H])c([H])c2c(c1[H])C([H])([H])C([H])([H])C([H])([H])C2([H])N([H])C(=O)C1([H])N(C(=O)C([H])(N([H])C(=O)C([H])(N([H])C([H])([H])[H])C([H])([H])[H])C(C([H])([H])[H])(C([H])([H])[H])C([H])([H])[H])C([H])([H])c2c([H])c(OC([H])([H])C([H])([H])C(=O)C([H])(C([H])([H])C([H])([H])[H])C([H])([H])C([H])([H])C([H])([H])N([H])C(=O)N3C([H])([H])C([H])([H])C([H])([H])C([H])(n4nc(-c5c([H])c([H])c(Oc6c([H])c([H])c(F)c([H])c6F)c([H])c5[H])c(C(=O)N([H])[H])c4N([H])[H])C3([H])[H])c([H])c([H])c2C1([H])[H]

>  <smiles>  (12) 
[H]c1c([H])c([H])c2c(c1[H])C([H])([H])C([H])([H])C([H])([H])C2([H])N([H])C(=O)C1([H])N(C(=O)C([H])(N([H])C(=O)C([H])(N([H])C([H])([H])[H])C([H])([H])[H])C(C([H])([H])[H])(C([H])([H])[H])C([H])([H])[H])C([H])([H])c2c([H])c(OC([H])([H])C([H])([H])C(=O)C([H])(C([H])([H])C([H])([H])[H])C([H])([H])C([H])([H])C([H])([H])N([H])C(=O)N3C([H])([H])C([H])([H])C([H])([H])C([H])(n4nc(-c5c([H])c([H])c(Oc6c([H])c([H])c(F)c([H])c6F)c([H])c5[H])c(C(=O)N([H])[H])c4N([H])[H])C3([H])[H])c([H])c([H])c2C1([H])[H]

$$$$
13:0:0
     RDKit          3D

 92 99  0  0  1  0  0  0  0  0999 V2000
  -28.6440  -22.3950   20.6840 C   0  0  0  0  0  3  0  0  0  0  0  0
  -28.6750  -22.1190   22.1340 N   0  0  0  0  0  4  0  0  0  0  0  0
  -29.6170  -21.9910   22.4560 H   0  0  0  0  0  0  0  0  0  0  0  0
  -28.1420  -21.2930   22.3460 H   0  0  0  0  0  0  0  0  0  0  0  0
  -28.2710  -22.8800   22.6510 H   0  0  0  0  0  0  0  0  0  0  0  0
  -29.0990  -21.1150   19.8160 C   0  0  0  0  0  2  0  0  0  0  0  0
  -29.8570  -19.8370   20.4210 C   0  0  0  0  0  2  0  0  0  0  0  0
  -28.1490  -17.9070   20.3720 C   0  0  0  0  0  1  0  0  0  0  0  0
  -29.5140  -18.3770   19.8410 C   0  0  0  0  0  3  0  0  0  0  0  0
  -30.9430  -14.7600   19.9840 C   0  0  0  0  0  0  0  0  0  0  0  0
  -30.6580  -12.4590   19.0880 C   0  0  0  0  0  2  0  0  0  0  0  0
  -29.6820  -12.4970   17.8930 C   0  0  0  0  0  2  0  0  0  0  0  0
  -28.2270  -12.3650   18.3800 C   0  0  0  0  0  2  0  0  0  0  0  0
  -27.9010  -13.3110   19.5640 C   0  0  0  0  0  3  0  0  0  0  0  0
  -28.9980  -13.2600   20.6510 C   0  0  0  0  0  2  0  0  0  0  0  0
  -30.2790  -13.5600   19.9970 N   0  0  0  0  0  0  0  0  0  0  0  0
  -32.1260  -14.7960   19.6370 O   0  0  0  0  0  0  0  0  0  0  0  0
  -30.5870  -17.2230   20.0280 C   0  0  0  0  0  0  0  0  0  0  0  0
  -30.1900  -15.9030   20.1210 N   0  0  0  0  0  0  0  0  0  0  0  0
  -31.7730  -17.5650   20.0700 O   0  0  0  0  0  0  0  0  0  0  0  0
  -29.2030  -15.7570   20.2360 H   0  0  0  0  0  0  0  0  0  0  0  0
  -25.5550  -13.9490   20.3890 C   0  0  0  0  0  0  0  0  0  0  0  0
  -24.4890  -13.1970   20.7990 C   0  0  0  0  0  0  0  0  0  0  0  0
  -24.9170  -11.8360   20.7360 C   0  0  0  0  0  0  0  0  0  0  0  0
  -26.5710  -13.0500   20.1100 N   0  0  0  0  0  0  0  0  0  0  0  0
  -26.1960  -11.7720   20.3770 N   0  0  0  0  0  0  0  0  0  0  0  0
  -24.1660  -10.5910   20.9370 C   0  0  0  0  0  0  0  0  0  0  0  0
  -24.5840   -9.6220   21.8750 C   0  0  0  0  0  3  0  0  0  0  0  0
  -23.8360   -8.4400   22.0660 C   0  0  0  0  0  3  0  0  0  0  0  0
  -22.6530   -8.2210   21.3200 C   0  0  0  0  0  0  0  0  0  0  0  0
  -22.2530   -9.1780   20.3700 C   0  0  0  0  0  3  0  0  0  0  0  0
  -23.0030  -10.3500   20.1770 C   0  0  0  0  0  3  0  0  0  0  0  0
  -21.8760   -7.0930   21.4210 O   0  0  0  0  0  0  0  0  0  0  0  0
  -21.7950   -6.3790   22.5890 C   0  0  0  0  0  0  0  0  0  0  0  0
  -21.3340   -6.9620   23.7900 C   0  0  0  0  0  3  0  0  0  0  0  0
  -21.2020   -6.1720   24.9490 C   0  0  0  0  0  3  0  0  0  0  0  0
  -21.5190   -4.8010   24.9100 C   0  0  0  0  0  0  0  0  0  0  0  0
  -21.9750   -4.2190   23.7150 C   0  0  0  0  0  3  0  0  0  0  0  0
  -22.1090   -5.0050   22.5570 C   0  0  0  0  0  0  0  0  0  0  0  0
  -22.5280   -4.4340   21.4020 F   0  0  0  0  0  0  0  0  0  0  0  0
  -21.3820   -4.0410   26.0220 F   0  0  0  0  0  0  0  0  0  0  0  0
  -23.1150  -13.7070   21.1250 C   0  0  0  0  0  0  0  0  0  0  0  0
  -22.4010  -13.0240   22.0130 N   0  0  0  0  0  0  0  0  0  0  0  0
  -22.6830  -14.7450   20.6270 O   0  0  0  0  0  0  0  0  0  0  0  0
  -22.7650  -12.1860   22.4420 H   0  0  0  0  0  0  0  0  0  0  0  0
  -21.4800  -13.3470   22.2700 H   0  0  0  0  0  0  0  0  0  0  0  0
  -25.7330  -15.3170   20.2020 N   0  0  0  0  0  0  0  0  0  0  0  0
  -24.9470  -15.9530   20.2860 H   0  0  0  0  0  0  0  0  0  0  0  0
  -26.5220  -15.7220   19.7160 H   0  0  0  0  0  0  0  0  0  0  0  0
  -29.1790  -23.8760   20.3610 C   0  0  0  0  0  3  0  0  0  0  0  0
  -28.0710  -25.0240   20.3160 C   0  0  0  0  0  3  0  0  0  0  0  0
  -28.3690  -26.4860   20.3180 O   0  0  0  0  0  0  0  0  0  0  0  0
  -24.6150  -31.9490   23.2440 C   0  0  0  0  0  0  0  0  0  0  0  0
  -27.2590  -27.3540   20.2570 C   0  0  0  0  0  0  0  0  0  0  0  0
  -23.4310  -30.5280   21.6120 C   0  0  0  0  0  3  0  0  0  0  0  0
  -24.8940  -28.9710   20.2170 C   0  0  0  0  0  0  0  0  0  0  0  0
  -25.9730  -30.8490   21.4470 C   0  0  0  0  0  2  0  0  0  0  0  0
  -26.0610  -29.4630   20.8170 C   0  0  0  0  0  0  0  0  0  0  0  0
  -27.2480  -28.6660   20.8280 C   0  0  0  0  0  3  0  0  0  0  0  0
  -26.0650  -26.9270   19.6250 C   0  0  0  0  0  3  0  0  0  0  0  0
  -24.8990  -27.7100   19.6120 C   0  0  0  0  0  3  0  0  0  0  0  0
  -23.6570  -29.8410   20.2420 C   0  0  0  0  0  2  0  0  0  0  0  0
  -24.6930  -31.1270   22.1580 N   0  0  0  0  0  0  0  0  0  0  0  0
  -23.5260  -32.2270   23.7650 O   0  0  0  0  0  0  0  0  0  0  0  0
  -22.7640  -29.5200   22.5770 C   0  0  0  0  0  0  0  0  0  0  0  0
  -21.4400  -29.3350   22.4390 N   0  0  0  0  0  0  0  0  0  0  0  0
  -23.4370  -28.9040   23.4090 O   0  0  0  0  0  0  0  0  0  0  0  0
  -20.9570  -29.8740   21.7340 H   0  0  0  0  0  0  0  0  0  0  0  0
  -18.0620  -28.1510   22.9440 C   0  0  0  0  0  0  0  0  0  0  0  0
  -20.6200  -28.4060   23.2190 C   0  0  0  0  0  3  0  0  0  0  0  0
  -20.7210  -26.9690   22.6520 C   0  0  0  0  0  2  0  0  0  0  0  0
  -19.6260  -26.6520   21.6300 C   0  0  0  0  0  2  0  0  0  0  0  0
  -18.2410  -26.7980   22.2700 C   0  0  0  0  0  2  0  0  0  0  0  0
  -19.1800  -28.9110   23.3760 C   0  0  0  0  0  0  0  0  0  0  0  0
  -18.9630  -30.1750   23.9670 C   0  0  0  0  0  3  0  0  0  0  0  0
  -17.6580  -30.6790   24.1300 C   0  0  0  0  0  3  0  0  0  0  0  0
  -16.5530  -29.9180   23.7110 C   0  0  0  0  0  3  0  0  0  0  0  0
  -16.7560  -28.6560   23.1230 C   0  0  0  0  0  3  0  0  0  0  0  0
  -25.8890  -32.5990   23.8670 C   0  0  0  0  0  3  0  0  0  0  0  0
  -26.4020  -31.8450   25.1540 C   0  0  1  0  0  0  0  0  0  0  0  0
  -25.3050  -31.6040   26.2160 C   0  0  0  0  0  1  0  0  0  0  0  0
  -27.0030  -30.4700   24.7800 C   0  0  0  0  0  1  0  0  0  0  0  0
  -27.5380  -32.6580   25.8200 C   0  0  0  0  0  1  0  0  0  0  0  0
  -25.5680  -33.9990   24.1790 N   0  0  0  0  0  0  0  0  0  0  0  0
  -25.9090  -35.0480   23.4190 C   0  0  0  0  0  0  0  0  0  0  0  0
  -26.6000  -34.9400   22.4010 O   0  0  0  0  0  0  0  0  0  0  0  0
  -24.9630  -34.1590   24.9710 H   0  0  0  0  0  0  0  0  0  0  0  0
  -24.1960  -36.8430   23.0050 C   0  0  0  0  0  1  0  0  0  0  0  0
  -25.4080  -36.4370   23.8580 C   0  0  0  0  0  3  0  0  0  0  0  0
  -27.5130  -37.3250   24.7630 C   0  0  0  0  0  1  0  0  0  0  0  0
  -26.4470  -37.4890   23.7780 N   0  0  0  0  0  0  0  0  0  0  0  0
  -26.0360  -38.4100   23.9070 H   0  0  0  0  0  0  0  0  0  0  0  0
  1  6  1  0
  1  2  1  0
  2  4  1  0
  2  3  1  0
  2  5  1  0
  6  7  1  0
  9 18  1  0
  9  8  1  0
  9  7  1  0
 10 16  1  0
 10 19  1  0
 11 16  1  0
 12 13  1  0
 12 11  1  0
 14 13  1  0
 14 25  1  0
 14 15  1  0
 16 15  1  0
 17 10  2  0
 18 20  2  0
 18 19  1  0
 19 21  1  0
 22 23  2  0
 23 42  1  0
 24 23  1  0
 24 27  1  0
 25 26  1  0
 25 22  1  0
 26 24  2  0
 27 28  1  0
 28 29  2  0
 30 33  1  0
 30 29  1  0
 31 30  2  0
 32 31  1  0
 32 27  2  0
 33 34  1  0
 34 35  1  0
 35 36  2  0
 37 36  1  0
 37 41  1  0
 38 37  2  0
 39 34  2  0
 39 38  1  0
 40 39  1  0
 42 43  1  0
 43 46  1  0
 43 45  1  0
 44 42  2  0
 47 48  1  0
 47 22  1  0
 49 47  1  0
 50  1  1  0
 51 52  1  0
 51 50  2  0
 53 64  2  0
 54 52  1  0
 54 59  1  0
 55 63  1  0
 55 65  1  0
 56 62  1  0
 56 58  1  0
 57 63  1  0
 58 59  2  0
 58 57  1  0
 60 54  2  0
 61 60  1  0
 61 56  2  0
 62 55  1  0
 63 53  1  0
 65 67  2  0
 66 65  1  0
 68 66  1  0
 69 78  2  0
 69 74  1  0
 70 66  1  0
 70 74  1  0
 71 70  1  0
 72 73  1  0
 72 71  1  0
 73 69  1  0
 74 75  2  0
 75 76  1  0
 77 76  2  0
 78 77  1  0
 79 53  1  0
 79 84  1  0
 79 80  1  0
 80 83  1  1
 80 81  1  0
 82 80  1  0
 84 87  1  0
 85 89  1  0
 85 84  1  0
 86 85  2  0
 89 88  1  0
 91 89  1  0
 91 92  1  0
 91 90  1  0
M  ISO  4  10 100  19 100  51 101  52 101
M  END
>  <TORSDO>  (13) 
F 22

>  <SCORE>  (13) 
-13.335

>  <name>  (13) 
13

>  <ligand_id>  (13) 
13

>  <original_smiles>  (13) 
[H]c1c([H])c([H])c2c(c1[H])C([H])([H])C([H])([H])C([H])([H])C2([H])N([H])C(=O)C1([H])N(C(=O)C([H])(N([H])C(=O)C([H])(N([H])C([H])([H])[H])C([H])([H])[H])C(C([H])([H])[H])(C([H])([H])[H])C([H])([H])[H])C([H])([H])c2c([H])c(OC([H])([H])C([H])([H])C([H])(C([H])([H])C([H])([H])C([H])(C(=O)N([H])C(=O)N3C([H])([H])C([H])([H])C([H])([H])C([H])(n4nc(-c5c([H])c([H])c(Oc6c([H])c([H])c(F)c([H])c6F)c([H])c5[H])c(C(=O)N([H])[H])c4N([H])[H])C3([H])[H])C([H])([H])[H])[N+]([H])([H])[H])c([H])c([H])c2C1([H])[H]

>  <smiles>  (13) 
[H]c1c([H])c([H])c2c(c1[H])C([H])([H])C([H])([H])C([H])([H])C2([H])N([H])C(=O)C1([H])N(C(=O)C([H])(N([H])C(=O)C([H])(N([H])C([H])([H])[H])C([H])([H])[H])C(C([H])([H])[H])(C([H])([H])[H])C([H])([H])[H])C([H])([H])c2c([H])c(OC([H])([H])C([H])([H])C([H])(C([H])([H])C([H])([H])C([H])(C(=O)N([H])C(=O)N3C([H])([H])C([H])([H])C([H])([H])C([H])(n4nc(-c5c([H])c([H])c(Oc6c([H])c([H])c(F)c([H])c6F)c([H])c5[H])c(C(=O)N([H])[H])c4N([H])[H])C3([H])[H])C([H])([H])[H])[N+]([H])([H])[H])c([H])c([H])c2C1([H])[H]

$$$$
14:0:0
     RDKit          3D

 95103  0  0  1  0  0  0  0  0999 V2000
  -29.6140  -19.9440   20.7620 N   0  0  0  0  0  4  0  0  0  0  0  0
  -30.5410  -20.3310   20.7000 H   0  0  0  0  0  0  0  0  0  0  0  0
  -29.4740  -19.7330   21.7380 H   0  0  0  0  0  0  0  0  0  0  0  0
  -30.7040  -14.8060   20.6250 C   0  0  0  0  0  0  0  0  0  0  0  0
  -30.5590  -12.4770   19.7470 C   0  0  0  0  0  2  0  0  0  0  0  0
  -29.6770  -12.4050   18.4760 C   0  0  0  0  0  2  0  0  0  0  0  0
  -28.1810  -12.3180   18.8310 C   0  0  0  0  0  2  0  0  0  0  0  0
  -27.7450  -13.2760   19.9750 C   0  0  0  0  0  3  0  0  0  0  0  0
  -28.7480  -13.2710   21.1460 C   0  0  0  0  0  2  0  0  0  0  0  0
  -30.0650  -13.5890   20.5810 N   0  0  0  0  0  0  0  0  0  0  0  0
  -31.9330  -14.8700   20.5740 O   0  0  0  0  0  0  0  0  0  0  0  0
  -30.8580  -17.2050   18.2970 C   0  0  0  0  0  2  0  0  0  0  0  0
  -29.8790  -16.1220   18.7870 C   0  0  0  0  0  2  0  0  0  0  0  0
  -29.9600  -17.2890   20.9300 C   0  0  0  0  0  2  0  0  0  0  0  0
  -30.4870  -18.6310   18.7640 C   0  0  0  0  0  3  0  0  0  0  0  0
  -29.5840  -18.5910   20.0380 C   0  0  0  0  0  3  0  0  0  0  0  0
  -29.9650  -15.9240   20.2450 N   0  0  0  0  0  0  0  0  0  0  0  0
  -25.3240  -13.8700   20.5830 C   0  0  0  0  0  0  0  0  0  0  0  0
  -24.2430  -13.0950   20.9060 C   0  0  0  0  0  0  0  0  0  0  0  0
  -24.7140  -11.7470   20.9280 C   0  0  0  0  0  0  0  0  0  0  0  0
  -26.3830  -12.9920   20.4150 N   0  0  0  0  0  0  0  0  0  0  0  0
  -26.0200  -11.7130   20.6930 N   0  0  0  0  0  0  0  0  0  0  0  0
  -23.9870  -10.4820   21.0980 C   0  0  0  0  0  0  0  0  0  0  0  0
  -24.3830   -9.5280   22.0610 C   0  0  0  0  0  3  0  0  0  0  0  0
  -23.6600   -8.3270   22.2190 C   0  0  0  0  0  3  0  0  0  0  0  0
  -22.5280   -8.0700   21.4100 C   0  0  0  0  0  0  0  0  0  0  0  0
  -22.1510   -9.0120   20.4370 C   0  0  0  0  0  3  0  0  0  0  0  0
  -22.8740  -10.2060   20.2790 C   0  0  0  0  0  3  0  0  0  0  0  0
  -21.7770   -6.9210   21.4750 O   0  0  0  0  0  0  0  0  0  0  0  0
  -21.6830   -6.1890   22.6290 C   0  0  0  0  0  0  0  0  0  0  0  0
  -21.1870   -6.7480   23.8290 C   0  0  0  0  0  3  0  0  0  0  0  0
  -21.0420   -5.9400   24.9740 C   0  0  0  0  0  3  0  0  0  0  0  0
  -21.3810   -4.5740   24.9220 C   0  0  0  0  0  0  0  0  0  0  0  0
  -21.8690   -4.0160   23.7270 C   0  0  0  0  0  3  0  0  0  0  0  0
  -22.0170   -4.8200   22.5860 C   0  0  0  0  0  0  0  0  0  0  0  0
  -22.4670   -4.2720   21.4310 F   0  0  0  0  0  0  0  0  0  0  0  0
  -21.2360   -3.7960   26.0200 F   0  0  0  0  0  0  0  0  0  0  0  0
  -22.8310  -13.5690   21.0930 C   0  0  0  0  0  0  0  0  0  0  0  0
  -22.0650  -12.8820   21.9320 N   0  0  0  0  0  0  0  0  0  0  0  0
  -22.4140  -14.5820   20.5330 O   0  0  0  0  0  0  0  0  0  0  0  0
  -22.4180  -12.0620   22.4010 H   0  0  0  0  0  0  0  0  0  0  0  0
  -21.1150  -13.1800   22.1070 H   0  0  0  0  0  0  0  0  0  0  0  0
  -25.4980  -15.2350   20.3920 N   0  0  0  0  0  0  0  0  0  0  0  0
  -24.7310  -15.8980   20.4490 H   0  0  0  0  0  0  0  0  0  0  0  0
  -26.3760  -15.6600   20.1220 H   0  0  0  0  0  0  0  0  0  0  0  0
  -29.8630  -19.4780   17.6140 C   0  0  0  0  0  2  0  0  0  0  0  0
  -30.2400  -21.3800   16.0030 C   0  0  0  0  0  1  0  0  0  0  0  0
  -30.7300  -19.0740   15.2360 C   0  0  0  0  0  1  0  0  0  0  0  0
  -32.2400  -20.2140   16.9100 C   0  0  0  0  0  1  0  0  0  0  0  0
  -30.7770  -20.0090   16.4620 C   0  0  2  0  0  0  0  0  0  0  0  0
  -28.5840  -21.0450   20.4850 C   0  0  0  0  0  2  0  0  0  0  0  0
  -29.1150  -22.5350   20.1800 C   0  0  0  0  0  2  0  0  0  0  0  0
  -28.1960  -23.8300   20.4790 C   0  0  0  0  0  2  0  0  0  0  0  0
  -28.4870  -25.2010   19.6930 C   0  0  0  0  0  2  0  0  0  0  0  0
  -28.3470  -26.5420   20.3180 O   0  0  0  0  0  0  0  0  0  0  0  0
  -24.5860  -31.9420   23.2420 C   0  0  0  0  0  0  0  0  0  0  0  0
  -27.2100  -27.3580   20.2210 C   0  0  0  0  0  0  0  0  0  0  0  0
  -23.3910  -30.5470   21.5860 C   0  0  0  0  0  3  0  0  0  0  0  0
  -24.8500  -28.9830   20.1730 C   0  0  0  0  0  0  0  0  0  0  0  0
  -25.9350  -30.8470   21.4360 C   0  0  0  0  0  2  0  0  0  0  0  0
  -26.0120  -29.4660   20.7870 C   0  0  0  0  0  0  0  0  0  0  0  0
  -27.1920  -28.6650   20.8030 C   0  0  0  0  0  3  0  0  0  0  0  0
  -26.0250  -26.9180   19.5910 C   0  0  0  0  0  3  0  0  0  0  0  0
  -24.8610  -27.7150   19.5650 C   0  0  0  0  0  3  0  0  0  0  0  0
  -23.6160  -29.8640   20.2100 C   0  0  0  0  0  2  0  0  0  0  0  0
  -24.6550  -31.1300   22.1430 N   0  0  0  0  0  0  0  0  0  0  0  0
  -23.5000  -32.2290   23.7630 O   0  0  0  0  0  0  0  0  0  0  0  0
  -22.7150  -29.5360   22.5420 C   0  0  0  0  0  0  0  0  0  0  0  0
  -21.3870  -29.3750   22.4120 N   0  0  0  0  0  0  0  0  0  0  0  0
  -23.3830  -28.9030   23.3630 O   0  0  0  0  0  0  0  0  0  0  0  0
  -20.9080  -29.9480   21.7320 H   0  0  0  0  0  0  0  0  0  0  0  0
  -17.9910  -28.2230   22.9100 C   0  0  0  0  0  0  0  0  0  0  0  0
  -20.5550  -28.4410   23.1740 C   0  0  0  0  0  3  0  0  0  0  0  0
  -20.6300  -27.0100   22.5880 C   0  0  0  0  0  2  0  0  0  0  0  0
  -19.5220  -26.7150   21.5720 C   0  0  0  0  0  2  0  0  0  0  0  0
  -18.1430  -26.8780   22.2200 C   0  0  0  0  0  2  0  0  0  0  0  0
  -19.1240  -28.9640   23.3430 C   0  0  0  0  0  0  0  0  0  0  0  0
  -18.9270  -30.2240   23.9470 C   0  0  0  0  0  3  0  0  0  0  0  0
  -17.6320  -30.7450   24.1200 C   0  0  0  0  0  3  0  0  0  0  0  0
  -16.5140  -30.0020   23.7000 C   0  0  0  0  0  3  0  0  0  0  0  0
  -16.6950  -28.7410   23.1020 C   0  0  0  0  0  3  0  0  0  0  0  0
  -25.8660  -32.5670   23.8810 C   0  0  0  0  0  3  0  0  0  0  0  0
  -25.5630  -33.9700   24.2030 N   0  0  0  0  0  0  0  0  0  0  0  0
  -25.9140  -35.0160   23.4440 C   0  0  0  0  0  0  0  0  0  0  0  0
  -26.5970  -34.9020   22.4220 O   0  0  0  0  0  0  0  0  0  0  0  0
  -24.9580  -34.1320   24.9970 H   0  0  0  0  0  0  0  0  0  0  0  0
  -24.2140  -36.8310   23.0490 C   0  0  0  0  0  1  0  0  0  0  0  0
  -25.4320  -36.4120   23.8890 C   0  0  0  0  0  3  0  0  0  0  0  0
  -27.5540  -37.2750   24.7720 C   0  0  0  0  0  1  0  0  0  0  0  0
  -26.4790  -37.4520   23.7990 N   0  0  0  0  0  0  0  0  0  0  0  0
  -26.0800  -38.3760   23.9330 H   0  0  0  0  0  0  0  0  0  0  0  0
  -26.3580  -31.7980   25.1690 C   0  0  1  0  0  0  0  0  0  0  0  0
  -25.2490  -31.5740   26.2240 C   0  0  0  0  0  1  0  0  0  0  0  0
  -26.9390  -30.4130   24.7980 C   0  0  0  0  0  1  0  0  0  0  0  0
  -27.5070  -32.5890   25.8410 C   0  0  0  0  0  1  0  0  0  0  0  0
  1  3  1  0
  2  1  1  0
  5 10  1  0
  6  7  1  0
  6  5  1  0
  8  7  1  0
  8 21  1  0
  8  9  1  0
 10  4  1  0
 10  9  1  0
 11  4  2  0
 12 15  1  0
 12 13  1  0
 13 17  1  0
 15 46  1  0
 15 16  1  0
 16  1  1  0
 16 14  1  0
 17  4  1  0
 17 14  1  0
 18 19  2  0
 19 20  1  0
 19 38  1  0
 20 23  1  0
 21 18  1  0
 21 22  1  0
 22 20  2  0
 23 24  1  0
 24 25  2  0
 26 29  1  0
 26 25  1  0
 27 26  2  0
 28 27  1  0
 28 23  2  0
 29 30  1  0
 30 31  1  0
 31 32  2  0
 33 32  1  0
 33 37  1  0
 34 33  2  0
 35 30  2  0
 35 34  1  0
 36 35  1  0
 38 39  1  0
 39 42  1  0
 39 41  1  0
 40 38  2  0
 43 44  1  0
 43 18  1  0
 45 43  1  0
 50 47  1  6
 48 50  1  0
 50 49  1  0
 50 46  1  0
 51  1  1  0
 52 53  1  0
 52 51  1  0
 54 55  1  0
 54 53  1  0
 56 67  2  0
 57 55  1  0
 57 62  1  0
 58 66  1  0
 58 68  1  0
 59 65  1  0
 59 61  1  0
 60 66  1  0
 61 62  2  0
 61 60  1  0
 63 57  2  0
 64 63  1  0
 64 59  2  0
 65 58  1  0
 66 56  1  0
 68 70  2  0
 69 68  1  0
 71 69  1  0
 72 81  2  0
 72 77  1  0
 73 69  1  0
 73 77  1  0
 74 73  1  0
 75 76  1  0
 75 74  1  0
 76 72  1  0
 77 78  2  0
 78 79  1  0
 80 79  2  0
 81 80  1  0
 82 56  1  0
 82 83  1  0
 82 92  1  0
 83 86  1  0
 84 88  1  0
 84 83  1  0
 85 84  2  0
 88 87  1  0
 90 88  1  0
 90 91  1  0
 90 89  1  0
 92 95  1  1
 92 93  1  0
 94 92  1  0
M  ISO  4   4 100  17 100  54 101  55 101
M  END
>  <TORSDO>  (14) 
F 22

>  <SCORE>  (14) 
-13.069

>  <name>  (14) 
14

>  <ligand_id>  (14) 
14

>  <original_smiles>  (14) 
[H]c1c([H])c([H])c2c(c1[H])C([H])([H])C([H])([H])C([H])([H])C2([H])N([H])C(=O)C1([H])N(C(=O)C([H])(N([H])C(=O)C([H])(N([H])C([H])([H])[H])C([H])([H])[H])C(C([H])([H])[H])(C([H])([H])[H])C([H])([H])[H])C([H])([H])c2c([H])c(OC([H])([H])C([H])([H])C([H])([H])C([H])([H])[N+]([H])([H])C3([H])C([H])([H])N(C(=O)N4C([H])([H])C([H])([H])C([H])([H])C([H])(n5nc(-c6c([H])c([H])c(Oc7c([H])c([H])c(F)c([H])c7F)c([H])c6[H])c(C(=O)N([H])[H])c5N([H])[H])C4([H])[H])C([H])([H])C([H])([H])C3([H])C([H])([H])C(C([H])([H])[H])(C([H])([H])[H])C([H])([H])[H])c([H])c([H])c2C1([H])[H]

>  <smiles>  (14) 
[H]c1c([H])c([H])c2c(c1[H])C([H])([H])C([H])([H])C([H])([H])C2([H])N([H])C(=O)C1([H])N(C(=O)C([H])(N([H])C(=O)C([H])(N([H])C([H])([H])[H])C([H])([H])[H])C(C([H])([H])[H])(C([H])([H])[H])C([H])([H])[H])C([H])([H])c2c([H])c(OC([H])([H])C([H])([H])C([H])([H])C([H])([H])[N+]([H])([H])C3([H])C([H])([H])N(C(=O)N4C([H])([H])C([H])([H])C([H])([H])C([H])(n5nc(-c6c([H])c([H])c(Oc7c([H])c([H])c(F)c([H])c7F)c([H])c6[H])c(C(=O)N([H])[H])c5N([H])[H])C4([H])[H])C([H])([H])C([H])([H])C3([H])C([H])([H])C(C([H])([H])[H])(C([H])([H])[H])C([H])([H])[H])c([H])c([H])c2C1([H])[H]

$$$$
15:0:0
     RDKit          3D

 92100  0  0  1  0  0  0  0  0999 V2000
  -29.0690  -19.5820   19.0490 C   0  0  0  0  0  2  0  0  0  0  0  0
  -29.4710  -20.5380   21.1870 C   0  0  0  0  0  2  0  0  0  0  0  0
  -29.0830  -21.1720   18.9930 C   0  0  0  0  0  3  0  0  0  0  0  0
  -29.2300  -19.0650   20.5070 C   0  0  0  0  0  3  0  0  0  0  0  0
  -28.7350  -21.7620   20.3940 C   0  0  0  0  0  3  0  0  0  0  0  0
  -28.2520  -21.7280   17.8440 C   0  0  0  0  0  0  0  0  0  0  0  0
  -29.0420  -22.3980   16.7410 C   0  0  0  0  0  1  0  0  0  0  0  0
  -26.9920  -21.6290   17.7970 N   0  0  0  0  0  0  0  0  0  0  0  0
  -26.6250  -21.1430   18.6090 H   0  0  0  0  0  0  0  0  0  0  0  0
  -30.7930  -17.8320   22.1850 C   0  0  0  0  0  1  0  0  0  0  0  0
  -30.2070  -17.7050   20.7690 C   0  0  0  0  0  3  0  0  0  0  0  0
  -30.5080  -15.0030   20.3570 C   0  0  0  0  0  0  0  0  0  0  0  0
  -30.3420  -12.7030   19.3070 C   0  0  0  0  0  2  0  0  0  0  0  0
  -29.3810  -12.7170   18.0960 C   0  0  0  0  0  2  0  0  0  0  0  0
  -27.9300  -12.4800   18.5570 C   0  0  0  0  0  2  0  0  0  0  0  0
  -27.5500  -13.3550   19.7800 C   0  0  0  0  0  3  0  0  0  0  0  0
  -28.6330  -13.3270   20.8790 C   0  0  0  0  0  2  0  0  0  0  0  0
  -29.8890  -13.7590   20.2550 N   0  0  0  0  0  0  0  0  0  0  0  0
  -31.7060  -15.0600   20.0600 O   0  0  0  0  0  0  0  0  0  0  0  0
  -29.7660  -16.1940   20.5970 N   0  0  0  0  0  0  0  0  0  0  0  0
  -28.7790  -16.0330   20.7370 H   0  0  0  0  0  0  0  0  0  0  0  0
  -25.1800  -13.8900   20.5810 C   0  0  0  0  0  0  0  0  0  0  0  0
  -24.1310  -13.0940   20.9500 C   0  0  0  0  0  0  0  0  0  0  0  0
  -24.6080  -11.7490   20.8780 C   0  0  0  0  0  0  0  0  0  0  0  0
  -26.2270  -13.0280   20.2980 N   0  0  0  0  0  0  0  0  0  0  0  0
  -25.8930  -11.7340   20.5440 N   0  0  0  0  0  0  0  0  0  0  0  0
  -23.8980  -10.4750   21.0510 C   0  0  0  0  0  0  0  0  0  0  0  0
  -24.3160   -9.5190   22.0040 C   0  0  0  0  0  3  0  0  0  0  0  0
  -23.6030   -8.3110   22.1650 C   0  0  0  0  0  3  0  0  0  0  0  0
  -22.4610   -8.0490   21.3730 C   0  0  0  0  0  0  0  0  0  0  0  0
  -22.0610   -8.9940   20.4110 C   0  0  0  0  0  3  0  0  0  0  0  0
  -22.7750  -10.1940   20.2480 C   0  0  0  0  0  3  0  0  0  0  0  0
  -21.7240   -6.8910   21.4410 O   0  0  0  0  0  0  0  0  0  0  0  0
  -21.6070   -6.1800   22.6090 C   0  0  0  0  0  0  0  0  0  0  0  0
  -20.9630   -6.7150   23.7450 C   0  0  0  0  0  3  0  0  0  0  0  0
  -20.8020   -5.9250   24.9010 C   0  0  0  0  0  3  0  0  0  0  0  0
  -21.2770   -4.5990   24.9200 C   0  0  0  0  0  0  0  0  0  0  0  0
  -21.9150   -4.0630   23.7870 C   0  0  0  0  0  3  0  0  0  0  0  0
  -22.0770   -4.8520   22.6350 C   0  0  0  0  0  0  0  0  0  0  0  0
  -22.6720   -4.3240   21.5380 F   0  0  0  0  0  0  0  0  0  0  0  0
  -21.1170   -3.8370   26.0270 F   0  0  0  0  0  0  0  0  0  0  0  0
  -22.7330  -13.5490   21.2560 C   0  0  0  0  0  0  0  0  0  0  0  0
  -22.0260  -12.8250   22.1130 N   0  0  0  0  0  0  0  0  0  0  0  0
  -22.2780  -14.5840   20.7680 O   0  0  0  0  0  0  0  0  0  0  0  0
  -22.4070  -11.9890   22.5320 H   0  0  0  0  0  0  0  0  0  0  0  0
  -21.0890  -13.1120   22.3600 H   0  0  0  0  0  0  0  0  0  0  0  0
  -25.3230  -15.2660   20.4350 N   0  0  0  0  0  0  0  0  0  0  0  0
  -24.5450  -15.9030   20.5700 H   0  0  0  0  0  0  0  0  0  0  0  0
  -26.1500  -15.7250   20.0760 H   0  0  0  0  0  0  0  0  0  0  0  0
  -29.0300  -23.4090   20.6850 C   0  0  0  0  0  3  0  0  0  0  0  0
  -28.0940  -24.7300   20.2110 C   0  0  0  0  0  3  0  0  0  0  0  0
  -28.3140  -26.2350   20.5470 O   0  0  0  0  0  0  0  0  0  0  0  0
  -24.6460  -31.9990   23.3110 C   0  0  0  0  0  0  0  0  0  0  0  0
  -27.2620  -27.2160   20.4300 C   0  0  0  0  0  0  0  0  0  0  0  0
  -23.4730  -30.5800   21.6730 C   0  0  0  0  0  3  0  0  0  0  0  0
  -24.9430  -28.9680   20.3120 C   0  0  0  0  0  0  0  0  0  0  0  0
  -26.0320  -30.8270   21.5610 C   0  0  0  0  0  2  0  0  0  0  0  0
  -26.1110  -29.4210   20.9370 C   0  0  0  0  0  0  0  0  0  0  0  0
  -27.2710  -28.5610   20.9800 C   0  0  0  0  0  3  0  0  0  0  0  0
  -26.0690  -26.8630   19.7630 C   0  0  0  0  0  3  0  0  0  0  0  0
  -24.9350  -27.7010   19.7090 C   0  0  0  0  0  3  0  0  0  0  0  0
  -23.7220  -29.8740   20.3130 C   0  0  0  0  0  2  0  0  0  0  0  0
  -24.7360  -31.1580   22.2370 N   0  0  0  0  0  0  0  0  0  0  0  0
  -23.5500  -32.3010   23.8090 O   0  0  0  0  0  0  0  0  0  0  0  0
  -22.7670  -29.5950   22.6390 C   0  0  0  0  0  0  0  0  0  0  0  0
  -21.4430  -29.4190   22.4730 N   0  0  0  0  0  0  0  0  0  0  0  0
  -23.4120  -28.9930   23.5000 O   0  0  0  0  0  0  0  0  0  0  0  0
  -20.9790  -29.9550   21.7540 H   0  0  0  0  0  0  0  0  0  0  0  0
  -18.0360  -28.2880   22.9580 C   0  0  0  0  0  0  0  0  0  0  0  0
  -20.5970  -28.5020   23.2420 C   0  0  0  0  0  3  0  0  0  0  0  0
  -20.6760  -27.0650   22.6750 C   0  0  0  0  0  2  0  0  0  0  0  0
  -19.5740  -26.7590   21.6530 C   0  0  0  0  0  2  0  0  0  0  0  0
  -18.1920  -26.9320   22.2870 C   0  0  0  0  0  2  0  0  0  0  0  0
  -19.1660  -29.0310   23.3920 C   0  0  0  0  0  0  0  0  0  0  0  0
  -18.9660  -30.2990   23.9800 C   0  0  0  0  0  3  0  0  0  0  0  0
  -17.6690  -30.8220   24.1380 C   0  0  0  0  0  3  0  0  0  0  0  0
  -16.5540  -30.0770   23.7180 C   0  0  0  0  0  3  0  0  0  0  0  0
  -16.7380  -28.8110   23.1360 C   0  0  0  0  0  3  0  0  0  0  0  0
  -25.9140  -32.6390   23.9540 C   0  0  0  0  0  3  0  0  0  0  0  0
  -26.4020  -31.8790   25.2500 C   0  0  1  0  0  0  0  0  0  0  0  0
  -25.2800  -31.6220   26.2830 C   0  0  0  0  0  1  0  0  0  0  0  0
  -27.0240  -30.5120   24.8850 C   0  0  0  0  0  1  0  0  0  0  0  0
  -27.5170  -32.6960   25.9470 C   0  0  0  0  0  1  0  0  0  0  0  0
  -25.5970  -34.0410   24.2730 N   0  0  0  0  0  0  0  0  0  0  0  0
  -25.8980  -35.0880   23.4930 C   0  0  0  0  0  0  0  0  0  0  0  0
  -26.5400  -34.9770   22.4460 O   0  0  0  0  0  0  0  0  0  0  0  0
  -25.0240  -34.1990   25.0880 H   0  0  0  0  0  0  0  0  0  0  0  0
  -24.1470  -36.8660   23.1680 C   0  0  0  0  0  1  0  0  0  0  0  0
  -25.4130  -36.4790   23.9490 C   0  0  0  0  0  3  0  0  0  0  0  0
  -27.5450  -37.4140   24.7340 C   0  0  0  0  0  1  0  0  0  0  0  0
  -26.4350  -37.5390   23.7940 N   0  0  0  0  0  0  0  0  0  0  0  0
  -26.0190  -38.4590   23.9120 H   0  0  0  0  0  0  0  0  0  0  0  0
  1  4  1  0
  3  6  1  0
  3  1  1  0
  3  5  1  0
  4 11  1  0
  4  2  1  0
  5 50  1  0
  5  2  1  0
  7  6  1  0
  8  6  2  0
  8  9  1  0
 11 10  1  0
 12 20  1  0
 13 18  1  0
 14 15  1  0
 14 13  1  0
 16 15  1  0
 16 25  1  0
 16 17  1  0
 18 12  1  0
 18 17  1  0
 19 12  2  0
 20 21  1  0
 20 11  1  0
 22 23  2  0
 23 42  1  0
 24 23  1  0
 24 27  1  0
 25 26  1  0
 25 22  1  0
 26 24  2  0
 27 28  1  0
 28 29  2  0
 30 33  1  0
 30 29  1  0
 31 30  2  0
 32 31  1  0
 32 27  2  0
 33 34  1  0
 34 39  2  0
 34 35  1  0
 35 36  2  0
 36 37  1  0
 37 41  1  0
 38 37  2  0
 39 38  1  0
 40 39  1  0
 42 43  1  0
 43 46  1  0
 43 45  1  0
 44 42  2  0
 47 48  1  0
 47 22  1  0
 49 47  1  0
 51 52  1  0
 51 50  2  0
 53 64  2  0
 54 52  1  0
 54 59  1  0
 55 63  1  0
 55 65  1  0
 56 62  1  0
 56 58  1  0
 57 63  1  0
 58 59  2  0
 58 57  1  0
 60 54  2  0
 61 60  1  0
 61 56  2  0
 62 55  1  0
 63 53  1  0
 65 67  2  0
 66 65  1  0
 68 66  1  0
 69 78  2  0
 69 74  1  0
 70 66  1  0
 70 74  1  0
 71 70  1  0
 72 73  1  0
 72 71  1  0
 73 69  1  0
 74 75  2  0
 75 76  1  0
 77 76  2  0
 78 77  1  0
 79 53  1  0
 79 84  1  0
 79 80  1  0
 80 83  1  1
 80 81  1  0
 82 80  1  0
 84 87  1  0
 85 89  1  0
 85 84  1  0
 86 85  2  0
 89 88  1  0
 91 92  1  0
 91 89  1  0
 91 90  1  0
M  ISO  4  12 100  20 100  51 101  52 101
M  END
>  <TORSDO>  (15) 
F 20

>  <SCORE>  (15) 
-14.791

>  <name>  (15) 
15

>  <ligand_id>  (15) 
15

>  <original_smiles>  (15) 
[H]N=C(C([H])([H])[H])C1([H])C([H])([H])C([H])(C([H])(N([H])C(=O)N2C([H])([H])C([H])([H])C([H])([H])C([H])(n3nc(-c4c([H])c([H])c(Oc5c([H])c([H])c(F)c([H])c5F)c([H])c4[H])c(C(=O)N([H])[H])c3N([H])[H])C2([H])[H])C([H])([H])[H])C([H])([H])C1([H])C([H])([H])C([H])([H])Oc1c([H])c([H])c2c(c1[H])C([H])([H])N(C(=O)C([H])(N([H])C(=O)C([H])(N([H])C([H])([H])[H])C([H])([H])[H])C(C([H])([H])[H])(C([H])([H])[H])C([H])([H])[H])C([H])(C(=O)N([H])C1([H])c3c([H])c([H])c([H])c([H])c3C([H])([H])C([H])([H])C1([H])[H])C2([H])[H]

>  <smiles>  (15) 
[H]N=C(C([H])([H])[H])C1([H])C([H])([H])C([H])(C([H])(N([H])C(=O)N2C([H])([H])C([H])([H])C([H])([H])C([H])(n3nc(-c4c([H])c([H])c(Oc5c([H])c([H])c(F)c([H])c5F)c([H])c4[H])c(C(=O)N([H])[H])c3N([H])[H])C2([H])[H])C([H])([H])[H])C([H])([H])C1([H])C([H])([H])C([H])([H])Oc1c([H])c([H])c2c(c1[H])C([H])([H])N(C(=O)C([H])(N([H])C(=O)C([H])(N([H])C([H])([H])[H])C([H])([H])[H])C(C([H])([H])[H])(C([H])([H])[H])C([H])([H])[H])C([H])(C(=O)N([H])C1([H])c3c([H])c([H])c([H])c([H])c3C([H])([H])C([H])([H])C1([H])[H])C2([H])[H]

$$$$
16:0:0
     RDKit          3D

 89 97  0  0  1  0  0  0  0  0999 V2000
  -28.8380  -22.8340   20.4240 C   0  0  0  0  0  3  0  0  0  0  0  0
  -26.4100  -22.1290   21.3180 C   0  0  0  0  0  2  0  0  0  0  0  0
  -26.3390  -23.5740   20.9040 C   0  0  0  0  0  2  0  0  0  0  0  0
  -27.3300  -22.6520   20.2330 C   0  0  0  0  0  3  0  0  0  0  0  0
  -29.6070  -21.5620   19.8180 C   0  0  0  0  0  3  0  0  0  0  0  0
  -29.6040  -20.1740   20.6200 C   0  0  0  0  0  3  0  0  0  0  0  0
  -30.0100  -18.8160   19.8850 C   0  0  0  0  0  2  0  0  0  0  0  0
  -30.4720  -17.5980   20.8080 C   0  0  0  0  0  2  0  0  0  0  0  0
  -30.9420  -15.1230   20.1020 C   0  0  0  0  0  0  0  0  0  0  0  0
  -30.7230  -12.9030   19.0060 C   0  0  0  0  0  2  0  0  0  0  0  0
  -29.7570  -13.0460   17.8100 C   0  0  0  0  0  2  0  0  0  0  0  0
  -28.2930  -12.8640   18.2620 C   0  0  0  0  0  2  0  0  0  0  0  0
  -27.9470  -13.7020   19.5230 C   0  0  0  0  0  3  0  0  0  0  0  0
  -29.0320  -13.5530   20.6150 C   0  0  0  0  0  2  0  0  0  0  0  0
  -30.3220  -13.9080   20.0040 N   0  0  0  0  0  0  0  0  0  0  0  0
  -32.1160  -15.2820   19.7610 O   0  0  0  0  0  0  0  0  0  0  0  0
  -30.1360  -16.1840   20.4180 N   0  0  0  0  0  0  0  0  0  0  0  0
  -29.1700  -15.9230   20.5530 H   0  0  0  0  0  0  0  0  0  0  0  0
  -25.5580  -14.2680   20.2740 C   0  0  0  0  0  0  0  0  0  0  0  0
  -24.5070  -13.4820   20.6600 C   0  0  0  0  0  0  0  0  0  0  0  0
  -24.9860  -12.1370   20.6220 C   0  0  0  0  0  0  0  0  0  0  0  0
  -26.6110  -13.4020   20.0280 N   0  0  0  0  0  0  0  0  0  0  0  0
  -26.2730  -12.1150   20.2970 N   0  0  0  0  0  0  0  0  0  0  0  0
  -24.2760  -10.8670   20.8200 C   0  0  0  0  0  0  0  0  0  0  0  0
  -24.6910   -9.9320   21.7950 C   0  0  0  0  0  3  0  0  0  0  0  0
  -23.9800   -8.7270   21.9800 C   0  0  0  0  0  3  0  0  0  0  0  0
  -22.8400   -8.4460   21.1870 C   0  0  0  0  0  0  0  0  0  0  0  0
  -22.4470   -9.3690   20.2010 C   0  0  0  0  0  3  0  0  0  0  0  0
  -23.1590  -10.5660   20.0150 C   0  0  0  0  0  3  0  0  0  0  0  0
  -22.1060   -7.2880   21.2770 O   0  0  0  0  0  0  0  0  0  0  0  0
  -21.9820   -6.6050   22.4600 C   0  0  0  0  0  0  0  0  0  0  0  0
  -21.4140   -7.2010   23.6080 C   0  0  0  0  0  3  0  0  0  0  0  0
  -21.2420   -6.4400   24.7830 C   0  0  0  0  0  3  0  0  0  0  0  0
  -21.6260   -5.0870   24.8090 C   0  0  0  0  0  0  0  0  0  0  0  0
  -22.1860   -4.4910   23.6650 C   0  0  0  0  0  3  0  0  0  0  0  0
  -22.3610   -5.2480   22.4930 C   0  0  0  0  0  0  0  0  0  0  0  0
  -22.8800   -4.6650   21.3870 F   0  0  0  0  0  0  0  0  0  0  0  0
  -21.4540   -4.3540   25.9340 F   0  0  0  0  0  0  0  0  0  0  0  0
  -23.1070  -13.9420   20.9490 C   0  0  0  0  0  0  0  0  0  0  0  0
  -22.4010  -13.2400   21.8260 N   0  0  0  0  0  0  0  0  0  0  0  0
  -22.6500  -14.9610   20.4310 O   0  0  0  0  0  0  0  0  0  0  0  0
  -22.7870  -12.4180   22.2660 H   0  0  0  0  0  0  0  0  0  0  0  0
  -21.4630  -13.5280   22.0610 H   0  0  0  0  0  0  0  0  0  0  0  0
  -25.6970  -15.6430   20.0960 N   0  0  0  0  0  0  0  0  0  0  0  0
  -24.9060  -16.2690   20.1950 H   0  0  0  0  0  0  0  0  0  0  0  0
  -26.5200  -16.1030   19.7280 H   0  0  0  0  0  0  0  0  0  0  0  0
  -29.2860  -24.2930   19.9140 C   0  0  0  0  0  3  0  0  0  0  0  0
  -28.6000  -25.5810   20.5750 C   0  0  0  0  0  3  0  0  0  0  0  0
  -28.7310  -26.9370   19.9850 O   0  0  0  0  0  0  0  0  0  0  0  0
  -24.7810  -32.0190   23.2780 C   0  0  0  0  0  0  0  0  0  0  0  0
  -27.5900  -27.7490   20.0020 C   0  0  0  0  0  0  0  0  0  0  0  0
  -23.6420  -30.6630   21.5570 C   0  0  0  0  0  3  0  0  0  0  0  0
  -25.1610  -29.2530   20.0600 C   0  0  0  0  0  0  0  0  0  0  0  0
  -26.1660  -31.0980   21.4070 C   0  0  0  0  0  2  0  0  0  0  0  0
  -26.3070  -29.7610   20.6870 C   0  0  0  0  0  0  0  0  0  0  0  0
  -27.5270  -29.0220   20.6470 C   0  0  0  0  0  3  0  0  0  0  0  0
  -26.4240  -27.2940   19.3490 C   0  0  0  0  0  3  0  0  0  0  0  0
  -25.2220  -28.0240   19.3800 C   0  0  0  0  0  3  0  0  0  0  0  0
  -23.8880  -30.0700   20.1440 C   0  0  0  0  0  2  0  0  0  0  0  0
  -24.8800  -31.2750   22.1380 N   0  0  0  0  0  0  0  0  0  0  0  0
  -23.6840  -32.2240   23.8200 O   0  0  0  0  0  0  0  0  0  0  0  0
  -23.0170  -29.5720   22.4590 C   0  0  0  0  0  0  0  0  0  0  0  0
  -21.6970  -29.3560   22.3210 N   0  0  0  0  0  0  0  0  0  0  0  0
  -23.7170  -28.9240   23.2410 O   0  0  0  0  0  0  0  0  0  0  0  0
  -21.1900  -29.9360   21.6670 H   0  0  0  0  0  0  0  0  0  0  0  0
  -18.3550  -28.0500   22.7820 C   0  0  0  0  0  0  0  0  0  0  0  0
  -20.9110  -28.3480   23.0340 C   0  0  0  0  0  3  0  0  0  0  0  0
  -21.0360  -26.9630   22.3570 C   0  0  0  0  0  2  0  0  0  0  0  0
  -19.9250  -26.6880   21.3390 C   0  0  0  0  0  2  0  0  0  0  0  0
  -18.5510  -26.7550   22.0100 C   0  0  0  0  0  2  0  0  0  0  0  0
  -19.4630  -28.8050   23.2500 C   0  0  0  0  0  0  0  0  0  0  0  0
  -19.2260  -30.0170   23.9340 C   0  0  0  0  0  3  0  0  0  0  0  0
  -17.9130  -30.4750   24.1540 C   0  0  0  0  0  3  0  0  0  0  0  0
  -16.8200  -29.7160   23.7020 C   0  0  0  0  0  3  0  0  0  0  0  0
  -17.0410  -28.5060   23.0230 C   0  0  0  0  0  3  0  0  0  0  0  0
  -26.0350  -32.6670   23.9410 C   0  0  0  0  0  3  0  0  0  0  0  0
  -25.6820  -34.0480   24.3060 N   0  0  0  0  0  0  0  0  0  0  0  0
  -25.9750  -35.1280   23.5700 C   0  0  0  0  0  0  0  0  0  0  0  0
  -26.6400  -35.0690   22.5320 O   0  0  0  0  0  0  0  0  0  0  0  0
  -25.0870  -34.1640   25.1140 H   0  0  0  0  0  0  0  0  0  0  0  0
  -24.1720  -36.8600   23.2890 C   0  0  0  0  0  1  0  0  0  0  0  0
  -25.4480  -36.4900   24.0630 C   0  0  0  0  0  3  0  0  0  0  0  0
  -27.5620  -37.4460   24.8630 C   0  0  0  0  0  1  0  0  0  0  0  0
  -26.4370  -37.5820   23.9420 N   0  0  0  0  0  0  0  0  0  0  0  0
  -26.0000  -38.4850   24.1070 H   0  0  0  0  0  0  0  0  0  0  0  0
  -26.5480  -31.8740   25.2070 C   0  0  1  0  0  0  0  0  0  0  0  0
  -25.4390  -31.5750   26.2430 C   0  0  0  0  0  1  0  0  0  0  0  0
  -27.1820  -30.5270   24.7910 C   0  0  0  0  0  1  0  0  0  0  0  0
  -27.6610  -32.6820   25.9160 C   0  0  0  0  0  1  0  0  0  0  0  0
  1  5  1  0
  3  2  1  0
  4  1  1  0
  4  3  1  0
  4  2  1  0
  5  6  2  0
  7  6  1  0
  7  8  1  0
  9 17  1  0
 10 15  1  0
 11 12  1  0
 11 10  1  0
 13 12  1  0
 13 22  1  0
 13 14  1  0
 15  9  1  0
 15 14  1  0
 16  9  2  0
 17 18  1  0
 17  8  1  0
 19 20  2  0
 20 39  1  0
 21 20  1  0
 21 24  1  0
 22 19  1  0
 22 23  1  0
 23 21  2  0
 24 25  1  0
 25 26  2  0
 27 30  1  0
 27 26  1  0
 28 27  2  0
 29 28  1  0
 29 24  2  0
 30 31  1  0
 31 36  2  0
 31 32  1  0
 32 33  2  0
 33 34  1  0
 34 38  1  0
 35 34  2  0
 36 35  1  0
 37 36  1  0
 39 40  1  0
 40 43  1  0
 40 42  1  0
 41 39  2  0
 44 45  1  0
 44 19  1  0
 46 44  1  0
 47  1  1  0
 47 48  2  0
 49 51  1  0
 49 48  1  0
 50 61  2  0
 51 56  1  0
 52 60  1  0
 52 62  1  0
 53 59  1  0
 53 55  1  0
 54 60  1  0
 55 54  1  0
 56 55  2  0
 57 58  1  0
 57 51  2  0
 58 53  2  0
 59 52  1  0
 60 50  1  0
 62 64  2  0
 63 62  1  0
 65 63  1  0
 66 75  2  0
 66 71  1  0
 67 63  1  0
 67 71  1  0
 68 67  1  0
 69 70  1  0
 69 68  1  0
 70 66  1  0
 71 72  2  0
 72 73  1  0
 74 73  2  0
 75 74  1  0
 76 50  1  0
 76 77  1  0
 76 86  1  0
 77 80  1  0
 78 82  1  0
 78 77  1  0
 79 78  2  0
 82 81  1  0
 84 82  1  0
 84 85  1  0
 84 83  1  0
 86 89  1  1
 86 87  1  0
 88 86  1  0
M  ISO  4   9 100  17 100  48 101  49 101
M  END
>  <TORSDO>  (16) 
F 23

>  <SCORE>  (16) 
-10.916

>  <name>  (16) 
16

>  <ligand_id>  (16) 
16

>  <original_smiles>  (16) 
[H]c1c([H])c([H])c2c(c1[H])C([H])([H])C([H])([H])C([H])([H])C2([H])N([H])C(=O)C1([H])N(C(=O)C([H])(N([H])C(=O)C([H])(N([H])C([H])([H])[H])C([H])([H])[H])C(C([H])([H])[H])(C([H])([H])[H])C([H])([H])[H])C([H])([H])c2c([H])c(OC([H])([H])C([H])([H])C([H])(C([H])([H])C([H])([H])C([H])([H])C([H])([H])N([H])C(=O)N3C([H])([H])C([H])([H])C([H])([H])C([H])(n4nc(-c5c([H])c([H])c(Oc6c([H])c([H])c(F)c([H])c6F)c([H])c5[H])c(C(=O)N([H])[H])c4N([H])[H])C3([H])[H])C3([H])C([H])([H])C3([H])[H])c([H])c([H])c2C1([H])[H]

>  <smiles>  (16) 
[H]c1c([H])c([H])c2c(c1[H])C([H])([H])C([H])([H])C([H])([H])C2([H])N([H])C(=O)C1([H])N(C(=O)C([H])(N([H])C(=O)C([H])(N([H])C([H])([H])[H])C([H])([H])[H])C(C([H])([H])[H])(C([H])([H])[H])C([H])([H])[H])C([H])([H])c2c([H])c(OC([H])([H])C([H])([H])C([H])(C([H])([H])C([H])([H])C([H])([H])C([H])([H])N([H])C(=O)N3C([H])([H])C([H])([H])C([H])([H])C([H])(n4nc(-c5c([H])c([H])c(Oc6c([H])c([H])c(F)c([H])c6F)c([H])c5[H])c(C(=O)N([H])[H])c4N([H])[H])C3([H])[H])C3([H])C([H])([H])C3([H])[H])c([H])c([H])c2C1([H])[H]

$$$$
17:0:0
     RDKit          3D

 92100  0  0  1  0  0  0  0  0999 V2000
  -29.6970  -20.4140   19.6290 C   0  0  0  0  0  3  0  0  0  0  0  0
  -27.7270  -19.4110   20.6370 C   0  0  0  0  0  3  0  0  0  0  0  0
  -30.2580  -19.1320   19.4490 C   0  0  0  0  0  3  0  0  0  0  0  0
  -28.2810  -18.1250   20.4390 C   0  0  0  0  0  3  0  0  0  0  0  0
  -28.4100  -20.5600   20.1830 C   0  0  0  0  0  0  0  0  0  0  0  0
  -29.5250  -17.9690   19.7890 C   0  0  0  0  0  0  0  0  0  0  0  0
  -30.2790  -16.6400   17.7810 C   0  0  0  0  0  1  0  0  0  0  0  0
  -29.9490  -16.5760   19.2930 C   0  0  0  0  0  3  0  0  0  0  0  0
  -31.5780  -14.7280   19.8130 C   0  0  0  0  0  0  0  0  0  0  0  0
  -31.2020  -12.4030   19.0630 C   0  0  0  0  0  2  0  0  0  0  0  0
  -30.2580  -12.3550   17.8450 C   0  0  0  0  0  2  0  0  0  0  0  0
  -28.7860  -12.3230   18.3020 C   0  0  0  0  0  2  0  0  0  0  0  0
  -28.4560  -13.3850   19.3810 C   0  0  0  0  0  3  0  0  0  0  0  0
  -29.5260  -13.4190   20.4990 C   0  0  0  0  0  2  0  0  0  0  0  0
  -30.8420  -13.5820   19.8680 N   0  0  0  0  0  0  0  0  0  0  0  0
  -32.7470  -14.7420   19.4230 O   0  0  0  0  0  0  0  0  0  0  0  0
  -30.9810  -15.9010   20.1080 N   0  0  0  0  0  0  0  0  0  0  0  0
  -31.6600  -16.5770   20.4250 H   0  0  0  0  0  0  0  0  0  0  0  0
  -26.1490  -14.1900   20.1780 C   0  0  0  0  0  0  0  0  0  0  0  0
  -25.0380  -13.5050   20.5870 C   0  0  0  0  0  0  0  0  0  0  0  0
  -25.3940  -12.1220   20.5530 C   0  0  0  0  0  0  0  0  0  0  0  0
  -27.1120  -13.2250   19.9190 N   0  0  0  0  0  0  0  0  0  0  0  0
  -26.6660  -11.9790   20.2080 N   0  0  0  0  0  0  0  0  0  0  0  0
  -24.5810  -10.9200   20.7680 C   0  0  0  0  0  0  0  0  0  0  0  0
  -24.9300   -9.9590   21.7410 C   0  0  0  0  0  3  0  0  0  0  0  0
  -24.1210   -8.8180   21.9410 C   0  0  0  0  0  3  0  0  0  0  0  0
  -22.9520   -8.6350   21.1640 C   0  0  0  0  0  0  0  0  0  0  0  0
  -22.6240   -9.5830   20.1800 C   0  0  0  0  0  3  0  0  0  0  0  0
  -23.4320  -10.7150   19.9790 C   0  0  0  0  0  3  0  0  0  0  0  0
  -22.1210   -7.5470   21.2720 O   0  0  0  0  0  0  0  0  0  0  0  0
  -21.9390   -6.8970   22.4670 C   0  0  0  0  0  0  0  0  0  0  0  0
  -21.4260   -7.5570   23.6050 C   0  0  0  0  0  3  0  0  0  0  0  0
  -21.1900   -6.8350   24.7920 C   0  0  0  0  0  3  0  0  0  0  0  0
  -21.4570   -5.4530   24.8400 C   0  0  0  0  0  0  0  0  0  0  0  0
  -21.9620   -4.7930   23.7060 C   0  0  0  0  0  3  0  0  0  0  0  0
  -22.2000   -5.5130   22.5220 C   0  0  0  0  0  0  0  0  0  0  0  0
  -22.6680   -4.8670   21.4260 F   0  0  0  0  0  0  0  0  0  0  0  0
  -21.2230   -4.7580   25.9770 F   0  0  0  0  0  0  0  0  0  0  0  0
  -23.6890  -14.0900   20.8930 C   0  0  0  0  0  0  0  0  0  0  0  0
  -22.9420  -13.4660   21.7960 N   0  0  0  0  0  0  0  0  0  0  0  0
  -23.3100  -15.1340   20.3650 O   0  0  0  0  0  0  0  0  0  0  0  0
  -23.2600  -12.6210   22.2470 H   0  0  0  0  0  0  0  0  0  0  0  0
  -22.0380  -13.8420   22.0460 H   0  0  0  0  0  0  0  0  0  0  0  0
  -26.4040  -15.5440   19.9770 N   0  0  0  0  0  0  0  0  0  0  0  0
  -25.6750  -16.2400   20.0930 H   0  0  0  0  0  0  0  0  0  0  0  0
  -27.2390  -15.9210   19.5540 H   0  0  0  0  0  0  0  0  0  0  0  0
  -27.6970  -21.9100   20.1350 C   0  0  0  0  0  2  0  0  0  0  0  0
  -28.4120  -23.1070   20.8050 C   0  0  0  0  0  2  0  0  0  0  0  0
  -28.1400  -24.4270   20.0400 C   0  0  0  0  0  2  0  0  0  0  0  0
  -29.9250  -25.7880   21.3010 C   0  0  0  0  0  1  0  0  0  0  0  0
  -28.4840  -25.7450   20.7730 C   0  0  0  0  0  3  0  0  0  0  0  0
  -28.3550  -26.8440   19.8650 O   0  0  0  0  0  0  0  0  0  0  0  0
  -24.5190  -31.8430   23.1590 C   0  0  0  0  0  0  0  0  0  0  0  0
  -27.1760  -27.5440   19.9270 C   0  0  0  0  0  0  0  0  0  0  0  0
  -23.3100  -30.4980   21.4670 C   0  0  0  0  0  3  0  0  0  0  0  0
  -24.7680  -29.0130   19.9900 C   0  0  0  0  0  0  0  0  0  0  0  0
  -25.8290  -30.8810   21.2720 C   0  0  0  0  0  2  0  0  0  0  0  0
  -25.9200  -29.5320   20.5940 C   0  0  0  0  0  0  0  0  0  0  0  0
  -27.1290  -28.8020   20.5640 C   0  0  0  0  0  3  0  0  0  0  0  0
  -26.0150  -27.0370   19.3070 C   0  0  0  0  0  3  0  0  0  0  0  0
  -24.8080  -27.7640   19.3440 C   0  0  0  0  0  3  0  0  0  0  0  0
  -23.5170  -29.8590   20.0670 C   0  0  0  0  0  2  0  0  0  0  0  0
  -24.5710  -31.0860   22.0270 N   0  0  0  0  0  0  0  0  0  0  0  0
  -23.4400  -32.0890   23.7160 O   0  0  0  0  0  0  0  0  0  0  0  0
  -22.6670  -29.4420   22.3950 C   0  0  0  0  0  0  0  0  0  0  0  0
  -21.3420  -29.2650   22.2730 N   0  0  0  0  0  0  0  0  0  0  0  0
  -23.3590  -28.7840   23.1780 O   0  0  0  0  0  0  0  0  0  0  0  0
  -20.8440  -29.8400   21.6090 H   0  0  0  0  0  0  0  0  0  0  0  0
  -17.9700  -28.0890   22.7990 C   0  0  0  0  0  0  0  0  0  0  0  0
  -20.5370  -28.2980   23.0170 C   0  0  0  0  0  3  0  0  0  0  0  0
  -20.6030  -26.9000   22.3580 C   0  0  0  0  0  2  0  0  0  0  0  0
  -19.4680  -26.6490   21.3600 C   0  0  0  0  0  2  0  0  0  0  0  0
  -18.1090  -26.7760   22.0500 C   0  0  0  0  0  2  0  0  0  0  0  0
  -19.1110  -28.8110   23.2410 C   0  0  0  0  0  0  0  0  0  0  0  0
  -18.9290  -30.0430   23.9010 C   0  0  0  0  0  3  0  0  0  0  0  0
  -17.6350  -30.5520   24.1300 C   0  0  0  0  0  3  0  0  0  0  0  0
  -16.5090  -29.8270   23.7030 C   0  0  0  0  0  3  0  0  0  0  0  0
  -16.6770  -28.5980   23.0400 C   0  0  0  0  0  3  0  0  0  0  0  0
  -25.8080  -32.4530   23.7950 C   0  0  0  0  0  3  0  0  0  0  0  0
  -25.5090  -33.8470   24.1460 N   0  0  0  0  0  0  0  0  0  0  0  0
  -25.8470  -34.9070   23.4000 C   0  0  0  0  0  0  0  0  0  0  0  0
  -26.5160  -34.8140   22.3680 O   0  0  0  0  0  0  0  0  0  0  0  0
  -24.9160  -33.9940   24.9510 H   0  0  0  0  0  0  0  0  0  0  0  0
  -24.1330  -36.7150   23.0620 C   0  0  0  0  0  1  0  0  0  0  0  0
  -25.3670  -36.2910   23.8750 C   0  0  0  0  0  3  0  0  0  0  0  0
  -27.4940  -37.1570   24.7440 C   0  0  0  0  0  1  0  0  0  0  0  0
  -26.4070  -37.3380   23.7840 N   0  0  0  0  0  0  0  0  0  0  0  0
  -26.0040  -38.2600   23.9280 H   0  0  0  0  0  0  0  0  0  0  0  0
  -26.3170  -31.6570   25.0580 C   0  0  1  0  0  0  0  0  0  0  0  0
  -25.2170  -31.4010   26.1150 C   0  0  0  0  0  1  0  0  0  0  0  0
  -26.9030  -30.2860   24.6450 C   0  0  0  0  0  1  0  0  0  0  0  0
  -27.4640  -32.4360   25.7450 C   0  0  0  0  0  1  0  0  0  0  0  0
  1  5  1  0
  3  1  2  0
  3  6  1  0
  4  2  1  0
  5  2  2  0
  6  4  2  0
  8  7  1  0
  8  6  1  0
  8 17  1  0
  9 15  1  0
  9 17  1  0
 10 15  1  0
 11 12  1  0
 11 10  1  0
 13 12  1  0
 13 22  1  0
 13 14  1  0
 15 14  1  0
 16  9  2  0
 17 18  1  0
 19 20  2  0
 20 39  1  0
 21 20  1  0
 21 24  1  0
 22 19  1  0
 22 23  1  0
 23 21  2  0
 24 25  1  0
 25 26  2  0
 27 30  1  0
 27 26  1  0
 28 27  2  0
 29 28  1  0
 29 24  2  0
 30 31  1  0
 31 36  2  0
 31 32  1  0
 32 33  2  0
 33 34  1  0
 34 38  1  0
 35 34  2  0
 36 35  1  0
 37 36  1  0
 39 40  1  0
 40 43  1  0
 40 42  1  0
 41 39  2  0
 44 45  1  0
 44 19  1  0
 46 44  1  0
 47  5  1  0
 47 48  1  0
 49 51  1  0
 49 48  1  0
 51 50  1  0
 52 54  1  0
 52 51  1  0
 53 64  2  0
 54 59  1  0
 55 63  1  0
 55 65  1  0
 56 62  1  0
 56 58  1  0
 57 63  1  0
 58 57  1  0
 59 58  2  0
 60 61  1  0
 60 54  2  0
 61 56  2  0
 62 55  1  0
 63 53  1  0
 65 67  2  0
 66 65  1  0
 68 66  1  0
 69 78  2  0
 69 74  1  0
 70 66  1  0
 70 74  1  0
 71 70  1  0
 72 73  1  0
 72 71  1  0
 73 69  1  0
 74 75  2  0
 75 76  1  0
 77 76  2  0
 78 77  1  0
 79 53  1  0
 79 80  1  0
 79 89  1  0
 80 83  1  0
 81 85  1  0
 81 80  1  0
 82 81  2  0
 85 84  1  0
 87 85  1  0
 87 88  1  0
 87 86  1  0
 89 92  1  1
 89 90  1  0
 91 89  1  0
M  ISO  4   9 100  17 100  51 101  52 101
M  END
>  <TORSDO>  (17) 
F 21

>  <SCORE>  (17) 
-11.794

>  <name>  (17) 
17

>  <ligand_id>  (17) 
17

>  <original_smiles>  (17) 
[H]c1c([H])c([H])c2c(c1[H])C([H])([H])C([H])([H])C([H])([H])C2([H])N([H])C(=O)C1([H])N(C(=O)C([H])(N([H])C(=O)C([H])(N([H])C([H])([H])[H])C([H])([H])[H])C(C([H])([H])[H])(C([H])([H])[H])C([H])([H])[H])C([H])([H])c2c([H])c(OC([H])(C([H])([H])[H])C([H])([H])C([H])([H])C([H])([H])c3c([H])c([H])c(C([H])(N([H])C(=O)N4C([H])([H])C([H])([H])C([H])([H])C([H])(n5nc(-c6c([H])c([H])c(Oc7c([H])c([H])c(F)c([H])c7F)c([H])c6[H])c(C(=O)N([H])[H])c5N([H])[H])C4([H])[H])C([H])([H])[H])c([H])c3[H])c([H])c([H])c2C1([H])[H]

>  <smiles>  (17) 
[H]c1c([H])c([H])c2c(c1[H])C([H])([H])C([H])([H])C([H])([H])C2([H])N([H])C(=O)C1([H])N(C(=O)C([H])(N([H])C(=O)C([H])(N([H])C([H])([H])[H])C([H])([H])[H])C(C([H])([H])[H])(C([H])([H])[H])C([H])([H])[H])C([H])([H])c2c([H])c(OC([H])(C([H])([H])[H])C([H])([H])C([H])([H])C([H])([H])c3c([H])c([H])c(C([H])(N([H])C(=O)N4C([H])([H])C([H])([H])C([H])([H])C([H])(n5nc(-c6c([H])c([H])c(Oc7c([H])c([H])c(F)c([H])c7F)c([H])c6[H])c(C(=O)N([H])[H])c5N([H])[H])C4([H])[H])C([H])([H])[H])c([H])c3[H])c([H])c([H])c2C1([H])[H]

$$$$
18:0:0
     RDKit          3D

 94101  0  0  1  0  0  0  0  0999 V2000
  -29.2210  -20.6950   19.9970 C   0  0  0  0  0  3  0  0  0  0  0  0
  -29.2310  -21.8940   19.0750 N   0  0  0  0  0  4  0  0  0  0  0  0
  -29.9400  -21.5690   18.4270 H   0  0  0  0  0  0  0  0  0  0  0  0
  -28.3780  -21.9250   18.5400 H   0  0  0  0  0  0  0  0  0  0  0  0
  -29.6780  -23.2760   19.4670 C   0  0  0  0  0  2  0  0  0  0  0  0
  -28.5620  -24.3830   19.6110 C   0  0  0  0  0  2  0  0  0  0  0  0
  -28.6290  -25.6340   18.6720 C   0  0  0  0  0  2  0  0  0  0  0  0
  -28.4530  -26.8830   19.3820 O   0  0  0  0  0  0  0  0  0  0  0  0
  -24.5970  -31.6970   23.0020 C   0  0  0  0  0  0  0  0  0  0  0  0
  -27.2280  -27.5170   19.4990 C   0  0  0  0  0  0  0  0  0  0  0  0
  -23.3560  -30.3640   21.3290 C   0  0  0  0  0  3  0  0  0  0  0  0
  -24.7820  -28.9450   19.7540 C   0  0  0  0  0  0  0  0  0  0  0  0
  -25.8650  -30.7850   21.0610 C   0  0  0  0  0  2  0  0  0  0  0  0
  -25.9540  -29.4610   20.3240 C   0  0  0  0  0  0  0  0  0  0  0  0
  -27.1700  -28.7490   20.2000 C   0  0  0  0  0  3  0  0  0  0  0  0
  -26.0280  -27.0050   18.9500 C   0  0  0  0  0  3  0  0  0  0  0  0
  -24.8180  -27.7130   19.0730 C   0  0  0  0  0  3  0  0  0  0  0  0
  -23.5250  -29.7680   19.9070 C   0  0  0  0  0  2  0  0  0  0  0  0
  -24.6260  -30.9630   21.8550 N   0  0  0  0  0  0  0  0  0  0  0  0
  -23.5280  -31.9140   23.5960 O   0  0  0  0  0  0  0  0  0  0  0  0
  -22.7720  -29.2760   22.2540 C   0  0  0  0  0  0  0  0  0  0  0  0
  -21.4470  -29.0730   22.1820 N   0  0  0  0  0  0  0  0  0  0  0  0
  -23.5080  -28.6110   22.9870 O   0  0  0  0  0  0  0  0  0  0  0  0
  -20.9100  -29.6650   21.5640 H   0  0  0  0  0  0  0  0  0  0  0  0
  -18.1330  -27.7570   22.7690 C   0  0  0  0  0  0  0  0  0  0  0  0
  -20.6930  -28.0660   22.9270 C   0  0  0  0  0  3  0  0  0  0  0  0
  -20.7970  -26.6770   22.2480 C   0  0  0  0  0  2  0  0  0  0  0  0
  -19.6470  -26.3970   21.2700 C   0  0  0  0  0  2  0  0  0  0  0  0
  -18.3010  -26.4620   21.9930 C   0  0  0  0  0  2  0  0  0  0  0  0
  -19.2540  -28.5190   23.1920 C   0  0  0  0  0  0  0  0  0  0  0  0
  -19.0310  -29.7350   23.8780 C   0  0  0  0  0  3  0  0  0  0  0  0
  -17.7260  -30.1900   24.1350 C   0  0  0  0  0  3  0  0  0  0  0  0
  -16.6220  -29.4260   23.7210 C   0  0  0  0  0  3  0  0  0  0  0  0
  -16.8290  -28.2070   23.0480 C   0  0  0  0  0  3  0  0  0  0  0  0
  -25.8960  -32.3190   23.6070 C   0  0  0  0  0  3  0  0  0  0  0  0
  -26.4950  -31.4630   24.7870 C   0  0  1  0  0  0  0  0  0  0  0  0
  -25.4670  -31.1200   25.8930 C   0  0  0  0  0  1  0  0  0  0  0  0
  -27.0760  -30.1270   24.2650 C   0  0  0  0  0  1  0  0  0  0  0  0
  -27.6700  -32.2370   25.4350 C   0  0  0  0  0  1  0  0  0  0  0  0
  -25.5690  -33.6750   24.0690 N   0  0  0  0  0  0  0  0  0  0  0  0
  -25.8250  -34.7950   23.3800 C   0  0  0  0  0  0  0  0  0  0  0  0
  -26.4410  -34.7950   22.3120 O   0  0  0  0  0  0  0  0  0  0  0  0
  -25.0270  -33.7480   24.9190 H   0  0  0  0  0  0  0  0  0  0  0  0
  -24.0360  -36.5460   23.2520 C   0  0  0  0  0  1  0  0  0  0  0  0
  -25.3220  -36.1190   23.9760 C   0  0  0  0  0  3  0  0  0  0  0  0
  -27.4660  -37.0140   24.7740 C   0  0  0  0  0  1  0  0  0  0  0  0
  -26.3120  -37.2130   23.9030 N   0  0  0  0  0  0  0  0  0  0  0  0
  -25.8840  -38.1050   24.1430 H   0  0  0  0  0  0  0  0  0  0  0  0
  -30.2330  -19.6490   19.3870 C   0  0  0  0  0  0  0  0  0  0  0  0
  -30.9210  -19.9930   18.4190 O   0  0  0  0  0  0  0  0  0  0  0  0
  -30.4790  -18.1810   19.8990 C   0  0  0  0  0  2  0  0  0  0  0  0
  -28.1460  -17.2080   20.2670 C   0  0  0  0  0  1  0  0  0  0  0  0
  -29.5240  -17.4390   20.8810 C   0  0  0  0  0  3  0  0  0  0  0  0
  -30.1220  -16.1610   21.6120 C   0  0  0  0  0  2  0  0  0  0  0  0
  -30.7530  -14.9390   20.8250 C   0  0  0  0  0  0  0  0  0  0  0  0
  -30.6660  -12.6890   19.7660 C   0  0  0  0  0  2  0  0  0  0  0  0
  -29.7570  -12.7200   18.5130 C   0  0  0  0  0  2  0  0  0  0  0  0
  -28.2640  -12.5410   18.8660 C   0  0  0  0  0  2  0  0  0  0  0  0
  -27.8480  -13.4160   20.0700 C   0  0  0  0  0  3  0  0  0  0  0  0
  -28.8520  -13.3240   21.2400 C   0  0  0  0  0  2  0  0  0  0  0  0
  -30.1660  -13.7050   20.7160 N   0  0  0  0  0  0  0  0  0  0  0  0
  -31.8520  -15.1310   20.3050 O   0  0  0  0  0  0  0  0  0  0  0  0
  -25.4240  -14.0470   20.6710 C   0  0  0  0  0  0  0  0  0  0  0  0
  -24.3320  -13.2810   20.9620 C   0  0  0  0  0  0  0  0  0  0  0  0
  -24.7820  -11.9320   20.8950 C   0  0  0  0  0  0  0  0  0  0  0  0
  -26.4720  -13.1610   20.4660 N   0  0  0  0  0  0  0  0  0  0  0  0
  -26.0830  -11.8780   20.6570 N   0  0  0  0  0  0  0  0  0  0  0  0
  -24.0340  -10.6810   20.9880 C   0  0  0  0  0  0  0  0  0  0  0  0
  -24.4570   -9.6370   21.8410 C   0  0  0  0  0  3  0  0  0  0  0  0
  -23.7120   -8.4440   21.9250 C   0  0  0  0  0  3  0  0  0  0  0  0
  -22.5330   -8.2890   21.1570 C   0  0  0  0  0  0  0  0  0  0  0  0
  -22.1340   -9.3230   20.2900 C   0  0  0  0  0  3  0  0  0  0  0  0
  -22.8780  -10.5100   20.2020 C   0  0  0  0  0  3  0  0  0  0  0  0
  -21.7540   -7.1620   21.1610 O   0  0  0  0  0  0  0  0  0  0  0  0
  -21.7280   -6.3100   22.2370 C   0  0  0  0  0  0  0  0  0  0  0  0
  -21.3780   -6.7580   23.5290 C   0  0  0  0  0  3  0  0  0  0  0  0
  -21.2870   -5.8370   24.5920 C   0  0  0  0  0  3  0  0  0  0  0  0
  -21.5450   -4.4720   24.3650 C   0  0  0  0  0  0  0  0  0  0  0  0
  -21.8880   -4.0240   23.0800 C   0  0  0  0  0  3  0  0  0  0  0  0
  -21.9790   -4.9430   22.0160 C   0  0  0  0  0  0  0  0  0  0  0  0
  -22.2890   -4.5040   20.7740 F   0  0  0  0  0  0  0  0  0  0  0  0
  -21.4590   -3.5840   25.3860 F   0  0  0  0  0  0  0  0  0  0  0  0
  -22.9340  -13.7690   21.2050 C   0  0  0  0  0  0  0  0  0  0  0  0
  -22.1730  -13.0560   22.0290 N   0  0  0  0  0  0  0  0  0  0  0  0
  -22.5270  -14.8210   20.7160 O   0  0  0  0  0  0  0  0  0  0  0  0
  -22.5250  -12.2060   22.4460 H   0  0  0  0  0  0  0  0  0  0  0  0
  -21.2370  -13.3660   22.2620 H   0  0  0  0  0  0  0  0  0  0  0  0
  -25.5810  -15.4180   20.5470 N   0  0  0  0  0  0  0  0  0  0  0  0
  -24.8170  -16.0680   20.6960 H   0  0  0  0  0  0  0  0  0  0  0  0
  -26.4500  -15.8750   20.3130 H   0  0  0  0  0  0  0  0  0  0  0  0
  -29.3840  -20.9540   21.5300 C   0  0  0  0  0  2  0  0  0  0  0  0
  -28.2140  -21.7660   22.1260 C   0  0  0  0  0  2  0  0  0  0  0  0
  -27.0990  -24.0220   22.2320 C   0  0  0  0  0  1  0  0  0  0  0  0
  -28.4340  -23.2820   22.1170 C   0  0  0  0  0  2  0  0  0  0  0  0
  1 91  1  0
  2  5  1  0
  2  1  1  0
  3  2  1  0
  4  2  1  0
  5  6  1  0
  7  8  1  0
  7  6  1  0
  8 10  1  0
  9 20  2  0
 10 15  1  0
 11 19  1  0
 11 21  1  0
 12 18  1  0
 12 14  1  0
 13 19  1  0
 14 13  1  0
 15 14  2  0
 16 17  1  0
 16 10  2  0
 17 12  2  0
 18 11  1  0
 19  9  1  0
 21 23  2  0
 22 21  1  0
 24 22  1  0
 25 34  2  0
 25 30  1  0
 26 22  1  0
 26 30  1  0
 27 26  1  0
 28 29  1  0
 28 27  1  0
 29 25  1  0
 30 31  2  0
 31 32  1  0
 33 32  2  0
 34 33  1  0
 35  9  1  0
 35 40  1  0
 35 36  1  0
 36 39  1  1
 36 37  1  0
 38 36  1  0
 40 43  1  0
 41 45  1  0
 41 40  1  0
 42 41  2  0
 45 44  1  0
 47 45  1  0
 47 48  1  0
 47 46  1  0
 49 51  1  0
 49  1  1  0
 50 49  2  0
 51 53  1  0
 53 52  1  0
 53 54  1  0
 55 54  1  0
 56 61  1  0
 57 58  1  0
 57 56  1  0
 59 58  1  0
 59 66  1  0
 59 60  1  0
 61 55  1  0
 61 60  1  0
 62 55  2  0
 63 64  2  0
 64 83  1  0
 65 64  1  0
 65 68  1  0
 66 67  1  0
 66 63  1  0
 67 65  2  0
 68 69  1  0
 69 70  2  0
 71 74  1  0
 71 70  1  0
 72 71  2  0
 73 72  1  0
 73 68  2  0
 74 75  1  0
 75 76  1  0
 76 77  2  0
 78 77  1  0
 78 82  1  0
 79 78  2  0
 80 75  2  0
 80 79  1  0
 81 80  1  0
 83 84  1  0
 84 87  1  0
 84 86  1  0
 85 83  2  0
 88 63  1  0
 88 89  1  0
 90 88  1  0
 91 92  1  0
 94 92  1  0
 94 93  1  0
M  ISO  4   7 101   8 101  54 100  55 100
M  END
>  <TORSDO>  (18) 
F 27

>  <SCORE>  (18) 
-10.612

>  <name>  (18) 
18

>  <ligand_id>  (18) 
18

>  <original_smiles>  (18) 
[H]c1c([H])c([H])c2c(c1[H])C([H])([H])C([H])([H])C([H])([H])C2([H])N([H])C(=O)C1([H])N(C(=O)C([H])(N([H])C(=O)C([H])(N([H])C([H])([H])[H])C([H])([H])[H])C(C([H])([H])[H])(C([H])([H])[H])C([H])([H])[H])C([H])([H])c2c([H])c(OC([H])([H])C([H])([H])C([H])([H])[N+]([H])([H])C([H])(C(=O)C([H])([H])C([H])(C([H])([H])[H])C([H])([H])C(=O)N3C([H])([H])C([H])([H])C([H])([H])C([H])(n4nc(-c5c([H])c([H])c(Oc6c([H])c([H])c(F)c([H])c6F)c([H])c5[H])c(C(=O)N([H])[H])c4N([H])[H])C3([H])[H])C([H])([H])C([H])([H])C([H])([H])C([H])([H])[H])c([H])c([H])c2C1([H])[H]

>  <smiles>  (18) 
[H]c1c([H])c([H])c2c(c1[H])C([H])([H])C([H])([H])C([H])([H])C2([H])N([H])C(=O)C1([H])N(C(=O)C([H])(N([H])C(=O)C([H])(N([H])C([H])([H])[H])C([H])([H])[H])C(C([H])([H])[H])(C([H])([H])[H])C([H])([H])[H])C([H])([H])c2c([H])c(OC([H])([H])C([H])([H])C([H])([H])[N+]([H])([H])C([H])(C(=O)C([H])([H])C([H])(C([H])([H])[H])C([H])([H])C(=O)N3C([H])([H])C([H])([H])C([H])([H])C([H])(n4nc(-c5c([H])c([H])c(Oc6c([H])c([H])c(F)c([H])c6F)c([H])c5[H])c(C(=O)N([H])[H])c4N([H])[H])C3([H])[H])C([H])([H])C([H])([H])C([H])([H])C([H])([H])[H])c([H])c([H])c2C1([H])[H]

$$$$
19:0:0
     RDKit          3D

 87 94  0  0  1  0  0  0  0  0999 V2000
  -28.5390  -21.8110   20.2680 C   0  0  0  0  0  2  0  0  0  0  0  0
  -29.5630  -20.5350   20.4460 C   0  0  0  0  0  0  0  0  0  0  0  0
  -30.7520  -20.8090   20.6260 O   0  0  0  0  0  0  0  0  0  0  0  0
  -29.1430  -18.9350   20.3830 C   0  0  0  0  0  2  0  0  0  0  0  0
  -30.9280  -17.8130   21.9490 C   0  0  0  0  0  1  0  0  0  0  0  0
  -30.1960  -17.6350   20.6050 C   0  0  0  0  0  3  0  0  0  0  0  0
  -30.5190  -14.9330   20.3150 C   0  0  0  0  0  0  0  0  0  0  0  0
  -30.3590  -12.6050   19.3470 C   0  0  0  0  0  2  0  0  0  0  0  0
  -29.4190  -12.6030   18.1200 C   0  0  0  0  0  2  0  0  0  0  0  0
  -27.9580  -12.3870   18.5620 C   0  0  0  0  0  2  0  0  0  0  0  0
  -27.5640  -13.3010   19.7540 C   0  0  0  0  0  3  0  0  0  0  0  0
  -28.6290  -13.2970   20.8730 C   0  0  0  0  0  2  0  0  0  0  0  0
  -29.9010  -13.6910   20.2580 N   0  0  0  0  0  0  0  0  0  0  0  0
  -31.7130  -14.9940   20.0070 O   0  0  0  0  0  0  0  0  0  0  0  0
  -29.7690  -16.1170   20.5310 N   0  0  0  0  0  0  0  0  0  0  0  0
  -28.7910  -15.9430   20.7110 H   0  0  0  0  0  0  0  0  0  0  0  0
  -25.1910  -13.8720   20.5260 C   0  0  0  0  0  0  0  0  0  0  0  0
  -24.1320  -13.0920   20.9040 C   0  0  0  0  0  0  0  0  0  0  0  0
  -24.5990  -11.7420   20.8560 C   0  0  0  0  0  0  0  0  0  0  0  0
  -26.2320  -12.9970   20.2640 N   0  0  0  0  0  0  0  0  0  0  0  0
  -25.8860  -11.7110   20.5290 N   0  0  0  0  0  0  0  0  0  0  0  0
  -23.8750  -10.4770   21.0430 C   0  0  0  0  0  0  0  0  0  0  0  0
  -24.3100   -9.5070   21.9740 C   0  0  0  0  0  3  0  0  0  0  0  0
  -23.5850   -8.3080   22.1490 C   0  0  0  0  0  3  0  0  0  0  0  0
  -22.4120   -8.0700   21.3950 C   0  0  0  0  0  0  0  0  0  0  0  0
  -21.9980   -9.0270   20.4530 C   0  0  0  0  0  3  0  0  0  0  0  0
  -22.7220  -10.2180   20.2760 C   0  0  0  0  0  3  0  0  0  0  0  0
  -21.6590   -6.9230   21.4800 O   0  0  0  0  0  0  0  0  0  0  0  0
  -21.6020   -6.1840   22.6340 C   0  0  0  0  0  0  0  0  0  0  0  0
  -21.1460   -6.7350   23.8520 C   0  0  0  0  0  3  0  0  0  0  0  0
  -21.0370   -5.9190   24.9960 C   0  0  0  0  0  3  0  0  0  0  0  0
  -21.3770   -4.5560   24.9250 C   0  0  0  0  0  0  0  0  0  0  0  0
  -21.8270   -4.0050   23.7130 C   0  0  0  0  0  3  0  0  0  0  0  0
  -21.9370   -4.8150   22.5700 C   0  0  0  0  0  0  0  0  0  0  0  0
  -22.3510   -4.2750   21.3990 F   0  0  0  0  0  0  0  0  0  0  0  0
  -21.2650   -3.7710   26.0220 F   0  0  0  0  0  0  0  0  0  0  0  0
  -22.7370  -13.5650   21.1910 C   0  0  0  0  0  0  0  0  0  0  0  0
  -22.0170  -12.8640   22.0610 N   0  0  0  0  0  0  0  0  0  0  0  0
  -22.2930  -14.5920   20.6780 O   0  0  0  0  0  0  0  0  0  0  0  0
  -22.3890  -12.0360   22.5020 H   0  0  0  0  0  0  0  0  0  0  0  0
  -21.0810  -13.1650   22.2930 H   0  0  0  0  0  0  0  0  0  0  0  0
  -25.3480  -15.2450   20.3580 N   0  0  0  0  0  0  0  0  0  0  0  0
  -24.5740  -15.8900   20.4720 H   0  0  0  0  0  0  0  0  0  0  0  0
  -26.1820  -15.6900   19.9970 H   0  0  0  0  0  0  0  0  0  0  0  0
  -28.9650  -23.4300   20.4200 C   0  0  0  0  0  3  0  0  0  0  0  0
  -27.9610  -24.7230   20.0660 C   0  0  0  0  0  3  0  0  0  0  0  0
  -28.2250  -26.2340   20.2920 O   0  0  0  0  0  0  0  0  0  0  0  0
  -24.6030  -31.8980   23.2660 C   0  0  0  0  0  0  0  0  0  0  0  0
  -27.1640  -27.2030   20.2190 C   0  0  0  0  0  0  0  0  0  0  0  0
  -23.3940  -30.5120   21.6240 C   0  0  0  0  0  3  0  0  0  0  0  0
  -24.8360  -28.9390   20.1940 C   0  0  0  0  0  0  0  0  0  0  0  0
  -25.9480  -30.7760   21.4540 C   0  0  0  0  0  2  0  0  0  0  0  0
  -26.0150  -29.3870   20.7990 C   0  0  0  0  0  0  0  0  0  0  0  0
  -27.1810  -28.5360   20.7930 C   0  0  0  0  0  3  0  0  0  0  0  0
  -25.9550  -26.8510   19.5750 C   0  0  0  0  0  3  0  0  0  0  0  0
  -24.8160  -27.6830   19.5660 C   0  0  0  0  0  3  0  0  0  0  0  0
  -23.6090  -29.8370   20.2430 C   0  0  0  0  0  2  0  0  0  0  0  0
  -24.6690  -31.0820   22.1700 N   0  0  0  0  0  0  0  0  0  0  0  0
  -23.5190  -32.1860   23.7960 O   0  0  0  0  0  0  0  0  0  0  0  0
  -22.7150  -29.5040   22.5850 C   0  0  0  0  0  0  0  0  0  0  0  0
  -21.3870  -29.3370   22.4570 N   0  0  0  0  0  0  0  0  0  0  0  0
  -23.3860  -28.8760   23.4080 O   0  0  0  0  0  0  0  0  0  0  0  0
  -20.9040  -29.8950   21.7670 H   0  0  0  0  0  0  0  0  0  0  0  0
  -18.0010  -28.1490   22.9560 C   0  0  0  0  0  0  0  0  0  0  0  0
  -20.5610  -28.4020   23.2260 C   0  0  0  0  0  3  0  0  0  0  0  0
  -20.6590  -26.9700   22.6510 C   0  0  0  0  0  2  0  0  0  0  0  0
  -19.5580  -26.6500   21.6360 C   0  0  0  0  0  2  0  0  0  0  0  0
  -18.1750  -26.8000   22.2780 C   0  0  0  0  0  2  0  0  0  0  0  0
  -19.1230  -28.9090   23.3860 C   0  0  0  0  0  0  0  0  0  0  0  0
  -18.9060  -30.1710   23.9800 C   0  0  0  0  0  3  0  0  0  0  0  0
  -17.6020  -30.6740   24.1500 C   0  0  0  0  0  3  0  0  0  0  0  0
  -16.4960  -29.9120   23.7350 C   0  0  0  0  0  3  0  0  0  0  0  0
  -16.6970  -28.6520   23.1430 C   0  0  0  0  0  3  0  0  0  0  0  0
  -25.8850  -32.5270   23.8920 C   0  0  0  0  0  3  0  0  0  0  0  0
  -25.5790  -33.9270   24.2260 N   0  0  0  0  0  0  0  0  0  0  0  0
  -25.8890  -34.9810   23.4600 C   0  0  0  0  0  0  0  0  0  0  0  0
  -26.5300  -34.8790   22.4110 O   0  0  0  0  0  0  0  0  0  0  0  0
  -25.0080  -34.0790   25.0440 H   0  0  0  0  0  0  0  0  0  0  0  0
  -24.1390  -36.7690   23.1730 C   0  0  0  0  0  1  0  0  0  0  0  0
  -25.4130  -36.3710   23.9330 C   0  0  0  0  0  3  0  0  0  0  0  0
  -27.5740  -37.2750   24.6740 C   0  0  0  0  0  1  0  0  0  0  0  0
  -26.4340  -37.4300   23.7730 N   0  0  0  0  0  0  0  0  0  0  0  0
  -26.0280  -38.3480   23.9300 H   0  0  0  0  0  0  0  0  0  0  0  0
  -26.3920  -31.7550   25.1720 C   0  0  1  0  0  0  0  0  0  0  0  0
  -25.2960  -31.5230   26.2370 C   0  0  0  0  0  1  0  0  0  0  0  0
  -26.9710  -30.3740   24.7870 C   0  0  0  0  0  1  0  0  0  0  0  0
  -27.5430  -32.5450   25.8390 C   0  0  0  0  0  1  0  0  0  0  0  0
  1 45  1  0
  1  2  1  0
  2  3  2  0
  4  2  1  0
  4  6  1  0
  6  5  1  0
  7 15  1  0
  8 13  1  0
  9 10  1  0
  9  8  1  0
 11 10  1  0
 11 20  1  0
 11 12  1  0
 13  7  1  0
 13 12  1  0
 14  7  2  0
 15  6  1  0
 15 16  1  0
 17 18  2  0
 18 37  1  0
 19 18  1  0
 19 22  1  0
 20 17  1  0
 20 21  1  0
 21 19  2  0
 22 23  1  0
 23 24  2  0
 25 28  1  0
 25 24  1  0
 26 25  2  0
 27 26  1  0
 27 22  2  0
 28 29  1  0
 29 30  1  0
 30 31  2  0
 32 31  1  0
 32 36  1  0
 33 32  2  0
 34 29  2  0
 34 33  1  0
 35 34  1  0
 37 38  1  0
 38 41  1  0
 38 40  1  0
 39 37  2  0
 42 43  1  0
 42 17  1  0
 44 42  1  0
 46 47  1  0
 46 45  2  0
 48 59  2  0
 49 47  1  0
 49 54  1  0
 50 58  1  0
 50 60  1  0
 51 57  1  0
 51 53  1  0
 52 58  1  0
 53 52  1  0
 54 53  2  0
 55 49  2  0
 56 55  1  0
 56 51  2  0
 57 50  1  0
 58 48  1  0
 60 62  2  0
 61 60  1  0
 63 61  1  0
 64 73  2  0
 64 69  1  0
 65 61  1  0
 65 69  1  0
 66 65  1  0
 67 68  1  0
 67 66  1  0
 68 64  1  0
 69 70  2  0
 70 71  1  0
 72 71  2  0
 73 72  1  0
 74 48  1  0
 74 75  1  0
 74 84  1  0
 75 78  1  0
 76 80  1  0
 76 75  1  0
 77 76  2  0
 80 79  1  0
 82 83  1  0
 82 80  1  0
 82 81  1  0
 84 87  1  1
 84 85  1  0
 86 84  1  0
M  ISO  4   7 100  15 100  46 101  47 101
M  END
>  <TORSDO>  (19) 
F 21

>  <SCORE>  (19) 
-13.347

>  <name>  (19) 
19

>  <ligand_id>  (19) 
19

>  <original_smiles>  (19) 
[H]c1c([H])c([H])c2c(c1[H])C([H])([H])C([H])([H])C([H])([H])C2([H])N([H])C(=O)C1([H])N(C(=O)C([H])(N([H])C(=O)C([H])(N([H])C([H])([H])[H])C([H])([H])[H])C(C([H])([H])[H])(C([H])([H])[H])C([H])([H])[H])C([H])([H])c2c([H])c(OC([H])([H])C([H])([H])C([H])([H])C(=O)C([H])([H])C([H])(N([H])C(=O)N3C([H])([H])C([H])([H])C([H])([H])C([H])(n4nc(-c5c([H])c([H])c(Oc6c([H])c([H])c(F)c([H])c6F)c([H])c5[H])c(C(=O)N([H])[H])c4N([H])[H])C3([H])[H])C([H])([H])[H])c([H])c([H])c2C1([H])[H]

>  <smiles>  (19) 
[H]c1c([H])c([H])c2c(c1[H])C([H])([H])C([H])([H])C([H])([H])C2([H])N([H])C(=O)C1([H])N(C(=O)C([H])(N([H])C(=O)C([H])(N([H])C([H])([H])[H])C([H])([H])[H])C(C([H])([H])[H])(C([H])([H])[H])C([H])([H])[H])C([H])([H])c2c([H])c(OC([H])([H])C([H])([H])C([H])([H])C(=O)C([H])([H])C([H])(N([H])C(=O)N3C([H])([H])C([H])([H])C([H])([H])C([H])(n4nc(-c5c([H])c([H])c(Oc6c([H])c([H])c(F)c([H])c6F)c([H])c5[H])c(C(=O)N([H])[H])c4N([H])[H])C3([H])[H])C([H])([H])[H])c([H])c([H])c2C1([H])[H]

$$$$
20:0:0
     RDKit          3D

 96 95  0  0  1  0  0  0  0  0999 V2000
  -21.8980  -28.9830   23.6410 C   0  0  0  0  0  1  0  0  0  0  0  0
  -22.9220  -26.7120   20.5870 C   0  0  0  0  0 15  0  0  0  0  0  0
  -23.0900  -27.4060   24.6030 C   0  0  0  0  0  1  0  0  0  0  0  0
  -24.1160  -25.4720   21.9980 C   0  0  0  0  0  1  0  0  0  0  0  0
  -21.6870  -28.6040   21.2080 C   0  0  0  0  0  1  0  0  0  0  0  0
  -24.1910  -26.1770   23.6770 N   0  0  2  0  0  4  0  0  0  0  0  0
  -24.2960  -27.0440   23.1500 H   0  0  0  0  0  0  0  0  0  0  0  0
  -20.1480  -29.6220   19.2620 C   0  0  0  0  0  1  0  0  0  0  0  0
  -21.3260  -29.8140   20.2480 C   0  0  0  0  0  2  0  0  0  0  0  0
  -25.6550  -24.0360   21.4660 C   0  0  0  0  0  2  0  0  0  0  0  0
  -26.3450  -24.5620   20.5910 O   0  0  0  0  0  0  0  0  0  0  0  0
  -26.4820  -22.2110   21.6960 C   0  0  0  0  0 15  0  0  0  0  0  0
  -28.0900  -20.8140   21.5050 C   0  0  0  0  0 15  0  0  0  0  0  0
  -29.0490  -19.0960   20.7040 C   0  0  0  0  0 15  0  0  0  0  0  0
  -30.7800  -16.0550   20.6120 C   0  0  0  0  0  0  0  0  0  0  0  0
  -31.2630  -13.4690   19.7180 C   0  0  0  0  0  2  0  0  0  0  0  0
  -30.4740  -13.0230   18.4360 C   0  0  0  0  0  2  0  0  0  0  0  0
  -29.0070  -12.7130   18.7730 C   0  0  0  0  0  2  0  0  0  0  0  0
  -28.4990  -13.7290   19.8150 C   0  0  0  0  0  3  0  0  0  0  0  0
  -29.3980  -13.8720   21.0440 C   0  0  0  0  0  2  0  0  0  0  0  0
  -30.5330  -14.5960   20.5190 N   0  0  0  0  0  0  0  0  0  0  0  0
  -32.0100  -16.0990   20.3010 O   0  0  0  0  0  0  0  0  0  0  0  0
  -29.7400  -17.3090   20.9250 N   0  0  0  0  0  2  0  0  0  0  0  0
  -28.9580  -16.8100   21.3330 H   0  0  0  0  0  0  0  0  0  0  0  0
  -26.2670  -14.5210   20.6120 C   0  0  0  0  0  0  0  0  0  0  0  0
  -25.1160  -13.8620   20.9150 C   0  0  0  0  0  0  0  0  0  0  0  0
  -25.3970  -12.4700   20.7420 C   0  0  0  0  0  0  0  0  0  0  0  0
  -27.1550  -13.5340   20.2500 N   0  0  0  0  0  0  0  0  0  0  0  0
  -26.6650  -12.2850   20.4080 N   0  0  0  0  0  0  0  0  0  0  0  0
  -24.5120  -11.3080   20.8060 C   0  0  0  0  0  0  0  0  0  0  0  0
  -24.7720  -10.2280   21.6760 C   0  0  0  0  0  3  0  0  0  0  0  0
  -23.8900   -9.1290   21.7280 C   0  0  0  0  0  3  0  0  0  0  0  0
  -22.7370   -9.1080   20.9080 C   0  0  0  0  0  0  0  0  0  0  0  0
  -22.5000  -10.1750   20.0250 C   0  0  0  0  0  3  0  0  0  0  0  0
  -23.3800  -11.2650   19.9700 C   0  0  0  0  0  3  0  0  0  0  0  0
  -21.8370   -8.0730   20.8730 O   0  0  0  0  0  0  0  0  0  0  0  0
  -21.5550   -7.3280   21.9900 C   0  0  0  0  0  0  0  0  0  0  0  0
  -21.1080   -7.9260   23.1890 C   0  0  0  0  0  3  0  0  0  0  0  0
  -20.7640   -7.1160   24.2900 C   0  0  0  0  0  3  0  0  0  0  0  0
  -20.8570   -5.7160   24.1920 C   0  0  0  0  0  0  0  0  0  0  0  0
  -21.2970   -5.1200   22.9960 C   0  0  0  0  0  3  0  0  0  0  0  0
  -21.6430   -5.9260   21.8980 C   0  0  0  0  0  0  0  0  0  0  0  0
  -22.0490   -5.3490   20.7410 F   0  0  0  0  0  0  0  0  0  0  0  0
  -20.5180   -4.9370   25.2460 F   0  0  0  0  0  0  0  0  0  0  0  0
  -23.8020  -14.5020   21.2350 C   0  0  0  0  0  0  0  0  0  0  0  0
  -22.9870  -13.8420   22.0480 N   0  0  0  0  0  0  0  0  0  0  0  0
  -23.5150  -15.6150   20.7970 O   0  0  0  0  0  0  0  0  0  0  0  0
  -23.2400  -12.9380   22.4170 H   0  0  0  0  0  0  0  0  0  0  0  0
  -22.0990  -14.2480   22.3080 H   0  0  0  0  0  0  0  0  0  0  0  0
  -26.6290  -15.8670   20.5800 N   0  0  0  0  0  0  0  0  0  0  0  0
  -25.9270  -16.5850   20.7180 H   0  0  0  0  0  0  0  0  0  0  0  0
  -27.4340  -16.2000   20.0650 H   0  0  0  0  0  0  0  0  0  0  0  0
  -25.6690  -26.2430   24.1350 C   0  0  0  0  0  2  0  0  0  0  0  0
  -26.7690  -26.4450   22.9710 C   0  0  0  0  0  3  0  0  0  0  0  0
  -28.2610  -27.0150   23.0330 C   0  0  0  0  0  3  0  0  0  0  0  0
  -28.9680  -27.1610   21.7140 O   0  0  0  0  0  0  0  0  0  0  0  0
  -24.9100  -32.2000   23.4080 C   0  0  0  0  0  0  0  0  0  0  0  0
  -28.2600  -28.0230   20.9420 C   0  0  0  0  0  0  0  0  0  0  0  0
  -24.2660  -30.5680   21.6390 C   0  0  0  0  0  3  0  0  0  0  0  0
  -26.0060  -29.4640   20.2600 C   0  0  0  0  0  0  0  0  0  0  0  0
  -26.6420  -31.3600   21.8100 C   0  0  0  0  0  2  0  0  0  0  0  0
  -26.9550  -30.0450   21.1090 C   0  0  0  0  0  0  0  0  0  0  0  0
  -28.1170  -29.3370   21.4170 C   0  0  0  0  0  3  0  0  0  0  0  0
  -27.3790  -27.4880   19.9840 C   0  0  0  0  0  3  0  0  0  0  0  0
  -26.2210  -28.2080   19.6580 C   0  0  0  0  0  3  0  0  0  0  0  0
  -24.6910  -30.1660   20.2050 C   0  0  0  0  0  2  0  0  0  0  0  0
  -25.2510  -31.4750   22.2940 N   0  0  0  0  0  0  0  0  0  0  0  0
  -23.7290  -32.3440   23.7600 O   0  0  0  0  0  0  0  0  0  0  0  0
  -24.3220  -29.2650   22.4630 C   0  0  0  0  0  0  0  0  0  0  0  0
  -23.4080  -28.2300   22.4450 N   0  0  0  0  0  2  0  0  0  0  0  0
  -25.0570  -29.1870   23.4090 O   0  0  0  0  0  0  0  0  0  0  0  0
  -23.2100  -28.1690   21.4500 H   0  0  0  0  0  0  0  0  0  0  0  0
  -18.5770  -28.2240   23.0030 C   0  0  0  0  0  0  0  0  0  0  0  0
  -21.4170  -27.5560   23.1820 C   0  0  0  0  0  3  0  0  0  0  0  0
  -20.7060  -26.3180   22.6630 C   0  0  0  0  0  2  0  0  0  0  0  0
  -19.6630  -26.5240   21.5840 C   0  0  0  0  0  2  0  0  0  0  0  0
  -18.4070  -26.9570   22.2440 C   0  0  0  0  0  2  0  0  0  0  0  0
  -19.8830  -28.6420   23.4510 C   0  0  0  0  0  0  0  0  0  0  0  0
  -19.6590  -30.0820   23.8450 C   0  0  0  0  0  3  0  0  0  0  0  0
  -18.4520  -30.8110   24.0070 C   0  0  0  0  0  3  0  0  0  0  0  0
  -17.2490  -30.2170   23.6660 C   0  0  0  0  0  3  0  0  0  0  0  0
  -17.3440  -28.9330   23.1300 C   0  0  0  0  0  3  0  0  0  0  0  0
  -25.9990  -32.8830   24.2950 C   0  0  0  0  0  3  0  0  0  0  0  0
  -25.5430  -34.2510   24.5540 N   0  0  0  0  0  0  0  0  0  0  0  0
  -25.9460  -35.3190   23.8550 C   0  0  0  0  0  0  0  0  0  0  0  0
  -26.7930  -35.2500   22.9600 O   0  0  0  0  0  0  0  0  0  0  0  0
  -24.8050  -34.3660   25.2330 H   0  0  0  0  0  0  0  0  0  0  0  0
  -24.2040  -37.0040   23.1890 C   0  0  0  0  0  1  0  0  0  0  0  0
  -25.3110  -36.6780   24.2040 C   0  0  0  0  0  3  0  0  0  0  0  0
  -27.2350  -37.6730   25.3620 C   0  0  0  0  0  1  0  0  0  0  0  0
  -26.2920  -37.7850   24.2520 N   0  0  0  0  0  0  0  0  0  0  0  0
  -25.8190  -38.6820   24.3260 H   0  0  0  0  0  0  0  0  0  0  0  0
  -26.3030  -32.1330   25.6550 C   0  0  1  0  0  0  0  0  0  0  0  0
  -25.0350  -31.7700   26.4650 C   0  0  0  0  0  1  0  0  0  0  0  0
  -27.1230  -30.8440   25.4170 C   0  0  0  0  0  1  0  0  0  0  0  0
  -27.2060  -33.0190   26.5470 C   0  0  0  0  0  1  0  0  0  0  0  0
  4  6  1  0
  6 53  1  0
  6  3  1  0
  6  7  1  1
  8  9  1  0
  9  5  1  0
 11 10  2  0
 15 23  1  0
 16 21  1  0
 17 18  1  0
 17 16  1  0
 19 18  1  0
 19 28  1  0
 19 20  1  0
 21 15  1  0
 21 20  1  0
 22 15  2  0
 23 24  1  0
 25 26  2  0
 26 45  1  0
 27 30  1  0
 27 26  1  0
 28 29  1  0
 28 25  1  0
 29 27  2  0
 30 31  1  0
 31 32  2  0
 33 32  1  0
 34 33  2  0
 35 34  1  0
 35 30  2  0
 36 33  1  0
 36 37  1  0
 37 38  1  0
 38 39  2  0
 40 39  1  0
 40 44  1  0
 41 40  2  0
 42 37  2  0
 42 41  1  0
 43 42  1  0
 45 46  1  0
 46 49  1  0
 46 48  1  0
 47 45  2  0
 50 25  1  0
 50 51  1  0
 52 50  1  0
 54 55  2  0
 54 53  1  0
 56 55  1  0
 57 68  2  0
 58 63  1  0
 58 56  1  0
 59 67  1  0
 59 69  1  0
 60 62  1  0
 61 67  1  0
 62 63  2  0
 62 61  1  0
 64 58  2  0
 65 64  1  0
 65 60  2  0
 66 60  1  0
 66 59  1  0
 67 57  1  0
 69 71  2  0
 70 69  1  0
 72 70  1  0
 73 82  2  0
 73 78  1  0
 74 78  1  0
 74  1  1  0
 75 74  1  0
 76 77  1  0
 76 75  1  0
 77 73  1  0
 78 79  2  0
 79 80  1  0
 81 80  2  0
 82 81  1  0
 83 57  1  0
 83 84  1  0
 83 93  1  0
 84 87  1  0
 85 89  1  0
 85 84  1  0
 86 85  2  0
 89 88  1  0
 89 91  1  0
 91 92  1  0
 91 90  1  0
 93 94  1  1
 93 96  1  0
 95 93  1  0
M  ISO  4  15 100  23 100  55 101  56 101
M  END
>  <TORSDO>  (20) 
F 24

>  <SCORE>  (20) 
-3.429

>  <name>  (20) 
20

>  <ligand_id>  (20) 
20

>  <original_smiles>  (20) 
[H]c1c([H])c([H])c2c(c1[H])C([H])([H])C([H])([H])C([H])([H])C2([H])N([H])C(=O)C1([H])N(C(=O)C([H])(N([H])C(=O)C([H])(N([H])C([H])([H])[H])C([H])([H])[H])C(C([H])([H])[H])(C([H])([H])[H])C([H])([H])[H])C([H])([H])c2c([H])c(OC([H])([H])C([H])([H])C([H])([H])[N+]3([H])C([H])([H])C([H])([H])C([H])(C([H])([H])C([H])([H])[H])C([H])([H])C3([H])C(=O)C([H])([H])C([H])([H])C([H])([H])N([H])C(=O)N3C([H])([H])C([H])([H])C([H])([H])C([H])(n4nc(-c5c([H])c([H])c(Oc6c([H])c([H])c(F)c([H])c6F)c([H])c5[H])c(C(=O)N([H])[H])c4N([H])[H])C3([H])[H])c([H])c([H])c2C1([H])[H]

>  <smiles>  (20) 
[H]c1c([H])c([H])c2c(c1[H])C([H])([H])C([H])([H])C([H])([H])C2([H])N([H])C(=O)C1([H])N(C(=O)C([H])(N([H])C(=O)C([H])(N([H])C([H])([H])[H])C([H])([H])[H])C(C([H])([H])[H])(C([H])([H])[H])C([H])([H])[H])C([H])([H])c2c([H])c(OC([H])([H])C([H])([H])C([H])([H])[N+]3([H])C([H])([H])C([H])([H])C([H])(C([H])([H])C([H])([H])[H])C([H])([H])C3([H])C(=O)C([H])([H])C([H])([H])C([H])([H])N([H])C(=O)N3C([H])([H])C([H])([H])C([H])([H])C([H])(n4nc(-c5c([H])c([H])c(Oc6c([H])c([H])c(F)c([H])c6F)c([H])c5[H])c(C(=O)N([H])[H])c4N([H])[H])C3([H])[H])c([H])c([H])c2C1([H])[H]

$$$$
21:0:0
     RDKit          3D

 93101  0  0  1  0  0  0  0  0999 V2000
  -31.1120  -22.1290   21.4570 C   0  0  0  0  0  3  0  0  0  0  0  0
  -30.7520  -22.7920   23.7680 C   0  0  0  0  0  3  0  0  0  0  0  0
  -30.1480  -23.0710   21.0380 C   0  0  0  0  0  3  0  0  0  0  0  0
  -29.7780  -23.7210   23.3520 C   0  0  0  0  0  3  0  0  0  0  0  0
  -31.4400  -21.9990   22.8240 C   0  0  0  0  0  0  0  0  0  0  0  0
  -29.4760  -23.8790   21.9830 C   0  0  0  0  0  0  0  0  0  0  0  0
  -32.4880  -21.0000   23.3150 C   0  0  0  0  0  2  0  0  0  0  0  0
  -33.9300  -21.1980   22.7750 C   0  0  0  0  0  2  0  0  0  0  0  0
  -34.4040  -20.1480   21.7580 C   0  0  0  0  0  0  0  0  0  0  0  0
  -35.5720  -20.4000   21.1470 N   0  0  0  0  0  0  0  0  0  0  0  0
  -33.7640  -19.1160   21.5530 O   0  0  0  0  0  0  0  0  0  0  0  0
  -36.0360  -21.2670   21.3870 H   0  0  0  0  0  0  0  0  0  0  0  0
  -36.2960  -19.4830   20.2620 C   0  0  0  0  0  2  0  0  0  0  0  0
  -35.7380  -19.4620   18.8250 C   0  0  0  0  0  2  0  0  0  0  0  0
  -36.4020  -18.4090   17.9140 C   0  0  0  0  0  0  0  0  0  0  0  0
  -36.1310  -16.3260   16.6170 C   0  0  0  0  0  2  0  0  0  0  0  0
  -34.9360  -16.4630   15.6530 C   0  0  0  0  0  2  0  0  0  0  0  0
  -33.6150  -16.0930   16.3530 C   0  0  0  0  0  2  0  0  0  0  0  0
  -33.4440  -16.8000   17.7240 C   0  0  0  0  0  3  0  0  0  0  0  0
  -34.7250  -16.6630   18.5740 C   0  0  0  0  0  2  0  0  0  0  0  0
  -35.8570  -17.1710   17.7870 N   0  0  0  0  0  0  0  0  0  0  0  0
  -37.3550  -18.7820   17.2200 O   0  0  0  0  0  0  0  0  0  0  0  0
  -31.1730  -17.0160   18.9230 C   0  0  0  0  0  0  0  0  0  0  0  0
  -30.3240  -16.0790   19.4470 C   0  0  0  0  0  0  0  0  0  0  0  0
  -30.9640  -14.8160   19.2540 C   0  0  0  0  0  0  0  0  0  0  0  0
  -32.2690  -16.3110   18.4430 N   0  0  0  0  0  0  0  0  0  0  0  0
  -32.1570  -14.9820   18.6990 N   0  0  0  0  0  0  0  0  0  0  0  0
  -30.4850  -13.4520   19.5140 C   0  0  0  0  0  0  0  0  0  0  0  0
  -31.1650  -12.5860   20.3960 C   0  0  0  0  0  3  0  0  0  0  0  0
  -30.6740  -11.2850   20.6430 C   0  0  0  0  0  3  0  0  0  0  0  0
  -29.4900  -10.8420   20.0060 C   0  0  0  0  0  0  0  0  0  0  0  0
  -28.8310  -11.7010   19.1090 C   0  0  0  0  0  3  0  0  0  0  0  0
  -29.3240  -12.9920   18.8610 C   0  0  0  0  0  3  0  0  0  0  0  0
  -28.9510   -9.5880   20.1630 O   0  0  0  0  0  0  0  0  0  0  0  0
  -28.9280   -8.9650   21.3840 C   0  0  0  0  0  0  0  0  0  0  0  0
  -28.3350   -9.5680   22.5160 C   0  0  0  0  0  3  0  0  0  0  0  0
  -28.2700   -8.8630   23.7340 C   0  0  0  0  0  3  0  0  0  0  0  0
  -28.7860   -7.5550   23.8200 C   0  0  0  0  0  0  0  0  0  0  0  0
  -29.3730   -6.9530   22.6940 C   0  0  0  0  0  3  0  0  0  0  0  0
  -29.4390   -7.6540   21.4780 C   0  0  0  0  0  0  0  0  0  0  0  0
  -29.9850   -7.0610   20.3880 F   0  0  0  0  0  0  0  0  0  0  0  0
  -28.7160   -6.8770   24.9880 F   0  0  0  0  0  0  0  0  0  0  0  0
  -28.9520  -16.3250   20.0110 C   0  0  0  0  0  0  0  0  0  0  0  0
  -28.5360  -15.5190   20.9790 N   0  0  0  0  0  0  0  0  0  0  0  0
  -28.2600  -17.2670   19.6250 O   0  0  0  0  0  0  0  0  0  0  0  0
  -29.1130  -14.7560   21.3040 H   0  0  0  0  0  0  0  0  0  0  0  0
  -27.6300  -15.6590   21.4040 H   0  0  0  0  0  0  0  0  0  0  0  0
  -31.1000  -18.4010   18.7930 N   0  0  0  0  0  0  0  0  0  0  0  0
  -30.3030  -18.9410   19.1110 H   0  0  0  0  0  0  0  0  0  0  0  0
  -31.8350  -18.9810   18.4110 H   0  0  0  0  0  0  0  0  0  0  0  0
  -28.4600  -24.9260   21.5380 C   0  0  0  0  0  2  0  0  0  0  0  0
  -27.4280  -24.4160   20.5150 C   0  0  0  0  0  2  0  0  0  0  0  0
  -27.2230  -25.3970   19.4910 O   0  0  0  0  0  0  0  0  0  0  0  0
  -25.1150  -30.7570   23.6550 C   0  0  0  0  0  0  0  0  0  0  0  0
  -26.2670  -26.3560   19.7330 C   0  0  0  0  0  0  0  0  0  0  0  0
  -23.4650  -29.9790   21.9840 C   0  0  0  0  0  3  0  0  0  0  0  0
  -24.3530  -28.3770   20.2160 C   0  0  0  0  0  0  0  0  0  0  0  0
  -25.9740  -29.7310   21.5520 C   0  0  0  0  0  2  0  0  0  0  0  0
  -25.6480  -28.5000   20.7340 C   0  0  0  0  0  0  0  0  0  0  0  0
  -26.6100  -27.4990   20.4880 C   0  0  0  0  0  3  0  0  0  0  0  0
  -24.9590  -26.2510   19.2060 C   0  0  0  0  0  3  0  0  0  0  0  0
  -24.0020  -27.2530   19.4490 C   0  0  0  0  0  3  0  0  0  0  0  0
  -23.3880  -29.4980   20.5110 C   0  0  0  0  0  2  0  0  0  0  0  0
  -24.8780  -30.1580   22.4550 N   0  0  0  0  0  0  0  0  0  0  0  0
  -24.1850  -31.1980   24.3450 O   0  0  0  0  0  0  0  0  0  0  0  0
  -22.6430  -29.0100   22.8640 C   0  0  0  0  0  0  0  0  0  0  0  0
  -21.3120  -29.0250   22.6840 N   0  0  0  0  0  0  0  0  0  0  0  0
  -23.2010  -28.2520   23.6600 O   0  0  0  0  0  0  0  0  0  0  0  0
  -20.9350  -29.6800   22.0140 H   0  0  0  0  0  0  0  0  0  0  0  0
  -17.8210  -28.1020   22.7990 C   0  0  0  0  0  0  0  0  0  0  0  0
  -20.3410  -28.1750   23.3730 C   0  0  0  0  0  3  0  0  0  0  0  0
  -20.4000  -26.7230   22.8450 C   0  0  0  0  0  2  0  0  0  0  0  0
  -19.4030  -26.4520   21.7130 C   0  0  0  0  0  2  0  0  0  0  0  0
  -17.9720  -26.7210   22.1830 C   0  0  0  0  0  2  0  0  0  0  0  0
  -18.9370  -28.7910   23.3440 C   0  0  0  0  0  0  0  0  0  0  0  0
  -18.7500  -30.0860   23.8730 C   0  0  0  0  0  3  0  0  0  0  0  0
  -17.4780  -30.6890   23.8670 C   0  0  0  0  0  3  0  0  0  0  0  0
  -16.3740  -29.9950   23.3410 C   0  0  0  0  0  3  0  0  0  0  0  0
  -16.5460  -28.7040   22.8130 C   0  0  0  0  0  3  0  0  0  0  0  0
  -26.5630  -30.9360   24.2060 C   0  0  0  0  0  3  0  0  0  0  0  0
  -26.5820  -32.1730   24.9980 N   0  0  0  0  0  0  0  0  0  0  0  0
  -27.1920  -33.3060   24.6240 C   0  0  0  0  0  0  0  0  0  0  0  0
  -27.8700  -33.3940   23.5960 O   0  0  0  0  0  0  0  0  0  0  0  0
  -25.9950  -32.1900   25.8190 H   0  0  0  0  0  0  0  0  0  0  0  0
  -26.0180  -35.5110   24.9110 C   0  0  0  0  0  1  0  0  0  0  0  0
  -27.0290  -34.5360   25.5370 C   0  0  0  0  0  3  0  0  0  0  0  0
  -29.2220  -34.4740   26.6430 C   0  0  0  0  0  1  0  0  0  0  0  0
  -28.3000  -35.2410   25.8100 N   0  0  0  0  0  0  0  0  0  0  0  0
  -28.1260  -36.1330   26.2660 H   0  0  0  0  0  0  0  0  0  0  0  0
  -27.0580  -29.7110   25.0690 C   0  0  1  0  0  0  0  0  0  0  0  0
  -26.0680  -29.2930   26.1820 C   0  0  0  0  0  1  0  0  0  0  0  0
  -27.3050  -28.4760   24.1690 C   0  0  0  0  0  1  0  0  0  0  0  0
  -28.4130  -30.0500   25.7320 C   0  0  0  0  0  1  0  0  0  0  0  0
  1  5  1  0
  3  1  2  0
  3  6  1  0
  4  2  1  0
  5  7  1  0
  5  2  2  0
  6  4  2  0
  8  7  1  0
  9  8  1  0
 10 12  1  0
 10  9  1  0
 11  9  2  0
 13 10  1  0
 14 13  1  0
 15 14  1  0
 16 21  1  0
 17 18  1  0
 17 16  1  0
 19 18  1  0
 19 26  1  0
 19 20  1  0
 21 15  1  0
 21 20  1  0
 22 15  2  0
 23 24  2  0
 24 43  1  0
 25 24  1  0
 25 28  1  0
 26 27  1  0
 26 23  1  0
 27 25  2  0
 28 29  1  0
 29 30  2  0
 31 34  1  0
 31 30  1  0
 32 31  2  0
 33 32  1  0
 33 28  2  0
 34 35  1  0
 35 40  2  0
 35 36  1  0
 36 37  2  0
 37 38  1  0
 38 42  1  0
 39 38  2  0
 40 39  1  0
 41 40  1  0
 43 44  1  0
 44 46  1  0
 44 47  1  0
 45 43  2  0
 48 23  1  0
 48 49  1  0
 50 48  1  0
 51  6  1  0
 52 51  1  0
 53 55  1  0
 53 52  1  0
 54 65  2  0
 55 60  1  0
 56 64  1  0
 56 66  1  0
 57 63  1  0
 57 59  1  0
 58 64  1  0
 59 58  1  0
 60 59  2  0
 61 62  1  0
 61 55  2  0
 62 57  2  0
 63 56  1  0
 64 54  1  0
 66 68  2  0
 67 66  1  0
 69 67  1  0
 70 79  2  0
 70 75  1  0
 71 67  1  0
 72 71  1  0
 73 74  1  0
 73 72  1  0
 74 70  1  0
 75 71  1  0
 75 76  2  0
 77 76  1  0
 78 77  2  0
 79 78  1  0
 80 54  1  0
 80 81  1  0
 80 90  1  0
 81 84  1  0
 82 81  1  0
 82 86  1  0
 83 82  2  0
 86 85  1  0
 86 88  1  0
 88 89  1  0
 88 87  1  0
 90 93  1  1
 90 91  1  0
 92 90  1  0
M  ISO  4  14 100  15 100  52 101  53 101
M  END
>  <TORSDO>  (21) 
F 23

>  <SCORE>  (21) 
-5.674

>  <name>  (21) 
21

>  <ligand_id>  (21) 
21

>  <original_smiles>  (21) 
[H]c1c([H])c([H])c2c(c1[H])C([H])([H])C([H])([H])C([H])([H])C2([H])N([H])C(=O)C1([H])N(C(=O)C([H])(N([H])C(=O)C([H])(N([H])C([H])([H])[H])C([H])([H])[H])C(C([H])([H])[H])(C([H])([H])[H])C([H])([H])[H])C([H])([H])c2c([H])c(OC([H])([H])C([H])([H])c3c([H])c([H])c(C([H])([H])C([H])([H])C(=O)N([H])C([H])([H])C([H])([H])C(=O)N4C([H])([H])C([H])([H])C([H])([H])C([H])(n5nc(-c6c([H])c([H])c(Oc7c([H])c([H])c(F)c([H])c7F)c([H])c6[H])c(C(=O)N([H])[H])c5N([H])[H])C4([H])[H])c([H])c3[H])c([H])c([H])c2C1([H])[H]

>  <smiles>  (21) 
[H]c1c([H])c([H])c2c(c1[H])C([H])([H])C([H])([H])C([H])([H])C2([H])N([H])C(=O)C1([H])N(C(=O)C([H])(N([H])C(=O)C([H])(N([H])C([H])([H])[H])C([H])([H])[H])C(C([H])([H])[H])(C([H])([H])[H])C([H])([H])[H])C([H])([H])c2c([H])c(OC([H])([H])C([H])([H])c3c([H])c([H])c(C([H])([H])C([H])([H])C(=O)N([H])C([H])([H])C([H])([H])C(=O)N4C([H])([H])C([H])([H])C([H])([H])C([H])(n5nc(-c6c([H])c([H])c(Oc7c([H])c([H])c(F)c([H])c7F)c([H])c6[H])c(C(=O)N([H])[H])c5N([H])[H])C4([H])[H])c([H])c3[H])c([H])c([H])c2C1([H])[H]

$$$$
22:0:0
     RDKit          3D

 95103  0  0  1  0  0  0  0  0999 V2000
  -28.6190  -18.5790   19.4240 C   0  0  0  0  0  2  0  0  0  0  0  0
  -27.4600  -19.6100   19.4660 C   0  0  0  0  0  2  0  0  0  0  0  0
  -28.6400  -20.8320   21.3060 C   0  0  0  0  0  2  0  0  0  0  0  0
  -29.3020  -18.4260   20.8010 C   0  0  0  0  0  3  0  0  0  0  0  0
  -29.8290  -19.8340   21.2100 C   0  0  0  0  0  3  0  0  0  0  0  0
  -27.7990  -20.9300   20.0790 N   0  0  1  0  0  4  0  0  0  0  0  0
  -26.9050  -21.2350   20.4320 H   0  0  0  0  0  0  0  0  0  0  0  0
  -31.7290  -21.5740   20.9380 C   0  0  0  0  0  1  0  0  0  0  0  0
  -31.0110  -20.3510   20.3460 C   0  0  0  0  0  2  0  0  0  0  0  0
  -28.1220  -22.0370   19.1260 C   0  0  0  0  0  2  0  0  0  0  0  0
  -28.1150  -23.4360   19.8010 C   0  0  0  0  0  2  0  0  0  0  0  0
  -27.9130  -24.6290   18.8330 C   0  0  0  0  0  2  0  0  0  0  0  0
  -27.8900  -25.9840   19.5710 C   0  0  0  0  0  2  0  0  0  0  0  0
  -27.6470  -27.0820   18.6880 O   0  0  0  0  0  0  0  0  0  0  0  0
  -24.3470  -31.6850   22.9990 C   0  0  0  0  0  0  0  0  0  0  0  0
  -26.5060  -27.7990   18.9600 C   0  0  0  0  0  0  0  0  0  0  0  0
  -22.9190  -30.5630   21.3180 C   0  0  0  0  0  3  0  0  0  0  0  0
  -24.1570  -29.2680   19.5020 C   0  0  0  0  0  0  0  0  0  0  0  0
  -25.4050  -30.9540   20.8660 C   0  0  0  0  0  2  0  0  0  0  0  0
  -25.3870  -29.7010   20.0160 C   0  0  0  0  0  0  0  0  0  0  0  0
  -26.5670  -28.9750   19.7400 C   0  0  0  0  0  3  0  0  0  0  0  0
  -25.2630  -27.3700   18.4530 C   0  0  0  0  0  3  0  0  0  0  0  0
  -24.0880  -28.1000   18.7210 C   0  0  0  0  0  3  0  0  0  0  0  0
  -22.9430  -30.1060   19.8350 C   0  0  0  0  0  2  0  0  0  0  0  0
  -24.2490  -31.0720   21.7860 N   0  0  0  0  0  0  0  0  0  0  0  0
  -23.3460  -31.8680   23.7060 O   0  0  0  0  0  0  0  0  0  0  0  0
  -22.3700  -29.4040   22.1800 C   0  0  0  0  0  0  0  0  0  0  0  0
  -21.0420  -29.2080   22.1430 N   0  0  0  0  0  0  0  0  0  0  0  0
  -23.1300  -28.6880   22.8390 O   0  0  0  0  0  0  0  0  0  0  0  0
  -20.4860  -29.8430   21.5840 H   0  0  0  0  0  0  0  0  0  0  0  0
  -17.7440  -27.8440   22.7010 C   0  0  0  0  0  0  0  0  0  0  0  0
  -20.3060  -28.1540   22.8390 C   0  0  0  0  0  3  0  0  0  0  0  0
  -20.4080  -26.8100   22.0810 C   0  0  0  0  0  2  0  0  0  0  0  0
  -19.2490  -26.5780   21.1080 C   0  0  0  0  0  2  0  0  0  0  0  0
  -17.9100  -26.5950   21.8520 C   0  0  0  0  0  2  0  0  0  0  0  0
  -18.8680  -28.5860   23.1500 C   0  0  0  0  0  0  0  0  0  0  0  0
  -18.6560  -29.7610   23.9050 C   0  0  0  0  0  3  0  0  0  0  0  0
  -17.3530  -30.1920   24.2150 C   0  0  0  0  0  3  0  0  0  0  0  0
  -16.2440  -29.4440   23.7820 C   0  0  0  0  0  3  0  0  0  0  0  0
  -16.4420  -28.2720   23.0300 C   0  0  0  0  0  3  0  0  0  0  0  0
  -25.7140  -32.2060   23.5460 C   0  0  0  0  0  3  0  0  0  0  0  0
  -25.5060  -33.5810   24.0190 N   0  0  0  0  0  0  0  0  0  0  0  0
  -25.8580  -34.6790   23.3390 C   0  0  0  0  0  0  0  0  0  0  0  0
  -26.4610  -34.6370   22.2620 O   0  0  0  0  0  0  0  0  0  0  0  0
  -24.9700  -33.6930   24.8670 H   0  0  0  0  0  0  0  0  0  0  0  0
  -24.2250  -36.5910   23.2390 C   0  0  0  0  0  1  0  0  0  0  0  0
  -25.4750  -36.0430   23.9450 C   0  0  0  0  0  3  0  0  0  0  0  0
  -27.6840  -36.7360   24.7650 C   0  0  0  0  0  1  0  0  0  0  0  0
  -26.5640  -37.0430   23.8790 N   0  0  0  0  0  0  0  0  0  0  0  0
  -26.2170  -37.9670   24.1180 H   0  0  0  0  0  0  0  0  0  0  0  0
  -26.3100  -31.3020   24.6950 C   0  0  1  0  0  0  0  0  0  0  0  0
  -25.3140  -31.0220   25.8460 C   0  0  0  0  0  1  0  0  0  0  0  0
  -26.7730  -29.9390   24.1290 C   0  0  0  0  0  1  0  0  0  0  0  0
  -27.5620  -31.9790   25.3000 C   0  0  0  0  0  1  0  0  0  0  0  0
  -30.3430  -17.2540   20.9100 C   0  0  0  0  0  3  0  0  0  0  0  0
  -30.3290  -15.0040   19.8060 C   0  0  0  0  0  0  0  0  0  0  0  0
  -30.0640  -12.7920   18.7410 C   0  0  0  0  0  2  0  0  0  0  0  0
  -28.9900  -12.8610   17.6410 C   0  0  0  0  0  2  0  0  0  0  0  0
  -27.5900  -12.6140   18.2330 C   0  0  0  0  0  2  0  0  0  0  0  0
  -27.3130  -13.4770   19.4910 C   0  0  0  0  0  3  0  0  0  0  0  0
  -28.4920  -13.4070   20.4870 C   0  0  0  0  0  2  0  0  0  0  0  0
  -29.7200  -13.7890   19.7680 N   0  0  0  0  0  0  0  0  0  0  0  0
  -31.3350  -15.2610   19.1360 O   0  0  0  0  0  0  0  0  0  0  0  0
  -29.7550  -15.9400   20.5880 N   0  0  0  0  0  0  0  0  0  0  0  0
  -28.9260  -15.6590   21.0910 H   0  0  0  0  0  0  0  0  0  0  0  0
  -25.0260  -13.9240   20.5830 C   0  0  0  0  0  0  0  0  0  0  0  0
  -24.0400  -13.0810   21.0170 C   0  0  0  0  0  0  0  0  0  0  0  0
  -24.5220  -11.7560   20.7850 C   0  0  0  0  0  0  0  0  0  0  0  0
  -26.0480  -13.1080   20.1220 N   0  0  0  0  0  0  0  0  0  0  0  0
  -25.7560  -11.7940   20.2990 N   0  0  0  0  0  0  0  0  0  0  0  0
  -23.8590  -10.4550   20.9450 C   0  0  0  0  0  0  0  0  0  0  0  0
  -24.2900   -9.5220   21.9140 C   0  0  0  0  0  3  0  0  0  0  0  0
  -23.6260   -8.2860   22.0620 C   0  0  0  0  0  3  0  0  0  0  0  0
  -22.5170   -7.9740   21.2380 C   0  0  0  0  0  0  0  0  0  0  0  0
  -22.1080   -8.8970   20.2610 C   0  0  0  0  0  3  0  0  0  0  0  0
  -22.7730  -10.1240   20.1110 C   0  0  0  0  0  3  0  0  0  0  0  0
  -21.8280   -6.7850   21.2930 O   0  0  0  0  0  0  0  0  0  0  0  0
  -21.5750   -6.1530   22.4820 C   0  0  0  0  0  0  0  0  0  0  0  0
  -20.7920   -6.7530   23.4940 C   0  0  0  0  0  3  0  0  0  0  0  0
  -20.4980   -6.0390   24.6740 C   0  0  0  0  0  3  0  0  0  0  0  0
  -20.9770   -4.7270   24.8400 C   0  0  0  0  0  0  0  0  0  0  0  0
  -21.7520   -4.1250   23.8340 C   0  0  0  0  0  3  0  0  0  0  0  0
  -22.0470   -4.8370   22.6560 C   0  0  0  0  0  0  0  0  0  0  0  0
  -22.7760   -4.2460   21.6790 F   0  0  0  0  0  0  0  0  0  0  0  0
  -20.6910   -4.0380   25.9710 F   0  0  0  0  0  0  0  0  0  0  0  0
  -22.6860  -13.4770   21.5310 C   0  0  0  0  0  0  0  0  0  0  0  0
  -22.1060  -12.6720   22.4140 N   0  0  0  0  0  0  0  0  0  0  0  0
  -22.1550  -14.5310   21.1840 O   0  0  0  0  0  0  0  0  0  0  0  0
  -22.5570  -11.8200   22.7140 H   0  0  0  0  0  0  0  0  0  0  0  0
  -21.2030  -12.9130   22.7970 H   0  0  0  0  0  0  0  0  0  0  0  0
  -25.1330  -15.3120   20.5230 N   0  0  0  0  0  0  0  0  0  0  0  0
  -24.3710  -15.9230   20.7930 H   0  0  0  0  0  0  0  0  0  0  0  0
  -25.9110  -15.8050   20.1050 H   0  0  0  0  0  0  0  0  0  0  0  0
  -32.1240  -18.1540   22.5670 C   0  0  0  0  0  1  0  0  0  0  0  0
  -30.9920  -17.1460   22.3190 C   0  0  0  0  0  2  0  0  0  0  0  0
  1  2  1  0
  1  4  1  0
  2  6  1  0
  4 55  1  0
  4  5  1  0
  5  9  1  0
  5  3  1  0
  6  7  1  1
  6  3  1  0
  9  8  1  0
 10 11  1  0
 10  6  1  0
 12 13  1  0
 12 11  1  0
 14 16  1  0
 14 13  1  0
 15 26  2  0
 16 21  1  0
 17 25  1  0
 17 27  1  0
 18 24  1  0
 18 20  1  0
 19 25  1  0
 20 19  1  0
 21 20  2  0
 22 23  1  0
 22 16  2  0
 23 18  2  0
 24 17  1  0
 25 15  1  0
 27 29  2  0
 28 27  1  0
 30 28  1  0
 31 40  2  0
 31 36  1  0
 32 28  1  0
 32 36  1  0
 33 32  1  0
 34 35  1  0
 34 33  1  0
 35 31  1  0
 36 37  2  0
 37 38  1  0
 39 38  2  0
 40 39  1  0
 41 15  1  0
 41 42  1  0
 41 51  1  0
 42 45  1  0
 43 47  1  0
 43 42  1  0
 44 43  2  0
 47 46  1  0
 49 47  1  0
 49 50  1  0
 49 48  1  0
 51 54  1  1
 51 52  1  0
 53 51  1  0
 55 95  1  0
 56 64  1  0
 57 62  1  0
 58 59  1  0
 58 57  1  0
 60 59  1  0
 60 69  1  0
 60 61  1  0
 62 56  1  0
 62 61  1  0
 63 56  2  0
 64 55  1  0
 64 65  1  0
 66 67  2  0
 67 86  1  0
 68 71  1  0
 68 67  1  0
 69 70  1  0
 69 66  1  0
 70 68  2  0
 71 72  1  0
 72 73  2  0
 74 77  1  0
 74 73  1  0
 75 74  2  0
 76 75  1  0
 76 71  2  0
 77 78  1  0
 78 83  2  0
 78 79  1  0
 79 80  2  0
 80 81  1  0
 81 85  1  0
 82 81  2  0
 83 82  1  0
 84 83  1  0
 86 87  1  0
 87 89  1  0
 87 90  1  0
 88 86  2  0
 91 66  1  0
 91 92  1  0
 93 91  1  0
 95 94  1  0
M  ISO  4  13 101  14 101  56 100  64 100
M  END
>  <TORSDO>  (22) 
F 23

>  <SCORE>  (22) 
-10.044

>  <name>  (22) 
22

>  <ligand_id>  (22) 
22

>  <original_smiles>  (22) 
[H]c1c([H])c([H])c2c(c1[H])C([H])([H])C([H])([H])C([H])([H])C2([H])N([H])C(=O)C1([H])N(C(=O)C([H])(N([H])C(=O)C([H])(N([H])C([H])([H])[H])C([H])([H])[H])C(C([H])([H])[H])(C([H])([H])[H])C([H])([H])[H])C([H])([H])c2c([H])c(OC([H])([H])C([H])([H])C([H])([H])C([H])([H])[N+]3([H])C([H])([H])C([H])([H])C([H])(C([H])(N([H])C(=O)N4C([H])([H])C([H])([H])C([H])([H])C([H])(n5nc(-c6c([H])c([H])c(Oc7c([H])c([H])c(F)c([H])c7F)c([H])c6[H])c(C(=O)N([H])[H])c5N([H])[H])C4([H])[H])C([H])([H])C([H])([H])[H])C([H])(C([H])([H])C([H])([H])[H])C3([H])[H])c([H])c([H])c2C1([H])[H]

>  <smiles>  (22) 
[H]c1c([H])c([H])c2c(c1[H])C([H])([H])C([H])([H])C([H])([H])C2([H])N([H])C(=O)C1([H])N(C(=O)C([H])(N([H])C(=O)C([H])(N([H])C([H])([H])[H])C([H])([H])[H])C(C([H])([H])[H])(C([H])([H])[H])C([H])([H])[H])C([H])([H])c2c([H])c(OC([H])([H])C([H])([H])C([H])([H])C([H])([H])[N+]3([H])C([H])([H])C([H])([H])C([H])(C([H])(N([H])C(=O)N4C([H])([H])C([H])([H])C([H])([H])C([H])(n5nc(-c6c([H])c([H])c(Oc7c([H])c([H])c(F)c([H])c7F)c([H])c6[H])c(C(=O)N([H])[H])c5N([H])[H])C4([H])[H])C([H])([H])C([H])([H])[H])C([H])(C([H])([H])C([H])([H])[H])C3([H])[H])c([H])c([H])c2C1([H])[H]

$$$$
23:0:0
     RDKit          3D

 89 96  0  0  1  0  0  0  0  0999 V2000
  -30.0330  -20.3340   19.6220 C   0  0  0  0  0  0  0  0  0  0  0  0
  -29.7880  -21.6530   20.2400 N   0  0  0  0  0  0  0  0  0  0  0  0
  -29.8130  -20.3210   18.4100 O   0  0  0  0  0  0  0  0  0  0  0  0
  -29.9660  -21.6360   21.2350 H   0  0  0  0  0  0  0  0  0  0  0  0
  -29.4920  -23.2000   19.7030 C   0  0  0  0  0  2  0  0  0  0  0  0
  -28.6350  -24.5970   20.4050 C   0  0  0  0  0  2  0  0  0  0  0  0
  -28.7270  -26.2160   20.1900 O   0  0  0  0  0  0  0  0  0  0  0  0
  -24.6960  -31.8340   23.1830 C   0  0  0  0  0  0  0  0  0  0  0  0
  -27.6170  -27.1970   20.1820 C   0  0  0  0  0  0  0  0  0  0  0  0
  -23.6180  -30.3870   21.5080 C   0  0  0  0  0  3  0  0  0  0  0  0
  -25.1820  -28.8770   20.1180 C   0  0  0  0  0  0  0  0  0  0  0  0
  -26.1620  -30.7690   21.4030 C   0  0  0  0  0  2  0  0  0  0  0  0
  -26.3330  -29.3730   20.7470 C   0  0  0  0  0  0  0  0  0  0  0  0
  -27.5440  -28.5550   20.7520 C   0  0  0  0  0  3  0  0  0  0  0  0
  -26.4280  -26.8350   19.5130 C   0  0  0  0  0  3  0  0  0  0  0  0
  -25.2500  -27.6240   19.4880 C   0  0  0  0  0  3  0  0  0  0  0  0
  -23.9090  -29.7170   20.1390 C   0  0  0  0  0  2  0  0  0  0  0  0
  -24.8440  -31.0220   22.0870 N   0  0  0  0  0  0  0  0  0  0  0  0
  -23.5830  -32.0520   23.6880 O   0  0  0  0  0  0  0  0  0  0  0  0
  -22.9630  -29.3450   22.4530 C   0  0  0  0  0  0  0  0  0  0  0  0
  -21.6490  -29.0980   22.2930 N   0  0  0  0  0  0  0  0  0  0  0  0
  -23.6420  -28.7570   23.2990 O   0  0  0  0  0  0  0  0  0  0  0  0
  -21.1490  -29.6260   21.5900 H   0  0  0  0  0  0  0  0  0  0  0  0
  -18.3400  -27.6700   22.7060 C   0  0  0  0  0  0  0  0  0  0  0  0
  -20.8680  -28.1030   23.0370 C   0  0  0  0  0  3  0  0  0  0  0  0
  -21.0760  -26.6830   22.4630 C   0  0  0  0  0  2  0  0  0  0  0  0
  -20.0250  -26.2920   21.4180 C   0  0  0  0  0  2  0  0  0  0  0  0
  -18.6220  -26.3420   22.0270 C   0  0  0  0  0  2  0  0  0  0  0  0
  -19.3940  -28.5040   23.1650 C   0  0  0  0  0  0  0  0  0  0  0  0
  -19.0750  -29.7420   23.7640 C   0  0  0  0  0  3  0  0  0  0  0  0
  -17.7340  -30.1500   23.9040 C   0  0  0  0  0  3  0  0  0  0  0  0
  -16.6940  -29.3160   23.4560 C   0  0  0  0  0  3  0  0  0  0  0  0
  -16.9990  -28.0770   22.8650 C   0  0  0  0  0  3  0  0  0  0  0  0
  -25.9150  -32.5370   23.8500 C   0  0  0  0  0  3  0  0  0  0  0  0
  -25.5250  -33.9280   24.1510 N   0  0  0  0  0  0  0  0  0  0  0  0
  -25.8600  -34.9930   23.4100 C   0  0  0  0  0  0  0  0  0  0  0  0
  -26.5880  -34.9110   22.4170 O   0  0  0  0  0  0  0  0  0  0  0  0
  -24.8730  -34.0560   24.9110 H   0  0  0  0  0  0  0  0  0  0  0  0
  -24.0730  -36.7120   22.9750 C   0  0  0  0  0  1  0  0  0  0  0  0
  -25.3010  -36.3670   23.8350 C   0  0  0  0  0  3  0  0  0  0  0  0
  -27.3640  -37.3530   24.7310 C   0  0  0  0  0  1  0  0  0  0  0  0
  -26.2950  -37.4610   23.7400 N   0  0  0  0  0  0  0  0  0  0  0  0
  -25.8500  -38.3690   23.8480 H   0  0  0  0  0  0  0  0  0  0  0  0
  -26.4020  -31.8150   25.1670 C   0  0  1  0  0  0  0  0  0  0  0  0
  -25.2670  -31.5420   26.1840 C   0  0  0  0  0  1  0  0  0  0  0  0
  -27.0720  -30.4620   24.8380 C   0  0  0  0  0  1  0  0  0  0  0  0
  -27.4820  -32.6730   25.8630 C   0  0  0  0  0  1  0  0  0  0  0  0
  -30.6570  -18.8130   20.2510 C   0  0  0  0  0  3  0  0  0  0  0  0
  -32.0180  -19.8440   22.2640 C   0  0  0  0  0  1  0  0  0  0  0  0
  -30.8690  -18.9390   21.7830 C   0  0  0  0  0  2  0  0  0  0  0  0
  -30.1630  -17.0960   19.9860 C   0  0  0  0  0  3  0  0  0  0  0  0
  -30.9160  -15.5320   20.2600 C   0  0  0  0  0  0  0  0  0  0  0  0
  -30.8020  -13.1360   19.3140 C   0  0  0  0  0  2  0  0  0  0  0  0
  -29.8510  -13.0660   18.0950 C   0  0  0  0  0  2  0  0  0  0  0  0
  -28.4110  -12.7880   18.5550 C   0  0  0  0  0  2  0  0  0  0  0  0
  -28.0050  -13.7040   19.7380 C   0  0  0  0  0  3  0  0  0  0  0  0
  -29.0770  -13.7730   20.8380 C   0  0  0  0  0  2  0  0  0  0  0  0
  -30.3240  -14.2420   20.2120 N   0  0  0  0  0  0  0  0  0  0  0  0
  -32.1500  -15.4780   20.1470 O   0  0  0  0  0  0  0  0  0  0  0  0
  -25.6640  -14.2600   20.5770 C   0  0  0  0  0  0  0  0  0  0  0  0
  -24.5990  -13.4820   20.9370 C   0  0  0  0  0  0  0  0  0  0  0  0
  -25.0490  -12.1290   20.8460 C   0  0  0  0  0  0  0  0  0  0  0  0
  -26.6870  -13.3810   20.2720 N   0  0  0  0  0  0  0  0  0  0  0  0
  -26.3320  -12.0910   20.5030 N   0  0  0  0  0  0  0  0  0  0  0  0
  -24.3070  -10.8690   21.0020 C   0  0  0  0  0  0  0  0  0  0  0  0
  -24.6990   -9.8970   21.9460 C   0  0  0  0  0  3  0  0  0  0  0  0
  -23.9620   -8.7020   22.0930 C   0  0  0  0  0  3  0  0  0  0  0  0
  -22.8170   -8.4720   21.2940 C   0  0  0  0  0  0  0  0  0  0  0  0
  -22.4450   -9.4300   20.3360 C   0  0  0  0  0  3  0  0  0  0  0  0
  -23.1830  -10.6180   20.1890 C   0  0  0  0  0  3  0  0  0  0  0  0
  -22.0510   -7.3320   21.3520 O   0  0  0  0  0  0  0  0  0  0  0  0
  -21.8990   -6.6230   22.5150 C   0  0  0  0  0  0  0  0  0  0  0  0
  -21.3310   -7.2040   23.6710 C   0  0  0  0  0  3  0  0  0  0  0  0
  -21.1310   -6.4210   24.8240 C   0  0  0  0  0  3  0  0  0  0  0  0
  -21.4820   -5.0580   24.8220 C   0  0  0  0  0  0  0  0  0  0  0  0
  -22.0390   -4.4780   23.6680 C   0  0  0  0  0  3  0  0  0  0  0  0
  -22.2440   -5.2560   22.5190 C   0  0  0  0  0  0  0  0  0  0  0  0
  -22.7630   -4.6890   21.4040 F   0  0  0  0  0  0  0  0  0  0  0  0
  -21.2790   -4.3020   25.9270 F   0  0  0  0  0  0  0  0  0  0  0  0
  -23.2130  -13.9650   21.2500 C   0  0  0  0  0  0  0  0  0  0  0  0
  -22.5010  -13.2580   22.1190 N   0  0  0  0  0  0  0  0  0  0  0  0
  -22.7750  -15.0040   20.7550 O   0  0  0  0  0  0  0  0  0  0  0  0
  -22.8710  -12.4200   22.5430 H   0  0  0  0  0  0  0  0  0  0  0  0
  -21.5710  -13.5590   22.3690 H   0  0  0  0  0  0  0  0  0  0  0  0
  -25.8410  -15.6330   20.4540 N   0  0  0  0  0  0  0  0  0  0  0  0
  -25.0920  -16.2960   20.6070 H   0  0  0  0  0  0  0  0  0  0  0  0
  -26.6950  -16.0720   20.1410 H   0  0  0  0  0  0  0  0  0  0  0  0
  -28.1560  -17.4550   18.3740 C   0  0  0  0  0  1  0  0  0  0  0  0
  -29.6060  -16.9720   18.5320 C   0  0  0  0  0  2  0  0  0  0  0  0
  1  2  1  0
  1 48  1  0
  2  4  1  0
  3  1  2  0
  5  2  1  0
  5  6  1  0
  7  6  1  0
  8 19  2  0
  9  7  1  0
  9 14  1  0
 10 18  1  0
 10 20  1  0
 11 17  1  0
 11 13  1  0
 12 18  1  0
 13 14  2  0
 13 12  1  0
 15  9  2  0
 16 15  1  0
 16 11  2  0
 17 10  1  0
 18  8  1  0
 20 22  2  0
 21 20  1  0
 23 21  1  0
 24 33  2  0
 24 29  1  0
 25 21  1  0
 25 29  1  0
 26 25  1  0
 27 28  1  0
 27 26  1  0
 28 24  1  0
 29 30  2  0
 30 31  1  0
 32 31  2  0
 33 32  1  0
 34  8  1  0
 34 35  1  0
 34 44  1  0
 35 38  1  0
 36 40  1  0
 36 35  1  0
 37 36  2  0
 40 39  1  0
 42 40  1  0
 42 43  1  0
 42 41  1  0
 44 47  1  1
 44 45  1  0
 46 44  1  0
 48 50  1  0
 50 49  1  0
 51 89  1  0
 51 48  1  0
 51 52  1  0
 53 58  1  0
 54 55  1  0
 54 53  1  0
 56 55  1  0
 56 63  1  0
 56 57  1  0
 58 52  1  0
 58 57  1  0
 59 52  2  0
 60 61  2  0
 61 80  1  0
 62 61  1  0
 62 65  1  0
 63 64  1  0
 63 60  1  0
 64 62  2  0
 65 66  1  0
 66 67  2  0
 68 71  1  0
 68 67  1  0
 69 68  2  0
 70 69  1  0
 70 65  2  0
 71 72  1  0
 72 77  2  0
 72 73  1  0
 73 74  2  0
 75 74  1  0
 75 79  1  0
 76 75  2  0
 77 76  1  0
 78 77  1  0
 80 81  1  0
 81 84  1  0
 81 83  1  0
 82 80  2  0
 85 60  1  0
 85 86  1  0
 87 85  1  0
 88 89  1  0
M  ISO  4   6 101   7 101  51 100  52 100
M  END
>  <TORSDO>  (23) 
F 22

>  <SCORE>  (23) 
-14.574

>  <name>  (23) 
23

>  <ligand_id>  (23) 
23

>  <original_smiles>  (23) 
[H]c1c([H])c([H])c2c(c1[H])C([H])([H])C([H])([H])C([H])([H])C2([H])N([H])C(=O)C1([H])N(C(=O)C([H])(N([H])C(=O)C([H])(N([H])C([H])([H])[H])C([H])([H])[H])C(C([H])([H])[H])(C([H])([H])[H])C([H])([H])[H])C([H])([H])c2c([H])c(OC([H])([H])C([H])([H])N([H])C(=O)C([H])(C([H])([H])C([H])([H])[H])C([H])(C(=O)N3C([H])([H])C([H])([H])C([H])([H])C([H])(n4nc(-c5c([H])c([H])c(Oc6c([H])c([H])c(F)c([H])c6F)c([H])c5[H])c(C(=O)N([H])[H])c4N([H])[H])C3([H])[H])C([H])([H])C([H])([H])[H])c([H])c([H])c2C1([H])[H]

>  <smiles>  (23) 
[H]c1c([H])c([H])c2c(c1[H])C([H])([H])C([H])([H])C([H])([H])C2([H])N([H])C(=O)C1([H])N(C(=O)C([H])(N([H])C(=O)C([H])(N([H])C([H])([H])[H])C([H])([H])[H])C(C([H])([H])[H])(C([H])([H])[H])C([H])([H])[H])C([H])([H])c2c([H])c(OC([H])([H])C([H])([H])N([H])C(=O)C([H])(C([H])([H])C([H])([H])[H])C([H])(C(=O)N3C([H])([H])C([H])([H])C([H])([H])C([H])(n4nc(-c5c([H])c([H])c(Oc6c([H])c([H])c(F)c([H])c6F)c([H])c5[H])c(C(=O)N([H])[H])c4N([H])[H])C3([H])[H])C([H])([H])C([H])([H])[H])c([H])c([H])c2C1([H])[H]

$$$$
24:0:0
     RDKit          3D

 98107  0  0  1  0  0  0  0  0999 V2000
  -30.0260  -18.5470   19.6120 C   0  0  0  0  0  3  0  0  0  0  0  0
  -27.7540  -18.8110   17.9770 C   0  0  0  0  0  2  0  0  0  0  0  0
  -26.4690  -18.7430   18.8500 C   0  0  0  0  0  3  0  0  0  0  0  0
  -28.5230  -18.8770   19.3210 C   0  0  0  0  0  3  0  0  0  0  0  0
  -27.3750  -18.0240   19.8810 C   0  0  0  0  0  3  0  0  0  0  0  0
  -24.0860  -17.6520   19.2570 C   0  0  0  0  0  2  0  0  0  0  0  0
  -23.8740  -18.9490   18.5180 C   0  0  0  0  0  2  0  0  0  0  0  0
  -25.1600  -18.1690   18.3180 C   0  0  0  0  0  3  0  0  0  0  0  0
  -27.0620  -18.0060   21.3930 C   0  0  0  0  0  2  0  0  0  0  0  0
  -26.1330  -16.9250   21.7700 N   0  0  0  0  0  4  0  0  0  0  0  0
  -25.2330  -17.2980   22.0140 H   0  0  0  0  0  0  0  0  0  0  0  0
  -26.4810  -16.4200   22.5670 H   0  0  0  0  0  0  0  0  0  0  0  0
  -26.0020  -16.2750   20.9990 H   0  0  0  0  0  0  0  0  0  0  0  0
  -30.5200  -19.9010   20.4310 N   0  0  0  0  0  4  0  0  0  0  0  0
  -30.0630  -19.8650   21.3250 H   0  0  0  0  0  0  0  0  0  0  0  0
  -31.4960  -19.7510   20.6410 H   0  0  0  0  0  0  0  0  0  0  0  0
  -30.4130  -21.4920   19.9660 C   0  0  0  0  0  2  0  0  0  0  0  0
  -29.9270  -22.9270   20.8740 C   0  0  0  0  0  3  0  0  0  0  0  0
  -29.1110  -24.4070   20.3490 C   0  0  0  0  0  3  0  0  0  0  0  0
  -28.9450  -25.8910   20.9690 O   0  0  0  0  0  0  0  0  0  0  0  0
  -24.7560  -31.5620   23.3980 C   0  0  0  0  0  0  0  0  0  0  0  0
  -27.8770  -26.8770   20.7220 C   0  0  0  0  0  0  0  0  0  0  0  0
  -23.8190  -30.1110   21.6390 C   0  0  0  0  0  3  0  0  0  0  0  0
  -25.4940  -28.5880   20.3960 C   0  0  0  0  0  0  0  0  0  0  0  0
  -26.3650  -30.4630   21.7790 C   0  0  0  0  0  2  0  0  0  0  0  0
  -26.5770  -29.0680   21.1420 C   0  0  0  0  0  0  0  0  0  0  0  0
  -27.7620  -28.2310   21.2840 C   0  0  0  0  0  3  0  0  0  0  0  0
  -26.7660  -26.5290   19.9170 C   0  0  0  0  0  3  0  0  0  0  0  0
  -25.6110  -27.3380   19.7640 C   0  0  0  0  0  3  0  0  0  0  0  0
  -24.2300  -29.4390   20.3010 C   0  0  0  0  0  2  0  0  0  0  0  0
  -24.9930  -30.7400   22.3270 N   0  0  0  0  0  0  0  0  0  0  0  0
  -23.6060  -31.7990   23.7950 O   0  0  0  0  0  0  0  0  0  0  0  0
  -23.0700  -29.0840   22.5260 C   0  0  0  0  0  0  0  0  0  0  0  0
  -21.7640  -28.8830   22.2740 N   0  0  0  0  0  0  0  0  0  0  0  0
  -23.6740  -28.4680   23.4070 O   0  0  0  0  0  0  0  0  0  0  0  0
  -21.3320  -29.4290   21.5420 H   0  0  0  0  0  0  0  0  0  0  0  0
  -18.3630  -27.6520   22.5220 C   0  0  0  0  0  0  0  0  0  0  0  0
  -20.9000  -27.9160   22.9570 C   0  0  0  0  0  3  0  0  0  0  0  0
  -21.0450  -26.5070   22.3340 C   0  0  0  0  0  2  0  0  0  0  0  0
  -20.0110  -26.2210   21.2400 C   0  0  0  0  0  2  0  0  0  0  0  0
  -18.5910  -26.3340   21.7990 C   0  0  0  0  0  2  0  0  0  0  0  0
  -19.4480  -28.4030   23.0490 C   0  0  0  0  0  0  0  0  0  0  0  0
  -19.1800  -29.6350   23.6800 C   0  0  0  0  0  3  0  0  0  0  0  0
  -17.8620  -30.1200   23.7900 C   0  0  0  0  0  3  0  0  0  0  0  0
  -16.7930  -29.3660   23.2770 C   0  0  0  0  0  3  0  0  0  0  0  0
  -17.0430  -28.1340   22.6480 C   0  0  0  0  0  3  0  0  0  0  0  0
  -25.9230  -32.2570   24.1650 C   0  0  0  0  0  3  0  0  0  0  0  0
  -26.2330  -31.5850   25.5600 C   0  0  1  0  0  0  0  0  0  0  0  0
  -24.9820  -31.3810   26.4450 C   0  0  0  0  0  1  0  0  0  0  0  0
  -26.9010  -30.2030   25.3740 C   0  0  0  0  0  1  0  0  0  0  0  0
  -27.2420  -32.4550   26.3460 C   0  0  0  0  0  1  0  0  0  0  0  0
  -25.5600  -33.6720   24.3500 N   0  0  0  0  0  0  0  0  0  0  0  0
  -25.9740  -34.6800   23.5690 C   0  0  0  0  0  0  0  0  0  0  0  0
  -26.7620  -34.5150   22.6330 O   0  0  0  0  0  0  0  0  0  0  0  0
  -24.8760  -33.8710   25.0660 H   0  0  0  0  0  0  0  0  0  0  0  0
  -24.3010  -36.4320   22.8800 C   0  0  0  0  0  1  0  0  0  0  0  0
  -25.4280  -36.0900   23.8690 C   0  0  0  0  0  3  0  0  0  0  0  0
  -27.4270  -37.0620   24.9160 C   0  0  0  0  0  1  0  0  0  0  0  0
  -26.4630  -37.1460   23.8220 N   0  0  0  0  0  0  0  0  0  0  0  0
  -26.0390  -38.0690   23.8440 H   0  0  0  0  0  0  0  0  0  0  0  0
  -29.6640  -16.4500   21.4170 C   0  0  0  0  0  1  0  0  0  0  0  0
  -30.3600  -16.8310   20.0860 C   0  0  0  0  0  3  0  0  0  0  0  0
  -30.8100  -15.3430   19.2560 C   0  0  0  0  0  0  0  0  0  0  0  0
  -30.4940  -13.0500   18.0870 C   0  0  0  0  0  2  0  0  0  0  0  0
  -29.3360  -13.0820   17.0610 C   0  0  0  0  0  2  0  0  0  0  0  0
  -27.9890  -12.7910   17.7450 C   0  0  0  0  0  2  0  0  0  0  0  0
  -27.8330  -13.5720   19.0720 C   0  0  0  0  0  3  0  0  0  0  0  0
  -29.0920  -13.4720   19.9540 C   0  0  0  0  0  2  0  0  0  0  0  0
  -30.2090  -14.0510   19.1840 N   0  0  0  0  0  0  0  0  0  0  0  0
  -31.8810  -15.3630   18.6330 O   0  0  0  0  0  0  0  0  0  0  0  0
  -25.6600  -14.0320   20.3350 C   0  0  0  0  0  0  0  0  0  0  0  0
  -24.6710  -13.2390   20.8170 C   0  0  0  0  0  0  0  0  0  0  0  0
  -25.1010  -11.9030   20.5650 C   0  0  0  0  0  0  0  0  0  0  0  0
  -26.6230  -13.2010   19.7960 N   0  0  0  0  0  0  0  0  0  0  0  0
  -26.3090  -11.8980   20.0030 N   0  0  0  0  0  0  0  0  0  0  0  0
  -24.3960  -10.6400   20.7710 C   0  0  0  0  0  0  0  0  0  0  0  0
  -24.8570   -9.6900   21.7050 C   0  0  0  0  0  3  0  0  0  0  0  0
  -24.1440   -8.4900   21.9090 C   0  0  0  0  0  3  0  0  0  0  0  0
  -22.9570   -8.2390   21.1790 C   0  0  0  0  0  0  0  0  0  0  0  0
  -22.5160   -9.1810   20.2330 C   0  0  0  0  0  3  0  0  0  0  0  0
  -23.2300  -10.3730   20.0270 C   0  0  0  0  0  3  0  0  0  0  0  0
  -22.2140   -7.0920   21.2930 O   0  0  0  0  0  0  0  0  0  0  0  0
  -22.0270   -6.4760   22.5030 C   0  0  0  0  0  0  0  0  0  0  0  0
  -21.3900   -7.1280   23.5840 C   0  0  0  0  0  3  0  0  0  0  0  0
  -21.1540   -6.4320   24.7860 C   0  0  0  0  0  3  0  0  0  0  0  0
  -21.5470   -5.0850   24.9080 C   0  0  0  0  0  0  0  0  0  0  0  0
  -22.1810   -4.4350   23.8360 C   0  0  0  0  0  3  0  0  0  0  0  0
  -22.4180   -5.1280   22.6370 C   0  0  0  0  0  0  0  0  0  0  0  0
  -23.0100   -4.4910   21.5990 F   0  0  0  0  0  0  0  0  0  0  0  0
  -21.3130   -4.4140   26.0600 F   0  0  0  0  0  0  0  0  0  0  0  0
  -23.3650  -13.7080   21.3870 C   0  0  0  0  0  0  0  0  0  0  0  0
  -22.8000  -12.9560   22.3240 N   0  0  0  0  0  0  0  0  0  0  0  0
  -22.8690  -14.7820   21.0390 O   0  0  0  0  0  0  0  0  0  0  0  0
  -23.2300  -12.0980   22.6390 H   0  0  0  0  0  0  0  0  0  0  0  0
  -21.9230  -13.2420   22.7370 H   0  0  0  0  0  0  0  0  0  0  0  0
  -25.7840  -15.4040   20.2920 N   0  0  0  0  0  0  0  0  0  0  0  0
  -24.8590  -15.7880   20.1230 H   0  0  0  0  0  0  0  0  0  0  0  0
  -26.4240  -15.6740   19.5560 H   0  0  0  0  0  0  0  0  0  0  0  0
  1 62  1  0
  1 14  1  0
  2  3  1  0
  2  4  1  0
  3  8  1  0
  3  5  1  0
  4  1  1  0
  4  5  1  0
  5  9  1  0
  7  6  1  0
  8  7  1  0
  8  6  1  0
  9 10  1  0
 10 11  1  0
 10 12  1  0
 13 10  1  0
 14 16  1  0
 14 15  1  0
 17 14  1  0
 17 18  1  0
 19 18  2  0
 19 20  1  0
 21 32  2  0
 22 20  1  0
 22 27  1  0
 23 31  1  0
 23 33  1  0
 24 26  1  0
 25 31  1  0
 26 27  2  0
 26 25  1  0
 28 22  2  0
 29 28  1  0
 29 24  2  0
 30 24  1  0
 30 23  1  0
 31 21  1  0
 33 35  2  0
 34 33  1  0
 36 34  1  0
 37 46  2  0
 37 42  1  0
 38 34  1  0
 38 42  1  0
 39 38  1  0
 40 41  1  0
 40 39  1  0
 41 37  1  0
 42 43  2  0
 43 44  1  0
 45 44  2  0
 46 45  1  0
 47 21  1  0
 47 52  1  0
 47 48  1  0
 48 51  1  1
 48 49  1  0
 50 48  1  0
 52 55  1  0
 53 57  1  0
 53 52  1  0
 54 53  2  0
 57 56  1  0
 59 60  1  0
 59 57  1  0
 59 58  1  0
 62 61  1  0
 63 62  1  0
 64 69  1  0
 65 66  1  0
 65 64  1  0
 67 66  1  0
 67 74  1  0
 67 68  1  0
 69 63  1  0
 69 68  1  0
 70 63  2  0
 71 72  2  0
 72 91  1  0
 73 76  1  0
 73 72  1  0
 74 75  1  0
 74 71  1  0
 75 73  2  0
 76 77  1  0
 77 78  2  0
 79 82  1  0
 79 78  1  0
 80 79  2  0
 81 80  1  0
 81 76  2  0
 82 83  1  0
 83 88  2  0
 83 84  1  0
 84 85  2  0
 85 86  1  0
 86 90  1  0
 87 86  2  0
 88 87  1  0
 89 88  1  0
 91 92  1  0
 92 94  1  0
 92 95  1  0
 93 91  2  0
 96 71  1  0
 97 96  1  0
 98 96  1  0
M  ISO  4  19 101  20 101  62 100  63 100
M  END
>  <TORSDO>  (24) 
F 25

>  <SCORE>  (24) 
-1.066

>  <name>  (24) 
24

>  <ligand_id>  (24) 
24

>  <original_smiles>  (24) 
[H]c1c([H])c([H])c2c(c1[H])C([H])([H])C([H])([H])C([H])([H])C2([H])N([H])C(=O)C1([H])N(C(=O)C([H])(N([H])C(=O)C([H])(N([H])C([H])([H])[H])C([H])([H])[H])C(C([H])([H])[H])(C([H])([H])[H])C([H])([H])[H])C([H])([H])c2c([H])c(OC([H])([H])C([H])([H])C([H])([H])[N+]([H])([H])C([H])(C([H])(C(=O)N3C([H])([H])C([H])([H])C([H])([H])C([H])(n4nc(-c5c([H])c([H])c(Oc6c([H])c([H])c(F)c([H])c6F)c([H])c5[H])c(C(=O)N([H])[H])c4N([H])[H])C3([H])[H])C([H])([H])[H])C3([H])C([H])([H])C([H])(C4([H])C([H])([H])C4([H])[H])C3([H])C([H])([H])[N+]([H])([H])[H])c([H])c([H])c2C1([H])[H]

>  <smiles>  (24) 
[H]c1c([H])c([H])c2c(c1[H])C([H])([H])C([H])([H])C([H])([H])C2([H])N([H])C(=O)C1([H])N(C(=O)C([H])(N([H])C(=O)C([H])(N([H])C([H])([H])[H])C([H])([H])[H])C(C([H])([H])[H])(C([H])([H])[H])C([H])([H])[H])C([H])([H])c2c([H])c(OC([H])([H])C([H])([H])C([H])([H])[N+]([H])([H])C([H])(C([H])(C(=O)N3C([H])([H])C([H])([H])C([H])([H])C([H])(n4nc(-c5c([H])c([H])c(Oc6c([H])c([H])c(F)c([H])c6F)c([H])c5[H])c(C(=O)N([H])[H])c4N([H])[H])C3([H])[H])C([H])([H])[H])C3([H])C([H])([H])C([H])(C4([H])C([H])([H])C4([H])[H])C3([H])C([H])([H])[N+]([H])([H])[H])c([H])c([H])c2C1([H])[H]

$$$$
25:0:0
     RDKit          3D

 94102  0  0  1  0  0  0  0  0999 V2000
  -28.6540  -19.7750   20.4840 C   0  0  0  0  0  2  0  0  0  0  0  0
  -30.7880  -21.7410   20.1640 C   0  0  0  0  0  2  0  0  0  0  0  0
  -28.4660  -21.3270   20.8640 C   0  0  0  0  0  3  0  0  0  0  0  0
  -29.3520  -22.3880   20.0660 C   0  0  0  0  0  3  0  0  0  0  0  0
  -30.1170  -19.2110   20.4680 C   0  0  0  0  0  3  0  0  0  0  0  0
  -30.8950  -20.2820   19.7340 N   0  0  0  0  0  4  0  0  0  0  0  0
  -31.8740  -20.0400   19.7820 H   0  0  0  0  0  0  0  0  0  0  0  0
  -30.6370  -20.2390   18.7620 H   0  0  0  0  0  0  0  0  0  0  0  0
  -26.9870  -21.6710   20.7680 C   0  0  0  0  0  3  0  0  0  0  0  0
  -26.3380  -22.2690   21.6730 N   0  0  0  0  0  0  0  0  0  0  0  0
  -26.9150  -22.5020   22.4760 H   0  0  0  0  0  0  0  0  0  0  0  0
  -29.1690  -24.0010   20.4640 C   0  0  0  0  0  2  0  0  0  0  0  0
  -29.1340  -24.8600   18.0080 C   0  0  0  0  0  1  0  0  0  0  0  0
  -29.4510  -25.2670   19.4560 C   0  0  0  0  0  3  0  0  0  0  0  0
  -29.1850  -26.7540   19.7500 O   0  0  0  0  0  0  0  0  0  0  0  0
  -24.7680  -31.6010   22.9300 C   0  0  0  0  0  0  0  0  0  0  0  0
  -27.9690  -27.4950   19.6940 C   0  0  0  0  0  0  0  0  0  0  0  0
  -23.7800  -30.1590   21.1890 C   0  0  0  0  0  3  0  0  0  0  0  0
  -25.4340  -28.8870   19.7070 C   0  0  0  0  0  0  0  0  0  0  0  0
  -26.2720  -30.7860   21.0840 C   0  0  0  0  0  2  0  0  0  0  0  0
  -26.5320  -29.4600   20.3590 C   0  0  0  0  0  0  0  0  0  0  0  0
  -27.7990  -28.7800   20.3350 C   0  0  0  0  0  3  0  0  0  0  0  0
  -26.8260  -26.9920   19.0360 C   0  0  0  0  0  3  0  0  0  0  0  0
  -25.5880  -27.6650   19.0360 C   0  0  0  0  0  3  0  0  0  0  0  0
  -24.1040  -29.6080   19.7750 C   0  0  0  0  0  2  0  0  0  0  0  0
  -24.9560  -30.8680   21.7910 N   0  0  0  0  0  0  0  0  0  0  0  0
  -23.6500  -31.7080   23.4550 O   0  0  0  0  0  0  0  0  0  0  0  0
  -23.2370  -29.0100   22.0770 C   0  0  0  0  0  0  0  0  0  0  0  0
  -21.9490  -28.6640   21.9090 N   0  0  0  0  0  0  0  0  0  0  0  0
  -23.9770  -28.4370   22.8790 O   0  0  0  0  0  0  0  0  0  0  0  0
  -21.4000  -29.1940   21.2470 H   0  0  0  0  0  0  0  0  0  0  0  0
  -18.7570  -26.9860   22.2510 C   0  0  0  0  0  0  0  0  0  0  0  0
  -21.2480  -27.5830   22.6080 C   0  0  0  0  0  3  0  0  0  0  0  0
  -21.5610  -26.2110   21.9680 C   0  0  0  0  0  2  0  0  0  0  0  0
  -20.5380  -25.7940   20.9080 C   0  0  0  0  0  2  0  0  0  0  0  0
  -19.1340  -25.7120   21.5150 C   0  0  0  0  0  2  0  0  0  0  0  0
  -19.7490  -27.8720   22.7480 C   0  0  0  0  0  0  0  0  0  0  0  0
  -19.3450  -29.0590   23.3950 C   0  0  0  0  0  3  0  0  0  0  0  0
  -17.9790  -29.3660   23.5520 C   0  0  0  0  0  3  0  0  0  0  0  0
  -17.0010  -28.4780   23.0700 C   0  0  0  0  0  3  0  0  0  0  0  0
  -17.3900  -27.2910   22.4240 C   0  0  0  0  0  3  0  0  0  0  0  0
  -25.9470  -32.3580   23.6140 C   0  0  0  0  0  3  0  0  0  0  0  0
  -26.5140  -31.6060   24.8820 C   0  0  1  0  0  0  0  0  0  0  0  0
  -25.4300  -31.2100   25.9100 C   0  0  0  0  0  1  0  0  0  0  0  0
  -27.2620  -30.3170   24.4700 C   0  0  0  0  0  1  0  0  0  0  0  0
  -27.5470  -32.5060   25.6020 C   0  0  0  0  0  1  0  0  0  0  0  0
  -25.4610  -33.6970   23.9830 N   0  0  0  0  0  0  0  0  0  0  0  0
  -25.6900  -34.8130   23.2780 C   0  0  0  0  0  0  0  0  0  0  0  0
  -26.4000  -34.8320   22.2700 O   0  0  0  0  0  0  0  0  0  0  0  0
  -24.8250  -33.7440   24.7650 H   0  0  0  0  0  0  0  0  0  0  0  0
  -23.7680  -36.4070   22.9440 C   0  0  0  0  0  1  0  0  0  0  0  0
  -25.0300  -36.1170   23.7720 C   0  0  0  0  0  3  0  0  0  0  0  0
  -27.0220  -37.2180   24.6950 C   0  0  0  0  0  1  0  0  0  0  0  0
  -25.9320  -37.2890   23.7270 N   0  0  0  0  0  0  0  0  0  0  0  0
  -25.4160  -38.1480   23.8970 H   0  0  0  0  0  0  0  0  0  0  0  0
  -30.4250  -17.7000   19.8550 C   0  0  0  0  0  2  0  0  0  0  0  0
  -30.9220  -15.1570   20.3940 C   0  0  0  0  0  0  0  0  0  0  0  0
  -30.8250  -12.7850   19.5850 C   0  0  0  0  0  2  0  0  0  0  0  0
  -29.9470  -12.6980   18.3150 C   0  0  0  0  0  2  0  0  0  0  0  0
  -28.4680  -12.5110   18.6970 C   0  0  0  0  0  2  0  0  0  0  0  0
  -28.0110  -13.5110   19.7890 C   0  0  0  0  0  3  0  0  0  0  0  0
  -29.0070  -13.5750   20.9690 C   0  0  0  0  0  2  0  0  0  0  0  0
  -30.3210  -13.9130   20.4120 N   0  0  0  0  0  0  0  0  0  0  0  0
  -32.1110  -15.2360   20.0740 O   0  0  0  0  0  0  0  0  0  0  0  0
  -30.1420  -16.3180   20.4940 N   0  0  0  0  0  0  0  0  0  0  0  0
  -29.1890  -16.1640   20.7910 H   0  0  0  0  0  0  0  0  0  0  0  0
  -25.6120  -14.1280   20.4400 C   0  0  0  0  0  0  0  0  0  0  0  0
  -24.5270  -13.3640   20.7710 C   0  0  0  0  0  0  0  0  0  0  0  0
  -24.9760  -12.0070   20.7560 C   0  0  0  0  0  0  0  0  0  0  0  0
  -26.6520  -13.2360   20.2370 N   0  0  0  0  0  0  0  0  0  0  0  0
  -26.2760  -11.9580   20.4950 N   0  0  0  0  0  0  0  0  0  0  0  0
  -24.2320  -10.7530   20.9190 C   0  0  0  0  0  0  0  0  0  0  0  0
  -24.6200   -9.7760   21.8610 C   0  0  0  0  0  3  0  0  0  0  0  0
  -23.8740   -8.5880   22.0110 C   0  0  0  0  0  3  0  0  0  0  0  0
  -22.7240   -8.3680   21.2160 C   0  0  0  0  0  0  0  0  0  0  0  0
  -22.3530   -9.3330   20.2630 C   0  0  0  0  0  3  0  0  0  0  0  0
  -23.1010  -10.5120   20.1120 C   0  0  0  0  0  3  0  0  0  0  0  0
  -21.9520   -7.2320   21.2740 O   0  0  0  0  0  0  0  0  0  0  0  0
  -21.8670   -6.4760   22.4150 C   0  0  0  0  0  0  0  0  0  0  0  0
  -21.4180   -7.0210   23.6370 C   0  0  0  0  0  3  0  0  0  0  0  0
  -21.2830   -6.1920   24.7690 C   0  0  0  0  0  3  0  0  0  0  0  0
  -21.5880   -4.8220   24.6780 C   0  0  0  0  0  0  0  0  0  0  0  0
  -22.0340   -4.2770   23.4620 C   0  0  0  0  0  3  0  0  0  0  0  0
  -22.1710   -5.1040   22.3310 C   0  0  0  0  0  0  0  0  0  0  0  0
  -22.5790   -4.5680   21.1560 F   0  0  0  0  0  0  0  0  0  0  0  0
  -21.4520   -4.0240   25.7640 F   0  0  0  0  0  0  0  0  0  0  0  0
  -23.1270  -13.8560   20.9920 C   0  0  0  0  0  0  0  0  0  0  0  0
  -22.3630  -13.1700   21.8340 N   0  0  0  0  0  0  0  0  0  0  0  0
  -22.7190  -14.8870   20.4560 O   0  0  0  0  0  0  0  0  0  0  0  0
  -22.7070  -12.3320   22.2810 H   0  0  0  0  0  0  0  0  0  0  0  0
  -21.4250  -13.4850   22.0340 H   0  0  0  0  0  0  0  0  0  0  0  0
  -25.8000  -15.4960   20.2690 N   0  0  0  0  0  0  0  0  0  0  0  0
  -25.0390  -16.1600   20.3460 H   0  0  0  0  0  0  0  0  0  0  0  0
  -26.6580  -15.9170   19.9380 H   0  0  0  0  0  0  0  0  0  0  0  0
  1  3  1  0
  3  9  1  0
  4  2  1  0
  4 12  1  0
  4  3  1  0
  5 56  1  0
  5  1  1  0
  6  7  1  0
  6  2  1  0
  6  5  1  0
  8  6  1  0
  9 10  2  0
 10 11  1  0
 14 13  1  0
 14 15  1  0
 14 12  1  0
 16 27  2  0
 17 15  1  0
 17 22  1  0
 18 26  1  0
 18 28  1  0
 19 25  1  0
 19 21  1  0
 20 26  1  0
 21 20  1  0
 22 21  2  0
 23 24  1  0
 23 17  2  0
 24 19  2  0
 25 18  1  0
 26 16  1  0
 28 30  2  0
 29 28  1  0
 31 29  1  0
 32 41  2  0
 32 37  1  0
 33 29  1  0
 33 37  1  0
 34 33  1  0
 35 36  1  0
 35 34  1  0
 36 32  1  0
 37 38  2  0
 38 39  1  0
 40 39  2  0
 41 40  1  0
 42 16  1  0
 42 47  1  0
 42 43  1  0
 43 46  1  1
 43 44  1  0
 45 43  1  0
 47 50  1  0
 48 52  1  0
 48 47  1  0
 49 48  2  0
 52 51  1  0
 54 52  1  0
 54 55  1  0
 54 53  1  0
 56 65  1  0
 57 63  1  0
 57 65  1  0
 58 63  1  0
 59 60  1  0
 59 58  1  0
 61 60  1  0
 61 70  1  0
 61 62  1  0
 63 62  1  0
 64 57  2  0
 65 66  1  0
 67 68  2  0
 68 87  1  0
 69 68  1  0
 69 72  1  0
 70 67  1  0
 70 71  1  0
 71 69  2  0
 72 73  1  0
 73 74  2  0
 75 78  1  0
 75 74  1  0
 76 75  2  0
 77 76  1  0
 77 72  2  0
 78 79  1  0
 79 80  1  0
 80 81  2  0
 82 81  1  0
 82 86  1  0
 83 82  2  0
 84 79  2  0
 84 83  1  0
 85 84  1  0
 87 88  1  0
 88 91  1  0
 88 90  1  0
 89 87  2  0
 92 93  1  0
 92 67  1  0
 94 92  1  0
M  ISO  4  14 101  15 101  57 100  65 100
M  END
>  <TORSDO>  (25) 
F 20

>  <SCORE>  (25) 
-11.026

>  <name>  (25) 
25

>  <ligand_id>  (25) 
25

>  <original_smiles>  (25) 
[H]N=C([H])C1([H])C([H])([H])C([H])(C([H])([H])N([H])C(=O)N2C([H])([H])C([H])([H])C([H])([H])C([H])(n3nc(-c4c([H])c([H])c(Oc5c([H])c([H])c(F)c([H])c5F)c([H])c4[H])c(C(=O)N([H])[H])c3N([H])[H])C2([H])[H])[N+]([H])([H])C([H])([H])C1([H])C([H])([H])C([H])(Oc1c([H])c([H])c2c(c1[H])C([H])([H])N(C(=O)C([H])(N([H])C(=O)C([H])(N([H])C([H])([H])[H])C([H])([H])[H])C(C([H])([H])[H])(C([H])([H])[H])C([H])([H])[H])C([H])(C(=O)N([H])C1([H])c3c([H])c([H])c([H])c([H])c3C([H])([H])C([H])([H])C1([H])[H])C2([H])[H])C([H])([H])[H]

>  <smiles>  (25) 
[H]N=C([H])C1([H])C([H])([H])C([H])(C([H])([H])N([H])C(=O)N2C([H])([H])C([H])([H])C([H])([H])C([H])(n3nc(-c4c([H])c([H])c(Oc5c([H])c([H])c(F)c([H])c5F)c([H])c4[H])c(C(=O)N([H])[H])c3N([H])[H])C2([H])[H])[N+]([H])([H])C([H])([H])C1([H])C([H])([H])C([H])(Oc1c([H])c([H])c2c(c1[H])C([H])([H])N(C(=O)C([H])(N([H])C(=O)C([H])(N([H])C([H])([H])[H])C([H])([H])[H])C(C([H])([H])[H])(C([H])([H])[H])C([H])([H])[H])C([H])(C(=O)N([H])C1([H])c3c([H])c([H])c([H])c([H])c3C([H])([H])C([H])([H])C1([H])[H])C2([H])[H])C([H])([H])[H]

$$$$
26:0:0
     RDKit          3D

 90 97  0  0  1  0  0  0  0  0999 V2000
  -29.8970  -21.7290   20.2220 C   0  0  0  0  0  2  0  0  0  0  0  0
  -29.0180  -22.8380   20.8820 C   0  0  0  0  0  2  0  0  0  0  0  0
  -29.0610  -24.2190   20.1480 C   0  0  0  0  0  2  0  0  0  0  0  0
  -28.2340  -25.3510   20.8220 C   0  0  0  0  0  2  0  0  0  0  0  0
  -28.3820  -26.6520   20.1990 O   0  0  0  0  0  0  0  0  0  0  0  0
  -24.5900  -31.8910   23.2330 C   0  0  0  0  0  0  0  0  0  0  0  0
  -27.2380  -27.4280   20.1750 C   0  0  0  0  0  0  0  0  0  0  0  0
  -23.3920  -30.4900   21.5860 C   0  0  0  0  0  3  0  0  0  0  0  0
  -24.8520  -28.9550   20.1640 C   0  0  0  0  0  0  0  0  0  0  0  0
  -25.9200  -30.8450   21.3990 C   0  0  0  0  0  2  0  0  0  0  0  0
  -26.0090  -29.4740   20.7580 C   0  0  0  0  0  0  0  0  0  0  0  0
  -27.2090  -28.7200   20.7570 C   0  0  0  0  0  3  0  0  0  0  0  0
  -26.0670  -26.9350   19.5610 C   0  0  0  0  0  3  0  0  0  0  0  0
  -24.8760  -27.6850   19.5600 C   0  0  0  0  0  3  0  0  0  0  0  0
  -23.6070  -29.8130   20.2060 C   0  0  0  0  0  2  0  0  0  0  0  0
  -24.6520  -31.0910   22.1310 N   0  0  0  0  0  0  0  0  0  0  0  0
  -23.5060  -32.1640   23.7700 O   0  0  0  0  0  0  0  0  0  0  0  0
  -22.7360  -29.4690   22.5440 C   0  0  0  0  0  0  0  0  0  0  0  0
  -21.4120  -29.2880   22.4130 N   0  0  0  0  0  0  0  0  0  0  0  0
  -23.4160  -28.8430   23.3600 O   0  0  0  0  0  0  0  0  0  0  0  0
  -20.9250  -29.8420   21.7230 H   0  0  0  0  0  0  0  0  0  0  0  0
  -18.0350  -28.0970   22.9020 C   0  0  0  0  0  0  0  0  0  0  0  0
  -20.5920  -28.3510   23.1800 C   0  0  0  0  0  3  0  0  0  0  0  0
  -20.6950  -26.9200   22.6020 C   0  0  0  0  0  2  0  0  0  0  0  0
  -19.5940  -26.6000   21.5840 C   0  0  0  0  0  2  0  0  0  0  0  0
  -18.2110  -26.7480   22.2250 C   0  0  0  0  0  2  0  0  0  0  0  0
  -19.1530  -28.8560   23.3360 C   0  0  0  0  0  0  0  0  0  0  0  0
  -18.9350  -30.1180   23.9290 C   0  0  0  0  0  3  0  0  0  0  0  0
  -17.6320  -30.6230   24.0910 C   0  0  0  0  0  3  0  0  0  0  0  0
  -16.5270  -29.8610   23.6740 C   0  0  0  0  0  3  0  0  0  0  0  0
  -16.7300  -28.5990   23.0860 C   0  0  0  0  0  3  0  0  0  0  0  0
  -25.8740  -32.5220   23.8580 C   0  0  0  0  0  3  0  0  0  0  0  0
  -25.5650  -33.9220   24.1820 N   0  0  0  0  0  0  0  0  0  0  0  0
  -25.9030  -34.9710   23.4210 C   0  0  0  0  0  0  0  0  0  0  0  0
  -26.5810  -34.8640   22.3950 O   0  0  0  0  0  0  0  0  0  0  0  0
  -24.9640  -34.0780   24.9780 H   0  0  0  0  0  0  0  0  0  0  0  0
  -24.1820  -36.7650   23.0450 C   0  0  0  0  0  1  0  0  0  0  0  0
  -25.4140  -36.3610   23.8700 C   0  0  0  0  0  3  0  0  0  0  0  0
  -27.5420  -37.2420   24.7200 C   0  0  0  0  0  1  0  0  0  0  0  0
  -26.4490  -37.4110   23.7650 N   0  0  0  0  0  0  0  0  0  0  0  0
  -26.0440  -38.3330   23.9100 H   0  0  0  0  0  0  0  0  0  0  0  0
  -26.3860  -31.7540   25.1380 C   0  0  1  0  0  0  0  0  0  0  0  0
  -25.2880  -31.5190   26.2010 C   0  0  0  0  0  1  0  0  0  0  0  0
  -26.9680  -30.3740   24.7490 C   0  0  0  0  0  1  0  0  0  0  0  0
  -27.5360  -32.5470   25.8010 C   0  0  0  0  0  1  0  0  0  0  0  0
  -30.1990  -20.4410   21.0650 C   0  0  0  0  0  3  0  0  0  0  0  0
  -31.6010  -19.9250   20.7740 C   0  0  0  0  0  0  0  0  0  0  0  0
  -32.3440  -19.5860   21.6900 O   0  0  0  0  0  0  0  0  0  0  0  0
  -32.0400  -19.9140   19.5040 F   0  0  0  0  0  0  0  0  0  0  0  0
  -29.1190  -19.3070   20.9950 C   0  0  0  0  0  2  0  0  0  0  0  0
  -29.4570  -17.9060   20.3690 C   0  0  0  0  0  2  0  0  0  0  0  0
  -30.3020  -16.9140   21.2300 C   0  0  0  0  0  2  0  0  0  0  0  0
  -30.6670  -14.5020   20.4670 C   0  0  0  0  0  0  0  0  0  0  0  0
  -30.3980  -12.3420   19.2920 C   0  0  0  0  0  2  0  0  0  0  0  0
  -29.4650  -12.5470   18.0790 C   0  0  0  0  0  2  0  0  0  0  0  0
  -27.9850  -12.4080   18.4930 C   0  0  0  0  0  2  0  0  0  0  0  0
  -27.6370  -13.2420   19.7550 C   0  0  0  0  0  3  0  0  0  0  0  0
  -28.6770  -13.0030   20.8730 C   0  0  0  0  0  2  0  0  0  0  0  0
  -30.0080  -13.3200   20.3220 N   0  0  0  0  0  0  0  0  0  0  0  0
  -31.7970  -14.7030   20.0130 O   0  0  0  0  0  0  0  0  0  0  0  0
  -29.9380  -15.4960   21.0210 N   0  0  0  0  0  0  0  0  0  0  0  0
  -29.0230  -15.2190   21.3420 H   0  0  0  0  0  0  0  0  0  0  0  0
  -25.2280  -13.8610   20.4210 C   0  0  0  0  0  0  0  0  0  0  0  0
  -24.1550  -13.0940   20.7870 C   0  0  0  0  0  0  0  0  0  0  0  0
  -24.6180  -11.7420   20.7820 C   0  0  0  0  0  0  0  0  0  0  0  0
  -26.2760  -12.9760   20.2160 N   0  0  0  0  0  0  0  0  0  0  0  0
  -25.9110  -11.6980   20.4900 N   0  0  0  0  0  0  0  0  0  0  0  0
  -23.8910  -10.4820   20.9830 C   0  0  0  0  0  0  0  0  0  0  0  0
  -24.3130   -9.5280   21.9350 C   0  0  0  0  0  3  0  0  0  0  0  0
  -23.5870   -8.3320   22.1210 C   0  0  0  0  0  3  0  0  0  0  0  0
  -22.4230   -8.0830   21.3550 C   0  0  0  0  0  0  0  0  0  0  0  0
  -22.0190   -9.0260   20.3940 C   0  0  0  0  0  3  0  0  0  0  0  0
  -22.7460  -10.2130   20.2050 C   0  0  0  0  0  3  0  0  0  0  0  0
  -21.6670   -6.9400   21.4510 O   0  0  0  0  0  0  0  0  0  0  0  0
  -21.6120   -6.2080   22.6090 C   0  0  0  0  0  0  0  0  0  0  0  0
  -21.1780   -6.7760   23.8280 C   0  0  0  0  0  3  0  0  0  0  0  0
  -21.0680   -5.9710   24.9800 C   0  0  0  0  0  3  0  0  0  0  0  0
  -21.3810   -4.6000   24.9140 C   0  0  0  0  0  0  0  0  0  0  0  0
  -21.8080   -4.0320   23.7000 C   0  0  0  0  0  3  0  0  0  0  0  0
  -21.9190   -4.8340   22.5500 C   0  0  0  0  0  0  0  0  0  0  0  0
  -22.3110   -4.2780   21.3790 F   0  0  0  0  0  0  0  0  0  0  0  0
  -21.2690   -3.8240   26.0170 F   0  0  0  0  0  0  0  0  0  0  0  0
  -22.7540  -13.5740   21.0320 C   0  0  0  0  0  0  0  0  0  0  0  0
  -22.0130  -12.8910   21.8980 N   0  0  0  0  0  0  0  0  0  0  0  0
  -22.3230  -14.5910   20.4910 O   0  0  0  0  0  0  0  0  0  0  0  0
  -22.3740  -12.0720   22.3640 H   0  0  0  0  0  0  0  0  0  0  0  0
  -21.0710  -13.1950   22.0990 H   0  0  0  0  0  0  0  0  0  0  0  0
  -25.3940  -15.2290   20.2250 N   0  0  0  0  0  0  0  0  0  0  0  0
  -24.6230  -15.8820   20.3040 H   0  0  0  0  0  0  0  0  0  0  0  0
  -26.2450  -15.6640   19.8910 H   0  0  0  0  0  0  0  0  0  0  0  0
  1  2  1  0
  3  4  1  0
  3  2  1  0
  5  4  1  0
  6 17  2  0
  7  5  1  0
  7 12  1  0
  8 16  1  0
  8 18  1  0
  9 15  1  0
  9 11  1  0
 10 16  1  0
 11 10  1  0
 12 11  2  0
 13  7  2  0
 14 13  1  0
 14  9  2  0
 15  8  1  0
 16  6  1  0
 18 20  2  0
 19 18  1  0
 21 19  1  0
 22 31  2  0
 22 27  1  0
 23 19  1  0
 23 27  1  0
 24 23  1  0
 25 26  1  0
 25 24  1  0
 26 22  1  0
 27 28  2  0
 28 29  1  0
 30 29  2  0
 31 30  1  0
 32  6  1  0
 32 33  1  0
 32 42  1  0
 33 36  1  0
 34 38  1  0
 34 33  1  0
 35 34  2  0
 38 37  1  0
 40 38  1  0
 40 41  1  0
 40 39  1  0
 42 45  1  1
 42 43  1  0
 44 42  1  0
 46  1  1  0
 47 46  1  0
 47 48  2  0
 49 47  1  0
 50 46  1  0
 51 50  1  0
 51 52  1  0
 53 61  1  0
 54 59  1  0
 55 56  1  0
 55 54  1  0
 57 56  1  0
 57 66  1  0
 57 58  1  0
 59 53  1  0
 59 58  1  0
 60 53  2  0
 61 52  1  0
 61 62  1  0
 63 64  2  0
 64 83  1  0
 65 64  1  0
 65 68  1  0
 66 63  1  0
 66 67  1  0
 67 65  2  0
 68 69  1  0
 69 70  2  0
 71 74  1  0
 71 70  1  0
 72 71  2  0
 73 72  1  0
 73 68  2  0
 74 75  1  0
 75 76  1  0
 76 77  2  0
 78 77  1  0
 78 82  1  0
 79 78  2  0
 80 75  2  0
 80 79  1  0
 81 80  1  0
 83 84  1  0
 84 87  1  0
 84 86  1  0
 85 83  2  0
 88 89  1  0
 88 63  1  0
 90 88  1  0
M  ISO  4   4 101   5 101  53 100  61 100
M  END
>  <TORSDO>  (26) 
F 24

>  <SCORE>  (26) 
-12.383

>  <name>  (26) 
26

>  <ligand_id>  (26) 
26

>  <original_smiles>  (26) 
[H]c1c([H])c([H])c2c(c1[H])C([H])([H])C([H])([H])C([H])([H])C2([H])N([H])C(=O)C1([H])N(C(=O)C([H])(N([H])C(=O)C([H])(N([H])C([H])([H])[H])C([H])([H])[H])C(C([H])([H])[H])(C([H])([H])[H])C([H])([H])[H])C([H])([H])c2c([H])c(OC([H])([H])C([H])([H])C([H])([H])C([H])([H])C([H])(C(=O)F)C([H])([H])C([H])([H])C([H])([H])N([H])C(=O)N3C([H])([H])C([H])([H])C([H])([H])C([H])(n4nc(-c5c([H])c([H])c(Oc6c([H])c([H])c(F)c([H])c6F)c([H])c5[H])c(C(=O)N([H])[H])c4N([H])[H])C3([H])[H])c([H])c([H])c2C1([H])[H]

>  <smiles>  (26) 
[H]c1c([H])c([H])c2c(c1[H])C([H])([H])C([H])([H])C([H])([H])C2([H])N([H])C(=O)C1([H])N(C(=O)C([H])(N([H])C(=O)C([H])(N([H])C([H])([H])[H])C([H])([H])[H])C(C([H])([H])[H])(C([H])([H])[H])C([H])([H])[H])C([H])([H])c2c([H])c(OC([H])([H])C([H])([H])C([H])([H])C([H])([H])C([H])(C(=O)F)C([H])([H])C([H])([H])C([H])([H])N([H])C(=O)N3C([H])([H])C([H])([H])C([H])([H])C([H])(n4nc(-c5c([H])c([H])c(Oc6c([H])c([H])c(F)c([H])c6F)c([H])c5[H])c(C(=O)N([H])[H])c4N([H])[H])C3([H])[H])c([H])c([H])c2C1([H])[H]

$$$$
27:0:0
     RDKit          3D

 90 97  0  0  1  0  0  0  0  0999 V2000
  -29.0940  -21.7650   20.9230 N   0  0  0  0  0  4  0  0  0  0  0  0
  -28.3150  -21.7020   21.5590 H   0  0  0  0  0  0  0  0  0  0  0  0
  -29.9060  -22.0140   21.4650 H   0  0  0  0  0  0  0  0  0  0  0  0
  -28.8300  -22.8710   19.9570 C   0  0  0  0  0  2  0  0  0  0  0  0
  -28.5640  -24.2560   20.6340 C   0  0  0  0  0  2  0  0  0  0  0  0
  -28.6180  -25.4660   19.6590 C   0  0  0  0  0  2  0  0  0  0  0  0
  -28.4580  -26.7470   20.3070 O   0  0  0  0  0  0  0  0  0  0  0  0
  -24.6250  -31.9360   23.3370 C   0  0  0  0  0  0  0  0  0  0  0  0
  -27.2580  -27.4430   20.2860 C   0  0  0  0  0  0  0  0  0  0  0  0
  -23.4150  -30.5270   21.7050 C   0  0  0  0  0  3  0  0  0  0  0  0
  -24.8630  -28.9730   20.2920 C   0  0  0  0  0  0  0  0  0  0  0  0
  -25.9440  -30.8710   21.5040 C   0  0  0  0  0  2  0  0  0  0  0  0
  -26.0240  -29.4940   20.8750 C   0  0  0  0  0  0  0  0  0  0  0  0
  -27.2190  -28.7360   20.8680 C   0  0  0  0  0  3  0  0  0  0  0  0
  -26.0670  -26.9350   19.7130 C   0  0  0  0  0  3  0  0  0  0  0  0
  -24.8800  -27.6940   19.7110 C   0  0  0  0  0  3  0  0  0  0  0  0
  -23.6230  -29.8370   20.3300 C   0  0  0  0  0  2  0  0  0  0  0  0
  -24.6810  -31.1270   22.2410 N   0  0  0  0  0  0  0  0  0  0  0  0
  -23.5440  -32.2150   23.8750 O   0  0  0  0  0  0  0  0  0  0  0  0
  -22.7610  -29.5140   22.6730 C   0  0  0  0  0  0  0  0  0  0  0  0
  -21.4430  -29.3050   22.5200 N   0  0  0  0  0  0  0  0  0  0  0  0
  -23.4370  -28.9180   23.5150 O   0  0  0  0  0  0  0  0  0  0  0  0
  -20.9580  -29.8380   21.8130 H   0  0  0  0  0  0  0  0  0  0  0  0
  -18.0890  -28.0280   22.9360 C   0  0  0  0  0  0  0  0  0  0  0  0
  -20.6270  -28.3680   23.2920 C   0  0  0  0  0  3  0  0  0  0  0  0
  -20.7900  -26.9240   22.7650 C   0  0  0  0  0  2  0  0  0  0  0  0
  -19.7360  -26.5380   21.7230 C   0  0  0  0  0  2  0  0  0  0  0  0
  -18.3270  -26.6630   22.3120 C   0  0  0  0  0  2  0  0  0  0  0  0
  -19.1690  -28.8350   23.3820 C   0  0  0  0  0  0  0  0  0  0  0  0
  -18.8940  -30.1100   23.9210 C   0  0  0  0  0  3  0  0  0  0  0  0
  -17.5720  -30.5790   24.0240 C   0  0  0  0  0  3  0  0  0  0  0  0
  -16.5050  -29.7690   23.5970 C   0  0  0  0  0  3  0  0  0  0  0  0
  -16.7640  -28.4960   23.0580 C   0  0  0  0  0  3  0  0  0  0  0  0
  -25.9130  -32.5670   23.9530 C   0  0  0  0  0  3  0  0  0  0  0  0
  -26.4180  -31.8150   25.2440 C   0  0  1  0  0  0  0  0  0  0  0  0
  -25.3160  -31.5880   26.3040 C   0  0  0  0  0  1  0  0  0  0  0  0
  -27.0080  -30.4340   24.8740 C   0  0  0  0  0  1  0  0  0  0  0  0
  -27.5590  -32.6210   25.9080 C   0  0  0  0  0  1  0  0  0  0  0  0
  -25.6140  -33.9740   24.2560 N   0  0  0  0  0  0  0  0  0  0  0  0
  -25.9590  -35.0080   23.4780 C   0  0  0  0  0  0  0  0  0  0  0  0
  -26.6330  -34.8800   22.4510 O   0  0  0  0  0  0  0  0  0  0  0  0
  -25.0160  -34.1490   25.0500 H   0  0  0  0  0  0  0  0  0  0  0  0
  -24.2460  -36.8070   23.0810 C   0  0  0  0  0  1  0  0  0  0  0  0
  -25.4810  -36.4090   23.9060 C   0  0  0  0  0  3  0  0  0  0  0  0
  -27.6130  -37.2980   24.7350 C   0  0  0  0  0  1  0  0  0  0  0  0
  -26.5220  -37.4510   23.7770 N   0  0  0  0  0  0  0  0  0  0  0  0
  -26.1220  -38.3780   23.8990 H   0  0  0  0  0  0  0  0  0  0  0  0
  -29.3260  -20.4070   20.3390 C   0  0  0  0  0  2  0  0  0  0  0  0
  -31.4360  -19.6600   21.6050 C   0  0  0  0  0  1  0  0  0  0  0  0
  -29.9330  -19.4080   21.3780 C   0  0  0  0  0  3  0  0  0  0  0  0
  -29.6070  -17.8870   21.1710 C   0  0  0  0  0  2  0  0  0  0  0  0
  -30.6770  -16.9590   20.5210 C   0  0  0  0  0  2  0  0  0  0  0  0
  -30.9940  -14.4980   20.0800 C   0  0  0  0  0  0  0  0  0  0  0  0
  -30.6670  -12.3080   18.9900 C   0  0  0  0  0  2  0  0  0  0  0  0
  -29.6970  -12.4950   17.8030 C   0  0  0  0  0  2  0  0  0  0  0  0
  -28.2310  -12.3830   18.2690 C   0  0  0  0  0  2  0  0  0  0  0  0
  -27.9340  -13.2490   19.5230 C   0  0  0  0  0  3  0  0  0  0  0  0
  -29.0110  -13.0340   20.6110 C   0  0  0  0  0  2  0  0  0  0  0  0
  -30.3220  -13.3160   20.0050 N   0  0  0  0  0  0  0  0  0  0  0  0
  -32.1160  -14.6650   19.5930 O   0  0  0  0  0  0  0  0  0  0  0  0
  -30.2840  -15.5360   20.5660 N   0  0  0  0  0  0  0  0  0  0  0  0
  -29.3670  -15.3190   20.9250 H   0  0  0  0  0  0  0  0  0  0  0  0
  -25.5680  -13.9090   20.2930 C   0  0  0  0  0  0  0  0  0  0  0  0
  -24.4940  -13.1590   20.6930 C   0  0  0  0  0  0  0  0  0  0  0  0
  -24.9260  -11.7980   20.6540 C   0  0  0  0  0  0  0  0  0  0  0  0
  -26.5880  -13.0040   20.0380 N   0  0  0  0  0  0  0  0  0  0  0  0
  -26.2060  -11.7310   20.3110 N   0  0  0  0  0  0  0  0  0  0  0  0
  -24.1800  -10.5520   20.8670 C   0  0  0  0  0  0  0  0  0  0  0  0
  -24.5780   -9.6100   21.8420 C   0  0  0  0  0  3  0  0  0  0  0  0
  -23.8330   -8.4270   22.0400 C   0  0  0  0  0  3  0  0  0  0  0  0
  -22.6770   -8.1780   21.2630 C   0  0  0  0  0  0  0  0  0  0  0  0
  -22.2990   -9.1070   20.2780 C   0  0  0  0  0  3  0  0  0  0  0  0
  -23.0450  -10.2820   20.0790 C   0  0  0  0  0  3  0  0  0  0  0  0
  -21.9070   -7.0450   21.3690 O   0  0  0  0  0  0  0  0  0  0  0  0
  -21.7700   -6.3760   22.5580 C   0  0  0  0  0  0  0  0  0  0  0  0
  -21.2320   -6.9980   23.7060 C   0  0  0  0  0  3  0  0  0  0  0  0
  -21.0450   -6.2540   24.8870 C   0  0  0  0  0  3  0  0  0  0  0  0
  -21.3850   -4.8890   24.9230 C   0  0  0  0  0  0  0  0  0  0  0  0
  -21.9150   -4.2660   23.7790 C   0  0  0  0  0  3  0  0  0  0  0  0
  -22.1040   -5.0070   22.5990 C   0  0  0  0  0  0  0  0  0  0  0  0
  -22.5960   -4.3970   21.4940 F   0  0  0  0  0  0  0  0  0  0  0  0
  -21.1980   -4.1710   26.0550 F   0  0  0  0  0  0  0  0  0  0  0  0
  -23.1160  -13.6650   21.0030 C   0  0  0  0  0  0  0  0  0  0  0  0
  -22.3970  -12.9850   21.8900 N   0  0  0  0  0  0  0  0  0  0  0  0
  -22.6850  -14.6990   20.4930 O   0  0  0  0  0  0  0  0  0  0  0  0
  -22.7600  -12.1490   22.3240 H   0  0  0  0  0  0  0  0  0  0  0  0
  -21.4710  -13.3050   22.1380 H   0  0  0  0  0  0  0  0  0  0  0  0
  -25.7570  -15.2740   20.1080 N   0  0  0  0  0  0  0  0  0  0  0  0
  -25.0040  -15.9430   20.2280 H   0  0  0  0  0  0  0  0  0  0  0  0
  -26.6020  -15.6930   19.7390 H   0  0  0  0  0  0  0  0  0  0  0  0
  1  3  1  0
  1  2  1  0
  4  5  1  0
  4  1  1  0
  6  7  1  0
  6  5  1  0
  8 19  2  0
  9  7  1  0
  9 14  1  0
 10 18  1  0
 10 20  1  0
 11 17  1  0
 11 13  1  0
 12 18  1  0
 13 12  1  0
 14 13  2  0
 15  9  2  0
 16 15  1  0
 16 11  2  0
 17 10  1  0
 18  8  1  0
 20 22  2  0
 21 20  1  0
 23 21  1  0
 24 33  2  0
 24 29  1  0
 25 21  1  0
 25 29  1  0
 26 25  1  0
 27 28  1  0
 27 26  1  0
 28 24  1  0
 29 30  2  0
 30 31  1  0
 32 31  2  0
 33 32  1  0
 34  8  1  0
 34 39  1  0
 34 35  1  0
 35 38  1  1
 35 36  1  0
 37 35  1  0
 39 42  1  0
 40 44  1  0
 40 39  1  0
 41 40  2  0
 44 43  1  0
 46 47  1  0
 46 44  1  0
 46 45  1  0
 48  1  1  0
 48 50  1  0
 50 49  1  0
 51 50  1  0
 52 61  1  0
 52 51  1  0
 53 61  1  0
 54 59  1  0
 55 56  1  0
 55 54  1  0
 57 56  1  0
 57 66  1  0
 57 58  1  0
 59 53  1  0
 59 58  1  0
 60 53  2  0
 61 62  1  0
 63 64  2  0
 64 83  1  0
 65 64  1  0
 65 68  1  0
 66 63  1  0
 66 67  1  0
 67 65  2  0
 68 69  1  0
 69 70  2  0
 71 74  1  0
 71 70  1  0
 72 71  2  0
 73 72  1  0
 73 68  2  0
 74 75  1  0
 75 80  2  0
 75 76  1  0
 76 77  2  0
 77 78  1  0
 78 82  1  0
 79 78  2  0
 80 79  1  0
 81 80  1  0
 83 84  1  0
 84 87  1  0
 84 86  1  0
 85 83  2  0
 88 89  1  0
 88 63  1  0
 90 88  1  0
M  ISO  4   6 101   7 101  53 100  61 100
M  END
>  <TORSDO>  (27) 
F 23

>  <SCORE>  (27) 
-12.274

>  <name>  (27) 
27

>  <ligand_id>  (27) 
27

>  <original_smiles>  (27) 
[H]c1c([H])c([H])c2c(c1[H])C([H])([H])C([H])([H])C([H])([H])C2([H])N([H])C(=O)C1([H])N(C(=O)C([H])(N([H])C(=O)C([H])(N([H])C([H])([H])[H])C([H])([H])[H])C(C([H])([H])[H])(C([H])([H])[H])C([H])([H])[H])C([H])([H])c2c([H])c(OC([H])([H])C([H])([H])C([H])([H])[N+]([H])([H])C([H])([H])C([H])(C([H])([H])[H])C([H])([H])C([H])([H])N([H])C(=O)N3C([H])([H])C([H])([H])C([H])([H])C([H])(n4nc(-c5c([H])c([H])c(Oc6c([H])c([H])c(F)c([H])c6F)c([H])c5[H])c(C(=O)N([H])[H])c4N([H])[H])C3([H])[H])c([H])c([H])c2C1([H])[H]

>  <smiles>  (27) 
[H]c1c([H])c([H])c2c(c1[H])C([H])([H])C([H])([H])C([H])([H])C2([H])N([H])C(=O)C1([H])N(C(=O)C([H])(N([H])C(=O)C([H])(N([H])C([H])([H])[H])C([H])([H])[H])C(C([H])([H])[H])(C([H])([H])[H])C([H])([H])[H])C([H])([H])c2c([H])c(OC([H])([H])C([H])([H])C([H])([H])[N+]([H])([H])C([H])([H])C([H])(C([H])([H])[H])C([H])([H])C([H])([H])N([H])C(=O)N3C([H])([H])C([H])([H])C([H])([H])C([H])(n4nc(-c5c([H])c([H])c(Oc6c([H])c([H])c(F)c([H])c6F)c([H])c5[H])c(C(=O)N([H])[H])c4N([H])[H])C3([H])[H])c([H])c([H])c2C1([H])[H]

$$$$
28:0:0
     RDKit          3D

 94102  0  0  1  0  0  0  0  0999 V2000
  -39.0330  -24.1450   12.8670 C   0  0  0  0  0  0  0  0  0  0  0  0
  -39.1350  -22.9900   12.0240 N   0  0  0  0  0  0  0  0  0  0  0  0
  -38.2910  -25.0410   12.4660 O   0  0  0  0  0  0  0  0  0  0  0  0
  -39.7630  -22.2750   12.3680 H   0  0  0  0  0  0  0  0  0  0  0  0
  -42.3190  -27.0270   16.3630 C   0  0  0  0  0  0  0  0  0  0  0  0
  -44.2170  -27.4130   18.0290 C   0  0  0  0  0  2  0  0  0  0  0  0
  -44.9540  -26.0930   18.3620 C   0  0  0  0  0  2  0  0  0  0  0  0
  -44.2340  -25.3320   19.4930 C   0  0  0  0  0  2  0  0  0  0  0  0
  -42.6950  -25.2920   19.2890 C   0  0  0  0  0  3  0  0  0  0  0  0
  -42.1230  -26.6760   18.9200 C   0  0  0  0  0  2  0  0  0  0  0  0
  -42.7970  -27.0820   17.6810 N   0  0  0  0  0  0  0  0  0  0  0  0
  -42.9900  -27.6630   15.5340 O   0  0  0  0  0  0  0  0  0  0  0  0
  -41.1160  -25.3930   14.5170 C   0  0  0  0  0  2  0  0  0  0  0  0
  -40.0010  -25.8070   16.4960 C   0  0  0  0  0  2  0  0  0  0  0  0
  -39.7580  -24.4550   14.3520 C   0  0  0  0  0  3  0  0  0  0  0  0
  -38.9550  -25.3070   15.4050 C   0  0  0  0  0  3  0  0  0  0  0  0
  -41.3270  -26.0760   15.9030 N   0  0  0  0  0  0  0  0  0  0  0  0
  -42.3500  -24.7500   21.7650 C   0  0  0  0  0  0  0  0  0  0  0  0
  -41.3450  -24.1130   22.4360 C   0  0  0  0  0  0  0  0  0  0  0  0
  -40.4100  -23.6920   21.4430 C   0  0  0  0  0  0  0  0  0  0  0  0
  -42.0020  -24.6990   20.4260 N   0  0  0  0  0  0  0  0  0  0  0  0
  -40.8530  -24.0020   20.2310 N   0  0  0  0  0  0  0  0  0  0  0  0
  -39.0880  -23.0660   21.5830 C   0  0  0  0  0  0  0  0  0  0  0  0
  -38.1910  -23.4530   22.6040 C   0  0  0  0  0  3  0  0  0  0  0  0
  -36.9170  -22.8510   22.7030 C   0  0  0  0  0  3  0  0  0  0  0  0
  -36.5290  -21.8530   21.7770 C   0  0  0  0  0  0  0  0  0  0  0  0
  -37.4340  -21.4550   20.7770 C   0  0  0  0  0  3  0  0  0  0  0  0
  -38.7020  -22.0520   20.6830 C   0  0  0  0  0  3  0  0  0  0  0  0
  -35.3260  -21.1900   21.8170 O   0  0  0  0  0  0  0  0  0  0  0  0
  -34.7340  -20.7050   20.6790 C   0  0  0  0  0  0  0  0  0  0  0  0
  -34.5430  -19.3210   20.4710 C   0  0  0  0  0  3  0  0  0  0  0  0
  -33.8670  -18.8700   19.3180 C   0  0  0  0  0  3  0  0  0  0  0  0
  -33.3790  -19.7990   18.3800 C   0  0  0  0  0  0  0  0  0  0  0  0
  -33.5670  -21.1770   18.5880 C   0  0  0  0  0  3  0  0  0  0  0  0
  -34.2390  -21.6270   19.7370 C   0  0  0  0  0  0  0  0  0  0  0  0
  -34.3990  -22.9570   19.9450 F   0  0  0  0  0  0  0  0  0  0  0  0
  -32.7250  -19.3690   17.2770 F   0  0  0  0  0  0  0  0  0  0  0  0
  -41.2110  -23.9920   23.9250 C   0  0  0  0  0  0  0  0  0  0  0  0
  -41.7860  -22.9460   24.5100 N   0  0  0  0  0  0  0  0  0  0  0  0
  -40.6380  -24.8550   24.5890 O   0  0  0  0  0  0  0  0  0  0  0  0
  -42.2800  -22.2500   23.9700 H   0  0  0  0  0  0  0  0  0  0  0  0
  -41.7380  -22.8430   25.5130 H   0  0  0  0  0  0  0  0  0  0  0  0
  -43.5120  -25.3920   22.1800 N   0  0  0  0  0  0  0  0  0  0  0  0
  -43.7420  -25.4890   23.1620 H   0  0  0  0  0  0  0  0  0  0  0  0
  -44.1340  -25.9080   21.5720 H   0  0  0  0  0  0  0  0  0  0  0  0
  -37.9140  -23.3850   16.7950 C   0  0  0  0  0  1  0  0  0  0  0  0
  -37.6360  -24.6930   16.0110 C   0  0  0  0  0  3  0  0  0  0  0  0
  -36.8980  -25.7010   16.9440 C   0  0  0  0  0  2  0  0  0  0  0  0
  -35.7470  -26.5410   16.3400 C   0  0  0  0  0  2  0  0  0  0  0  0
  -33.1980  -26.6120   16.4900 C   0  0  0  0  0  1  0  0  0  0  0  0
  -34.5240  -26.7140   17.2560 C   0  0  0  0  0  2  0  0  0  0  0  0
  -38.3980  -22.6160   10.6500 C   0  0  0  0  0  2  0  0  0  0  0  0
  -37.1810  -23.4950    9.8310 C   0  0  0  0  0  2  0  0  0  0  0  0
  -37.2660  -24.9200    9.1530 O   0  0  0  0  0  0  0  0  0  0  0  0
  -41.2620  -31.0930    9.8350 C   0  0  0  0  0  0  0  0  0  0  0  0
  -38.5120  -25.6350    8.9490 C   0  0  0  0  0  0  0  0  0  0  0  0
  -41.8470  -29.5390    8.0140 C   0  0  0  0  0  3  0  0  0  0  0  0
  -40.8770  -27.1640    8.1890 C   0  0  0  0  0  0  0  0  0  0  0  0
  -40.8350  -28.6310   10.1990 C   0  0  0  0  0  2  0  0  0  0  0  0
  -40.2380  -27.4550    9.4000 C   0  0  0  0  0  0  0  0  0  0  0  0
  -39.0780  -26.6810    9.7920 C   0  0  0  0  0  3  0  0  0  0  0  0
  -39.2660  -25.3580    7.7900 C   0  0  0  0  0  3  0  0  0  0  0  0
  -40.4050  -26.1000    7.4050 C   0  0  0  0  0  3  0  0  0  0  0  0
  -42.0600  -28.0230    7.7640 C   0  0  0  0  0  2  0  0  0  0  0  0
  -41.2910  -29.8030    9.3800 N   0  0  0  0  0  0  0  0  0  0  0  0
  -41.6980  -32.0320    9.1500 O   0  0  0  0  0  0  0  0  0  0  0  0
  -40.9800  -30.1320    6.8760 C   0  0  0  0  0  0  0  0  0  0  0  0
  -41.5520  -31.0560    6.0830 N   0  0  0  0  0  0  0  0  0  0  0  0
  -39.8210  -29.7450    6.7070 O   0  0  0  0  0  0  0  0  0  0  0  0
  -42.5020  -31.3340    6.2870 H   0  0  0  0  0  0  0  0  0  0  0  0
  -41.1890  -34.1990    4.3180 C   0  0  0  0  0  0  0  0  0  0  0  0
  -40.9280  -31.6990    4.9250 C   0  0  0  0  0  3  0  0  0  0  0  0
  -41.7220  -31.4090    3.6300 C   0  0  0  0  0  2  0  0  0  0  0  0
  -42.7570  -32.4920    3.3040 C   0  0  0  0  0  2  0  0  0  0  0  0
  -42.0750  -33.8540    3.1340 C   0  0  0  0  0  2  0  0  0  0  0  0
  -40.6620  -33.1900    5.1690 C   0  0  0  0  0  0  0  0  0  0  0  0
  -39.8710  -33.5700    6.2730 C   0  0  0  0  0  3  0  0  0  0  0  0
  -39.6000  -34.9280    6.5320 C   0  0  0  0  0  3  0  0  0  0  0  0
  -40.1120  -35.9210    5.6800 C   0  0  0  0  0  3  0  0  0  0  0  0
  -40.9020  -35.5580    4.5760 C   0  0  0  0  0  3  0  0  0  0  0  0
  -40.6990  -31.4490   11.2450 C   0  0  0  0  0  3  0  0  0  0  0  0
  -41.4920  -32.5700   11.7740 N   0  0  0  0  0  0  0  0  0  0  0  0
  -42.2960  -32.5010   12.8420 C   0  0  0  0  0  0  0  0  0  0  0  0
  -42.4020  -31.4840   13.5340 O   0  0  0  0  0  0  0  0  0  0  0  0
  -41.5000  -33.4160   11.2230 H   0  0  0  0  0  0  0  0  0  0  0  0
  -44.5400  -33.6270   12.6500 C   0  0  0  0  0  1  0  0  0  0  0  0
  -43.1140  -33.7570   13.2060 C   0  0  0  0  0  3  0  0  0  0  0  0
  -41.9550  -34.6260   15.1870 C   0  0  0  0  0  1  0  0  0  0  0  0
  -43.1750  -34.0220   14.6590 N   0  0  0  0  0  0  0  0  0  0  0  0
  -43.9540  -34.6360   14.8800 H   0  0  0  0  0  0  0  0  0  0  0  0
  -39.1660  -31.8260   11.2220 C   0  0  1  0  0  0  0  0  0  0  0  0
  -38.8820  -33.2480   10.6830 C   0  0  0  0  0  1  0  0  0  0  0  0
  -38.3640  -30.8280   10.3560 C   0  0  0  0  0  1  0  0  0  0  0  0
  -38.5820  -31.7290   12.6500 C   0  0  0  0  0  1  0  0  0  0  0  0
  2  4  1  0
  2  1  1  0
  3  1  2  0
  5 11  1  0
  6  7  1  0
  7  8  1  0
  9 10  1  0
  9  8  1  0
  9 21  1  0
 11  6  1  0
 11 10  1  0
 12  5  2  0
 13 17  1  0
 15  1  1  0
 15 13  1  0
 15 16  1  0
 16 47  1  0
 16 14  1  0
 17  5  1  0
 17 14  1  0
 18 43  1  0
 18 19  2  0
 19 38  1  0
 20 23  1  0
 20 19  1  0
 21 18  1  0
 22 21  1  0
 22 20  2  0
 23 24  1  0
 24 25  2  0
 26 29  1  0
 26 25  1  0
 27 26  2  0
 28 27  1  0
 28 23  2  0
 30 29  1  0
 31 30  1  0
 32 31  2  0
 33 34  2  0
 33 32  1  0
 34 35  1  0
 35 36  1  0
 35 30  2  0
 37 33  1  0
 38 39  1  0
 38 40  2  0
 39 42  1  0
 41 39  1  0
 43 44  1  0
 45 43  1  0
 47 46  1  0
 47 48  1  0
 49 48  1  0
 49 51  1  0
 50 51  1  0
 52  2  1  0
 53 52  1  0
 54 53  1  0
 56 54  1  0
 56 61  1  0
 57 67  1  0
 57 65  1  0
 58 60  1  0
 60 61  2  0
 60 59  1  0
 62 56  2  0
 63 62  1  0
 63 58  2  0
 64 57  1  0
 64 58  1  0
 65 55  1  0
 65 59  1  0
 66 55  2  0
 68 70  1  0
 68 67  1  0
 69 67  2  0
 71 80  2  0
 71 76  1  0
 72 76  1  0
 72 68  1  0
 73 72  1  0
 74 73  1  0
 75 74  1  0
 75 71  1  0
 76 77  2  0
 77 78  1  0
 79 78  2  0
 80 79  1  0
 81 55  1  0
 81 82  1  0
 82 83  1  0
 83 87  1  0
 83 84  2  0
 85 82  1  0
 87 86  1  0
 87 89  1  0
 89 90  1  0
 89 88  1  0
 91 81  1  0
 91 94  1  1
 92 91  1  0
 93 91  1  0
M  ISO  4   5 100  17 100  53 101  54 101
M  END
>  <TORSDO>  (28) 
F 22

>  <SCORE>  (28) 
-1.261

>  <name>  (28) 
28

>  <ligand_id>  (28) 
28

>  <original_smiles>  (28) 
[H]c1c([H])c([H])c2c(c1[H])C([H])([H])C([H])([H])C([H])([H])C2([H])N([H])C(=O)C1([H])N(C(=O)C([H])(N([H])C(=O)C([H])(N([H])C([H])([H])[H])C([H])([H])[H])C(C([H])([H])[H])(C([H])([H])[H])C([H])([H])[H])C([H])([H])c2c([H])c(OC([H])([H])C([H])([H])N([H])C(=O)C3([H])C([H])([H])N(C(=O)N4C([H])([H])C([H])([H])C([H])([H])C([H])(n5nc(-c6c([H])c([H])c(Oc7c([H])c([H])c(F)c([H])c7F)c([H])c6[H])c(C(=O)N([H])[H])c5N([H])[H])C4([H])[H])C([H])([H])C3([H])C([H])(C([H])([H])[H])C([H])([H])C([H])([H])C([H])([H])C([H])([H])[H])c([H])c([H])c2C1([H])[H]

>  <smiles>  (28) 
[H]c1c([H])c([H])c2c(c1[H])C([H])([H])C([H])([H])C([H])([H])C2([H])N([H])C(=O)C1([H])N(C(=O)C([H])(N([H])C(=O)C([H])(N([H])C([H])([H])[H])C([H])([H])[H])C(C([H])([H])[H])(C([H])([H])[H])C([H])([H])[H])C([H])([H])c2c([H])c(OC([H])([H])C([H])([H])N([H])C(=O)C3([H])C([H])([H])N(C(=O)N4C([H])([H])C([H])([H])C([H])([H])C([H])(n5nc(-c6c([H])c([H])c(Oc7c([H])c([H])c(F)c([H])c7F)c([H])c6[H])c(C(=O)N([H])[H])c5N([H])[H])C4([H])[H])C([H])([H])C3([H])C([H])(C([H])([H])[H])C([H])([H])C([H])([H])C([H])([H])C([H])([H])[H])c([H])c([H])c2C1([H])[H]

$$$$
29:0:0
     RDKit          3D

 91 99  0  0  1  0  0  0  0  0999 V2000
  -29.4250  -19.2960   21.2660 C   0  0  0  0  0  2  0  0  0  0  0  0
  -30.5630  -19.8970   19.1930 C   0  0  0  0  0  2  0  0  0  0  0  0
  -28.4870  -20.5350   21.1460 C   0  0  0  0  0  2  0  0  0  0  0  0
  -29.7170  -21.2000   19.0250 C   0  0  0  0  0  2  0  0  0  0  0  0
  -29.8350  -18.7160   19.9030 C   0  0  0  0  0  3  0  0  0  0  0  0
  -28.9050  -21.6370   20.2090 N   0  0  2  0  0  4  0  0  0  0  0  0
  -28.0190  -21.8500   19.7750 H   0  0  0  0  0  0  0  0  0  0  0  0
  -30.1530  -16.1030   20.0730 C   0  0  0  0  0  3  0  0  0  0  0  0
  -30.6450  -17.3790   19.9770 C   0  0  0  0  0  0  0  0  0  0  0  0
  -30.9750  -14.8660   19.9510 C   0  0  0  0  0  0  0  0  0  0  0  0
  -30.6700  -12.6160   18.9930 C   0  0  0  0  0  2  0  0  0  0  0  0
  -29.6850  -12.7310   17.8080 C   0  0  0  0  0  2  0  0  0  0  0  0
  -28.2250  -12.6090   18.2900 C   0  0  0  0  0  2  0  0  0  0  0  0
  -27.9240  -13.4970   19.5230 C   0  0  0  0  0  3  0  0  0  0  0  0
  -29.0220  -13.3730   20.5990 C   0  0  0  0  0  2  0  0  0  0  0  0
  -30.3160  -13.6660   19.9660 N   0  0  0  0  0  0  0  0  0  0  0  0
  -32.1590  -14.9200   19.6010 O   0  0  0  0  0  0  0  0  0  0  0  0
  -25.5910  -14.1450   20.3860 C   0  0  0  0  0  0  0  0  0  0  0  0
  -24.5250  -13.3930   20.7980 C   0  0  0  0  0  0  0  0  0  0  0  0
  -24.9500  -12.0300   20.7130 C   0  0  0  0  0  0  0  0  0  0  0  0
  -26.5950  -13.2430   20.0710 N   0  0  0  0  0  0  0  0  0  0  0  0
  -26.2190  -11.9650   20.3290 N   0  0  0  0  0  0  0  0  0  0  0  0
  -24.2050  -10.7830   20.9140 C   0  0  0  0  0  0  0  0  0  0  0  0
  -24.6190   -9.8200   21.8610 C   0  0  0  0  0  3  0  0  0  0  0  0
  -23.8760   -8.6350   22.0500 C   0  0  0  0  0  3  0  0  0  0  0  0
  -22.7050   -8.4040   21.2900 C   0  0  0  0  0  0  0  0  0  0  0  0
  -22.3110   -9.3540   20.3310 C   0  0  0  0  0  3  0  0  0  0  0  0
  -23.0540  -10.5310   20.1420 C   0  0  0  0  0  3  0  0  0  0  0  0
  -21.9340   -7.2710   21.3850 O   0  0  0  0  0  0  0  0  0  0  0  0
  -21.8250   -6.5700   22.5600 C   0  0  0  0  0  0  0  0  0  0  0  0
  -21.2770   -7.1510   23.7260 C   0  0  0  0  0  3  0  0  0  0  0  0
  -21.1200   -6.3740   24.8910 C   0  0  0  0  0  3  0  0  0  0  0  0
  -21.4980   -5.0180   24.8910 C   0  0  0  0  0  0  0  0  0  0  0  0
  -22.0350   -4.4360   23.7280 C   0  0  0  0  0  3  0  0  0  0  0  0
  -22.1970   -5.2120   22.5660 C   0  0  0  0  0  0  0  0  0  0  0  0
  -22.6960   -4.6400   21.4430 F   0  0  0  0  0  0  0  0  0  0  0  0
  -21.3390   -4.2720   26.0090 F   0  0  0  0  0  0  0  0  0  0  0  0
  -23.1540  -13.9000   21.1480 C   0  0  0  0  0  0  0  0  0  0  0  0
  -22.4490  -13.2050   22.0340 N   0  0  0  0  0  0  0  0  0  0  0  0
  -22.7170  -14.9440   20.6670 O   0  0  0  0  0  0  0  0  0  0  0  0
  -22.8200  -12.3670   22.4560 H   0  0  0  0  0  0  0  0  0  0  0  0
  -21.5290  -13.5240   22.3030 H   0  0  0  0  0  0  0  0  0  0  0  0
  -25.7870  -15.5150   20.2300 N   0  0  0  0  0  0  0  0  0  0  0  0
  -25.0540  -16.1830   20.4340 H   0  0  0  0  0  0  0  0  0  0  0  0
  -26.6100  -15.9350   19.8150 H   0  0  0  0  0  0  0  0  0  0  0  0
  -31.9580  -17.6470   19.8580 O   0  0  0  0  0  0  0  0  0  0  0  0
  -32.4140  -16.8090   19.8640 H   0  0  0  0  0  0  0  0  0  0  0  0
  -29.2250  -22.9740   20.8520 C   0  0  0  0  0  2  0  0  0  0  0  0
  -28.9080  -24.2870   20.0250 C   0  0  0  0  0  2  0  0  0  0  0  0
  -28.6960  -25.5800   20.9050 C   0  0  0  0  0  2  0  0  0  0  0  0
  -28.7010  -26.8830   20.2500 O   0  0  0  0  0  0  0  0  0  0  0  0
  -24.6140  -31.9580   23.2790 C   0  0  0  0  0  0  0  0  0  0  0  0
  -27.5220  -27.6120   20.2510 C   0  0  0  0  0  0  0  0  0  0  0  0
  -23.5210  -30.5470   21.5660 C   0  0  0  0  0  3  0  0  0  0  0  0
  -25.0850  -29.0740   20.1770 C   0  0  0  0  0  0  0  0  0  0  0  0
  -26.0440  -30.9800   21.4800 C   0  0  0  0  0  2  0  0  0  0  0  0
  -26.2040  -29.6200   20.8200 C   0  0  0  0  0  0  0  0  0  0  0  0
  -27.4270  -28.9000   20.8470 C   0  0  0  0  0  3  0  0  0  0  0  0
  -26.3840  -27.0900   19.6030 C   0  0  0  0  0  3  0  0  0  0  0  0
  -25.1730  -27.8110   19.5620 C   0  0  0  0  0  3  0  0  0  0  0  0
  -23.8130  -29.8940   20.1870 C   0  0  0  0  0  2  0  0  0  0  0  0
  -24.7410  -31.1780   22.1670 N   0  0  0  0  0  0  0  0  0  0  0  0
  -23.5040  -32.1840   23.7790 O   0  0  0  0  0  0  0  0  0  0  0  0
  -22.8650  -29.4910   22.4840 C   0  0  0  0  0  0  0  0  0  0  0  0
  -21.5430  -29.3040   22.3350 N   0  0  0  0  0  0  0  0  0  0  0  0
  -23.5420  -28.8420   23.2860 O   0  0  0  0  0  0  0  0  0  0  0  0
  -21.0560  -29.8780   21.6620 H   0  0  0  0  0  0  0  0  0  0  0  0
  -18.1610  -28.1150   22.8090 C   0  0  0  0  0  0  0  0  0  0  0  0
  -20.7260  -28.3300   23.0600 C   0  0  0  0  0  3  0  0  0  0  0  0
  -20.8030  -26.9330   22.4000 C   0  0  0  0  0  2  0  0  0  0  0  0
  -19.6860  -26.6820   21.3830 C   0  0  0  0  0  2  0  0  0  0  0  0
  -18.3130  -26.8060   22.0520 C   0  0  0  0  0  2  0  0  0  0  0  0
  -19.2940  -28.8380   23.2670 C   0  0  0  0  0  0  0  0  0  0  0  0
  -19.0990  -30.0670   23.9330 C   0  0  0  0  0  3  0  0  0  0  0  0
  -17.8020  -30.5750   24.1420 C   0  0  0  0  0  3  0  0  0  0  0  0
  -16.6840  -29.8470   23.7030 C   0  0  0  0  0  3  0  0  0  0  0  0
  -16.8640  -28.6180   23.0420 C   0  0  0  0  0  3  0  0  0  0  0  0
  -25.8520  -32.6200   23.9620 C   0  0  0  0  0  3  0  0  0  0  0  0
  -25.5140  -34.0230   24.2290 N   0  0  0  0  0  0  0  0  0  0  0  0
  -25.8760  -35.0550   23.4540 C   0  0  0  0  0  0  0  0  0  0  0  0
  -26.6000  -34.9250   22.4620 O   0  0  0  0  0  0  0  0  0  0  0  0
  -24.8770  -34.1970   24.9940 H   0  0  0  0  0  0  0  0  0  0  0  0
  -24.1610  -36.8190   22.9390 C   0  0  0  0  0  1  0  0  0  0  0  0
  -25.3520  -36.4500   23.8390 C   0  0  0  0  0  3  0  0  0  0  0  0
  -27.4190  -37.3850   24.7810 C   0  0  0  0  0  1  0  0  0  0  0  0
  -26.3800  -37.5120   23.7620 N   0  0  0  0  0  0  0  0  0  0  0  0
  -25.9550  -38.4310   23.8560 H   0  0  0  0  0  0  0  0  0  0  0  0
  -26.2930  -31.8890   25.2910 C   0  0  1  0  0  0  0  0  0  0  0  0
  -25.1350  -31.6650   26.2910 C   0  0  0  0  0  1  0  0  0  0  0  0
  -26.9190  -30.5100   24.9760 C   0  0  0  0  0  1  0  0  0  0  0  0
  -27.3840  -32.7200   26.0070 C   0  0  0  0  0  1  0  0  0  0  0  0
  2  5  1  0
  3  1  1  0
  4  2  1  0
  4  6  1  0
  5  9  1  0
  5  1  1  0
  6 48  1  0
  6  3  1  0
  6  7  1  6
  9  8  2  0
 10 16  1  0
 10  8  1  0
 11 16  1  0
 12 13  1  0
 12 11  1  0
 14 13  1  0
 14 21  1  0
 14 15  1  0
 16 15  1  0
 17 10  2  0
 18 19  2  0
 19 38  1  0
 20 19  1  0
 20 23  1  0
 21 22  1  0
 21 18  1  0
 22 20  2  0
 23 24  1  0
 24 25  2  0
 26 29  1  0
 26 25  1  0
 27 26  2  0
 28 27  1  0
 28 23  2  0
 29 30  1  0
 30 35  2  0
 30 31  1  0
 31 32  2  0
 32 33  1  0
 33 37  1  0
 34 33  2  0
 35 34  1  0
 36 35  1  0
 38 39  1  0
 39 42  1  0
 39 41  1  0
 40 38  2  0
 43 18  1  0
 43 44  1  0
 45 43  1  0
 46 47  1  0
 46  9  1  0
 49 48  1  0
 49 50  1  0
 51 53  1  0
 51 50  1  0
 52 63  2  0
 53 58  1  0
 54 62  1  0
 54 64  1  0
 55 61  1  0
 55 57  1  0
 56 62  1  0
 57 58  2  0
 57 56  1  0
 59 53  2  0
 60 59  1  0
 60 55  2  0
 61 54  1  0
 62 52  1  0
 64 66  2  0
 65 64  1  0
 67 65  1  0
 68 77  2  0
 68 73  1  0
 69 65  1  0
 69 73  1  0
 70 69  1  0
 71 72  1  0
 71 70  1  0
 72 68  1  0
 73 74  2  0
 74 75  1  0
 76 75  2  0
 77 76  1  0
 78 52  1  0
 78 79  1  0
 78 88  1  0
 79 82  1  0
 80 84  1  0
 80 79  1  0
 81 80  2  0
 84 83  1  0
 86 84  1  0
 86 87  1  0
 86 85  1  0
 88 91  1  1
 88 89  1  0
 90 88  1  0
M  ISO  4   8 100  10 100  50 101  51 101
M  END
>  <TORSDO>  (29) 
F 21

>  <SCORE>  (29) 
-12.828

>  <name>  (29) 
29

>  <ligand_id>  (29) 
29

>  <original_smiles>  (29) 
[H]OC(=C([H])C(=O)N1C([H])([H])C([H])([H])C([H])([H])C([H])(n2nc(-c3c([H])c([H])c(Oc4c([H])c([H])c(F)c([H])c4F)c([H])c3[H])c(C(=O)N([H])[H])c2N([H])[H])C1([H])[H])C1([H])C([H])([H])C([H])([H])[N+]([H])(C([H])([H])C([H])([H])C([H])([H])Oc2c([H])c([H])c3c(c2[H])C([H])([H])N(C(=O)C([H])(N([H])C(=O)C([H])(N([H])C([H])([H])[H])C([H])([H])[H])C(C([H])([H])[H])(C([H])([H])[H])C([H])([H])[H])C([H])(C(=O)N([H])C2([H])c4c([H])c([H])c([H])c([H])c4C([H])([H])C([H])([H])C2([H])[H])C3([H])[H])C([H])([H])C1([H])[H]

>  <smiles>  (29) 
[H]OC(=C([H])C(=O)N1C([H])([H])C([H])([H])C([H])([H])C([H])(n2nc(-c3c([H])c([H])c(Oc4c([H])c([H])c(F)c([H])c4F)c([H])c3[H])c(C(=O)N([H])[H])c2N([H])[H])C1([H])[H])C1([H])C([H])([H])C([H])([H])[N+]([H])(C([H])([H])C([H])([H])C([H])([H])Oc2c([H])c([H])c3c(c2[H])C([H])([H])N(C(=O)C([H])(N([H])C(=O)C([H])(N([H])C([H])([H])[H])C([H])([H])[H])C(C([H])([H])[H])(C([H])([H])[H])C([H])([H])[H])C([H])(C(=O)N([H])C2([H])c4c([H])c([H])c([H])c([H])c4C([H])([H])C([H])([H])C2([H])[H])C3([H])[H])C([H])([H])C1([H])[H]

$$$$
30:0:0
     RDKit          3D

 94102  0  0  1  0  0  0  0  0999 V2000
  -29.4250  -20.7180   19.8230 C   0  0  0  0  0  3  0  0  0  0  0  0
  -29.5220  -21.9080   17.3990 C   0  0  0  0  0  2  0  0  0  0  0  0
  -29.6470  -19.8320   17.2370 C   0  0  0  0  0  2  0  0  0  0  0  0
  -29.4380  -20.9500   16.2080 C   0  0  0  0  0  3  0  0  0  0  0  0
  -29.0540  -20.7580   18.3150 C   0  0  0  0  0  3  0  0  0  0  0  0
  -30.2700  -19.9410   14.0430 C   0  0  0  0  0  1  0  0  0  0  0  0
  -30.2040  -22.4550   14.3240 C   0  0  0  0  0  1  0  0  0  0  0  0
  -30.4000  -21.1070   15.0330 C   0  0  0  0  0  3  0  0  0  0  0  0
  -28.6480  -21.9440   20.4300 N   0  0  0  0  0  4  0  0  0  0  0  0
  -27.6890  -21.8480   20.1350 H   0  0  0  0  0  0  0  0  0  0  0  0
  -28.6320  -21.7980   21.4280 H   0  0  0  0  0  0  0  0  0  0  0  0
  -29.0630  -23.4590   20.2400 C   0  0  0  0  0  3  0  0  0  0  0  0
  -27.9440  -24.6840   20.1060 C   0  0  0  0  0  3  0  0  0  0  0  0
  -28.2300  -26.2020   20.1060 O   0  0  0  0  0  0  0  0  0  0  0  0
  -24.6020  -31.8150   23.1480 C   0  0  0  0  0  0  0  0  0  0  0  0
  -27.1580  -27.1550   20.0650 C   0  0  0  0  0  0  0  0  0  0  0  0
  -23.3880  -30.4370   21.5040 C   0  0  0  0  0  3  0  0  0  0  0  0
  -24.8240  -28.8770   20.0610 C   0  0  0  0  0  0  0  0  0  0  0  0
  -25.9390  -30.7090   21.3240 C   0  0  0  0  0  2  0  0  0  0  0  0
  -26.0070  -29.3250   20.6630 C   0  0  0  0  0  0  0  0  0  0  0  0
  -27.1750  -28.4810   20.6490 C   0  0  0  0  0  3  0  0  0  0  0  0
  -25.9480  -26.8030   19.4230 C   0  0  0  0  0  3  0  0  0  0  0  0
  -24.8050  -27.6270   19.4280 C   0  0  0  0  0  3  0  0  0  0  0  0
  -23.5970  -29.7720   20.1200 C   0  0  0  0  0  2  0  0  0  0  0  0
  -24.6620  -31.0060   22.0480 N   0  0  0  0  0  0  0  0  0  0  0  0
  -23.5190  -32.0970   23.6850 O   0  0  0  0  0  0  0  0  0  0  0  0
  -22.7150  -29.4210   22.4600 C   0  0  0  0  0  0  0  0  0  0  0  0
  -21.3840  -29.2690   22.3520 N   0  0  0  0  0  0  0  0  0  0  0  0
  -23.3930  -28.7710   23.2620 O   0  0  0  0  0  0  0  0  0  0  0  0
  -20.8940  -29.8420   21.6800 H   0  0  0  0  0  0  0  0  0  0  0  0
  -17.9930  -28.1210   22.9010 C   0  0  0  0  0  0  0  0  0  0  0  0
  -20.5610  -28.3330   23.1230 C   0  0  0  0  0  3  0  0  0  0  0  0
  -20.6260  -26.9100   22.5210 C   0  0  0  0  0  2  0  0  0  0  0  0
  -19.4980  -26.6250   21.5240 C   0  0  0  0  0  2  0  0  0  0  0  0
  -18.1320  -26.7820   22.1980 C   0  0  0  0  0  2  0  0  0  0  0  0
  -19.1330  -28.8560   23.3220 C   0  0  0  0  0  0  0  0  0  0  0  0
  -18.9480  -30.1110   23.9430 C   0  0  0  0  0  3  0  0  0  0  0  0
  -17.6550  -30.6300   24.1470 C   0  0  0  0  0  3  0  0  0  0  0  0
  -16.5300  -29.8920   23.7410 C   0  0  0  0  0  3  0  0  0  0  0  0
  -16.6990  -28.6390   23.1240 C   0  0  0  0  0  3  0  0  0  0  0  0
  -25.8860  -32.4410   23.7720 C   0  0  0  0  0  3  0  0  0  0  0  0
  -25.5750  -33.8330   24.1310 N   0  0  0  0  0  0  0  0  0  0  0  0
  -25.9040  -34.9030   23.3950 C   0  0  0  0  0  0  0  0  0  0  0  0
  -26.5690  -34.8220   22.3600 O   0  0  0  0  0  0  0  0  0  0  0  0
  -24.9810  -33.9700   24.9370 H   0  0  0  0  0  0  0  0  0  0  0  0
  -24.1680  -36.7010   23.0980 C   0  0  0  0  0  1  0  0  0  0  0  0
  -25.4200  -36.2820   23.8850 C   0  0  0  0  0  3  0  0  0  0  0  0
  -27.5650  -37.1530   24.7040 C   0  0  0  0  0  1  0  0  0  0  0  0
  -26.4500  -37.3390   23.7810 N   0  0  0  0  0  0  0  0  0  0  0  0
  -26.0440  -38.2550   23.9540 H   0  0  0  0  0  0  0  0  0  0  0  0
  -26.4090  -31.6510   25.0350 C   0  0  1  0  0  0  0  0  0  0  0  0
  -25.3240  -31.4020   26.1080 C   0  0  0  0  0  1  0  0  0  0  0  0
  -26.9860  -30.2770   24.6240 C   0  0  0  0  0  1  0  0  0  0  0  0
  -27.5680  -32.4330   25.6990 C   0  0  0  0  0  1  0  0  0  0  0  0
  -29.1660  -19.1640   20.4420 C   0  0  0  0  0  2  0  0  0  0  0  0
  -30.9620  -17.7340   19.0950 C   0  0  0  0  0  1  0  0  0  0  0  0
  -30.1810  -17.8150   20.4090 C   0  0  0  0  0  3  0  0  0  0  0  0
  -29.6740  -16.2730   20.8300 C   0  0  0  0  0  2  0  0  0  0  0  0
  -30.5390  -14.8710   20.6890 C   0  0  0  0  0  0  0  0  0  0  0  0
  -30.4940  -12.4890   19.8500 C   0  0  0  0  0  2  0  0  0  0  0  0
  -29.6440  -12.4210   18.5580 C   0  0  0  0  0  2  0  0  0  0  0  0
  -28.1520  -12.2330   18.8920 C   0  0  0  0  0  2  0  0  0  0  0  0
  -27.6690  -13.1990   20.0030 C   0  0  0  0  0  3  0  0  0  0  0  0
  -28.6440  -13.2450   21.1970 C   0  0  0  0  0  2  0  0  0  0  0  0
  -29.9700  -13.6040   20.6800 N   0  0  0  0  0  0  0  0  0  0  0  0
  -31.7500  -14.9410   20.4560 O   0  0  0  0  0  0  0  0  0  0  0  0
  -25.2470  -13.8000   20.5830 C   0  0  0  0  0  0  0  0  0  0  0  0
  -24.1590  -13.0340   20.9010 C   0  0  0  0  0  0  0  0  0  0  0  0
  -24.6200  -11.6820   20.9250 C   0  0  0  0  0  0  0  0  0  0  0  0
  -26.3000  -12.9150   20.4230 N   0  0  0  0  0  0  0  0  0  0  0  0
  -25.9280  -11.6370   20.6950 N   0  0  0  0  0  0  0  0  0  0  0  0
  -23.8790  -10.4250   21.0920 C   0  0  0  0  0  0  0  0  0  0  0  0
  -24.2790   -9.4490   22.0330 C   0  0  0  0  0  3  0  0  0  0  0  0
  -23.5380   -8.2580   22.1890 C   0  0  0  0  0  3  0  0  0  0  0  0
  -22.3810   -8.0340   21.4040 C   0  0  0  0  0  0  0  0  0  0  0  0
  -22.0010   -8.9980   20.4530 C   0  0  0  0  0  3  0  0  0  0  0  0
  -22.7440  -10.1800   20.2950 C   0  0  0  0  0  3  0  0  0  0  0  0
  -21.6140   -6.8960   21.4680 O   0  0  0  0  0  0  0  0  0  0  0  0
  -21.5660   -6.1240   22.6010 C   0  0  0  0  0  0  0  0  0  0  0  0
  -21.1800   -6.6570   23.8490 C   0  0  0  0  0  3  0  0  0  0  0  0
  -21.0780   -5.8140   24.9740 C   0  0  0  0  0  3  0  0  0  0  0  0
  -21.3510   -4.4380   24.8510 C   0  0  0  0  0  0  0  0  0  0  0  0
  -21.7290   -3.9050   23.6060 C   0  0  0  0  0  3  0  0  0  0  0  0
  -21.8340   -4.7450   22.4840 C   0  0  0  0  0  0  0  0  0  0  0  0
  -22.1790   -4.2220   21.2830 F   0  0  0  0  0  0  0  0  0  0  0  0
  -21.2440   -3.6270   25.9280 F   0  0  0  0  0  0  0  0  0  0  0  0
  -22.7490  -13.5190   21.0770 C   0  0  0  0  0  0  0  0  0  0  0  0
  -21.9710  -12.8460   21.9170 N   0  0  0  0  0  0  0  0  0  0  0  0
  -22.3440  -14.5300   20.5030 O   0  0  0  0  0  0  0  0  0  0  0  0
  -22.3100  -12.0280   22.4030 H   0  0  0  0  0  0  0  0  0  0  0  0
  -21.0230  -13.1540   22.0800 H   0  0  0  0  0  0  0  0  0  0  0  0
  -25.4280  -15.1680   20.3940 N   0  0  0  0  0  0  0  0  0  0  0  0
  -24.6620  -15.8310   20.4470 H   0  0  0  0  0  0  0  0  0  0  0  0
  -26.3020  -15.5950   20.1180 H   0  0  0  0  0  0  0  0  0  0  0  0
  1  9  1  0
  1 55  1  0
  2  5  1  0
  3  5  1  0
  4  8  1  0
  4  3  1  0
  4  2  1  0
  5  1  1  0
  6  8  1  0
  7  8  1  0
  9 11  1  0
 10  9  1  0
 12  9  1  0
 13 14  1  0
 13 12  2  0
 15 26  2  0
 16 14  1  0
 16 21  1  0
 17 25  1  0
 17 27  1  0
 18 24  1  0
 18 20  1  0
 19 25  1  0
 20 19  1  0
 21 20  2  0
 22 23  1  0
 22 16  2  0
 23 18  2  0
 24 17  1  0
 25 15  1  0
 27 29  2  0
 28 27  1  0
 30 28  1  0
 31 40  2  0
 31 36  1  0
 32 28  1  0
 32 36  1  0
 33 32  1  0
 34 35  1  0
 34 33  1  0
 35 31  1  0
 36 37  2  0
 37 38  1  0
 39 38  2  0
 40 39  1  0
 41 15  1  0
 41 42  1  0
 41 51  1  0
 42 45  1  0
 43 47  1  0
 43 42  1  0
 44 43  2  0
 47 46  1  0
 49 47  1  0
 49 50  1  0
 49 48  1  0
 51 54  1  1
 51 52  1  0
 53 51  1  0
 57 56  1  0
 57 55  1  0
 57 58  1  0
 59 58  1  0
 60 65  1  0
 61 62  1  0
 61 60  1  0
 63 62  1  0
 63 70  1  0
 63 64  1  0
 65 59  1  0
 65 64  1  0
 66 59  2  0
 67 68  2  0
 68 69  1  0
 68 87  1  0
 69 72  1  0
 70 67  1  0
 70 71  1  0
 71 69  2  0
 72 73  1  0
 73 74  2  0
 75 78  1  0
 75 74  1  0
 76 75  2  0
 77 76  1  0
 77 72  2  0
 78 79  1  0
 79 80  1  0
 80 81  2  0
 82 81  1  0
 82 86  1  0
 83 82  2  0
 84 79  2  0
 84 83  1  0
 85 84  1  0
 87 88  1  0
 88 91  1  0
 88 90  1  0
 89 87  2  0
 92 93  1  0
 92 67  1  0
 94 92  1  0
M  ISO  4  13 101  14 101  58 100  59 100
M  END
>  <TORSDO>  (30) 
F 24

>  <SCORE>  (30) 
-12.328

>  <name>  (30) 
30

>  <ligand_id>  (30) 
30

>  <original_smiles>  (30) 
[H]c1c([H])c([H])c2c(c1[H])C([H])([H])C([H])([H])C([H])([H])C2([H])N([H])C(=O)C1([H])N(C(=O)C([H])(N([H])C(=O)C([H])(N([H])C([H])([H])[H])C([H])([H])[H])C(C([H])([H])[H])(C([H])([H])[H])C([H])([H])[H])C([H])([H])c2c([H])c(OC([H])([H])C([H])([H])[N+]([H])([H])C([H])(C([H])([H])C([H])(C([H])([H])[H])C([H])([H])C(=O)N3C([H])([H])C([H])([H])C([H])([H])C([H])(n4nc(-c5c([H])c([H])c(Oc6c([H])c([H])c(F)c([H])c6F)c([H])c5[H])c(C(=O)N([H])[H])c4N([H])[H])C3([H])[H])C3([H])C([H])([H])C([H])(C([H])(C([H])([H])[H])C([H])([H])[H])C3([H])[H])c([H])c([H])c2C1([H])[H]

>  <smiles>  (30) 
[H]c1c([H])c([H])c2c(c1[H])C([H])([H])C([H])([H])C([H])([H])C2([H])N([H])C(=O)C1([H])N(C(=O)C([H])(N([H])C(=O)C([H])(N([H])C([H])([H])[H])C([H])([H])[H])C(C([H])([H])[H])(C([H])([H])[H])C([H])([H])[H])C([H])([H])c2c([H])c(OC([H])([H])C([H])([H])[N+]([H])([H])C([H])(C([H])([H])C([H])(C([H])([H])[H])C([H])([H])C(=O)N3C([H])([H])C([H])([H])C([H])([H])C([H])(n4nc(-c5c([H])c([H])c(Oc6c([H])c([H])c(F)c([H])c6F)c([H])c5[H])c(C(=O)N([H])[H])c4N([H])[H])C3([H])[H])C3([H])C([H])([H])C([H])(C([H])(C([H])([H])[H])C([H])([H])[H])C3([H])[H])c([H])c([H])c2C1([H])[H]

$$$$
31:0:0
     RDKit          3D

 88 95  0  0  1  0  0  0  0  0999 V2000
  -28.9180  -22.6190   20.6800 C   0  0  0  0  0  0  0  0  0  0  0  0
  -29.2670  -22.8410   21.8410 O   0  0  0  0  0  0  0  0  0  0  0  0
  -29.6430  -21.3970   18.4960 C   0  0  0  0  0  1  0  0  0  0  0  0
  -29.4180  -21.2440   20.0110 C   0  0  0  0  0  3  0  0  0  0  0  0
  -28.7160  -19.8290   20.3630 C   0  0  0  0  0  2  0  0  0  0  0  0
  -29.5010  -18.5040   20.8840 C   0  0  0  0  0  2  0  0  0  0  0  0
  -29.8180  -17.2300   19.9480 C   0  0  0  0  0  2  0  0  0  0  0  0
  -30.5650  -14.7170   20.2460 C   0  0  0  0  0  0  0  0  0  0  0  0
  -30.3520  -12.4520   19.2330 C   0  0  0  0  0  2  0  0  0  0  0  0
  -29.3810  -12.5470   18.0340 C   0  0  0  0  0  2  0  0  0  0  0  0
  -27.9200  -12.3900   18.4970 C   0  0  0  0  0  2  0  0  0  0  0  0
  -27.5850  -13.2650   19.7340 C   0  0  0  0  0  3  0  0  0  0  0  0
  -28.6670  -13.1370   20.8300 C   0  0  0  0  0  2  0  0  0  0  0  0
  -29.9570  -13.4840   20.2180 N   0  0  0  0  0  0  0  0  0  0  0  0
  -31.7180  -14.8530   19.8280 O   0  0  0  0  0  0  0  0  0  0  0  0
  -29.7700  -15.8140   20.5220 N   0  0  0  0  0  0  0  0  0  0  0  0
  -28.8800  -15.5590   20.9240 H   0  0  0  0  0  0  0  0  0  0  0  0
  -25.2080  -13.8660   20.4970 C   0  0  0  0  0  0  0  0  0  0  0  0
  -24.1470  -13.0950   20.8880 C   0  0  0  0  0  0  0  0  0  0  0  0
  -24.6070  -11.7430   20.8480 C   0  0  0  0  0  0  0  0  0  0  0  0
  -26.2470  -12.9840   20.2450 N   0  0  0  0  0  0  0  0  0  0  0  0
  -25.8910  -11.7020   20.5160 N   0  0  0  0  0  0  0  0  0  0  0  0
  -23.8810  -10.4820   21.0500 C   0  0  0  0  0  0  0  0  0  0  0  0
  -24.3410   -9.5010   21.9570 C   0  0  0  0  0  3  0  0  0  0  0  0
  -23.6140   -8.3060   22.1480 C   0  0  0  0  0  3  0  0  0  0  0  0
  -22.4140   -8.0820   21.4340 C   0  0  0  0  0  0  0  0  0  0  0  0
  -21.9720   -9.0500   20.5150 C   0  0  0  0  0  3  0  0  0  0  0  0
  -22.6990  -10.2370   20.3230 C   0  0  0  0  0  3  0  0  0  0  0  0
  -21.6570   -6.9400   21.5360 O   0  0  0  0  0  0  0  0  0  0  0  0
  -21.6600   -6.1730   22.6740 C   0  0  0  0  0  0  0  0  0  0  0  0
  -21.3170   -6.7080   23.9340 C   0  0  0  0  0  3  0  0  0  0  0  0
  -21.2680   -5.8690   25.0650 C   0  0  0  0  0  3  0  0  0  0  0  0
  -21.5510   -4.4960   24.9380 C   0  0  0  0  0  0  0  0  0  0  0  0
  -21.8870   -3.9600   23.6820 C   0  0  0  0  0  3  0  0  0  0  0  0
  -21.9370   -4.7960   22.5520 C   0  0  0  0  0  0  0  0  0  0  0  0
  -22.2400   -4.2710   21.3410 F   0  0  0  0  0  0  0  0  0  0  0  0
  -21.4960   -3.6870   26.0220 F   0  0  0  0  0  0  0  0  0  0  0  0
  -22.7560  -13.5720   21.1860 C   0  0  0  0  0  0  0  0  0  0  0  0
  -22.0470  -12.8800   22.0700 N   0  0  0  0  0  0  0  0  0  0  0  0
  -22.3080  -14.5980   20.6730 O   0  0  0  0  0  0  0  0  0  0  0  0
  -22.4260  -12.0540   22.5090 H   0  0  0  0  0  0  0  0  0  0  0  0
  -21.1140  -13.1790   22.3120 H   0  0  0  0  0  0  0  0  0  0  0  0
  -25.3710  -15.2350   20.3140 N   0  0  0  0  0  0  0  0  0  0  0  0
  -24.6050  -15.8880   20.4320 H   0  0  0  0  0  0  0  0  0  0  0  0
  -26.2070  -15.6710   19.9430 H   0  0  0  0  0  0  0  0  0  0  0  0
  -27.9930  -23.7090   19.9740 C   0  0  0  0  0  2  0  0  0  0  0  0
  -28.5270  -25.1730   19.5410 C   0  0  0  0  0  2  0  0  0  0  0  0
  -28.3340  -26.4650   20.2630 O   0  0  0  0  0  0  0  0  0  0  0  0
  -24.5880  -31.8720   23.2290 C   0  0  0  0  0  0  0  0  0  0  0  0
  -27.2000  -27.2960   20.1630 C   0  0  0  0  0  0  0  0  0  0  0  0
  -23.3800  -30.4680   21.5960 C   0  0  0  0  0  3  0  0  0  0  0  0
  -24.8270  -28.9110   20.1590 C   0  0  0  0  0  0  0  0  0  0  0  0
  -25.9180  -30.7840   21.4030 C   0  0  0  0  0  2  0  0  0  0  0  0
  -25.9950  -29.4030   20.7550 C   0  0  0  0  0  0  0  0  0  0  0  0
  -27.1770  -28.6040   20.7500 C   0  0  0  0  0  3  0  0  0  0  0  0
  -26.0120  -26.8570   19.5410 C   0  0  0  0  0  3  0  0  0  0  0  0
  -24.8400  -27.6470   19.5430 C   0  0  0  0  0  3  0  0  0  0  0  0
  -23.5890  -29.7860   20.2160 C   0  0  0  0  0  2  0  0  0  0  0  0
  -24.6480  -31.0610   22.1320 N   0  0  0  0  0  0  0  0  0  0  0  0
  -23.5060  -32.1490   23.7680 O   0  0  0  0  0  0  0  0  0  0  0  0
  -22.7220  -29.4560   22.5630 C   0  0  0  0  0  0  0  0  0  0  0  0
  -21.3950  -29.2770   22.4420 N   0  0  0  0  0  0  0  0  0  0  0  0
  -23.4030  -28.8330   23.3820 O   0  0  0  0  0  0  0  0  0  0  0  0
  -20.9030  -29.8330   21.7560 H   0  0  0  0  0  0  0  0  0  0  0  0
  -18.0240  -28.0670   22.9510 C   0  0  0  0  0  0  0  0  0  0  0  0
  -20.5800  -28.3400   23.2180 C   0  0  0  0  0  3  0  0  0  0  0  0
  -20.6890  -26.9060   22.6490 C   0  0  0  0  0  2  0  0  0  0  0  0
  -19.5880  -26.5720   21.6370 C   0  0  0  0  0  2  0  0  0  0  0  0
  -18.2060  -26.7140   22.2830 C   0  0  0  0  0  2  0  0  0  0  0  0
  -19.1390  -28.8370   23.3770 C   0  0  0  0  0  0  0  0  0  0  0  0
  -18.9140  -30.1020   23.9620 C   0  0  0  0  0  3  0  0  0  0  0  0
  -17.6060  -30.5970   24.1240 C   0  0  0  0  0  3  0  0  0  0  0  0
  -16.5070  -29.8260   23.7130 C   0  0  0  0  0  3  0  0  0  0  0  0
  -16.7150  -28.5620   23.1330 C   0  0  0  0  0  3  0  0  0  0  0  0
  -25.8710  -32.5090   23.8470 C   0  0  0  0  0  3  0  0  0  0  0  0
  -26.3940  -31.7400   25.1220 C   0  0  1  0  0  0  0  0  0  0  0  0
  -25.3100  -31.5050   26.1980 C   0  0  0  0  0  1  0  0  0  0  0  0
  -26.9720  -30.3600   24.7300 C   0  0  0  0  0  1  0  0  0  0  0  0
  -27.5490  -32.5340   25.7750 C   0  0  0  0  0  1  0  0  0  0  0  0
  -25.5560  -33.9060   24.1810 N   0  0  0  0  0  0  0  0  0  0  0  0
  -25.8830  -34.9640   23.4270 C   0  0  0  0  0  0  0  0  0  0  0  0
  -26.5480  -34.8660   22.3920 O   0  0  0  0  0  0  0  0  0  0  0  0
  -24.9590  -34.0560   24.9820 H   0  0  0  0  0  0  0  0  0  0  0  0
  -24.1430  -36.7530   23.0950 C   0  0  0  0  0  1  0  0  0  0  0  0
  -25.3940  -36.3490   23.8920 C   0  0  0  0  0  3  0  0  0  0  0  0
  -27.5380  -37.2390   24.6970 C   0  0  0  0  0  1  0  0  0  0  0  0
  -26.4210  -37.4080   23.7710 N   0  0  0  0  0  0  0  0  0  0  0  0
  -26.0130  -38.3250   23.9330 H   0  0  0  0  0  0  0  0  0  0  0  0
  1  2  2  0
  4  3  1  0
  4  5  1  0
  4  1  1  0
  5  6  1  0
  7 16  1  0
  7  6  1  0
  8 16  1  0
  9 14  1  0
 10 11  1  0
 10  9  1  0
 12 11  1  0
 12 21  1  0
 12 13  1  0
 14  8  1  0
 14 13  1  0
 15  8  2  0
 16 17  1  0
 18 19  2  0
 19 38  1  0
 20 19  1  0
 20 23  1  0
 21 18  1  0
 21 22  1  0
 22 20  2  0
 23 24  1  0
 24 25  2  0
 26 29  1  0
 26 25  1  0
 27 26  2  0
 28 27  1  0
 28 23  2  0
 29 30  1  0
 30 31  1  0
 31 32  2  0
 33 32  1  0
 33 37  1  0
 34 33  2  0
 35 30  2  0
 35 34  1  0
 36 35  1  0
 38 39  1  0
 39 42  1  0
 39 41  1  0
 40 38  2  0
 43 44  1  0
 43 18  1  0
 45 43  1  0
 46  1  1  0
 47 46  1  0
 47 48  1  0
 49 60  2  0
 50 48  1  0
 50 55  1  0
 51 59  1  0
 51 61  1  0
 52 58  1  0
 52 54  1  0
 53 59  1  0
 54 53  1  0
 55 54  2  0
 56 57  1  0
 56 50  2  0
 57 52  2  0
 58 51  1  0
 59 49  1  0
 61 63  2  0
 62 61  1  0
 64 62  1  0
 65 74  2  0
 65 70  1  0
 66 62  1  0
 66 70  1  0
 67 66  1  0
 68 69  1  0
 68 67  1  0
 69 65  1  0
 70 71  2  0
 71 72  1  0
 73 72  2  0
 74 73  1  0
 75 49  1  0
 75 80  1  0
 75 76  1  0
 76 79  1  1
 76 77  1  0
 78 76  1  0
 80 83  1  0
 81 85  1  0
 81 80  1  0
 82 81  2  0
 85 84  1  0
 87 85  1  0
 87 88  1  0
 87 86  1  0
M  ISO  4   8 100  16 100  47 101  48 101
M  END
>  <TORSDO>  (31) 
F 22

>  <SCORE>  (31) 
-12.906

>  <name>  (31) 
31

>  <ligand_id>  (31) 
31

>  <original_smiles>  (31) 
[H]c1c([H])c([H])c2c(c1[H])C([H])([H])C([H])([H])C([H])([H])C2([H])N([H])C(=O)C1([H])N(C(=O)C([H])(N([H])C(=O)C([H])(N([H])C([H])([H])[H])C([H])([H])[H])C(C([H])([H])[H])(C([H])([H])[H])C([H])([H])[H])C([H])([H])c2c([H])c(OC([H])([H])C([H])([H])C(=O)C([H])(C([H])([H])[H])C([H])([H])C([H])([H])C([H])([H])N([H])C(=O)N3C([H])([H])C([H])([H])C([H])([H])C([H])(n4nc(-c5c([H])c([H])c(Oc6c([H])c([H])c(F)c([H])c6F)c([H])c5[H])c(C(=O)N([H])[H])c4N([H])[H])C3([H])[H])c([H])c([H])c2C1([H])[H]

>  <smiles>  (31) 
[H]c1c([H])c([H])c2c(c1[H])C([H])([H])C([H])([H])C([H])([H])C2([H])N([H])C(=O)C1([H])N(C(=O)C([H])(N([H])C(=O)C([H])(N([H])C([H])([H])[H])C([H])([H])[H])C(C([H])([H])[H])(C([H])([H])[H])C([H])([H])[H])C([H])([H])c2c([H])c(OC([H])([H])C([H])([H])C(=O)C([H])(C([H])([H])[H])C([H])([H])C([H])([H])C([H])([H])N([H])C(=O)N3C([H])([H])C([H])([H])C([H])([H])C([H])(n4nc(-c5c([H])c([H])c(Oc6c([H])c([H])c(F)c([H])c6F)c([H])c5[H])c(C(=O)N([H])[H])c4N([H])[H])C3([H])[H])c([H])c([H])c2C1([H])[H]

$$$$
32:0:0
     RDKit          3D

 89 97  0  0  1  0  0  0  0  0999 V2000
  -29.0590  -20.6890   20.3910 C   0  0  0  0  0  3  0  0  0  0  0  0
  -30.9630  -15.2680   20.6490 C   0  0  0  0  0  0  0  0  0  0  0  0
  -30.8580  -12.8610   19.8910 C   0  0  0  0  0  2  0  0  0  0  0  0
  -30.0320  -12.7130   18.5960 C   0  0  0  0  0  2  0  0  0  0  0  0
  -28.5380  -12.5500   18.9280 C   0  0  0  0  0  2  0  0  0  0  0  0
  -28.0420  -13.5690   19.9920 C   0  0  0  0  0  3  0  0  0  0  0  0
  -29.0080  -13.6930   21.1840 C   0  0  0  0  0  2  0  0  0  0  0  0
  -30.3130  -14.0400   20.6130 N   0  0  0  0  0  0  0  0  0  0  0  0
  -32.1990  -15.2190   20.7000 O   0  0  0  0  0  0  0  0  0  0  0  0
  -30.4060  -17.8380   17.8940 C   0  0  0  0  0  2  0  0  0  0  0  0
  -30.4260  -19.2170   18.5790 C   0  0  0  0  0  2  0  0  0  0  0  0
  -31.0200  -16.7230   18.7660 C   0  0  0  0  0  2  0  0  0  0  0  0
  -30.0020  -17.8290   20.7270 C   0  0  0  0  0  2  0  0  0  0  0  0
  -29.5370  -19.1630   19.8160 C   0  0  0  0  0  3  0  0  0  0  0  0
  -30.3670  -16.4400   20.0740 N   0  0  0  0  0  0  0  0  0  0  0  0
  -25.6350  -14.2030   20.5710 C   0  0  0  0  0  0  0  0  0  0  0  0
  -24.5340  -13.4520   20.8780 C   0  0  0  0  0  0  0  0  0  0  0  0
  -24.9750  -12.0910   20.9000 C   0  0  0  0  0  0  0  0  0  0  0  0
  -26.6730  -13.3010   20.4120 N   0  0  0  0  0  0  0  0  0  0  0  0
  -26.2830  -12.0280   20.6820 N   0  0  0  0  0  0  0  0  0  0  0  0
  -24.2140  -10.8450   21.0540 C   0  0  0  0  0  0  0  0  0  0  0  0
  -24.5640   -9.8800   22.0230 C   0  0  0  0  0  3  0  0  0  0  0  0
  -23.8020   -8.7000   22.1680 C   0  0  0  0  0  3  0  0  0  0  0  0
  -22.6750   -8.4790   21.3400 C   0  0  0  0  0  0  0  0  0  0  0  0
  -22.3450   -9.4310   20.3600 C   0  0  0  0  0  3  0  0  0  0  0  0
  -23.1080  -10.6020   20.2150 C   0  0  0  0  0  3  0  0  0  0  0  0
  -21.8920   -7.3500   21.3920 O   0  0  0  0  0  0  0  0  0  0  0  0
  -21.7600   -6.6170   22.5440 C   0  0  0  0  0  0  0  0  0  0  0  0
  -21.2530   -7.1820   23.7340 C   0  0  0  0  0  3  0  0  0  0  0  0
  -21.0700   -6.3740   24.8750 C   0  0  0  0  0  3  0  0  0  0  0  0
  -21.3810   -5.0020   24.8260 C   0  0  0  0  0  0  0  0  0  0  0  0
  -21.8810   -4.4370   23.6390 C   0  0  0  0  0  3  0  0  0  0  0  0
  -22.0660   -5.2420   22.5010 C   0  0  0  0  0  0  0  0  0  0  0  0
  -22.5260   -4.6860   21.3530 F   0  0  0  0  0  0  0  0  0  0  0  0
  -21.1990   -4.2250   25.9180 F   0  0  0  0  0  0  0  0  0  0  0  0
  -23.1300  -13.9570   21.0410 C   0  0  0  0  0  0  0  0  0  0  0  0
  -22.3300  -13.2920   21.8680 N   0  0  0  0  0  0  0  0  0  0  0  0
  -22.7480  -14.9770   20.4690 O   0  0  0  0  0  0  0  0  0  0  0  0
  -22.6480  -12.4680   22.3560 H   0  0  0  0  0  0  0  0  0  0  0  0
  -21.3850  -13.6130   22.0170 H   0  0  0  0  0  0  0  0  0  0  0  0
  -25.8400  -15.5680   20.3880 N   0  0  0  0  0  0  0  0  0  0  0  0
  -25.0890  -16.2470   20.4520 H   0  0  0  0  0  0  0  0  0  0  0  0
  -26.7300  -15.9830   20.1420 H   0  0  0  0  0  0  0  0  0  0  0  0
  -26.9180  -22.0860   20.8500 C   0  0  0  0  0  1  0  0  0  0  0  0
  -27.5240  -20.8100   20.2490 C   0  0  0  0  0  2  0  0  0  0  0  0
  -29.7500  -22.2010   20.0870 C   0  0  0  0  0  2  0  0  0  0  0  0
  -29.0870  -23.6720   19.5760 C   0  0  0  0  0  2  0  0  0  0  0  0
  -28.7530  -25.0570   20.4700 C   0  0  0  0  0  2  0  0  0  0  0  0
  -28.8190  -26.5480   20.0460 O   0  0  0  0  0  0  0  0  0  0  0  0
  -24.7780  -31.7780   23.3260 C   0  0  0  0  0  0  0  0  0  0  0  0
  -27.6940  -27.4360   20.0880 C   0  0  0  0  0  0  0  0  0  0  0  0
  -23.7110  -30.4500   21.5460 C   0  0  0  0  0  3  0  0  0  0  0  0
  -25.2860  -29.0460   20.0800 C   0  0  0  0  0  0  0  0  0  0  0  0
  -26.2500  -30.8510   21.4990 C   0  0  0  0  0  2  0  0  0  0  0  0
  -26.4160  -29.5140   20.7590 C   0  0  0  0  0  0  0  0  0  0  0  0
  -27.6280  -28.7290   20.7420 C   0  0  0  0  0  3  0  0  0  0  0  0
  -26.5330  -27.0520   19.3910 C   0  0  0  0  0  3  0  0  0  0  0  0
  -25.3540  -27.8290   19.3820 C   0  0  0  0  0  3  0  0  0  0  0  0
  -24.0150  -29.8790   20.1350 C   0  0  0  0  0  2  0  0  0  0  0  0
  -24.9310  -31.0440   22.1820 N   0  0  0  0  0  0  0  0  0  0  0  0
  -23.6630  -31.9720   23.8290 O   0  0  0  0  0  0  0  0  0  0  0  0
  -23.0500  -29.3460   22.4070 C   0  0  0  0  0  0  0  0  0  0  0  0
  -21.7350  -29.1320   22.2240 N   0  0  0  0  0  0  0  0  0  0  0  0
  -23.7220  -28.6860   23.2030 O   0  0  0  0  0  0  0  0  0  0  0  0
  -21.2500  -29.7140   21.5570 H   0  0  0  0  0  0  0  0  0  0  0  0
  -18.3870  -27.7930   22.5620 C   0  0  0  0  0  0  0  0  0  0  0  0
  -20.9320  -28.1080   22.8960 C   0  0  0  0  0  3  0  0  0  0  0  0
  -21.0900  -26.7360   22.2030 C   0  0  0  0  0  2  0  0  0  0  0  0
  -20.0140  -26.4680   21.1450 C   0  0  0  0  0  2  0  0  0  0  0  0
  -18.6170  -26.5150   21.7730 C   0  0  0  0  0  2  0  0  0  0  0  0
  -19.4740  -28.5490   23.0760 C   0  0  0  0  0  0  0  0  0  0  0  0
  -19.2050  -29.7460   23.7760 C   0  0  0  0  0  3  0  0  0  0  0  0
  -17.8830  -30.1890   23.9620 C   0  0  0  0  0  3  0  0  0  0  0  0
  -16.8100  -29.4290   23.4640 C   0  0  0  0  0  3  0  0  0  0  0  0
  -17.0630  -28.2330   22.7700 C   0  0  0  0  0  3  0  0  0  0  0  0
  -26.0010  -32.4270   24.0460 C   0  0  0  0  0  3  0  0  0  0  0  0
  -26.4600  -31.6290   25.3280 C   0  0  1  0  0  0  0  0  0  0  0  0
  -25.3130  -31.3280   26.3220 C   0  0  0  0  0  1  0  0  0  0  0  0
  -27.1030  -30.2790   24.9370 C   0  0  0  0  0  1  0  0  0  0  0  0
  -27.5490  -32.4310   26.0810 C   0  0  0  0  0  1  0  0  0  0  0  0
  -25.6280  -33.8040   24.4050 N   0  0  0  0  0  0  0  0  0  0  0  0
  -25.9660  -34.8940   23.7060 C   0  0  0  0  0  0  0  0  0  0  0  0
  -26.6920  -34.8490   22.7080 O   0  0  0  0  0  0  0  0  0  0  0  0
  -24.9820  -33.9120   25.1740 H   0  0  0  0  0  0  0  0  0  0  0  0
  -24.2000  -36.6500   23.3370 C   0  0  0  0  0  1  0  0  0  0  0  0
  -25.4160  -36.2520   24.1860 C   0  0  0  0  0  3  0  0  0  0  0  0
  -27.4790  -37.1780   25.1440 C   0  0  0  0  0  1  0  0  0  0  0  0
  -26.4170  -37.3410   24.1560 N   0  0  0  0  0  0  0  0  0  0  0  0
  -25.9750  -38.2420   24.3120 H   0  0  0  0  0  0  0  0  0  0  0  0
  1 46  1  0
  2  9  2  0
  3  8  1  0
  4  5  1  0
  4  3  1  0
  6  5  1  0
  6 19  1  0
  6  7  1  0
  8  2  1  0
  8  7  1  0
 10 11  1  0
 10 12  1  0
 11 14  1  0
 12 15  1  0
 14  1  1  0
 14 13  1  0
 15  2  1  0
 15 13  1  0
 16 17  2  0
 17 18  1  0
 17 36  1  0
 18 21  1  0
 19 16  1  0
 19 20  1  0
 20 18  2  0
 21 22  1  0
 22 23  2  0
 24 27  1  0
 24 23  1  0
 25 24  2  0
 26 25  1  0
 26 21  2  0
 27 28  1  0
 28 29  1  0
 29 30  2  0
 31 30  1  0
 31 35  1  0
 32 31  2  0
 33 28  2  0
 33 32  1  0
 34 33  1  0
 36 37  1  0
 37 40  1  0
 37 39  1  0
 38 36  2  0
 41 42  1  0
 41 16  1  0
 43 41  1  0
 45  1  1  0
 45 44  1  0
 47 46  1  0
 47 48  1  0
 49 51  1  0
 49 48  1  0
 50 61  2  0
 51 56  1  0
 52 60  1  0
 52 62  1  0
 53 59  1  0
 53 55  1  0
 54 60  1  0
 55 54  1  0
 56 55  2  0
 57 51  2  0
 58 57  1  0
 58 53  2  0
 59 52  1  0
 60 50  1  0
 62 64  2  0
 63 62  1  0
 65 63  1  0
 66 75  2  0
 66 71  1  0
 67 63  1  0
 67 71  1  0
 68 67  1  0
 69 70  1  0
 69 68  1  0
 70 66  1  0
 71 72  2  0
 72 73  1  0
 74 73  2  0
 75 74  1  0
 76 50  1  0
 76 81  1  0
 76 77  1  0
 77 80  1  1
 77 78  1  0
 79 77  1  0
 81 84  1  0
 82 86  1  0
 82 81  1  0
 83 82  2  0
 86 85  1  0
 88 86  1  0
 88 89  1  0
 88 87  1  0
M  ISO  4   2 100  15 100  48 101  49 101
M  END
>  <TORSDO>  (32) 
F 20

>  <SCORE>  (32) 
-12.743

>  <name>  (32) 
32

>  <ligand_id>  (32) 
32

>  <original_smiles>  (32) 
[H]c1c([H])c([H])c2c(c1[H])C([H])([H])C([H])([H])C([H])([H])C2([H])N([H])C(=O)C1([H])N(C(=O)C([H])(N([H])C(=O)C([H])(N([H])C([H])([H])[H])C([H])([H])[H])C(C([H])([H])[H])(C([H])([H])[H])C([H])([H])[H])C([H])([H])c2c([H])c(OC([H])([H])C([H])([H])C([H])([H])C([H])(C([H])([H])C([H])([H])[H])C3([H])C([H])([H])N(C(=O)N4C([H])([H])C([H])([H])C([H])([H])C([H])(n5nc(-c6c([H])c([H])c(Oc7c([H])c([H])c(F)c([H])c7F)c([H])c6[H])c(C(=O)N([H])[H])c5N([H])[H])C4([H])[H])C([H])([H])C([H])([H])C3([H])[H])c([H])c([H])c2C1([H])[H]

>  <smiles>  (32) 
[H]c1c([H])c([H])c2c(c1[H])C([H])([H])C([H])([H])C([H])([H])C2([H])N([H])C(=O)C1([H])N(C(=O)C([H])(N([H])C(=O)C([H])(N([H])C([H])([H])[H])C([H])([H])[H])C(C([H])([H])[H])(C([H])([H])[H])C([H])([H])[H])C([H])([H])c2c([H])c(OC([H])([H])C([H])([H])C([H])([H])C([H])(C([H])([H])C([H])([H])[H])C3([H])C([H])([H])N(C(=O)N4C([H])([H])C([H])([H])C([H])([H])C([H])(n5nc(-c6c([H])c([H])c(Oc7c([H])c([H])c(F)c([H])c7F)c([H])c6[H])c(C(=O)N([H])[H])c5N([H])[H])C4([H])[H])C([H])([H])C([H])([H])C3([H])[H])c([H])c([H])c2C1([H])[H]

$$$$
33:0:0
     RDKit          3D

 91 98  0  0  1  0  0  0  0  0999 V2000
  -29.2940  -23.2780   18.6970 C   0  0  0  0  0  0  0  0  0  0  0  0
  -30.4730  -22.8670   18.4890 N   0  0  0  0  0  0  0  0  0  0  0  0
  -31.1420  -23.6180   18.3640 H   0  0  0  0  0  0  0  0  0  0  0  0
  -28.1390  -22.2860   18.8830 C   0  0  0  0  0  2  0  0  0  0  0  0
  -28.4340  -21.1480   19.9050 C   0  0  0  0  0  2  0  0  0  0  0  0
  -29.0650  -19.8540   19.3240 C   0  0  0  0  0  2  0  0  0  0  0  0
  -29.9810  -19.0960   20.3070 C   0  0  0  0  0  0  0  0  0  0  0  0
  -29.7020  -17.8060   20.5560 N   0  0  0  0  0  0  0  0  0  0  0  0
  -30.9350  -19.6750   20.8280 O   0  0  0  0  0  0  0  0  0  0  0  0
  -28.8660  -17.4350   20.1280 H   0  0  0  0  0  0  0  0  0  0  0  0
  -30.4420  -16.9490   21.5010 C   0  0  0  0  0  2  0  0  0  0  0  0
  -29.9740  -15.4680   21.5180 C   0  0  0  0  0  2  0  0  0  0  0  0
  -30.6380  -14.4480   20.5460 C   0  0  0  0  0  0  0  0  0  0  0  0
  -30.3720  -12.3440   19.2480 C   0  0  0  0  0  2  0  0  0  0  0  0
  -29.3920  -12.5630   18.0800 C   0  0  0  0  0  2  0  0  0  0  0  0
  -27.9240  -12.4180   18.5350 C   0  0  0  0  0  2  0  0  0  0  0  0
  -27.6140  -13.2180   19.8260 C   0  0  0  0  0  3  0  0  0  0  0  0
  -28.6830  -12.9180   20.8980 C   0  0  0  0  0  2  0  0  0  0  0  0
  -29.9970  -13.2670   20.3300 N   0  0  0  0  0  0  0  0  0  0  0  0
  -31.7030  -14.7290   19.9820 O   0  0  0  0  0  0  0  0  0  0  0  0
  -25.2180  -13.8420   20.5380 C   0  0  0  0  0  0  0  0  0  0  0  0
  -24.1540  -13.0750   20.9180 C   0  0  0  0  0  0  0  0  0  0  0  0
  -24.6070  -11.7200   20.8870 C   0  0  0  0  0  0  0  0  0  0  0  0
  -26.2610  -12.9540   20.3080 N   0  0  0  0  0  0  0  0  0  0  0  0
  -25.8930  -11.6730   20.5690 N   0  0  0  0  0  0  0  0  0  0  0  0
  -23.8760  -10.4610   21.0830 C   0  0  0  0  0  0  0  0  0  0  0  0
  -24.3210   -9.4820   22.0000 C   0  0  0  0  0  3  0  0  0  0  0  0
  -23.5890   -8.2910   22.1870 C   0  0  0  0  0  3  0  0  0  0  0  0
  -22.3990   -8.0660   21.4560 C   0  0  0  0  0  0  0  0  0  0  0  0
  -21.9720   -9.0320   20.5270 C   0  0  0  0  0  3  0  0  0  0  0  0
  -22.7050  -10.2140   20.3390 C   0  0  0  0  0  3  0  0  0  0  0  0
  -21.6380   -6.9270   21.5550 O   0  0  0  0  0  0  0  0  0  0  0  0
  -21.6240   -6.1690   22.6960 C   0  0  0  0  0  0  0  0  0  0  0  0
  -21.2580   -6.7130   23.9470 C   0  0  0  0  0  3  0  0  0  0  0  0
  -21.1920   -5.8820   25.0830 C   0  0  0  0  0  3  0  0  0  0  0  0
  -21.4770   -4.5080   24.9700 C   0  0  0  0  0  0  0  0  0  0  0  0
  -21.8380   -3.9650   23.7240 C   0  0  0  0  0  3  0  0  0  0  0  0
  -21.9080   -4.7930   22.5910 C   0  0  0  0  0  0  0  0  0  0  0  0
  -22.2380   -4.2600   21.3900 F   0  0  0  0  0  0  0  0  0  0  0  0
  -21.4030   -3.7080   26.0590 F   0  0  0  0  0  0  0  0  0  0  0  0
  -22.7590  -13.5570   21.1960 C   0  0  0  0  0  0  0  0  0  0  0  0
  -22.0390  -12.8690   22.0740 N   0  0  0  0  0  0  0  0  0  0  0  0
  -22.3200  -14.5790   20.6710 O   0  0  0  0  0  0  0  0  0  0  0  0
  -22.4080  -12.0410   22.5170 H   0  0  0  0  0  0  0  0  0  0  0  0
  -21.1050  -13.1750   22.3090 H   0  0  0  0  0  0  0  0  0  0  0  0
  -25.3840  -15.2120   20.3510 N   0  0  0  0  0  0  0  0  0  0  0  0
  -24.6070  -15.8530   20.4580 H   0  0  0  0  0  0  0  0  0  0  0  0
  -26.2160  -15.6520   19.9780 H   0  0  0  0  0  0  0  0  0  0  0  0
  -28.9630  -24.7780   18.7220 C   0  0  0  0  0  2  0  0  0  0  0  0
  -28.4420  -25.3070   20.0770 C   0  0  0  0  0  2  0  0  0  0  0  0
  -28.4400  -26.7440   20.1170 O   0  0  0  0  0  0  0  0  0  0  0  0
  -24.6260  -31.8800   23.2330 C   0  0  0  0  0  0  0  0  0  0  0  0
  -27.2450  -27.4330   20.1260 C   0  0  0  0  0  0  0  0  0  0  0  0
  -23.4040  -30.4790   21.6030 C   0  0  0  0  0  3  0  0  0  0  0  0
  -24.8410  -28.9380   20.1660 C   0  0  0  0  0  0  0  0  0  0  0  0
  -25.9290  -30.8340   21.3830 C   0  0  0  0  0  2  0  0  0  0  0  0
  -26.0040  -29.4630   20.7400 C   0  0  0  0  0  0  0  0  0  0  0  0
  -27.2050  -28.7180   20.7120 C   0  0  0  0  0  3  0  0  0  0  0  0
  -26.0600  -26.9190   19.5460 C   0  0  0  0  0  3  0  0  0  0  0  0
  -24.8650  -27.6640   19.5700 C   0  0  0  0  0  3  0  0  0  0  0  0
  -23.5980  -29.7980   20.2220 C   0  0  0  0  0  2  0  0  0  0  0  0
  -24.6720  -31.0790   22.1310 N   0  0  0  0  0  0  0  0  0  0  0  0
  -23.5490  -32.1530   23.7820 O   0  0  0  0  0  0  0  0  0  0  0  0
  -22.7570  -29.4620   22.5720 C   0  0  0  0  0  0  0  0  0  0  0  0
  -21.4310  -29.2780   22.4510 N   0  0  0  0  0  0  0  0  0  0  0  0
  -23.4430  -28.8430   23.3900 O   0  0  0  0  0  0  0  0  0  0  0  0
  -20.9370  -29.8230   21.7590 H   0  0  0  0  0  0  0  0  0  0  0  0
  -18.0680  -28.0650   22.9570 C   0  0  0  0  0  0  0  0  0  0  0  0
  -20.6230  -28.3400   23.2290 C   0  0  0  0  0  3  0  0  0  0  0  0
  -20.7370  -26.9060   22.6620 C   0  0  0  0  0  2  0  0  0  0  0  0
  -19.6370  -26.5690   21.6510 C   0  0  0  0  0  2  0  0  0  0  0  0
  -18.2540  -26.7120   22.2930 C   0  0  0  0  0  2  0  0  0  0  0  0
  -19.1810  -28.8360   23.3830 C   0  0  0  0  0  0  0  0  0  0  0  0
  -18.9560  -30.1040   23.9640 C   0  0  0  0  0  3  0  0  0  0  0  0
  -17.6470  -30.6000   24.1220 C   0  0  0  0  0  3  0  0  0  0  0  0
  -16.5480  -29.8240   23.7130 C   0  0  0  0  0  3  0  0  0  0  0  0
  -16.7590  -28.5590   23.1370 C   0  0  0  0  0  3  0  0  0  0  0  0
  -25.9170  -32.5120   23.8390 C   0  0  0  0  0  3  0  0  0  0  0  0
  -25.6100  -33.9090   24.1730 N   0  0  0  0  0  0  0  0  0  0  0  0
  -25.9420  -34.9610   23.4110 C   0  0  0  0  0  0  0  0  0  0  0  0
  -26.6080  -34.8560   22.3770 O   0  0  0  0  0  0  0  0  0  0  0  0
  -25.0200  -34.0640   24.9760 H   0  0  0  0  0  0  0  0  0  0  0  0
  -24.2150  -36.7550   23.0700 C   0  0  0  0  0  1  0  0  0  0  0  0
  -25.4610  -36.3490   23.8740 C   0  0  0  0  0  3  0  0  0  0  0  0
  -27.6020  -37.2320   24.6880 C   0  0  0  0  0  1  0  0  0  0  0  0
  -26.4950  -37.4000   23.7500 N   0  0  0  0  0  0  0  0  0  0  0  0
  -26.0930  -38.3220   23.8980 H   0  0  0  0  0  0  0  0  0  0  0  0
  -26.4470  -31.7410   25.1110 C   0  0  1  0  0  0  0  0  0  0  0  0
  -25.3640  -31.5070   26.1900 C   0  0  0  0  0  1  0  0  0  0  0  0
  -27.0230  -30.3630   24.7120 C   0  0  0  0  0  1  0  0  0  0  0  0
  -27.6050  -32.5330   25.7600 C   0  0  0  0  0  1  0  0  0  0  0  0
  1 49  1  0
  1  4  1  0
  2  1  2  0
  3  2  1  0
  4  5  1  0
  6  5  1  0
  6  7  1  0
  7  8  1  0
  7  9  2  0
  8 11  1  0
 10  8  1  0
 11 12  1  0
 13 12  1  0
 14 19  1  0
 15 16  1  0
 15 14  1  0
 17 16  1  0
 17 24  1  0
 17 18  1  0
 19 13  1  0
 19 18  1  0
 20 13  2  0
 21 22  2  0
 22 41  1  0
 23 22  1  0
 23 26  1  0
 24 21  1  0
 24 25  1  0
 25 23  2  0
 26 27  1  0
 27 28  2  0
 29 32  1  0
 29 28  1  0
 30 29  2  0
 31 30  1  0
 31 26  2  0
 32 33  1  0
 33 34  1  0
 34 35  2  0
 36 35  1  0
 36 40  1  0
 37 36  2  0
 38 33  2  0
 38 37  1  0
 39 38  1  0
 41 42  1  0
 42 45  1  0
 42 44  1  0
 43 41  2  0
 46 47  1  0
 46 21  1  0
 48 46  1  0
 49 50  1  0
 50 51  1  0
 51 53  1  0
 52 63  2  0
 53 58  1  0
 54 62  1  0
 54 64  1  0
 55 61  1  0
 55 57  1  0
 56 62  1  0
 57 56  1  0
 58 57  2  0
 59 60  1  0
 59 53  2  0
 60 55  2  0
 61 54  1  0
 62 52  1  0
 64 66  2  0
 65 64  1  0
 67 65  1  0
 68 77  2  0
 68 73  1  0
 69 65  1  0
 69 73  1  0
 70 69  1  0
 71 72  1  0
 71 70  1  0
 72 68  1  0
 73 74  2  0
 74 75  1  0
 76 75  2  0
 77 76  1  0
 78 52  1  0
 78 79  1  0
 78 88  1  0
 79 82  1  0
 80 84  1  0
 80 79  1  0
 81 80  2  0
 84 83  1  0
 86 84  1  0
 86 87  1  0
 86 85  1  0
 88 91  1  1
 88 89  1  0
 90 88  1  0
M  ISO  4  12 100  13 100  50 101  51 101
M  END
>  <TORSDO>  (33) 
F 24

>  <SCORE>  (33) 
-12.399

>  <name>  (33) 
33

>  <ligand_id>  (33) 
33

>  <original_smiles>  (33) 
[H]N=C(C([H])([H])C([H])([H])Oc1c([H])c([H])c2c(c1[H])C([H])([H])N(C(=O)C([H])(N([H])C(=O)C([H])(N([H])C([H])([H])[H])C([H])([H])[H])C(C([H])([H])[H])(C([H])([H])[H])C([H])([H])[H])C([H])(C(=O)N([H])C1([H])c3c([H])c([H])c([H])c([H])c3C([H])([H])C([H])([H])C1([H])[H])C2([H])[H])C([H])([H])C([H])([H])C([H])([H])C(=O)N([H])C([H])([H])C([H])([H])C(=O)N1C([H])([H])C([H])([H])C([H])([H])C([H])(n2nc(-c3c([H])c([H])c(Oc4c([H])c([H])c(F)c([H])c4F)c([H])c3[H])c(C(=O)N([H])[H])c2N([H])[H])C1([H])[H]

>  <smiles>  (33) 
[H]N=C(C([H])([H])C([H])([H])Oc1c([H])c([H])c2c(c1[H])C([H])([H])N(C(=O)C([H])(N([H])C(=O)C([H])(N([H])C([H])([H])[H])C([H])([H])[H])C(C([H])([H])[H])(C([H])([H])[H])C([H])([H])[H])C([H])(C(=O)N([H])C1([H])c3c([H])c([H])c([H])c([H])c3C([H])([H])C([H])([H])C1([H])[H])C2([H])[H])C([H])([H])C([H])([H])C([H])([H])C(=O)N([H])C([H])([H])C([H])([H])C(=O)N1C([H])([H])C([H])([H])C([H])([H])C([H])(n2nc(-c3c([H])c([H])c(Oc4c([H])c([H])c(F)c([H])c4F)c([H])c3[H])c(C(=O)N([H])[H])c2N([H])[H])C1([H])[H]

$$$$
34:0:0
     RDKit          3D

 92 99  0  0  1  0  0  0  0  0999 V2000
  -29.2250  -20.3560   20.0100 C   0  0  0  0  0  3  0  0  0  0  0  0
  -30.4100  -20.4480   19.0090 C   0  0  0  0  0  2  0  0  0  0  0  0
  -30.7190  -21.7790   18.2950 C   0  0  0  0  0  2  0  0  0  0  0  0
  -30.0310  -21.9560   17.0010 N   0  0  0  0  0  4  0  0  0  0  0  0
  -30.4200  -21.2980   16.3450 H   0  0  0  0  0  0  0  0  0  0  0  0
  -29.0500  -21.7460   17.0920 H   0  0  0  0  0  0  0  0  0  0  0  0
  -30.5270  -23.3250   14.9580 C   0  0  0  0  0  1  0  0  0  0  0  0
  -30.1820  -23.3210   16.4520 C   0  0  0  0  0  2  0  0  0  0  0  0
  -28.8610  -22.1580   20.6250 C   0  0  0  0  0  2  0  0  0  0  0  0
  -28.1760  -23.8650   20.0340 C   0  0  0  0  0  2  0  0  0  0  0  0
  -28.2320  -25.5730   20.3870 O   0  0  0  0  0  0  0  0  0  0  0  0
  -24.6710  -31.8260   23.1740 C   0  0  0  0  0  0  0  0  0  0  0  0
  -27.2510  -26.7570   20.2620 C   0  0  0  0  0  0  0  0  0  0  0  0
  -23.5010  -30.4020   21.5440 C   0  0  0  0  0  3  0  0  0  0  0  0
  -24.9690  -28.7530   20.1560 C   0  0  0  0  0  0  0  0  0  0  0  0
  -26.0790  -30.5640   21.4400 C   0  0  0  0  0  2  0  0  0  0  0  0
  -26.1550  -29.1300   20.7990 C   0  0  0  0  0  0  0  0  0  0  0  0
  -27.2770  -28.1570   20.8240 C   0  0  0  0  0  3  0  0  0  0  0  0
  -26.0360  -26.5820   19.5500 C   0  0  0  0  0  3  0  0  0  0  0  0
  -24.9480  -27.5070   19.5040 C   0  0  0  0  0  3  0  0  0  0  0  0
  -23.7550  -29.6920   20.1810 C   0  0  0  0  0  2  0  0  0  0  0  0
  -24.7730  -30.9650   22.1040 N   0  0  0  0  0  0  0  0  0  0  0  0
  -23.5720  -32.1240   23.6730 O   0  0  0  0  0  0  0  0  0  0  0  0
  -22.7870  -29.4290   22.5190 C   0  0  0  0  0  0  0  0  0  0  0  0
  -21.4530  -29.2820   22.3970 N   0  0  0  0  0  0  0  0  0  0  0  0
  -23.4410  -28.8050   23.3580 O   0  0  0  0  0  0  0  0  0  0  0  0
  -20.9780  -29.8320   21.6950 H   0  0  0  0  0  0  0  0  0  0  0  0
  -18.0560  -28.1120   22.9310 C   0  0  0  0  0  0  0  0  0  0  0  0
  -20.6200  -28.3560   23.1720 C   0  0  0  0  0  3  0  0  0  0  0  0
  -20.7020  -26.9240   22.5920 C   0  0  0  0  0  2  0  0  0  0  0  0
  -19.5890  -26.6140   21.5860 C   0  0  0  0  0  2  0  0  0  0  0  0
  -18.2120  -26.7670   22.2410 C   0  0  0  0  0  2  0  0  0  0  0  0
  -19.1840  -28.8650   23.3510 C   0  0  0  0  0  0  0  0  0  0  0  0
  -18.9770  -30.1210   23.9620 C   0  0  0  0  0  3  0  0  0  0  0  0
  -17.6770  -30.6270   24.1500 C   0  0  0  0  0  3  0  0  0  0  0  0
  -16.5640  -29.8730   23.7410 C   0  0  0  0  0  3  0  0  0  0  0  0
  -16.7530  -28.6150   23.1410 C   0  0  0  0  0  3  0  0  0  0  0  0
  -25.9270  -32.4860   23.8190 C   0  0  0  0  0  3  0  0  0  0  0  0
  -26.4230  -31.7340   25.1160 C   0  0  1  0  0  0  0  0  0  0  0  0
  -25.3080  -31.5090   26.1660 C   0  0  0  0  0  1  0  0  0  0  0  0
  -27.0180  -30.3540   24.7640 C   0  0  0  0  0  1  0  0  0  0  0  0
  -27.5650  -32.5380   25.7840 C   0  0  0  0  0  1  0  0  0  0  0  0
  -25.5940  -33.8870   24.1480 N   0  0  0  0  0  0  0  0  0  0  0  0
  -25.9320  -34.9540   23.4110 C   0  0  0  0  0  0  0  0  0  0  0  0
  -26.6130  -34.8640   22.3870 O   0  0  0  0  0  0  0  0  0  0  0  0
  -24.9920  -34.0310   24.9460 H   0  0  0  0  0  0  0  0  0  0  0  0
  -24.1940  -36.7450   23.0680 C   0  0  0  0  0  1  0  0  0  0  0  0
  -25.4370  -36.3420   23.8780 C   0  0  0  0  0  3  0  0  0  0  0  0
  -27.5650  -37.2310   24.7230 C   0  0  0  0  0  1  0  0  0  0  0  0
  -26.4660  -37.4000   23.7760 N   0  0  0  0  0  0  0  0  0  0  0  0
  -26.0570  -38.3190   23.9260 H   0  0  0  0  0  0  0  0  0  0  0  0
  -29.6290  -18.6330   20.7770 C   0  0  0  0  0  0  0  0  0  0  0  0
  -30.3240  -15.5760   20.2790 C   0  0  0  0  0  0  0  0  0  0  0  0
  -30.3820  -13.0740   19.3640 C   0  0  0  0  0  2  0  0  0  0  0  0
  -29.4640  -12.7300   18.1570 C   0  0  0  0  0  2  0  0  0  0  0  0
  -28.0430  -12.3790   18.6280 C   0  0  0  0  0  2  0  0  0  0  0  0
  -27.5600  -13.3500   19.7300 C   0  0  0  0  0  3  0  0  0  0  0  0
  -28.6170  -13.6120   20.8270 C   0  0  0  0  0  2  0  0  0  0  0  0
  -29.7800  -14.2350   20.1530 N   0  0  0  0  0  0  0  0  0  0  0  0
  -31.5600  -15.5170   20.1580 O   0  0  0  0  0  0  0  0  0  0  0  0
  -29.5610  -16.9220   20.3400 N   0  0  0  0  0  4  0  0  0  0  0  0
  -28.5870  -16.6850   20.2160 H   0  0  0  0  0  0  0  0  0  0  0  0
  -25.2040  -13.8630   20.5280 C   0  0  0  0  0  0  0  0  0  0  0  0
  -24.1570  -13.0710   20.9060 C   0  0  0  0  0  0  0  0  0  0  0  0
  -24.6410  -11.7280   20.8600 C   0  0  0  0  0  0  0  0  0  0  0  0
  -26.2540  -13.0040   20.2660 N   0  0  0  0  0  0  0  0  0  0  0  0
  -25.9300  -11.7110   20.5340 N   0  0  0  0  0  0  0  0  0  0  0  0
  -23.9280  -10.4550   21.0490 C   0  0  0  0  0  0  0  0  0  0  0  0
  -24.3780   -9.4840   21.9690 C   0  0  0  0  0  3  0  0  0  0  0  0
  -23.6630   -8.2800   22.1490 C   0  0  0  0  0  3  0  0  0  0  0  0
  -22.4810   -8.0400   21.4090 C   0  0  0  0  0  0  0  0  0  0  0  0
  -22.0520   -8.9970   20.4740 C   0  0  0  0  0  3  0  0  0  0  0  0
  -22.7670  -10.1920   20.2920 C   0  0  0  0  0  3  0  0  0  0  0  0
  -21.7390   -6.8880   21.4980 O   0  0  0  0  0  0  0  0  0  0  0  0
  -21.7100   -6.1350   22.6460 C   0  0  0  0  0  0  0  0  0  0  0  0
  -21.3070   -6.6770   23.8850 C   0  0  0  0  0  3  0  0  0  0  0  0
  -21.2320   -5.8520   25.0240 C   0  0  0  0  0  3  0  0  0  0  0  0
  -21.5440   -4.4830   24.9240 C   0  0  0  0  0  0  0  0  0  0  0  0
  -21.9340   -3.9380   23.6870 C   0  0  0  0  0  3  0  0  0  0  0  0
  -22.0140   -4.7620   22.5520 C   0  0  0  0  0  0  0  0  0  0  0  0
  -22.3740   -4.2290   21.3600 F   0  0  0  0  0  0  0  0  0  0  0  0
  -21.4590   -3.6860   26.0140 F   0  0  0  0  0  0  0  0  0  0  0  0
  -22.7570  -13.5310   21.1860 C   0  0  0  0  0  0  0  0  0  0  0  0
  -22.0440  -12.8260   22.0570 N   0  0  0  0  0  0  0  0  0  0  0  0
  -22.3050  -14.5500   20.6690 O   0  0  0  0  0  0  0  0  0  0  0  0
  -22.4250  -12.0030   22.5030 H   0  0  0  0  0  0  0  0  0  0  0  0
  -21.1010  -13.1110   22.2800 H   0  0  0  0  0  0  0  0  0  0  0  0
  -25.3530  -15.2380   20.3530 N   0  0  0  0  0  0  0  0  0  0  0  0
  -24.5770  -15.8830   20.4550 H   0  0  0  0  0  0  0  0  0  0  0  0
  -26.1720  -15.6730   19.9500 H   0  0  0  0  0  0  0  0  0  0  0  0
  -31.1290  -20.0100   22.4220 C   0  0  0  0  0  1  0  0  0  0  0  0
  -30.9420  -18.7350   21.5910 C   0  0  0  0  0  2  0  0  0  0  0  0
  1  2  1  0
  1  9  1  0
  1 52  1  0
  3  2  1  0
  4  6  1  0
  4  3  1  0
  5  4  1  0
  7  8  1  0
  8  4  1  0
 10 11  1  0
 10  9  1  0
 12 23  2  0
 13 11  1  0
 13 18  1  0
 14 22  1  0
 14 24  1  0
 15 21  1  0
 15 17  1  0
 16 22  1  0
 17 18  2  0
 17 16  1  0
 19 13  2  0
 20 19  1  0
 20 15  2  0
 21 14  1  0
 22 12  1  0
 24 26  2  0
 25 24  1  0
 27 25  1  0
 28 37  2  0
 28 33  1  0
 29 25  1  0
 29 33  1  0
 30 29  1  0
 31 32  1  0
 31 30  1  0
 32 28  1  0
 33 34  2  0
 34 35  1  0
 36 35  2  0
 37 36  1  0
 38 12  1  0
 38 43  1  0
 38 39  1  0
 39 42  1  1
 39 40  1  0
 41 39  1  0
 43 46  1  0
 44 48  1  0
 44 43  1  0
 45 44  2  0
 48 47  1  0
 50 48  1  0
 50 51  1  0
 50 49  1  0
 52 92  1  0
 53 61  1  0
 54 59  1  0
 55 56  1  0
 55 54  1  0
 57 56  1  0
 57 66  1  0
 57 58  1  0
 59 53  1  0
 59 58  1  0
 60 53  2  0
 61 52  2  0
 62 61  1  0
 63 64  2  0
 64 83  1  0
 65 64  1  0
 65 68  1  0
 66 63  1  0
 66 67  1  0
 67 65  2  0
 68 69  1  0
 69 70  2  0
 71 74  1  0
 71 70  1  0
 72 71  2  0
 73 72  1  0
 73 68  2  0
 74 75  1  0
 75 76  1  0
 76 77  2  0
 78 77  1  0
 78 82  1  0
 79 78  2  0
 80 75  2  0
 80 79  1  0
 81 80  1  0
 83 84  1  0
 84 87  1  0
 84 86  1  0
 85 83  2  0
 88 89  1  0
 88 63  1  0
 90 88  1  0
 92 91  1  0
M  ISO  4  10 101  11 101  53 100  61 100
M  END
>  <TORSDO>  (34) 
F 24

>  <SCORE>  (34) 
-14.717

>  <name>  (34) 
34

>  <ligand_id>  (34) 
34

>  <original_smiles>  (34) 
[H]c1c([H])c([H])c2c(c1[H])C([H])([H])C([H])([H])C([H])([H])C2([H])N([H])C(=O)C1([H])N(C(=O)C([H])(N([H])C(=O)C([H])(N([H])C([H])([H])[H])C([H])([H])[H])C(C([H])([H])[H])(C([H])([H])[H])C([H])([H])[H])C([H])([H])c2c([H])c(OC([H])([H])C([H])([H])C([H])(C([H])([H])C([H])([H])[N+]([H])([H])C([H])([H])C([H])([H])[H])C([H])(N([H])C(=O)N3C([H])([H])C([H])([H])C([H])([H])C([H])(n4nc(-c5c([H])c([H])c(Oc6c([H])c([H])c(F)c([H])c6F)c([H])c5[H])c(C(=O)N([H])[H])c4N([H])[H])C3([H])[H])C([H])([H])C([H])([H])[H])c([H])c([H])c2C1([H])[H]

>  <smiles>  (34) 
[H]c1c([H])c([H])c2c(c1[H])C([H])([H])C([H])([H])C([H])([H])C2([H])N([H])C(=O)C1([H])N(C(=O)C([H])(N([H])C(=O)C([H])(N([H])C([H])([H])[H])C([H])([H])[H])C(C([H])([H])[H])(C([H])([H])[H])C([H])([H])[H])C([H])([H])c2c([H])c(OC([H])([H])C([H])([H])C([H])(C([H])([H])C([H])([H])[N+]([H])([H])C([H])([H])C([H])([H])[H])C([H])(N([H])C(=O)N3C([H])([H])C([H])([H])C([H])([H])C([H])(n4nc(-c5c([H])c([H])c(Oc6c([H])c([H])c(F)c([H])c6F)c([H])c5[H])c(C(=O)N([H])[H])c4N([H])[H])C3([H])[H])C([H])([H])C([H])([H])[H])c([H])c([H])c2C1([H])[H]

$$$$
35:0:0
     RDKit          3D

 95103  0  0  1  0  0  0  0  0999 V2000
  -29.8770  -19.1010   19.0070 N   0  0  0  0  0  4  0  0  0  0  0  0
  -28.8970  -19.0030   18.7960 H   0  0  0  0  0  0  0  0  0  0  0  0
  -30.3420  -19.2330   18.1240 H   0  0  0  0  0  0  0  0  0  0  0  0
  -30.8780  -14.0190   18.4850 C   0  0  0  0  0  0  0  0  0  0  0  0
  -30.1230  -11.9230   17.3560 C   0  0  0  0  0  2  0  0  0  0  0  0
  -28.8530  -12.1790   16.5180 C   0  0  0  0  0  2  0  0  0  0  0  0
  -27.5870  -12.0520   17.3820 C   0  0  0  0  0  2  0  0  0  0  0  0
  -27.7060  -12.8210   18.7220 C   0  0  0  0  0  3  0  0  0  0  0  0
  -29.0430  -12.5250   19.4240 C   0  0  0  0  0  2  0  0  0  0  0  0
  -30.1240  -12.8690   18.4930 N   0  0  0  0  0  0  0  0  0  0  0  0
  -31.7940  -14.1520   17.6670 O   0  0  0  0  0  0  0  0  0  0  0  0
  -29.7760  -17.4450   20.9650 C   0  0  0  0  0  2  0  0  0  0  0  0
  -30.1800  -16.4490   18.6780 C   0  0  0  0  0  2  0  0  0  0  0  0
  -31.1590  -15.2500   20.6260 C   0  0  0  0  0  3  0  0  0  0  0  0
  -30.2740  -16.1070   21.6000 C   0  0  0  0  0  3  0  0  0  0  0  0
  -30.3820  -17.7670   19.5840 C   0  0  0  0  0  3  0  0  0  0  0  0
  -30.5120  -15.0880   19.2940 N   0  0  0  0  0  0  0  0  0  0  0  0
  -25.7560  -13.4670   20.2600 C   0  0  0  0  0  0  0  0  0  0  0  0
  -24.7860  -12.7240   20.8740 C   0  0  0  0  0  0  0  0  0  0  0  0
  -25.0570  -11.3630   20.5360 C   0  0  0  0  0  0  0  0  0  0  0  0
  -26.5660  -12.5600   19.5960 N   0  0  0  0  0  0  0  0  0  0  0  0
  -26.1700  -11.2800   19.8160 N   0  0  0  0  0  0  0  0  0  0  0  0
  -24.2870  -10.1430   20.8100 C   0  0  0  0  0  0  0  0  0  0  0  0
  -24.7240   -9.1970   21.7630 C   0  0  0  0  0  3  0  0  0  0  0  0
  -23.9570   -8.0430   22.0290 C   0  0  0  0  0  3  0  0  0  0  0  0
  -22.7390   -7.8250   21.3410 C   0  0  0  0  0  0  0  0  0  0  0  0
  -22.3200   -8.7590   20.3760 C   0  0  0  0  0  3  0  0  0  0  0  0
  -23.0870   -9.9070   20.1090 C   0  0  0  0  0  3  0  0  0  0  0  0
  -21.9480   -6.7140   21.5160 O   0  0  0  0  0  0  0  0  0  0  0  0
  -21.7280   -6.1710   22.7570 C   0  0  0  0  0  0  0  0  0  0  0  0
  -21.1340   -6.9160   23.8000 C   0  0  0  0  0  3  0  0  0  0  0  0
  -20.8520   -6.2970   25.0370 C   0  0  0  0  0  3  0  0  0  0  0  0
  -21.1630   -4.9370   25.2310 C   0  0  0  0  0  0  0  0  0  0  0  0
  -21.7500   -4.1940   24.1930 C   0  0  0  0  0  3  0  0  0  0  0  0
  -22.0270   -4.8090   22.9600 C   0  0  0  0  0  0  0  0  0  0  0  0
  -22.5700   -4.0810   21.9530 F   0  0  0  0  0  0  0  0  0  0  0  0
  -20.8880   -4.3410   26.4150 F   0  0  0  0  0  0  0  0  0  0  0  0
  -23.6160  -13.2530   21.6520 C   0  0  0  0  0  0  0  0  0  0  0  0
  -23.1770  -12.5200   22.6660 N   0  0  0  0  0  0  0  0  0  0  0  0
  -23.1110  -14.3440   21.3880 O   0  0  0  0  0  0  0  0  0  0  0  0
  -23.5950  -11.6260   22.8870 H   0  0  0  0  0  0  0  0  0  0  0  0
  -22.4030  -12.8530   23.2210 H   0  0  0  0  0  0  0  0  0  0  0  0
  -26.0010  -14.8340   20.1960 N   0  0  0  0  0  0  0  0  0  0  0  0
  -25.3740  -15.5070   20.6200 H   0  0  0  0  0  0  0  0  0  0  0  0
  -26.7770  -15.2590   19.7070 H   0  0  0  0  0  0  0  0  0  0  0  0
  -31.8270  -13.9800   21.2470 C   0  0  0  0  0  0  0  0  0  0  0  0
  -33.3150  -13.7740   20.9940 C   0  0  0  0  0  1  0  0  0  0  0  0
  -31.2170  -13.1190   21.8770 O   0  0  0  0  0  0  0  0  0  0  0  0
  -27.9310  -16.1760   22.7500 C   0  0  0  0  0  1  0  0  0  0  0  0
  -29.1140  -15.3240   22.2670 C   0  0  0  0  0  2  0  0  0  0  0  0
  -30.0570  -20.4080   19.7950 C   0  0  0  0  0  3  0  0  0  0  0  0
  -29.7550  -21.8040   19.0400 C   0  0  0  0  0  3  0  0  0  0  0  0
  -29.7270  -23.2020   19.8460 C   0  0  0  0  0  3  0  0  0  0  0  0
  -29.4310  -24.5600   19.0350 C   0  0  0  0  0  3  0  0  0  0  0  0
  -29.1900  -25.8610   19.7290 O   0  0  0  0  0  0  0  0  0  0  0  0
  -24.9580  -30.8630   22.7600 C   0  0  0  0  0  0  0  0  0  0  0  0
  -28.0050  -26.6200   19.6250 C   0  0  0  0  0  0  0  0  0  0  0  0
  -23.9330  -29.4920   20.9810 C   0  0  0  0  0  3  0  0  0  0  0  0
  -25.5480  -28.1100   19.5580 C   0  0  0  0  0  0  0  0  0  0  0  0
  -26.4560  -29.9630   20.9620 C   0  0  0  0  0  2  0  0  0  0  0  0
  -26.6510  -28.6280   20.2470 C   0  0  0  0  0  0  0  0  0  0  0  0
  -27.8780  -27.8960   20.2680 C   0  0  0  0  0  3  0  0  0  0  0  0
  -26.8680  -26.1580   18.9180 C   0  0  0  0  0  3  0  0  0  0  0  0
  -25.6620  -26.8830   18.8870 C   0  0  0  0  0  3  0  0  0  0  0  0
  -24.2620  -28.9110   19.5810 C   0  0  0  0  0  2  0  0  0  0  0  0
  -25.1300  -30.1220   21.6270 N   0  0  0  0  0  0  0  0  0  0  0  0
  -23.8320  -31.0490   23.2440 O   0  0  0  0  0  0  0  0  0  0  0  0
  -23.2810  -28.3880   21.8470 C   0  0  0  0  0  0  0  0  0  0  0  0
  -21.9920  -28.1030   21.5930 N   0  0  0  0  0  0  0  0  0  0  0  0
  -23.9370  -27.7960   22.7080 O   0  0  0  0  0  0  0  0  0  0  0  0
  -21.5230  -28.6410   20.8780 H   0  0  0  0  0  0  0  0  0  0  0  0
  -18.6700  -26.6980   21.8410 C   0  0  0  0  0  0  0  0  0  0  0  0
  -21.1940  -27.0710   22.2560 C   0  0  0  0  0  3  0  0  0  0  0  0
  -21.4010  -25.6910   21.5900 C   0  0  0  0  0  2  0  0  0  0  0  0
  -20.3690  -25.3840   20.5000 C   0  0  0  0  0  2  0  0  0  0  0  0
  -18.9500  -25.4160   21.0750 C   0  0  0  0  0  2  0  0  0  0  0  0
  -19.7220  -27.4830   22.3800 C   0  0  0  0  0  0  0  0  0  0  0  0
  -19.4060  -28.6850   23.0480 C   0  0  0  0  0  3  0  0  0  0  0  0
  -18.0700  -29.1030   23.1850 C   0  0  0  0  0  3  0  0  0  0  0  0
  -17.0290  -28.3130   22.6650 C   0  0  0  0  0  3  0  0  0  0  0  0
  -17.3310  -27.1110   22.0000 C   0  0  0  0  0  3  0  0  0  0  0  0
  -26.1660  -31.5310   23.4890 C   0  0  0  0  0  3  0  0  0  0  0  0
  -25.7110  -32.8340   23.9970 N   0  0  0  0  0  0  0  0  0  0  0  0
  -25.9820  -34.0120   23.4210 C   0  0  0  0  0  0  0  0  0  0  0  0
  -26.7070  -34.1200   22.4280 O   0  0  0  0  0  0  0  0  0  0  0  0
  -25.0660  -32.8170   24.7720 H   0  0  0  0  0  0  0  0  0  0  0  0
  -24.1360  -35.7090   23.2030 C   0  0  0  0  0  1  0  0  0  0  0  0
  -25.3490  -35.2720   24.0420 C   0  0  0  0  0  3  0  0  0  0  0  0
  -27.3350  -36.1670   25.1750 C   0  0  0  0  0  1  0  0  0  0  0  0
  -26.2940  -36.4020   24.1770 N   0  0  0  0  0  0  0  0  0  0  0  0
  -25.8020  -37.2570   24.4250 H   0  0  0  0  0  0  0  0  0  0  0  0
  -26.7430  -30.6500   24.6650 C   0  0  1  0  0  0  0  0  0  0  0  0
  -25.6590  -30.0780   25.6070 C   0  0  0  0  0  1  0  0  0  0  0  0
  -27.5580  -29.4600   24.1070 C   0  0  0  0  0  1  0  0  0  0  0  0
  -27.7220  -31.4930   25.5170 C   0  0  0  0  0  1  0  0  0  0  0  0
  1 51  1  0
  2  1  1  0
  3  1  1  0
  4 10  1  0
  4 17  1  0
  5 10  1  0
  6  5  1  0
  6  7  1  0
  8  7  1  0
  8  9  1  0
  8 21  1  0
 10  9  1  0
 11  4  2  0
 12 15  1  0
 13 17  1  0
 13 16  1  0
 14 46  1  0
 14 15  1  0
 15 50  1  0
 16  1  1  0
 16 12  1  0
 17 14  1  0
 18 19  2  0
 19 38  1  0
 20 23  1  0
 20 19  1  0
 21 22  1  0
 21 18  1  0
 22 20  2  0
 23 24  1  0
 24 25  2  0
 26 29  1  0
 26 25  1  0
 27 26  2  0
 28 27  1  0
 28 23  2  0
 29 30  1  0
 30 35  2  0
 30 31  1  0
 31 32  2  0
 32 33  1  0
 33 37  1  0
 34 33  2  0
 35 34  1  0
 36 35  1  0
 38 39  1  0
 39 41  1  0
 39 42  1  0
 40 38  2  0
 43 18  1  0
 43 44  1  0
 45 43  1  0
 46 48  2  0
 47 46  1  0
 50 49  1  0
 52 51  2  0
 52 53  1  0
 54 55  1  0
 54 53  2  0
 56 67  2  0
 57 55  1  0
 57 62  1  0
 58 66  1  0
 58 68  1  0
 59 65  1  0
 59 61  1  0
 60 66  1  0
 61 62  2  0
 61 60  1  0
 63 57  2  0
 64 63  1  0
 64 59  2  0
 65 58  1  0
 66 56  1  0
 68 70  2  0
 69 68  1  0
 71 69  1  0
 72 81  2  0
 72 77  1  0
 73 69  1  0
 73 77  1  0
 74 73  1  0
 75 76  1  0
 75 74  1  0
 76 72  1  0
 77 78  2  0
 78 79  1  0
 80 79  2  0
 81 80  1  0
 82 56  1  0
 82 83  1  0
 82 92  1  0
 83 86  1  0
 84 83  1  0
 84 88  1  0
 85 84  2  0
 88 87  1  0
 88 90  1  0
 90 91  1  0
 90 89  1  0
 92 95  1  1
 92 93  1  0
 94 92  1  0
M  ISO  4   4 100  17 100  54 101  55 101
M  END
>  <TORSDO>  (35) 
F 22

>  <SCORE>  (35) 
2.113

>  <name>  (35) 
35

>  <ligand_id>  (35) 
35

>  <original_smiles>  (35) 
[H]c1c([H])c([H])c2c(c1[H])C([H])([H])C([H])([H])C([H])([H])C2([H])N([H])C(=O)C1([H])N(C(=O)C([H])(N([H])C(=O)C([H])(N([H])C([H])([H])[H])C([H])([H])[H])C(C([H])([H])[H])(C([H])([H])[H])C([H])([H])[H])C([H])([H])c2c([H])c(OC([H])([H])C([H])([H])C([H])([H])C([H])([H])[N+]([H])([H])C3([H])C([H])([H])N(C(=O)N4C([H])([H])C([H])([H])C([H])([H])C([H])(n5nc(-c6c([H])c([H])c(Oc7c([H])c([H])c(F)c([H])c7F)c([H])c6[H])c(C(=O)N([H])[H])c5N([H])[H])C4([H])[H])C([H])(C(=O)C([H])([H])[H])C([H])(C([H])([H])C([H])([H])[H])C3([H])[H])c([H])c([H])c2C1([H])[H]

>  <smiles>  (35) 
[H]c1c([H])c([H])c2c(c1[H])C([H])([H])C([H])([H])C([H])([H])C2([H])N([H])C(=O)C1([H])N(C(=O)C([H])(N([H])C(=O)C([H])(N([H])C([H])([H])[H])C([H])([H])[H])C(C([H])([H])[H])(C([H])([H])[H])C([H])([H])[H])C([H])([H])c2c([H])c(OC([H])([H])C([H])([H])C([H])([H])C([H])([H])[N+]([H])([H])C3([H])C([H])([H])N(C(=O)N4C([H])([H])C([H])([H])C([H])([H])C([H])(n5nc(-c6c([H])c([H])c(Oc7c([H])c([H])c(F)c([H])c7F)c([H])c6[H])c(C(=O)N([H])[H])c5N([H])[H])C4([H])[H])C([H])(C(=O)C([H])([H])[H])C([H])(C([H])([H])C([H])([H])[H])C3([H])[H])c([H])c([H])c2C1([H])[H]

$$$$
36:0:0
     RDKit          3D

 90 97  0  0  1  0  0  0  0  0999 V2000
  -29.9430  -22.4030   18.9130 C   0  0  0  0  0  1  0  0  0  0  0  0
  -29.3110  -22.7940   20.2620 C   0  0  0  0  0  3  0  0  0  0  0  0
  -29.3990  -24.3400   20.5060 C   0  0  0  0  0  2  0  0  0  0  0  0
  -28.2430  -25.1690   19.8880 C   0  0  0  0  0  2  0  0  0  0  0  0
  -28.3360  -26.5780   20.2010 O   0  0  0  0  0  0  0  0  0  0  0  0
  -24.5630  -31.8230   23.2370 C   0  0  0  0  0  0  0  0  0  0  0  0
  -27.1710  -27.3310   20.1650 C   0  0  0  0  0  0  0  0  0  0  0  0
  -23.3510  -30.4330   21.5920 C   0  0  0  0  0  3  0  0  0  0  0  0
  -24.7930  -28.8830   20.1680 C   0  0  0  0  0  0  0  0  0  0  0  0
  -25.8830  -30.7560   21.4100 C   0  0  0  0  0  2  0  0  0  0  0  0
  -25.9560  -29.3840   20.7660 C   0  0  0  0  0  0  0  0  0  0  0  0
  -27.1440  -28.6140   20.7660 C   0  0  0  0  0  3  0  0  0  0  0  0
  -25.9870  -26.8570   19.5500 C   0  0  0  0  0  3  0  0  0  0  0  0
  -24.8040  -27.6180   19.5610 C   0  0  0  0  0  3  0  0  0  0  0  0
  -23.5580  -29.7560   20.2110 C   0  0  0  0  0  2  0  0  0  0  0  0
  -24.6170  -31.0190   22.1360 N   0  0  0  0  0  0  0  0  0  0  0  0
  -23.4830  -32.1080   23.7700 O   0  0  0  0  0  0  0  0  0  0  0  0
  -22.6860  -29.4190   22.5490 C   0  0  0  0  0  0  0  0  0  0  0  0
  -21.3590  -29.2520   22.4200 N   0  0  0  0  0  0  0  0  0  0  0  0
  -23.3590  -28.7820   23.3630 O   0  0  0  0  0  0  0  0  0  0  0  0
  -20.8770  -29.8100   21.7290 H   0  0  0  0  0  0  0  0  0  0  0  0
  -17.9670  -28.1130   22.9260 C   0  0  0  0  0  0  0  0  0  0  0  0
  -20.5310  -28.3250   23.1900 C   0  0  0  0  0  3  0  0  0  0  0  0
  -20.6070  -26.8970   22.6020 C   0  0  0  0  0  2  0  0  0  0  0  0
  -19.4960  -26.5990   21.5910 C   0  0  0  0  0  2  0  0  0  0  0  0
  -18.1180  -26.7660   22.2400 C   0  0  0  0  0  2  0  0  0  0  0  0
  -19.1010  -28.8530   23.3570 C   0  0  0  0  0  0  0  0  0  0  0  0
  -18.9070  -30.1160   23.9560 C   0  0  0  0  0  3  0  0  0  0  0  0
  -17.6120  -30.6410   24.1290 C   0  0  0  0  0  3  0  0  0  0  0  0
  -16.4930  -29.8980   23.7150 C   0  0  0  0  0  3  0  0  0  0  0  0
  -16.6720  -28.6360   23.1190 C   0  0  0  0  0  3  0  0  0  0  0  0
  -25.8530  -32.4410   23.8610 C   0  0  0  0  0  3  0  0  0  0  0  0
  -25.5570  -33.8410   24.1890 N   0  0  0  0  0  0  0  0  0  0  0  0
  -25.8870  -34.8890   23.4230 C   0  0  0  0  0  0  0  0  0  0  0  0
  -26.5460  -34.7780   22.3850 O   0  0  0  0  0  0  0  0  0  0  0  0
  -24.9740  -34.0010   24.9970 H   0  0  0  0  0  0  0  0  0  0  0  0
  -24.1550  -36.6800   23.0880 C   0  0  0  0  0  1  0  0  0  0  0  0
  -25.4110  -36.2810   23.8790 C   0  0  0  0  0  3  0  0  0  0  0  0
  -27.5610  -37.1670   24.6670 C   0  0  0  0  0  1  0  0  0  0  0  0
  -26.4440  -37.3300   23.7400 N   0  0  0  0  0  0  0  0  0  0  0  0
  -26.0430  -38.2530   23.8830 H   0  0  0  0  0  0  0  0  0  0  0  0
  -26.3600  -31.6640   25.1370 C   0  0  1  0  0  0  0  0  0  0  0  0
  -25.2580  -31.4330   26.1990 C   0  0  0  0  0  1  0  0  0  0  0  0
  -26.9370  -30.2830   24.7460 C   0  0  0  0  0  1  0  0  0  0  0  0
  -27.5130  -32.4510   25.8020 C   0  0  0  0  0  1  0  0  0  0  0  0
  -29.8410  -21.9240   21.4570 C   0  0  0  0  0  3  0  0  0  0  0  0
  -31.8090  -21.5530   23.1040 C   0  0  0  0  0  1  0  0  0  0  0  0
  -31.3600  -22.0750   21.7250 C   0  0  0  0  0  2  0  0  0  0  0  0
  -29.3110  -20.4480   21.4610 C   0  0  0  0  0  2  0  0  0  0  0  0
  -30.2280  -19.3030   20.9520 C   0  0  0  0  0  2  0  0  0  0  0  0
  -29.5670  -17.8990   21.0290 C   0  0  0  0  0  2  0  0  0  0  0  0
  -30.5780  -16.7500   20.8080 C   0  0  0  0  0  2  0  0  0  0  0  0
  -30.6020  -14.3480   20.2250 C   0  0  0  0  0  0  0  0  0  0  0  0
  -30.2250  -12.2190   19.0560 C   0  0  0  0  0  2  0  0  0  0  0  0
  -29.2420  -12.4390   17.8890 C   0  0  0  0  0  2  0  0  0  0  0  0
  -27.7880  -12.2800   18.3760 C   0  0  0  0  0  2  0  0  0  0  0  0
  -27.4910  -13.1080   19.6560 C   0  0  0  0  0  3  0  0  0  0  0  0
  -28.5900  -12.8930   20.7240 C   0  0  0  0  0  2  0  0  0  0  0  0
  -29.8930  -13.1950   20.1070 N   0  0  0  0  0  0  0  0  0  0  0  0
  -31.7090  -14.5010   19.7020 O   0  0  0  0  0  0  0  0  0  0  0  0
  -29.9940  -15.3940   20.8140 N   0  0  0  0  0  0  0  0  0  0  0  0
  -29.0850  -15.2500   21.2280 H   0  0  0  0  0  0  0  0  0  0  0  0
  -25.1130  -13.6860   20.4530 C   0  0  0  0  0  0  0  0  0  0  0  0
  -24.0640  -12.9000   20.8510 C   0  0  0  0  0  0  0  0  0  0  0  0
  -24.5360  -11.5530   20.7930 C   0  0  0  0  0  0  0  0  0  0  0  0
  -26.1580  -12.8150   20.1800 N   0  0  0  0  0  0  0  0  0  0  0  0
  -25.8160  -11.5270   20.4420 N   0  0  0  0  0  0  0  0  0  0  0  0
  -23.8260  -10.2840   20.9980 C   0  0  0  0  0  0  0  0  0  0  0  0
  -24.2900   -9.3180   21.9180 C   0  0  0  0  0  3  0  0  0  0  0  0
  -23.5820   -8.1130   22.1140 C   0  0  0  0  0  3  0  0  0  0  0  0
  -22.3930   -7.8650   21.3870 C   0  0  0  0  0  0  0  0  0  0  0  0
  -21.9470   -8.8160   20.4520 C   0  0  0  0  0  3  0  0  0  0  0  0
  -22.6570  -10.0130   20.2570 C   0  0  0  0  0  3  0  0  0  0  0  0
  -21.6510   -6.7130   21.4910 O   0  0  0  0  0  0  0  0  0  0  0  0
  -21.6340   -5.9710   22.6440 C   0  0  0  0  0  0  0  0  0  0  0  0
  -21.2210   -6.5200   23.8780 C   0  0  0  0  0  3  0  0  0  0  0  0
  -21.1520   -5.7020   25.0230 C   0  0  0  0  0  3  0  0  0  0  0  0
  -21.4840   -4.3370   24.9380 C   0  0  0  0  0  0  0  0  0  0  0  0
  -21.8910   -3.7890   23.7080 C   0  0  0  0  0  3  0  0  0  0  0  0
  -21.9620   -4.6030   22.5640 C   0  0  0  0  0  0  0  0  0  0  0  0
  -22.3340   -4.0630   21.3790 F   0  0  0  0  0  0  0  0  0  0  0  0
  -21.4090   -3.5500   26.0360 F   0  0  0  0  0  0  0  0  0  0  0  0
  -22.6730  -13.3610   21.1730 C   0  0  0  0  0  0  0  0  0  0  0  0
  -21.9830  -12.6530   22.0620 N   0  0  0  0  0  0  0  0  0  0  0  0
  -22.2050  -14.3830   20.6730 O   0  0  0  0  0  0  0  0  0  0  0  0
  -22.3780  -11.8310   22.4950 H   0  0  0  0  0  0  0  0  0  0  0  0
  -21.0460  -12.9360   22.3110 H   0  0  0  0  0  0  0  0  0  0  0  0
  -25.2580  -15.0580   20.2800 N   0  0  0  0  0  0  0  0  0  0  0  0
  -24.4830  -15.7020   20.4090 H   0  0  0  0  0  0  0  0  0  0  0  0
  -26.0920  -15.5080   19.9250 H   0  0  0  0  0  0  0  0  0  0  0  0
  2  1  1  0
  2  3  1  0
  2 46  1  0
  4  5  1  0
  4  3  1  0
  6 17  2  0
  7  5  1  0
  7 12  1  0
  8 16  1  0
  8 18  1  0
  9 15  1  0
  9 11  1  0
 10 16  1  0
 11 10  1  0
 12 11  2  0
 13 14  1  0
 13  7  2  0
 14  9  2  0
 15  8  1  0
 16  6  1  0
 18 20  2  0
 19 18  1  0
 21 19  1  0
 22 31  2  0
 22 27  1  0
 23 19  1  0
 23 27  1  0
 24 23  1  0
 25 26  1  0
 25 24  1  0
 26 22  1  0
 27 28  2  0
 28 29  1  0
 30 29  2  0
 31 30  1  0
 32  6  1  0
 32 33  1  0
 32 42  1  0
 33 36  1  0
 34 38  1  0
 34 33  1  0
 35 34  2  0
 38 37  1  0
 40 38  1  0
 40 41  1  0
 40 39  1  0
 42 45  1  1
 42 43  1  0
 44 42  1  0
 46 49  1  0
 46 48  1  0
 48 47  1  0
 50 51  1  0
 50 49  1  0
 52 61  1  0
 52 51  1  0
 53 61  1  0
 54 59  1  0
 55 56  1  0
 55 54  1  0
 57 56  1  0
 57 66  1  0
 57 58  1  0
 59 53  1  0
 59 58  1  0
 60 53  2  0
 61 62  1  0
 63 64  2  0
 64 83  1  0
 65 64  1  0
 65 68  1  0
 66 67  1  0
 66 63  1  0
 67 65  2  0
 68 69  1  0
 69 70  2  0
 71 74  1  0
 71 70  1  0
 72 71  2  0
 73 72  1  0
 73 68  2  0
 74 75  1  0
 75 76  1  0
 76 77  2  0
 78 77  1  0
 78 82  1  0
 79 78  2  0
 80 75  2  0
 80 79  1  0
 81 80  1  0
 83 84  1  0
 84 87  1  0
 84 86  1  0
 85 83  2  0
 88 89  1  0
 88 63  1  0
 90 88  1  0
M  ISO  4   4 101   5 101  53 100  61 100
M  END
>  <TORSDO>  (36) 
F 24

>  <SCORE>  (36) 
-11.924

>  <name>  (36) 
36

>  <ligand_id>  (36) 
36

>  <original_smiles>  (36) 
[H]c1c([H])c([H])c2c(c1[H])C([H])([H])C([H])([H])C([H])([H])C2([H])N([H])C(=O)C1([H])N(C(=O)C([H])(N([H])C(=O)C([H])(N([H])C([H])([H])[H])C([H])([H])[H])C(C([H])([H])[H])(C([H])([H])[H])C([H])([H])[H])C([H])([H])c2c([H])c(OC([H])([H])C([H])([H])C([H])(C([H])([H])[H])C([H])(C([H])([H])C([H])([H])[H])C([H])([H])C([H])([H])C([H])([H])C([H])([H])N([H])C(=O)N3C([H])([H])C([H])([H])C([H])([H])C([H])(n4nc(-c5c([H])c([H])c(Oc6c([H])c([H])c(F)c([H])c6F)c([H])c5[H])c(C(=O)N([H])[H])c4N([H])[H])C3([H])[H])c([H])c([H])c2C1([H])[H]

>  <smiles>  (36) 
[H]c1c([H])c([H])c2c(c1[H])C([H])([H])C([H])([H])C([H])([H])C2([H])N([H])C(=O)C1([H])N(C(=O)C([H])(N([H])C(=O)C([H])(N([H])C([H])([H])[H])C([H])([H])[H])C(C([H])([H])[H])(C([H])([H])[H])C([H])([H])[H])C([H])([H])c2c([H])c(OC([H])([H])C([H])([H])C([H])(C([H])([H])[H])C([H])(C([H])([H])C([H])([H])[H])C([H])([H])C([H])([H])C([H])([H])C([H])([H])N([H])C(=O)N3C([H])([H])C([H])([H])C([H])([H])C([H])(n4nc(-c5c([H])c([H])c(Oc6c([H])c([H])c(F)c([H])c6F)c([H])c5[H])c(C(=O)N([H])[H])c4N([H])[H])C3([H])[H])c([H])c([H])c2C1([H])[H]

$$$$
37:0:0
     RDKit          3D

 92100  0  0  1  0  0  0  0  0999 V2000
  -28.5830  -21.1010   20.0860 C   0  0  0  0  0  3  0  0  0  0  0  0
  -25.6490  -19.5950   18.0580 C   0  0  0  0  0  2  0  0  0  0  0  0
  -26.9980  -19.4500   18.7860 C   0  0  0  0  0  2  0  0  0  0  0  0
  -26.5040  -21.7970   18.5530 C   0  0  0  0  0  2  0  0  0  0  0  0
  -25.6400  -21.0350   17.5310 C   0  0  0  0  0  3  0  0  0  0  0  0
  -27.6730  -20.8470   18.8330 C   0  0  0  0  0  3  0  0  0  0  0  0
  -24.3840  -23.1080   16.7840 C   0  0  0  0  0  1  0  0  0  0  0  0
  -23.4750  -20.8010   16.2460 C   0  0  0  0  0  1  0  0  0  0  0  0
  -24.2500  -21.6490   17.2680 C   0  0  0  0  0  3  0  0  0  0  0  0
  -29.6850  -19.7000   20.0200 C   0  0  0  0  0  2  0  0  0  0  0  0
  -29.6810  -18.0750   20.7480 C   0  0  0  0  0  2  0  0  0  0  0  0
  -30.4630  -15.2780   20.1660 C   0  0  0  0  0  0  0  0  0  0  0  0
  -30.4030  -12.8770   19.2110 C   0  0  0  0  0  2  0  0  0  0  0  0
  -29.4390  -12.7400   18.0100 C   0  0  0  0  0  2  0  0  0  0  0  0
  -28.0080  -12.4490   18.4960 C   0  0  0  0  0  2  0  0  0  0  0  0
  -27.5910  -13.3900   19.6520 C   0  0  0  0  0  3  0  0  0  0  0  0
  -28.6740  -13.4970   20.7450 C   0  0  0  0  0  2  0  0  0  0  0  0
  -29.8910  -13.9860   20.0810 N   0  0  0  0  0  0  0  0  0  0  0  0
  -31.6850  -15.3010   19.9930 O   0  0  0  0  0  0  0  0  0  0  0  0
  -29.6550  -16.5040   20.2270 N   0  0  0  0  0  0  0  0  0  0  0  0
  -28.6900  -16.2270   20.1360 H   0  0  0  0  0  0  0  0  0  0  0  0
  -25.2360  -13.9330   20.4720 C   0  0  0  0  0  0  0  0  0  0  0  0
  -24.1860  -13.1450   20.8580 C   0  0  0  0  0  0  0  0  0  0  0  0
  -24.6610  -11.7990   20.8000 C   0  0  0  0  0  0  0  0  0  0  0  0
  -26.2780  -13.0670   20.1930 N   0  0  0  0  0  0  0  0  0  0  0  0
  -25.9450  -11.7780   20.4570 N   0  0  0  0  0  0  0  0  0  0  0  0
  -23.9450  -10.5290   20.9910 C   0  0  0  0  0  0  0  0  0  0  0  0
  -24.3990   -9.5550   21.9060 C   0  0  0  0  0  3  0  0  0  0  0  0
  -23.6810   -8.3530   22.0880 C   0  0  0  0  0  3  0  0  0  0  0  0
  -22.4940   -8.1150   21.3510 C   0  0  0  0  0  0  0  0  0  0  0  0
  -22.0610   -9.0790   20.4240 C   0  0  0  0  0  3  0  0  0  0  0  0
  -22.7790  -10.2720   20.2400 C   0  0  0  0  0  3  0  0  0  0  0  0
  -21.7480   -6.9630   21.4420 O   0  0  0  0  0  0  0  0  0  0  0  0
  -21.7190   -6.2150   22.5920 C   0  0  0  0  0  0  0  0  0  0  0  0
  -21.3040   -6.7650   23.8270 C   0  0  0  0  0  3  0  0  0  0  0  0
  -21.2210   -5.9420   24.9680 C   0  0  0  0  0  3  0  0  0  0  0  0
  -21.5380   -4.5740   24.8780 C   0  0  0  0  0  0  0  0  0  0  0  0
  -21.9420   -4.0250   23.6480 C   0  0  0  0  0  3  0  0  0  0  0  0
  -22.0290   -4.8440   22.5090 C   0  0  0  0  0  0  0  0  0  0  0  0
  -22.4000   -4.3050   21.3210 F   0  0  0  0  0  0  0  0  0  0  0  0
  -21.4490   -3.7820   25.9730 F   0  0  0  0  0  0  0  0  0  0  0  0
  -22.7930  -13.6090   21.1620 C   0  0  0  0  0  0  0  0  0  0  0  0
  -22.0890  -12.8950   22.0340 N   0  0  0  0  0  0  0  0  0  0  0  0
  -22.3400  -14.6390   20.6640 O   0  0  0  0  0  0  0  0  0  0  0  0
  -22.4670  -12.0560   22.4480 H   0  0  0  0  0  0  0  0  0  0  0  0
  -21.1580  -13.1930   22.2900 H   0  0  0  0  0  0  0  0  0  0  0  0
  -25.3810  -15.3050   20.3100 N   0  0  0  0  0  0  0  0  0  0  0  0
  -24.6130  -15.9450   20.4690 H   0  0  0  0  0  0  0  0  0  0  0  0
  -26.1920  -15.7630   19.9180 H   0  0  0  0  0  0  0  0  0  0  0  0
  -28.9350  -22.8630   20.2280 C   0  0  0  0  0  3  0  0  0  0  0  0
  -27.9590  -24.3640   20.1180 C   0  0  0  0  0  3  0  0  0  0  0  0
  -28.2220  -25.9600   20.3630 O   0  0  0  0  0  0  0  0  0  0  0  0
  -24.6460  -31.9380   23.2640 C   0  0  0  0  0  0  0  0  0  0  0  0
  -27.2120  -27.0440   20.2960 C   0  0  0  0  0  0  0  0  0  0  0  0
  -23.4650  -30.5300   21.6340 C   0  0  0  0  0  3  0  0  0  0  0  0
  -24.9180  -28.9140   20.2360 C   0  0  0  0  0  0  0  0  0  0  0  0
  -26.0300  -30.7370   21.5000 C   0  0  0  0  0  2  0  0  0  0  0  0
  -26.1040  -29.3210   20.8620 C   0  0  0  0  0  0  0  0  0  0  0  0
  -27.2450  -28.4050   20.8690 C   0  0  0  0  0  3  0  0  0  0  0  0
  -25.9930  -26.7790   19.6290 C   0  0  0  0  0  3  0  0  0  0  0  0
  -24.8880  -27.6650   19.5970 C   0  0  0  0  0  3  0  0  0  0  0  0
  -23.7020  -29.8370   20.2660 C   0  0  0  0  0  2  0  0  0  0  0  0
  -24.7360  -31.0950   22.1870 N   0  0  0  0  0  0  0  0  0  0  0  0
  -23.5520  -32.2390   23.7690 O   0  0  0  0  0  0  0  0  0  0  0  0
  -22.7620  -29.5410   22.5990 C   0  0  0  0  0  0  0  0  0  0  0  0
  -21.4320  -29.3850   22.4630 N   0  0  0  0  0  0  0  0  0  0  0  0
  -23.4190  -28.9190   23.4370 O   0  0  0  0  0  0  0  0  0  0  0  0
  -20.9600  -29.9330   21.7590 H   0  0  0  0  0  0  0  0  0  0  0  0
  -18.0340  -28.2040   22.9540 C   0  0  0  0  0  0  0  0  0  0  0  0
  -20.5940  -28.4590   23.2310 C   0  0  0  0  0  3  0  0  0  0  0  0
  -20.6910  -27.0230   22.6660 C   0  0  0  0  0  2  0  0  0  0  0  0
  -19.5930  -26.6990   21.6480 C   0  0  0  0  0  2  0  0  0  0  0  0
  -18.2090  -26.8540   22.2810 C   0  0  0  0  0  2  0  0  0  0  0  0
  -19.1530  -28.9670   23.3830 C   0  0  0  0  0  0  0  0  0  0  0  0
  -18.9350  -30.2340   23.9690 C   0  0  0  0  0  3  0  0  0  0  0  0
  -17.6310  -30.7370   24.1270 C   0  0  0  0  0  3  0  0  0  0  0  0
  -16.5270  -29.9740   23.7070 C   0  0  0  0  0  3  0  0  0  0  0  0
  -16.7270  -28.7090   23.1260 C   0  0  0  0  0  3  0  0  0  0  0  0
  -25.9140  -32.5810   23.9040 C   0  0  0  0  0  3  0  0  0  0  0  0
  -25.5950  -33.9840   24.2220 N   0  0  0  0  0  0  0  0  0  0  0  0
  -25.9310  -35.0390   23.4630 C   0  0  0  0  0  0  0  0  0  0  0  0
  -26.6030  -34.9260   22.4340 O   0  0  0  0  0  0  0  0  0  0  0  0
  -24.9850  -34.1390   25.0120 H   0  0  0  0  0  0  0  0  0  0  0  0
  -24.1950  -36.8270   23.1220 C   0  0  0  0  0  1  0  0  0  0  0  0
  -25.4510  -36.4320   23.9120 C   0  0  0  0  0  3  0  0  0  0  0  0
  -27.5990  -37.3280   24.6990 C   0  0  0  0  0  1  0  0  0  0  0  0
  -26.4810  -37.4840   23.7720 N   0  0  0  0  0  0  0  0  0  0  0  0
  -26.0790  -38.4070   23.9160 H   0  0  0  0  0  0  0  0  0  0  0  0
  -26.4010  -31.8260   25.2040 C   0  0  1  0  0  0  0  0  0  0  0  0
  -25.2810  -31.6000   26.2500 C   0  0  0  0  0  1  0  0  0  0  0  0
  -26.9870  -30.4440   24.8430 C   0  0  0  0  0  1  0  0  0  0  0  0
  -27.5450  -32.6240   25.8720 C   0  0  0  0  0  1  0  0  0  0  0  0
  1 10  1  0
  1 50  1  0
  2  3  1  0
  3  6  1  0
  4  6  1  0
  5  9  1  0
  5  2  1  0
  5  4  1  0
  6  1  1  0
  7  9  1  0
  8  9  1  0
 10 11  1  0
 12 20  1  0
 13 18  1  0
 14 15  1  0
 14 13  1  0
 16 15  1  0
 16 25  1  0
 16 17  1  0
 18 12  1  0
 18 17  1  0
 19 12  2  0
 20 11  1  0
 21 20  1  0
 22 23  2  0
 23 42  1  0
 24 23  1  0
 24 27  1  0
 25 26  1  0
 25 22  1  0
 26 24  2  0
 27 28  1  0
 28 29  2  0
 30 33  1  0
 30 29  1  0
 31 30  2  0
 32 31  1  0
 32 27  2  0
 33 34  1  0
 34 35  1  0
 35 36  2  0
 37 36  1  0
 37 41  1  0
 38 37  2  0
 39 34  2  0
 39 38  1  0
 40 39  1  0
 42 43  1  0
 43 46  1  0
 43 45  1  0
 44 42  2  0
 47 48  1  0
 47 22  1  0
 49 47  1  0
 51 50  2  0
 51 52  1  0
 53 64  2  0
 54 52  1  0
 54 59  1  0
 55 63  1  0
 55 65  1  0
 56 62  1  0
 56 58  1  0
 57 63  1  0
 58 59  2  0
 58 57  1  0
 60 54  2  0
 61 60  1  0
 61 56  2  0
 62 55  1  0
 63 53  1  0
 65 67  2  0
 66 65  1  0
 68 66  1  0
 69 78  2  0
 69 74  1  0
 70 66  1  0
 70 74  1  0
 71 70  1  0
 72 73  1  0
 72 71  1  0
 73 69  1  0
 74 75  2  0
 75 76  1  0
 77 76  2  0
 78 77  1  0
 79 53  1  0
 79 80  1  0
 79 89  1  0
 80 83  1  0
 81 85  1  0
 81 80  1  0
 82 81  2  0
 85 84  1  0
 87 85  1  0
 87 88  1  0
 87 86  1  0
 89 92  1  1
 89 90  1  0
 91 89  1  0
M  ISO  4  12 100  20 100  51 101  52 101
M  END
>  <TORSDO>  (37) 
F 22

>  <SCORE>  (37) 
-14.941

>  <name>  (37) 
37

>  <ligand_id>  (37) 
37

>  <original_smiles>  (37) 
[H]c1c([H])c([H])c2c(c1[H])C([H])([H])C([H])([H])C([H])([H])C2([H])N([H])C(=O)C1([H])N(C(=O)C([H])(N([H])C(=O)C([H])(N([H])C([H])([H])[H])C([H])([H])[H])C(C([H])([H])[H])(C([H])([H])[H])C([H])([H])[H])C([H])([H])c2c([H])c(OC([H])([H])C([H])([H])C([H])(C([H])([H])C([H])([H])N([H])C(=O)N3C([H])([H])C([H])([H])C([H])([H])C([H])(n4nc(-c5c([H])c([H])c(Oc6c([H])c([H])c(F)c([H])c6F)c([H])c5[H])c(C(=O)N([H])[H])c4N([H])[H])C3([H])[H])C3([H])C([H])([H])C([H])([H])C([H])(C([H])(C([H])([H])[H])C([H])([H])[H])C3([H])[H])c([H])c([H])c2C1([H])[H]

>  <smiles>  (37) 
[H]c1c([H])c([H])c2c(c1[H])C([H])([H])C([H])([H])C([H])([H])C2([H])N([H])C(=O)C1([H])N(C(=O)C([H])(N([H])C(=O)C([H])(N([H])C([H])([H])[H])C([H])([H])[H])C(C([H])([H])[H])(C([H])([H])[H])C([H])([H])[H])C([H])([H])c2c([H])c(OC([H])([H])C([H])([H])C([H])(C([H])([H])C([H])([H])N([H])C(=O)N3C([H])([H])C([H])([H])C([H])([H])C([H])(n4nc(-c5c([H])c([H])c(Oc6c([H])c([H])c(F)c([H])c6F)c([H])c5[H])c(C(=O)N([H])[H])c4N([H])[H])C3([H])[H])C3([H])C([H])([H])C([H])([H])C([H])(C([H])(C([H])([H])[H])C([H])([H])[H])C3([H])[H])c([H])c([H])c2C1([H])[H]

$$$$
38:0:0
     RDKit          3D

 89 96  0  0  1  0  0  0  0  0999 V2000
  -28.6500  -22.4840   20.6000 C   0  0  0  0  0  3  0  0  0  0  0  0
  -27.4170  -23.4490   22.6930 C   0  0  0  0  0  1  0  0  0  0  0  0
  -28.3990  -22.4090   22.1320 C   0  0  0  0  0  2  0  0  0  0  0  0
  -29.4680  -21.2120   20.0920 C   0  0  0  0  0  0  0  0  0  0  0  0
  -30.1560  -21.3070   19.0720 O   0  0  0  0  0  0  0  0  0  0  0  0
  -29.4220  -19.8200   20.8520 C   0  0  0  0  0  2  0  0  0  0  0  0
  -29.6570  -18.4400   20.0800 C   0  0  0  0  0  2  0  0  0  0  0  0
  -30.2890  -17.2300   20.9070 C   0  0  0  0  0  2  0  0  0  0  0  0
  -30.6280  -14.7130   20.2990 C   0  0  0  0  0  0  0  0  0  0  0  0
  -30.3810  -12.4840   19.2280 C   0  0  0  0  0  2  0  0  0  0  0  0
  -29.4350  -12.5930   18.0130 C   0  0  0  0  0  2  0  0  0  0  0  0
  -27.9630  -12.4380   18.4470 C   0  0  0  0  0  2  0  0  0  0  0  0
  -27.6090  -13.3100   19.6810 C   0  0  0  0  0  3  0  0  0  0  0  0
  -28.6710  -13.1860   20.7970 C   0  0  0  0  0  2  0  0  0  0  0  0
  -29.9730  -13.5160   20.1990 N   0  0  0  0  0  0  0  0  0  0  0  0
  -31.8100  -14.8280   19.9680 O   0  0  0  0  0  0  0  0  0  0  0  0
  -29.8690  -15.8140   20.5940 N   0  0  0  0  0  0  0  0  0  0  0  0
  -28.8930  -15.6090   20.7510 H   0  0  0  0  0  0  0  0  0  0  0  0
  -25.2170  -13.9110   20.3940 C   0  0  0  0  0  0  0  0  0  0  0  0
  -24.1490  -13.1410   20.7690 C   0  0  0  0  0  0  0  0  0  0  0  0
  -24.6160  -11.7890   20.7570 C   0  0  0  0  0  0  0  0  0  0  0  0
  -26.2630  -13.0300   20.1720 N   0  0  0  0  0  0  0  0  0  0  0  0
  -25.9080  -11.7500   20.4540 N   0  0  0  0  0  0  0  0  0  0  0  0
  -23.8910  -10.5290   20.9570 C   0  0  0  0  0  0  0  0  0  0  0  0
  -24.3220   -9.5710   21.9010 C   0  0  0  0  0  3  0  0  0  0  0  0
  -23.6000   -8.3740   22.0900 C   0  0  0  0  0  3  0  0  0  0  0  0
  -22.4290   -8.1250   21.3340 C   0  0  0  0  0  0  0  0  0  0  0  0
  -22.0140   -9.0710   20.3790 C   0  0  0  0  0  3  0  0  0  0  0  0
  -22.7400  -10.2600   20.1900 C   0  0  0  0  0  3  0  0  0  0  0  0
  -21.6760   -6.9790   21.4320 O   0  0  0  0  0  0  0  0  0  0  0  0
  -21.6270   -6.2460   22.5900 C   0  0  0  0  0  0  0  0  0  0  0  0
  -21.1940   -6.8090   23.8110 C   0  0  0  0  0  3  0  0  0  0  0  0
  -21.0930   -6.0040   24.9620 C   0  0  0  0  0  3  0  0  0  0  0  0
  -21.4140   -4.6350   24.8940 C   0  0  0  0  0  0  0  0  0  0  0  0
  -21.8410   -4.0700   23.6790 C   0  0  0  0  0  3  0  0  0  0  0  0
  -21.9430   -4.8740   22.5290 C   0  0  0  0  0  0  0  0  0  0  0  0
  -22.3340   -4.3200   21.3570 F   0  0  0  0  0  0  0  0  0  0  0  0
  -21.3090   -3.8580   25.9980 F   0  0  0  0  0  0  0  0  0  0  0  0
  -22.7500  -13.6190   21.0290 C   0  0  0  0  0  0  0  0  0  0  0  0
  -22.0210  -12.9330   21.9010 N   0  0  0  0  0  0  0  0  0  0  0  0
  -22.3130  -14.6380   20.4970 O   0  0  0  0  0  0  0  0  0  0  0  0
  -22.3860  -12.1070   22.3540 H   0  0  0  0  0  0  0  0  0  0  0  0
  -21.0830  -13.2360   22.1170 H   0  0  0  0  0  0  0  0  0  0  0  0
  -25.3770  -15.2810   20.2000 N   0  0  0  0  0  0  0  0  0  0  0  0
  -24.6030  -15.9290   20.3070 H   0  0  0  0  0  0  0  0  0  0  0  0
  -26.2160  -15.7270   19.8550 H   0  0  0  0  0  0  0  0  0  0  0  0
  -29.1690  -23.9520   20.1820 C   0  0  0  0  0  2  0  0  0  0  0  0
  -28.0810  -25.0510   19.8080 C   0  0  0  0  0  2  0  0  0  0  0  0
  -28.3480  -26.5020   19.9840 O   0  0  0  0  0  0  0  0  0  0  0  0
  -24.5920  -31.7950   23.1720 C   0  0  0  0  0  0  0  0  0  0  0  0
  -27.2380  -27.3650   19.9550 C   0  0  0  0  0  0  0  0  0  0  0  0
  -23.4050  -30.4540   21.4750 C   0  0  0  0  0  3  0  0  0  0  0  0
  -24.8700  -28.9740   19.9960 C   0  0  0  0  0  0  0  0  0  0  0  0
  -25.9450  -30.7900   21.3200 C   0  0  0  0  0  2  0  0  0  0  0  0
  -26.0340  -29.4390   20.6230 C   0  0  0  0  0  0  0  0  0  0  0  0
  -27.2220  -28.6450   20.5940 C   0  0  0  0  0  3  0  0  0  0  0  0
  -26.0470  -26.9640   19.3020 C   0  0  0  0  0  3  0  0  0  0  0  0
  -24.8790  -27.7440   19.3280 C   0  0  0  0  0  3  0  0  0  0  0  0
  -23.6310  -29.8420   20.0700 C   0  0  0  0  0  2  0  0  0  0  0  0
  -24.6660  -31.0270   22.0470 N   0  0  0  0  0  0  0  0  0  0  0  0
  -23.5040  -32.0490   23.7090 O   0  0  0  0  0  0  0  0  0  0  0  0
  -22.7450  -29.3940   22.3880 C   0  0  0  0  0  0  0  0  0  0  0  0
  -21.4200  -29.2200   22.2480 N   0  0  0  0  0  0  0  0  0  0  0  0
  -23.4200  -28.7390   23.1850 O   0  0  0  0  0  0  0  0  0  0  0  0
  -20.9350  -29.8000   21.5780 H   0  0  0  0  0  0  0  0  0  0  0  0
  -18.0400  -28.0060   22.6870 C   0  0  0  0  0  0  0  0  0  0  0  0
  -20.5980  -28.2540   22.9780 C   0  0  0  0  0  3  0  0  0  0  0  0
  -20.7030  -26.8470   22.3470 C   0  0  0  0  0  2  0  0  0  0  0  0
  -19.6060  -26.5640   21.3160 C   0  0  0  0  0  2  0  0  0  0  0  0
  -18.2210  -26.6820   21.9600 C   0  0  0  0  0  2  0  0  0  0  0  0
  -19.1580  -28.7500   23.1510 C   0  0  0  0  0  0  0  0  0  0  0  0
  -18.9370  -29.9890   23.7920 C   0  0  0  0  0  3  0  0  0  0  0  0
  -17.6310  -30.4830   23.9740 C   0  0  0  0  0  3  0  0  0  0  0  0
  -16.5280  -29.7340   23.5280 C   0  0  0  0  0  3  0  0  0  0  0  0
  -16.7340  -28.4980   22.8900 C   0  0  0  0  0  3  0  0  0  0  0  0
  -25.8680  -32.4110   23.8240 C   0  0  0  0  0  3  0  0  0  0  0  0
  -25.5480  -33.7910   24.2110 N   0  0  0  0  0  0  0  0  0  0  0  0
  -25.8710  -34.8770   23.4970 C   0  0  0  0  0  0  0  0  0  0  0  0
  -26.5450  -34.8220   22.4640 O   0  0  0  0  0  0  0  0  0  0  0  0
  -24.9510  -33.9090   25.0180 H   0  0  0  0  0  0  0  0  0  0  0  0
  -24.1280  -36.6690   23.2120 C   0  0  0  0  0  1  0  0  0  0  0  0
  -25.3700  -36.2420   24.0100 C   0  0  0  0  0  3  0  0  0  0  0  0
  -27.4920  -37.1110   24.8860 C   0  0  0  0  0  1  0  0  0  0  0  0
  -26.3940  -37.3070   23.9450 N   0  0  0  0  0  0  0  0  0  0  0  0
  -25.9790  -38.2170   24.1290 H   0  0  0  0  0  0  0  0  0  0  0  0
  -26.3840  -31.5900   25.0710 C   0  0  1  0  0  0  0  0  0  0  0  0
  -25.2880  -31.3020   26.1230 C   0  0  0  0  0  1  0  0  0  0  0  0
  -26.9780  -30.2340   24.6260 C   0  0  0  0  0  1  0  0  0  0  0  0
  -27.5260  -32.3640   25.7710 C   0  0  0  0  0  1  0  0  0  0  0  0
  1 47  1  0
  1  3  1  0
  3  2  1  0
  4  1  1  0
  4  6  1  0
  5  4  2  0
  7  6  1  0
  7  8  1  0
  9 17  1  0
 10 15  1  0
 11 12  1  0
 11 10  1  0
 13 12  1  0
 13 22  1  0
 13 14  1  0
 15  9  1  0
 15 14  1  0
 16  9  2  0
 17 18  1  0
 17  8  1  0
 19 20  2  0
 20 39  1  0
 21 20  1  0
 21 24  1  0
 22 19  1  0
 22 23  1  0
 23 21  2  0
 24 25  1  0
 25 26  2  0
 27 30  1  0
 27 26  1  0
 28 27  2  0
 29 28  1  0
 29 24  2  0
 30 31  1  0
 31 32  1  0
 32 33  2  0
 34 33  1  0
 34 38  1  0
 35 34  2  0
 36 31  2  0
 36 35  1  0
 37 36  1  0
 39 40  1  0
 40 43  1  0
 40 42  1  0
 41 39  2  0
 44 45  1  0
 44 19  1  0
 46 44  1  0
 48 49  1  0
 48 47  1  0
 50 61  2  0
 51 49  1  0
 51 56  1  0
 52 60  1  0
 52 62  1  0
 53 59  1  0
 53 55  1  0
 54 60  1  0
 55 54  1  0
 56 55  2  0
 57 58  1  0
 57 51  2  0
 58 53  2  0
 59 52  1  0
 60 50  1  0
 62 64  2  0
 63 62  1  0
 65 63  1  0
 66 75  2  0
 66 71  1  0
 67 63  1  0
 67 71  1  0
 68 67  1  0
 69 70  1  0
 69 68  1  0
 70 66  1  0
 71 72  2  0
 72 73  1  0
 74 73  2  0
 75 74  1  0
 76 50  1  0
 76 77  1  0
 76 86  1  0
 77 80  1  0
 78 82  1  0
 78 77  1  0
 79 78  2  0
 82 81  1  0
 84 82  1  0
 84 85  1  0
 84 83  1  0
 86 89  1  1
 86 87  1  0
 88 86  1  0
M  ISO  4   9 100  17 100  48 101  49 101
M  END
>  <TORSDO>  (38) 
F 23

>  <SCORE>  (38) 
-11.714

>  <name>  (38) 
38

>  <ligand_id>  (38) 
38

>  <original_smiles>  (38) 
[H]c1c([H])c([H])c2c(c1[H])C([H])([H])C([H])([H])C([H])([H])C2([H])N([H])C(=O)C1([H])N(C(=O)C([H])(N([H])C(=O)C([H])(N([H])C([H])([H])[H])C([H])([H])[H])C(C([H])([H])[H])(C([H])([H])[H])C([H])([H])[H])C([H])([H])c2c([H])c(OC([H])([H])C([H])([H])C([H])(C(=O)C([H])([H])C([H])([H])C([H])([H])N([H])C(=O)N3C([H])([H])C([H])([H])C([H])([H])C([H])(n4nc(-c5c([H])c([H])c(Oc6c([H])c([H])c(F)c([H])c6F)c([H])c5[H])c(C(=O)N([H])[H])c4N([H])[H])C3([H])[H])C([H])([H])C([H])([H])[H])c([H])c([H])c2C1([H])[H]

>  <smiles>  (38) 
[H]c1c([H])c([H])c2c(c1[H])C([H])([H])C([H])([H])C([H])([H])C2([H])N([H])C(=O)C1([H])N(C(=O)C([H])(N([H])C(=O)C([H])(N([H])C([H])([H])[H])C([H])([H])[H])C(C([H])([H])[H])(C([H])([H])[H])C([H])([H])[H])C([H])([H])c2c([H])c(OC([H])([H])C([H])([H])C([H])(C(=O)C([H])([H])C([H])([H])C([H])([H])N([H])C(=O)N3C([H])([H])C([H])([H])C([H])([H])C([H])(n4nc(-c5c([H])c([H])c(Oc6c([H])c([H])c(F)c([H])c6F)c([H])c5[H])c(C(=O)N([H])[H])c4N([H])[H])C3([H])[H])C([H])([H])C([H])([H])[H])c([H])c([H])c2C1([H])[H]

$$$$
39:0:0
     RDKit          3D

 95103  0  0  1  0  0  0  0  0999 V2000
  -29.0800  -19.1540   21.3580 C   0  0  0  0  0  2  0  0  0  0  0  0
  -29.7520  -17.7720   21.5770 C   0  0  0  0  0  2  0  0  0  0  0  0
  -29.8620  -18.4330   19.2340 C   0  0  0  0  0  3  0  0  0  0  0  0
  -29.7440  -19.7560   20.1140 C   0  0  0  0  0  3  0  0  0  0  0  0
  -30.3160  -17.2670   20.2220 C   0  0  0  0  0  3  0  0  0  0  0  0
  -30.6880  -14.7330   19.6090 C   0  0  0  0  0  0  0  0  0  0  0  0
  -30.3760  -12.4780   18.5950 C   0  0  0  0  0  2  0  0  0  0  0  0
  -29.3000  -12.5640   17.4890 C   0  0  0  0  0  2  0  0  0  0  0  0
  -27.8870  -12.4010   18.0830 C   0  0  0  0  0  2  0  0  0  0  0  0
  -27.6570  -13.2880   19.3350 C   0  0  0  0  0  3  0  0  0  0  0  0
  -28.8330  -13.1710   20.3290 C   0  0  0  0  0  2  0  0  0  0  0  0
  -30.0590  -13.5150   19.5970 N   0  0  0  0  0  0  0  0  0  0  0  0
  -31.8280  -14.8660   19.1570 O   0  0  0  0  0  0  0  0  0  0  0  0
  -29.9290  -15.8210   19.9710 N   0  0  0  0  0  0  0  0  0  0  0  0
  -28.9840  -15.5830   20.2290 H   0  0  0  0  0  0  0  0  0  0  0  0
  -25.3920  -13.8980   20.3800 C   0  0  0  0  0  0  0  0  0  0  0  0
  -24.3570  -13.1290   20.8370 C   0  0  0  0  0  0  0  0  0  0  0  0
  -24.7740  -11.7710   20.6780 C   0  0  0  0  0  0  0  0  0  0  0  0
  -26.3740  -13.0090   19.9710 N   0  0  0  0  0  0  0  0  0  0  0  0
  -26.0150  -11.7220   20.2110 N   0  0  0  0  0  0  0  0  0  0  0  0
  -24.0400  -10.5160   20.8870 C   0  0  0  0  0  0  0  0  0  0  0  0
  -24.5100   -9.5250   21.7770 C   0  0  0  0  0  3  0  0  0  0  0  0
  -23.7760   -8.3350   21.9740 C   0  0  0  0  0  3  0  0  0  0  0  0
  -22.5580   -8.1290   21.2840 C   0  0  0  0  0  0  0  0  0  0  0  0
  -22.1070   -9.1090   20.3840 C   0  0  0  0  0  3  0  0  0  0  0  0
  -22.8400  -10.2900   20.1830 C   0  0  0  0  0  3  0  0  0  0  0  0
  -21.7920   -6.9940   21.3950 O   0  0  0  0  0  0  0  0  0  0  0  0
  -21.7440   -6.2680   22.5580 C   0  0  0  0  0  0  0  0  0  0  0  0
  -21.2630   -6.8240   23.7640 C   0  0  0  0  0  3  0  0  0  0  0  0
  -21.1660   -6.0220   24.9190 C   0  0  0  0  0  3  0  0  0  0  0  0
  -21.5400   -4.6660   24.8690 C   0  0  0  0  0  0  0  0  0  0  0  0
  -22.0140   -4.1090   23.6680 C   0  0  0  0  0  3  0  0  0  0  0  0
  -22.1130   -4.9090   22.5150 C   0  0  0  0  0  0  0  0  0  0  0  0
  -22.5510   -4.3620   21.3550 F   0  0  0  0  0  0  0  0  0  0  0  0
  -21.4400   -3.8940   25.9760 F   0  0  0  0  0  0  0  0  0  0  0  0
  -23.0170  -13.6210   21.3030 C   0  0  0  0  0  0  0  0  0  0  0  0
  -22.3810  -12.8920   22.2150 N   0  0  0  0  0  0  0  0  0  0  0  0
  -22.5480  -14.6810   20.8930 O   0  0  0  0  0  0  0  0  0  0  0  0
  -22.7760  -12.0330   22.5640 H   0  0  0  0  0  0  0  0  0  0  0  0
  -21.4870  -13.2010   22.5690 H   0  0  0  0  0  0  0  0  0  0  0  0
  -25.5710  -15.2720   20.2550 N   0  0  0  0  0  0  0  0  0  0  0  0
  -24.8360  -15.9320   20.4870 H   0  0  0  0  0  0  0  0  0  0  0  0
  -26.3710  -15.7140   19.8200 H   0  0  0  0  0  0  0  0  0  0  0  0
  -30.8160  -18.6080   18.0390 C   0  0  0  0  0  0  0  0  0  0  0  0
  -30.3280  -18.4100   16.8200 N   0  0  0  0  0  0  0  0  0  0  0  0
  -31.9910  -18.9310   18.2050 O   0  0  0  0  0  0  0  0  0  0  0  0
  -29.3600  -18.1520   16.6890 H   0  0  0  0  0  0  0  0  0  0  0  0
  -30.9240  -18.5110   16.0100 H   0  0  0  0  0  0  0  0  0  0  0  0
  -29.1010  -21.1170   19.5210 C   0  0  0  0  0  2  0  0  0  0  0  0
  -28.9680  -22.4540   20.4180 C   0  0  0  0  0  3  0  0  0  0  0  0
  -31.5220  -22.8350   20.6990 C   0  0  0  0  0  1  0  0  0  0  0  0
  -30.1690  -22.5930   21.3850 C   0  0  0  0  0  2  0  0  0  0  0  0
  -28.6680  -23.8610   19.6770 C   0  0  0  0  0  2  0  0  0  0  0  0
  -28.2040  -25.1330   20.5430 C   0  0  0  0  0  2  0  0  0  0  0  0
  -28.3380  -26.5190   20.0240 O   0  0  0  0  0  0  0  0  0  0  0  0
  -24.5710  -31.8250   23.1950 C   0  0  0  0  0  0  0  0  0  0  0  0
  -27.2100  -27.3500   20.0510 C   0  0  0  0  0  0  0  0  0  0  0  0
  -23.3700  -30.4450   21.5360 C   0  0  0  0  0  3  0  0  0  0  0  0
  -24.8280  -28.9280   20.0790 C   0  0  0  0  0  0  0  0  0  0  0  0
  -25.9040  -30.7940   21.3410 C   0  0  0  0  0  2  0  0  0  0  0  0
  -25.9960  -29.4270   20.6740 C   0  0  0  0  0  0  0  0  0  0  0  0
  -27.1930  -28.6510   20.6450 C   0  0  0  0  0  3  0  0  0  0  0  0
  -26.0240  -26.9000   19.4400 C   0  0  0  0  0  3  0  0  0  0  0  0
  -24.8450  -27.6720   19.4520 C   0  0  0  0  0  3  0  0  0  0  0  0
  -23.5830  -29.7900   20.1440 C   0  0  0  0  0  2  0  0  0  0  0  0
  -24.6350  -31.0380   22.0810 N   0  0  0  0  0  0  0  0  0  0  0  0
  -23.4890  -32.0810   23.7430 O   0  0  0  0  0  0  0  0  0  0  0  0
  -22.7230  -29.4060   22.4840 C   0  0  0  0  0  0  0  0  0  0  0  0
  -21.3990  -29.2140   22.3560 N   0  0  0  0  0  0  0  0  0  0  0  0
  -23.4110  -28.7770   23.2910 O   0  0  0  0  0  0  0  0  0  0  0  0
  -20.9040  -29.7740   21.6750 H   0  0  0  0  0  0  0  0  0  0  0  0
  -18.0370  -27.9690   22.8390 C   0  0  0  0  0  0  0  0  0  0  0  0
  -20.5920  -28.2560   23.1130 C   0  0  0  0  0  3  0  0  0  0  0  0
  -20.7120  -26.8340   22.5160 C   0  0  0  0  0  2  0  0  0  0  0  0
  -19.6130  -26.5130   21.4990 C   0  0  0  0  0  2  0  0  0  0  0  0
  -18.2300  -26.6320   22.1440 C   0  0  0  0  0  2  0  0  0  0  0  0
  -19.1460  -28.7390   23.2800 C   0  0  0  0  0  0  0  0  0  0  0  0
  -18.9110  -29.9900   23.8910 C   0  0  0  0  0  3  0  0  0  0  0  0
  -17.6000  -30.4730   24.0630 C   0  0  0  0  0  3  0  0  0  0  0  0
  -16.5050  -29.6990   23.6380 C   0  0  0  0  0  3  0  0  0  0  0  0
  -16.7240  -28.4500   23.0330 C   0  0  0  0  0  3  0  0  0  0  0  0
  -25.8530  -32.4580   23.8210 C   0  0  0  0  0  3  0  0  0  0  0  0
  -25.5400  -33.8550   24.1530 N   0  0  0  0  0  0  0  0  0  0  0  0
  -25.8710  -34.9110   23.3960 C   0  0  0  0  0  0  0  0  0  0  0  0
  -26.5400  -34.8100   22.3640 O   0  0  0  0  0  0  0  0  0  0  0  0
  -24.9460  -34.0090   24.9550 H   0  0  0  0  0  0  0  0  0  0  0  0
  -24.1480  -36.7090   23.0390 C   0  0  0  0  0  1  0  0  0  0  0  0
  -25.3820  -36.2980   23.8570 C   0  0  0  0  0  3  0  0  0  0  0  0
  -27.5050  -37.1850   24.7180 C   0  0  0  0  0  1  0  0  0  0  0  0
  -26.4170  -37.3500   23.7560 N   0  0  0  0  0  0  0  0  0  0  0  0
  -26.0100  -38.2710   23.8930 H   0  0  0  0  0  0  0  0  0  0  0  0
  -26.3670  -31.6850   25.0990 C   0  0  1  0  0  0  0  0  0  0  0  0
  -25.2680  -31.4380   26.1590 C   0  0  0  0  0  1  0  0  0  0  0  0
  -26.9570  -30.3120   24.7060 C   0  0  0  0  0  1  0  0  0  0  0  0
  -27.5120  -32.4810   25.7670 C   0  0  0  0  0  1  0  0  0  0  0  0
  1  2  1  0
  3 44  1  0
  3  4  1  0
  3  5  1  0
  4 49  1  0
  4  1  1  0
  5 14  1  0
  5  2  1  0
  6 14  1  0
  7 12  1  0
  8  9  1  0
  8  7  1  0
 10  9  1  0
 10 19  1  0
 10 11  1  0
 12  6  1  0
 12 11  1  0
 13  6  2  0
 14 15  1  0
 16 17  2  0
 17 36  1  0
 18 17  1  0
 18 21  1  0
 19 20  1  0
 19 16  1  0
 20 18  2  0
 21 22  1  0
 22 23  2  0
 24 27  1  0
 24 23  1  0
 25 24  2  0
 26 25  1  0
 26 21  2  0
 27 28  1  0
 28 29  1  0
 29 30  2  0
 31 30  1  0
 31 35  1  0
 32 31  2  0
 33 28  2  0
 33 32  1  0
 34 33  1  0
 36 37  1  0
 37 39  1  0
 37 40  1  0
 38 36  2  0
 41 16  1  0
 41 42  1  0
 43 41  1  0
 44 46  2  0
 45 44  1  0
 47 45  1  0
 48 45  1  0
 50 49  1  0
 50 52  1  0
 51 52  1  0
 53 50  1  0
 53 54  1  0
 55 57  1  0
 55 54  1  0
 56 67  2  0
 57 62  1  0
 58 66  1  0
 58 68  1  0
 59 65  1  0
 59 61  1  0
 60 66  1  0
 61 60  1  0
 62 61  2  0
 63 64  1  0
 63 57  2  0
 64 59  2  0
 65 58  1  0
 66 56  1  0
 68 70  2  0
 69 68  1  0
 71 69  1  0
 72 81  2  0
 72 77  1  0
 73 69  1  0
 73 77  1  0
 74 73  1  0
 75 76  1  0
 75 74  1  0
 76 72  1  0
 77 78  2  0
 78 79  1  0
 80 79  2  0
 81 80  1  0
 82 56  1  0
 82 83  1  0
 82 92  1  0
 83 86  1  0
 84 88  1  0
 84 83  1  0
 85 84  2  0
 88 87  1  0
 90 88  1  0
 90 91  1  0
 90 89  1  0
 92 95  1  1
 92 93  1  0
 94 92  1  0
M  ISO  4   6 100  14 100  54 101  55 101
M  END
>  <TORSDO>  (39) 
F 22

>  <SCORE>  (39) 
-12.064

>  <name>  (39) 
39

>  <ligand_id>  (39) 
39

>  <original_smiles>  (39) 
[H]c1c([H])c([H])c2c(c1[H])C([H])([H])C([H])([H])C([H])([H])C2([H])N([H])C(=O)C1([H])N(C(=O)C([H])(N([H])C(=O)C([H])(N([H])C([H])([H])[H])C([H])([H])[H])C(C([H])([H])[H])(C([H])([H])[H])C([H])([H])[H])C([H])([H])c2c([H])c(OC([H])([H])C([H])([H])C([H])(C([H])([H])C([H])([H])[H])C([H])([H])C3([H])C([H])([H])C([H])([H])C([H])(N([H])C(=O)N4C([H])([H])C([H])([H])C([H])([H])C([H])(n5nc(-c6c([H])c([H])c(Oc7c([H])c([H])c(F)c([H])c7F)c([H])c6[H])c(C(=O)N([H])[H])c5N([H])[H])C4([H])[H])C3([H])C(=O)N([H])[H])c([H])c([H])c2C1([H])[H]

>  <smiles>  (39) 
[H]c1c([H])c([H])c2c(c1[H])C([H])([H])C([H])([H])C([H])([H])C2([H])N([H])C(=O)C1([H])N(C(=O)C([H])(N([H])C(=O)C([H])(N([H])C([H])([H])[H])C([H])([H])[H])C(C([H])([H])[H])(C([H])([H])[H])C([H])([H])[H])C([H])([H])c2c([H])c(OC([H])([H])C([H])([H])C([H])(C([H])([H])C([H])([H])[H])C([H])([H])C3([H])C([H])([H])C([H])([H])C([H])(N([H])C(=O)N4C([H])([H])C([H])([H])C([H])([H])C([H])(n5nc(-c6c([H])c([H])c(Oc7c([H])c([H])c(F)c([H])c7F)c([H])c6[H])c(C(=O)N([H])[H])c5N([H])[H])C4([H])[H])C3([H])C(=O)N([H])[H])c([H])c([H])c2C1([H])[H]

$$$$
40:0:0
     RDKit          3D

 87 94  0  0  1  0  0  0  0  0999 V2000
  -29.5180  -20.6770   20.4400 C   0  0  0  0  0  0  0  0  0  0  0  0
  -28.6900  -21.8310   20.3180 N   0  0  0  0  0  0  0  0  0  0  0  0
  -30.7210  -20.8720   20.6110 O   0  0  0  0  0  0  0  0  0  0  0  0
  -27.7090  -21.6290   20.1700 H   0  0  0  0  0  0  0  0  0  0  0  0
  -29.0570  -19.0770   20.3940 C   0  0  0  0  0  3  0  0  0  0  0  0
  -30.1170  -17.7490   20.4550 C   0  0  0  0  0  3  0  0  0  0  0  0
  -30.4940  -15.0150   20.3560 C   0  0  0  0  0  0  0  0  0  0  0  0
  -30.3730  -12.6720   19.3940 C   0  0  0  0  0  2  0  0  0  0  0  0
  -29.4420  -12.6350   18.1600 C   0  0  0  0  0  2  0  0  0  0  0  0
  -27.9790  -12.4180   18.5910 C   0  0  0  0  0  2  0  0  0  0  0  0
  -27.5680  -13.3310   19.7770 C   0  0  0  0  0  3  0  0  0  0  0  0
  -28.6240  -13.3390   20.9020 C   0  0  0  0  0  2  0  0  0  0  0  0
  -29.8920  -13.7590   20.2940 N   0  0  0  0  0  0  0  0  0  0  0  0
  -31.6980  -15.0750   20.0830 O   0  0  0  0  0  0  0  0  0  0  0  0
  -29.7290  -16.2080   20.5140 N   0  0  0  0  0  0  0  0  0  0  0  0
  -28.7500  -16.0310   20.6840 H   0  0  0  0  0  0  0  0  0  0  0  0
  -25.1840  -13.8910   20.5140 C   0  0  0  0  0  0  0  0  0  0  0  0
  -24.1240  -13.1070   20.8790 C   0  0  0  0  0  0  0  0  0  0  0  0
  -24.5970  -11.7600   20.8440 C   0  0  0  0  0  0  0  0  0  0  0  0
  -26.2330  -13.0200   20.2720 N   0  0  0  0  0  0  0  0  0  0  0  0
  -25.8900  -11.7330   20.5380 N   0  0  0  0  0  0  0  0  0  0  0  0
  -23.8780  -10.4910   21.0270 C   0  0  0  0  0  0  0  0  0  0  0  0
  -24.2990   -9.5320   21.9740 C   0  0  0  0  0  3  0  0  0  0  0  0
  -23.5780   -8.3300   22.1440 C   0  0  0  0  0  3  0  0  0  0  0  0
  -22.4220   -8.0800   21.3690 C   0  0  0  0  0  0  0  0  0  0  0  0
  -22.0200   -9.0290   20.4110 C   0  0  0  0  0  3  0  0  0  0  0  0
  -22.7420  -10.2210   20.2390 C   0  0  0  0  0  3  0  0  0  0  0  0
  -21.6730   -6.9300   21.4480 O   0  0  0  0  0  0  0  0  0  0  0  0
  -21.5920   -6.2040   22.6090 C   0  0  0  0  0  0  0  0  0  0  0  0
  -21.0880   -6.7620   23.8030 C   0  0  0  0  0  3  0  0  0  0  0  0
  -20.9560   -5.9600   24.9540 C   0  0  0  0  0  3  0  0  0  0  0  0
  -21.3170   -4.6010   24.9110 C   0  0  0  0  0  0  0  0  0  0  0  0
  -21.8140   -4.0410   23.7200 C   0  0  0  0  0  3  0  0  0  0  0  0
  -21.9470   -4.8400   22.5720 C   0  0  0  0  0  0  0  0  0  0  0  0
  -22.4060   -4.2910   21.4220 F   0  0  0  0  0  0  0  0  0  0  0  0
  -21.1840   -3.8280   26.0150 F   0  0  0  0  0  0  0  0  0  0  0  0
  -22.7220  -13.5750   21.1440 C   0  0  0  0  0  0  0  0  0  0  0  0
  -21.9960  -12.8730   22.0070 N   0  0  0  0  0  0  0  0  0  0  0  0
  -22.2810  -14.5970   20.6220 O   0  0  0  0  0  0  0  0  0  0  0  0
  -22.3660  -12.0460   22.4510 H   0  0  0  0  0  0  0  0  0  0  0  0
  -21.0550  -13.1690   22.2280 H   0  0  0  0  0  0  0  0  0  0  0  0
  -25.3370  -15.2630   20.3400 N   0  0  0  0  0  0  0  0  0  0  0  0
  -24.5600  -15.9060   20.4450 H   0  0  0  0  0  0  0  0  0  0  0  0
  -26.1690  -15.7080   19.9750 H   0  0  0  0  0  0  0  0  0  0  0  0
  -29.0290  -23.3820   20.4160 C   0  0  0  0  0  3  0  0  0  0  0  0
  -27.9630  -24.6690   20.1410 C   0  0  0  0  0  3  0  0  0  0  0  0
  -28.2330  -26.2020   20.3050 O   0  0  0  0  0  0  0  0  0  0  0  0
  -24.6270  -31.9210   23.2680 C   0  0  0  0  0  0  0  0  0  0  0  0
  -27.1820  -27.1920   20.2370 C   0  0  0  0  0  0  0  0  0  0  0  0
  -23.4220  -30.5340   21.6260 C   0  0  0  0  0  3  0  0  0  0  0  0
  -24.8630  -28.9530   20.2010 C   0  0  0  0  0  0  0  0  0  0  0  0
  -25.9780  -30.7850   21.4650 C   0  0  0  0  0  2  0  0  0  0  0  0
  -26.0440  -29.3920   20.8100 C   0  0  0  0  0  0  0  0  0  0  0  0
  -27.2050  -28.5280   20.8090 C   0  0  0  0  0  3  0  0  0  0  0  0
  -25.9720  -26.8550   19.5890 C   0  0  0  0  0  3  0  0  0  0  0  0
  -24.8400  -27.6980   19.5740 C   0  0  0  0  0  3  0  0  0  0  0  0
  -23.6410  -29.8570   20.2470 C   0  0  0  0  0  2  0  0  0  0  0  0
  -24.6960  -31.1010   22.1750 N   0  0  0  0  0  0  0  0  0  0  0  0
  -23.5410  -32.2110   23.7940 O   0  0  0  0  0  0  0  0  0  0  0  0
  -22.7350  -29.5300   22.5850 C   0  0  0  0  0  0  0  0  0  0  0  0
  -21.4070  -29.3610   22.4510 N   0  0  0  0  0  0  0  0  0  0  0  0
  -23.4000  -28.9050   23.4160 O   0  0  0  0  0  0  0  0  0  0  0  0
  -20.9280  -29.9160   21.7570 H   0  0  0  0  0  0  0  0  0  0  0  0
  -18.0210  -28.1710   22.9390 C   0  0  0  0  0  0  0  0  0  0  0  0
  -20.5790  -28.4270   23.2190 C   0  0  0  0  0  3  0  0  0  0  0  0
  -20.6800  -26.9940   22.6470 C   0  0  0  0  0  2  0  0  0  0  0  0
  -19.5820  -26.6720   21.6280 C   0  0  0  0  0  2  0  0  0  0  0  0
  -18.1970  -26.8200   22.2650 C   0  0  0  0  0  2  0  0  0  0  0  0
  -19.1380  -28.9320   23.3730 C   0  0  0  0  0  0  0  0  0  0  0  0
  -18.9180  -30.1940   23.9650 C   0  0  0  0  0  3  0  0  0  0  0  0
  -17.6120  -30.6960   24.1260 C   0  0  0  0  0  3  0  0  0  0  0  0
  -16.5100  -29.9340   23.7070 C   0  0  0  0  0  3  0  0  0  0  0  0
  -16.7140  -28.6720   23.1200 C   0  0  0  0  0  3  0  0  0  0  0  0
  -25.9060  -32.5490   23.8980 C   0  0  0  0  0  3  0  0  0  0  0  0
  -26.4050  -31.7810   25.1850 C   0  0  1  0  0  0  0  0  0  0  0  0
  -25.3000  -31.5580   26.2440 C   0  0  0  0  0  1  0  0  0  0  0  0
  -26.9810  -30.3970   24.8110 C   0  0  0  0  0  1  0  0  0  0  0  0
  -27.5540  -32.5710   25.8530 C   0  0  0  0  0  1  0  0  0  0  0  0
  -25.6030  -33.9510   24.2250 N   0  0  0  0  0  0  0  0  0  0  0  0
  -25.9210  -35.0010   23.4550 C   0  0  0  0  0  0  0  0  0  0  0  0
  -26.5650  -34.8910   22.4090 O   0  0  0  0  0  0  0  0  0  0  0  0
  -25.0270  -34.1110   25.0380 H   0  0  0  0  0  0  0  0  0  0  0  0
  -24.1770  -36.7920   23.1520 C   0  0  0  0  0  1  0  0  0  0  0  0
  -25.4500  -36.3950   23.9180 C   0  0  0  0  0  3  0  0  0  0  0  0
  -27.6090  -37.2980   24.6640 C   0  0  0  0  0  1  0  0  0  0  0  0
  -26.4750  -37.4480   23.7550 N   0  0  0  0  0  0  0  0  0  0  0  0
  -26.0720  -38.3700   23.9000 H   0  0  0  0  0  0  0  0  0  0  0  0
  1  3  2  0
  2 45  1  0
  2  1  1  0
  4  2  1  0
  5  1  1  0
  5  6  2  0
  6 15  1  0
  7 15  1  0
  8 13  1  0
  9 10  1  0
  9  8  1  0
 11 10  1  0
 11 20  1  0
 11 12  1  0
 13  7  1  0
 13 12  1  0
 14  7  2  0
 15 16  1  0
 17 18  2  0
 18 37  1  0
 19 18  1  0
 19 22  1  0
 20 17  1  0
 20 21  1  0
 21 19  2  0
 22 23  1  0
 23 24  2  0
 25 28  1  0
 25 24  1  0
 26 25  2  0
 27 26  1  0
 27 22  2  0
 28 29  1  0
 29 30  1  0
 30 31  2  0
 32 31  1  0
 32 36  1  0
 33 32  2  0
 34 29  2  0
 34 33  1  0
 35 34  1  0
 37 38  1  0
 38 41  1  0
 38 40  1  0
 39 37  2  0
 42 43  1  0
 42 17  1  0
 44 42  1  0
 46 47  1  0
 46 45  2  0
 48 59  2  0
 49 47  1  0
 49 54  1  0
 50 58  1  0
 50 60  1  0
 51 57  1  0
 51 53  1  0
 52 58  1  0
 53 52  1  0
 54 53  2  0
 55 49  2  0
 56 55  1  0
 56 51  2  0
 57 50  1  0
 58 48  1  0
 60 62  2  0
 61 60  1  0
 63 61  1  0
 64 73  2  0
 64 69  1  0
 65 61  1  0
 65 69  1  0
 66 65  1  0
 67 68  1  0
 67 66  1  0
 68 64  1  0
 69 70  2  0
 70 71  1  0
 72 71  2  0
 73 72  1  0
 74 48  1  0
 74 79  1  0
 74 75  1  0
 75 78  1  1
 75 76  1  0
 77 75  1  0
 79 82  1  0
 80 84  1  0
 80 79  1  0
 81 80  2  0
 84 83  1  0
 86 87  1  0
 86 84  1  0
 86 85  1  0
M  ISO  4   7 100  15 100  46 101  47 101
M  END
>  <TORSDO>  (40) 
F 20

>  <SCORE>  (40) 
-14.390

>  <name>  (40) 
40

>  <ligand_id>  (40) 
40

>  <original_smiles>  (40) 
[H]c1c([H])c([H])c2c(c1[H])C([H])([H])C([H])([H])C([H])([H])C2([H])N([H])C(=O)C1([H])N(C(=O)C([H])(N([H])C(=O)C([H])(N([H])C([H])([H])[H])C([H])([H])[H])C(C([H])([H])[H])(C([H])([H])[H])C([H])([H])[H])C([H])([H])c2c([H])c(OC([H])([H])C([H])([H])N([H])C(=O)C([H])([H])C([H])([H])N([H])C(=O)N3C([H])([H])C([H])([H])C([H])([H])C([H])(n4nc(-c5c([H])c([H])c(Oc6c([H])c([H])c(F)c([H])c6F)c([H])c5[H])c(C(=O)N([H])[H])c4N([H])[H])C3([H])[H])c([H])c([H])c2C1([H])[H]

>  <smiles>  (40) 
[H]c1c([H])c([H])c2c(c1[H])C([H])([H])C([H])([H])C([H])([H])C2([H])N([H])C(=O)C1([H])N(C(=O)C([H])(N([H])C(=O)C([H])(N([H])C([H])([H])[H])C([H])([H])[H])C(C([H])([H])[H])(C([H])([H])[H])C([H])([H])[H])C([H])([H])c2c([H])c(OC([H])([H])C([H])([H])N([H])C(=O)C([H])([H])C([H])([H])N([H])C(=O)N3C([H])([H])C([H])([H])C([H])([H])C([H])(n4nc(-c5c([H])c([H])c(Oc6c([H])c([H])c(F)c([H])c6F)c([H])c5[H])c(C(=O)N([H])[H])c4N([H])[H])C3([H])[H])c([H])c([H])c2C1([H])[H]

$$$$
41:0:0
     RDKit          3D

 92100  0  0  1  0  0  0  0  0999 V2000
  -30.3060  -20.3830   19.1930 C   0  0  0  0  0  0  0  0  0  0  0  0
  -29.5270  -21.5200   19.5640 N   0  0  0  0  0  0  0  0  0  0  0  0
  -31.3570  -20.5990   18.5890 O   0  0  0  0  0  0  0  0  0  0  0  0
  -28.6690  -21.2990   20.0520 H   0  0  0  0  0  0  0  0  0  0  0  0
  -31.1120  -14.7460   18.6300 C   0  0  0  0  0  0  0  0  0  0  0  0
  -30.5600  -12.4920   17.5640 C   0  0  0  0  0  2  0  0  0  0  0  0
  -29.2650  -12.5500   16.7160 C   0  0  0  0  0  2  0  0  0  0  0  0
  -28.0260  -12.2920   17.5930 C   0  0  0  0  0  2  0  0  0  0  0  0
  -28.0700  -13.1020   18.9120 C   0  0  0  0  0  3  0  0  0  0  0  0
  -29.4380  -12.9910   19.6070 C   0  0  0  0  0  2  0  0  0  0  0  0
  -30.4540  -13.5020   18.6680 N   0  0  0  0  0  0  0  0  0  0  0  0
  -32.0590  -14.8160   17.8340 O   0  0  0  0  0  0  0  0  0  0  0  0
  -30.0540  -18.5310   20.9940 C   0  0  0  0  0  2  0  0  0  0  0  0
  -30.6990  -17.4500   18.7270 C   0  0  0  0  0  2  0  0  0  0  0  0
  -29.9600  -18.7750   19.4850 C   0  0  0  0  0  3  0  0  0  0  0  0
  -29.7650  -17.0640   21.3900 C   0  0  0  0  0  3  0  0  0  0  0  0
  -30.7560  -16.0390   20.7440 C   0  0  0  0  0  3  0  0  0  0  0  0
  -32.2260  -16.2300   21.1850 C   0  0  0  0  0  1  0  0  0  0  0  0
  -30.6330  -15.9540   19.2650 N   0  0  0  0  0  0  0  0  0  0  0  0
  -26.2680  -13.5970   20.6580 C   0  0  0  0  0  0  0  0  0  0  0  0
  -25.2900  -12.8220   21.2190 C   0  0  0  0  0  0  0  0  0  0  0  0
  -25.4650  -11.5110   20.6760 C   0  0  0  0  0  0  0  0  0  0  0  0
  -26.9750  -12.7590   19.8120 N   0  0  0  0  0  0  0  0  0  0  0  0
  -26.5260  -11.4800   19.8790 N   0  0  0  0  0  0  0  0  0  0  0  0
  -24.6470  -10.3000   20.8270 C   0  0  0  0  0  0  0  0  0  0  0  0
  -25.0830   -9.2030   21.6000 C   0  0  0  0  0  3  0  0  0  0  0  0
  -24.2710   -8.0580   21.7440 C   0  0  0  0  0  3  0  0  0  0  0  0
  -23.0050   -8.0040   21.1130 C   0  0  0  0  0  0  0  0  0  0  0  0
  -22.5840   -9.0900   20.3240 C   0  0  0  0  0  3  0  0  0  0  0  0
  -23.3970  -10.2260   20.1790 C   0  0  0  0  0  3  0  0  0  0  0  0
  -22.1570   -6.9240   21.1750 O   0  0  0  0  0  0  0  0  0  0  0  0
  -21.9690   -6.2220   22.3380 C   0  0  0  0  0  0  0  0  0  0  0  0
  -21.5430   -6.8530   23.5270 C   0  0  0  0  0  3  0  0  0  0  0  0
  -21.2950   -6.0840   24.6810 C   0  0  0  0  0  3  0  0  0  0  0  0
  -21.4640   -4.6860   24.6460 C   0  0  0  0  0  0  0  0  0  0  0  0
  -21.8830   -4.0570   23.4620 C   0  0  0  0  0  3  0  0  0  0  0  0
  -22.1320   -4.8230   22.3100 C   0  0  0  0  0  0  0  0  0  0  0  0
  -22.5150   -4.2090   21.1640 F   0  0  0  0  0  0  0  0  0  0  0  0
  -21.2190   -3.9450   25.7520 F   0  0  0  0  0  0  0  0  0  0  0  0
  -24.1940  -13.2920   22.1290 C   0  0  0  0  0  0  0  0  0  0  0  0
  -23.7630  -12.4440   23.0560 N   0  0  0  0  0  0  0  0  0  0  0  0
  -23.7450  -14.4340   22.0520 O   0  0  0  0  0  0  0  0  0  0  0  0
  -24.1460  -11.5130   23.1270 H   0  0  0  0  0  0  0  0  0  0  0  0
  -23.0420  -12.7300   23.7030 H   0  0  0  0  0  0  0  0  0  0  0  0
  -26.6010  -14.9420   20.7710 N   0  0  0  0  0  0  0  0  0  0  0  0
  -26.0720  -15.5910   21.3440 H   0  0  0  0  0  0  0  0  0  0  0  0
  -27.3560  -15.3860   20.2640 H   0  0  0  0  0  0  0  0  0  0  0  0
  -29.2520  -15.5530   23.4140 C   0  0  0  0  0  1  0  0  0  0  0  0
  -29.6800  -16.9460   22.9300 C   0  0  0  0  0  2  0  0  0  0  0  0
  -29.7960  -23.0790   19.4090 C   0  0  0  0  0  3  0  0  0  0  0  0
  -28.6770  -24.3230   19.6620 C   0  0  0  0  0  3  0  0  0  0  0  0
  -28.9280  -25.8700   19.6700 O   0  0  0  0  0  0  0  0  0  0  0  0
  -25.1780  -31.3210   22.9740 C   0  0  0  0  0  0  0  0  0  0  0  0
  -27.8520  -26.8360   19.6830 C   0  0  0  0  0  0  0  0  0  0  0  0
  -24.0140  -30.0130   21.2400 C   0  0  0  0  0  3  0  0  0  0  0  0
  -25.4990  -28.5520   19.7390 C   0  0  0  0  0  0  0  0  0  0  0  0
  -26.5670  -30.3240   21.1170 C   0  0  0  0  0  2  0  0  0  0  0  0
  -26.6670  -28.9730   20.3880 C   0  0  0  0  0  0  0  0  0  0  0  0
  -27.8440  -28.1330   20.3430 C   0  0  0  0  0  3  0  0  0  0  0  0
  -26.6540  -26.5230   19.0010 C   0  0  0  0  0  3  0  0  0  0  0  0
  -25.5060  -27.3410   19.0330 C   0  0  0  0  0  3  0  0  0  0  0  0
  -24.2620  -29.4310   19.8230 C   0  0  0  0  0  2  0  0  0  0  0  0
  -25.2710  -30.5720   21.8330 N   0  0  0  0  0  0  0  0  0  0  0  0
  -24.0820  -31.5540   23.5080 O   0  0  0  0  0  0  0  0  0  0  0  0
  -23.3450  -28.9360   22.1300 C   0  0  0  0  0  0  0  0  0  0  0  0
  -22.0130  -28.7880   22.0210 N   0  0  0  0  0  0  0  0  0  0  0  0
  -24.0270  -28.2360   22.8850 O   0  0  0  0  0  0  0  0  0  0  0  0
  -21.5190  -29.4010   21.3910 H   0  0  0  0  0  0  0  0  0  0  0  0
  -18.6220  -27.6250   22.5510 C   0  0  0  0  0  0  0  0  0  0  0  0
  -21.1970  -27.8000   22.7330 C   0  0  0  0  0  3  0  0  0  0  0  0
  -21.2360  -26.4280   22.0220 C   0  0  0  0  0  2  0  0  0  0  0  0
  -20.0870  -26.2300   21.0300 C   0  0  0  0  0  2  0  0  0  0  0  0
  -18.7340  -26.3450   21.7400 C   0  0  0  0  0  2  0  0  0  0  0  0
  -19.7780  -28.3170   23.0040 C   0  0  0  0  0  0  0  0  0  0  0  0
  -19.6150  -29.5190   23.7250 C   0  0  0  0  0  3  0  0  0  0  0  0
  -18.3310  -30.0280   23.9950 C   0  0  0  0  0  3  0  0  0  0  0  0
  -17.1910  -29.3340   23.5520 C   0  0  0  0  0  3  0  0  0  0  0  0
  -17.3380  -28.1330   22.8380 C   0  0  0  0  0  3  0  0  0  0  0  0
  -26.4400  -31.9360   23.6520 C   0  0  0  0  0  3  0  0  0  0  0  0
  -27.1150  -30.9680   24.6990 C   0  0  1  0  0  0  0  0  0  0  0  0
  -26.1250  -30.3720   25.7270 C   0  0  0  0  0  1  0  0  0  0  0  0
  -27.8160  -29.7880   23.9870 C   0  0  0  0  0  1  0  0  0  0  0  0
  -28.2150  -31.7250   25.4810 C   0  0  0  0  0  1  0  0  0  0  0  0
  -26.0320  -33.1900   24.3050 N   0  0  0  0  0  0  0  0  0  0  0  0
  -26.2360  -34.4150   23.8010 C   0  0  0  0  0  0  0  0  0  0  0  0
  -26.8550  -34.6090   22.7520 O   0  0  0  0  0  0  0  0  0  0  0  0
  -25.4770  -33.1060   25.1450 H   0  0  0  0  0  0  0  0  0  0  0  0
  -24.3770  -36.1100   23.9000 C   0  0  0  0  0  1  0  0  0  0  0  0
  -25.6630  -35.6140   24.5820 C   0  0  0  0  0  3  0  0  0  0  0  0
  -27.7450  -36.4340   25.5950 C   0  0  0  0  0  1  0  0  0  0  0  0
  -26.6150  -36.7390   24.7210 N   0  0  0  0  0  0  0  0  0  0  0  0
  -26.1440  -37.5650   25.0820 H   0  0  0  0  0  0  0  0  0  0  0  0
  1  2  1  0
  2  4  1  0
  3  1  2  0
  5 11  1  0
  5 19  1  0
  6 11  1  0
  7  6  1  0
  7  8  1  0
  9  8  1  0
  9 10  1  0
  9 23  1  0
 11 10  1  0
 12  5  2  0
 13 16  1  0
 14 19  1  0
 14 15  1  0
 15  1  1  0
 15 13  1  0
 16 49  1  0
 17 18  1  0
 17 16  1  0
 19 17  1  0
 20 45  1  0
 20 21  2  0
 21 40  1  0
 22 25  1  0
 22 21  1  0
 23 24  1  0
 23 20  1  0
 24 22  2  0
 25 26  1  0
 26 27  2  0
 28 31  1  0
 28 27  1  0
 29 28  2  0
 30 29  1  0
 30 25  2  0
 31 32  1  0
 32 33  1  0
 33 34  2  0
 35 34  1  0
 35 39  1  0
 36 35  2  0
 37 32  2  0
 37 36  1  0
 38 37  1  0
 40 41  1  0
 41 43  1  0
 41 44  1  0
 42 40  2  0
 45 46  1  0
 47 45  1  0
 49 48  1  0
 50  2  1  0
 50 51  2  0
 51 52  1  0
 52 54  1  0
 53 64  2  0
 54 59  1  0
 55 63  1  0
 55 65  1  0
 56 62  1  0
 56 58  1  0
 57 63  1  0
 58 57  1  0
 59 58  2  0
 60 61  1  0
 60 54  2  0
 61 56  2  0
 62 55  1  0
 63 53  1  0
 65 67  2  0
 66 65  1  0
 68 66  1  0
 69 78  2  0
 69 74  1  0
 70 66  1  0
 70 74  1  0
 71 70  1  0
 72 73  1  0
 72 71  1  0
 73 69  1  0
 74 75  2  0
 75 76  1  0
 77 76  2  0
 78 77  1  0
 79 53  1  0
 79 84  1  0
 79 80  1  0
 80 83  1  1
 80 81  1  0
 82 80  1  0
 84 87  1  0
 85 84  1  0
 85 89  1  0
 86 85  2  0
 89 88  1  0
 89 91  1  0
 91 92  1  0
 91 90  1  0
M  ISO  4   5 100  19 100  51 101  52 101
M  END
>  <TORSDO>  (41) 
F 19

>  <SCORE>  (41) 
2.291

>  <name>  (41) 
41

>  <ligand_id>  (41) 
41

>  <original_smiles>  (41) 
[H]c1c([H])c([H])c2c(c1[H])C([H])([H])C([H])([H])C([H])([H])C2([H])N([H])C(=O)C1([H])N(C(=O)C([H])(N([H])C(=O)C([H])(N([H])C([H])([H])[H])C([H])([H])[H])C(C([H])([H])[H])(C([H])([H])[H])C([H])([H])[H])C([H])([H])c2c([H])c(OC([H])([H])C([H])([H])N([H])C(=O)C3([H])C([H])([H])N(C(=O)N4C([H])([H])C([H])([H])C([H])([H])C([H])(n5nc(-c6c([H])c([H])c(Oc7c([H])c([H])c(F)c([H])c7F)c([H])c6[H])c(C(=O)N([H])[H])c5N([H])[H])C4([H])[H])C([H])(C([H])([H])[H])C([H])(C([H])([H])C([H])([H])[H])C3([H])[H])c([H])c([H])c2C1([H])[H]

>  <smiles>  (41) 
[H]c1c([H])c([H])c2c(c1[H])C([H])([H])C([H])([H])C([H])([H])C2([H])N([H])C(=O)C1([H])N(C(=O)C([H])(N([H])C(=O)C([H])(N([H])C([H])([H])[H])C([H])([H])[H])C(C([H])([H])[H])(C([H])([H])[H])C([H])([H])[H])C([H])([H])c2c([H])c(OC([H])([H])C([H])([H])N([H])C(=O)C3([H])C([H])([H])N(C(=O)N4C([H])([H])C([H])([H])C([H])([H])C([H])(n5nc(-c6c([H])c([H])c(Oc7c([H])c([H])c(F)c([H])c7F)c([H])c6[H])c(C(=O)N([H])[H])c5N([H])[H])C4([H])[H])C([H])(C([H])([H])[H])C([H])(C([H])([H])C([H])([H])[H])C3([H])[H])c([H])c([H])c2C1([H])[H]

$$$$
42:0:0
     RDKit          3D

 86 93  0  0  1  0  0  0  0  0999 V2000
  -28.7430  -22.7780   19.9400 C   0  0  0  0  0  2  0  0  0  0  0  0
  -30.2460  -21.3380   21.6100 C   0  0  0  0  0  1  0  0  0  0  0  0
  -29.0370  -21.1670   20.6780 C   0  0  0  0  0  3  0  0  0  0  0  0
  -29.1070  -19.5460   20.0200 C   0  0  0  0  0  0  0  0  0  0  0  0
  -28.4590  -19.3830   18.9840 O   0  0  0  0  0  0  0  0  0  0  0  0
  -29.9230  -18.1160   20.5880 C   0  0  0  0  0  2  0  0  0  0  0  0
  -30.4000  -15.2450   20.2540 C   0  0  0  0  0  0  0  0  0  0  0  0
  -30.3680  -12.8190   19.3500 C   0  0  0  0  0  2  0  0  0  0  0  0
  -29.4340  -12.6160   18.1320 C   0  0  0  0  0  2  0  0  0  0  0  0
  -27.9890  -12.3490   18.5880 C   0  0  0  0  0  2  0  0  0  0  0  0
  -27.5460  -13.3100   19.7190 C   0  0  0  0  0  3  0  0  0  0  0  0
  -28.6050  -13.4490   20.8320 C   0  0  0  0  0  2  0  0  0  0  0  0
  -29.8270  -13.9500   20.1810 N   0  0  0  0  0  0  0  0  0  0  0  0
  -31.6260  -15.2510   20.0750 O   0  0  0  0  0  0  0  0  0  0  0  0
  -29.6330  -16.5020   20.3280 N   0  0  0  0  0  0  0  0  0  0  0  0
  -28.6410  -16.3140   20.3160 H   0  0  0  0  0  0  0  0  0  0  0  0
  -25.1800  -13.8620   20.4940 C   0  0  0  0  0  0  0  0  0  0  0  0
  -24.1240  -13.0810   20.8710 C   0  0  0  0  0  0  0  0  0  0  0  0
  -24.5960  -11.7330   20.8360 C   0  0  0  0  0  0  0  0  0  0  0  0
  -26.2240  -12.9910   20.2420 N   0  0  0  0  0  0  0  0  0  0  0  0
  -25.8860  -11.7040   20.5170 N   0  0  0  0  0  0  0  0  0  0  0  0
  -23.8750  -10.4670   21.0280 C   0  0  0  0  0  0  0  0  0  0  0  0
  -24.3230   -9.4940   21.9480 C   0  0  0  0  0  3  0  0  0  0  0  0
  -23.6000   -8.2960   22.1310 C   0  0  0  0  0  3  0  0  0  0  0  0
  -22.4150   -8.0620   21.3930 C   0  0  0  0  0  0  0  0  0  0  0  0
  -21.9860   -9.0230   20.4630 C   0  0  0  0  0  3  0  0  0  0  0  0
  -22.7090  -10.2140   20.2780 C   0  0  0  0  0  3  0  0  0  0  0  0
  -21.6630   -6.9160   21.4870 O   0  0  0  0  0  0  0  0  0  0  0  0
  -21.6430   -6.1570   22.6290 C   0  0  0  0  0  0  0  0  0  0  0  0
  -21.2560   -6.6980   23.8750 C   0  0  0  0  0  3  0  0  0  0  0  0
  -21.1830   -5.8670   25.0110 C   0  0  0  0  0  3  0  0  0  0  0  0
  -21.4870   -4.4960   24.9020 C   0  0  0  0  0  0  0  0  0  0  0  0
  -21.8670   -3.9550   23.6610 C   0  0  0  0  0  3  0  0  0  0  0  0
  -21.9420   -4.7840   22.5280 C   0  0  0  0  0  0  0  0  0  0  0  0
  -22.2870   -4.2540   21.3300 F   0  0  0  0  0  0  0  0  0  0  0  0
  -21.4100   -3.6950   25.9910 F   0  0  0  0  0  0  0  0  0  0  0  0
  -22.7250  -13.5520   21.1450 C   0  0  0  0  0  0  0  0  0  0  0  0
  -22.0030  -12.8560   22.0150 N   0  0  0  0  0  0  0  0  0  0  0  0
  -22.2820  -14.5740   20.6210 O   0  0  0  0  0  0  0  0  0  0  0  0
  -22.3760  -12.0310   22.4610 H   0  0  0  0  0  0  0  0  0  0  0  0
  -21.0650  -13.1540   22.2390 H   0  0  0  0  0  0  0  0  0  0  0  0
  -25.3320  -15.2350   20.3140 N   0  0  0  0  0  0  0  0  0  0  0  0
  -24.5550  -15.8780   20.4260 H   0  0  0  0  0  0  0  0  0  0  0  0
  -26.1580  -15.6760   19.9320 H   0  0  0  0  0  0  0  0  0  0  0  0
  -28.0720  -24.3240   20.5550 C   0  0  0  0  0  2  0  0  0  0  0  0
  -28.2390  -25.9220   20.2210 O   0  0  0  0  0  0  0  0  0  0  0  0
  -24.6320  -31.8530   23.2020 C   0  0  0  0  0  0  0  0  0  0  0  0
  -27.1970  -26.9790   20.2280 C   0  0  0  0  0  0  0  0  0  0  0  0
  -23.4380  -30.4420   21.5760 C   0  0  0  0  0  3  0  0  0  0  0  0
  -24.8870  -28.8290   20.1710 C   0  0  0  0  0  0  0  0  0  0  0  0
  -26.0020  -30.6680   21.4190 C   0  0  0  0  0  2  0  0  0  0  0  0
  -26.0760  -29.2530   20.7790 C   0  0  0  0  0  0  0  0  0  0  0  0
  -27.2290  -28.3500   20.7760 C   0  0  0  0  0  3  0  0  0  0  0  0
  -25.9760  -26.6940   19.5810 C   0  0  0  0  0  3  0  0  0  0  0  0
  -24.8590  -27.5690   19.5520 C   0  0  0  0  0  3  0  0  0  0  0  0
  -23.6670  -29.7470   20.2060 C   0  0  0  0  0  2  0  0  0  0  0  0
  -24.7130  -31.0140   22.1200 N   0  0  0  0  0  0  0  0  0  0  0  0
  -23.5440  -32.1440   23.7230 O   0  0  0  0  0  0  0  0  0  0  0  0
  -22.7490  -29.4520   22.5500 C   0  0  0  0  0  0  0  0  0  0  0  0
  -21.4180  -29.2860   22.4300 N   0  0  0  0  0  0  0  0  0  0  0  0
  -23.4170  -28.8320   23.3810 O   0  0  0  0  0  0  0  0  0  0  0  0
  -20.9320  -29.8370   21.7360 H   0  0  0  0  0  0  0  0  0  0  0  0
  -18.0380  -28.0800   22.9560 C   0  0  0  0  0  0  0  0  0  0  0  0
  -20.5980  -28.3540   23.2100 C   0  0  0  0  0  3  0  0  0  0  0  0
  -20.7010  -26.9170   22.6480 C   0  0  0  0  0  2  0  0  0  0  0  0
  -19.5970  -26.5840   21.6380 C   0  0  0  0  0  2  0  0  0  0  0  0
  -18.2170  -26.7280   22.2850 C   0  0  0  0  0  2  0  0  0  0  0  0
  -19.1560  -28.8500   23.3750 C   0  0  0  0  0  0  0  0  0  0  0  0
  -18.9320  -30.1130   23.9660 C   0  0  0  0  0  3  0  0  0  0  0  0
  -17.6250  -30.6080   24.1360 C   0  0  0  0  0  3  0  0  0  0  0  0
  -16.5230  -29.8360   23.7300 C   0  0  0  0  0  3  0  0  0  0  0  0
  -16.7300  -28.5740   23.1460 C   0  0  0  0  0  3  0  0  0  0  0  0
  -25.9040  -32.5020   23.8280 C   0  0  0  0  0  3  0  0  0  0  0  0
  -26.4200  -31.7400   25.1110 C   0  0  1  0  0  0  0  0  0  0  0  0
  -25.3260  -31.5080   26.1810 C   0  0  0  0  0  1  0  0  0  0  0  0
  -27.0050  -30.3600   24.7360 C   0  0  0  0  0  1  0  0  0  0  0  0
  -27.5680  -32.5410   25.7690 C   0  0  0  0  0  1  0  0  0  0  0  0
  -25.5800  -33.9000   24.1640 N   0  0  0  0  0  0  0  0  0  0  0  0
  -25.9010  -34.9640   23.4170 C   0  0  0  0  0  0  0  0  0  0  0  0
  -26.5640  -34.8730   22.3800 O   0  0  0  0  0  0  0  0  0  0  0  0
  -24.9890  -34.0430   24.9700 H   0  0  0  0  0  0  0  0  0  0  0  0
  -24.1590  -36.7550   23.1000 C   0  0  0  0  0  1  0  0  0  0  0  0
  -25.4120  -36.3490   23.8910 C   0  0  0  0  0  3  0  0  0  0  0  0
  -27.5530  -37.2430   24.6990 C   0  0  0  0  0  1  0  0  0  0  0  0
  -26.4370  -37.4090   23.7720 N   0  0  0  0  0  0  0  0  0  0  0  0
  -26.0280  -38.3260   23.9290 H   0  0  0  0  0  0  0  0  0  0  0  0
  1 45  1  0
  1  3  1  0
  3  2  1  0
  4  6  1  0
  4  3  1  0
  5  4  2  0
  7 15  1  0
  8 13  1  0
  9 10  1  0
  9  8  1  0
 11 10  1  0
 11 20  1  0
 11 12  1  0
 13  7  1  0
 13 12  1  0
 14  7  2  0
 15  6  1  0
 16 15  1  0
 17 18  2  0
 18 37  1  0
 19 18  1  0
 19 22  1  0
 20 17  1  0
 20 21  1  0
 21 19  2  0
 22 23  1  0
 23 24  2  0
 25 28  1  0
 25 24  1  0
 26 25  2  0
 27 26  1  0
 27 22  2  0
 28 29  1  0
 29 30  1  0
 30 31  2  0
 32 31  1  0
 32 36  1  0
 33 32  2  0
 34 29  2  0
 34 33  1  0
 35 34  1  0
 37 38  1  0
 38 41  1  0
 38 40  1  0
 39 37  2  0
 42 43  1  0
 42 17  1  0
 44 42  1  0
 46 48  1  0
 46 45  1  0
 47 58  2  0
 48 53  1  0
 49 57  1  0
 49 59  1  0
 50 56  1  0
 50 52  1  0
 51 57  1  0
 52 51  1  0
 53 52  2  0
 54 48  2  0
 55 54  1  0
 55 50  2  0
 56 49  1  0
 57 47  1  0
 59 61  2  0
 60 59  1  0
 62 60  1  0
 63 72  2  0
 63 68  1  0
 64 60  1  0
 64 68  1  0
 65 64  1  0
 66 67  1  0
 66 65  1  0
 67 63  1  0
 68 69  2  0
 69 70  1  0
 71 70  2  0
 72 71  1  0
 73 47  1  0
 73 78  1  0
 73 74  1  0
 74 77  1  1
 74 75  1  0
 76 74  1  0
 78 81  1  0
 79 83  1  0
 79 78  1  0
 80 79  2  0
 83 82  1  0
 85 83  1  0
 85 86  1  0
 85 84  1  0
M  ISO  4   7 100  15 100  45 101  46 101
M  END
>  <TORSDO>  (42) 
F 20

>  <SCORE>  (42) 
-15.790

>  <name>  (42) 
42

>  <ligand_id>  (42) 
42

>  <original_smiles>  (42) 
[H]c1c([H])c([H])c2c(c1[H])C([H])([H])C([H])([H])C([H])([H])C2([H])N([H])C(=O)C1([H])N(C(=O)C([H])(N([H])C(=O)C([H])(N([H])C([H])([H])[H])C([H])([H])[H])C(C([H])([H])[H])(C([H])([H])[H])C([H])([H])[H])C([H])([H])c2c([H])c(OC([H])([H])C([H])([H])C([H])(C(=O)C([H])([H])N([H])C(=O)N3C([H])([H])C([H])([H])C([H])([H])C([H])(n4nc(-c5c([H])c([H])c(Oc6c([H])c([H])c(F)c([H])c6F)c([H])c5[H])c(C(=O)N([H])[H])c4N([H])[H])C3([H])[H])C([H])([H])[H])c([H])c([H])c2C1([H])[H]

>  <smiles>  (42) 
[H]c1c([H])c([H])c2c(c1[H])C([H])([H])C([H])([H])C([H])([H])C2([H])N([H])C(=O)C1([H])N(C(=O)C([H])(N([H])C(=O)C([H])(N([H])C([H])([H])[H])C([H])([H])[H])C(C([H])([H])[H])(C([H])([H])[H])C([H])([H])[H])C([H])([H])c2c([H])c(OC([H])([H])C([H])([H])C([H])(C(=O)C([H])([H])N([H])C(=O)N3C([H])([H])C([H])([H])C([H])([H])C([H])(n4nc(-c5c([H])c([H])c(Oc6c([H])c([H])c(F)c([H])c6F)c([H])c5[H])c(C(=O)N([H])[H])c4N([H])[H])C3([H])[H])C([H])([H])[H])c([H])c([H])c2C1([H])[H]

$$$$
43:0:0
     RDKit          3D

 93101  0  0  1  0  0  0  0  0999 V2000
  -29.7750  -21.1030   20.7480 C   0  0  0  0  0  3  0  0  0  0  0  0
  -31.0900  -21.7960   22.8950 C   0  0  0  0  0  1  0  0  0  0  0  0
  -29.7490  -21.3750   22.2720 C   0  0  0  0  0  2  0  0  0  0  0  0
  -30.7470  -19.9420   20.3320 C   0  0  0  0  0  2  0  0  0  0  0  0
  -30.8230  -14.5500   19.7380 C   0  0  0  0  0  0  0  0  0  0  0  0
  -30.3320  -12.4610   18.4810 C   0  0  0  0  0  2  0  0  0  0  0  0
  -29.2420  -12.6860   17.4140 C   0  0  0  0  0  2  0  0  0  0  0  0
  -27.8430  -12.4730   18.0180 C   0  0  0  0  0  2  0  0  0  0  0  0
  -27.6580  -13.2520   19.3430 C   0  0  0  0  0  3  0  0  0  0  0  0
  -28.8520  -13.0220   20.3010 C   0  0  0  0  0  2  0  0  0  0  0  0
  -30.0870  -13.3990   19.5990 N   0  0  0  0  0  0  0  0  0  0  0  0
  -31.8360  -14.7190   19.0490 O   0  0  0  0  0  0  0  0  0  0  0  0
  -31.8060  -17.6350   20.8190 C   0  0  0  0  0  2  0  0  0  0  0  0
  -29.3940  -17.7080   20.2580 C   0  0  0  0  0  2  0  0  0  0  0  0
  -31.6030  -16.2050   21.3880 C   0  0  0  0  0  2  0  0  0  0  0  0
  -30.5350  -18.5060   20.9270 C   0  0  0  0  0  3  0  0  0  0  0  0
  -29.2440  -16.2480   20.7860 C   0  0  0  0  0  3  0  0  0  0  0  0
  -28.6100  -16.2140   22.1950 C   0  0  0  0  0  1  0  0  0  0  0  0
  -30.5090  -15.4630   20.7170 N   0  0  0  0  0  0  0  0  0  0  0  0
  -25.4050  -13.8170   20.4450 C   0  0  0  0  0  0  0  0  0  0  0  0
  -24.3840  -13.0220   20.8860 C   0  0  0  0  0  0  0  0  0  0  0  0
  -24.8070  -11.6750   20.6640 C   0  0  0  0  0  0  0  0  0  0  0  0
  -26.3850  -12.9490   19.9830 N   0  0  0  0  0  0  0  0  0  0  0  0
  -26.0390  -11.6520   20.1740 N   0  0  0  0  0  0  0  0  0  0  0  0
  -24.0860  -10.4090   20.8300 C   0  0  0  0  0  0  0  0  0  0  0  0
  -24.5760   -9.3880   21.6740 C   0  0  0  0  0  3  0  0  0  0  0  0
  -23.8550   -8.1850   21.8320 C   0  0  0  0  0  3  0  0  0  0  0  0
  -22.6320   -7.9950   21.1450 C   0  0  0  0  0  0  0  0  0  0  0  0
  -22.1620   -9.0040   20.2870 C   0  0  0  0  0  3  0  0  0  0  0  0
  -22.8830  -10.2000   20.1270 C   0  0  0  0  0  3  0  0  0  0  0  0
  -21.8760   -6.8500   21.2190 O   0  0  0  0  0  0  0  0  0  0  0  0
  -21.8470   -6.0820   22.3550 C   0  0  0  0  0  0  0  0  0  0  0  0
  -21.4320   -6.6060   23.6000 C   0  0  0  0  0  3  0  0  0  0  0  0
  -21.3500   -5.7630   24.7260 C   0  0  0  0  0  3  0  0  0  0  0  0
  -21.6700   -4.3960   24.6090 C   0  0  0  0  0  0  0  0  0  0  0  0
  -22.0760   -3.8720   23.3690 C   0  0  0  0  0  3  0  0  0  0  0  0
  -22.1620   -4.7120   22.2450 C   0  0  0  0  0  0  0  0  0  0  0  0
  -22.5340   -4.1990   21.0490 F   0  0  0  0  0  0  0  0  0  0  0  0
  -21.5820   -3.5840   25.6880 F   0  0  0  0  0  0  0  0  0  0  0  0
  -23.0490  -13.4840   21.3960 C   0  0  0  0  0  0  0  0  0  0  0  0
  -22.4380  -12.7150   22.2910 N   0  0  0  0  0  0  0  0  0  0  0  0
  -22.5620  -14.5560   21.0410 O   0  0  0  0  0  0  0  0  0  0  0  0
  -22.8460  -11.8440   22.5980 H   0  0  0  0  0  0  0  0  0  0  0  0
  -21.5500  -13.0020   22.6760 H   0  0  0  0  0  0  0  0  0  0  0  0
  -25.5710  -15.1970   20.3740 N   0  0  0  0  0  0  0  0  0  0  0  0
  -24.8410  -15.8380   20.6630 H   0  0  0  0  0  0  0  0  0  0  0  0
  -26.3760  -15.6640   19.9790 H   0  0  0  0  0  0  0  0  0  0  0  0
  -30.0550  -22.3980   19.9120 C   0  0  0  0  0  2  0  0  0  0  0  0
  -29.1180  -23.6330   20.1200 C   0  0  0  0  0  2  0  0  0  0  0  0
  -27.5960  -23.8530   18.0920 C   0  0  0  0  0  1  0  0  0  0  0  0
  -28.8250  -24.4290   18.8130 C   0  0  0  0  0  3  0  0  0  0  0  0
  -28.7970  -25.9920   18.8840 C   0  0  0  0  0  2  0  0  0  0  0  0
  -28.3160  -26.6220   20.0760 O   0  0  0  0  0  0  0  0  0  0  0  0
  -24.6440  -31.8730   23.1570 C   0  0  0  0  0  0  0  0  0  0  0  0
  -27.1610  -27.3780   20.0290 C   0  0  0  0  0  0  0  0  0  0  0  0
  -23.3780  -30.4670   21.5630 C   0  0  0  0  0  3  0  0  0  0  0  0
  -24.7750  -28.9080   20.0990 C   0  0  0  0  0  0  0  0  0  0  0  0
  -25.8990  -30.7980   21.2900 C   0  0  0  0  0  2  0  0  0  0  0  0
  -25.9530  -29.4220   20.6580 C   0  0  0  0  0  0  0  0  0  0  0  0
  -27.1390  -28.6540   20.6380 C   0  0  0  0  0  3  0  0  0  0  0  0
  -25.9700  -26.8850   19.4550 C   0  0  0  0  0  3  0  0  0  0  0  0
  -24.7800  -27.6380   19.5000 C   0  0  0  0  0  3  0  0  0  0  0  0
  -23.5380  -29.7750   20.1820 C   0  0  0  0  0  2  0  0  0  0  0  0
  -24.6600  -31.0610   22.0610 N   0  0  0  0  0  0  0  0  0  0  0  0
  -23.5820  -32.1610   23.7260 O   0  0  0  0  0  0  0  0  0  0  0  0
  -22.7490  -29.4600   22.5510 C   0  0  0  0  0  0  0  0  0  0  0  0
  -21.4270  -29.2500   22.4300 N   0  0  0  0  0  0  0  0  0  0  0  0
  -23.4430  -28.8700   23.3840 O   0  0  0  0  0  0  0  0  0  0  0  0
  -20.9290  -29.7780   21.7260 H   0  0  0  0  0  0  0  0  0  0  0  0
  -18.0880  -27.9590   22.9290 C   0  0  0  0  0  0  0  0  0  0  0  0
  -20.6310  -28.3170   23.2260 C   0  0  0  0  0  3  0  0  0  0  0  0
  -20.7910  -26.8670   22.7120 C   0  0  0  0  0  2  0  0  0  0  0  0
  -19.7180  -26.4640   21.6960 C   0  0  0  0  0  2  0  0  0  0  0  0
  -18.3210  -26.5880   22.3110 C   0  0  0  0  0  2  0  0  0  0  0  0
  -19.1730  -28.7750   23.3440 C   0  0  0  0  0  0  0  0  0  0  0  0
  -18.9040  -30.0530   23.8810 C   0  0  0  0  0  3  0  0  0  0  0  0
  -17.5810  -30.5180   24.0040 C   0  0  0  0  0  3  0  0  0  0  0  0
  -16.5100  -29.7000   23.6050 C   0  0  0  0  0  3  0  0  0  0  0  0
  -16.7630  -28.4220   23.0760 C   0  0  0  0  0  3  0  0  0  0  0  0
  -25.9540  -32.4990   23.7330 C   0  0  0  0  0  3  0  0  0  0  0  0
  -26.5380  -31.7040   24.9640 C   0  0  1  0  0  0  0  0  0  0  0  0
  -25.4940  -31.4290   26.0730 C   0  0  0  0  0  1  0  0  0  0  0  0
  -27.1150  -30.3420   24.5130 C   0  0  0  0  0  1  0  0  0  0  0  0
  -27.7110  -32.4950   25.5880 C   0  0  0  0  0  1  0  0  0  0  0  0
  -25.6590  -33.8900   24.1030 N   0  0  0  0  0  0  0  0  0  0  0  0
  -25.9660  -34.9580   23.3560 C   0  0  0  0  0  0  0  0  0  0  0  0
  -26.6050  -34.8770   22.3030 O   0  0  0  0  0  0  0  0  0  0  0  0
  -25.0880  -34.0310   24.9250 H   0  0  0  0  0  0  0  0  0  0  0  0
  -24.2430  -36.7690   23.0790 C   0  0  0  0  0  1  0  0  0  0  0  0
  -25.4930  -36.3350   23.8610 C   0  0  0  0  0  3  0  0  0  0  0  0
  -27.6380  -37.1870   24.6960 C   0  0  0  0  0  1  0  0  0  0  0  0
  -26.5290  -37.3870   23.7670 N   0  0  0  0  0  0  0  0  0  0  0  0
  -26.1270  -38.3030   23.9450 H   0  0  0  0  0  0  0  0  0  0  0  0
  1 48  1  0
  1  3  1  0
  3  2  1  0
  4  1  1  0
  5 19  1  0
  6 11  1  0
  7  8  1  0
  7  6  1  0
  9  8  1  0
  9 23  1  0
  9 10  1  0
 11  5  1  0
 11 10  1  0
 12  5  2  0
 13 16  1  0
 13 15  1  0
 14 17  1  0
 14 16  1  0
 16  4  1  0
 17 18  1  0
 19 17  1  0
 19 15  1  0
 20 21  2  0
 21 40  1  0
 22 25  1  0
 22 21  1  0
 23 24  1  0
 23 20  1  0
 24 22  2  0
 25 26  1  0
 26 27  2  0
 28 31  1  0
 28 27  1  0
 29 28  2  0
 30 29  1  0
 30 25  2  0
 31 32  1  0
 32 33  1  0
 33 34  2  0
 35 34  1  0
 35 39  1  0
 36 35  2  0
 37 32  2  0
 37 36  1  0
 38 37  1  0
 40 41  1  0
 41 43  1  0
 41 44  1  0
 42 40  2  0
 45 20  1  0
 45 46  1  0
 47 45  1  0
 48 49  1  0
 51 50  1  0
 51 52  1  0
 51 49  1  0
 52 53  1  0
 54 65  2  0
 55 53  1  0
 55 60  1  0
 56 64  1  0
 56 66  1  0
 57 63  1  0
 57 59  1  0
 58 64  1  0
 59 58  1  0
 60 59  2  0
 61 62  1  0
 61 55  2  0
 62 57  2  0
 63 56  1  0
 64 54  1  0
 66 68  2  0
 67 66  1  0
 69 67  1  0
 70 79  2  0
 70 75  1  0
 71 67  1  0
 71 75  1  0
 72 71  1  0
 73 74  1  0
 73 72  1  0
 74 70  1  0
 75 76  2  0
 76 77  1  0
 78 77  2  0
 79 78  1  0
 80 54  1  0
 80 85  1  0
 80 81  1  0
 81 84  1  1
 81 82  1  0
 83 81  1  0
 85 88  1  0
 86 90  1  0
 86 85  1  0
 87 86  2  0
 90 89  1  0
 92 90  1  0
 92 93  1  0
 92 91  1  0
M  ISO  4   5 100  19 100  52 101  53 101
M  END
>  <TORSDO>  (43) 
F 22

>  <SCORE>  (43) 
-10.093

>  <name>  (43) 
43

>  <ligand_id>  (43) 
43

>  <original_smiles>  (43) 
[H]c1c([H])c([H])c2c(c1[H])C([H])([H])C([H])([H])C([H])([H])C2([H])N([H])C(=O)C1([H])N(C(=O)C([H])(N([H])C(=O)C([H])(N([H])C([H])([H])[H])C([H])([H])[H])C(C([H])([H])[H])(C([H])([H])[H])C([H])([H])[H])C([H])([H])c2c([H])c(OC([H])([H])C([H])(C([H])([H])[H])C([H])([H])C([H])([H])C([H])(C([H])([H])C([H])([H])[H])C([H])([H])C3([H])C([H])([H])C([H])([H])N(C(=O)N4C([H])([H])C([H])([H])C([H])([H])C([H])(n5nc(-c6c([H])c([H])c(Oc7c([H])c([H])c(F)c([H])c7F)c([H])c6[H])c(C(=O)N([H])[H])c5N([H])[H])C4([H])[H])C([H])(C([H])([H])[H])C3([H])[H])c([H])c([H])c2C1([H])[H]

>  <smiles>  (43) 
[H]c1c([H])c([H])c2c(c1[H])C([H])([H])C([H])([H])C([H])([H])C2([H])N([H])C(=O)C1([H])N(C(=O)C([H])(N([H])C(=O)C([H])(N([H])C([H])([H])[H])C([H])([H])[H])C(C([H])([H])[H])(C([H])([H])[H])C([H])([H])[H])C([H])([H])c2c([H])c(OC([H])([H])C([H])(C([H])([H])[H])C([H])([H])C([H])([H])C([H])(C([H])([H])C([H])([H])[H])C([H])([H])C3([H])C([H])([H])C([H])([H])N(C(=O)N4C([H])([H])C([H])([H])C([H])([H])C([H])(n5nc(-c6c([H])c([H])c(Oc7c([H])c([H])c(F)c([H])c7F)c([H])c6[H])c(C(=O)N([H])[H])c5N([H])[H])C4([H])[H])C([H])(C([H])([H])[H])C3([H])[H])c([H])c([H])c2C1([H])[H]

$$$$
44:0:0
     RDKit          3D

 87 95  0  0  1  0  0  0  0  0999 V2000
  -28.9410  -22.4530   19.7420 C   0  0  0  0  0  2  0  0  0  0  0  0
  -29.1100  -21.0450   20.5050 C   0  0  0  0  0  2  0  0  0  0  0  0
  -30.5490  -19.2290   19.1730 C   0  0  0  0  0  2  0  0  0  0  0  0
  -29.2150  -19.7840   19.5590 C   0  0  0  0  0  3  0  0  0  0  0  0
  -29.5420  -18.2230   19.7090 C   0  0  0  0  0  3  0  0  0  0  0  0
  -30.1050  -17.2410   20.8080 C   0  0  0  0  0  2  0  0  0  0  0  0
  -30.5890  -14.6780   20.4190 C   0  0  0  0  0  0  0  0  0  0  0  0
  -30.3860  -12.4270   19.3640 C   0  0  0  0  0  2  0  0  0  0  0  0
  -29.4410  -12.5360   18.1470 C   0  0  0  0  0  2  0  0  0  0  0  0
  -27.9670  -12.3830   18.5720 C   0  0  0  0  0  2  0  0  0  0  0  0
  -27.6060  -13.2480   19.8100 C   0  0  0  0  0  3  0  0  0  0  0  0
  -28.6660  -13.1060   20.9240 C   0  0  0  0  0  2  0  0  0  0  0  0
  -29.9680  -13.4550   20.3380 N   0  0  0  0  0  0  0  0  0  0  0  0
  -31.7620  -14.8200   20.0680 O   0  0  0  0  0  0  0  0  0  0  0  0
  -29.7960  -15.7590   20.7180 N   0  0  0  0  0  0  0  0  0  0  0  0
  -28.8430  -15.5120   20.9480 H   0  0  0  0  0  0  0  0  0  0  0  0
  -25.2120  -13.8390   20.5250 C   0  0  0  0  0  0  0  0  0  0  0  0
  -24.1480  -13.0640   20.8990 C   0  0  0  0  0  0  0  0  0  0  0  0
  -24.6140  -11.7140   20.8730 C   0  0  0  0  0  0  0  0  0  0  0  0
  -26.2590  -12.9610   20.2960 N   0  0  0  0  0  0  0  0  0  0  0  0
  -25.9050  -11.6780   20.5680 N   0  0  0  0  0  0  0  0  0  0  0  0
  -23.8910  -10.4490   21.0660 C   0  0  0  0  0  0  0  0  0  0  0  0
  -24.3350   -9.4800   21.9930 C   0  0  0  0  0  3  0  0  0  0  0  0
  -23.6120   -8.2800   22.1740 C   0  0  0  0  0  3  0  0  0  0  0  0
  -22.4330   -8.0420   21.4290 C   0  0  0  0  0  0  0  0  0  0  0  0
  -22.0090   -9.0000   20.4930 C   0  0  0  0  0  3  0  0  0  0  0  0
  -22.7320  -10.1920   20.3090 C   0  0  0  0  0  3  0  0  0  0  0  0
  -21.6820   -6.8960   21.5230 O   0  0  0  0  0  0  0  0  0  0  0  0
  -21.6570   -6.1420   22.6680 C   0  0  0  0  0  0  0  0  0  0  0  0
  -21.2610   -6.6860   23.9100 C   0  0  0  0  0  3  0  0  0  0  0  0
  -21.1830   -5.8580   25.0490 C   0  0  0  0  0  3  0  0  0  0  0  0
  -21.4880   -4.4880   24.9460 C   0  0  0  0  0  0  0  0  0  0  0  0
  -21.8760   -3.9440   23.7090 C   0  0  0  0  0  3  0  0  0  0  0  0
  -21.9560   -4.7690   22.5720 C   0  0  0  0  0  0  0  0  0  0  0  0
  -22.3100   -4.2340   21.3790 F   0  0  0  0  0  0  0  0  0  0  0  0
  -21.4040   -3.6910   26.0360 F   0  0  0  0  0  0  0  0  0  0  0  0
  -22.7480  -13.5360   21.1650 C   0  0  0  0  0  0  0  0  0  0  0  0
  -22.0200  -12.8420   22.0330 N   0  0  0  0  0  0  0  0  0  0  0  0
  -22.3070  -14.5590   20.6390 O   0  0  0  0  0  0  0  0  0  0  0  0
  -22.3870  -12.0160   22.4820 H   0  0  0  0  0  0  0  0  0  0  0  0
  -21.0800  -13.1410   22.2530 H   0  0  0  0  0  0  0  0  0  0  0  0
  -25.3720  -15.2100   20.3400 N   0  0  0  0  0  0  0  0  0  0  0  0
  -24.6000  -15.8600   20.4390 H   0  0  0  0  0  0  0  0  0  0  0  0
  -26.2120  -15.6450   19.9820 H   0  0  0  0  0  0  0  0  0  0  0  0
  -28.6230  -23.8290   20.5090 C   0  0  0  0  0  3  0  0  0  0  0  0
  -28.4890  -25.1550   19.6150 C   0  0  0  0  0  3  0  0  0  0  0  0
  -28.3680  -26.5050   20.2290 O   0  0  0  0  0  0  0  0  0  0  0  0
  -24.6090  -31.8720   23.2350 C   0  0  0  0  0  0  0  0  0  0  0  0
  -27.2160  -27.3100   20.1650 C   0  0  0  0  0  0  0  0  0  0  0  0
  -23.3970  -30.4730   21.6000 C   0  0  0  0  0  3  0  0  0  0  0  0
  -24.8420  -28.9210   20.1670 C   0  0  0  0  0  0  0  0  0  0  0  0
  -25.9340  -30.7940   21.4040 C   0  0  0  0  0  2  0  0  0  0  0  0
  -26.0110  -29.4140   20.7560 C   0  0  0  0  0  0  0  0  0  0  0  0
  -27.1950  -28.6190   20.7480 C   0  0  0  0  0  3  0  0  0  0  0  0
  -26.0130  -26.8650   19.5670 C   0  0  0  0  0  3  0  0  0  0  0  0
  -24.8460  -27.6530   19.5640 C   0  0  0  0  0  3  0  0  0  0  0  0
  -23.6040  -29.7960   20.2190 C   0  0  0  0  0  2  0  0  0  0  0  0
  -24.6660  -31.0640   22.1360 N   0  0  0  0  0  0  0  0  0  0  0  0
  -23.5280  -32.1500   23.7750 O   0  0  0  0  0  0  0  0  0  0  0  0
  -22.7400  -29.4570   22.5640 C   0  0  0  0  0  0  0  0  0  0  0  0
  -21.4130  -29.2780   22.4420 N   0  0  0  0  0  0  0  0  0  0  0  0
  -23.4220  -28.8330   23.3810 O   0  0  0  0  0  0  0  0  0  0  0  0
  -20.9230  -29.8330   21.7550 H   0  0  0  0  0  0  0  0  0  0  0  0
  -18.0390  -28.0720   22.9440 C   0  0  0  0  0  0  0  0  0  0  0  0
  -20.5960  -28.3410   23.2160 C   0  0  0  0  0  3  0  0  0  0  0  0
  -20.7040  -26.9080   22.6460 C   0  0  0  0  0  2  0  0  0  0  0  0
  -19.6040  -26.5780   21.6330 C   0  0  0  0  0  2  0  0  0  0  0  0
  -18.2210  -26.7210   22.2750 C   0  0  0  0  0  2  0  0  0  0  0  0
  -19.1560  -28.8400   23.3710 C   0  0  0  0  0  0  0  0  0  0  0  0
  -18.9320  -30.1050   23.9570 C   0  0  0  0  0  3  0  0  0  0  0  0
  -17.6250  -30.6030   24.1200 C   0  0  0  0  0  3  0  0  0  0  0  0
  -16.5240  -29.8320   23.7090 C   0  0  0  0  0  3  0  0  0  0  0  0
  -16.7320  -28.5690   23.1260 C   0  0  0  0  0  3  0  0  0  0  0  0
  -25.8950  -32.5040   23.8510 C   0  0  0  0  0  3  0  0  0  0  0  0
  -25.5860  -33.9020   24.1850 N   0  0  0  0  0  0  0  0  0  0  0  0
  -25.9130  -34.9570   23.4270 C   0  0  0  0  0  0  0  0  0  0  0  0
  -26.5770  -34.8560   22.3910 O   0  0  0  0  0  0  0  0  0  0  0  0
  -24.9980  -34.0540   24.9920 H   0  0  0  0  0  0  0  0  0  0  0  0
  -24.1830  -36.7500   23.0890 C   0  0  0  0  0  1  0  0  0  0  0  0
  -25.4290  -36.3440   23.8910 C   0  0  0  0  0  3  0  0  0  0  0  0
  -27.5680  -37.2270   24.7090 C   0  0  0  0  0  1  0  0  0  0  0  0
  -26.4600  -37.3990   23.7740 N   0  0  0  0  0  0  0  0  0  0  0  0
  -26.0540  -38.3180   23.9260 H   0  0  0  0  0  0  0  0  0  0  0  0
  -26.4160  -31.7320   25.1250 C   0  0  1  0  0  0  0  0  0  0  0  0
  -25.3290  -31.4970   26.1990 C   0  0  0  0  0  1  0  0  0  0  0  0
  -26.9950  -30.3530   24.7310 C   0  0  0  0  0  1  0  0  0  0  0  0
  -27.5710  -32.5250   25.7830 C   0  0  0  0  0  1  0  0  0  0  0  0
  1  2  1  0
  1 45  1  0
  3  4  1  0
  3  5  1  0
  4  5  1  0
  4  2  1  0
  5  6  1  0
  7 15  1  0
  8 13  1  0
  9 10  1  0
  9  8  1  0
 11 10  1  0
 11 20  1  0
 11 12  1  0
 13  7  1  0
 13 12  1  0
 14  7  2  0
 15  6  1  0
 15 16  1  0
 17 18  2  0
 18 37  1  0
 19 18  1  0
 19 22  1  0
 20 17  1  0
 20 21  1  0
 21 19  2  0
 22 23  1  0
 23 24  2  0
 25 28  1  0
 25 24  1  0
 26 25  2  0
 27 26  1  0
 27 22  2  0
 28 29  1  0
 29 30  1  0
 30 31  2  0
 32 31  1  0
 32 36  1  0
 33 32  2  0
 34 29  2  0
 34 33  1  0
 35 34  1  0
 37 38  1  0
 38 41  1  0
 38 40  1  0
 39 37  2  0
 42 43  1  0
 42 17  1  0
 44 42  1  0
 46 47  1  0
 46 45  2  0
 48 59  2  0
 49 47  1  0
 49 54  1  0
 50 58  1  0
 50 60  1  0
 51 57  1  0
 51 53  1  0
 52 58  1  0
 53 52  1  0
 54 53  2  0
 55 49  2  0
 56 55  1  0
 56 51  2  0
 57 50  1  0
 58 48  1  0
 60 62  2  0
 61 60  1  0
 63 61  1  0
 64 73  2  0
 64 69  1  0
 65 61  1  0
 65 69  1  0
 66 65  1  0
 67 68  1  0
 67 66  1  0
 68 64  1  0
 69 70  2  0
 70 71  1  0
 72 71  2  0
 73 72  1  0
 74 48  1  0
 74 75  1  0
 74 84  1  0
 75 78  1  0
 76 80  1  0
 76 75  1  0
 77 76  2  0
 80 79  1  0
 82 80  1  0
 82 83  1  0
 82 81  1  0
 84 87  1  1
 84 85  1  0
 86 84  1  0
M  ISO  4   7 100  15 100  46 101  47 101
M  END
>  <TORSDO>  (44) 
F 21

>  <SCORE>  (44) 
-13.263

>  <name>  (44) 
44

>  <ligand_id>  (44) 
44

>  <original_smiles>  (44) 
[H]c1c([H])c([H])c2c(c1[H])C([H])([H])C([H])([H])C([H])([H])C2([H])N([H])C(=O)C1([H])N(C(=O)C([H])(N([H])C(=O)C([H])(N([H])C([H])([H])[H])C([H])([H])[H])C(C([H])([H])[H])(C([H])([H])[H])C([H])([H])[H])C([H])([H])c2c([H])c(OC([H])([H])C([H])([H])C([H])([H])C([H])([H])C3([H])C([H])([H])C3([H])C([H])([H])N([H])C(=O)N3C([H])([H])C([H])([H])C([H])([H])C([H])(n4nc(-c5c([H])c([H])c(Oc6c([H])c([H])c(F)c([H])c6F)c([H])c5[H])c(C(=O)N([H])[H])c4N([H])[H])C3([H])[H])c([H])c([H])c2C1([H])[H]

>  <smiles>  (44) 
[H]c1c([H])c([H])c2c(c1[H])C([H])([H])C([H])([H])C([H])([H])C2([H])N([H])C(=O)C1([H])N(C(=O)C([H])(N([H])C(=O)C([H])(N([H])C([H])([H])[H])C([H])([H])[H])C(C([H])([H])[H])(C([H])([H])[H])C([H])([H])[H])C([H])([H])c2c([H])c(OC([H])([H])C([H])([H])C([H])([H])C([H])([H])C3([H])C([H])([H])C3([H])C([H])([H])N([H])C(=O)N3C([H])([H])C([H])([H])C([H])([H])C([H])(n4nc(-c5c([H])c([H])c(Oc6c([H])c([H])c(F)c([H])c6F)c([H])c5[H])c(C(=O)N([H])[H])c4N([H])[H])C3([H])[H])c([H])c([H])c2C1([H])[H]

$$$$
45:0:0
     RDKit          3D

 89 96  0  0  1  0  0  0  0  0999 V2000
  -29.0120  -22.4660   19.8200 C   0  0  0  0  0  3  0  0  0  0  0  0
  -31.3350  -22.6740   18.6590 C   0  0  0  0  0  1  0  0  0  0  0  0
  -29.8160  -22.4970   18.4960 C   0  0  0  0  0  2  0  0  0  0  0  0
  -29.0020  -23.9140   20.4760 C   0  0  0  0  0  0  0  0  0  0  0  0
  -29.7190  -24.1650   21.4500 O   0  0  0  0  0  0  0  0  0  0  0  0
  -28.0520  -25.0190   19.8690 C   0  0  0  0  0  2  0  0  0  0  0  0
  -28.2900  -26.4410   20.2270 O   0  0  0  0  0  0  0  0  0  0  0  0
  -24.6030  -31.8700   23.2340 C   0  0  0  0  0  0  0  0  0  0  0  0
  -27.1850  -27.3100   20.1560 C   0  0  0  0  0  0  0  0  0  0  0  0
  -23.3880  -30.4790   21.5960 C   0  0  0  0  0  3  0  0  0  0  0  0
  -24.8280  -28.9350   20.1570 C   0  0  0  0  0  0  0  0  0  0  0  0
  -25.9290  -30.7890   21.4070 C   0  0  0  0  0  2  0  0  0  0  0  0
  -26.0010  -29.4130   20.7550 C   0  0  0  0  0  0  0  0  0  0  0  0
  -27.1820  -28.6100   20.7500 C   0  0  0  0  0  3  0  0  0  0  0  0
  -25.9900  -26.8980   19.5160 C   0  0  0  0  0  3  0  0  0  0  0  0
  -24.8250  -27.6830   19.5300 C   0  0  0  0  0  3  0  0  0  0  0  0
  -23.5950  -29.8110   20.2130 C   0  0  0  0  0  2  0  0  0  0  0  0
  -24.6590  -31.0630   22.1350 N   0  0  0  0  0  0  0  0  0  0  0  0
  -23.5220  -32.1500   23.7730 O   0  0  0  0  0  0  0  0  0  0  0  0
  -22.7280  -29.4590   22.5550 C   0  0  0  0  0  0  0  0  0  0  0  0
  -21.4010  -29.2850   22.4310 N   0  0  0  0  0  0  0  0  0  0  0  0
  -23.4070  -28.8290   23.3690 O   0  0  0  0  0  0  0  0  0  0  0  0
  -20.9130  -29.8450   21.7450 H   0  0  0  0  0  0  0  0  0  0  0  0
  -18.0210  -28.1010   22.9380 C   0  0  0  0  0  0  0  0  0  0  0  0
  -20.5810  -28.3510   23.2030 C   0  0  0  0  0  3  0  0  0  0  0  0
  -20.6760  -26.9190   22.6270 C   0  0  0  0  0  2  0  0  0  0  0  0
  -19.5710  -26.6000   21.6150 C   0  0  0  0  0  2  0  0  0  0  0  0
  -18.1910  -26.7500   22.2620 C   0  0  0  0  0  2  0  0  0  0  0  0
  -19.1430  -28.8590   23.3650 C   0  0  0  0  0  0  0  0  0  0  0  0
  -18.9290  -30.1220   23.9570 C   0  0  0  0  0  3  0  0  0  0  0  0
  -17.6270  -30.6290   24.1260 C   0  0  0  0  0  3  0  0  0  0  0  0
  -16.5190  -29.8670   23.7140 C   0  0  0  0  0  3  0  0  0  0  0  0
  -16.7170  -28.6060   23.1260 C   0  0  0  0  0  3  0  0  0  0  0  0
  -25.8890  -32.4970   23.8520 C   0  0  0  0  0  3  0  0  0  0  0  0
  -25.5840  -33.8950   24.1870 N   0  0  0  0  0  0  0  0  0  0  0  0
  -25.9130  -34.9490   23.4280 C   0  0  0  0  0  0  0  0  0  0  0  0
  -26.5750  -34.8460   22.3910 O   0  0  0  0  0  0  0  0  0  0  0  0
  -24.9950  -34.0490   24.9920 H   0  0  0  0  0  0  0  0  0  0  0  0
  -24.1830  -36.7450   23.0930 C   0  0  0  0  0  1  0  0  0  0  0  0
  -25.4310  -36.3380   23.8920 C   0  0  0  0  0  3  0  0  0  0  0  0
  -27.5760  -37.2170   24.7000 C   0  0  0  0  0  1  0  0  0  0  0  0
  -26.4640  -37.3890   23.7700 N   0  0  0  0  0  0  0  0  0  0  0  0
  -26.0600  -38.3100   23.9250 H   0  0  0  0  0  0  0  0  0  0  0  0
  -26.4070  -31.7210   25.1250 C   0  0  1  0  0  0  0  0  0  0  0  0
  -25.3170  -31.4870   26.1960 C   0  0  0  0  0  1  0  0  0  0  0  0
  -26.9830  -30.3410   24.7300 C   0  0  0  0  0  1  0  0  0  0  0  0
  -27.5640  -32.5100   25.7840 C   0  0  0  0  0  1  0  0  0  0  0  0
  -29.4000  -21.1970   20.7240 C   0  0  0  0  0  3  0  0  0  0  0  0
  -29.5520  -19.7730   20.0080 C   0  0  0  0  0  3  0  0  0  0  0  0
  -29.6150  -18.4200   20.8540 C   0  0  0  0  0  3  0  0  0  0  0  0
  -30.1380  -17.1320   20.0750 C   0  0  0  0  0  3  0  0  0  0  0  0
  -30.6220  -14.6300   20.3600 C   0  0  0  0  0  0  0  0  0  0  0  0
  -30.3540  -12.3970   19.3160 C   0  0  0  0  0  2  0  0  0  0  0  0
  -29.4180  -12.5410   18.0970 C   0  0  0  0  0  2  0  0  0  0  0  0
  -27.9460  -12.3980   18.5260 C   0  0  0  0  0  2  0  0  0  0  0  0
  -27.5960  -13.2640   19.7650 C   0  0  0  0  0  3  0  0  0  0  0  0
  -28.6530  -13.1200   20.8830 C   0  0  0  0  0  2  0  0  0  0  0  0
  -29.9650  -13.4290   20.3010 N   0  0  0  0  0  0  0  0  0  0  0  0
  -31.7840  -14.7380   19.9610 O   0  0  0  0  0  0  0  0  0  0  0  0
  -29.8770  -15.7510   20.6260 N   0  0  0  0  0  0  0  0  0  0  0  0
  -28.9420  -15.5760   20.9660 H   0  0  0  0  0  0  0  0  0  0  0  0
  -25.2050  -13.8760   20.4800 C   0  0  0  0  0  0  0  0  0  0  0  0
  -24.1350  -13.1080   20.8540 C   0  0  0  0  0  0  0  0  0  0  0  0
  -24.5920  -11.7560   20.8330 C   0  0  0  0  0  0  0  0  0  0  0  0
  -26.2460  -12.9900   20.2520 N   0  0  0  0  0  0  0  0  0  0  0  0
  -25.8820  -11.7100   20.5250 N   0  0  0  0  0  0  0  0  0  0  0  0
  -23.8600  -10.4970   21.0320 C   0  0  0  0  0  0  0  0  0  0  0  0
  -24.2970   -9.5260   21.9590 C   0  0  0  0  0  3  0  0  0  0  0  0
  -23.5660   -8.3340   22.1470 C   0  0  0  0  0  3  0  0  0  0  0  0
  -22.3830   -8.1030   21.4050 C   0  0  0  0  0  0  0  0  0  0  0  0
  -21.9650   -9.0620   20.4660 C   0  0  0  0  0  3  0  0  0  0  0  0
  -22.6960  -10.2470   20.2770 C   0  0  0  0  0  3  0  0  0  0  0  0
  -21.6230   -6.9620   21.5010 O   0  0  0  0  0  0  0  0  0  0  0  0
  -21.5940   -6.2110   22.6480 C   0  0  0  0  0  0  0  0  0  0  0  0
  -21.2100   -6.7620   23.8900 C   0  0  0  0  0  3  0  0  0  0  0  0
  -21.1270   -5.9370   25.0300 C   0  0  0  0  0  3  0  0  0  0  0  0
  -21.4170   -4.5640   24.9290 C   0  0  0  0  0  0  0  0  0  0  0  0
  -21.7950   -4.0130   23.6920 C   0  0  0  0  0  3  0  0  0  0  0  0
  -21.8810   -4.8340   22.5550 C   0  0  0  0  0  0  0  0  0  0  0  0
  -22.2240   -4.2940   21.3600 F   0  0  0  0  0  0  0  0  0  0  0  0
  -21.3310   -3.7690   26.0220 F   0  0  0  0  0  0  0  0  0  0  0  0
  -22.7390  -13.5940   21.1200 C   0  0  0  0  0  0  0  0  0  0  0  0
  -22.0080  -12.9080   21.9920 N   0  0  0  0  0  0  0  0  0  0  0  0
  -22.3050  -14.6160   20.5910 O   0  0  0  0  0  0  0  0  0  0  0  0
  -22.3730  -12.0830   22.4450 H   0  0  0  0  0  0  0  0  0  0  0  0
  -21.0720  -13.2140   22.2110 H   0  0  0  0  0  0  0  0  0  0  0  0
  -25.3740  -15.2440   20.2910 N   0  0  0  0  0  0  0  0  0  0  0  0
  -24.6070  -15.9000   20.3930 H   0  0  0  0  0  0  0  0  0  0  0  0
  -26.2190  -15.6770   19.9400 H   0  0  0  0  0  0  0  0  0  0  0  0
  1  3  1  0
  1  4  1  0
  1 48  1  0
  3  2  1  0
  4  5  2  0
  6  7  1  0
  6  4  1  0
  8 19  2  0
  9  7  1  0
  9 14  1  0
 10 18  1  0
 10 20  1  0
 11 17  1  0
 11 13  1  0
 12 18  1  0
 13 12  1  0
 14 13  2  0
 15 16  1  0
 15  9  2  0
 16 11  2  0
 17 10  1  0
 18  8  1  0
 20 22  2  0
 21 20  1  0
 23 21  1  0
 24 33  2  0
 24 29  1  0
 25 21  1  0
 25 29  1  0
 26 25  1  0
 27 28  1  0
 27 26  1  0
 28 24  1  0
 29 30  2  0
 30 31  1  0
 32 31  2  0
 33 32  1  0
 34  8  1  0
 34 35  1  0
 34 44  1  0
 35 38  1  0
 36 40  1  0
 36 35  1  0
 37 36  2  0
 40 39  1  0
 42 40  1  0
 42 43  1  0
 42 41  1  0
 44 47  1  1
 44 45  1  0
 46 44  1  0
 49 48  2  0
 49 50  1  0
 51 60  1  0
 51 50  2  0
 52 60  1  0
 53 58  1  0
 54 55  1  0
 54 53  1  0
 56 55  1  0
 56 65  1  0
 56 57  1  0
 58 52  1  0
 58 57  1  0
 59 52  2  0
 60 61  1  0
 62 63  2  0
 63 82  1  0
 64 63  1  0
 64 67  1  0
 65 62  1  0
 65 66  1  0
 66 64  2  0
 67 68  1  0
 68 69  2  0
 70 73  1  0
 70 69  1  0
 71 70  2  0
 72 71  1  0
 72 67  2  0
 73 74  1  0
 74 75  1  0
 75 76  2  0
 77 76  1  0
 77 81  1  0
 78 77  2  0
 79 74  2  0
 79 78  1  0
 80 79  1  0
 82 83  1  0
 83 86  1  0
 83 85  1  0
 84 82  2  0
 87 88  1  0
 87 62  1  0
 89 87  1  0
M  ISO  4   6 101   7 101  52 100  60 100
M  END
>  <TORSDO>  (45) 
F 23

>  <SCORE>  (45) 
-12.595

>  <name>  (45) 
45

>  <ligand_id>  (45) 
45

>  <original_smiles>  (45) 
[H]c1c([H])c([H])c2c(c1[H])C([H])([H])C([H])([H])C([H])([H])C2([H])N([H])C(=O)C1([H])N(C(=O)C([H])(N([H])C(=O)C([H])(N([H])C([H])([H])[H])C([H])([H])[H])C(C([H])([H])[H])(C([H])([H])[H])C([H])([H])[H])C([H])([H])c2c([H])c(OC([H])([H])C(=O)C([H])(C([H])([H])C([H])([H])[H])C([H])([H])C([H])([H])C([H])([H])C([H])([H])N([H])C(=O)N3C([H])([H])C([H])([H])C([H])([H])C([H])(n4nc(-c5c([H])c([H])c(Oc6c([H])c([H])c(F)c([H])c6F)c([H])c5[H])c(C(=O)N([H])[H])c4N([H])[H])C3([H])[H])c([H])c([H])c2C1([H])[H]

>  <smiles>  (45) 
[H]c1c([H])c([H])c2c(c1[H])C([H])([H])C([H])([H])C([H])([H])C2([H])N([H])C(=O)C1([H])N(C(=O)C([H])(N([H])C(=O)C([H])(N([H])C([H])([H])[H])C([H])([H])[H])C(C([H])([H])[H])(C([H])([H])[H])C([H])([H])[H])C([H])([H])c2c([H])c(OC([H])([H])C(=O)C([H])(C([H])([H])C([H])([H])[H])C([H])([H])C([H])([H])C([H])([H])C([H])([H])N([H])C(=O)N3C([H])([H])C([H])([H])C([H])([H])C([H])(n4nc(-c5c([H])c([H])c(Oc6c([H])c([H])c(F)c([H])c6F)c([H])c5[H])c(C(=O)N([H])[H])c4N([H])[H])C3([H])[H])c([H])c([H])c2C1([H])[H]

$$$$
46:0:0
     RDKit          3D

 89 97  0  0  1  0  0  0  0  0999 V2000
  -28.8580  -21.3150   20.2440 C   0  0  0  0  0  2  0  0  0  0  0  0
  -29.8700  -19.9880   22.2280 C   0  0  0  0  0  1  0  0  0  0  0  0
  -29.8240  -20.1080   20.6950 C   0  0  0  0  0  3  0  0  0  0  0  0
  -31.0890  -14.9530   20.1870 C   0  0  0  0  0  0  0  0  0  0  0  0
  -30.8410  -12.6400   19.2960 C   0  0  0  0  0  2  0  0  0  0  0  0
  -29.9010  -12.6210   18.0680 C   0  0  0  0  0  2  0  0  0  0  0  0
  -28.4150  -12.5950   18.4850 C   0  0  0  0  0  2  0  0  0  0  0  0
  -28.0700  -13.5300   19.6750 C   0  0  0  0  0  3  0  0  0  0  0  0
  -29.1270  -13.4780   20.7940 C   0  0  0  0  0  2  0  0  0  0  0  0
  -30.4220  -13.7560   20.1690 N   0  0  0  0  0  0  0  0  0  0  0  0
  -32.3150  -14.9840   20.0390 O   0  0  0  0  0  0  0  0  0  0  0  0
  -29.3570  -17.3290   17.9250 C   0  0  0  0  0  2  0  0  0  0  0  0
  -29.5670  -18.7070   18.5430 C   0  0  0  0  0  2  0  0  0  0  0  0
  -30.4350  -16.3660   18.4200 C   0  0  0  0  0  2  0  0  0  0  0  0
  -30.4670  -17.4190   20.5920 C   0  0  0  0  0  2  0  0  0  0  0  0
  -29.5520  -18.6470   20.0770 C   0  0  0  0  0  3  0  0  0  0  0  0
  -30.3510  -16.0890   19.8670 N   0  0  0  0  0  0  0  0  0  0  0  0
  -25.7190  -14.1890   20.4600 C   0  0  0  0  0  0  0  0  0  0  0  0
  -24.6280  -13.4440   20.8170 C   0  0  0  0  0  0  0  0  0  0  0  0
  -25.0390  -12.0780   20.7420 C   0  0  0  0  0  0  0  0  0  0  0  0
  -26.7250  -13.2800   20.1830 N   0  0  0  0  0  0  0  0  0  0  0  0
  -26.3260  -12.0030   20.4220 N   0  0  0  0  0  0  0  0  0  0  0  0
  -24.2700  -10.8380   20.9000 C   0  0  0  0  0  0  0  0  0  0  0  0
  -24.6480   -9.8500   21.8350 C   0  0  0  0  0  3  0  0  0  0  0  0
  -23.8820   -8.6740   21.9820 C   0  0  0  0  0  3  0  0  0  0  0  0
  -22.7240   -8.4760   21.1930 C   0  0  0  0  0  0  0  0  0  0  0  0
  -22.3660   -9.4530   20.2490 C   0  0  0  0  0  3  0  0  0  0  0  0
  -23.1310  -10.6210   20.0990 C   0  0  0  0  0  3  0  0  0  0  0  0
  -21.9270   -7.3580   21.2520 O   0  0  0  0  0  0  0  0  0  0  0  0
  -21.7820   -6.6380   22.4100 C   0  0  0  0  0  0  0  0  0  0  0  0
  -21.2440   -7.2120   23.5840 C   0  0  0  0  0  3  0  0  0  0  0  0
  -21.0500   -6.4160   24.7310 C   0  0  0  0  0  3  0  0  0  0  0  0
  -21.3820   -5.0470   24.7030 C   0  0  0  0  0  0  0  0  0  0  0  0
  -21.9090   -4.4720   23.5340 C   0  0  0  0  0  3  0  0  0  0  0  0
  -22.1070   -5.2660   22.3900 C   0  0  0  0  0  0  0  0  0  0  0  0
  -22.5970   -4.7030   21.2600 F   0  0  0  0  0  0  0  0  0  0  0  0
  -21.1870   -4.2810   25.8020 F   0  0  0  0  0  0  0  0  0  0  0  0
  -23.2530  -13.9620   21.1200 C   0  0  0  0  0  0  0  0  0  0  0  0
  -22.5100  -13.2670   21.9740 N   0  0  0  0  0  0  0  0  0  0  0  0
  -22.8480  -15.0170   20.6330 O   0  0  0  0  0  0  0  0  0  0  0  0
  -22.8520  -12.4130   22.3850 H   0  0  0  0  0  0  0  0  0  0  0  0
  -21.5870  -13.5970   22.2210 H   0  0  0  0  0  0  0  0  0  0  0  0
  -25.9380  -15.5560   20.3200 N   0  0  0  0  0  0  0  0  0  0  0  0
  -25.2090  -16.2450   20.4660 H   0  0  0  0  0  0  0  0  0  0  0  0
  -26.8220  -15.9630   20.0350 H   0  0  0  0  0  0  0  0  0  0  0  0
  -29.0080  -22.7730   20.8870 C   0  0  0  0  0  3  0  0  0  0  0  0
  -28.4210  -24.0430   20.1110 C   0  0  0  0  0  3  0  0  0  0  0  0
  -28.3540  -25.4290   20.8970 C   0  0  0  0  0  2  0  0  0  0  0  0
  -28.3930  -26.7180   20.1750 O   0  0  0  0  0  0  0  0  0  0  0  0
  -24.6020  -31.9970   23.2980 C   0  0  0  0  0  0  0  0  0  0  0  0
  -27.2530  -27.5230   20.1950 C   0  0  0  0  0  0  0  0  0  0  0  0
  -23.4020  -30.5930   21.6540 C   0  0  0  0  0  3  0  0  0  0  0  0
  -24.8630  -29.0720   20.2070 C   0  0  0  0  0  0  0  0  0  0  0  0
  -25.9320  -30.9620   21.4450 C   0  0  0  0  0  2  0  0  0  0  0  0
  -26.0280  -29.5920   20.7870 C   0  0  0  0  0  0  0  0  0  0  0  0
  -27.2310  -28.8300   20.7600 C   0  0  0  0  0  3  0  0  0  0  0  0
  -26.0650  -27.0350   19.6090 C   0  0  0  0  0  3  0  0  0  0  0  0
  -24.8820  -27.7990   19.6100 C   0  0  0  0  0  3  0  0  0  0  0  0
  -23.6140  -29.9260   20.2680 C   0  0  0  0  0  2  0  0  0  0  0  0
  -24.6640  -31.2010   22.1880 N   0  0  0  0  0  0  0  0  0  0  0  0
  -23.5210  -32.2520   23.8460 O   0  0  0  0  0  0  0  0  0  0  0  0
  -22.7650  -29.5610   22.6140 C   0  0  0  0  0  0  0  0  0  0  0  0
  -21.4440  -29.3470   22.4830 N   0  0  0  0  0  0  0  0  0  0  0  0
  -23.4580  -28.9540   23.4340 O   0  0  0  0  0  0  0  0  0  0  0  0
  -20.9470  -29.8880   21.7890 H   0  0  0  0  0  0  0  0  0  0  0  0
  -18.1000  -28.0550   22.9600 C   0  0  0  0  0  0  0  0  0  0  0  0
  -20.6470  -28.3890   23.2500 C   0  0  0  0  0  3  0  0  0  0  0  0
  -20.7940  -26.9590   22.6810 C   0  0  0  0  0  2  0  0  0  0  0  0
  -19.7110  -26.6010   21.6570 C   0  0  0  0  0  2  0  0  0  0  0  0
  -18.3210  -26.7110   22.2890 C   0  0  0  0  0  2  0  0  0  0  0  0
  -19.1910  -28.8520   23.3960 C   0  0  0  0  0  0  0  0  0  0  0  0
  -18.9310  -30.1110   23.9800 C   0  0  0  0  0  3  0  0  0  0  0  0
  -17.6100  -30.5730   24.1330 C   0  0  0  0  0  3  0  0  0  0  0  0
  -16.5320  -29.7740   23.7150 C   0  0  0  0  0  3  0  0  0  0  0  0
  -16.7780  -28.5170   23.1360 C   0  0  0  0  0  3  0  0  0  0  0  0
  -25.8820  -32.6430   23.9120 C   0  0  0  0  0  3  0  0  0  0  0  0
  -26.4080  -31.8860   25.1920 C   0  0  1  0  0  0  0  0  0  0  0  0
  -25.3190  -31.6220   26.2580 C   0  0  0  0  0  1  0  0  0  0  0  0
  -27.0240  -30.5200   24.8060 C   0  0  0  0  0  1  0  0  0  0  0  0
  -27.5410  -32.7050   25.8560 C   0  0  0  0  0  1  0  0  0  0  0  0
  -25.5630  -34.0400   24.2350 N   0  0  0  0  0  0  0  0  0  0  0  0
  -25.8800  -35.0910   23.4670 C   0  0  0  0  0  0  0  0  0  0  0  0
  -26.5410  -34.9860   22.4290 O   0  0  0  0  0  0  0  0  0  0  0  0
  -24.9870  -34.1960   25.0480 H   0  0  0  0  0  0  0  0  0  0  0  0
  -24.1380  -36.8690   23.1050 C   0  0  0  0  0  1  0  0  0  0  0  0
  -25.3840  -36.4780   23.9180 C   0  0  0  0  0  3  0  0  0  0  0  0
  -27.5090  -37.3890   24.7450 C   0  0  0  0  0  1  0  0  0  0  0  0
  -26.4060  -37.5400   23.7990 N   0  0  0  0  0  0  0  0  0  0  0  0
  -25.9930  -38.4580   23.9400 H   0  0  0  0  0  0  0  0  0  0  0  0
  1  3  1  0
  1 46  1  0
  3  2  1  0
  5 10  1  0
  6  7  1  0
  6  5  1  0
  8  7  1  0
  8 21  1  0
  8  9  1  0
 10  4  1  0
 10  9  1  0
 11  4  2  0
 12 14  1  0
 12 13  1  0
 13 16  1  0
 14 17  1  0
 16 15  1  0
 16  3  1  0
 17  4  1  0
 17 15  1  0
 18 19  2  0
 19 38  1  0
 20 19  1  0
 20 23  1  0
 21 22  1  0
 21 18  1  0
 22 20  2  0
 23 24  1  0
 24 25  2  0
 26 29  1  0
 26 25  1  0
 27 26  2  0
 28 27  1  0
 28 23  2  0
 29 30  1  0
 30 31  1  0
 31 32  2  0
 33 32  1  0
 33 37  1  0
 34 33  2  0
 35 30  2  0
 35 34  1  0
 36 35  1  0
 38 39  1  0
 39 42  1  0
 39 41  1  0
 40 38  2  0
 43 18  1  0
 43 44  1  0
 45 43  1  0
 47 46  2  0
 47 48  1  0
 49 51  1  0
 49 48  1  0
 50 61  2  0
 51 56  1  0
 52 60  1  0
 52 62  1  0
 53 59  1  0
 53 55  1  0
 54 60  1  0
 55 54  1  0
 56 55  2  0
 57 58  1  0
 57 51  2  0
 58 53  2  0
 59 52  1  0
 60 50  1  0
 62 64  2  0
 63 62  1  0
 65 63  1  0
 66 75  2  0
 66 71  1  0
 67 63  1  0
 67 71  1  0
 68 67  1  0
 69 70  1  0
 69 68  1  0
 70 66  1  0
 71 72  2  0
 72 73  1  0
 74 73  2  0
 75 74  1  0
 76 50  1  0
 76 81  1  0
 76 77  1  0
 77 80  1  1
 77 78  1  0
 79 77  1  0
 81 84  1  0
 82 86  1  0
 82 81  1  0
 83 82  2  0
 86 85  1  0
 88 86  1  0
 88 89  1  0
 88 87  1  0
M  ISO  4   4 100  17 100  48 101  49 101
M  END
>  <TORSDO>  (46) 
F 20

>  <SCORE>  (46) 
-12.381

>  <name>  (46) 
46

>  <ligand_id>  (46) 
46

>  <original_smiles>  (46) 
[H]c1c([H])c([H])c2c(c1[H])C([H])([H])C([H])([H])C([H])([H])C2([H])N([H])C(=O)C1([H])N(C(=O)C([H])(N([H])C(=O)C([H])(N([H])C([H])([H])[H])C([H])([H])[H])C(C([H])([H])[H])(C([H])([H])[H])C([H])([H])[H])C([H])([H])c2c([H])c(OC([H])([H])C([H])([H])C([H])([H])C([H])([H])C([H])(C([H])([H])[H])C3([H])C([H])([H])N(C(=O)N4C([H])([H])C([H])([H])C([H])([H])C([H])(n5nc(-c6c([H])c([H])c(Oc7c([H])c([H])c(F)c([H])c7F)c([H])c6[H])c(C(=O)N([H])[H])c5N([H])[H])C4([H])[H])C([H])([H])C([H])([H])C3([H])[H])c([H])c([H])c2C1([H])[H]

>  <smiles>  (46) 
[H]c1c([H])c([H])c2c(c1[H])C([H])([H])C([H])([H])C([H])([H])C2([H])N([H])C(=O)C1([H])N(C(=O)C([H])(N([H])C(=O)C([H])(N([H])C([H])([H])[H])C([H])([H])[H])C(C([H])([H])[H])(C([H])([H])[H])C([H])([H])[H])C([H])([H])c2c([H])c(OC([H])([H])C([H])([H])C([H])([H])C([H])([H])C([H])(C([H])([H])[H])C3([H])C([H])([H])N(C(=O)N4C([H])([H])C([H])([H])C([H])([H])C([H])(n5nc(-c6c([H])c([H])c(Oc7c([H])c([H])c(F)c([H])c7F)c([H])c6[H])c(C(=O)N([H])[H])c5N([H])[H])C4([H])[H])C([H])([H])C([H])([H])C3([H])[H])c([H])c([H])c2C1([H])[H]

$$$$
47:0:0
     RDKit          3D

 92100  0  0  1  0  0  0  0  0999 V2000
  -28.8640  -20.2990   19.8530 C   0  0  0  0  0  2  0  0  0  0  0  0
  -29.9850  -21.3380   21.6430 C   0  0  0  0  0  2  0  0  0  0  0  0
  -29.5250  -19.0080   20.6830 C   0  0  0  0  0  3  0  0  0  0  0  0
  -29.3210  -21.8260   20.3310 C   0  0  0  0  0  3  0  0  0  0  0  0
  -30.5490  -19.8790   21.4810 C   0  0  0  0  0  3  0  0  0  0  0  0
  -30.6390  -15.0400   20.0540 C   0  0  0  0  0  0  0  0  0  0  0  0
  -30.4360  -12.6960   19.1090 C   0  0  0  0  0  2  0  0  0  0  0  0
  -29.4620  -12.6940   17.9080 C   0  0  0  0  0  2  0  0  0  0  0  0
  -28.0140  -12.4930   18.3900 C   0  0  0  0  0  2  0  0  0  0  0  0
  -27.6680  -13.3960   19.6030 C   0  0  0  0  0  3  0  0  0  0  0  0
  -28.7650  -13.3810   20.6890 C   0  0  0  0  0  2  0  0  0  0  0  0
  -30.0190  -13.7860   20.0430 N   0  0  0  0  0  0  0  0  0  0  0  0
  -31.8170  -15.0520   19.6790 O   0  0  0  0  0  0  0  0  0  0  0  0
  -30.2120  -17.6250   20.0260 C   0  0  0  0  0  0  0  0  0  0  0  0
  -29.9230  -16.2540   20.3330 N   0  0  0  0  0  0  0  0  0  0  0  0
  -31.0970  -17.8650   19.2000 O   0  0  0  0  0  0  0  0  0  0  0  0
  -29.0520  -16.1130   20.8210 H   0  0  0  0  0  0  0  0  0  0  0  0
  -25.3220  -13.9800   20.4370 C   0  0  0  0  0  0  0  0  0  0  0  0
  -24.2670  -13.2080   20.8380 C   0  0  0  0  0  0  0  0  0  0  0  0
  -24.7200  -11.8550   20.7770 C   0  0  0  0  0  0  0  0  0  0  0  0
  -26.3480  -13.0970   20.1470 N   0  0  0  0  0  0  0  0  0  0  0  0
  -25.9990  -11.8130   20.4180 N   0  0  0  0  0  0  0  0  0  0  0  0
  -23.9900  -10.5960   20.9800 C   0  0  0  0  0  0  0  0  0  0  0  0
  -24.4390   -9.6210   21.8980 C   0  0  0  0  0  3  0  0  0  0  0  0
  -23.7070   -8.4290   22.0900 C   0  0  0  0  0  3  0  0  0  0  0  0
  -22.5140   -8.2030   21.3640 C   0  0  0  0  0  0  0  0  0  0  0  0
  -22.0840   -9.1660   20.4350 C   0  0  0  0  0  3  0  0  0  0  0  0
  -22.8160  -10.3500   20.2400 C   0  0  0  0  0  3  0  0  0  0  0  0
  -21.7520   -7.0640   21.4670 O   0  0  0  0  0  0  0  0  0  0  0  0
  -21.7150   -6.3250   22.6220 C   0  0  0  0  0  0  0  0  0  0  0  0
  -21.3080   -6.8850   23.8520 C   0  0  0  0  0  3  0  0  0  0  0  0
  -21.2160   -6.0730   25.0000 C   0  0  0  0  0  3  0  0  0  0  0  0
  -21.5230   -4.7020   24.9190 C   0  0  0  0  0  0  0  0  0  0  0  0
  -21.9240   -4.1410   23.6940 C   0  0  0  0  0  3  0  0  0  0  0  0
  -22.0160   -4.9500   22.5480 C   0  0  0  0  0  0  0  0  0  0  0  0
  -22.3820   -4.4000   21.3650 F   0  0  0  0  0  0  0  0  0  0  0  0
  -21.4290   -3.9190   26.0200 F   0  0  0  0  0  0  0  0  0  0  0  0
  -22.8850  -13.6940   21.1650 C   0  0  0  0  0  0  0  0  0  0  0  0
  -22.1840  -12.9970   22.0520 N   0  0  0  0  0  0  0  0  0  0  0  0
  -22.4370  -14.7260   20.6670 O   0  0  0  0  0  0  0  0  0  0  0  0
  -22.5600  -12.1620   22.4750 H   0  0  0  0  0  0  0  0  0  0  0  0
  -21.2570  -13.3040   22.3120 H   0  0  0  0  0  0  0  0  0  0  0  0
  -25.4880  -15.3510   20.2660 N   0  0  0  0  0  0  0  0  0  0  0  0
  -24.7220  -16.0040   20.4000 H   0  0  0  0  0  0  0  0  0  0  0  0
  -26.3080  -15.7820   19.8580 H   0  0  0  0  0  0  0  0  0  0  0  0
  -30.9340  -19.3080   22.7900 N   0  0  0  0  0  4  0  0  0  0  0  0
  -30.1400  -19.2020   23.3960 H   0  0  0  0  0  0  0  0  0  0  0  0
  -31.5900  -19.9160   23.2470 H   0  0  0  0  0  0  0  0  0  0  0  0
  -31.3830  -18.4150   22.6910 H   0  0  0  0  0  0  0  0  0  0  0  0
  -28.4030  -23.2530   20.5810 C   0  0  0  0  0  2  0  0  0  0  0  0
  -28.4020  -24.7380   19.7570 C   0  0  0  0  0  2  0  0  0  0  0  0
  -28.2960  -26.2090   20.2880 O   0  0  0  0  0  0  0  0  0  0  0  0
  -24.6100  -31.8760   23.1840 C   0  0  0  0  0  0  0  0  0  0  0  0
  -27.2170  -27.1630   20.1630 C   0  0  0  0  0  0  0  0  0  0  0  0
  -23.4240  -30.4830   21.5290 C   0  0  0  0  0  3  0  0  0  0  0  0
  -24.8850  -28.9090   20.1090 C   0  0  0  0  0  0  0  0  0  0  0  0
  -25.9770  -30.7490   21.3880 C   0  0  0  0  0  2  0  0  0  0  0  0
  -26.0550  -29.3560   20.7320 C   0  0  0  0  0  0  0  0  0  0  0  0
  -27.2170  -28.4980   20.7430 C   0  0  0  0  0  3  0  0  0  0  0  0
  -26.0220  -26.8140   19.5000 C   0  0  0  0  0  3  0  0  0  0  0  0
  -24.8810  -27.6520   19.4780 C   0  0  0  0  0  3  0  0  0  0  0  0
  -23.6560  -29.8060   20.1500 C   0  0  0  0  0  2  0  0  0  0  0  0
  -24.6890  -31.0590   22.0890 N   0  0  0  0  0  0  0  0  0  0  0  0
  -23.5200  -32.1600   23.7030 O   0  0  0  0  0  0  0  0  0  0  0  0
  -22.7370  -29.4770   22.4850 C   0  0  0  0  0  0  0  0  0  0  0  0
  -21.4120  -29.2980   22.3390 N   0  0  0  0  0  0  0  0  0  0  0  0
  -23.4000  -28.8580   23.3220 O   0  0  0  0  0  0  0  0  0  0  0  0
  -20.9340  -29.8490   21.6400 H   0  0  0  0  0  0  0  0  0  0  0  0
  -18.0380  -28.0480   22.7640 C   0  0  0  0  0  0  0  0  0  0  0  0
  -20.5850  -28.3570   23.0990 C   0  0  0  0  0  3  0  0  0  0  0  0
  -20.7260  -26.9190   22.5480 C   0  0  0  0  0  2  0  0  0  0  0  0
  -19.6590  -26.5650   21.5070 C   0  0  0  0  0  2  0  0  0  0  0  0
  -18.2570  -26.6940   22.1090 C   0  0  0  0  0  2  0  0  0  0  0  0
  -19.1310  -28.8360   23.2140 C   0  0  0  0  0  0  0  0  0  0  0  0
  -18.8730  -30.0990   23.7850 C   0  0  0  0  0  3  0  0  0  0  0  0
  -17.5550  -30.5780   23.9110 C   0  0  0  0  0  3  0  0  0  0  0  0
  -16.4770  -29.7890   23.4760 C   0  0  0  0  0  3  0  0  0  0  0  0
  -16.7190  -28.5250   22.9080 C   0  0  0  0  0  3  0  0  0  0  0  0
  -25.8830  -32.5110   23.8240 C   0  0  0  0  0  3  0  0  0  0  0  0
  -26.3800  -31.7420   25.1110 C   0  0  1  0  0  0  0  0  0  0  0  0
  -25.2720  -31.5100   26.1650 C   0  0  0  0  0  1  0  0  0  0  0  0
  -26.9630  -30.3600   24.7340 C   0  0  0  0  0  1  0  0  0  0  0  0
  -27.5230  -32.5340   25.7860 C   0  0  0  0  0  1  0  0  0  0  0  0
  -25.5670  -33.9100   24.1570 N   0  0  0  0  0  0  0  0  0  0  0  0
  -25.9060  -34.9700   23.4100 C   0  0  0  0  0  0  0  0  0  0  0  0
  -26.5840  -34.8710   22.3830 O   0  0  0  0  0  0  0  0  0  0  0  0
  -24.9660  -34.0600   24.9530 H   0  0  0  0  0  0  0  0  0  0  0  0
  -24.1830  -36.7710   23.0600 C   0  0  0  0  0  1  0  0  0  0  0  0
  -25.4200  -36.3570   23.8740 C   0  0  0  0  0  3  0  0  0  0  0  0
  -27.5510  -37.2360   24.7220 C   0  0  0  0  0  1  0  0  0  0  0  0
  -26.4550  -37.4090   23.7720 N   0  0  0  0  0  0  0  0  0  0  0  0
  -26.0500  -38.3290   23.9210 H   0  0  0  0  0  0  0  0  0  0  0  0
  1  4  1  0
  1  3  1  0
  3 14  1  0
  3  5  1  0
  4 50  1  0
  4  2  1  0
  5  2  1  0
  5 46  1  0
  6 15  1  0
  7 12  1  0
  8  9  1  0
  8  7  1  0
 10  9  1  0
 10 21  1  0
 10 11  1  0
 12  6  1  0
 12 11  1  0
 13  6  2  0
 14 15  1  0
 15 17  1  0
 16 14  2  0
 18 19  2  0
 19 38  1  0
 20 19  1  0
 20 23  1  0
 21 22  1  0
 21 18  1  0
 22 20  2  0
 23 24  1  0
 24 25  2  0
 26 29  1  0
 26 25  1  0
 27 26  2  0
 28 27  1  0
 28 23  2  0
 29 30  1  0
 30 31  1  0
 31 32  2  0
 33 32  1  0
 33 37  1  0
 34 33  2  0
 35 30  2  0
 35 34  1  0
 36 35  1  0
 38 39  1  0
 39 42  1  0
 39 41  1  0
 40 38  2  0
 43 44  1  0
 43 18  1  0
 45 43  1  0
 46 48  1  0
 46 47  1  0
 49 46  1  0
 51 52  1  0
 51 50  1  0
 53 64  2  0
 54 52  1  0
 54 59  1  0
 55 63  1  0
 55 65  1  0
 56 62  1  0
 56 58  1  0
 57 63  1  0
 58 59  2  0
 58 57  1  0
 60 54  2  0
 61 60  1  0
 61 56  2  0
 62 55  1  0
 63 53  1  0
 65 67  2  0
 66 65  1  0
 68 66  1  0
 69 78  2  0
 69 74  1  0
 70 66  1  0
 70 74  1  0
 71 70  1  0
 72 73  1  0
 72 71  1  0
 73 69  1  0
 74 75  2  0
 75 76  1  0
 77 76  2  0
 78 77  1  0
 79 53  1  0
 79 84  1  0
 79 80  1  0
 80 83  1  1
 80 81  1  0
 82 80  1  0
 84 87  1  0
 85 89  1  0
 85 84  1  0
 86 85  2  0
 89 88  1  0
 91 89  1  0
 91 92  1  0
 91 90  1  0
M  ISO  4   6 100  15 100  51 101  52 101
M  END
>  <TORSDO>  (47) 
F 19

>  <SCORE>  (47) 
-15.644

>  <name>  (47) 
47

>  <ligand_id>  (47) 
47

>  <original_smiles>  (47) 
[H]c1c([H])c([H])c2c(c1[H])C([H])([H])C([H])([H])C([H])([H])C2([H])N([H])C(=O)C1([H])N(C(=O)C([H])(N([H])C(=O)C([H])(N([H])C([H])([H])[H])C([H])([H])[H])C(C([H])([H])[H])(C([H])([H])[H])C([H])([H])[H])C([H])([H])c2c([H])c(OC([H])([H])C([H])([H])C3([H])C([H])([H])C([H])(C(=O)N([H])C(=O)N4C([H])([H])C([H])([H])C([H])([H])C([H])(n5nc(-c6c([H])c([H])c(Oc7c([H])c([H])c(F)c([H])c7F)c([H])c6[H])c(C(=O)N([H])[H])c5N([H])[H])C4([H])[H])C([H])([N+]([H])([H])[H])C3([H])[H])c([H])c([H])c2C1([H])[H]

>  <smiles>  (47) 
[H]c1c([H])c([H])c2c(c1[H])C([H])([H])C([H])([H])C([H])([H])C2([H])N([H])C(=O)C1([H])N(C(=O)C([H])(N([H])C(=O)C([H])(N([H])C([H])([H])[H])C([H])([H])[H])C(C([H])([H])[H])(C([H])([H])[H])C([H])([H])[H])C([H])([H])c2c([H])c(OC([H])([H])C([H])([H])C3([H])C([H])([H])C([H])(C(=O)N([H])C(=O)N4C([H])([H])C([H])([H])C([H])([H])C([H])(n5nc(-c6c([H])c([H])c(Oc7c([H])c([H])c(F)c([H])c7F)c([H])c6[H])c(C(=O)N([H])[H])c5N([H])[H])C4([H])[H])C([H])([N+]([H])([H])[H])C3([H])[H])c([H])c([H])c2C1([H])[H]

$$$$
48:0:0
     RDKit          3D

 90 97  0  0  1  0  0  0  0  0999 V2000
  -28.7670  -21.4750   20.3830 C   0  0  0  0  0  2  0  0  0  0  0  0
  -26.8550  -22.6260   19.0750 C   0  0  0  0  0  1  0  0  0  0  0  0
  -28.2970  -22.7680   19.6030 C   0  0  0  0  0  3  0  0  0  0  0  0
  -28.4170  -24.1200   20.3980 C   0  0  0  0  0  3  0  0  0  0  0  0
  -28.5500  -25.4060   19.5110 C   0  0  0  0  0  3  0  0  0  0  0  0
  -28.4160  -26.6750   20.2010 O   0  0  0  0  0  0  0  0  0  0  0  0
  -24.5890  -31.8880   23.2520 C   0  0  0  0  0  0  0  0  0  0  0  0
  -27.2260  -27.3960   20.1820 C   0  0  0  0  0  0  0  0  0  0  0  0
  -23.3820  -30.4790   21.6200 C   0  0  0  0  0  3  0  0  0  0  0  0
  -24.8310  -28.9330   20.1980 C   0  0  0  0  0  0  0  0  0  0  0  0
  -25.9110  -30.8270   21.4170 C   0  0  0  0  0  2  0  0  0  0  0  0
  -25.9940  -29.4510   20.7800 C   0  0  0  0  0  0  0  0  0  0  0  0
  -27.1900  -28.6900   20.7670 C   0  0  0  0  0  3  0  0  0  0  0  0
  -26.0320  -26.8950   19.6130 C   0  0  0  0  0  3  0  0  0  0  0  0
  -24.8460  -27.6560   19.6130 C   0  0  0  0  0  3  0  0  0  0  0  0
  -23.5890  -29.7960   20.2430 C   0  0  0  0  0  2  0  0  0  0  0  0
  -24.6470  -31.0810   22.1540 N   0  0  0  0  0  0  0  0  0  0  0  0
  -23.5080  -32.1620   23.7930 O   0  0  0  0  0  0  0  0  0  0  0  0
  -22.7320  -29.4610   22.5850 C   0  0  0  0  0  0  0  0  0  0  0  0
  -21.4070  -29.2760   22.4610 N   0  0  0  0  0  0  0  0  0  0  0  0
  -23.4170  -28.8400   23.4030 O   0  0  0  0  0  0  0  0  0  0  0  0
  -20.9150  -29.8300   21.7740 H   0  0  0  0  0  0  0  0  0  0  0  0
  -18.0350  -28.0760   22.9650 C   0  0  0  0  0  0  0  0  0  0  0  0
  -20.5930  -28.3410   23.2360 C   0  0  0  0  0  3  0  0  0  0  0  0
  -20.6990  -26.9070   22.6660 C   0  0  0  0  0  2  0  0  0  0  0  0
  -19.5980  -26.5770   21.6530 C   0  0  0  0  0  2  0  0  0  0  0  0
  -18.2150  -26.7230   22.2970 C   0  0  0  0  0  2  0  0  0  0  0  0
  -19.1530  -28.8420   23.3930 C   0  0  0  0  0  0  0  0  0  0  0  0
  -18.9310  -30.1080   23.9760 C   0  0  0  0  0  3  0  0  0  0  0  0
  -17.6260  -30.6080   24.1400 C   0  0  0  0  0  3  0  0  0  0  0  0
  -16.5230  -29.8390   23.7300 C   0  0  0  0  0  3  0  0  0  0  0  0
  -16.7280  -28.5750   23.1480 C   0  0  0  0  0  3  0  0  0  0  0  0
  -25.8750  -32.5230   23.8680 C   0  0  0  0  0  3  0  0  0  0  0  0
  -25.5670  -33.9230   24.1880 N   0  0  0  0  0  0  0  0  0  0  0  0
  -25.8970  -34.9710   23.4210 C   0  0  0  0  0  0  0  0  0  0  0  0
  -26.5650  -34.8600   22.3890 O   0  0  0  0  0  0  0  0  0  0  0  0
  -24.9730  -34.0840   24.9890 H   0  0  0  0  0  0  0  0  0  0  0  0
  -24.1660  -36.7580   23.0560 C   0  0  0  0  0  1  0  0  0  0  0  0
  -25.4100  -36.3620   23.8680 C   0  0  0  0  0  3  0  0  0  0  0  0
  -27.5460  -37.2520   24.6880 C   0  0  0  0  0  1  0  0  0  0  0  0
  -26.4410  -37.4140   23.7460 N   0  0  0  0  0  0  0  0  0  0  0  0
  -26.0340  -38.3360   23.8900 H   0  0  0  0  0  0  0  0  0  0  0  0
  -26.3950  -31.7600   25.1480 C   0  0  1  0  0  0  0  0  0  0  0  0
  -25.3040  -31.5290   26.2200 C   0  0  0  0  0  1  0  0  0  0  0  0
  -26.9760  -30.3810   24.7620 C   0  0  0  0  0  1  0  0  0  0  0  0
  -27.5470  -32.5580   25.8030 C   0  0  0  0  0  1  0  0  0  0  0  0
  -28.4930  -20.0720   19.7140 C   0  0  0  0  0  3  0  0  0  0  0  0
  -28.4160  -18.8430   17.4460 C   0  0  0  0  0  1  0  0  0  0  0  0
  -29.0660  -19.9580   18.2810 C   0  0  0  0  0  2  0  0  0  0  0  0
  -28.8040  -18.8020   20.6000 C   0  0  0  0  0  3  0  0  0  0  0  0
  -30.1840  -18.0900   20.4370 C   0  0  0  0  0  3  0  0  0  0  0  0
  -30.4780  -16.8870   21.3920 C   0  0  0  0  0  2  0  0  0  0  0  0
  -30.6450  -14.5440   20.4240 C   0  0  0  0  0  0  0  0  0  0  0  0
  -30.3490  -12.3880   19.2420 C   0  0  0  0  0  2  0  0  0  0  0  0
  -29.3900  -12.5850   18.0490 C   0  0  0  0  0  2  0  0  0  0  0  0
  -27.9220  -12.4350   18.4960 C   0  0  0  0  0  2  0  0  0  0  0  0
  -27.5960  -13.2620   19.7690 C   0  0  0  0  0  3  0  0  0  0  0  0
  -28.6640  -13.0400   20.8620 C   0  0  0  0  0  2  0  0  0  0  0  0
  -29.9750  -13.3650   20.2770 N   0  0  0  0  0  0  0  0  0  0  0  0
  -31.7780  -14.7190   19.9660 O   0  0  0  0  0  0  0  0  0  0  0  0
  -29.9540  -15.5580   20.9950 N   0  0  0  0  0  0  0  0  0  0  0  0
  -29.0130  -15.3380   21.2880 H   0  0  0  0  0  0  0  0  0  0  0  0
  -25.2040  -13.8610   20.4990 C   0  0  0  0  0  0  0  0  0  0  0  0
  -24.1420  -13.0860   20.8780 C   0  0  0  0  0  0  0  0  0  0  0  0
  -24.6070  -11.7360   20.8450 C   0  0  0  0  0  0  0  0  0  0  0  0
  -26.2500  -12.9830   20.2610 N   0  0  0  0  0  0  0  0  0  0  0  0
  -25.8950  -11.7000   20.5270 N   0  0  0  0  0  0  0  0  0  0  0  0
  -23.8870  -10.4710   21.0430 C   0  0  0  0  0  0  0  0  0  0  0  0
  -24.3350   -9.5020   21.9670 C   0  0  0  0  0  3  0  0  0  0  0  0
  -23.6150   -8.3020   22.1520 C   0  0  0  0  0  3  0  0  0  0  0  0
  -22.4310   -8.0640   21.4130 C   0  0  0  0  0  0  0  0  0  0  0  0
  -22.0020   -9.0210   20.4790 C   0  0  0  0  0  3  0  0  0  0  0  0
  -22.7230  -10.2120   20.2910 C   0  0  0  0  0  3  0  0  0  0  0  0
  -21.6810   -6.9170   21.5090 O   0  0  0  0  0  0  0  0  0  0  0  0
  -21.6580   -6.1640   22.6560 C   0  0  0  0  0  0  0  0  0  0  0  0
  -21.2590   -6.7100   23.8960 C   0  0  0  0  0  3  0  0  0  0  0  0
  -21.1840   -5.8840   25.0360 C   0  0  0  0  0  3  0  0  0  0  0  0
  -21.4960   -4.5150   24.9370 C   0  0  0  0  0  0  0  0  0  0  0  0
  -21.8870   -3.9690   23.7020 C   0  0  0  0  0  3  0  0  0  0  0  0
  -21.9650   -4.7920   22.5640 C   0  0  0  0  0  0  0  0  0  0  0  0
  -22.3230   -4.2570   21.3720 F   0  0  0  0  0  0  0  0  0  0  0  0
  -21.4150   -3.7200   26.0300 F   0  0  0  0  0  0  0  0  0  0  0  0
  -22.7450  -13.5590   21.1610 C   0  0  0  0  0  0  0  0  0  0  0  0
  -22.0270  -12.8610   22.0330 N   0  0  0  0  0  0  0  0  0  0  0  0
  -22.3000  -14.5820   20.6430 O   0  0  0  0  0  0  0  0  0  0  0  0
  -22.4000  -12.0330   22.4730 H   0  0  0  0  0  0  0  0  0  0  0  0
  -21.0900  -13.1600   22.2650 H   0  0  0  0  0  0  0  0  0  0  0  0
  -25.3630  -15.2310   20.3170 N   0  0  0  0  0  0  0  0  0  0  0  0
  -24.5940  -15.8840   20.4270 H   0  0  0  0  0  0  0  0  0  0  0  0
  -26.2080  -15.6710   19.9740 H   0  0  0  0  0  0  0  0  0  0  0  0
  3  2  1  0
  3  1  1  0
  3  4  1  0
  5  6  1  0
  5  4  2  0
  7 18  2  0
  8  6  1  0
  8 13  1  0
  9 17  1  0
  9 19  1  0
 10 16  1  0
 10 12  1  0
 11 17  1  0
 12 11  1  0
 13 12  2  0
 14  8  2  0
 15 14  1  0
 15 10  2  0
 16  9  1  0
 17  7  1  0
 19 21  2  0
 20 19  1  0
 22 20  1  0
 23 32  2  0
 23 28  1  0
 24 20  1  0
 24 28  1  0
 25 24  1  0
 26 27  1  0
 26 25  1  0
 27 23  1  0
 28 29  2  0
 29 30  1  0
 31 30  2  0
 32 31  1  0
 33  7  1  0
 33 34  1  0
 33 43  1  0
 34 37  1  0
 35 39  1  0
 35 34  1  0
 36 35  2  0
 39 38  1  0
 41 39  1  0
 41 42  1  0
 41 40  1  0
 43 46  1  1
 43 44  1  0
 45 43  1  0
 47 49  1  0
 47  1  1  0
 47 50  1  0
 48 49  1  0
 51 50  2  0
 51 52  1  0
 53 61  1  0
 54 59  1  0
 55 56  1  0
 55 54  1  0
 57 56  1  0
 57 66  1  0
 57 58  1  0
 59 53  1  0
 59 58  1  0
 60 53  2  0
 61 62  1  0
 61 52  1  0
 63 64  2  0
 64 83  1  0
 65 64  1  0
 65 68  1  0
 66 63  1  0
 66 67  1  0
 67 65  2  0
 68 69  1  0
 69 70  2  0
 71 74  1  0
 71 70  1  0
 72 71  2  0
 73 72  1  0
 73 68  2  0
 74 75  1  0
 75 76  1  0
 76 77  2  0
 78 77  1  0
 78 82  1  0
 79 78  2  0
 80 75  2  0
 80 79  1  0
 81 80  1  0
 83 84  1  0
 84 87  1  0
 84 86  1  0
 85 83  2  0
 88 89  1  0
 88 63  1  0
 90 88  1  0
M  ISO  4   5 101   6 101  53 100  61 100
M  END
>  <TORSDO>  (48) 
F 24

>  <SCORE>  (48) 
-12.620

>  <name>  (48) 
48

>  <ligand_id>  (48) 
48

>  <original_smiles>  (48) 
[H]c1c([H])c([H])c2c(c1[H])C([H])([H])C([H])([H])C([H])([H])C2([H])N([H])C(=O)C1([H])N(C(=O)C([H])(N([H])C(=O)C([H])(N([H])C([H])([H])[H])C([H])([H])[H])C(C([H])([H])[H])(C([H])([H])[H])C([H])([H])[H])C([H])([H])c2c([H])c(OC([H])([H])C([H])([H])C([H])(C([H])([H])[H])C([H])([H])C([H])(C([H])([H])C([H])([H])[H])C([H])([H])C([H])([H])C([H])([H])N([H])C(=O)N3C([H])([H])C([H])([H])C([H])([H])C([H])(n4nc(-c5c([H])c([H])c(Oc6c([H])c([H])c(F)c([H])c6F)c([H])c5[H])c(C(=O)N([H])[H])c4N([H])[H])C3([H])[H])c([H])c([H])c2C1([H])[H]

>  <smiles>  (48) 
[H]c1c([H])c([H])c2c(c1[H])C([H])([H])C([H])([H])C([H])([H])C2([H])N([H])C(=O)C1([H])N(C(=O)C([H])(N([H])C(=O)C([H])(N([H])C([H])([H])[H])C([H])([H])[H])C(C([H])([H])[H])(C([H])([H])[H])C([H])([H])[H])C([H])([H])c2c([H])c(OC([H])([H])C([H])([H])C([H])(C([H])([H])[H])C([H])([H])C([H])(C([H])([H])C([H])([H])[H])C([H])([H])C([H])([H])C([H])([H])N([H])C(=O)N3C([H])([H])C([H])([H])C([H])([H])C([H])(n4nc(-c5c([H])c([H])c(Oc6c([H])c([H])c(F)c([H])c6F)c([H])c5[H])c(C(=O)N([H])[H])c4N([H])[H])C3([H])[H])c([H])c([H])c2C1([H])[H]

$$$$
49:0:0
     RDKit          3D

 89 88  0  0  1  0  0  0  0  0999 V2000
  -26.8320  -19.6820   21.1910 C   0  0  0  0  0  0  0  0  0  0  0  0
  -28.0540  -19.5260   21.2580 O   0  0  0  0  0  0  0  0  0  0  0  0
  -25.9920  -17.9540   21.1770 C   0  0  0  0  0  1  0  0  0  0  0  0
  -26.0070  -16.0880   21.9550 C   0  0  0  0  0 15  0  0  0  0  0  0
  -25.9300  -14.1110   21.7990 C   0  0  0  0  0  1  0  0  0  0  0  0
  -25.0890  -12.6050   19.8640 O   0  0  0  0  0 15  0  0  0  0  0  0
  -27.1600  -13.9080   22.8430 C   0  0  0  0  0  2  0  0  0  0  0  0
  -28.6740  -14.6030   22.7750 C   0  0  0  0  0  2  0  0  0  0  0  0
  -30.5420  -14.3390   20.8380 C   0  0  0  0  0  0  0  0  0  0  0  0
  -30.7380  -12.3690   19.2390 C   0  0  0  0  0  2  0  0  0  0  0  0
  -29.7870  -12.4880   17.9870 C   0  0  0  0  0  2  0  0  0  0  0  0
  -28.2750  -12.5050   18.2750 C   0  0  0  0  0  2  0  0  0  0  0  0
  -28.1540  -13.4080   19.4660 C   0  0  0  0  0  3  0  0  0  0  0  0
  -28.9160  -12.6260   20.5780 C   0  0  0  0  0  2  0  0  0  0  0  0
  -30.2170  -13.0990   20.4100 N   0  0  0  0  0  0  0  0  0  0  0  0
  -31.5530  -14.8850   20.3760 O   0  0  0  0  0  0  0  0  0  0  0  0
  -29.5460  -14.9920   21.5690 N   0  0  0  0  0  0  0  0  0  0  0  0
  -29.7020  -15.9900   21.5360 H   0  0  0  0  0  0  0  0  0  0  0  0
  -25.0190  -14.6610   19.7950 C   0  0  0  0  0  2  0  0  0  0  0  0
  -23.7770  -13.7430   21.0170 C   0  0  0  0  0  2  0  0  0  0  0  0
  -24.6130  -12.0740   21.8190 C   0  0  0  0  0  1  0  0  0  0  0  0
  -26.9110  -13.4930   19.8710 N   0  0  0  0  0  1  0  0  0  0  0  0
  -26.4820  -11.9060   21.2290 N   0  0  0  0  0 15  0  0  0  0  0  0
  -23.9100  -10.6830   21.5640 C   0  0  0  0  0  0  0  0  0  0  0  0
  -24.3780   -9.5130   22.2070 C   0  0  0  0  0  3  0  0  0  0  0  0
  -23.6920   -8.2700   22.1500 C   0  0  0  0  0  3  0  0  0  0  0  0
  -22.5080   -8.1110   21.3940 C   0  0  0  0  0  0  0  0  0  0  0  0
  -22.1310   -9.1940   20.5700 C   0  0  0  0  0  3  0  0  0  0  0  0
  -22.8330  -10.4370   20.6350 C   0  0  0  0  0  3  0  0  0  0  0  0
  -21.7450   -6.9520   21.4040 O   0  0  0  0  0  0  0  0  0  0  0  0
  -21.7120   -6.1120   22.5040 C   0  0  0  0  0  0  0  0  0  0  0  0
  -21.4140   -6.5880   23.8030 C   0  0  0  0  0  3  0  0  0  0  0  0
  -21.3650   -5.6980   24.8980 C   0  0  0  0  0  3  0  0  0  0  0  0
  -21.5990   -4.3240   24.7030 C   0  0  0  0  0  0  0  0  0  0  0  0
  -21.8750   -3.8400   23.4130 C   0  0  0  0  0  3  0  0  0  0  0  0
  -21.9260   -4.7270   22.3200 C   0  0  0  0  0  0  0  0  0  0  0  0
  -22.1750   -4.2390   21.0820 F   0  0  0  0  0  0  0  0  0  0  0  0
  -21.5560   -3.4690   25.7530 F   0  0  0  0  0  0  0  0  0  0  0  0
  -22.3720  -13.9090   21.1700 C   0  0  0  0  0  0  0  0  0  0  0  0
  -21.7700  -13.0510   21.9870 N   0  0  0  0  0  0  0  0  0  0  0  0
  -21.8440  -14.8180   20.5740 O   0  0  0  0  0  0  0  0  0  0  0  0
  -22.2730  -12.3100   22.4480 H   0  0  0  0  0  0  0  0  0  0  0  0
  -20.7760  -13.1370   22.1460 H   0  0  0  0  0  0  0  0  0  0  0  0
  -25.0280  -15.8600   19.2360 N   0  0  0  0  0  0  0  0  0  0  0  0
  -24.1800  -16.4040   19.1260 H   0  0  0  0  0  0  0  0  0  0  0  0
  -25.7660  -16.1430   18.6020 H   0  0  0  0  0  0  0  0  0  0  0  0
  -26.4500  -21.5660   21.1240 C   0  0  0  0  0  1  0  0  0  0  0  0
  -27.0190  -23.3580   20.3990 C   0  0  0  0  0  1  0  0  0  0  0  0
  -27.4710  -25.1100   20.6440 O   0  0  0  0  0  0  0  0  0  0  0  0
  -24.6840  -31.7980   23.1590 C   0  0  0  0  0  0  0  0  0  0  0  0
  -26.8550  -26.5110   20.3610 C   0  0  0  0  0  0  0  0  0  0  0  0
  -23.4940  -30.4250   21.5110 C   0  0  0  0  0  3  0  0  0  0  0  0
  -24.8970  -28.7660   20.0900 C   0  0  0  0  0  0  0  0  0  0  0  0
  -26.0730  -30.4690   21.4500 C   0  0  0  0  0  2  0  0  0  0  0  0
  -26.0690  -29.0270   20.8050 C   0  0  0  0  0  0  0  0  0  0  0  0
  -27.0570  -27.9150   20.9150 C   0  0  0  0  0  3  0  0  0  0  0  0
  -25.7710  -26.5290   19.4720 C   0  0  0  0  0  3  0  0  0  0  0  0
  -24.8090  -27.5640   19.3760 C   0  0  0  0  0  3  0  0  0  0  0  0
  -23.7360  -29.7630   20.1250 C   0  0  0  0  0  2  0  0  0  0  0  0
  -24.7770  -30.9380   22.0880 N   0  0  0  0  0  0  0  0  0  0  0  0
  -23.5880  -32.1140   23.6540 O   0  0  0  0  0  0  0  0  0  0  0  0
  -22.7710  -29.4350   22.4650 C   0  0  0  0  0  0  0  0  0  0  0  0
  -21.4360  -29.3020   22.3430 N   0  0  0  0  0  0  0  0  0  0  0  0
  -23.4190  -28.7920   23.2950 O   0  0  0  0  0  0  0  0  0  0  0  0
  -20.9640  -29.8710   21.6550 H   0  0  0  0  0  0  0  0  0  0  0  0
  -18.0330  -28.1410   22.8460 C   0  0  0  0  0  0  0  0  0  0  0  0
  -20.5970  -28.3770   23.1130 C   0  0  0  0  0  3  0  0  0  0  0  0
  -20.6790  -26.9430   22.5400 C   0  0  0  0  0  2  0  0  0  0  0  0
  -19.5760  -26.6370   21.5210 C   0  0  0  0  0  2  0  0  0  0  0  0
  -18.1950  -26.7940   22.1620 C   0  0  0  0  0  2  0  0  0  0  0  0
  -19.1600  -28.8910   23.2790 C   0  0  0  0  0  0  0  0  0  0  0  0
  -18.9510  -30.1500   23.8830 C   0  0  0  0  0  3  0  0  0  0  0  0
  -17.6500  -30.6600   24.0550 C   0  0  0  0  0  3  0  0  0  0  0  0
  -16.5390  -29.9080   23.6350 C   0  0  0  0  0  3  0  0  0  0  0  0
  -16.7320  -28.6500   23.0370 C   0  0  0  0  0  3  0  0  0  0  0  0
  -25.9460  -32.4400   23.8080 C   0  0  0  0  0  3  0  0  0  0  0  0
  -25.6050  -33.8250   24.1940 N   0  0  0  0  0  0  0  0  0  0  0  0
  -25.9150  -34.9240   23.4930 C   0  0  0  0  0  0  0  0  0  0  0  0
  -26.5790  -34.8820   22.4550 O   0  0  0  0  0  0  0  0  0  0  0  0
  -25.0110  -33.9290   25.0030 H   0  0  0  0  0  0  0  0  0  0  0  0
  -24.1500  -36.7110   23.2650 C   0  0  0  0  0  1  0  0  0  0  0  0
  -25.4160  -36.2850   24.0270 C   0  0  0  0  0  3  0  0  0  0  0  0
  -27.5560  -37.1720   24.8470 C   0  0  0  0  0  1  0  0  0  0  0  0
  -26.4270  -37.3620   23.9400 N   0  0  0  0  0  0  0  0  0  0  0  0
  -26.0080  -38.2660   24.1410 H   0  0  0  0  0  0  0  0  0  0  0  0
  -26.4620  -31.6480   25.0740 C   0  0  1  0  0  0  0  0  0  0  0  0
  -25.3680  -31.3820   26.1340 C   0  0  0  0  0  1  0  0  0  0  0  0
  -27.0570  -30.2800   24.6740 C   0  0  0  0  0  1  0  0  0  0  0  0
  -27.6050  -32.4390   25.7540 C   0  0  0  0  0  1  0  0  0  0  0  0
  1  2  2  0
  3  1  1  0
  5  7  1  0
  8  7  1  0
  9 17  1  0
 10 15  1  0
 11 12  1  0
 11 10  1  0
 12 13  1  0
 13 22  1  0
 13 14  1  0
 15 14  1  0
 15  9  1  0
 16  9  2  0
 17  8  1  0
 18 17  1  0
 19 20  1  0
 20 39  1  0
 24 21  1  0
 24 25  1  0
 26 25  2  0
 27 30  1  0
 27 26  1  0
 28 29  1  0
 28 27  2  0
 29 24  2  0
 30 31  1  0
 31 32  1  0
 32 33  2  0
 34 33  1  0
 34 38  1  0
 35 34  2  0
 36 31  2  0
 36 35  1  0
 37 36  1  0
 39 40  1  0
 40 43  1  0
 40 42  1  0
 41 39  2  0
 44 19  1  0
 45 44  1  0
 46 44  1  0
 47  1  1  0
 48 49  1  0
 50 61  2  0
 51 49  1  0
 51 56  1  0
 52 60  1  0
 52 62  1  0
 53 59  1  0
 53 55  1  0
 54 60  1  0
 55 56  2  0
 55 54  1  0
 57 51  2  0
 58 57  1  0
 58 53  2  0
 59 52  1  0
 60 50  1  0
 62 64  2  0
 63 62  1  0
 65 63  1  0
 66 75  2  0
 66 71  1  0
 67 63  1  0
 67 71  1  0
 68 67  1  0
 69 70  1  0
 69 68  1  0
 70 66  1  0
 71 72  2  0
 72 73  1  0
 74 73  2  0
 75 74  1  0
 76 50  1  0
 76 77  1  0
 76 86  1  0
 77 80  1  0
 78 82  1  0
 78 77  1  0
 79 78  2  0
 82 81  1  0
 84 82  1  0
 84 85  1  0
 84 83  1  0
 86 89  1  1
 86 87  1  0
 88 86  1  0
M  ISO  4   9 100  17 100  48 101  49 101
M  END
>  <TORSDO>  (49) 
F 23

>  <SCORE>  (49) 
6.665

>  <name>  (49) 
49

>  <ligand_id>  (49) 
49

>  <original_smiles>  (49) 
[H]c1c([H])c([H])c2c(c1[H])C([H])([H])C([H])([H])C([H])([H])C2([H])N([H])C(=O)C1([H])N(C(=O)C([H])(N([H])C(=O)C([H])(N([H])C([H])([H])[H])C([H])([H])[H])C(C([H])([H])[H])(C([H])([H])[H])C([H])([H])[H])C([H])([H])c2c([H])c(OC([H])([H])C([H])([H])C(=O)C([H])([H])C([H])([H])C(=O)C([H])([H])C([H])([H])N([H])C(=O)N3C([H])([H])C([H])([H])C([H])([H])C([H])(n4nc(-c5c([H])c([H])c(Oc6c([H])c([H])c(F)c([H])c6F)c([H])c5[H])c(C(=O)N([H])[H])c4N([H])[H])C3([H])[H])c([H])c([H])c2C1([H])[H]

>  <smiles>  (49) 
[H]c1c([H])c([H])c2c(c1[H])C([H])([H])C([H])([H])C([H])([H])C2([H])N([H])C(=O)C1([H])N(C(=O)C([H])(N([H])C(=O)C([H])(N([H])C([H])([H])[H])C([H])([H])[H])C(C([H])([H])[H])(C([H])([H])[H])C([H])([H])[H])C([H])([H])c2c([H])c(OC([H])([H])C([H])([H])C(=O)C([H])([H])C([H])([H])C(=O)C([H])([H])C([H])([H])N([H])C(=O)N3C([H])([H])C([H])([H])C([H])([H])C([H])(n4nc(-c5c([H])c([H])c(Oc6c([H])c([H])c(F)c([H])c6F)c([H])c5[H])c(C(=O)N([H])[H])c4N([H])[H])C3([H])[H])c([H])c([H])c2C1([H])[H]

$$$$
50:0:0
     RDKit          3D

 88 95  0  0  1  0  0  0  0  0999 V2000
  -27.8460  -22.8970   22.1630 C   0  0  0  0  0  1  0  0  0  0  0  0
  -28.8610  -23.0780   21.0160 C   0  0  0  0  0  3  0  0  0  0  0  0
  -28.9370  -21.7950   20.1220 C   0  0  0  0  0  2  0  0  0  0  0  0
  -29.4940  -20.4830   20.7750 C   0  0  0  0  0  2  0  0  0  0  0  0
  -28.6350  -19.2490   20.4800 C   0  0  0  0  0  3  0  0  0  0  0  0
  -28.9690  -17.9460   20.2890 C   0  0  0  0  0  3  0  0  0  0  0  0
  -30.3370  -17.2430   20.3230 C   0  0  0  0  0  2  0  0  0  0  0  0
  -30.8790  -14.7430   20.0240 C   0  0  0  0  0  0  0  0  0  0  0  0
  -30.5730  -12.4490   19.1060 C   0  0  0  0  0  2  0  0  0  0  0  0
  -29.6160  -12.4500   17.8820 C   0  0  0  0  0  2  0  0  0  0  0  0
  -28.1550  -12.8500   18.2170 C   0  0  0  0  0  2  0  0  0  0  0  0
  -27.8850  -12.8610   19.7200 C   0  0  0  0  0  3  0  0  0  0  0  0
  -28.9460  -13.3240   20.7180 C   0  0  0  0  0  2  0  0  0  0  0  0
  -30.2200  -13.5550   20.0240 N   0  0  0  0  0  0  0  0  0  0  0  0
  -31.9690  -14.8950   19.4720 O   0  0  0  0  0  0  0  0  0  0  0  0
  -30.1750  -15.7860   20.5270 N   0  0  0  0  0  0  0  0  0  0  0  0
  -29.3500  -15.5010   21.0310 H   0  0  0  0  0  0  0  0  0  0  0  0
  -25.5320  -13.9320   20.3590 C   0  0  0  0  0  0  0  0  0  0  0  0
  -24.4040  -13.2540   20.7600 C   0  0  0  0  0  0  0  0  0  0  0  0
  -24.7540  -11.8730   20.7430 C   0  0  0  0  0  0  0  0  0  0  0  0
  -26.4980  -12.9380   20.1550 N   0  0  0  0  0  0  0  0  0  0  0  0
  -26.0070  -11.7190   20.4270 N   0  0  0  0  0  0  0  0  0  0  0  0
  -23.9950  -10.6490   20.9410 C   0  0  0  0  0  0  0  0  0  0  0  0
  -24.4260   -9.6780   21.8700 C   0  0  0  0  0  3  0  0  0  0  0  0
  -23.6930   -8.4890   22.0430 C   0  0  0  0  0  3  0  0  0  0  0  0
  -22.5190   -8.2680   21.2860 C   0  0  0  0  0  0  0  0  0  0  0  0
  -22.1160   -9.2250   20.3370 C   0  0  0  0  0  3  0  0  0  0  0  0
  -22.8530  -10.4060   20.1580 C   0  0  0  0  0  3  0  0  0  0  0  0
  -21.7550   -7.1290   21.3720 O   0  0  0  0  0  0  0  0  0  0  0  0
  -21.6610   -6.4210   22.5410 C   0  0  0  0  0  0  0  0  0  0  0  0
  -21.1910   -7.0090   23.7360 C   0  0  0  0  0  3  0  0  0  0  0  0
  -21.0390   -6.2230   24.8950 C   0  0  0  0  0  3  0  0  0  0  0  0
  -21.3520   -4.8510   24.8620 C   0  0  0  0  0  0  0  0  0  0  0  0
  -21.8190   -4.2630   23.6740 C   0  0  0  0  0  3  0  0  0  0  0  0
  -21.9690   -5.0460   22.5160 C   0  0  0  0  0  0  0  0  0  0  0  0
  -22.3990   -4.4720   21.3670 F   0  0  0  0  0  0  0  0  0  0  0  0
  -21.2020   -4.0930   25.9740 F   0  0  0  0  0  0  0  0  0  0  0  0
  -23.0380  -13.8030   21.0660 C   0  0  0  0  0  0  0  0  0  0  0  0
  -22.3000  -13.1350   21.9460 N   0  0  0  0  0  0  0  0  0  0  0  0
  -22.6320  -14.8440   20.5550 O   0  0  0  0  0  0  0  0  0  0  0  0
  -22.6370  -12.2920   22.3900 H   0  0  0  0  0  0  0  0  0  0  0  0
  -21.3830  -13.4810   22.1890 H   0  0  0  0  0  0  0  0  0  0  0  0
  -25.8090  -15.2830   20.1530 N   0  0  0  0  0  0  0  0  0  0  0  0
  -25.1030  -16.0080   20.2180 H   0  0  0  0  0  0  0  0  0  0  0  0
  -26.6830  -15.6070   19.7570 H   0  0  0  0  0  0  0  0  0  0  0  0
  -28.5390  -24.3760   20.1960 C   0  0  0  0  0  3  0  0  0  0  0  0
  -28.5440  -25.7050   21.0130 C   0  0  0  0  0  3  0  0  0  0  0  0
  -28.5300  -26.9100   20.2200 O   0  0  0  0  0  0  0  0  0  0  0  0
  -24.6260  -31.9980   23.3730 C   0  0  0  0  0  0  0  0  0  0  0  0
  -27.3610  -27.6410   20.2500 C   0  0  0  0  0  0  0  0  0  0  0  0
  -23.4520  -30.5980   21.7060 C   0  0  0  0  0  3  0  0  0  0  0  0
  -24.9410  -29.1080   20.2630 C   0  0  0  0  0  0  0  0  0  0  0  0
  -25.9720  -31.0090   21.5200 C   0  0  0  0  0  2  0  0  0  0  0  0
  -26.0880  -29.6470   20.8610 C   0  0  0  0  0  0  0  0  0  0  0  0
  -27.3050  -28.9230   20.8450 C   0  0  0  0  0  3  0  0  0  0  0  0
  -26.2000  -27.1160   19.6470 C   0  0  0  0  0  3  0  0  0  0  0  0
  -24.9940  -27.8450   19.6450 C   0  0  0  0  0  3  0  0  0  0  0  0
  -23.6780  -29.9430   20.3180 C   0  0  0  0  0  2  0  0  0  0  0  0
  -24.7010  -31.2150   22.2600 N   0  0  0  0  0  0  0  0  0  0  0  0
  -23.5380  -32.2400   23.9140 O   0  0  0  0  0  0  0  0  0  0  0  0
  -22.8170  -29.5530   22.6510 C   0  0  0  0  0  0  0  0  0  0  0  0
  -21.5000  -29.3330   22.5020 N   0  0  0  0  0  0  0  0  0  0  0  0
  -23.5060  -28.9390   23.4700 O   0  0  0  0  0  0  0  0  0  0  0  0
  -21.0060  -29.8800   21.8120 H   0  0  0  0  0  0  0  0  0  0  0  0
  -18.1520  -28.0360   22.9330 C   0  0  0  0  0  0  0  0  0  0  0  0
  -20.6970  -28.3660   23.2510 C   0  0  0  0  0  3  0  0  0  0  0  0
  -20.8520  -26.9440   22.6650 C   0  0  0  0  0  2  0  0  0  0  0  0
  -19.7760  -26.5980   21.6300 C   0  0  0  0  0  2  0  0  0  0  0  0
  -18.3800  -26.6980   22.2520 C   0  0  0  0  0  2  0  0  0  0  0  0
  -19.2410  -28.8270   23.3880 C   0  0  0  0  0  0  0  0  0  0  0  0
  -18.9760  -30.0790   23.9850 C   0  0  0  0  0  3  0  0  0  0  0  0
  -17.6550  -30.5420   24.1310 C   0  0  0  0  0  3  0  0  0  0  0  0
  -16.5800  -29.7480   23.6930 C   0  0  0  0  0  3  0  0  0  0  0  0
  -16.8300  -28.4980   23.1000 C   0  0  0  0  0  3  0  0  0  0  0  0
  -25.8970  -32.6440   24.0060 C   0  0  0  0  0  3  0  0  0  0  0  0
  -26.3850  -31.9040   25.3120 C   0  0  1  0  0  0  0  0  0  0  0  0
  -25.2650  -31.6790   26.3550 C   0  0  0  0  0  1  0  0  0  0  0  0
  -26.9880  -30.5230   24.9620 C   0  0  0  0  0  1  0  0  0  0  0  0
  -27.5110  -32.7200   25.9880 C   0  0  0  0  0  1  0  0  0  0  0  0
  -25.5840  -34.0500   24.2930 N   0  0  0  0  0  0  0  0  0  0  0  0
  -25.9310  -35.0800   23.5110 C   0  0  0  0  0  0  0  0  0  0  0  0
  -26.6200  -34.9480   22.4950 O   0  0  0  0  0  0  0  0  0  0  0  0
  -24.9740  -34.2270   25.0780 H   0  0  0  0  0  0  0  0  0  0  0  0
  -24.2100  -36.8630   23.0740 C   0  0  0  0  0  1  0  0  0  0  0  0
  -25.4370  -36.4820   23.9190 C   0  0  0  0  0  3  0  0  0  0  0  0
  -27.5530  -37.3950   24.7660 C   0  0  0  0  0  1  0  0  0  0  0  0
  -26.4730  -37.5300   23.7940 N   0  0  0  0  0  0  0  0  0  0  0  0
  -26.0640  -38.4550   23.9000 H   0  0  0  0  0  0  0  0  0  0  0  0
  2  1  1  0
  3  4  1  0
  3  2  1  0
  5  4  1  0
  6  7  1  0
  6  5  2  0
  7 16  1  0
  8 14  1  0
  8 16  1  0
  9 14  1  0
 10 11  1  0
 10  9  1  0
 12 11  1  0
 12 21  1  0
 12 13  1  0
 14 13  1  0
 15  8  2  0
 16 17  1  0
 18 19  2  0
 19 38  1  0
 20 19  1  0
 20 23  1  0
 21 18  1  0
 21 22  1  0
 22 20  2  0
 23 24  1  0
 24 25  2  0
 26 29  1  0
 26 25  1  0
 27 26  2  0
 28 27  1  0
 28 23  2  0
 29 30  1  0
 30 31  1  0
 31 32  2  0
 33 32  1  0
 33 37  1  0
 34 33  2  0
 35 30  2  0
 35 34  1  0
 36 35  1  0
 38 39  1  0
 39 42  1  0
 39 41  1  0
 40 38  2  0
 43 44  1  0
 43 18  1  0
 45 43  1  0
 46 47  2  0
 46  2  1  0
 48 50  1  0
 48 47  1  0
 49 60  2  0
 50 55  1  0
 51 59  1  0
 51 61  1  0
 52 58  1  0
 52 54  1  0
 53 59  1  0
 54 53  1  0
 55 54  2  0
 56 50  2  0
 57 56  1  0
 57 52  2  0
 58 51  1  0
 59 49  1  0
 61 63  2  0
 62 61  1  0
 64 62  1  0
 65 74  2  0
 65 70  1  0
 66 62  1  0
 66 70  1  0
 67 66  1  0
 68 69  1  0
 68 67  1  0
 69 65  1  0
 70 71  2  0
 71 72  1  0
 73 72  2  0
 74 73  1  0
 75 49  1  0
 75 80  1  0
 75 76  1  0
 76 79  1  1
 76 77  1  0
 78 76  1  0
 80 83  1  0
 81 85  1  0
 81 80  1  0
 82 81  2  0
 85 84  1  0
 87 88  1  0
 87 85  1  0
 87 86  1  0
M  ISO  4   8 100  16 100  47 101  48 101
M  END
>  <TORSDO>  (50) 
F 22

>  <SCORE>  (50) 
-12.588

>  <name>  (50) 
50

>  <ligand_id>  (50) 
50

>  <original_smiles>  (50) 
[H]C(=C([H])C([H])([H])C([H])([H])C([H])(C([H])([H])[H])C([H])([H])C([H])([H])Oc1c([H])c([H])c2c(c1[H])C([H])([H])N(C(=O)C([H])(N([H])C(=O)C([H])(N([H])C([H])([H])[H])C([H])([H])[H])C(C([H])([H])[H])(C([H])([H])[H])C([H])([H])[H])C([H])(C(=O)N([H])C1([H])c3c([H])c([H])c([H])c([H])c3C([H])([H])C([H])([H])C1([H])[H])C2([H])[H])C([H])([H])N([H])C(=O)N1C([H])([H])C([H])([H])C([H])([H])C([H])(n2nc(-c3c([H])c([H])c(Oc4c([H])c([H])c(F)c([H])c4F)c([H])c3[H])c(C(=O)N([H])[H])c2N([H])[H])C1([H])[H]

>  <smiles>  (50) 
[H]C(=C([H])C([H])([H])C([H])([H])C([H])(C([H])([H])[H])C([H])([H])C([H])([H])Oc1c([H])c([H])c2c(c1[H])C([H])([H])N(C(=O)C([H])(N([H])C(=O)C([H])(N([H])C([H])([H])[H])C([H])([H])[H])C(C([H])([H])[H])(C([H])([H])[H])C([H])([H])[H])C([H])(C(=O)N([H])C1([H])c3c([H])c([H])c([H])c([H])c3C([H])([H])C([H])([H])C1([H])[H])C2([H])[H])C([H])([H])N([H])C(=O)N1C([H])([H])C([H])([H])C([H])([H])C([H])(n2nc(-c3c([H])c([H])c(Oc4c([H])c([H])c(F)c([H])c4F)c([H])c3[H])c(C(=O)N([H])[H])c2N([H])[H])C1([H])[H]

$$$$
51:0:0
     RDKit          3D

 90 98  0  0  1  0  0  0  0  0999 V2000
  -30.5650  -21.0980   18.0020 C   0  0  0  0  0  0  0  0  0  0  0  0
  -31.5020  -21.2110   17.2100 O   0  0  0  0  0  0  0  0  0  0  0  0
  -31.6040  -15.1130   18.4420 C   0  0  0  0  0  0  0  0  0  0  0  0
  -31.2630  -12.6160   17.8290 C   0  0  0  0  0  2  0  0  0  0  0  0
  -30.0890  -12.3620   16.8510 C   0  0  0  0  0  2  0  0  0  0  0  0
  -28.7650  -12.2080   17.6190 C   0  0  0  0  0  2  0  0  0  0  0  0
  -28.6030  -13.2880   18.7130 C   0  0  0  0  0  3  0  0  0  0  0  0
  -29.8770  -13.4740   19.5630 C   0  0  0  0  0  2  0  0  0  0  0  0
  -30.9670  -13.8540   18.6450 N   0  0  0  0  0  0  0  0  0  0  0  0
  -32.6760  -15.0100   17.8270 O   0  0  0  0  0  0  0  0  0  0  0  0
  -29.6350  -17.7100   20.3440 C   0  0  0  0  0  2  0  0  0  0  0  0
  -30.8750  -16.8240   20.1160 C   0  0  0  0  0  2  0  0  0  0  0  0
  -31.1540  -17.9540   18.0360 C   0  0  0  0  0  2  0  0  0  0  0  0
  -30.2430  -19.4210   18.4500 C   0  0  0  0  0  3  0  0  0  0  0  0
  -29.7460  -19.2180   19.9260 C   0  0  0  0  0  3  0  0  0  0  0  0
  -31.0180  -16.4560   18.7040 N   0  0  0  0  0  0  0  0  0  0  0  0
  -26.6470  -14.0360   20.1690 C   0  0  0  0  0  0  0  0  0  0  0  0
  -25.6020  -13.3600   20.7340 C   0  0  0  0  0  0  0  0  0  0  0  0
  -25.8020  -11.9820   20.4130 C   0  0  0  0  0  0  0  0  0  0  0  0
  -27.4190  -13.0800   19.5350 N   0  0  0  0  0  0  0  0  0  0  0  0
  -26.9430  -11.8250   19.7450 N   0  0  0  0  0  0  0  0  0  0  0  0
  -24.9410  -10.8160   20.6490 C   0  0  0  0  0  0  0  0  0  0  0  0
  -25.2550   -9.8510   21.6320 C   0  0  0  0  0  3  0  0  0  0  0  0
  -24.3990   -8.7510   21.8540 C   0  0  0  0  0  3  0  0  0  0  0  0
  -23.2160   -8.6040   21.0910 C   0  0  0  0  0  0  0  0  0  0  0  0
  -22.9180   -9.5540   20.0990 C   0  0  0  0  0  3  0  0  0  0  0  0
  -23.7730  -10.6480   19.8760 C   0  0  0  0  0  3  0  0  0  0  0  0
  -22.3410   -7.5530   21.2210 O   0  0  0  0  0  0  0  0  0  0  0  0
  -21.7840   -7.2220   22.4310 C   0  0  0  0  0  0  0  0  0  0  0  0
  -20.9920   -8.1360   23.1600 C   0  0  0  0  0  3  0  0  0  0  0  0
  -20.3810   -7.7340   24.3630 C   0  0  0  0  0  3  0  0  0  0  0  0
  -20.5540   -6.4180   24.8360 C   0  0  0  0  0  0  0  0  0  0  0  0
  -21.3360   -5.5050   24.1100 C   0  0  0  0  0  3  0  0  0  0  0  0
  -21.9490   -5.9050   22.9080 C   0  0  0  0  0  0  0  0  0  0  0  0
  -22.6840   -5.0150   22.2010 F   0  0  0  0  0  0  0  0  0  0  0  0
  -19.9590   -6.0290   25.9900 F   0  0  0  0  0  0  0  0  0  0  0  0
  -24.4290  -13.9720   21.4420 C   0  0  0  0  0  0  0  0  0  0  0  0
  -23.8950  -13.2860   22.4480 N   0  0  0  0  0  0  0  0  0  0  0  0
  -24.0130  -15.0880   21.1380 O   0  0  0  0  0  0  0  0  0  0  0  0
  -24.2510  -12.3810   22.7140 H   0  0  0  0  0  0  0  0  0  0  0  0
  -23.1220  -13.6740   22.9680 H   0  0  0  0  0  0  0  0  0  0  0  0
  -26.9980  -15.3800   20.1130 N   0  0  0  0  0  0  0  0  0  0  0  0
  -26.4300  -16.1160   20.5180 H   0  0  0  0  0  0  0  0  0  0  0  0
  -27.8010  -15.7270   19.6060 H   0  0  0  0  0  0  0  0  0  0  0  0
  -28.3610  -19.8820   20.1610 C   0  0  0  0  0  2  0  0  0  0  0  0
  -27.3350  -17.8990   21.4350 C   0  0  0  0  0  1  0  0  0  0  0  0
  -27.1510  -18.9420   20.3260 C   0  0  0  0  0  2  0  0  0  0  0  0
  -29.8360  -22.6320   18.4350 C   0  0  0  0  0  3  0  0  0  0  0  0
  -29.6960  -24.2340   17.6280 C   0  0  0  0  0  3  0  0  0  0  0  0
  -29.3580  -25.7980   18.0180 O   0  0  0  0  0  0  0  0  0  0  0  0
  -24.6760  -30.0760   22.0580 C   0  0  0  0  0  0  0  0  0  0  0  0
  -28.0980  -26.5840   18.1210 C   0  0  0  0  0  0  0  0  0  0  0  0
  -23.7340  -28.7310   20.2230 C   0  0  0  0  0  3  0  0  0  0  0  0
  -25.4150  -27.8030   18.4830 C   0  0  0  0  0  0  0  0  0  0  0  0
  -26.1550  -29.5920   20.0480 C   0  0  0  0  0  2  0  0  0  0  0  0
  -26.5100  -28.3770   19.1430 C   0  0  0  0  0  0  0  0  0  0  0  0
  -27.8340  -27.7830   18.9480 C   0  0  0  0  0  3  0  0  0  0  0  0
  -26.9370  -26.1540   17.4400 C   0  0  0  0  0  3  0  0  0  0  0  0
  -25.6470  -26.7230   17.6150 C   0  0  0  0  0  3  0  0  0  0  0  0
  -24.0180  -28.3720   18.7360 C   0  0  0  0  0  2  0  0  0  0  0  0
  -24.8740  -29.4890   20.8330 N   0  0  0  0  0  0  0  0  0  0  0  0
  -23.5910  -29.9930   22.6560 O   0  0  0  0  0  0  0  0  0  0  0  0
  -23.3670  -27.4470   21.0100 C   0  0  0  0  0  0  0  0  0  0  0  0
  -22.1100  -26.9770   20.8850 N   0  0  0  0  0  0  0  0  0  0  0  0
  -24.2170  -26.8800   21.7010 O   0  0  0  0  0  0  0  0  0  0  0  0
  -21.4620  -27.4990   20.3120 H   0  0  0  0  0  0  0  0  0  0  0  0
  -19.1400  -24.9420   21.3300 C   0  0  0  0  0  0  0  0  0  0  0  0
  -21.5940  -25.7460   21.4950 C   0  0  0  0  0  3  0  0  0  0  0  0
  -21.9450  -24.5090   20.6360 C   0  0  0  0  0  2  0  0  0  0  0  0
  -20.8430  -24.1330   19.6420 C   0  0  0  0  0  2  0  0  0  0  0  0
  -19.5370  -23.8260   20.3790 C   0  0  0  0  0  2  0  0  0  0  0  0
  -20.1030  -25.8530   21.8420 C   0  0  0  0  0  0  0  0  0  0  0  0
  -19.6760  -26.8890   22.7000 C   0  0  0  0  0  3  0  0  0  0  0  0
  -18.3180  -27.0240   23.0460 C   0  0  0  0  0  3  0  0  0  0  0  0
  -17.3710  -26.1120   22.5470 C   0  0  0  0  0  3  0  0  0  0  0  0
  -17.7810  -25.0730   21.6940 C   0  0  0  0  0  3  0  0  0  0  0  0
  -25.8030  -30.8940   22.7630 C   0  0  0  0  0  3  0  0  0  0  0  0
  -26.6150  -30.0460   23.8180 C   0  0  1  0  0  0  0  0  0  0  0  0
  -25.7240  -29.3080   24.8460 C   0  0  0  0  0  1  0  0  0  0  0  0
  -27.4970  -28.9870   23.1170 C   0  0  0  0  0  1  0  0  0  0  0  0
  -27.5780  -30.9700   24.6010 C   0  0  0  0  0  1  0  0  0  0  0  0
  -25.1770  -32.0550   23.4220 N   0  0  0  0  0  0  0  0  0  0  0  0
  -25.1710  -33.3020   22.9360 C   0  0  0  0  0  0  0  0  0  0  0  0
  -25.7550  -33.6130   21.8940 O   0  0  0  0  0  0  0  0  0  0  0  0
  -24.6340  -31.8630   24.2510 H   0  0  0  0  0  0  0  0  0  0  0  0
  -23.0320  -34.6270   23.0730 C   0  0  0  0  0  1  0  0  0  0  0  0
  -24.4020  -34.3800   23.7300 C   0  0  0  0  0  3  0  0  0  0  0  0
  -26.2970  -35.5860   24.7250 C   0  0  0  0  0  1  0  0  0  0  0  0
  -25.1320  -35.6630   23.8470 N   0  0  0  0  0  0  0  0  0  0  0  0
  -24.5200  -36.3950   24.1970 H   0  0  0  0  0  0  0  0  0  0  0  0
  1 48  1  0
  2  1  2  0
  3  9  1  0
  3 16  1  0
  4  9  1  0
  5  6  1  0
  5  4  1  0
  7  6  1  0
  7 20  1  0
  7  8  1  0
  9  8  1  0
 10  3  2  0
 12 11  1  0
 13 14  1  0
 13 16  1  0
 14  1  1  0
 14 15  1  0
 15 45  1  0
 15 11  1  0
 16 12  1  0
 17 18  2  0
 18 37  1  0
 19 22  1  0
 19 18  1  0
 20 21  1  0
 20 17  1  0
 21 19  2  0
 22 23  1  0
 23 24  2  0
 25 28  1  0
 25 24  1  0
 26 25  2  0
 27 26  1  0
 27 22  2  0
 28 29  1  0
 29 34  2  0
 29 30  1  0
 30 31  2  0
 31 32  1  0
 32 36  1  0
 33 32  2  0
 34 33  1  0
 35 34  1  0
 37 38  1  0
 38 40  1  0
 38 41  1  0
 39 37  2  0
 42 17  1  0
 42 43  1  0
 44 42  1  0
 45 47  1  0
 47 46  1  0
 49 50  1  0
 49 48  2  0
 50 52  1  0
 51 62  2  0
 52 57  1  0
 53 61  1  0
 53 63  1  0
 54 60  1  0
 54 56  1  0
 55 61  1  0
 56 55  1  0
 57 56  2  0
 58 59  1  0
 58 52  2  0
 59 54  2  0
 60 53  1  0
 61 51  1  0
 63 65  2  0
 64 63  1  0
 66 64  1  0
 67 76  2  0
 67 72  1  0
 68 64  1  0
 68 72  1  0
 69 68  1  0
 70 71  1  0
 70 69  1  0
 71 67  1  0
 72 73  2  0
 73 74  1  0
 75 74  2  0
 76 75  1  0
 77 51  1  0
 77 82  1  0
 77 78  1  0
 78 81  1  1
 78 79  1  0
 80 78  1  0
 82 85  1  0
 83 82  1  0
 83 87  1  0
 84 83  2  0
 87 86  1  0
 87 89  1  0
 89 90  1  0
 89 88  1  0
M  ISO  4   3 100  16 100  49 101  50 101
M  END
>  <TORSDO>  (51) 
F 20

>  <SCORE>  (51) 
-1.109

>  <name>  (51) 
51

>  <ligand_id>  (51) 
51

>  <original_smiles>  (51) 
[H]c1c([H])c([H])c2c(c1[H])C([H])([H])C([H])([H])C([H])([H])C2([H])N([H])C(=O)C1([H])N(C(=O)C([H])(N([H])C(=O)C([H])(N([H])C([H])([H])[H])C([H])([H])[H])C(C([H])([H])[H])(C([H])([H])[H])C([H])([H])[H])C([H])([H])c2c([H])c(OC([H])([H])C([H])([H])C(=O)C3([H])C([H])([H])N(C(=O)N4C([H])([H])C([H])([H])C([H])([H])C([H])(n5nc(-c6c([H])c([H])c(Oc7c([H])c([H])c(F)c([H])c7F)c([H])c6[H])c(C(=O)N([H])[H])c5N([H])[H])C4([H])[H])C([H])([H])C([H])([H])C3([H])C([H])([H])C([H])([H])C([H])([H])[H])c([H])c([H])c2C1([H])[H]

>  <smiles>  (51) 
[H]c1c([H])c([H])c2c(c1[H])C([H])([H])C([H])([H])C([H])([H])C2([H])N([H])C(=O)C1([H])N(C(=O)C([H])(N([H])C(=O)C([H])(N([H])C([H])([H])[H])C([H])([H])[H])C(C([H])([H])[H])(C([H])([H])[H])C([H])([H])[H])C([H])([H])c2c([H])c(OC([H])([H])C([H])([H])C(=O)C3([H])C([H])([H])N(C(=O)N4C([H])([H])C([H])([H])C([H])([H])C([H])(n5nc(-c6c([H])c([H])c(Oc7c([H])c([H])c(F)c([H])c7F)c([H])c6[H])c(C(=O)N([H])[H])c5N([H])[H])C4([H])[H])C([H])([H])C([H])([H])C3([H])C([H])([H])C([H])([H])C([H])([H])[H])c([H])c([H])c2C1([H])[H]

$$$$
52:0:0
     RDKit          3D

 89 96  0  0  1  0  0  0  0  0999 V2000
  -29.3310  -21.1250   19.7440 C   0  0  0  0  0  3  0  0  0  0  0  0
  -29.8460  -19.7950   20.4710 C   0  0  0  0  0  3  0  0  0  0  0  0
  -29.7880  -18.3790   19.7540 C   0  0  0  0  0  0  0  0  0  0  0  0
  -28.9050  -18.1760   18.9150 O   0  0  0  0  0  0  0  0  0  0  0  0
  -30.8400  -17.2290   20.1360 C   0  0  0  0  0  3  0  0  0  0  0  0
  -31.1880  -14.6710   19.6950 C   0  0  0  0  0  0  0  0  0  0  0  0
  -30.8820  -12.3480   18.8480 C   0  0  0  0  0  2  0  0  0  0  0  0
  -29.8850  -12.3770   17.6680 C   0  0  0  0  0  2  0  0  0  0  0  0
  -28.4340  -12.2840   18.1830 C   0  0  0  0  0  2  0  0  0  0  0  0
  -28.1460  -13.2780   19.3390 C   0  0  0  0  0  3  0  0  0  0  0  0
  -29.2500  -13.2180   20.4160 C   0  0  0  0  0  2  0  0  0  0  0  0
  -30.5300  -13.4700   19.7390 N   0  0  0  0  0  0  0  0  0  0  0  0
  -32.3610  -14.7450   19.3200 O   0  0  0  0  0  0  0  0  0  0  0  0
  -30.4290  -15.7950   19.8990 N   0  0  0  0  0  0  0  0  0  0  0  0
  -29.4480  -15.6160   20.0490 H   0  0  0  0  0  0  0  0  0  0  0  0
  -25.8560  -14.0260   20.2230 C   0  0  0  0  0  0  0  0  0  0  0  0
  -24.7650  -13.3220   20.6520 C   0  0  0  0  0  0  0  0  0  0  0  0
  -25.1290  -11.9420   20.5730 C   0  0  0  0  0  0  0  0  0  0  0  0
  -26.8170  -13.0810   19.9090 N   0  0  0  0  0  0  0  0  0  0  0  0
  -26.3900  -11.8210   20.1810 N   0  0  0  0  0  0  0  0  0  0  0  0
  -24.3300  -10.7290   20.7910 C   0  0  0  0  0  0  0  0  0  0  0  0
  -24.7150   -9.7510   21.7350 C   0  0  0  0  0  3  0  0  0  0  0  0
  -23.9210   -8.6020   21.9400 C   0  0  0  0  0  3  0  0  0  0  0  0
  -22.7260   -8.4240   21.2030 C   0  0  0  0  0  0  0  0  0  0  0  0
  -22.3590   -9.3900   20.2490 C   0  0  0  0  0  3  0  0  0  0  0  0
  -23.1530  -10.5300   20.0420 C   0  0  0  0  0  3  0  0  0  0  0  0
  -21.9060   -7.3270   21.3150 O   0  0  0  0  0  0  0  0  0  0  0  0
  -21.7670   -6.6550   22.5030 C   0  0  0  0  0  0  0  0  0  0  0  0
  -21.3200   -7.3000   23.6760 C   0  0  0  0  0  3  0  0  0  0  0  0
  -21.1220   -6.5580   24.8570 C   0  0  0  0  0  3  0  0  0  0  0  0
  -21.3610   -5.1710   24.8660 C   0  0  0  0  0  0  0  0  0  0  0  0
  -21.8010   -4.5240   23.6960 C   0  0  0  0  0  3  0  0  0  0  0  0
  -22.0000   -5.2650   22.5180 C   0  0  0  0  0  0  0  0  0  0  0  0
  -22.4020   -4.6340   21.3880 F   0  0  0  0  0  0  0  0  0  0  0  0
  -21.1640   -4.4540   25.9980 F   0  0  0  0  0  0  0  0  0  0  0  0
  -23.4250  -13.8880   21.0210 C   0  0  0  0  0  0  0  0  0  0  0  0
  -22.7140  -13.2340   21.9340 N   0  0  0  0  0  0  0  0  0  0  0  0
  -23.0190  -14.9420   20.5310 O   0  0  0  0  0  0  0  0  0  0  0  0
  -23.0580  -12.3790   22.3490 H   0  0  0  0  0  0  0  0  0  0  0  0
  -21.8180  -13.5950   22.2290 H   0  0  0  0  0  0  0  0  0  0  0  0
  -26.0990  -15.3850   20.0480 N   0  0  0  0  0  0  0  0  0  0  0  0
  -25.3660  -16.0720   20.1790 H   0  0  0  0  0  0  0  0  0  0  0  0
  -26.9160  -15.7650   19.5870 H   0  0  0  0  0  0  0  0  0  0  0  0
  -30.2930  -16.9850   22.6680 C   0  0  0  0  0  1  0  0  0  0  0  0
  -31.3410  -17.3440   21.5970 C   0  0  0  0  0  2  0  0  0  0  0  0
  -29.1160  -22.4200   20.6580 C   0  0  0  0  0  2  0  0  0  0  0  0
  -29.0000  -23.8830   20.0210 C   0  0  0  0  0  3  0  0  0  0  0  0
  -28.4630  -25.0410   20.9760 C   0  0  0  0  0  3  0  0  0  0  0  0
  -28.6380  -26.4660   20.6230 O   0  0  0  0  0  0  0  0  0  0  0  0
  -24.5970  -31.7850   23.3870 C   0  0  0  0  0  0  0  0  0  0  0  0
  -27.4940  -27.2690   20.5530 C   0  0  0  0  0  0  0  0  0  0  0  0
  -23.5210  -30.3320   21.7000 C   0  0  0  0  0  3  0  0  0  0  0  0
  -25.0890  -28.7970   20.3890 C   0  0  0  0  0  0  0  0  0  0  0  0
  -26.0560  -30.7200   21.6540 C   0  0  0  0  0  2  0  0  0  0  0  0
  -26.2090  -29.3350   21.0370 C   0  0  0  0  0  0  0  0  0  0  0  0
  -27.4180  -28.5830   21.1040 C   0  0  0  0  0  3  0  0  0  0  0  0
  -26.3530  -26.7750   19.8880 C   0  0  0  0  0  3  0  0  0  0  0  0
  -25.1610  -27.5190   19.8080 C   0  0  0  0  0  3  0  0  0  0  0  0
  -23.8300  -29.6380   20.3480 C   0  0  0  0  0  2  0  0  0  0  0  0
  -24.7400  -30.9650   22.3040 N   0  0  0  0  0  0  0  0  0  0  0  0
  -23.4790  -32.0410   23.8550 O   0  0  0  0  0  0  0  0  0  0  0  0
  -22.8310  -29.3140   22.6390 C   0  0  0  0  0  0  0  0  0  0  0  0
  -21.5220  -29.0940   22.4320 N   0  0  0  0  0  0  0  0  0  0  0  0
  -23.4740  -28.7270   23.5120 O   0  0  0  0  0  0  0  0  0  0  0  0
  -21.0620  -29.6220   21.7050 H   0  0  0  0  0  0  0  0  0  0  0  0
  -18.1620  -27.7860   22.7210 C   0  0  0  0  0  0  0  0  0  0  0  0
  -20.6840  -28.1460   23.1670 C   0  0  0  0  0  3  0  0  0  0  0  0
  -20.8770  -26.7050   22.6380 C   0  0  0  0  0  2  0  0  0  0  0  0
  -19.8640  -26.3180   21.5570 C   0  0  0  0  0  2  0  0  0  0  0  0
  -18.4340  -26.4300   22.0930 C   0  0  0  0  0  2  0  0  0  0  0  0
  -19.2200  -28.5990   23.2110 C   0  0  0  0  0  0  0  0  0  0  0  0
  -18.9160  -29.8670   23.7530 C   0  0  0  0  0  3  0  0  0  0  0  0
  -17.5870  -30.3240   23.8130 C   0  0  0  0  0  3  0  0  0  0  0  0
  -16.5420  -29.5100   23.3420 C   0  0  0  0  0  3  0  0  0  0  0  0
  -16.8300  -28.2420   22.8030 C   0  0  0  0  0  3  0  0  0  0  0  0
  -25.8290  -32.4540   24.0710 C   0  0  0  0  0  3  0  0  0  0  0  0
  -25.4930  -33.8660   24.3040 N   0  0  0  0  0  0  0  0  0  0  0  0
  -25.8730  -34.8800   23.5160 C   0  0  0  0  0  0  0  0  0  0  0  0
  -26.6120  -34.7280   22.5400 O   0  0  0  0  0  0  0  0  0  0  0  0
  -24.8450  -34.0600   25.0540 H   0  0  0  0  0  0  0  0  0  0  0  0
  -24.1610  -36.6360   22.9580 C   0  0  0  0  0  1  0  0  0  0  0  0
  -25.3510  -36.2870   23.8640 C   0  0  0  0  0  3  0  0  0  0  0  0
  -27.4270  -37.2320   24.7750 C   0  0  0  0  0  1  0  0  0  0  0  0
  -26.3830  -37.3410   23.7570 N   0  0  0  0  0  0  0  0  0  0  0  0
  -25.9630  -38.2640   23.8300 H   0  0  0  0  0  0  0  0  0  0  0  0
  -26.2480  -31.7540   25.4230 C   0  0  1  0  0  0  0  0  0  0  0  0
  -25.0750  -31.5560   26.4100 C   0  0  0  0  0  1  0  0  0  0  0  0
  -26.8740  -30.3670   25.1500 C   0  0  0  0  0  1  0  0  0  0  0  0
  -27.3340  -32.5940   26.1350 C   0  0  0  0  0  1  0  0  0  0  0  0
  1  2  2  0
  1 46  1  0
  3  5  1  0
  3  2  1  0
  4  3  2  0
  5 45  1  0
  6 12  1  0
  6 14  1  0
  7 12  1  0
  8  9  1  0
  8  7  1  0
 10  9  1  0
 10 19  1  0
 10 11  1  0
 12 11  1  0
 13  6  2  0
 14 15  1  0
 14  5  1  0
 16 17  2  0
 17 36  1  0
 18 17  1  0
 18 21  1  0
 19 20  1  0
 19 16  1  0
 20 18  2  0
 21 22  1  0
 22 23  2  0
 24 27  1  0
 24 23  1  0
 25 24  2  0
 26 25  1  0
 26 21  2  0
 27 28  1  0
 28 33  2  0
 28 29  1  0
 29 30  2  0
 30 31  1  0
 31 35  1  0
 32 31  2  0
 33 32  1  0
 34 33  1  0
 36 37  1  0
 37 40  1  0
 37 39  1  0
 38 36  2  0
 41 42  1  0
 41 16  1  0
 43 41  1  0
 45 44  1  0
 47 46  1  0
 47 48  2  0
 49 48  1  0
 50 61  2  0
 51 49  1  0
 51 56  1  0
 52 60  1  0
 52 62  1  0
 53 55  1  0
 54 60  1  0
 55 56  2  0
 55 54  1  0
 57 51  2  0
 58 57  1  0
 58 53  2  0
 59 53  1  0
 59 52  1  0
 60 50  1  0
 62 64  2  0
 63 62  1  0
 65 63  1  0
 66 75  2  0
 66 71  1  0
 67 63  1  0
 67 71  1  0
 68 67  1  0
 69 70  1  0
 69 68  1  0
 70 66  1  0
 71 72  2  0
 72 73  1  0
 74 73  2  0
 75 74  1  0
 76 50  1  0
 76 77  1  0
 76 86  1  0
 77 80  1  0
 78 82  1  0
 78 77  1  0
 79 78  2  0
 82 81  1  0
 84 85  1  0
 84 82  1  0
 84 83  1  0
 86 89  1  1
 86 87  1  0
 88 86  1  0
M  ISO  4   6 100  14 100  48 101  49 101
M  END
>  <TORSDO>  (52) 
F 23

>  <SCORE>  (52) 
-11.804

>  <name>  (52) 
52

>  <ligand_id>  (52) 
52

>  <original_smiles>  (52) 
[H]c1c([H])c([H])c2c(c1[H])C([H])([H])C([H])([H])C([H])([H])C2([H])N([H])C(=O)C1([H])N(C(=O)C([H])(N([H])C(=O)C([H])(N([H])C([H])([H])[H])C([H])([H])[H])C(C([H])([H])[H])(C([H])([H])[H])C([H])([H])[H])C([H])([H])c2c([H])c(OC([H])([H])C([H])([H])C([H])([H])C([H])([H])C([H])([H])C(=O)C([H])(N([H])C(=O)N3C([H])([H])C([H])([H])C([H])([H])C([H])(n4nc(-c5c([H])c([H])c(Oc6c([H])c([H])c(F)c([H])c6F)c([H])c5[H])c(C(=O)N([H])[H])c4N([H])[H])C3([H])[H])C([H])([H])C([H])([H])[H])c([H])c([H])c2C1([H])[H]

>  <smiles>  (52) 
[H]c1c([H])c([H])c2c(c1[H])C([H])([H])C([H])([H])C([H])([H])C2([H])N([H])C(=O)C1([H])N(C(=O)C([H])(N([H])C(=O)C([H])(N([H])C([H])([H])[H])C([H])([H])[H])C(C([H])([H])[H])(C([H])([H])[H])C([H])([H])[H])C([H])([H])c2c([H])c(OC([H])([H])C([H])([H])C([H])([H])C([H])([H])C([H])([H])C(=O)C([H])(N([H])C(=O)N3C([H])([H])C([H])([H])C([H])([H])C([H])(n4nc(-c5c([H])c([H])c(Oc6c([H])c([H])c(F)c([H])c6F)c([H])c5[H])c(C(=O)N([H])[H])c4N([H])[H])C3([H])[H])C([H])([H])C([H])([H])[H])c([H])c([H])c2C1([H])[H]

$$$$
53:0:0
     RDKit          3D

 90 97  0  0  1  0  0  0  0  0999 V2000
  -29.0560  -22.6420   20.9010 C   0  0  0  0  0  0  0  0  0  0  0  0
  -28.5990  -22.5520   22.0440 O   0  0  0  0  0  0  0  0  0  0  0  0
  -29.3460  -21.3250   20.0930 C   0  0  0  0  0  2  0  0  0  0  0  0
  -29.9880  -20.0850   20.8610 C   0  0  0  0  0  3  0  0  0  0  0  0
  -29.4990  -18.6180   20.4850 C   0  0  0  0  0  3  0  0  0  0  0  0
  -30.3990  -17.3560   20.8800 C   0  0  0  0  0  3  0  0  0  0  0  0
  -30.9430  -17.5150   22.2460 N   0  0  0  0  0  4  0  0  0  0  0  0
  -30.2140  -17.5200   22.9390 H   0  0  0  0  0  0  0  0  0  0  0  0
  -31.4550  -18.3760   22.3240 H   0  0  0  0  0  0  0  0  0  0  0  0
  -31.5830  -16.7720   22.4640 H   0  0  0  0  0  0  0  0  0  0  0  0
  -29.6960  -15.9310   20.7210 C   0  0  0  0  0  2  0  0  0  0  0  0
  -30.5480  -14.6300   20.4190 C   0  0  0  0  0  0  0  0  0  0  0  0
  -30.3400  -12.3900   19.3610 C   0  0  0  0  0  2  0  0  0  0  0  0
  -29.3950  -12.5320   18.1470 C   0  0  0  0  0  2  0  0  0  0  0  0
  -27.9200  -12.3750   18.5730 C   0  0  0  0  0  2  0  0  0  0  0  0
  -27.5640  -13.2340   19.8140 C   0  0  0  0  0  3  0  0  0  0  0  0
  -28.6250  -13.0740   20.9240 C   0  0  0  0  0  2  0  0  0  0  0  0
  -29.9380  -13.4050   20.3560 N   0  0  0  0  0  0  0  0  0  0  0  0
  -31.7200  -14.7670   20.0570 O   0  0  0  0  0  0  0  0  0  0  0  0
  -25.1760  -13.8440   20.5430 C   0  0  0  0  0  0  0  0  0  0  0  0
  -24.1080  -13.0740   20.9170 C   0  0  0  0  0  0  0  0  0  0  0  0
  -24.5660  -11.7220   20.8870 C   0  0  0  0  0  0  0  0  0  0  0  0
  -26.2160  -12.9590   20.3050 N   0  0  0  0  0  0  0  0  0  0  0  0
  -25.8550  -11.6770   20.5730 N   0  0  0  0  0  0  0  0  0  0  0  0
  -23.8380  -10.4610   21.0850 C   0  0  0  0  0  0  0  0  0  0  0  0
  -24.2910   -9.4830   21.9960 C   0  0  0  0  0  3  0  0  0  0  0  0
  -23.5640   -8.2870   22.1820 C   0  0  0  0  0  3  0  0  0  0  0  0
  -22.3700   -8.0620   21.4570 C   0  0  0  0  0  0  0  0  0  0  0  0
  -21.9360   -9.0300   20.5350 C   0  0  0  0  0  3  0  0  0  0  0  0
  -22.6620  -10.2180   20.3470 C   0  0  0  0  0  3  0  0  0  0  0  0
  -21.6140   -6.9180   21.5510 O   0  0  0  0  0  0  0  0  0  0  0  0
  -21.6150   -6.1460   22.6850 C   0  0  0  0  0  0  0  0  0  0  0  0
  -21.2780   -6.6780   23.9490 C   0  0  0  0  0  3  0  0  0  0  0  0
  -21.2250   -5.8340   25.0770 C   0  0  0  0  0  3  0  0  0  0  0  0
  -21.4970   -4.4600   24.9420 C   0  0  0  0  0  0  0  0  0  0  0  0
  -21.8260   -3.9270   23.6830 C   0  0  0  0  0  3  0  0  0  0  0  0
  -21.8830   -4.7680   22.5570 C   0  0  0  0  0  0  0  0  0  0  0  0
  -22.1800   -4.2470   21.3430 F   0  0  0  0  0  0  0  0  0  0  0  0
  -21.4390   -3.6470   26.0220 F   0  0  0  0  0  0  0  0  0  0  0  0
  -22.7130  -13.5550   21.1940 C   0  0  0  0  0  0  0  0  0  0  0  0
  -21.9890  -12.8640   22.0670 N   0  0  0  0  0  0  0  0  0  0  0  0
  -22.2750  -14.5780   20.6700 O   0  0  0  0  0  0  0  0  0  0  0  0
  -22.3570  -12.0370   22.5130 H   0  0  0  0  0  0  0  0  0  0  0  0
  -21.0520  -13.1670   22.2900 H   0  0  0  0  0  0  0  0  0  0  0  0
  -25.3450  -15.2140   20.3640 N   0  0  0  0  0  0  0  0  0  0  0  0
  -24.5770  -15.8690   20.4690 H   0  0  0  0  0  0  0  0  0  0  0  0
  -26.1950  -15.6500   20.0300 H   0  0  0  0  0  0  0  0  0  0  0  0
  -29.3300  -24.0700   20.3010 C   0  0  0  0  0  2  0  0  0  0  0  0
  -28.0940  -25.0500   20.1890 C   0  0  0  0  0  2  0  0  0  0  0  0
  -28.3180  -26.5100   20.1590 O   0  0  0  0  0  0  0  0  0  0  0  0
  -24.5910  -31.8750   23.2120 C   0  0  0  0  0  0  0  0  0  0  0  0
  -27.1840  -27.3360   20.1320 C   0  0  0  0  0  0  0  0  0  0  0  0
  -23.3710  -30.4740   21.5870 C   0  0  0  0  0  3  0  0  0  0  0  0
  -24.8090  -28.9300   20.1480 C   0  0  0  0  0  0  0  0  0  0  0  0
  -25.9070  -30.8030   21.3740 C   0  0  0  0  0  2  0  0  0  0  0  0
  -25.9840  -29.4250   20.7290 C   0  0  0  0  0  0  0  0  0  0  0  0
  -27.1740  -28.6410   20.7100 C   0  0  0  0  0  3  0  0  0  0  0  0
  -25.9810  -26.8890   19.5330 C   0  0  0  0  0  3  0  0  0  0  0  0
  -24.8110  -27.6670   19.5410 C   0  0  0  0  0  3  0  0  0  0  0  0
  -23.5700  -29.7960   20.2060 C   0  0  0  0  0  2  0  0  0  0  0  0
  -24.6430  -31.0670   22.1140 N   0  0  0  0  0  0  0  0  0  0  0  0
  -23.5130  -32.1520   23.7590 O   0  0  0  0  0  0  0  0  0  0  0  0
  -22.7200  -29.4570   22.5550 C   0  0  0  0  0  0  0  0  0  0  0  0
  -21.3930  -29.2800   22.4410 N   0  0  0  0  0  0  0  0  0  0  0  0
  -23.4080  -28.8310   23.3650 O   0  0  0  0  0  0  0  0  0  0  0  0
  -20.8980  -29.8350   21.7570 H   0  0  0  0  0  0  0  0  0  0  0  0
  -18.0210  -28.0800   22.9660 C   0  0  0  0  0  0  0  0  0  0  0  0
  -20.5800  -28.3450   23.2210 C   0  0  0  0  0  3  0  0  0  0  0  0
  -20.6820  -26.9110   22.6530 C   0  0  0  0  0  2  0  0  0  0  0  0
  -19.5750  -26.5810   21.6460 C   0  0  0  0  0  2  0  0  0  0  0  0
  -18.1970  -26.7280   22.2960 C   0  0  0  0  0  2  0  0  0  0  0  0
  -19.1410  -28.8470   23.3860 C   0  0  0  0  0  0  0  0  0  0  0  0
  -18.9230  -30.1140   23.9710 C   0  0  0  0  0  3  0  0  0  0  0  0
  -17.6190  -30.6120   24.1410 C   0  0  0  0  0  3  0  0  0  0  0  0
  -16.5130  -29.8430   23.7370 C   0  0  0  0  0  3  0  0  0  0  0  0
  -16.7160  -28.5790   23.1550 C   0  0  0  0  0  3  0  0  0  0  0  0
  -25.8820  -32.5080   23.8200 C   0  0  0  0  0  3  0  0  0  0  0  0
  -26.4220  -31.7250   25.0790 C   0  0  1  0  0  0  0  0  0  0  0  0
  -25.3490  -31.4710   26.1630 C   0  0  0  0  0  1  0  0  0  0  0  0
  -27.0040  -30.3540   24.6640 C   0  0  0  0  0  1  0  0  0  0  0  0
  -27.5820  -32.5160   25.7300 C   0  0  0  0  0  1  0  0  0  0  0  0
  -25.5690  -33.9000   24.1720 N   0  0  0  0  0  0  0  0  0  0  0  0
  -25.8780  -34.9640   23.4170 C   0  0  0  0  0  0  0  0  0  0  0  0
  -26.5290  -34.8760   22.3720 O   0  0  0  0  0  0  0  0  0  0  0  0
  -24.9880  -34.0410   24.9850 H   0  0  0  0  0  0  0  0  0  0  0  0
  -24.1270  -36.7460   23.1220 C   0  0  0  0  0  1  0  0  0  0  0  0
  -25.3900  -36.3440   23.9000 C   0  0  0  0  0  3  0  0  0  0  0  0
  -27.5390  -37.2360   24.6830 C   0  0  0  0  0  1  0  0  0  0  0  0
  -26.4110  -37.4060   23.7720 N   0  0  0  0  0  0  0  0  0  0  0  0
  -26.0010  -38.3210   23.9410 H   0  0  0  0  0  0  0  0  0  0  0  0
  1  2  2  0
  3  4  1  0
  3  1  1  0
  5  4  2  0
  6  5  1  0
  6  7  1  0
  7  9  1  0
  7 10  1  0
  7  8  1  0
 11  6  1  0
 12 11  1  0
 13 18  1  0
 14 15  1  0
 14 13  1  0
 16 15  1  0
 16 23  1  0
 16 17  1  0
 18 12  1  0
 18 17  1  0
 19 12  2  0
 20 21  2  0
 21 40  1  0
 22 21  1  0
 22 25  1  0
 23 20  1  0
 23 24  1  0
 24 22  2  0
 25 26  1  0
 26 27  2  0
 28 31  1  0
 28 27  1  0
 29 28  2  0
 30 29  1  0
 30 25  2  0
 31 32  1  0
 32 33  1  0
 33 34  2  0
 35 34  1  0
 35 39  1  0
 36 35  2  0
 37 32  2  0
 37 36  1  0
 38 37  1  0
 40 41  1  0
 41 44  1  0
 41 43  1  0
 42 40  2  0
 45 46  1  0
 45 20  1  0
 47 45  1  0
 48  1  1  0
 49 48  1  0
 50 49  1  0
 51 62  2  0
 52 50  1  0
 52 57  1  0
 53 61  1  0
 53 63  1  0
 54 60  1  0
 54 56  1  0
 55 61  1  0
 56 55  1  0
 57 56  2  0
 58 59  1  0
 58 52  2  0
 59 54  2  0
 60 53  1  0
 61 51  1  0
 63 65  2  0
 64 63  1  0
 66 64  1  0
 67 76  2  0
 67 72  1  0
 68 64  1  0
 68 72  1  0
 69 68  1  0
 70 71  1  0
 70 69  1  0
 71 67  1  0
 72 73  2  0
 73 74  1  0
 75 74  2  0
 76 75  1  0
 77 51  1  0
 77 82  1  0
 77 78  1  0
 78 81  1  1
 78 79  1  0
 80 78  1  0
 82 85  1  0
 83 87  1  0
 83 82  1  0
 84 83  2  0
 87 86  1  0
 89 87  1  0
 89 90  1  0
 89 88  1  0
M  ISO  4  11 100  12 100  49 101  50 101
M  END
>  <TORSDO>  (53) 
F 24

>  <SCORE>  (53) 
-12.584

>  <name>  (53) 
53

>  <ligand_id>  (53) 
53

>  <original_smiles>  (53) 
[H]c1c([H])c([H])c2c(c1[H])C([H])([H])C([H])([H])C([H])([H])C2([H])N([H])C(=O)C1([H])N(C(=O)C([H])(N([H])C(=O)C([H])(N([H])C([H])([H])[H])C([H])([H])[H])C(C([H])([H])[H])(C([H])([H])[H])C([H])([H])[H])C([H])([H])c2c([H])c(OC([H])([H])C([H])([H])C(=O)C([H])([H])C([H])([H])C([H])([H])C([H])(C([H])([H])C(=O)N3C([H])([H])C([H])([H])C([H])([H])C([H])(n4nc(-c5c([H])c([H])c(Oc6c([H])c([H])c(F)c([H])c6F)c([H])c5[H])c(C(=O)N([H])[H])c4N([H])[H])C3([H])[H])[N+]([H])([H])[H])c([H])c([H])c2C1([H])[H]

>  <smiles>  (53) 
[H]c1c([H])c([H])c2c(c1[H])C([H])([H])C([H])([H])C([H])([H])C2([H])N([H])C(=O)C1([H])N(C(=O)C([H])(N([H])C(=O)C([H])(N([H])C([H])([H])[H])C([H])([H])[H])C(C([H])([H])[H])(C([H])([H])[H])C([H])([H])[H])C([H])([H])c2c([H])c(OC([H])([H])C([H])([H])C(=O)C([H])([H])C([H])([H])C([H])([H])C([H])(C([H])([H])C(=O)N3C([H])([H])C([H])([H])C([H])([H])C([H])(n4nc(-c5c([H])c([H])c(Oc6c([H])c([H])c(F)c([H])c6F)c([H])c5[H])c(C(=O)N([H])[H])c4N([H])[H])C3([H])[H])[N+]([H])([H])[H])c([H])c([H])c2C1([H])[H]

$$$$
54:0:0
     RDKit          3D

 90 98  0  0  1  0  0  0  0  0999 V2000
  -28.4250  -22.7150   21.6200 C   0  0  0  0  0  2  0  0  0  0  0  0
  -28.6520  -23.5790   19.3810 C   0  0  0  0  0  2  0  0  0  0  0  0
  -27.8000  -24.1710   21.5930 C   0  0  0  0  0  3  0  0  0  0  0  0
  -28.5020  -22.1510   20.1740 C   0  0  0  0  0  3  0  0  0  0  0  0
  -28.4230  -24.8580   20.3550 C   0  0  0  0  0  3  0  0  0  0  0  0
  -26.2650  -24.1230   21.5450 C   0  0  0  0  0  0  0  0  0  0  0  0
  -25.5060  -24.6880   22.7360 C   0  0  0  0  0  1  0  0  0  0  0  0
  -25.6500  -23.6200   20.6000 O   0  0  0  0  0  0  0  0  0  0  0  0
  -29.4750  -20.6070   18.3450 C   0  0  0  0  0  1  0  0  0  0  0  0
  -29.4460  -20.7940   19.8710 C   0  0  0  0  0  3  0  0  0  0  0  0
  -29.2080  -19.2720   20.5310 C   0  0  0  0  0  2  0  0  0  0  0  0
  -30.0700  -17.8880   20.1270 C   0  0  0  0  0  3  0  0  0  0  0  0
  -29.8090  -16.3580   20.7530 C   0  0  0  0  0  3  0  0  0  0  0  0
  -30.6380  -14.9860   20.3530 C   0  0  0  0  0  0  0  0  0  0  0  0
  -30.5510  -12.6580   19.3670 C   0  0  0  0  0  2  0  0  0  0  0  0
  -29.6300  -12.6730   18.1230 C   0  0  0  0  0  2  0  0  0  0  0  0
  -28.1560  -12.4740   18.5280 C   0  0  0  0  0  2  0  0  0  0  0  0
  -27.7480  -13.3670   19.7290 C   0  0  0  0  0  3  0  0  0  0  0  0
  -28.7860  -13.3150   20.8680 C   0  0  0  0  0  2  0  0  0  0  0  0
  -30.0780  -13.7160   20.3010 N   0  0  0  0  0  0  0  0  0  0  0  0
  -31.8190  -15.0920   19.9990 O   0  0  0  0  0  0  0  0  0  0  0  0
  -25.3470  -13.9440   20.4080 C   0  0  0  0  0  0  0  0  0  0  0  0
  -24.2810  -13.1670   20.7720 C   0  0  0  0  0  0  0  0  0  0  0  0
  -24.7560  -11.8190   20.7740 C   0  0  0  0  0  0  0  0  0  0  0  0
  -26.4010  -13.0700   20.2030 N   0  0  0  0  0  0  0  0  0  0  0  0
  -26.0530  -11.7880   20.4870 N   0  0  0  0  0  0  0  0  0  0  0  0
  -24.0360  -10.5550   20.9720 C   0  0  0  0  0  0  0  0  0  0  0  0
  -24.4440   -9.6180   21.9460 C   0  0  0  0  0  3  0  0  0  0  0  0
  -23.7230   -8.4190   22.1310 C   0  0  0  0  0  3  0  0  0  0  0  0
  -22.5800   -8.1480   21.3420 C   0  0  0  0  0  0  0  0  0  0  0  0
  -22.1910   -9.0750   20.3580 C   0  0  0  0  0  3  0  0  0  0  0  0
  -22.9130  -10.2650   20.1710 C   0  0  0  0  0  3  0  0  0  0  0  0
  -21.8330   -6.9990   21.4330 O   0  0  0  0  0  0  0  0  0  0  0  0
  -21.7420   -6.2920   22.6060 C   0  0  0  0  0  0  0  0  0  0  0  0
  -21.2330   -6.8720   23.7880 C   0  0  0  0  0  3  0  0  0  0  0  0
  -21.0910   -6.0890   24.9520 C   0  0  0  0  0  3  0  0  0  0  0  0
  -21.4480   -4.7280   24.9340 C   0  0  0  0  0  0  0  0  0  0  0  0
  -21.9500   -4.1480   23.7560 C   0  0  0  0  0  3  0  0  0  0  0  0
  -22.0940   -4.9270   22.5950 C   0  0  0  0  0  0  0  0  0  0  0  0
  -22.5570   -4.3570   21.4560 F   0  0  0  0  0  0  0  0  0  0  0  0
  -21.3050   -3.9740   26.0490 F   0  0  0  0  0  0  0  0  0  0  0  0
  -22.8750  -13.6380   21.0080 C   0  0  0  0  0  0  0  0  0  0  0  0
  -22.1370  -12.9510   21.8720 N   0  0  0  0  0  0  0  0  0  0  0  0
  -22.4410  -14.6510   20.4610 O   0  0  0  0  0  0  0  0  0  0  0  0
  -22.5030  -12.1320   22.3360 H   0  0  0  0  0  0  0  0  0  0  0  0
  -21.1930  -13.2480   22.0740 H   0  0  0  0  0  0  0  0  0  0  0  0
  -25.5040  -15.3130   20.2110 N   0  0  0  0  0  0  0  0  0  0  0  0
  -24.7300  -15.9630   20.2980 H   0  0  0  0  0  0  0  0  0  0  0  0
  -26.3580  -15.7540   19.8940 H   0  0  0  0  0  0  0  0  0  0  0  0
  -28.3290  -26.3790   20.0730 O   0  0  0  0  0  0  0  0  0  0  0  0
  -24.5880  -31.8730   23.1780 C   0  0  0  0  0  0  0  0  0  0  0  0
  -27.1920  -27.2420   20.1010 C   0  0  0  0  0  0  0  0  0  0  0  0
  -23.3910  -30.4890   21.5230 C   0  0  0  0  0  3  0  0  0  0  0  0
  -24.8420  -28.9280   20.0900 C   0  0  0  0  0  0  0  0  0  0  0  0
  -25.9370  -30.7810   21.3520 C   0  0  0  0  0  2  0  0  0  0  0  0
  -26.0140  -29.3960   20.6940 C   0  0  0  0  0  0  0  0  0  0  0  0
  -27.1910  -28.5680   20.6770 C   0  0  0  0  0  3  0  0  0  0  0  0
  -25.9950  -26.8480   19.4780 C   0  0  0  0  0  3  0  0  0  0  0  0
  -24.8400  -27.6650   19.4710 C   0  0  0  0  0  3  0  0  0  0  0  0
  -23.6110  -29.8180   20.1390 C   0  0  0  0  0  2  0  0  0  0  0  0
  -24.6580  -31.0690   22.0740 N   0  0  0  0  0  0  0  0  0  0  0  0
  -23.5010  -32.1460   23.7110 O   0  0  0  0  0  0  0  0  0  0  0  0
  -22.7200  -29.4710   22.4770 C   0  0  0  0  0  0  0  0  0  0  0  0
  -21.3930  -29.2970   22.3490 N   0  0  0  0  0  0  0  0  0  0  0  0
  -23.3960  -28.8370   23.2930 O   0  0  0  0  0  0  0  0  0  0  0  0
  -20.9080  -29.8620   21.6670 H   0  0  0  0  0  0  0  0  0  0  0  0
  -18.0080  -28.1160   22.8590 C   0  0  0  0  0  0  0  0  0  0  0  0
  -20.5720  -28.3500   23.1080 C   0  0  0  0  0  3  0  0  0  0  0  0
  -20.6550  -26.9310   22.5000 C   0  0  0  0  0  2  0  0  0  0  0  0
  -19.5410  -26.6390   21.4910 C   0  0  0  0  0  2  0  0  0  0  0  0
  -18.1670  -26.7790   22.1530 C   0  0  0  0  0  2  0  0  0  0  0  0
  -19.1380  -28.8590   23.2940 C   0  0  0  0  0  0  0  0  0  0  0  0
  -18.9350  -30.1080   23.9180 C   0  0  0  0  0  3  0  0  0  0  0  0
  -17.6370  -30.6150   24.1130 C   0  0  0  0  0  3  0  0  0  0  0  0
  -16.5220  -29.8680   23.6960 C   0  0  0  0  0  3  0  0  0  0  0  0
  -16.7080  -28.6210   23.0740 C   0  0  0  0  0  3  0  0  0  0  0  0
  -25.8650  -32.5040   23.8140 C   0  0  0  0  0  3  0  0  0  0  0  0
  -25.5540  -33.9030   24.1470 N   0  0  0  0  0  0  0  0  0  0  0  0
  -25.8950  -34.9610   23.4020 C   0  0  0  0  0  0  0  0  0  0  0  0
  -26.5720  -34.8640   22.3750 O   0  0  0  0  0  0  0  0  0  0  0  0
  -24.9520  -34.0520   24.9450 H   0  0  0  0  0  0  0  0  0  0  0  0
  -24.1830  -36.7720   23.0470 C   0  0  0  0  0  1  0  0  0  0  0  0
  -25.4110  -36.3490   23.8690 C   0  0  0  0  0  3  0  0  0  0  0  0
  -27.5360  -37.2180   24.7390 C   0  0  0  0  0  1  0  0  0  0  0  0
  -26.4500  -37.3970   23.7800 N   0  0  0  0  0  0  0  0  0  0  0  0
  -26.0460  -38.3180   23.9260 H   0  0  0  0  0  0  0  0  0  0  0  0
  -26.3660  -31.7320   25.0970 C   0  0  1  0  0  0  0  0  0  0  0  0
  -25.2630  -31.4960   26.1550 C   0  0  0  0  0  1  0  0  0  0  0  0
  -26.9540  -30.3560   24.7100 C   0  0  0  0  0  1  0  0  0  0  0  0
  -27.5090  -32.5260   25.7710 C   0  0  0  0  0  1  0  0  0  0  0  0
  2  4  1  0
  2  5  1  0
  3  6  1  0
  3  1  1  0
  4 10  1  0
  4  1  1  0
  5 50  1  0
  5  3  1  0
  6  7  1  0
  8  6  2  0
 10  9  1  0
 10 11  1  0
 12 11  1  0
 12 13  2  0
 14 13  1  0
 15 20  1  0
 16 17  1  0
 16 15  1  0
 18 17  1  0
 18 25  1  0
 18 19  1  0
 20 14  1  0
 20 19  1  0
 21 14  2  0
 22 23  2  0
 23 24  1  0
 23 42  1  0
 24 27  1  0
 25 22  1  0
 25 26  1  0
 26 24  2  0
 27 28  1  0
 28 29  2  0
 30 33  1  0
 30 29  1  0
 31 30  2  0
 32 31  1  0
 32 27  2  0
 33 34  1  0
 34 35  1  0
 35 36  2  0
 37 36  1  0
 37 41  1  0
 38 37  2  0
 39 34  2  0
 39 38  1  0
 40 39  1  0
 42 43  1  0
 43 46  1  0
 43 45  1  0
 44 42  2  0
 47 48  1  0
 47 22  1  0
 49 47  1  0
 50 52  1  0
 51 62  2  0
 52 57  1  0
 53 61  1  0
 53 63  1  0
 54 60  1  0
 54 56  1  0
 55 61  1  0
 56 55  1  0
 57 56  2  0
 58 52  2  0
 59 58  1  0
 59 54  2  0
 60 53  1  0
 61 51  1  0
 63 65  2  0
 64 63  1  0
 66 64  1  0
 67 76  2  0
 67 72  1  0
 68 64  1  0
 68 72  1  0
 69 68  1  0
 70 71  1  0
 70 69  1  0
 71 67  1  0
 72 73  2  0
 73 74  1  0
 75 74  2  0
 76 75  1  0
 77 51  1  0
 77 78  1  0
 77 87  1  0
 78 81  1  0
 79 83  1  0
 79 78  1  0
 80 79  2  0
 83 82  1  0
 85 83  1  0
 85 86  1  0
 85 84  1  0
 87 90  1  1
 87 88  1  0
 89 87  1  0
M  ISO  4   5 101  13 100  14 100  50 101
M  END
>  <TORSDO>  (54) 
F 21

>  <SCORE>  (54) 
-13.532

>  <name>  (54) 
54

>  <ligand_id>  (54) 
54

>  <original_smiles>  (54) 
[H]c1c([H])c([H])c2c(c1[H])C([H])([H])C([H])([H])C([H])([H])C2([H])N([H])C(=O)C1([H])N(C(=O)C([H])(N([H])C(=O)C([H])(N([H])C([H])([H])[H])C([H])([H])[H])C(C([H])([H])[H])(C([H])([H])[H])C([H])([H])[H])C([H])([H])c2c([H])c(OC3([H])C([H])([H])C([H])(C([H])(C([H])([H])[H])C([H])([H])C([H])([H])C([H])([H])C(=O)N4C([H])([H])C([H])([H])C([H])([H])C([H])(n5nc(-c6c([H])c([H])c(Oc7c([H])c([H])c(F)c([H])c7F)c([H])c6[H])c(C(=O)N([H])[H])c5N([H])[H])C4([H])[H])C([H])([H])C3([H])C(=O)C([H])([H])[H])c([H])c([H])c2C1([H])[H]

>  <smiles>  (54) 
[H]c1c([H])c([H])c2c(c1[H])C([H])([H])C([H])([H])C([H])([H])C2([H])N([H])C(=O)C1([H])N(C(=O)C([H])(N([H])C(=O)C([H])(N([H])C([H])([H])[H])C([H])([H])[H])C(C([H])([H])[H])(C([H])([H])[H])C([H])([H])[H])C([H])([H])c2c([H])c(OC3([H])C([H])([H])C([H])(C([H])(C([H])([H])[H])C([H])([H])C([H])([H])C([H])([H])C(=O)N4C([H])([H])C([H])([H])C([H])([H])C([H])(n5nc(-c6c([H])c([H])c(Oc7c([H])c([H])c(F)c([H])c7F)c([H])c6[H])c(C(=O)N([H])[H])c5N([H])[H])C4([H])[H])C([H])([H])C3([H])C(=O)C([H])([H])[H])c([H])c([H])c2C1([H])[H]

$$$$
55:0:0
     RDKit          3D

 89 96  0  0  1  0  0  0  0  0999 V2000
  -29.3030  -21.7610   20.7310 C   0  0  0  0  0  2  0  0  0  0  0  0
  -28.8550  -22.9150   19.7900 C   0  0  0  0  0  2  0  0  0  0  0  0
  -28.7070  -24.2980   20.4830 C   0  0  0  0  0  2  0  0  0  0  0  0
  -28.6150  -25.4980   19.5040 C   0  0  0  0  0  2  0  0  0  0  0  0
  -28.4420  -26.7570   20.1850 O   0  0  0  0  0  0  0  0  0  0  0  0
  -24.5730  -31.8880   23.2710 C   0  0  0  0  0  0  0  0  0  0  0  0
  -27.2330  -27.4360   20.1830 C   0  0  0  0  0  0  0  0  0  0  0  0
  -23.3710  -30.4820   21.6320 C   0  0  0  0  0  3  0  0  0  0  0  0
  -24.8260  -28.9460   20.2100 C   0  0  0  0  0  0  0  0  0  0  0  0
  -25.8990  -30.8410   21.4340 C   0  0  0  0  0  2  0  0  0  0  0  0
  -25.9850  -29.4690   20.7940 C   0  0  0  0  0  0  0  0  0  0  0  0
  -27.1860  -28.7220   20.7770 C   0  0  0  0  0  3  0  0  0  0  0  0
  -26.0410  -26.9190   19.6210 C   0  0  0  0  0  3  0  0  0  0  0  0
  -24.8490  -27.6690   19.6250 C   0  0  0  0  0  3  0  0  0  0  0  0
  -23.5820  -29.8020   20.2530 C   0  0  0  0  0  2  0  0  0  0  0  0
  -24.6320  -31.0870   22.1700 N   0  0  0  0  0  0  0  0  0  0  0  0
  -23.4900  -32.1580   23.8100 O   0  0  0  0  0  0  0  0  0  0  0  0
  -22.7230  -29.4600   22.5930 C   0  0  0  0  0  0  0  0  0  0  0  0
  -21.4000  -29.2710   22.4630 N   0  0  0  0  0  0  0  0  0  0  0  0
  -23.4080  -28.8370   23.4090 O   0  0  0  0  0  0  0  0  0  0  0  0
  -20.9080  -29.8250   21.7760 H   0  0  0  0  0  0  0  0  0  0  0  0
  -18.0290  -28.0680   22.9600 C   0  0  0  0  0  0  0  0  0  0  0  0
  -20.5850  -28.3320   23.2340 C   0  0  0  0  0  3  0  0  0  0  0  0
  -20.6930  -26.9010   22.6570 C   0  0  0  0  0  2  0  0  0  0  0  0
  -19.5920  -26.5760   21.6420 C   0  0  0  0  0  2  0  0  0  0  0  0
  -18.2090  -26.7190   22.2850 C   0  0  0  0  0  2  0  0  0  0  0  0
  -19.1450  -28.8330   23.3910 C   0  0  0  0  0  0  0  0  0  0  0  0
  -18.9240  -30.0970   23.9800 C   0  0  0  0  0  3  0  0  0  0  0  0
  -17.6180  -30.5960   24.1430 C   0  0  0  0  0  3  0  0  0  0  0  0
  -16.5150  -29.8280   23.7290 C   0  0  0  0  0  3  0  0  0  0  0  0
  -16.7220  -28.5670   23.1430 C   0  0  0  0  0  3  0  0  0  0  0  0
  -25.8570  -32.5240   23.8900 C   0  0  0  0  0  3  0  0  0  0  0  0
  -26.3730  -31.7610   25.1710 C   0  0  1  0  0  0  0  0  0  0  0  0
  -25.2810  -31.5260   26.2400 C   0  0  0  0  0  1  0  0  0  0  0  0
  -26.9600  -30.3830   24.7860 C   0  0  0  0  0  1  0  0  0  0  0  0
  -27.5230  -32.5610   25.8300 C   0  0  0  0  0  1  0  0  0  0  0  0
  -25.5460  -33.9240   24.2090 N   0  0  0  0  0  0  0  0  0  0  0  0
  -25.8810  -34.9720   23.4430 C   0  0  0  0  0  0  0  0  0  0  0  0
  -26.5550  -34.8610   22.4150 O   0  0  0  0  0  0  0  0  0  0  0  0
  -24.9500  -34.0840   25.0080 H   0  0  0  0  0  0  0  0  0  0  0  0
  -24.1550  -36.7620   23.0660 C   0  0  0  0  0  1  0  0  0  0  0  0
  -25.3900  -36.3620   23.8890 C   0  0  0  0  0  3  0  0  0  0  0  0
  -27.5200  -37.2510   24.7300 C   0  0  0  0  0  1  0  0  0  0  0  0
  -26.4240  -37.4150   23.7780 N   0  0  0  0  0  0  0  0  0  0  0  0
  -26.0160  -38.3350   23.9190 H   0  0  0  0  0  0  0  0  0  0  0  0
  -29.2480  -20.3420   20.0920 C   0  0  0  0  0  2  0  0  0  0  0  0
  -29.8600  -19.2850   20.9440 N   0  0  0  0  0  4  0  0  0  0  0  0
  -29.5060  -19.3900   21.8820 H   0  0  0  0  0  0  0  0  0  0  0  0
  -30.8550  -19.4380   20.9740 H   0  0  0  0  0  0  0  0  0  0  0  0
  -29.6010  -17.8810   20.5160 C   0  0  0  0  0  2  0  0  0  0  0  0
  -30.3540  -16.8330   21.3870 C   0  0  0  0  0  2  0  0  0  0  0  0
  -30.6360  -14.4870   20.4560 C   0  0  0  0  0  0  0  0  0  0  0  0
  -30.3350  -12.3580   19.2370 C   0  0  0  0  0  2  0  0  0  0  0  0
  -29.3660  -12.5750   18.0560 C   0  0  0  0  0  2  0  0  0  0  0  0
  -27.8980  -12.4290   18.5080 C   0  0  0  0  0  2  0  0  0  0  0  0
  -27.5830  -13.2450   19.7880 C   0  0  0  0  0  3  0  0  0  0  0  0
  -28.6520  -12.9870   20.8740 C   0  0  0  0  0  2  0  0  0  0  0  0
  -29.9690  -13.3120   20.2960 N   0  0  0  0  0  0  0  0  0  0  0  0
  -31.7360  -14.7150   19.9480 O   0  0  0  0  0  0  0  0  0  0  0  0
  -29.9530  -15.4420   21.1160 N   0  0  0  0  0  0  0  0  0  0  0  0
  -29.0550  -15.1540   21.4770 H   0  0  0  0  0  0  0  0  0  0  0  0
  -25.1900  -13.8540   20.5190 C   0  0  0  0  0  0  0  0  0  0  0  0
  -24.1260  -13.0820   20.8980 C   0  0  0  0  0  0  0  0  0  0  0  0
  -24.5860  -11.7300   20.8600 C   0  0  0  0  0  0  0  0  0  0  0  0
  -26.2330  -12.9730   20.2790 N   0  0  0  0  0  0  0  0  0  0  0  0
  -25.8730  -11.6910   20.5400 N   0  0  0  0  0  0  0  0  0  0  0  0
  -23.8620  -10.4680   21.0550 C   0  0  0  0  0  0  0  0  0  0  0  0
  -24.3100   -9.4950   21.9750 C   0  0  0  0  0  3  0  0  0  0  0  0
  -23.5880   -8.2960   22.1570 C   0  0  0  0  0  3  0  0  0  0  0  0
  -22.4040   -8.0620   21.4190 C   0  0  0  0  0  0  0  0  0  0  0  0
  -21.9740   -9.0240   20.4880 C   0  0  0  0  0  3  0  0  0  0  0  0
  -22.6970  -10.2150   20.3040 C   0  0  0  0  0  3  0  0  0  0  0  0
  -21.6510   -6.9160   21.5110 O   0  0  0  0  0  0  0  0  0  0  0  0
  -21.6270   -6.1610   22.6570 C   0  0  0  0  0  0  0  0  0  0  0  0
  -21.2250   -6.7030   23.8970 C   0  0  0  0  0  3  0  0  0  0  0  0
  -21.1490   -5.8740   25.0340 C   0  0  0  0  0  3  0  0  0  0  0  0
  -21.4630   -4.5060   24.9330 C   0  0  0  0  0  0  0  0  0  0  0  0
  -21.8590   -3.9650   23.6970 C   0  0  0  0  0  3  0  0  0  0  0  0
  -21.9370   -4.7900   22.5610 C   0  0  0  0  0  0  0  0  0  0  0  0
  -22.2980   -4.2590   21.3690 F   0  0  0  0  0  0  0  0  0  0  0  0
  -21.3830   -3.7080   26.0230 F   0  0  0  0  0  0  0  0  0  0  0  0
  -22.7310  -13.5580   21.1840 C   0  0  0  0  0  0  0  0  0  0  0  0
  -22.0100  -12.8590   22.0550 N   0  0  0  0  0  0  0  0  0  0  0  0
  -22.2870  -14.5860   20.6740 O   0  0  0  0  0  0  0  0  0  0  0  0
  -22.3820  -12.0270   22.4900 H   0  0  0  0  0  0  0  0  0  0  0  0
  -21.0760  -13.1590   22.2900 H   0  0  0  0  0  0  0  0  0  0  0  0
  -25.3540  -15.2240   20.3390 N   0  0  0  0  0  0  0  0  0  0  0  0
  -24.5840  -15.8780   20.4420 H   0  0  0  0  0  0  0  0  0  0  0  0
  -26.1930  -15.6560   19.9730 H   0  0  0  0  0  0  0  0  0  0  0  0
  2  3  1  0
  2  1  1  0
  4  5  1  0
  4  3  1  0
  6 17  2  0
  7  5  1  0
  7 12  1  0
  8 16  1  0
  8 18  1  0
  9 15  1  0
  9 11  1  0
 10 16  1  0
 11 10  1  0
 12 11  2  0
 13 14  1  0
 13  7  2  0
 14  9  2  0
 15  8  1  0
 16  6  1  0
 18 20  2  0
 19 18  1  0
 21 19  1  0
 22 31  2  0
 22 27  1  0
 23 19  1  0
 23 27  1  0
 24 23  1  0
 25 26  1  0
 25 24  1  0
 26 22  1  0
 27 28  2  0
 28 29  1  0
 30 29  2  0
 31 30  1  0
 32  6  1  0
 32 37  1  0
 32 33  1  0
 33 36  1  1
 33 34  1  0
 35 33  1  0
 37 40  1  0
 38 42  1  0
 38 37  1  0
 39 38  2  0
 42 41  1  0
 44 42  1  0
 44 45  1  0
 44 43  1  0
 46  1  1  0
 46 47  1  0
 47 49  1  0
 47 48  1  0
 50 47  1  0
 50 51  1  0
 52 60  1  0
 53 58  1  0
 54 55  1  0
 54 53  1  0
 56 55  1  0
 56 65  1  0
 56 57  1  0
 58 52  1  0
 58 57  1  0
 59 52  2  0
 60 51  1  0
 60 61  1  0
 62 63  2  0
 63 82  1  0
 64 63  1  0
 64 67  1  0
 65 62  1  0
 65 66  1  0
 66 64  2  0
 67 68  1  0
 68 69  2  0
 70 73  1  0
 70 69  1  0
 71 70  2  0
 72 71  1  0
 72 67  2  0
 73 74  1  0
 74 75  1  0
 75 76  2  0
 77 76  1  0
 77 81  1  0
 78 77  2  0
 79 74  2  0
 79 78  1  0
 80 79  1  0
 82 83  1  0
 83 86  1  0
 83 85  1  0
 84 82  2  0
 87 88  1  0
 87 62  1  0
 89 87  1  0
M  ISO  4   4 101   5 101  52 100  60 100
M  END
>  <TORSDO>  (55) 
F 23

>  <SCORE>  (55) 
-12.782

>  <name>  (55) 
55

>  <ligand_id>  (55) 
55

>  <original_smiles>  (55) 
[H]c1c([H])c([H])c2c(c1[H])C([H])([H])C([H])([H])C([H])([H])C2([H])N([H])C(=O)C1([H])N(C(=O)C([H])(N([H])C(=O)C([H])(N([H])C([H])([H])[H])C([H])([H])[H])C(C([H])([H])[H])(C([H])([H])[H])C([H])([H])[H])C([H])([H])c2c([H])c(OC([H])([H])C([H])([H])C([H])([H])C([H])([H])C([H])([H])[N+]([H])([H])C([H])([H])C([H])([H])N([H])C(=O)N3C([H])([H])C([H])([H])C([H])([H])C([H])(n4nc(-c5c([H])c([H])c(Oc6c([H])c([H])c(F)c([H])c6F)c([H])c5[H])c(C(=O)N([H])[H])c4N([H])[H])C3([H])[H])c([H])c([H])c2C1([H])[H]

>  <smiles>  (55) 
[H]c1c([H])c([H])c2c(c1[H])C([H])([H])C([H])([H])C([H])([H])C2([H])N([H])C(=O)C1([H])N(C(=O)C([H])(N([H])C(=O)C([H])(N([H])C([H])([H])[H])C([H])([H])[H])C(C([H])([H])[H])(C([H])([H])[H])C([H])([H])[H])C([H])([H])c2c([H])c(OC([H])([H])C([H])([H])C([H])([H])C([H])([H])C([H])([H])[N+]([H])([H])C([H])([H])C([H])([H])N([H])C(=O)N3C([H])([H])C([H])([H])C([H])([H])C([H])(n4nc(-c5c([H])c([H])c(Oc6c([H])c([H])c(F)c([H])c6F)c([H])c5[H])c(C(=O)N([H])[H])c4N([H])[H])C3([H])[H])c([H])c([H])c2C1([H])[H]

$$$$
56:0:0
     RDKit          3D

 99107  0  0  1  0  0  0  0  0999 V2000
  -31.2210  -22.3170   24.4250 C   0  0  0  0  0  2  0  0  0  0  0  0
  -32.3350  -21.5590   22.2720 C   0  0  0  0  0  2  0  0  0  0  0  0
  -29.8770  -23.0090   24.0830 C   0  0  0  0  0  2  0  0  0  0  0  0
  -30.7560  -23.5250   21.7520 C   0  0  0  0  0  2  0  0  0  0  0  0
  -31.7120  -21.0990   23.6020 C   0  0  0  0  0  3  0  0  0  0  0  0
  -31.3640  -22.1880   21.2510 C   0  0  0  0  0  3  0  0  0  0  0  0
  -29.5820  -23.3340   22.6510 N   0  0  2  0  0  4  0  0  0  0  0  0
  -29.1180  -22.5120   22.3000 H   0  0  0  0  0  0  0  0  0  0  0  0
  -30.7480  -19.9010   23.4540 C   0  0  0  0  0  0  0  0  0  0  0  0
  -29.6490  -19.8790   24.0120 O   0  0  0  0  0  0  0  0  0  0  0  0
  -31.2220  -18.7520   22.5490 C   0  0  0  0  0  2  0  0  0  0  0  0
  -30.4270  -17.4280   22.6230 C   0  0  0  0  0  2  0  0  0  0  0  0
  -30.8680  -16.4630   21.4980 C   0  0  0  0  0  2  0  0  0  0  0  0
  -30.0840  -15.1300   21.4290 C   0  0  0  0  0  2  0  0  0  0  0  0
  -30.5670  -14.1700   20.3150 C   0  0  0  0  0  0  0  0  0  0  0  0
  -30.1550  -12.1760   18.9000 C   0  0  0  0  0  2  0  0  0  0  0  0
  -29.1500  -12.4900   17.7760 C   0  0  0  0  0  2  0  0  0  0  0  0
  -27.7000  -12.3250   18.2750 C   0  0  0  0  0  2  0  0  0  0  0  0
  -27.4430  -13.0590   19.6180 C   0  0  0  0  0  3  0  0  0  0  0  0
  -28.5460  -12.7160   20.6440 C   0  0  0  0  0  2  0  0  0  0  0  0
  -29.8490  -13.0480   20.0440 N   0  0  0  0  0  0  0  0  0  0  0  0
  -31.5840  -14.4620   19.6770 O   0  0  0  0  0  0  0  0  0  0  0  0
  -25.0600  -13.6320   20.4060 C   0  0  0  0  0  0  0  0  0  0  0  0
  -24.0160  -12.8420   20.8130 C   0  0  0  0  0  0  0  0  0  0  0  0
  -24.4970  -11.4980   20.7620 C   0  0  0  0  0  0  0  0  0  0  0  0
  -26.1100  -12.7670   20.1390 N   0  0  0  0  0  0  0  0  0  0  0  0
  -25.7750  -11.4780   20.4070 N   0  0  0  0  0  0  0  0  0  0  0  0
  -23.7990  -10.2240   20.9760 C   0  0  0  0  0  0  0  0  0  0  0  0
  -24.2510   -9.2880   21.9330 C   0  0  0  0  0  3  0  0  0  0  0  0
  -23.5560   -8.0770   22.1340 C   0  0  0  0  0  3  0  0  0  0  0  0
  -22.3940   -7.7910   21.3790 C   0  0  0  0  0  0  0  0  0  0  0  0
  -21.9610   -8.7160   20.4110 C   0  0  0  0  0  3  0  0  0  0  0  0
  -22.6560   -9.9190   20.2090 C   0  0  0  0  0  3  0  0  0  0  0  0
  -21.6680   -6.6300   21.4880 O   0  0  0  0  0  0  0  0  0  0  0  0
  -21.5980   -5.9320   22.6690 C   0  0  0  0  0  0  0  0  0  0  0  0
  -21.1040   -6.5210   23.8530 C   0  0  0  0  0  3  0  0  0  0  0  0
  -20.9850   -5.7480   25.0260 C   0  0  0  0  0  3  0  0  0  0  0  0
  -21.3500   -4.3890   25.0140 C   0  0  0  0  0  0  0  0  0  0  0  0
  -21.8370   -3.8010   23.8330 C   0  0  0  0  0  3  0  0  0  0  0  0
  -21.9580   -4.5690   22.6630 C   0  0  0  0  0  0  0  0  0  0  0  0
  -22.4090   -3.9930   21.5230 F   0  0  0  0  0  0  0  0  0  0  0  0
  -21.2290   -3.6430   26.1370 F   0  0  0  0  0  0  0  0  0  0  0  0
  -22.6220  -13.2950   21.1390 C   0  0  0  0  0  0  0  0  0  0  0  0
  -21.9420  -12.5880   22.0350 N   0  0  0  0  0  0  0  0  0  0  0  0
  -22.1450  -14.3090   20.6330 O   0  0  0  0  0  0  0  0  0  0  0  0
  -22.3410  -11.7660   22.4660 H   0  0  0  0  0  0  0  0  0  0  0  0
  -21.0070  -12.8700   22.2950 H   0  0  0  0  0  0  0  0  0  0  0  0
  -25.2000  -15.0040   20.2250 N   0  0  0  0  0  0  0  0  0  0  0  0
  -24.4390  -15.6590   20.3660 H   0  0  0  0  0  0  0  0  0  0  0  0
  -26.0430  -15.4450   19.8760 H   0  0  0  0  0  0  0  0  0  0  0  0
  -32.1090  -22.3560   19.8950 C   0  0  0  0  0  2  0  0  0  0  0  0
  -31.3040  -20.1830   18.8340 C   0  0  0  0  0  1  0  0  0  0  0  0
  -32.3150  -21.9770   17.4210 C   0  0  0  0  0  1  0  0  0  0  0  0
  -30.0470  -22.3260   18.4040 C   0  0  0  0  0  1  0  0  0  0  0  0
  -31.4330  -21.7110   18.6550 C   0  0  2  0  0  0  0  0  0  0  0  0
  -28.5650  -24.4250   22.5190 C   0  0  0  0  0  2  0  0  0  0  0  0
  -27.3670  -24.0340   21.6260 C   0  0  0  0  0  2  0  0  0  0  0  0
  -27.5490  -24.3710   20.1320 C   0  0  0  0  0  2  0  0  0  0  0  0
  -27.6820  -25.7760   19.9140 O   0  0  0  0  0  0  0  0  0  0  0  0
  -24.4790  -31.2450   23.0970 C   0  0  0  0  0  0  0  0  0  0  0  0
  -26.5550  -26.5710   19.9400 C   0  0  0  0  0  0  0  0  0  0  0  0
  -23.0850  -29.9950   21.4780 C   0  0  0  0  0  3  0  0  0  0  0  0
  -24.3250  -28.3100   20.0160 C   0  0  0  0  0  0  0  0  0  0  0  0
  -25.6270  -30.0790   21.2200 C   0  0  0  0  0  2  0  0  0  0  0  0
  -25.5450  -28.7120   20.5730 C   0  0  0  0  0  0  0  0  0  0  0  0
  -26.6620  -27.8500   20.5260 C   0  0  0  0  0  3  0  0  0  0  0  0
  -25.3190  -26.1800   19.3780 C   0  0  0  0  0  3  0  0  0  0  0  0
  -24.2070  -27.0450   19.4120 C   0  0  0  0  0  3  0  0  0  0  0  0
  -23.1820  -29.3000   20.0930 C   0  0  0  0  0  2  0  0  0  0  0  0
  -24.4170  -30.4530   21.9910 N   0  0  0  0  0  0  0  0  0  0  0  0
  -23.4500  -31.6300   23.6680 O   0  0  0  0  0  0  0  0  0  0  0  0
  -22.3490  -29.0470   22.4520 C   0  0  0  0  0  0  0  0  0  0  0  0
  -21.0110  -28.9960   22.3380 N   0  0  0  0  0  0  0  0  0  0  0  0
  -22.9770  -28.3590   23.2610 O   0  0  0  0  0  0  0  0  0  0  0  0
  -20.5720  -29.5960   21.6550 H   0  0  0  0  0  0  0  0  0  0  0  0
  -17.5440  -28.1250   22.8550 C   0  0  0  0  0  0  0  0  0  0  0  0
  -20.1140  -28.1460   23.1190 C   0  0  0  0  0  3  0  0  0  0  0  0
  -20.0800  -26.7050   22.5590 C   0  0  0  0  0  2  0  0  0  0  0  0
  -18.9510  -26.4740   21.5500 C   0  0  0  0  0  2  0  0  0  0  0  0
  -17.5910  -26.7560   22.1950 C   0  0  0  0  0  2  0  0  0  0  0  0
  -18.7300  -28.7830   23.2760 C   0  0  0  0  0  0  0  0  0  0  0  0
  -18.6330  -30.0670   23.8530 C   0  0  0  0  0  3  0  0  0  0  0  0
  -17.3820  -30.6920   24.0130 C   0  0  0  0  0  3  0  0  0  0  0  0
  -16.2100  -30.0280   23.6120 C   0  0  0  0  0  3  0  0  0  0  0  0
  -16.2910  -28.7470   23.0380 C   0  0  0  0  0  3  0  0  0  0  0  0
  -25.8430  -31.7240   23.6860 C   0  0  0  0  0  3  0  0  0  0  0  0
  -26.3300  -30.8610   24.9130 C   0  0  1  0  0  0  0  0  0  0  0  0
  -25.2580  -30.6890   26.0160 C   0  0  0  0  0  1  0  0  0  0  0  0
  -26.7630  -29.4500   24.4490 C   0  0  0  0  0  1  0  0  0  0  0  0
  -27.5770  -31.5140   25.5530 C   0  0  0  0  0  1  0  0  0  0  0  0
  -25.6880  -33.1320   24.0720 N   0  0  0  0  0  0  0  0  0  0  0  0
  -26.1100  -34.1720   23.3410 C   0  0  0  0  0  0  0  0  0  0  0  0
  -26.7460  -34.0380   22.2920 O   0  0  0  0  0  0  0  0  0  0  0  0
  -25.1410  -33.3150   24.9010 H   0  0  0  0  0  0  0  0  0  0  0  0
  -24.5750  -36.1420   23.0720 C   0  0  0  0  0  1  0  0  0  0  0  0
  -25.7750  -35.5840   23.8540 C   0  0  0  0  0  3  0  0  0  0  0  0
  -27.9980  -36.2120   24.6900 C   0  0  0  0  0  1  0  0  0  0  0  0
  -26.9120  -36.5290   23.7640 N   0  0  0  0  0  0  0  0  0  0  0  0
  -26.6050  -37.4800   23.9490 H   0  0  0  0  0  0  0  0  0  0  0  0
  2  5  1  0
  3  1  1  0
  4  7  1  0
  5  9  1  0
  5  1  1  0
  6 51  1  0
  6  4  1  0
  6  2  1  0
  7  3  1  0
  7  8  1  6
  9 10  2  0
 11 12  1  0
 11  9  1  0
 13 12  1  0
 14 13  1  0
 15 14  1  0
 16 21  1  0
 17 18  1  0
 17 16  1  0
 19 18  1  0
 19 26  1  0
 19 20  1  0
 21 15  1  0
 21 20  1  0
 22 15  2  0
 23 24  2  0
 24 43  1  0
 25 24  1  0
 25 28  1  0
 26 23  1  0
 26 27  1  0
 27 25  2  0
 28 29  1  0
 29 30  2  0
 31 34  1  0
 31 30  1  0
 32 31  2  0
 33 32  1  0
 33 28  2  0
 34 35  1  0
 35 36  1  0
 36 37  2  0
 38 37  1  0
 38 42  1  0
 39 38  2  0
 40 35  2  0
 40 39  1  0
 41 40  1  0
 43 44  1  0
 44 47  1  0
 44 46  1  0
 45 43  2  0
 48 49  1  0
 48 23  1  0
 50 48  1  0
 55 53  1  6
 54 55  1  0
 55 52  1  0
 55 51  1  0
 56  7  1  0
 57 56  1  0
 58 57  1  0
 59 61  1  0
 59 58  1  0
 60 71  2  0
 61 66  1  0
 62 70  1  0
 62 72  1  0
 63 69  1  0
 63 65  1  0
 64 70  1  0
 65 64  1  0
 66 65  2  0
 67 68  1  0
 67 61  2  0
 68 63  2  0
 69 62  1  0
 70 60  1  0
 72 74  2  0
 73 72  1  0
 75 73  1  0
 76 85  2  0
 76 81  1  0
 77 73  1  0
 77 81  1  0
 78 77  1  0
 79 80  1  0
 79 78  1  0
 80 76  1  0
 81 82  2  0
 82 83  1  0
 84 83  2  0
 85 84  1  0
 86 60  1  0
 86 91  1  0
 86 87  1  0
 87 90  1  1
 87 88  1  0
 89 87  1  0
 91 94  1  0
 92 96  1  0
 92 91  1  0
 93 92  2  0
 96 95  1  0
 98 96  1  0
 98 99  1  0
 98 97  1  0
M  ISO  4  14 100  15 100  58 101  59 101
M  END
>  <TORSDO>  (56) 
F 26

>  <SCORE>  (56) 
-8.961

>  <name>  (56) 
56

>  <ligand_id>  (56) 
56

>  <original_smiles>  (56) 
[H]c1c([H])c([H])c2c(c1[H])C([H])([H])C([H])([H])C([H])([H])C2([H])N([H])C(=O)C1([H])N(C(=O)C([H])(N([H])C(=O)C([H])(N([H])C([H])([H])[H])C([H])([H])[H])C(C([H])([H])[H])(C([H])([H])[H])C([H])([H])[H])C([H])([H])c2c([H])c(OC([H])([H])C([H])([H])C([H])([H])[N+]3([H])C([H])([H])C([H])([H])C([H])(C(=O)C([H])([H])C([H])([H])C([H])([H])C([H])([H])C(=O)N4C([H])([H])C([H])([H])C([H])([H])C([H])(n5nc(-c6c([H])c([H])c(Oc7c([H])c([H])c(F)c([H])c7F)c([H])c6[H])c(C(=O)N([H])[H])c5N([H])[H])C4([H])[H])C([H])([H])C([H])(C([H])([H])C(C([H])([H])[H])(C([H])([H])[H])C([H])([H])[H])C3([H])[H])c([H])c([H])c2C1([H])[H]

>  <smiles>  (56) 
[H]c1c([H])c([H])c2c(c1[H])C([H])([H])C([H])([H])C([H])([H])C2([H])N([H])C(=O)C1([H])N(C(=O)C([H])(N([H])C(=O)C([H])(N([H])C([H])([H])[H])C([H])([H])[H])C(C([H])([H])[H])(C([H])([H])[H])C([H])([H])[H])C([H])([H])c2c([H])c(OC([H])([H])C([H])([H])C([H])([H])[N+]3([H])C([H])([H])C([H])([H])C([H])(C(=O)C([H])([H])C([H])([H])C([H])([H])C([H])([H])C(=O)N4C([H])([H])C([H])([H])C([H])([H])C([H])(n5nc(-c6c([H])c([H])c(Oc7c([H])c([H])c(F)c([H])c7F)c([H])c6[H])c(C(=O)N([H])[H])c5N([H])[H])C4([H])[H])C([H])([H])C([H])(C([H])([H])C(C([H])([H])[H])(C([H])([H])[H])C([H])([H])[H])C3([H])[H])c([H])c([H])c2C1([H])[H]

$$$$
57:0:0
     RDKit          3D

 89 97  0  0  1  0  0  0  0  0999 V2000
  -27.6260  -22.8160   21.8980 C   0  0  0  0  0  1  0  0  0  0  0  0
  -28.9930  -22.8130   21.1860 C   0  0  0  0  0  3  0  0  0  0  0  0
  -29.2740  -21.4470   20.4260 C   0  0  0  0  0  2  0  0  0  0  0  0
  -29.1200  -20.1680   21.3450 C   0  0  0  0  0  2  0  0  0  0  0  0
  -29.8110  -16.3390   21.5090 C   0  0  0  0  0  3  0  0  0  0  0  0
  -30.3750  -17.0750   19.2820 C   0  0  0  0  0  3  0  0  0  0  0  0
  -29.4220  -17.6700   21.8220 C   0  0  0  0  0  3  0  0  0  0  0  0
  -29.9870  -18.4080   19.5950 C   0  0  0  0  0  3  0  0  0  0  0  0
  -30.3050  -16.0110   20.2250 C   0  0  0  0  0  0  0  0  0  0  0  0
  -29.5160  -18.7350   20.8860 C   0  0  0  0  0  0  0  0  0  0  0  0
  -30.9310  -14.6560   19.8650 C   0  0  0  0  0  0  0  0  0  0  0  0
  -30.5240  -12.4490   18.8450 C   0  0  0  0  0  2  0  0  0  0  0  0
  -29.4900  -12.6270   17.7120 C   0  0  0  0  0  2  0  0  0  0  0  0
  -28.0600  -12.4810   18.2650 C   0  0  0  0  0  2  0  0  0  0  0  0
  -27.8230  -13.3310   19.5420 C   0  0  0  0  0  3  0  0  0  0  0  0
  -28.9760  -13.1750   20.5560 C   0  0  0  0  0  2  0  0  0  0  0  0
  -30.2380  -13.4760   19.8710 N   0  0  0  0  0  0  0  0  0  0  0  0
  -32.0510  -14.7240   19.3520 O   0  0  0  0  0  0  0  0  0  0  0  0
  -25.5360  -13.9160   20.5520 C   0  0  0  0  0  0  0  0  0  0  0  0
  -24.4960  -13.1370   20.9820 C   0  0  0  0  0  0  0  0  0  0  0  0
  -24.9220  -11.7830   20.8170 C   0  0  0  0  0  0  0  0  0  0  0  0
  -26.5290  -13.0380   20.1510 N   0  0  0  0  0  0  0  0  0  0  0  0
  -26.1720  -11.7440   20.3700 N   0  0  0  0  0  0  0  0  0  0  0  0
  -24.1910  -10.5220   21.0040 C   0  0  0  0  0  0  0  0  0  0  0  0
  -24.6360   -9.5360   21.9130 C   0  0  0  0  0  3  0  0  0  0  0  0
  -23.9040   -8.3410   22.0880 C   0  0  0  0  0  3  0  0  0  0  0  0
  -22.7140   -8.1230   21.3550 C   0  0  0  0  0  0  0  0  0  0  0  0
  -22.2870   -9.0980   20.4350 C   0  0  0  0  0  3  0  0  0  0  0  0
  -23.0190  -10.2850   20.2580 C   0  0  0  0  0  3  0  0  0  0  0  0
  -21.9530   -6.9830   21.4410 O   0  0  0  0  0  0  0  0  0  0  0  0
  -21.8510   -6.2710   22.6100 C   0  0  0  0  0  0  0  0  0  0  0  0
  -21.3710   -6.8580   23.8000 C   0  0  0  0  0  3  0  0  0  0  0  0
  -21.2160   -6.0730   24.9600 C   0  0  0  0  0  3  0  0  0  0  0  0
  -21.5330   -4.7010   24.9290 C   0  0  0  0  0  0  0  0  0  0  0  0
  -22.0070   -4.1130   23.7430 C   0  0  0  0  0  3  0  0  0  0  0  0
  -22.1620   -4.8960   22.5860 C   0  0  0  0  0  0  0  0  0  0  0  0
  -22.5980   -4.3200   21.4400 F   0  0  0  0  0  0  0  0  0  0  0  0
  -21.3780   -3.9450   26.0420 F   0  0  0  0  0  0  0  0  0  0  0  0
  -23.1460  -13.6160   21.4320 C   0  0  0  0  0  0  0  0  0  0  0  0
  -22.5160  -12.8970   22.3530 N   0  0  0  0  0  0  0  0  0  0  0  0
  -22.6640  -14.6630   21.0020 O   0  0  0  0  0  0  0  0  0  0  0  0
  -22.9210  -12.0470   22.7200 H   0  0  0  0  0  0  0  0  0  0  0  0
  -21.6150  -13.1980   22.6980 H   0  0  0  0  0  0  0  0  0  0  0  0
  -25.7150  -15.2920   20.4490 N   0  0  0  0  0  0  0  0  0  0  0  0
  -24.9910  -15.9570   20.6950 H   0  0  0  0  0  0  0  0  0  0  0  0
  -26.5610  -15.7340   20.1110 H   0  0  0  0  0  0  0  0  0  0  0  0
  -29.3150  -24.2070   20.4810 C   0  0  0  0  0  2  0  0  0  0  0  0
  -28.1500  -25.1130   19.9270 C   0  0  0  0  0  2  0  0  0  0  0  0
  -28.3730  -26.5660   19.9050 O   0  0  0  0  0  0  0  0  0  0  0  0
  -24.5700  -31.6960   23.1870 C   0  0  0  0  0  0  0  0  0  0  0  0
  -27.2260  -27.3640   19.8990 C   0  0  0  0  0  0  0  0  0  0  0  0
  -23.3580  -30.3140   21.5380 C   0  0  0  0  0  3  0  0  0  0  0  0
  -24.8090  -28.8700   20.0130 C   0  0  0  0  0  0  0  0  0  0  0  0
  -25.8750  -30.7330   21.2860 C   0  0  0  0  0  2  0  0  0  0  0  0
  -25.9780  -29.3850   20.5890 C   0  0  0  0  0  0  0  0  0  0  0  0
  -27.1910  -28.6430   20.5240 C   0  0  0  0  0  3  0  0  0  0  0  0
  -26.0340  -26.9000   19.2930 C   0  0  0  0  0  3  0  0  0  0  0  0
  -24.8370  -27.6320   19.3560 C   0  0  0  0  0  3  0  0  0  0  0  0
  -23.5470  -29.6960   20.1290 C   0  0  0  0  0  2  0  0  0  0  0  0
  -24.6210  -30.9290   22.0600 N   0  0  0  0  0  0  0  0  0  0  0  0
  -23.4970  -31.9180   23.7650 O   0  0  0  0  0  0  0  0  0  0  0  0
  -22.7630  -29.2420   22.4800 C   0  0  0  0  0  0  0  0  0  0  0  0
  -21.4450  -29.0010   22.3640 N   0  0  0  0  0  0  0  0  0  0  0  0
  -23.4810  -28.6310   23.2750 O   0  0  0  0  0  0  0  0  0  0  0  0
  -20.9220  -29.5510   21.6950 H   0  0  0  0  0  0  0  0  0  0  0  0
  -18.1400  -27.6170   22.8480 C   0  0  0  0  0  0  0  0  0  0  0  0
  -20.6810  -28.0100   23.1210 C   0  0  0  0  0  3  0  0  0  0  0  0
  -20.8590  -26.5940   22.5250 C   0  0  0  0  0  2  0  0  0  0  0  0
  -19.7740  -26.2270   21.5070 C   0  0  0  0  0  2  0  0  0  0  0  0
  -18.3880  -26.2890   22.1540 C   0  0  0  0  0  2  0  0  0  0  0  0
  -19.2160  -28.4330   23.2880 C   0  0  0  0  0  0  0  0  0  0  0  0
  -18.9310  -29.6750   23.8960 C   0  0  0  0  0  3  0  0  0  0  0  0
  -17.6020  -30.1030   24.0710 C   0  0  0  0  0  3  0  0  0  0  0  0
  -16.5400  -29.2850   23.6480 C   0  0  0  0  0  3  0  0  0  0  0  0
  -16.8090  -28.0440   23.0420 C   0  0  0  0  0  3  0  0  0  0  0  0
  -25.8530  -32.3460   23.7910 C   0  0  0  0  0  3  0  0  0  0  0  0
  -25.5330  -33.7450   24.1060 N   0  0  0  0  0  0  0  0  0  0  0  0
  -25.8640  -34.7930   23.3410 C   0  0  0  0  0  0  0  0  0  0  0  0
  -26.5410  -34.6840   22.3140 O   0  0  0  0  0  0  0  0  0  0  0  0
  -24.9340  -33.9020   24.9040 H   0  0  0  0  0  0  0  0  0  0  0  0
  -24.1340  -36.5770   22.9520 C   0  0  0  0  0  1  0  0  0  0  0  0
  -25.3640  -36.1810   23.7830 C   0  0  0  0  0  3  0  0  0  0  0  0
  -27.4820  -37.0810   24.6400 C   0  0  0  0  0  1  0  0  0  0  0  0
  -26.3950  -37.2380   23.6790 N   0  0  0  0  0  0  0  0  0  0  0  0
  -25.9830  -38.1570   23.8130 H   0  0  0  0  0  0  0  0  0  0  0  0
  -26.3880  -31.5930   25.0710 C   0  0  1  0  0  0  0  0  0  0  0  0
  -25.3040  -31.3530   26.1470 C   0  0  0  0  0  1  0  0  0  0  0  0
  -26.9860  -30.2200   24.6880 C   0  0  0  0  0  1  0  0  0  0  0  0
  -27.5310  -32.4080   25.7180 C   0  0  0  0  0  1  0  0  0  0  0  0
  2  1  1  0
  3  2  1  0
  3  4  1  0
  5  7  1  0
  6  8  2  0
  6  9  1  0
  8 10  1  0
  9  5  2  0
 10  4  1  0
 10  7  2  0
 11 17  1  0
 11  9  1  0
 12 17  1  0
 13 14  1  0
 13 12  1  0
 15 14  1  0
 15 22  1  0
 15 16  1  0
 17 16  1  0
 18 11  2  0
 19 20  2  0
 20 39  1  0
 21 20  1  0
 21 24  1  0
 22 23  1  0
 22 19  1  0
 23 21  2  0
 24 25  1  0
 25 26  2  0
 27 30  1  0
 27 26  1  0
 28 27  2  0
 29 28  1  0
 29 24  2  0
 30 31  1  0
 31 32  1  0
 32 33  2  0
 34 33  1  0
 34 38  1  0
 35 34  2  0
 36 31  2  0
 36 35  1  0
 37 36  1  0
 39 40  1  0
 40 43  1  0
 40 42  1  0
 41 39  2  0
 44 19  1  0
 44 45  1  0
 46 44  1  0
 47  2  1  0
 48 47  1  0
 49 48  1  0
 50 61  2  0
 51 49  1  0
 51 56  1  0
 52 60  1  0
 52 62  1  0
 53 59  1  0
 53 55  1  0
 54 60  1  0
 55 54  1  0
 56 55  2  0
 57 58  1  0
 57 51  2  0
 58 53  2  0
 59 52  1  0
 60 50  1  0
 62 64  2  0
 63 62  1  0
 65 63  1  0
 66 75  2  0
 66 71  1  0
 67 63  1  0
 67 71  1  0
 68 67  1  0
 69 70  1  0
 69 68  1  0
 70 66  1  0
 71 72  2  0
 72 73  1  0
 74 73  2  0
 75 74  1  0
 76 50  1  0
 76 77  1  0
 76 86  1  0
 77 80  1  0
 78 82  1  0
 78 77  1  0
 79 78  2  0
 82 81  1  0
 84 82  1  0
 84 85  1  0
 84 83  1  0
 86 89  1  1
 86 87  1  0
 88 86  1  0
M  ISO  4   9 100  11 100  48 101  49 101
M  END
>  <TORSDO>  (57) 
F 21

>  <SCORE>  (57) 
-11.701

>  <name>  (57) 
57

>  <ligand_id>  (57) 
57

>  <original_smiles>  (57) 
[H]c1c([H])c([H])c2c(c1[H])C([H])([H])C([H])([H])C([H])([H])C2([H])N([H])C(=O)C1([H])N(C(=O)C([H])(N([H])C(=O)C([H])(N([H])C([H])([H])[H])C([H])([H])[H])C(C([H])([H])[H])(C([H])([H])[H])C([H])([H])[H])C([H])([H])c2c([H])c(OC([H])([H])C([H])([H])C([H])(C([H])([H])[H])C([H])([H])C([H])([H])c3c([H])c([H])c(C(=O)N4C([H])([H])C([H])([H])C([H])([H])C([H])(n5nc(-c6c([H])c([H])c(Oc7c([H])c([H])c(F)c([H])c7F)c([H])c6[H])c(C(=O)N([H])[H])c5N([H])[H])C4([H])[H])c([H])c3[H])c([H])c([H])c2C1([H])[H]

>  <smiles>  (57) 
[H]c1c([H])c([H])c2c(c1[H])C([H])([H])C([H])([H])C([H])([H])C2([H])N([H])C(=O)C1([H])N(C(=O)C([H])(N([H])C(=O)C([H])(N([H])C([H])([H])[H])C([H])([H])[H])C(C([H])([H])[H])(C([H])([H])[H])C([H])([H])[H])C([H])([H])c2c([H])c(OC([H])([H])C([H])([H])C([H])(C([H])([H])[H])C([H])([H])C([H])([H])c3c([H])c([H])c(C(=O)N4C([H])([H])C([H])([H])C([H])([H])C([H])(n5nc(-c6c([H])c([H])c(Oc7c([H])c([H])c(F)c([H])c7F)c([H])c6[H])c(C(=O)N([H])[H])c5N([H])[H])C4([H])[H])c([H])c3[H])c([H])c([H])c2C1([H])[H]

$$$$
58:0:0
     RDKit          3D

 95103  0  0  1  0  0  0  0  0999 V2000
  -28.0470  -21.3510   17.9140 C   0  0  0  0  0  2  0  0  0  0  0  0
  -27.5710  -20.0850   19.9390 C   0  0  0  0  0  2  0  0  0  0  0  0
  -29.0380  -22.4160   18.4440 C   0  0  0  0  0  3  0  0  0  0  0  0
  -28.9750  -20.5220   20.4150 C   0  0  0  0  0  3  0  0  0  0  0  0
  -29.0900  -22.4130   20.0040 C   0  0  0  0  0  3  0  0  0  0  0  0
  -27.0260  -21.0020   18.9180 N   0  0  0  0  0  4  0  0  0  0  0  0
  -26.2400  -20.5640   18.4640 H   0  0  0  0  0  0  0  0  0  0  0  0
  -26.7030  -21.8520   19.3510 H   0  0  0  0  0  0  0  0  0  0  0  0
  -30.3450  -22.2500   16.2050 C   0  0  0  0  0  1  0  0  0  0  0  0
  -30.4050  -22.2960   17.7480 C   0  0  0  0  0  2  0  0  0  0  0  0
  -28.1280  -24.0540   20.3300 C   0  0  0  0  0  2  0  0  0  0  0  0
  -28.2460  -25.7730   20.0820 O   0  0  0  0  0  0  0  0  0  0  0  0
  -24.6510  -31.8850   23.1230 C   0  0  0  0  0  0  0  0  0  0  0  0
  -27.2230  -26.9240   20.0730 C   0  0  0  0  0  0  0  0  0  0  0  0
  -23.4600  -30.4900   21.4870 C   0  0  0  0  0  3  0  0  0  0  0  0
  -24.9100  -28.8840   20.0390 C   0  0  0  0  0  0  0  0  0  0  0  0
  -26.0340  -30.6910   21.3150 C   0  0  0  0  0  2  0  0  0  0  0  0
  -26.1080  -29.2700   20.6540 C   0  0  0  0  0  0  0  0  0  0  0  0
  -27.2540  -28.3240   20.6230 C   0  0  0  0  0  3  0  0  0  0  0  0
  -25.9840  -26.7290   19.4070 C   0  0  0  0  0  3  0  0  0  0  0  0
  -24.8880  -27.6430   19.3780 C   0  0  0  0  0  3  0  0  0  0  0  0
  -23.6810  -29.8040   20.1070 C   0  0  0  0  0  2  0  0  0  0  0  0
  -24.7410  -31.0550   22.0280 N   0  0  0  0  0  0  0  0  0  0  0  0
  -23.5600  -32.1560   23.6520 O   0  0  0  0  0  0  0  0  0  0  0  0
  -22.7790  -29.4880   22.4570 C   0  0  0  0  0  0  0  0  0  0  0  0
  -21.4500  -29.2980   22.3360 N   0  0  0  0  0  0  0  0  0  0  0  0
  -23.4560  -28.8760   23.2850 O   0  0  0  0  0  0  0  0  0  0  0  0
  -20.9560  -29.8470   21.6470 H   0  0  0  0  0  0  0  0  0  0  0  0
  -18.0980  -27.9980   22.8730 C   0  0  0  0  0  0  0  0  0  0  0  0
  -20.6520  -28.3410   23.1120 C   0  0  0  0  0  3  0  0  0  0  0  0
  -20.7860  -26.9100   22.5410 C   0  0  0  0  0  2  0  0  0  0  0  0
  -19.6880  -26.5590   21.5290 C   0  0  0  0  0  2  0  0  0  0  0  0
  -18.3080  -26.6610   22.1820 C   0  0  0  0  0  2  0  0  0  0  0  0
  -19.1970  -28.7940   23.2930 C   0  0  0  0  0  0  0  0  0  0  0  0
  -18.9440  -30.0400   23.9060 C   0  0  0  0  0  3  0  0  0  0  0  0
  -17.6240  -30.4930   24.0970 C   0  0  0  0  0  3  0  0  0  0  0  0
  -16.5420  -29.6960   23.6860 C   0  0  0  0  0  3  0  0  0  0  0  0
  -16.7790  -28.4500   23.0800 C   0  0  0  0  0  3  0  0  0  0  0  0
  -25.9080  -32.5530   23.7570 C   0  0  0  0  0  3  0  0  0  0  0  0
  -25.5650  -33.9470   24.1000 N   0  0  0  0  0  0  0  0  0  0  0  0
  -25.8980  -35.0260   23.3750 C   0  0  0  0  0  0  0  0  0  0  0  0
  -26.5820  -34.9500   22.3530 O   0  0  0  0  0  0  0  0  0  0  0  0
  -24.9480  -34.0750   24.8870 H   0  0  0  0  0  0  0  0  0  0  0  0
  -24.1670  -36.8320   23.0370 C   0  0  0  0  0  1  0  0  0  0  0  0
  -25.3960  -36.4060   23.8580 C   0  0  0  0  0  3  0  0  0  0  0  0
  -27.5140  -37.2850   24.7460 C   0  0  0  0  0  1  0  0  0  0  0  0
  -26.4270  -37.4660   23.7870 N   0  0  0  0  0  0  0  0  0  0  0  0
  -26.0160  -38.3820   23.9410 H   0  0  0  0  0  0  0  0  0  0  0  0
  -26.4210  -31.8010   25.0490 C   0  0  1  0  0  0  0  0  0  0  0  0
  -25.3290  -31.5650   26.1200 C   0  0  0  0  0  1  0  0  0  0  0  0
  -27.0140  -30.4230   24.6860 C   0  0  0  0  0  1  0  0  0  0  0  0
  -27.5630  -32.6130   25.7060 C   0  0  0  0  0  1  0  0  0  0  0  0
  -30.0550  -18.9160   20.4140 C   0  0  0  0  0  0  0  0  0  0  0  0
  -30.6020  -15.7980   20.3100 C   0  0  0  0  0  0  0  0  0  0  0  0
  -30.6970  -13.2460   19.5640 C   0  0  0  0  0  2  0  0  0  0  0  0
  -29.8510  -12.8220   18.3330 C   0  0  0  0  0  2  0  0  0  0  0  0
  -28.3960  -12.5120   18.7180 C   0  0  0  0  0  2  0  0  0  0  0  0
  -27.8620  -13.5180   19.7680 C   0  0  0  0  0  3  0  0  0  0  0  0
  -28.8580  -13.8660   20.8980 C   0  0  0  0  0  2  0  0  0  0  0  0
  -30.0580  -14.4480   20.2590 N   0  0  0  0  0  0  0  0  0  0  0  0
  -31.8350  -15.7190   20.2000 O   0  0  0  0  0  0  0  0  0  0  0  0
  -29.8560  -17.1600   20.2980 N   0  0  0  0  0  4  0  0  0  0  0  0
  -28.8740  -16.9480   20.2070 H   0  0  0  0  0  0  0  0  0  0  0  0
  -25.5030  -14.0460   20.5390 C   0  0  0  0  0  0  0  0  0  0  0  0
  -24.4390  -13.2710   20.8930 C   0  0  0  0  0  0  0  0  0  0  0  0
  -24.9000  -11.9160   20.8380 C   0  0  0  0  0  0  0  0  0  0  0  0
  -26.5400  -13.1750   20.2720 N   0  0  0  0  0  0  0  0  0  0  0  0
  -26.1950  -11.8840   20.5260 N   0  0  0  0  0  0  0  0  0  0  0  0
  -24.1580  -10.6600   21.0030 C   0  0  0  0  0  0  0  0  0  0  0  0
  -24.5480   -9.6920   21.9570 C   0  0  0  0  0  3  0  0  0  0  0  0
  -23.8040   -8.5020   22.1140 C   0  0  0  0  0  3  0  0  0  0  0  0
  -22.6570   -8.2690   21.3180 C   0  0  0  0  0  0  0  0  0  0  0  0
  -22.2860   -9.2250   20.3570 C   0  0  0  0  0  3  0  0  0  0  0  0
  -23.0290  -10.4080   20.1980 C   0  0  0  0  0  3  0  0  0  0  0  0
  -21.8900   -7.1300   21.3840 O   0  0  0  0  0  0  0  0  0  0  0  0
  -21.7530   -6.4190   22.5490 C   0  0  0  0  0  0  0  0  0  0  0  0
  -21.2200   -7.0010   23.7210 C   0  0  0  0  0  3  0  0  0  0  0  0
  -21.0340   -6.2140   24.8760 C   0  0  0  0  0  3  0  0  0  0  0  0
  -21.3700   -4.8460   24.8580 C   0  0  0  0  0  0  0  0  0  0  0  0
  -21.8920   -4.2640   23.6910 C   0  0  0  0  0  3  0  0  0  0  0  0
  -22.0820   -5.0470   22.5400 C   0  0  0  0  0  0  0  0  0  0  0  0
  -22.5670   -4.4760   21.4100 F   0  0  0  0  0  0  0  0  0  0  0  0
  -21.1840   -4.0900   25.9650 F   0  0  0  0  0  0  0  0  0  0  0  0
  -23.0430  -13.7510   21.1550 C   0  0  0  0  0  0  0  0  0  0  0  0
  -22.3020  -13.0700   22.0180 N   0  0  0  0  0  0  0  0  0  0  0  0
  -22.6190  -14.7820   20.6270 O   0  0  0  0  0  0  0  0  0  0  0  0
  -22.6490  -12.2370   22.4710 H   0  0  0  0  0  0  0  0  0  0  0  0
  -21.3640  -13.3840   22.2280 H   0  0  0  0  0  0  0  0  0  0  0  0
  -25.6750  -15.4210   20.3850 N   0  0  0  0  0  0  0  0  0  0  0  0
  -24.9190  -16.0810   20.5290 H   0  0  0  0  0  0  0  0  0  0  0  0
  -26.5080  -15.8470   20.0100 H   0  0  0  0  0  0  0  0  0  0  0  0
  -31.4810  -19.3020   19.9590 C   0  0  0  0  0  2  0  0  0  0  0  0
  -33.9710  -19.1100   20.2040 C   0  0  0  0  0  1  0  0  0  0  0  0
  -32.6730  -20.1150   22.1320 C   0  0  0  0  0  1  0  0  0  0  0  0
  -32.6410  -19.1000   20.9700 C   0  0  0  0  0  3  0  0  0  0  0  0
  1  3  1  0
  1  6  1  0
  2  4  1  0
  3 10  1  0
  3  5  1  0
  4 53  1  0
  5 11  1  0
  5  4  1  0
  6  8  1  0
  6  2  1  0
  7  6  1  0
  9 10  1  0
 12 11  1  0
 13 24  2  0
 14 12  1  0
 14 19  1  0
 15 23  1  0
 15 25  1  0
 16 22  1  0
 16 18  1  0
 17 23  1  0
 18 17  1  0
 19 18  2  0
 20 14  2  0
 21 20  1  0
 21 16  2  0
 22 15  1  0
 23 13  1  0
 25 27  2  0
 26 25  1  0
 28 26  1  0
 29 38  2  0
 29 34  1  0
 30 26  1  0
 30 34  1  0
 31 30  1  0
 32 33  1  0
 32 31  1  0
 33 29  1  0
 34 35  2  0
 35 36  1  0
 37 36  2  0
 38 37  1  0
 39 13  1  0
 39 40  1  0
 39 49  1  0
 40 43  1  0
 41 45  1  0
 41 40  1  0
 42 41  2  0
 45 44  1  0
 47 45  1  0
 47 48  1  0
 47 46  1  0
 49 52  1  1
 49 50  1  0
 51 49  1  0
 55 60  1  0
 56 57  1  0
 56 55  1  0
 58 57  1  0
 58 67  1  0
 58 59  1  0
 60 54  1  0
 60 59  1  0
 61 54  2  0
 62 54  1  0
 62 53  2  0
 63 62  1  0
 64 65  2  0
 65 84  1  0
 66 65  1  0
 66 69  1  0
 67 68  1  0
 67 64  1  0
 68 66  2  0
 69 70  1  0
 70 71  2  0
 72 75  1  0
 72 71  1  0
 73 72  2  0
 74 73  1  0
 74 69  2  0
 75 76  1  0
 76 77  1  0
 77 78  2  0
 79 78  1  0
 79 83  1  0
 80 79  2  0
 81 76  2  0
 81 80  1  0
 82 81  1  0
 84 85  1  0
 85 88  1  0
 85 87  1  0
 86 84  2  0
 89 90  1  0
 89 64  1  0
 91 89  1  0
 92 53  1  0
 92 95  1  0
 93 95  1  0
 95 94  1  0
M  ISO  4  11 101  12 101  54 100  62 100
M  END
>  <TORSDO>  (58) 
F 21

>  <SCORE>  (58) 
-15.618

>  <name>  (58) 
58

>  <ligand_id>  (58) 
58

>  <original_smiles>  (58) 
[H]c1c([H])c([H])c2c(c1[H])C([H])([H])C([H])([H])C([H])([H])C2([H])N([H])C(=O)C1([H])N(C(=O)C([H])(N([H])C(=O)C([H])(N([H])C([H])([H])[H])C([H])([H])[H])C(C([H])([H])[H])(C([H])([H])[H])C([H])([H])[H])C([H])([H])c2c([H])c(OC([H])([H])C3([H])C([H])(C([H])([H])C([H])([H])[H])C([H])([H])[N+]([H])([H])C([H])([H])C3([H])C([H])(N([H])C(=O)N3C([H])([H])C([H])([H])C([H])([H])C([H])(n4nc(-c5c([H])c([H])c(Oc6c([H])c([H])c(F)c([H])c6F)c([H])c5[H])c(C(=O)N([H])[H])c4N([H])[H])C3([H])[H])C([H])([H])C([H])(C([H])([H])[H])C([H])([H])[H])c([H])c([H])c2C1([H])[H]

>  <smiles>  (58) 
[H]c1c([H])c([H])c2c(c1[H])C([H])([H])C([H])([H])C([H])([H])C2([H])N([H])C(=O)C1([H])N(C(=O)C([H])(N([H])C(=O)C([H])(N([H])C([H])([H])[H])C([H])([H])[H])C(C([H])([H])[H])(C([H])([H])[H])C([H])([H])[H])C([H])([H])c2c([H])c(OC([H])([H])C3([H])C([H])(C([H])([H])C([H])([H])[H])C([H])([H])[N+]([H])([H])C([H])([H])C3([H])C([H])(N([H])C(=O)N3C([H])([H])C([H])([H])C([H])([H])C([H])(n4nc(-c5c([H])c([H])c(Oc6c([H])c([H])c(F)c([H])c6F)c([H])c5[H])c(C(=O)N([H])[H])c4N([H])[H])C3([H])[H])C([H])([H])C([H])(C([H])([H])[H])C([H])([H])[H])c([H])c([H])c2C1([H])[H]

$$$$
59:0:0
     RDKit          3D

 90 97  0  0  1  0  0  0  0  0999 V2000
  -29.6860  -20.7080   20.4590 C   0  0  0  0  0  3  0  0  0  0  0  0
  -28.8830  -22.0430   19.8850 C   0  0  0  0  0  3  0  0  0  0  0  0
  -29.0670  -23.5920   20.4510 C   0  0  0  0  0  3  0  0  0  0  0  0
  -28.1520  -24.8520   19.9050 C   0  0  0  0  0  3  0  0  0  0  0  0
  -28.3110  -26.3160   20.3110 O   0  0  0  0  0  0  0  0  0  0  0  0
  -24.5860  -31.8750   23.2490 C   0  0  0  0  0  0  0  0  0  0  0  0
  -27.2210  -27.2360   20.2260 C   0  0  0  0  0  0  0  0  0  0  0  0
  -23.4010  -30.4730   21.6000 C   0  0  0  0  0  3  0  0  0  0  0  0
  -24.8670  -28.9130   20.1880 C   0  0  0  0  0  0  0  0  0  0  0  0
  -25.9500  -30.7650   21.4540 C   0  0  0  0  0  2  0  0  0  0  0  0
  -26.0340  -29.3800   20.8040 C   0  0  0  0  0  0  0  0  0  0  0  0
  -27.2100  -28.5550   20.8140 C   0  0  0  0  0  3  0  0  0  0  0  0
  -26.0330  -26.8610   19.5590 C   0  0  0  0  0  3  0  0  0  0  0  0
  -24.8740  -27.6620   19.5530 C   0  0  0  0  0  3  0  0  0  0  0  0
  -23.6340  -29.7960   20.2240 C   0  0  0  0  0  2  0  0  0  0  0  0
  -24.6640  -31.0590   22.1560 N   0  0  0  0  0  0  0  0  0  0  0  0
  -23.4960  -32.1600   23.7680 O   0  0  0  0  0  0  0  0  0  0  0  0
  -22.7200  -29.4650   22.5580 C   0  0  0  0  0  0  0  0  0  0  0  0
  -21.3960  -29.2880   22.4150 N   0  0  0  0  0  0  0  0  0  0  0  0
  -23.3850  -28.8480   23.3930 O   0  0  0  0  0  0  0  0  0  0  0  0
  -20.9160  -29.8370   21.7150 H   0  0  0  0  0  0  0  0  0  0  0  0
  -18.0160  -28.0650   22.8630 C   0  0  0  0  0  0  0  0  0  0  0  0
  -20.5660  -28.3540   23.1810 C   0  0  0  0  0  3  0  0  0  0  0  0
  -20.6940  -26.9150   22.6260 C   0  0  0  0  0  2  0  0  0  0  0  0
  -19.6150  -26.5710   21.5950 C   0  0  0  0  0  2  0  0  0  0  0  0
  -18.2190  -26.7100   22.2080 C   0  0  0  0  0  2  0  0  0  0  0  0
  -19.1180  -28.8450   23.3050 C   0  0  0  0  0  0  0  0  0  0  0  0
  -18.8750  -30.1110   23.8800 C   0  0  0  0  0  3  0  0  0  0  0  0
  -17.5620  -30.5990   24.0190 C   0  0  0  0  0  3  0  0  0  0  0  0
  -16.4740  -29.8180   23.5920 C   0  0  0  0  0  3  0  0  0  0  0  0
  -16.7020  -28.5550   23.0190 C   0  0  0  0  0  3  0  0  0  0  0  0
  -25.8630  -32.5100   23.8830 C   0  0  0  0  0  3  0  0  0  0  0  0
  -26.3620  -31.7480   25.1720 C   0  0  1  0  0  0  0  0  0  0  0  0
  -25.2580  -31.5200   26.2290 C   0  0  0  0  0  1  0  0  0  0  0  0
  -26.9450  -30.3630   24.8040 C   0  0  0  0  0  1  0  0  0  0  0  0
  -27.5090  -32.5430   25.8410 C   0  0  0  0  0  1  0  0  0  0  0  0
  -25.5530  -33.9130   24.2000 N   0  0  0  0  0  0  0  0  0  0  0  0
  -25.8890  -34.9600   23.4350 C   0  0  0  0  0  0  0  0  0  0  0  0
  -26.5620  -34.8480   22.4060 O   0  0  0  0  0  0  0  0  0  0  0  0
  -24.9570  -34.0790   24.9990 H   0  0  0  0  0  0  0  0  0  0  0  0
  -24.1640  -36.7560   23.0710 C   0  0  0  0  0  1  0  0  0  0  0  0
  -25.4070  -36.3540   23.8830 C   0  0  0  0  0  3  0  0  0  0  0  0
  -27.5410  -37.2440   24.7090 C   0  0  0  0  0  1  0  0  0  0  0  0
  -26.4400  -37.4040   23.7620 N   0  0  0  0  0  0  0  0  0  0  0  0
  -26.0340  -38.3240   23.9020 H   0  0  0  0  0  0  0  0  0  0  0  0
  -29.3560  -19.1490   19.9750 C   0  0  0  0  0  3  0  0  0  0  0  0
  -27.0490  -18.6440   18.9460 C   0  0  0  0  0  1  0  0  0  0  0  0
  -27.8510  -18.8880   20.2350 C   0  0  0  0  0  2  0  0  0  0  0  0
  -30.2690  -17.8160   20.4190 C   0  0  0  0  0  3  0  0  0  0  0  0
  -31.5730  -17.8720   19.7260 N   0  0  0  0  0  4  0  0  0  0  0  0
  -31.4670  -17.8850   18.7270 H   0  0  0  0  0  0  0  0  0  0  0  0
  -32.1120  -17.0520   19.9590 H   0  0  0  0  0  0  0  0  0  0  0  0
  -32.0950  -18.6840   20.0010 H   0  0  0  0  0  0  0  0  0  0  0  0
  -29.6870  -16.2560   20.3720 C   0  0  0  0  0  2  0  0  0  0  0  0
  -30.5700  -14.8780   20.2690 C   0  0  0  0  0  0  0  0  0  0  0  0
  -30.4410  -12.5370   19.3440 C   0  0  0  0  0  2  0  0  0  0  0  0
  -29.5060  -12.5540   18.1090 C   0  0  0  0  0  2  0  0  0  0  0  0
  -28.0350  -12.3740   18.5340 C   0  0  0  0  0  2  0  0  0  0  0  0
  -27.6430  -13.2900   19.7190 C   0  0  0  0  0  3  0  0  0  0  0  0
  -28.7020  -13.2580   20.8450 C   0  0  0  0  0  2  0  0  0  0  0  0
  -29.9970  -13.6170   20.2610 N   0  0  0  0  0  0  0  0  0  0  0  0
  -31.7700  -14.9730   19.9870 O   0  0  0  0  0  0  0  0  0  0  0  0
  -25.2560  -13.8900   20.4490 C   0  0  0  0  0  0  0  0  0  0  0  0
  -24.1850  -13.1220   20.8190 C   0  0  0  0  0  0  0  0  0  0  0  0
  -24.6450  -11.7720   20.8050 C   0  0  0  0  0  0  0  0  0  0  0  0
  -26.2980  -13.0080   20.2160 N   0  0  0  0  0  0  0  0  0  0  0  0
  -25.9390  -11.7280   20.4970 N   0  0  0  0  0  0  0  0  0  0  0  0
  -23.9160  -10.5110   21.0020 C   0  0  0  0  0  0  0  0  0  0  0  0
  -24.3440   -9.5460   21.9410 C   0  0  0  0  0  3  0  0  0  0  0  0
  -23.6080   -8.3540   22.1260 C   0  0  0  0  0  3  0  0  0  0  0  0
  -22.4340   -8.1180   21.3740 C   0  0  0  0  0  0  0  0  0  0  0  0
  -22.0260   -9.0730   20.4250 C   0  0  0  0  0  3  0  0  0  0  0  0
  -22.7610  -10.2550   20.2380 C   0  0  0  0  0  3  0  0  0  0  0  0
  -21.6740   -6.9760   21.4650 O   0  0  0  0  0  0  0  0  0  0  0  0
  -21.6210   -6.2390   22.6220 C   0  0  0  0  0  0  0  0  0  0  0  0
  -21.1950   -6.8020   23.8450 C   0  0  0  0  0  3  0  0  0  0  0  0
  -21.0900   -5.9910   24.9940 C   0  0  0  0  0  3  0  0  0  0  0  0
  -21.4040   -4.6210   24.9200 C   0  0  0  0  0  0  0  0  0  0  0  0
  -21.8220   -4.0580   23.7010 C   0  0  0  0  0  3  0  0  0  0  0  0
  -21.9290   -4.8650   22.5550 C   0  0  0  0  0  0  0  0  0  0  0  0
  -22.3120   -4.3140   21.3780 F   0  0  0  0  0  0  0  0  0  0  0  0
  -21.2950   -3.8410   26.0200 F   0  0  0  0  0  0  0  0  0  0  0  0
  -22.7880  -13.6080   21.0750 C   0  0  0  0  0  0  0  0  0  0  0  0
  -22.0550  -12.9260   21.9470 N   0  0  0  0  0  0  0  0  0  0  0  0
  -22.3550  -14.6260   20.5350 O   0  0  0  0  0  0  0  0  0  0  0  0
  -22.4160  -12.1020   22.4050 H   0  0  0  0  0  0  0  0  0  0  0  0
  -21.1130  -13.2270   22.1550 H   0  0  0  0  0  0  0  0  0  0  0  0
  -25.4230  -15.2590   20.2690 N   0  0  0  0  0  0  0  0  0  0  0  0
  -24.6560  -15.9100   20.4000 H   0  0  0  0  0  0  0  0  0  0  0  0
  -26.2680  -15.7020   19.9380 H   0  0  0  0  0  0  0  0  0  0  0  0
  2  3  1  0
  2  1  2  0
  4  5  1  0
  4  3  2  0
  6 17  2  0
  7  5  1  0
  7 12  1  0
  8 16  1  0
  8 18  1  0
  9 15  1  0
  9 11  1  0
 10 16  1  0
 11 12  2  0
 11 10  1  0
 13  7  2  0
 14 13  1  0
 14  9  2  0
 15  8  1  0
 16  6  1  0
 18 20  2  0
 19 18  1  0
 21 19  1  0
 22 31  2  0
 22 27  1  0
 23 19  1  0
 23 27  1  0
 24 23  1  0
 25 26  1  0
 25 24  1  0
 26 22  1  0
 27 28  2  0
 28 29  1  0
 30 29  2  0
 31 30  1  0
 32  6  1  0
 32 37  1  0
 32 33  1  0
 33 36  1  1
 33 34  1  0
 35 33  1  0
 37 40  1  0
 38 42  1  0
 38 37  1  0
 39 38  2  0
 42 41  1  0
 44 42  1  0
 44 45  1  0
 44 43  1  0
 46 48  1  0
 46 49  1  0
 46  1  1  0
 47 48  1  0
 49 54  1  0
 50 52  1  0
 50 53  1  0
 50 49  1  0
 51 50  1  0
 55 54  1  0
 56 61  1  0
 57 58  1  0
 57 56  1  0
 59 58  1  0
 59 66  1  0
 59 60  1  0
 61 55  1  0
 61 60  1  0
 62 55  2  0
 63 64  2  0
 64 83  1  0
 65 64  1  0
 65 68  1  0
 66 63  1  0
 66 67  1  0
 67 65  2  0
 68 69  1  0
 69 70  2  0
 71 74  1  0
 71 70  1  0
 72 71  2  0
 73 72  1  0
 73 68  2  0
 74 75  1  0
 75 76  1  0
 76 77  2  0
 78 77  1  0
 78 82  1  0
 79 78  2  0
 80 75  2  0
 80 79  1  0
 81 80  1  0
 83 84  1  0
 84 87  1  0
 84 86  1  0
 85 83  2  0
 88 89  1  0
 88 63  1  0
 90 88  1  0
M  ISO  4   4 101   5 101  54 100  55 100
M  END
>  <TORSDO>  (59) 
F 24

>  <SCORE>  (59) 
-12.516

>  <name>  (59) 
59

>  <ligand_id>  (59) 
59

>  <original_smiles>  (59) 
[H]c1c([H])c([H])c2c(c1[H])C([H])([H])C([H])([H])C([H])([H])C2([H])N([H])C(=O)C1([H])N(C(=O)C([H])(N([H])C(=O)C([H])(N([H])C([H])([H])[H])C([H])([H])[H])C(C([H])([H])[H])(C([H])([H])[H])C([H])([H])[H])C([H])([H])c2c([H])c(OC([H])([H])C([H])([H])C([H])([H])C([H])([H])C([H])(C([H])([H])C([H])([H])[H])C([H])(C([H])([H])C(=O)N3C([H])([H])C([H])([H])C([H])([H])C([H])(n4nc(-c5c([H])c([H])c(Oc6c([H])c([H])c(F)c([H])c6F)c([H])c5[H])c(C(=O)N([H])[H])c4N([H])[H])C3([H])[H])[N+]([H])([H])[H])c([H])c([H])c2C1([H])[H]

>  <smiles>  (59) 
[H]c1c([H])c([H])c2c(c1[H])C([H])([H])C([H])([H])C([H])([H])C2([H])N([H])C(=O)C1([H])N(C(=O)C([H])(N([H])C(=O)C([H])(N([H])C([H])([H])[H])C([H])([H])[H])C(C([H])([H])[H])(C([H])([H])[H])C([H])([H])[H])C([H])([H])c2c([H])c(OC([H])([H])C([H])([H])C([H])([H])C([H])([H])C([H])(C([H])([H])C([H])([H])[H])C([H])(C([H])([H])C(=O)N3C([H])([H])C([H])([H])C([H])([H])C([H])(n4nc(-c5c([H])c([H])c(Oc6c([H])c([H])c(F)c([H])c6F)c([H])c5[H])c(C(=O)N([H])[H])c4N([H])[H])C3([H])[H])[N+]([H])([H])[H])c([H])c([H])c2C1([H])[H]

$$$$
60:0:0
     RDKit          3D

 94102  0  0  1  0  0  0  0  0999 V2000
  -28.7270  -18.6500   19.8160 C   0  0  0  0  0  2  0  0  0  0  0  0
  -27.8690  -19.8700   20.2020 C   0  0  0  0  0  2  0  0  0  0  0  0
  -29.6530  -20.7400   21.6250 C   0  0  0  0  0  2  0  0  0  0  0  0
  -29.7470  -18.2570   20.9110 C   0  0  0  0  0  3  0  0  0  0  0  0
  -30.5710  -19.5250   21.3190 C   0  0  0  0  0  3  0  0  0  0  0  0
  -28.7110  -21.0540   20.5160 N   0  0  2  0  0  4  0  0  0  0  0  0
  -29.2550  -21.2420   19.6860 H   0  0  0  0  0  0  0  0  0  0  0  0
  -30.9870  -14.7450   20.1800 C   0  0  0  0  0  0  0  0  0  0  0  0
  -30.6170  -12.5640   19.1140 C   0  0  0  0  0  2  0  0  0  0  0  0
  -29.6670  -12.7710   17.9180 C   0  0  0  0  0  2  0  0  0  0  0  0
  -28.2000  -12.6580   18.3730 C   0  0  0  0  0  2  0  0  0  0  0  0
  -27.8890  -13.5050   19.6380 C   0  0  0  0  0  3  0  0  0  0  0  0
  -28.9690  -13.3170   20.7280 C   0  0  0  0  0  2  0  0  0  0  0  0
  -30.2830  -13.5820   20.1240 N   0  0  0  0  0  0  0  0  0  0  0  0
  -32.1380  -14.8100   19.7370 O   0  0  0  0  0  0  0  0  0  0  0  0
  -30.6560  -17.1330   20.3610 C   0  0  0  0  0  0  0  0  0  0  0  0
  -30.2980  -15.8420   20.5680 N   0  0  0  0  0  0  0  0  0  0  0  0
  -31.6610  -17.4860   19.7320 O   0  0  0  0  0  0  0  0  0  0  0  0
  -29.4000  -15.6800   20.9910 H   0  0  0  0  0  0  0  0  0  0  0  0
  -25.5120  -14.1100   20.4120 C   0  0  0  0  0  0  0  0  0  0  0  0
  -24.4500  -13.3390   20.8000 C   0  0  0  0  0  0  0  0  0  0  0  0
  -24.9050  -11.9850   20.7450 C   0  0  0  0  0  0  0  0  0  0  0  0
  -26.5470  -13.2280   20.1470 N   0  0  0  0  0  0  0  0  0  0  0  0
  -26.1880  -11.9440   20.4070 N   0  0  0  0  0  0  0  0  0  0  0  0
  -24.1770  -10.7240   20.9340 C   0  0  0  0  0  0  0  0  0  0  0  0
  -24.5940   -9.7670   21.8860 C   0  0  0  0  0  3  0  0  0  0  0  0
  -23.8670   -8.5700   22.0640 C   0  0  0  0  0  3  0  0  0  0  0  0
  -22.7070   -8.3210   21.2930 C   0  0  0  0  0  0  0  0  0  0  0  0
  -22.3080   -9.2680   20.3320 C   0  0  0  0  0  3  0  0  0  0  0  0
  -23.0370  -10.4550   20.1510 C   0  0  0  0  0  3  0  0  0  0  0  0
  -21.9510   -7.1770   21.3800 O   0  0  0  0  0  0  0  0  0  0  0  0
  -21.8380   -6.4780   22.5560 C   0  0  0  0  0  0  0  0  0  0  0  0
  -21.3250   -7.0710   23.7290 C   0  0  0  0  0  3  0  0  0  0  0  0
  -21.1610   -6.2970   24.8960 C   0  0  0  0  0  3  0  0  0  0  0  0
  -21.5000   -4.9300   24.8890 C   0  0  0  0  0  0  0  0  0  0  0  0
  -22.0050   -4.3380   23.7180 C   0  0  0  0  0  3  0  0  0  0  0  0
  -22.1710   -5.1090   22.5540 C   0  0  0  0  0  0  0  0  0  0  0  0
  -22.6380   -4.5270   21.4240 F   0  0  0  0  0  0  0  0  0  0  0  0
  -21.3370   -4.1840   26.0050 F   0  0  0  0  0  0  0  0  0  0  0  0
  -23.0600  -13.8170   21.1060 C   0  0  0  0  0  0  0  0  0  0  0  0
  -22.3490  -13.1210   21.9870 N   0  0  0  0  0  0  0  0  0  0  0  0
  -22.6120  -14.8460   20.6000 O   0  0  0  0  0  0  0  0  0  0  0  0
  -22.7220  -12.2880   22.4190 H   0  0  0  0  0  0  0  0  0  0  0  0
  -21.4190  -13.4270   22.2350 H   0  0  0  0  0  0  0  0  0  0  0  0
  -25.6810  -15.4810   20.2390 N   0  0  0  0  0  0  0  0  0  0  0  0
  -24.9090  -16.1290   20.3450 H   0  0  0  0  0  0  0  0  0  0  0  0
  -26.4950  -15.9040   19.8160 H   0  0  0  0  0  0  0  0  0  0  0  0
  -32.5790  -20.3390   22.7460 C   0  0  0  0  0  1  0  0  0  0  0  0
  -31.5320  -19.2410   22.5060 C   0  0  0  0  0  2  0  0  0  0  0  0
  -27.9020  -22.2860   20.7690 C   0  0  0  0  0  2  0  0  0  0  0  0
  -28.6700  -23.6120   20.5230 C   0  0  0  0  0  2  0  0  0  0  0  0
  -27.8970  -24.8550   21.0310 C   0  0  0  0  0  2  0  0  0  0  0  0
  -28.6120  -26.2150   20.8330 C   0  0  0  0  0  2  0  0  0  0  0  0
  -28.2290  -26.8810   19.6250 O   0  0  0  0  0  0  0  0  0  0  0  0
  -24.5320  -31.8730   23.1300 C   0  0  0  0  0  0  0  0  0  0  0  0
  -27.0790  -27.6260   19.7300 C   0  0  0  0  0  0  0  0  0  0  0  0
  -23.2680  -30.5500   21.4630 C   0  0  0  0  0  3  0  0  0  0  0  0
  -24.6760  -29.0990   19.9050 C   0  0  0  0  0  0  0  0  0  0  0  0
  -25.7790  -30.9410   21.1870 C   0  0  0  0  0  2  0  0  0  0  0  0
  -25.8490  -29.6030   20.4810 C   0  0  0  0  0  0  0  0  0  0  0  0
  -27.0550  -28.8720   20.3980 C   0  0  0  0  0  3  0  0  0  0  0  0
  -25.8980  -27.1400   19.1370 C   0  0  0  0  0  3  0  0  0  0  0  0
  -24.6930  -27.8630   19.2320 C   0  0  0  0  0  3  0  0  0  0  0  0
  -23.4290  -29.9430   20.0420 C   0  0  0  0  0  2  0  0  0  0  0  0
  -24.5460  -31.1340   21.9840 N   0  0  0  0  0  0  0  0  0  0  0  0
  -23.4720  -32.1090   23.7250 O   0  0  0  0  0  0  0  0  0  0  0  0
  -22.6610  -29.4750   22.3940 C   0  0  0  0  0  0  0  0  0  0  0  0
  -21.3340  -29.2880   22.3060 N   0  0  0  0  0  0  0  0  0  0  0  0
  -23.3790  -28.8150   23.1510 O   0  0  0  0  0  0  0  0  0  0  0  0
  -20.8160  -29.8780   21.6710 H   0  0  0  0  0  0  0  0  0  0  0  0
  -17.9920  -28.0240   22.8340 C   0  0  0  0  0  0  0  0  0  0  0  0
  -20.5520  -28.3050   23.0540 C   0  0  0  0  0  3  0  0  0  0  0  0
  -20.6580  -26.9010   22.4130 C   0  0  0  0  0  2  0  0  0  0  0  0
  -19.5350  -26.6090   21.4120 C   0  0  0  0  0  2  0  0  0  0  0  0
  -18.1690  -26.7070   22.0950 C   0  0  0  0  0  2  0  0  0  0  0  0
  -19.1110  -28.7820   23.2690 C   0  0  0  0  0  0  0  0  0  0  0  0
  -18.8930  -30.0160   23.9180 C   0  0  0  0  0  3  0  0  0  0  0  0
  -17.5860  -30.4920   24.1370 C   0  0  0  0  0  3  0  0  0  0  0  0
  -16.4810  -29.7300   23.7180 C   0  0  0  0  0  3  0  0  0  0  0  0
  -16.6850  -28.4980   23.0720 C   0  0  0  0  0  3  0  0  0  0  0  0
  -25.8400  -32.4770   23.7320 C   0  0  0  0  0  3  0  0  0  0  0  0
  -25.5480  -33.8630   24.1200 N   0  0  0  0  0  0  0  0  0  0  0  0
  -25.8660  -34.9380   23.3870 C   0  0  0  0  0  0  0  0  0  0  0  0
  -26.5050  -34.8670   22.3350 O   0  0  0  0  0  0  0  0  0  0  0  0
  -24.9810  -33.9910   24.9440 H   0  0  0  0  0  0  0  0  0  0  0  0
  -24.1370  -36.7470   23.1370 C   0  0  0  0  0  1  0  0  0  0  0  0
  -25.3960  -36.3110   23.9040 C   0  0  0  0  0  3  0  0  0  0  0  0
  -27.5520  -37.1620   24.7120 C   0  0  0  0  0  1  0  0  0  0  0  0
  -26.4290  -37.3640   23.8000 N   0  0  0  0  0  0  0  0  0  0  0  0
  -26.0310  -38.2800   23.9870 H   0  0  0  0  0  0  0  0  0  0  0  0
  -26.3940  -31.6580   24.9620 C   0  0  1  0  0  0  0  0  0  0  0  0
  -25.3390  -31.3940   26.0620 C   0  0  0  0  0  1  0  0  0  0  0  0
  -26.9490  -30.2900   24.5010 C   0  0  0  0  0  1  0  0  0  0  0  0
  -27.5730  -32.4200   25.6110 C   0  0  0  0  0  1  0  0  0  0  0  0
  1  2  1  0
  1  4  1  0
  2  6  1  0
  4 16  1  0
  4  5  1  0
  5  3  1  0
  5 49  1  0
  6 50  1  0
  6  3  1  0
  6  7  1  6
  8 17  1  0
  9 14  1  0
 10 11  1  0
 10  9  1  0
 12 11  1  0
 12 23  1  0
 12 13  1  0
 14  8  1  0
 14 13  1  0
 15  8  2  0
 16 17  1  0
 17 19  1  0
 18 16  2  0
 20 21  2  0
 21 40  1  0
 22 21  1  0
 22 25  1  0
 23 24  1  0
 23 20  1  0
 24 22  2  0
 25 26  1  0
 26 27  2  0
 28 31  1  0
 28 27  1  0
 29 28  2  0
 30 29  1  0
 30 25  2  0
 31 32  1  0
 32 33  1  0
 33 34  2  0
 35 34  1  0
 35 39  1  0
 36 35  2  0
 37 32  2  0
 37 36  1  0
 38 37  1  0
 40 41  1  0
 41 44  1  0
 41 43  1  0
 42 40  2  0
 45 46  1  0
 45 20  1  0
 47 45  1  0
 49 48  1  0
 51 50  1  0
 51 52  1  0
 53 52  1  0
 54 56  1  0
 54 53  1  0
 55 66  2  0
 56 61  1  0
 57 65  1  0
 57 67  1  0
 58 64  1  0
 58 60  1  0
 59 65  1  0
 60 59  1  0
 61 60  2  0
 62 63  1  0
 62 56  2  0
 63 58  2  0
 64 57  1  0
 65 55  1  0
 67 69  2  0
 68 67  1  0
 70 68  1  0
 71 80  2  0
 71 76  1  0
 72 68  1  0
 72 76  1  0
 73 72  1  0
 74 75  1  0
 74 73  1  0
 75 71  1  0
 76 77  2  0
 77 78  1  0
 79 78  2  0
 80 79  1  0
 81 55  1  0
 81 82  1  0
 81 91  1  0
 82 85  1  0
 83 87  1  0
 83 82  1  0
 84 83  2  0
 87 86  1  0
 89 87  1  0
 89 90  1  0
 89 88  1  0
 91 94  1  1
 91 92  1  0
 93 91  1  0
M  ISO  4   8 100  17 100  53 101  54 101
M  END
>  <TORSDO>  (60) 
F 21

>  <SCORE>  (60) 
-13.391

>  <name>  (60) 
60

>  <ligand_id>  (60) 
60

>  <original_smiles>  (60) 
[H]c1c([H])c([H])c2c(c1[H])C([H])([H])C([H])([H])C([H])([H])C2([H])N([H])C(=O)C1([H])N(C(=O)C([H])(N([H])C(=O)C([H])(N([H])C([H])([H])[H])C([H])([H])[H])C(C([H])([H])[H])(C([H])([H])[H])C([H])([H])[H])C([H])([H])c2c([H])c(OC([H])([H])C([H])([H])C([H])([H])C([H])([H])[N+]3([H])C([H])([H])C([H])([H])C([H])(C(=O)N([H])C(=O)N4C([H])([H])C([H])([H])C([H])([H])C([H])(n5nc(-c6c([H])c([H])c(Oc7c([H])c([H])c(F)c([H])c7F)c([H])c6[H])c(C(=O)N([H])[H])c5N([H])[H])C4([H])[H])C([H])(C([H])([H])C([H])([H])[H])C3([H])[H])c([H])c([H])c2C1([H])[H]

>  <smiles>  (60) 
[H]c1c([H])c([H])c2c(c1[H])C([H])([H])C([H])([H])C([H])([H])C2([H])N([H])C(=O)C1([H])N(C(=O)C([H])(N([H])C(=O)C([H])(N([H])C([H])([H])[H])C([H])([H])[H])C(C([H])([H])[H])(C([H])([H])[H])C([H])([H])[H])C([H])([H])c2c([H])c(OC([H])([H])C([H])([H])C([H])([H])C([H])([H])[N+]3([H])C([H])([H])C([H])([H])C([H])(C(=O)N([H])C(=O)N4C([H])([H])C([H])([H])C([H])([H])C([H])(n5nc(-c6c([H])c([H])c(Oc7c([H])c([H])c(F)c([H])c7F)c([H])c6[H])c(C(=O)N([H])[H])c5N([H])[H])C4([H])[H])C([H])(C([H])([H])C([H])([H])[H])C3([H])[H])c([H])c([H])c2C1([H])[H]

$$$$
61:0:0
     RDKit          3D

 96104  0  0  1  0  0  0  0  0999 V2000
  -29.4280  -17.8270   20.1540 C   0  0  0  0  0  2  0  0  0  0  0  0
  -28.3420  -18.9210   20.1330 C   0  0  0  0  0  2  0  0  0  0  0  0
  -29.6160  -20.2230   21.8160 C   0  0  0  0  0  2  0  0  0  0  0  0
  -30.1310  -17.7520   21.5300 C   0  0  0  0  0  3  0  0  0  0  0  0
  -30.7330  -19.1460   21.8730 C   0  0  0  0  0  3  0  0  0  0  0  0
  -28.8660  -20.2530   20.5300 N   0  0  1  0  0  4  0  0  0  0  0  0
  -28.0450  -20.8000   20.7440 H   0  0  0  0  0  0  0  0  0  0  0  0
  -31.6690  -16.3570   23.0720 C   0  0  0  0  0  1  0  0  0  0  0  0
  -31.1240  -16.5590   21.6460 C   0  0  0  0  0  3  0  0  0  0  0  0
  -30.8620  -14.5290   20.2030 C   0  0  0  0  0  0  0  0  0  0  0  0
  -30.3780  -12.4860   18.9110 C   0  0  0  0  0  2  0  0  0  0  0  0
  -29.3690  -12.7700   17.7830 C   0  0  0  0  0  2  0  0  0  0  0  0
  -27.9240  -12.6400   18.3000 C   0  0  0  0  0  2  0  0  0  0  0  0
  -27.6880  -13.4360   19.6110 C   0  0  0  0  0  3  0  0  0  0  0  0
  -28.7990  -13.1400   20.6430 C   0  0  0  0  0  2  0  0  0  0  0  0
  -30.1060  -13.4150   20.0170 N   0  0  0  0  0  0  0  0  0  0  0  0
  -31.8430  -14.8030   19.5060 O   0  0  0  0  0  0  0  0  0  0  0  0
  -30.4820  -15.3120   21.2200 N   0  0  0  0  0  0  0  0  0  0  0  0
  -29.6750  -15.0030   21.7410 H   0  0  0  0  0  0  0  0  0  0  0  0
  -25.3470  -14.0690   20.4790 C   0  0  0  0  0  0  0  0  0  0  0  0
  -24.2870  -13.3060   20.8870 C   0  0  0  0  0  0  0  0  0  0  0  0
  -24.7140  -11.9470   20.7830 C   0  0  0  0  0  0  0  0  0  0  0  0
  -26.3580  -13.1760   20.1590 N   0  0  0  0  0  0  0  0  0  0  0  0
  -25.9820  -11.8930   20.3940 N   0  0  0  0  0  0  0  0  0  0  0  0
  -23.9730  -10.6930   20.9760 C   0  0  0  0  0  0  0  0  0  0  0  0
  -24.4280   -9.6960   21.8650 C   0  0  0  0  0  3  0  0  0  0  0  0
  -23.6890   -8.5070   22.0480 C   0  0  0  0  0  3  0  0  0  0  0  0
  -22.4810   -8.3070   21.3380 C   0  0  0  0  0  0  0  0  0  0  0  0
  -22.0440   -9.2940   20.4360 C   0  0  0  0  0  3  0  0  0  0  0  0
  -22.7840  -10.4740   20.2530 C   0  0  0  0  0  3  0  0  0  0  0  0
  -21.7110   -7.1740   21.4320 O   0  0  0  0  0  0  0  0  0  0  0  0
  -21.6800   -6.4150   22.5750 C   0  0  0  0  0  0  0  0  0  0  0  0
  -21.2940   -6.9590   23.8190 C   0  0  0  0  0  3  0  0  0  0  0  0
  -21.2080   -6.1290   24.9540 C   0  0  0  0  0  3  0  0  0  0  0  0
  -21.5010   -4.7560   24.8470 C   0  0  0  0  0  0  0  0  0  0  0  0
  -21.8820   -4.2120   23.6080 C   0  0  0  0  0  3  0  0  0  0  0  0
  -21.9680   -5.0390   22.4740 C   0  0  0  0  0  0  0  0  0  0  0  0
  -22.3150   -4.5050   21.2780 F   0  0  0  0  0  0  0  0  0  0  0  0
  -21.4130   -3.9570   25.9360 F   0  0  0  0  0  0  0  0  0  0  0  0
  -22.9190  -13.8020   21.2640 C   0  0  0  0  0  0  0  0  0  0  0  0
  -22.2360  -13.0940   22.1560 N   0  0  0  0  0  0  0  0  0  0  0  0
  -22.4690  -14.8490   20.8030 O   0  0  0  0  0  0  0  0  0  0  0  0
  -22.6130  -12.2450   22.5500 H   0  0  0  0  0  0  0  0  0  0  0  0
  -21.3200  -13.4050   22.4500 H   0  0  0  0  0  0  0  0  0  0  0  0
  -25.5320  -15.4410   20.3370 N   0  0  0  0  0  0  0  0  0  0  0  0
  -24.7850  -16.1080   20.5020 H   0  0  0  0  0  0  0  0  0  0  0  0
  -26.3720  -15.8690   19.9690 H   0  0  0  0  0  0  0  0  0  0  0  0
  -32.7070  -20.8030   21.5330 C   0  0  0  0  0  1  0  0  0  0  0  0
  -32.0080  -19.5150   21.0680 C   0  0  0  0  0  2  0  0  0  0  0  0
  -29.5150  -21.0180   19.4310 C   0  0  0  0  0  2  0  0  0  0  0  0
  -28.5030  -21.9020   18.6750 C   0  0  0  0  0  2  0  0  0  0  0  0
  -26.3450  -22.9800   19.4820 C   0  0  0  0  0  1  0  0  0  0  0  0
  -27.8830  -23.0190   19.5530 C   0  0  0  0  0  3  0  0  0  0  0  0
  -28.4200  -24.4270   19.1980 C   0  0  0  0  0  2  0  0  0  0  0  0
  -28.2700  -25.4300   20.3560 C   0  0  0  0  0  2  0  0  0  0  0  0
  -28.3580  -26.7810   19.9030 O   0  0  0  0  0  0  0  0  0  0  0  0
  -24.5060  -31.8030   23.1120 C   0  0  0  0  0  0  0  0  0  0  0  0
  -27.1730  -27.4790   19.9140 C   0  0  0  0  0  0  0  0  0  0  0  0
  -23.3000  -30.4260   21.4460 C   0  0  0  0  0  3  0  0  0  0  0  0
  -24.7570  -28.9350   19.9790 C   0  0  0  0  0  0  0  0  0  0  0  0
  -25.8170  -30.8220   21.2350 C   0  0  0  0  0  2  0  0  0  0  0  0
  -25.9120  -29.4680   20.5650 C   0  0  0  0  0  0  0  0  0  0  0  0
  -27.1250  -28.7490   20.5260 C   0  0  0  0  0  3  0  0  0  0  0  0
  -26.0020  -26.9510   19.3270 C   0  0  0  0  0  3  0  0  0  0  0  0
  -24.7950  -27.6750   19.3560 C   0  0  0  0  0  3  0  0  0  0  0  0
  -23.5040  -29.7770   20.0510 C   0  0  0  0  0  2  0  0  0  0  0  0
  -24.5590  -31.0300   21.9900 N   0  0  0  0  0  0  0  0  0  0  0  0
  -23.4280  -32.0540   23.6660 O   0  0  0  0  0  0  0  0  0  0  0  0
  -22.6650  -29.3800   22.3900 C   0  0  0  0  0  0  0  0  0  0  0  0
  -21.3380  -29.1990   22.2750 N   0  0  0  0  0  0  0  0  0  0  0  0
  -23.3600  -28.7340   23.1780 O   0  0  0  0  0  0  0  0  0  0  0  0
  -20.8390  -29.7710   21.6100 H   0  0  0  0  0  0  0  0  0  0  0  0
  -17.9710  -28.0010   22.7940 C   0  0  0  0  0  0  0  0  0  0  0  0
  -20.5330  -28.2410   23.0310 C   0  0  0  0  0  3  0  0  0  0  0  0
  -20.6220  -26.8290   22.4100 C   0  0  0  0  0  2  0  0  0  0  0  0
  -19.5010  -26.5400   21.4050 C   0  0  0  0  0  2  0  0  0  0  0  0
  -18.1310  -26.6720   22.0750 C   0  0  0  0  0  2  0  0  0  0  0  0
  -19.0990  -28.7450   23.2280 C   0  0  0  0  0  0  0  0  0  0  0  0
  -18.8970  -29.9920   23.8590 C   0  0  0  0  0  3  0  0  0  0  0  0
  -17.5970  -30.4940   24.0610 C   0  0  0  0  0  3  0  0  0  0  0  0
  -16.4830  -29.7460   23.6440 C   0  0  0  0  0  3  0  0  0  0  0  0
  -16.6710  -28.5000   23.0160 C   0  0  0  0  0  3  0  0  0  0  0  0
  -25.7940  -32.4290   23.7360 C   0  0  0  0  0  3  0  0  0  0  0  0
  -25.4770  -33.8150   24.1040 N   0  0  0  0  0  0  0  0  0  0  0  0
  -25.7920  -34.8880   23.3660 C   0  0  0  0  0  0  0  0  0  0  0  0
  -26.4530  -34.8150   22.3260 O   0  0  0  0  0  0  0  0  0  0  0  0
  -24.8920  -33.9470   24.9160 H   0  0  0  0  0  0  0  0  0  0  0  0
  -24.0450  -36.6700   23.0610 C   0  0  0  0  0  1  0  0  0  0  0  0
  -25.2940  -36.2590   23.8590 C   0  0  0  0  0  3  0  0  0  0  0  0
  -27.4240  -37.1400   24.7040 C   0  0  0  0  0  1  0  0  0  0  0  0
  -26.3150  -37.3250   23.7720 N   0  0  0  0  0  0  0  0  0  0  0  0
  -25.9000  -38.2360   23.9530 H   0  0  0  0  0  0  0  0  0  0  0  0
  -26.3320  -31.6290   24.9850 C   0  0  1  0  0  0  0  0  0  0  0  0
  -25.2530  -31.3510   26.0570 C   0  0  0  0  0  1  0  0  0  0  0  0
  -26.9230  -30.2680   24.5460 C   0  0  0  0  0  1  0  0  0  0  0  0
  -27.4830  -32.4150   25.6540 C   0  0  0  0  0  1  0  0  0  0  0  0
  1  4  1  0
  2  1  1  0
  2  6  1  0
  3  5  1  0
  4  9  1  0
  4  5  1  0
  5 49  1  0
  6  7  1  1
  6  3  1  0
  9  8  1  0
 10 18  1  0
 11 16  1  0
 12 13  1  0
 12 11  1  0
 14 13  1  0
 14 23  1  0
 14 15  1  0
 16 10  1  0
 16 15  1  0
 17 10  2  0
 18  9  1  0
 18 19  1  0
 20 21  2  0
 21 40  1  0
 22 21  1  0
 22 25  1  0
 23 24  1  0
 23 20  1  0
 24 22  2  0
 25 26  1  0
 26 27  2  0
 28 31  1  0
 28 27  1  0
 29 28  2  0
 30 29  1  0
 30 25  2  0
 31 32  1  0
 32 33  1  0
 33 34  2  0
 35 34  1  0
 35 39  1  0
 36 35  2  0
 37 32  2  0
 37 36  1  0
 38 37  1  0
 40 41  1  0
 41 44  1  0
 41 43  1  0
 42 40  2  0
 45 20  1  0
 45 46  1  0
 47 45  1  0
 49 48  1  0
 50  6  1  0
 51 50  1  0
 51 53  1  0
 53 52  1  0
 54 53  1  0
 54 55  1  0
 56 58  1  0
 56 55  1  0
 57 68  2  0
 58 63  1  0
 59 67  1  0
 59 69  1  0
 60 66  1  0
 60 62  1  0
 61 67  1  0
 62 61  1  0
 63 62  2  0
 64 65  1  0
 64 58  2  0
 65 60  2  0
 66 59  1  0
 67 57  1  0
 69 71  2  0
 70 69  1  0
 72 70  1  0
 73 82  2  0
 73 78  1  0
 74 70  1  0
 74 78  1  0
 75 74  1  0
 76 77  1  0
 76 75  1  0
 77 73  1  0
 78 79  2  0
 79 80  1  0
 81 80  2  0
 82 81  1  0
 83 57  1  0
 83 84  1  0
 83 93  1  0
 84 87  1  0
 85 89  1  0
 85 84  1  0
 86 85  2  0
 89 88  1  0
 91 89  1  0
 91 92  1  0
 91 90  1  0
 93 96  1  1
 93 94  1  0
 95 93  1  0
M  ISO  4  10 100  18 100  55 101  56 101
M  END
>  <TORSDO>  (61) 
F 23

>  <SCORE>  (61) 
-11.078

>  <name>  (61) 
61

>  <ligand_id>  (61) 
61

>  <original_smiles>  (61) 
[H]c1c([H])c([H])c2c(c1[H])C([H])([H])C([H])([H])C([H])([H])C2([H])N([H])C(=O)C1([H])N(C(=O)C([H])(N([H])C(=O)C([H])(N([H])C([H])([H])[H])C([H])([H])[H])C(C([H])([H])[H])(C([H])([H])[H])C([H])([H])[H])C([H])([H])c2c([H])c(OC([H])([H])C([H])([H])C([H])(C([H])([H])[H])C([H])([H])C([H])([H])[N+]3([H])C([H])([H])C([H])([H])C([H])(C([H])(N([H])C(=O)N4C([H])([H])C([H])([H])C([H])([H])C([H])(n5nc(-c6c([H])c([H])c(Oc7c([H])c([H])c(F)c([H])c7F)c([H])c6[H])c(C(=O)N([H])[H])c5N([H])[H])C4([H])[H])C([H])([H])[H])C([H])(C([H])([H])C([H])([H])[H])C3([H])[H])c([H])c([H])c2C1([H])[H]

>  <smiles>  (61) 
[H]c1c([H])c([H])c2c(c1[H])C([H])([H])C([H])([H])C([H])([H])C2([H])N([H])C(=O)C1([H])N(C(=O)C([H])(N([H])C(=O)C([H])(N([H])C([H])([H])[H])C([H])([H])[H])C(C([H])([H])[H])(C([H])([H])[H])C([H])([H])[H])C([H])([H])c2c([H])c(OC([H])([H])C([H])([H])C([H])(C([H])([H])[H])C([H])([H])C([H])([H])[N+]3([H])C([H])([H])C([H])([H])C([H])(C([H])(N([H])C(=O)N4C([H])([H])C([H])([H])C([H])([H])C([H])(n5nc(-c6c([H])c([H])c(Oc7c([H])c([H])c(F)c([H])c7F)c([H])c6[H])c(C(=O)N([H])[H])c5N([H])[H])C4([H])[H])C([H])([H])[H])C([H])(C([H])([H])C([H])([H])[H])C3([H])[H])c([H])c([H])c2C1([H])[H]

$$$$
62:0:0
     RDKit          3D

 92100  0  0  1  0  0  0  0  0999 V2000
  -30.4990  -15.2730   20.3250 C   0  0  0  0  0  0  0  0  0  0  0  0
  -30.4380  -12.8160   19.4920 C   0  0  0  0  0  2  0  0  0  0  0  0
  -29.5500  -12.5710   18.2460 C   0  0  0  0  0  2  0  0  0  0  0  0
  -28.0900  -12.3220   18.6600 C   0  0  0  0  0  2  0  0  0  0  0  0
  -27.6170  -13.3230   19.7460 C   0  0  0  0  0  3  0  0  0  0  0  0
  -28.6420  -13.4900   20.8890 C   0  0  0  0  0  2  0  0  0  0  0  0
  -29.8810  -13.9870   20.2660 N   0  0  0  0  0  0  0  0  0  0  0  0
  -31.7240  -15.1980   20.1380 O   0  0  0  0  0  0  0  0  0  0  0  0
  -28.2390  -18.5490   20.8720 C   0  0  0  0  0  2  0  0  0  0  0  0
  -28.4450  -16.9730   20.6630 C   0  0  0  0  0  2  0  0  0  0  0  0
  -29.1390  -19.4180   19.9410 C   0  0  0  0  0  3  0  0  0  0  0  0
  -30.3020  -18.1280   19.9600 C   0  0  0  0  0  3  0  0  0  0  0  0
  -29.8340  -16.6180   20.3070 N   0  0  0  0  0  0  0  0  0  0  0  0
  -25.2240  -13.9000   20.4100 C   0  0  0  0  0  0  0  0  0  0  0  0
  -24.1520  -13.1330   20.7590 C   0  0  0  0  0  0  0  0  0  0  0  0
  -24.6180  -11.7810   20.7800 C   0  0  0  0  0  0  0  0  0  0  0  0
  -26.2750  -13.0200   20.2250 N   0  0  0  0  0  0  0  0  0  0  0  0
  -25.9200  -11.7400   20.5130 N   0  0  0  0  0  0  0  0  0  0  0  0
  -23.8810  -10.5260   20.9750 C   0  0  0  0  0  0  0  0  0  0  0  0
  -24.2930   -9.5700   21.9280 C   0  0  0  0  0  3  0  0  0  0  0  0
  -23.5530   -8.3820   22.1150 C   0  0  0  0  0  3  0  0  0  0  0  0
  -22.3890   -8.1420   21.3480 C   0  0  0  0  0  0  0  0  0  0  0  0
  -21.9970   -9.0870   20.3830 C   0  0  0  0  0  3  0  0  0  0  0  0
  -22.7360  -10.2650   20.1950 C   0  0  0  0  0  3  0  0  0  0  0  0
  -21.6250   -7.0050   21.4430 O   0  0  0  0  0  0  0  0  0  0  0  0
  -21.5710   -6.2670   22.6000 C   0  0  0  0  0  0  0  0  0  0  0  0
  -21.1710   -6.8370   23.8290 C   0  0  0  0  0  3  0  0  0  0  0  0
  -21.0640   -6.0280   24.9780 C   0  0  0  0  0  3  0  0  0  0  0  0
  -21.3440   -4.6510   24.9000 C   0  0  0  0  0  0  0  0  0  0  0  0
  -21.7350   -4.0810   23.6750 C   0  0  0  0  0  3  0  0  0  0  0  0
  -21.8450   -4.8860   22.5280 C   0  0  0  0  0  0  0  0  0  0  0  0
  -22.2020   -4.3270   21.3470 F   0  0  0  0  0  0  0  0  0  0  0  0
  -21.2320   -3.8720   26.0000 F   0  0  0  0  0  0  0  0  0  0  0  0
  -22.7470  -13.6200   20.9690 C   0  0  0  0  0  0  0  0  0  0  0  0
  -21.9890  -12.9580   21.8350 N   0  0  0  0  0  0  0  0  0  0  0  0
  -22.3310  -14.6290   20.3980 O   0  0  0  0  0  0  0  0  0  0  0  0
  -22.3350  -12.1440   22.3210 H   0  0  0  0  0  0  0  0  0  0  0  0
  -21.0470  -13.2740   22.0200 H   0  0  0  0  0  0  0  0  0  0  0  0
  -25.3900  -15.2660   20.2080 N   0  0  0  0  0  0  0  0  0  0  0  0
  -24.6240  -15.9210   20.3080 H   0  0  0  0  0  0  0  0  0  0  0  0
  -26.2590  -15.7080   19.9450 H   0  0  0  0  0  0  0  0  0  0  0  0
  -29.2540  -21.1270   20.3810 C   0  0  0  0  0  0  0  0  0  0  0  0
  -29.9250  -21.3100   21.3990 O   0  0  0  0  0  0  0  0  0  0  0  0
  -28.6500  -22.6230   19.6730 C   0  0  0  0  0  2  0  0  0  0  0  0
  -28.1730  -24.2460   20.3410 C   0  0  0  0  0  2  0  0  0  0  0  0
  -28.2470  -25.8490   19.9280 O   0  0  0  0  0  0  0  0  0  0  0  0
  -24.6200  -31.7690   23.0180 C   0  0  0  0  0  0  0  0  0  0  0  0
  -27.1990  -26.9110   19.9780 C   0  0  0  0  0  0  0  0  0  0  0  0
  -23.4260  -30.3680   21.3820 C   0  0  0  0  0  3  0  0  0  0  0  0
  -24.8790  -28.7680   19.9580 C   0  0  0  0  0  0  0  0  0  0  0  0
  -25.9910  -30.6000   21.2170 C   0  0  0  0  0  2  0  0  0  0  0  0
  -26.0690  -29.1860   20.5690 C   0  0  0  0  0  0  0  0  0  0  0  0
  -27.2250  -28.2800   20.5440 C   0  0  0  0  0  3  0  0  0  0  0  0
  -25.9710  -26.6390   19.3370 C   0  0  0  0  0  3  0  0  0  0  0  0
  -24.8550  -27.5120   19.3230 C   0  0  0  0  0  3  0  0  0  0  0  0
  -23.6570  -29.6820   20.0040 C   0  0  0  0  0  2  0  0  0  0  0  0
  -24.7020  -30.9400   21.9260 N   0  0  0  0  0  0  0  0  0  0  0  0
  -23.5310  -32.0450   23.5460 O   0  0  0  0  0  0  0  0  0  0  0  0
  -22.7420  -29.3700   22.3500 C   0  0  0  0  0  0  0  0  0  0  0  0
  -21.4080  -29.2240   22.2520 N   0  0  0  0  0  0  0  0  0  0  0  0
  -23.4210  -28.7240   23.1550 O   0  0  0  0  0  0  0  0  0  0  0  0
  -20.9150  -29.7980   21.5820 H   0  0  0  0  0  0  0  0  0  0  0  0
  -18.0200  -28.0490   22.8390 C   0  0  0  0  0  0  0  0  0  0  0  0
  -20.5910  -28.2830   23.0280 C   0  0  0  0  0  3  0  0  0  0  0  0
  -20.6590  -26.8610   22.4240 C   0  0  0  0  0  2  0  0  0  0  0  0
  -19.5220  -26.5700   21.4370 C   0  0  0  0  0  2  0  0  0  0  0  0
  -18.1610  -26.7140   22.1270 C   0  0  0  0  0  2  0  0  0  0  0  0
  -19.1610  -28.7910   23.2480 C   0  0  0  0  0  0  0  0  0  0  0  0
  -18.9730  -30.0380   23.8820 C   0  0  0  0  0  3  0  0  0  0  0  0
  -17.6780  -30.5410   24.1140 C   0  0  0  0  0  3  0  0  0  0  0  0
  -16.5560  -29.7980   23.7170 C   0  0  0  0  0  3  0  0  0  0  0  0
  -16.7270  -28.5550   23.0790 C   0  0  0  0  0  3  0  0  0  0  0  0
  -25.8890  -32.4210   23.6450 C   0  0  0  0  0  3  0  0  0  0  0  0
  -25.5430  -33.8000   24.0270 N   0  0  0  0  0  0  0  0  0  0  0  0
  -25.8410  -34.8950   23.3150 C   0  0  0  0  0  0  0  0  0  0  0  0
  -26.4990  -34.8530   22.2740 O   0  0  0  0  0  0  0  0  0  0  0  0
  -24.9500  -33.9030   24.8380 H   0  0  0  0  0  0  0  0  0  0  0  0
  -24.0780  -36.6810   23.0730 C   0  0  0  0  0  1  0  0  0  0  0  0
  -25.3360  -36.2530   23.8440 C   0  0  0  0  0  3  0  0  0  0  0  0
  -27.4630  -37.1510   24.6830 C   0  0  0  0  0  1  0  0  0  0  0  0
  -26.3430  -37.3320   23.7650 N   0  0  0  0  0  0  0  0  0  0  0  0
  -25.9150  -38.2330   23.9590 H   0  0  0  0  0  0  0  0  0  0  0  0
  -26.4310  -31.6320   24.9030 C   0  0  1  0  0  0  0  0  0  0  0  0
  -25.3590  -31.3580   25.9830 C   0  0  0  0  0  1  0  0  0  0  0  0
  -27.0240  -30.2660   24.4840 C   0  0  0  0  0  1  0  0  0  0  0  0
  -27.5770  -32.4330   25.5640 C   0  0  0  0  0  1  0  0  0  0  0  0
  -31.1460  -18.0060   18.6640 C   0  0  0  0  0  2  0  0  0  0  0  0
  -31.3930  -19.2760   17.8260 C   0  0  0  0  0  2  0  0  0  0  0  0
  -30.4010  -19.4040   16.7420 N   0  0  0  0  0  4  0  0  0  0  0  0
  -30.4240  -18.5940   16.1460 H   0  0  0  0  0  0  0  0  0  0  0  0
  -30.6040  -20.2060   16.1710 H   0  0  0  0  0  0  0  0  0  0  0  0
  -29.4710  -19.4960   17.1060 H   0  0  0  0  0  0  0  0  0  0  0  0
  2  7  1  0
  3  4  1  0
  3  2  1  0
  5  4  1  0
  5 17  1  0
  5  6  1  0
  7  1  1  0
  7  6  1  0
  8  1  2  0
 10  9  1  0
 11 12  1  0
 11 42  1  0
 11  9  1  0
 12 87  1  0
 12 13  1  0
 13  1  1  0
 13 10  1  0
 14 15  2  0
 15 16  1  0
 15 34  1  0
 16 19  1  0
 17 14  1  0
 17 18  1  0
 18 16  2  0
 19 20  1  0
 20 21  2  0
 22 25  1  0
 22 21  1  0
 23 22  2  0
 24 23  1  0
 24 19  2  0
 25 26  1  0
 26 27  1  0
 27 28  2  0
 29 28  1  0
 29 33  1  0
 30 29  2  0
 31 26  2  0
 31 30  1  0
 32 31  1  0
 34 35  1  0
 35 38  1  0
 35 37  1  0
 36 34  2  0
 39 40  1  0
 39 14  1  0
 41 39  1  0
 42 43  2  0
 44 45  1  0
 44 42  1  0
 46 48  1  0
 46 45  1  0
 47 58  2  0
 48 53  1  0
 49 57  1  0
 49 59  1  0
 50 56  1  0
 50 52  1  0
 51 57  1  0
 52 51  1  0
 53 52  2  0
 54 48  2  0
 55 54  1  0
 55 50  2  0
 56 49  1  0
 57 47  1  0
 59 61  2  0
 60 59  1  0
 62 60  1  0
 63 72  2  0
 63 68  1  0
 64 60  1  0
 64 68  1  0
 65 64  1  0
 66 67  1  0
 66 65  1  0
 67 63  1  0
 68 69  2  0
 69 70  1  0
 71 70  2  0
 72 71  1  0
 73 47  1  0
 73 74  1  0
 73 83  1  0
 74 77  1  0
 75 79  1  0
 75 74  1  0
 76 75  2  0
 79 78  1  0
 81 79  1  0
 81 82  1  0
 81 80  1  0
 83 86  1  1
 83 84  1  0
 85 83  1  0
 88 87  1  0
 89 92  1  0
 89 88  1  0
 90 89  1  0
 91 89  1  0
M  ISO  4   1 100  13 100  45 101  46 101
M  END
>  <TORSDO>  (62) 
F 21

>  <SCORE>  (62) 
-14.870

>  <name>  (62) 
62

>  <ligand_id>  (62) 
62

>  <original_smiles>  (62) 
[H]c1c([H])c([H])c2c(c1[H])C([H])([H])C([H])([H])C([H])([H])C2([H])N([H])C(=O)C1([H])N(C(=O)C([H])(N([H])C(=O)C([H])(N([H])C([H])([H])[H])C([H])([H])[H])C(C([H])([H])[H])(C([H])([H])[H])C([H])([H])[H])C([H])([H])c2c([H])c(OC([H])([H])C([H])([H])C(=O)C3([H])C([H])([H])C([H])([H])N(C(=O)N4C([H])([H])C([H])([H])C([H])([H])C([H])(n5nc(-c6c([H])c([H])c(Oc7c([H])c([H])c(F)c([H])c7F)c([H])c6[H])c(C(=O)N([H])[H])c5N([H])[H])C4([H])[H])C3([H])C([H])([H])C([H])([H])[N+]([H])([H])[H])c([H])c([H])c2C1([H])[H]

>  <smiles>  (62) 
[H]c1c([H])c([H])c2c(c1[H])C([H])([H])C([H])([H])C([H])([H])C2([H])N([H])C(=O)C1([H])N(C(=O)C([H])(N([H])C(=O)C([H])(N([H])C([H])([H])[H])C([H])([H])[H])C(C([H])([H])[H])(C([H])([H])[H])C([H])([H])[H])C([H])([H])c2c([H])c(OC([H])([H])C([H])([H])C(=O)C3([H])C([H])([H])C([H])([H])N(C(=O)N4C([H])([H])C([H])([H])C([H])([H])C([H])(n5nc(-c6c([H])c([H])c(Oc7c([H])c([H])c(F)c([H])c7F)c([H])c6[H])c(C(=O)N([H])[H])c5N([H])[H])C4([H])[H])C3([H])C([H])([H])C([H])([H])[N+]([H])([H])[H])c([H])c([H])c2C1([H])[H]

$$$$
63:0:0
     RDKit          3D

 95103  0  0  1  0  0  0  0  0999 V2000
  -31.0160  -19.6340   19.7730 N   0  0  0  0  0  4  0  0  0  0  0  0
  -31.1380  -19.6660   18.7740 H   0  0  0  0  0  0  0  0  0  0  0  0
  -31.9380  -19.7150   20.1670 H   0  0  0  0  0  0  0  0  0  0  0  0
  -31.6280  -15.2290   20.7240 C   0  0  0  0  0  0  0  0  0  0  0  0
  -31.5030  -12.8800   19.9860 C   0  0  0  0  0  2  0  0  0  0  0  0
  -30.6340  -12.8210   18.7110 C   0  0  0  0  0  2  0  0  0  0  0  0
  -29.1460  -12.6690   19.0840 C   0  0  0  0  0  2  0  0  0  0  0  0
  -28.6880  -13.6700   20.1790 C   0  0  0  0  0  3  0  0  0  0  0  0
  -29.6920  -13.7420   21.3510 C   0  0  0  0  0  2  0  0  0  0  0  0
  -31.0150  -14.0140   20.7840 N   0  0  0  0  0  0  0  0  0  0  0  0
  -32.8270  -15.3470   20.4760 O   0  0  0  0  0  0  0  0  0  0  0  0
  -31.0240  -17.1220   19.3440 C   0  0  0  0  0  2  0  0  0  0  0  0
  -30.4170  -18.2950   20.0900 C   0  0  0  0  0  3  0  0  0  0  0  0
  -30.8900  -17.5670   21.3530 C   0  0  0  0  0  3  0  0  0  0  0  0
  -30.8030  -16.3030   20.5610 N   0  0  0  0  0  0  0  0  0  0  0  0
  -26.3110  -14.2640   20.9510 C   0  0  0  0  0  0  0  0  0  0  0  0
  -25.2160  -13.4930   21.2270 C   0  0  0  0  0  0  0  0  0  0  0  0
  -25.6370  -12.1350   21.0570 C   0  0  0  0  0  0  0  0  0  0  0  0
  -27.3300  -13.3800   20.6310 N   0  0  0  0  0  0  0  0  0  0  0  0
  -26.9270  -12.0880   20.7510 N   0  0  0  0  0  0  0  0  0  0  0  0
  -24.8710  -10.8850   21.1070 C   0  0  0  0  0  0  0  0  0  0  0  0
  -25.1000   -9.9160   22.1090 C   0  0  0  0  0  3  0  0  0  0  0  0
  -24.3330   -8.7310   22.1490 C   0  0  0  0  0  3  0  0  0  0  0  0
  -23.3270   -8.5040   21.1810 C   0  0  0  0  0  0  0  0  0  0  0  0
  -23.1180   -9.4610   20.1710 C   0  0  0  0  0  3  0  0  0  0  0  0
  -23.8860  -10.6370   20.1310 C   0  0  0  0  0  3  0  0  0  0  0  0
  -22.5530   -7.3670   21.1280 O   0  0  0  0  0  0  0  0  0  0  0  0
  -22.0620   -6.7750   22.2630 C   0  0  0  0  0  0  0  0  0  0  0  0
  -21.2300   -7.4710   23.1700 C   0  0  0  0  0  3  0  0  0  0  0  0
  -20.6920   -6.8030   24.2850 C   0  0  0  0  0  3  0  0  0  0  0  0
  -20.9740   -5.4390   24.4960 C   0  0  0  0  0  0  0  0  0  0  0  0
  -21.7970   -4.7440   23.5920 C   0  0  0  0  0  3  0  0  0  0  0  0
  -22.3360   -5.4080   22.4790 C   0  0  0  0  0  0  0  0  0  0  0  0
  -23.1100   -4.7260   21.6010 F   0  0  0  0  0  0  0  0  0  0  0  0
  -20.4490   -4.7960   25.5650 F   0  0  0  0  0  0  0  0  0  0  0  0
  -23.8330  -13.9820   21.5400 C   0  0  0  0  0  0  0  0  0  0  0  0
  -23.0870  -13.2400   22.3490 N   0  0  0  0  0  0  0  0  0  0  0  0
  -23.4180  -15.0580   21.1030 O   0  0  0  0  0  0  0  0  0  0  0  0
  -23.4330  -12.3680   22.7260 H   0  0  0  0  0  0  0  0  0  0  0  0
  -22.1560  -13.5440   22.5950 H   0  0  0  0  0  0  0  0  0  0  0  0
  -26.5250  -15.6410   20.9140 N   0  0  0  0  0  0  0  0  0  0  0  0
  -25.7950  -16.3130   21.1130 H   0  0  0  0  0  0  0  0  0  0  0  0
  -27.4090  -16.0690   20.6770 H   0  0  0  0  0  0  0  0  0  0  0  0
  -29.9900  -17.4980   22.5940 C   0  0  0  0  0  2  0  0  0  0  0  0
  -30.0670  -18.7360   23.5150 C   0  0  0  0  0  2  0  0  0  0  0  0
  -30.3560  -19.7530   25.7850 C   0  0  0  0  0  1  0  0  0  0  0  0
  -31.0200  -17.3550   25.4340 C   0  0  0  0  0  1  0  0  0  0  0  0
  -28.5920  -18.0200   25.4700 C   0  0  0  0  0  1  0  0  0  0  0  0
  -30.0110  -18.4500   25.0390 C   0  0  2  0  0  0  0  0  0  0  0  0
  -30.1960  -20.8330   20.1220 C   0  0  0  0  0  2  0  0  0  0  0  0
  -30.6760  -22.1770   19.4790 C   0  0  0  0  0  2  0  0  0  0  0  0
  -29.5210  -23.2080   19.2600 C   0  0  0  0  0  2  0  0  0  0  0  0
  -29.8420  -24.7350   19.3850 C   0  0  0  0  0  2  0  0  0  0  0  0
  -28.6680  -25.6440   18.8920 C   0  0  0  0  0  2  0  0  0  0  0  0
  -28.6970  -27.0460   19.2870 O   0  0  0  0  0  0  0  0  0  0  0  0
  -24.6160  -31.6600   22.9840 C   0  0  0  0  0  0  0  0  0  0  0  0
  -27.4770  -27.7190   19.3750 C   0  0  0  0  0  0  0  0  0  0  0  0
  -23.4590  -30.3090   21.2650 C   0  0  0  0  0  3  0  0  0  0  0  0
  -24.9660  -29.0420   19.6410 C   0  0  0  0  0  0  0  0  0  0  0  0
  -25.9460  -30.8810   21.0180 C   0  0  0  0  0  2  0  0  0  0  0  0
  -26.1080  -29.5880   20.2360 C   0  0  0  0  0  0  0  0  0  0  0  0
  -27.3640  -28.9380   20.0960 C   0  0  0  0  0  3  0  0  0  0  0  0
  -26.3000  -27.2120   18.7640 C   0  0  0  0  0  3  0  0  0  0  0  0
  -25.0580  -27.8530   18.9030 C   0  0  0  0  0  3  0  0  0  0  0  0
  -23.6650  -29.7960   19.8180 C   0  0  0  0  0  2  0  0  0  0  0  0
  -24.6910  -30.9640   21.8130 N   0  0  0  0  0  0  0  0  0  0  0  0
  -23.5420  -31.7850   23.5900 O   0  0  0  0  0  0  0  0  0  0  0  0
  -22.9420  -29.1510   22.1520 C   0  0  0  0  0  0  0  0  0  0  0  0
  -21.6370  -28.8460   22.0500 N   0  0  0  0  0  0  0  0  0  0  0  0
  -23.7160  -28.5340   22.8880 O   0  0  0  0  0  0  0  0  0  0  0  0
  -21.0660  -29.4060   21.4300 H   0  0  0  0  0  0  0  0  0  0  0  0
  -18.4150  -27.2870   22.5410 C   0  0  0  0  0  0  0  0  0  0  0  0
  -20.9450  -27.7700   22.7620 C   0  0  0  0  0  3  0  0  0  0  0  0
  -21.1630  -26.4100   22.0570 C   0  0  0  0  0  2  0  0  0  0  0  0
  -20.0590  -26.0650   21.0550 C   0  0  0  0  0  2  0  0  0  0  0  0
  -18.6940  -26.0210   21.7480 C   0  0  0  0  0  2  0  0  0  0  0  0
  -19.4710  -28.1170   23.0040 C   0  0  0  0  0  0  0  0  0  0  0  0
  -19.1540  -29.3020   23.7020 C   0  0  0  0  0  3  0  0  0  0  0  0
  -17.8150  -29.6510   23.9550 C   0  0  0  0  0  3  0  0  0  0  0  0
  -16.7750  -28.8160   23.5110 C   0  0  0  0  0  3  0  0  0  0  0  0
  -17.0740  -27.6400   22.8030 C   0  0  0  0  0  3  0  0  0  0  0  0
  -25.8720  -32.3490   23.6000 C   0  0  0  0  0  3  0  0  0  0  0  0
  -25.4660  -33.6880   24.0450 N   0  0  0  0  0  0  0  0  0  0  0  0
  -25.7080  -34.8230   23.3770 C   0  0  0  0  0  0  0  0  0  0  0  0
  -26.3670  -34.8560   22.3340 O   0  0  0  0  0  0  0  0  0  0  0  0
  -24.8820  -33.7300   24.8670 H   0  0  0  0  0  0  0  0  0  0  0  0
  -23.8560  -36.5130   23.1760 C   0  0  0  0  0  1  0  0  0  0  0  0
  -25.1200  -36.1220   23.9550 C   0  0  0  0  0  3  0  0  0  0  0  0
  -27.1810  -37.0760   24.8780 C   0  0  0  0  0  1  0  0  0  0  0  0
  -26.0700  -37.2540   23.9510 N   0  0  0  0  0  0  0  0  0  0  0  0
  -25.5930  -38.1190   24.1940 H   0  0  0  0  0  0  0  0  0  0  0  0
  -26.5030  -31.5340   24.7940 C   0  0  1  0  0  0  0  0  0  0  0  0
  -25.4790  -31.1090   25.8700 C   0  0  0  0  0  1  0  0  0  0  0  0
  -27.1980  -30.2530   24.2720 C   0  0  0  0  0  1  0  0  0  0  0  0
  -27.5840  -32.3850   25.4960 C   0  0  0  0  0  1  0  0  0  0  0  0
  1 50  1  0
  1  3  1  0
  2  1  1  0
  4 10  1  0
  5 10  1  0
  6  7  1  0
  6  5  1  0
  8  7  1  0
  8 19  1  0
  8  9  1  0
 10  9  1  0
 11  4  2  0
 12 13  1  0
 12 15  1  0
 13  1  1  0
 13 14  1  0
 14 44  1  0
 15  4  1  0
 15 14  1  0
 16 17  2  0
 17 36  1  0
 18 21  1  0
 18 17  1  0
 19 20  1  0
 19 16  1  0
 20 18  2  0
 21 22  1  0
 22 23  2  0
 24 23  1  0
 25 24  2  0
 26 25  1  0
 26 21  2  0
 27 24  1  0
 27 28  1  0
 28 33  2  0
 28 29  1  0
 29 30  2  0
 30 31  1  0
 31 35  1  0
 32 31  2  0
 33 32  1  0
 34 33  1  0
 36 37  1  0
 37 40  1  0
 37 39  1  0
 38 36  2  0
 41 16  1  0
 41 42  1  0
 43 41  1  0
 44 45  1  0
 45 49  1  0
 49 47  1  6
 49 48  1  0
 49 46  1  0
 51 50  1  0
 52 53  1  0
 52 51  1  0
 54 55  1  0
 54 53  1  0
 55 57  1  0
 56 67  2  0
 57 62  1  0
 58 66  1  0
 58 68  1  0
 59 65  1  0
 59 61  1  0
 60 66  1  0
 61 60  1  0
 62 61  2  0
 63 64  1  0
 63 57  2  0
 64 59  2  0
 65 58  1  0
 66 56  1  0
 68 70  2  0
 69 68  1  0
 71 69  1  0
 72 81  2  0
 72 77  1  0
 73 69  1  0
 73 77  1  0
 74 73  1  0
 75 76  1  0
 75 74  1  0
 76 72  1  0
 77 78  2  0
 78 79  1  0
 80 79  2  0
 81 80  1  0
 82 56  1  0
 82 83  1  0
 82 92  1  0
 83 86  1  0
 84 88  1  0
 84 83  1  0
 85 84  2  0
 88 87  1  0
 90 88  1  0
 90 91  1  0
 90 89  1  0
 92 95  1  1
 92 93  1  0
 94 92  1  0
M  ISO  4   4 100  15 100  54 101  55 101
M  END
>  <TORSDO>  (63) 
F 24

>  <SCORE>  (63) 
3.030

>  <name>  (63) 
63

>  <ligand_id>  (63) 
63

>  <original_smiles>  (63) 
[H]c1c([H])c([H])c2c(c1[H])C([H])([H])C([H])([H])C([H])([H])C2([H])N([H])C(=O)C1([H])N(C(=O)C([H])(N([H])C(=O)C([H])(N([H])C([H])([H])[H])C([H])([H])[H])C(C([H])([H])[H])(C([H])([H])[H])C([H])([H])[H])C([H])([H])c2c([H])c(OC([H])([H])C([H])([H])C([H])([H])C([H])([H])C([H])([H])[N+]([H])([H])C3([H])C([H])([H])N(C(=O)N4C([H])([H])C([H])([H])C([H])([H])C([H])(n5nc(-c6c([H])c([H])c(Oc7c([H])c([H])c(F)c([H])c7F)c([H])c6[H])c(C(=O)N([H])[H])c5N([H])[H])C4([H])[H])C3([H])C([H])([H])C([H])([H])C(C([H])([H])[H])(C([H])([H])[H])C([H])([H])[H])c([H])c([H])c2C1([H])[H]

>  <smiles>  (63) 
[H]c1c([H])c([H])c2c(c1[H])C([H])([H])C([H])([H])C([H])([H])C2([H])N([H])C(=O)C1([H])N(C(=O)C([H])(N([H])C(=O)C([H])(N([H])C([H])([H])[H])C([H])([H])[H])C(C([H])([H])[H])(C([H])([H])[H])C([H])([H])[H])C([H])([H])c2c([H])c(OC([H])([H])C([H])([H])C([H])([H])C([H])([H])C([H])([H])[N+]([H])([H])C3([H])C([H])([H])N(C(=O)N4C([H])([H])C([H])([H])C([H])([H])C([H])(n5nc(-c6c([H])c([H])c(Oc7c([H])c([H])c(F)c([H])c7F)c([H])c6[H])c(C(=O)N([H])[H])c5N([H])[H])C4([H])[H])C3([H])C([H])([H])C([H])([H])C(C([H])([H])[H])(C([H])([H])[H])C([H])([H])[H])c([H])c([H])c2C1([H])[H]

$$$$
64:0:0
     RDKit          3D

 89 97  0  0  1  0  0  0  0  0999 V2000
  -28.8650  -20.5050   19.5790 C   0  0  0  0  0  2  0  0  0  0  0  0
  -30.0040  -20.5570   21.8230 C   0  0  0  0  0  2  0  0  0  0  0  0
  -29.1500  -22.0230   19.4050 C   0  0  0  0  0  2  0  0  0  0  0  0
  -30.2890  -22.0700   21.6200 C   0  0  0  0  0  2  0  0  0  0  0  0
  -29.8830  -19.7650   20.4940 C   0  0  0  0  0  3  0  0  0  0  0  0
  -29.2160  -22.7760   20.7550 C   0  0  0  0  0  3  0  0  0  0  0  0
  -29.4780  -18.2780   20.7450 C   0  0  0  0  0  0  0  0  0  0  0  0
  -28.3280  -18.0090   21.1020 O   0  0  0  0  0  0  0  0  0  0  0  0
  -30.5240  -17.1470   20.5590 C   0  0  0  0  0  2  0  0  0  0  0  0
  -30.0640  -15.7120   21.0150 C   0  0  0  0  0  2  0  0  0  0  0  0
  -30.7310  -14.5150   20.2780 C   0  0  0  0  0  0  0  0  0  0  0  0
  -30.4020  -12.3750   19.0670 C   0  0  0  0  0  2  0  0  0  0  0  0
  -29.4210  -12.6060   17.8970 C   0  0  0  0  0  2  0  0  0  0  0  0
  -27.9590  -12.4640   18.3690 C   0  0  0  0  0  2  0  0  0  0  0  0
  -27.6690  -13.2730   19.6620 C   0  0  0  0  0  3  0  0  0  0  0  0
  -28.7570  -13.0180   20.7290 C   0  0  0  0  0  2  0  0  0  0  0  0
  -30.0620  -13.3340   20.1310 N   0  0  0  0  0  0  0  0  0  0  0  0
  -31.8350  -14.6980   19.7560 O   0  0  0  0  0  0  0  0  0  0  0  0
  -25.2940  -13.8890   20.4370 C   0  0  0  0  0  0  0  0  0  0  0  0
  -24.2310  -13.1200   20.8280 C   0  0  0  0  0  0  0  0  0  0  0  0
  -24.6840  -11.7660   20.7770 C   0  0  0  0  0  0  0  0  0  0  0  0
  -26.3280  -13.0020   20.1750 N   0  0  0  0  0  0  0  0  0  0  0  0
  -25.9660  -11.7200   20.4370 N   0  0  0  0  0  0  0  0  0  0  0  0
  -23.9550  -10.5070   20.9800 C   0  0  0  0  0  0  0  0  0  0  0  0
  -24.4000   -9.5370   21.9060 C   0  0  0  0  0  3  0  0  0  0  0  0
  -23.6730   -8.3420   22.0950 C   0  0  0  0  0  3  0  0  0  0  0  0
  -22.4880   -8.1080   21.3590 C   0  0  0  0  0  0  0  0  0  0  0  0
  -22.0620   -9.0660   20.4220 C   0  0  0  0  0  3  0  0  0  0  0  0
  -22.7890  -10.2530   20.2310 C   0  0  0  0  0  3  0  0  0  0  0  0
  -21.7310   -6.9650   21.4590 O   0  0  0  0  0  0  0  0  0  0  0  0
  -21.6850   -6.2320   22.6170 C   0  0  0  0  0  0  0  0  0  0  0  0
  -21.2700   -6.7980   23.8420 C   0  0  0  0  0  3  0  0  0  0  0  0
  -21.1710   -5.9910   24.9930 C   0  0  0  0  0  3  0  0  0  0  0  0
  -21.4750   -4.6180   24.9200 C   0  0  0  0  0  0  0  0  0  0  0  0
  -21.8830   -4.0520   23.6990 C   0  0  0  0  0  3  0  0  0  0  0  0
  -21.9840   -4.8570   22.5500 C   0  0  0  0  0  0  0  0  0  0  0  0
  -22.3560   -4.3010   21.3720 F   0  0  0  0  0  0  0  0  0  0  0  0
  -21.3730   -3.8400   26.0220 F   0  0  0  0  0  0  0  0  0  0  0  0
  -22.8430  -13.6030   21.1400 C   0  0  0  0  0  0  0  0  0  0  0  0
  -22.1360  -12.9050   22.0230 N   0  0  0  0  0  0  0  0  0  0  0  0
  -22.3960  -14.6330   20.6390 O   0  0  0  0  0  0  0  0  0  0  0  0
  -22.5130  -12.0710   22.4510 H   0  0  0  0  0  0  0  0  0  0  0  0
  -21.2070  -13.2090   22.2750 H   0  0  0  0  0  0  0  0  0  0  0  0
  -25.4650  -15.2600   20.2650 N   0  0  0  0  0  0  0  0  0  0  0  0
  -24.7140  -15.9250   20.4160 H   0  0  0  0  0  0  0  0  0  0  0  0
  -26.3270  -15.7000   19.9710 H   0  0  0  0  0  0  0  0  0  0  0  0
  -29.4560  -24.3240   20.6300 C   0  0  0  0  0  2  0  0  0  0  0  0
  -28.2490  -25.1640   20.1180 C   0  0  0  0  0  2  0  0  0  0  0  0
  -28.4120  -26.6020   20.2400 O   0  0  0  0  0  0  0  0  0  0  0  0
  -24.6230  -31.8660   23.2510 C   0  0  0  0  0  0  0  0  0  0  0  0
  -27.2570  -27.3750   20.1920 C   0  0  0  0  0  0  0  0  0  0  0  0
  -23.4200  -30.4690   21.6060 C   0  0  0  0  0  3  0  0  0  0  0  0
  -24.8730  -28.9260   20.1820 C   0  0  0  0  0  0  0  0  0  0  0  0
  -25.9530  -30.8080   21.4210 C   0  0  0  0  0  2  0  0  0  0  0  0
  -26.0350  -29.4350   20.7760 C   0  0  0  0  0  0  0  0  0  0  0  0
  -27.2300  -28.6700   20.7730 C   0  0  0  0  0  3  0  0  0  0  0  0
  -26.0710  -26.8970   19.5830 C   0  0  0  0  0  3  0  0  0  0  0  0
  -24.8890  -27.6580   19.5810 C   0  0  0  0  0  3  0  0  0  0  0  0
  -23.6340  -29.7920   20.2260 C   0  0  0  0  0  2  0  0  0  0  0  0
  -24.6830  -31.0630   22.1500 N   0  0  0  0  0  0  0  0  0  0  0  0
  -23.5400  -32.1440   23.7840 O   0  0  0  0  0  0  0  0  0  0  0  0
  -22.7590  -29.4490   22.5630 C   0  0  0  0  0  0  0  0  0  0  0  0
  -21.4360  -29.2670   22.4250 N   0  0  0  0  0  0  0  0  0  0  0  0
  -23.4350  -28.8260   23.3860 O   0  0  0  0  0  0  0  0  0  0  0  0
  -20.9510  -29.8250   21.7360 H   0  0  0  0  0  0  0  0  0  0  0  0
  -18.0580  -28.0630   22.8860 C   0  0  0  0  0  0  0  0  0  0  0  0
  -20.6120  -28.3310   23.1900 C   0  0  0  0  0  3  0  0  0  0  0  0
  -20.7250  -26.8970   22.6240 C   0  0  0  0  0  2  0  0  0  0  0  0
  -19.6390  -26.5640   21.5970 C   0  0  0  0  0  2  0  0  0  0  0  0
  -18.2480  -26.7100   22.2220 C   0  0  0  0  0  2  0  0  0  0  0  0
  -19.1680  -28.8320   23.3260 C   0  0  0  0  0  0  0  0  0  0  0  0
  -18.9400  -30.0980   23.9060 C   0  0  0  0  0  3  0  0  0  0  0  0
  -17.6310  -30.5970   24.0510 C   0  0  0  0  0  3  0  0  0  0  0  0
  -16.5350  -29.8270   23.6290 C   0  0  0  0  0  3  0  0  0  0  0  0
  -16.7490  -28.5630   23.0520 C   0  0  0  0  0  3  0  0  0  0  0  0
  -25.9090  -32.4930   23.8760 C   0  0  0  0  0  3  0  0  0  0  0  0
  -25.6030  -33.8910   24.2090 N   0  0  0  0  0  0  0  0  0  0  0  0
  -25.9270  -34.9430   23.4470 C   0  0  0  0  0  0  0  0  0  0  0  0
  -26.5890  -34.8400   22.4100 O   0  0  0  0  0  0  0  0  0  0  0  0
  -25.0170  -34.0440   25.0180 H   0  0  0  0  0  0  0  0  0  0  0  0
  -24.1880  -36.7290   23.1150 C   0  0  0  0  0  1  0  0  0  0  0  0
  -25.4430  -36.3300   23.9090 C   0  0  0  0  0  3  0  0  0  0  0  0
  -27.5870  -37.2240   24.7050 C   0  0  0  0  0  1  0  0  0  0  0  0
  -26.4710  -37.3870   23.7780 N   0  0  0  0  0  0  0  0  0  0  0  0
  -26.0640  -38.3060   23.9300 H   0  0  0  0  0  0  0  0  0  0  0  0
  -26.4230  -31.7150   25.1500 C   0  0  1  0  0  0  0  0  0  0  0  0
  -25.3290  -31.4760   26.2150 C   0  0  0  0  0  1  0  0  0  0  0  0
  -27.0040  -30.3400   24.7500 C   0  0  0  0  0  1  0  0  0  0  0  0
  -27.5750  -32.5050   25.8170 C   0  0  0  0  0  1  0  0  0  0  0  0
  1  5  1  0
  3  1  1  0
  3  6  1  0
  4  2  1  0
  5  7  1  0
  5  2  1  0
  6 47  1  0
  6  4  1  0
  7  8  2  0
  9  7  1  0
  9 10  1  0
 11 10  1  0
 12 17  1  0
 13 14  1  0
 13 12  1  0
 15 14  1  0
 15 22  1  0
 15 16  1  0
 17 11  1  0
 17 16  1  0
 18 11  2  0
 19 20  2  0
 20 39  1  0
 21 20  1  0
 21 24  1  0
 22 23  1  0
 22 19  1  0
 23 21  2  0
 24 25  1  0
 25 26  2  0
 27 30  1  0
 27 26  1  0
 28 27  2  0
 29 28  1  0
 29 24  2  0
 30 31  1  0
 31 32  1  0
 32 33  2  0
 34 33  1  0
 34 38  1  0
 35 34  2  0
 36 31  2  0
 36 35  1  0
 37 36  1  0
 39 40  1  0
 40 43  1  0
 40 42  1  0
 41 39  2  0
 44 45  1  0
 44 19  1  0
 46 44  1  0
 48 49  1  0
 48 47  1  0
 50 61  2  0
 51 49  1  0
 51 56  1  0
 52 60  1  0
 52 62  1  0
 53 59  1  0
 53 55  1  0
 54 60  1  0
 55 54  1  0
 56 55  2  0
 57 51  2  0
 58 57  1  0
 58 53  2  0
 59 52  1  0
 60 50  1  0
 62 64  2  0
 63 62  1  0
 65 63  1  0
 66 75  2  0
 66 71  1  0
 67 63  1  0
 67 71  1  0
 68 67  1  0
 69 70  1  0
 69 68  1  0
 70 66  1  0
 71 72  2  0
 72 73  1  0
 74 73  2  0
 75 74  1  0
 76 50  1  0
 76 77  1  0
 76 86  1  0
 77 80  1  0
 78 82  1  0
 78 77  1  0
 79 78  2  0
 82 81  1  0
 84 82  1  0
 84 85  1  0
 84 83  1  0
 86 89  1  1
 86 87  1  0
 88 86  1  0
M  ISO  4  10 100  11 100  48 101  49 101
M  END
>  <TORSDO>  (64) 
F 21

>  <SCORE>  (64) 
-13.280

>  <name>  (64) 
64

>  <ligand_id>  (64) 
64

>  <original_smiles>  (64) 
[H]c1c([H])c([H])c2c(c1[H])C([H])([H])C([H])([H])C([H])([H])C2([H])N([H])C(=O)C1([H])N(C(=O)C([H])(N([H])C(=O)C([H])(N([H])C([H])([H])[H])C([H])([H])[H])C(C([H])([H])[H])(C([H])([H])[H])C([H])([H])[H])C([H])([H])c2c([H])c(OC([H])([H])C([H])([H])C3([H])C([H])([H])C([H])([H])C([H])(C(=O)C([H])([H])C([H])([H])C(=O)N4C([H])([H])C([H])([H])C([H])([H])C([H])(n5nc(-c6c([H])c([H])c(Oc7c([H])c([H])c(F)c([H])c7F)c([H])c6[H])c(C(=O)N([H])[H])c5N([H])[H])C4([H])[H])C([H])([H])C3([H])[H])c([H])c([H])c2C1([H])[H]

>  <smiles>  (64) 
[H]c1c([H])c([H])c2c(c1[H])C([H])([H])C([H])([H])C([H])([H])C2([H])N([H])C(=O)C1([H])N(C(=O)C([H])(N([H])C(=O)C([H])(N([H])C([H])([H])[H])C([H])([H])[H])C(C([H])([H])[H])(C([H])([H])[H])C([H])([H])[H])C([H])([H])c2c([H])c(OC([H])([H])C([H])([H])C3([H])C([H])([H])C([H])([H])C([H])(C(=O)C([H])([H])C([H])([H])C(=O)N4C([H])([H])C([H])([H])C([H])([H])C([H])(n5nc(-c6c([H])c([H])c(Oc7c([H])c([H])c(F)c([H])c7F)c([H])c6[H])c(C(=O)N([H])[H])c5N([H])[H])C4([H])[H])C([H])([H])C3([H])[H])c([H])c([H])c2C1([H])[H]

$$$$
65:0:0
     RDKit          3D

 88 95  0  0  1  0  0  0  0  0999 V2000
  -29.4320  -20.5080   20.5190 C   0  0  0  0  0  3  0  0  0  0  0  0
  -29.0740  -18.9180   20.2500 C   0  0  0  0  0  0  0  0  0  0  0  0
  -28.0550  -18.6830   19.5960 O   0  0  0  0  0  0  0  0  0  0  0  0
  -29.9850  -17.6220   20.8140 C   0  0  0  0  0  3  0  0  0  0  0  0
  -30.3300  -14.9670   20.2530 C   0  0  0  0  0  0  0  0  0  0  0  0
  -30.1680  -12.6900   19.1660 C   0  0  0  0  0  2  0  0  0  0  0  0
  -29.1830  -12.7270   17.9760 C   0  0  0  0  0  2  0  0  0  0  0  0
  -27.7400  -12.4820   18.4570 C   0  0  0  0  0  2  0  0  0  0  0  0
  -27.3800  -13.3260   19.7090 C   0  0  0  0  0  3  0  0  0  0  0  0
  -28.4830  -13.2720   20.7860 C   0  0  0  0  0  2  0  0  0  0  0  0
  -29.7270  -13.7200   20.1470 N   0  0  0  0  0  0  0  0  0  0  0  0
  -31.5120  -15.0600   19.9070 O   0  0  0  0  0  0  0  0  0  0  0  0
  -29.5780  -16.1210   20.5750 N   0  0  0  0  0  0  0  0  0  0  0  0
  -28.5970  -15.9430   20.7290 H   0  0  0  0  0  0  0  0  0  0  0  0
  -25.0110  -13.8240   20.5410 C   0  0  0  0  0  0  0  0  0  0  0  0
  -23.9810  -13.0120   20.9290 C   0  0  0  0  0  0  0  0  0  0  0  0
  -24.4810  -11.6760   20.8510 C   0  0  0  0  0  0  0  0  0  0  0  0
  -26.0690  -12.9800   20.2440 N   0  0  0  0  0  0  0  0  0  0  0  0
  -25.7610  -11.6820   20.4970 N   0  0  0  0  0  0  0  0  0  0  0  0
  -23.7950  -10.3900   21.0360 C   0  0  0  0  0  0  0  0  0  0  0  0
  -24.2700   -9.4230   21.9490 C   0  0  0  0  0  3  0  0  0  0  0  0
  -23.5810   -8.2030   22.1240 C   0  0  0  0  0  3  0  0  0  0  0  0
  -22.4030   -7.9410   21.3850 C   0  0  0  0  0  0  0  0  0  0  0  0
  -21.9480   -8.8970   20.4600 C   0  0  0  0  0  3  0  0  0  0  0  0
  -22.6370  -10.1080   20.2830 C   0  0  0  0  0  3  0  0  0  0  0  0
  -21.6820   -6.7750   21.4700 O   0  0  0  0  0  0  0  0  0  0  0  0
  -21.6710   -6.0170   22.6140 C   0  0  0  0  0  0  0  0  0  0  0  0
  -21.2370   -6.5420   23.8510 C   0  0  0  0  0  3  0  0  0  0  0  0
  -21.1750   -5.7090   24.9860 C   0  0  0  0  0  3  0  0  0  0  0  0
  -21.5380   -4.3520   24.8860 C   0  0  0  0  0  0  0  0  0  0  0  0
  -21.9650   -3.8270   23.6530 C   0  0  0  0  0  3  0  0  0  0  0  0
  -22.0280   -4.6570   22.5210 C   0  0  0  0  0  0  0  0  0  0  0  0
  -22.4200   -4.1400   21.3300 F   0  0  0  0  0  0  0  0  0  0  0  0
  -21.4720   -3.5500   25.9740 F   0  0  0  0  0  0  0  0  0  0  0  0
  -22.5820  -13.4440   21.2540 C   0  0  0  0  0  0  0  0  0  0  0  0
  -21.9000  -12.7090   22.1250 N   0  0  0  0  0  0  0  0  0  0  0  0
  -22.1020  -14.4700   20.7720 O   0  0  0  0  0  0  0  0  0  0  0  0
  -22.3030  -11.8820   22.5380 H   0  0  0  0  0  0  0  0  0  0  0  0
  -20.9620  -12.9810   22.3850 H   0  0  0  0  0  0  0  0  0  0  0  0
  -25.1290  -15.2020   20.3880 N   0  0  0  0  0  0  0  0  0  0  0  0
  -24.3420  -15.8260   20.5330 H   0  0  0  0  0  0  0  0  0  0  0  0
  -25.9370  -15.6740   20.0040 H   0  0  0  0  0  0  0  0  0  0  0  0
  -31.2990  -16.8810   22.9510 C   0  0  0  0  0  1  0  0  0  0  0  0
  -30.2700  -17.8330   22.3230 C   0  0  0  0  0  2  0  0  0  0  0  0
  -28.4960  -21.8300   20.0810 C   0  0  0  0  0  3  0  0  0  0  0  0
  -28.8600  -23.4410   20.4020 C   0  0  0  0  0  3  0  0  0  0  0  0
  -27.8910  -24.7500   20.0090 C   0  0  0  0  0  3  0  0  0  0  0  0
  -28.1680  -26.2540   20.2560 O   0  0  0  0  0  0  0  0  0  0  0  0
  -24.5810  -31.9280   23.2450 C   0  0  0  0  0  0  0  0  0  0  0  0
  -27.1160  -27.2320   20.1840 C   0  0  0  0  0  0  0  0  0  0  0  0
  -23.3660  -30.5520   21.6020 C   0  0  0  0  0  3  0  0  0  0  0  0
  -24.7980  -28.9780   20.1640 C   0  0  0  0  0  0  0  0  0  0  0  0
  -25.9190  -30.8040   21.4310 C   0  0  0  0  0  2  0  0  0  0  0  0
  -25.9800  -29.4170   20.7720 C   0  0  0  0  0  0  0  0  0  0  0  0
  -27.1420  -28.5600   20.7660 C   0  0  0  0  0  3  0  0  0  0  0  0
  -25.9090  -26.8910   19.5350 C   0  0  0  0  0  3  0  0  0  0  0  0
  -24.7740  -27.7280   19.5290 C   0  0  0  0  0  3  0  0  0  0  0  0
  -23.5770  -29.8810   20.2180 C   0  0  0  0  0  2  0  0  0  0  0  0
  -24.6420  -31.1150   22.1470 N   0  0  0  0  0  0  0  0  0  0  0  0
  -23.4990  -32.2180   23.7780 O   0  0  0  0  0  0  0  0  0  0  0  0
  -22.6820  -29.5430   22.5580 C   0  0  0  0  0  0  0  0  0  0  0  0
  -21.3530  -29.3810   22.4320 N   0  0  0  0  0  0  0  0  0  0  0  0
  -23.3500  -28.9080   23.3790 O   0  0  0  0  0  0  0  0  0  0  0  0
  -20.8700  -29.9460   21.7460 H   0  0  0  0  0  0  0  0  0  0  0  0
  -17.9620  -28.2110   22.9380 C   0  0  0  0  0  0  0  0  0  0  0  0
  -20.5240  -28.4490   23.2010 C   0  0  0  0  0  3  0  0  0  0  0  0
  -20.6110  -27.0180   22.6210 C   0  0  0  0  0  2  0  0  0  0  0  0
  -19.5050  -26.7100   21.6060 C   0  0  0  0  0  2  0  0  0  0  0  0
  -18.1250  -26.8640   22.2540 C   0  0  0  0  0  2  0  0  0  0  0  0
  -19.0890  -28.9620   23.3680 C   0  0  0  0  0  0  0  0  0  0  0  0
  -18.8810  -30.2220   23.9690 C   0  0  0  0  0  3  0  0  0  0  0  0
  -17.5800  -30.7330   24.1420 C   0  0  0  0  0  3  0  0  0  0  0  0
  -16.4690  -29.9790   23.7250 C   0  0  0  0  0  3  0  0  0  0  0  0
  -16.6610  -28.7200   23.1300 C   0  0  0  0  0  3  0  0  0  0  0  0
  -25.8670  -32.5490   23.8720 C   0  0  0  0  0  3  0  0  0  0  0  0
  -26.3680  -31.7750   25.1530 C   0  0  1  0  0  0  0  0  0  0  0  0
  -25.2670  -31.5510   26.2170 C   0  0  0  0  0  1  0  0  0  0  0  0
  -26.9370  -30.3880   24.7710 C   0  0  0  0  0  1  0  0  0  0  0  0
  -27.5240  -32.5570   25.8190 C   0  0  0  0  0  1  0  0  0  0  0  0
  -25.5690  -33.9510   24.2030 N   0  0  0  0  0  0  0  0  0  0  0  0
  -25.8970  -35.0030   23.4410 C   0  0  0  0  0  0  0  0  0  0  0  0
  -26.5480  -34.8940   22.3980 O   0  0  0  0  0  0  0  0  0  0  0  0
  -24.9890  -34.1100   25.0140 H   0  0  0  0  0  0  0  0  0  0  0  0
  -24.1680  -36.8050   23.1300 C   0  0  0  0  0  1  0  0  0  0  0  0
  -25.4300  -36.3970   23.9070 C   0  0  0  0  0  3  0  0  0  0  0  0
  -27.5900  -37.2800   24.6740 C   0  0  0  0  0  1  0  0  0  0  0  0
  -26.4640  -37.4450   23.7590 N   0  0  0  0  0  0  0  0  0  0  0  0
  -26.0650  -38.3680   23.9090 H   0  0  0  0  0  0  0  0  0  0  0  0
  2  1  1  0
  2  4  1  0
  3  2  2  0
  4 44  1  0
  5 13  1  0
  6 11  1  0
  7  8  1  0
  7  6  1  0
  9  8  1  0
  9 18  1  0
  9 10  1  0
 11  5  1  0
 11 10  1  0
 12  5  2  0
 13 14  1  0
 13  4  1  0
 15 16  2  0
 16 35  1  0
 17 16  1  0
 17 20  1  0
 18 19  1  0
 18 15  1  0
 19 17  2  0
 20 21  1  0
 21 22  2  0
 23 26  1  0
 23 22  1  0
 24 23  2  0
 25 24  1  0
 25 20  2  0
 26 27  1  0
 27 28  1  0
 28 29  2  0
 30 29  1  0
 30 34  1  0
 31 30  2  0
 32 27  2  0
 32 31  1  0
 33 32  1  0
 35 36  1  0
 36 39  1  0
 36 38  1  0
 37 35  2  0
 40 41  1  0
 40 15  1  0
 42 40  1  0
 44 43  1  0
 45 46  1  0
 45  1  2  0
 47 48  1  0
 47 46  2  0
 49 60  2  0
 50 48  1  0
 50 55  1  0
 51 59  1  0
 51 61  1  0
 52 58  1  0
 52 54  1  0
 53 59  1  0
 54 53  1  0
 55 54  2  0
 56 50  2  0
 57 56  1  0
 57 52  2  0
 58 51  1  0
 59 49  1  0
 61 63  2  0
 62 61  1  0
 64 62  1  0
 65 74  2  0
 65 70  1  0
 66 62  1  0
 66 70  1  0
 67 66  1  0
 68 69  1  0
 68 67  1  0
 69 65  1  0
 70 71  2  0
 71 72  1  0
 73 72  2  0
 74 73  1  0
 75 49  1  0
 75 80  1  0
 75 76  1  0
 76 79  1  1
 76 77  1  0
 78 76  1  0
 80 83  1  0
 81 85  1  0
 81 80  1  0
 82 81  2  0
 85 84  1  0
 87 85  1  0
 87 88  1  0
 87 86  1  0
M  ISO  4   5 100  13 100  47 101  48 101
M  END
>  <TORSDO>  (65) 
F 22

>  <SCORE>  (65) 
-12.209

>  <name>  (65) 
65

>  <ligand_id>  (65) 
65

>  <original_smiles>  (65) 
[H]c1c([H])c([H])c2c(c1[H])C([H])([H])C([H])([H])C([H])([H])C2([H])N([H])C(=O)C1([H])N(C(=O)C([H])(N([H])C(=O)C([H])(N([H])C([H])([H])[H])C([H])([H])[H])C(C([H])([H])[H])(C([H])([H])[H])C([H])([H])[H])C([H])([H])c2c([H])c(OC([H])([H])C([H])([H])C([H])([H])C([H])([H])C(=O)C([H])(N([H])C(=O)N3C([H])([H])C([H])([H])C([H])([H])C([H])(n4nc(-c5c([H])c([H])c(Oc6c([H])c([H])c(F)c([H])c6F)c([H])c5[H])c(C(=O)N([H])[H])c4N([H])[H])C3([H])[H])C([H])([H])C([H])([H])[H])c([H])c([H])c2C1([H])[H]

>  <smiles>  (65) 
[H]c1c([H])c([H])c2c(c1[H])C([H])([H])C([H])([H])C([H])([H])C2([H])N([H])C(=O)C1([H])N(C(=O)C([H])(N([H])C(=O)C([H])(N([H])C([H])([H])[H])C([H])([H])[H])C(C([H])([H])[H])(C([H])([H])[H])C([H])([H])[H])C([H])([H])c2c([H])c(OC([H])([H])C([H])([H])C([H])([H])C([H])([H])C(=O)C([H])(N([H])C(=O)N3C([H])([H])C([H])([H])C([H])([H])C([H])(n4nc(-c5c([H])c([H])c(Oc6c([H])c([H])c(F)c([H])c6F)c([H])c5[H])c(C(=O)N([H])[H])c4N([H])[H])C3([H])[H])C([H])([H])C([H])([H])[H])c([H])c([H])c2C1([H])[H]

$$$$
66:0:0
     RDKit          3D

 92100  0  0  1  0  0  0  0  0999 V2000
  -29.7810  -19.1710   20.4820 C   0  0  0  0  0  3  0  0  0  0  0  0
  -33.4120  -20.4620   20.0050 C   0  0  0  0  0  2  0  0  0  0  0  0
  -31.9140  -20.6330   19.7510 C   0  0  0  0  0  2  0  0  0  0  0  0
  -32.0830  -19.2500   21.6720 C   0  0  0  0  0  2  0  0  0  0  0  0
  -33.5120  -19.7300   21.3570 C   0  0  0  0  0  3  0  0  0  0  0  0
  -31.3200  -19.3580   20.3470 C   0  0  0  0  0  3  0  0  0  0  0  0
  -34.0850  -20.6110   22.4760 C   0  0  0  0  0  1  0  0  0  0  0  0
  -28.8830  -20.6420   20.1370 N   0  0  0  0  0  4  0  0  0  0  0  0
  -27.9800  -20.4380   20.5360 H   0  0  0  0  0  0  0  0  0  0  0  0
  -28.7360  -20.6000   19.1420 H   0  0  0  0  0  0  0  0  0  0  0  0
  -29.0670  -22.3560   20.4510 C   0  0  0  0  0  3  0  0  0  0  0  0
  -28.0210  -23.9420   20.2710 C   0  0  0  0  0  3  0  0  0  0  0  0
  -28.1890  -25.6670   20.4180 O   0  0  0  0  0  0  0  0  0  0  0  0
  -24.6540  -31.8990   23.2630 C   0  0  0  0  0  0  0  0  0  0  0  0
  -27.1980  -26.8420   20.3380 C   0  0  0  0  0  0  0  0  0  0  0  0
  -23.4710  -30.4940   21.6280 C   0  0  0  0  0  3  0  0  0  0  0  0
  -24.9240  -28.8390   20.2370 C   0  0  0  0  0  0  0  0  0  0  0  0
  -26.0480  -30.6450   21.5180 C   0  0  0  0  0  2  0  0  0  0  0  0
  -26.1120  -29.2120   20.8750 C   0  0  0  0  0  0  0  0  0  0  0  0
  -27.2340  -28.2390   20.8930 C   0  0  0  0  0  3  0  0  0  0  0  0
  -25.9740  -26.6590   19.6440 C   0  0  0  0  0  3  0  0  0  0  0  0
  -24.8900  -27.5870   19.5960 C   0  0  0  0  0  3  0  0  0  0  0  0
  -23.7140  -29.7870   20.2630 C   0  0  0  0  0  2  0  0  0  0  0  0
  -24.7470  -31.0450   22.1890 N   0  0  0  0  0  0  0  0  0  0  0  0
  -23.5610  -32.2040   23.7660 O   0  0  0  0  0  0  0  0  0  0  0  0
  -22.7500  -29.5220   22.6010 C   0  0  0  0  0  0  0  0  0  0  0  0
  -21.4180  -29.3650   22.4670 N   0  0  0  0  0  0  0  0  0  0  0  0
  -23.3990  -28.9050   23.4490 O   0  0  0  0  0  0  0  0  0  0  0  0
  -20.9430  -29.9170   21.7660 H   0  0  0  0  0  0  0  0  0  0  0  0
  -18.0250  -28.1720   22.9680 C   0  0  0  0  0  0  0  0  0  0  0  0
  -20.5840  -28.4390   23.2430 C   0  0  0  0  0  3  0  0  0  0  0  0
  -20.6850  -27.0000   22.6870 C   0  0  0  0  0  2  0  0  0  0  0  0
  -19.5900  -26.6690   21.6690 C   0  0  0  0  0  2  0  0  0  0  0  0
  -18.2030  -26.8190   22.3010 C   0  0  0  0  0  2  0  0  0  0  0  0
  -19.1400  -28.9390   23.3960 C   0  0  0  0  0  0  0  0  0  0  0  0
  -18.9150  -30.2030   23.9830 C   0  0  0  0  0  3  0  0  0  0  0  0
  -17.6080  -30.6990   24.1440 C   0  0  0  0  0  3  0  0  0  0  0  0
  -16.5060  -29.9310   23.7280 C   0  0  0  0  0  3  0  0  0  0  0  0
  -16.7160  -28.6690   23.1450 C   0  0  0  0  0  3  0  0  0  0  0  0
  -25.9190  -32.5480   23.9030 C   0  0  0  0  0  3  0  0  0  0  0  0
  -25.6050  -33.9560   24.2130 N   0  0  0  0  0  0  0  0  0  0  0  0
  -25.9450  -35.0070   23.4550 C   0  0  0  0  0  0  0  0  0  0  0  0
  -26.6130  -34.8930   22.4240 O   0  0  0  0  0  0  0  0  0  0  0  0
  -25.0130  -34.1170   25.0150 H   0  0  0  0  0  0  0  0  0  0  0  0
  -24.2270  -36.8170   23.1030 C   0  0  0  0  0  1  0  0  0  0  0  0
  -25.4720  -36.4060   23.9070 C   0  0  0  0  0  3  0  0  0  0  0  0
  -27.6130  -37.2940   24.7210 C   0  0  0  0  0  1  0  0  0  0  0  0
  -26.5090  -37.4520   23.7770 N   0  0  0  0  0  0  0  0  0  0  0  0
  -26.1080  -38.3760   23.9090 H   0  0  0  0  0  0  0  0  0  0  0  0
  -26.3980  -31.8040   25.2120 C   0  0  1  0  0  0  0  0  0  0  0  0
  -25.2780  -31.6030   26.2620 C   0  0  0  0  0  1  0  0  0  0  0  0
  -26.9790  -30.4110   24.8810 C   0  0  0  0  0  1  0  0  0  0  0  0
  -27.5390  -32.6050   25.8800 C   0  0  0  0  0  1  0  0  0  0  0  0
  -29.4990  -17.3280   20.0660 C   0  0  0  0  0  3  0  0  0  0  0  0
  -30.3430  -15.6600   20.1670 C   0  0  0  0  0  0  0  0  0  0  0  0
  -30.4590  -13.1240   19.3560 C   0  0  0  0  0  2  0  0  0  0  0  0
  -29.5420  -12.7640   18.1500 C   0  0  0  0  0  2  0  0  0  0  0  0
  -28.1120  -12.4220   18.6050 C   0  0  0  0  0  2  0  0  0  0  0  0
  -27.6200  -13.4000   19.6980 C   0  0  0  0  0  3  0  0  0  0  0  0
  -28.6760  -13.6510   20.7980 C   0  0  0  0  0  2  0  0  0  0  0  0
  -29.8540  -14.2820   20.1490 N   0  0  0  0  0  0  0  0  0  0  0  0
  -31.5780  -15.6030   20.0140 O   0  0  0  0  0  0  0  0  0  0  0  0
  -25.2530  -13.9080   20.5000 C   0  0  0  0  0  0  0  0  0  0  0  0
  -24.2060  -13.1210   20.8750 C   0  0  0  0  0  0  0  0  0  0  0  0
  -24.6870  -11.7770   20.8190 C   0  0  0  0  0  0  0  0  0  0  0  0
  -26.3070  -13.0530   20.2300 N   0  0  0  0  0  0  0  0  0  0  0  0
  -25.9770  -11.7590   20.4890 N   0  0  0  0  0  0  0  0  0  0  0  0
  -23.9690  -10.5100   21.0020 C   0  0  0  0  0  0  0  0  0  0  0  0
  -24.4050   -9.5340   21.9240 C   0  0  0  0  0  3  0  0  0  0  0  0
  -23.6780   -8.3350   22.0960 C   0  0  0  0  0  3  0  0  0  0  0  0
  -22.4980   -8.1070   21.3470 C   0  0  0  0  0  0  0  0  0  0  0  0
  -22.0820   -9.0710   20.4130 C   0  0  0  0  0  3  0  0  0  0  0  0
  -22.8110  -10.2600   20.2380 C   0  0  0  0  0  3  0  0  0  0  0  0
  -21.7430   -6.9620   21.4310 O   0  0  0  0  0  0  0  0  0  0  0  0
  -21.6910   -6.2160   22.5800 C   0  0  0  0  0  0  0  0  0  0  0  0
  -21.2350   -6.7590   23.8020 C   0  0  0  0  0  3  0  0  0  0  0  0
  -21.1340   -5.9390   24.9430 C   0  0  0  0  0  3  0  0  0  0  0  0
  -21.4780   -4.5750   24.8630 C   0  0  0  0  0  0  0  0  0  0  0  0
  -21.9270   -4.0320   23.6460 C   0  0  0  0  0  3  0  0  0  0  0  0
  -22.0310   -4.8500   22.5080 C   0  0  0  0  0  0  0  0  0  0  0  0
  -22.4440   -4.3160   21.3330 F   0  0  0  0  0  0  0  0  0  0  0  0
  -21.3730   -3.7840   25.9570 F   0  0  0  0  0  0  0  0  0  0  0  0
  -22.8100  -13.5910   21.1640 C   0  0  0  0  0  0  0  0  0  0  0  0
  -22.0950  -12.8850   22.0320 N   0  0  0  0  0  0  0  0  0  0  0  0
  -22.3650  -14.6210   20.6600 O   0  0  0  0  0  0  0  0  0  0  0  0
  -22.4690  -12.0540   22.4640 H   0  0  0  0  0  0  0  0  0  0  0  0
  -21.1600  -13.1840   22.2720 H   0  0  0  0  0  0  0  0  0  0  0  0
  -25.3760  -15.2800   20.3370 N   0  0  0  0  0  0  0  0  0  0  0  0
  -24.5930  -15.9070   20.4780 H   0  0  0  0  0  0  0  0  0  0  0  0
  -26.2040  -15.7560   20.0060 H   0  0  0  0  0  0  0  0  0  0  0  0
  -27.1360  -17.7040   19.1530 C   0  0  0  0  0  1  0  0  0  0  0  0
  -27.9940  -17.1670   20.3140 C   0  0  0  0  0  2  0  0  0  0  0  0
  1  8  1  0
  2  5  1  0
  3  2  1  0
  3  6  1  0
  5  4  1  0
  5  7  1  0
  6  1  1  0
  6  4  1  0
  8 11  1  0
  8  9  1  0
 10  8  1  0
 12 13  1  0
 12 11  2  0
 14 25  2  0
 15 13  1  0
 15 20  1  0
 16 24  1  0
 16 26  1  0
 17 23  1  0
 17 19  1  0
 18 24  1  0
 19 20  2  0
 19 18  1  0
 21 15  2  0
 22 21  1  0
 22 17  2  0
 23 16  1  0
 24 14  1  0
 26 28  2  0
 27 26  1  0
 29 27  1  0
 30 39  2  0
 30 35  1  0
 31 27  1  0
 31 35  1  0
 32 31  1  0
 33 34  1  0
 33 32  1  0
 34 30  1  0
 35 36  2  0
 36 37  1  0
 38 37  2  0
 39 38  1  0
 40 14  1  0
 40 41  1  0
 40 50  1  0
 41 44  1  0
 42 46  1  0
 42 41  1  0
 43 42  2  0
 46 45  1  0
 48 46  1  0
 48 49  1  0
 48 47  1  0
 50 53  1  1
 50 51  1  0
 52 50  1  0
 54 55  1  0
 54 92  1  0
 54  1  1  0
 56 61  1  0
 57 58  1  0
 57 56  1  0
 59 58  1  0
 59 66  1  0
 59 60  1  0
 61 55  1  0
 61 60  1  0
 62 55  2  0
 63 64  2  0
 64 83  1  0
 65 64  1  0
 65 68  1  0
 66 67  1  0
 66 63  1  0
 67 65  2  0
 68 69  1  0
 69 70  2  0
 71 74  1  0
 71 70  1  0
 72 71  2  0
 73 72  1  0
 73 68  2  0
 74 75  1  0
 75 76  1  0
 76 77  2  0
 78 77  1  0
 78 82  1  0
 79 78  2  0
 80 75  2  0
 80 79  1  0
 81 80  1  0
 83 84  1  0
 84 87  1  0
 84 86  1  0
 85 83  2  0
 88 89  1  0
 88 63  1  0
 90 88  1  0
 91 92  1  0
M  ISO  4  12 101  13 101  54 100  55 100
M  END
>  <TORSDO>  (66) 
F 22

>  <SCORE>  (66) 
-16.606

>  <name>  (66) 
66

>  <ligand_id>  (66) 
66

>  <original_smiles>  (66) 
[H]c1c([H])c([H])c2c(c1[H])C([H])([H])C([H])([H])C([H])([H])C2([H])N([H])C(=O)C1([H])N(C(=O)C([H])(N([H])C(=O)C([H])(N([H])C([H])([H])[H])C([H])([H])[H])C(C([H])([H])[H])(C([H])([H])[H])C([H])([H])[H])C([H])([H])c2c([H])c(OC([H])([H])C([H])([H])[N+]([H])([H])C([H])(C([H])(C(=O)N3C([H])([H])C([H])([H])C([H])([H])C([H])(n4nc(-c5c([H])c([H])c(Oc6c([H])c([H])c(F)c([H])c6F)c([H])c5[H])c(C(=O)N([H])[H])c4N([H])[H])C3([H])[H])C([H])([H])C([H])([H])[H])C3([H])C([H])([H])C([H])([H])C([H])(C([H])([H])[H])C3([H])[H])c([H])c([H])c2C1([H])[H]

>  <smiles>  (66) 
[H]c1c([H])c([H])c2c(c1[H])C([H])([H])C([H])([H])C([H])([H])C2([H])N([H])C(=O)C1([H])N(C(=O)C([H])(N([H])C(=O)C([H])(N([H])C([H])([H])[H])C([H])([H])[H])C(C([H])([H])[H])(C([H])([H])[H])C([H])([H])[H])C([H])([H])c2c([H])c(OC([H])([H])C([H])([H])[N+]([H])([H])C([H])(C([H])(C(=O)N3C([H])([H])C([H])([H])C([H])([H])C([H])(n4nc(-c5c([H])c([H])c(Oc6c([H])c([H])c(F)c([H])c6F)c([H])c5[H])c(C(=O)N([H])[H])c4N([H])[H])C3([H])[H])C([H])([H])C([H])([H])[H])C3([H])C([H])([H])C([H])([H])C([H])(C([H])([H])[H])C3([H])[H])c([H])c([H])c2C1([H])[H]

$$$$
67:0:0
     RDKit          3D

 97105  0  0  1  0  0  0  0  0999 V2000
  -31.6380  -20.7440   20.0920 C   0  0  0  0  0  2  0  0  0  0  0  0
  -30.7320  -21.9630   19.8160 C   0  0  0  0  0  2  0  0  0  0  0  0
  -29.4090  -20.6930   18.1330 C   0  0  0  0  0  2  0  0  0  0  0  0
  -31.6940  -19.7380   18.9130 C   0  0  0  0  0  3  0  0  0  0  0  0
  -30.8160  -20.2030   17.7070 C   0  0  0  0  0  3  0  0  0  0  0  0
  -29.3780  -21.5520   19.3550 N   0  0  1  0  0  4  0  0  0  0  0  0
  -28.9350  -22.4010   19.0400 H   0  0  0  0  0  0  0  0  0  0  0  0
  -32.0020  -18.9410   15.7460 C   0  0  0  0  0  1  0  0  0  0  0  0
  -30.7070  -19.1930   16.5360 C   0  0  0  0  0  2  0  0  0  0  0  0
  -31.5410  -18.2610   19.3820 C   0  0  0  0  0  2  0  0  0  0  0  0
  -30.2460  -17.9110   20.1580 C   0  0  0  0  0  2  0  0  0  0  0  0
  -30.7130  -14.4660   20.4970 C   0  0  0  0  0  0  0  0  0  0  0  0
  -30.3480  -12.3260   19.3520 C   0  0  0  0  0  2  0  0  0  0  0  0
  -29.4190  -12.5470   18.1420 C   0  0  0  0  0  2  0  0  0  0  0  0
  -27.9380  -12.4420   18.5600 C   0  0  0  0  0  2  0  0  0  0  0  0
  -27.6040  -13.2780   19.8260 C   0  0  0  0  0  3  0  0  0  0  0  0
  -28.6590  -13.0660   20.9340 C   0  0  0  0  0  2  0  0  0  0  0  0
  -29.9820  -13.3320   20.3540 N   0  0  0  0  0  0  0  0  0  0  0  0
  -31.8850  -14.5590   20.1270 O   0  0  0  0  0  0  0  0  0  0  0  0
  -29.7490  -16.4870   19.9090 C   0  0  0  0  0  0  0  0  0  0  0  0
  -30.0620  -15.5800   20.8490 N   0  0  0  0  0  0  0  0  0  0  0  0
  -29.1160  -16.2400   18.8770 O   0  0  0  0  0  0  0  0  0  0  0  0
  -30.5630  -16.0670   21.5780 H   0  0  0  0  0  0  0  0  0  0  0  0
  -25.2210  -13.9120   20.5490 C   0  0  0  0  0  0  0  0  0  0  0  0
  -24.1410  -13.1480   20.9110 C   0  0  0  0  0  0  0  0  0  0  0  0
  -24.5880  -11.7920   20.8790 C   0  0  0  0  0  0  0  0  0  0  0  0
  -26.2530  -13.0160   20.3140 N   0  0  0  0  0  0  0  0  0  0  0  0
  -25.8770  -11.7380   20.5770 N   0  0  0  0  0  0  0  0  0  0  0  0
  -23.8500  -10.5360   21.0680 C   0  0  0  0  0  0  0  0  0  0  0  0
  -24.2740   -9.5620   21.9990 C   0  0  0  0  0  3  0  0  0  0  0  0
  -23.5390   -8.3710   22.1700 C   0  0  0  0  0  3  0  0  0  0  0  0
  -22.3690   -8.1400   21.4090 C   0  0  0  0  0  0  0  0  0  0  0  0
  -21.9630   -9.1020   20.4690 C   0  0  0  0  0  3  0  0  0  0  0  0
  -22.6980  -10.2850   20.2950 C   0  0  0  0  0  3  0  0  0  0  0  0
  -21.6050   -7.0000   21.4930 O   0  0  0  0  0  0  0  0  0  0  0  0
  -21.5520   -6.2530   22.6410 C   0  0  0  0  0  0  0  0  0  0  0  0
  -21.1300   -6.8070   23.8690 C   0  0  0  0  0  3  0  0  0  0  0  0
  -21.0150   -5.9860   25.0090 C   0  0  0  0  0  3  0  0  0  0  0  0
  -21.3180   -4.6130   24.9260 C   0  0  0  0  0  0  0  0  0  0  0  0
  -21.7370   -4.0600   23.7030 C   0  0  0  0  0  3  0  0  0  0  0  0
  -21.8470   -4.8760   22.5640 C   0  0  0  0  0  0  0  0  0  0  0  0
  -22.2280   -4.3330   21.3820 F   0  0  0  0  0  0  0  0  0  0  0  0
  -21.2030   -3.8230   26.0200 F   0  0  0  0  0  0  0  0  0  0  0  0
  -22.7480  -13.6370   21.1770 C   0  0  0  0  0  0  0  0  0  0  0  0
  -22.0090  -12.9470   22.0410 N   0  0  0  0  0  0  0  0  0  0  0  0
  -22.3210  -14.6660   20.6540 O   0  0  0  0  0  0  0  0  0  0  0  0
  -22.3710  -12.1180   22.4900 H   0  0  0  0  0  0  0  0  0  0  0  0
  -21.0700  -13.2540   22.2560 H   0  0  0  0  0  0  0  0  0  0  0  0
  -25.4030  -15.2790   20.3720 N   0  0  0  0  0  0  0  0  0  0  0  0
  -24.6580  -15.9610   20.4700 H   0  0  0  0  0  0  0  0  0  0  0  0
  -26.2740  -15.6850   20.0540 H   0  0  0  0  0  0  0  0  0  0  0  0
  -28.5030  -21.0280   20.4490 C   0  0  0  0  0  2  0  0  0  0  0  0
  -27.4360  -22.0120   20.9600 C   0  0  0  0  0  2  0  0  0  0  0  0
  -27.9470  -23.3110   21.6120 C   0  0  0  0  0  2  0  0  0  0  0  0
  -28.1640  -24.4390   20.5880 C   0  0  0  0  0  2  0  0  0  0  0  0
  -28.4950  -25.8040   21.2070 C   0  0  0  0  0  2  0  0  0  0  0  0
  -28.4530  -26.8070   20.1920 O   0  0  0  0  0  0  0  0  0  0  0  0
  -24.5780  -31.8950   23.2410 C   0  0  0  0  0  0  0  0  0  0  0  0
  -27.2770  -27.5160   20.1690 C   0  0  0  0  0  0  0  0  0  0  0  0
  -23.3910  -30.4910   21.5800 C   0  0  0  0  0  3  0  0  0  0  0  0
  -24.8640  -28.9720   20.1610 C   0  0  0  0  0  0  0  0  0  0  0  0
  -25.9070  -30.8820   21.3940 C   0  0  0  0  0  2  0  0  0  0  0  0
  -26.0080  -29.5130   20.7600 C   0  0  0  0  0  0  0  0  0  0  0  0
  -27.2210  -28.7920   20.7650 C   0  0  0  0  0  3  0  0  0  0  0  0
  -26.1250  -26.9880   19.5490 C   0  0  0  0  0  3  0  0  0  0  0  0
  -24.9150  -27.7040   19.5530 C   0  0  0  0  0  3  0  0  0  0  0  0
  -23.6120  -29.8170   20.1980 C   0  0  0  0  0  2  0  0  0  0  0  0
  -24.6430  -31.1050   22.1310 N   0  0  0  0  0  0  0  0  0  0  0  0
  -23.4940  -32.1530   23.7800 O   0  0  0  0  0  0  0  0  0  0  0  0
  -22.7430  -29.4600   22.5320 C   0  0  0  0  0  0  0  0  0  0  0  0
  -21.4190  -29.2820   22.4080 N   0  0  0  0  0  0  0  0  0  0  0  0
  -23.4290  -28.8310   23.3430 O   0  0  0  0  0  0  0  0  0  0  0  0
  -20.9280  -29.8430   21.7270 H   0  0  0  0  0  0  0  0  0  0  0  0
  -18.0440  -28.0960   22.8960 C   0  0  0  0  0  0  0  0  0  0  0  0
  -20.6030  -28.3370   23.1680 C   0  0  0  0  0  3  0  0  0  0  0  0
  -20.6990  -26.9130   22.5730 C   0  0  0  0  0  2  0  0  0  0  0  0
  -19.5940  -26.6070   21.5570 C   0  0  0  0  0  2  0  0  0  0  0  0
  -18.2140  -26.7520   22.2070 C   0  0  0  0  0  2  0  0  0  0  0  0
  -19.1670  -28.8470   23.3340 C   0  0  0  0  0  0  0  0  0  0  0  0
  -18.9570  -30.1070   23.9390 C   0  0  0  0  0  3  0  0  0  0  0  0
  -17.6560  -30.6120   24.1150 C   0  0  0  0  0  3  0  0  0  0  0  0
  -16.5460  -29.8570   23.6950 C   0  0  0  0  0  3  0  0  0  0  0  0
  -16.7410  -28.6020   23.0900 C   0  0  0  0  0  3  0  0  0  0  0  0
  -25.8600  -32.5290   23.8690 C   0  0  0  0  0  3  0  0  0  0  0  0
  -25.5520  -33.9290   24.1880 N   0  0  0  0  0  0  0  0  0  0  0  0
  -25.8930  -34.9750   23.4230 C   0  0  0  0  0  0  0  0  0  0  0  0
  -26.5730  -34.8650   22.3980 O   0  0  0  0  0  0  0  0  0  0  0  0
  -24.9610  -34.0890   24.9890 H   0  0  0  0  0  0  0  0  0  0  0  0
  -24.1710  -36.7620   23.0260 C   0  0  0  0  0  1  0  0  0  0  0  0
  -25.3980  -36.3660   23.8640 C   0  0  0  0  0  3  0  0  0  0  0  0
  -27.5200  -37.2500   24.7240 C   0  0  0  0  0  1  0  0  0  0  0  0
  -26.4340  -37.4170   23.7620 N   0  0  0  0  0  0  0  0  0  0  0  0
  -26.0270  -38.3380   23.9040 H   0  0  0  0  0  0  0  0  0  0  0  0
  -26.3680  -31.7630   25.1520 C   0  0  1  0  0  0  0  0  0  0  0  0
  -25.2700  -31.5300   26.2130 C   0  0  0  0  0  1  0  0  0  0  0  0
  -26.9570  -30.3850   24.7680 C   0  0  0  0  0  1  0  0  0  0  0  0
  -27.5170  -32.5570   25.8190 C   0  0  0  0  0  1  0  0  0  0  0  0
  2  1  1  0
  3  6  1  0
  4 10  1  0
  4  1  1  0
  5  9  1  0
  5  3  1  0
  5  4  1  0
  6  2  1  0
  6 52  1  0
  6  7  1  6
  8  9  1  0
 10 11  1  0
 12 21  1  0
 13 18  1  0
 14 15  1  0
 14 13  1  0
 16 15  1  0
 16 27  1  0
 16 17  1  0
 18 12  1  0
 18 17  1  0
 19 12  2  0
 20 11  1  0
 20 21  1  0
 21 23  1  0
 22 20  2  0
 24 25  2  0
 25 44  1  0
 26 25  1  0
 26 29  1  0
 27 24  1  0
 27 28  1  0
 28 26  2  0
 29 30  1  0
 30 31  2  0
 32 35  1  0
 32 31  1  0
 33 32  2  0
 34 33  1  0
 34 29  2  0
 35 36  1  0
 36 37  1  0
 37 38  2  0
 39 38  1  0
 39 43  1  0
 40 39  2  0
 41 36  2  0
 41 40  1  0
 42 41  1  0
 44 45  1  0
 45 48  1  0
 45 47  1  0
 46 44  2  0
 49 50  1  0
 49 24  1  0
 51 49  1  0
 52 53  1  0
 53 54  1  0
 55 56  1  0
 55 54  1  0
 57 56  1  0
 58 69  2  0
 59 57  1  0
 59 64  1  0
 60 68  1  0
 60 70  1  0
 61 67  1  0
 61 63  1  0
 62 68  1  0
 63 64  2  0
 63 62  1  0
 65 66  1  0
 65 59  2  0
 66 61  2  0
 67 60  1  0
 68 58  1  0
 70 72  2  0
 71 70  1  0
 73 71  1  0
 74 83  2  0
 74 79  1  0
 75 71  1  0
 75 79  1  0
 76 75  1  0
 77 78  1  0
 77 76  1  0
 78 74  1  0
 79 80  2  0
 80 81  1  0
 82 81  2  0
 83 82  1  0
 84 58  1  0
 84 85  1  0
 84 94  1  0
 85 88  1  0
 86 90  1  0
 86 85  1  0
 87 86  2  0
 90 89  1  0
 92 90  1  0
 92 93  1  0
 92 91  1  0
 94 97  1  1
 94 95  1  0
 96 94  1  0
M  ISO  4  12 100  21 100  56 101  57 101
M  END
>  <TORSDO>  (67) 
F 24

>  <SCORE>  (67) 
-12.577

>  <name>  (67) 
67

>  <ligand_id>  (67) 
67

>  <original_smiles>  (67) 
[H]c1c([H])c([H])c2c(c1[H])C([H])([H])C([H])([H])C([H])([H])C2([H])N([H])C(=O)C1([H])N(C(=O)C([H])(N([H])C(=O)C([H])(N([H])C([H])([H])[H])C([H])([H])[H])C(C([H])([H])[H])(C([H])([H])[H])C([H])([H])[H])C([H])([H])c2c([H])c(OC([H])([H])C([H])([H])C([H])([H])C([H])([H])C([H])([H])[N+]3([H])C([H])([H])C([H])([H])C([H])(C([H])([H])C([H])([H])C(=O)N([H])C(=O)N4C([H])([H])C([H])([H])C([H])([H])C([H])(n5nc(-c6c([H])c([H])c(Oc7c([H])c([H])c(F)c([H])c7F)c([H])c6[H])c(C(=O)N([H])[H])c5N([H])[H])C4([H])[H])C([H])(C([H])([H])C([H])([H])[H])C3([H])[H])c([H])c([H])c2C1([H])[H]

>  <smiles>  (67) 
[H]c1c([H])c([H])c2c(c1[H])C([H])([H])C([H])([H])C([H])([H])C2([H])N([H])C(=O)C1([H])N(C(=O)C([H])(N([H])C(=O)C([H])(N([H])C([H])([H])[H])C([H])([H])[H])C(C([H])([H])[H])(C([H])([H])[H])C([H])([H])[H])C([H])([H])c2c([H])c(OC([H])([H])C([H])([H])C([H])([H])C([H])([H])C([H])([H])[N+]3([H])C([H])([H])C([H])([H])C([H])(C([H])([H])C([H])([H])C(=O)N([H])C(=O)N4C([H])([H])C([H])([H])C([H])([H])C([H])(n5nc(-c6c([H])c([H])c(Oc7c([H])c([H])c(F)c([H])c7F)c([H])c6[H])c(C(=O)N([H])[H])c5N([H])[H])C4([H])[H])C([H])(C([H])([H])C([H])([H])[H])C3([H])[H])c([H])c([H])c2C1([H])[H]

$$$$
68:0:0
     RDKit          3D

101109  0  0  1  0  0  0  0  0999 V2000
  -30.0890  -18.5530   20.0260 C   0  0  0  0  0  3  0  0  0  0  0  0
  -31.9880  -19.5660   18.5120 C   0  0  0  0  0  2  0  0  0  0  0  0
  -32.5000  -19.2340   20.8940 C   0  0  0  0  0  2  0  0  0  0  0  0
  -31.6160  -18.7090   19.7480 C   0  0  0  0  0  3  0  0  0  0  0  0
  -32.9760  -20.6480   18.9800 C   0  0  0  0  0  3  0  0  0  0  0  0
  -33.6590  -19.9790   20.1950 C   0  0  0  0  0  3  0  0  0  0  0  0
  -34.3520  -20.9210   21.0990 N   0  0  0  0  0  4  0  0  0  0  0  0
  -33.7340  -21.6240   21.4610 H   0  0  0  0  0  0  0  0  0  0  0  0
  -35.1160  -21.3820   20.6350 H   0  0  0  0  0  0  0  0  0  0  0  0
  -34.7440  -20.4230   21.8790 H   0  0  0  0  0  0  0  0  0  0  0  0
  -33.9170  -21.1240   17.8420 C   0  0  0  0  0  2  0  0  0  0  0  0
  -33.1890  -21.7990   16.7480 N   0  0  0  0  0  4  0  0  0  0  0  0
  -32.5370  -21.1790   16.3010 H   0  0  0  0  0  0  0  0  0  0  0  0
  -33.8420  -22.1060   16.0480 H   0  0  0  0  0  0  0  0  0  0  0  0
  -32.6930  -22.6080   17.0750 H   0  0  0  0  0  0  0  0  0  0  0  0
  -29.4220  -19.9090   20.6840 N   0  0  0  0  0  4  0  0  0  0  0  0
  -28.5480  -19.6080   21.0850 H   0  0  0  0  0  0  0  0  0  0  0  0
  -29.9970  -20.1290   21.4800 H   0  0  0  0  0  0  0  0  0  0  0  0
  -29.0700  -21.3480   19.9560 C   0  0  0  0  0  2  0  0  0  0  0  0
  -28.8820  -22.9660   20.6560 C   0  0  0  0  0  3  0  0  0  0  0  0
  -28.1370  -24.4520   20.0370 C   0  0  0  0  0  3  0  0  0  0  0  0
  -28.2390  -26.0230   20.4330 O   0  0  0  0  0  0  0  0  0  0  0  0
  -24.6210  -31.9360   23.2660 C   0  0  0  0  0  0  0  0  0  0  0  0
  -27.2050  -27.0720   20.3150 C   0  0  0  0  0  0  0  0  0  0  0  0
  -23.4330  -30.5200   21.6380 C   0  0  0  0  0  3  0  0  0  0  0  0
  -24.8910  -28.9050   20.2400 C   0  0  0  0  0  0  0  0  0  0  0  0
  -25.9970  -30.7410   21.5020 C   0  0  0  0  0  2  0  0  0  0  0  0
  -26.0700  -29.3310   20.8640 C   0  0  0  0  0  0  0  0  0  0  0  0
  -27.2180  -28.4310   20.8820 C   0  0  0  0  0  3  0  0  0  0  0  0
  -26.0000  -26.7840   19.6370 C   0  0  0  0  0  3  0  0  0  0  0  0
  -24.8770  -27.6500   19.6100 C   0  0  0  0  0  3  0  0  0  0  0  0
  -23.6670  -29.8170   20.2720 C   0  0  0  0  0  2  0  0  0  0  0  0
  -24.7040  -31.0920   22.1890 N   0  0  0  0  0  0  0  0  0  0  0  0
  -23.5290  -32.2330   23.7780 O   0  0  0  0  0  0  0  0  0  0  0  0
  -22.7350  -29.5350   22.6110 C   0  0  0  0  0  0  0  0  0  0  0  0
  -21.4070  -29.3640   22.4730 N   0  0  0  0  0  0  0  0  0  0  0  0
  -23.3950  -28.9270   23.4560 O   0  0  0  0  0  0  0  0  0  0  0  0
  -20.9300  -29.9050   21.7630 H   0  0  0  0  0  0  0  0  0  0  0  0
  -18.0230  -28.1610   22.9660 C   0  0  0  0  0  0  0  0  0  0  0  0
  -20.5790  -28.4390   23.2500 C   0  0  0  0  0  3  0  0  0  0  0  0
  -20.6910  -26.9980   22.7010 C   0  0  0  0  0  2  0  0  0  0  0  0
  -19.5990  -26.6570   21.6800 C   0  0  0  0  0  2  0  0  0  0  0  0
  -18.2110  -26.8040   22.3090 C   0  0  0  0  0  2  0  0  0  0  0  0
  -19.1350  -28.9350   23.3930 C   0  0  0  0  0  0  0  0  0  0  0  0
  -18.9040  -30.2020   23.9700 C   0  0  0  0  0  3  0  0  0  0  0  0
  -17.5940  -30.6970   24.1230 C   0  0  0  0  0  3  0  0  0  0  0  0
  -16.4980  -29.9230   23.7100 C   0  0  0  0  0  3  0  0  0  0  0  0
  -16.7130  -28.6560   23.1370 C   0  0  0  0  0  3  0  0  0  0  0  0
  -25.8910  -32.5820   23.8990 C   0  0  0  0  0  3  0  0  0  0  0  0
  -26.3850  -31.8330   25.1990 C   0  0  1  0  0  0  0  0  0  0  0  0
  -25.2720  -31.6120   26.2520 C   0  0  0  0  0  1  0  0  0  0  0  0
  -26.9750  -30.4480   24.8500 C   0  0  0  0  0  1  0  0  0  0  0  0
  -27.5260  -32.6370   25.8620 C   0  0  0  0  0  1  0  0  0  0  0  0
  -25.5740  -33.9860   24.2100 N   0  0  0  0  0  0  0  0  0  0  0  0
  -25.9130  -35.0350   23.4490 C   0  0  0  0  0  0  0  0  0  0  0  0
  -26.5840  -34.9200   22.4200 O   0  0  0  0  0  0  0  0  0  0  0  0
  -24.9730  -34.1460   25.0050 H   0  0  0  0  0  0  0  0  0  0  0  0
  -24.1920  -36.8360   23.0770 C   0  0  0  0  0  1  0  0  0  0  0  0
  -25.4290  -36.4300   23.8940 C   0  0  0  0  0  3  0  0  0  0  0  0
  -27.5600  -37.3200   24.7300 C   0  0  0  0  0  1  0  0  0  0  0  0
  -26.4670  -37.4790   23.7760 N   0  0  0  0  0  0  0  0  0  0  0  0
  -26.0620  -38.4030   23.9030 H   0  0  0  0  0  0  0  0  0  0  0  0
  -29.6260  -16.8240   20.2060 C   0  0  0  0  0  3  0  0  0  0  0  0
  -30.4780  -15.2890   20.2480 C   0  0  0  0  0  0  0  0  0  0  0  0
  -30.4040  -12.8680   19.3590 C   0  0  0  0  0  2  0  0  0  0  0  0
  -29.4510  -12.7650   18.1380 C   0  0  0  0  0  2  0  0  0  0  0  0
  -28.0010  -12.4920   18.5870 C   0  0  0  0  0  2  0  0  0  0  0  0
  -27.5800  -13.3790   19.7860 C   0  0  0  0  0  3  0  0  0  0  0  0
  -28.6730  -13.4900   20.8750 C   0  0  0  0  0  2  0  0  0  0  0  0
  -29.9160  -13.9790   20.2440 N   0  0  0  0  0  0  0  0  0  0  0  0
  -31.7010  -15.2760   20.0550 O   0  0  0  0  0  0  0  0  0  0  0  0
  -25.2170  -13.9110   20.5700 C   0  0  0  0  0  0  0  0  0  0  0  0
  -24.1640  -13.1260   20.9400 C   0  0  0  0  0  0  0  0  0  0  0  0
  -24.6440  -11.7820   20.8920 C   0  0  0  0  0  0  0  0  0  0  0  0
  -26.2660  -13.0470   20.3110 N   0  0  0  0  0  0  0  0  0  0  0  0
  -25.9340  -11.7580   20.5690 N   0  0  0  0  0  0  0  0  0  0  0  0
  -23.9310  -10.5140   21.0720 C   0  0  0  0  0  0  0  0  0  0  0  0
  -24.3690   -9.5520   22.0070 C   0  0  0  0  0  3  0  0  0  0  0  0
  -23.6560   -8.3470   22.1770 C   0  0  0  0  0  3  0  0  0  0  0  0
  -22.4910   -8.0970   21.4140 C   0  0  0  0  0  0  0  0  0  0  0  0
  -22.0720   -9.0500   20.4700 C   0  0  0  0  0  3  0  0  0  0  0  0
  -22.7840  -10.2480   20.2980 C   0  0  0  0  0  3  0  0  0  0  0  0
  -21.7470   -6.9450   21.5000 O   0  0  0  0  0  0  0  0  0  0  0  0
  -21.6910   -6.2100   22.6560 C   0  0  0  0  0  0  0  0  0  0  0  0
  -21.2150   -6.7590   23.8670 C   0  0  0  0  0  3  0  0  0  0  0  0
  -21.1120   -5.9480   25.0150 C   0  0  0  0  0  3  0  0  0  0  0  0
  -21.4710   -4.5880   24.9530 C   0  0  0  0  0  0  0  0  0  0  0  0
  -21.9390   -4.0390   23.7470 C   0  0  0  0  0  3  0  0  0  0  0  0
  -22.0470   -4.8480   22.6020 C   0  0  0  0  0  0  0  0  0  0  0  0
  -22.4810   -4.3080   21.4360 F   0  0  0  0  0  0  0  0  0  0  0  0
  -21.3640   -3.8060   26.0520 F   0  0  0  0  0  0  0  0  0  0  0  0
  -22.7660  -13.5930   21.2180 C   0  0  0  0  0  0  0  0  0  0  0  0
  -22.0440  -12.8850   22.0770 N   0  0  0  0  0  0  0  0  0  0  0  0
  -22.3220  -14.6230   20.7090 O   0  0  0  0  0  0  0  0  0  0  0  0
  -22.4130  -12.0530   22.5130 H   0  0  0  0  0  0  0  0  0  0  0  0
  -21.1030  -13.1800   22.3000 H   0  0  0  0  0  0  0  0  0  0  0  0
  -25.3580  -15.2830   20.4100 N   0  0  0  0  0  0  0  0  0  0  0  0
  -24.5840  -15.9260   20.5240 H   0  0  0  0  0  0  0  0  0  0  0  0
  -26.1930  -15.7240   20.0490 H   0  0  0  0  0  0  0  0  0  0  0  0
  -27.3680  -17.3790   19.0210 C   0  0  0  0  0  1  0  0  0  0  0  0
  -28.7300  -16.6660   18.9350 C   0  0  0  0  0  2  0  0  0  0  0  0
  1 63  1  0
  1 16  1  0
  2  5  1  0
  2  4  1  0
  4  1  1  0
  4  3  1  0
  5 11  1  0
  5  6  1  0
  6  3  1  0
  6  7  1  0
  7  8  1  0
  7 10  1  0
  9  7  1  0
 12 15  1  0
 12 11  1  0
 13 12  1  0
 14 12  1  0
 16 17  1  0
 16 18  1  0
 19 20  1  0
 19 16  1  0
 21 22  1  0
 21 20  2  0
 23 34  2  0
 24 22  1  0
 24 29  1  0
 25 33  1  0
 25 35  1  0
 26 32  1  0
 26 28  1  0
 27 33  1  0
 28 29  2  0
 28 27  1  0
 30 24  2  0
 31 30  1  0
 31 26  2  0
 32 25  1  0
 33 23  1  0
 35 37  2  0
 36 35  1  0
 38 36  1  0
 39 48  2  0
 39 44  1  0
 40 36  1  0
 40 44  1  0
 41 40  1  0
 42 43  1  0
 42 41  1  0
 43 39  1  0
 44 45  2  0
 45 46  1  0
 47 46  2  0
 48 47  1  0
 49 23  1  0
 49 54  1  0
 49 50  1  0
 50 53  1  1
 50 51  1  0
 52 50  1  0
 54 57  1  0
 55 59  1  0
 55 54  1  0
 56 55  2  0
 59 58  1  0
 61 59  1  0
 61 62  1  0
 61 60  1  0
 63101  1  0
 63 64  1  0
 65 70  1  0
 66 67  1  0
 66 65  1  0
 68 67  1  0
 68 75  1  0
 68 69  1  0
 70 64  1  0
 70 69  1  0
 71 64  2  0
 72 73  2  0
 73 92  1  0
 74 73  1  0
 74 77  1  0
 75 76  1  0
 75 72  1  0
 76 74  2  0
 77 78  1  0
 78 79  2  0
 80 83  1  0
 80 79  1  0
 81 80  2  0
 82 81  1  0
 82 77  2  0
 83 84  1  0
 84 85  1  0
 85 86  2  0
 87 86  1  0
 87 91  1  0
 88 87  2  0
 89 84  2  0
 89 88  1  0
 90 89  1  0
 92 93  1  0
 93 96  1  0
 93 95  1  0
 94 92  2  0
 97 98  1  0
 97 72  1  0
 99 97  1  0
101100  1  0
M  ISO  4  21 101  22 101  63 100  64 100
M  END
>  <TORSDO>  (68) 
F 26

>  <SCORE>  (68) 
-14.281

>  <name>  (68) 
68

>  <ligand_id>  (68) 
68

>  <original_smiles>  (68) 
[H]c1c([H])c([H])c2c(c1[H])C([H])([H])C([H])([H])C([H])([H])C2([H])N([H])C(=O)C1([H])N(C(=O)C([H])(N([H])C(=O)C([H])(N([H])C([H])([H])[H])C([H])([H])[H])C(C([H])([H])[H])(C([H])([H])[H])C([H])([H])[H])C([H])([H])c2c([H])c(OC([H])([H])C([H])([H])C([H])([H])[N+]([H])([H])C([H])(C([H])(C(=O)N3C([H])([H])C([H])([H])C([H])([H])C([H])(n4nc(-c5c([H])c([H])c(Oc6c([H])c([H])c(F)c([H])c6F)c([H])c5[H])c(C(=O)N([H])[H])c4N([H])[H])C3([H])[H])C([H])([H])C([H])([H])[H])C3([H])C([H])([H])C([H])(C([H])([H])[N+]([H])([H])[H])C([H])([N+]([H])([H])[H])C3([H])[H])c([H])c([H])c2C1([H])[H]

>  <smiles>  (68) 
[H]c1c([H])c([H])c2c(c1[H])C([H])([H])C([H])([H])C([H])([H])C2([H])N([H])C(=O)C1([H])N(C(=O)C([H])(N([H])C(=O)C([H])(N([H])C([H])([H])[H])C([H])([H])[H])C(C([H])([H])[H])(C([H])([H])[H])C([H])([H])[H])C([H])([H])c2c([H])c(OC([H])([H])C([H])([H])C([H])([H])[N+]([H])([H])C([H])(C([H])(C(=O)N3C([H])([H])C([H])([H])C([H])([H])C([H])(n4nc(-c5c([H])c([H])c(Oc6c([H])c([H])c(F)c([H])c6F)c([H])c5[H])c(C(=O)N([H])[H])c4N([H])[H])C3([H])[H])C([H])([H])C([H])([H])[H])C3([H])C([H])([H])C([H])(C([H])([H])[N+]([H])([H])[H])C([H])([N+]([H])([H])[H])C3([H])[H])c([H])c([H])c2C1([H])[H]

$$$$
69:0:0
     RDKit          3D

 87 94  0  0  1  0  0  0  0  0999 V2000
  -28.6520  -21.3270   21.9950 C   0  0  0  0  0  1  0  0  0  0  0  0
  -29.4090  -21.4490   20.6630 C   0  0  0  0  0  3  0  0  0  0  0  0
  -29.0100  -23.0470   19.9630 C   0  0  0  0  0  2  0  0  0  0  0  0
  -28.3730  -24.5730   20.6350 C   0  0  0  0  0  2  0  0  0  0  0  0
  -28.4810  -26.1580   20.2780 O   0  0  0  0  0  0  0  0  0  0  0  0
  -24.7000  -31.9550   23.2450 C   0  0  0  0  0  0  0  0  0  0  0  0
  -27.4080  -27.1760   20.2820 C   0  0  0  0  0  0  0  0  0  0  0  0
  -23.5540  -30.5250   21.6010 C   0  0  0  0  0  3  0  0  0  0  0  0
  -25.0520  -28.9550   20.2020 C   0  0  0  0  0  0  0  0  0  0  0  0
  -26.1100  -30.8200   21.4620 C   0  0  0  0  0  2  0  0  0  0  0  0
  -26.2230  -29.4100   20.8210 C   0  0  0  0  0  0  0  0  0  0  0  0
  -27.3990  -28.5440   20.8320 C   0  0  0  0  0  3  0  0  0  0  0  0
  -26.2030  -26.8520   19.6230 C   0  0  0  0  0  3  0  0  0  0  0  0
  -25.0640  -27.6950   19.5810 C   0  0  0  0  0  3  0  0  0  0  0  0
  -23.8100  -29.8410   20.2290 C   0  0  0  0  0  2  0  0  0  0  0  0
  -24.8100  -31.1260   22.1580 N   0  0  0  0  0  0  0  0  0  0  0  0
  -23.6000  -32.2170   23.7600 O   0  0  0  0  0  0  0  0  0  0  0  0
  -22.8820  -29.5120   22.5640 C   0  0  0  0  0  0  0  0  0  0  0  0
  -21.5610  -29.2990   22.4190 N   0  0  0  0  0  0  0  0  0  0  0  0
  -23.5550  -28.9160   23.4080 O   0  0  0  0  0  0  0  0  0  0  0  0
  -21.0680  -29.8350   21.7180 H   0  0  0  0  0  0  0  0  0  0  0  0
  -18.2160  -27.9740   22.8700 C   0  0  0  0  0  0  0  0  0  0  0  0
  -20.7580  -28.3400   23.1840 C   0  0  0  0  0  3  0  0  0  0  0  0
  -20.9260  -26.9060   22.6300 C   0  0  0  0  0  2  0  0  0  0  0  0
  -19.8580  -26.5290   21.5970 C   0  0  0  0  0  2  0  0  0  0  0  0
  -18.4590  -26.6280   22.2110 C   0  0  0  0  0  2  0  0  0  0  0  0
  -19.2960  -28.7850   23.3120 C   0  0  0  0  0  0  0  0  0  0  0  0
  -19.0140  -30.0430   23.8890 C   0  0  0  0  0  3  0  0  0  0  0  0
  -17.6850  -30.4910   24.0270 C   0  0  0  0  0  3  0  0  0  0  0  0
  -16.6210  -29.6780   23.5990 C   0  0  0  0  0  3  0  0  0  0  0  0
  -16.8870  -28.4220   23.0260 C   0  0  0  0  0  3  0  0  0  0  0  0
  -25.9510  -32.6300   23.8860 C   0  0  0  0  0  3  0  0  0  0  0  0
  -25.6040  -34.0300   24.1920 N   0  0  0  0  0  0  0  0  0  0  0  0
  -25.9350  -35.0840   23.4350 C   0  0  0  0  0  0  0  0  0  0  0  0
  -26.6290  -34.9840   22.4190 O   0  0  0  0  0  0  0  0  0  0  0  0
  -24.9950  -34.1810   24.9830 H   0  0  0  0  0  0  0  0  0  0  0  0
  -24.1880  -36.8510   23.0340 C   0  0  0  0  0  1  0  0  0  0  0  0
  -25.4200  -36.4700   23.8720 C   0  0  0  0  0  3  0  0  0  0  0  0
  -27.5220  -37.3990   24.7420 C   0  0  0  0  0  1  0  0  0  0  0  0
  -26.4390  -37.5380   23.7710 N   0  0  0  0  0  0  0  0  0  0  0  0
  -26.0140  -38.4520   23.8990 H   0  0  0  0  0  0  0  0  0  0  0  0
  -26.4510  -31.8940   25.1900 C   0  0  1  0  0  0  0  0  0  0  0  0
  -25.3380  -31.6600   26.2370 C   0  0  0  0  0  1  0  0  0  0  0  0
  -27.0680  -30.5200   24.8430 C   0  0  0  0  0  1  0  0  0  0  0  0
  -27.5710  -32.7220   25.8620 C   0  0  0  0  0  1  0  0  0  0  0  0
  -29.5290  -19.8010   19.9660 C   0  0  0  0  0  3  0  0  0  0  0  0
  -27.3620  -20.2780   18.5820 C   0  0  0  0  0  1  0  0  0  0  0  0
  -28.1340  -19.3240   19.5070 C   0  0  0  0  0  2  0  0  0  0  0  0
  -30.3350  -18.3320   20.5820 C   0  0  0  0  0  2  0  0  0  0  0  0
  -30.7840  -15.4520   20.3010 C   0  0  0  0  0  0  0  0  0  0  0  0
  -30.7240  -13.0380   19.3780 C   0  0  0  0  0  2  0  0  0  0  0  0
  -29.8060  -12.8680   18.1430 C   0  0  0  0  0  2  0  0  0  0  0  0
  -28.3520  -12.6120   18.5770 C   0  0  0  0  0  2  0  0  0  0  0  0
  -27.9040  -13.5770   19.7020 C   0  0  0  0  0  3  0  0  0  0  0  0
  -28.9450  -13.6920   20.8350 C   0  0  0  0  0  2  0  0  0  0  0  0
  -30.1890  -14.1700   20.2140 N   0  0  0  0  0  0  0  0  0  0  0  0
  -32.0100  -15.4440   20.1260 O   0  0  0  0  0  0  0  0  0  0  0  0
  -30.0310  -16.7170   20.3840 N   0  0  0  0  0  0  0  0  0  0  0  0
  -29.0400  -16.5240   20.4090 H   0  0  0  0  0  0  0  0  0  0  0  0
  -25.5260  -14.1610   20.4190 C   0  0  0  0  0  0  0  0  0  0  0  0
  -24.4550  -13.3930   20.7810 C   0  0  0  0  0  0  0  0  0  0  0  0
  -24.9150  -12.0400   20.7690 C   0  0  0  0  0  0  0  0  0  0  0  0
  -26.5680  -13.2770   20.1990 N   0  0  0  0  0  0  0  0  0  0  0  0
  -26.2100  -11.9970   20.4790 N   0  0  0  0  0  0  0  0  0  0  0  0
  -24.1790  -10.7840   20.9590 C   0  0  0  0  0  0  0  0  0  0  0  0
  -24.5770   -9.8310   21.9220 C   0  0  0  0  0  3  0  0  0  0  0  0
  -23.8390   -8.6400   22.0990 C   0  0  0  0  0  3  0  0  0  0  0  0
  -22.6890   -8.3940   21.3130 C   0  0  0  0  0  0  0  0  0  0  0  0
  -22.3110   -9.3350   20.3400 C   0  0  0  0  0  3  0  0  0  0  0  0
  -23.0490  -10.5160   20.1610 C   0  0  0  0  0  3  0  0  0  0  0  0
  -21.9250   -7.2540   21.3970 O   0  0  0  0  0  0  0  0  0  0  0  0
  -21.8220   -6.5430   22.5660 C   0  0  0  0  0  0  0  0  0  0  0  0
  -21.3310   -7.1280   23.7540 C   0  0  0  0  0  3  0  0  0  0  0  0
  -21.1770   -6.3420   24.9140 C   0  0  0  0  0  3  0  0  0  0  0  0
  -21.5010   -4.9730   24.8860 C   0  0  0  0  0  0  0  0  0  0  0  0
  -21.9850   -4.3880   23.7030 C   0  0  0  0  0  3  0  0  0  0  0  0
  -22.1420   -5.1710   22.5450 C   0  0  0  0  0  0  0  0  0  0  0  0
  -22.5880   -4.5960   21.4010 F   0  0  0  0  0  0  0  0  0  0  0  0
  -21.3460   -4.2160   25.9970 F   0  0  0  0  0  0  0  0  0  0  0  0
  -23.0560  -13.8800   21.0210 C   0  0  0  0  0  0  0  0  0  0  0  0
  -22.3120  -13.2030   21.8890 N   0  0  0  0  0  0  0  0  0  0  0  0
  -22.6310  -14.8960   20.4730 O   0  0  0  0  0  0  0  0  0  0  0  0
  -22.6700  -12.3810   22.3530 H   0  0  0  0  0  0  0  0  0  0  0  0
  -21.3730  -13.5120   22.0930 H   0  0  0  0  0  0  0  0  0  0  0  0
  -25.6980  -15.5290   20.2280 N   0  0  0  0  0  0  0  0  0  0  0  0
  -24.9260  -16.1830   20.3080 H   0  0  0  0  0  0  0  0  0  0  0  0
  -26.5420  -15.9560   19.8730 H   0  0  0  0  0  0  0  0  0  0  0  0
  2  1  1  0
  3  4  1  0
  3  2  1  0
  5  7  1  0
  5  4  1  0
  6 17  2  0
  7 12  1  0
  8 16  1  0
  8 18  1  0
  9 15  1  0
  9 11  1  0
 10 16  1  0
 11 12  2  0
 11 10  1  0
 13  7  2  0
 14 13  1  0
 14  9  2  0
 15  8  1  0
 16  6  1  0
 18 20  2  0
 19 18  1  0
 21 19  1  0
 22 31  2  0
 22 27  1  0
 23 19  1  0
 23 27  1  0
 24 23  1  0
 25 26  1  0
 25 24  1  0
 26 22  1  0
 27 28  2  0
 28 29  1  0
 30 29  2  0
 31 30  1  0
 32  6  1  0
 32 33  1  0
 32 42  1  0
 33 36  1  0
 34 38  1  0
 34 33  1  0
 35 34  2  0
 38 37  1  0
 40 38  1  0
 40 41  1  0
 40 39  1  0
 42 45  1  1
 42 43  1  0
 44 42  1  0
 46 48  1  0
 46 49  1  0
 46  2  1  0
 47 48  1  0
 50 58  1  0
 51 56  1  0
 52 53  1  0
 52 51  1  0
 54 53  1  0
 54 63  1  0
 54 55  1  0
 56 50  1  0
 56 55  1  0
 57 50  2  0
 58 59  1  0
 58 49  1  0
 60 61  2  0
 61 80  1  0
 62 61  1  0
 62 65  1  0
 63 60  1  0
 63 64  1  0
 64 62  2  0
 65 66  1  0
 66 67  2  0
 68 71  1  0
 68 67  1  0
 69 68  2  0
 70 69  1  0
 70 65  2  0
 71 72  1  0
 72 73  1  0
 73 74  2  0
 75 74  1  0
 75 79  1  0
 76 75  2  0
 77 72  2  0
 77 76  1  0
 78 77  1  0
 80 81  1  0
 81 84  1  0
 81 83  1  0
 82 80  2  0
 85 86  1  0
 85 60  1  0
 87 85  1  0
M  ISO  4   4 101   5 101  50 100  58 100
M  END
>  <TORSDO>  (69) 
F 21

>  <SCORE>  (69) 
-15.194

>  <name>  (69) 
69

>  <ligand_id>  (69) 
69

>  <original_smiles>  (69) 
[H]c1c([H])c([H])c2c(c1[H])C([H])([H])C([H])([H])C([H])([H])C2([H])N([H])C(=O)C1([H])N(C(=O)C([H])(N([H])C(=O)C([H])(N([H])C([H])([H])[H])C([H])([H])[H])C(C([H])([H])[H])(C([H])([H])[H])C([H])([H])[H])C([H])([H])c2c([H])c(OC([H])([H])C([H])([H])C([H])(C([H])([H])[H])C([H])(C([H])([H])N([H])C(=O)N3C([H])([H])C([H])([H])C([H])([H])C([H])(n4nc(-c5c([H])c([H])c(Oc6c([H])c([H])c(F)c([H])c6F)c([H])c5[H])c(C(=O)N([H])[H])c4N([H])[H])C3([H])[H])C([H])([H])C([H])([H])[H])c([H])c([H])c2C1([H])[H]

>  <smiles>  (69) 
[H]c1c([H])c([H])c2c(c1[H])C([H])([H])C([H])([H])C([H])([H])C2([H])N([H])C(=O)C1([H])N(C(=O)C([H])(N([H])C(=O)C([H])(N([H])C([H])([H])[H])C([H])([H])[H])C(C([H])([H])[H])(C([H])([H])[H])C([H])([H])[H])C([H])([H])c2c([H])c(OC([H])([H])C([H])([H])C([H])(C([H])([H])[H])C([H])(C([H])([H])N([H])C(=O)N3C([H])([H])C([H])([H])C([H])([H])C([H])(n4nc(-c5c([H])c([H])c(Oc6c([H])c([H])c(F)c([H])c6F)c([H])c5[H])c(C(=O)N([H])[H])c4N([H])[H])C3([H])[H])C([H])([H])C([H])([H])[H])c([H])c([H])c2C1([H])[H]

$$$$
70:0:0
     RDKit          3D

 89 96  0  0  1  0  0  0  0  0999 V2000
  -28.8910  -22.5080   20.7980 C   0  0  0  0  0  2  0  0  0  0  0  0
  -28.7400  -21.0190   20.2510 C   0  0  0  0  0  0  0  0  0  0  0  0
  -27.7790  -20.6980   19.4940 N   0  0  0  0  0  0  0  0  0  0  0  0
  -27.1800  -21.4880   19.2800 H   0  0  0  0  0  0  0  0  0  0  0  0
  -29.7300  -19.8840   20.7290 C   0  0  0  0  0  2  0  0  0  0  0  0
  -29.2970  -18.3530   20.5000 C   0  0  0  0  0  3  0  0  0  0  0  0
  -30.3460  -17.1880   20.7960 C   0  0  0  0  0  3  0  0  0  0  0  0
  -30.6000  -14.6390   20.4220 C   0  0  0  0  0  0  0  0  0  0  0  0
  -30.3450  -12.4060   19.3630 C   0  0  0  0  0  2  0  0  0  0  0  0
  -29.4050  -12.5390   18.1470 C   0  0  0  0  0  2  0  0  0  0  0  0
  -27.9320  -12.3940   18.5770 C   0  0  0  0  0  2  0  0  0  0  0  0
  -27.5800  -13.2500   19.8240 C   0  0  0  0  0  3  0  0  0  0  0  0
  -28.6430  -13.1080   20.9360 C   0  0  0  0  0  2  0  0  0  0  0  0
  -29.9450  -13.4370   20.3420 N   0  0  0  0  0  0  0  0  0  0  0  0
  -31.7740  -14.7470   20.0610 O   0  0  0  0  0  0  0  0  0  0  0  0
  -29.8620  -15.7580   20.7240 N   0  0  0  0  0  0  0  0  0  0  0  0
  -28.8890  -15.6000   20.9410 H   0  0  0  0  0  0  0  0  0  0  0  0
  -25.1930  -13.8480   20.5560 C   0  0  0  0  0  0  0  0  0  0  0  0
  -24.1280  -13.0750   20.9280 C   0  0  0  0  0  0  0  0  0  0  0  0
  -24.5900  -11.7230   20.8950 C   0  0  0  0  0  0  0  0  0  0  0  0
  -26.2370  -12.9660   20.3150 N   0  0  0  0  0  0  0  0  0  0  0  0
  -25.8790  -11.6840   20.5800 N   0  0  0  0  0  0  0  0  0  0  0  0
  -23.8620  -10.4610   21.0870 C   0  0  0  0  0  0  0  0  0  0  0  0
  -24.3170   -9.4810   21.9980 C   0  0  0  0  0  3  0  0  0  0  0  0
  -23.5900   -8.2850   22.1800 C   0  0  0  0  0  3  0  0  0  0  0  0
  -22.3960   -8.0600   21.4530 C   0  0  0  0  0  0  0  0  0  0  0  0
  -21.9620   -9.0310   20.5320 C   0  0  0  0  0  3  0  0  0  0  0  0
  -22.6880  -10.2190   20.3480 C   0  0  0  0  0  3  0  0  0  0  0  0
  -21.6380   -6.9180   21.5450 O   0  0  0  0  0  0  0  0  0  0  0  0
  -21.6370   -6.1440   22.6780 C   0  0  0  0  0  0  0  0  0  0  0  0
  -21.2900   -6.6730   23.9410 C   0  0  0  0  0  3  0  0  0  0  0  0
  -21.2360   -5.8270   25.0670 C   0  0  0  0  0  3  0  0  0  0  0  0
  -21.5150   -4.4540   24.9300 C   0  0  0  0  0  0  0  0  0  0  0  0
  -21.8550   -3.9250   23.6740 C   0  0  0  0  0  3  0  0  0  0  0  0
  -21.9130   -4.7680   22.5500 C   0  0  0  0  0  0  0  0  0  0  0  0
  -22.2190   -4.2500   21.3370 F   0  0  0  0  0  0  0  0  0  0  0  0
  -21.4560   -3.6400   26.0100 F   0  0  0  0  0  0  0  0  0  0  0  0
  -22.7330  -13.5530   21.2030 C   0  0  0  0  0  0  0  0  0  0  0  0
  -22.0060  -12.8610   22.0750 N   0  0  0  0  0  0  0  0  0  0  0  0
  -22.2940  -14.5770   20.6790 O   0  0  0  0  0  0  0  0  0  0  0  0
  -22.3750  -12.0360   22.5230 H   0  0  0  0  0  0  0  0  0  0  0  0
  -21.0690  -13.1620   22.2950 H   0  0  0  0  0  0  0  0  0  0  0  0
  -25.3560  -15.2190   20.3850 N   0  0  0  0  0  0  0  0  0  0  0  0
  -24.5870  -15.8660   20.5280 H   0  0  0  0  0  0  0  0  0  0  0  0
  -26.2010  -15.6730   20.0650 H   0  0  0  0  0  0  0  0  0  0  0  0
  -27.7260  -23.6480   18.6930 C   0  0  0  0  0  1  0  0  0  0  0  0
  -28.6830  -23.8320   19.8870 C   0  0  0  0  0  3  0  0  0  0  0  0
  -28.2740  -25.1540   20.7020 C   0  0  0  0  0  2  0  0  0  0  0  0
  -28.3630  -26.5080   20.1070 O   0  0  0  0  0  0  0  0  0  0  0  0
  -24.6450  -31.8890   23.2240 C   0  0  0  0  0  0  0  0  0  0  0  0
  -27.2300  -27.3310   20.1490 C   0  0  0  0  0  0  0  0  0  0  0  0
  -23.4210  -30.4860   21.6010 C   0  0  0  0  0  3  0  0  0  0  0  0
  -24.8570  -28.9230   20.1720 C   0  0  0  0  0  0  0  0  0  0  0  0
  -25.9590  -30.8070   21.3850 C   0  0  0  0  0  2  0  0  0  0  0  0
  -26.0330  -29.4250   20.7450 C   0  0  0  0  0  0  0  0  0  0  0  0
  -27.2260  -28.6440   20.7150 C   0  0  0  0  0  3  0  0  0  0  0  0
  -26.0290  -26.8690   19.5740 C   0  0  0  0  0  3  0  0  0  0  0  0
  -24.8550  -27.6500   19.5770 C   0  0  0  0  0  3  0  0  0  0  0  0
  -23.6230  -29.8030   20.2210 C   0  0  0  0  0  2  0  0  0  0  0  0
  -24.6940  -31.0780   22.1260 N   0  0  0  0  0  0  0  0  0  0  0  0
  -23.5670  -32.1640   23.7720 O   0  0  0  0  0  0  0  0  0  0  0  0
  -22.7710  -29.4710   22.5710 C   0  0  0  0  0  0  0  0  0  0  0  0
  -21.4440  -29.2920   22.4580 N   0  0  0  0  0  0  0  0  0  0  0  0
  -23.4600  -28.8500   23.3840 O   0  0  0  0  0  0  0  0  0  0  0  0
  -20.9510  -29.8500   21.7760 H   0  0  0  0  0  0  0  0  0  0  0  0
  -18.0730  -28.0830   22.9770 C   0  0  0  0  0  0  0  0  0  0  0  0
  -20.6310  -28.3580   23.2390 C   0  0  0  0  0  3  0  0  0  0  0  0
  -20.7370  -26.9210   22.6810 C   0  0  0  0  0  2  0  0  0  0  0  0
  -19.6350  -26.5820   21.6730 C   0  0  0  0  0  2  0  0  0  0  0  0
  -18.2530  -26.7270   22.3160 C   0  0  0  0  0  2  0  0  0  0  0  0
  -19.1890  -28.8550   23.3970 C   0  0  0  0  0  0  0  0  0  0  0  0
  -18.9650  -30.1240   23.9750 C   0  0  0  0  0  3  0  0  0  0  0  0
  -17.6570  -30.6190   24.1430 C   0  0  0  0  0  3  0  0  0  0  0  0
  -16.5570  -29.8440   23.7390 C   0  0  0  0  0  3  0  0  0  0  0  0
  -16.7650  -28.5800   23.1600 C   0  0  0  0  0  3  0  0  0  0  0  0
  -25.9330  -32.5240   23.8310 C   0  0  0  0  0  3  0  0  0  0  0  0
  -25.6220  -33.9190   24.1750 N   0  0  0  0  0  0  0  0  0  0  0  0
  -25.9370  -34.9790   23.4180 C   0  0  0  0  0  0  0  0  0  0  0  0
  -26.5900  -34.8860   22.3750 O   0  0  0  0  0  0  0  0  0  0  0  0
  -25.0460  -34.0660   24.9900 H   0  0  0  0  0  0  0  0  0  0  0  0
  -24.1920  -36.7620   23.1080 C   0  0  0  0  0  1  0  0  0  0  0  0
  -25.4500  -36.3610   23.8950 C   0  0  0  0  0  3  0  0  0  0  0  0
  -27.5970  -37.2460   24.6880 C   0  0  0  0  0  1  0  0  0  0  0  0
  -26.4740  -37.4220   23.7710 N   0  0  0  0  0  0  0  0  0  0  0  0
  -26.0670  -38.3380   23.9400 H   0  0  0  0  0  0  0  0  0  0  0  0
  -26.4690  -31.7530   25.0980 C   0  0  1  0  0  0  0  0  0  0  0  0
  -25.3940  -31.5120   26.1850 C   0  0  0  0  0  1  0  0  0  0  0  0
  -27.0500  -30.3790   24.6930 C   0  0  0  0  0  1  0  0  0  0  0  0
  -27.6280  -32.5500   25.7450 C   0  0  0  0  0  1  0  0  0  0  0  0
  2  5  1  0
  2  1  1  0
  3  2  2  0
  4  3  1  0
  6  5  1  0
  6  7  2  0
  8 16  1  0
  9 14  1  0
 10 11  1  0
 10  9  1  0
 12 11  1  0
 12 21  1  0
 12 13  1  0
 14  8  1  0
 14 13  1  0
 15  8  2  0
 16  7  1  0
 16 17  1  0
 18 19  2  0
 19 38  1  0
 20 19  1  0
 20 23  1  0
 21 18  1  0
 21 22  1  0
 22 20  2  0
 23 24  1  0
 24 25  2  0
 26 29  1  0
 26 25  1  0
 27 26  2  0
 28 27  1  0
 28 23  2  0
 29 30  1  0
 30 31  1  0
 31 32  2  0
 33 32  1  0
 33 37  1  0
 34 33  2  0
 35 30  2  0
 35 34  1  0
 36 35  1  0
 38 39  1  0
 39 42  1  0
 39 41  1  0
 40 38  2  0
 43 44  1  0
 43 18  1  0
 45 43  1  0
 47 46  1  0
 47 48  1  0
 47  1  1  0
 49 51  1  0
 49 48  1  0
 50 61  2  0
 51 56  1  0
 52 60  1  0
 52 62  1  0
 53 59  1  0
 53 55  1  0
 54 60  1  0
 55 54  1  0
 56 55  2  0
 57 58  1  0
 57 51  2  0
 58 53  2  0
 59 52  1  0
 60 50  1  0
 62 64  2  0
 63 62  1  0
 65 63  1  0
 66 75  2  0
 66 71  1  0
 67 63  1  0
 67 71  1  0
 68 67  1  0
 69 70  1  0
 69 68  1  0
 70 66  1  0
 71 72  2  0
 72 73  1  0
 74 73  2  0
 75 74  1  0
 76 50  1  0
 76 77  1  0
 76 86  1  0
 77 80  1  0
 78 82  1  0
 78 77  1  0
 79 78  2  0
 82 81  1  0
 84 82  1  0
 84 85  1  0
 84 83  1  0
 86 89  1  1
 86 87  1  0
 88 86  1  0
M  ISO  4   8 100  16 100  48 101  49 101
M  END
>  <TORSDO>  (70) 
F 22

>  <SCORE>  (70) 
-13.061

>  <name>  (70) 
70

>  <ligand_id>  (70) 
70

>  <original_smiles>  (70) 
[H]N=C(C([H])([H])C([H])([H])C([H])([H])N([H])C(=O)N1C([H])([H])C([H])([H])C([H])([H])C([H])(n2nc(-c3c([H])c([H])c(Oc4c([H])c([H])c(F)c([H])c4F)c([H])c3[H])c(C(=O)N([H])[H])c2N([H])[H])C1([H])[H])C([H])([H])C([H])(C([H])([H])[H])C([H])([H])Oc1c([H])c([H])c2c(c1[H])C([H])([H])N(C(=O)C([H])(N([H])C(=O)C([H])(N([H])C([H])([H])[H])C([H])([H])[H])C(C([H])([H])[H])(C([H])([H])[H])C([H])([H])[H])C([H])(C(=O)N([H])C1([H])c3c([H])c([H])c([H])c([H])c3C([H])([H])C([H])([H])C1([H])[H])C2([H])[H]

>  <smiles>  (70) 
[H]N=C(C([H])([H])C([H])([H])C([H])([H])N([H])C(=O)N1C([H])([H])C([H])([H])C([H])([H])C([H])(n2nc(-c3c([H])c([H])c(Oc4c([H])c([H])c(F)c([H])c4F)c([H])c3[H])c(C(=O)N([H])[H])c2N([H])[H])C1([H])[H])C([H])([H])C([H])(C([H])([H])[H])C([H])([H])Oc1c([H])c([H])c2c(c1[H])C([H])([H])N(C(=O)C([H])(N([H])C(=O)C([H])(N([H])C([H])([H])[H])C([H])([H])[H])C(C([H])([H])[H])(C([H])([H])[H])C([H])([H])[H])C([H])(C(=O)N([H])C1([H])c3c([H])c([H])c([H])c([H])c3C([H])([H])C([H])([H])C1([H])[H])C2([H])[H]

$$$$
71:0:0
     RDKit          3D

 97105  0  0  1  0  0  0  0  0999 V2000
  -30.8740  -21.4890   23.1620 C   0  0  0  0  0  2  0  0  0  0  0  0
  -30.0000  -22.5630   22.4850 C   0  0  0  0  0  2  0  0  0  0  0  0
  -31.3070  -22.5860   20.4550 C   0  0  0  0  0  2  0  0  0  0  0  0
  -32.0680  -20.9070   22.3350 C   0  0  0  0  0  3  0  0  0  0  0  0
  -32.2490  -21.4310   20.8620 C   0  0  0  0  0  3  0  0  0  0  0  0
  -29.9600  -22.3770   21.0170 N   0  0  2  0  0  4  0  0  0  0  0  0
  -29.7370  -21.4070   20.8600 H   0  0  0  0  0  0  0  0  0  0  0  0
  -34.7070  -20.6380   20.6250 C   0  0  0  0  0  1  0  0  0  0  0  0
  -33.7170  -21.8060   20.5420 C   0  0  0  0  0  2  0  0  0  0  0  0
  -32.0210  -19.3620   22.3690 C   0  0  0  0  0  0  0  0  0  0  0  0
  -32.7390  -18.7200   23.1390 O   0  0  0  0  0  0  0  0  0  0  0  0
  -31.0590  -18.6590   21.4000 C   0  0  0  0  0  2  0  0  0  0  0  0
  -30.7760  -17.1780   21.7270 C   0  0  0  0  0  2  0  0  0  0  0  0
  -28.5770  -16.9980   20.3950 C   0  0  0  0  0  1  0  0  0  0  0  0
  -30.0150  -16.4830   20.5810 C   0  0  0  0  0  3  0  0  0  0  0  0
  -30.5330  -14.1360   19.9650 C   0  0  0  0  0  0  0  0  0  0  0  0
  -30.1430  -12.0030   18.7990 C   0  0  0  0  0  2  0  0  0  0  0  0
  -29.0870  -12.2220   17.6970 C   0  0  0  0  0  2  0  0  0  0  0  0
  -27.6580  -12.0860   18.2620 C   0  0  0  0  0  2  0  0  0  0  0  0
  -27.4470  -12.9060   19.5600 C   0  0  0  0  0  3  0  0  0  0  0  0
  -28.5950  -12.6420   20.5590 C   0  0  0  0  0  2  0  0  0  0  0  0
  -29.8730  -12.9530   19.8880 N   0  0  0  0  0  0  0  0  0  0  0  0
  -31.5160  -14.4190   19.2720 O   0  0  0  0  0  0  0  0  0  0  0  0
  -29.9580  -15.0370   20.7720 N   0  0  0  0  0  0  0  0  0  0  0  0
  -29.2280  -14.6860   21.3740 H   0  0  0  0  0  0  0  0  0  0  0  0
  -25.1200  -13.5140   20.4850 C   0  0  0  0  0  0  0  0  0  0  0  0
  -24.0860  -12.7380   20.9320 C   0  0  0  0  0  0  0  0  0  0  0  0
  -24.5350  -11.3850   20.8310 C   0  0  0  0  0  0  0  0  0  0  0  0
  -26.1370  -12.6340   20.1490 N   0  0  0  0  0  0  0  0  0  0  0  0
  -25.7910  -11.3460   20.4050 N   0  0  0  0  0  0  0  0  0  0  0  0
  -23.8210  -10.1230   21.0660 C   0  0  0  0  0  0  0  0  0  0  0  0
  -24.3090   -9.1640   21.9790 C   0  0  0  0  0  3  0  0  0  0  0  0
  -23.6000   -7.9640   22.2030 C   0  0  0  0  0  3  0  0  0  0  0  0
  -22.3890   -7.7170   21.5140 C   0  0  0  0  0  0  0  0  0  0  0  0
  -21.9190   -8.6650   20.5900 C   0  0  0  0  0  3  0  0  0  0  0  0
  -22.6290   -9.8570   20.3640 C   0  0  0  0  0  3  0  0  0  0  0  0
  -21.6450   -6.5680   21.6480 O   0  0  0  0  0  0  0  0  0  0  0  0
  -21.6420   -5.8460   22.8130 C   0  0  0  0  0  0  0  0  0  0  0  0
  -21.2230   -6.4100   24.0380 C   0  0  0  0  0  3  0  0  0  0  0  0
  -21.1680   -5.6110   25.1980 C   0  0  0  0  0  3  0  0  0  0  0  0
  -21.5220   -4.2510   25.1350 C   0  0  0  0  0  0  0  0  0  0  0  0
  -21.9360   -3.6870   23.9140 C   0  0  0  0  0  3  0  0  0  0  0  0
  -21.9940   -4.4820   22.7580 C   0  0  0  0  0  0  0  0  0  0  0  0
  -22.3720   -3.9310   21.5790 F   0  0  0  0  0  0  0  0  0  0  0  0
  -21.4630   -3.4810   26.2470 F   0  0  0  0  0  0  0  0  0  0  0  0
  -22.7250  -13.2140   21.3470 C   0  0  0  0  0  0  0  0  0  0  0  0
  -22.0820  -12.5010   22.2670 N   0  0  0  0  0  0  0  0  0  0  0  0
  -22.2430  -14.2510   20.8930 O   0  0  0  0  0  0  0  0  0  0  0  0
  -22.4890  -11.6620   22.6550 H   0  0  0  0  0  0  0  0  0  0  0  0
  -21.1730  -12.7970   22.5910 H   0  0  0  0  0  0  0  0  0  0  0  0
  -25.2720  -14.8870   20.3240 N   0  0  0  0  0  0  0  0  0  0  0  0
  -24.5240  -15.5350   20.5450 H   0  0  0  0  0  0  0  0  0  0  0  0
  -26.0960  -15.3440   19.9550 H   0  0  0  0  0  0  0  0  0  0  0  0
  -28.8640  -23.0910   20.3120 C   0  0  0  0  0  2  0  0  0  0  0  0
  -28.9540  -24.6310   20.3550 C   0  0  0  0  0  2  0  0  0  0  0  0
  -27.7260  -25.2850   19.7070 C   0  0  0  0  0  2  0  0  0  0  0  0
  -27.8170  -26.6950   19.8860 O   0  0  0  0  0  0  0  0  0  0  0  0
  -24.4730  -31.9340   23.3010 C   0  0  0  0  0  0  0  0  0  0  0  0
  -26.6540  -27.4310   19.9650 C   0  0  0  0  0  0  0  0  0  0  0  0
  -23.0790  -30.6250   21.7310 C   0  0  0  0  0  3  0  0  0  0  0  0
  -24.3410  -29.0380   20.1860 C   0  0  0  0  0  0  0  0  0  0  0  0
  -25.5970  -30.8590   21.3530 C   0  0  0  0  0  2  0  0  0  0  0  0
  -25.5620  -29.4970   20.6940 C   0  0  0  0  0  0  0  0  0  0  0  0
  -26.7190  -28.6990   20.5790 C   0  0  0  0  0  3  0  0  0  0  0  0
  -25.4140  -26.9830   19.4530 C   0  0  0  0  0  3  0  0  0  0  0  0
  -24.2590  -27.7800   19.5670 C   0  0  0  0  0  3  0  0  0  0  0  0
  -23.1540  -29.9640   20.3290 C   0  0  0  0  0  2  0  0  0  0  0  0
  -24.4070  -31.1540   22.1850 N   0  0  0  0  0  0  0  0  0  0  0  0
  -23.4500  -32.2500   23.9220 O   0  0  0  0  0  0  0  0  0  0  0  0
  -22.4460  -29.6210   22.7220 C   0  0  0  0  0  0  0  0  0  0  0  0
  -21.1310  -29.3920   22.5830 N   0  0  0  0  0  0  0  0  0  0  0  0
  -23.1350  -29.0500   23.5700 O   0  0  0  0  0  0  0  0  0  0  0  0
  -20.6340  -29.9100   21.8730 H   0  0  0  0  0  0  0  0  0  0  0  0
  -17.8220  -27.9900   22.9580 C   0  0  0  0  0  0  0  0  0  0  0  0
  -20.3290  -28.4610   23.3770 C   0  0  0  0  0  3  0  0  0  0  0  0
  -20.5720  -26.9990   22.9330 C   0  0  0  0  0  2  0  0  0  0  0  0
  -19.5700  -26.5130   21.8800 C   0  0  0  0  0  2  0  0  0  0  0  0
  -18.1390  -26.6070   22.4160 C   0  0  0  0  0  2  0  0  0  0  0  0
  -18.8500  -28.8670   23.3940 C   0  0  0  0  0  0  0  0  0  0  0  0
  -18.5030  -30.1540   23.8540 C   0  0  0  0  0  3  0  0  0  0  0  0
  -17.1590  -30.5680   23.8870 C   0  0  0  0  0  3  0  0  0  0  0  0
  -16.1430  -29.6920   23.4660 C   0  0  0  0  0  3  0  0  0  0  0  0
  -16.4740  -28.4050   23.0090 C   0  0  0  0  0  3  0  0  0  0  0  0
  -25.8330  -32.4850   23.8340 C   0  0  0  0  0  3  0  0  0  0  0  0
  -25.6310  -33.8930   24.1970 N   0  0  0  0  0  0  0  0  0  0  0  0
  -25.9720  -34.9320   23.4240 C   0  0  0  0  0  0  0  0  0  0  0  0
  -26.5640  -34.8020   22.3480 O   0  0  0  0  0  0  0  0  0  0  0  0
  -25.1080  -34.0700   25.0420 H   0  0  0  0  0  0  0  0  0  0  0  0
  -24.3260  -36.8180   23.2000 C   0  0  0  0  0  1  0  0  0  0  0  0
  -25.5960  -36.3400   23.9230 C   0  0  0  0  0  3  0  0  0  0  0  0
  -27.8240  -37.0990   24.6200 C   0  0  0  0  0  1  0  0  0  0  0  0
  -26.6770  -37.3350   23.7470 N   0  0  0  0  0  0  0  0  0  0  0  0
  -26.3340  -38.2760   23.9200 H   0  0  0  0  0  0  0  0  0  0  0  0
  -26.3950  -31.6680   25.0610 C   0  0  1  0  0  0  0  0  0  0  0  0
  -25.3640  -31.4540   26.1920 C   0  0  0  0  0  1  0  0  0  0  0  0
  -26.8930  -30.2780   24.6020 C   0  0  0  0  0  1  0  0  0  0  0  0
  -27.6140  -32.4030   25.6670 C   0  0  0  0  0  1  0  0  0  0  0  0
  2  1  1  0
  3  5  1  0
  3  6  1  0
  4 10  1  0
  4  1  1  0
  5  9  1  0
  5  4  1  0
  6  2  1  0
  6  7  1  1
  9  8  1  0
 10 11  2  0
 12 13  1  0
 12 10  1  0
 15 14  1  0
 15 24  1  0
 15 13  1  0
 16 24  1  0
 17 22  1  0
 18 19  1  0
 18 17  1  0
 20 19  1  0
 20 29  1  0
 20 21  1  0
 22 16  1  0
 22 21  1  0
 23 16  2  0
 24 25  1  0
 26 27  2  0
 27 46  1  0
 28 27  1  0
 28 31  1  0
 29 30  1  0
 29 26  1  0
 30 28  2  0
 31 32  1  0
 32 33  2  0
 34 37  1  0
 34 33  1  0
 35 34  2  0
 36 35  1  0
 36 31  2  0
 37 38  1  0
 38 39  1  0
 39 40  2  0
 41 40  1  0
 41 45  1  0
 42 41  2  0
 43 38  2  0
 43 42  1  0
 44 43  1  0
 46 47  1  0
 47 50  1  0
 47 49  1  0
 48 46  2  0
 51 26  1  0
 51 52  1  0
 53 51  1  0
 54 55  1  0
 54  6  1  0
 56 57  1  0
 56 55  1  0
 57 59  1  0
 58 69  2  0
 59 64  1  0
 60 68  1  0
 60 70  1  0
 61 67  1  0
 61 63  1  0
 62 68  1  0
 63 62  1  0
 64 63  2  0
 65 66  1  0
 65 59  2  0
 66 61  2  0
 67 60  1  0
 68 58  1  0
 70 72  2  0
 71 70  1  0
 73 71  1  0
 74 83  2  0
 74 79  1  0
 75 71  1  0
 75 79  1  0
 76 75  1  0
 77 78  1  0
 77 76  1  0
 78 74  1  0
 79 80  2  0
 80 81  1  0
 82 81  2  0
 83 82  1  0
 84 58  1  0
 84 85  1  0
 84 94  1  0
 85 88  1  0
 86 90  1  0
 86 85  1  0
 87 86  2  0
 90 89  1  0
 92 93  1  0
 92 90  1  0
 92 91  1  0
 94 97  1  1
 94 95  1  0
 96 94  1  0
M  ISO  4  16 100  24 100  56 101  57 101
M  END
>  <TORSDO>  (71) 
F 24

>  <SCORE>  (71) 
-11.263

>  <name>  (71) 
71

>  <ligand_id>  (71) 
71

>  <original_smiles>  (71) 
[H]c1c([H])c([H])c2c(c1[H])C([H])([H])C([H])([H])C([H])([H])C2([H])N([H])C(=O)C1([H])N(C(=O)C([H])(N([H])C(=O)C([H])(N([H])C([H])([H])[H])C([H])([H])[H])C(C([H])([H])[H])(C([H])([H])[H])C([H])([H])[H])C([H])([H])c2c([H])c(OC([H])([H])C([H])([H])C([H])([H])[N+]3([H])C([H])([H])C([H])([H])C([H])(C(=O)C([H])([H])C([H])([H])C([H])(N([H])C(=O)N4C([H])([H])C([H])([H])C([H])([H])C([H])(n5nc(-c6c([H])c([H])c(Oc7c([H])c([H])c(F)c([H])c7F)c([H])c6[H])c(C(=O)N([H])[H])c5N([H])[H])C4([H])[H])C([H])([H])[H])C([H])(C([H])([H])C([H])([H])[H])C3([H])[H])c([H])c([H])c2C1([H])[H]

>  <smiles>  (71) 
[H]c1c([H])c([H])c2c(c1[H])C([H])([H])C([H])([H])C([H])([H])C2([H])N([H])C(=O)C1([H])N(C(=O)C([H])(N([H])C(=O)C([H])(N([H])C([H])([H])[H])C([H])([H])[H])C(C([H])([H])[H])(C([H])([H])[H])C([H])([H])[H])C([H])([H])c2c([H])c(OC([H])([H])C([H])([H])C([H])([H])[N+]3([H])C([H])([H])C([H])([H])C([H])(C(=O)C([H])([H])C([H])([H])C([H])(N([H])C(=O)N4C([H])([H])C([H])([H])C([H])([H])C([H])(n5nc(-c6c([H])c([H])c(Oc7c([H])c([H])c(F)c([H])c7F)c([H])c6[H])c(C(=O)N([H])[H])c5N([H])[H])C4([H])[H])C([H])([H])[H])C([H])(C([H])([H])C([H])([H])[H])C3([H])[H])c([H])c([H])c2C1([H])[H]

$$$$
72:0:0
     RDKit          3D

 91 99  0  0  1  0  0  0  0  0999 V2000
  -29.1710  -18.9500   19.6720 C   0  0  0  0  0  2  0  0  0  0  0  0
  -30.9090  -19.2690   21.4390 C   0  0  0  0  0  2  0  0  0  0  0  0
  -29.4800  -20.4100   19.1520 C   0  0  0  0  0  2  0  0  0  0  0  0
  -31.1420  -20.7190   20.9200 C   0  0  0  0  0  2  0  0  0  0  0  0
  -30.3360  -18.2090   20.4220 C   0  0  0  0  0  3  0  0  0  0  0  0
  -29.8950  -21.4070   20.2890 C   0  0  0  0  0  3  0  0  0  0  0  0
  -30.0870  -15.5390   21.1160 C   0  0  0  0  0  3  0  0  0  0  0  0
  -29.8690  -16.9020   21.1750 C   0  0  0  0  0  0  0  0  0  0  0  0
  -30.8490  -14.5950   20.2450 C   0  0  0  0  0  0  0  0  0  0  0  0
  -30.5890  -12.4700   18.9310 C   0  0  0  0  0  2  0  0  0  0  0  0
  -29.5850  -12.7050   17.7780 C   0  0  0  0  0  2  0  0  0  0  0  0
  -28.1220  -12.5530   18.2460 C   0  0  0  0  0  2  0  0  0  0  0  0
  -27.8510  -13.2970   19.5790 C   0  0  0  0  0  3  0  0  0  0  0  0
  -28.9370  -12.9290   20.6050 C   0  0  0  0  0  2  0  0  0  0  0  0
  -30.2340  -13.3730   20.0490 N   0  0  0  0  0  0  0  0  0  0  0  0
  -31.9350  -14.8420   19.7100 O   0  0  0  0  0  0  0  0  0  0  0  0
  -25.4760  -13.9460   20.3300 C   0  0  0  0  0  0  0  0  0  0  0  0
  -24.4020  -13.1890   20.7240 C   0  0  0  0  0  0  0  0  0  0  0  0
  -24.8430  -11.8310   20.6760 C   0  0  0  0  0  0  0  0  0  0  0  0
  -26.5030  -13.0460   20.0830 N   0  0  0  0  0  0  0  0  0  0  0  0
  -26.1260  -11.7720   20.3460 N   0  0  0  0  0  0  0  0  0  0  0  0
  -24.1040  -10.5770   20.8830 C   0  0  0  0  0  0  0  0  0  0  0  0
  -24.5120   -9.6390   21.8580 C   0  0  0  0  0  3  0  0  0  0  0  0
  -23.7810   -8.4480   22.0550 C   0  0  0  0  0  3  0  0  0  0  0  0
  -22.6270   -8.1880   21.2810 C   0  0  0  0  0  0  0  0  0  0  0  0
  -22.2360   -9.1160   20.3020 C   0  0  0  0  0  3  0  0  0  0  0  0
  -22.9660  -10.3010   20.1010 C   0  0  0  0  0  3  0  0  0  0  0  0
  -21.8720   -7.0440   21.3800 O   0  0  0  0  0  0  0  0  0  0  0  0
  -21.7350   -6.3750   22.5670 C   0  0  0  0  0  0  0  0  0  0  0  0
  -21.2110   -7.0000   23.7220 C   0  0  0  0  0  3  0  0  0  0  0  0
  -21.0200   -6.2530   24.8990 C   0  0  0  0  0  3  0  0  0  0  0  0
  -21.3430   -4.8820   24.9260 C   0  0  0  0  0  0  0  0  0  0  0  0
  -21.8620   -4.2590   23.7770 C   0  0  0  0  0  3  0  0  0  0  0  0
  -22.0510   -5.0020   22.6000 C   0  0  0  0  0  0  0  0  0  0  0  0
  -22.5280   -4.3900   21.4900 F   0  0  0  0  0  0  0  0  0  0  0  0
  -21.1530   -4.1620   26.0550 F   0  0  0  0  0  0  0  0  0  0  0  0
  -23.0190  -13.6860   21.0270 C   0  0  0  0  0  0  0  0  0  0  0  0
  -22.3030  -13.0030   21.9150 N   0  0  0  0  0  0  0  0  0  0  0  0
  -22.5740  -14.7100   20.5100 O   0  0  0  0  0  0  0  0  0  0  0  0
  -22.6780  -12.1790   22.3650 H   0  0  0  0  0  0  0  0  0  0  0  0
  -21.3730  -13.3110   22.1560 H   0  0  0  0  0  0  0  0  0  0  0  0
  -25.6580  -15.3140   20.1460 N   0  0  0  0  0  0  0  0  0  0  0  0
  -24.9000  -15.9790   20.2560 H   0  0  0  0  0  0  0  0  0  0  0  0
  -26.5240  -15.7440   19.8490 H   0  0  0  0  0  0  0  0  0  0  0  0
  -29.0180  -17.3000   22.1380 O   0  0  0  0  0  0  0  0  0  0  0  0
  -28.6610  -16.5310   22.5610 H   0  0  0  0  0  0  0  0  0  0  0  0
  -30.2570  -22.9240   19.9220 C   0  0  0  0  0  2  0  0  0  0  0  0
  -28.2510  -23.5340   18.3790 C   0  0  0  0  0  1  0  0  0  0  0  0
  -29.2600  -24.0690   19.4050 C   0  0  0  0  0  3  0  0  0  0  0  0
  -28.6160  -25.1230   20.4220 C   0  0  0  0  0  2  0  0  0  0  0  0
  -28.5750  -26.5470   20.0350 O   0  0  0  0  0  0  0  0  0  0  0  0
  -24.6420  -31.7680   23.1450 C   0  0  0  0  0  0  0  0  0  0  0  0
  -27.3840  -27.2850   20.0870 C   0  0  0  0  0  0  0  0  0  0  0  0
  -23.4760  -30.3580   21.4810 C   0  0  0  0  0  3  0  0  0  0  0  0
  -24.9690  -28.8220   20.0740 C   0  0  0  0  0  0  0  0  0  0  0  0
  -26.0060  -30.7190   21.3230 C   0  0  0  0  0  2  0  0  0  0  0  0
  -26.1190  -29.3460   20.6750 C   0  0  0  0  0  0  0  0  0  0  0  0
  -27.3290  -28.5940   20.6610 C   0  0  0  0  0  3  0  0  0  0  0  0
  -26.1990  -26.7850   19.5000 C   0  0  0  0  0  3  0  0  0  0  0  0
  -25.0080  -27.5470   19.4800 C   0  0  0  0  0  3  0  0  0  0  0  0
  -23.7150  -29.6720   20.1080 C   0  0  0  0  0  2  0  0  0  0  0  0
  -24.7270  -30.9650   22.0410 N   0  0  0  0  0  0  0  0  0  0  0  0
  -23.5490  -32.0350   23.6630 O   0  0  0  0  0  0  0  0  0  0  0  0
  -22.8040  -29.3390   22.4330 C   0  0  0  0  0  0  0  0  0  0  0  0
  -21.4780  -29.1670   22.2970 N   0  0  0  0  0  0  0  0  0  0  0  0
  -23.4760  -28.7050   23.2490 O   0  0  0  0  0  0  0  0  0  0  0  0
  -20.9950  -29.7300   21.6110 H   0  0  0  0  0  0  0  0  0  0  0  0
  -18.0950  -27.9720   22.7650 C   0  0  0  0  0  0  0  0  0  0  0  0
  -20.6540  -28.2180   23.0500 C   0  0  0  0  0  3  0  0  0  0  0  0
  -20.7550  -26.7930   22.4580 C   0  0  0  0  0  2  0  0  0  0  0  0
  -19.6550  -26.4890   21.4340 C   0  0  0  0  0  2  0  0  0  0  0  0
  -18.2700  -26.6310   22.0700 C   0  0  0  0  0  2  0  0  0  0  0  0
  -19.2160  -28.7230   23.2110 C   0  0  0  0  0  0  0  0  0  0  0  0
  -18.9990  -29.9800   23.8150 C   0  0  0  0  0  3  0  0  0  0  0  0
  -17.6960  -30.4860   23.9780 C   0  0  0  0  0  3  0  0  0  0  0  0
  -16.5910  -29.7310   23.5510 C   0  0  0  0  0  3  0  0  0  0  0  0
  -16.7900  -28.4760   22.9470 C   0  0  0  0  0  3  0  0  0  0  0  0
  -25.9100  -32.4090   23.7910 C   0  0  0  0  0  3  0  0  0  0  0  0
  -25.5870  -33.8030   24.1320 N   0  0  0  0  0  0  0  0  0  0  0  0
  -25.9180  -34.8670   23.3890 C   0  0  0  0  0  0  0  0  0  0  0  0
  -26.6000  -34.7800   22.3640 O   0  0  0  0  0  0  0  0  0  0  0  0
  -24.9980  -33.9470   24.9380 H   0  0  0  0  0  0  0  0  0  0  0  0
  -24.1770  -36.6380   23.0340 C   0  0  0  0  0  1  0  0  0  0  0  0
  -25.4110  -36.2450   23.8580 C   0  0  0  0  0  3  0  0  0  0  0  0
  -27.5210  -37.1310   24.7310 C   0  0  0  0  0  1  0  0  0  0  0  0
  -26.4340  -37.3120   23.7730 N   0  0  0  0  0  0  0  0  0  0  0  0
  -26.0170  -38.2260   23.9350 H   0  0  0  0  0  0  0  0  0  0  0  0
  -26.4160  -31.6340   25.0710 C   0  0  1  0  0  0  0  0  0  0  0  0
  -25.3120  -31.3750   26.1200 C   0  0  0  0  0  1  0  0  0  0  0  0
  -27.0170  -30.2690   24.6700 C   0  0  0  0  0  1  0  0  0  0  0  0
  -27.5500  -32.4320   25.7550 C   0  0  0  0  0  1  0  0  0  0  0  0
  1  5  1  0
  3  1  1  0
  3  6  1  0
  4  2  1  0
  5  8  1  0
  5  2  1  0
  6 47  1  0
  6  4  1  0
  7  8  2  0
  8 45  1  0
  9  7  1  0
 10 15  1  0
 11 12  1  0
 11 10  1  0
 13 12  1  0
 13 20  1  0
 13 14  1  0
 15  9  1  0
 15 14  1  0
 16  9  2  0
 17 18  2  0
 18 37  1  0
 19 18  1  0
 19 22  1  0
 20 17  1  0
 20 21  1  0
 21 19  2  0
 22 23  1  0
 23 24  2  0
 25 28  1  0
 25 24  1  0
 26 25  2  0
 27 26  1  0
 27 22  2  0
 28 29  1  0
 29 34  2  0
 29 30  1  0
 30 31  2  0
 31 32  1  0
 32 36  1  0
 33 32  2  0
 34 33  1  0
 35 34  1  0
 37 38  1  0
 38 41  1  0
 38 40  1  0
 39 37  2  0
 42 43  1  0
 42 17  1  0
 44 42  1  0
 45 46  1  0
 49 48  1  0
 49 47  1  0
 49 50  1  0
 51 53  1  0
 51 50  1  0
 52 63  2  0
 53 58  1  0
 54 62  1  0
 54 64  1  0
 55 61  1  0
 55 57  1  0
 56 62  1  0
 57 56  1  0
 58 57  2  0
 59 53  2  0
 60 59  1  0
 60 55  2  0
 61 54  1  0
 62 52  1  0
 64 66  2  0
 65 64  1  0
 67 65  1  0
 68 77  2  0
 68 73  1  0
 69 65  1  0
 69 73  1  0
 70 69  1  0
 71 72  1  0
 71 70  1  0
 72 68  1  0
 73 74  2  0
 74 75  1  0
 76 75  2  0
 77 76  1  0
 78 52  1  0
 78 79  1  0
 78 88  1  0
 79 82  1  0
 80 84  1  0
 80 79  1  0
 81 80  2  0
 84 83  1  0
 86 84  1  0
 86 87  1  0
 86 85  1  0
 88 91  1  1
 88 89  1  0
 90 88  1  0
M  ISO  4   7 100   9 100  50 101  51 101
M  END
>  <TORSDO>  (72) 
F 21

>  <SCORE>  (72) 
-13.156

>  <name>  (72) 
72

>  <ligand_id>  (72) 
72

>  <original_smiles>  (72) 
[H]OC(=C([H])C(=O)N1C([H])([H])C([H])([H])C([H])([H])C([H])(n2nc(-c3c([H])c([H])c(Oc4c([H])c([H])c(F)c([H])c4F)c([H])c3[H])c(C(=O)N([H])[H])c2N([H])[H])C1([H])[H])C1([H])C([H])([H])C([H])([H])C([H])(C([H])([H])C([H])(C([H])([H])[H])C([H])([H])Oc2c([H])c([H])c3c(c2[H])C([H])([H])N(C(=O)C([H])(N([H])C(=O)C([H])(N([H])C([H])([H])[H])C([H])([H])[H])C(C([H])([H])[H])(C([H])([H])[H])C([H])([H])[H])C([H])(C(=O)N([H])C2([H])c4c([H])c([H])c([H])c([H])c4C([H])([H])C([H])([H])C2([H])[H])C3([H])[H])C([H])([H])C1([H])[H]

>  <smiles>  (72) 
[H]OC(=C([H])C(=O)N1C([H])([H])C([H])([H])C([H])([H])C([H])(n2nc(-c3c([H])c([H])c(Oc4c([H])c([H])c(F)c([H])c4F)c([H])c3[H])c(C(=O)N([H])[H])c2N([H])[H])C1([H])[H])C1([H])C([H])([H])C([H])([H])C([H])(C([H])([H])C([H])(C([H])([H])[H])C([H])([H])Oc2c([H])c([H])c3c(c2[H])C([H])([H])N(C(=O)C([H])(N([H])C(=O)C([H])(N([H])C([H])([H])[H])C([H])([H])[H])C(C([H])([H])[H])(C([H])([H])[H])C([H])([H])[H])C([H])(C(=O)N([H])C2([H])c4c([H])c([H])c([H])c([H])c4C([H])([H])C([H])([H])C2([H])[H])C3([H])[H])C([H])([H])C1([H])[H]

$$$$
73:0:0
     RDKit          3D

 92 99  0  0  1  0  0  0  0  0999 V2000
  -30.2730  -22.0960   20.9470 N   0  0  0  0  0  4  0  0  0  0  0  0
  -31.1800  -22.4750   21.1700 H   0  0  0  0  0  0  0  0  0  0  0  0
  -30.2810  -21.7850   19.9890 H   0  0  0  0  0  0  0  0  0  0  0  0
  -29.2420  -23.1590   21.0870 C   0  0  0  0  0  2  0  0  0  0  0  0
  -29.5230  -24.4760   20.3190 C   0  0  0  0  0  2  0  0  0  0  0  0
  -28.3230  -25.4240   20.5020 C   0  0  0  0  0  2  0  0  0  0  0  0
  -28.4630  -26.7380   19.9350 O   0  0  0  0  0  0  0  0  0  0  0  0
  -24.4690  -31.6520   23.2050 C   0  0  0  0  0  0  0  0  0  0  0  0
  -27.2770  -27.4470   19.9480 C   0  0  0  0  0  0  0  0  0  0  0  0
  -23.3020  -30.2210   21.5600 C   0  0  0  0  0  3  0  0  0  0  0  0
  -24.8020  -28.8100   20.0600 C   0  0  0  0  0  0  0  0  0  0  0  0
  -25.7980  -30.7330   21.3080 C   0  0  0  0  0  2  0  0  0  0  0  0
  -25.9450  -29.3860   20.6310 C   0  0  0  0  0  0  0  0  0  0  0  0
  -27.1880  -28.7120   20.5730 C   0  0  0  0  0  3  0  0  0  0  0  0
  -26.1170  -26.9010   19.3520 C   0  0  0  0  0  3  0  0  0  0  0  0
  -24.8830  -27.5660   19.4170 C   0  0  0  0  0  3  0  0  0  0  0  0
  -23.5120  -29.5900   20.1600 C   0  0  0  0  0  2  0  0  0  0  0  0
  -24.5420  -30.8820   22.0810 N   0  0  0  0  0  0  0  0  0  0  0  0
  -23.3890  -31.8460   23.7800 O   0  0  0  0  0  0  0  0  0  0  0  0
  -22.7380  -29.1390   22.5110 C   0  0  0  0  0  0  0  0  0  0  0  0
  -21.4400  -28.8290   22.3620 N   0  0  0  0  0  0  0  0  0  0  0  0
  -23.4660  -28.5810   23.3350 O   0  0  0  0  0  0  0  0  0  0  0  0
  -20.9070  -29.3370   21.6700 H   0  0  0  0  0  0  0  0  0  0  0  0
  -18.2170  -27.2360   22.7280 C   0  0  0  0  0  0  0  0  0  0  0  0
  -20.7060  -27.8150   23.1200 C   0  0  0  0  0  3  0  0  0  0  0  0
  -21.0130  -26.3930   22.5980 C   0  0  0  0  0  2  0  0  0  0  0  0
  -20.0160  -25.9100   21.5400 C   0  0  0  0  0  2  0  0  0  0  0  0
  -18.5940  -25.9010   22.1070 C   0  0  0  0  0  2  0  0  0  0  0  0
  -19.2090  -28.1400   23.1900 C   0  0  0  0  0  0  0  0  0  0  0  0
  -18.8060  -29.3830   23.7260 C   0  0  0  0  0  3  0  0  0  0  0  0
  -17.4430  -29.7230   23.8080 C   0  0  0  0  0  3  0  0  0  0  0  0
  -16.4650  -28.8170   23.3650 C   0  0  0  0  0  3  0  0  0  0  0  0
  -16.8510  -27.5760   22.8300 C   0  0  0  0  0  3  0  0  0  0  0  0
  -25.7320  -32.3430   23.8050 C   0  0  0  0  0  3  0  0  0  0  0  0
  -25.3640  -33.7260   24.1330 N   0  0  0  0  0  0  0  0  0  0  0  0
  -25.6850  -34.7950   23.3930 C   0  0  0  0  0  0  0  0  0  0  0  0
  -26.3950  -34.7220   22.3850 O   0  0  0  0  0  0  0  0  0  0  0  0
  -24.7410  -33.8540   24.9160 H   0  0  0  0  0  0  0  0  0  0  0  0
  -23.9130  -36.5310   22.9840 C   0  0  0  0  0  1  0  0  0  0  0  0
  -25.1330  -36.1620   23.8420 C   0  0  0  0  0  3  0  0  0  0  0  0
  -27.2030  -37.1070   24.7650 C   0  0  0  0  0  1  0  0  0  0  0  0
  -26.1320  -37.2490   23.7810 N   0  0  0  0  0  0  0  0  0  0  0  0
  -25.6900  -38.1540   23.9220 H   0  0  0  0  0  0  0  0  0  0  0  0
  -26.3020  -31.5990   25.0740 C   0  0  1  0  0  0  0  0  0  0  0  0
  -25.2390  -31.3160   26.1600 C   0  0  0  0  0  1  0  0  0  0  0  0
  -26.9410  -30.2490   24.6760 C   0  0  0  0  0  1  0  0  0  0  0  0
  -27.4230  -32.4480   25.7180 C   0  0  0  0  0  1  0  0  0  0  0  0
  -30.0530  -20.9130   21.8320 C   0  0  0  0  0  3  0  0  0  0  0  0
  -30.5950  -21.2910   23.2270 C   0  0  0  0  0  0  0  0  0  0  0  0
  -29.8170  -20.8030   24.4390 C   0  0  0  0  0  1  0  0  0  0  0  0
  -31.6080  -21.9770   23.3860 O   0  0  0  0  0  0  0  0  0  0  0  0
  -30.7620  -19.6360   21.2930 C   0  0  0  0  0  2  0  0  0  0  0  0
  -30.2160  -18.2710   21.8030 C   0  0  0  0  0  2  0  0  0  0  0  0
  -31.1720  -17.1140   21.4350 C   0  0  0  0  0  2  0  0  0  0  0  0
  -31.2680  -14.6680   21.1450 C   0  0  0  0  0  0  0  0  0  0  0  0
  -30.9990  -12.4440   20.1290 C   0  0  0  0  0  2  0  0  0  0  0  0
  -30.2340  -12.5940   18.7980 C   0  0  0  0  0  2  0  0  0  0  0  0
  -28.7130  -12.5460   19.0380 C   0  0  0  0  0  2  0  0  0  0  0  0
  -28.2540  -13.4850   20.1880 C   0  0  0  0  0  3  0  0  0  0  0  0
  -29.1510  -13.3200   21.4370 C   0  0  0  0  0  2  0  0  0  0  0  0
  -30.5480  -13.5220   21.0240 N   0  0  0  0  0  0  0  0  0  0  0  0
  -32.4440  -14.7590   20.7850 O   0  0  0  0  0  0  0  0  0  0  0  0
  -30.5910  -15.7670   21.5320 N   0  0  0  0  0  0  0  0  0  0  0  0
  -29.6230  -15.6690   21.8000 H   0  0  0  0  0  0  0  0  0  0  0  0
  -25.8290  -14.2300   20.6170 C   0  0  0  0  0  0  0  0  0  0  0  0
  -24.6840  -13.5210   20.8660 C   0  0  0  0  0  0  0  0  0  0  0  0
  -25.0670  -12.1450   20.8900 C   0  0  0  0  0  0  0  0  0  0  0  0
  -26.8420  -13.2880   20.5060 N   0  0  0  0  0  0  0  0  0  0  0  0
  -26.3800  -12.0300   20.7290 N   0  0  0  0  0  0  0  0  0  0  0  0
  -24.2540  -10.9270   21.0010 C   0  0  0  0  0  0  0  0  0  0  0  0
  -24.5490   -9.9280   21.9540 C   0  0  0  0  0  3  0  0  0  0  0  0
  -23.7430   -8.7740   22.0540 C   0  0  0  0  0  3  0  0  0  0  0  0
  -22.6260   -8.6130   21.2040 C   0  0  0  0  0  0  0  0  0  0  0  0
  -22.3490   -9.6000   20.2400 C   0  0  0  0  0  3  0  0  0  0  0  0
  -23.1560  -10.7450   20.1370 C   0  0  0  0  0  3  0  0  0  0  0  0
  -21.8010   -7.5140   21.2110 O   0  0  0  0  0  0  0  0  0  0  0  0
  -21.6430   -6.7420   22.3340 C   0  0  0  0  0  0  0  0  0  0  0  0
  -21.1890   -7.2880   23.5550 C   0  0  0  0  0  3  0  0  0  0  0  0
  -20.9750   -6.4460   24.6650 C   0  0  0  0  0  3  0  0  0  0  0  0
  -21.2010   -5.0610   24.5530 C   0  0  0  0  0  0  0  0  0  0  0  0
  -21.6450   -4.5150   23.3360 C   0  0  0  0  0  3  0  0  0  0  0  0
  -21.8630   -5.3550   22.2290 C   0  0  0  0  0  0  0  0  0  0  0  0
  -22.2710   -4.8210   21.0520 F   0  0  0  0  0  0  0  0  0  0  0  0
  -20.9870   -4.2510   25.6160 F   0  0  0  0  0  0  0  0  0  0  0  0
  -23.2940  -14.0780   20.9790 C   0  0  0  0  0  0  0  0  0  0  0  0
  -22.4380  -13.4390   21.7680 N   0  0  0  0  0  0  0  0  0  0  0  0
  -22.9730  -15.1150   20.3990 O   0  0  0  0  0  0  0  0  0  0  0  0
  -22.7080  -12.6030   22.2630 H   0  0  0  0  0  0  0  0  0  0  0  0
  -21.4990  -13.7930   21.8810 H   0  0  0  0  0  0  0  0  0  0  0  0
  -26.0910  -15.5870   20.4590 N   0  0  0  0  0  0  0  0  0  0  0  0
  -25.3560  -16.2850   20.4940 H   0  0  0  0  0  0  0  0  0  0  0  0
  -26.9990  -15.9760   20.2290 H   0  0  0  0  0  0  0  0  0  0  0  0
  1  4  1  0
  1  2  1  0
  1 48  1  0
  3  1  1  0
  5  6  1  0
  5  4  1  0
  7  9  1  0
  7  6  1  0
  8 19  2  0
  9 14  1  0
 10 18  1  0
 10 20  1  0
 11 17  1  0
 11 13  1  0
 12 18  1  0
 13 12  1  0
 14 13  2  0
 15 16  1  0
 15  9  2  0
 16 11  2  0
 17 10  1  0
 18  8  1  0
 20 22  2  0
 21 20  1  0
 23 21  1  0
 24 33  2  0
 24 29  1  0
 25 21  1  0
 25 29  1  0
 26 25  1  0
 27 28  1  0
 27 26  1  0
 28 24  1  0
 29 30  2  0
 30 31  1  0
 32 31  2  0
 33 32  1  0
 34  8  1  0
 34 35  1  0
 34 44  1  0
 35 38  1  0
 36 40  1  0
 36 35  1  0
 37 36  2  0
 40 39  1  0
 42 40  1  0
 42 43  1  0
 42 41  1  0
 44 47  1  1
 44 45  1  0
 46 44  1  0
 48 52  1  0
 48 49  1  0
 49 51  2  0
 49 50  1  0
 52 53  1  0
 54 63  1  0
 54 53  1  0
 55 63  1  0
 56 61  1  0
 57 58  1  0
 57 56  1  0
 59 58  1  0
 59 68  1  0
 59 60  1  0
 61 55  1  0
 61 60  1  0
 62 55  2  0
 63 64  1  0
 65 66  2  0
 66 67  1  0
 66 85  1  0
 67 70  1  0
 68 65  1  0
 68 69  1  0
 69 67  2  0
 70 71  1  0
 71 72  2  0
 73 76  1  0
 73 72  1  0
 74 73  2  0
 75 74  1  0
 75 70  2  0
 76 77  1  0
 77 78  1  0
 78 79  2  0
 80 79  1  0
 80 84  1  0
 81 80  2  0
 82 77  2  0
 82 81  1  0
 83 82  1  0
 85 86  1  0
 86 89  1  0
 86 88  1  0
 87 85  2  0
 90 91  1  0
 90 65  1  0
 92 90  1  0
M  ISO  4   6 101   7 101  55 100  63 100
M  END
>  <TORSDO>  (73) 
F 24

>  <SCORE>  (73) 
-10.793

>  <name>  (73) 
73

>  <ligand_id>  (73) 
73

>  <original_smiles>  (73) 
[H]c1c([H])c([H])c2c(c1[H])C([H])([H])C([H])([H])C([H])([H])C2([H])N([H])C(=O)C1([H])N(C(=O)C([H])(N([H])C(=O)C([H])(N([H])C([H])([H])[H])C([H])([H])[H])C(C([H])([H])[H])(C([H])([H])[H])C([H])([H])[H])C([H])([H])c2c([H])c(OC([H])([H])C([H])([H])C([H])([H])[N+]([H])([H])C([H])(C(=O)C([H])([H])[H])C([H])([H])C([H])([H])C([H])([H])N([H])C(=O)N3C([H])([H])C([H])([H])C([H])([H])C([H])(n4nc(-c5c([H])c([H])c(Oc6c([H])c([H])c(F)c([H])c6F)c([H])c5[H])c(C(=O)N([H])[H])c4N([H])[H])C3([H])[H])c([H])c([H])c2C1([H])[H]

>  <smiles>  (73) 
[H]c1c([H])c([H])c2c(c1[H])C([H])([H])C([H])([H])C([H])([H])C2([H])N([H])C(=O)C1([H])N(C(=O)C([H])(N([H])C(=O)C([H])(N([H])C([H])([H])[H])C([H])([H])[H])C(C([H])([H])[H])(C([H])([H])[H])C([H])([H])[H])C([H])([H])c2c([H])c(OC([H])([H])C([H])([H])C([H])([H])[N+]([H])([H])C([H])(C(=O)C([H])([H])[H])C([H])([H])C([H])([H])C([H])([H])N([H])C(=O)N3C([H])([H])C([H])([H])C([H])([H])C([H])(n4nc(-c5c([H])c([H])c(Oc6c([H])c([H])c(F)c([H])c6F)c([H])c5[H])c(C(=O)N([H])[H])c4N([H])[H])C3([H])[H])c([H])c([H])c2C1([H])[H]

$$$$
74:0:0
     RDKit          3D

 94102  0  0  1  0  0  0  0  0999 V2000
  -30.6680  -20.1580   20.0400 C   0  0  0  0  0  2  0  0  0  0  0  0
  -30.6850  -20.3640   22.5040 C   0  0  0  0  0  2  0  0  0  0  0  0
  -29.6490  -21.3340   19.9730 C   0  0  0  0  0  2  0  0  0  0  0  0
  -29.6260  -21.4740   22.4110 C   0  0  0  0  0  2  0  0  0  0  0  0
  -30.5860  -19.3310   21.3520 C   0  0  0  0  0  3  0  0  0  0  0  0
  -29.7340  -22.2490   21.1490 N   0  0  2  0  0  4  0  0  0  0  0  0
  -30.6540  -22.6650   21.1520 H   0  0  0  0  0  0  0  0  0  0  0  0
  -28.7390  -23.3690   21.1290 C   0  0  0  0  0  2  0  0  0  0  0  0
  -29.1070  -24.6160   20.2670 C   0  0  0  0  0  2  0  0  0  0  0  0
  -28.8120  -25.9670   20.9750 C   0  0  0  0  0  2  0  0  0  0  0  0
  -28.8430  -27.1200   20.1100 O   0  0  0  0  0  0  0  0  0  0  0  0
  -24.7120  -31.9760   23.2800 C   0  0  0  0  0  0  0  0  0  0  0  0
  -27.6520  -27.8150   20.0880 C   0  0  0  0  0  0  0  0  0  0  0  0
  -23.6040  -30.5370   21.6020 C   0  0  0  0  0  3  0  0  0  0  0  0
  -25.1600  -29.1460   20.1320 C   0  0  0  0  0  0  0  0  0  0  0  0
  -26.0980  -31.0790   21.4120 C   0  0  0  0  0  2  0  0  0  0  0  0
  -26.2790  -29.7370   20.7320 C   0  0  0  0  0  0  0  0  0  0  0  0
  -27.5320  -29.0810   20.7050 C   0  0  0  0  0  3  0  0  0  0  0  0
  -26.5200  -27.2400   19.4750 C   0  0  0  0  0  3  0  0  0  0  0  0
  -25.2740  -27.8970   19.4980 C   0  0  0  0  0  3  0  0  0  0  0  0
  -23.8570  -29.9110   20.2040 C   0  0  0  0  0  2  0  0  0  0  0  0
  -24.8220  -31.2110   22.1560 N   0  0  0  0  0  0  0  0  0  0  0  0
  -23.6160  -32.1580   23.8270 O   0  0  0  0  0  0  0  0  0  0  0  0
  -23.0280  -29.4490   22.5350 C   0  0  0  0  0  0  0  0  0  0  0  0
  -21.7370  -29.1260   22.3530 N   0  0  0  0  0  0  0  0  0  0  0  0
  -23.7410  -28.8970   23.3780 O   0  0  0  0  0  0  0  0  0  0  0  0
  -21.2200  -29.6280   21.6450 H   0  0  0  0  0  0  0  0  0  0  0  0
  -18.5100  -27.5290   22.6640 C   0  0  0  0  0  0  0  0  0  0  0  0
  -20.9950  -28.1040   23.0900 C   0  0  0  0  0  3  0  0  0  0  0  0
  -21.3090  -26.6900   22.5490 C   0  0  0  0  0  2  0  0  0  0  0  0
  -20.3220  -26.2220   21.4740 C   0  0  0  0  0  2  0  0  0  0  0  0
  -18.8940  -26.2040   22.0270 C   0  0  0  0  0  2  0  0  0  0  0  0
  -19.4970  -28.4280   23.1480 C   0  0  0  0  0  0  0  0  0  0  0  0
  -19.0880  -29.6630   23.6980 C   0  0  0  0  0  3  0  0  0  0  0  0
  -17.7250  -30.0010   23.7720 C   0  0  0  0  0  3  0  0  0  0  0  0
  -16.7520  -29.1010   23.3050 C   0  0  0  0  0  3  0  0  0  0  0  0
  -17.1450  -27.8670   22.7570 C   0  0  0  0  0  3  0  0  0  0  0  0
  -25.9530  -32.6790   23.9160 C   0  0  0  0  0  3  0  0  0  0  0  0
  -25.5700  -34.0650   24.2160 N   0  0  0  0  0  0  0  0  0  0  0  0
  -25.8750  -35.1200   23.4490 C   0  0  0  0  0  0  0  0  0  0  0  0
  -26.5780  -35.0330   22.4380 O   0  0  0  0  0  0  0  0  0  0  0  0
  -24.9470  -34.2030   24.9980 H   0  0  0  0  0  0  0  0  0  0  0  0
  -24.0710  -36.8200   23.0210 C   0  0  0  0  0  1  0  0  0  0  0  0
  -25.3090  -36.4900   23.8690 C   0  0  0  0  0  3  0  0  0  0  0  0
  -27.3850  -37.4840   24.7270 C   0  0  0  0  0  1  0  0  0  0  0  0
  -26.2930  -37.5900   23.7630 N   0  0  0  0  0  0  0  0  0  0  0  0
  -25.8410  -38.4920   23.8940 H   0  0  0  0  0  0  0  0  0  0  0  0
  -26.4840  -31.9520   25.2140 C   0  0  1  0  0  0  0  0  0  0  0  0
  -25.3810  -31.6510   26.2550 C   0  0  0  0  0  1  0  0  0  0  0  0
  -27.1650  -30.6130   24.8480 C   0  0  0  0  0  1  0  0  0  0  0  0
  -27.5630  -32.8230   25.8960 C   0  0  0  0  0  1  0  0  0  0  0  0
  -31.6930  -18.2220   21.4930 C   0  0  0  0  0  3  0  0  0  0  0  0
  -30.4260  -16.9690   23.4620 C   0  0  0  0  0  1  0  0  0  0  0  0
  -31.7410  -17.5520   22.9030 C   0  0  0  0  0  2  0  0  0  0  0  0
  -31.8550  -17.1810   20.3200 C   0  0  0  0  0  3  0  0  0  0  0  0
  -33.7750  -18.1910   18.9170 C   0  0  0  0  0  1  0  0  0  0  0  0
  -33.3540  -17.0960   19.9090 C   0  0  0  0  0  2  0  0  0  0  0  0
  -31.2450  -15.7710   20.6150 C   0  0  0  0  0  2  0  0  0  0  0  0
  -31.7140  -14.5790   19.7400 C   0  0  0  0  0  0  0  0  0  0  0  0
  -31.3070  -12.3010   18.8510 C   0  0  0  0  0  2  0  0  0  0  0  0
  -30.3070  -12.3430   17.6790 C   0  0  0  0  0  2  0  0  0  0  0  0
  -28.8570  -12.2910   18.1940 C   0  0  0  0  0  2  0  0  0  0  0  0
  -28.5930  -13.3150   19.3300 C   0  0  0  0  0  3  0  0  0  0  0  0
  -29.6950  -13.2350   20.4110 C   0  0  0  0  0  2  0  0  0  0  0  0
  -30.9990  -13.4210   19.7530 N   0  0  0  0  0  0  0  0  0  0  0  0
  -32.7180  -14.7130   19.0320 O   0  0  0  0  0  0  0  0  0  0  0  0
  -26.3140  -14.1060   20.2310 C   0  0  0  0  0  0  0  0  0  0  0  0
  -25.2100  -13.4190   20.6590 C   0  0  0  0  0  0  0  0  0  0  0  0
  -25.5440  -12.0330   20.5560 C   0  0  0  0  0  0  0  0  0  0  0  0
  -27.2580  -13.1460   19.9010 N   0  0  0  0  0  0  0  0  0  0  0  0
  -26.8000  -11.8910   20.1500 N   0  0  0  0  0  0  0  0  0  0  0  0
  -24.7230  -10.8340   20.7680 C   0  0  0  0  0  0  0  0  0  0  0  0
  -25.0680   -9.8650   21.7360 C   0  0  0  0  0  3  0  0  0  0  0  0
  -24.2530   -8.7300   21.9350 C   0  0  0  0  0  3  0  0  0  0  0  0
  -23.0790   -8.5550   21.1640 C   0  0  0  0  0  0  0  0  0  0  0  0
  -22.7520   -9.5110   20.1860 C   0  0  0  0  0  3  0  0  0  0  0  0
  -23.5670  -10.6380   19.9870 C   0  0  0  0  0  3  0  0  0  0  0  0
  -22.2420   -7.4710   21.2700 O   0  0  0  0  0  0  0  0  0  0  0  0
  -22.0140   -6.8510   22.4730 C   0  0  0  0  0  0  0  0  0  0  0  0
  -21.4770   -7.5460   23.5780 C   0  0  0  0  0  3  0  0  0  0  0  0
  -21.1940   -6.8540   24.7730 C   0  0  0  0  0  3  0  0  0  0  0  0
  -21.4380   -5.4710   24.8620 C   0  0  0  0  0  0  0  0  0  0  0  0
  -21.9670   -4.7770   23.7590 C   0  0  0  0  0  3  0  0  0  0  0  0
  -22.2510   -5.4650   22.5670 C   0  0  0  0  0  0  0  0  0  0  0  0
  -22.7410   -4.7880   21.5010 F   0  0  0  0  0  0  0  0  0  0  0  0
  -21.1590   -4.8050   26.0070 F   0  0  0  0  0  0  0  0  0  0  0  0
  -23.8850  -14.0070   21.0530 C   0  0  0  0  0  0  0  0  0  0  0  0
  -23.1740  -13.3570   21.9680 N   0  0  0  0  0  0  0  0  0  0  0  0
  -23.4950  -15.0750   20.5830 O   0  0  0  0  0  0  0  0  0  0  0  0
  -23.5060  -12.4920   22.3680 H   0  0  0  0  0  0  0  0  0  0  0  0
  -22.2870  -13.7310   22.2730 H   0  0  0  0  0  0  0  0  0  0  0  0
  -26.5870  -15.4620   20.0770 N   0  0  0  0  0  0  0  0  0  0  0  0
  -25.8930  -16.1780   20.2610 H   0  0  0  0  0  0  0  0  0  0  0  0
  -27.4560  -15.8350   19.7150 H   0  0  0  0  0  0  0  0  0  0  0  0
  1  5  1  0
  3  1  1  0
  3  6  1  0
  4  2  1  0
  5 52  1  0
  5  2  1  0
  6  7  1  1
  6  4  1  0
  8  6  1  0
  9 10  1  0
  9  8  1  0
 11 10  1  0
 12 23  2  0
 13 11  1  0
 13 18  1  0
 14 22  1  0
 14 24  1  0
 15 21  1  0
 15 17  1  0
 16 22  1  0
 17 16  1  0
 18 17  2  0
 19 20  1  0
 19 13  2  0
 20 15  2  0
 21 14  1  0
 22 12  1  0
 24 26  2  0
 25 24  1  0
 27 25  1  0
 28 37  2  0
 28 33  1  0
 29 25  1  0
 29 33  1  0
 30 29  1  0
 31 32  1  0
 31 30  1  0
 32 28  1  0
 33 34  2  0
 34 35  1  0
 36 35  2  0
 37 36  1  0
 38 12  1  0
 38 39  1  0
 38 48  1  0
 39 42  1  0
 40 44  1  0
 40 39  1  0
 41 40  2  0
 44 43  1  0
 46 44  1  0
 46 47  1  0
 46 45  1  0
 48 51  1  1
 48 49  1  0
 50 48  1  0
 52 54  1  0
 54 53  1  0
 55 57  1  0
 55 58  1  0
 55 52  1  0
 56 57  1  0
 59 65  1  0
 59 58  1  0
 60 65  1  0
 61 62  1  0
 61 60  1  0
 63 62  1  0
 63 70  1  0
 63 64  1  0
 65 64  1  0
 66 59  2  0
 67 68  2  0
 68 87  1  0
 69 68  1  0
 69 72  1  0
 70 71  1  0
 70 67  1  0
 71 69  2  0
 72 73  1  0
 73 74  2  0
 75 78  1  0
 75 74  1  0
 76 75  2  0
 77 76  1  0
 77 72  2  0
 78 79  1  0
 79 84  2  0
 79 80  1  0
 80 81  2  0
 81 82  1  0
 82 86  1  0
 83 82  2  0
 84 83  1  0
 85 84  1  0
 87 88  1  0
 88 91  1  0
 88 90  1  0
 89 87  2  0
 92 67  1  0
 92 93  1  0
 94 92  1  0
M  ISO  4  10 101  11 101  58 100  59 100
M  END
>  <TORSDO>  (74) 
F 24

>  <SCORE>  (74) 
-9.078

>  <name>  (74) 
74

>  <ligand_id>  (74) 
74

>  <original_smiles>  (74) 
[H]c1c([H])c([H])c2c(c1[H])C([H])([H])C([H])([H])C([H])([H])C2([H])N([H])C(=O)C1([H])N(C(=O)C([H])(N([H])C(=O)C([H])(N([H])C([H])([H])[H])C([H])([H])[H])C(C([H])([H])[H])(C([H])([H])[H])C([H])([H])[H])C([H])([H])c2c([H])c(OC([H])([H])C([H])([H])C([H])([H])[N+]3([H])C([H])([H])C([H])([H])C([H])(C([H])(C([H])([H])C([H])([H])[H])C([H])(C([H])([H])C(=O)N4C([H])([H])C([H])([H])C([H])([H])C([H])(n5nc(-c6c([H])c([H])c(Oc7c([H])c([H])c(F)c([H])c7F)c([H])c6[H])c(C(=O)N([H])[H])c5N([H])[H])C4([H])[H])C([H])([H])C([H])([H])[H])C([H])([H])C3([H])[H])c([H])c([H])c2C1([H])[H]

>  <smiles>  (74) 
[H]c1c([H])c([H])c2c(c1[H])C([H])([H])C([H])([H])C([H])([H])C2([H])N([H])C(=O)C1([H])N(C(=O)C([H])(N([H])C(=O)C([H])(N([H])C([H])([H])[H])C([H])([H])[H])C(C([H])([H])[H])(C([H])([H])[H])C([H])([H])[H])C([H])([H])c2c([H])c(OC([H])([H])C([H])([H])C([H])([H])[N+]3([H])C([H])([H])C([H])([H])C([H])(C([H])(C([H])([H])C([H])([H])[H])C([H])(C([H])([H])C(=O)N4C([H])([H])C([H])([H])C([H])([H])C([H])(n5nc(-c6c([H])c([H])c(Oc7c([H])c([H])c(F)c([H])c7F)c([H])c6[H])c(C(=O)N([H])[H])c5N([H])[H])C4([H])[H])C([H])([H])C([H])([H])[H])C([H])([H])C3([H])[H])c([H])c([H])c2C1([H])[H]

$$$$
75:0:0
     RDKit          3D

 92100  0  0  1  0  0  0  0  0999 V2000
  -32.0900  -14.4040   20.6650 C   0  0  0  0  0  0  0  0  0  0  0  0
  -32.0020  -11.8940   21.3180 C   0  0  0  0  0  2  0  0  0  0  0  0
  -31.3620  -10.9850   20.2360 C   0  0  0  0  0  2  0  0  0  0  0  0
  -29.8270  -10.9670   20.3570 C   0  0  0  0  0  2  0  0  0  0  0  0
  -29.2500  -12.3810   20.5980 C   0  0  0  0  0  3  0  0  0  0  0  0
  -30.0190  -13.1270   21.7080 C   0  0  0  0  0  2  0  0  0  0  0  0
  -31.4060  -13.2780   21.2180 N   0  0  0  0  0  0  0  0  0  0  0  0
  -33.3230  -14.2730   20.7160 O   0  0  0  0  0  0  0  0  0  0  0  0
  -29.5830  -17.3120   19.7110 C   0  0  0  0  0  2  0  0  0  0  0  0
  -30.1270  -15.9620   20.2700 C   0  0  0  0  0  2  0  0  0  0  0  0
  -32.0780  -16.6510   18.8470 C   0  0  0  0  0  3  0  0  0  0  0  0
  -29.6730  -17.4900   18.1760 C   0  0  0  0  0  3  0  0  0  0  0  0
  -31.1670  -17.6910   17.7470 C   0  0  0  0  0  0  0  0  0  0  0  0
  -31.4820  -15.5220   19.8830 N   0  0  0  0  0  0  0  0  0  0  0  0
  -26.9230  -13.4300   20.7610 C   0  0  0  0  0  0  0  0  0  0  0  0
  -25.6820  -12.8990   20.9640 C   0  0  0  0  0  0  0  0  0  0  0  0
  -25.8790  -11.4940   21.1360 C   0  0  0  0  0  0  0  0  0  0  0  0
  -27.8100  -12.3670   20.8230 N   0  0  0  0  0  0  0  0  0  0  0  0
  -27.1750  -11.2020   21.1120 N   0  0  0  0  0  0  0  0  0  0  0  0
  -24.9000  -10.4080   21.2570 C   0  0  0  0  0  0  0  0  0  0  0  0
  -25.0510   -9.3760   22.2100 C   0  0  0  0  0  3  0  0  0  0  0  0
  -24.0820   -8.3550   22.3200 C   0  0  0  0  0  3  0  0  0  0  0  0
  -22.9450   -8.3620   21.4780 C   0  0  0  0  0  0  0  0  0  0  0  0
  -22.8120   -9.3780   20.5140 C   0  0  0  0  0  3  0  0  0  0  0  0
  -23.7800  -10.3890   20.4000 C   0  0  0  0  0  3  0  0  0  0  0  0
  -21.9660   -7.4000   21.4980 O   0  0  0  0  0  0  0  0  0  0  0  0
  -21.8570   -6.5050   22.5330 C   0  0  0  0  0  0  0  0  0  0  0  0
  -21.4600   -6.9090   23.8260 C   0  0  0  0  0  3  0  0  0  0  0  0
  -21.2920   -5.9480   24.8420 C   0  0  0  0  0  3  0  0  0  0  0  0
  -21.5120   -4.5840   24.5680 C   0  0  0  0  0  0  0  0  0  0  0  0
  -21.9030   -4.1800   23.2790 C   0  0  0  0  0  3  0  0  0  0  0  0
  -22.0730   -5.1390   22.2650 C   0  0  0  0  0  0  0  0  0  0  0  0
  -22.4280   -4.7420   21.0190 F   0  0  0  0  0  0  0  0  0  0  0  0
  -21.3450   -3.6600   25.5430 F   0  0  0  0  0  0  0  0  0  0  0  0
  -24.3780  -13.6380   20.8920 C   0  0  0  0  0  0  0  0  0  0  0  0
  -23.4020  -13.2330   21.6930 N   0  0  0  0  0  0  0  0  0  0  0  0
  -24.2380  -14.6160   20.1570 O   0  0  0  0  0  0  0  0  0  0  0  0
  -23.5280  -12.4450   22.3110 H   0  0  0  0  0  0  0  0  0  0  0  0
  -22.5120  -13.7130   21.6880 H   0  0  0  0  0  0  0  0  0  0  0  0
  -27.3590  -14.7230   20.4930 N   0  0  0  0  0  0  0  0  0  0  0  0
  -26.7110  -15.4900   20.3630 H   0  0  0  0  0  0  0  0  0  0  0  0
  -28.3110  -14.9680   20.2600 H   0  0  0  0  0  0  0  0  0  0  0  0
  -31.6010  -18.9030   16.4790 C   0  0  0  0  0  2  0  0  0  0  0  0
  -31.9940  -21.3650   17.5700 C   0  0  0  0  0  1  0  0  0  0  0  0
  -31.9840  -20.6290   16.2260 C   0  0  0  0  0  3  0  0  0  0  0  0
  -31.5600  -21.7930   14.9400 C   0  0  0  0  0  2  0  0  0  0  0  0
  -32.2180  -23.1830   14.3970 O   0  0  0  0  0  0  0  0  0  0  0  0
  -33.4360  -28.6060   19.4310 C   0  0  0  0  0  0  0  0  0  0  0  0
  -31.9830  -24.5540   14.9030 C   0  0  0  0  0  0  0  0  0  0  0  0
  -31.2910  -28.5990   18.2180 C   0  0  0  0  0  3  0  0  0  0  0  0
  -31.1760  -27.1360   16.0890 C   0  0  0  0  0  0  0  0  0  0  0  0
  -33.4000  -27.6600   17.0760 C   0  0  0  0  0  2  0  0  0  0  0  0
  -32.5040  -26.7130   16.2330 C   0  0  0  0  0  0  0  0  0  0  0  0
  -32.9070  -25.4460   15.6260 C   0  0  0  0  0  3  0  0  0  0  0  0
  -30.7000  -25.1220   14.7460 C   0  0  0  0  0  3  0  0  0  0  0  0
  -30.2980  -26.3540   15.3220 C   0  0  0  0  0  3  0  0  0  0  0  0
  -30.7350  -28.4260   16.7770 C   0  0  0  0  0  2  0  0  0  0  0  0
  -32.7550  -28.2810   18.2860 N   0  0  0  0  0  0  0  0  0  0  0  0
  -32.8730  -29.1570   20.3910 O   0  0  0  0  0  0  0  0  0  0  0  0
  -30.4410  -27.7610   19.2070 C   0  0  0  0  0  0  0  0  0  0  0  0
  -29.1240  -27.6430   18.9510 N   0  0  0  0  0  0  0  0  0  0  0  0
  -30.9730  -27.2130   20.1750 O   0  0  0  0  0  0  0  0  0  0  0  0
  -28.7500  -28.1360   18.1520 H   0  0  0  0  0  0  0  0  0  0  0  0
  -25.7940  -26.2100   18.9160 C   0  0  0  0  0  0  0  0  0  0  0  0
  -28.1700  -26.8420   19.7240 C   0  0  0  0  0  3  0  0  0  0  0  0
  -28.4920  -25.3330   19.6190 C   0  0  0  0  0  2  0  0  0  0  0  0
  -27.7260  -24.6290   18.4940 C   0  0  0  0  0  2  0  0  0  0  0  0
  -26.2150  -24.7640   18.7080 C   0  0  0  0  0  2  0  0  0  0  0  0
  -26.7160  -27.1860   19.3780 C   0  0  0  0  0  0  0  0  0  0  0  0
  -26.2800  -28.5210   19.5260 C   0  0  0  0  0  3  0  0  0  0  0  0
  -24.9550  -28.8850   19.2190 C   0  0  0  0  0  3  0  0  0  0  0  0
  -24.0430  -27.9100   18.7770 C   0  0  0  0  0  3  0  0  0  0  0  0
  -24.4620  -26.5750   18.6310 C   0  0  0  0  0  3  0  0  0  0  0  0
  -34.9610  -28.3200   19.5820 C   0  0  0  0  0  3  0  0  0  0  0  0
  -35.5670  -29.4590   20.2950 N   0  0  0  0  0  0  0  0  0  0  0  0
  -36.4780  -30.2930   19.7750 C   0  0  0  0  0  0  0  0  0  0  0  0
  -36.9460  -30.1460   18.6430 O   0  0  0  0  0  0  0  0  0  0  0  0
  -35.1870  -29.6730   21.2050 H   0  0  0  0  0  0  0  0  0  0  0  0
  -36.5860  -32.8030   19.9570 C   0  0  0  0  0  1  0  0  0  0  0  0
  -36.9460  -31.4770   20.6460 C   0  0  0  0  0  3  0  0  0  0  0  0
  -38.8030  -30.3010   21.7410 C   0  0  0  0  0  1  0  0  0  0  0  0
  -38.3940  -31.4540   20.9430 N   0  0  0  0  0  0  0  0  0  0  0  0
  -38.6720  -32.2970   21.4390 H   0  0  0  0  0  0  0  0  0  0  0  0
  -35.2650  -26.9720   20.3480 C   0  0  1  0  0  0  0  0  0  0  0  0
  -34.6060  -26.8870   21.7450 C   0  0  0  0  0  1  0  0  0  0  0  0
  -34.7850  -25.7510   19.5300 C   0  0  0  0  0  1  0  0  0  0  0  0
  -36.7920  -26.8080   20.5340 C   0  0  0  0  0  1  0  0  0  0  0  0
  -28.5270  -18.3740   17.5960 C   0  0  0  0  0  3  0  0  0  0  0  0
  -26.9110  -20.3690   17.8350 C   0  0  0  0  0  1  0  0  0  0  0  0
  -28.0680  -19.5670   18.4600 C   0  0  0  0  0  2  0  0  0  0  0  0
  -28.7810  -18.7650   16.2620 O   0  0  0  0  0  0  0  0  0  0  0  0
  -28.0450  -19.2940   15.9730 H   0  0  0  0  0  0  0  0  0  0  0  0
  1  8  2  0
  1  7  1  0
  3  4  1  0
  3  2  1  0
  5  4  1  0
  5 18  1  0
  5  6  1  0
  7  2  1  0
  7  6  1  0
  9 10  1  0
 11 14  1  0
 12 88  1  0
 12  9  1  0
 13 12  1  0
 13 11  2  0
 14 10  1  0
 14  1  1  0
 15 18  1  0
 15 16  2  0
 16 17  1  0
 17 20  1  0
 18 19  1  0
 19 17  2  0
 20 21  1  0
 21 22  2  0
 23 26  1  0
 23 22  1  0
 24 23  2  0
 25 24  1  0
 25 20  2  0
 26 27  1  0
 27 28  1  0
 28 29  2  0
 30 29  1  0
 30 34  1  0
 31 30  2  0
 32 27  2  0
 32 31  1  0
 33 32  1  0
 35 16  1  0
 35 36  1  0
 36 38  1  0
 37 35  2  0
 39 36  1  0
 40 15  1  0
 41 40  1  0
 42 40  1  0
 43 13  1  0
 45 43  1  0
 45 44  1  0
 46 45  1  0
 47 49  1  0
 47 46  1  0
 48 59  2  0
 49 54  1  0
 50 58  1  0
 50 60  1  0
 51 53  1  0
 51 57  1  0
 52 58  1  0
 53 52  1  0
 54 53  2  0
 55 49  2  0
 55 56  1  0
 56 51  2  0
 57 50  1  0
 58 48  1  0
 60 62  2  0
 61 60  1  0
 63 61  1  0
 64 69  1  0
 65 61  1  0
 66 65  1  0
 67 68  1  0
 67 66  1  0
 68 64  1  0
 69 70  2  0
 69 65  1  0
 71 70  1  0
 72 71  2  0
 73 72  1  0
 73 64  2  0
 74 48  1  0
 74 75  1  0
 74 84  1  0
 75 78  1  0
 76 75  1  0
 76 80  1  0
 77 76  2  0
 80 79  1  0
 80 82  1  0
 82 83  1  0
 82 81  1  0
 84 87  1  1
 84 85  1  0
 86 84  1  0
 88 90  1  0
 89 90  1  0
 91 88  1  0
 92 91  1  0
M  ISO  4   1 100  14 100  46 101  47 101
M  END
>  <TORSDO>  (75) 
F 21

>  <SCORE>  (75) 
-8.353

>  <name>  (75) 
75

>  <ligand_id>  (75) 
75

>  <original_smiles>  (75) 
[H]OC([H])(C([H])([H])C([H])([H])[H])C1([H])C([H])([H])C([H])([H])N(C(=O)N2C([H])([H])C([H])([H])C([H])([H])C([H])(n3nc(-c4c([H])c([H])c(Oc5c([H])c([H])c(F)c([H])c5F)c([H])c4[H])c(C(=O)N([H])[H])c3N([H])[H])C2([H])[H])C([H])([H])C1([H])C([H])([H])C([H])(C([H])([H])[H])C([H])([H])Oc1c([H])c([H])c2c(c1[H])C([H])([H])N(C(=O)C([H])(N([H])C(=O)C([H])(N([H])C([H])([H])[H])C([H])([H])[H])C(C([H])([H])[H])(C([H])([H])[H])C([H])([H])[H])C([H])(C(=O)N([H])C1([H])c3c([H])c([H])c([H])c([H])c3C([H])([H])C([H])([H])C1([H])[H])C2([H])[H]

>  <smiles>  (75) 
[H]OC([H])(C([H])([H])C([H])([H])[H])C1([H])C([H])([H])C([H])([H])N(C(=O)N2C([H])([H])C([H])([H])C([H])([H])C([H])(n3nc(-c4c([H])c([H])c(Oc5c([H])c([H])c(F)c([H])c5F)c([H])c4[H])c(C(=O)N([H])[H])c3N([H])[H])C2([H])[H])C([H])([H])C1([H])C([H])([H])C([H])(C([H])([H])[H])C([H])([H])Oc1c([H])c([H])c2c(c1[H])C([H])([H])N(C(=O)C([H])(N([H])C(=O)C([H])(N([H])C([H])([H])[H])C([H])([H])[H])C(C([H])([H])[H])(C([H])([H])[H])C([H])([H])[H])C([H])(C(=O)N([H])C1([H])c3c([H])c([H])c([H])c([H])c3C([H])([H])C([H])([H])C1([H])[H])C2([H])[H]

$$$$
76:0:0
     RDKit          3D

 91 98  0  0  1  0  0  0  0  0999 V2000
  -29.1830  -20.9110   20.7120 C   0  0  0  0  0  3  0  0  0  0  0  0
  -30.8340  -22.7380   19.7500 C   0  0  0  0  0  1  0  0  0  0  0  0
  -29.3500  -22.3070   19.8330 C   0  0  0  0  0  3  0  0  0  0  0  0
  -28.3500  -23.6420   19.7990 C   0  0  0  0  0  2  0  0  0  0  0  0
  -28.2850  -24.9980   20.7250 C   0  0  0  0  0  2  0  0  0  0  0  0
  -28.3280  -26.4300   20.2060 O   0  0  0  0  0  0  0  0  0  0  0  0
  -24.5980  -31.9570   23.2200 C   0  0  0  0  0  0  0  0  0  0  0  0
  -27.2060  -27.3060   20.2250 C   0  0  0  0  0  0  0  0  0  0  0  0
  -23.3930  -30.5370   21.5990 C   0  0  0  0  0  3  0  0  0  0  0  0
  -24.8420  -28.9620   20.1870 C   0  0  0  0  0  0  0  0  0  0  0  0
  -25.9290  -30.8480   21.4020 C   0  0  0  0  0  2  0  0  0  0  0  0
  -26.0160  -29.4490   20.7780 C   0  0  0  0  0  0  0  0  0  0  0  0
  -27.1990  -28.6390   20.7780 C   0  0  0  0  0  3  0  0  0  0  0  0
  -26.0080  -26.8820   19.6170 C   0  0  0  0  0  3  0  0  0  0  0  0
  -24.8460  -27.6850   19.5950 C   0  0  0  0  0  3  0  0  0  0  0  0
  -23.6050  -29.8420   20.2260 C   0  0  0  0  0  2  0  0  0  0  0  0
  -24.6590  -31.1300   22.1300 N   0  0  0  0  0  0  0  0  0  0  0  0
  -23.5140  -32.2360   23.7580 O   0  0  0  0  0  0  0  0  0  0  0  0
  -22.7320  -29.5300   22.5760 C   0  0  0  0  0  0  0  0  0  0  0  0
  -21.4080  -29.3440   22.4540 N   0  0  0  0  0  0  0  0  0  0  0  0
  -23.4130  -28.9240   23.4050 O   0  0  0  0  0  0  0  0  0  0  0  0
  -20.9120  -29.8740   21.7520 H   0  0  0  0  0  0  0  0  0  0  0  0
  -18.0420  -28.1150   22.9740 C   0  0  0  0  0  0  0  0  0  0  0  0
  -20.5980  -28.4090   23.2420 C   0  0  0  0  0  3  0  0  0  0  0  0
  -20.7210  -26.9730   22.6850 C   0  0  0  0  0  2  0  0  0  0  0  0
  -19.6220  -26.6200   21.6780 C   0  0  0  0  0  2  0  0  0  0  0  0
  -18.2340  -26.7610   22.3150 C   0  0  0  0  0  2  0  0  0  0  0  0
  -19.1530  -28.8940   23.3970 C   0  0  0  0  0  0  0  0  0  0  0  0
  -18.9220  -30.1600   23.9780 C   0  0  0  0  0  3  0  0  0  0  0  0
  -17.6120  -30.6520   24.1330 C   0  0  0  0  0  3  0  0  0  0  0  0
  -16.5150  -29.8700   23.7290 C   0  0  0  0  0  3  0  0  0  0  0  0
  -16.7310  -28.6040   23.1580 C   0  0  0  0  0  3  0  0  0  0  0  0
  -25.8770  -32.6030   23.8320 C   0  0  0  0  0  3  0  0  0  0  0  0
  -26.4000  -31.8430   25.1080 C   0  0  1  0  0  0  0  0  0  0  0  0
  -25.3120  -31.6190   26.1840 C   0  0  0  0  0  1  0  0  0  0  0  0
  -26.9850  -30.4670   24.7210 C   0  0  0  0  0  1  0  0  0  0  0  0
  -27.5610  -32.6410   25.7550 C   0  0  0  0  0  1  0  0  0  0  0  0
  -25.5640  -34.0010   24.1610 N   0  0  0  0  0  0  0  0  0  0  0  0
  -25.9020  -35.0530   23.4040 C   0  0  0  0  0  0  0  0  0  0  0  0
  -26.5800  -34.9490   22.3790 O   0  0  0  0  0  0  0  0  0  0  0  0
  -24.9660  -34.1580   24.9600 H   0  0  0  0  0  0  0  0  0  0  0  0
  -24.1860  -36.8460   23.0300 C   0  0  0  0  0  1  0  0  0  0  0  0
  -25.4150  -36.4400   23.8620 C   0  0  0  0  0  3  0  0  0  0  0  0
  -27.5410  -37.3060   24.7330 C   0  0  0  0  0  1  0  0  0  0  0  0
  -26.4520  -37.4910   23.7730 N   0  0  0  0  0  0  0  0  0  0  0  0
  -26.0470  -38.4100   23.9290 H   0  0  0  0  0  0  0  0  0  0  0  0
  -29.8010  -19.4540   20.2490 C   0  0  0  0  0  3  0  0  0  0  0  0
  -29.8370  -17.9930   21.1440 C   0  0  0  0  0  3  0  0  0  0  0  0
  -30.7400  -18.1290   22.3440 N   0  0  0  0  0  4  0  0  0  0  0  0
  -31.7270  -18.0460   22.1400 H   0  0  0  0  0  0  0  0  0  0  0  0
  -30.5330  -17.4760   23.0940 H   0  0  0  0  0  0  0  0  0  0  0  0
  -30.6210  -19.0320   22.7640 H   0  0  0  0  0  0  0  0  0  0  0  0
  -29.9150  -16.4690   20.3440 C   0  0  0  0  0  3  0  0  0  0  0  0
  -30.8070  -15.0970   20.6980 C   0  0  0  0  0  0  0  0  0  0  0  0
  -30.8660  -12.6590   20.0690 C   0  0  0  0  0  2  0  0  0  0  0  0
  -30.0720  -12.5010   18.7520 C   0  0  0  0  0  2  0  0  0  0  0  0
  -28.5690  -12.2880   19.0390 C   0  0  0  0  0  2  0  0  0  0  0  0
  -28.0190  -13.3130   20.0690 C   0  0  0  0  0  3  0  0  0  0  0  0
  -28.9470  -13.4270   21.2900 C   0  0  0  0  0  2  0  0  0  0  0  0
  -30.2790  -13.8110   20.8040 N   0  0  0  0  0  0  0  0  0  0  0  0
  -32.0350  -15.1800   20.6150 O   0  0  0  0  0  0  0  0  0  0  0  0
  -25.5820  -13.9350   20.5920 C   0  0  0  0  0  0  0  0  0  0  0  0
  -24.4910  -13.1890   20.8890 C   0  0  0  0  0  0  0  0  0  0  0  0
  -24.9390  -11.8260   20.9440 C   0  0  0  0  0  0  0  0  0  0  0  0
  -26.6380  -13.0470   20.4550 N   0  0  0  0  0  0  0  0  0  0  0  0
  -26.2540  -11.7780   20.7440 N   0  0  0  0  0  0  0  0  0  0  0  0
  -24.1950  -10.5750   21.1100 C   0  0  0  0  0  0  0  0  0  0  0  0
  -24.5500   -9.6270   22.0900 C   0  0  0  0  0  3  0  0  0  0  0  0
  -23.8050   -8.4390   22.2420 C   0  0  0  0  0  3  0  0  0  0  0  0
  -22.6900   -8.1890   21.4100 C   0  0  0  0  0  0  0  0  0  0  0  0
  -22.3520   -9.1260   20.4150 C   0  0  0  0  0  3  0  0  0  0  0  0
  -23.0990  -10.3060   20.2630 C   0  0  0  0  0  3  0  0  0  0  0  0
  -21.9220   -7.0520   21.4680 O   0  0  0  0  0  0  0  0  0  0  0  0
  -21.7890   -6.3280   22.6250 C   0  0  0  0  0  0  0  0  0  0  0  0
  -21.2780   -6.9020   23.8100 C   0  0  0  0  0  3  0  0  0  0  0  0
  -21.0940   -6.1040   24.9570 C   0  0  0  0  0  3  0  0  0  0  0  0
  -21.4120   -4.7360   24.9210 C   0  0  0  0  0  0  0  0  0  0  0  0
  -21.9140   -4.1580   23.7410 C   0  0  0  0  0  3  0  0  0  0  0  0
  -22.1000   -4.9510   22.5970 C   0  0  0  0  0  0  0  0  0  0  0  0
  -22.5650   -4.3890   21.4560 F   0  0  0  0  0  0  0  0  0  0  0  0
  -21.2260   -3.9670   26.0200 F   0  0  0  0  0  0  0  0  0  0  0  0
  -23.0710  -13.6710   21.0190 C   0  0  0  0  0  0  0  0  0  0  0  0
  -22.2640  -13.0250   21.8420 N   0  0  0  0  0  0  0  0  0  0  0  0
  -22.6900  -14.6760   20.4100 O   0  0  0  0  0  0  0  0  0  0  0  0
  -22.5810  -12.2300   22.3800 H   0  0  0  0  0  0  0  0  0  0  0  0
  -21.3060  -13.3310   21.9460 H   0  0  0  0  0  0  0  0  0  0  0  0
  -25.7690  -15.3060   20.3840 N   0  0  0  0  0  0  0  0  0  0  0  0
  -24.9930  -15.9560   20.4180 H   0  0  0  0  0  0  0  0  0  0  0  0
  -26.6390  -15.7390   20.1050 H   0  0  0  0  0  0  0  0  0  0  0  0
  -30.9510  -17.0000   17.6400 C   0  0  0  0  0  1  0  0  0  0  0  0
  -29.8600  -16.8220   18.7800 C   0  0  0  0  0  2  0  0  0  0  0  0
  3  2  1  0
  3  1  1  0
  4  3  1  0
  4  5  1  0
  6  8  1  0
  6  5  1  0
  7 18  2  0
  8 13  1  0
  9 17  1  0
  9 19  1  0
 10 16  1  0
 10 12  1  0
 11 17  1  0
 12 13  2  0
 12 11  1  0
 14  8  2  0
 15 14  1  0
 15 10  2  0
 16  9  1  0
 17  7  1  0
 19 21  2  0
 20 19  1  0
 22 20  1  0
 23 32  2  0
 23 28  1  0
 24 20  1  0
 24 28  1  0
 25 24  1  0
 26 27  1  0
 26 25  1  0
 27 23  1  0
 28 29  2  0
 29 30  1  0
 31 30  2  0
 32 31  1  0
 33  7  1  0
 33 38  1  0
 33 34  1  0
 34 37  1  1
 34 35  1  0
 36 34  1  0
 38 41  1  0
 39 43  1  0
 39 38  1  0
 40 39  2  0
 43 42  1  0
 45 43  1  0
 45 46  1  0
 45 44  1  0
 47  1  2  0
 48 47  1  0
 48 49  1  0
 49 52  1  0
 49 51  1  0
 50 49  1  0
 53 91  1  0
 53 54  1  0
 53 48  1  0
 54 60  1  0
 55 60  1  0
 56 57  1  0
 56 55  1  0
 58 57  1  0
 58 65  1  0
 58 59  1  0
 60 59  1  0
 61 54  2  0
 62 63  2  0
 63 64  1  0
 63 82  1  0
 64 67  1  0
 65 62  1  0
 65 66  1  0
 66 64  2  0
 67 68  1  0
 68 69  2  0
 70 73  1  0
 70 69  1  0
 71 70  2  0
 72 71  1  0
 72 67  2  0
 73 74  1  0
 74 75  1  0
 75 76  2  0
 77 76  1  0
 77 81  1  0
 78 77  2  0
 79 74  2  0
 79 78  1  0
 80 79  1  0
 82 83  1  0
 83 86  1  0
 83 85  1  0
 84 82  2  0
 87 88  1  0
 87 62  1  0
 89 87  1  0
 90 91  1  0
M  ISO  4   5 101   6 101  53 100  54 100
M  END
>  <TORSDO>  (76) 
F 24

>  <SCORE>  (76) 
-12.971

>  <name>  (76) 
76

>  <ligand_id>  (76) 
76

>  <original_smiles>  (76) 
[H]c1c([H])c([H])c2c(c1[H])C([H])([H])C([H])([H])C([H])([H])C2([H])N([H])C(=O)C1([H])N(C(=O)C([H])(N([H])C(=O)C([H])(N([H])C([H])([H])[H])C([H])([H])[H])C(C([H])([H])[H])(C([H])([H])[H])C([H])([H])[H])C([H])([H])c2c([H])c(OC([H])([H])C([H])([H])C([H])(C([H])([H])[H])C([H])([H])C([H])([H])C([H])(C([H])(C(=O)N3C([H])([H])C([H])([H])C([H])([H])C([H])(n4nc(-c5c([H])c([H])c(Oc6c([H])c([H])c(F)c([H])c6F)c([H])c5[H])c(C(=O)N([H])[H])c4N([H])[H])C3([H])[H])C([H])([H])C([H])([H])[H])[N+]([H])([H])[H])c([H])c([H])c2C1([H])[H]

>  <smiles>  (76) 
[H]c1c([H])c([H])c2c(c1[H])C([H])([H])C([H])([H])C([H])([H])C2([H])N([H])C(=O)C1([H])N(C(=O)C([H])(N([H])C(=O)C([H])(N([H])C([H])([H])[H])C([H])([H])[H])C(C([H])([H])[H])(C([H])([H])[H])C([H])([H])[H])C([H])([H])c2c([H])c(OC([H])([H])C([H])([H])C([H])(C([H])([H])[H])C([H])([H])C([H])([H])C([H])(C([H])(C(=O)N3C([H])([H])C([H])([H])C([H])([H])C([H])(n4nc(-c5c([H])c([H])c(Oc6c([H])c([H])c(F)c([H])c6F)c([H])c5[H])c(C(=O)N([H])[H])c4N([H])[H])C3([H])[H])C([H])([H])C([H])([H])[H])[N+]([H])([H])[H])c([H])c([H])c2C1([H])[H]

$$$$
78:0:0
     RDKit          3D

 94102  0  0  1  0  0  0  0  0999 V2000
  -25.1540  -22.8450   19.0680 C   0  0  0  0  0  2  0  0  0  0  0  0
  -25.2010  -24.3870   19.0720 C   0  0  0  0  0  2  0  0  0  0  0  0
  -27.5670  -24.4350   20.0060 C   0  0  0  0  0  2  0  0  0  0  0  0
  -26.3470  -22.1690   19.8060 C   0  0  0  0  0  3  0  0  0  0  0  0
  -26.6270  -24.9640   18.8820 C   0  0  0  0  0  3  0  0  0  0  0  0
  -27.0010  -23.2060   20.7710 C   0  0  0  0  0  3  0  0  0  0  0  0
  -27.9680  -22.6640   21.8480 C   0  0  0  0  0  1  0  0  0  0  0  0
  -27.3230  -21.4250   18.8490 C   0  0  0  0  0  0  0  0  0  0  0  0
  -27.3900  -21.6730   17.6400 O   0  0  0  0  0  0  0  0  0  0  0  0
  -28.1880  -20.3150   19.4440 C   0  0  0  0  0  2  0  0  0  0  0  0
  -28.5840  -19.1760   18.4860 C   0  0  0  0  0  2  0  0  0  0  0  0
  -28.9140  -17.9130   19.2940 C   0  0  0  0  0  2  0  0  0  0  0  0
  -30.1890  -17.1570   18.8790 C   0  0  0  0  0  2  0  0  0  0  0  0
  -30.9810  -14.8570   19.4040 C   0  0  0  0  0  0  0  0  0  0  0  0
  -30.8170  -12.4470   18.9850 C   0  0  0  0  0  2  0  0  0  0  0  0
  -29.8300  -12.2250   17.8190 C   0  0  0  0  0  2  0  0  0  0  0  0
  -28.3880  -12.0990   18.3470 C   0  0  0  0  0  2  0  0  0  0  0  0
  -28.0040  -13.2680   19.2910 C   0  0  0  0  0  3  0  0  0  0  0  0
  -29.0990  -13.4790   20.3670 C   0  0  0  0  0  2  0  0  0  0  0  0
  -30.3950  -13.6640   19.6860 N   0  0  0  0  0  0  0  0  0  0  0  0
  -32.0500  -14.9810   18.8030 O   0  0  0  0  0  0  0  0  0  0  0  0
  -30.1990  -15.9110   19.6420 N   0  0  0  0  0  0  0  0  0  0  0  0
  -29.3620  -15.7040   20.1630 H   0  0  0  0  0  0  0  0  0  0  0  0
  -25.7110  -13.9870   20.2210 C   0  0  0  0  0  0  0  0  0  0  0  0
  -24.6370  -13.2610   20.6700 C   0  0  0  0  0  0  0  0  0  0  0  0
  -25.0180  -11.8890   20.5630 C   0  0  0  0  0  0  0  0  0  0  0  0
  -26.6850  -13.0580   19.8840 N   0  0  0  0  0  0  0  0  0  0  0  0
  -26.2730  -11.7910   20.1480 N   0  0  0  0  0  0  0  0  0  0  0  0
  -24.2400  -10.6610   20.7810 C   0  0  0  0  0  0  0  0  0  0  0  0
  -24.7030   -9.6400   21.6400 C   0  0  0  0  0  3  0  0  0  0  0  0
  -23.9270   -8.4800   21.8530 C   0  0  0  0  0  3  0  0  0  0  0  0
  -22.6760   -8.3330   21.2090 C   0  0  0  0  0  0  0  0  0  0  0  0
  -22.2310   -9.3420   20.3400 C   0  0  0  0  0  3  0  0  0  0  0  0
  -23.0070  -10.4940   20.1230 C   0  0  0  0  0  3  0  0  0  0  0  0
  -21.8690   -7.2280   21.3340 O   0  0  0  0  0  0  0  0  0  0  0  0
  -21.7670   -6.5440   22.5180 C   0  0  0  0  0  0  0  0  0  0  0  0
  -21.3360   -7.1700   23.7070 C   0  0  0  0  0  3  0  0  0  0  0  0
  -21.1740   -6.4110   24.8840 C   0  0  0  0  0  3  0  0  0  0  0  0
  -21.4410   -5.0280   24.8730 C   0  0  0  0  0  0  0  0  0  0  0  0
  -21.8670   -4.4030   23.6880 C   0  0  0  0  0  3  0  0  0  0  0  0
  -22.0280   -5.1580   22.5130 C   0  0  0  0  0  0  0  0  0  0  0  0
  -22.4170   -4.5460   21.3690 F   0  0  0  0  0  0  0  0  0  0  0  0
  -21.2780   -4.2980   26.0010 F   0  0  0  0  0  0  0  0  0  0  0  0
  -23.2990  -13.8060   21.0730 C   0  0  0  0  0  0  0  0  0  0  0  0
  -22.6390  -13.1530   22.0270 N   0  0  0  0  0  0  0  0  0  0  0  0
  -22.8520  -14.8420   20.5840 O   0  0  0  0  0  0  0  0  0  0  0  0
  -23.0120  -12.3140   22.4420 H   0  0  0  0  0  0  0  0  0  0  0  0
  -21.7480  -13.5000   22.3460 H   0  0  0  0  0  0  0  0  0  0  0  0
  -25.9250  -15.3490   20.0480 N   0  0  0  0  0  0  0  0  0  0  0  0
  -25.1740  -16.0200   20.1770 H   0  0  0  0  0  0  0  0  0  0  0  0
  -26.7340  -15.7430   19.5840 H   0  0  0  0  0  0  0  0  0  0  0  0
  -27.2160  -24.7420   17.4510 C   0  0  0  0  0  2  0  0  0  0  0  0
  -28.2130  -25.8080   16.9250 C   0  0  0  0  0  2  0  0  0  0  0  0
  -27.5990  -26.9480   16.3000 O   0  0  0  0  0  0  0  0  0  0  0  0
  -25.5030  -28.7420   22.8320 C   0  0  0  0  0  0  0  0  0  0  0  0
  -26.6300  -27.5270   17.0780 C   0  0  0  0  0  0  0  0  0  0  0  0
  -23.7430  -28.7070   21.0950 C   0  0  0  0  0  3  0  0  0  0  0  0
  -24.5670  -28.5510   18.6960 C   0  0  0  0  0  0  0  0  0  0  0  0
  -26.1730  -29.2210   20.4860 C   0  0  0  0  0  2  0  0  0  0  0  0
  -25.8980  -28.6080   19.1340 C   0  0  0  0  0  0  0  0  0  0  0  0
  -26.9390  -28.0980   18.3280 C   0  0  0  0  0  3  0  0  0  0  0  0
  -25.2990  -27.5430   16.6240 C   0  0  0  0  0  3  0  0  0  0  0  0
  -24.2590  -28.0180   17.4370 C   0  0  0  0  0  3  0  0  0  0  0  0
  -23.5120  -29.1100   19.6170 C   0  0  0  0  0  2  0  0  0  0  0  0
  -25.1710  -28.8630   21.5170 N   0  0  0  0  0  0  0  0  0  0  0  0
  -24.6350  -28.5470   23.6940 O   0  0  0  0  0  0  0  0  0  0  0  0
  -23.1940  -27.2770   21.3100 C   0  0  0  0  0  0  0  0  0  0  0  0
  -21.8630  -27.1260   21.2090 N   0  0  0  0  0  0  0  0  0  0  0  0
  -23.9560  -26.3330   21.5370 O   0  0  0  0  0  0  0  0  0  0  0  0
  -21.3060  -27.9530   21.0460 H   0  0  0  0  0  0  0  0  0  0  0  0
  -18.6180  -25.5960   20.7760 C   0  0  0  0  0  0  0  0  0  0  0  0
  -21.1270  -25.8680   21.3280 C   0  0  0  0  0  3  0  0  0  0  0  0
  -21.3890  -24.9460   20.1130 C   0  0  0  0  0  2  0  0  0  0  0  0
  -20.3490  -25.1070   18.9990 C   0  0  0  0  0  2  0  0  0  0  0  0
  -18.9460  -24.7980   19.5240 C   0  0  0  0  0  2  0  0  0  0  0  0
  -19.6410  -26.1120   21.6120 C   0  0  0  0  0  0  0  0  0  0  0  0
  -19.2800  -26.8790   22.7410 C   0  0  0  0  0  3  0  0  0  0  0  0
  -17.9280  -27.1350   23.0370 C   0  0  0  0  0  3  0  0  0  0  0  0
  -16.9180  -26.6070   22.2130 C   0  0  0  0  0  3  0  0  0  0  0  0
  -17.2640  -25.8380   21.0880 C   0  0  0  0  0  3  0  0  0  0  0  0
  -26.9820  -28.8700   23.3180 C   0  0  0  0  0  3  0  0  0  0  0  0
  -27.0130  -29.9100   24.3530 N   0  0  0  0  0  0  0  0  0  0  0  0
  -27.5500  -31.1260   24.1940 C   0  0  0  0  0  0  0  0  0  0  0  0
  -28.1400  -31.4670   23.1640 O   0  0  0  0  0  0  0  0  0  0  0  0
  -26.4990  -29.7170   25.2000 H   0  0  0  0  0  0  0  0  0  0  0  0
  -26.3760  -33.1990   24.9960 C   0  0  0  0  0  1  0  0  0  0  0  0
  -27.4110  -32.1230   25.3590 C   0  0  0  0  0  3  0  0  0  0  0  0
  -29.6370  -31.8460   26.3590 C   0  0  0  0  0  1  0  0  0  0  0  0
  -28.6880  -32.7660   25.7390 N   0  0  0  0  0  0  0  0  0  0  0  0
  -28.5260  -33.5370   26.3820 H   0  0  0  0  0  0  0  0  0  0  0  0
  -27.5750  -27.5140   23.8640 C   0  0  1  0  0  0  0  0  0  0  0  0
  -26.6880  -26.8360   24.9330 C   0  0  0  0  0  1  0  0  0  0  0  0
  -27.7830  -26.5040   22.7100 C   0  0  0  0  0  1  0  0  0  0  0  0
  -28.9700  -27.7650   24.4850 C   0  0  0  0  0  1  0  0  0  0  0  0
  1  2  1  0
  1  4  1  0
  3  6  1  0
  4  8  1  0
  4  6  1  0
  5 52  1  0
  5  2  1  0
  5  3  1  0
  6  7  1  0
  8 10  1  0
  9  8  2  0
 11 12  1  0
 11 10  1  0
 13 12  1  0
 13 22  1  0
 14 22  1  0
 14 20  1  0
 15 20  1  0
 16 17  1  0
 16 15  1  0
 18 17  1  0
 18 27  1  0
 18 19  1  0
 20 19  1  0
 21 14  2  0
 22 23  1  0
 24 25  2  0
 25 44  1  0
 26 25  1  0
 26 29  1  0
 27 28  1  0
 27 24  1  0
 28 26  2  0
 29 30  1  0
 30 31  2  0
 32 35  1  0
 32 31  1  0
 33 32  2  0
 34 33  1  0
 34 29  2  0
 35 36  1  0
 36 37  1  0
 37 38  2  0
 39 38  1  0
 39 43  1  0
 40 39  2  0
 41 36  2  0
 41 40  1  0
 42 41  1  0
 44 45  1  0
 45 48  1  0
 45 47  1  0
 46 44  2  0
 49 50  1  0
 49 24  1  0
 51 49  1  0
 53 52  1  0
 54 53  1  0
 54 56  1  0
 55 66  2  0
 56 61  1  0
 57 67  1  0
 57 65  1  0
 58 60  1  0
 58 64  1  0
 59 65  1  0
 60 59  1  0
 61 60  2  0
 62 56  2  0
 62 63  1  0
 63 58  2  0
 64 57  1  0
 65 55  1  0
 67 69  2  0
 68 67  1  0
 70 68  1  0
 71 80  2  0
 71 76  1  0
 72 68  1  0
 72 76  1  0
 73 72  1  0
 74 75  1  0
 74 73  1  0
 75 71  1  0
 76 77  2  0
 77 78  1  0
 79 78  2  0
 80 79  1  0
 81 55  1  0
 81 91  1  0
 81 82  1  0
 82 85  1  0
 83 82  1  0
 83 87  1  0
 84 83  2  0
 87 86  1  0
 87 89  1  0
 89 88  1  0
 89 90  1  0
 91 94  1  1
 91 92  1  0
 93 91  1  0
M  ISO  4  14 100  22 100  53 101  54 101
M  END
>  <TORSDO>  (77) 
F 23

>  <SCORE>  (77) 
-10.310

>  <name>  (77) 
78

>  <ligand_id>  (77) 
78

>  <original_smiles>  (77) 
[H]c1c([H])c([H])c2c(c1[H])C([H])([H])C([H])([H])C([H])([H])C2([H])N([H])C(=O)C1([H])N(C(=O)C([H])(N([H])C(=O)C([H])(N([H])C([H])([H])[H])C([H])([H])[H])C(C([H])([H])[H])(C([H])([H])[H])C([H])([H])[H])C([H])([H])c2c([H])c(OC([H])([H])C([H])([H])C3([H])C([H])([H])C([H])([H])C([H])(C(=O)C([H])([H])C([H])([H])C([H])([H])C([H])([H])N([H])C(=O)N4C([H])([H])C([H])([H])C([H])([H])C([H])(n5nc(-c6c([H])c([H])c(Oc7c([H])c([H])c(F)c([H])c7F)c([H])c6[H])c(C(=O)N([H])[H])c5N([H])[H])C4([H])[H])C([H])(C([H])([H])[H])C3([H])[H])c([H])c([H])c2C1([H])[H]

>  <smiles>  (77) 
[H]c1c([H])c([H])c2c(c1[H])C([H])([H])C([H])([H])C([H])([H])C2([H])N([H])C(=O)C1([H])N(C(=O)C([H])(N([H])C(=O)C([H])(N([H])C([H])([H])[H])C([H])([H])[H])C(C([H])([H])[H])(C([H])([H])[H])C([H])([H])[H])C([H])([H])c2c([H])c(OC([H])([H])C([H])([H])C3([H])C([H])([H])C([H])([H])C([H])(C(=O)C([H])([H])C([H])([H])C([H])([H])C([H])([H])N([H])C(=O)N4C([H])([H])C([H])([H])C([H])([H])C([H])(n5nc(-c6c([H])c([H])c(Oc7c([H])c([H])c(F)c([H])c7F)c([H])c6[H])c(C(=O)N([H])[H])c5N([H])[H])C4([H])[H])C([H])(C([H])([H])[H])C3([H])[H])c([H])c([H])c2C1([H])[H]

$$$$
79:0:0
     RDKit          3D

 90 97  0  0  1  0  0  0  0  0999 V2000
  -29.0400  -19.5790   20.1040 C   0  0  0  0  0  2  0  0  0  0  0  0
  -29.0120  -21.2610   20.7130 C   0  0  0  0  0  2  0  0  0  0  0  0
  -28.6880  -22.8620   19.9960 C   0  0  0  0  0  2  0  0  0  0  0  0
  -28.1050  -24.4040   20.6680 C   0  0  0  0  0  2  0  0  0  0  0  0
  -28.2680  -25.9820   20.3030 O   0  0  0  0  0  0  0  0  0  0  0  0
  -24.6190  -31.8850   23.2260 C   0  0  0  0  0  0  0  0  0  0  0  0
  -27.2240  -27.0260   20.2960 C   0  0  0  0  0  0  0  0  0  0  0  0
  -23.4470  -30.4710   21.5860 C   0  0  0  0  0  3  0  0  0  0  0  0
  -24.9140  -28.8620   20.2010 C   0  0  0  0  0  0  0  0  0  0  0  0
  -26.0100  -30.7050   21.4610 C   0  0  0  0  0  2  0  0  0  0  0  0
  -26.0930  -29.2910   20.8240 C   0  0  0  0  0  0  0  0  0  0  0  0
  -27.2470  -28.3960   20.8420 C   0  0  0  0  0  3  0  0  0  0  0  0
  -26.0130  -26.7280   19.6350 C   0  0  0  0  0  3  0  0  0  0  0  0
  -24.8960  -27.5990   19.5870 C   0  0  0  0  0  3  0  0  0  0  0  0
  -23.6930  -29.7780   20.2190 C   0  0  0  0  0  2  0  0  0  0  0  0
  -24.7130  -31.0470   22.1450 N   0  0  0  0  0  0  0  0  0  0  0  0
  -23.5240  -32.1760   23.7340 O   0  0  0  0  0  0  0  0  0  0  0  0
  -22.7500  -29.4790   22.5530 C   0  0  0  0  0  0  0  0  0  0  0  0
  -21.4190  -29.3170   22.4240 N   0  0  0  0  0  0  0  0  0  0  0  0
  -23.4110  -28.8550   23.3860 O   0  0  0  0  0  0  0  0  0  0  0  0
  -20.9410  -29.8720   21.7290 H   0  0  0  0  0  0  0  0  0  0  0  0
  -18.0250  -28.1480   22.9390 C   0  0  0  0  0  0  0  0  0  0  0  0
  -20.5880  -28.3870   23.1980 C   0  0  0  0  0  3  0  0  0  0  0  0
  -20.6750  -26.9550   22.6210 C   0  0  0  0  0  2  0  0  0  0  0  0
  -19.5670  -26.6450   21.6100 C   0  0  0  0  0  2  0  0  0  0  0  0
  -18.1890  -26.7990   22.2570 C   0  0  0  0  0  2  0  0  0  0  0  0
  -19.1520  -28.9000   23.3670 C   0  0  0  0  0  0  0  0  0  0  0  0
  -18.9460  -30.1600   23.9680 C   0  0  0  0  0  3  0  0  0  0  0  0
  -17.6430  -30.6680   24.1450 C   0  0  0  0  0  3  0  0  0  0  0  0
  -16.5320  -29.9130   23.7330 C   0  0  0  0  0  3  0  0  0  0  0  0
  -16.7240  -28.6550   23.1350 C   0  0  0  0  0  3  0  0  0  0  0  0
  -25.8830  -32.5350   23.8650 C   0  0  0  0  0  3  0  0  0  0  0  0
  -25.5610  -33.9380   24.1790 N   0  0  0  0  0  0  0  0  0  0  0  0
  -25.9040  -34.9910   23.4250 C   0  0  0  0  0  0  0  0  0  0  0  0
  -26.5880  -34.8840   22.4040 O   0  0  0  0  0  0  0  0  0  0  0  0
  -24.9530  -34.0930   24.9700 H   0  0  0  0  0  0  0  0  0  0  0  0
  -24.1850  -36.7910   23.0430 C   0  0  0  0  0  1  0  0  0  0  0  0
  -25.4120  -36.3830   23.8730 C   0  0  0  0  0  3  0  0  0  0  0  0
  -27.5310  -37.2700   24.7410 C   0  0  0  0  0  1  0  0  0  0  0  0
  -26.4480  -37.4350   23.7750 N   0  0  0  0  0  0  0  0  0  0  0  0
  -26.0410  -38.3560   23.9120 H   0  0  0  0  0  0  0  0  0  0  0  0
  -26.3730  -31.7870   25.1670 C   0  0  1  0  0  0  0  0  0  0  0  0
  -25.2590  -31.5690   26.2180 C   0  0  0  0  0  1  0  0  0  0  0  0
  -26.9650  -30.4030   24.8170 C   0  0  0  0  0  1  0  0  0  0  0  0
  -27.5100  -32.5930   25.8380 C   0  0  0  0  0  1  0  0  0  0  0  0
  -30.0350  -18.1490   20.4980 C   0  0  0  0  0  3  0  0  0  0  0  0
  -30.4500  -15.2400   20.2650 C   0  0  0  0  0  0  0  0  0  0  0  0
  -30.3750  -12.8280   19.3460 C   0  0  0  0  0  2  0  0  0  0  0  0
  -29.4350  -12.6570   18.1290 C   0  0  0  0  0  2  0  0  0  0  0  0
  -27.9900  -12.3950   18.5900 C   0  0  0  0  0  2  0  0  0  0  0  0
  -27.5620  -13.3410   19.7410 C   0  0  0  0  0  3  0  0  0  0  0  0
  -28.6320  -13.4660   20.8460 C   0  0  0  0  0  2  0  0  0  0  0  0
  -29.8540  -13.9580   20.1910 N   0  0  0  0  0  0  0  0  0  0  0  0
  -31.6720  -15.2120   20.0740 O   0  0  0  0  0  0  0  0  0  0  0  0
  -29.7120  -16.5190   20.3490 N   0  0  0  0  0  0  0  0  0  0  0  0
  -28.7190  -16.3400   20.3830 H   0  0  0  0  0  0  0  0  0  0  0  0
  -25.1990  -13.8790   20.5330 C   0  0  0  0  0  0  0  0  0  0  0  0
  -24.1470  -13.0920   20.9110 C   0  0  0  0  0  0  0  0  0  0  0  0
  -24.6240  -11.7460   20.8650 C   0  0  0  0  0  0  0  0  0  0  0  0
  -26.2440  -13.0140   20.2690 N   0  0  0  0  0  0  0  0  0  0  0  0
  -25.9120  -11.7250   20.5380 N   0  0  0  0  0  0  0  0  0  0  0  0
  -23.9080  -10.4770   21.0520 C   0  0  0  0  0  0  0  0  0  0  0  0
  -24.3490   -9.5060   21.9780 C   0  0  0  0  0  3  0  0  0  0  0  0
  -23.6300   -8.3050   22.1560 C   0  0  0  0  0  3  0  0  0  0  0  0
  -22.4540   -8.0640   21.4050 C   0  0  0  0  0  0  0  0  0  0  0  0
  -22.0320   -9.0230   20.4670 C   0  0  0  0  0  3  0  0  0  0  0  0
  -22.7520  -10.2160   20.2880 C   0  0  0  0  0  3  0  0  0  0  0  0
  -21.7050   -6.9160   21.4920 O   0  0  0  0  0  0  0  0  0  0  0  0
  -21.6600   -6.1730   22.6440 C   0  0  0  0  0  0  0  0  0  0  0  0
  -21.2140   -6.7200   23.8680 C   0  0  0  0  0  3  0  0  0  0  0  0
  -21.1180   -5.9010   25.0110 C   0  0  0  0  0  3  0  0  0  0  0  0
  -21.4560   -4.5360   24.9320 C   0  0  0  0  0  0  0  0  0  0  0  0
  -21.8920   -3.9890   23.7130 C   0  0  0  0  0  3  0  0  0  0  0  0
  -21.9910   -4.8040   22.5710 C   0  0  0  0  0  0  0  0  0  0  0  0
  -22.3920   -4.2670   21.3940 F   0  0  0  0  0  0  0  0  0  0  0  0
  -21.3550   -3.7490   26.0270 F   0  0  0  0  0  0  0  0  0  0  0  0
  -22.7500  -13.5570   21.1970 C   0  0  0  0  0  0  0  0  0  0  0  0
  -22.0310  -12.8450   22.0580 N   0  0  0  0  0  0  0  0  0  0  0  0
  -22.3030  -14.5870   20.6920 O   0  0  0  0  0  0  0  0  0  0  0  0
  -22.4050  -12.0110   22.4860 H   0  0  0  0  0  0  0  0  0  0  0  0
  -21.0940  -13.1380   22.2940 H   0  0  0  0  0  0  0  0  0  0  0  0
  -25.3480  -15.2520   20.3610 N   0  0  0  0  0  0  0  0  0  0  0  0
  -24.5720  -15.8950   20.4770 H   0  0  0  0  0  0  0  0  0  0  0  0
  -26.1740  -15.6950   19.9830 H   0  0  0  0  0  0  0  0  0  0  0  0
  -31.4270  -18.4150   19.8520 C   0  0  0  0  0  2  0  0  0  0  0  0
  -32.1830  -19.6420   20.3840 C   0  0  0  0  0  0  0  0  0  0  0  0
  -32.7330  -20.4660   19.4980 N   0  0  0  0  0  0  0  0  0  0  0  0
  -32.2970  -19.8430   21.5920 O   0  0  0  0  0  0  0  0  0  0  0  0
  -32.6540  -20.2870   18.5060 H   0  0  0  0  0  0  0  0  0  0  0  0
  -33.2460  -21.2810   19.8070 H   0  0  0  0  0  0  0  0  0  0  0  0
  1 46  1  0
  1  2  1  0
  3  4  1  0
  3  2  1  0
  5  4  1  0
  6 17  2  0
  7  5  1  0
  7 12  1  0
  8 16  1  0
  8 18  1  0
  9 15  1  0
  9 11  1  0
 10 16  1  0
 11 12  2  0
 11 10  1  0
 13  7  2  0
 14 13  1  0
 14  9  2  0
 15  8  1  0
 16  6  1  0
 18 20  2  0
 19 18  1  0
 21 19  1  0
 22 31  2  0
 22 27  1  0
 23 19  1  0
 23 27  1  0
 24 23  1  0
 25 26  1  0
 25 24  1  0
 26 22  1  0
 27 28  2  0
 28 29  1  0
 30 29  2  0
 31 30  1  0
 32  6  1  0
 32 33  1  0
 32 42  1  0
 33 36  1  0
 34 38  1  0
 34 33  1  0
 35 34  2  0
 38 37  1  0
 40 38  1  0
 40 41  1  0
 40 39  1  0
 42 45  1  1
 42 43  1  0
 44 42  1  0
 46 85  1  0
 47 55  1  0
 48 53  1  0
 49 50  1  0
 49 48  1  0
 51 50  1  0
 51 60  1  0
 51 52  1  0
 53 47  1  0
 53 52  1  0
 54 47  2  0
 55 56  1  0
 55 46  1  0
 57 58  2  0
 58 77  1  0
 59 58  1  0
 59 62  1  0
 60 57  1  0
 60 61  1  0
 61 59  2  0
 62 63  1  0
 63 64  2  0
 65 68  1  0
 65 64  1  0
 66 65  2  0
 67 66  1  0
 67 62  2  0
 68 69  1  0
 69 70  1  0
 70 71  2  0
 72 71  1  0
 72 76  1  0
 73 72  2  0
 74 69  2  0
 74 73  1  0
 75 74  1  0
 77 78  1  0
 78 81  1  0
 78 80  1  0
 79 77  2  0
 82 83  1  0
 82 57  1  0
 84 82  1  0
 85 86  1  0
 86 88  2  0
 87 90  1  0
 87 86  1  0
 89 87  1  0
M  ISO  4   4 101   5 101  47 100  55 100
M  END
>  <TORSDO>  (78) 
F 22

>  <SCORE>  (78) 
-14.821

>  <name>  (78) 
79

>  <ligand_id>  (78) 
79

>  <original_smiles>  (78) 
[H]c1c([H])c([H])c2c(c1[H])C([H])([H])C([H])([H])C([H])([H])C2([H])N([H])C(=O)C1([H])N(C(=O)C([H])(N([H])C(=O)C([H])(N([H])C([H])([H])[H])C([H])([H])[H])C(C([H])([H])[H])(C([H])([H])[H])C([H])([H])[H])C([H])([H])c2c([H])c(OC([H])([H])C([H])([H])C([H])([H])C([H])([H])C([H])(N([H])C(=O)N3C([H])([H])C([H])([H])C([H])([H])C([H])(n4nc(-c5c([H])c([H])c(Oc6c([H])c([H])c(F)c([H])c6F)c([H])c5[H])c(C(=O)N([H])[H])c4N([H])[H])C3([H])[H])C([H])([H])C(=O)N([H])[H])c([H])c([H])c2C1([H])[H]

>  <smiles>  (78) 
[H]c1c([H])c([H])c2c(c1[H])C([H])([H])C([H])([H])C([H])([H])C2([H])N([H])C(=O)C1([H])N(C(=O)C([H])(N([H])C(=O)C([H])(N([H])C([H])([H])[H])C([H])([H])[H])C(C([H])([H])[H])(C([H])([H])[H])C([H])([H])[H])C([H])([H])c2c([H])c(OC([H])([H])C([H])([H])C([H])([H])C([H])([H])C([H])(N([H])C(=O)N3C([H])([H])C([H])([H])C([H])([H])C([H])(n4nc(-c5c([H])c([H])c(Oc6c([H])c([H])c(F)c([H])c6F)c([H])c5[H])c(C(=O)N([H])[H])c4N([H])[H])C3([H])[H])C([H])([H])C(=O)N([H])[H])c([H])c([H])c2C1([H])[H]

$$$$
80:0:0
     RDKit          3D

 93100  0  0  1  0  0  0  0  0999 V2000
  -31.1040  -21.5650   21.6210 C   0  0  0  0  0  0  0  0  0  0  0  0
  -31.7640  -22.5280   22.2870 N   0  0  0  0  0  4  0  0  0  0  0  0
  -30.5660  -21.7950   20.4050 N   0  0  0  0  0  0  0  0  0  0  0  0
  -32.1580  -22.3440   23.2010 H   0  0  0  0  0  0  0  0  0  0  0  0
  -31.8860  -23.4630   21.9260 H   0  0  0  0  0  0  0  0  0  0  0  0
  -30.0500  -21.0310   19.9840 H   0  0  0  0  0  0  0  0  0  0  0  0
  -30.9720  -20.2000   22.2580 C   0  0  0  0  0  2  0  0  0  0  0  0
  -30.5590  -19.1420   21.2180 C   0  0  0  0  0  2  0  0  0  0  0  0
  -30.5260  -17.6920   21.7230 C   0  0  0  0  0  2  0  0  0  0  0  0
  -30.0440  -16.7800   20.5860 C   0  0  0  0  0  2  0  0  0  0  0  0
  -30.6740  -14.4060   20.3470 C   0  0  0  0  0  0  0  0  0  0  0  0
  -30.3370  -12.3070   19.1150 C   0  0  0  0  0  2  0  0  0  0  0  0
  -29.3700  -12.5870   17.9460 C   0  0  0  0  0  2  0  0  0  0  0  0
  -27.9020  -12.4590   18.4010 C   0  0  0  0  0  2  0  0  0  0  0  0
  -27.6090  -13.2420   19.7070 C   0  0  0  0  0  3  0  0  0  0  0  0
  -28.6810  -12.9340   20.7800 C   0  0  0  0  0  2  0  0  0  0  0  0
  -30.0050  -13.2350   20.2040 N   0  0  0  0  0  0  0  0  0  0  0  0
  -31.7580  -14.6450   19.8050 O   0  0  0  0  0  0  0  0  0  0  0  0
  -29.9690  -15.3700   20.9530 N   0  0  0  0  0  0  0  0  0  0  0  0
  -29.1170  -15.0660   21.4020 H   0  0  0  0  0  0  0  0  0  0  0  0
  -25.2160  -13.8570   20.4430 C   0  0  0  0  0  0  0  0  0  0  0  0
  -24.1520  -13.0850   20.8270 C   0  0  0  0  0  0  0  0  0  0  0  0
  -24.6120  -11.7330   20.7860 C   0  0  0  0  0  0  0  0  0  0  0  0
  -26.2580  -12.9740   20.1990 N   0  0  0  0  0  0  0  0  0  0  0  0
  -25.8960  -11.6920   20.4580 N   0  0  0  0  0  0  0  0  0  0  0  0
  -23.8890  -10.4700   20.9860 C   0  0  0  0  0  0  0  0  0  0  0  0
  -24.3440   -9.4960   21.9010 C   0  0  0  0  0  3  0  0  0  0  0  0
  -23.6220   -8.2970   22.0870 C   0  0  0  0  0  3  0  0  0  0  0  0
  -22.4320   -8.0640   21.3590 C   0  0  0  0  0  0  0  0  0  0  0  0
  -21.9960   -9.0280   20.4310 C   0  0  0  0  0  3  0  0  0  0  0  0
  -22.7180  -10.2180   20.2430 C   0  0  0  0  0  3  0  0  0  0  0  0
  -21.6800   -6.9180   21.4550 O   0  0  0  0  0  0  0  0  0  0  0  0
  -21.6640   -6.1620   22.5990 C   0  0  0  0  0  0  0  0  0  0  0  0
  -21.2820   -6.7050   23.8450 C   0  0  0  0  0  3  0  0  0  0  0  0
  -21.2140   -5.8750   24.9830 C   0  0  0  0  0  3  0  0  0  0  0  0
  -21.5170   -4.5050   24.8750 C   0  0  0  0  0  0  0  0  0  0  0  0
  -21.8910   -3.9620   23.6330 C   0  0  0  0  0  3  0  0  0  0  0  0
  -21.9610   -4.7880   22.4990 C   0  0  0  0  0  0  0  0  0  0  0  0
  -22.3030   -4.2560   21.2990 F   0  0  0  0  0  0  0  0  0  0  0  0
  -21.4430   -3.7050   25.9660 F   0  0  0  0  0  0  0  0  0  0  0  0
  -22.7600  -13.5610   21.1260 C   0  0  0  0  0  0  0  0  0  0  0  0
  -22.0470  -12.8620   22.0020 N   0  0  0  0  0  0  0  0  0  0  0  0
  -22.3120  -14.5880   20.6170 O   0  0  0  0  0  0  0  0  0  0  0  0
  -22.4220  -12.0310   22.4370 H   0  0  0  0  0  0  0  0  0  0  0  0
  -21.1140  -13.1620   22.2440 H   0  0  0  0  0  0  0  0  0  0  0  0
  -25.3800  -15.2270   20.2650 N   0  0  0  0  0  0  0  0  0  0  0  0
  -24.6160  -15.8840   20.3860 H   0  0  0  0  0  0  0  0  0  0  0  0
  -26.2270  -15.6630   19.9230 H   0  0  0  0  0  0  0  0  0  0  0  0
  -30.6280  -23.0120   19.5860 C   0  0  0  0  0  2  0  0  0  0  0  0
  -29.6700  -24.1090   20.0870 C   0  0  0  0  0  2  0  0  0  0  0  0
  -28.7280  -24.6630   18.9950 C   0  0  0  0  0  2  0  0  0  0  0  0
  -28.7650  -26.1920   18.8830 C   0  0  0  0  0  2  0  0  0  0  0  0
  -28.3850  -26.8010   20.1130 O   0  0  0  0  0  0  0  0  0  0  0  0
  -24.5610  -31.8870   23.2500 C   0  0  0  0  0  0  0  0  0  0  0  0
  -27.1860  -27.4710   20.1360 C   0  0  0  0  0  0  0  0  0  0  0  0
  -23.3380  -30.4870   21.6140 C   0  0  0  0  0  3  0  0  0  0  0  0
  -24.7790  -28.9430   20.1850 C   0  0  0  0  0  0  0  0  0  0  0  0
  -25.8590  -30.8450   21.4000 C   0  0  0  0  0  2  0  0  0  0  0  0
  -25.9360  -29.4720   20.7690 C   0  0  0  0  0  0  0  0  0  0  0  0
  -27.1370  -28.7350   20.7590 C   0  0  0  0  0  3  0  0  0  0  0  0
  -26.0100  -26.9370   19.5640 C   0  0  0  0  0  3  0  0  0  0  0  0
  -24.8060  -27.6690   19.5880 C   0  0  0  0  0  3  0  0  0  0  0  0
  -23.5370  -29.8030   20.2350 C   0  0  0  0  0  2  0  0  0  0  0  0
  -24.6040  -31.0870   22.1470 N   0  0  0  0  0  0  0  0  0  0  0  0
  -23.4840  -32.1610   23.7980 O   0  0  0  0  0  0  0  0  0  0  0  0
  -22.6920  -29.4680   22.5800 C   0  0  0  0  0  0  0  0  0  0  0  0
  -21.3690  -29.2850   22.4560 N   0  0  0  0  0  0  0  0  0  0  0  0
  -23.3790  -28.8440   23.3930 O   0  0  0  0  0  0  0  0  0  0  0  0
  -20.8770  -29.8400   21.7690 H   0  0  0  0  0  0  0  0  0  0  0  0
  -17.9970  -28.0910   22.9540 C   0  0  0  0  0  0  0  0  0  0  0  0
  -20.5530  -28.3500   23.2290 C   0  0  0  0  0  3  0  0  0  0  0  0
  -20.6580  -26.9160   22.6570 C   0  0  0  0  0  2  0  0  0  0  0  0
  -19.5560  -26.5910   21.6430 C   0  0  0  0  0  2  0  0  0  0  0  0
  -18.1730  -26.7390   22.2860 C   0  0  0  0  0  2  0  0  0  0  0  0
  -19.1140  -28.8550   23.3830 C   0  0  0  0  0  0  0  0  0  0  0  0
  -18.8970  -30.1220   23.9670 C   0  0  0  0  0  3  0  0  0  0  0  0
  -17.5920  -30.6250   24.1280 C   0  0  0  0  0  3  0  0  0  0  0  0
  -16.4880  -29.8590   23.7160 C   0  0  0  0  0  3  0  0  0  0  0  0
  -16.6910  -28.5940   23.1350 C   0  0  0  0  0  3  0  0  0  0  0  0
  -25.8550  -32.5120   23.8600 C   0  0  0  0  0  3  0  0  0  0  0  0
  -25.5580  -33.9140   24.1820 N   0  0  0  0  0  0  0  0  0  0  0  0
  -25.9020  -34.9570   23.4140 C   0  0  0  0  0  0  0  0  0  0  0  0
  -26.5730  -34.8410   22.3850 O   0  0  0  0  0  0  0  0  0  0  0  0
  -24.9650  -34.0800   24.9810 H   0  0  0  0  0  0  0  0  0  0  0  0
  -24.1920  -36.7620   23.0390 C   0  0  0  0  0  1  0  0  0  0  0  0
  -25.4240  -36.3520   23.8600 C   0  0  0  0  0  3  0  0  0  0  0  0
  -27.5630  -37.2220   24.6950 C   0  0  0  0  0  1  0  0  0  0  0  0
  -26.4670  -37.3950   23.7460 N   0  0  0  0  0  0  0  0  0  0  0  0
  -26.0690  -38.3200   23.8870 H   0  0  0  0  0  0  0  0  0  0  0  0
  -26.3750  -31.7420   25.1360 C   0  0  1  0  0  0  0  0  0  0  0  0
  -25.2880  -31.5180   26.2120 C   0  0  0  0  0  1  0  0  0  0  0  0
  -26.9460  -30.3590   24.7450 C   0  0  0  0  0  1  0  0  0  0  0  0
  -27.5360  -32.5330   25.7880 C   0  0  0  0  0  1  0  0  0  0  0  0
  1  7  1  0
  1  2  2  0
  2  4  1  0
  3  1  1  0
  5  2  1  0
  6  3  1  0
  8  9  1  0
  8  7  1  0
 10 19  1  0
 10  9  1  0
 11 19  1  0
 12 17  1  0
 13 14  1  0
 13 12  1  0
 15 14  1  0
 15 24  1  0
 15 16  1  0
 17 11  1  0
 17 16  1  0
 18 11  2  0
 19 20  1  0
 21 22  2  0
 22 41  1  0
 23 22  1  0
 23 26  1  0
 24 21  1  0
 24 25  1  0
 25 23  2  0
 26 27  1  0
 27 28  2  0
 29 32  1  0
 29 28  1  0
 30 29  2  0
 31 30  1  0
 31 26  2  0
 32 33  1  0
 33 34  1  0
 34 35  2  0
 36 35  1  0
 36 40  1  0
 37 36  2  0
 38 33  2  0
 38 37  1  0
 39 38  1  0
 41 42  1  0
 42 45  1  0
 42 44  1  0
 43 41  2  0
 46 47  1  0
 46 21  1  0
 48 46  1  0
 49 50  1  0
 49  3  1  0
 51 50  1  0
 52 51  1  0
 52 53  1  0
 53 55  1  0
 54 65  2  0
 55 60  1  0
 56 64  1  0
 56 66  1  0
 57 63  1  0
 57 59  1  0
 58 64  1  0
 59 58  1  0
 60 59  2  0
 61 62  1  0
 61 55  2  0
 62 57  2  0
 63 56  1  0
 64 54  1  0
 66 68  2  0
 67 66  1  0
 69 67  1  0
 70 79  2  0
 70 75  1  0
 71 67  1  0
 71 75  1  0
 72 71  1  0
 73 74  1  0
 73 72  1  0
 74 70  1  0
 75 76  2  0
 76 77  1  0
 78 77  2  0
 79 78  1  0
 80 54  1  0
 80 81  1  0
 80 90  1  0
 81 84  1  0
 82 86  1  0
 82 81  1  0
 83 82  2  0
 86 85  1  0
 88 86  1  0
 88 89  1  0
 88 87  1  0
 90 93  1  1
 90 91  1  0
 92 90  1  0
M  ISO  4  11 100  19 100  52 101  53 101
M  END
>  <TORSDO>  (79) 
F 24

>  <SCORE>  (79) 
-12.211

>  <name>  (79) 
80

>  <ligand_id>  (79) 
80

>  <original_smiles>  (79) 
[H]c1c([H])c([H])c2c(c1[H])C([H])([H])C([H])([H])C([H])([H])C2([H])N([H])C(=O)C1([H])N(C(=O)C([H])(N([H])C(=O)C([H])(N([H])C([H])([H])[H])C([H])([H])[H])C(C([H])([H])[H])(C([H])([H])[H])C([H])([H])[H])C([H])([H])c2c([H])c(OC([H])([H])C([H])([H])C([H])([H])C([H])([H])[N+]([H])=C(N([H])[H])C([H])([H])C([H])([H])C([H])([H])C([H])([H])N([H])C(=O)N3C([H])([H])C([H])([H])C([H])([H])C([H])(n4nc(-c5c([H])c([H])c(Oc6c([H])c([H])c(F)c([H])c6F)c([H])c5[H])c(C(=O)N([H])[H])c4N([H])[H])C3([H])[H])c([H])c([H])c2C1([H])[H]

>  <smiles>  (79) 
[H]c1c([H])c([H])c2c(c1[H])C([H])([H])C([H])([H])C([H])([H])C2([H])N([H])C(=O)C1([H])N(C(=O)C([H])(N([H])C(=O)C([H])(N([H])C([H])([H])[H])C([H])([H])[H])C(C([H])([H])[H])(C([H])([H])[H])C([H])([H])[H])C([H])([H])c2c([H])c(OC([H])([H])C([H])([H])C([H])([H])C([H])([H])[N+]([H])=C(N([H])[H])C([H])([H])C([H])([H])C([H])([H])C([H])([H])N([H])C(=O)N3C([H])([H])C([H])([H])C([H])([H])C([H])(n4nc(-c5c([H])c([H])c(Oc6c([H])c([H])c(F)c([H])c6F)c([H])c5[H])c(C(=O)N([H])[H])c4N([H])[H])C3([H])[H])c([H])c([H])c2C1([H])[H]

$$$$
81:0:0
     RDKit          3D

 95103  0  0  1  0  0  0  0  0999 V2000
  -29.0390  -17.6140   18.2780 C   0  0  0  0  0  2  0  0  0  0  0  0
  -28.9380  -19.4280   20.0320 C   0  0  0  0  0  2  0  0  0  0  0  0
  -30.2380  -18.3500   17.6540 C   0  0  0  0  0  2  0  0  0  0  0  0
  -28.9840  -17.8650   19.7940 C   0  0  0  0  0  3  0  0  0  0  0  0
  -29.9020  -20.3380   19.1870 C   0  0  0  0  0  3  0  0  0  0  0  0
  -30.0870  -19.8100   17.8070 N   0  0  0  0  0  4  0  0  0  0  0  0
  -29.2990  -20.0870   17.2430 H   0  0  0  0  0  0  0  0  0  0  0  0
  -30.8990  -20.2500   17.4010 H   0  0  0  0  0  0  0  0  0  0  0  0
  -30.6370  -14.6130   20.5150 C   0  0  0  0  0  0  0  0  0  0  0  0
  -30.4010  -12.3910   19.4670 C   0  0  0  0  0  2  0  0  0  0  0  0
  -29.4820  -12.5450   18.2390 C   0  0  0  0  0  2  0  0  0  0  0  0
  -27.9990  -12.4050   18.6410 C   0  0  0  0  0  2  0  0  0  0  0  0
  -27.6240  -13.2590   19.8840 C   0  0  0  0  0  3  0  0  0  0  0  0
  -28.6710  -13.1070   21.0120 C   0  0  0  0  0  2  0  0  0  0  0  0
  -29.9930  -13.4110   20.4460 N   0  0  0  0  0  0  0  0  0  0  0  0
  -31.8260  -14.7250   20.2110 O   0  0  0  0  0  0  0  0  0  0  0  0
  -30.0950  -17.0050   20.4680 C   0  0  0  0  0  0  0  0  0  0  0  0
  -29.8090  -15.6850   20.6370 N   0  0  0  0  0  0  0  0  0  0  0  0
  -31.1880  -17.5250   20.7160 O   0  0  0  0  0  0  0  0  0  0  0  0
  -28.8310  -15.4460   20.6520 H   0  0  0  0  0  0  0  0  0  0  0  0
  -25.2170  -13.8530   20.5750 C   0  0  0  0  0  0  0  0  0  0  0  0
  -24.1470  -13.0760   20.9310 C   0  0  0  0  0  0  0  0  0  0  0  0
  -24.6120  -11.7260   20.9020 C   0  0  0  0  0  0  0  0  0  0  0  0
  -26.2680  -12.9750   20.3510 N   0  0  0  0  0  0  0  0  0  0  0  0
  -25.9060  -11.6920   20.6080 N   0  0  0  0  0  0  0  0  0  0  0  0
  -23.8870  -10.4630   21.0840 C   0  0  0  0  0  0  0  0  0  0  0  0
  -24.3160   -9.4950   22.0210 C   0  0  0  0  0  3  0  0  0  0  0  0
  -23.5970   -8.2930   22.1910 C   0  0  0  0  0  3  0  0  0  0  0  0
  -22.4320   -8.0500   21.4240 C   0  0  0  0  0  0  0  0  0  0  0  0
  -22.0210   -9.0050   20.4780 C   0  0  0  0  0  3  0  0  0  0  0  0
  -22.7410  -10.1990   20.3060 C   0  0  0  0  0  3  0  0  0  0  0  0
  -21.6830   -6.9000   21.5020 O   0  0  0  0  0  0  0  0  0  0  0  0
  -21.6280   -6.1540   22.6520 C   0  0  0  0  0  0  0  0  0  0  0  0
  -21.1670   -6.6980   23.8700 C   0  0  0  0  0  3  0  0  0  0  0  0
  -21.0610   -5.8770   25.0110 C   0  0  0  0  0  3  0  0  0  0  0  0
  -21.4050   -4.5140   24.9330 C   0  0  0  0  0  0  0  0  0  0  0  0
  -21.8570   -3.9700   23.7170 C   0  0  0  0  0  3  0  0  0  0  0  0
  -21.9660   -4.7880   22.5790 C   0  0  0  0  0  0  0  0  0  0  0  0
  -22.3830   -4.2550   21.4050 F   0  0  0  0  0  0  0  0  0  0  0  0
  -21.2940   -3.7230   26.0260 F   0  0  0  0  0  0  0  0  0  0  0  0
  -22.7440  -13.5520   21.1820 C   0  0  0  0  0  0  0  0  0  0  0  0
  -22.0010  -12.8540   22.0350 N   0  0  0  0  0  0  0  0  0  0  0  0
  -22.3140  -14.5770   20.6580 O   0  0  0  0  0  0  0  0  0  0  0  0
  -22.3610  -12.0250   22.4860 H   0  0  0  0  0  0  0  0  0  0  0  0
  -21.0580  -13.1530   22.2410 H   0  0  0  0  0  0  0  0  0  0  0  0
  -25.3790  -15.2250   20.4080 N   0  0  0  0  0  0  0  0  0  0  0  0
  -24.6080  -15.8720   20.5290 H   0  0  0  0  0  0  0  0  0  0  0  0
  -26.2160  -15.6740   20.0670 H   0  0  0  0  0  0  0  0  0  0  0  0
  -29.4660  -21.8470   19.0030 C   0  0  0  0  0  2  0  0  0  0  0  0
  -29.1260  -22.8130   20.1870 C   0  0  0  0  0  3  0  0  0  0  0  0
  -31.5330  -23.2030   21.1070 C   0  0  0  0  0  1  0  0  0  0  0  0
  -30.1100  -22.6920   21.3740 C   0  0  0  0  0  2  0  0  0  0  0  0
  -28.9610  -24.2970   19.6720 C   0  0  0  0  0  2  0  0  0  0  0  0
  -28.2470  -25.3160   20.6140 C   0  0  0  0  0  2  0  0  0  0  0  0
  -28.3340  -26.6940   20.1630 O   0  0  0  0  0  0  0  0  0  0  0  0
  -24.5580  -31.9450   23.2320 C   0  0  0  0  0  0  0  0  0  0  0  0
  -27.1720  -27.4480   20.1740 C   0  0  0  0  0  0  0  0  0  0  0  0
  -23.3410  -30.5390   21.6030 C   0  0  0  0  0  3  0  0  0  0  0  0
  -24.7850  -28.9860   20.1790 C   0  0  0  0  0  0  0  0  0  0  0  0
  -25.8700  -30.8820   21.3900 C   0  0  0  0  0  2  0  0  0  0  0  0
  -25.9490  -29.5040   20.7580 C   0  0  0  0  0  0  0  0  0  0  0  0
  -27.1480  -28.7470   20.7440 C   0  0  0  0  0  3  0  0  0  0  0  0
  -25.9890  -26.9540   19.5820 C   0  0  0  0  0  3  0  0  0  0  0  0
  -24.8010  -27.7120   19.5850 C   0  0  0  0  0  3  0  0  0  0  0  0
  -23.5430  -29.8510   20.2260 C   0  0  0  0  0  2  0  0  0  0  0  0
  -24.6090  -31.1380   22.1330 N   0  0  0  0  0  0  0  0  0  0  0  0
  -23.4800  -32.2230   23.7740 O   0  0  0  0  0  0  0  0  0  0  0  0
  -22.6890  -29.5260   22.5700 C   0  0  0  0  0  0  0  0  0  0  0  0
  -21.3630  -29.3470   22.4460 N   0  0  0  0  0  0  0  0  0  0  0  0
  -23.3730  -28.9030   23.3870 O   0  0  0  0  0  0  0  0  0  0  0  0
  -20.8720  -29.9030   21.7600 H   0  0  0  0  0  0  0  0  0  0  0  0
  -17.9850  -28.1730   22.9620 C   0  0  0  0  0  0  0  0  0  0  0  0
  -20.5460  -28.4130   23.2220 C   0  0  0  0  0  3  0  0  0  0  0  0
  -20.6350  -26.9820   22.6450 C   0  0  0  0  0  2  0  0  0  0  0  0
  -19.5260  -26.6660   21.6360 C   0  0  0  0  0  2  0  0  0  0  0  0
  -18.1480  -26.8220   22.2870 C   0  0  0  0  0  2  0  0  0  0  0  0
  -19.1110  -28.9270   23.3870 C   0  0  0  0  0  0  0  0  0  0  0  0
  -18.9040  -30.1930   23.9760 C   0  0  0  0  0  3  0  0  0  0  0  0
  -17.6040  -30.7050   24.1470 C   0  0  0  0  0  3  0  0  0  0  0  0
  -16.4920  -29.9460   23.7400 C   0  0  0  0  0  3  0  0  0  0  0  0
  -16.6840  -28.6830   23.1530 C   0  0  0  0  0  3  0  0  0  0  0  0
  -25.8480  -32.5750   23.8460 C   0  0  0  0  0  3  0  0  0  0  0  0
  -25.5440  -33.9740   24.1720 N   0  0  0  0  0  0  0  0  0  0  0  0
  -25.8840  -35.0240   23.4120 C   0  0  0  0  0  0  0  0  0  0  0  0
  -26.5570  -34.9160   22.3840 O   0  0  0  0  0  0  0  0  0  0  0  0
  -24.9480  -34.1320   24.9710 H   0  0  0  0  0  0  0  0  0  0  0  0
  -24.1780  -36.8330   23.0340 C   0  0  0  0  0  1  0  0  0  0  0  0
  -25.4000  -36.4160   23.8660 C   0  0  0  0  0  3  0  0  0  0  0  0
  -27.5300  -37.2780   24.7340 C   0  0  0  0  0  1  0  0  0  0  0  0
  -26.4430  -37.4600   23.7760 N   0  0  0  0  0  0  0  0  0  0  0  0
  -26.0420  -38.3830   23.9240 H   0  0  0  0  0  0  0  0  0  0  0  0
  -26.3700  -31.8050   25.1190 C   0  0  1  0  0  0  0  0  0  0  0  0
  -25.2840  -31.5720   26.1950 C   0  0  0  0  0  1  0  0  0  0  0  0
  -26.9460  -30.4240   24.7240 C   0  0  0  0  0  1  0  0  0  0  0  0
  -27.5260  -32.5970   25.7760 C   0  0  0  0  0  1  0  0  0  0  0  0
  1  4  1  0
  3  6  1  0
  3  1  1  0
  4  2  1  0
  4 17  1  0
  5 49  1  0
  5  2  1  0
  6  5  1  0
  7  6  1  0
  8  6  1  0
  9 18  1  0
 10 15  1  0
 11 12  1  0
 11 10  1  0
 13 12  1  0
 13 24  1  0
 13 14  1  0
 15  9  1  0
 15 14  1  0
 16  9  2  0
 17 18  1  0
 17 19  2  0
 18 20  1  0
 21 22  2  0
 22 41  1  0
 23 22  1  0
 23 26  1  0
 24 21  1  0
 24 25  1  0
 25 23  2  0
 26 27  1  0
 27 28  2  0
 29 32  1  0
 29 28  1  0
 30 29  2  0
 31 30  1  0
 31 26  2  0
 32 33  1  0
 33 34  1  0
 34 35  2  0
 36 35  1  0
 36 40  1  0
 37 36  2  0
 38 33  2  0
 38 37  1  0
 39 38  1  0
 41 42  1  0
 42 45  1  0
 42 44  1  0
 43 41  2  0
 46 47  1  0
 46 21  1  0
 48 46  1  0
 50 49  1  0
 50 52  1  0
 51 52  1  0
 53 50  1  0
 53 54  1  0
 55 57  1  0
 55 54  1  0
 56 67  2  0
 57 62  1  0
 58 66  1  0
 58 68  1  0
 59 65  1  0
 59 61  1  0
 60 66  1  0
 61 60  1  0
 62 61  2  0
 63 64  1  0
 63 57  2  0
 64 59  2  0
 65 58  1  0
 66 56  1  0
 68 70  2  0
 69 68  1  0
 71 69  1  0
 72 81  2  0
 72 77  1  0
 73 69  1  0
 73 77  1  0
 74 73  1  0
 75 76  1  0
 75 74  1  0
 76 72  1  0
 77 78  2  0
 78 79  1  0
 80 79  2  0
 81 80  1  0
 82 56  1  0
 82 83  1  0
 82 92  1  0
 83 86  1  0
 84 88  1  0
 84 83  1  0
 85 84  2  0
 88 87  1  0
 90 88  1  0
 90 91  1  0
 90 89  1  0
 92 95  1  1
 92 93  1  0
 94 92  1  0
M  ISO  4   9 100  18 100  54 101  55 101
M  END
>  <TORSDO>  (80) 
F 21

>  <SCORE>  (80) 
-13.407

>  <name>  (80) 
81

>  <ligand_id>  (80) 
81

>  <original_smiles>  (80) 
[H]c1c([H])c([H])c2c(c1[H])C([H])([H])C([H])([H])C([H])([H])C2([H])N([H])C(=O)C1([H])N(C(=O)C([H])(N([H])C(=O)C([H])(N([H])C([H])([H])[H])C([H])([H])[H])C(C([H])([H])[H])(C([H])([H])[H])C([H])([H])[H])C([H])([H])c2c([H])c(OC([H])([H])C([H])([H])C([H])(C([H])([H])C([H])([H])[H])C([H])([H])C3([H])C([H])([H])C([H])(C(=O)N([H])C(=O)N4C([H])([H])C([H])([H])C([H])([H])C([H])(n5nc(-c6c([H])c([H])c(Oc7c([H])c([H])c(F)c([H])c7F)c([H])c6[H])c(C(=O)N([H])[H])c5N([H])[H])C4([H])[H])C([H])([H])C([H])([H])[N+]3([H])[H])c([H])c([H])c2C1([H])[H]

>  <smiles>  (80) 
[H]c1c([H])c([H])c2c(c1[H])C([H])([H])C([H])([H])C([H])([H])C2([H])N([H])C(=O)C1([H])N(C(=O)C([H])(N([H])C(=O)C([H])(N([H])C([H])([H])[H])C([H])([H])[H])C(C([H])([H])[H])(C([H])([H])[H])C([H])([H])[H])C([H])([H])c2c([H])c(OC([H])([H])C([H])([H])C([H])(C([H])([H])C([H])([H])[H])C([H])([H])C3([H])C([H])([H])C([H])(C(=O)N([H])C(=O)N4C([H])([H])C([H])([H])C([H])([H])C([H])(n5nc(-c6c([H])c([H])c(Oc7c([H])c([H])c(F)c([H])c7F)c([H])c6[H])c(C(=O)N([H])[H])c5N([H])[H])C4([H])[H])C([H])([H])C([H])([H])[N+]3([H])[H])c([H])c([H])c2C1([H])[H]

$$$$
82:0:0
     RDKit          3D

 91 99  0  0  1  0  0  0  0  0999 V2000
  -27.9900  -20.5980   19.7590 C   0  0  0  0  0  3  0  0  0  0  0  0
  -30.3790  -21.0180   19.8250 C   0  0  0  0  0  3  0  0  0  0  0  0
  -27.7510  -21.9890   19.6270 C   0  0  0  0  0  3  0  0  0  0  0  0
  -30.1410  -22.4050   19.6970 C   0  0  0  0  0  3  0  0  0  0  0  0
  -29.3090  -20.0960   19.8330 C   0  0  0  0  0  0  0  0  0  0  0  0
  -28.8250  -22.9070   19.5690 C   0  0  0  0  0  0  0  0  0  0  0  0
  -29.5930  -18.5830   19.8400 C   0  0  0  0  0  2  0  0  0  0  0  0
  -29.8330  -17.9700   21.2410 C   0  0  0  0  0  2  0  0  0  0  0  0
  -31.2940  -16.4980   22.7150 C   0  0  0  0  0  1  0  0  0  0  0  0
  -30.7460  -16.7060   21.2930 C   0  0  0  0  0  3  0  0  0  0  0  0
  -30.6780  -14.4680   20.1410 C   0  0  0  0  0  0  0  0  0  0  0  0
  -30.2710  -12.3530   18.9310 C   0  0  0  0  0  2  0  0  0  0  0  0
  -29.2750  -12.5920   17.7790 C   0  0  0  0  0  2  0  0  0  0  0  0
  -27.8240  -12.4610   18.2800 C   0  0  0  0  0  2  0  0  0  0  0  0
  -27.5610  -13.2770   19.5750 C   0  0  0  0  0  3  0  0  0  0  0  0
  -28.6650  -13.0210   20.6250 C   0  0  0  0  0  2  0  0  0  0  0  0
  -29.9610  -13.3210   19.9950 N   0  0  0  0  0  0  0  0  0  0  0  0
  -31.7700  -14.6410   19.5940 O   0  0  0  0  0  0  0  0  0  0  0  0
  -30.0950  -15.4530   20.8580 N   0  0  0  0  0  0  0  0  0  0  0  0
  -29.1760  -15.2540   21.2250 H   0  0  0  0  0  0  0  0  0  0  0  0
  -25.2020  -13.8990   20.3910 C   0  0  0  0  0  0  0  0  0  0  0  0
  -24.1460  -13.1330   20.8040 C   0  0  0  0  0  0  0  0  0  0  0  0
  -24.5940  -11.7780   20.7480 C   0  0  0  0  0  0  0  0  0  0  0  0
  -26.2300  -13.0100   20.1130 N   0  0  0  0  0  0  0  0  0  0  0  0
  -25.8690  -11.7290   20.3840 N   0  0  0  0  0  0  0  0  0  0  0  0
  -23.8670  -10.5200   20.9640 C   0  0  0  0  0  0  0  0  0  0  0  0
  -24.3300   -9.5460   21.8760 C   0  0  0  0  0  3  0  0  0  0  0  0
  -23.6040   -8.3530   22.0810 C   0  0  0  0  0  3  0  0  0  0  0  0
  -22.3990   -8.1260   21.3740 C   0  0  0  0  0  0  0  0  0  0  0  0
  -21.9550   -9.0880   20.4510 C   0  0  0  0  0  3  0  0  0  0  0  0
  -22.6810  -10.2730   20.2440 C   0  0  0  0  0  3  0  0  0  0  0  0
  -21.6410   -6.9870   21.4890 O   0  0  0  0  0  0  0  0  0  0  0  0
  -21.6330   -6.2400   22.6410 C   0  0  0  0  0  0  0  0  0  0  0  0
  -21.2650   -6.7950   23.8850 C   0  0  0  0  0  3  0  0  0  0  0  0
  -21.2040   -5.9760   25.0300 C   0  0  0  0  0  3  0  0  0  0  0  0
  -21.4990   -4.6040   24.9330 C   0  0  0  0  0  0  0  0  0  0  0  0
  -21.8610   -4.0490   23.6920 C   0  0  0  0  0  3  0  0  0  0  0  0
  -21.9240   -4.8640   22.5490 C   0  0  0  0  0  0  0  0  0  0  0  0
  -22.2520   -4.3200   21.3520 F   0  0  0  0  0  0  0  0  0  0  0  0
  -21.4330   -3.8150   26.0300 F   0  0  0  0  0  0  0  0  0  0  0  0
  -22.7650  -13.6200   21.1400 C   0  0  0  0  0  0  0  0  0  0  0  0
  -22.0720  -12.9240   22.0340 N   0  0  0  0  0  0  0  0  0  0  0  0
  -22.3130  -14.6500   20.6440 O   0  0  0  0  0  0  0  0  0  0  0  0
  -22.4520  -12.0900   22.4560 H   0  0  0  0  0  0  0  0  0  0  0  0
  -21.1460  -13.2330   22.3020 H   0  0  0  0  0  0  0  0  0  0  0  0
  -25.3710  -15.2670   20.2120 N   0  0  0  0  0  0  0  0  0  0  0  0
  -24.6160  -15.9290   20.3570 H   0  0  0  0  0  0  0  0  0  0  0  0
  -26.2120  -15.7000   19.8490 H   0  0  0  0  0  0  0  0  0  0  0  0
  -28.5880  -24.3980   19.2740 C   0  0  0  0  0  2  0  0  0  0  0  0
  -28.3350  -25.2980   20.5080 C   0  0  0  0  0  2  0  0  0  0  0  0
  -28.4130  -26.7080   20.2030 O   0  0  0  0  0  0  0  0  0  0  0  0
  -24.5730  -31.8910   23.2370 C   0  0  0  0  0  0  0  0  0  0  0  0
  -27.2370  -27.4320   20.1910 C   0  0  0  0  0  0  0  0  0  0  0  0
  -23.3790  -30.4880   21.5870 C   0  0  0  0  0  3  0  0  0  0  0  0
  -24.8430  -28.9440   20.1770 C   0  0  0  0  0  0  0  0  0  0  0  0
  -25.9070  -30.8460   21.4050 C   0  0  0  0  0  2  0  0  0  0  0  0
  -25.9980  -29.4720   20.7680 C   0  0  0  0  0  0  0  0  0  0  0  0
  -27.1990  -28.7250   20.7640 C   0  0  0  0  0  3  0  0  0  0  0  0
  -26.0650  -26.9190   19.5970 C   0  0  0  0  0  3  0  0  0  0  0  0
  -24.8720  -27.6680   19.5870 C   0  0  0  0  0  3  0  0  0  0  0  0
  -23.6000  -29.8050   20.2110 C   0  0  0  0  0  2  0  0  0  0  0  0
  -24.6380  -31.0900   22.1360 N   0  0  0  0  0  0  0  0  0  0  0  0
  -23.4880  -32.1640   23.7680 O   0  0  0  0  0  0  0  0  0  0  0  0
  -22.7190  -29.4690   22.5440 C   0  0  0  0  0  0  0  0  0  0  0  0
  -21.3960  -29.2860   22.4050 N   0  0  0  0  0  0  0  0  0  0  0  0
  -23.3960  -28.8460   23.3670 O   0  0  0  0  0  0  0  0  0  0  0  0
  -20.9130  -29.8420   21.7120 H   0  0  0  0  0  0  0  0  0  0  0  0
  -18.0200  -28.0850   22.8640 C   0  0  0  0  0  0  0  0  0  0  0  0
  -20.5730  -28.3500   23.1680 C   0  0  0  0  0  3  0  0  0  0  0  0
  -20.6860  -26.9160   22.5980 C   0  0  0  0  0  2  0  0  0  0  0  0
  -19.5980  -26.5880   21.5710 C   0  0  0  0  0  2  0  0  0  0  0  0
  -18.2080  -26.7330   22.1960 C   0  0  0  0  0  2  0  0  0  0  0  0
  -19.1310  -28.8510   23.3060 C   0  0  0  0  0  0  0  0  0  0  0  0
  -18.9020  -30.1170   23.8880 C   0  0  0  0  0  3  0  0  0  0  0  0
  -17.5940  -30.6160   24.0330 C   0  0  0  0  0  3  0  0  0  0  0  0
  -16.4970  -29.8470   23.6080 C   0  0  0  0  0  3  0  0  0  0  0  0
  -16.7110  -28.5840   23.0290 C   0  0  0  0  0  3  0  0  0  0  0  0
  -25.8540  -32.5220   23.8670 C   0  0  0  0  0  3  0  0  0  0  0  0
  -25.5450  -33.9210   24.1920 N   0  0  0  0  0  0  0  0  0  0  0  0
  -25.8830  -34.9700   23.4300 C   0  0  0  0  0  0  0  0  0  0  0  0
  -26.5580  -34.8630   22.4020 O   0  0  0  0  0  0  0  0  0  0  0  0
  -24.9450  -34.0790   24.9870 H   0  0  0  0  0  0  0  0  0  0  0  0
  -24.1530  -36.7600   23.0620 C   0  0  0  0  0  1  0  0  0  0  0  0
  -25.3930  -36.3610   23.8790 C   0  0  0  0  0  3  0  0  0  0  0  0
  -27.5260  -37.2500   24.7100 C   0  0  0  0  0  1  0  0  0  0  0  0
  -26.4250  -37.4130   23.7630 N   0  0  0  0  0  0  0  0  0  0  0  0
  -26.0180  -38.3340   23.9060 H   0  0  0  0  0  0  0  0  0  0  0  0
  -26.3620  -31.7520   25.1480 C   0  0  1  0  0  0  0  0  0  0  0  0
  -25.2610  -31.5150   26.2080 C   0  0  0  0  0  1  0  0  0  0  0  0
  -26.9470  -30.3750   24.7580 C   0  0  0  0  0  1  0  0  0  0  0  0
  -27.5080  -32.5460   25.8170 C   0  0  0  0  0  1  0  0  0  0  0  0
  1  5  1  0
  2  5  2  0
  3  1  2  0
  4  2  1  0
  5  7  1  0
  6  3  1  0
  6  4  2  0
  7  8  1  0
  8 10  1  0
 10  9  1  0
 11 19  1  0
 12 17  1  0
 13 14  1  0
 13 12  1  0
 15 14  1  0
 15 24  1  0
 15 16  1  0
 17 11  1  0
 17 16  1  0
 18 11  2  0
 19 20  1  0
 19 10  1  0
 21 22  2  0
 22 41  1  0
 23 22  1  0
 23 26  1  0
 24 25  1  0
 24 21  1  0
 25 23  2  0
 26 27  1  0
 27 28  2  0
 29 32  1  0
 29 28  1  0
 30 29  2  0
 31 30  1  0
 31 26  2  0
 32 33  1  0
 33 34  1  0
 34 35  2  0
 36 35  1  0
 36 40  1  0
 37 36  2  0
 38 33  2  0
 38 37  1  0
 39 38  1  0
 41 42  1  0
 42 45  1  0
 42 44  1  0
 43 41  2  0
 46 47  1  0
 46 21  1  0
 48 46  1  0
 49  6  1  0
 49 50  1  0
 51 50  1  0
 52 63  2  0
 53 51  1  0
 53 58  1  0
 54 62  1  0
 54 64  1  0
 55 61  1  0
 55 57  1  0
 56 62  1  0
 57 56  1  0
 58 57  2  0
 59 53  2  0
 60 59  1  0
 60 55  2  0
 61 54  1  0
 62 52  1  0
 64 66  2  0
 65 64  1  0
 67 65  1  0
 68 77  2  0
 68 73  1  0
 69 65  1  0
 69 73  1  0
 70 69  1  0
 71 72  1  0
 71 70  1  0
 72 68  1  0
 73 74  2  0
 74 75  1  0
 76 75  2  0
 77 76  1  0
 78 52  1  0
 78 79  1  0
 78 88  1  0
 79 82  1  0
 80 84  1  0
 80 79  1  0
 81 80  2  0
 84 83  1  0
 86 84  1  0
 86 87  1  0
 86 85  1  0
 88 91  1  1
 88 89  1  0
 90 88  1  0
M  ISO  4  11 100  19 100  50 101  51 101
M  END
>  <TORSDO>  (81) 
F 21

>  <SCORE>  (81) 
-12.802

>  <name>  (81) 
82

>  <ligand_id>  (81) 
82

>  <original_smiles>  (81) 
[H]c1c([H])c([H])c2c(c1[H])C([H])([H])C([H])([H])C([H])([H])C2([H])N([H])C(=O)C1([H])N(C(=O)C([H])(N([H])C(=O)C([H])(N([H])C([H])([H])[H])C([H])([H])[H])C(C([H])([H])[H])(C([H])([H])[H])C([H])([H])[H])C([H])([H])c2c([H])c(OC([H])([H])C([H])([H])c3c([H])c([H])c(C([H])([H])C([H])([H])C([H])(N([H])C(=O)N4C([H])([H])C([H])([H])C([H])([H])C([H])(n5nc(-c6c([H])c([H])c(Oc7c([H])c([H])c(F)c([H])c7F)c([H])c6[H])c(C(=O)N([H])[H])c5N([H])[H])C4([H])[H])C([H])([H])[H])c([H])c3[H])c([H])c([H])c2C1([H])[H]

>  <smiles>  (81) 
[H]c1c([H])c([H])c2c(c1[H])C([H])([H])C([H])([H])C([H])([H])C2([H])N([H])C(=O)C1([H])N(C(=O)C([H])(N([H])C(=O)C([H])(N([H])C([H])([H])[H])C([H])([H])[H])C(C([H])([H])[H])(C([H])([H])[H])C([H])([H])[H])C([H])([H])c2c([H])c(OC([H])([H])C([H])([H])c3c([H])c([H])c(C([H])([H])C([H])([H])C([H])(N([H])C(=O)N4C([H])([H])C([H])([H])C([H])([H])C([H])(n5nc(-c6c([H])c([H])c(Oc7c([H])c([H])c(F)c([H])c7F)c([H])c6[H])c(C(=O)N([H])[H])c5N([H])[H])C4([H])[H])C([H])([H])[H])c([H])c3[H])c([H])c([H])c2C1([H])[H]

$$$$
83:0:0
     RDKit          3D

 93101  0  0  1  0  0  0  0  0999 V2000
  -29.5740  -19.8310   19.7200 C   0  0  0  0  0  3  0  0  0  0  0  0
  -25.8060  -19.4800   19.1750 C   0  0  0  0  0  2  0  0  0  0  0  0
  -27.1570  -18.8360   19.5350 C   0  0  0  0  0  2  0  0  0  0  0  0
  -27.5300  -21.0100   18.5830 C   0  0  0  0  0  2  0  0  0  0  0  0
  -26.1250  -20.5870   18.1690 C   0  0  0  0  0  3  0  0  0  0  0  0
  -28.2640  -19.6980   18.8860 C   0  0  0  0  0  3  0  0  0  0  0  0
  -25.1170  -21.7460   18.1580 C   0  0  0  0  0  1  0  0  0  0  0  0
  -30.1160  -21.5410   19.6420 C   0  0  0  0  0  2  0  0  0  0  0  0
  -29.6470  -23.0540   20.4760 C   0  0  0  0  0  2  0  0  0  0  0  0
  -29.4220  -24.7340   19.9430 C   0  0  0  0  0  2  0  0  0  0  0  0
  -29.4530  -26.1790   20.6930 O   0  0  0  0  0  0  0  0  0  0  0  0
  -25.2070  -31.0090   24.5430 C   0  0  0  0  0  0  0  0  0  0  0  0
  -28.4090  -27.2250   20.7340 C   0  0  0  0  0  0  0  0  0  0  0  0
  -24.3320  -30.1260   22.4170 C   0  0  0  0  0  3  0  0  0  0  0  0
  -26.0500  -28.9970   20.8480 C   0  0  0  0  0  0  0  0  0  0  0  0
  -26.8760  -30.3890   22.7360 C   0  0  0  0  0  2  0  0  0  0  0  0
  -27.1080  -29.2250   21.7360 C   0  0  0  0  0  0  0  0  0  0  0  0
  -28.2820  -28.3590   21.6680 C   0  0  0  0  0  3  0  0  0  0  0  0
  -27.3290  -27.1510   19.8270 C   0  0  0  0  0  3  0  0  0  0  0  0
  -26.1820  -27.9830   19.8870 C   0  0  0  0  0  3  0  0  0  0  0  0
  -24.7930  -29.8560   20.9560 C   0  0  0  0  0  2  0  0  0  0  0  0
  -25.4840  -30.5170   23.2930 N   0  0  0  0  0  0  0  0  0  0  0  0
  -24.0420  -31.1380   24.9500 O   0  0  0  0  0  0  0  0  0  0  0  0
  -23.5540  -28.8960   22.9500 C   0  0  0  0  0  0  0  0  0  0  0  0
  -22.2750  -28.7530   22.5550 N   0  0  0  0  0  0  0  0  0  0  0  0
  -24.1110  -28.0790   23.6860 O   0  0  0  0  0  0  0  0  0  0  0  0
  -21.8790  -29.4710   21.9650 H   0  0  0  0  0  0  0  0  0  0  0  0
  -18.9310  -27.4110   22.1290 C   0  0  0  0  0  0  0  0  0  0  0  0
  -21.3920  -27.6330   22.8960 C   0  0  0  0  0  3  0  0  0  0  0  0
  -21.6700  -26.4080   21.9940 C   0  0  0  0  0  2  0  0  0  0  0  0
  -20.7720  -26.3530   20.7540 C   0  0  0  0  0  2  0  0  0  0  0  0
  -19.2980  -26.2980   21.1620 C   0  0  0  0  0  2  0  0  0  0  0  0
  -19.9160  -28.0480   22.9320 C   0  0  0  0  0  0  0  0  0  0  0  0
  -19.5220  -29.0960   23.7900 C   0  0  0  0  0  3  0  0  0  0  0  0
  -18.1790  -29.5080   23.8570 C   0  0  0  0  0  3  0  0  0  0  0  0
  -17.2070  -28.8660   23.0700 C   0  0  0  0  0  3  0  0  0  0  0  0
  -17.5830  -27.8190   22.2120 C   0  0  0  0  0  3  0  0  0  0  0  0
  -26.3410  -31.4520   25.5160 C   0  0  0  0  0  3  0  0  0  0  0  0
  -25.9190  -32.7090   26.1600 N   0  0  0  0  0  0  0  0  0  0  0  0
  -26.3540  -33.9310   25.8210 C   0  0  0  0  0  0  0  0  0  0  0  0
  -27.2130  -34.1140   24.9550 O   0  0  0  0  0  0  0  0  0  0  0  0
  -25.1750  -32.6380   26.8380 H   0  0  0  0  0  0  0  0  0  0  0  0
  -24.6560  -35.7870   25.6820 C   0  0  0  0  0  1  0  0  0  0  0  0
  -25.7430  -35.1410   26.5580 C   0  0  0  0  0  3  0  0  0  0  0  0
  -27.6550  -35.7140   27.9890 C   0  0  0  0  0  1  0  0  0  0  0  0
  -26.7400  -36.1630   26.9420 N   0  0  0  0  0  0  0  0  0  0  0  0
  -26.2810  -37.0110   27.2660 H   0  0  0  0  0  0  0  0  0  0  0  0
  -26.6760  -30.3660   26.6130 C   0  0  1  0  0  0  0  0  0  0  0  0
  -25.4370  -29.8640   27.3910 C   0  0  0  0  0  1  0  0  0  0  0  0
  -27.3620  -29.1330   25.9810 C   0  0  0  0  0  1  0  0  0  0  0  0
  -27.6770  -30.9480   27.6390 C   0  0  0  0  0  1  0  0  0  0  0  0
  -30.5060  -18.3120   19.4890 C   0  0  0  0  0  3  0  0  0  0  0  0
  -30.9640  -15.4600   19.9250 C   0  0  0  0  0  0  0  0  0  0  0  0
  -30.7360  -12.9900   19.2080 C   0  0  0  0  0  2  0  0  0  0  0  0
  -29.7560  -12.8240   18.0210 C   0  0  0  0  0  2  0  0  0  0  0  0
  -28.3080  -12.6910   18.5230 C   0  0  0  0  0  2  0  0  0  0  0  0
  -27.9810  -13.7340   19.6230 C   0  0  0  0  0  3  0  0  0  0  0  0
  -29.0800  -13.8380   20.7020 C   0  0  0  0  0  2  0  0  0  0  0  0
  -30.3230  -14.1980   20.0090 N   0  0  0  0  0  0  0  0  0  0  0  0
  -32.1510  -15.3870   19.5770 O   0  0  0  0  0  0  0  0  0  0  0  0
  -30.2760  -16.7590   20.0280 N   0  0  0  0  0  0  0  0  0  0  0  0
  -29.3370  -16.6230   20.3760 H   0  0  0  0  0  0  0  0  0  0  0  0
  -25.7340  -14.5130   20.5450 C   0  0  0  0  0  0  0  0  0  0  0  0
  -24.6210  -13.8390   20.9600 C   0  0  0  0  0  0  0  0  0  0  0  0
  -24.9380  -12.4500   20.8580 C   0  0  0  0  0  0  0  0  0  0  0  0
  -26.6580  -13.5430   20.2050 N   0  0  0  0  0  0  0  0  0  0  0  0
  -26.1970  -12.2920   20.4620 N   0  0  0  0  0  0  0  0  0  0  0  0
  -24.0950  -11.2640   21.0580 C   0  0  0  0  0  0  0  0  0  0  0  0
  -24.4890  -10.2110   21.9130 C   0  0  0  0  0  3  0  0  0  0  0  0
  -23.6510   -9.0920   22.1060 C   0  0  0  0  0  3  0  0  0  0  0  0
  -22.4030   -9.0170   21.4440 C   0  0  0  0  0  0  0  0  0  0  0  0
  -22.0250  -10.0560   20.5740 C   0  0  0  0  0  3  0  0  0  0  0  0
  -22.8630  -11.1670   20.3790 C   0  0  0  0  0  3  0  0  0  0  0  0
  -21.5330   -7.9590   21.5510 O   0  0  0  0  0  0  0  0  0  0  0  0
  -21.5140   -7.1500   22.6590 C   0  0  0  0  0  0  0  0  0  0  0  0
  -21.2810   -7.6660   23.9520 C   0  0  0  0  0  3  0  0  0  0  0  0
  -21.2000   -6.7930   25.0550 C   0  0  0  0  0  3  0  0  0  0  0  0
  -21.3410   -5.4060   24.8660 C   0  0  0  0  0  0  0  0  0  0  0  0
  -21.5660   -4.8890   23.5770 C   0  0  0  0  0  3  0  0  0  0  0  0
  -21.6490   -5.7590   22.4770 C   0  0  0  0  0  0  0  0  0  0  0  0
  -21.8450   -5.2550   21.2350 F   0  0  0  0  0  0  0  0  0  0  0  0
  -21.2560   -4.5650   25.9220 F   0  0  0  0  0  0  0  0  0  0  0  0
  -23.3000  -14.4500   21.3300 C   0  0  0  0  0  0  0  0  0  0  0  0
  -22.5670  -13.8210   22.2410 N   0  0  0  0  0  0  0  0  0  0  0  0
  -22.9350  -15.5200   20.8450 O   0  0  0  0  0  0  0  0  0  0  0  0
  -22.8780  -12.9540   22.6540 H   0  0  0  0  0  0  0  0  0  0  0  0
  -21.6790  -14.2070   22.5260 H   0  0  0  0  0  0  0  0  0  0  0  0
  -26.0290  -15.8650   20.3970 N   0  0  0  0  0  0  0  0  0  0  0  0
  -25.3450  -16.5910   20.5740 H   0  0  0  0  0  0  0  0  0  0  0  0
  -26.8900  -16.2230   20.0060 H   0  0  0  0  0  0  0  0  0  0  0  0
  -30.7510  -18.1940   17.9690 C   0  0  0  0  0  2  0  0  0  0  0  0
  -32.2230  -18.8380   15.9800 C   0  0  0  0  0  1  0  0  0  0  0  0
  -32.0580  -18.8580   17.5050 C   0  0  0  0  0  2  0  0  0  0  0  0
  1  8  1  0
  2  3  1  0
  4  6  1  0
  5  7  1  0
  5  4  1  0
  5  2  1  0
  6  3  1  0
  6  1  1  0
  8  9  1  0
 10  9  1  0
 10 11  1  0
 11 13  1  0
 12 23  2  0
 13 18  1  0
 14 24  1  0
 14 22  1  0
 15 21  1  0
 15 17  1  0
 16 22  1  0
 17 16  1  0
 18 17  2  0
 19 20  1  0
 19 13  2  0
 20 15  2  0
 21 14  1  0
 22 12  1  0
 24 26  2  0
 25 24  1  0
 27 25  1  0
 28 37  2  0
 28 33  1  0
 29 25  1  0
 29 33  1  0
 30 29  1  0
 31 32  1  0
 31 30  1  0
 32 28  1  0
 33 34  2  0
 34 35  1  0
 36 35  2  0
 37 36  1  0
 38 12  1  0
 38 39  1  0
 38 48  1  0
 39 42  1  0
 40 39  1  0
 40 44  1  0
 41 40  2  0
 44 43  1  0
 44 46  1  0
 46 47  1  0
 46 45  1  0
 48 49  1  1
 48 51  1  0
 50 48  1  0
 52 91  1  0
 52  1  1  0
 52 61  1  0
 53 59  1  0
 53 61  1  0
 54 59  1  0
 55 56  1  0
 55 54  1  0
 57 56  1  0
 57 66  1  0
 57 58  1  0
 59 58  1  0
 60 53  2  0
 61 62  1  0
 63 64  2  0
 64 83  1  0
 65 64  1  0
 65 68  1  0
 66 67  1  0
 66 63  1  0
 67 65  2  0
 68 69  1  0
 69 70  2  0
 71 74  1  0
 71 70  1  0
 72 71  2  0
 73 72  1  0
 73 68  2  0
 74 75  1  0
 75 76  1  0
 76 77  2  0
 78 77  1  0
 78 82  1  0
 79 78  2  0
 80 75  2  0
 80 79  1  0
 81 80  1  0
 83 84  1  0
 84 87  1  0
 84 86  1  0
 85 83  2  0
 88 63  1  0
 88 89  1  0
 90 88  1  0
 92 93  1  0
 93 91  1  0
M  ISO  4  10 101  11 101  53 100  61 100
M  END
>  <TORSDO>  (82) 
F 23

>  <SCORE>  (82) 
-2.724

>  <name>  (82) 
83

>  <ligand_id>  (82) 
83

>  <original_smiles>  (82) 
[H]c1c([H])c([H])c2c(c1[H])C([H])([H])C([H])([H])C([H])([H])C2([H])N([H])C(=O)C1([H])N(C(=O)C([H])(N([H])C(=O)C([H])(N([H])C([H])([H])[H])C([H])([H])[H])C(C([H])([H])[H])(C([H])([H])[H])C([H])([H])[H])C([H])([H])c2c([H])c(OC([H])([H])C([H])([H])C([H])([H])C([H])(C([H])(N([H])C(=O)N3C([H])([H])C([H])([H])C([H])([H])C([H])(n4nc(-c5c([H])c([H])c(Oc6c([H])c([H])c(F)c([H])c6F)c([H])c5[H])c(C(=O)N([H])[H])c4N([H])[H])C3([H])[H])C([H])([H])C([H])([H])C([H])([H])[H])C3([H])C([H])([H])C([H])([H])C([H])(C([H])([H])[H])C3([H])[H])c([H])c([H])c2C1([H])[H]

>  <smiles>  (82) 
[H]c1c([H])c([H])c2c(c1[H])C([H])([H])C([H])([H])C([H])([H])C2([H])N([H])C(=O)C1([H])N(C(=O)C([H])(N([H])C(=O)C([H])(N([H])C([H])([H])[H])C([H])([H])[H])C(C([H])([H])[H])(C([H])([H])[H])C([H])([H])[H])C([H])([H])c2c([H])c(OC([H])([H])C([H])([H])C([H])([H])C([H])(C([H])(N([H])C(=O)N3C([H])([H])C([H])([H])C([H])([H])C([H])(n4nc(-c5c([H])c([H])c(Oc6c([H])c([H])c(F)c([H])c6F)c([H])c5[H])c(C(=O)N([H])[H])c4N([H])[H])C3([H])[H])C([H])([H])C([H])([H])C([H])([H])[H])C3([H])C([H])([H])C([H])([H])C([H])(C([H])([H])[H])C3([H])[H])c([H])c([H])c2C1([H])[H]

$$$$
84:0:0
     RDKit          3D

 91 98  0  0  1  0  0  0  0  0999 V2000
  -29.9320  -18.2290   20.5630 C   0  0  0  0  0  0  0  0  0  0  0  0
  -30.4650  -15.3690   20.3530 C   0  0  0  0  0  0  0  0  0  0  0  0
  -30.4730  -12.9220   19.5330 C   0  0  0  0  0  2  0  0  0  0  0  0
  -29.5680  -12.6710   18.3030 C   0  0  0  0  0  2  0  0  0  0  0  0
  -28.1210  -12.3930   18.7400 C   0  0  0  0  0  2  0  0  0  0  0  0
  -27.6350  -13.3940   19.8180 C   0  0  0  0  0  3  0  0  0  0  0  0
  -28.6660  -13.5940   20.9480 C   0  0  0  0  0  2  0  0  0  0  0  0
  -29.8970  -14.0750   20.3040 N   0  0  0  0  0  0  0  0  0  0  0  0
  -31.6960  -15.3790   20.2500 O   0  0  0  0  0  0  0  0  0  0  0  0
  -29.6860  -16.6160   20.3030 N   0  0  0  0  0  4  0  0  0  0  0  0
  -28.7040  -16.4090   20.2070 H   0  0  0  0  0  0  0  0  0  0  0  0
  -25.2590  -13.9310   20.5700 C   0  0  0  0  0  0  0  0  0  0  0  0
  -24.2010  -13.1440   20.9280 C   0  0  0  0  0  0  0  0  0  0  0  0
  -24.6800  -11.7970   20.8880 C   0  0  0  0  0  0  0  0  0  0  0  0
  -26.3090  -13.0660   20.3240 N   0  0  0  0  0  0  0  0  0  0  0  0
  -25.9730  -11.7750   20.5860 N   0  0  0  0  0  0  0  0  0  0  0  0
  -23.9630  -10.5270   21.0600 C   0  0  0  0  0  0  0  0  0  0  0  0
  -24.3810   -9.5620   22.0030 C   0  0  0  0  0  3  0  0  0  0  0  0
  -23.6600   -8.3590   22.1660 C   0  0  0  0  0  3  0  0  0  0  0  0
  -22.5050   -8.1130   21.3850 C   0  0  0  0  0  0  0  0  0  0  0  0
  -22.1050   -9.0680   20.4350 C   0  0  0  0  0  3  0  0  0  0  0  0
  -22.8260  -10.2630   20.2690 C   0  0  0  0  0  3  0  0  0  0  0  0
  -21.7570   -6.9630   21.4570 O   0  0  0  0  0  0  0  0  0  0  0  0
  -21.6720   -6.2310   22.6140 C   0  0  0  0  0  0  0  0  0  0  0  0
  -21.1650   -6.7850   23.8100 C   0  0  0  0  0  3  0  0  0  0  0  0
  -21.0300   -5.9780   24.9570 C   0  0  0  0  0  3  0  0  0  0  0  0
  -21.3890   -4.6180   24.9100 C   0  0  0  0  0  0  0  0  0  0  0  0
  -21.8880   -4.0640   23.7180 C   0  0  0  0  0  3  0  0  0  0  0  0
  -22.0250   -4.8670   22.5720 C   0  0  0  0  0  0  0  0  0  0  0  0
  -22.4870   -4.3240   21.4200 F   0  0  0  0  0  0  0  0  0  0  0  0
  -21.2510   -3.8400   26.0090 F   0  0  0  0  0  0  0  0  0  0  0  0
  -22.7980  -13.6060   21.1880 C   0  0  0  0  0  0  0  0  0  0  0  0
  -22.0690  -12.8990   22.0430 N   0  0  0  0  0  0  0  0  0  0  0  0
  -22.3570  -14.6310   20.6690 O   0  0  0  0  0  0  0  0  0  0  0  0
  -22.4390  -12.0700   22.4820 H   0  0  0  0  0  0  0  0  0  0  0  0
  -21.1280  -13.1920   22.2630 H   0  0  0  0  0  0  0  0  0  0  0  0
  -25.4100  -15.3040   20.4020 N   0  0  0  0  0  0  0  0  0  0  0  0
  -24.6340  -15.9490   20.5030 H   0  0  0  0  0  0  0  0  0  0  0  0
  -26.2470  -15.7450   20.0440 H   0  0  0  0  0  0  0  0  0  0  0  0
  -31.4320  -18.5600   20.4730 C   0  0  0  0  0  0  0  0  0  0  0  0
  -32.0930  -18.3330   19.4550 O   0  0  0  0  0  0  0  0  0  0  0  0
  -32.0780  -19.2230   21.6980 C   0  0  0  0  0  2  0  0  0  0  0  0
  -33.4920  -19.5150   21.4100 N   0  0  0  0  0  4  0  0  0  0  0  0
  -33.9710  -18.6620   21.1830 H   0  0  0  0  0  0  0  0  0  0  0  0
  -33.9300  -19.9390   22.2060 H   0  0  0  0  0  0  0  0  0  0  0  0
  -33.5600  -20.1340   20.6220 H   0  0  0  0  0  0  0  0  0  0  0  0
  -28.9880  -19.6370   20.0360 C   0  0  0  0  0  2  0  0  0  0  0  0
  -28.9620  -21.3050   20.6420 C   0  0  0  0  0  2  0  0  0  0  0  0
  -28.5590  -22.9210   19.9840 C   0  0  0  0  0  2  0  0  0  0  0  0
  -27.7080  -24.4700   20.2530 C   0  0  0  0  0  2  0  0  0  0  0  0
  -28.0230  -26.0620   20.1320 O   0  0  0  0  0  0  0  0  0  0  0  0
  -24.5560  -31.9790   23.2260 C   0  0  0  0  0  0  0  0  0  0  0  0
  -27.0060  -27.1380   20.1280 C   0  0  0  0  0  0  0  0  0  0  0  0
  -23.3120  -30.5960   21.6150 C   0  0  0  0  0  3  0  0  0  0  0  0
  -24.7140  -28.9960   20.1550 C   0  0  0  0  0  0  0  0  0  0  0  0
  -25.8740  -30.8040   21.4050 C   0  0  0  0  0  2  0  0  0  0  0  0
  -25.9180  -29.4020   20.7420 C   0  0  0  0  0  0  0  0  0  0  0  0
  -27.0630  -28.4910   20.7030 C   0  0  0  0  0  3  0  0  0  0  0  0
  -25.7700  -26.8770   19.4930 C   0  0  0  0  0  3  0  0  0  0  0  0
  -24.6600  -27.7530   19.5100 C   0  0  0  0  0  3  0  0  0  0  0  0
  -23.5040  -29.9230   20.2320 C   0  0  0  0  0  2  0  0  0  0  0  0
  -24.6040  -31.1520   22.1350 N   0  0  0  0  0  0  0  0  0  0  0  0
  -23.4820  -32.2740   23.7760 O   0  0  0  0  0  0  0  0  0  0  0  0
  -22.6400  -29.5970   22.5920 C   0  0  0  0  0  0  0  0  0  0  0  0
  -21.3120  -29.4120   22.4750 N   0  0  0  0  0  0  0  0  0  0  0  0
  -23.3210  -28.9870   23.4220 O   0  0  0  0  0  0  0  0  0  0  0  0
  -20.8170  -29.9550   21.7810 H   0  0  0  0  0  0  0  0  0  0  0  0
  -17.9560  -28.1320   22.9790 C   0  0  0  0  0  0  0  0  0  0  0  0
  -20.5050  -28.4690   23.2580 C   0  0  0  0  0  3  0  0  0  0  0  0
  -20.6500  -27.0280   22.7210 C   0  0  0  0  0  2  0  0  0  0  0  0
  -19.5660  -26.6510   21.7050 C   0  0  0  0  0  2  0  0  0  0  0  0
  -18.1740  -26.7730   22.3340 C   0  0  0  0  0  2  0  0  0  0  0  0
  -19.0500  -28.9350   23.3990 C   0  0  0  0  0  0  0  0  0  0  0  0
  -18.7920  -30.2020   23.9650 C   0  0  0  0  0  3  0  0  0  0  0  0
  -17.4720  -30.6680   24.1170 C   0  0  0  0  0  3  0  0  0  0  0  0
  -16.3930  -29.8640   23.7120 C   0  0  0  0  0  3  0  0  0  0  0  0
  -16.6350  -28.5990   23.1480 C   0  0  0  0  0  3  0  0  0  0  0  0
  -25.8470  -32.6110   23.8260 C   0  0  0  0  0  3  0  0  0  0  0  0
  -26.3730  -31.8470   25.1040 C   0  0  1  0  0  0  0  0  0  0  0  0
  -25.2910  -31.6240   26.1870 C   0  0  0  0  0  1  0  0  0  0  0  0
  -26.9470  -30.4620   24.7240 C   0  0  0  0  0  1  0  0  0  0  0  0
  -27.5360  -32.6430   25.7460 C   0  0  0  0  0  1  0  0  0  0  0  0
  -25.5500  -34.0150   24.1580 N   0  0  0  0  0  0  0  0  0  0  0  0
  -25.8860  -35.0700   23.4050 C   0  0  0  0  0  0  0  0  0  0  0  0
  -26.5400  -34.9630   22.3660 O   0  0  0  0  0  0  0  0  0  0  0  0
  -24.9680  -34.1700   24.9680 H   0  0  0  0  0  0  0  0  0  0  0  0
  -24.1850  -36.8990   23.0760 C   0  0  0  0  0  1  0  0  0  0  0  0
  -25.4220  -36.4630   23.8770 C   0  0  0  0  0  3  0  0  0  0  0  0
  -27.5720  -37.3170   24.7070 C   0  0  0  0  0  1  0  0  0  0  0  0
  -26.4710  -37.5010   23.7650 N   0  0  0  0  0  0  0  0  0  0  0  0
  -26.0790  -38.4260   23.9170 H   0  0  0  0  0  0  0  0  0  0  0  0
  3  8  1  0
  4  5  1  0
  4  3  1  0
  6  5  1  0
  6 15  1  0
  6  7  1  0
  8  2  1  0
  8  7  1  0
  9  2  2  0
 10  2  1  0
 10  1  2  0
 11 10  1  0
 12 13  2  0
 13 32  1  0
 14 13  1  0
 14 17  1  0
 15 12  1  0
 15 16  1  0
 16 14  2  0
 17 18  1  0
 18 19  2  0
 20 23  1  0
 20 19  1  0
 21 20  2  0
 22 21  1  0
 22 17  2  0
 23 24  1  0
 24 25  1  0
 25 26  2  0
 27 26  1  0
 27 31  1  0
 28 27  2  0
 29 24  2  0
 29 28  1  0
 30 29  1  0
 32 33  1  0
 33 36  1  0
 33 35  1  0
 34 32  2  0
 37 38  1  0
 37 12  1  0
 39 37  1  0
 40  1  1  0
 40 42  1  0
 41 40  2  0
 43 42  1  0
 43 45  1  0
 44 43  1  0
 46 43  1  0
 47  1  1  0
 47 48  1  0
 49 50  1  0
 49 48  1  0
 51 50  1  0
 52 63  2  0
 53 51  1  0
 53 58  1  0
 54 62  1  0
 54 64  1  0
 55 61  1  0
 55 57  1  0
 56 62  1  0
 57 56  1  0
 58 57  2  0
 59 60  1  0
 59 53  2  0
 60 55  2  0
 61 54  1  0
 62 52  1  0
 64 66  2  0
 65 64  1  0
 67 65  1  0
 68 77  2  0
 68 73  1  0
 69 65  1  0
 69 73  1  0
 70 69  1  0
 71 72  1  0
 71 70  1  0
 72 68  1  0
 73 74  2  0
 74 75  1  0
 76 75  2  0
 77 76  1  0
 78 52  1  0
 78 83  1  0
 78 79  1  0
 79 82  1  1
 79 80  1  0
 81 79  1  0
 83 86  1  0
 84 88  1  0
 84 83  1  0
 85 84  2  0
 88 87  1  0
 90 88  1  0
 90 91  1  0
 90 89  1  0
M  ISO  4   2 100  10 100  50 101  51 101
M  END
>  <TORSDO>  (83) 
F 23

>  <SCORE>  (83) 
-14.519

>  <name>  (83) 
84

>  <ligand_id>  (83) 
84

>  <original_smiles>  (83) 
[H]c1c([H])c([H])c2c(c1[H])C([H])([H])C([H])([H])C([H])([H])C2([H])N([H])C(=O)C1([H])N(C(=O)C([H])(N([H])C(=O)C([H])(N([H])C([H])([H])[H])C([H])([H])[H])C(C([H])([H])[H])(C([H])([H])[H])C([H])([H])[H])C([H])([H])c2c([H])c(OC([H])([H])C([H])([H])C([H])([H])C([H])([H])C([H])(C(=O)C([H])([H])[N+]([H])([H])[H])N([H])C(=O)N3C([H])([H])C([H])([H])C([H])([H])C([H])(n4nc(-c5c([H])c([H])c(Oc6c([H])c([H])c(F)c([H])c6F)c([H])c5[H])c(C(=O)N([H])[H])c4N([H])[H])C3([H])[H])c([H])c([H])c2C1([H])[H]

>  <smiles>  (83) 
[H]c1c([H])c([H])c2c(c1[H])C([H])([H])C([H])([H])C([H])([H])C2([H])N([H])C(=O)C1([H])N(C(=O)C([H])(N([H])C(=O)C([H])(N([H])C([H])([H])[H])C([H])([H])[H])C(C([H])([H])[H])(C([H])([H])[H])C([H])([H])[H])C([H])([H])c2c([H])c(OC([H])([H])C([H])([H])C([H])([H])C([H])([H])C([H])(C(=O)C([H])([H])[N+]([H])([H])[H])N([H])C(=O)N3C([H])([H])C([H])([H])C([H])([H])C([H])(n4nc(-c5c([H])c([H])c(Oc6c([H])c([H])c(F)c([H])c6F)c([H])c5[H])c(C(=O)N([H])[H])c4N([H])[H])C3([H])[H])c([H])c([H])c2C1([H])[H]

$$$$
85:0:0
     RDKit          3D

 87 94  0  0  1  0  0  0  0  0999 V2000
  -30.4560  -23.7990   20.9930 C   0  0  0  0  0  1  0  0  0  0  0  0
  -29.1500  -23.4980   20.2290 C   0  0  0  0  0  3  0  0  0  0  0  0
  -28.7110  -21.8940   20.4920 C   0  0  0  0  0  2  0  0  0  0  0  0
  -29.6150  -20.5510   20.1670 C   0  0  0  0  0  0  0  0  0  0  0  0
  -30.7060  -20.7150   19.6130 O   0  0  0  0  0  0  0  0  0  0  0  0
  -29.1740  -18.9950   20.5040 C   0  0  0  0  0  3  0  0  0  0  0  0
  -30.1470  -17.6460   20.2400 C   0  0  0  0  0  3  0  0  0  0  0  0
  -30.4960  -14.9500   20.2890 C   0  0  0  0  0  0  0  0  0  0  0  0
  -30.3370  -12.6270   19.3240 C   0  0  0  0  0  2  0  0  0  0  0  0
  -29.3820  -12.6020   18.1100 C   0  0  0  0  0  2  0  0  0  0  0  0
  -27.9320  -12.3820   18.5700 C   0  0  0  0  0  2  0  0  0  0  0  0
  -27.5460  -13.3080   19.7520 C   0  0  0  0  0  3  0  0  0  0  0  0
  -28.6130  -13.2950   20.8680 C   0  0  0  0  0  2  0  0  0  0  0  0
  -29.8800  -13.7020   20.2500 N   0  0  0  0  0  0  0  0  0  0  0  0
  -31.6770  -15.0180   19.9380 O   0  0  0  0  0  0  0  0  0  0  0  0
  -29.7560  -16.1400   20.5050 N   0  0  0  0  0  0  0  0  0  0  0  0
  -28.8110  -15.9860   20.8240 H   0  0  0  0  0  0  0  0  0  0  0  0
  -25.1730  -13.8880   20.5110 C   0  0  0  0  0  0  0  0  0  0  0  0
  -24.1150  -13.1080   20.8870 C   0  0  0  0  0  0  0  0  0  0  0  0
  -24.5800  -11.7580   20.8430 C   0  0  0  0  0  0  0  0  0  0  0  0
  -26.2130  -13.0110   20.2580 N   0  0  0  0  0  0  0  0  0  0  0  0
  -25.8690  -11.7270   20.5280 N   0  0  0  0  0  0  0  0  0  0  0  0
  -23.8610  -10.4900   21.0240 C   0  0  0  0  0  0  0  0  0  0  0  0
  -24.2900   -9.5230   21.9600 C   0  0  0  0  0  3  0  0  0  0  0  0
  -23.5670   -8.3240   22.1340 C   0  0  0  0  0  3  0  0  0  0  0  0
  -22.3980   -8.0820   21.3740 C   0  0  0  0  0  0  0  0  0  0  0  0
  -21.9890   -9.0380   20.4280 C   0  0  0  0  0  3  0  0  0  0  0  0
  -22.7130  -10.2290   20.2510 C   0  0  0  0  0  3  0  0  0  0  0  0
  -21.6450   -6.9360   21.4590 O   0  0  0  0  0  0  0  0  0  0  0  0
  -21.5770   -6.2060   22.6180 C   0  0  0  0  0  0  0  0  0  0  0  0
  -21.1160   -6.7680   23.8300 C   0  0  0  0  0  3  0  0  0  0  0  0
  -20.9960   -5.9620   24.9780 C   0  0  0  0  0  3  0  0  0  0  0  0
  -21.3290   -4.5940   24.9190 C   0  0  0  0  0  0  0  0  0  0  0  0
  -21.7830   -4.0340   23.7130 C   0  0  0  0  0  3  0  0  0  0  0  0
  -21.9060   -4.8370   22.5660 C   0  0  0  0  0  0  0  0  0  0  0  0
  -22.3210   -4.2870   21.4000 F   0  0  0  0  0  0  0  0  0  0  0  0
  -21.2060   -3.8160   26.0220 F   0  0  0  0  0  0  0  0  0  0  0  0
  -22.7200  -13.5780   21.1730 C   0  0  0  0  0  0  0  0  0  0  0  0
  -22.0010  -12.8720   22.0350 N   0  0  0  0  0  0  0  0  0  0  0  0
  -22.2790  -14.6100   20.6640 O   0  0  0  0  0  0  0  0  0  0  0  0
  -22.3800  -12.0390   22.4630 H   0  0  0  0  0  0  0  0  0  0  0  0
  -21.0620  -13.1640   22.2680 H   0  0  0  0  0  0  0  0  0  0  0  0
  -25.3460  -15.2580   20.3350 N   0  0  0  0  0  0  0  0  0  0  0  0
  -24.5870  -15.9230   20.4320 H   0  0  0  0  0  0  0  0  0  0  0  0
  -26.1910  -15.6790   19.9740 H   0  0  0  0  0  0  0  0  0  0  0  0
  -28.0810  -24.7580   20.5120 C   0  0  0  0  0  2  0  0  0  0  0  0
  -28.2990  -26.2730   20.2660 O   0  0  0  0  0  0  0  0  0  0  0  0
  -24.5930  -31.8920   23.2450 C   0  0  0  0  0  0  0  0  0  0  0  0
  -27.2070  -27.2080   20.2350 C   0  0  0  0  0  0  0  0  0  0  0  0
  -23.3940  -30.4830   21.6100 C   0  0  0  0  0  3  0  0  0  0  0  0
  -24.8550  -28.9130   20.1900 C   0  0  0  0  0  0  0  0  0  0  0  0
  -25.9440  -30.7770   21.4280 C   0  0  0  0  0  2  0  0  0  0  0  0
  -26.0270  -29.3810   20.7930 C   0  0  0  0  0  0  0  0  0  0  0  0
  -27.2050  -28.5460   20.7940 C   0  0  0  0  0  3  0  0  0  0  0  0
  -26.0010  -26.8330   19.5930 C   0  0  0  0  0  3  0  0  0  0  0  0
  -24.8540  -27.6540   19.5720 C   0  0  0  0  0  3  0  0  0  0  0  0
  -23.6130  -29.7890   20.2380 C   0  0  0  0  0  2  0  0  0  0  0  0
  -24.6640  -31.0720   22.1500 N   0  0  0  0  0  0  0  0  0  0  0  0
  -23.5090  -32.1710   23.7770 O   0  0  0  0  0  0  0  0  0  0  0  0
  -22.7200  -29.4810   22.5800 C   0  0  0  0  0  0  0  0  0  0  0  0
  -21.3910  -29.3110   22.4580 N   0  0  0  0  0  0  0  0  0  0  0  0
  -23.3950  -28.8560   23.3990 O   0  0  0  0  0  0  0  0  0  0  0  0
  -20.9020  -29.8680   21.7740 H   0  0  0  0  0  0  0  0  0  0  0  0
  -18.0110  -28.1130   22.9570 C   0  0  0  0  0  0  0  0  0  0  0  0
  -20.5690  -28.3730   23.2280 C   0  0  0  0  0  3  0  0  0  0  0  0
  -20.6690  -26.9380   22.6550 C   0  0  0  0  0  2  0  0  0  0  0  0
  -19.5680  -26.6180   21.6390 C   0  0  0  0  0  2  0  0  0  0  0  0
  -18.1870  -26.7630   22.2820 C   0  0  0  0  0  2  0  0  0  0  0  0
  -19.1290  -28.8770   23.3860 C   0  0  0  0  0  0  0  0  0  0  0  0
  -18.9090  -30.1420   23.9730 C   0  0  0  0  0  3  0  0  0  0  0  0
  -17.6030  -30.6420   24.1370 C   0  0  0  0  0  3  0  0  0  0  0  0
  -16.5000  -29.8710   23.7320 C   0  0  0  0  0  3  0  0  0  0  0  0
  -16.7030  -28.6100   23.1450 C   0  0  0  0  0  3  0  0  0  0  0  0
  -25.8710  -32.5330   23.8680 C   0  0  0  0  0  3  0  0  0  0  0  0
  -25.5590  -33.9320   24.2020 N   0  0  0  0  0  0  0  0  0  0  0  0
  -25.8770  -34.9860   23.4410 C   0  0  0  0  0  0  0  0  0  0  0  0
  -26.5310  -34.8850   22.3990 O   0  0  0  0  0  0  0  0  0  0  0  0
  -24.9810  -34.0870   25.0150 H   0  0  0  0  0  0  0  0  0  0  0  0
  -24.1370  -36.7780   23.1230 C   0  0  0  0  0  1  0  0  0  0  0  0
  -25.3950  -36.3750   23.9100 C   0  0  0  0  0  3  0  0  0  0  0  0
  -27.5390  -37.2730   24.6980 C   0  0  0  0  0  1  0  0  0  0  0  0
  -26.4190  -37.4340   23.7760 N   0  0  0  0  0  0  0  0  0  0  0  0
  -26.0080  -38.3510   23.9340 H   0  0  0  0  0  0  0  0  0  0  0  0
  -26.3890  -31.7670   25.1490 C   0  0  1  0  0  0  0  0  0  0  0  0
  -25.3000  -31.5250   26.2230 C   0  0  0  0  0  1  0  0  0  0  0  0
  -26.9740  -30.3910   24.7610 C   0  0  0  0  0  1  0  0  0  0  0  0
  -27.5410  -32.5610   25.8090 C   0  0  0  0  0  1  0  0  0  0  0  0
  2  3  1  0
  2 46  1  0
  2  1  1  0
  4  3  1  0
  4  6  1  0
  5  4  2  0
  7  6  2  0
  7 16  1  0
  8 16  1  0
  9 14  1  0
 10 11  1  0
 10  9  1  0
 12 11  1  0
 12 21  1  0
 12 13  1  0
 14  8  1  0
 14 13  1  0
 15  8  2  0
 16 17  1  0
 18 19  2  0
 19 38  1  0
 20 19  1  0
 20 23  1  0
 21 18  1  0
 21 22  1  0
 22 20  2  0
 23 24  1  0
 24 25  2  0
 26 29  1  0
 26 25  1  0
 27 26  2  0
 28 27  1  0
 28 23  2  0
 29 30  1  0
 30 31  1  0
 31 32  2  0
 33 32  1  0
 33 37  1  0
 34 33  2  0
 35 30  2  0
 35 34  1  0
 36 35  1  0
 38 39  1  0
 39 42  1  0
 39 41  1  0
 40 38  2  0
 43 44  1  0
 43 18  1  0
 45 43  1  0
 47 46  1  0
 48 59  2  0
 49 47  1  0
 49 54  1  0
 50 58  1  0
 50 60  1  0
 51 57  1  0
 51 53  1  0
 52 58  1  0
 53 54  2  0
 53 52  1  0
 55 49  2  0
 56 55  1  0
 56 51  2  0
 57 50  1  0
 58 48  1  0
 60 62  2  0
 61 60  1  0
 63 61  1  0
 64 73  2  0
 64 69  1  0
 65 61  1  0
 65 69  1  0
 66 65  1  0
 67 68  1  0
 67 66  1  0
 68 64  1  0
 69 70  2  0
 70 71  1  0
 72 71  2  0
 73 72  1  0
 74 48  1  0
 74 75  1  0
 74 84  1  0
 75 78  1  0
 76 80  1  0
 76 75  1  0
 77 76  2  0
 80 79  1  0
 82 80  1  0
 82 83  1  0
 82 81  1  0
 84 87  1  1
 84 85  1  0
 86 84  1  0
M  ISO  4   8 100  16 100  46 101  47 101
M  END
>  <TORSDO>  (84) 
F 21

>  <SCORE>  (84) 
-13.275

>  <name>  (84) 
85

>  <ligand_id>  (84) 
85

>  <original_smiles>  (84) 
[H]c1c([H])c([H])c2c(c1[H])C([H])([H])C([H])([H])C([H])([H])C2([H])N([H])C(=O)C1([H])N(C(=O)C([H])(N([H])C(=O)C([H])(N([H])C([H])([H])[H])C([H])([H])[H])C(C([H])([H])[H])(C([H])([H])[H])C([H])([H])[H])C([H])([H])c2c([H])c(OC([H])([H])C([H])(C([H])([H])[H])C([H])([H])C(=O)C([H])([H])C([H])([H])N([H])C(=O)N3C([H])([H])C([H])([H])C([H])([H])C([H])(n4nc(-c5c([H])c([H])c(Oc6c([H])c([H])c(F)c([H])c6F)c([H])c5[H])c(C(=O)N([H])[H])c4N([H])[H])C3([H])[H])c([H])c([H])c2C1([H])[H]

>  <smiles>  (84) 
[H]c1c([H])c([H])c2c(c1[H])C([H])([H])C([H])([H])C([H])([H])C2([H])N([H])C(=O)C1([H])N(C(=O)C([H])(N([H])C(=O)C([H])(N([H])C([H])([H])[H])C([H])([H])[H])C(C([H])([H])[H])(C([H])([H])[H])C([H])([H])[H])C([H])([H])c2c([H])c(OC([H])([H])C([H])(C([H])([H])[H])C([H])([H])C(=O)C([H])([H])C([H])([H])N([H])C(=O)N3C([H])([H])C([H])([H])C([H])([H])C([H])(n4nc(-c5c([H])c([H])c(Oc6c([H])c([H])c(F)c([H])c6F)c([H])c5[H])c(C(=O)N([H])[H])c4N([H])[H])C3([H])[H])c([H])c([H])c2C1([H])[H]

$$$$
86:0:0
     RDKit          3D

 91 99  0  0  1  0  0  0  0  0999 V2000
  -31.1850  -21.1030   19.9400 C   0  0  0  0  0  1  0  0  0  0  0  0
  -29.6660  -20.8920   19.7920 C   0  0  0  0  0  3  0  0  0  0  0  0
  -29.3120  -22.3770   17.6860 C   0  0  0  0  0  1  0  0  0  0  0  0
  -28.9580  -22.2300   19.1840 C   0  0  0  0  0  3  0  0  0  0  0  0
  -29.1550  -23.6760   19.9040 C   0  0  0  0  0  3  0  0  0  0  0  0
  -28.1210  -24.8690   19.5610 C   0  0  0  0  0  3  0  0  0  0  0  0
  -28.3250  -26.3100   19.9290 O   0  0  0  0  0  0  0  0  0  0  0  0
  -24.4630  -31.5840   23.0410 C   0  0  0  0  0  0  0  0  0  0  0  0
  -27.2090  -27.1770   19.8660 C   0  0  0  0  0  0  0  0  0  0  0  0
  -23.3080  -30.2140   21.3450 C   0  0  0  0  0  3  0  0  0  0  0  0
  -24.8110  -28.7590   19.8720 C   0  0  0  0  0  0  0  0  0  0  0  0
  -25.8410  -30.6020   21.1920 C   0  0  0  0  0  2  0  0  0  0  0  0
  -25.9650  -29.2480   20.4980 C   0  0  0  0  0  0  0  0  0  0  0  0
  -27.1660  -28.4700   20.4830 C   0  0  0  0  0  3  0  0  0  0  0  0
  -26.0280  -26.7580   19.2060 C   0  0  0  0  0  3  0  0  0  0  0  0
  -24.8470  -27.5240   19.2140 C   0  0  0  0  0  3  0  0  0  0  0  0
  -23.5510  -29.6010   19.9410 C   0  0  0  0  0  2  0  0  0  0  0  0
  -24.5560  -30.8170   21.9160 N   0  0  0  0  0  0  0  0  0  0  0  0
  -23.3680  -31.8130   23.5770 O   0  0  0  0  0  0  0  0  0  0  0  0
  -22.6700  -29.1450   22.2640 C   0  0  0  0  0  0  0  0  0  0  0  0
  -21.3580  -28.9040   22.0950 N   0  0  0  0  0  0  0  0  0  0  0  0
  -23.3550  -28.5320   23.0880 O   0  0  0  0  0  0  0  0  0  0  0  0
  -20.8600  -29.4550   21.4070 H   0  0  0  0  0  0  0  0  0  0  0  0
  -18.0320  -27.5320   22.4770 C   0  0  0  0  0  0  0  0  0  0  0  0
  -20.5650  -27.9120   22.8240 C   0  0  0  0  0  3  0  0  0  0  0  0
  -20.7570  -26.5000   22.2270 C   0  0  0  0  0  2  0  0  0  0  0  0
  -19.7030  -26.1420   21.1760 C   0  0  0  0  0  2  0  0  0  0  0  0
  -18.2960  -26.2060   21.7800 C   0  0  0  0  0  2  0  0  0  0  0  0
  -19.0990  -28.3390   22.9530 C   0  0  0  0  0  0  0  0  0  0  0  0
  -18.8010  -29.5770   23.5630 C   0  0  0  0  0  3  0  0  0  0  0  0
  -17.4700  -30.0100   23.7020 C   0  0  0  0  0  3  0  0  0  0  0  0
  -16.4160  -29.2000   23.2420 C   0  0  0  0  0  3  0  0  0  0  0  0
  -16.6980  -27.9620   22.6350 C   0  0  0  0  0  3  0  0  0  0  0  0
  -25.7230  -32.2330   23.6930 C   0  0  0  0  0  3  0  0  0  0  0  0
  -25.3780  -33.6190   24.0410 N   0  0  0  0  0  0  0  0  0  0  0  0
  -25.6820  -34.6910   23.2960 C   0  0  0  0  0  0  0  0  0  0  0  0
  -26.3530  -34.6200   22.2630 O   0  0  0  0  0  0  0  0  0  0  0  0
  -24.7880  -33.7480   24.8480 H   0  0  0  0  0  0  0  0  0  0  0  0
  -23.9120  -36.4500   22.9670 C   0  0  0  0  0  1  0  0  0  0  0  0
  -25.1610  -36.0620   23.7730 C   0  0  0  0  0  3  0  0  0  0  0  0
  -27.2720  -36.9880   24.6220 C   0  0  0  0  0  1  0  0  0  0  0  0
  -26.1680  -37.1410   23.6780 N   0  0  0  0  0  0  0  0  0  0  0  0
  -25.7370  -38.0470   23.8390 H   0  0  0  0  0  0  0  0  0  0  0  0
  -26.2340  -31.4520   24.9660 C   0  0  1  0  0  0  0  0  0  0  0  0
  -25.1270  -31.1650   26.0060 C   0  0  0  0  0  1  0  0  0  0  0  0
  -26.8650  -30.0970   24.5650 C   0  0  0  0  0  1  0  0  0  0  0  0
  -27.3420  -32.2690   25.6700 C   0  0  0  0  0  1  0  0  0  0  0  0
  -29.3240  -19.4580   19.0980 C   0  0  0  0  0  2  0  0  0  0  0  0
  -30.9820  -14.7490   19.0430 C   0  0  0  0  0  0  0  0  0  0  0  0
  -30.5300  -12.4630   18.1440 C   0  0  0  0  0  2  0  0  0  0  0  0
  -29.3880  -12.5160   17.1080 C   0  0  0  0  0  2  0  0  0  0  0  0
  -28.0230  -12.3650   17.8030 C   0  0  0  0  0  2  0  0  0  0  0  0
  -27.8820  -13.2840   19.0450 C   0  0  0  0  0  3  0  0  0  0  0  0
  -29.1290  -13.2300   19.9490 C   0  0  0  0  0  2  0  0  0  0  0  0
  -30.2900  -13.5590   19.1100 N   0  0  0  0  0  0  0  0  0  0  0  0
  -32.0990  -14.7590   18.5170 O   0  0  0  0  0  0  0  0  0  0  0  0
  -30.4760  -17.1270   18.1780 C   0  0  0  0  0  2  0  0  0  0  0  0
  -30.1880  -18.1150   19.3390 C   0  0  0  0  0  3  0  0  0  0  0  0
  -29.6220  -16.8370   20.0770 C   0  0  0  0  0  3  0  0  0  0  0  0
  -30.2790  -15.9500   19.0660 N   0  0  0  0  0  0  0  0  0  0  0  0
  -25.7530  -13.9150   20.3240 C   0  0  0  0  0  0  0  0  0  0  0  0
  -24.7330  -13.1630   20.8410 C   0  0  0  0  0  0  0  0  0  0  0  0
  -25.0790  -11.8000   20.5890 C   0  0  0  0  0  0  0  0  0  0  0  0
  -26.6550  -13.0130   19.7880 N   0  0  0  0  0  0  0  0  0  0  0  0
  -26.2700  -11.7290   20.0080 N   0  0  0  0  0  0  0  0  0  0  0  0
  -24.3190  -10.5650   20.8130 C   0  0  0  0  0  0  0  0  0  0  0  0
  -24.7890   -9.5580   21.6870 C   0  0  0  0  0  3  0  0  0  0  0  0
  -24.0280   -8.3870   21.9010 C   0  0  0  0  0  3  0  0  0  0  0  0
  -22.7880   -8.2150   21.2440 C   0  0  0  0  0  0  0  0  0  0  0  0
  -22.3380   -9.2100   20.3570 C   0  0  0  0  0  3  0  0  0  0  0  0
  -23.0960  -10.3720   20.1400 C   0  0  0  0  0  3  0  0  0  0  0  0
  -21.9950   -7.0990   21.3720 O   0  0  0  0  0  0  0  0  0  0  0  0
  -21.8800   -6.4300   22.5650 C   0  0  0  0  0  0  0  0  0  0  0  0
  -21.4550   -7.0770   23.7470 C   0  0  0  0  0  3  0  0  0  0  0  0
  -21.2900   -6.3340   24.9330 C   0  0  0  0  0  3  0  0  0  0  0  0
  -21.5350   -4.9480   24.9370 C   0  0  0  0  0  0  0  0  0  0  0  0
  -21.9480   -4.3020   23.7590 C   0  0  0  0  0  3  0  0  0  0  0  0
  -22.1170   -5.0410   22.5760 C   0  0  0  0  0  0  0  0  0  0  0  0
  -22.4990   -4.4100   21.4390 F   0  0  0  0  0  0  0  0  0  0  0  0
  -21.3650   -4.2350   26.0740 F   0  0  0  0  0  0  0  0  0  0  0  0
  -23.4620  -13.6820   21.4480 C   0  0  0  0  0  0  0  0  0  0  0  0
  -22.8980  -12.9550   22.4070 N   0  0  0  0  0  0  0  0  0  0  0  0
  -22.9840  -14.7620   21.1020 O   0  0  0  0  0  0  0  0  0  0  0  0
  -23.3020  -12.0820   22.7090 H   0  0  0  0  0  0  0  0  0  0  0  0
  -22.0460  -13.2780   22.8430 H   0  0  0  0  0  0  0  0  0  0  0  0
  -25.9820  -15.2840   20.2430 N   0  0  0  0  0  0  0  0  0  0  0  0
  -25.3290  -15.9690   20.6060 H   0  0  0  0  0  0  0  0  0  0  0  0
  -26.8030  -15.7040   19.8250 H   0  0  0  0  0  0  0  0  0  0  0  0
  -31.0590  -17.4230   22.1520 C   0  0  0  0  0  1  0  0  0  0  0  0
  -28.7490  -16.4440   22.4310 C   0  0  0  0  0  1  0  0  0  0  0  0
  -30.0000  -16.4900   21.5400 C   0  0  0  0  0  3  0  0  0  0  0  0
  2  1  1  0
  4  3  1  0
  4  2  1  0
  4  5  1  0
  6  5  2  0
  6  7  1  0
  8 19  2  0
  9  7  1  0
  9 14  1  0
 10 18  1  0
 10 20  1  0
 11 17  1  0
 11 13  1  0
 12 18  1  0
 13 12  1  0
 14 13  2  0
 15 16  1  0
 15  9  2  0
 16 11  2  0
 17 10  1  0
 18  8  1  0
 20 22  2  0
 21 20  1  0
 23 21  1  0
 24 33  2  0
 24 29  1  0
 25 21  1  0
 25 29  1  0
 26 25  1  0
 27 28  1  0
 27 26  1  0
 28 24  1  0
 29 30  2  0
 30 31  1  0
 32 31  2  0
 33 32  1  0
 34  8  1  0
 34 35  1  0
 34 44  1  0
 35 38  1  0
 36 40  1  0
 36 35  1  0
 37 36  2  0
 40 39  1  0
 42 40  1  0
 42 43  1  0
 42 41  1  0
 44 47  1  1
 44 45  1  0
 46 44  1  0
 48  2  1  0
 49 60  1  0
 49 55  1  0
 50 55  1  0
 51 52  1  0
 51 50  1  0
 53 52  1  0
 53 64  1  0
 53 54  1  0
 55 54  1  0
 56 49  2  0
 57 60  1  0
 57 58  1  0
 58 48  1  0
 58 59  1  0
 59 91  1  0
 60 59  1  0
 61 62  2  0
 62 81  1  0
 63 66  1  0
 63 62  1  0
 64 65  1  0
 64 61  1  0
 65 63  2  0
 66 67  1  0
 67 68  2  0
 69 72  1  0
 69 68  1  0
 70 69  2  0
 71 70  1  0
 71 66  2  0
 72 73  1  0
 73 78  2  0
 73 74  1  0
 74 75  2  0
 75 76  1  0
 76 80  1  0
 77 76  2  0
 78 77  1  0
 79 78  1  0
 81 82  1  0
 82 84  1  0
 82 85  1  0
 83 81  2  0
 86 61  1  0
 86 87  1  0
 88 86  1  0
 91 89  1  0
 91 90  1  0
M  ISO  4   6 101   7 101  49 100  60 100
M  END
>  <TORSDO>  (85) 
F 21

>  <SCORE>  (85) 
-8.452

>  <name>  (85) 
86

>  <ligand_id>  (85) 
86

>  <original_smiles>  (85) 
[H]c1c([H])c([H])c2c(c1[H])C([H])([H])C([H])([H])C([H])([H])C2([H])N([H])C(=O)C1([H])N(C(=O)C([H])(N([H])C(=O)C([H])(N([H])C([H])([H])[H])C([H])([H])[H])C(C([H])([H])[H])(C([H])([H])[H])C([H])([H])[H])C([H])([H])c2c([H])c(OC([H])([H])C([H])([H])C([H])(C([H])([H])[H])C([H])(C([H])([H])[H])C([H])([H])C3([H])C([H])([H])N(C(=O)N4C([H])([H])C([H])([H])C([H])([H])C([H])(n5nc(-c6c([H])c([H])c(Oc7c([H])c([H])c(F)c([H])c7F)c([H])c6[H])c(C(=O)N([H])[H])c5N([H])[H])C4([H])[H])C3([H])C([H])(C([H])([H])[H])C([H])([H])[H])c([H])c([H])c2C1([H])[H]

>  <smiles>  (85) 
[H]c1c([H])c([H])c2c(c1[H])C([H])([H])C([H])([H])C([H])([H])C2([H])N([H])C(=O)C1([H])N(C(=O)C([H])(N([H])C(=O)C([H])(N([H])C([H])([H])[H])C([H])([H])[H])C(C([H])([H])[H])(C([H])([H])[H])C([H])([H])[H])C([H])([H])c2c([H])c(OC([H])([H])C([H])([H])C([H])(C([H])([H])[H])C([H])(C([H])([H])[H])C([H])([H])C3([H])C([H])([H])N(C(=O)N4C([H])([H])C([H])([H])C([H])([H])C([H])(n5nc(-c6c([H])c([H])c(Oc7c([H])c([H])c(F)c([H])c7F)c([H])c6[H])c(C(=O)N([H])[H])c5N([H])[H])C4([H])[H])C3([H])C([H])(C([H])([H])[H])C([H])([H])[H])c([H])c([H])c2C1([H])[H]

$$$$
87:0:0
     RDKit          3D

 88 95  0  0  1  0  0  0  0  0999 V2000
  -29.5770  -20.4980   20.3570 C   0  0  0  0  0  3  0  0  0  0  0  0
  -29.0700  -18.8980   20.4150 C   0  0  0  0  0  3  0  0  0  0  0  0
  -30.5310  -14.9440   20.3320 C   0  0  0  0  0  0  0  0  0  0  0  0
  -30.3810  -12.6160   19.3690 C   0  0  0  0  0  2  0  0  0  0  0  0
  -29.4410  -12.5990   18.1410 C   0  0  0  0  0  2  0  0  0  0  0  0
  -27.9790  -12.3930   18.5800 C   0  0  0  0  0  2  0  0  0  0  0  0
  -27.5800  -13.3050   19.7690 C   0  0  0  0  0  3  0  0  0  0  0  0
  -28.6430  -13.2990   20.8900 C   0  0  0  0  0  2  0  0  0  0  0  0
  -29.9170  -13.6970   20.2800 N   0  0  0  0  0  0  0  0  0  0  0  0
  -31.7340  -15.0230   20.0380 O   0  0  0  0  0  0  0  0  0  0  0  0
  -30.0850  -17.6260   20.3370 C   0  0  0  0  0  0  0  0  0  0  0  0
  -29.7180  -16.2480   20.4750 N   0  0  0  0  0  0  0  0  0  0  0  0
  -31.3710  -17.9510   20.0970 N   0  0  0  0  0  4  0  0  0  0  0  0
  -28.7340  -16.1610   20.6700 H   0  0  0  0  0  0  0  0  0  0  0  0
  -32.0820  -17.2330   20.0030 H   0  0  0  0  0  0  0  0  0  0  0  0
  -31.6590  -18.9130   19.9810 H   0  0  0  0  0  0  0  0  0  0  0  0
  -25.2000  -13.8730   20.5230 C   0  0  0  0  0  0  0  0  0  0  0  0
  -24.1430  -13.0920   20.8970 C   0  0  0  0  0  0  0  0  0  0  0  0
  -24.6120  -11.7440   20.8560 C   0  0  0  0  0  0  0  0  0  0  0  0
  -26.2460  -13.0010   20.2720 N   0  0  0  0  0  0  0  0  0  0  0  0
  -25.9010  -11.7140   20.5390 N   0  0  0  0  0  0  0  0  0  0  0  0
  -23.8910  -10.4770   21.0400 C   0  0  0  0  0  0  0  0  0  0  0  0
  -24.3270   -9.5060   21.9670 C   0  0  0  0  0  3  0  0  0  0  0  0
  -23.6050   -8.3060   22.1410 C   0  0  0  0  0  3  0  0  0  0  0  0
  -22.4320   -8.0690   21.3850 C   0  0  0  0  0  0  0  0  0  0  0  0
  -22.0150   -9.0280   20.4460 C   0  0  0  0  0  3  0  0  0  0  0  0
  -22.7390  -10.2200   20.2710 C   0  0  0  0  0  3  0  0  0  0  0  0
  -21.6810   -6.9200   21.4680 O   0  0  0  0  0  0  0  0  0  0  0  0
  -21.6300   -6.1750   22.6190 C   0  0  0  0  0  0  0  0  0  0  0  0
  -21.1780   -6.7210   23.8400 C   0  0  0  0  0  3  0  0  0  0  0  0
  -21.0750   -5.9020   24.9820 C   0  0  0  0  0  3  0  0  0  0  0  0
  -21.4150   -4.5370   24.9040 C   0  0  0  0  0  0  0  0  0  0  0  0
  -21.8610   -3.9920   23.6870 C   0  0  0  0  0  3  0  0  0  0  0  0
  -21.9650   -4.8080   22.5470 C   0  0  0  0  0  0  0  0  0  0  0  0
  -22.3750   -4.2720   21.3720 F   0  0  0  0  0  0  0  0  0  0  0  0
  -21.3100   -3.7490   25.9980 F   0  0  0  0  0  0  0  0  0  0  0  0
  -22.7430  -13.5630   21.1740 C   0  0  0  0  0  0  0  0  0  0  0  0
  -22.0210  -12.8620   22.0420 N   0  0  0  0  0  0  0  0  0  0  0  0
  -22.3010  -14.5870   20.6570 O   0  0  0  0  0  0  0  0  0  0  0  0
  -22.3920  -12.0340   22.4820 H   0  0  0  0  0  0  0  0  0  0  0  0
  -21.0830  -13.1610   22.2710 H   0  0  0  0  0  0  0  0  0  0  0  0
  -25.3540  -15.2460   20.3450 N   0  0  0  0  0  0  0  0  0  0  0  0
  -24.5650  -15.8760   20.4360 H   0  0  0  0  0  0  0  0  0  0  0  0
  -26.1450  -15.6740   19.8840 H   0  0  0  0  0  0  0  0  0  0  0  0
  -28.5580  -21.8300   20.2850 C   0  0  0  0  0  2  0  0  0  0  0  0
  -29.0070  -23.4460   20.3470 C   0  0  0  0  0  3  0  0  0  0  0  0
  -27.9560  -24.7320   20.1370 C   0  0  0  0  0  3  0  0  0  0  0  0
  -28.2480  -26.2470   20.2730 O   0  0  0  0  0  0  0  0  0  0  0  0
  -24.6370  -31.9200   23.2570 C   0  0  0  0  0  0  0  0  0  0  0  0
  -27.1870  -27.2170   20.2140 C   0  0  0  0  0  0  0  0  0  0  0  0
  -23.4250  -30.5340   21.6180 C   0  0  0  0  0  3  0  0  0  0  0  0
  -24.8630  -28.9570   20.1900 C   0  0  0  0  0  0  0  0  0  0  0  0
  -25.9780  -30.7920   21.4470 C   0  0  0  0  0  2  0  0  0  0  0  0
  -26.0460  -29.4020   20.7940 C   0  0  0  0  0  0  0  0  0  0  0  0
  -27.2100  -28.5490   20.7890 C   0  0  0  0  0  3  0  0  0  0  0  0
  -25.9760  -26.8680   19.5750 C   0  0  0  0  0  3  0  0  0  0  0  0
  -24.8400  -27.7020   19.5650 C   0  0  0  0  0  3  0  0  0  0  0  0
  -23.6400  -29.8590   20.2380 C   0  0  0  0  0  2  0  0  0  0  0  0
  -24.7000  -31.1020   22.1630 N   0  0  0  0  0  0  0  0  0  0  0  0
  -23.5530  -32.2100   23.7860 O   0  0  0  0  0  0  0  0  0  0  0  0
  -22.7430  -29.5270   22.5790 C   0  0  0  0  0  0  0  0  0  0  0  0
  -21.4140  -29.3650   22.4530 N   0  0  0  0  0  0  0  0  0  0  0  0
  -23.4120  -28.8960   23.4000 O   0  0  0  0  0  0  0  0  0  0  0  0
  -20.9320  -29.9260   21.7650 H   0  0  0  0  0  0  0  0  0  0  0  0
  -18.0240  -28.1930   22.9570 C   0  0  0  0  0  0  0  0  0  0  0  0
  -20.5860  -28.4340   23.2230 C   0  0  0  0  0  3  0  0  0  0  0  0
  -20.6750  -27.0010   22.6480 C   0  0  0  0  0  2  0  0  0  0  0  0
  -19.5690  -26.6880   21.6340 C   0  0  0  0  0  2  0  0  0  0  0  0
  -18.1890  -26.8430   22.2790 C   0  0  0  0  0  2  0  0  0  0  0  0
  -19.1490  -28.9470   23.3850 C   0  0  0  0  0  0  0  0  0  0  0  0
  -18.9400  -30.2100   23.9820 C   0  0  0  0  0  3  0  0  0  0  0  0
  -17.6390  -30.7190   24.1510 C   0  0  0  0  0  3  0  0  0  0  0  0
  -16.5280  -29.9620   23.7380 C   0  0  0  0  0  3  0  0  0  0  0  0
  -16.7220  -28.7010   23.1470 C   0  0  0  0  0  3  0  0  0  0  0  0
  -25.9200  -32.5470   23.8830 C   0  0  0  0  0  3  0  0  0  0  0  0
  -26.4330  -31.7660   25.1560 C   0  0  1  0  0  0  0  0  0  0  0  0
  -25.3390  -31.5270   26.2240 C   0  0  0  0  0  1  0  0  0  0  0  0
  -27.0110  -30.3900   24.7590 C   0  0  0  0  0  1  0  0  0  0  0  0
  -27.5860  -32.5540   25.8240 C   0  0  0  0  0  1  0  0  0  0  0  0
  -25.6130  -33.9440   24.2270 N   0  0  0  0  0  0  0  0  0  0  0  0
  -25.9220  -35.0030   23.4670 C   0  0  0  0  0  0  0  0  0  0  0  0
  -26.5620  -34.9070   22.4170 O   0  0  0  0  0  0  0  0  0  0  0  0
  -25.0400  -34.0920   25.0450 H   0  0  0  0  0  0  0  0  0  0  0  0
  -24.1710  -36.7910   23.1880 C   0  0  0  0  0  1  0  0  0  0  0  0
  -25.4470  -36.3890   23.9480 C   0  0  0  0  0  3  0  0  0  0  0  0
  -27.6050  -37.2880   24.6980 C   0  0  0  0  0  1  0  0  0  0  0  0
  -26.4680  -37.4480   23.7960 N   0  0  0  0  0  0  0  0  0  0  0  0
  -26.0620  -38.3660   23.9590 H   0  0  0  0  0  0  0  0  0  0  0  0
  1  2  2  0
  3 12  1  0
  4  9  1  0
  5  6  1  0
  5  4  1  0
  7  6  1  0
  7 20  1  0
  7  8  1  0
  9  3  1  0
  9  8  1  0
 10  3  2  0
 11  2  1  0
 11 12  1  0
 12 14  1  0
 13 11  2  0
 15 13  1  0
 16 13  1  0
 17 18  2  0
 18 37  1  0
 19 18  1  0
 19 22  1  0
 20 17  1  0
 20 21  1  0
 21 19  2  0
 22 23  1  0
 23 24  2  0
 25 28  1  0
 25 24  1  0
 26 25  2  0
 27 26  1  0
 27 22  2  0
 28 29  1  0
 29 30  1  0
 30 31  2  0
 32 31  1  0
 32 36  1  0
 33 32  2  0
 34 29  2  0
 34 33  1  0
 35 34  1  0
 37 38  1  0
 38 41  1  0
 38 40  1  0
 39 37  2  0
 42 43  1  0
 42 17  1  0
 44 42  1  0
 45 46  1  0
 45  1  1  0
 47 48  1  0
 47 46  2  0
 49 60  2  0
 50 48  1  0
 50 55  1  0
 51 59  1  0
 51 61  1  0
 52 58  1  0
 52 54  1  0
 53 59  1  0
 54 53  1  0
 55 54  2  0
 56 50  2  0
 57 56  1  0
 57 52  2  0
 58 51  1  0
 59 49  1  0
 61 63  2  0
 62 61  1  0
 64 62  1  0
 65 74  2  0
 65 70  1  0
 66 62  1  0
 66 70  1  0
 67 66  1  0
 68 69  1  0
 68 67  1  0
 69 65  1  0
 70 71  2  0
 71 72  1  0
 73 72  2  0
 74 73  1  0
 75 49  1  0
 75 80  1  0
 75 76  1  0
 76 79  1  1
 76 77  1  0
 78 76  1  0
 80 83  1  0
 81 85  1  0
 81 80  1  0
 82 81  2  0
 85 84  1  0
 87 85  1  0
 87 88  1  0
 87 86  1  0
M  ISO  4   3 100  12 100  47 101  48 101
M  END
>  <TORSDO>  (86) 
F 20

>  <SCORE>  (86) 
-13.610

>  <name>  (86) 
87

>  <ligand_id>  (86) 
87

>  <original_smiles>  (86) 
[H]c1c([H])c([H])c2c(c1[H])C([H])([H])C([H])([H])C([H])([H])C2([H])N([H])C(=O)C1([H])N(C(=O)C([H])(N([H])C(=O)C([H])(N([H])C([H])([H])[H])C([H])([H])[H])C(C([H])([H])[H])(C([H])([H])[H])C([H])([H])[H])C([H])([H])c2c([H])c(OC([H])([H])C([H])([H])C([H])([H])C([H])([H])C([H])([H])C(N([H])C(=O)N3C([H])([H])C([H])([H])C([H])([H])C([H])(n4nc(-c5c([H])c([H])c(Oc6c([H])c([H])c(F)c([H])c6F)c([H])c5[H])c(C(=O)N([H])[H])c4N([H])[H])C3([H])[H])=[N+]([H])[H])c([H])c([H])c2C1([H])[H]

>  <smiles>  (86) 
[H]c1c([H])c([H])c2c(c1[H])C([H])([H])C([H])([H])C([H])([H])C2([H])N([H])C(=O)C1([H])N(C(=O)C([H])(N([H])C(=O)C([H])(N([H])C([H])([H])[H])C([H])([H])[H])C(C([H])([H])[H])(C([H])([H])[H])C([H])([H])[H])C([H])([H])c2c([H])c(OC([H])([H])C([H])([H])C([H])([H])C([H])([H])C([H])([H])C(N([H])C(=O)N3C([H])([H])C([H])([H])C([H])([H])C([H])(n4nc(-c5c([H])c([H])c(Oc6c([H])c([H])c(F)c([H])c6F)c([H])c5[H])c(C(=O)N([H])[H])c4N([H])[H])C3([H])[H])=[N+]([H])[H])c([H])c([H])c2C1([H])[H]

$$$$
88:0:0
     RDKit          3D

 91 98  0  0  1  0  0  0  0  0999 V2000
  -29.7440  -20.7470   20.1270 N   0  0  0  0  0  4  0  0  0  0  0  0
  -29.6490  -20.6240   21.1240 H   0  0  0  0  0  0  0  0  0  0  0  0
  -30.7010  -20.9920   19.9390 H   0  0  0  0  0  0  0  0  0  0  0  0
  -28.8490  -21.9890   19.7510 C   0  0  0  0  0  2  0  0  0  0  0  0
  -29.1490  -23.5380   20.2900 C   0  0  0  0  0  3  0  0  0  0  0  0
  -28.1300  -24.8080   19.9600 C   0  0  0  0  0  3  0  0  0  0  0  0
  -28.3570  -26.3010   20.2500 O   0  0  0  0  0  0  0  0  0  0  0  0
  -24.5200  -31.7930   23.2160 C   0  0  0  0  0  0  0  0  0  0  0  0
  -27.2690  -27.2310   20.1670 C   0  0  0  0  0  0  0  0  0  0  0  0
  -23.3870  -30.4070   21.5210 C   0  0  0  0  0  3  0  0  0  0  0  0
  -24.9000  -28.8960   20.1040 C   0  0  0  0  0  0  0  0  0  0  0  0
  -25.9350  -30.7370   21.4220 C   0  0  0  0  0  2  0  0  0  0  0  0
  -26.0520  -29.3640   20.7480 C   0  0  0  0  0  0  0  0  0  0  0  0
  -27.2390  -28.5480   20.7630 C   0  0  0  0  0  3  0  0  0  0  0  0
  -26.0890  -26.8500   19.4880 C   0  0  0  0  0  3  0  0  0  0  0  0
  -24.9280  -27.6510   19.4570 C   0  0  0  0  0  3  0  0  0  0  0  0
  -23.6540  -29.7650   20.1340 C   0  0  0  0  0  2  0  0  0  0  0  0
  -24.6310  -30.9980   22.1100 N   0  0  0  0  0  0  0  0  0  0  0  0
  -23.4170  -32.0460   23.7220 O   0  0  0  0  0  0  0  0  0  0  0  0
  -22.7070  -29.3660   22.4450 C   0  0  0  0  0  0  0  0  0  0  0  0
  -21.3840  -29.1810   22.2870 N   0  0  0  0  0  0  0  0  0  0  0  0
  -23.3700  -28.7280   23.2680 O   0  0  0  0  0  0  0  0  0  0  0  0
  -20.9040  -29.7510   21.6040 H   0  0  0  0  0  0  0  0  0  0  0  0
  -18.0020  -27.9550   22.7090 C   0  0  0  0  0  0  0  0  0  0  0  0
  -20.5550  -28.2180   23.0190 C   0  0  0  0  0  3  0  0  0  0  0  0
  -20.6710  -26.8020   22.4050 C   0  0  0  0  0  2  0  0  0  0  0  0
  -19.5850  -26.5040   21.3670 C   0  0  0  0  0  2  0  0  0  0  0  0
  -18.1930  -26.6260   21.9950 C   0  0  0  0  0  2  0  0  0  0  0  0
  -19.1110  -28.7090   23.1750 C   0  0  0  0  0  0  0  0  0  0  0  0
  -18.8780  -29.9520   23.8010 C   0  0  0  0  0  3  0  0  0  0  0  0
  -17.5690  -30.4420   23.9660 C   0  0  0  0  0  3  0  0  0  0  0  0
  -16.4750  -29.6840   23.5150 C   0  0  0  0  0  3  0  0  0  0  0  0
  -16.6920  -28.4420   22.8930 C   0  0  0  0  0  3  0  0  0  0  0  0
  -25.7740  -32.4350   23.8860 C   0  0  0  0  0  3  0  0  0  0  0  0
  -25.4510  -33.8380   24.1900 N   0  0  0  0  0  0  0  0  0  0  0  0
  -25.8050  -34.8840   23.4330 C   0  0  0  0  0  0  0  0  0  0  0  0
  -26.5080  -34.7710   22.4250 O   0  0  0  0  0  0  0  0  0  0  0  0
  -24.8350  -34.0020   24.9740 H   0  0  0  0  0  0  0  0  0  0  0  0
  -24.0830  -36.6690   23.0090 C   0  0  0  0  0  1  0  0  0  0  0  0
  -25.3030  -36.2780   23.8590 C   0  0  0  0  0  3  0  0  0  0  0  0
  -27.4100  -37.1820   24.7370 C   0  0  0  0  0  1  0  0  0  0  0  0
  -26.3350  -37.3320   23.7600 N   0  0  0  0  0  0  0  0  0  0  0  0
  -25.9230  -38.2530   23.8810 H   0  0  0  0  0  0  0  0  0  0  0  0
  -26.2330  -31.6790   25.1940 C   0  0  1  0  0  0  0  0  0  0  0  0
  -25.0940  -31.4570   26.2160 C   0  0  0  0  0  1  0  0  0  0  0  0
  -26.8310  -30.2950   24.8500 C   0  0  0  0  0  1  0  0  0  0  0  0
  -27.3540  -32.4810   25.8970 C   0  0  0  0  0  1  0  0  0  0  0  0
  -29.4940  -19.3160   19.5260 C   0  0  0  0  0  3  0  0  0  0  0  0
  -28.0100  -18.9850   19.7200 C   0  0  0  0  0  0  0  0  0  0  0  0
  -27.3360  -18.5090   18.6800 N   0  0  0  0  0  0  0  0  0  0  0  0
  -27.4670  -19.1720   20.8090 O   0  0  0  0  0  0  0  0  0  0  0  0
  -27.7840  -18.3940   17.7830 H   0  0  0  0  0  0  0  0  0  0  0  0
  -26.3500  -18.3050   18.7640 H   0  0  0  0  0  0  0  0  0  0  0  0
  -30.4000  -17.9710   19.9700 C   0  0  0  0  0  2  0  0  0  0  0  0
  -29.8300  -16.3960   19.9520 C   0  0  0  0  0  2  0  0  0  0  0  0
  -30.6980  -15.0040   19.7770 C   0  0  0  0  0  0  0  0  0  0  0  0
  -30.5350  -12.6120   18.9660 C   0  0  0  0  0  2  0  0  0  0  0  0
  -29.5500  -12.5620   17.7720 C   0  0  0  0  0  2  0  0  0  0  0  0
  -28.0990  -12.4050   18.2650 C   0  0  0  0  0  2  0  0  0  0  0  0
  -27.7570  -13.3890   19.4120 C   0  0  0  0  0  3  0  0  0  0  0  0
  -28.8520  -13.4120   20.4980 C   0  0  0  0  0  2  0  0  0  0  0  0
  -30.1240  -13.7410   19.8450 N   0  0  0  0  0  0  0  0  0  0  0  0
  -31.8780  -15.0720   19.4170 O   0  0  0  0  0  0  0  0  0  0  0  0
  -25.4390  -14.0730   20.2610 C   0  0  0  0  0  0  0  0  0  0  0  0
  -24.3580  -13.3440   20.6780 C   0  0  0  0  0  0  0  0  0  0  0  0
  -24.7610  -11.9760   20.6220 C   0  0  0  0  0  0  0  0  0  0  0  0
  -26.4290  -13.1510   19.9680 N   0  0  0  0  0  0  0  0  0  0  0  0
  -26.0330  -11.8830   20.2490 N   0  0  0  0  0  0  0  0  0  0  0  0
  -23.9880  -10.7460   20.8450 C   0  0  0  0  0  0  0  0  0  0  0  0
  -24.4130   -9.7640   21.7660 C   0  0  0  0  0  3  0  0  0  0  0  0
  -23.6450   -8.5980   21.9750 C   0  0  0  0  0  3  0  0  0  0  0  0
  -22.4380   -8.4070   21.2630 C   0  0  0  0  0  0  0  0  0  0  0  0
  -22.0330   -9.3750   20.3280 C   0  0  0  0  0  3  0  0  0  0  0  0
  -22.8000  -10.5320   20.1190 C   0  0  0  0  0  3  0  0  0  0  0  0
  -21.6410   -7.2950   21.3840 O   0  0  0  0  0  0  0  0  0  0  0  0
  -21.5850   -6.5700   22.5460 C   0  0  0  0  0  0  0  0  0  0  0  0
  -21.2050   -7.1570   23.7740 C   0  0  0  0  0  3  0  0  0  0  0  0
  -21.0960   -6.3600   24.9300 C   0  0  0  0  0  3  0  0  0  0  0  0
  -21.3530   -4.9780   24.8620 C   0  0  0  0  0  0  0  0  0  0  0  0
  -21.7250   -4.3910   23.6400 C   0  0  0  0  0  3  0  0  0  0  0  0
  -21.8380   -5.1850   22.4850 C   0  0  0  0  0  0  0  0  0  0  0  0
  -22.1770   -4.6100   21.3060 F   0  0  0  0  0  0  0  0  0  0  0  0
  -21.2380   -4.2130   25.9720 F   0  0  0  0  0  0  0  0  0  0  0  0
  -22.9980  -13.8800   21.0180 C   0  0  0  0  0  0  0  0  0  0  0  0
  -22.2920  -13.2190   21.9280 N   0  0  0  0  0  0  0  0  0  0  0  0
  -22.5770  -14.9190   20.5110 O   0  0  0  0  0  0  0  0  0  0  0  0
  -22.6530  -12.3820   22.3600 H   0  0  0  0  0  0  0  0  0  0  0  0
  -21.3780  -13.5550   22.1970 H   0  0  0  0  0  0  0  0  0  0  0  0
  -25.6610  -15.4350   20.0840 N   0  0  0  0  0  0  0  0  0  0  0  0
  -24.9350  -16.1290   20.2240 H   0  0  0  0  0  0  0  0  0  0  0  0
  -26.5370  -15.8350   19.7790 H   0  0  0  0  0  0  0  0  0  0  0  0
  1  2  1  0
  3  1  1  0
  4  1  1  0
  4  5  1  0
  6  7  1  0
  6  5  2  0
  8 19  2  0
  9  7  1  0
  9 14  1  0
 10 18  1  0
 10 20  1  0
 11 17  1  0
 11 13  1  0
 12 18  1  0
 13 14  2  0
 13 12  1  0
 15  9  2  0
 16 15  1  0
 16 11  2  0
 17 10  1  0
 18  8  1  0
 20 22  2  0
 21 20  1  0
 23 21  1  0
 24 33  2  0
 24 29  1  0
 25 21  1  0
 25 29  1  0
 26 25  1  0
 27 28  1  0
 27 26  1  0
 28 24  1  0
 29 30  2  0
 30 31  1  0
 32 31  2  0
 33 32  1  0
 34  8  1  0
 34 35  1  0
 34 44  1  0
 35 38  1  0
 36 40  1  0
 36 35  1  0
 37 36  2  0
 40 39  1  0
 42 40  1  0
 42 43  1  0
 42 41  1  0
 44 47  1  1
 44 45  1  0
 46 44  1  0
 48 49  1  0
 48 54  1  0
 48  1  1  0
 49 51  2  0
 50 53  1  0
 50 49  1  0
 52 50  1  0
 55 54  1  0
 56 62  1  0
 56 55  1  0
 57 62  1  0
 58 59  1  0
 58 57  1  0
 60 59  1  0
 60 67  1  0
 60 61  1  0
 62 61  1  0
 63 56  2  0
 64 65  2  0
 65 84  1  0
 66 65  1  0
 66 69  1  0
 67 68  1  0
 67 64  1  0
 68 66  2  0
 69 70  1  0
 70 71  2  0
 72 75  1  0
 72 71  1  0
 73 72  2  0
 74 73  1  0
 74 69  2  0
 75 76  1  0
 76 77  1  0
 77 78  2  0
 79 78  1  0
 79 83  1  0
 80 79  2  0
 81 76  2  0
 81 80  1  0
 82 81  1  0
 84 85  1  0
 85 88  1  0
 85 87  1  0
 86 84  2  0
 89 90  1  0
 89 64  1  0
 91 89  1  0
M  ISO  4   6 101   7 101  55 100  56 100
M  END
>  <TORSDO>  (87) 
F 23

>  <SCORE>  (87) 
-12.117

>  <name>  (87) 
88

>  <ligand_id>  (87) 
88

>  <original_smiles>  (87) 
[H]c1c([H])c([H])c2c(c1[H])C([H])([H])C([H])([H])C([H])([H])C2([H])N([H])C(=O)C1([H])N(C(=O)C([H])(N([H])C(=O)C([H])(N([H])C([H])([H])[H])C([H])([H])[H])C(C([H])([H])[H])(C([H])([H])[H])C([H])([H])[H])C([H])([H])c2c([H])c(OC([H])([H])C([H])([H])C([H])([H])[N+]([H])([H])C([H])(C(=O)N([H])[H])C([H])([H])C([H])([H])C(=O)N3C([H])([H])C([H])([H])C([H])([H])C([H])(n4nc(-c5c([H])c([H])c(Oc6c([H])c([H])c(F)c([H])c6F)c([H])c5[H])c(C(=O)N([H])[H])c4N([H])[H])C3([H])[H])c([H])c([H])c2C1([H])[H]

>  <smiles>  (87) 
[H]c1c([H])c([H])c2c(c1[H])C([H])([H])C([H])([H])C([H])([H])C2([H])N([H])C(=O)C1([H])N(C(=O)C([H])(N([H])C(=O)C([H])(N([H])C([H])([H])[H])C([H])([H])[H])C(C([H])([H])[H])(C([H])([H])[H])C([H])([H])[H])C([H])([H])c2c([H])c(OC([H])([H])C([H])([H])C([H])([H])[N+]([H])([H])C([H])(C(=O)N([H])[H])C([H])([H])C([H])([H])C(=O)N3C([H])([H])C([H])([H])C([H])([H])C([H])(n4nc(-c5c([H])c([H])c(Oc6c([H])c([H])c(F)c([H])c6F)c([H])c5[H])c(C(=O)N([H])[H])c4N([H])[H])C3([H])[H])c([H])c([H])c2C1([H])[H]

$$$$
89:0:0
     RDKit          3D

 88 95  0  0  1  0  0  0  0  0999 V2000
  -28.7560  -22.4600   19.9710 C   0  0  0  0  0  2  0  0  0  0  0  0
  -27.5600  -23.8950   21.7400 C   0  0  0  0  0  1  0  0  0  0  0  0
  -28.6590  -23.9020   20.6640 C   0  0  0  0  0  3  0  0  0  0  0  0
  -28.4430  -25.1300   19.6760 C   0  0  0  0  0  2  0  0  0  0  0  0
  -28.3710  -26.5030   20.2240 O   0  0  0  0  0  0  0  0  0  0  0  0
  -24.6140  -31.8530   23.2440 C   0  0  0  0  0  0  0  0  0  0  0  0
  -27.2130  -27.2970   20.1740 C   0  0  0  0  0  0  0  0  0  0  0  0
  -23.4020  -30.4540   21.6110 C   0  0  0  0  0  3  0  0  0  0  0  0
  -24.8430  -28.9020   20.1820 C   0  0  0  0  0  0  0  0  0  0  0  0
  -25.9400  -30.7740   21.4150 C   0  0  0  0  0  2  0  0  0  0  0  0
  -26.0140  -29.3950   20.7670 C   0  0  0  0  0  0  0  0  0  0  0  0
  -27.1990  -28.6030   20.7540 C   0  0  0  0  0  3  0  0  0  0  0  0
  -26.0090  -26.8490   19.5830 C   0  0  0  0  0  3  0  0  0  0  0  0
  -24.8420  -27.6340   19.5840 C   0  0  0  0  0  3  0  0  0  0  0  0
  -23.6080  -29.7760   20.2320 C   0  0  0  0  0  2  0  0  0  0  0  0
  -24.6710  -31.0430   22.1470 N   0  0  0  0  0  0  0  0  0  0  0  0
  -23.5330  -32.1310   23.7830 O   0  0  0  0  0  0  0  0  0  0  0  0
  -22.7450  -29.4360   22.5750 C   0  0  0  0  0  0  0  0  0  0  0  0
  -21.4190  -29.2590   22.4530 N   0  0  0  0  0  0  0  0  0  0  0  0
  -23.4270  -28.8090   23.3900 O   0  0  0  0  0  0  0  0  0  0  0  0
  -20.9280  -29.8140   21.7660 H   0  0  0  0  0  0  0  0  0  0  0  0
  -18.0420  -28.0670   22.9660 C   0  0  0  0  0  0  0  0  0  0  0  0
  -20.6020  -28.3230   23.2290 C   0  0  0  0  0  3  0  0  0  0  0  0
  -20.7010  -26.8900   22.6550 C   0  0  0  0  0  2  0  0  0  0  0  0
  -19.5950  -26.5660   21.6460 C   0  0  0  0  0  2  0  0  0  0  0  0
  -18.2160  -26.7160   22.2930 C   0  0  0  0  0  2  0  0  0  0  0  0
  -19.1630  -28.8280   23.3920 C   0  0  0  0  0  0  0  0  0  0  0  0
  -18.9470  -30.0940   23.9800 C   0  0  0  0  0  3  0  0  0  0  0  0
  -17.6440  -30.5970   24.1490 C   0  0  0  0  0  3  0  0  0  0  0  0
  -16.5380  -29.8320   23.7400 C   0  0  0  0  0  3  0  0  0  0  0  0
  -16.7380  -28.5700   23.1560 C   0  0  0  0  0  3  0  0  0  0  0  0
  -25.9000  -32.4850   23.8590 C   0  0  0  0  0  3  0  0  0  0  0  0
  -25.5910  -33.8820   24.1950 N   0  0  0  0  0  0  0  0  0  0  0  0
  -25.9160  -34.9370   23.4370 C   0  0  0  0  0  0  0  0  0  0  0  0
  -26.5780  -34.8380   22.4000 O   0  0  0  0  0  0  0  0  0  0  0  0
  -25.0040  -34.0320   25.0020 H   0  0  0  0  0  0  0  0  0  0  0  0
  -24.1800  -36.7280   23.1030 C   0  0  0  0  0  1  0  0  0  0  0  0
  -25.4290  -36.3230   23.9030 C   0  0  0  0  0  3  0  0  0  0  0  0
  -27.5690  -37.2100   24.7190 C   0  0  0  0  0  1  0  0  0  0  0  0
  -26.4580  -37.3790   23.7840 N   0  0  0  0  0  0  0  0  0  0  0  0
  -26.0510  -38.2980   23.9410 H   0  0  0  0  0  0  0  0  0  0  0  0
  -26.4260  -31.7110   25.1310 C   0  0  1  0  0  0  0  0  0  0  0  0
  -25.3380  -31.4690   26.2040 C   0  0  0  0  0  1  0  0  0  0  0  0
  -27.0080  -30.3360   24.7320 C   0  0  0  0  0  1  0  0  0  0  0  0
  -27.5790  -32.5060   25.7860 C   0  0  0  0  0  1  0  0  0  0  0  0
  -29.5390  -21.2970   20.6910 C   0  0  0  0  0  0  0  0  0  0  0  0
  -30.4910  -21.5730   21.4250 O   0  0  0  0  0  0  0  0  0  0  0  0
  -29.1390  -19.7810   20.4970 C   0  0  0  0  0  2  0  0  0  0  0  0
  -30.2570  -18.7590   19.9940 C   0  0  0  0  0  2  0  0  0  0  0  0
  -30.4710  -17.4600   22.2380 C   0  0  0  0  0  1  0  0  0  0  0  0
  -30.5730  -17.3580   20.7080 C   0  0  0  0  0  3  0  0  0  0  0  0
  -29.8970  -16.0130   20.1750 C   0  0  0  0  0  2  0  0  0  0  0  0
  -30.7450  -14.6730   20.0550 C   0  0  0  0  0  0  0  0  0  0  0  0
  -30.4810  -12.4370   19.0200 C   0  0  0  0  0  2  0  0  0  0  0  0
  -29.4920  -12.5930   17.8410 C   0  0  0  0  0  2  0  0  0  0  0  0
  -28.0320  -12.4550   18.3210 C   0  0  0  0  0  2  0  0  0  0  0  0
  -27.7340  -13.3120   19.5800 C   0  0  0  0  0  3  0  0  0  0  0  0
  -28.8320  -13.1360   20.6500 C   0  0  0  0  0  2  0  0  0  0  0  0
  -30.1260  -13.4500   20.0330 N   0  0  0  0  0  0  0  0  0  0  0  0
  -31.9270  -14.7730   19.7120 O   0  0  0  0  0  0  0  0  0  0  0  0
  -25.3790  -13.9370   20.3970 C   0  0  0  0  0  0  0  0  0  0  0  0
  -24.3160  -13.1740   20.8000 C   0  0  0  0  0  0  0  0  0  0  0  0
  -24.7600  -11.8180   20.7440 C   0  0  0  0  0  0  0  0  0  0  0  0
  -26.4020  -13.0450   20.1180 N   0  0  0  0  0  0  0  0  0  0  0  0
  -26.0370  -11.7650   20.3890 N   0  0  0  0  0  0  0  0  0  0  0  0
  -24.0260  -10.5630   20.9530 C   0  0  0  0  0  0  0  0  0  0  0  0
  -24.4740   -9.5870   21.8700 C   0  0  0  0  0  3  0  0  0  0  0  0
  -23.7400   -8.3970   22.0670 C   0  0  0  0  0  3  0  0  0  0  0  0
  -22.5420   -8.1750   21.3450 C   0  0  0  0  0  0  0  0  0  0  0  0
  -22.1140   -9.1400   20.4160 C   0  0  0  0  0  3  0  0  0  0  0  0
  -22.8490  -10.3200   20.2170 C   0  0  0  0  0  3  0  0  0  0  0  0
  -21.7760   -7.0410   21.4550 O   0  0  0  0  0  0  0  0  0  0  0  0
  -21.7410   -6.3030   22.6100 C   0  0  0  0  0  0  0  0  0  0  0  0
  -21.3520   -6.8690   23.8430 C   0  0  0  0  0  3  0  0  0  0  0  0
  -21.2620   -6.0590   24.9930 C   0  0  0  0  0  3  0  0  0  0  0  0
  -21.5510   -4.6830   24.9100 C   0  0  0  0  0  0  0  0  0  0  0  0
  -21.9330   -4.1170   23.6820 C   0  0  0  0  0  3  0  0  0  0  0  0
  -22.0240   -4.9240   22.5340 C   0  0  0  0  0  0  0  0  0  0  0  0
  -22.3720   -4.3690   21.3490 F   0  0  0  0  0  0  0  0  0  0  0  0
  -21.4570   -3.9030   26.0120 F   0  0  0  0  0  0  0  0  0  0  0  0
  -22.9360  -13.6670   21.1260 C   0  0  0  0  0  0  0  0  0  0  0  0
  -22.2350  -12.9760   22.0200 N   0  0  0  0  0  0  0  0  0  0  0  0
  -22.4900  -14.6970   20.6250 O   0  0  0  0  0  0  0  0  0  0  0  0
  -22.6100  -12.1420   22.4480 H   0  0  0  0  0  0  0  0  0  0  0  0
  -21.3100  -13.2890   22.2810 H   0  0  0  0  0  0  0  0  0  0  0  0
  -25.5530  -15.3070   20.2220 N   0  0  0  0  0  0  0  0  0  0  0  0
  -24.8000  -15.9730   20.3610 H   0  0  0  0  0  0  0  0  0  0  0  0
  -26.4010  -15.7390   19.8770 H   0  0  0  0  0  0  0  0  0  0  0  0
  1  3  1  0
  1 46  1  0
  3  2  1  0
  4  5  1  0
  4  3  1  0
  6 17  2  0
  7  5  1  0
  7 12  1  0
  8 16  1  0
  8 18  1  0
  9 15  1  0
  9 11  1  0
 10 16  1  0
 11 10  1  0
 12 11  2  0
 13 14  1  0
 13  7  2  0
 14  9  2  0
 15  8  1  0
 16  6  1  0
 18 20  2  0
 19 18  1  0
 21 19  1  0
 22 31  2  0
 22 27  1  0
 23 19  1  0
 23 27  1  0
 24 23  1  0
 25 26  1  0
 25 24  1  0
 26 22  1  0
 27 28  2  0
 28 29  1  0
 30 29  2  0
 31 30  1  0
 32  6  1  0
 32 33  1  0
 32 42  1  0
 33 36  1  0
 34 38  1  0
 34 33  1  0
 35 34  2  0
 38 37  1  0
 40 38  1  0
 40 41  1  0
 40 39  1  0
 42 45  1  1
 42 43  1  0
 44 42  1  0
 46 47  2  0
 48 46  1  0
 49 48  1  0
 49 51  1  0
 51 50  1  0
 52 51  1  0
 53 52  1  0
 54 59  1  0
 55 56  1  0
 55 54  1  0
 57 56  1  0
 57 64  1  0
 57 58  1  0
 59 53  1  0
 59 58  1  0
 60 53  2  0
 61 62  2  0
 62 81  1  0
 63 62  1  0
 63 66  1  0
 64 65  1  0
 64 61  1  0
 65 63  2  0
 66 67  1  0
 67 68  2  0
 69 72  1  0
 69 68  1  0
 70 69  2  0
 71 70  1  0
 71 66  2  0
 72 73  1  0
 73 74  1  0
 74 75  2  0
 76 75  1  0
 76 80  1  0
 77 76  2  0
 78 73  2  0
 78 77  1  0
 79 78  1  0
 81 82  1  0
 82 85  1  0
 82 84  1  0
 83 81  2  0
 86 87  1  0
 86 61  1  0
 88 86  1  0
M  ISO  4   4 101   5 101  52 100  53 100
M  END
>  <TORSDO>  (88) 
F 23

>  <SCORE>  (88) 
-12.614

>  <name>  (88) 
89

>  <ligand_id>  (88) 
89

>  <original_smiles>  (88) 
[H]c1c([H])c([H])c2c(c1[H])C([H])([H])C([H])([H])C([H])([H])C2([H])N([H])C(=O)C1([H])N(C(=O)C([H])(N([H])C(=O)C([H])(N([H])C([H])([H])[H])C([H])([H])[H])C(C([H])([H])[H])(C([H])([H])[H])C([H])([H])[H])C([H])([H])c2c([H])c(OC([H])([H])C([H])(C([H])([H])[H])C([H])([H])C(=O)C([H])([H])C([H])([H])C([H])(C([H])([H])[H])C([H])([H])C(=O)N3C([H])([H])C([H])([H])C([H])([H])C([H])(n4nc(-c5c([H])c([H])c(Oc6c([H])c([H])c(F)c([H])c6F)c([H])c5[H])c(C(=O)N([H])[H])c4N([H])[H])C3([H])[H])c([H])c([H])c2C1([H])[H]

>  <smiles>  (88) 
[H]c1c([H])c([H])c2c(c1[H])C([H])([H])C([H])([H])C([H])([H])C2([H])N([H])C(=O)C1([H])N(C(=O)C([H])(N([H])C(=O)C([H])(N([H])C([H])([H])[H])C([H])([H])[H])C(C([H])([H])[H])(C([H])([H])[H])C([H])([H])[H])C([H])([H])c2c([H])c(OC([H])([H])C([H])(C([H])([H])[H])C([H])([H])C(=O)C([H])([H])C([H])([H])C([H])(C([H])([H])[H])C([H])([H])C(=O)N3C([H])([H])C([H])([H])C([H])([H])C([H])(n4nc(-c5c([H])c([H])c(Oc6c([H])c([H])c(F)c([H])c6F)c([H])c5[H])c(C(=O)N([H])[H])c4N([H])[H])C3([H])[H])c([H])c([H])c2C1([H])[H]

$$$$
90:0:0
     RDKit          3D

 94101  0  0  1  0  0  0  0  0999 V2000
  -29.5290  -20.9260   20.8760 C   0  0  0  0  0  3  0  0  0  0  0  0
  -30.1590  -21.0780   22.2760 C   0  0  0  0  0  0  0  0  0  0  0  0
  -29.3500  -21.3200   23.3000 N   0  0  0  0  0  0  0  0  0  0  0  0
  -31.3730  -20.9770   22.4420 O   0  0  0  0  0  0  0  0  0  0  0  0
  -28.3570  -21.4290   23.1580 H   0  0  0  0  0  0  0  0  0  0  0  0
  -29.7260  -21.4130   24.2320 H   0  0  0  0  0  0  0  0  0  0  0  0
  -29.3750  -22.3350   20.2090 C   0  0  0  0  0  2  0  0  0  0  0  0
  -28.0850  -23.0880   20.6500 C   0  0  0  0  0  2  0  0  0  0  0  0
  -28.1660  -24.6280   20.8260 C   0  0  0  0  0  2  0  0  0  0  0  0
  -28.3080  -25.4690   19.5370 C   0  0  0  0  0  2  0  0  0  0  0  0
  -28.2720  -26.8800   19.8240 O   0  0  0  0  0  0  0  0  0  0  0  0
  -24.5030  -31.8840   23.1970 C   0  0  0  0  0  0  0  0  0  0  0  0
  -27.0690  -27.5650   19.8750 C   0  0  0  0  0  0  0  0  0  0  0  0
  -23.2550  -30.5500   21.5290 C   0  0  0  0  0  3  0  0  0  0  0  0
  -24.6700  -29.0750   20.0060 C   0  0  0  0  0  0  0  0  0  0  0  0
  -25.7760  -30.9160   21.2840 C   0  0  0  0  0  2  0  0  0  0  0  0
  -25.8430  -29.5730   20.5850 C   0  0  0  0  0  0  0  0  0  0  0  0
  -27.0410  -28.8270   20.5130 C   0  0  0  0  0  3  0  0  0  0  0  0
  -25.8710  -27.0760   19.3010 C   0  0  0  0  0  3  0  0  0  0  0  0
  -24.6820  -27.8270   19.3590 C   0  0  0  0  0  3  0  0  0  0  0  0
  -23.4280  -29.9300   20.1170 C   0  0  0  0  0  2  0  0  0  0  0  0
  -24.5310  -31.1300   22.0620 N   0  0  0  0  0  0  0  0  0  0  0  0
  -23.4350  -32.1350   23.7730 O   0  0  0  0  0  0  0  0  0  0  0  0
  -22.6280  -29.4900   22.4640 C   0  0  0  0  0  0  0  0  0  0  0  0
  -21.3100  -29.2740   22.3260 N   0  0  0  0  0  0  0  0  0  0  0  0
  -23.3240  -28.8660   23.2690 O   0  0  0  0  0  0  0  0  0  0  0  0
  -20.8090  -29.8270   21.6450 H   0  0  0  0  0  0  0  0  0  0  0  0
  -17.9750  -27.9450   22.7350 C   0  0  0  0  0  0  0  0  0  0  0  0
  -20.5130  -28.2980   23.0710 C   0  0  0  0  0  3  0  0  0  0  0  0
  -20.6860  -26.8780   22.4850 C   0  0  0  0  0  2  0  0  0  0  0  0
  -19.6200  -26.5220   21.4440 C   0  0  0  0  0  2  0  0  0  0  0  0
  -18.2200  -26.6080   22.0550 C   0  0  0  0  0  2  0  0  0  0  0  0
  -19.0540  -28.7450   23.1980 C   0  0  0  0  0  0  0  0  0  0  0  0
  -18.7710  -29.9940   23.7900 C   0  0  0  0  0  3  0  0  0  0  0  0
  -17.4450  -30.4430   23.9310 C   0  0  0  0  0  3  0  0  0  0  0  0
  -16.3810  -29.6380   23.4890 C   0  0  0  0  0  3  0  0  0  0  0  0
  -16.6480  -28.3910   22.8940 C   0  0  0  0  0  3  0  0  0  0  0  0
  -25.8040  -32.4900   23.8090 C   0  0  0  0  0  3  0  0  0  0  0  0
  -26.3180  -31.7070   25.0800 C   0  0  1  0  0  0  0  0  0  0  0  0
  -25.2270  -31.4800   26.1520 C   0  0  0  0  0  1  0  0  0  0  0  0
  -26.8800  -30.3220   24.6770 C   0  0  0  0  0  1  0  0  0  0  0  0
  -27.4810  -32.4840   25.7370 C   0  0  0  0  0  1  0  0  0  0  0  0
  -25.5240  -33.8940   24.1420 N   0  0  0  0  0  0  0  0  0  0  0  0
  -25.8890  -34.9410   23.3910 C   0  0  0  0  0  0  0  0  0  0  0  0
  -26.5680  -34.8270   22.3680 O   0  0  0  0  0  0  0  0  0  0  0  0
  -24.9250  -34.0580   24.9370 H   0  0  0  0  0  0  0  0  0  0  0  0
  -24.2050  -36.7730   23.0240 C   0  0  0  0  0  1  0  0  0  0  0  0
  -25.4260  -36.3390   23.8490 C   0  0  0  0  0  3  0  0  0  0  0  0
  -27.5680  -37.1710   24.7110 C   0  0  0  0  0  1  0  0  0  0  0  0
  -26.4840  -37.3690   23.7530 N   0  0  0  0  0  0  0  0  0  0  0  0
  -26.0960  -38.2980   23.8970 H   0  0  0  0  0  0  0  0  0  0  0  0
  -30.3250  -19.8870   20.0100 C   0  0  0  0  0  2  0  0  0  0  0  0
  -29.8110  -18.4020   20.0200 C   0  0  0  0  0  3  0  0  0  0  0  0
  -27.3750  -18.1440   19.2310 C   0  0  0  0  0  1  0  0  0  0  0  0
  -28.8580  -18.1460   18.8250 C   0  0  0  0  0  2  0  0  0  0  0  0
  -30.9850  -17.3670   20.0950 C   0  0  0  0  0  2  0  0  0  0  0  0
  -31.2620  -14.8740   20.0080 C   0  0  0  0  0  0  0  0  0  0  0  0
  -30.9350  -12.5910   19.1130 C   0  0  0  0  0  2  0  0  0  0  0  0
  -29.9900  -12.6390   17.8930 C   0  0  0  0  0  2  0  0  0  0  0  0
  -28.5190  -12.5680   18.3430 C   0  0  0  0  0  2  0  0  0  0  0  0
  -28.1880  -13.5500   19.5000 C   0  0  0  0  0  3  0  0  0  0  0  0
  -29.2500  -13.4690   20.6220 C   0  0  0  0  0  2  0  0  0  0  0  0
  -30.5710  -13.6970   20.0160 N   0  0  0  0  0  0  0  0  0  0  0  0
  -32.3840  -14.9780   19.5090 O   0  0  0  0  0  0  0  0  0  0  0  0
  -30.5890  -15.9730   20.4120 N   0  0  0  0  0  0  0  0  0  0  0  0
  -29.6710  -15.8340   20.8070 H   0  0  0  0  0  0  0  0  0  0  0  0
  -25.8370  -14.2640   20.2590 C   0  0  0  0  0  0  0  0  0  0  0  0
  -24.7410  -13.5480   20.6500 C   0  0  0  0  0  0  0  0  0  0  0  0
  -25.1280  -12.1740   20.5920 C   0  0  0  0  0  0  0  0  0  0  0  0
  -26.8340  -13.3350   20.0060 N   0  0  0  0  0  0  0  0  0  0  0  0
  -26.4100  -12.0710   20.2610 N   0  0  0  0  0  0  0  0  0  0  0  0
  -24.3350  -10.9530   20.7790 C   0  0  0  0  0  0  0  0  0  0  0  0
  -24.7330   -9.9480   21.6880 C   0  0  0  0  0  3  0  0  0  0  0  0
  -23.9440   -8.7930   21.8660 C   0  0  0  0  0  3  0  0  0  0  0  0
  -22.7450   -8.6320   21.1320 C   0  0  0  0  0  0  0  0  0  0  0  0
  -22.3640   -9.6270   20.2140 C   0  0  0  0  0  3  0  0  0  0  0  0
  -23.1530  -10.7750   20.0360 C   0  0  0  0  0  3  0  0  0  0  0  0
  -21.9290   -7.5310   21.2180 O   0  0  0  0  0  0  0  0  0  0  0  0
  -21.8700   -6.7690   22.3560 C   0  0  0  0  0  0  0  0  0  0  0  0
  -21.5020   -7.3190   23.6030 C   0  0  0  0  0  3  0  0  0  0  0  0
  -21.3860   -6.4880   24.7340 C   0  0  0  0  0  3  0  0  0  0  0  0
  -21.6300   -5.1050   24.6200 C   0  0  0  0  0  0  0  0  0  0  0  0
  -21.9900   -4.5540   23.3780 C   0  0  0  0  0  3  0  0  0  0  0  0
  -22.1060   -5.3830   22.2490 C   0  0  0  0  0  0  0  0  0  0  0  0
  -22.4340   -4.8450   21.0490 F   0  0  0  0  0  0  0  0  0  0  0  0
  -21.5110   -4.3040   25.7030 F   0  0  0  0  0  0  0  0  0  0  0  0
  -23.3790  -14.1010   20.9620 C   0  0  0  0  0  0  0  0  0  0  0  0
  -22.6400  -13.4460   21.8480 N   0  0  0  0  0  0  0  0  0  0  0  0
  -22.9840  -15.1520   20.4580 O   0  0  0  0  0  0  0  0  0  0  0  0
  -22.9700  -12.5970   22.2810 H   0  0  0  0  0  0  0  0  0  0  0  0
  -21.7290  -13.8030   22.0970 H   0  0  0  0  0  0  0  0  0  0  0  0
  -26.0590  -15.6220   20.0750 N   0  0  0  0  0  0  0  0  0  0  0  0
  -25.3250  -16.3030   20.2370 H   0  0  0  0  0  0  0  0  0  0  0  0
  -26.9150  -16.0270   19.7280 H   0  0  0  0  0  0  0  0  0  0  0  0
  1 52  1  0
  1  2  1  0
  2  4  2  0
  2  3  1  0
  3  6  1  0
  5  3  1  0
  7  8  1  0
  7  1  1  0
  8  9  1  0
 10 11  1  0
 10  9  1  0
 11 13  1  0
 12 23  2  0
 13 18  1  0
 14 22  1  0
 14 24  1  0
 15 21  1  0
 15 17  1  0
 16 22  1  0
 17 16  1  0
 18 17  2  0
 19 20  1  0
 19 13  2  0
 20 15  2  0
 21 14  1  0
 22 12  1  0
 24 26  2  0
 25 24  1  0
 27 25  1  0
 28 37  2  0
 28 33  1  0
 29 25  1  0
 29 33  1  0
 30 29  1  0
 31 32  1  0
 31 30  1  0
 32 28  1  0
 33 34  2  0
 34 35  1  0
 36 35  2  0
 37 36  1  0
 38 12  1  0
 38 43  1  0
 38 39  1  0
 39 42  1  1
 39 40  1  0
 41 39  1  0
 43 46  1  0
 44 48  1  0
 44 43  1  0
 45 44  2  0
 48 47  1  0
 50 48  1  0
 50 51  1  0
 50 49  1  0
 52 53  1  0
 53 55  1  0
 53 56  1  0
 55 54  1  0
 56 65  1  0
 57 63  1  0
 57 65  1  0
 58 63  1  0
 59 60  1  0
 59 58  1  0
 61 60  1  0
 61 70  1  0
 61 62  1  0
 63 62  1  0
 64 57  2  0
 65 66  1  0
 67 68  2  0
 68 87  1  0
 69 68  1  0
 69 72  1  0
 70 67  1  0
 70 71  1  0
 71 69  2  0
 72 73  1  0
 73 74  2  0
 75 78  1  0
 75 74  1  0
 76 75  2  0
 77 76  1  0
 77 72  2  0
 78 79  1  0
 79 80  1  0
 80 81  2  0
 82 81  1  0
 82 86  1  0
 83 82  2  0
 84 79  2  0
 84 83  1  0
 85 84  1  0
 87 88  1  0
 88 91  1  0
 88 90  1  0
 89 87  2  0
 92 93  1  0
 92 67  1  0
 94 92  1  0
M  ISO  4  10 101  11 101  57 100  65 100
M  END
>  <TORSDO>  (89) 
F 25

>  <SCORE>  (89) 
-11.909

>  <name>  (89) 
90

>  <ligand_id>  (89) 
90

>  <original_smiles>  (89) 
[H]c1c([H])c([H])c2c(c1[H])C([H])([H])C([H])([H])C([H])([H])C2([H])N([H])C(=O)C1([H])N(C(=O)C([H])(N([H])C(=O)C([H])(N([H])C([H])([H])[H])C([H])([H])[H])C(C([H])([H])[H])(C([H])([H])[H])C([H])([H])[H])C([H])([H])c2c([H])c(OC([H])([H])C([H])([H])C([H])([H])C([H])([H])C([H])(C(=O)N([H])[H])C([H])([H])C([H])(C([H])([H])N([H])C(=O)N3C([H])([H])C([H])([H])C([H])([H])C([H])(n4nc(-c5c([H])c([H])c(Oc6c([H])c([H])c(F)c([H])c6F)c([H])c5[H])c(C(=O)N([H])[H])c4N([H])[H])C3([H])[H])C([H])([H])C([H])([H])[H])c([H])c([H])c2C1([H])[H]

>  <smiles>  (89) 
[H]c1c([H])c([H])c2c(c1[H])C([H])([H])C([H])([H])C([H])([H])C2([H])N([H])C(=O)C1([H])N(C(=O)C([H])(N([H])C(=O)C([H])(N([H])C([H])([H])[H])C([H])([H])[H])C(C([H])([H])[H])(C([H])([H])[H])C([H])([H])[H])C([H])([H])c2c([H])c(OC([H])([H])C([H])([H])C([H])([H])C([H])([H])C([H])(C(=O)N([H])[H])C([H])([H])C([H])(C([H])([H])N([H])C(=O)N3C([H])([H])C([H])([H])C([H])([H])C([H])(n4nc(-c5c([H])c([H])c(Oc6c([H])c([H])c(F)c([H])c6F)c([H])c5[H])c(C(=O)N([H])[H])c4N([H])[H])C3([H])[H])C([H])([H])C([H])([H])[H])c([H])c([H])c2C1([H])[H]

$$$$
91:0:0
     RDKit          3D

 99106  0  0  1  0  0  0  0  0999 V2000
  -28.9040  -17.0290   20.7550 C   0  0  0  0  0  2  0  0  0  0  0  0
  -30.2690  -16.4550   20.1180 C   0  0  2  0  0  0  0  0  0  0  0  0
  -30.7500  -14.8950   20.2350 C   0  0  0  0  0  0  0  0  0  0  0  0
  -30.4560  -12.5920   19.3430 C   0  0  0  0  0  2  0  0  0  0  0  0
  -29.5230  -12.5530   18.1150 C   0  0  0  0  0  2  0  0  0  0  0  0
  -28.0630  -12.3880   18.5630 C   0  0  0  0  0  2  0  0  0  0  0  0
  -27.6660  -13.3380   19.7270 C   0  0  0  0  0  3  0  0  0  0  0  0
  -28.7340  -13.3940   20.8350 C   0  0  0  0  0  2  0  0  0  0  0  0
  -30.0210  -13.7230   20.2100 N   0  0  0  0  0  0  0  0  0  0  0  0
  -31.9610  -14.7610   20.0510 O   0  0  0  0  0  0  0  0  0  0  0  0
  -25.2880  -13.8590   20.5280 C   0  0  0  0  0  0  0  0  0  0  0  0
  -24.2420  -13.0520   20.8980 C   0  0  0  0  0  0  0  0  0  0  0  0
  -24.7350  -11.7130   20.8330 C   0  0  0  0  0  0  0  0  0  0  0  0
  -26.3430  -13.0070   20.2530 N   0  0  0  0  0  0  0  0  0  0  0  0
  -26.0220  -11.7100   20.5050 N   0  0  0  0  0  0  0  0  0  0  0  0
  -24.0330  -10.4340   21.0140 C   0  0  0  0  0  0  0  0  0  0  0  0
  -24.4820   -9.4650   21.9390 C   0  0  0  0  0  3  0  0  0  0  0  0
  -23.7800   -8.2510   22.1070 C   0  0  0  0  0  3  0  0  0  0  0  0
  -22.6130   -7.9960   21.3450 C   0  0  0  0  0  0  0  0  0  0  0  0
  -22.1850   -8.9510   20.4050 C   0  0  0  0  0  3  0  0  0  0  0  0
  -22.8880  -10.1570   20.2390 C   0  0  0  0  0  3  0  0  0  0  0  0
  -21.8800   -6.8360   21.4240 O   0  0  0  0  0  0  0  0  0  0  0  0
  -21.8160   -6.1040   22.5810 C   0  0  0  0  0  0  0  0  0  0  0  0
  -21.3360   -6.6560   23.7890 C   0  0  0  0  0  3  0  0  0  0  0  0
  -21.2220   -5.8470   24.9360 C   0  0  0  0  0  3  0  0  0  0  0  0
  -21.5750   -4.4860   24.8800 C   0  0  0  0  0  0  0  0  0  0  0  0
  -22.0460   -3.9310   23.6760 C   0  0  0  0  0  3  0  0  0  0  0  0
  -22.1640   -4.7380   22.5300 C   0  0  0  0  0  0  0  0  0  0  0  0
  -22.5980   -4.1920   21.3700 F   0  0  0  0  0  0  0  0  0  0  0  0
  -21.4570   -3.7100   25.9810 F   0  0  0  0  0  0  0  0  0  0  0  0
  -22.8410  -13.4970   21.1920 C   0  0  0  0  0  0  0  0  0  0  0  0
  -22.1410  -12.7820   22.0710 N   0  0  0  0  0  0  0  0  0  0  0  0
  -22.3730  -14.5140   20.6850 O   0  0  0  0  0  0  0  0  0  0  0  0
  -22.5370  -11.9680   22.5120 H   0  0  0  0  0  0  0  0  0  0  0  0
  -21.1960  -13.0530   22.2990 H   0  0  0  0  0  0  0  0  0  0  0  0
  -25.4210  -15.2340   20.3750 N   0  0  0  0  0  0  0  0  0  0  0  0
  -24.6500  -15.8830   20.5150 H   0  0  0  0  0  0  0  0  0  0  0  0
  -26.2540  -15.6930   20.0320 H   0  0  0  0  0  0  0  0  0  0  0  0
  -31.3880  -17.2650   20.8800 C   0  0  0  0  0  0  0  0  0  0  0  0
  -31.6520  -16.9830   22.0570 O   0  0  0  0  0  0  0  0  0  0  0  0
  -32.0960  -18.4970   20.2570 C   0  0  0  0  0  2  0  0  0  0  0  0
  -33.5960  -18.6020   20.6520 C   0  0  0  0  0  2  0  0  0  0  0  0
  -34.2880  -19.9510   20.3330 C   0  0  0  0  0  2  0  0  0  0  0  0
  -33.7010  -21.0990   21.0580 N   0  0  0  0  0  4  0  0  0  0  0  0
  -33.6340  -20.8880   22.0370 H   0  0  0  0  0  0  0  0  0  0  0  0
  -32.7860  -21.3360   20.7160 H   0  0  0  0  0  0  0  0  0  0  0  0
  -34.2830  -21.9170   20.9590 H   0  0  0  0  0  0  0  0  0  0  0  0
  -30.1570  -16.8180   18.5790 C   0  0  0  0  0  2  0  0  0  0  0  0
  -32.4920  -16.5980   17.3360 C   0  0  0  0  0  1  0  0  0  0  0  0
  -31.0340  -16.1540   17.4770 C   0  0  0  0  0  2  0  0  0  0  0  0
  -28.6990  -18.6040   21.1250 C   0  0  0  0  0  3  0  0  0  0  0  0
  -28.5790  -19.8130   20.0750 C   0  0  0  0  0  3  0  0  0  0  0  0
  -28.3010  -21.1910   20.6850 N   0  0  0  0  0  4  0  0  0  0  0  0
  -28.9660  -21.3340   21.4270 H   0  0  0  0  0  0  0  0  0  0  0  0
  -27.3920  -21.1550   21.1190 H   0  0  0  0  0  0  0  0  0  0  0  0
  -28.3680  -22.4420   19.8100 C   0  0  0  0  0  2  0  0  0  0  0  0
  -28.0880  -23.8800   20.4890 C   0  0  0  0  0  3  0  0  0  0  0  0
  -28.2760  -25.1990   19.5860 C   0  0  0  0  0  3  0  0  0  0  0  0
  -28.2490  -26.5810   20.1510 O   0  0  0  0  0  0  0  0  0  0  0  0
  -24.5880  -31.9540   23.2620 C   0  0  0  0  0  0  0  0  0  0  0  0
  -27.1210  -27.4190   20.1110 C   0  0  0  0  0  0  0  0  0  0  0  0
  -23.3500  -30.5810   21.6280 C   0  0  0  0  0  3  0  0  0  0  0  0
  -24.7690  -29.0570   20.1490 C   0  0  0  0  0  0  0  0  0  0  0  0
  -25.8900  -30.9020   21.4000 C   0  0  0  0  0  2  0  0  0  0  0  0
  -25.9500  -29.5330   20.7290 C   0  0  0  0  0  0  0  0  0  0  0  0
  -27.1270  -28.7260   20.6970 C   0  0  0  0  0  3  0  0  0  0  0  0
  -25.9070  -26.9870   19.5340 C   0  0  0  0  0  3  0  0  0  0  0  0
  -24.7520  -27.7910   19.5430 C   0  0  0  0  0  3  0  0  0  0  0  0
  -23.5340  -29.9330   20.2330 C   0  0  0  0  0  2  0  0  0  0  0  0
  -24.6290  -31.1650   22.1500 N   0  0  0  0  0  0  0  0  0  0  0  0
  -23.5150  -32.2190   23.8250 O   0  0  0  0  0  0  0  0  0  0  0  0
  -22.7120  -29.5450   22.5850 C   0  0  0  0  0  0  0  0  0  0  0  0
  -21.3860  -29.3530   22.4710 N   0  0  0  0  0  0  0  0  0  0  0  0
  -23.4060  -28.9180   23.3890 O   0  0  0  0  0  0  0  0  0  0  0  0
  -20.8850  -29.9060   21.7900 H   0  0  0  0  0  0  0  0  0  0  0  0
  -18.0290  -28.0950   22.9660 C   0  0  0  0  0  0  0  0  0  0  0  0
  -20.5820  -28.4010   23.2400 C   0  0  0  0  0  3  0  0  0  0  0  0
  -20.7130  -26.9710   22.6660 C   0  0  0  0  0  2  0  0  0  0  0  0
  -19.6160  -26.6270   21.6530 C   0  0  0  0  0  2  0  0  0  0  0  0
  -18.2300  -26.7490   22.2900 C   0  0  0  0  0  2  0  0  0  0  0  0
  -19.1330  -28.8790   23.3950 C   0  0  0  0  0  0  0  0  0  0  0  0
  -18.8860  -30.1400   23.9830 C   0  0  0  0  0  3  0  0  0  0  0  0
  -17.5720  -30.6150   24.1460 C   0  0  0  0  0  3  0  0  0  0  0  0
  -16.4830  -29.8280   23.7320 C   0  0  0  0  0  3  0  0  0  0  0  0
  -16.7130  -28.5700   23.1470 C   0  0  0  0  0  3  0  0  0  0  0  0
  -25.8840  -32.5810   23.8680 C   0  0  0  0  0  3  0  0  0  0  0  0
  -25.5830  -33.9750   24.2260 N   0  0  0  0  0  0  0  0  0  0  0  0
  -25.8930  -35.0390   23.4740 C   0  0  0  0  0  0  0  0  0  0  0  0
  -26.5400  -34.9490   22.4270 O   0  0  0  0  0  0  0  0  0  0  0  0
  -25.0160  -34.1200   25.0500 H   0  0  0  0  0  0  0  0  0  0  0  0
  -24.1600  -36.8350   23.1710 C   0  0  0  0  0  1  0  0  0  0  0  0
  -25.4130  -36.4200   23.9580 C   0  0  0  0  0  3  0  0  0  0  0  0
  -27.5600  -37.2930   24.7720 C   0  0  0  0  0  1  0  0  0  0  0  0
  -26.4450  -37.4760   23.8460 N   0  0  0  0  0  0  0  0  0  0  0  0
  -26.0400  -38.3930   24.0110 H   0  0  0  0  0  0  0  0  0  0  0  0
  -26.4210  -31.7960   25.1280 C   0  0  1  0  0  0  0  0  0  0  0  0
  -25.3450  -31.5550   26.2140 C   0  0  0  0  0  1  0  0  0  0  0  0
  -26.9960  -30.4210   24.7180 C   0  0  0  0  0  1  0  0  0  0  0  0
  -27.5820  -32.5860   25.7770 C   0  0  0  0  0  1  0  0  0  0  0  0
  1 51  1  0
  2 48  1  6
  2  3  1  0
  2  1  1  0
  2 39  1  0
  4  9  1  0
  5  6  1  0
  5  4  1  0
  7  6  1  0
  7 14  1  0
  7  8  1  0
  9  3  1  0
  9  8  1  0
 10  3  2  0
 11 12  2  0
 12 31  1  0
 13 12  1  0
 13 16  1  0
 14 15  1  0
 14 11  1  0
 15 13  2  0
 16 17  1  0
 17 18  2  0
 19 22  1  0
 19 18  1  0
 20 19  2  0
 21 20  1  0
 21 16  2  0
 22 23  1  0
 23 24  1  0
 24 25  2  0
 26 25  1  0
 26 30  1  0
 27 26  2  0
 28 23  2  0
 28 27  1  0
 29 28  1  0
 31 32  1  0
 32 35  1  0
 32 34  1  0
 33 31  2  0
 36 37  1  0
 36 11  1  0
 38 36  1  0
 39 40  2  0
 41 42  1  0
 41 39  1  0
 43 42  1  0
 43 44  1  0
 44 45  1  0
 46 44  1  0
 47 44  1  0
 49 50  1  0
 50 48  1  0
 52 53  1  0
 52 51  2  0
 53 55  1  0
 53 54  1  0
 56 57  1  0
 56 53  1  0
 58 59  1  0
 58 57  2  0
 60 71  2  0
 61 59  1  0
 61 66  1  0
 62 70  1  0
 62 72  1  0
 63 69  1  0
 63 65  1  0
 64 70  1  0
 65 64  1  0
 66 65  2  0
 67 68  1  0
 67 61  2  0
 68 63  2  0
 69 62  1  0
 70 60  1  0
 72 74  2  0
 73 72  1  0
 75 73  1  0
 76 85  2  0
 76 81  1  0
 77 73  1  0
 77 81  1  0
 78 77  1  0
 79 80  1  0
 79 78  1  0
 80 76  1  0
 81 82  2  0
 82 83  1  0
 84 83  2  0
 85 84  1  0
 86 60  1  0
 86 87  1  0
 86 96  1  0
 87 90  1  0
 88 92  1  0
 88 87  1  0
 89 88  2  0
 92 91  1  0
 94 92  1  0
 94 95  1  0
 94 93  1  0
 96 99  1  1
 96 97  1  0
 98 96  1  0
M  ISO  4   2 100   3 100  58 101  59 101
M  END
>  <TORSDO>  (90) 
F 30

>  <SCORE>  (90) 
-10.189

>  <name>  (90) 
91

>  <ligand_id>  (90) 
91

>  <original_smiles>  (90) 
[H]c1c([H])c([H])c2c(c1[H])C([H])([H])C([H])([H])C([H])([H])C2([H])N([H])C(=O)C1([H])N(C(=O)C([H])(N([H])C(=O)C([H])(N([H])C([H])([H])[H])C([H])([H])[H])C(C([H])([H])[H])(C([H])([H])[H])C([H])([H])[H])C([H])([H])c2c([H])c(OC([H])([H])C([H])([H])C([H])([H])[N+]([H])([H])C([H])([H])C([H])([H])C([H])([H])C(C(=O)N3C([H])([H])C([H])([H])C([H])([H])C([H])(n4nc(-c5c([H])c([H])c(Oc6c([H])c([H])c(F)c([H])c6F)c([H])c5[H])c(C(=O)N([H])[H])c4N([H])[H])C3([H])[H])(C(=O)C([H])([H])C([H])([H])C([H])([H])[N+]([H])([H])[H])C([H])([H])C([H])([H])C([H])([H])[H])c([H])c([H])c2C1([H])[H]

>  <smiles>  (90) 
[H]c1c([H])c([H])c2c(c1[H])C([H])([H])C([H])([H])C([H])([H])C2([H])N([H])C(=O)C1([H])N(C(=O)C([H])(N([H])C(=O)C([H])(N([H])C([H])([H])[H])C([H])([H])[H])C(C([H])([H])[H])(C([H])([H])[H])C([H])([H])[H])C([H])([H])c2c([H])c(OC([H])([H])C([H])([H])C([H])([H])[N+]([H])([H])C([H])([H])C([H])([H])C([H])([H])C(C(=O)N3C([H])([H])C([H])([H])C([H])([H])C([H])(n4nc(-c5c([H])c([H])c(Oc6c([H])c([H])c(F)c([H])c6F)c([H])c5[H])c(C(=O)N([H])[H])c4N([H])[H])C3([H])[H])(C(=O)C([H])([H])C([H])([H])C([H])([H])[N+]([H])([H])[H])C([H])([H])C([H])([H])C([H])([H])[H])c([H])c([H])c2C1([H])[H]

$$$$
92:0:0
     RDKit          3D

 91 98  0  0  1  0  0  0  0  0999 V2000
  -26.3870  -22.4150   21.7220 C   0  0  0  0  0  1  0  0  0  0  0  0
  -27.5990  -22.0200   20.8500 C   0  0  0  0  0  3  0  0  0  0  0  0
  -26.9410  -23.1880   18.6390 C   0  0  0  0  0  1  0  0  0  0  0  0
  -27.9550  -23.1360   19.8020 C   0  0  0  0  0  3  0  0  0  0  0  0
  -28.1120  -24.5380   20.4700 C   0  0  0  0  0  2  0  0  0  0  0  0
  -28.7340  -25.6780   19.6190 C   0  0  0  0  0  2  0  0  0  0  0  0
  -28.6340  -26.9570   20.2770 O   0  0  0  0  0  0  0  0  0  0  0  0
  -24.6470  -31.9850   23.4010 C   0  0  0  0  0  0  0  0  0  0  0  0
  -27.4280  -27.6380   20.2770 C   0  0  0  0  0  0  0  0  0  0  0  0
  -23.4980  -30.5920   21.7120 C   0  0  0  0  0  3  0  0  0  0  0  0
  -25.0020  -29.1050   20.2920 C   0  0  0  0  0  0  0  0  0  0  0  0
  -26.0220  -30.9940   21.5720 C   0  0  0  0  0  2  0  0  0  0  0  0
  -26.1410  -29.6350   20.9100 C   0  0  0  0  0  0  0  0  0  0  0  0
  -27.3540  -28.9060   20.9020 C   0  0  0  0  0  3  0  0  0  0  0  0
  -26.2570  -27.1220   19.6680 C   0  0  0  0  0  3  0  0  0  0  0  0
  -25.0540  -27.8490   19.6730 C   0  0  0  0  0  3  0  0  0  0  0  0
  -23.7440  -29.9420   20.3250 C   0  0  0  0  0  2  0  0  0  0  0  0
  -24.7390  -31.2050   22.2870 N   0  0  0  0  0  0  0  0  0  0  0  0
  -23.5500  -32.2290   23.9240 O   0  0  0  0  0  0  0  0  0  0  0  0
  -22.8460  -29.5430   22.6410 C   0  0  0  0  0  0  0  0  0  0  0  0
  -21.5270  -29.3450   22.4870 N   0  0  0  0  0  0  0  0  0  0  0  0
  -23.5250  -28.9130   23.4570 O   0  0  0  0  0  0  0  0  0  0  0  0
  -21.0400  -29.9160   21.8090 H   0  0  0  0  0  0  0  0  0  0  0  0
  -18.1630  -28.0870   22.8940 C   0  0  0  0  0  0  0  0  0  0  0  0
  -20.7100  -28.3800   23.2210 C   0  0  0  0  0  3  0  0  0  0  0  0
  -20.8460  -26.9600   22.6240 C   0  0  0  0  0  2  0  0  0  0  0  0
  -19.7690  -26.6370   21.5820 C   0  0  0  0  0  2  0  0  0  0  0  0
  -18.3740  -26.7500   22.2030 C   0  0  0  0  0  2  0  0  0  0  0  0
  -19.2610  -28.8580   23.3590 C   0  0  0  0  0  0  0  0  0  0  0  0
  -19.0130  -30.1080   23.9690 C   0  0  0  0  0  3  0  0  0  0  0  0
  -17.6980  -30.5880   24.1160 C   0  0  0  0  0  3  0  0  0  0  0  0
  -16.6140  -29.8130   23.6680 C   0  0  0  0  0  3  0  0  0  0  0  0
  -16.8460  -28.5640   23.0630 C   0  0  0  0  0  3  0  0  0  0  0  0
  -25.9110  -32.6260   24.0570 C   0  0  0  0  0  3  0  0  0  0  0  0
  -25.5830  -34.0220   24.3740 N   0  0  0  0  0  0  0  0  0  0  0  0
  -25.9270  -35.0760   23.6190 C   0  0  0  0  0  0  0  0  0  0  0  0
  -26.6270  -34.9730   22.6080 O   0  0  0  0  0  0  0  0  0  0  0  0
  -24.9660  -34.1740   25.1590 H   0  0  0  0  0  0  0  0  0  0  0  0
  -24.1920  -36.8490   23.2110 C   0  0  0  0  0  1  0  0  0  0  0  0
  -25.4160  -36.4610   24.0550 C   0  0  0  0  0  3  0  0  0  0  0  0
  -27.5210  -37.3710   24.9330 C   0  0  0  0  0  1  0  0  0  0  0  0
  -26.4400  -37.5230   23.9620 N   0  0  0  0  0  0  0  0  0  0  0  0
  -26.0210  -38.4390   24.0940 H   0  0  0  0  0  0  0  0  0  0  0  0
  -26.3950  -31.8610   25.3500 C   0  0  1  0  0  0  0  0  0  0  0  0
  -25.2700  -31.6130   26.3820 C   0  0  0  0  0  1  0  0  0  0  0  0
  -27.0050  -30.4890   24.9760 C   0  0  0  0  0  1  0  0  0  0  0  0
  -27.5130  -32.6660   26.0500 C   0  0  0  0  0  1  0  0  0  0  0  0
  -27.3390  -20.5960   20.2690 C   0  0  0  0  0  2  0  0  0  0  0  0
  -28.2370  -19.1760   18.3700 C   0  0  0  0  0  1  0  0  0  0  0  0
  -28.5630  -19.8010   19.7390 C   0  0  0  0  0  3  0  0  0  0  0  0
  -29.0180  -18.7100   20.7470 C   0  0  0  0  0  2  0  0  0  0  0  0
  -30.3870  -18.0660   20.4320 C   0  0  0  0  0  2  0  0  0  0  0  0
  -30.8910  -17.0840   21.5200 C   0  0  0  0  0  2  0  0  0  0  0  0
  -31.0870  -14.7060   20.7550 C   0  0  0  0  0  0  0  0  0  0  0  0
  -30.8190  -12.5600   19.5790 C   0  0  0  0  0  2  0  0  0  0  0  0
  -29.9410  -12.7740   18.3310 C   0  0  0  0  0  2  0  0  0  0  0  0
  -28.4450  -12.6640   18.6830 C   0  0  0  0  0  2  0  0  0  0  0  0
  -28.0580  -13.5080   19.9280 C   0  0  0  0  0  3  0  0  0  0  0  0
  -29.0480  -13.2600   21.0870 C   0  0  0  0  0  2  0  0  0  0  0  0
  -30.4060  -13.5450   20.5890 N   0  0  0  0  0  0  0  0  0  0  0  0
  -32.2250  -14.8850   20.3080 O   0  0  0  0  0  0  0  0  0  0  0  0
  -30.4040  -15.7090   21.3350 N   0  0  0  0  0  0  0  0  0  0  0  0
  -29.4700  -15.4980   21.6600 H   0  0  0  0  0  0  0  0  0  0  0  0
  -25.6250  -14.1490   20.4630 C   0  0  0  0  0  0  0  0  0  0  0  0
  -24.5310  -13.3940   20.7880 C   0  0  0  0  0  0  0  0  0  0  0  0
  -24.9810  -12.0390   20.8240 C   0  0  0  0  0  0  0  0  0  0  0  0
  -26.6760  -13.2550   20.3280 N   0  0  0  0  0  0  0  0  0  0  0  0
  -26.2870  -11.9820   20.5970 N   0  0  0  0  0  0  0  0  0  0  0  0
  -24.2330  -10.7890   21.0060 C   0  0  0  0  0  0  0  0  0  0  0  0
  -24.6000   -9.8450   21.9900 C   0  0  0  0  0  3  0  0  0  0  0  0
  -23.8550   -8.6580   22.1570 C   0  0  0  0  0  3  0  0  0  0  0  0
  -22.7270   -8.4070   21.3410 C   0  0  0  0  0  0  0  0  0  0  0  0
  -22.3790   -9.3390   20.3450 C   0  0  0  0  0  3  0  0  0  0  0  0
  -23.1260  -10.5180   20.1760 C   0  0  0  0  0  3  0  0  0  0  0  0
  -21.9590   -7.2700   21.4150 O   0  0  0  0  0  0  0  0  0  0  0  0
  -21.8310   -6.5650   22.5840 C   0  0  0  0  0  0  0  0  0  0  0  0
  -21.3390   -7.1640   23.7640 C   0  0  0  0  0  3  0  0  0  0  0  0
  -21.1550   -6.3870   24.9250 C   0  0  0  0  0  3  0  0  0  0  0  0
  -21.4540   -5.0110   24.9060 C   0  0  0  0  0  0  0  0  0  0  0  0
  -21.9410   -4.4120   23.7320 C   0  0  0  0  0  3  0  0  0  0  0  0
  -22.1260   -5.1870   22.5730 C   0  0  0  0  0  0  0  0  0  0  0  0
  -22.5740   -4.6000   21.4370 F   0  0  0  0  0  0  0  0  0  0  0  0
  -21.2710   -4.2610   26.0190 F   0  0  0  0  0  0  0  0  0  0  0  0
  -23.1250  -13.8890   20.9630 C   0  0  0  0  0  0  0  0  0  0  0  0
  -22.3440  -13.2290   21.8100 N   0  0  0  0  0  0  0  0  0  0  0  0
  -22.7250  -14.8970   20.3830 O   0  0  0  0  0  0  0  0  0  0  0  0
  -22.6790  -12.4130   22.3010 H   0  0  0  0  0  0  0  0  0  0  0  0
  -21.3980  -13.5430   21.9720 H   0  0  0  0  0  0  0  0  0  0  0  0
  -25.8100  -15.5120   20.2550 N   0  0  0  0  0  0  0  0  0  0  0  0
  -25.0400  -16.1710   20.2920 H   0  0  0  0  0  0  0  0  0  0  0  0
  -26.6820  -15.9360   19.9650 H   0  0  0  0  0  0  0  0  0  0  0  0
  2  1  1  0
  4  3  1  0
  4  5  1  0
  4  2  1  0
  6  7  1  0
  6  5  1  0
  7  9  1  0
  8 19  2  0
  9 14  1  0
 10 18  1  0
 10 20  1  0
 11 17  1  0
 11 13  1  0
 12 18  1  0
 13 12  1  0
 14 13  2  0
 15 16  1  0
 15  9  2  0
 16 11  2  0
 17 10  1  0
 18  8  1  0
 20 22  2  0
 21 20  1  0
 23 21  1  0
 24 33  2  0
 24 29  1  0
 25 21  1  0
 25 29  1  0
 26 25  1  0
 27 28  1  0
 27 26  1  0
 28 24  1  0
 29 30  2  0
 30 31  1  0
 32 31  2  0
 33 32  1  0
 34  8  1  0
 34 35  1  0
 34 44  1  0
 35 38  1  0
 36 40  1  0
 36 35  1  0
 37 36  2  0
 40 39  1  0
 42 40  1  0
 42 43  1  0
 42 41  1  0
 44 47  1  1
 44 45  1  0
 46 44  1  0
 48  2  1  0
 50 49  1  0
 50 48  1  0
 50 51  1  0
 52 51  1  0
 52 53  1  0
 54 62  1  0
 55 60  1  0
 56 57  1  0
 56 55  1  0
 58 57  1  0
 58 67  1  0
 58 59  1  0
 60 54  1  0
 60 59  1  0
 61 54  2  0
 62 53  1  0
 62 63  1  0
 64 65  2  0
 65 66  1  0
 65 84  1  0
 66 69  1  0
 67 64  1  0
 67 68  1  0
 68 66  2  0
 69 70  1  0
 70 71  2  0
 72 75  1  0
 72 71  1  0
 73 72  2  0
 74 73  1  0
 74 69  2  0
 75 76  1  0
 76 77  1  0
 77 78  2  0
 79 78  1  0
 79 83  1  0
 80 79  2  0
 81 76  2  0
 81 80  1  0
 82 81  1  0
 84 85  1  0
 85 88  1  0
 85 87  1  0
 86 84  2  0
 89 90  1  0
 89 64  1  0
 91 89  1  0
M  ISO  4   6 101   7 101  54 100  62 100
M  END
>  <TORSDO>  (91) 
F 24

>  <SCORE>  (91) 
-11.040

>  <name>  (91) 
92

>  <ligand_id>  (91) 
92

>  <original_smiles>  (91) 
[H]c1c([H])c([H])c2c(c1[H])C([H])([H])C([H])([H])C([H])([H])C2([H])N([H])C(=O)C1([H])N(C(=O)C([H])(N([H])C(=O)C([H])(N([H])C([H])([H])[H])C([H])([H])[H])C(C([H])([H])[H])(C([H])([H])[H])C([H])([H])[H])C([H])([H])c2c([H])c(OC([H])([H])C([H])([H])C([H])(C([H])([H])[H])C([H])(C([H])([H])[H])C([H])([H])C([H])(C([H])([H])[H])C([H])([H])C([H])([H])C([H])([H])N([H])C(=O)N3C([H])([H])C([H])([H])C([H])([H])C([H])(n4nc(-c5c([H])c([H])c(Oc6c([H])c([H])c(F)c([H])c6F)c([H])c5[H])c(C(=O)N([H])[H])c4N([H])[H])C3([H])[H])c([H])c([H])c2C1([H])[H]

>  <smiles>  (91) 
[H]c1c([H])c([H])c2c(c1[H])C([H])([H])C([H])([H])C([H])([H])C2([H])N([H])C(=O)C1([H])N(C(=O)C([H])(N([H])C(=O)C([H])(N([H])C([H])([H])[H])C([H])([H])[H])C(C([H])([H])[H])(C([H])([H])[H])C([H])([H])[H])C([H])([H])c2c([H])c(OC([H])([H])C([H])([H])C([H])(C([H])([H])[H])C([H])(C([H])([H])[H])C([H])([H])C([H])(C([H])([H])[H])C([H])([H])C([H])([H])C([H])([H])N([H])C(=O)N3C([H])([H])C([H])([H])C([H])([H])C([H])(n4nc(-c5c([H])c([H])c(Oc6c([H])c([H])c(F)c([H])c6F)c([H])c5[H])c(C(=O)N([H])[H])c4N([H])[H])C3([H])[H])c([H])c([H])c2C1([H])[H]

$$$$
93:0:0
     RDKit          3D

 87 94  0  0  1  0  0  0  0  0999 V2000
  -29.2080  -20.8860   19.6950 C   0  0  0  0  0  3  0  0  0  0  0  0
  -28.4960  -20.7960   21.0440 C   0  0  0  0  0  0  0  0  0  0  0  0
  -27.3250  -20.1760   21.0960 N   0  0  0  0  0  0  0  0  0  0  0  0
  -29.0050  -21.2870   22.0490 O   0  0  0  0  0  0  0  0  0  0  0  0
  -26.9190  -19.7720   20.2640 H   0  0  0  0  0  0  0  0  0  0  0  0
  -26.8310  -20.0940   21.9740 H   0  0  0  0  0  0  0  0  0  0  0  0
  -30.2560  -19.3150   19.6300 C   0  0  0  0  0  3  0  0  0  0  0  0
  -30.0420  -17.4720   19.9580 C   0  0  0  0  0  3  0  0  0  0  0  0
  -30.9450  -15.8930   19.7820 C   0  0  0  0  0  0  0  0  0  0  0  0
  -31.0500  -13.3610   19.0220 C   0  0  0  0  0  2  0  0  0  0  0  0
  -30.0910  -13.0130   17.8480 C   0  0  0  0  0  2  0  0  0  0  0  0
  -28.6820  -12.6800   18.3650 C   0  0  0  0  0  2  0  0  0  0  0  0
  -28.2280  -13.6810   19.4530 C   0  0  0  0  0  3  0  0  0  0  0  0
  -29.3100  -13.9550   20.5170 C   0  0  0  0  0  2  0  0  0  0  0  0
  -30.4830  -14.5230   19.8230 N   0  0  0  0  0  0  0  0  0  0  0  0
  -32.1510  -15.9020   19.4790 O   0  0  0  0  0  0  0  0  0  0  0  0
  -25.9290  -14.2020   20.4130 C   0  0  0  0  0  0  0  0  0  0  0  0
  -24.8860  -13.4130   20.8090 C   0  0  0  0  0  0  0  0  0  0  0  0
  -25.3320  -12.0630   20.6630 C   0  0  0  0  0  0  0  0  0  0  0  0
  -26.9390  -13.3360   20.0400 N   0  0  0  0  0  0  0  0  0  0  0  0
  -26.6000  -12.0380   20.2570 N   0  0  0  0  0  0  0  0  0  0  0  0
  -24.6010  -10.7980   20.8270 C   0  0  0  0  0  0  0  0  0  0  0  0
  -24.9960   -9.8340   21.7810 C   0  0  0  0  0  3  0  0  0  0  0  0
  -24.2630   -8.6380   21.9360 C   0  0  0  0  0  3  0  0  0  0  0  0
  -23.1210   -8.3960   21.1370 C   0  0  0  0  0  0  0  0  0  0  0  0
  -22.7450   -9.3480   20.1730 C   0  0  0  0  0  3  0  0  0  0  0  0
  -23.4790  -10.5370   20.0170 C   0  0  0  0  0  3  0  0  0  0  0  0
  -22.3630   -7.2510   21.1980 O   0  0  0  0  0  0  0  0  0  0  0  0
  -22.1250   -6.6090   22.3860 C   0  0  0  0  0  0  0  0  0  0  0  0
  -21.4590   -7.2460   23.4560 C   0  0  0  0  0  3  0  0  0  0  0  0
  -21.1730   -6.5280   24.6340 C   0  0  0  0  0  3  0  0  0  0  0  0
  -21.5420   -5.1730   24.7420 C   0  0  0  0  0  0  0  0  0  0  0  0
  -22.1980   -4.5360   23.6750 C   0  0  0  0  0  3  0  0  0  0  0  0
  -22.4860   -5.2510   22.4990 C   0  0  0  0  0  0  0  0  0  0  0  0
  -23.1010   -4.6270   21.4660 F   0  0  0  0  0  0  0  0  0  0  0  0
  -21.2600   -4.4800   25.8700 F   0  0  0  0  0  0  0  0  0  0  0  0
  -23.5170  -13.8860   21.2010 C   0  0  0  0  0  0  0  0  0  0  0  0
  -22.8470  -13.1570   22.0850 N   0  0  0  0  0  0  0  0  0  0  0  0
  -23.0540  -14.9360   20.7570 O   0  0  0  0  0  0  0  0  0  0  0  0
  -23.2370  -12.3070   22.4630 H   0  0  0  0  0  0  0  0  0  0  0  0
  -21.9310  -13.4540   22.3900 H   0  0  0  0  0  0  0  0  0  0  0  0
  -26.0970  -15.5800   20.3120 N   0  0  0  0  0  0  0  0  0  0  0  0
  -25.3510  -16.2310   20.5270 H   0  0  0  0  0  0  0  0  0  0  0  0
  -26.9320  -16.0340   19.9660 H   0  0  0  0  0  0  0  0  0  0  0  0
  -29.4200  -22.7420   19.4310 C   0  0  0  0  0  3  0  0  0  0  0  0
  -28.3770  -24.3120   19.4810 C   0  0  0  0  0  3  0  0  0  0  0  0
  -28.5650  -26.0140   19.5370 O   0  0  0  0  0  0  0  0  0  0  0  0
  -24.9270  -31.7100   23.1770 C   0  0  0  0  0  0  0  0  0  0  0  0
  -27.5460  -27.1480   19.6260 C   0  0  0  0  0  0  0  0  0  0  0  0
  -23.7580  -30.4940   21.3880 C   0  0  0  0  0  3  0  0  0  0  0  0
  -25.2300  -29.0640   19.7950 C   0  0  0  0  0  0  0  0  0  0  0  0
  -26.3270  -30.7260   21.2760 C   0  0  0  0  0  2  0  0  0  0  0  0
  -26.4160  -29.3900   20.4610 C   0  0  0  0  0  0  0  0  0  0  0  0
  -27.5640  -28.4620   20.3480 C   0  0  0  0  0  3  0  0  0  0  0  0
  -26.3220  -27.0050   18.9320 C   0  0  0  0  0  3  0  0  0  0  0  0
  -25.2150  -27.8980   19.0100 C   0  0  0  0  0  3  0  0  0  0  0  0
  -24.0030  -29.9710   19.9430 C   0  0  0  0  0  2  0  0  0  0  0  0
  -25.0270  -31.0010   22.0030 N   0  0  0  0  0  0  0  0  0  0  0  0
  -23.8310  -31.9260   23.7220 O   0  0  0  0  0  0  0  0  0  0  0  0
  -23.0680  -29.3910   22.2350 C   0  0  0  0  0  0  0  0  0  0  0  0
  -21.7380  -29.2310   22.0960 N   0  0  0  0  0  0  0  0  0  0  0  0
  -23.7400  -28.6820   22.9880 O   0  0  0  0  0  0  0  0  0  0  0  0
  -21.2440  -29.8580   21.4760 H   0  0  0  0  0  0  0  0  0  0  0  0
  -18.3640  -27.9510   22.5070 C   0  0  0  0  0  0  0  0  0  0  0  0
  -20.9280  -28.1980   22.7550 C   0  0  0  0  0  3  0  0  0  0  0  0
  -21.0220  -26.8520   22.0000 C   0  0  0  0  0  2  0  0  0  0  0  0
  -19.9040  -26.6560   20.9720 C   0  0  0  0  0  2  0  0  0  0  0  0
  -18.5340  -26.7050   21.6540 C   0  0  0  0  0  2  0  0  0  0  0  0
  -19.4880  -28.6600   23.0100 C   0  0  0  0  0  0  0  0  0  0  0  0
  -19.2710  -29.8290   23.7730 C   0  0  0  0  0  3  0  0  0  0  0  0
  -17.9660  -30.2880   24.0350 C   0  0  0  0  0  3  0  0  0  0  0  0
  -16.8590  -29.5770   23.5430 C   0  0  0  0  0  3  0  0  0  0  0  0
  -17.0580  -28.4090   22.7860 C   0  0  0  0  0  3  0  0  0  0  0  0
  -26.1830  -32.3000   23.8860 C   0  0  0  0  0  3  0  0  0  0  0  0
  -25.8520  -33.6620   24.3470 N   0  0  0  0  0  0  0  0  0  0  0  0
  -26.1520  -34.7910   23.6920 C   0  0  0  0  0  0  0  0  0  0  0  0
  -26.7960  -34.7980   22.6400 O   0  0  0  0  0  0  0  0  0  0  0  0
  -25.2780  -33.7290   25.1740 H   0  0  0  0  0  0  0  0  0  0  0  0
  -24.3780  -36.5780   23.5850 C   0  0  0  0  0  1  0  0  0  0  0  0
  -25.6650  -36.1250   24.2960 C   0  0  0  0  0  3  0  0  0  0  0  0
  -27.8110  -36.9930   25.1150 C   0  0  0  0  0  1  0  0  0  0  0  0
  -26.6710  -37.2080   24.2300 N   0  0  0  0  0  0  0  0  0  0  0  0
  -26.2510  -38.1040   24.4630 H   0  0  0  0  0  0  0  0  0  0  0  0
  -26.6720  -31.4250   25.1060 C   0  0  1  0  0  0  0  0  0  0  0  0
  -25.5590  -31.1060   26.1320 C   0  0  0  0  0  1  0  0  0  0  0  0
  -27.2600  -30.0800   24.6230 C   0  0  0  0  0  1  0  0  0  0  0  0
  -27.8110  -32.1570   25.8540 C   0  0  0  0  0  1  0  0  0  0  0  0
  1 45  1  0
  1  2  1  0
  2  3  1  0
  2  4  2  0
  3  6  1  0
  5  3  1  0
  7  1  1  0
  7  8  2  0
  9 15  1  0
  9  8  1  0
 10 15  1  0
 11 12  1  0
 11 10  1  0
 13 12  1  0
 13 20  1  0
 13 14  1  0
 15 14  1  0
 16  9  2  0
 17 18  2  0
 18 37  1  0
 19 18  1  0
 19 22  1  0
 20 21  1  0
 20 17  1  0
 21 19  2  0
 22 23  1  0
 23 24  2  0
 25 28  1  0
 25 24  1  0
 26 25  2  0
 27 26  1  0
 27 22  2  0
 28 29  1  0
 29 34  2  0
 29 30  1  0
 30 31  2  0
 31 32  1  0
 32 36  1  0
 33 32  2  0
 34 33  1  0
 35 34  1  0
 37 38  1  0
 38 41  1  0
 38 40  1  0
 39 37  2  0
 42 17  1  0
 42 43  1  0
 44 42  1  0
 45 46  2  0
 46 47  1  0
 47 49  1  0
 48 59  2  0
 49 54  1  0
 50 58  1  0
 50 60  1  0
 51 57  1  0
 51 53  1  0
 52 58  1  0
 53 52  1  0
 54 53  2  0
 55 56  1  0
 55 49  2  0
 56 51  2  0
 57 50  1  0
 58 48  1  0
 60 62  2  0
 61 60  1  0
 63 61  1  0
 64 73  2  0
 64 69  1  0
 65 61  1  0
 65 69  1  0
 66 65  1  0
 67 68  1  0
 67 66  1  0
 68 64  1  0
 69 70  2  0
 70 71  1  0
 72 71  2  0
 73 72  1  0
 74 48  1  0
 74 75  1  0
 74 84  1  0
 75 78  1  0
 76 80  1  0
 76 75  1  0
 77 76  2  0
 80 79  1  0
 82 80  1  0
 82 83  1  0
 82 81  1  0
 84 87  1  1
 84 85  1  0
 86 84  1  0
M  ISO  4   8 100   9 100  46 101  47 101
M  END
>  <TORSDO>  (92) 
F 21

>  <SCORE>  (92) 
-13.348

>  <name>  (92) 
93

>  <ligand_id>  (92) 
93

>  <original_smiles>  (92) 
[H]c1c([H])c([H])c2c(c1[H])C([H])([H])C([H])([H])C([H])([H])C2([H])N([H])C(=O)C1([H])N(C(=O)C([H])(N([H])C(=O)C([H])(N([H])C([H])([H])[H])C([H])([H])[H])C(C([H])([H])[H])(C([H])([H])[H])C([H])([H])[H])C([H])([H])c2c([H])c(OC([H])([H])C([H])([H])C([H])(C(=O)N([H])[H])C([H])([H])C([H])([H])C(=O)N3C([H])([H])C([H])([H])C([H])([H])C([H])(n4nc(-c5c([H])c([H])c(Oc6c([H])c([H])c(F)c([H])c6F)c([H])c5[H])c(C(=O)N([H])[H])c4N([H])[H])C3([H])[H])c([H])c([H])c2C1([H])[H]

>  <smiles>  (92) 
[H]c1c([H])c([H])c2c(c1[H])C([H])([H])C([H])([H])C([H])([H])C2([H])N([H])C(=O)C1([H])N(C(=O)C([H])(N([H])C(=O)C([H])(N([H])C([H])([H])[H])C([H])([H])[H])C(C([H])([H])[H])(C([H])([H])[H])C([H])([H])[H])C([H])([H])c2c([H])c(OC([H])([H])C([H])([H])C([H])(C(=O)N([H])[H])C([H])([H])C([H])([H])C(=O)N3C([H])([H])C([H])([H])C([H])([H])C([H])(n4nc(-c5c([H])c([H])c(Oc6c([H])c([H])c(F)c([H])c6F)c([H])c5[H])c(C(=O)N([H])[H])c4N([H])[H])C3([H])[H])c([H])c([H])c2C1([H])[H]

$$$$
94:0:0
     RDKit          3D

 91 99  0  0  1  0  0  0  0  0999 V2000
  -30.7920  -21.6080   21.4050 C   0  0  0  0  0  2  0  0  0  0  0  0
  -29.4640  -20.0840   20.1390 C   0  0  0  0  0  2  0  0  0  0  0  0
  -29.4260  -21.5200   20.7160 C   0  0  0  0  0  3  0  0  0  0  0  0
  -31.1560  -20.1800   21.8810 C   0  0  0  0  0  3  0  0  0  0  0  0
  -30.1550  -19.2170   21.2090 C   0  0  0  0  0  3  0  0  0  0  0  0
  -31.1680  -20.0190   23.4100 C   0  0  0  0  0  1  0  0  0  0  0  0
  -27.7780  -22.3280   18.9750 C   0  0  0  0  0  1  0  0  0  0  0  0
  -29.1020  -22.6720   19.7010 C   0  0  0  0  0  3  0  0  0  0  0  0
  -29.1070  -24.1180   20.3430 C   0  0  0  0  0  3  0  0  0  0  0  0
  -28.3500  -25.2500   19.5670 C   0  0  0  0  0  3  0  0  0  0  0  0
  -28.3510  -26.5910   20.1520 O   0  0  0  0  0  0  0  0  0  0  0  0
  -24.5940  -31.8990   23.2380 C   0  0  0  0  0  0  0  0  0  0  0  0
  -27.1950  -27.3790   20.1190 C   0  0  0  0  0  0  0  0  0  0  0  0
  -23.3850  -30.5090   21.6020 C   0  0  0  0  0  3  0  0  0  0  0  0
  -24.8210  -28.9700   20.1680 C   0  0  0  0  0  0  0  0  0  0  0  0
  -25.9250  -30.8220   21.4150 C   0  0  0  0  0  2  0  0  0  0  0  0
  -25.9930  -29.4500   20.7610 C   0  0  0  0  0  0  0  0  0  0  0  0
  -27.1750  -28.6590   20.7420 C   0  0  0  0  0  3  0  0  0  0  0  0
  -25.9950  -26.9500   19.4940 C   0  0  0  0  0  3  0  0  0  0  0  0
  -24.8210  -27.7200   19.5370 C   0  0  0  0  0  3  0  0  0  0  0  0
  -23.5870  -29.8440   20.2180 C   0  0  0  0  0  2  0  0  0  0  0  0
  -24.6550  -31.0930   22.1390 N   0  0  0  0  0  0  0  0  0  0  0  0
  -23.5150  -32.1790   23.7740 O   0  0  0  0  0  0  0  0  0  0  0  0
  -22.7220  -29.4880   22.5570 C   0  0  0  0  0  0  0  0  0  0  0  0
  -21.3980  -29.3050   22.4200 N   0  0  0  0  0  0  0  0  0  0  0  0
  -23.4000  -28.8610   23.3770 O   0  0  0  0  0  0  0  0  0  0  0  0
  -20.9160  -29.8620   21.7290 H   0  0  0  0  0  0  0  0  0  0  0  0
  -18.0170  -28.1060   22.8950 C   0  0  0  0  0  0  0  0  0  0  0  0
  -20.5730  -28.3710   23.1900 C   0  0  0  0  0  3  0  0  0  0  0  0
  -20.6850  -26.9370   22.6270 C   0  0  0  0  0  2  0  0  0  0  0  0
  -19.5930  -26.6050   21.6040 C   0  0  0  0  0  2  0  0  0  0  0  0
  -18.2040  -26.7500   22.2330 C   0  0  0  0  0  2  0  0  0  0  0  0
  -19.1310  -28.8720   23.3290 C   0  0  0  0  0  0  0  0  0  0  0  0
  -18.9060  -30.1370   23.9110 C   0  0  0  0  0  3  0  0  0  0  0  0
  -17.5990  -30.6380   24.0640 C   0  0  0  0  0  3  0  0  0  0  0  0
  -16.4990  -29.8700   23.6450 C   0  0  0  0  0  3  0  0  0  0  0  0
  -16.7090  -28.6050   23.0670 C   0  0  0  0  0  3  0  0  0  0  0  0
  -25.8790  -32.5260   23.8600 C   0  0  0  0  0  3  0  0  0  0  0  0
  -25.5740  -33.9220   24.1930 N   0  0  0  0  0  0  0  0  0  0  0  0
  -25.9060  -34.9750   23.4340 C   0  0  0  0  0  0  0  0  0  0  0  0
  -26.5760  -34.8720   22.4020 O   0  0  0  0  0  0  0  0  0  0  0  0
  -24.9720  -34.0760   24.9880 H   0  0  0  0  0  0  0  0  0  0  0  0
  -24.1800  -36.7710   23.0850 C   0  0  0  0  0  1  0  0  0  0  0  0
  -25.4230  -36.3670   23.8930 C   0  0  0  0  0  3  0  0  0  0  0  0
  -27.5630  -37.2450   24.7100 C   0  0  0  0  0  1  0  0  0  0  0  0
  -26.4560  -37.4170   23.7740 N   0  0  0  0  0  0  0  0  0  0  0  0
  -26.0590  -38.3410   23.9210 H   0  0  0  0  0  0  0  0  0  0  0  0
  -26.3930  -31.7490   25.1350 C   0  0  1  0  0  0  0  0  0  0  0  0
  -25.2970  -31.5080   26.2010 C   0  0  0  0  0  1  0  0  0  0  0  0
  -26.9720  -30.3700   24.7360 C   0  0  0  0  0  1  0  0  0  0  0  0
  -27.5500  -32.5350   25.7940 C   0  0  0  0  0  1  0  0  0  0  0  0
  -30.8260  -17.9060   20.7180 C   0  0  0  0  0  2  0  0  0  0  0  0
  -29.8710  -16.8640   20.0990 C   0  0  0  0  0  2  0  0  0  0  0  0
  -30.6590  -14.5080   20.4070 C   0  0  0  0  0  0  0  0  0  0  0  0
  -30.3680  -12.3370   19.2970 C   0  0  0  0  0  2  0  0  0  0  0  0
  -29.4270  -12.5660   18.0950 C   0  0  0  0  0  2  0  0  0  0  0  0
  -27.9470  -12.4610   18.5180 C   0  0  0  0  0  2  0  0  0  0  0  0
  -27.6240  -13.2790   19.7980 C   0  0  0  0  0  3  0  0  0  0  0  0
  -28.6830  -13.0260   20.8990 C   0  0  0  0  0  2  0  0  0  0  0  0
  -30.0110  -13.3170   20.3340 N   0  0  0  0  0  0  0  0  0  0  0  0
  -31.7890  -14.6960   19.9460 O   0  0  0  0  0  0  0  0  0  0  0  0
  -29.8710  -15.5400   20.7510 N   0  0  0  0  0  0  0  0  0  0  0  0
  -29.0010  -15.2720   21.1880 H   0  0  0  0  0  0  0  0  0  0  0  0
  -25.2250  -13.9070   20.4980 C   0  0  0  0  0  0  0  0  0  0  0  0
  -24.1530  -13.1430   20.8690 C   0  0  0  0  0  0  0  0  0  0  0  0
  -24.6050  -11.7880   20.8500 C   0  0  0  0  0  0  0  0  0  0  0  0
  -26.2670  -13.0180   20.2760 N   0  0  0  0  0  0  0  0  0  0  0  0
  -25.8960  -11.7390   20.5440 N   0  0  0  0  0  0  0  0  0  0  0  0
  -23.8720  -10.5310   21.0470 C   0  0  0  0  0  0  0  0  0  0  0  0
  -24.3080   -9.5590   21.9750 C   0  0  0  0  0  3  0  0  0  0  0  0
  -23.5750   -8.3670   22.1600 C   0  0  0  0  0  3  0  0  0  0  0  0
  -22.3920   -8.1380   21.4170 C   0  0  0  0  0  0  0  0  0  0  0  0
  -21.9740   -9.1000   20.4800 C   0  0  0  0  0  3  0  0  0  0  0  0
  -22.7070  -10.2830   20.2930 C   0  0  0  0  0  3  0  0  0  0  0  0
  -21.6310   -6.9980   21.5120 O   0  0  0  0  0  0  0  0  0  0  0  0
  -21.6010   -6.2460   22.6580 C   0  0  0  0  0  0  0  0  0  0  0  0
  -21.2200   -6.7950   23.9000 C   0  0  0  0  0  3  0  0  0  0  0  0
  -21.1350   -5.9710   25.0410 C   0  0  0  0  0  3  0  0  0  0  0  0
  -21.4250   -4.5970   24.9380 C   0  0  0  0  0  0  0  0  0  0  0  0
  -21.7980   -4.0460   23.6990 C   0  0  0  0  0  3  0  0  0  0  0  0
  -21.8840   -4.8680   22.5630 C   0  0  0  0  0  0  0  0  0  0  0  0
  -22.2260   -4.3280   21.3680 F   0  0  0  0  0  0  0  0  0  0  0  0
  -21.3370   -3.8020   26.0300 F   0  0  0  0  0  0  0  0  0  0  0  0
  -22.7560  -13.6300   21.1340 C   0  0  0  0  0  0  0  0  0  0  0  0
  -22.0210  -12.9470   22.0040 N   0  0  0  0  0  0  0  0  0  0  0  0
  -22.3260  -14.6540   20.6050 O   0  0  0  0  0  0  0  0  0  0  0  0
  -22.3780  -12.1190   22.4560 H   0  0  0  0  0  0  0  0  0  0  0  0
  -21.0850  -13.2590   22.2220 H   0  0  0  0  0  0  0  0  0  0  0  0
  -25.3990  -15.2750   20.3110 N   0  0  0  0  0  0  0  0  0  0  0  0
  -24.6360  -15.9340   20.4130 H   0  0  0  0  0  0  0  0  0  0  0  0
  -26.2480  -15.7050   19.9670 H   0  0  0  0  0  0  0  0  0  0  0  0
  1  4  1  0
  2  3  1  0
  2  5  1  0
  3  8  1  0
  3  1  1  0
  4  6  1  0
  5 52  1  0
  5  4  1  0
  8  7  1  0
  8  9  1  0
 10 11  1  0
 10  9  2  0
 12 23  2  0
 13 11  1  0
 13 18  1  0
 14 22  1  0
 14 24  1  0
 15 21  1  0
 15 17  1  0
 16 22  1  0
 17 16  1  0
 18 17  2  0
 19 20  1  0
 19 13  2  0
 20 15  2  0
 21 14  1  0
 22 12  1  0
 24 26  2  0
 25 24  1  0
 27 25  1  0
 28 37  2  0
 28 33  1  0
 29 25  1  0
 29 33  1  0
 30 29  1  0
 31 32  1  0
 31 30  1  0
 32 28  1  0
 33 34  2  0
 34 35  1  0
 36 35  2  0
 37 36  1  0
 38 12  1  0
 38 39  1  0
 38 48  1  0
 39 42  1  0
 40 44  1  0
 40 39  1  0
 41 40  2  0
 44 43  1  0
 46 44  1  0
 46 47  1  0
 46 45  1  0
 48 51  1  1
 48 49  1  0
 50 48  1  0
 53 52  1  0
 53 62  1  0
 54 62  1  0
 55 60  1  0
 56 57  1  0
 56 55  1  0
 58 57  1  0
 58 67  1  0
 58 59  1  0
 60 54  1  0
 60 59  1  0
 61 54  2  0
 62 63  1  0
 64 65  2  0
 65 84  1  0
 66 65  1  0
 66 69  1  0
 67 64  1  0
 67 68  1  0
 68 66  2  0
 69 70  1  0
 70 71  2  0
 72 75  1  0
 72 71  1  0
 73 72  2  0
 74 73  1  0
 74 69  2  0
 75 76  1  0
 76 77  1  0
 77 78  2  0
 79 78  1  0
 79 83  1  0
 80 79  2  0
 81 76  2  0
 81 80  1  0
 82 81  1  0
 84 85  1  0
 85 88  1  0
 85 87  1  0
 86 84  2  0
 89 90  1  0
 89 64  1  0
 91 89  1  0
M  ISO  4  10 101  11 101  54 100  62 100
M  END
>  <TORSDO>  (93) 
F 21

>  <SCORE>  (93) 
-13.691

>  <name>  (93) 
94

>  <ligand_id>  (93) 
94

>  <original_smiles>  (93) 
[H]c1c([H])c([H])c2c(c1[H])C([H])([H])C([H])([H])C([H])([H])C2([H])N([H])C(=O)C1([H])N(C(=O)C([H])(N([H])C(=O)C([H])(N([H])C([H])([H])[H])C([H])([H])[H])C(C([H])([H])[H])(C([H])([H])[H])C([H])([H])[H])C([H])([H])c2c([H])c(OC([H])([H])C([H])([H])C([H])(C([H])([H])[H])C3([H])C([H])([H])C([H])(C([H])([H])[H])C([H])(C([H])([H])C([H])([H])N([H])C(=O)N4C([H])([H])C([H])([H])C([H])([H])C([H])(n5nc(-c6c([H])c([H])c(Oc7c([H])c([H])c(F)c([H])c7F)c([H])c6[H])c(C(=O)N([H])[H])c5N([H])[H])C4([H])[H])C3([H])[H])c([H])c([H])c2C1([H])[H]

>  <smiles>  (93) 
[H]c1c([H])c([H])c2c(c1[H])C([H])([H])C([H])([H])C([H])([H])C2([H])N([H])C(=O)C1([H])N(C(=O)C([H])(N([H])C(=O)C([H])(N([H])C([H])([H])[H])C([H])([H])[H])C(C([H])([H])[H])(C([H])([H])[H])C([H])([H])[H])C([H])([H])c2c([H])c(OC([H])([H])C([H])([H])C([H])(C([H])([H])[H])C3([H])C([H])([H])C([H])(C([H])([H])[H])C([H])(C([H])([H])C([H])([H])N([H])C(=O)N4C([H])([H])C([H])([H])C([H])([H])C([H])(n5nc(-c6c([H])c([H])c(Oc7c([H])c([H])c(F)c([H])c7F)c([H])c6[H])c(C(=O)N([H])[H])c5N([H])[H])C4([H])[H])C3([H])[H])c([H])c([H])c2C1([H])[H]

$$$$
95:0:0
     RDKit          3D

 93101  0  0  1  0  0  0  0  0999 V2000
  -29.5420  -19.9730   19.4830 C   0  0  0  0  0  3  0  0  0  0  0  0
  -28.5330  -18.0730   21.0250 C   0  0  0  0  0  2  0  0  0  0  0  0
  -27.1120  -18.8490   19.6820 C   0  0  0  0  0  2  0  0  0  0  0  0
  -28.3800  -19.4320   20.3240 C   0  0  0  0  0  3  0  0  0  0  0  0
  -27.0320  -17.8370   20.8360 C   0  0  0  0  0  3  0  0  0  0  0  0
  -27.2400  -15.3710   21.4330 C   0  0  0  0  0  1  0  0  0  0  0  0
  -26.5120  -16.4240   20.5890 C   0  0  0  0  0  3  0  0  0  0  0  0
  -25.1370  -16.4020   20.9170 O   0  0  0  0  0  0  0  0  0  0  0  0
  -25.0470  -16.7450   21.8000 H   0  0  0  0  0  0  0  0  0  0  0  0
  -29.6530  -21.6530   19.6440 C   0  0  0  0  0  2  0  0  0  0  0  0
  -28.4150  -22.7720   19.9220 C   0  0  0  0  0  2  0  0  0  0  0  0
  -28.4390  -24.4030   19.5210 C   0  0  0  0  0  2  0  0  0  0  0  0
  -28.1820  -25.6540   20.3980 O   0  0  0  0  0  0  0  0  0  0  0  0
  -24.8380  -31.4700   23.3210 C   0  0  0  0  0  0  0  0  0  0  0  0
  -27.1550  -26.6490   20.2730 C   0  0  0  0  0  0  0  0  0  0  0  0
  -23.5700  -30.1710   21.6500 C   0  0  0  0  0  3  0  0  0  0  0  0
  -24.9310  -28.5180   20.2230 C   0  0  0  0  0  0  0  0  0  0  0  0
  -26.1330  -30.2780   21.5180 C   0  0  0  0  0  2  0  0  0  0  0  0
  -26.1230  -28.8920   20.8540 C   0  0  0  0  0  0  0  0  0  0  0  0
  -27.2320  -27.9710   20.8660 C   0  0  0  0  0  3  0  0  0  0  0  0
  -25.9440  -26.3660   19.6080 C   0  0  0  0  0  3  0  0  0  0  0  0
  -24.8540  -27.2670   19.5860 C   0  0  0  0  0  3  0  0  0  0  0  0
  -23.7610  -29.4890   20.2660 C   0  0  0  0  0  2  0  0  0  0  0  0
  -24.8680  -30.6610   22.2180 N   0  0  0  0  0  0  0  0  0  0  0  0
  -23.7660  -31.8190   23.8370 O   0  0  0  0  0  0  0  0  0  0  0  0
  -22.8160  -29.2040   22.5960 C   0  0  0  0  0  0  0  0  0  0  0  0
  -21.4810  -29.1280   22.4550 N   0  0  0  0  0  0  0  0  0  0  0  0
  -23.4350  -28.5250   23.4180 O   0  0  0  0  0  0  0  0  0  0  0  0
  -21.0420  -29.7230   21.7660 H   0  0  0  0  0  0  0  0  0  0  0  0
  -18.0170  -28.1830   22.9240 C   0  0  0  0  0  0  0  0  0  0  0  0
  -20.5880  -28.2420   23.2050 C   0  0  0  0  0  3  0  0  0  0  0  0
  -20.5810  -26.8170   22.6030 C   0  0  0  0  0  2  0  0  0  0  0  0
  -19.4630  -26.6000   21.5790 C   0  0  0  0  0  2  0  0  0  0  0  0
  -18.0940  -26.8390   22.2200 C   0  0  0  0  0  2  0  0  0  0  0  0
  -19.1880  -28.8480   23.3720 C   0  0  0  0  0  0  0  0  0  0  0  0
  -19.0630  -30.1130   23.9890 C   0  0  0  0  0  3  0  0  0  0  0  0
  -17.7980  -30.7070   24.1640 C   0  0  0  0  0  3  0  0  0  0  0  0
  -16.6420  -30.0350   23.7310 C   0  0  0  0  0  3  0  0  0  0  0  0
  -16.7510  -28.7760   23.1160 C   0  0  0  0  0  3  0  0  0  0  0  0
  -26.1470  -32.0110   23.9720 C   0  0  0  0  0  3  0  0  0  0  0  0
  -25.9420  -33.4370   24.2730 N   0  0  0  0  0  0  0  0  0  0  0  0
  -26.3970  -34.4500   23.5240 C   0  0  0  0  0  0  0  0  0  0  0  0
  -27.1040  -34.2770   22.5260 O   0  0  0  0  0  0  0  0  0  0  0  0
  -25.3290  -33.6510   25.0450 H   0  0  0  0  0  0  0  0  0  0  0  0
  -24.8410  -36.3800   23.0900 C   0  0  0  0  0  1  0  0  0  0  0  0
  -26.0140  -35.8810   23.9500 C   0  0  0  0  0  3  0  0  0  0  0  0
  -28.1840  -36.5980   24.8480 C   0  0  0  0  0  1  0  0  0  0  0  0
  -27.1330  -36.8440   23.8650 N   0  0  0  0  0  0  0  0  0  0  0  0
  -26.7980  -37.7950   23.9890 H   0  0  0  0  0  0  0  0  0  0  0  0
  -26.5600  -31.2290   25.2810 C   0  0  1  0  0  0  0  0  0  0  0  0
  -25.4150  -31.0910   26.3130 C   0  0  0  0  0  1  0  0  0  0  0  0
  -27.0540  -29.8040   24.9370 C   0  0  0  0  0  1  0  0  0  0  0  0
  -27.7430  -31.9490   25.9700 C   0  0  0  0  0  1  0  0  0  0  0  0
  -30.8160  -18.8870   19.6870 C   0  0  0  0  0  2  0  0  0  0  0  0
  -30.8700  -17.2670   19.2450 C   0  0  0  0  0  2  0  0  0  0  0  0
  -31.5680  -14.8060   20.2360 C   0  0  0  0  0  0  0  0  0  0  0  0
  -31.5700  -12.3410   19.6930 C   0  0  0  0  0  2  0  0  0  0  0  0
  -30.8550  -12.1190   18.3400 C   0  0  0  0  0  2  0  0  0  0  0  0
  -29.3380  -11.9630   18.5480 C   0  0  0  0  0  2  0  0  0  0  0  0
  -28.7560  -13.0460   19.4950 C   0  0  0  0  0  3  0  0  0  0  0  0
  -29.6090  -13.2330   20.7690 C   0  0  0  0  0  2  0  0  0  0  0  0
  -30.9770  -13.5490   20.3360 N   0  0  0  0  0  0  0  0  0  0  0  0
  -32.7860  -14.8530   20.0410 O   0  0  0  0  0  0  0  0  0  0  0  0
  -30.7720  -15.9730   20.1420 N   0  0  0  0  0  0  0  0  0  0  0  0
  -29.8290  -15.7990   20.4570 H   0  0  0  0  0  0  0  0  0  0  0  0
  -26.2780  -13.6670   19.6690 C   0  0  0  0  0  0  0  0  0  0  0  0
  -25.1680  -12.9420   20.0060 C   0  0  0  0  0  0  0  0  0  0  0  0
  -25.6350  -11.6330   20.3400 C   0  0  0  0  0  0  0  0  0  0  0  0
  -27.3500  -12.8040   19.8030 N   0  0  0  0  0  0  0  0  0  0  0  0
  -26.9610  -11.5890   20.2710 N   0  0  0  0  0  0  0  0  0  0  0  0
  -24.8930  -10.4090   20.6640 C   0  0  0  0  0  0  0  0  0  0  0  0
  -25.0850   -9.7270   21.8860 C   0  0  0  0  0  3  0  0  0  0  0  0
  -24.3420   -8.5640   22.1820 C   0  0  0  0  0  3  0  0  0  0  0  0
  -23.3930   -8.0720   21.2540 C   0  0  0  0  0  0  0  0  0  0  0  0
  -23.2220   -8.7410   20.0290 C   0  0  0  0  0  3  0  0  0  0  0  0
  -23.9670   -9.8960   19.7340 C   0  0  0  0  0  3  0  0  0  0  0  0
  -22.6440   -6.9360   21.4440 O   0  0  0  0  0  0  0  0  0  0  0  0
  -22.1960   -6.5710   22.6870 C   0  0  0  0  0  0  0  0  0  0  0  0
  -21.3740   -7.4190   23.4620 C   0  0  0  0  0  3  0  0  0  0  0  0
  -20.8760   -6.9760   24.7040 C   0  0  0  0  0  3  0  0  0  0  0  0
  -21.1920   -5.6850   25.1700 C   0  0  0  0  0  0  0  0  0  0  0  0
  -22.0050   -4.8380   24.3970 C   0  0  0  0  0  3  0  0  0  0  0  0
  -22.5020   -5.2790   23.1590 C   0  0  0  0  0  0  0  0  0  0  0  0
  -23.2680   -4.4490   22.4090 F   0  0  0  0  0  0  0  0  0  0  0  0
  -20.7090   -5.2560   26.3590 F   0  0  0  0  0  0  0  0  0  0  0  0
  -23.7430  -13.4080   19.9250 C   0  0  0  0  0  0  0  0  0  0  0  0
  -22.8780  -12.8810   20.7850 N   0  0  0  0  0  0  0  0  0  0  0  0
  -23.4000  -14.2780   19.1270 O   0  0  0  0  0  0  0  0  0  0  0  0
  -23.1670  -12.1790   21.4520 H   0  0  0  0  0  0  0  0  0  0  0  0
  -21.9150  -13.1840   20.7770 H   0  0  0  0  0  0  0  0  0  0  0  0
  -26.4630  -14.9770   19.2350 N   0  0  0  0  0  0  0  0  0  0  0  0
  -25.6810  -15.5990   19.0690 H   0  0  0  0  0  0  0  0  0  0  0  0
  -27.3490  -15.3640   18.9380 H   0  0  0  0  0  0  0  0  0  0  0  0
  1 10  1  0
  1 54  1  0
  3  4  1  0
  3  5  1  0
  4  1  1  0
  4  2  1  0
  5  7  1  0
  5  2  1  0
  7  8  1  0
  7  6  1  0
  8  9  1  0
 10 11  1  0
 12 11  1  0
 12 13  1  0
 14 25  2  0
 15 13  1  0
 15 20  1  0
 16 24  1  0
 16 26  1  0
 17 23  1  0
 17 19  1  0
 18 24  1  0
 19 20  2  0
 19 18  1  0
 21 15  2  0
 22 21  1  0
 22 17  2  0
 23 16  1  0
 24 14  1  0
 26 28  2  0
 27 26  1  0
 29 27  1  0
 30 39  2  0
 30 35  1  0
 31 27  1  0
 31 35  1  0
 32 31  1  0
 33 34  1  0
 33 32  1  0
 34 30  1  0
 35 36  2  0
 36 37  1  0
 38 37  2  0
 39 38  1  0
 40 14  1  0
 40 41  1  0
 40 50  1  0
 41 44  1  0
 42 46  1  0
 42 41  1  0
 43 42  2  0
 46 45  1  0
 48 46  1  0
 48 49  1  0
 48 47  1  0
 50 53  1  1
 50 51  1  0
 52 50  1  0
 55 54  1  0
 55 64  1  0
 56 62  1  0
 57 62  1  0
 58 59  1  0
 58 57  1  0
 60 59  1  0
 60 69  1  0
 60 61  1  0
 62 61  1  0
 63 56  2  0
 64 56  1  0
 64 65  1  0
 66 69  1  0
 66 67  2  0
 67 68  1  0
 68 71  1  0
 69 70  1  0
 70 68  2  0
 71 72  1  0
 72 73  2  0
 74 77  1  0
 74 73  1  0
 75 74  2  0
 76 75  1  0
 76 71  2  0
 77 78  1  0
 78 83  2  0
 78 79  1  0
 79 80  2  0
 80 81  1  0
 81 85  1  0
 82 81  2  0
 83 82  1  0
 84 83  1  0
 86 67  1  0
 86 87  1  0
 87 89  1  0
 88 86  2  0
 90 87  1  0
 91 66  1  0
 92 91  1  0
 93 91  1  0
M  ISO  4  12 101  13 101  56 100  64 100
M  END
>  <TORSDO>  (94) 
F 24

>  <SCORE>  (94) 
-5.700

>  <name>  (94) 
95

>  <ligand_id>  (94) 
95

>  <original_smiles>  (94) 
[H]OC([H])(C([H])([H])[H])C1([H])C([H])([H])C([H])(C([H])(C([H])([H])C([H])([H])N([H])C(=O)N2C([H])([H])C([H])([H])C([H])([H])C([H])(n3nc(-c4c([H])c([H])c(Oc5c([H])c([H])c(F)c([H])c5F)c([H])c4[H])c(C(=O)N([H])[H])c3N([H])[H])C2([H])[H])C([H])([H])C([H])([H])C([H])([H])Oc2c([H])c([H])c3c(c2[H])C([H])([H])N(C(=O)C([H])(N([H])C(=O)C([H])(N([H])C([H])([H])[H])C([H])([H])[H])C(C([H])([H])[H])(C([H])([H])[H])C([H])([H])[H])C([H])(C(=O)N([H])C2([H])c4c([H])c([H])c([H])c([H])c4C([H])([H])C([H])([H])C2([H])[H])C3([H])[H])C1([H])[H]

>  <smiles>  (94) 
[H]OC([H])(C([H])([H])[H])C1([H])C([H])([H])C([H])(C([H])(C([H])([H])C([H])([H])N([H])C(=O)N2C([H])([H])C([H])([H])C([H])([H])C([H])(n3nc(-c4c([H])c([H])c(Oc5c([H])c([H])c(F)c([H])c5F)c([H])c4[H])c(C(=O)N([H])[H])c3N([H])[H])C2([H])[H])C([H])([H])C([H])([H])C([H])([H])Oc2c([H])c([H])c3c(c2[H])C([H])([H])N(C(=O)C([H])(N([H])C(=O)C([H])(N([H])C([H])([H])[H])C([H])([H])[H])C(C([H])([H])[H])(C([H])([H])[H])C([H])([H])[H])C([H])(C(=O)N([H])C2([H])c4c([H])c([H])c([H])c([H])c4C([H])([H])C([H])([H])C2([H])[H])C3([H])[H])C1([H])[H]

$$$$
96:0:0
     RDKit          3D

 88 95  0  0  1  0  0  0  0  0999 V2000
  -29.3690  -20.3030   20.5910 C   0  0  0  0  0  3  0  0  0  0  0  0
  -30.4600  -15.7400   19.9890 C   0  0  0  0  0  0  0  0  0  0  0  0
  -30.4540  -13.1920   19.1770 C   0  0  0  0  0  2  0  0  0  0  0  0
  -29.5250  -12.8490   17.9760 C   0  0  0  0  0  2  0  0  0  0  0  0
  -28.1150  -12.4980   18.4700 C   0  0  0  0  0  2  0  0  0  0  0  0
  -27.6560  -13.4810   19.5730 C   0  0  0  0  0  3  0  0  0  0  0  0
  -28.7270  -13.7760   20.6620 C   0  0  0  0  0  2  0  0  0  0  0  0
  -29.9060  -14.3780   19.9840 N   0  0  0  0  0  0  0  0  0  0  0  0
  -31.6530  -15.6450   19.6460 O   0  0  0  0  0  0  0  0  0  0  0  0
  -30.0000  -18.6440   19.9620 C   0  0  0  0  0  0  0  0  0  0  0  0
  -29.7850  -17.1240   20.2500 N   0  0  0  0  0  0  0  0  0  0  0  0
  -30.8500  -18.8430   19.0920 O   0  0  0  0  0  0  0  0  0  0  0  0
  -28.9440  -16.9850   20.7910 H   0  0  0  0  0  0  0  0  0  0  0  0
  -25.3210  -14.0160   20.4180 C   0  0  0  0  0  0  0  0  0  0  0  0
  -24.2720  -13.2410   20.8160 C   0  0  0  0  0  0  0  0  0  0  0  0
  -24.7280  -11.8870   20.7560 C   0  0  0  0  0  0  0  0  0  0  0  0
  -26.3520  -13.1420   20.1310 N   0  0  0  0  0  0  0  0  0  0  0  0
  -26.0110  -11.8520   20.3990 N   0  0  0  0  0  0  0  0  0  0  0  0
  -23.9980  -10.6300   20.9680 C   0  0  0  0  0  0  0  0  0  0  0  0
  -24.4410   -9.6590   21.8920 C   0  0  0  0  0  3  0  0  0  0  0  0
  -23.7050   -8.4710   22.0950 C   0  0  0  0  0  3  0  0  0  0  0  0
  -22.5110   -8.2420   21.3700 C   0  0  0  0  0  0  0  0  0  0  0  0
  -22.0860   -9.2010   20.4310 C   0  0  0  0  0  3  0  0  0  0  0  0
  -22.8230  -10.3810   20.2290 C   0  0  0  0  0  3  0  0  0  0  0  0
  -21.7510   -7.1000   21.4780 O   0  0  0  0  0  0  0  0  0  0  0  0
  -21.7220   -6.3610   22.6300 C   0  0  0  0  0  0  0  0  0  0  0  0
  -21.3040   -6.9110   23.8600 C   0  0  0  0  0  3  0  0  0  0  0  0
  -21.2240   -6.0940   25.0060 C   0  0  0  0  0  3  0  0  0  0  0  0
  -21.5540   -4.7310   24.9230 C   0  0  0  0  0  0  0  0  0  0  0  0
  -21.9630   -4.1760   23.6980 C   0  0  0  0  0  3  0  0  0  0  0  0
  -22.0450   -4.9870   22.5530 C   0  0  0  0  0  0  0  0  0  0  0  0
  -22.4200   -4.4450   21.3710 F   0  0  0  0  0  0  0  0  0  0  0  0
  -21.4690   -3.9440   26.0250 F   0  0  0  0  0  0  0  0  0  0  0  0
  -22.8880  -13.7260   21.1370 C   0  0  0  0  0  0  0  0  0  0  0  0
  -22.1810  -13.0320   22.0190 N   0  0  0  0  0  0  0  0  0  0  0  0
  -22.4450  -14.7610   20.6400 O   0  0  0  0  0  0  0  0  0  0  0  0
  -22.5500  -12.1960   22.4490 H   0  0  0  0  0  0  0  0  0  0  0  0
  -21.2540  -13.3470   22.2740 H   0  0  0  0  0  0  0  0  0  0  0  0
  -25.4780  -15.3860   20.2400 N   0  0  0  0  0  0  0  0  0  0  0  0
  -24.7130  -16.0360   20.3800 H   0  0  0  0  0  0  0  0  0  0  0  0
  -26.3070  -15.8330   19.8700 H   0  0  0  0  0  0  0  0  0  0  0  0
  -29.8120  -21.5850   22.8710 C   0  0  0  0  0  1  0  0  0  0  0  0
  -30.2740  -20.4980   21.8760 C   0  0  0  0  0  3  0  0  0  0  0  0
  -32.5040  -21.8980   21.3850 C   0  0  0  0  0  1  0  0  0  0  0  0
  -31.8260  -20.5360   21.6340 C   0  0  0  0  0  2  0  0  0  0  0  0
  -29.0680  -22.1160   19.9200 C   0  0  0  0  0  2  0  0  0  0  0  0
  -28.2380  -23.8290   20.3670 C   0  0  0  0  0  2  0  0  0  0  0  0
  -28.2940  -25.5780   20.0980 O   0  0  0  0  0  0  0  0  0  0  0  0
  -24.6360  -31.7730   23.1050 C   0  0  0  0  0  0  0  0  0  0  0  0
  -27.2620  -26.7480   20.1070 C   0  0  0  0  0  0  0  0  0  0  0  0
  -23.4650  -30.3630   21.4690 C   0  0  0  0  0  3  0  0  0  0  0  0
  -24.9390  -28.7370   20.0600 C   0  0  0  0  0  0  0  0  0  0  0  0
  -26.0430  -30.5510   21.3360 C   0  0  0  0  0  2  0  0  0  0  0  0
  -26.1320  -29.1180   20.6860 C   0  0  0  0  0  0  0  0  0  0  0  0
  -27.2770  -28.1580   20.6630 C   0  0  0  0  0  3  0  0  0  0  0  0
  -26.0210  -26.5750   19.4370 C   0  0  0  0  0  3  0  0  0  0  0  0
  -24.9230  -27.4930   19.4120 C   0  0  0  0  0  3  0  0  0  0  0  0
  -23.7170  -29.6700   20.1020 C   0  0  0  0  0  2  0  0  0  0  0  0
  -24.7400  -30.9300   22.0230 N   0  0  0  0  0  0  0  0  0  0  0  0
  -23.5410  -32.0480   23.6240 O   0  0  0  0  0  0  0  0  0  0  0  0
  -22.7670  -29.3690   22.4400 C   0  0  0  0  0  0  0  0  0  0  0  0
  -21.4410  -29.1700   22.3060 N   0  0  0  0  0  0  0  0  0  0  0  0
  -23.4330  -28.7690   23.2870 O   0  0  0  0  0  0  0  0  0  0  0  0
  -20.9450  -29.7190   21.6160 H   0  0  0  0  0  0  0  0  0  0  0  0
  -18.0960  -27.8170   22.7690 C   0  0  0  0  0  0  0  0  0  0  0  0
  -20.6360  -28.2150   23.0830 C   0  0  0  0  0  3  0  0  0  0  0  0
  -20.8130  -26.7750   22.5440 C   0  0  0  0  0  2  0  0  0  0  0  0
  -19.7520  -26.3770   21.5130 C   0  0  0  0  0  2  0  0  0  0  0  0
  -18.3510  -26.4660   22.1220 C   0  0  0  0  0  2  0  0  0  0  0  0
  -19.1670  -28.6440   23.2060 C   0  0  0  0  0  0  0  0  0  0  0  0
  -18.8670  -29.9030   23.7730 C   0  0  0  0  0  3  0  0  0  0  0  0
  -17.5330  -30.3340   23.9040 C   0  0  0  0  0  3  0  0  0  0  0  0
  -16.4800  -29.5060   23.4810 C   0  0  0  0  0  3  0  0  0  0  0  0
  -16.7600  -28.2500   22.9180 C   0  0  0  0  0  3  0  0  0  0  0  0
  -25.8910  -32.4450   23.7460 C   0  0  0  0  0  3  0  0  0  0  0  0
  -26.4030  -31.6930   25.0360 C   0  0  1  0  0  0  0  0  0  0  0  0
  -25.3120  -31.4600   26.1100 C   0  0  0  0  0  1  0  0  0  0  0  0
  -26.9960  -30.3140   24.6720 C   0  0  0  0  0  1  0  0  0  0  0  0
  -27.5490  -32.4980   25.6910 C   0  0  0  0  0  1  0  0  0  0  0  0
  -25.5470  -33.8390   24.0880 N   0  0  0  0  0  0  0  0  0  0  0  0
  -25.8870  -34.9170   23.3670 C   0  0  0  0  0  0  0  0  0  0  0  0
  -26.5790  -34.8350   22.3480 O   0  0  0  0  0  0  0  0  0  0  0  0
  -24.9270  -33.9730   24.8750 H   0  0  0  0  0  0  0  0  0  0  0  0
  -24.1680  -36.7240   23.0120 C   0  0  0  0  0  1  0  0  0  0  0  0
  -25.3880  -36.2990   23.8460 C   0  0  0  0  0  3  0  0  0  0  0  0
  -27.4920  -37.1790   24.7550 C   0  0  0  0  0  1  0  0  0  0  0  0
  -26.4210  -37.3570   23.7800 N   0  0  0  0  0  0  0  0  0  0  0  0
  -26.0070  -38.2760   23.9230 H   0  0  0  0  0  0  0  0  0  0  0  0
  1 46  1  0
  1 43  1  0
  2 11  1  0
  3  8  1  0
  4  5  1  0
  4  3  1  0
  6  5  1  0
  6 17  1  0
  6  7  1  0
  8  2  1  0
  8  7  1  0
  9  2  2  0
 10 11  1  0
 10  1  1  0
 11 13  1  0
 12 10  2  0
 14 15  2  0
 15 34  1  0
 16 15  1  0
 16 19  1  0
 17 18  1  0
 17 14  1  0
 18 16  2  0
 19 20  1  0
 20 21  2  0
 22 25  1  0
 22 21  1  0
 23 22  2  0
 24 23  1  0
 24 19  2  0
 25 26  1  0
 26 27  1  0
 27 28  2  0
 29 28  1  0
 29 33  1  0
 30 29  2  0
 31 26  2  0
 31 30  1  0
 32 31  1  0
 34 35  1  0
 35 38  1  0
 35 37  1  0
 36 34  2  0
 39 40  1  0
 39 14  1  0
 41 39  1  0
 43 42  1  0
 44 45  1  0
 45 43  1  0
 46 47  1  0
 48 50  1  0
 48 47  1  0
 49 60  2  0
 50 55  1  0
 51 59  1  0
 51 61  1  0
 52 58  1  0
 52 54  1  0
 53 59  1  0
 54 53  1  0
 55 54  2  0
 56 50  2  0
 57 56  1  0
 57 52  2  0
 58 51  1  0
 59 49  1  0
 61 63  2  0
 62 61  1  0
 64 62  1  0
 65 74  2  0
 65 70  1  0
 66 62  1  0
 66 70  1  0
 67 66  1  0
 68 69  1  0
 68 67  1  0
 69 65  1  0
 70 71  2  0
 71 72  1  0
 73 72  2  0
 74 73  1  0
 75 49  1  0
 75 80  1  0
 75 76  1  0
 76 79  1  1
 76 77  1  0
 78 76  1  0
 80 83  1  0
 81 85  1  0
 81 80  1  0
 82 81  2  0
 85 84  1  0
 87 85  1  0
 87 88  1  0
 87 86  1  0
M  ISO  4   2 100  11 100  47 101  48 101
M  END
>  <TORSDO>  (95) 
F 20

>  <SCORE>  (95) 
-15.567

>  <name>  (95) 
96

>  <ligand_id>  (95) 
96

>  <original_smiles>  (95) 
[H]c1c([H])c([H])c2c(c1[H])C([H])([H])C([H])([H])C([H])([H])C2([H])N([H])C(=O)C1([H])N(C(=O)C([H])(N([H])C(=O)C([H])(N([H])C([H])([H])[H])C([H])([H])[H])C(C([H])([H])[H])(C([H])([H])[H])C([H])([H])[H])C([H])([H])c2c([H])c(OC([H])([H])C([H])([H])C([H])(C(=O)N([H])C(=O)N3C([H])([H])C([H])([H])C([H])([H])C([H])(n4nc(-c5c([H])c([H])c(Oc6c([H])c([H])c(F)c([H])c6F)c([H])c5[H])c(C(=O)N([H])[H])c4N([H])[H])C3([H])[H])C([H])(C([H])([H])[H])C([H])([H])C([H])([H])[H])c([H])c([H])c2C1([H])[H]

>  <smiles>  (95) 
[H]c1c([H])c([H])c2c(c1[H])C([H])([H])C([H])([H])C([H])([H])C2([H])N([H])C(=O)C1([H])N(C(=O)C([H])(N([H])C(=O)C([H])(N([H])C([H])([H])[H])C([H])([H])[H])C(C([H])([H])[H])(C([H])([H])[H])C([H])([H])[H])C([H])([H])c2c([H])c(OC([H])([H])C([H])([H])C([H])(C(=O)N([H])C(=O)N3C([H])([H])C([H])([H])C([H])([H])C([H])(n4nc(-c5c([H])c([H])c(Oc6c([H])c([H])c(F)c([H])c6F)c([H])c5[H])c(C(=O)N([H])[H])c4N([H])[H])C3([H])[H])C([H])(C([H])([H])[H])C([H])([H])C([H])([H])[H])c([H])c([H])c2C1([H])[H]

$$$$
97:0:0
     RDKit          3D

 94101  0  0  1  0  0  0  0  0999 V2000
  -30.2240  -17.7120   20.4170 C   0  0  0  0  0  3  0  0  0  0  0  0
  -30.6100  -15.0130   20.2880 C   0  0  0  0  0  0  0  0  0  0  0  0
  -30.4800  -12.5820   19.6010 C   0  0  0  0  0  2  0  0  0  0  0  0
  -29.5540  -12.4060   18.3750 C   0  0  0  0  0  2  0  0  0  0  0  0
  -28.0860  -12.2560   18.8200 C   0  0  0  0  0  2  0  0  0  0  0  0
  -27.6770  -13.3140   19.8790 C   0  0  0  0  0  3  0  0  0  0  0  0
  -28.7240  -13.4420   21.0050 C   0  0  0  0  0  2  0  0  0  0  0  0
  -30.0030  -13.7680   20.3630 N   0  0  0  0  0  0  0  0  0  0  0  0
  -31.8180  -15.0540   20.0290 O   0  0  0  0  0  0  0  0  0  0  0  0
  -29.8350  -16.1950   20.3060 N   0  0  0  0  0  0  0  0  0  0  0  0
  -28.8540  -16.0250   20.4670 H   0  0  0  0  0  0  0  0  0  0  0  0
  -25.3290  -13.9980   20.6330 C   0  0  0  0  0  0  0  0  0  0  0  0
  -24.2420  -13.2700   21.0350 C   0  0  0  0  0  0  0  0  0  0  0  0
  -24.6580  -11.9040   21.0310 C   0  0  0  0  0  0  0  0  0  0  0  0
  -26.3350  -13.0780   20.4000 N   0  0  0  0  0  0  0  0  0  0  0  0
  -25.9420  -11.8140   20.7050 N   0  0  0  0  0  0  0  0  0  0  0  0
  -23.8890  -10.6730   21.2600 C   0  0  0  0  0  0  0  0  0  0  0  0
  -24.3100   -9.7020   22.1940 C   0  0  0  0  0  3  0  0  0  0  0  0
  -23.5420   -8.5380   22.4110 C   0  0  0  0  0  3  0  0  0  0  0  0
  -22.3390   -8.3370   21.6930 C   0  0  0  0  0  0  0  0  0  0  0  0
  -21.9370   -9.2960   20.7470 C   0  0  0  0  0  3  0  0  0  0  0  0
  -22.7050  -10.4520   20.5290 C   0  0  0  0  0  3  0  0  0  0  0  0
  -21.5410   -7.2260   21.8200 O   0  0  0  0  0  0  0  0  0  0  0  0
  -21.5170   -6.4840   22.9740 C   0  0  0  0  0  0  0  0  0  0  0  0
  -21.1780   -7.0550   24.2190 C   0  0  0  0  0  3  0  0  0  0  0  0
  -21.0980   -6.2430   25.3680 C   0  0  0  0  0  3  0  0  0  0  0  0
  -21.3460   -4.8610   25.2730 C   0  0  0  0  0  0  0  0  0  0  0  0
  -21.6780   -4.2900   24.0320 C   0  0  0  0  0  3  0  0  0  0  0  0
  -21.7610   -5.0990   22.8860 C   0  0  0  0  0  0  0  0  0  0  0  0
  -22.0620   -4.5400   21.6890 F   0  0  0  0  0  0  0  0  0  0  0  0
  -21.2630   -4.0790   26.3740 F   0  0  0  0  0  0  0  0  0  0  0  0
  -22.8670  -13.8050   21.3100 C   0  0  0  0  0  0  0  0  0  0  0  0
  -22.1300  -13.1660   22.2110 N   0  0  0  0  0  0  0  0  0  0  0  0
  -22.4550  -14.8250   20.7580 O   0  0  0  0  0  0  0  0  0  0  0  0
  -22.4750  -12.3410   22.6790 H   0  0  0  0  0  0  0  0  0  0  0  0
  -21.2060  -13.5070   22.4400 H   0  0  0  0  0  0  0  0  0  0  0  0
  -25.5370  -15.3590   20.4230 N   0  0  0  0  0  0  0  0  0  0  0  0
  -24.7910  -16.0370   20.5370 H   0  0  0  0  0  0  0  0  0  0  0  0
  -26.3870  -15.7660   20.0570 H   0  0  0  0  0  0  0  0  0  0  0  0
  -30.2420  -17.9930   21.9300 C   0  0  0  0  0  0  0  0  0  0  0  0
  -29.6080  -17.2890   22.7230 O   0  0  0  0  0  0  0  0  0  0  0  0
  -31.0410  -19.1980   22.4480 C   0  0  0  0  0  2  0  0  0  0  0  0
  -31.6350  -20.7590   24.3810 C   0  0  0  0  0  1  0  0  0  0  0  0
  -30.8290  -19.5190   23.9540 C   0  0  0  0  0  3  0  0  0  0  0  0
  -29.4010  -19.6710   24.3170 N   0  0  0  0  0  4  0  0  0  0  0  0
  -28.9760  -20.4630   23.8650 H   0  0  0  0  0  0  0  0  0  0  0  0
  -29.2960  -19.7820   25.3110 H   0  0  0  0  0  0  0  0  0  0  0  0
  -28.8960  -18.8390   24.0550 H   0  0  0  0  0  0  0  0  0  0  0  0
  -29.2540  -18.9270   19.7800 C   0  0  0  0  0  3  0  0  0  0  0  0
  -29.5480  -20.5750   19.9460 C   0  0  0  0  0  3  0  0  0  0  0  0
  -28.5440  -21.8220   19.4490 C   0  0  0  0  0  2  0  0  0  0  0  0
  -28.8720  -23.4620   19.6020 C   0  0  0  0  0  3  0  0  0  0  0  0
  -27.7920  -24.6960   19.2700 C   0  0  0  0  0  3  0  0  0  0  0  0
  -28.0280  -26.2210   19.3750 O   0  0  0  0  0  0  0  0  0  0  0  0
  -24.3450  -31.5040   22.9050 C   0  0  0  0  0  0  0  0  0  0  0  0
  -26.9250  -27.1430   19.4210 C   0  0  0  0  0  0  0  0  0  0  0  0
  -23.1060  -30.1690   21.2440 C   0  0  0  0  0  3  0  0  0  0  0  0
  -24.5290  -28.7630   19.6360 C   0  0  0  0  0  0  0  0  0  0  0  0
  -25.6320  -30.5650   20.9520 C   0  0  0  0  0  2  0  0  0  0  0  0
  -25.7230  -29.2270   20.2040 C   0  0  0  0  0  0  0  0  0  0  0  0
  -26.9230  -28.4350   20.0770 C   0  0  0  0  0  3  0  0  0  0  0  0
  -25.6980  -26.7750   18.8250 C   0  0  0  0  0  3  0  0  0  0  0  0
  -24.5260  -27.5510   18.9310 C   0  0  0  0  0  3  0  0  0  0  0  0
  -23.2710  -29.5960   19.8110 C   0  0  0  0  0  2  0  0  0  0  0  0
  -24.3840  -30.7650   21.7550 N   0  0  0  0  0  0  0  0  0  0  0  0
  -23.2810  -31.7040   23.5130 O   0  0  0  0  0  0  0  0  0  0  0  0
  -22.5320  -29.0680   22.1710 C   0  0  0  0  0  0  0  0  0  0  0  0
  -21.2090  -28.8380   22.1010 N   0  0  0  0  0  0  0  0  0  0  0  0
  -23.2770  -28.4250   22.9150 O   0  0  0  0  0  0  0  0  0  0  0  0
  -20.6630  -29.4150   21.4770 H   0  0  0  0  0  0  0  0  0  0  0  0
  -17.9230  -27.4180   22.6650 C   0  0  0  0  0  0  0  0  0  0  0  0
  -20.4730  -27.8160   22.8510 C   0  0  0  0  0  3  0  0  0  0  0  0
  -20.6310  -26.4230   22.1960 C   0  0  0  0  0  2  0  0  0  0  0  0
  -19.5090  -26.0890   21.2090 C   0  0  0  0  0  2  0  0  0  0  0  0
  -18.1490  -26.1180   21.9110 C   0  0  0  0  0  2  0  0  0  0  0  0
  -19.0140  -28.2220   23.0930 C   0  0  0  0  0  0  0  0  0  0  0  0
  -18.7480  -29.4360   23.7630 C   0  0  0  0  0  3  0  0  0  0  0  0
  -17.4250  -29.8480   24.0070 C   0  0  0  0  0  3  0  0  0  0  0  0
  -16.3500  -29.0430   23.5940 C   0  0  0  0  0  3  0  0  0  0  0  0
  -16.6010  -27.8280   22.9300 C   0  0  0  0  0  3  0  0  0  0  0  0
  -25.6300  -32.1530   23.5010 C   0  0  0  0  0  3  0  0  0  0  0  0
  -26.2600  -31.3120   24.6800 C   0  0  1  0  0  0  0  0  0  0  0  0
  -25.2500  -30.9460   25.7950 C   0  0  0  0  0  1  0  0  0  0  0  0
  -26.8660  -29.9900   24.1510 C   0  0  0  0  0  1  0  0  0  0  0  0
  -27.4220  -32.1050   25.3250 C   0  0  0  0  0  1  0  0  0  0  0  0
  -25.2730  -33.5020   23.9670 N   0  0  0  0  0  0  0  0  0  0  0  0
  -25.5510  -34.6360   23.3120 C   0  0  0  0  0  0  0  0  0  0  0  0
  -26.2040  -34.6570   22.2640 O   0  0  0  0  0  0  0  0  0  0  0  0
  -24.6810  -33.5550   24.7830 H   0  0  0  0  0  0  0  0  0  0  0  0
  -23.7580  -36.3970   23.1670 C   0  0  0  0  0  1  0  0  0  0  0  0
  -25.0270  -35.9560   23.9120 C   0  0  0  0  0  3  0  0  0  0  0  0
  -27.1470  -36.8340   24.7910 C   0  0  0  0  0  1  0  0  0  0  0  0
  -26.0210  -37.0500   23.8860 N   0  0  0  0  0  0  0  0  0  0  0  0
  -25.5870  -37.9370   24.1300 H   0  0  0  0  0  0  0  0  0  0  0  0
  1 49  1  0
  1 40  1  0
  2 10  1  0
  2  8  1  0
  3  8  1  0
  4  5  1  0
  4  3  1  0
  6  5  1  0
  6 15  1  0
  6  7  1  0
  8  7  1  0
  9  2  2  0
 10  1  1  0
 10 11  1  0
 12 13  2  0
 13 32  1  0
 14 13  1  0
 14 17  1  0
 15 12  1  0
 15 16  1  0
 16 14  2  0
 17 18  1  0
 18 19  2  0
 20 23  1  0
 20 19  1  0
 21 20  2  0
 22 21  1  0
 22 17  2  0
 23 24  1  0
 24 25  1  0
 25 26  2  0
 27 26  1  0
 27 31  1  0
 28 27  2  0
 29 24  2  0
 29 28  1  0
 30 29  1  0
 32 33  1  0
 33 36  1  0
 33 35  1  0
 34 32  2  0
 37 38  1  0
 37 12  1  0
 39 37  1  0
 40 42  1  0
 40 41  2  0
 42 44  1  0
 44 45  1  0
 44 43  1  0
 45 47  1  0
 46 45  1  0
 48 45  1  0
 49 50  2  0
 51 52  1  0
 51 50  1  0
 53 54  1  0
 53 52  2  0
 54 56  1  0
 55 66  2  0
 56 61  1  0
 57 65  1  0
 57 67  1  0
 58 64  1  0
 58 60  1  0
 59 65  1  0
 60 59  1  0
 61 60  2  0
 62 63  1  0
 62 56  2  0
 63 58  2  0
 64 57  1  0
 65 55  1  0
 67 69  2  0
 68 67  1  0
 70 68  1  0
 71 80  2  0
 71 76  1  0
 72 68  1  0
 72 76  1  0
 73 72  1  0
 74 75  1  0
 74 73  1  0
 75 71  1  0
 76 77  2  0
 77 78  1  0
 79 78  2  0
 80 79  1  0
 81 55  1  0
 81 86  1  0
 81 82  1  0
 82 85  1  1
 82 83  1  0
 84 82  1  0
 86 89  1  0
 87 91  1  0
 87 86  1  0
 88 87  2  0
 91 90  1  0
 93 91  1  0
 93 94  1  0
 93 92  1  0
M  ISO  4   2 100  10 100  53 101  54 101
M  END
>  <TORSDO>  (96) 
F 25

>  <SCORE>  (96) 
-8.458

>  <name>  (96) 
97

>  <ligand_id>  (96) 
97

>  <original_smiles>  (96) 
[H]c1c([H])c([H])c2c(c1[H])C([H])([H])C([H])([H])C([H])([H])C2([H])N([H])C(=O)C1([H])N(C(=O)C([H])(N([H])C(=O)C([H])(N([H])C([H])([H])[H])C([H])([H])[H])C(C([H])([H])[H])(C([H])([H])[H])C([H])([H])[H])C([H])([H])c2c([H])c(OC([H])([H])C([H])([H])C([H])([H])C([H])([H])C([H])([H])C([H])(C(=O)C([H])([H])C([H])(C([H])([H])[H])[N+]([H])([H])[H])N([H])C(=O)N3C([H])([H])C([H])([H])C([H])([H])C([H])(n4nc(-c5c([H])c([H])c(Oc6c([H])c([H])c(F)c([H])c6F)c([H])c5[H])c(C(=O)N([H])[H])c4N([H])[H])C3([H])[H])c([H])c([H])c2C1([H])[H]

>  <smiles>  (96) 
[H]c1c([H])c([H])c2c(c1[H])C([H])([H])C([H])([H])C([H])([H])C2([H])N([H])C(=O)C1([H])N(C(=O)C([H])(N([H])C(=O)C([H])(N([H])C([H])([H])[H])C([H])([H])[H])C(C([H])([H])[H])(C([H])([H])[H])C([H])([H])[H])C([H])([H])c2c([H])c(OC([H])([H])C([H])([H])C([H])([H])C([H])([H])C([H])([H])C([H])(C(=O)C([H])([H])C([H])(C([H])([H])[H])[N+]([H])([H])[H])N([H])C(=O)N3C([H])([H])C([H])([H])C([H])([H])C([H])(n4nc(-c5c([H])c([H])c(Oc6c([H])c([H])c(F)c([H])c6F)c([H])c5[H])c(C(=O)N([H])[H])c4N([H])[H])C3([H])[H])c([H])c([H])c2C1([H])[H]

$$$$
98:0:0
     RDKit          3D

 91 99  0  0  1  0  0  0  0  0999 V2000
  -29.7590  -19.8110   17.6560 C   0  0  0  0  0  2  0  0  0  0  0  0
  -28.5480  -20.3990   18.3700 C   0  0  0  0  0  2  0  0  0  0  0  0
  -30.1880  -18.6070   18.4980 C   0  0  0  0  0  3  0  0  0  0  0  0
  -28.8800  -20.3560   19.8760 C   0  0  0  0  0  3  0  0  0  0  0  0
  -29.8810  -18.9840   19.9640 C   0  0  0  0  0  3  0  0  0  0  0  0
  -31.8530  -17.7040   16.7910 C   0  0  0  0  0  1  0  0  0  0  0  0
  -31.6520  -18.2080   18.2300 C   0  0  0  0  0  2  0  0  0  0  0  0
  -30.6360  -22.1600   20.7730 C   0  0  0  0  0  1  0  0  0  0  0  0
  -29.1430  -21.9150   20.4870 C   0  0  0  0  0  3  0  0  0  0  0  0
  -28.5060  -23.3390   19.8430 C   0  0  0  0  0  2  0  0  0  0  0  0
  -28.1600  -24.7550   20.6770 C   0  0  0  0  0  2  0  0  0  0  0  0
  -28.3040  -26.2300   20.2260 O   0  0  0  0  0  0  0  0  0  0  0  0
  -24.6260  -31.8570   23.2190 C   0  0  0  0  0  0  0  0  0  0  0  0
  -27.2180  -27.1670   20.2300 C   0  0  0  0  0  0  0  0  0  0  0  0
  -23.4250  -30.4580   21.5830 C   0  0  0  0  0  3  0  0  0  0  0  0
  -24.8780  -28.8800   20.1700 C   0  0  0  0  0  0  0  0  0  0  0  0
  -25.9730  -30.7380   21.4080 C   0  0  0  0  0  2  0  0  0  0  0  0
  -26.0540  -29.3460   20.7720 C   0  0  0  0  0  0  0  0  0  0  0  0
  -27.2270  -28.5070   20.7810 C   0  0  0  0  0  3  0  0  0  0  0  0
  -26.0130  -26.7800   19.6080 C   0  0  0  0  0  3  0  0  0  0  0  0
  -24.8670  -27.6080   19.5730 C   0  0  0  0  0  3  0  0  0  0  0  0
  -23.6440  -29.7700   20.2070 C   0  0  0  0  0  2  0  0  0  0  0  0
  -24.6960  -31.0360   22.1270 N   0  0  0  0  0  0  0  0  0  0  0  0
  -23.5430  -32.1430   23.7500 O   0  0  0  0  0  0  0  0  0  0  0  0
  -22.7530  -29.4500   22.5450 C   0  0  0  0  0  0  0  0  0  0  0  0
  -21.4260  -29.2760   22.4230 N   0  0  0  0  0  0  0  0  0  0  0  0
  -23.4270  -28.8260   23.3710 O   0  0  0  0  0  0  0  0  0  0  0  0
  -20.9350  -29.8320   21.7360 H   0  0  0  0  0  0  0  0  0  0  0  0
  -18.0540  -28.0750   22.9220 C   0  0  0  0  0  0  0  0  0  0  0  0
  -20.6100  -28.3420   23.2000 C   0  0  0  0  0  3  0  0  0  0  0  0
  -20.7160  -26.9040   22.6420 C   0  0  0  0  0  2  0  0  0  0  0  0
  -19.6240  -26.5720   21.6200 C   0  0  0  0  0  2  0  0  0  0  0  0
  -18.2360  -26.7230   22.2500 C   0  0  0  0  0  2  0  0  0  0  0  0
  -19.1700  -28.8420   23.3540 C   0  0  0  0  0  0  0  0  0  0  0  0
  -18.9460  -30.1060   23.9410 C   0  0  0  0  0  3  0  0  0  0  0  0
  -17.6390  -30.6030   24.1050 C   0  0  0  0  0  3  0  0  0  0  0  0
  -16.5390  -29.8330   23.6890 C   0  0  0  0  0  3  0  0  0  0  0  0
  -16.7460  -28.5740   23.1030 C   0  0  0  0  0  3  0  0  0  0  0  0
  -25.9080  -32.4950   23.8420 C   0  0  0  0  0  3  0  0  0  0  0  0
  -25.5950  -33.8930   24.1780 N   0  0  0  0  0  0  0  0  0  0  0  0
  -25.9200  -34.9510   23.4230 C   0  0  0  0  0  0  0  0  0  0  0  0
  -26.5840  -34.8540   22.3870 O   0  0  0  0  0  0  0  0  0  0  0  0
  -25.0050  -34.0420   24.9840 H   0  0  0  0  0  0  0  0  0  0  0  0
  -24.1830  -36.7400   23.0940 C   0  0  0  0  0  1  0  0  0  0  0  0
  -25.4310  -36.3350   23.8920 C   0  0  0  0  0  3  0  0  0  0  0  0
  -27.5710  -37.2210   24.7070 C   0  0  0  0  0  1  0  0  0  0  0  0
  -26.4590  -37.3920   23.7780 N   0  0  0  0  0  0  0  0  0  0  0  0
  -26.0480  -38.3090   23.9410 H   0  0  0  0  0  0  0  0  0  0  0  0
  -26.4270  -31.7260   25.1170 C   0  0  1  0  0  0  0  0  0  0  0  0
  -25.3340  -31.4950   26.1880 C   0  0  0  0  0  1  0  0  0  0  0  0
  -27.0040  -30.3450   24.7290 C   0  0  0  0  0  1  0  0  0  0  0  0
  -27.5870  -32.5140   25.7700 C   0  0  0  0  0  1  0  0  0  0  0  0
  -29.5790  -17.5810   20.8250 C   0  0  0  0  0  2  0  0  0  0  0  0
  -30.4750  -14.9340   20.3620 C   0  0  0  0  0  0  0  0  0  0  0  0
  -30.3930  -12.6170   19.3520 C   0  0  0  0  0  2  0  0  0  0  0  0
  -29.4270  -12.5840   18.1460 C   0  0  0  0  0  2  0  0  0  0  0  0
  -27.9700  -12.3550   18.6010 C   0  0  0  0  0  2  0  0  0  0  0  0
  -27.5740  -13.2580   19.7950 C   0  0  0  0  0  3  0  0  0  0  0  0
  -28.6500  -13.2270   20.8970 C   0  0  0  0  0  2  0  0  0  0  0  0
  -29.9040  -13.6720   20.2740 N   0  0  0  0  0  0  0  0  0  0  0  0
  -31.6980  -15.0300   20.2180 O   0  0  0  0  0  0  0  0  0  0  0  0
  -29.6200  -16.0620   20.3700 N   0  0  0  0  0  0  0  0  0  0  0  0
  -28.6790  -15.7410   20.2130 H   0  0  0  0  0  0  0  0  0  0  0  0
  -25.2010  -13.8450   20.5500 C   0  0  0  0  0  0  0  0  0  0  0  0
  -24.1370  -13.0720   20.9270 C   0  0  0  0  0  0  0  0  0  0  0  0
  -24.5960  -11.7220   20.8870 C   0  0  0  0  0  0  0  0  0  0  0  0
  -26.2390  -12.9620   20.3050 N   0  0  0  0  0  0  0  0  0  0  0  0
  -25.8870  -11.6790   20.5740 N   0  0  0  0  0  0  0  0  0  0  0  0
  -23.8660  -10.4620   21.0750 C   0  0  0  0  0  0  0  0  0  0  0  0
  -24.3110   -9.4850   21.9890 C   0  0  0  0  0  3  0  0  0  0  0  0
  -23.5860   -8.2860   22.1650 C   0  0  0  0  0  3  0  0  0  0  0  0
  -22.3980   -8.0620   21.4290 C   0  0  0  0  0  0  0  0  0  0  0  0
  -21.9760   -9.0260   20.4990 C   0  0  0  0  0  3  0  0  0  0  0  0
  -22.7010  -10.2170   20.3210 C   0  0  0  0  0  3  0  0  0  0  0  0
  -21.6390   -6.9210   21.5220 O   0  0  0  0  0  0  0  0  0  0  0  0
  -21.6150   -6.1610   22.6670 C   0  0  0  0  0  0  0  0  0  0  0  0
  -21.2310   -6.6980   23.9150 C   0  0  0  0  0  3  0  0  0  0  0  0
  -21.1590   -5.8640   25.0490 C   0  0  0  0  0  3  0  0  0  0  0  0
  -21.4560   -4.4920   24.9350 C   0  0  0  0  0  0  0  0  0  0  0  0
  -21.8290   -3.9550   23.6910 C   0  0  0  0  0  3  0  0  0  0  0  0
  -21.9070   -4.7860   22.5610 C   0  0  0  0  0  0  0  0  0  0  0  0
  -22.2480   -4.2590   21.3610 F   0  0  0  0  0  0  0  0  0  0  0  0
  -21.3770   -3.6860   26.0200 F   0  0  0  0  0  0  0  0  0  0  0  0
  -22.7410  -13.5530   21.1990 C   0  0  0  0  0  0  0  0  0  0  0  0
  -22.0120  -12.8620   22.0670 N   0  0  0  0  0  0  0  0  0  0  0  0
  -22.3060  -14.5770   20.6740 O   0  0  0  0  0  0  0  0  0  0  0  0
  -22.3670  -12.0360   22.5270 H   0  0  0  0  0  0  0  0  0  0  0  0
  -21.0720  -13.1670   22.2760 H   0  0  0  0  0  0  0  0  0  0  0  0
  -25.3640  -15.2160   20.3590 N   0  0  0  0  0  0  0  0  0  0  0  0
  -24.5880  -15.8630   20.4360 H   0  0  0  0  0  0  0  0  0  0  0  0
  -26.1810  -15.6380   19.9430 H   0  0  0  0  0  0  0  0  0  0  0  0
  1  2  1  0
  1  3  1  0
  2  4  1  0
  3  7  1  0
  3  5  1  0
  4  5  1  0
  4  9  1  0
  5 53  1  0
  6  7  1  0
  9  8  1  0
 10  9  1  0
 10 11  1  0
 12 14  1  0
 12 11  1  0
 13 24  2  0
 14 19  1  0
 15 23  1  0
 15 25  1  0
 16 22  1  0
 16 18  1  0
 17 23  1  0
 18 19  2  0
 18 17  1  0
 20 14  2  0
 21 20  1  0
 21 16  2  0
 22 15  1  0
 23 13  1  0
 25 27  2  0
 26 25  1  0
 28 26  1  0
 29 38  2  0
 29 34  1  0
 30 26  1  0
 30 34  1  0
 31 30  1  0
 32 33  1  0
 32 31  1  0
 33 29  1  0
 34 35  2  0
 35 36  1  0
 37 36  2  0
 38 37  1  0
 39 13  1  0
 39 40  1  0
 39 49  1  0
 40 43  1  0
 41 45  1  0
 41 40  1  0
 42 41  2  0
 45 44  1  0
 47 45  1  0
 47 48  1  0
 47 46  1  0
 49 52  1  1
 49 50  1  0
 51 49  1  0
 54 62  1  0
 55 60  1  0
 56 57  1  0
 56 55  1  0
 58 57  1  0
 58 67  1  0
 58 59  1  0
 60 54  1  0
 60 59  1  0
 61 54  2  0
 62 53  1  0
 63 62  1  0
 64 65  2  0
 65 84  1  0
 66 65  1  0
 66 69  1  0
 67 64  1  0
 67 68  1  0
 68 66  2  0
 69 70  1  0
 70 71  2  0
 72 75  1  0
 72 71  1  0
 73 72  2  0
 74 73  1  0
 74 69  2  0
 75 76  1  0
 76 77  1  0
 77 78  2  0
 79 78  1  0
 79 83  1  0
 80 79  2  0
 81 76  2  0
 81 80  1  0
 82 81  1  0
 84 85  1  0
 85 88  1  0
 85 87  1  0
 86 84  2  0
 89 90  1  0
 89 64  1  0
 91 89  1  0
M  ISO  4  11 101  12 101  54 100  62 100
M  END
>  <TORSDO>  (97) 
F 21

>  <SCORE>  (97) 
-13.901

>  <name>  (97) 
98

>  <ligand_id>  (97) 
98

>  <original_smiles>  (97) 
[H]c1c([H])c([H])c2c(c1[H])C([H])([H])C([H])([H])C([H])([H])C2([H])N([H])C(=O)C1([H])N(C(=O)C([H])(N([H])C(=O)C([H])(N([H])C([H])([H])[H])C([H])([H])[H])C(C([H])([H])[H])(C([H])([H])[H])C([H])([H])[H])C([H])([H])c2c([H])c(OC([H])([H])C([H])([H])C([H])(C([H])([H])[H])C3([H])C([H])([H])C([H])([H])C([H])(C([H])([H])C([H])([H])[H])C3([H])C([H])([H])N([H])C(=O)N3C([H])([H])C([H])([H])C([H])([H])C([H])(n4nc(-c5c([H])c([H])c(Oc6c([H])c([H])c(F)c([H])c6F)c([H])c5[H])c(C(=O)N([H])[H])c4N([H])[H])C3([H])[H])c([H])c([H])c2C1([H])[H]

>  <smiles>  (97) 
[H]c1c([H])c([H])c2c(c1[H])C([H])([H])C([H])([H])C([H])([H])C2([H])N([H])C(=O)C1([H])N(C(=O)C([H])(N([H])C(=O)C([H])(N([H])C([H])([H])[H])C([H])([H])[H])C(C([H])([H])[H])(C([H])([H])[H])C([H])([H])[H])C([H])([H])c2c([H])c(OC([H])([H])C([H])([H])C([H])(C([H])([H])[H])C3([H])C([H])([H])C([H])([H])C([H])(C([H])([H])C([H])([H])[H])C3([H])C([H])([H])N([H])C(=O)N3C([H])([H])C([H])([H])C([H])([H])C([H])(n4nc(-c5c([H])c([H])c(Oc6c([H])c([H])c(F)c([H])c6F)c([H])c5[H])c(C(=O)N([H])[H])c4N([H])[H])C3([H])[H])c([H])c([H])c2C1([H])[H]

$$$$
